# Generated by pormake.
# Topology anh, (6,3)-cn, num edge types: 1
# Building blocks:
#     Node 0, Type 0, BuildingBlock: NUHQIS_clean_sbu_0, # of connection points: 6
#     Node 1, Type 0, BuildingBlock: NUHQIS_clean_sbu_0, # of connection points: 6
#     Node 2, Type 0, BuildingBlock: NUHQIS_clean_sbu_0, # of connection points: 6
#     Node 3, Type 1, BuildingBlock: KAKCAD_clean_linker_0, # of connection points: 3
#     Node 4, Type 1, BuildingBlock: KAKCAD_clean_linker_0, # of connection points: 3
#     Node 5, Type 1, BuildingBlock: KAKCAD_clean_linker_0, # of connection points: 3
#     Node 6, Type 1, BuildingBlock: KAKCAD_clean_linker_0, # of connection points: 3
#     Node 7, Type 1, BuildingBlock: KAKCAD_clean_linker_0, # of connection points: 3
#     Node 8, Type 1, BuildingBlock: KAKCAD_clean_linker_0, # of connection points: 3
#     Edge 9, Type (0, 1), BuildingBlock: OJICUG_clean_linker_0, # of connection points: 2
#     Edge 10, Type (0, 1), BuildingBlock: OJICUG_clean_linker_0, # of connection points: 2
#     Edge 11, Type (0, 1), BuildingBlock: OJICUG_clean_linker_0, # of connection points: 2
#     Edge 12, Type (0, 1), BuildingBlock: OJICUG_clean_linker_0, # of connection points: 2
#     Edge 13, Type (0, 1), BuildingBlock: OJICUG_clean_linker_0, # of connection points: 2
#     Edge 14, Type (0, 1), BuildingBlock: OJICUG_clean_linker_0, # of connection points: 2
#     Edge 15, Type (0, 1), BuildingBlock: OJICUG_clean_linker_0, # of connection points: 2
#     Edge 16, Type (0, 1), BuildingBlock: OJICUG_clean_linker_0, # of connection points: 2
#     Edge 17, Type (0, 1), BuildingBlock: OJICUG_clean_linker_0, # of connection points: 2
#     Edge 18, Type (0, 1), BuildingBlock: OJICUG_clean_linker_0, # of connection points: 2
#     Edge 19, Type (0, 1), BuildingBlock: OJICUG_clean_linker_0, # of connection points: 2
#     Edge 20, Type (0, 1), BuildingBlock: OJICUG_clean_linker_0, # of connection points: 2
#     Edge 21, Type (0, 1), BuildingBlock: OJICUG_clean_linker_0, # of connection points: 2
#     Edge 22, Type (0, 1), BuildingBlock: OJICUG_clean_linker_0, # of connection points: 2
#     Edge 23, Type (0, 1), BuildingBlock: OJICUG_clean_linker_0, # of connection points: 2
#     Edge 24, Type (0, 1), BuildingBlock: OJICUG_clean_linker_0, # of connection points: 2
#     Edge 25, Type (0, 1), BuildingBlock: OJICUG_clean_linker_0, # of connection points: 2
#     Edge 26, Type (0, 1), BuildingBlock: OJICUG_clean_linker_0, # of connection points: 2
# Relax obj value: 0.299
# Max RMSD: 0.197
# Mean RMSD: 0.163
data_MOF--net-anh--node1-NUHQIS_clean_sbu_0--node2-KAKCAD_clean_linker_0--edge1-OJICUG_clean_linker_0
_symmetry_space_group_name_H-M    P1
_symmetry_Int_Tables_number       1
_symmetry_cell_setting            triclinic
loop_
_symmetry_equiv_pos_as_xyz
'x, y, z'
_cell_length_a     28.520394
_cell_length_b     28.394362
_cell_length_c     52.842918
_cell_angle_alpha  91.310153
_cell_angle_beta   90.909864
_cell_angle_gamma 120.22409
loop_
_atom_site_label
_atom_site_type_symbol
_atom_site_fract_x
_atom_site_fract_y
_atom_site_fract_z
_atom_type_partial_charge
Tb0 Tb 0.22498 0.63557 0.16281 0.0
Eu1 Eu 0.1607 0.6995 0.15385 0.0
C2 C 0.17991 0.66897 0.20784 0.0
C3 C 1.0927 0.56614 0.16083 0.0
C4 C 0.30187 0.55514 0.17598 0.0
C5 C 0.29663 0.46997 0.18616 0.0
C6 C 0.27482 0.50422 0.18718 0.0
C7 C 0.35331 0.57389 0.16615 0.0
C8 C 0.37525 0.53992 0.16526 0.0
C9 C 0.34577 0.48663 0.17407 0.0
C10 C 0.27343 0.58483 0.17112 0.0
O11 O 0.20535 0.62367 0.12196 0.0
O12 O 0.18896 0.69355 0.11514 0.0
O13 O 0.24785 0.76759 0.16388 0.0
O14 O 0.29315 0.72015 0.16133 0.0
C15 C 0.19859 0.6557 0.10654 0.0
O16 O 1.10642 0.71861 0.13291 0.0
O17 O 0.14494 0.76246 0.16839 0.0
O18 O 0.14228 0.66474 0.19216 0.0
O19 O 0.2245 0.67324 0.19914 0.0
O20 O 0.13972 0.56901 0.16567 0.0
O21 O 1.09118 0.60993 0.15393 0.0
C22 C 0.29372 0.76675 0.16411 0.0
O23 O 0.23351 0.57942 0.1848 0.0
O24 O 0.28619 0.61886 0.15282 0.0
C25 C 1.0521 0.73066 0.16155 0.0
C26 C 0.94215 0.66165 0.17098 0.0
C27 C 0.95773 0.69793 0.15095 0.0
C28 C 1.0125 0.73219 0.14624 0.0
C29 C 1.03669 0.69911 0.18326 0.0
C30 C 0.982 0.66489 0.18797 0.0
C31 C 1.10596 0.74947 0.15153 0.0
H32 H 0.27339 0.42916 0.19318 0.0
H33 H 0.23501 0.48919 0.19493 0.0
H34 H 0.37492 0.61329 0.15757 0.0
H35 H 0.41292 0.55373 0.15556 0.0
H36 H 0.92789 0.69588 0.13735 0.0
H37 H 1.02369 0.75573 0.12927 0.0
H38 H 1.06659 0.697 0.19531 0.0
H39 H 0.97099 0.63763 0.20362 0.0
Tb40 Tb 0.73473 0.13719 0.49813 0.0
Eu41 Eu 0.60902 1.07609 0.48405 0.0
C42 C 0.64972 0.10894 0.53938 0.0
C43 C 0.67071 1.00732 0.49597 0.0
C44 C 0.87691 0.2418 0.51247 0.0
C45 C 0.97168 0.30964 0.50872 0.0
C46 C 0.93063 0.25509 0.50887 0.0
C47 C 0.86451 0.28327 0.51645 0.0
C48 C 0.90538 0.33761 0.51641 0.0
C49 C 0.95922 0.35128 0.51227 0.0
C50 C 0.8337 0.18482 0.51137 0.0
O51 O 0.72855 0.15396 0.4579 0.0
O52 O 0.64995 1.07528 0.44848 0.0
O53 O 0.63217 0.16658 0.48503 0.0
O54 O 0.71893 0.20603 0.50216 0.0
C55 C 0.69382 0.11798 0.44097 0.0
O56 O 0.52774 1.01193 0.49258 0.0
O57 O 0.54057 1.06129 0.45956 0.0
O58 O 0.61898 0.11343 0.52243 0.0
O59 O 0.68917 0.10121 0.53225 0.0
O60 O 0.71627 1.05246 0.49129 0.0
O61 O 0.62516 1.00862 0.49743 0.0
C62 C 0.67643 0.20995 0.49475 0.0
O63 O 0.7946 0.17277 0.52692 0.0
O64 O 0.81539 0.16334 0.48875 0.0
C65 C 0.45966 1.03177 0.482 0.0
C66 C 0.36728 1.03882 0.49324 0.0
C67 C 0.36712 0.98937 0.49555 0.0
C68 C 0.41277 0.98598 0.48996 0.0
C69 C 0.4617 1.08224 0.48124 0.0
C70 C 0.41566 1.08568 0.48674 0.0
C71 C 0.50529 1.02518 0.47451 0.0
H72 H 1.01291 0.31933 0.50536 0.0
H73 H 0.94061 0.22335 0.50571 0.0
H74 H 0.82311 0.2737 0.51912 0.0
H75 H 0.89443 0.36888 0.51855 0.0
H76 H 0.33054 0.952 0.49993 0.0
H77 H 0.41078 0.94692 0.49094 0.0
H78 H 0.49815 0.1185 0.47566 0.0
H79 H 0.41718 0.12432 0.48487 0.0
Tb80 Tb 0.73755 0.67403 0.8307 0.0
Eu81 Eu 0.67285 0.54516 0.8235 0.0
C82 C 0.69387 0.60141 0.87685 0.0
C83 C 0.80591 0.61245 0.83261 0.0
C84 C 0.75765 0.80689 0.82421 0.0
C85 C 0.71499 0.86058 0.83316 0.0
C86 C 0.75091 0.84296 0.84024 0.0
C87 C 0.73065 0.79141 0.80037 0.0
C88 C 0.69471 0.80865 0.79341 0.0
C89 C 0.6852 0.84173 0.81012 0.0
C90 C 0.78128 0.77558 0.83442 0.0
O91 O 0.70785 0.65594 0.79088 0.0
O92 O 0.70827 0.5768 0.78584 0.0
O93 O 0.60375 0.56513 0.82177 0.0
O94 O 0.65246 0.65479 0.83562 0.0
C95 C 0.70837 0.61854 0.77595 0.0
O96 O 0.65556 0.4673 0.83833 0.0
O97 O 0.62042 0.47022 0.80184 0.0
O98 O 0.65534 0.5658 0.86166 0.0
O99 O 0.73827 0.64104 0.86766 0.0
O100 O 0.80543 0.65763 0.82766 0.0
O101 O 0.75966 0.56619 0.83475 0.0
C102 C 0.60525 0.61055 0.82967 0.0
O103 O 0.75345 0.74356 0.85243 0.0
O104 O 0.79528 0.75064 0.81773 0.0
C105 C 0.57019 0.3928 0.82614 0.0
C106 C 0.46968 0.29677 0.82985 0.0
C107 C 0.51853 0.29597 0.83245 0.0
C108 C 0.56829 0.34364 0.83059 0.0
C109 C 0.5222 0.39517 0.82604 0.0
C110 C 0.47213 0.34731 0.82793 0.0
C111 C 0.622 0.43951 0.81951 0.0
H112 H 0.70803 0.88611 0.8463 0.0
H113 H 0.7705 0.85445 0.85888 0.0
H114 H 0.73447 0.76311 0.78769 0.0
H115 H 0.67267 0.79433 0.77537 0.0
H116 H 0.5186 0.25799 0.83361 0.0
H117 H 0.60517 0.34145 0.83098 0.0
H118 H 0.52323 0.43331 0.82308 0.0
H119 H 0.43531 0.34936 0.8262 0.0
C120 C 0.7275 0.1978 0.32072 0.0
C121 C 0.71143 0.14699 0.33137 0.0
C122 C 0.7266 0.20277 0.29429 0.0
C123 C 0.70951 0.15707 0.27772 0.0
C124 C 0.69489 0.10666 0.28838 0.0
C125 C 0.6959 0.10173 0.31469 0.0
C126 C 0.70585 0.1612 0.24951 0.0
C127 C 0.74664 0.20558 0.2368 0.0
C128 C 0.74532 0.20924 0.21014 0.0
C129 C 0.69922 0.16641 0.19613 0.0
C130 C 0.65726 0.12054 0.20875 0.0
C131 C 0.66181 0.11962 0.23528 0.0
C132 C 0.60892 1.07063 0.19585 0.0
C133 C 0.56646 1.07311 0.18302 0.0
C134 C 0.59972 1.0181 0.20102 0.0
C135 C 0.55006 0.97031 0.1945 0.0
C136 C 0.50655 0.97225 0.18235 0.0
C137 C 0.79462 0.25725 0.19837 0.0
C138 C 0.79063 0.2917 0.18063 0.0
C139 C 0.84754 0.2729 0.20748 0.0
C140 C 0.89388 0.32119 0.20013 0.0
C141 C 0.89046 0.35683 0.18291 0.0
C142 C 0.83748 0.34049 0.17312 0.0
C143 C 0.51636 1.02494 0.17638 0.0
H144 H 0.73926 0.23356 0.3328 0.0
H145 H 0.73786 0.2422 0.28687 0.0
H146 H 0.68277 1.07075 0.27633 0.0
H147 H 0.6845 1.06214 0.32194 0.0
H148 H 0.78062 0.23737 0.24787 0.0
H149 H 0.62999 1.08577 0.2451 0.0
H150 H 0.69716 0.16759 0.1757 0.0
H151 H 0.57097 0.11243 0.17913 0.0
H152 H 0.63059 1.01399 0.21129 0.0
H153 H 0.54536 0.93181 0.2001 0.0
H154 H 0.75107 0.28201 0.17317 0.0
H155 H 0.85329 0.24802 0.22101 0.0
H156 H 0.48505 1.02934 0.1668 0.0
H157 H 0.83185 0.36544 0.15963 0.0
H158 H 0.93247 0.33108 0.20883 0.0
C159 C 0.66522 0.64069 0.65264 0.0
C160 C 0.69812 0.6241 0.66526 0.0
C161 C 0.66122 0.63906 0.62603 0.0
C162 C 0.69 0.62083 0.61119 0.0
C163 C 0.72361 0.60519 0.62383 0.0
C164 C 0.72758 0.60677 0.65037 0.0
C165 C 0.685 0.61777 0.58272 0.0
C166 C 0.68296 0.65901 0.56936 0.0
C167 C 0.67965 0.65808 0.54264 0.0
C168 C 0.67753 0.61243 0.52902 0.0
C169 C 0.6806 0.5702 0.54225 0.0
C170 C 0.68353 0.57403 0.56896 0.0
C171 C 0.68364 0.52238 0.52992 0.0
C172 C 0.64299 0.48299 0.51317 0.0
C173 C 0.7239 0.5109 0.53854 0.0
C174 C 0.72286 0.46198 0.53162 0.0
C175 C 0.6816 0.42139 0.51542 0.0
C176 C 0.68144 0.70755 0.53058 0.0
C177 C 0.6395 0.70363 0.51447 0.0
C178 C 0.72184 0.76076 0.5388 0.0
C179 C 0.71995 0.80762 0.53194 0.0
C180 C 0.67738 0.80415 0.51644 0.0
C181 C 0.63742 0.75088 0.50762 0.0
C182 C 0.64199 0.43364 0.50607 0.0
H183 H 0.64139 0.6537 0.66331 0.0
H184 H 0.63451 0.65097 0.6171 0.0
H185 H 0.74746 0.59211 0.6132 0.0
H186 H 0.75429 0.59477 0.65921 0.0
H187 H 0.68494 0.69312 0.57997 0.0
H188 H 0.68427 0.54186 0.57929 0.0
H189 H 0.67585 0.61101 0.50852 0.0
H190 H 0.6106 0.48921 0.50631 0.0
H191 H 0.75583 0.53941 0.55161 0.0
H192 H 0.75396 0.45559 0.53998 0.0
H193 H 0.60699 0.66382 0.50797 0.0
H194 H 0.75463 0.76617 0.55142 0.0
H195 H 0.60956 0.4049 0.49334 0.0
H196 H 0.60403 0.74542 0.49546 0.0
H197 H 0.75137 0.84672 0.53972 0.0
C198 C 0.25652 0.65355 0.98467 0.0
C199 C 0.20684 0.63166 -0.00302 0.0
C200 C 0.25784 0.65058 0.9581 0.0
C201 C 0.20942 0.62457 0.94307 0.0
C202 C 0.15977 0.60128 0.95568 0.0
C203 C 0.15856 0.6054 0.98213 0.0
C204 C 0.21028 0.62255 0.91449 0.0
C205 C 0.25218 0.62015 0.90177 0.0
C206 C 0.25434 0.61895 0.87504 0.0
C207 C 0.21022 0.61771 0.86075 0.0
C208 C 0.16725 0.62064 0.87331 0.0
C209 C 0.16911 0.62369 0.89994 0.0
C210 C 1.11989 0.62264 0.86041 0.0
C211 C 1.11313 0.66805 0.86511 0.0
C212 C 1.07505 0.57585 0.84898 0.0
C213 C 1.02534 0.5743 0.84307 0.0
C214 C 1.01801 0.6194 0.84847 0.0
C215 C 0.30478 0.62108 0.86374 0.0
C216 C 0.35697 0.65829 0.87423 0.0
C217 C 0.30229 0.5829 0.84532 0.0
C218 C 0.34969 0.58114 0.83845 0.0
C219 C 0.40188 0.61776 0.84952 0.0
C220 C 0.40395 0.65669 0.86739 0.0
C221 C 1.06377 0.6666 0.85925 0.0
H222 H 0.29446 0.67444 -0.00443 0.0
H223 H 0.29701 0.6699 0.94941 0.0
H224 H 1.12141 0.57946 0.94519 0.0
H225 H 1.1196 0.58751 0.99104 0.0
H226 H 0.28356 0.61848 0.91284 0.0
H227 H 0.13776 0.62751 0.90945 0.0
H228 H 0.21037 0.61654 0.84026 0.0
H229 H 0.14566 0.70439 0.87458 0.0
H230 H 1.07743 0.53935 0.84569 0.0
H231 H 0.99232 0.53706 0.83455 0.0
H232 H 0.36151 0.68845 0.88849 0.0
H233 H 0.26336 0.55297 0.83685 0.0
H234 H 1.06111 0.70227 0.86435 0.0
H235 H 0.44191 0.68544 0.87699 0.0
H236 H 0.34513 0.55065 0.82442 0.0
C237 C 1.11121 0.71566 0.31821 0.0
C238 C 0.1463 0.69558 0.31302 0.0
C239 C 1.10144 0.72461 0.3431 0.0
C240 C 1.12687 0.71408 0.36333 0.0
C241 C 0.16256 0.69469 0.35816 0.0
C242 C 0.17212 0.68544 0.33323 0.0
C243 C 1.11676 0.72382 0.38978 0.0
C244 C 1.11121 0.68711 0.40831 0.0
C245 C 1.10537 0.69767 0.43369 0.0
C246 C 1.10489 0.74523 0.44065 0.0
C247 C 1.11058 0.78281 0.42236 0.0
C248 C 1.11512 0.77095 0.39682 0.0
C249 C 1.12136 0.83783 0.43064 0.0
C250 C 1.09825 0.84541 0.45259 0.0
C251 C 0.1626 0.88392 0.41923 0.0
C252 C 0.1855 0.93499 0.43134 0.0
C253 C 0.16839 0.94123 0.45542 0.0
C254 C 1.09982 0.65859 0.45284 0.0
C255 C 1.05607 0.63818 0.46911 0.0
C256 C 0.1354 0.63801 0.45342 0.0
C257 C 1.12511 0.59486 0.46879 0.0
C258 C 1.07868 0.57123 0.48352 0.0
C259 C 1.04539 0.59463 0.48427 0.0
C260 C 1.12157 0.89677 0.46489 0.0
H261 H 1.0914 0.72474 0.30301 0.0
H262 H 1.07353 0.73926 0.34649 0.0
H263 H 0.18347 0.68703 0.37338 0.0
H264 H 0.19912 0.66969 0.32981 0.0
H265 H 1.11088 0.64984 0.40297 0.0
H266 H 1.12001 0.7997 0.38253 0.0
H267 H 1.10325 0.75415 0.46055 0.0
H268 H 1.06503 0.81095 0.4614 0.0
H269 H 0.18174 0.88018 0.40238 0.0
H270 H 0.22126 0.96771 0.42311 0.0
H271 H 1.0281 0.65349 0.46887 0.0
H272 H 0.16998 0.65396 0.44126 0.0
H273 H 1.1062 0.90035 0.48301 0.0
H274 H 1.00883 0.57689 0.49512 0.0
H275 H 0.15189 0.57817 0.46816 0.0
C276 C 0.50607 0.99601 0.6352 0.0
C277 C 0.53741 1.05247 0.63192 0.0
C278 C 0.47107 0.97585 0.65533 0.0
C279 C 0.46666 1.01174 0.67252 0.0
C280 C 0.49647 1.06808 0.66874 0.0
C281 C 0.53157 1.08827 0.64862 0.0
C282 C 0.43799 0.99151 0.69636 0.0
C283 C 0.45032 0.95868 0.71106 0.0
C284 C 0.43354 0.94801 0.73603 0.0
C285 C 0.40326 0.96984 0.74625 0.0
C286 C 0.38988 1.0026 0.73172 0.0
C287 C 0.40622 1.01184 0.70642 0.0
C288 C 0.36827 1.03475 0.74442 0.0
C289 C 0.3352 1.0149 0.7656 0.0
C290 C 0.38773 0.08908 0.73788 0.0
C291 C 0.37855 0.12377 0.75326 0.0
C292 C 0.35054 0.10546 0.77585 0.0
C293 C 0.45593 0.92199 0.75226 0.0
C294 C 0.45913 0.8772 0.74274 0.0
C295 C 0.48151 0.94675 0.77568 0.0
C296 C 0.51279 0.92931 0.7885 0.0
C297 C 0.51935 0.88719 0.77799 0.0
C298 C 0.4908 0.86013 0.75541 0.0
C299 C 0.32708 1.05017 0.7814 0.0
H300 H 0.50863 0.96737 0.62221 0.0
H301 H 0.44842 0.93223 0.65786 0.0
H302 H 0.49468 0.09671 0.68203 0.0
H303 H 0.55529 0.13199 0.64657 0.0
H304 H 0.47739 0.9455 0.70379 0.0
H305 H 0.39686 1.03723 0.69486 0.0
H306 H 0.39345 0.96411 0.76606 0.0
H307 H 0.3183 0.97292 0.77089 0.0
H308 H 0.4142 0.10668 0.72214 0.0
H309 H 0.39819 0.16641 0.74865 0.0
H310 H 0.43953 0.8573 0.72477 0.0
H311 H 0.48026 0.98181 0.78333 0.0
H312 H 0.30525 1.03503 0.79869 0.0
H313 H 0.49541 0.82789 0.74666 0.0
H314 H 0.53366 0.9503 0.80608 0.0
C315 C 0.67496 0.48143 0.98084 0.0
C316 C 0.65309 0.51502 0.97566 0.0
C317 C 0.65734 0.44722 0.00143 0.0
C318 C 0.61719 0.44563 0.01699 0.0
C319 C 0.59637 0.48019 0.01219 0.0
C320 C 0.61424 0.51461 0.99181 0.0
C321 C 0.59921 0.41084 0.03925 0.0
C322 C 0.63799 0.41548 0.0573 0.0
C323 C 0.62192 0.39274 0.08111 0.0
C324 C 0.56664 0.36184 0.08601 0.0
C325 C 0.52753 0.35949 0.0688 0.0
C326 C 0.5439 0.38172 0.04489 0.0
C327 C 0.47614 0.3514 0.07924 0.0
C328 C 0.45095 0.31434 0.09865 0.0
C329 C 0.46231 0.39184 0.07535 0.0
C330 C 0.43054 0.39991 0.0926 0.0
C331 C 0.41197 0.3676 0.11384 0.0
C332 C 0.66159 0.41415 0.10267 0.0
C333 C 0.7135 0.42086 0.10041 0.0
C334 C 0.65007 0.436 0.1243 0.0
C335 C 0.69065 0.46731 0.14234 0.0
C336 C 0.74352 0.47757 0.13907 0.0
C337 C 0.75422 0.45223 0.11857 0.0
C338 C 0.41964 0.32299 0.11617 0.0
H339 H 0.7044 0.48026 0.96854 0.0
H340 H 0.67434 0.42131 0.00495 0.0
H341 H 0.56664 0.48106 0.0244 0.0
H342 H 0.59729 0.54067 0.98857 0.0
H343 H 0.68075 0.44217 0.05391 0.0
H344 H 0.51413 0.38093 0.0316 0.0
H345 H 0.55511 0.34692 0.10491 0.0
H346 H 0.46029 0.28238 0.10189 0.0
H347 H 0.48109 0.42153 0.06085 0.0
H348 H 0.42462 0.43451 0.09063 0.0
H349 H 0.72332 0.40451 0.08391 0.0
H350 H 0.61075 0.43256 0.12639 0.0
H351 H 0.40521 0.29768 0.13251 0.0
H352 H 0.79499 0.46012 0.11551 0.0
H353 H 0.68158 0.48645 0.158 0.0
C354 C 0.32182 0.39823 0.15268 0.0
C355 C 0.36089 0.44635 0.1657 0.0
H356 H 0.308 0.3347 0.12561 0.0
C357 C 0.41578 0.46105 0.16541 0.0
H358 H 0.27928 0.38637 0.15231 0.0
C359 C 0.4319 0.43163 0.15005 0.0
C360 C 0.39326 0.38701 0.13507 0.0
H361 H 0.44654 0.49783 0.17536 0.0
H362 H 0.47486 0.44625 0.1483 0.0
C363 C 0.33804 0.36879 0.1373 0.0
C364 C 1.00259 0.45022 0.52436 0.0
C365 C 1.00038 0.40861 0.50861 0.0
H366 H 1.03107 0.53552 0.52913 0.0
C367 C 1.03194 0.42226 0.48701 0.0
H368 H 0.97902 0.44056 0.5413 0.0
C369 C 1.06129 0.47624 0.47998 0.0
C370 C 1.05972 0.51749 0.49451 0.0
H371 H 1.03042 0.39086 0.47439 0.0
H372 H 1.08139 0.48479 0.46205 0.0
C373 C 1.03223 0.50437 0.51739 0.0
C374 C 0.65149 0.90682 0.80524 0.0
C375 C 0.64162 0.85326 0.80402 0.0
H376 H 0.62051 0.95972 0.79753 0.0
C377 C 0.59002 0.81035 0.79627 0.0
H378 H 0.69111 0.94041 0.81113 0.0
C379 C 0.54936 0.82108 0.78892 0.0
C380 C 0.55977 0.87495 0.78901 0.0
H381 H 0.58132 0.76852 0.79567 0.0
H382 H 0.51008 0.7873 0.78276 0.0
C383 C 0.61095 0.91766 0.79764 0.0
C384 C 0.84208 0.61906 0.1639 0.0
C385 C 0.88693 0.61365 0.17042 0.0
H386 H 0.76077 0.57932 0.14882 0.0
C387 C 0.88053 0.56123 0.17125 0.0
H388 H 0.84595 0.65897 0.16329 0.0
C389 C 0.8319 0.51565 0.16293 0.0
C390 C 0.78893 0.52187 0.154 0.0
H391 H 0.91445 0.55583 0.17617 0.0
H392 H 0.82894 0.4761 0.16191 0.0
C393 C 0.79334 0.57343 0.15576 0.0
C394 C 0.27176 0.99939 0.50688 0.0
C395 C 0.31448 1.03728 0.49242 0.0
H396 H 0.1886 0.93771 0.50625 0.0
C397 C 0.30182 1.05975 0.47179 0.0
H398 H 0.28018 0.98344 0.52371 0.0
C399 C 0.24836 1.03519 0.46235 0.0
C400 C 0.20824 0.98651 0.4727 0.0
H401 H 0.3335 0.09045 0.46062 0.0
H402 H 0.24072 1.04849 0.44449 0.0
C403 C 0.21872 0.97348 0.49691 0.0
C404 C 0.41028 0.19583 0.83319 0.0
C405 C 0.41892 0.24497 0.82321 0.0
H406 H 0.38064 0.1112 0.82551 0.0
C407 C 0.38766 0.24265 0.80185 0.0
H408 H 0.43248 0.19617 0.85009 0.0
C409 C 0.35664 0.19359 0.78812 0.0
C410 C 0.35722 0.14666 0.7954 0.0
H411 H 0.39265 0.27948 0.7937 0.0
H412 H 0.33831 0.19406 0.77008 0.0
C413 C 0.37995 0.1469 0.81922 0.0
C414 C 0.72116 0.95519 0.50359 0.0
C415 C 0.67161 0.95466 0.50038 0.0
H416 H 0.76222 0.9106 0.51054 0.0
C417 C 0.62364 0.90341 0.50199 0.0
H418 H 0.75927 0.99323 0.50264 0.0
C419 C 0.62526 0.85505 0.50662 0.0
C420 C 0.67496 0.85569 0.51017 0.0
H421 H 0.58447 0.90052 0.49972 0.0
H422 H 0.58716 0.81721 0.50799 0.0
C423 C 0.7228 0.90713 0.50841 0.0
C424 C 0.86254 0.56624 0.8406 0.0
C425 C 0.86004 0.6139 0.83621 0.0
H426 H 0.91169 0.52996 0.84797 0.0
C427 C 0.91029 0.66315 0.83556 0.0
H428 H 0.82536 0.52728 0.84137 0.0
C429 C 0.96051 0.66476 0.8392 0.0
C430 C 0.96331 0.61717 0.84372 0.0
H431 H 0.91102 0.70101 0.83227 0.0
H432 H 0.99735 0.70385 0.83815 0.0
C433 C 0.91281 0.56781 0.84423 0.0
C434 C 0.35129 0.87085 0.17164 0.0
C435 C 0.34794 0.81972 0.1681 0.0
H436 H 0.40158 0.95735 0.17898 0.0
C437 C 0.39749 0.8198 0.16878 0.0
H438 H 0.31456 0.87322 0.17139 0.0
C439 C 0.44795 0.86853 0.1729 0.0
C440 C 0.45165 0.91987 0.17674 0.0
H441 H 0.3975 0.78188 0.16614 0.0
H442 H 0.48428 0.86554 0.17282 0.0
C443 C 0.40189 0.91973 0.17586 0.0
C444 C 0.7262 0.3128 0.5058 0.0
C445 C 0.67759 0.26418 0.4989 0.0
H446 H 0.76653 0.39839 0.51518 0.0
C447 C 0.63017 0.2682 0.49694 0.0
H448 H 0.7639 0.31247 0.50749 0.0
C449 C 0.6313 0.31826 0.50196 0.0
C450 C 0.68003 0.36711 0.50902 0.0
H451 H 0.59156 0.23218 0.49195 0.0
H452 H 0.59329 0.31801 0.50078 0.0
C453 C 0.72749 0.36283 0.51052 0.0
C454 C 0.554 0.66091 0.84073 0.0
C455 C 0.55259 0.61196 0.83344 0.0
H456 H 0.51051 0.70189 0.85055 0.0
C457 C 0.50036 0.56486 0.83075 0.0
H458 H 0.59264 0.69848 0.84299 0.0
C459 C 0.45214 0.56663 0.83545 0.0
C460 C 0.45361 0.6156 0.84313 0.0
H461 H 0.49659 0.52606 0.82533 0.0
H462 H 0.41362 0.52892 0.83361 0.0
C463 C 0.50603 0.66273 0.84535 0.0
C464 C 1.04176 0.46535 0.17214 0.0
C465 C 1.0402 0.51219 0.16496 0.0
H466 H 0.99865 0.38163 0.18228 0.0
C467 C 0.98815 0.5067 0.1629 0.0
H468 H 1.08035 0.4668 0.17397 0.0
C469 C 0.94015 0.45701 0.16824 0.0
C470 C 0.94177 0.41024 0.17583 0.0
H471 H 0.98446 0.54125 0.15749 0.0
H472 H 0.90176 0.45588 0.16692 0.0
C473 C 0.99403 0.41582 0.17728 0.0
C474 C 0.231 0.62682 0.06805 0.0
C475 C 0.2005 0.64849 0.07856 0.0
H476 H 0.25795 0.6056 0.03407 0.0
C477 C 0.17218 0.6643 0.06198 0.0
H478 H 0.25346 0.61444 0.08024 0.0
C479 C 0.17392 0.65826 0.03565 0.0
C480 C 0.20502 0.63742 0.0251 0.0
H481 H 0.14811 0.68093 0.06936 0.0
H482 H 0.15147 0.67071 0.02348 0.0
C483 C 0.23382 0.62203 0.04161 0.0
C484 C 0.74347 0.17364 0.40306 0.0
C485 C 0.70091 0.12597 0.41305 0.0
H486 H 0.78066 0.21778 0.36967 0.0
C487 C 0.66258 1.0857 0.39591 0.0
H488 H 0.7736 0.20568 0.4156 0.0
C489 C 0.6663 0.09273 0.36975 0.0
C490 C 0.70862 0.14025 0.35959 0.0
H491 H 0.62888 1.04851 0.40267 0.0
H492 H 0.63504 1.06101 0.35748 0.0
C493 C 0.74722 0.18073 0.37667 0.0
C494 C 0.70662 0.58026 0.73225 0.0
C495 C 0.70637 0.62123 0.74769 0.0
H496 H 0.70336 0.54844 0.69477 0.0
C497 C 0.7032 0.66342 0.73575 0.0
H498 H 0.70862 0.5468 0.74059 0.0
C499 C 0.70044 0.6645 0.70914 0.0
C500 C 0.70092 0.62351 0.69372 0.0
H501 H 0.70275 0.69561 0.74694 0.0
H502 H 0.69863 0.69792 0.70066 0.0
C503 C 0.70393 0.58136 0.70578 0.0
C504 C 0.63497 1.06515 0.58114 0.0
C505 C 0.63225 0.1031 0.56562 0.0
H506 H 0.60667 1.01919 0.6147 0.0
C507 C 0.60417 0.12928 0.57366 0.0
H508 H 0.65625 1.04435 0.57522 0.0
C509 C 0.57558 0.11473 0.59592 0.0
C510 C 0.57447 1.07357 0.61053 0.0
H511 H 0.60186 0.15898 0.56198 0.0
H512 H 0.55172 0.13338 0.60083 0.0
C513 C 0.60601 1.05029 0.60346 0.0
C514 C 0.63528 0.56782 0.91364 0.0
C515 C 0.68759 0.59144 0.90403 0.0
H516 H 0.58342 0.52487 0.94362 0.0
C517 C 0.73041 0.59593 0.91931 0.0
H518 H 0.60162 0.56389 0.90211 0.0
C519 C 0.71995 0.5732 0.94326 0.0
C520 C 0.66672 0.54636 0.95221 0.0
H521 H 0.77097 0.61354 0.9121 0.0
H522 H 0.75304 0.57491 0.95437 0.0
C523 C 0.62494 0.54562 0.93747 0.0
C524 C 0.21552 0.69235 0.2528 0.0
C525 C 0.17178 0.67131 0.23516 0.0
H526 H 0.24196 0.71756 0.29145 0.0
C527 C 1.11946 0.6549 0.24359 0.0
H528 H 0.25624 0.70524 0.24676 0.0
C529 C 1.11123 0.66139 0.26897 0.0
C530 C 0.15516 0.68485 0.28651 0.0
H531 H 1.08472 0.63762 0.2305 0.0
H532 H 1.07038 0.64851 0.27481 0.0
C533 C 0.20729 0.69926 0.27833 0.0
loop_
_geom_bond_atom_site_label_1
_geom_bond_atom_site_label_2
_geom_bond_distance
_geom_bond_site_symmetry_2
_ccdc_geom_bond_type
Tb0 C10 2.825 . S
Tb0 O11 2.347 . S
Tb0 O14 2.366 . S
Tb0 O19 2.418 . S
Tb0 O20 2.384 1_455 S
Tb0 O23 2.479 . S
Tb0 O24 2.471 . S
Eu1 O12 2.418 . S
Eu1 O13 2.384 1_655 S
Eu1 O16 2.479 . S
Eu1 O17 2.471 . S
Eu1 O18 2.347 1_655 S
Eu1 O21 2.366 . S
Eu1 C31 2.825 . S
C2 O18 1.259 . S
C2 O19 1.265 . S
C3 O20 1.255 . S
C3 O21 1.265 . S
C4 C6 1.380 . S
C4 C7 1.374 . S
C4 C10 1.507 . S
C5 C6 1.384 . S
C5 C9 1.387 . S
C5 H32 0.930 . S
C6 C4 1.380 . S
C6 C5 1.384 . S
C6 H33 0.931 . S
C7 C4 1.374 . S
C7 C8 1.390 . S
C7 H34 0.930 . S
C8 C7 1.390 . S
C8 C9 1.391 . S
C8 H35 0.930 . S
C9 C5 1.387 . S
C9 C8 1.391 . S
C10 Tb0 2.825 . S
C10 C4 1.507 . S
C10 O23 1.238 . S
C10 O24 1.247 . S
O11 Tb0 2.347 . S
O11 C15 1.259 . S
O12 Eu1 2.418 . S
O12 C15 1.265 1_655 S
O13 Eu1 2.384 1_455 S
O13 C22 1.255 . S
O14 Tb0 2.366 . S
O14 C22 1.265 . S
C15 O11 1.259 . S
C15 O12 1.265 1_455 S
O16 Eu1 2.479 . S
O16 C31 1.238 . S
O17 Eu1 2.471 . S
O17 C31 1.247 . S
O18 Eu1 2.347 1_455 S
O18 C2 1.259 . S
O19 Tb0 2.418 . S
O19 C2 1.265 . S
O20 Tb0 2.384 1_655 S
O20 C3 1.255 . S
O21 Eu1 2.366 . S
O21 C3 1.265 . S
C22 O13 1.255 . S
C22 O14 1.265 . S
O23 Tb0 2.479 . S
O23 C10 1.238 . S
O24 Tb0 2.471 . S
O24 C10 1.247 . S
C25 C28 1.380 . S
C25 C29 1.374 . S
C25 C31 1.507 . S
C26 C27 1.387 . S
C26 C30 1.391 . S
C27 C26 1.387 . S
C27 C28 1.384 . S
C27 H36 0.930 . S
C28 C25 1.380 . S
C28 C27 1.384 . S
C28 H37 0.931 . S
C29 C25 1.374 . S
C29 C30 1.390 . S
C29 H38 0.930 . S
C30 C26 1.391 . S
C30 C29 1.390 . S
C30 H39 0.930 . S
C31 Eu1 2.825 . S
C31 O16 1.238 . S
C31 O17 1.247 . S
C31 C25 1.507 . S
H32 C5 0.930 . S
H33 C6 0.931 . S
H34 C7 0.930 . S
H35 C8 0.930 . S
H36 C27 0.930 . S
H37 C28 0.931 . S
H38 C29 0.930 . S
H39 C30 0.930 . S
Tb40 C50 2.825 . S
Tb40 O51 2.347 . S
Tb40 O54 2.366 . S
Tb40 O59 2.418 . S
Tb40 O60 2.384 1_545 S
Tb40 O63 2.479 . S
Tb40 O64 2.471 . S
Eu41 O52 2.418 . S
Eu41 O53 2.384 . S
Eu41 O56 2.479 1_545 S
Eu41 O57 2.471 1_545 S
Eu41 O58 2.347 . S
Eu41 O61 2.366 1_545 S
Eu41 C71 2.825 1_545 S
C42 O58 1.259 . S
C42 O59 1.265 . S
C43 O60 1.255 . S
C43 O61 1.265 . S
C44 C46 1.380 . S
C44 C47 1.374 . S
C44 C50 1.507 . S
C45 C46 1.384 . S
C45 C49 1.387 . S
C45 H72 0.930 . S
C46 C44 1.380 . S
C46 C45 1.384 . S
C46 H73 0.931 . S
C47 C44 1.374 . S
C47 C48 1.390 . S
C47 H74 0.930 . S
C48 C47 1.390 . S
C48 C49 1.391 . S
C48 H75 0.930 . S
C49 C45 1.387 . S
C49 C48 1.391 . S
C50 Tb40 2.825 . S
C50 C44 1.507 . S
C50 O63 1.238 . S
C50 O64 1.247 . S
O51 Tb40 2.347 . S
O51 C55 1.259 . S
O52 Eu41 2.418 . S
O52 C55 1.265 . S
O53 Eu41 2.384 . S
O53 C62 1.255 . S
O54 Tb40 2.366 . S
O54 C62 1.265 . S
C55 O51 1.259 . S
C55 O52 1.265 . S
O56 Eu41 2.479 1_565 S
O56 C71 1.238 . S
O57 Eu41 2.471 1_565 S
O57 C71 1.247 . S
O58 Eu41 2.347 . S
O58 C42 1.259 . S
O59 Tb40 2.418 . S
O59 C42 1.265 . S
O60 Tb40 2.384 1_565 S
O60 C43 1.255 . S
O61 Eu41 2.366 1_565 S
O61 C43 1.265 . S
C62 O53 1.255 . S
C62 O54 1.265 . S
O63 Tb40 2.479 . S
O63 C50 1.238 . S
O64 Tb40 2.471 . S
O64 C50 1.247 . S
C65 C68 1.380 . S
C65 C69 1.374 . S
C65 C71 1.507 . S
C66 C67 1.387 . S
C66 C70 1.391 . S
C67 C66 1.387 . S
C67 C68 1.384 . S
C67 H76 0.930 . S
C68 C65 1.380 . S
C68 C67 1.384 . S
C68 H77 0.931 . S
C69 C65 1.374 . S
C69 C70 1.390 . S
C69 H78 0.930 . S
C70 C66 1.391 . S
C70 C69 1.390 . S
C70 H79 0.930 . S
C71 Eu41 2.825 1_565 S
C71 O56 1.238 . S
C71 O57 1.247 . S
C71 C65 1.507 . S
H72 C45 0.930 . S
H73 C46 0.931 . S
H74 C47 0.930 . S
H75 C48 0.930 . S
H76 C67 0.930 . S
H77 C68 0.931 . S
H78 C69 0.930 . S
H79 C70 0.930 . S
Tb80 C90 2.825 . S
Tb80 O91 2.347 . S
Tb80 O94 2.366 . S
Tb80 O99 2.418 . S
Tb80 O100 2.384 . S
Tb80 O103 2.479 . S
Tb80 O104 2.471 . S
Eu81 O92 2.418 . S
Eu81 O93 2.384 . S
Eu81 O96 2.479 . S
Eu81 O97 2.471 . S
Eu81 O98 2.347 . S
Eu81 O101 2.366 . S
Eu81 C111 2.825 . S
C82 O98 1.259 . S
C82 O99 1.265 . S
C83 O100 1.255 . S
C83 O101 1.265 . S
C84 C86 1.380 . S
C84 C87 1.374 . S
C84 C90 1.507 . S
C85 C86 1.384 . S
C85 C89 1.387 . S
C85 H112 0.930 . S
C86 C84 1.380 . S
C86 C85 1.384 . S
C86 H113 0.931 . S
C87 C84 1.374 . S
C87 C88 1.390 . S
C87 H114 0.930 . S
C88 C87 1.390 . S
C88 C89 1.391 . S
C88 H115 0.930 . S
C89 C85 1.387 . S
C89 C88 1.391 . S
C90 Tb80 2.825 . S
C90 C84 1.507 . S
C90 O103 1.238 . S
C90 O104 1.247 . S
O91 Tb80 2.347 . S
O91 C95 1.259 . S
O92 Eu81 2.418 . S
O92 C95 1.265 . S
O93 Eu81 2.384 . S
O93 C102 1.255 . S
O94 Tb80 2.366 . S
O94 C102 1.265 . S
C95 O91 1.259 . S
C95 O92 1.265 . S
O96 Eu81 2.479 . S
O96 C111 1.238 . S
O97 Eu81 2.471 . S
O97 C111 1.247 . S
O98 Eu81 2.347 . S
O98 C82 1.259 . S
O99 Tb80 2.418 . S
O99 C82 1.265 . S
O100 Tb80 2.384 . S
O100 C83 1.255 . S
O101 Eu81 2.366 . S
O101 C83 1.265 . S
C102 O93 1.255 . S
C102 O94 1.265 . S
O103 Tb80 2.479 . S
O103 C90 1.238 . S
O104 Tb80 2.471 . S
O104 C90 1.247 . S
C105 C108 1.380 . S
C105 C109 1.374 . S
C105 C111 1.507 . S
C106 C107 1.387 . S
C106 C110 1.391 . S
C107 C106 1.387 . S
C107 C108 1.384 . S
C107 H116 0.930 . S
C108 C105 1.380 . S
C108 C107 1.384 . S
C108 H117 0.931 . S
C109 C105 1.374 . S
C109 C110 1.390 . S
C109 H118 0.930 . S
C110 C106 1.391 . S
C110 C109 1.390 . S
C110 H119 0.930 . S
C111 Eu81 2.825 . S
C111 O96 1.238 . S
C111 O97 1.247 . S
C111 C105 1.507 . S
H112 C85 0.930 . S
H113 C86 0.931 . S
H114 C87 0.930 . S
H115 C88 0.930 . S
H116 C107 0.930 . S
H117 C108 0.931 . S
H118 C109 0.930 . S
H119 C110 0.930 . S
C120 C121 1.386 . S
C120 C122 1.397 . S
C120 H144 0.931 . S
C121 C120 1.386 . S
C121 C125 1.397 1_545 S
C122 C120 1.397 . S
C122 C123 1.384 . S
C122 H145 0.930 . S
C123 C122 1.384 . S
C123 C124 1.377 1_545 S
C123 C126 1.481 . S
C124 C123 1.377 1_565 S
C124 C125 1.389 . S
C124 H146 0.929 . S
C125 C121 1.397 1_565 S
C125 C124 1.389 . S
C125 H147 0.931 . S
C126 C123 1.481 . S
C126 C127 1.387 . S
C126 C131 1.390 1_545 S
C127 C126 1.387 . S
C127 C128 1.401 . S
C127 H148 0.930 . S
C128 C127 1.401 . S
C128 C129 1.376 . S
C128 C137 1.511 . S
C129 C128 1.376 . S
C129 C130 1.392 1_545 S
C129 H150 0.931 . S
C130 C129 1.392 1_565 S
C130 C131 1.361 . S
C130 C132 1.500 . S
C131 C126 1.390 1_565 S
C131 C130 1.361 . S
C131 H149 0.931 . S
C132 C130 1.500 . S
C132 C133 1.371 . S
C132 C134 1.365 . S
C133 C132 1.371 . S
C133 C143 1.386 . S
C133 H151 0.931 . S
C134 C132 1.365 . S
C134 C135 1.409 . S
C134 H152 0.929 . S
C135 C134 1.409 . S
C135 C136 1.380 . S
C135 H153 0.930 . S
C136 C135 1.380 . S
C136 C143 1.357 . S
C137 C128 1.511 . S
C137 C138 1.341 . S
C137 C139 1.371 . S
C138 C137 1.341 . S
C138 C142 1.394 . S
C138 H154 0.930 . S
C139 C137 1.371 . S
C139 C140 1.392 . S
C139 H155 0.931 . S
C140 C139 1.392 . S
C140 C141 1.331 . S
C140 H158 0.932 . S
C141 C140 1.331 . S
C141 C142 1.336 . S
C142 C138 1.394 . S
C142 C141 1.336 . S
C142 H157 0.929 . S
C143 C133 1.386 . S
C143 C136 1.357 . S
C143 H156 0.928 . S
H144 C120 0.931 . S
H145 C122 0.930 . S
H146 C124 0.929 . S
H147 C125 0.931 . S
H148 C127 0.930 . S
H149 C131 0.931 . S
H150 C129 0.931 . S
H151 C133 0.931 . S
H152 C134 0.929 . S
H153 C135 0.930 . S
H154 C138 0.930 . S
H155 C139 0.931 . S
H156 C143 0.928 . S
H157 C142 0.929 . S
H158 C140 0.932 . S
C159 C160 1.386 . S
C159 C161 1.397 . S
C159 H183 0.931 . S
C160 C159 1.386 . S
C160 C164 1.397 . S
C161 C159 1.397 . S
C161 C162 1.384 . S
C161 H184 0.930 . S
C162 C161 1.384 . S
C162 C163 1.377 . S
C162 C165 1.481 . S
C163 C162 1.377 . S
C163 C164 1.389 . S
C163 H185 0.929 . S
C164 C160 1.397 . S
C164 C163 1.389 . S
C164 H186 0.931 . S
C165 C162 1.481 . S
C165 C166 1.387 . S
C165 C170 1.390 . S
C166 C165 1.387 . S
C166 C167 1.401 . S
C166 H187 0.930 . S
C167 C166 1.401 . S
C167 C168 1.376 . S
C167 C176 1.511 . S
C168 C167 1.376 . S
C168 C169 1.392 . S
C168 H189 0.931 . S
C169 C168 1.392 . S
C169 C170 1.361 . S
C169 C171 1.500 . S
C170 C165 1.390 . S
C170 C169 1.361 . S
C170 H188 0.931 . S
C171 C169 1.500 . S
C171 C172 1.371 . S
C171 C173 1.365 . S
C172 C171 1.371 . S
C172 C182 1.386 . S
C172 H190 0.931 . S
C173 C171 1.365 . S
C173 C174 1.409 . S
C173 H191 0.929 . S
C174 C173 1.409 . S
C174 C175 1.380 . S
C174 H192 0.930 . S
C175 C174 1.380 . S
C175 C182 1.357 . S
C176 C167 1.511 . S
C176 C177 1.341 . S
C176 C178 1.371 . S
C177 C176 1.341 . S
C177 C181 1.394 . S
C177 H193 0.930 . S
C178 C176 1.371 . S
C178 C179 1.392 . S
C178 H194 0.931 . S
C179 C178 1.392 . S
C179 C180 1.331 . S
C179 H197 0.932 . S
C180 C179 1.331 . S
C180 C181 1.336 . S
C181 C177 1.394 . S
C181 C180 1.336 . S
C181 H196 0.929 . S
C182 C172 1.386 . S
C182 C175 1.357 . S
C182 H195 0.928 . S
H183 C159 0.931 . S
H184 C161 0.930 . S
H185 C163 0.929 . S
H186 C164 0.931 . S
H187 C166 0.930 . S
H188 C170 0.931 . S
H189 C168 0.931 . S
H190 C172 0.931 . S
H191 C173 0.929 . S
H192 C174 0.930 . S
H193 C177 0.930 . S
H194 C178 0.931 . S
H195 C182 0.928 . S
H196 C181 0.929 . S
H197 C179 0.932 . S
C198 C199 1.384 1_556 S
C198 C200 1.397 . S
C198 H222 0.931 . S
C199 C198 1.384 1_554 S
C199 C203 1.395 1_454 S
C200 C198 1.397 . S
C200 C201 1.384 . S
C200 H223 0.930 . S
C201 C200 1.384 . S
C201 C202 1.377 1_455 S
C201 C204 1.481 . S
C202 C201 1.377 1_655 S
C202 C203 1.389 . S
C202 H224 0.929 . S
C203 C199 1.395 1_656 S
C203 C202 1.389 . S
C203 H225 0.931 . S
C204 C201 1.481 . S
C204 C205 1.387 . S
C204 C209 1.390 1_455 S
C205 C204 1.387 . S
C205 C206 1.401 . S
C205 H226 0.930 . S
C206 C205 1.401 . S
C206 C207 1.376 . S
C206 C215 1.511 . S
C207 C206 1.376 . S
C207 C208 1.392 1_455 S
C207 H228 0.931 . S
C208 C207 1.392 1_655 S
C208 C209 1.361 . S
C208 C210 1.500 . S
C209 C204 1.390 1_655 S
C209 C208 1.361 . S
C209 H227 0.931 . S
C210 C208 1.500 . S
C210 C211 1.371 . S
C210 C212 1.365 . S
C211 C210 1.371 . S
C211 C221 1.386 . S
C211 H229 0.931 . S
C212 C210 1.365 . S
C212 C213 1.409 . S
C212 H230 0.929 . S
C213 C212 1.409 . S
C213 C214 1.380 . S
C213 H231 0.930 . S
C214 C213 1.380 . S
C214 C221 1.357 . S
C215 C206 1.511 . S
C215 C216 1.341 . S
C215 C217 1.371 . S
C216 C215 1.341 . S
C216 C220 1.394 . S
C216 H232 0.930 . S
C217 C215 1.371 . S
C217 C218 1.392 . S
C217 H233 0.931 . S
C218 C217 1.392 . S
C218 C219 1.331 . S
C218 H236 0.932 . S
C219 C218 1.331 . S
C219 C220 1.336 . S
C220 C216 1.394 . S
C220 C219 1.336 . S
C220 H235 0.929 . S
C221 C211 1.386 . S
C221 C214 1.357 . S
C221 H234 0.928 . S
H222 C198 0.931 . S
H223 C200 0.930 . S
H224 C202 0.929 . S
H225 C203 0.931 . S
H226 C205 0.930 . S
H227 C209 0.931 . S
H228 C207 0.931 . S
H229 C211 0.931 . S
H230 C212 0.929 . S
H231 C213 0.930 . S
H232 C216 0.930 . S
H233 C217 0.931 . S
H234 C221 0.928 . S
H235 C220 0.929 . S
H236 C218 0.932 . S
C237 C238 1.386 1_655 S
C237 C239 1.397 . S
C237 H261 0.931 . S
C238 C237 1.386 1_455 S
C238 C242 1.397 . S
C239 C237 1.397 . S
C239 C240 1.384 1_655 S
C239 H262 0.930 . S
C240 C239 1.384 1_455 S
C240 C241 1.377 . S
C240 C243 1.481 . S
C241 C240 1.377 . S
C241 C242 1.389 . S
C241 H263 0.929 . S
C242 C238 1.397 . S
C242 C241 1.389 . S
C242 H264 0.931 . S
C243 C240 1.481 . S
C243 C244 1.387 1_455 S
C243 C248 1.390 . S
C244 C243 1.387 1_655 S
C244 C245 1.401 . S
C244 H265 0.930 . S
C245 C244 1.401 . S
C245 C246 1.376 1_655 S
C245 C254 1.511 . S
C246 C245 1.376 1_455 S
C246 C247 1.392 . S
C246 H267 0.931 . S
C247 C246 1.392 . S
C247 C248 1.361 . S
C247 C249 1.500 . S
C248 C243 1.390 . S
C248 C247 1.361 . S
C248 H266 0.931 . S
C249 C247 1.500 . S
C249 C250 1.371 . S
C249 C251 1.365 . S
C250 C249 1.371 . S
C250 C260 1.386 . S
C250 H268 0.931 . S
C251 C249 1.365 . S
C251 C252 1.409 . S
C251 H269 0.929 . S
C252 C251 1.409 . S
C252 C253 1.380 . S
C252 H270 0.930 . S
C253 C252 1.380 . S
C253 C260 1.357 . S
C254 C245 1.511 . S
C254 C255 1.341 . S
C254 C256 1.371 . S
C255 C254 1.341 . S
C255 C259 1.394 . S
C255 H271 0.930 . S
C256 C254 1.371 . S
C256 C257 1.392 . S
C256 H272 0.931 . S
C257 C256 1.392 . S
C257 C258 1.331 . S
C257 H275 0.932 . S
C258 C257 1.331 . S
C258 C259 1.336 . S
C259 C255 1.394 . S
C259 C258 1.336 . S
C259 H274 0.929 . S
C260 C250 1.386 . S
C260 C253 1.357 . S
C260 H273 0.928 . S
H261 C237 0.931 . S
H262 C239 0.930 . S
H263 C241 0.929 . S
H264 C242 0.931 . S
H265 C244 0.930 . S
H266 C248 0.931 . S
H267 C246 0.931 . S
H268 C250 0.931 . S
H269 C251 0.929 . S
H270 C252 0.930 . S
H271 C255 0.930 . S
H272 C256 0.931 . S
H273 C260 0.928 . S
H274 C259 0.929 . S
H275 C257 0.932 . S
C276 C277 1.386 1_565 S
C276 C278 1.397 . S
C276 H300 0.931 . S
C277 C276 1.386 1_545 S
C277 C281 1.397 . S
C278 C276 1.397 . S
C278 C279 1.379 1_565 S
C278 H301 0.930 . S
C279 C278 1.379 1_545 S
C279 C280 1.383 . S
C279 C282 1.480 1_545 S
C280 C279 1.383 . S
C280 C281 1.389 . S
C280 H302 0.929 . S
C281 C277 1.397 . S
C281 C280 1.389 . S
C281 H303 0.931 . S
C282 C279 1.480 1_565 S
C282 C283 1.404 . S
C282 C287 1.374 1_565 S
C283 C282 1.404 . S
C283 C284 1.401 . S
C283 H304 0.930 . S
C284 C283 1.401 . S
C284 C285 1.376 . S
C284 C293 1.511 . S
C285 C284 1.376 . S
C285 C286 1.392 1_565 S
C285 H306 0.931 . S
C286 C285 1.392 1_545 S
C286 C287 1.361 . S
C286 C288 1.500 . S
C287 C282 1.374 1_545 S
C287 C286 1.361 . S
C287 H305 0.931 . S
C288 C286 1.500 . S
C288 C289 1.371 . S
C288 C290 1.365 . S
C289 C288 1.371 . S
C289 C299 1.386 . S
C289 H307 0.931 . S
C290 C288 1.365 . S
C290 C291 1.409 . S
C290 H308 0.929 . S
C291 C290 1.409 . S
C291 C292 1.380 . S
C291 H309 0.930 . S
C292 C291 1.380 . S
C292 C299 1.357 . S
C293 C284 1.511 . S
C293 C294 1.341 . S
C293 C295 1.371 . S
C294 C293 1.341 . S
C294 C298 1.394 . S
C294 H310 0.930 . S
C295 C293 1.371 . S
C295 C296 1.392 . S
C295 H311 0.931 . S
C296 C295 1.392 . S
C296 C297 1.331 . S
C296 H314 0.932 . S
C297 C296 1.331 . S
C297 C298 1.336 . S
C298 C294 1.394 . S
C298 C297 1.336 . S
C298 H313 0.929 . S
C299 C289 1.386 . S
C299 C292 1.357 . S
C299 H312 0.928 . S
H300 C276 0.931 . S
H301 C278 0.930 . S
H302 C280 0.929 . S
H303 C281 0.931 . S
H304 C283 0.930 . S
H305 C287 0.931 . S
H306 C285 0.931 . S
H307 C289 0.931 . S
H308 C290 0.929 . S
H309 C291 0.930 . S
H310 C294 0.930 . S
H311 C295 0.931 . S
H312 C299 0.928 . S
H313 C298 0.929 . S
H314 C296 0.932 . S
C315 C316 1.386 . S
C315 C317 1.397 1_556 S
C315 H339 0.931 . S
C316 C315 1.386 . S
C316 C320 1.397 . S
C317 C315 1.397 1_554 S
C317 C318 1.384 . S
C317 H340 0.930 . S
C318 C317 1.384 . S
C318 C319 1.377 . S
C318 C321 1.481 . S
C319 C318 1.377 . S
C319 C320 1.389 1_554 S
C319 H341 0.929 . S
C320 C316 1.397 . S
C320 C319 1.389 1_556 S
C320 H342 0.931 . S
C321 C318 1.481 . S
C321 C322 1.387 . S
C321 C326 1.390 . S
C322 C321 1.387 . S
C322 C323 1.401 . S
C322 H343 0.930 . S
C323 C322 1.401 . S
C323 C324 1.376 . S
C323 C332 1.511 . S
C324 C323 1.376 . S
C324 C325 1.392 . S
C324 H345 0.931 . S
C325 C324 1.392 . S
C325 C326 1.361 . S
C325 C327 1.500 . S
C326 C321 1.390 . S
C326 C325 1.361 . S
C326 H344 0.931 . S
C327 C325 1.500 . S
C327 C328 1.371 . S
C327 C329 1.365 . S
C328 C327 1.371 . S
C328 C338 1.386 . S
C328 H346 0.931 . S
C329 C327 1.365 . S
C329 C330 1.409 . S
C329 H347 0.929 . S
C330 C329 1.409 . S
C330 C331 1.380 . S
C330 H348 0.930 . S
C331 C330 1.380 . S
C331 C338 1.357 . S
C332 C323 1.511 . S
C332 C333 1.341 . S
C332 C334 1.371 . S
C333 C332 1.341 . S
C333 C337 1.394 . S
C333 H349 0.930 . S
C334 C332 1.371 . S
C334 C335 1.392 . S
C334 H350 0.931 . S
C335 C334 1.392 . S
C335 C336 1.331 . S
C335 H353 0.932 . S
C336 C335 1.331 . S
C336 C337 1.336 . S
C337 C333 1.394 . S
C337 C336 1.336 . S
C337 H352 0.929 . S
C338 C328 1.386 . S
C338 C331 1.357 . S
C338 H351 0.928 . S
H339 C315 0.931 . S
H340 C317 0.930 . S
H341 C319 0.929 . S
H342 C320 0.931 . S
H343 C322 0.930 . S
H344 C326 0.931 . S
H345 C324 0.931 . S
H346 C328 0.931 . S
H347 C329 0.929 . S
H348 C330 0.930 . S
H349 C333 0.930 . S
H350 C334 0.931 . S
H351 C338 0.928 . S
H352 C337 0.929 . S
H353 C335 0.932 . S
C354 C355 1.387 . S
C354 H358 0.950 . S
C354 C363 1.390 . S
C355 C354 1.387 . S
C355 C357 1.387 . S
H356 C363 0.950 . S
C357 C355 1.387 . S
C357 C359 1.390 . S
C357 H361 0.950 . S
H358 C354 0.950 . S
C359 C357 1.390 . S
C359 C360 1.387 . S
C359 H362 0.950 . S
C360 C359 1.387 . S
C360 C363 1.387 . S
H361 C357 0.950 . S
H362 C359 0.950 . S
C363 C354 1.390 . S
C363 H356 0.950 . S
C363 C360 1.387 . S
C364 C365 1.387 . S
C364 H368 0.950 . S
C364 C373 1.390 . S
C365 C364 1.387 . S
C365 C367 1.387 . S
H366 C373 0.950 . S
C367 C365 1.387 . S
C367 C369 1.390 . S
C367 H371 0.950 . S
H368 C364 0.950 . S
C369 C367 1.390 . S
C369 C370 1.387 . S
C369 H372 0.950 . S
C370 C369 1.387 . S
C370 C373 1.387 . S
H371 C367 0.950 . S
H372 C369 0.950 . S
C373 C364 1.390 . S
C373 H366 0.950 . S
C373 C370 1.387 . S
C374 C375 1.387 . S
C374 H378 0.950 . S
C374 C383 1.390 . S
C375 C374 1.387 . S
C375 C377 1.387 . S
H376 C383 0.950 . S
C377 C375 1.387 . S
C377 C379 1.390 . S
C377 H381 0.950 . S
H378 C374 0.950 . S
C379 C377 1.390 . S
C379 C380 1.387 . S
C379 H382 0.950 . S
C380 C379 1.387 . S
C380 C383 1.387 . S
H381 C377 0.950 . S
H382 C379 0.950 . S
C383 C374 1.390 . S
C383 H376 0.950 . S
C383 C380 1.387 . S
C384 C385 1.387 . S
C384 H388 0.950 . S
C384 C393 1.390 . S
C385 C384 1.387 . S
C385 C387 1.387 . S
H386 C393 0.950 . S
C387 C385 1.387 . S
C387 C389 1.390 . S
C387 H391 0.950 . S
H388 C384 0.950 . S
C389 C387 1.390 . S
C389 C390 1.387 . S
C389 H392 0.950 . S
C390 C389 1.387 . S
C390 C393 1.387 . S
H391 C387 0.950 . S
H392 C389 0.950 . S
C393 C384 1.390 . S
C393 H386 0.950 . S
C393 C390 1.387 . S
C394 C395 1.387 . S
C394 H398 0.950 . S
C394 C403 1.390 . S
C395 C394 1.387 . S
C395 C397 1.387 . S
H396 C403 0.950 . S
C397 C395 1.387 . S
C397 C399 1.390 . S
C397 H401 0.950 . S
H398 C394 0.950 . S
C399 C397 1.390 . S
C399 C400 1.387 . S
C399 H402 0.950 . S
C400 C399 1.387 . S
C400 C403 1.387 . S
H401 C397 0.950 . S
H402 C399 0.950 . S
C403 C394 1.390 . S
C403 H396 0.950 . S
C403 C400 1.387 . S
C404 C405 1.387 . S
C404 H408 0.950 . S
C404 C413 1.390 . S
C405 C404 1.387 . S
C405 C407 1.387 . S
H406 C413 0.950 . S
C407 C405 1.387 . S
C407 C409 1.390 . S
C407 H411 0.950 . S
H408 C404 0.950 . S
C409 C407 1.390 . S
C409 C410 1.387 . S
C409 H412 0.950 . S
C410 C409 1.387 . S
C410 C413 1.387 . S
H411 C407 0.950 . S
H412 C409 0.950 . S
C413 C404 1.390 . S
C413 H406 0.950 . S
C413 C410 1.387 . S
C414 C415 1.387 . S
C414 H418 0.950 . S
C414 C423 1.390 . S
C415 C414 1.387 . S
C415 C417 1.387 . S
H416 C423 0.950 . S
C417 C415 1.387 . S
C417 C419 1.390 . S
C417 H421 0.950 . S
H418 C414 0.950 . S
C419 C417 1.390 . S
C419 C420 1.387 . S
C419 H422 0.950 . S
C420 C419 1.387 . S
C420 C423 1.387 . S
H421 C417 0.950 . S
H422 C419 0.950 . S
C423 C414 1.390 . S
C423 H416 0.950 . S
C423 C420 1.387 . S
C424 C425 1.387 . S
C424 H428 0.950 . S
C424 C433 1.390 . S
C425 C424 1.387 . S
C425 C427 1.387 . S
H426 C433 0.950 . S
C427 C425 1.387 . S
C427 C429 1.390 . S
C427 H431 0.950 . S
H428 C424 0.950 . S
C429 C427 1.390 . S
C429 C430 1.387 . S
C429 H432 0.950 . S
C430 C429 1.387 . S
C430 C433 1.387 . S
H431 C427 0.950 . S
H432 C429 0.950 . S
C433 C424 1.390 . S
C433 H426 0.950 . S
C433 C430 1.387 . S
C434 C435 1.387 . S
C434 H438 0.950 . S
C434 C443 1.390 . S
C435 C434 1.387 . S
C435 C437 1.387 . S
H436 C443 0.950 . S
C437 C435 1.387 . S
C437 C439 1.390 . S
C437 H441 0.950 . S
H438 C434 0.950 . S
C439 C437 1.390 . S
C439 C440 1.387 . S
C439 H442 0.950 . S
C440 C439 1.387 . S
C440 C443 1.387 . S
H441 C437 0.950 . S
H442 C439 0.950 . S
C443 C434 1.390 . S
C443 H436 0.950 . S
C443 C440 1.387 . S
C444 C445 1.387 . S
C444 H448 0.950 . S
C444 C453 1.390 . S
C445 C444 1.387 . S
C445 C447 1.387 . S
H446 C453 0.950 . S
C447 C445 1.387 . S
C447 C449 1.390 . S
C447 H451 0.950 . S
H448 C444 0.950 . S
C449 C447 1.390 . S
C449 C450 1.387 . S
C449 H452 0.950 . S
C450 C449 1.387 . S
C450 C453 1.387 . S
H451 C447 0.950 . S
H452 C449 0.950 . S
C453 C444 1.390 . S
C453 H446 0.950 . S
C453 C450 1.387 . S
C454 C455 1.387 . S
C454 H458 0.950 . S
C454 C463 1.390 . S
C455 C454 1.387 . S
C455 C457 1.387 . S
H456 C463 0.950 . S
C457 C455 1.387 . S
C457 C459 1.390 . S
C457 H461 0.950 . S
H458 C454 0.950 . S
C459 C457 1.390 . S
C459 C460 1.387 . S
C459 H462 0.950 . S
C460 C459 1.387 . S
C460 C463 1.387 . S
H461 C457 0.950 . S
H462 C459 0.950 . S
C463 C454 1.390 . S
C463 H456 0.950 . S
C463 C460 1.387 . S
C464 C465 1.387 . S
C464 H468 0.950 . S
C464 C473 1.390 . S
C465 C464 1.387 . S
C465 C467 1.387 . S
H466 C473 0.950 . S
C467 C465 1.387 . S
C467 C469 1.390 . S
C467 H471 0.950 . S
H468 C464 0.950 . S
C469 C467 1.390 . S
C469 C470 1.387 . S
C469 H472 0.950 . S
C470 C469 1.387 . S
C470 C473 1.387 . S
H471 C467 0.950 . S
H472 C469 0.950 . S
C473 C464 1.390 . S
C473 H466 0.950 . S
C473 C470 1.387 . S
C474 C475 1.387 . S
C474 H478 0.950 . S
C474 C483 1.390 . S
C475 C474 1.387 . S
C475 C477 1.387 1_455 S
H476 C483 0.950 . S
C477 C475 1.387 1_655 S
C477 C479 1.390 . S
C477 H481 0.950 . S
H478 C474 0.950 . S
C479 C477 1.390 . S
C479 C480 1.387 1_655 S
C479 H482 0.950 . S
C480 C479 1.387 1_455 S
C480 C483 1.387 . S
H481 C477 0.950 . S
H482 C479 0.950 . S
C483 C474 1.390 . S
C483 H476 0.950 . S
C483 C480 1.387 . S
C484 C485 1.387 . S
C484 H488 0.950 . S
C484 C493 1.390 . S
C485 C484 1.387 . S
C485 C487 1.387 1_545 S
H486 C493 0.950 . S
C487 C485 1.387 1_565 S
C487 C489 1.390 . S
C487 H491 0.950 . S
H488 C484 0.950 . S
C489 C487 1.390 . S
C489 C490 1.387 1_565 S
C489 H492 0.950 . S
C490 C489 1.387 1_545 S
C490 C493 1.387 . S
H491 C487 0.950 . S
H492 C489 0.950 . S
C493 C484 1.390 . S
C493 H486 0.950 . S
C493 C490 1.387 . S
C494 C495 1.387 . S
C494 H498 0.950 . S
C494 C503 1.390 . S
C495 C494 1.387 . S
C495 C497 1.387 . S
H496 C503 0.950 . S
C497 C495 1.387 . S
C497 C499 1.390 . S
C497 H501 0.950 . S
H498 C494 0.950 . S
C499 C497 1.390 . S
C499 C500 1.387 . S
C499 H502 0.950 . S
C500 C499 1.387 . S
C500 C503 1.387 . S
H501 C497 0.950 . S
H502 C499 0.950 . S
C503 C494 1.390 . S
C503 H496 0.950 . S
C503 C500 1.387 . S
C504 C505 1.387 1_565 S
C504 H508 0.950 . S
C504 C513 1.390 . S
C505 C504 1.387 1_545 S
C505 C507 1.387 . S
H506 C513 0.950 . S
C507 C505 1.387 . S
C507 C509 1.390 . S
C507 H511 0.950 . S
H508 C504 0.950 . S
C509 C507 1.390 . S
C509 C510 1.387 . S
C509 H512 0.950 . S
C510 C509 1.387 . S
C510 C513 1.387 1_545 S
H511 C507 0.950 . S
H512 C509 0.950 . S
C513 C504 1.390 . S
C513 H506 0.950 . S
C513 C510 1.387 1_565 S
C514 C515 1.387 . S
C514 H518 0.950 . S
C514 C523 1.390 . S
C515 C514 1.387 . S
C515 C517 1.387 . S
H516 C523 0.950 . S
C517 C515 1.387 . S
C517 C519 1.390 . S
C517 H521 0.950 . S
H518 C514 0.950 . S
C519 C517 1.390 . S
C519 C520 1.387 . S
C519 H522 0.950 . S
C520 C519 1.387 . S
C520 C523 1.387 . S
H521 C517 0.950 . S
H522 C519 0.950 . S
C523 C514 1.390 . S
C523 H516 0.950 . S
C523 C520 1.387 . S
C524 C525 1.387 . S
C524 H528 0.950 . S
C524 C533 1.390 . S
C525 C524 1.387 . S
C525 C527 1.387 . S
H526 C533 0.950 . S
C527 C525 1.387 . S
C527 C529 1.390 1_455 S
C527 H531 0.950 1_455 S
H528 C524 0.950 . S
C529 C527 1.390 1_655 S
C529 C530 1.387 1_655 S
C529 H532 0.950 . S
C530 C529 1.387 1_455 S
C530 C533 1.387 . S
H531 C527 0.950 1_655 S
H532 C529 0.950 . S
C533 C524 1.390 . S
C533 H526 0.950 . S
C533 C530 1.387 . S
C355 C9 0.751 . S
C360 C331 0.748 . S
C365 C49 0.509 . S
C370 C258 0.451 . S
C375 C89 0.520 . S
C380 C297 0.482 . S
C385 C26 0.654 . S
C390 C336 0.595 . S
C400 C253 0.697 . S
C395 C66 0.721 . S
C410 C292 0.771 . S
C405 C106 0.760 . S
C415 C43 3.067 . S
C420 C180 2.999 . S
C425 C83 3.194 . S
C430 C214 3.110 . S
C435 C22 3.234 . S
C440 C136 3.143 . S
C450 C175 3.145 . S
C445 C62 3.232 . S
C460 C219 3.030 . S
C455 C102 3.102 . S
C465 C3 3.066 . S
C470 C141 3.004 . S
C480 C199 1.816 . S
C475 C15 1.743 . S
C485 C55 1.763 . S
C490 C121 1.811 . S
C495 C95 1.759 . S
C500 C160 1.806 . S
C510 C277 1.054 . S
C505 C42 1.058 . S
C520 C316 1.064 . S
C515 C82 1.068 . S
C525 C2 1.043 . S
C530 C238 1.043 . S
