# Generated by pormake.
# Topology zzz, (3,6)-cn, num edge types: 1
# Building blocks:
#     Node 0, Type 0, BuildingBlock: KAKCAD_clean_linker_0, # of connection points: 3
#     Node 1, Type 0, BuildingBlock: KAKCAD_clean_linker_0, # of connection points: 3
#     Node 2, Type 0, BuildingBlock: KAKCAD_clean_linker_0, # of connection points: 3
#     Node 3, Type 0, BuildingBlock: KAKCAD_clean_linker_0, # of connection points: 3
#     Node 4, Type 0, BuildingBlock: KAKCAD_clean_linker_0, # of connection points: 3
#     Node 5, Type 0, BuildingBlock: KAKCAD_clean_linker_0, # of connection points: 3
#     Node 6, Type 0, BuildingBlock: KAKCAD_clean_linker_0, # of connection points: 3
#     Node 7, Type 0, BuildingBlock: KAKCAD_clean_linker_0, # of connection points: 3
#     Node 8, Type 1, BuildingBlock: KUMBOL_clean_sbu_0, # of connection points: 6
#     Node 9, Type 1, BuildingBlock: KUMBOL_clean_sbu_0, # of connection points: 6
#     Node 10, Type 1, BuildingBlock: KUMBOL_clean_sbu_0, # of connection points: 6
#     Node 11, Type 1, BuildingBlock: KUMBOL_clean_sbu_0, # of connection points: 6
#     Edge 12, Type (0, 1), BuildingBlock: UVAHIK_clean_linker_0, # of connection points: 2
#     Edge 13, Type (0, 1), BuildingBlock: UVAHIK_clean_linker_0, # of connection points: 2
#     Edge 14, Type (0, 1), BuildingBlock: UVAHIK_clean_linker_0, # of connection points: 2
#     Edge 15, Type (0, 1), BuildingBlock: UVAHIK_clean_linker_0, # of connection points: 2
#     Edge 16, Type (0, 1), BuildingBlock: UVAHIK_clean_linker_0, # of connection points: 2
#     Edge 17, Type (0, 1), BuildingBlock: UVAHIK_clean_linker_0, # of connection points: 2
#     Edge 18, Type (0, 1), BuildingBlock: UVAHIK_clean_linker_0, # of connection points: 2
#     Edge 19, Type (0, 1), BuildingBlock: UVAHIK_clean_linker_0, # of connection points: 2
#     Edge 20, Type (0, 1), BuildingBlock: UVAHIK_clean_linker_0, # of connection points: 2
#     Edge 21, Type (0, 1), BuildingBlock: UVAHIK_clean_linker_0, # of connection points: 2
#     Edge 22, Type (0, 1), BuildingBlock: UVAHIK_clean_linker_0, # of connection points: 2
#     Edge 23, Type (0, 1), BuildingBlock: UVAHIK_clean_linker_0, # of connection points: 2
#     Edge 24, Type (0, 1), BuildingBlock: UVAHIK_clean_linker_0, # of connection points: 2
#     Edge 25, Type (0, 1), BuildingBlock: UVAHIK_clean_linker_0, # of connection points: 2
#     Edge 26, Type (0, 1), BuildingBlock: UVAHIK_clean_linker_0, # of connection points: 2
#     Edge 27, Type (0, 1), BuildingBlock: UVAHIK_clean_linker_0, # of connection points: 2
#     Edge 28, Type (0, 1), BuildingBlock: UVAHIK_clean_linker_0, # of connection points: 2
#     Edge 29, Type (0, 1), BuildingBlock: UVAHIK_clean_linker_0, # of connection points: 2
#     Edge 30, Type (0, 1), BuildingBlock: UVAHIK_clean_linker_0, # of connection points: 2
#     Edge 31, Type (0, 1), BuildingBlock: UVAHIK_clean_linker_0, # of connection points: 2
#     Edge 32, Type (0, 1), BuildingBlock: UVAHIK_clean_linker_0, # of connection points: 2
#     Edge 33, Type (0, 1), BuildingBlock: UVAHIK_clean_linker_0, # of connection points: 2
#     Edge 34, Type (0, 1), BuildingBlock: UVAHIK_clean_linker_0, # of connection points: 2
#     Edge 35, Type (0, 1), BuildingBlock: UVAHIK_clean_linker_0, # of connection points: 2
# Relax obj value: 0.272
# Max RMSD: 0.226
# Mean RMSD: 0.209
data_MOF--net-zzz--node1-KUMBOL_clean_sbu_0--node2-KAKCAD_clean_linker_0--edge1-UVAHIK_clean_linker_0
_symmetry_space_group_name_H-M    P1
_symmetry_Int_Tables_number       1
_symmetry_cell_setting            triclinic
loop_
_symmetry_equiv_pos_as_xyz
'x, y, z'
_cell_length_a     71.412952
_cell_length_b     71.345709
_cell_length_c     24.805338
_cell_angle_alpha  90.407962
_cell_angle_beta   90.076302
_cell_angle_gamma 89.97477
loop_
_atom_site_label
_atom_site_type_symbol
_atom_site_fract_x
_atom_site_fract_y
_atom_site_fract_z
_atom_type_partial_charge
C0 C 0.78933 0.59341 0.92629 0.0
C1 C 0.80693 0.585 0.91886 0.0
C2 C 0.77708 0.58673 0.96594 0.0
C3 C 0.78217 0.57139 0.99832 0.0
C4 C 0.79975 0.56298 0.9902 0.0
C5 C 0.81196 0.56974 0.95128 0.0
C6 C 0.76919 0.56357 0.03935 0.0
C7 C 0.74997 0.5619 0.02876 0.0
C8 C 0.73797 0.5528 0.06511 0.0
C9 C 0.74543 0.54527 0.11313 0.0
C10 C 0.76472 0.54712 0.12452 0.0
C11 C 0.77627 0.55648 0.08785 0.0
C12 C 0.77373 0.53898 0.17307 0.0
C13 C 0.77037 0.54647 0.22464 0.0
C14 C 0.78847 0.52614 0.1663 0.0
C15 C 0.80029 0.52166 0.20931 0.0
C16 C 0.79776 0.52999 0.26038 0.0
C17 C 0.71797 0.55057 0.04954 0.0
C18 C 0.70754 0.56638 0.03439 0.0
C19 C 0.71023 0.5327 0.04112 0.0
C20 C 0.69289 0.53067 0.01487 0.0
C21 C 0.6829 0.54649 0.99679 0.0
C22 C 0.69019 0.56438 0.00876 0.0
C23 C 0.78229 0.54205 0.26789 0.0
H24 H 0.78508 0.60514 0.90165 0.0
H25 H 0.76369 0.5936 0.97131 0.0
H26 H 0.80397 0.5508 0.01303 0.0
H27 H 0.82521 0.5626 0.94549 0.0
H28 H 0.7444 0.56689 0.9908 0.0
H29 H 0.79103 0.55808 0.09718 0.0
H30 H 0.7364 0.53789 0.14092 0.0
H31 H 0.75926 0.55661 0.23074 0.0
H32 H 0.7915 0.52034 0.12675 0.0
H33 H 0.8121 0.51252 0.2015 0.0
H34 H 0.71319 0.58033 0.04049 0.0
H35 H 0.7181 0.52027 0.05173 0.0
H36 H 0.77975 0.54855 0.30678 0.0
H37 H 0.68275 0.57692 0.99692 0.0
H38 H 0.68784 0.51666 0.00622 0.0
C39 C 0.92011 0.79331 0.94315 0.0
C40 C 0.92452 0.81245 0.94195 0.0
C41 C 0.92927 0.78142 0.97948 0.0
C42 C 0.94341 0.78841 0.01399 0.0
C43 C 0.94767 0.80768 0.0121 0.0
C44 C 0.93817 0.81953 0.97714 0.0
C45 C 0.95441 0.77583 0.05016 0.0
C46 C 0.95865 0.7573 0.03492 0.0
C47 C 0.97051 0.74601 0.06645 0.0
C48 C 0.97878 0.75375 0.11353 0.0
C49 C 0.97437 0.77227 0.12964 0.0
C50 C 0.96187 0.78281 0.09866 0.0
C51 C 0.98317 0.78196 0.17645 0.0
C52 C 0.97454 0.78162 0.22724 0.0
C53 C 0.99697 0.79554 0.16678 0.0
C54 C 1.00137 0.80911 0.20592 0.0
C55 C 0.99203 0.80953 0.25596 0.0
C56 C 0.97417 0.7264 0.04774 0.0
C57 C 0.95901 0.71478 0.03361 0.0
C58 C 0.99242 0.71994 0.03731 0.0
C59 C 0.99535 0.70269 0.01065 0.0
C60 C 0.98007 0.69147 0.99408 0.0
C61 C 0.9619 0.69757 0.00751 0.0
C62 C 0.979 0.79515 0.26669 0.0
H63 H 0.90972 0.78757 0.91578 0.0
H64 H 0.92538 0.76677 0.98005 0.0
H65 H 0.95883 0.81366 0.03621 0.0
H66 H 0.94214 0.83419 0.97585 0.0
H67 H 0.95331 0.75174 0.99717 0.0
H68 H 0.95831 0.79683 0.11228 0.0
H69 H 0.98841 0.74549 0.13734 0.0
H70 H 0.96351 0.77161 0.23524 0.0
H71 H 1.00341 0.79648 0.12736 0.0
H72 H 0.01126 0.81997 0.19536 0.0
H73 H 0.94478 0.7193 0.04147 0.0
H74 H 0.00437 0.72866 0.0472 0.0
H75 H 0.97172 0.79472 0.3049 0.0
H76 H 0.94978 0.68919 0.99703 0.0
H77 H 0.00955 0.69858 1.00095 0.0
C78 C 0.71845 0.91087 0.97037 0.0
C79 C 0.69943 0.9157 0.97252 0.0
C80 C 0.73126 0.91931 0.00588 0.0
C81 C 0.72534 0.93321 0.04286 0.0
C82 C 0.70611 0.93765 0.04506 0.0
C83 C 0.69334 0.92881 0.01094 0.0
C84 C 0.73901 0.94403 0.07661 0.0
C85 C 0.75709 0.94809 0.05762 0.0
C86 C 0.76932 0.95994 0.08672 0.0
C87 C 0.7628 0.96864 0.13459 0.0
C88 C 0.74476 0.96453 0.15417 0.0
C89 C 0.73342 0.95177 0.12618 0.0
C90 C 0.73618 0.97437 0.20076 0.0
C91 C 0.73524 0.96552 0.25101 0.0
C92 C 0.72448 0.98977 0.19094 0.0
C93 C 0.71121 0.99547 0.22919 0.0
C94 C 0.70931 0.9859 0.27841 0.0
C95 C 0.78855 0.96332 0.06497 0.0
C96 C 0.7988 0.94831 0.04263 0.0
C97 C 0.79626 0.98143 0.06249 0.0
C98 C 0.81343 0.9845 0.03635 0.0
C99 C 0.82336 0.96953 0.01231 0.0
C100 C 0.81587 0.95136 0.01661 0.0
C101 C 0.72209 0.97134 0.28965 0.0
H102 H 0.72343 0.9009 0.94053 0.0
H103 H 0.74582 0.9152 1.00341 0.0
H104 H 0.70085 0.94862 0.07126 0.0
H105 H 0.67879 0.93311 0.01232 0.0
H106 H 0.7615 0.94267 0.01878 0.0
H107 H 0.71977 0.94848 0.14263 0.0
H108 H 0.77164 0.97841 0.1565 0.0
H109 H 0.74383 0.95333 0.25901 0.0
H110 H 0.72456 0.99645 0.15184 0.0
H111 H 0.70158 0.00654 0.21831 0.0
H112 H 0.79342 0.93414 0.04433 0.0
H113 H 0.78872 0.99331 0.07904 0.0
H114 H 0.72143 0.96385 0.32741 0.0
H115 H 0.82288 0.93947 0.99827 0.0
H116 H 0.81885 0.99866 0.03459 0.0
C117 C 0.53414 0.72952 0.25597 0.0
C118 C 0.54795 0.72057 0.28713 0.0
C119 C 0.53921 0.74279 0.21709 0.0
C120 C 0.55813 0.74738 0.2091 0.0
C121 C 0.57164 0.73988 0.24401 0.0
C122 C 0.56661 0.72665 0.28266 0.0
C123 C 0.5643 0.7548 0.15638 0.0
C124 C 0.56061 0.77323 0.13923 0.0
C125 C 0.56577 0.77875 0.08675 0.0
C126 C 0.57473 0.76578 0.05237 0.0
C127 C 0.57783 0.74722 0.06834 0.0
C128 C 0.57276 0.74204 0.12075 0.0
C129 C 0.58376 0.73253 0.02879 0.0
C130 C 0.57723 0.733 0.97528 0.0
C131 C 0.59353 0.71651 0.04604 0.0
C132 C 0.59428 0.70045 0.01356 0.0
C133 C 0.58573 0.70023 0.96244 0.0
C134 C 0.56096 0.79748 0.06482 0.0
C135 C 0.55206 0.79859 0.01439 0.0
C136 C 0.56682 0.81412 0.09034 0.0
C137 C 0.56481 0.83143 0.06418 0.0
C138 C 0.55691 0.83232 0.01216 0.0
C139 C 0.55005 0.81575 0.98846 0.0
C140 C 0.57848 0.71713 0.94225 0.0
H141 H 0.51965 0.7251 0.25832 0.0
H142 H 0.52858 0.74809 0.18994 0.0
H143 H 0.58634 0.74301 0.23817 0.0
H144 H 0.57753 0.72023 0.30663 0.0
H145 H 0.55342 0.78295 0.1658 0.0
H146 H 0.57428 0.7276 0.13332 0.0
H147 H 0.57885 0.77012 0.01233 0.0
H148 H 0.56976 0.74504 0.95996 0.0
H149 H 0.59945 0.71586 0.08619 0.0
H150 H 0.60019 0.68784 0.03062 0.0
H151 H 0.54713 0.78601 0.99415 0.0
H152 H 0.57377 0.81364 0.12914 0.0
H153 H 0.57244 0.71774 0.90224 0.0
H154 H 0.54343 0.81597 0.94915 0.0
H155 H 0.57021 0.84396 0.08357 0.0
C156 C 0.22374 0.45827 0.23673 0.0
C157 C 0.21538 0.44086 0.2243 0.0
C158 C 0.23693 0.46619 0.20224 0.0
C159 C 0.24179 0.45709 0.15406 0.0
C160 C 0.23435 0.43931 0.14268 0.0
C161 C 0.2215 0.43113 0.17789 0.0
C162 C 0.25297 0.46712 0.11347 0.0
C163 C 0.27081 0.47393 0.12622 0.0
C164 C 0.28084 0.48487 0.08929 0.0
C165 C 0.2726 0.48933 0.03916 0.0
C166 C 0.25439 0.48287 0.02677 0.0
C167 C 0.24493 0.4715 0.06367 0.0
C168 C 0.24392 0.48906 0.97846 0.0
C169 C 0.23051 0.50332 0.98398 0.0
C170 C 0.24427 0.47839 0.93076 0.0
C171 C 0.23093 0.48147 0.8901 0.0
C172 C 0.21682 0.49515 0.89663 0.0
C173 C 0.29967 0.49172 0.10544 0.0
C174 C 0.30166 0.50248 0.15276 0.0
C175 C 0.31582 0.48515 0.0792 0.0
C176 C 0.3336 0.48841 0.10167 0.0
C177 C 0.33554 0.49849 0.15044 0.0
C178 C 0.31937 0.50594 0.17479 0.0
C179 C 0.21715 0.50637 0.94361 0.0
H180 H 0.2193 0.46649 0.27125 0.0
H181 H 0.24242 0.48 0.21152 0.0
H182 H 0.23809 0.43201 0.10579 0.0
H183 H 0.21584 0.41751 0.16749 0.0
H184 H 0.2769 0.4707 0.16515 0.0
H185 H 0.2308 0.46682 0.05465 0.0
H186 H 0.27996 0.49823 0.01105 0.0
H187 H 0.22968 0.51141 0.02105 0.0
H188 H 0.25426 0.46706 0.9261 0.0
H189 H 0.23136 0.47273 0.85426 0.0
H190 H 0.28938 0.50754 0.17401 0.0
H191 H 0.31463 0.47663 0.04305 0.0
H192 H 0.20644 0.51682 0.95082 0.0
H193 H 0.3203 0.51359 0.21257 0.0
H194 H 0.34579 0.48261 0.08166 0.0
C195 C 0.07758 0.22342 0.24947 0.0
C196 C 0.09319 0.21293 0.2319 0.0
C197 C 0.06892 0.23627 0.21537 0.0
C198 C 0.07546 0.23873 0.16267 0.0
C199 C 0.09168 0.22923 0.14596 0.0
C200 C 0.1006 0.21662 0.18045 0.0
C201 C 0.06407 0.24943 0.12367 0.0
C202 C 0.05802 0.26762 0.13563 0.0
C203 C 0.04585 0.2772 0.10078 0.0
C204 C 0.03921 0.26798 0.05365 0.0
C205 C 0.04561 0.24968 0.04069 0.0
C206 C 0.05805 0.24072 0.07608 0.0
C207 C 0.03958 0.23901 0.99163 0.0
C208 C 0.02065 0.23474 0.98221 0.0
C209 C 0.05321 0.23008 0.95959 0.0
C210 C 0.04822 0.21632 0.92177 0.0
C211 C 0.02939 0.21106 0.91441 0.0
C212 C 0.04081 0.29688 0.11538 0.0
C213 C 0.02236 0.30193 0.12877 0.0
C214 C 0.05521 0.3099 0.12506 0.0
C215 C 0.05151 0.32709 0.15029 0.0
C216 C 0.03327 0.33178 0.16704 0.0
C217 C 0.01861 0.31923 0.15432 0.0
C218 C 0.0156 0.22092 0.94404 0.0
H219 H 0.07116 0.22087 0.28822 0.0
H220 H 0.05634 0.24334 0.229 0.0
H221 H 0.09707 0.23109 0.10555 0.0
H222 H 0.11283 0.20921 0.16586 0.0
H223 H 0.06276 0.27433 0.17258 0.0
H224 H 0.06249 0.22646 0.06761 0.0
H225 H 0.02968 0.27514 0.02673 0.0
H226 H 0.00984 0.24125 0.00655 0.0
H227 H 0.06793 0.23301 0.966 0.0
H228 H 0.05935 0.20908 0.90059 0.0
H229 H 0.01102 0.29206 0.12246 0.0
H230 H 0.06958 0.30638 0.11516 0.0
H231 H 1.00092 0.2176 0.93895 0.0
H232 H 0.00439 0.32231 0.16663 0.0
H233 H 0.06309 0.33652 0.15803 0.0
C234 C 0.30885 0.10329 0.21086 0.0
C235 C 0.32057 0.11501 0.18029 0.0
C236 C 0.29328 0.09466 0.18734 0.0
C237 C 0.28914 0.09745 0.13268 0.0
C238 C 0.29967 0.1106 0.10361 0.0
C239 C 0.31518 0.11937 0.12726 0.0
C240 C 0.27634 0.0843 0.10429 0.0
C241 C 0.25914 0.07901 0.12681 0.0
C242 C 0.24838 0.0645 0.10357 0.0
C243 C 0.2552 0.05508 0.05722 0.0
C244 C 0.27255 0.06027 0.03473 0.0
C245 C 0.28273 0.07502 0.0579 0.0
C246 C 0.28184 0.04949 0.99108 0.0
C247 C 0.29437 0.03515 0.00489 0.0
C248 C 0.28225 0.05664 0.93857 0.0
C249 C 0.29562 0.05024 0.90136 0.0
C250 C 0.30915 0.03682 0.91624 0.0
C251 C 0.23055 0.0589 0.13013 0.0
C252 C 0.23025 0.05542 0.18585 0.0
C253 C 0.21358 0.05836 0.10138 0.0
C254 C 0.19659 0.05508 0.12828 0.0
C255 C 0.19629 0.05191 0.18427 0.0
C256 C 0.21338 0.05185 0.21249 0.0
C257 C 0.30787 0.02888 0.968 0.0
H258 H 0.31255 0.09939 0.25159 0.0
H259 H 0.28551 0.08452 0.21069 0.0
H260 H 0.29659 0.11321 0.06155 0.0
H261 H 0.32361 0.12865 0.10291 0.0
H262 H 0.25422 0.08608 0.16294 0.0
H263 H 0.29639 0.07844 0.0416 0.0
H264 H 0.24745 0.04343 0.04004 0.0
H265 H 0.29467 0.02981 0.04568 0.0
H266 H 0.27299 0.068 0.92738 0.0
H267 H 0.29582 0.05642 0.86163 0.0
H268 H 0.24311 0.0557 0.20905 0.0
H269 H 0.21338 0.0611 0.05849 0.0
H270 H 0.31807 0.01873 0.98155 0.0
H271 H 0.21366 0.04959 0.25562 0.0
H272 H 0.18368 0.05507 0.10534 0.0
C273 C 0.45652 0.28985 0.88069 0.0
C274 C 0.475 0.296 0.88893 0.0
C275 C 0.44791 0.27804 0.91809 0.0
C276 C 0.45776 0.27188 0.96375 0.0
C277 C 0.47675 0.27663 0.96931 0.0
C278 C 0.48525 0.28871 0.93245 0.0
C279 C 0.44739 0.26496 0.01132 0.0
C280 C 0.45174 0.24785 0.03624 0.0
C281 C 0.4437 0.24329 0.0864 0.0
C282 C 0.4319 0.25646 0.11201 0.0
C283 C 0.42784 0.27382 0.0882 0.0
C284 C 0.43491 0.27739 0.03651 0.0
C285 C 0.41856 0.28913 0.11996 0.0
C286 C 0.40546 0.28522 0.16089 0.0
C287 C 0.42433 0.30784 0.11313 0.0
C288 C 0.41789 0.32199 0.14726 0.0
C289 C 0.40584 0.31786 0.19012 0.0
C290 C 0.44805 0.22527 0.11396 0.0
C291 C 0.44812 0.20814 0.0855 0.0
C292 C 0.45105 0.22502 0.17003 0.0
C293 C 0.45309 0.2081 0.19733 0.0
C294 C 0.4524 0.19093 0.16935 0.0
C295 C 0.45032 0.19112 0.11293 0.0
C296 C 0.39938 0.29941 0.19615 0.0
H297 H 0.44825 0.29534 0.84773 0.0
H298 H 0.43318 0.27479 0.91343 0.0
H299 H 0.48453 0.27233 0.00465 0.0
H300 H 0.49955 0.29316 0.93958 0.0
H301 H 0.4617 0.23841 0.01739 0.0
H302 H 0.43173 0.29054 0.01691 0.0
H303 H 0.42642 0.25338 0.15159 0.0
H304 H 0.40033 0.27112 0.16693 0.0
H305 H 0.43477 0.31159 0.08354 0.0
H306 H 0.42345 0.33601 0.14238 0.0
H307 H 0.44579 0.20783 0.04235 0.0
H308 H 0.45164 0.23794 0.19312 0.0
H309 H 0.39009 0.29589 0.22905 0.0
H310 H 0.44977 0.17811 0.09025 0.0
H311 H 0.45516 0.20846 0.2406 0.0
Gd312 Gd 0.98897 0.0116 0.53932 0.0
Gd313 Gd 0.02729 0.00806 0.63903 0.0
C314 C 0.05076 0.05736 0.73683 0.0
C315 C 0.08149 0.0615 0.69673 0.0
C316 C 0.06086 0.03667 0.66482 0.0
C317 C 0.04727 0.04231 0.70097 0.0
C318 C 0.07829 0.04593 0.66302 0.0
C319 C 0.06774 0.06721 0.73361 0.0
C320 C 0.03728 0.06174 0.77579 0.0
C321 C 0.02112 0.05085 0.77929 0.0
N322 N 0.03103 0.03247 0.70293 0.0
C323 C 0.01831 0.03607 0.74278 0.0
H324 H 0.00573 0.02791 0.74614 0.0
C325 C 0.07121 0.01395 0.6018 0.0
N326 N 0.05735 0.02151 0.63324 0.0
C327 C 0.08868 0.02269 0.59833 0.0
C328 C 0.09216 0.03892 0.62851 0.0
H329 H 0.06852 1.00151 0.57794 0.0
H330 H 0.07056 0.07894 0.76037 0.0
H331 H 0.01175 0.99165 0.43424 0.0
H332 H 0.03938 0.07322 0.80397 0.0
H333 H 0.01074 0.05389 0.80989 0.0
H334 H 0.09472 0.06892 0.69559 0.0
H335 H 0.94731 0.01783 0.59778 0.0
H336 H 0.97838 0.94689 0.37191 0.0
H337 H 0.00728 0.96592 0.36952 0.0
H338 H 0.92204 0.95095 0.476 0.0
H339 H 0.09942 0.01696 0.57223 0.0
H340 H 0.10572 0.04565 0.62588 0.0
H341 H 0.94676 0.94112 0.41276 0.0
H342 H 0.91634 1.00241 0.60073 0.0
N343 N 0.98585 0.98728 0.47475 0.0
C344 C 0.98025 0.95824 0.40065 0.0
C345 C 0.99656 0.96897 0.39912 0.0
C346 C 0.96638 0.96258 0.43847 0.0
C347 C 0.96955 0.97751 0.47501 0.0
C348 C 0.99904 0.98363 0.43618 0.0
N349 N 0.95893 0.99801 0.54276 0.0
C350 C 0.95568 0.983 0.51039 0.0
C351 C 0.9273 0.99675 0.57528 0.0
C352 C 0.92406 0.98066 0.5443 0.0
C353 C 0.94482 0.00547 0.57338 0.0
C354 C 0.93822 0.97376 0.51058 0.0
H355 H 0.91046 0.97395 0.54568 0.0
O356 O 0.96965 0.03349 0.51573 0.0
O357 O 0.00707 0.02664 0.59819 0.0
O358 O 0.99831 0.00539 0.67796 0.0
O359 O 0.97886 0.99424 0.6093 0.0
O360 O 0.97941 0.03473 0.59666 0.0
O361 O 0.99251 0.02557 0.4626 0.0
O362 O 0.04684 0.98646 0.66317 0.0
O363 O 0.00904 0.99292 0.58056 0.0
O364 O 0.01806 0.01463 0.50113 0.0
O365 O 0.03699 0.02617 0.57022 0.0
O366 O 0.03669 0.98491 0.58169 0.0
O367 O 0.02376 0.99417 0.71587 0.0
C368 C 0.99549 0.03805 0.61815 0.0
C369 C 0.93528 0.95834 0.47608 0.0
C370 C 0.94935 0.95276 0.44005 0.0
C371 C 0.97959 0.03798 0.47377 0.0
C372 C 0.98494 0.05789 0.47093 0.0
C373 C 0.97105 0.07171 0.47558 0.0
C374 C 1.00383 0.0633 0.46726 0.0
C375 C 0.00886 0.08234 0.46807 0.0
C376 C 0.97593 0.09063 0.47689 0.0
C377 C 0.99468 0.09595 0.47317 0.0
C378 C 0.9826 0.99722 0.66097 0.0
C379 C 0.02059 0.98148 0.56054 0.0
C380 C 0.03709 0.9821 0.70559 0.0
C381 C 0.03241 0.96211 0.71015 0.0
C382 C 0.04686 0.94913 0.71811 0.0
C383 C 0.01391 0.95572 0.70361 0.0
C384 C 0.00978 0.93648 0.70605 0.0
C385 C 0.04292 0.93 0.71978 0.0
C386 C 0.02453 0.92368 0.71398 0.0
C387 C 0.03347 0.02325 0.51846 0.0
H388 H 0.95642 0.06784 0.47887 0.0
H389 H 0.01466 0.05276 0.46412 0.0
H390 H 0.96514 0.10122 0.4805 0.0
H391 H 0.99801 0.11076 0.47283 0.0
H392 H 0.06122 0.95379 0.72261 0.0
H393 H 1.00275 0.96565 0.69645 0.0
H394 H 0.05414 0.92004 0.72609 0.0
H395 H 0.02184 0.9088 0.71719 0.0
Gd396 Gd 0.50445 0.99107 0.53802 0.0
Gd397 Gd 0.50995 0.03054 0.63473 0.0
C398 C 0.46361 0.0539 0.74334 0.0
C399 C 0.45812 0.08459 0.70445 0.0
C400 C 0.48212 0.06405 0.66734 0.0
C401 C 0.47769 0.05051 0.70461 0.0
C402 C 0.47263 0.08139 0.66733 0.0
C403 C 0.45362 0.07086 0.74242 0.0
C404 C 0.46017 0.04026 0.78228 0.0
C405 C 0.47094 0.02394 0.78262 0.0
N406 N 0.48754 0.03423 0.70399 0.0
C407 C 0.48474 0.02123 0.74336 0.0
H408 H 0.49273 0.00845 0.74428 0.0
C409 C 0.50243 0.07419 0.59832 0.0
N410 N 0.49622 0.06052 0.63227 0.0
C411 C 0.49338 0.09157 0.59647 0.0
C412 C 0.47827 0.09512 0.63073 0.0
H413 H 0.51399 0.07144 0.57135 0.0
H414 H 0.44262 0.07362 0.77146 0.0
H415 H 0.52412 0.01293 0.43227 0.0
H416 H 0.44945 0.04228 0.81262 0.0
H417 H 0.46854 0.01337 0.81292 0.0
H418 H 0.45054 0.09775 0.7048 0.0
H419 H 0.49769 0.94992 0.59826 0.0
H420 H 0.56815 0.97842 0.3705 0.0
H421 H 0.54965 0.00771 0.36756 0.0
H422 H 0.56325 0.92248 0.47553 0.0
H423 H 0.49803 0.10217 0.56853 0.0
H424 H 0.4713 0.1086 0.62933 0.0
H425 H 0.57335 0.94675 0.41174 0.0
H426 H 0.51246 0.91862 0.60178 0.0
N427 N 0.52815 0.98702 0.4728 0.0
C428 C 0.55688 0.98061 0.39907 0.0
C429 C 0.54645 0.99713 0.39722 0.0
C430 C 0.55235 0.96692 0.43698 0.0
C431 C 0.53759 0.97052 0.47336 0.0
C432 C 0.53191 1.00003 0.43412 0.0
N433 N 0.5172 0.96069 0.54169 0.0
C434 C 0.53195 0.95692 0.50908 0.0
C435 C 0.51813 0.92928 0.57564 0.0
C436 C 0.53391 0.92548 0.5442 0.0
C437 C 0.50976 0.94699 0.5734 0.0
C438 C 0.54086 0.93928 0.50977 0.0
H439 H 0.54037 0.91175 0.54597 0.0
O440 O 0.48045 0.97366 0.51853 0.0
O441 O 0.49092 0.00969 0.59816 0.0
O442 O 0.51421 1.00198 0.67417 0.0
O443 O 0.52328 0.98139 0.6054 0.0
O444 O 0.48254 0.98211 0.59903 0.0
O445 O 0.49101 0.99344 0.45996 0.0
O446 O 0.53284 0.04966 0.6518 0.0
O447 O 0.52355 0.0119 0.57475 0.0
O448 O 0.50048 0.01974 0.49868 0.0
O449 O 0.49042 0.03942 0.56816 0.0
O450 O 0.53111 0.03966 0.57182 0.0
O451 O 0.52636 0.0274 0.70786 0.0
C452 C 0.47988 0.99838 0.62041 0.0
C453 C 0.55609 0.93588 0.47525 0.0
C454 C 0.56183 0.94968 0.43892 0.0
C455 C 0.47695 0.98294 0.47452 0.0
C456 C 0.45808 0.99141 0.47074 0.0
C457 C 0.44288 0.98323 0.49778 0.0
C458 C 0.45539 0.00852 0.44389 0.0
C459 C 0.43797 0.01767 0.44534 0.0
C460 C 0.42551 0.99217 0.49903 0.0
C461 C 0.42306 0.00932 0.47328 0.0
C462 C 0.52237 0.98628 0.65698 0.0
C463 C 0.53439 0.02327 0.55193 0.0
C464 C 0.53906 0.03914 0.69078 0.0
C465 C 0.55817 0.0315 0.6831 0.0
C466 C 0.57084 0.04054 0.64849 0.0
C467 C 0.5629 0.01376 0.70353 0.0
C468 C 0.57939 0.0047 0.68707 0.0
C469 C 0.58739 0.03166 0.63265 0.0
C470 C 0.59155 0.01372 0.65119 0.0
C471 C 0.49195 0.03515 0.51635 0.0
H472 H 0.44451 0.97007 0.51883 0.0
H473 H 0.46697 0.01501 0.42294 0.0
H474 H 0.41393 0.98583 0.52026 0.0
H475 H 0.40938 0.01588 0.47442 0.0
H476 H 0.56764 0.05418 0.63194 0.0
H477 H 0.55345 0.00662 0.73064 0.0
H478 H 0.59685 0.03856 0.60512 0.0
H479 H 0.60441 0.00701 0.63827 0.0
Gd480 Gd 0.49086 0.50937 0.59961 0.0
Gd481 Gd 0.53532 0.49722 0.53416 0.0
C482 C 0.5896 0.51052 0.62442 0.0
C483 C 0.60456 0.5328 0.56468 0.0
C484 C 0.57421 0.51951 0.54159 0.0
C485 C 0.57412 0.5096 0.58909 0.0
C486 C 0.58968 0.5308 0.52799 0.0
C487 C 0.60456 0.52261 0.61276 0.0
C488 C 0.58991 0.49873 0.66922 0.0
C489 C 0.57524 0.48613 0.67713 0.0
N490 N 0.5595 0.498 0.59883 0.0
C491 C 0.56009 0.48591 0.64129 0.0
H492 H 0.54882 0.4762 0.64817 0.0
C493 C 0.56118 0.52315 0.45486 0.0
N494 N 0.55991 0.51677 0.50649 0.0
C495 C 0.57602 0.53474 0.43966 0.0
C496 C 0.59017 0.5389 0.47678 0.0
H497 H 0.55038 0.51971 0.42587 0.0
H498 H 0.61646 0.52368 0.63971 0.0
H499 H 0.4757 0.55358 0.60003 0.0
H500 H 0.60156 0.49897 0.69725 0.0
H501 H 0.57547 0.47673 0.71117 0.0
H502 H 0.61648 0.54157 0.55524 0.0
H503 H 0.48242 0.4646 0.56011 0.0
H504 H 0.42408 0.55655 0.51272 0.0
H505 H 0.4494 0.57222 0.56415 0.0
H506 H 0.41189 0.49239 0.46637 0.0
H507 H 0.57661 0.54033 0.39925 0.0
H508 H 0.60179 0.54769 0.46475 0.0
H509 H 0.41005 0.52664 0.47713 0.0
H510 H 0.45771 0.44645 0.51576 0.0
N511 N 0.4664 0.52799 0.56479 0.0
C512 C 0.43581 0.5484 0.52742 0.0
C513 C 0.4501 0.5573 0.55619 0.0
C514 C 0.43656 0.52899 0.51935 0.0
C515 C 0.45218 0.51904 0.53917 0.0
C516 C 0.46514 0.54676 0.57563 0.0
N517 N 0.46867 0.49093 0.55191 0.0
C518 C 0.45323 0.49986 0.5331 0.0
C519 C 0.45619 0.46147 0.52062 0.0
C520 C 0.44031 0.47051 0.50097 0.0
C521 C 0.47025 0.47191 0.54615 0.0
C522 C 0.43869 0.48994 0.50687 0.0
H523 H 0.4295 0.46241 0.48082 0.0
O524 O 0.47878 0.49369 0.66592 0.0
O525 O 0.52168 0.50592 0.61119 0.0
O526 O 0.5247 0.47157 0.57787 0.0
O527 O 0.49992 0.48138 0.63207 0.0
O528 O 0.50945 0.53034 0.64163 0.0
O529 O 0.47712 0.52386 0.66576 0.0
O530 O 0.53866 0.48255 0.45761 0.0
O531 O 0.50417 0.49644 0.5283 0.0
O532 O 0.50055 0.53475 0.55072 0.0
O533 O 0.53179 0.52874 0.5245 0.0
O534 O 0.51894 0.50485 0.45977 0.0
O535 O 0.55373 0.47307 0.52765 0.0
C536 C 0.52485 0.52103 0.63697 0.0
C537 C 0.42314 0.49975 0.48681 0.0
C538 C 0.42212 0.51925 0.49282 0.0
C539 C 0.47548 0.50872 0.69431 0.0
C540 C 0.48372 0.50917 0.74901 0.0
C541 C 0.48268 0.49337 0.78229 0.0
C542 C 0.49369 0.52497 0.76712 0.0
C543 C 0.50269 0.52509 0.81746 0.0
C544 C 0.4917 0.49333 0.83235 0.0
C545 C 0.50175 0.50906 0.84986 0.0
C546 C 0.51224 0.46872 0.6162 0.0
C547 C 0.50257 0.5021 0.48009 0.0
C548 C 0.54882 0.46931 0.47835 0.0
C549 C 0.54278 0.44991 0.46828 0.0
C550 C 0.55613 0.43552 0.46866 0.0
C551 C 0.52374 0.44548 0.46149 0.0
C552 C 0.51803 0.42674 0.45486 0.0
C553 C 0.55056 0.41689 0.46236 0.0
C554 C 0.53166 0.41248 0.4555 0.0
C555 C 0.51681 0.53983 0.52874 0.0
H556 H 0.47513 0.48098 0.76921 0.0
H557 H 0.49485 0.53716 0.74155 0.0
H558 H 0.49094 0.48105 0.85762 0.0
H559 H 0.50851 0.50879 0.88895 0.0
H560 H 0.57084 0.4387 0.47438 0.0
H561 H 0.51335 0.45654 0.46258 0.0
H562 H 0.56094 0.40583 0.46266 0.0
H563 H 0.52776 0.39794 0.4497 0.0
Gd564 Gd 1.00272 0.48824 0.61852 0.0
Gd565 Gd 0.00829 0.53315 0.54681 0.0
C566 C 0.99866 0.59159 0.61896 0.0
C567 C 0.97001 0.60127 0.57417 0.0
C568 C 0.9839 0.57088 0.55397 0.0
C569 C 0.998 0.57431 0.59087 0.0
C570 C 0.96995 0.58447 0.54434 0.0
C571 C 0.98438 0.60485 0.6113 0.0
C572 C 0.01387 0.59521 0.65298 0.0
C573 C 0.02813 0.58197 0.65736 0.0
N574 N 0.01154 0.56114 0.59755 0.0
C575 C 0.02685 0.56506 0.62874 0.0
H576 H 0.03814 0.55525 0.63242 0.0
C577 C 0.97228 0.55182 0.48318 0.0
N578 N 0.98441 0.55467 0.52527 0.0
C579 C 0.95806 0.56476 0.47252 0.0
C580 C 0.95672 0.58104 0.50378 0.0
H581 H 0.97322 0.53918 0.45903 0.0
H582 H 0.98455 0.61808 0.633 0.0
H583 H 0.97733 0.46462 0.52637 0.0
H584 H 0.01491 0.6083 0.67522 0.0
H585 H 0.04015 0.58476 0.68282 0.0
H586 H 0.95932 0.6118 0.56772 0.0
H587 H 0.03521 0.48484 0.71549 0.0
H588 H 0.00481 0.41267 0.49181 0.0
H589 H 0.97846 0.43455 0.47714 0.0
H590 H 0.05673 0.41275 0.61434 0.0
H591 H 0.94816 0.56214 0.44028 0.0
H592 H 0.94576 0.59111 0.49528 0.0
H593 H 0.03429 0.40487 0.54228 0.0
H594 H 0.06063 0.46337 0.7424 0.0
N595 N 1.00301 0.46013 0.56805 0.0
C596 C 0.00436 0.42585 0.51376 0.0
C597 C 0.98946 0.43815 0.50544 0.0
C598 C 0.01827 0.4305 0.55133 0.0
C599 C 0.01702 0.44785 0.57879 0.0
C600 C 0.98891 0.45524 0.53339 0.0
N601 N 0.02711 0.46844 0.64733 0.0
C602 C 0.02952 0.45218 0.61957 0.0
C603 C 0.05203 0.46008 0.70766 0.0
C604 C 0.05533 0.44376 0.67771 0.0
C605 C 0.03759 0.47219 0.69236 0.0
C606 C 0.0438 0.43946 0.63366 0.0
H607 H 0.06648 0.43438 0.68975 0.0
O608 O 0.99431 0.48161 0.70033 0.0
O609 O 0.9998 0.51928 0.62222 0.0
O610 O 0.03431 0.52515 0.59614 0.0
O611 O 0.03335 0.49253 0.60021 0.0
O612 O 0.00905 0.50673 0.69167 0.0
O613 O 0.97715 0.47282 0.63237 0.0
O614 O 0.01271 0.5456 0.46868 0.0
O615 O 0.01042 0.50214 0.54189 0.0
O616 O 0.97662 0.49577 0.56963 0.0
O617 O 0.9777 0.52831 0.56573 0.0
O618 O 1.00018 0.51511 0.4743 0.0
O619 O 0.03653 0.53976 0.52035 0.0
C620 C 0.00467 0.5225 0.67021 0.0
C621 C 0.04574 0.42262 0.60447 0.0
C622 C 0.03297 0.41814 0.56343 0.0
C623 C 0.97868 0.47385 0.68468 0.0
C624 C 0.96178 0.47946 0.71397 0.0
C625 C 0.95616 0.46896 0.75858 0.0
C626 C 0.95092 0.49475 0.69702 0.0
C627 C 0.93413 0.49917 0.72355 0.0
C628 C 0.9397 0.47354 0.78585 0.0
C629 C 0.92869 0.48848 0.76841 0.0
C630 C 0.04253 0.50861 0.60389 0.0
C631 C 0.00493 0.49922 0.49428 0.0
C632 C 0.03085 0.54442 0.47218 0.0
C633 C 0.03989 0.53531 0.4257 0.0
C634 C 0.03796 0.54358 0.37485 0.0
C635 C 0.04896 0.51788 0.4303 0.0
C636 C 0.05591 0.50874 0.38409 0.0
C637 C 0.04478 0.53452 0.32897 0.0
C638 C 0.05365 0.51719 0.33341 0.0
C639 C 0.96847 0.51227 0.56176 0.0
H640 H 0.96444 0.45716 0.7721 0.0
H641 H 0.95531 0.50289 0.6627 0.0
H642 H 0.93541 0.46542 0.8204 0.0
H643 H 0.916 0.49179 0.79037 0.0
H644 H 0.03087 0.55692 0.37057 0.0
H645 H 0.05037 0.51128 0.46935 0.0
H646 H 0.0432 0.54095 0.28983 0.0
H647 H 0.05914 0.51058 0.29729 0.0
C648 C 0.17658 0.0349 0.25236 0.0
C649 C 0.1783 0.04916 0.21381 0.0
C650 C 0.16003 0.0328 0.28197 0.0
C651 C 0.11941 0.02525 0.31501 0.0
H652 H 0.09692 0.06888 0.38302 0.0
C653 C 0.04883 0.02028 0.42751 0.0
C654 C 0.0481 0.02872 0.47882 0.0
C655 C 0.06375 0.0239 0.39247 0.0
C656 C 0.10297 0.05656 0.36418 0.0
H657 H 0.16392 0.07245 0.17642 0.0
H658 H 0.13503 0.0689 0.22863 0.0
H659 H 0.1248 0.07255 0.32673 0.0
H660 H 0.06189 0.0487 0.53187 0.0
H661 H 0.08794 0.05497 0.47085 0.0
H662 H 0.09775 0.00922 0.35248 0.0
C663 C 0.14652 0.0593 0.23571 0.0
C664 C 0.1189 0.05868 0.33166 0.0
C665 C 0.163 0.06123 0.20546 0.0
C666 C 0.06217 0.04167 0.49303 0.0
C667 C 0.07705 0.04539 0.45785 0.0
C668 C 0.10336 0.02316 0.34678 0.0
C669 C 0.14484 0.04507 0.27438 0.0
C670 C 0.12742 0.04302 0.30708 0.0
C671 C 0.07825 0.03622 0.40755 0.0
C672 C 0.09496 0.03876 0.37207 0.0
H673 H 0.18807 0.02532 0.25962 0.0
H674 H 0.15927 0.02177 0.31167 0.0
H675 H 0.12555 0.01291 0.29645 0.0
H676 H 0.03822 0.01036 0.41492 0.0
H677 H 0.06404 0.01685 0.35367 0.0
C678 C 0.4432 0.17078 0.24741 0.0
C679 C 0.45353 0.17303 0.19968 0.0
C680 C 0.4451 0.15459 0.27835 0.0
C681 C 0.46374 0.10579 0.2773 0.0
H682 H 0.4671 0.11415 0.43157 0.0
C683 C 0.492 0.04934 0.42393 0.0
C684 C 0.48492 0.04896 0.47673 0.0
C685 C 0.48657 0.06345 0.3882 0.0
C686 C 0.46589 0.1114 0.38873 0.0
H687 H 0.47352 0.15974 0.14609 0.0
H688 H 0.47717 0.13155 0.20065 0.0
H689 H 0.46023 0.14023 0.37266 0.0
H690 H 0.46564 0.06239 0.53229 0.0
H691 H 0.45577 0.08661 0.46985 0.0
H692 H 0.46988 0.07702 0.29337 0.0
C693 C 0.46736 0.14221 0.21382 0.0
C694 C 0.46194 0.12644 0.35478 0.0
C695 C 0.46533 0.15839 0.18258 0.0
C696 C 0.47166 0.0625 0.49222 0.0
C697 C 0.46609 0.07649 0.45641 0.0
C698 C 0.46779 0.09072 0.31132 0.0
C699 C 0.45752 0.14026 0.26266 0.0
C700 C 0.46089 0.12389 0.29858 0.0
C701 C 0.47376 0.07744 0.40422 0.0
C702 C 0.46893 0.0933 0.36759 0.0
H703 H 0.43368 0.18164 0.26108 0.0
H704 H 0.43694 0.15339 0.31492 0.0
H705 H 0.4628 0.10323 0.23431 0.0
H706 H 0.50223 0.0391 0.41068 0.0
H707 H 0.49293 0.06372 0.34864 0.0
C708 C 0.35962 0.51682 0.20356 0.0
C709 C 0.35403 0.49999 0.17835 0.0
C710 C 0.3762 0.51768 0.23382 0.0
C711 C 0.40809 0.48759 0.31158 0.0
H712 H 0.44283 0.52917 0.30209 0.0
C713 C 0.47864 0.4859 0.42419 0.0
C714 C 0.48548 0.50256 0.44678 0.0
C715 C 0.46315 0.48604 0.38967 0.0
C716 C 0.43317 0.51757 0.30594 0.0
H717 H 0.36166 0.47092 0.16495 0.0
H718 H 0.39055 0.47243 0.2176 0.0
H719 H 0.41487 0.52867 0.2453 0.0
H720 H 0.48266 0.53274 0.44769 0.0
H721 H 0.45483 0.53313 0.3898 0.0
H722 H 0.42597 0.47662 0.37284 0.0
C723 C 0.38209 0.48497 0.21403 0.0
C724 C 0.41716 0.51726 0.27312 0.0
C725 C 0.36563 0.48416 0.18331 0.0
C726 C 0.4772 0.51961 0.43209 0.0
C727 C 0.46142 0.5198 0.39827 0.0
C728 C 0.42397 0.48797 0.34468 0.0
C729 C 0.38748 0.50168 0.24018 0.0
C730 C 0.40449 0.5022 0.27525 0.0
C731 C 0.45404 0.50296 0.37693 0.0
C732 C 0.43686 0.50289 0.34214 0.0
H733 H 0.35106 0.52929 0.20035 0.0
H734 H 0.3799 0.53075 0.25361 0.0
H735 H 0.39844 0.47596 0.31505 0.0
H736 H 0.48528 0.47272 0.43355 0.0
H737 H 0.45837 0.47282 0.37298 0.0
C738 C 0.04292 0.35444 0.2405 0.0
C739 C 0.02998 0.34913 0.20029 0.0
C740 C 0.04022 0.37066 0.27166 0.0
C741 C 0.00396 0.40546 0.31413 0.0
H742 H 0.04724 0.4352 0.35401 0.0
C743 C 0.9958 0.47779 0.41878 0.0
C744 C 0.00839 0.48241 0.46027 0.0
C745 C 0.99874 0.46193 0.38621 0.0
C746 C 0.03499 0.42707 0.34358 0.0
H747 H 0.00385 0.35692 0.16205 0.0
H748 H 0.99917 0.38536 0.21608 0.0
H749 H 0.05134 0.40714 0.2991 0.0
H750 H 0.03494 0.47517 0.49683 0.0
H751 H 0.04007 0.4473 0.44063 0.0
H752 H 0.98765 0.42544 0.3587 0.0
C753 C 0.01137 0.37679 0.22393 0.0
C754 C 0.03734 0.41083 0.31209 0.0
C755 C 0.01407 0.36046 0.19276 0.0
C756 C 0.02467 0.47155 0.46633 0.0
C757 C 0.0277 0.45571 0.43351 0.0
C758 C 1.00163 0.42176 0.34547 0.0
C759 C 0.02447 0.3822 0.26373 0.0
C760 C 0.02186 0.39973 0.29684 0.0
C761 C 0.01457 0.45042 0.39363 0.0
C762 C 0.01711 0.43289 0.3605 0.0
H763 H 0.05512 0.34587 0.24857 0.0
H764 H 0.05041 0.37399 0.30262 0.0
H765 H 0.99172 0.39716 0.30429 0.0
H766 H 0.98341 0.48625 0.41229 0.0
H767 H 0.98858 0.45873 0.35507 0.0
C768 C 0.84302 0.98855 0.94791 0.0
C769 C 0.84101 0.97272 0.981 0.0
C770 C 0.85901 0.99085 0.91581 0.0
C771 C 0.89751 0.96394 0.85171 0.0
H772 H 0.92046 0.01279 0.83514 0.0
C773 C 0.96794 1.00055 0.7528 0.0
C774 C 0.96791 0.99235 0.70109 0.0
C775 C 0.95315 0.99742 0.78866 0.0
C776 C 0.91433 0.999 0.83959 0.0
H777 H 0.85484 0.94728 0.00743 0.0
H778 H 0.8825 0.95123 0.95121 0.0
H779 H 0.89359 0.00923 0.89485 0.0
H780 H 0.95276 0.97339 0.64803 0.0
H781 H 0.92689 0.96809 0.71026 0.0
H782 H 0.91827 0.95372 0.79641 0.0
C783 C 0.87156 0.96172 0.94947 0.0
C784 C 0.89877 0.997 0.87344 0.0
C785 C 0.85565 0.95947 0.98178 0.0
C786 C 0.95309 0.98025 0.6871 0.0
C787 C 0.93831 0.97707 0.72304 0.0
C788 C 0.91299 0.96597 0.8175 0.0
C789 C 0.8734 0.97736 0.91569 0.0
C790 C 0.89013 0.97945 0.87999 0.0
C791 C 0.93797 0.98587 0.77398 0.0
C792 C 0.92163 0.98353 0.81101 0.0
H793 H 0.83199 0.99892 0.94544 0.0
H794 H 0.85984 1.00297 0.8899 0.0
H795 H 0.89113 0.95024 0.8553 0.0
H796 H 0.97912 0.00983 0.76524 0.0
H797 H 0.95354 1.00416 0.82789 0.0
C798 C 0.56118 0.84996 0.92594 0.0
C799 C 0.55651 0.85012 0.98102 0.0
C800 C 0.56001 0.86627 0.89532 0.0
C801 C 0.53593 0.91186 0.89127 0.0
H802 H 0.57127 0.92188 0.77659 0.0
C803 C 0.52634 0.97577 0.75289 0.0
C804 C 0.52977 0.97296 0.69762 0.0
C805 C 0.53194 0.96242 0.7907 0.0
C806 C 0.56122 0.9193 0.80825 0.0
H807 H 0.54743 0.86778 0.04742 0.0
H808 H 0.54547 0.89644 0.99385 0.0
H809 H 0.57689 0.8959 0.83763 0.0
H810 H 0.5433 0.95458 0.63953 0.0
H811 H 0.55226 0.93097 0.70469 0.0
H812 H 0.52004 0.93496 0.86139 0.0
C813 C 0.54987 0.88356 0.9743 0.0
C814 C 0.56444 0.90435 0.84331 0.0
C815 C 0.55113 0.86718 0.00511 0.0
C816 C 0.53986 0.95695 0.6815 0.0
C817 C 0.54529 0.9435 0.71921 0.0
C818 C 0.53273 0.92683 0.85627 0.0
C819 C 0.55414 0.88326 0.91885 0.0
C820 C 0.55168 0.90025 0.88479 0.0
C821 C 0.54104 0.94583 0.77427 0.0
C822 C 0.54522 0.93066 0.81385 0.0
H823 H 0.56569 0.83714 0.90625 0.0
H824 H 0.56323 0.86542 0.85272 0.0
H825 H 0.52565 0.90896 0.92216 0.0
H826 H 0.51901 0.98812 0.76709 0.0
H827 H 0.52892 0.96503 0.83284 0.0
C828 C 0.65261 0.53007 0.97142 0.0
C829 C 0.6657 0.54447 0.96254 0.0
C830 C 0.63688 0.528 0.9379 0.0
C831 C 0.61887 0.54125 0.80214 0.0
H832 H 0.57106 0.52609 0.86086 0.0
C833 C 0.55267 0.5394 0.66796 0.0
C834 C 0.54037 0.52434 0.67513 0.0
C835 C 0.56714 0.54273 0.70506 0.0
C836 C 0.58427 0.53029 0.84352 0.0
H837 H 0.67237 0.56785 0.91034 0.0
H838 H 0.64485 0.56464 0.85357 0.0
H839 H 0.59778 0.52999 0.92067 0.0
H840 H 0.53199 0.50227 0.72928 0.0
H841 H 0.5575 0.50757 0.7933 0.0
H842 H 0.60542 0.54157 0.72512 0.0
C843 C 0.6468 0.55475 0.88599 0.0
C844 C 0.5997 0.53243 0.878 0.0
C845 C 0.66251 0.55677 0.91929 0.0
C846 C 0.54182 0.51354 0.72198 0.0
C847 C 0.5563 0.5168 0.75905 0.0
C848 C 0.60341 0.53922 0.76776 0.0
C849 C 0.63379 0.54027 0.8945 0.0
C850 C 0.61725 0.53795 0.85784 0.0
C851 C 0.56945 0.53121 0.75061 0.0
C852 C 0.58583 0.53375 0.78786 0.0
H853 H 0.65447 0.52039 1.00443 0.0
H854 H 0.62731 0.51657 0.94551 0.0
H855 H 0.6322 0.54511 0.78473 0.0
H856 H 0.55131 0.54837 0.63309 0.0
H857 H 0.57657 0.55432 0.69784 0.0
C858 C 0.97007 0.66919 0.91968 0.0
C859 C 0.98282 0.67393 0.96101 0.0
C860 C 0.97237 0.65285 0.88867 0.0
C861 C 0.99672 0.60651 0.88722 0.0
H862 H 0.98338 0.60689 0.73572 0.0
C863 C 0.01462 0.54449 0.74351 0.0
C864 C 1.00199 0.53996 0.70201 0.0
C865 C 0.01199 0.56056 0.77545 0.0
C866 C 0.98701 0.60642 0.77805 0.0
H867 H 0.00817 0.66487 1.00136 0.0
H868 H 0.01245 0.63665 0.94649 0.0
H869 H 0.98009 0.63538 0.7894 0.0
H870 H 0.97592 0.54788 0.66399 0.0
H871 H 0.97109 0.57588 0.72006 0.0
H872 H 1.00377 0.57756 0.87566 0.0
C873 C 1.00042 0.64547 0.93867 0.0
C874 C 0.9851 0.62284 0.80906 0.0
C875 C 0.99809 0.66184 0.96986 0.0
C876 C 0.98618 0.55137 0.69463 0.0
C877 C 0.98344 0.56741 0.72688 0.0
C878 C 0.99872 0.59011 0.85613 0.0
C879 C 0.98757 0.6407 0.89757 0.0
C880 C 0.9899 0.62317 0.86421 0.0
C881 C 0.99641 0.57236 0.7675 0.0
C882 C 0.99392 0.5898 0.801 0.0
H883 H 0.9583 0.67822 0.9107 0.0
H884 H 0.96202 0.64967 0.85802 0.0
H885 H 1.00025 0.606 0.92964 0.0
H886 H 0.02676 0.53574 0.75064 0.0
H887 H 0.0224 0.5639 0.8058 0.0
C888 C 0.10508 0.17981 0.23769 0.0
C889 C 0.09975 0.19654 0.26392 0.0
C890 C 0.10642 0.16306 0.26628 0.0
C891 C 0.09897 0.1419 0.40342 0.0
H892 H 0.06823 0.10768 0.31977 0.0
C893 C 0.03589 0.10388 0.48696 0.0
C894 C 0.02862 0.08813 0.45985 0.0
C895 C 0.0529 0.11172 0.47103 0.0
C896 C 0.07725 0.11662 0.34384 0.0
H897 H 0.09461 0.20915 0.34242 0.0
H898 H 0.09555 0.17991 0.39134 0.0
H899 H 0.08452 0.13249 0.27488 0.0
H900 H 0.03465 0.0669 0.39915 0.0
H901 H 0.06439 0.08035 0.37211 0.0
H902 H 0.0903 0.12656 0.47308 0.0
C903 C 0.0989 0.17961 0.3488 0.0
C904 C 0.08672 0.13101 0.31782 0.0
C905 C 0.098 0.19644 0.32041 0.0
C906 C 0.03971 0.07916 0.42058 0.0
C907 C 0.05677 0.08694 0.40486 0.0
C908 C 0.08938 0.12747 0.42959 0.0
C909 C 0.10199 0.16254 0.32146 0.0
C910 C 0.09686 0.14448 0.34752 0.0
C911 C 0.06305 0.1039 0.42779 0.0
C912 C 0.07758 0.11531 0.40032 0.0
H913 H 0.10672 0.17917 0.19436 0.0
H914 H 0.10949 0.15029 0.24417 0.0
H915 H 0.10707 0.1517 0.42743 0.0
H916 H 0.02793 0.11078 0.51851 0.0
H917 H 0.05722 0.12478 0.48972 0.0
C918 C 0.3552 0.11769 0.16562 0.0
C919 C 0.33973 0.11953 0.20042 0.0
C920 C 0.37329 0.11591 0.18644 0.0
C921 C 0.40085 0.1123 0.31498 0.0
H922 H 0.41505 0.06454 0.25192 0.0
C923 C 0.42448 0.05008 0.44004 0.0
C924 C 0.43517 0.03564 0.41665 0.0
C925 C 0.41994 0.06604 0.41051 0.0
C926 C 0.41185 0.07808 0.2696 0.0
H927 H 0.3316 0.1241 0.28367 0.0
H928 H 0.36294 0.12011 0.32009 0.0
H929 H 0.39429 0.08489 0.20332 0.0
H930 H 0.45061 0.02723 0.34524 0.0
H931 H 0.44278 0.05505 0.29384 0.0
H932 H 0.41782 0.10476 0.38282 0.0
C933 C 0.3612 0.12007 0.27672 0.0
C934 C 0.39985 0.08988 0.24143 0.0
C935 C 0.34312 0.12209 0.25586 0.0
C936 C 0.44227 0.03806 0.36438 0.0
C937 C 0.4377 0.054 0.33479 0.0
C938 C 0.41302 0.10048 0.34316 0.0
C939 C 0.37627 0.11565 0.24245 0.0
C940 C 0.39332 0.10663 0.26504 0.0
C941 C 0.42598 0.06793 0.35684 0.0
C942 C 0.41774 0.08273 0.32208 0.0
H943 H 0.35328 0.11577 0.12264 0.0
H944 H 0.38469 0.113 0.15886 0.0
H945 H 0.39641 0.12531 0.33375 0.0
H946 H 0.41916 0.04879 0.48072 0.0
H947 H 0.41076 0.07634 0.42884 0.0
C948 C 0.4084 0.32873 0.28541 0.0
C949 C 0.40277 0.33233 0.23224 0.0
C950 C 0.41186 0.34358 0.32113 0.0
C951 C 0.43022 0.39048 0.30544 0.0
H952 H 0.43412 0.38856 0.46113 0.0
C953 C 0.48732 0.43254 0.40888 0.0
C954 C 0.49806 0.42202 0.44525 0.0
C955 C 0.46936 0.42669 0.39414 0.0
C956 C 0.4331 0.38937 0.41765 0.0
H957 H 0.39375 0.35386 0.17692 0.0
H958 H 0.39925 0.37979 0.23973 0.0
H959 H 0.41181 0.36819 0.41422 0.0
H960 H 0.49782 0.39794 0.498 0.0
H961 H 0.46709 0.38698 0.46972 0.0
H962 H 0.45228 0.41047 0.30777 0.0
C963 C 0.40157 0.3656 0.25345 0.0
C964 C 0.42026 0.37774 0.39083 0.0
C965 C 0.39832 0.35077 0.21758 0.0
C966 C 0.49001 0.40613 0.46902 0.0
C967 C 0.4722 0.40005 0.45347 0.0
C968 C 0.44306 0.40197 0.33208 0.0
C969 C 0.40962 0.36224 0.30428 0.0
C970 C 0.41925 0.37761 0.3342 0.0
C971 C 0.46194 0.40985 0.41422 0.0
C972 C 0.44527 0.40099 0.38833 0.0
H973 H 0.41202 0.31464 0.29765 0.0
H974 H 0.41807 0.34042 0.35986 0.0
H975 H 0.4301 0.39063 0.26179 0.0
H976 H 0.49322 0.44468 0.38926 0.0
H977 H 0.46172 0.43483 0.36472 0.0
C978 C 0.18373 0.42545 0.22844 0.0
C979 C 0.19866 0.43443 0.25524 0.0
C980 C 0.16631 0.42365 0.25328 0.0
C981 C 0.1392 0.43553 0.37908 0.0
H982 H 0.10386 0.45412 0.27357 0.0
C983 C 0.08206 0.48992 0.42324 0.0
C984 C 0.06669 0.49109 0.38809 0.0
C985 C 0.09515 0.47547 0.41724 0.0
C986 C 0.11321 0.44846 0.30376 0.0
H987 H 0.20754 0.44586 0.33255 0.0
H988 H 0.17689 0.44413 0.37409 0.0
H989 H 0.13319 0.44137 0.24372 0.0
H990 H 0.05141 0.47681 0.32451 0.0
H991 H 0.07411 0.45152 0.31425 0.0
H992 H 0.11931 0.444 0.43934 0.0
C993 C 0.17862 0.43827 0.33403 0.0
C994 C 0.1302 0.44104 0.28648 0.0
C995 C 0.1962 0.43961 0.30967 0.0
C996 C 0.06344 0.47646 0.35117 0.0
C997 C 0.07643 0.46198 0.34539 0.0
C998 C 0.1221 0.44307 0.39649 0.0
C999 C 0.16318 0.43128 0.30492 0.0
C1000 C 0.14374 0.43509 0.32386 0.0
C1001 C 0.09298 0.46192 0.37618 0.0
C1002 C 0.10919 0.45023 0.35899 0.0
H1003 H 0.18488 0.4211 0.1867 0.0
H1004 H 0.1549 0.41754 0.23032 0.0
H1005 H 0.14915 0.43078 0.40899 0.0
H1006 H 0.08484 0.50101 0.45219 0.0
H1007 H 0.10773 0.47593 0.4416 0.0
C1008 C 0.92266 0.82287 0.84693 0.0
C1009 C 0.91686 0.82506 0.90054 0.0
C1010 C 0.92149 0.83792 0.81133 0.0
C1011 C 0.92597 0.88839 0.82778 0.0
H1012 H 0.93311 0.88567 0.67313 0.0
C1013 C 0.97608 0.93926 0.73374 0.0
C1014 C 0.99009 0.92973 0.70466 0.0
C1015 C 0.95868 0.93086 0.74247 0.0
C1016 C 0.93102 0.88676 0.71627 0.0
H1017 H 0.90306 0.84351 0.95747 0.0
H1018 H 0.90009 0.86955 0.89466 0.0
H1019 H 0.9156 0.86101 0.71864 0.0
H1020 H 0.99591 0.90513 0.65572 0.0
H1021 H 0.96609 0.89009 0.67303 0.0
H1022 H 0.94235 0.91324 0.82659 0.0
C1023 C 0.90617 0.85654 0.88034 0.0
C1024 C 0.92097 0.87263 0.74236 0.0
C1025 C 0.90768 0.8416 0.9162 0.0
C1026 C 0.98561 0.91257 0.67973 0.0
C1027 C 0.96831 0.90408 0.68893 0.0
C1028 C 0.93595 0.90245 0.80182 0.0
C1029 C 0.91434 0.85535 0.8288 0.0
C1030 C 0.91931 0.8727 0.79889 0.0
C1031 C 0.95502 0.91266 0.72294 0.0
C1032 C 0.9396 0.90123 0.74623 0.0
H1033 H 0.92991 0.81025 0.83421 0.0
H1034 H 0.92799 0.83639 0.77214 0.0
H1035 H 0.92518 0.88901 0.87134 0.0
H1036 H 0.97897 0.95258 0.75324 0.0
H1037 H 0.94862 0.93808 0.76777 0.0
C1038 C 0.68865 0.91627 0.87771 0.0
C1039 C 0.68615 0.9097 0.93025 0.0
C1040 C 0.67361 0.91659 0.84176 0.0
C1041 C 0.62236 0.92101 0.85372 0.0
H1042 H 0.62867 0.93396 0.7036 0.0
C1043 C 0.58523 0.98361 0.76473 0.0
C1044 C 0.58432 0.98613 0.70887 0.0
C1045 C 0.59276 0.9672 0.78592 0.0
C1046 C 0.62624 0.93005 0.74506 0.0
H1047 H 0.66692 0.89611 0.9847 0.0
H1048 H 0.6409 0.89539 0.9208 0.0
H1049 H 0.65196 0.9148 0.74747 0.0
H1050 H 0.58846 0.97285 0.6311 0.0
H1051 H 0.60083 0.94368 0.66793 0.0
H1052 H 0.59651 0.93592 0.85122 0.0
C1053 C 0.65413 0.9012 0.90783 0.0
C1054 C 0.6399 0.91924 0.77064 0.0
C1055 C 0.66908 0.90134 0.94428 0.0
C1056 C 0.5895 0.97133 0.67444 0.0
C1057 C 0.59666 0.95468 0.69565 0.0
C1058 C 0.60849 0.9314 0.82782 0.0
C1059 C 0.65581 0.91004 0.85745 0.0
C1060 C 0.63882 0.91574 0.82631 0.0
C1061 C 0.59924 0.95273 0.75168 0.0
C1062 C 0.61086 0.9372 0.77418 0.0
H1063 H 0.70167 0.92295 0.86626 0.0
H1064 H 0.67566 0.92364 0.80377 0.0
H1065 H 0.62071 0.91858 0.89644 0.0
H1066 H 0.58126 0.99484 0.79205 0.0
H1067 H 0.5946 0.96656 0.82916 0.0
C1068 C 0.5638 0.67967 0.91017 0.0
C1069 C 0.58133 0.68205 0.93528 0.0
C1070 C 0.55762 0.66194 0.89466 0.0
C1071 C 0.57034 0.61244 0.87222 0.0
H1072 H 0.51901 0.60476 0.91832 0.0
C1073 C 0.53076 0.54085 0.85913 0.0
C1074 C 0.51293 0.5421 0.83536 0.0
C1075 C 0.54071 0.55713 0.87275 0.0
C1076 C 0.53332 0.6067 0.90505 0.0
H1077 H 0.60681 0.6676 0.95885 0.0
H1078 H 0.59562 0.63639 0.93307 0.0
H1079 H 0.53406 0.63475 0.93512 0.0
H1080 H 0.49124 0.5613 0.80914 0.0
H1081 H 0.50852 0.58953 0.83267 0.0
H1082 H 0.56936 0.58415 0.84198 0.0
C1083 C 0.58675 0.64841 0.92552 0.0
C1084 C 0.54193 0.6239 0.91442 0.0
C1085 C 0.59307 0.66628 0.94071 0.0
C1086 C 0.50506 0.55987 0.8267 0.0
C1087 C 0.51489 0.57604 0.84056 0.0
C1088 C 0.56167 0.59509 0.86287 0.0
C1089 C 0.56864 0.64604 0.90443 0.0
C1090 C 0.56035 0.62715 0.89695 0.0
C1091 C 0.53282 0.57486 0.86356 0.0
C1092 C 0.54292 0.59227 0.87816 0.0
H1093 H 0.55416 0.69126 0.90563 0.0
H1094 H 0.54376 0.6606 0.87723 0.0
H1095 H 0.58458 0.61455 0.85858 0.0
H1096 H 0.53712 0.52732 0.86626 0.0
H1097 H 0.55443 0.5559 0.89101 0.0
C1098 C 0.83916 0.59207 0.88641 0.0
C1099 C 0.8199 0.591 0.87566 0.0
C1100 C 0.85204 0.59242 0.84434 0.0
C1101 C 0.85374 0.57277 0.70782 0.0
H1102 H 0.90644 0.57948 0.73919 0.0
C1103 C 0.90266 0.51257 0.70342 0.0
C1104 C 0.92214 0.51485 0.70508 0.0
C1105 C 0.89097 0.52791 0.6954 0.0
C1106 C 0.89187 0.57778 0.72811 0.0
H1107 H 0.79887 0.59213 0.81277 0.0
H1108 H 0.82139 0.59342 0.73884 0.0
H1109 H 0.88369 0.60009 0.78091 0.0
H1110 H 0.94481 0.53459 0.6935 0.0
H1111 H 0.92434 0.56155 0.67849 0.0
H1112 H 0.86194 0.5505 0.6549 0.0
C1113 C 0.82662 0.59327 0.77981 0.0
C1114 C 0.87871 0.58948 0.75294 0.0
C1115 C 0.81368 0.59273 0.82219 0.0
C1116 C 0.9298 0.53249 0.69315 0.0
C1117 C 0.91805 0.54794 0.68483 0.0
C1118 C 0.86693 0.56146 0.68172 0.0
C1119 C 0.84599 0.59187 0.79025 0.0
C1120 C 0.85943 0.58585 0.74735 0.0
C1121 C 0.89846 0.546 0.68851 0.0
C1122 C 0.88598 0.56259 0.69583 0.0
H1123 H 0.84433 0.59117 0.92741 0.0
H1124 H 0.86671 0.59131 0.85479 0.0
H1125 H 0.83909 0.56968 0.70108 0.0
H1126 H 0.89638 0.49902 0.71104 0.0
H1127 H 0.87604 0.52567 0.699 0.0
C1128 C 0.03507 0.19027 0.83256 0.0
C1129 C 0.02452 0.19452 0.87908 0.0
C1130 C 0.03184 0.17378 0.80281 0.0
C1131 C 0.0095 0.12646 0.8151 0.0
H1132 H 0.01738 0.12426 0.66055 0.0
C1133 C 0.98668 0.06271 0.68519 0.0
C1134 C 0.99964 0.05571 0.64762 0.0
C1135 C 0.98997 0.0797 0.71225 0.0
C1136 C 0.01528 0.12461 0.70378 0.0
H1137 H 1.00179 0.18456 0.92927 0.0
H1138 H 0.9956 0.15644 0.8763 0.0
H1139 H 0.02179 0.15387 0.7089 0.0
H1140 H 0.0255 0.06167 0.60562 0.0
H1141 H 0.03124 0.09155 0.65262 0.0
H1142 H 1.00263 0.09725 0.80953 0.0
C1143 C 0.00681 0.1656 0.86355 0.0
C1144 C 0.01785 0.14162 0.73171 0.0
C1145 C 0.01015 0.18202 0.89359 0.0
C1146 C 0.01556 0.06648 0.63563 0.0
C1147 C 0.01871 0.08368 0.6621 0.0
C1148 C 0.00674 0.10954 0.78709 0.0
C1149 C 0.01782 0.16101 0.81817 0.0
C1150 C 0.01496 0.14286 0.78789 0.0
C1151 C 0.00606 0.09039 0.70131 0.0
C1152 C 0.00953 0.10838 0.73105 0.0
H1153 H 0.04606 0.1996 0.81926 0.0
H1154 H 0.04076 0.17084 0.76852 0.0
H1155 H 0.00757 0.12657 0.85837 0.0
H1156 H 0.97409 0.05487 0.69424 0.0
H1157 H 0.97978 0.08457 0.74145 0.0
C1158 C 0.33374 0.01445 0.87976 0.0
C1159 C 0.32545 0.03237 0.8802 0.0
C1160 C 0.34998 0.01086 0.84964 0.0
C1161 C 0.38988 0.03549 0.783 0.0
H1162 H 0.3987 0.98662 0.71867 0.0
C1163 C 0.45277 0.01981 0.64066 0.0
C1164 C 0.46258 1.0031 0.65039 0.0
C1165 C 0.43586 0.02357 0.66735 0.0
C1166 C 0.39651 1.00031 0.73673 0.0
H1167 H 0.32799 0.06049 0.84802 0.0
H1168 H 0.35554 0.054 0.79389 0.0
H1169 H 0.36942 0.99268 0.76608 0.0
H1170 H 0.46196 0.97679 0.69315 0.0
H1171 H 0.4325 0.98331 0.7399 0.0
H1172 H 0.41692 0.04314 0.75265 0.0
C1173 C 0.34978 0.04278 0.81789 0.0
C1174 C 0.37971 1.0038 0.76415 0.0
C1175 C 0.33366 0.04642 0.84836 0.0
C1176 C 0.45483 0.98993 0.68572 0.0
C1177 C 0.43791 0.99362 0.71216 0.0
C1178 C 0.4066 0.03205 0.75507 0.0
C1179 C 0.35837 0.02502 0.8186 0.0
C1180 C 0.37615 0.02141 0.78804 0.0
C1181 C 0.42822 0.01051 0.70348 0.0
C1182 C 0.41019 0.01438 0.73191 0.0
H1183 H 0.3278 1.00316 0.9031 0.0
H1184 H 0.35618 0.99704 0.85185 0.0
H1185 H 0.38792 0.04913 0.80156 0.0
H1186 H 0.45806 0.02991 0.61213 0.0
H1187 H 0.42863 0.03659 0.65909 0.0
C1188 C 0.48156 0.31182 0.80039 0.0
C1189 C 0.48255 0.31182 0.85693 0.0
C1190 C 0.48725 0.32758 0.77116 0.0
C1191 C 0.51193 0.37405 0.78733 0.0
H1192 H 0.48463 0.38628 0.65699 0.0
C1193 C 0.50538 0.44838 0.69547 0.0
C1194 C 0.51142 0.45006 0.64183 0.0
C1195 C 0.50385 0.43075 0.71934 0.0
C1196 C 0.49246 0.38292 0.69311 0.0
H1197 H 0.49002 0.32835 0.92723 0.0
H1198 H 0.4991 0.35595 0.87717 0.0
H1199 H 0.47815 0.35688 0.70301 0.0
H1200 H 0.52062 0.4346 0.57126 0.0
H1201 H 0.51711 0.40362 0.61236 0.0
H1202 H 0.5253 0.40081 0.7787 0.0
C1203 C 0.49476 0.34366 0.85461 0.0
C1204 C 0.48888 0.36598 0.71945 0.0
C1205 C 0.48945 0.32781 0.88359 0.0
C1206 C 0.51595 0.43373 0.61259 0.0
C1207 C 0.51391 0.41603 0.636 0.0
C1208 C 0.51515 0.39115 0.76167 0.0
C1209 C 0.49365 0.3439 0.79788 0.0
C1210 C 0.49841 0.36135 0.7674 0.0
C1211 C 0.50787 0.41442 0.68963 0.0
C1212 C 0.50535 0.39579 0.71461 0.0
H1213 H 0.4763 0.29966 0.77883 0.0
H1214 H 0.4865 0.32695 0.72761 0.0
H1215 H 0.52001 0.37092 0.82309 0.0
H1216 H 0.5019 0.46073 0.71909 0.0
H1217 H 0.49911 0.42983 0.76072 0.0
C1218 C 0.19325 0.48075 0.83243 0.0
C1219 C 0.201 0.49682 0.85707 0.0
C1220 C 0.17744 0.48205 0.79912 0.0
C1221 C 0.14753 0.51618 0.72352 0.0
H1222 H 0.11025 0.47694 0.73535 0.0
C1223 C 0.07108 0.52378 0.64543 0.0
C1224 C 0.06239 0.50795 0.62236 0.0
C1225 C 0.08895 0.52247 0.66857 0.0
C1226 C 0.12061 0.48791 0.73093 0.0
H1227 H 0.19833 0.52704 0.86367 0.0
H1228 H 0.17053 0.52924 0.80727 0.0
H1229 H 0.13935 0.47458 0.78597 0.0
H1230 H 0.06644 0.47858 0.60229 0.0
H1231 H 0.09743 0.47626 0.64313 0.0
H1232 H 0.12843 0.5297 0.66942 0.0
C1233 C 0.1768 0.51559 0.81309 0.0
C1234 C 0.13739 0.48654 0.75998 0.0
C1235 C 0.19269 0.5143 0.84616 0.0
C1236 C 0.07247 0.49099 0.62073 0.0
C1237 C 0.09027 0.48964 0.64424 0.0
C1238 C 0.13067 0.5176 0.69473 0.0
C1239 C 0.16876 0.49946 0.7896 0.0
C1240 C 0.15111 0.50069 0.75694 0.0
C1241 C 0.09862 0.50528 0.66935 0.0
C1242 C 0.11694 0.50351 0.69819 0.0
H1243 H 0.19902 0.46699 0.84014 0.0
H1244 H 0.17193 0.46933 0.78115 0.0
H1245 H 0.15781 0.52721 0.71927 0.0
H1246 H 0.06385 0.53706 0.64755 0.0
H1247 H 0.09488 0.5348 0.68776 0.0
C1248 C 0.97984 0.83301 0.32476 0.0
C1249 C 0.99489 0.82565 0.29457 0.0
C1250 C 0.98215 0.84896 0.35763 0.0
C1251 C 0.01897 0.8798 0.42059 0.0
H1252 H 0.97832 0.9157 0.43052 0.0
C1253 C 0.03007 0.95557 0.49843 0.0
C1254 C 0.01644 0.96355 0.5323 0.0
C1255 C 0.02697 0.93825 0.47308 0.0
C1256 C 0.98975 0.90575 0.42861 0.0
H1257 H 0.02444 0.82934 0.27739 0.0
H1258 H 0.02827 0.85732 0.33255 0.0
H1259 H 0.97397 0.88669 0.37935 0.0
H1260 H 0.9894 0.959 0.56929 0.0
H1261 H 0.98376 0.92875 0.52419 0.0
H1262 H 0.03489 0.89919 0.46855 0.0
C1263 C 0.01467 0.85063 0.33172 0.0
C1264 C 0.98726 0.889 0.39934 0.0
C1265 C 0.0124 0.83461 0.29923 0.0
C1266 C 0.99987 0.95349 0.54189 0.0
C1267 C 0.9967 0.93613 0.51625 0.0
C1268 C 0.02151 0.89662 0.44926 0.0
C1269 C 0.99955 0.8582 0.3612 0.0
C1270 C 1.00189 0.87579 0.39443 0.0
C1271 C 0.01022 0.9283 0.48136 0.0
C1272 C 0.00702 0.90992 0.45329 0.0
H1273 H 0.96605 0.82679 0.32198 0.0
H1274 H 0.97019 0.85405 0.38016 0.0
H1275 H 0.03046 0.86992 0.41917 0.0
H1276 H 0.04311 0.96287 0.49107 0.0
H1277 H 0.03763 0.93277 0.44628 0.0
C1278 C 0.68406 0.97532 0.34285 0.0
C1279 C 0.69306 0.98993 0.31505 0.0
C1280 C 0.66783 0.9787 0.3731 0.0
C1281 C 0.63834 0.0173 0.43208 0.0
H1282 H 0.59982 0.97899 0.43093 0.0
C1283 C 0.56152 0.03186 0.49403 0.0
C1284 C 0.55263 0.01862 0.52682 0.0
C1285 C 0.57916 0.02814 0.47186 0.0
C1286 C 0.61051 0.98976 0.43205 0.0
H1287 H 0.69207 0.01982 0.29964 0.0
H1288 H 0.66348 0.02552 0.35002 0.0
H1289 H 0.6295 0.9731 0.38549 0.0
H1290 H 0.55586 0.99165 0.56537 0.0
H1291 H 0.58645 0.98486 0.52524 0.0
H1292 H 0.61891 0.03416 0.47711 0.0
C1293 C 0.66913 0.01144 0.34938 0.0
C1294 C 0.62763 0.98637 0.40617 0.0
C1295 C 0.6855 0.00811 0.31963 0.0
C1296 C 0.56202 1.00181 0.53852 0.0
C1297 C 0.5796 0.99798 0.51584 0.0
C1298 C 0.62112 0.02077 0.45728 0.0
C1299 C 0.65989 0.99675 0.37611 0.0
C1300 C 0.64182 1.00013 0.40551 0.0
C1301 C 0.58836 0.01111 0.48215 0.0
C1302 C 0.60695 0.00709 0.45731 0.0
H1303 H 0.68916 0.96106 0.33998 0.0
H1304 H 0.66143 0.96703 0.39381 0.0
H1305 H 0.64894 0.02812 0.43369 0.0
H1306 H 0.55475 0.04508 0.48524 0.0
H1307 H 0.58549 0.03852 0.44595 0.0
C1308 C 0.55484 0.68725 0.31079 0.0
C1309 C 0.54352 0.70322 0.31774 0.0
C1310 C 0.55027 0.67035 0.33555 0.0
C1311 C 0.52563 0.64881 0.44777 0.0
H1312 H 0.52582 0.60466 0.35573 0.0
C1313 C 0.50784 0.5741 0.52795 0.0
C1314 C 0.51831 0.5591 0.50652 0.0
C1315 C 0.5093 0.59216 0.5061 0.0
C1316 C 0.52593 0.61675 0.38234 0.0
H1317 H 0.51864 0.71399 0.35708 0.0
H1318 H 0.51082 0.68429 0.40172 0.0
H1319 H 0.53165 0.63531 0.31693 0.0
H1320 H 0.53803 0.55145 0.44414 0.0
H1321 H 0.54145 0.58263 0.40818 0.0
H1322 H 0.52059 0.63016 0.51362 0.0
C1323 C 0.52321 0.685 0.37668 0.0
C1324 C 0.52917 0.63436 0.35991 0.0
C1325 C 0.52764 0.70194 0.35105 0.0
C1326 C 0.53019 0.56263 0.46277 0.0
C1327 C 0.53181 0.58059 0.44126 0.0
C1328 C 0.52262 0.63109 0.47049 0.0
C1329 C 0.53434 0.66895 0.36843 0.0
C1330 C 0.52935 0.65056 0.3924 0.0
C1331 C 0.52131 0.59564 0.46226 0.0
C1332 C 0.52306 0.61475 0.43816 0.0
H1333 H 0.567 0.68763 0.28475 0.0
H1334 H 0.55919 0.65828 0.32875 0.0
H1335 H 0.52575 0.66106 0.4738 0.0
H1336 H 0.4987 0.572 0.56201 0.0
H1337 H 0.50087 0.60331 0.52324 0.0
C1338 C 0.82128 0.50992 0.30993 0.0
C1339 C 0.81217 0.52728 0.30361 0.0
C1340 C 0.83635 0.508 0.34573 0.0
C1341 C 0.873 0.53655 0.41366 0.0
H1342 H 0.88308 0.49055 0.49076 0.0
C1343 C 0.9381 0.52956 0.55032 0.0
C1344 C 0.94854 0.51294 0.54454 0.0
C1345 C 0.92011 0.53103 0.52824 0.0
C1346 C 0.88054 0.50346 0.46927 0.0
H1347 H 0.81162 0.55612 0.33193 0.0
H1348 H 0.83747 0.55265 0.39526 0.0
H1349 H 0.85409 0.49369 0.43927 0.0
H1350 H 0.94776 0.48448 0.51358 0.0
H1351 H 0.91645 0.48704 0.47477 0.0
H1352 H 0.89951 0.54623 0.44297 0.0
C1353 C 0.83318 0.54055 0.37173 0.0
C1354 C 0.86389 0.50527 0.43963 0.0
C1355 C 0.81811 0.54248 0.33586 0.0
C1356 C 0.94013 0.49749 0.51874 0.0
C1357 C 0.92212 0.49896 0.49655 0.0
C1358 C 0.8896 0.53475 0.44334 0.0
C1359 C 0.84278 0.52339 0.37642 0.0
C1360 C 0.85995 0.52178 0.41092 0.0
C1361 C 0.91203 0.51591 0.49984 0.0
C1362 C 0.89371 0.51812 0.47117 0.0
H1363 H 0.81699 0.49782 0.28637 0.0
H1364 H 0.8434 0.49459 0.3478 0.0
H1365 H 0.87072 0.54935 0.3914 0.0
H1366 H 0.944 0.54161 0.57102 0.0
H1367 H 0.91262 0.54415 0.53279 0.0
loop_
_geom_bond_atom_site_label_1
_geom_bond_atom_site_label_2
_geom_bond_distance
_geom_bond_site_symmetry_2
_ccdc_geom_bond_type
C0 C1 1.386 . S
C0 C2 1.397 1_556 S
C0 H24 0.931 . S
C1 C0 1.386 . S
C1 C5 1.397 1_556 S
C2 C0 1.397 1_554 S
C2 C3 1.384 . S
C2 H25 0.930 . S
C3 C2 1.384 . S
C3 C4 1.377 . S
C3 C6 1.481 . S
C4 C3 1.377 . S
C4 C5 1.389 . S
C4 H26 0.929 . S
C5 C1 1.397 1_554 S
C5 C4 1.389 . S
C5 H27 0.931 . S
C6 C3 1.481 . S
C6 C7 1.387 . S
C6 C11 1.390 . S
C7 C6 1.387 . S
C7 C8 1.401 . S
C7 H28 0.930 . S
C8 C7 1.401 . S
C8 C9 1.376 . S
C8 C17 1.511 . S
C9 C8 1.376 . S
C9 C10 1.392 . S
C9 H30 0.931 . S
C10 C9 1.392 . S
C10 C11 1.361 . S
C10 C12 1.500 . S
C11 C6 1.390 . S
C11 C10 1.361 . S
C11 H29 0.931 . S
C12 C10 1.500 . S
C12 C13 1.371 . S
C12 C14 1.365 . S
C13 C12 1.371 . S
C13 C23 1.386 . S
C13 H31 0.931 . S
C14 C12 1.365 . S
C14 C15 1.409 . S
C14 H32 0.929 . S
C15 C14 1.409 . S
C15 C16 1.380 . S
C15 H33 0.930 . S
C16 C15 1.380 . S
C16 C23 1.357 . S
C17 C8 1.511 . S
C17 C18 1.341 . S
C17 C19 1.371 . S
C18 C17 1.341 . S
C18 C22 1.394 . S
C18 H34 0.930 . S
C19 C17 1.371 . S
C19 C20 1.392 . S
C19 H35 0.931 . S
C20 C19 1.392 . S
C20 C21 1.331 . S
C20 H38 0.932 . S
C21 C20 1.331 . S
C21 C22 1.336 . S
C22 C18 1.394 . S
C22 C21 1.336 . S
C22 H37 0.929 . S
C23 C13 1.386 . S
C23 C16 1.357 . S
C23 H36 0.928 . S
H24 C0 0.931 . S
H25 C2 0.930 . S
H26 C4 0.929 . S
H27 C5 0.931 . S
H28 C7 0.930 . S
H29 C11 0.931 . S
H30 C9 0.931 . S
H31 C13 0.931 . S
H32 C14 0.929 . S
H33 C15 0.930 . S
H34 C18 0.930 . S
H35 C19 0.931 . S
H36 C23 0.928 . S
H37 C22 0.929 . S
H38 C20 0.932 . S
C39 C40 1.386 . S
C39 C41 1.397 1_556 S
C39 H63 0.931 . S
C40 C39 1.386 . S
C40 C44 1.397 1_556 S
C41 C39 1.397 1_554 S
C41 C42 1.384 . S
C41 H64 0.930 . S
C42 C41 1.384 . S
C42 C43 1.377 . S
C42 C45 1.481 . S
C43 C42 1.377 . S
C43 C44 1.389 . S
C43 H65 0.929 . S
C44 C40 1.397 1_554 S
C44 C43 1.389 . S
C44 H66 0.931 . S
C45 C42 1.481 . S
C45 C46 1.387 . S
C45 C50 1.390 . S
C46 C45 1.387 . S
C46 C47 1.401 . S
C46 H67 0.930 . S
C47 C46 1.401 . S
C47 C48 1.376 . S
C47 C56 1.511 . S
C48 C47 1.376 . S
C48 C49 1.392 . S
C48 H69 0.931 . S
C49 C48 1.392 . S
C49 C50 1.361 . S
C49 C51 1.500 . S
C50 C45 1.390 . S
C50 C49 1.361 . S
C50 H68 0.931 . S
C51 C49 1.500 . S
C51 C52 1.371 . S
C51 C53 1.365 . S
C52 C51 1.371 . S
C52 C62 1.386 . S
C52 H70 0.931 . S
C53 C51 1.365 . S
C53 C54 1.409 . S
C53 H71 0.929 . S
C54 C53 1.409 . S
C54 C55 1.380 . S
C54 H72 0.930 . S
C55 C54 1.380 . S
C55 C62 1.357 . S
C56 C47 1.511 . S
C56 C57 1.341 . S
C56 C58 1.371 . S
C57 C56 1.341 . S
C57 C61 1.394 . S
C57 H73 0.930 . S
C58 C56 1.371 . S
C58 C59 1.392 . S
C58 H74 0.931 . S
C59 C58 1.392 . S
C59 C60 1.331 . S
C59 H77 0.932 . S
C60 C59 1.331 . S
C60 C61 1.336 . S
C61 C57 1.394 . S
C61 C60 1.336 . S
C61 H76 0.929 . S
C62 C52 1.386 . S
C62 C55 1.357 . S
C62 H75 0.928 . S
H63 C39 0.931 . S
H64 C41 0.930 . S
H65 C43 0.929 . S
H66 C44 0.931 . S
H67 C46 0.930 . S
H68 C50 0.931 . S
H69 C48 0.931 . S
H70 C52 0.931 . S
H71 C53 0.929 . S
H72 C54 0.930 . S
H73 C57 0.930 . S
H74 C58 0.931 . S
H75 C62 0.928 . S
H76 C61 0.929 . S
H77 C59 0.932 . S
C78 C79 1.386 . S
C78 C80 1.397 1_556 S
C78 H102 0.931 . S
C79 C78 1.386 . S
C79 C83 1.397 1_556 S
C80 C78 1.397 1_554 S
C80 C81 1.384 . S
C80 H103 0.930 . S
C81 C80 1.384 . S
C81 C82 1.377 . S
C81 C84 1.481 . S
C82 C81 1.377 . S
C82 C83 1.389 . S
C82 H104 0.929 . S
C83 C79 1.397 1_554 S
C83 C82 1.389 . S
C83 H105 0.931 . S
C84 C81 1.481 . S
C84 C85 1.387 . S
C84 C89 1.390 . S
C85 C84 1.387 . S
C85 C86 1.401 . S
C85 H106 0.930 . S
C86 C85 1.401 . S
C86 C87 1.376 . S
C86 C95 1.511 . S
C87 C86 1.376 . S
C87 C88 1.392 . S
C87 H108 0.931 . S
C88 C87 1.392 . S
C88 C89 1.361 . S
C88 C90 1.500 . S
C89 C84 1.390 . S
C89 C88 1.361 . S
C89 H107 0.931 . S
C90 C88 1.500 . S
C90 C91 1.371 . S
C90 C92 1.365 . S
C91 C90 1.371 . S
C91 C101 1.386 . S
C91 H109 0.931 . S
C92 C90 1.365 . S
C92 C93 1.409 . S
C92 H110 0.929 . S
C93 C92 1.409 . S
C93 C94 1.380 . S
C93 H111 0.930 . S
C94 C93 1.380 . S
C94 C101 1.357 . S
C95 C86 1.511 . S
C95 C96 1.341 . S
C95 C97 1.371 . S
C96 C95 1.341 . S
C96 C100 1.394 . S
C96 H112 0.930 . S
C97 C95 1.371 . S
C97 C98 1.392 . S
C97 H113 0.931 . S
C98 C97 1.392 . S
C98 C99 1.331 . S
C98 H116 0.932 . S
C99 C98 1.331 . S
C99 C100 1.336 . S
C100 C96 1.394 . S
C100 C99 1.336 . S
C100 H115 0.929 . S
C101 C91 1.386 . S
C101 C94 1.357 . S
C101 H114 0.928 . S
H102 C78 0.931 . S
H103 C80 0.930 . S
H104 C82 0.929 . S
H105 C83 0.931 . S
H106 C85 0.930 . S
H107 C89 0.931 . S
H108 C87 0.931 . S
H109 C91 0.931 . S
H110 C92 0.929 . S
H111 C93 0.930 . S
H112 C96 0.930 . S
H113 C97 0.931 . S
H114 C101 0.928 . S
H115 C100 0.929 . S
H116 C98 0.932 . S
C117 C118 1.386 . S
C117 C119 1.397 . S
C117 H141 0.931 . S
C118 C117 1.386 . S
C118 C122 1.397 . S
C119 C117 1.397 . S
C119 C120 1.384 . S
C119 H142 0.930 . S
C120 C119 1.384 . S
C120 C121 1.377 . S
C120 C123 1.481 . S
C121 C120 1.377 . S
C121 C122 1.389 . S
C121 H143 0.929 . S
C122 C118 1.397 . S
C122 C121 1.389 . S
C122 H144 0.931 . S
C123 C120 1.481 . S
C123 C124 1.387 . S
C123 C128 1.390 . S
C124 C123 1.387 . S
C124 C125 1.401 . S
C124 H145 0.930 . S
C125 C124 1.401 . S
C125 C126 1.376 . S
C125 C134 1.511 . S
C126 C125 1.376 . S
C126 C127 1.392 . S
C126 H147 0.931 . S
C127 C126 1.392 . S
C127 C128 1.361 . S
C127 C129 1.500 . S
C128 C123 1.390 . S
C128 C127 1.361 . S
C128 H146 0.931 . S
C129 C127 1.500 . S
C129 C130 1.371 . S
C129 C131 1.365 . S
C130 C129 1.371 . S
C130 C140 1.386 1_554 S
C130 H148 0.931 . S
C131 C129 1.365 . S
C131 C132 1.409 . S
C131 H149 0.929 . S
C132 C131 1.409 . S
C132 C133 1.380 1_554 S
C132 H150 0.930 . S
C133 C132 1.380 1_556 S
C133 C140 1.357 . S
C134 C125 1.511 . S
C134 C135 1.341 . S
C134 C136 1.371 . S
C135 C134 1.341 . S
C135 C139 1.394 . S
C135 H151 0.930 . S
C136 C134 1.371 . S
C136 C137 1.392 . S
C136 H152 0.931 . S
C137 C136 1.392 . S
C137 C138 1.331 . S
C137 H155 0.932 . S
C138 C137 1.331 . S
C138 C139 1.336 . S
C139 C135 1.394 . S
C139 C138 1.336 . S
C139 H154 0.929 . S
C140 C130 1.386 1_556 S
C140 C133 1.357 . S
C140 H153 0.928 . S
H141 C117 0.931 . S
H142 C119 0.930 . S
H143 C121 0.929 . S
H144 C122 0.931 . S
H145 C124 0.930 . S
H146 C128 0.931 . S
H147 C126 0.931 . S
H148 C130 0.931 . S
H149 C131 0.929 . S
H150 C132 0.930 . S
H151 C135 0.930 . S
H152 C136 0.931 . S
H153 C140 0.928 . S
H154 C139 0.929 . S
H155 C137 0.932 . S
C156 C157 1.386 . S
C156 C158 1.397 . S
C156 H180 0.931 . S
C157 C156 1.386 . S
C157 C161 1.397 . S
C158 C156 1.397 . S
C158 C159 1.384 . S
C158 H181 0.930 . S
C159 C158 1.384 . S
C159 C160 1.377 . S
C159 C162 1.481 . S
C160 C159 1.377 . S
C160 C161 1.389 . S
C160 H182 0.929 . S
C161 C157 1.397 . S
C161 C160 1.389 . S
C161 H183 0.931 . S
C162 C159 1.481 . S
C162 C163 1.387 . S
C162 C167 1.390 . S
C163 C162 1.387 . S
C163 C164 1.401 . S
C163 H184 0.930 . S
C164 C163 1.401 . S
C164 C165 1.376 1_554 S
C164 C173 1.511 . S
C165 C164 1.376 1_556 S
C165 C166 1.392 . S
C165 H186 0.931 . S
C166 C165 1.392 . S
C166 C167 1.361 1_556 S
C166 C168 1.500 . S
C167 C162 1.390 . S
C167 C166 1.361 1_554 S
C167 H185 0.931 1_554 S
C168 C166 1.500 . S
C168 C169 1.371 . S
C168 C170 1.365 . S
C169 C168 1.371 . S
C169 C179 1.386 . S
C169 H187 0.931 . S
C170 C168 1.365 . S
C170 C171 1.409 . S
C170 H188 0.929 . S
C171 C170 1.409 . S
C171 C172 1.380 . S
C171 H189 0.930 . S
C172 C171 1.380 . S
C172 C179 1.357 . S
C173 C164 1.511 . S
C173 C174 1.341 . S
C173 C175 1.371 . S
C174 C173 1.341 . S
C174 C178 1.394 . S
C174 H190 0.930 . S
C175 C173 1.371 . S
C175 C176 1.392 . S
C175 H191 0.931 1_554 S
C176 C175 1.392 . S
C176 C177 1.331 . S
C176 H194 0.932 1_554 S
C177 C176 1.331 . S
C177 C178 1.336 . S
C178 C174 1.394 . S
C178 C177 1.336 . S
C178 H193 0.929 . S
C179 C169 1.386 . S
C179 C172 1.357 . S
C179 H192 0.928 . S
H180 C156 0.931 . S
H181 C158 0.930 . S
H182 C160 0.929 . S
H183 C161 0.931 . S
H184 C163 0.930 . S
H185 C167 0.931 1_556 S
H186 C165 0.931 . S
H187 C169 0.931 . S
H188 C170 0.929 . S
H189 C171 0.930 . S
H190 C174 0.930 . S
H191 C175 0.931 1_556 S
H192 C179 0.928 . S
H193 C178 0.929 . S
H194 C176 0.932 1_556 S
C195 C196 1.386 . S
C195 C197 1.397 . S
C195 H219 0.931 . S
C196 C195 1.386 . S
C196 C200 1.397 . S
C197 C195 1.397 . S
C197 C198 1.384 . S
C197 H220 0.930 . S
C198 C197 1.384 . S
C198 C199 1.377 . S
C198 C201 1.481 . S
C199 C198 1.377 . S
C199 C200 1.389 . S
C199 H221 0.929 . S
C200 C196 1.397 . S
C200 C199 1.389 . S
C200 H222 0.931 . S
C201 C198 1.481 . S
C201 C202 1.387 . S
C201 C206 1.390 1_554 S
C202 C201 1.387 . S
C202 C203 1.401 . S
C202 H223 0.930 . S
C203 C202 1.401 . S
C203 C204 1.376 1_554 S
C203 C212 1.511 . S
C204 C203 1.376 1_556 S
C204 C205 1.392 . S
C204 H225 0.931 . S
C205 C204 1.392 . S
C205 C206 1.361 . S
C205 C207 1.500 . S
C206 C201 1.390 1_556 S
C206 C205 1.361 . S
C206 H224 0.931 . S
C207 C205 1.500 . S
C207 C208 1.371 . S
C207 C209 1.365 . S
C208 C207 1.371 . S
C208 C218 1.386 . S
C208 H226 0.931 . S
C209 C207 1.365 . S
C209 C210 1.409 . S
C209 H227 0.929 . S
C210 C209 1.409 . S
C210 C211 1.380 . S
C210 H228 0.930 . S
C211 C210 1.380 . S
C211 C218 1.357 . S
C212 C203 1.511 . S
C212 C213 1.341 . S
C212 C214 1.371 1_554 S
C213 C212 1.341 . S
C213 C217 1.394 . S
C213 H229 0.930 . S
C214 C212 1.371 1_556 S
C214 C215 1.392 1_556 S
C214 H230 0.931 . S
C215 C214 1.392 1_554 S
C215 C216 1.331 . S
C215 H233 0.932 1_554 S
C216 C215 1.331 . S
C216 C217 1.336 . S
C217 C213 1.394 . S
C217 C216 1.336 . S
C217 H232 0.929 . S
C218 C208 1.386 . S
C218 C211 1.357 . S
C218 H231 0.928 . S
H219 C195 0.931 . S
H220 C197 0.930 . S
H221 C199 0.929 . S
H222 C200 0.931 . S
H223 C202 0.930 . S
H224 C206 0.931 . S
H225 C204 0.931 . S
H226 C208 0.931 . S
H227 C209 0.929 . S
H228 C210 0.930 . S
H229 C213 0.930 . S
H230 C214 0.931 . S
H231 C218 0.928 . S
H232 C217 0.929 . S
H233 C215 0.932 1_556 S
C234 C235 1.386 . S
C234 C236 1.397 . S
C234 H258 0.931 . S
C235 C234 1.386 . S
C235 C239 1.397 . S
C236 C234 1.397 . S
C236 C237 1.384 . S
C236 H259 0.930 . S
C237 C236 1.384 . S
C237 C238 1.377 . S
C237 C240 1.481 . S
C238 C237 1.377 . S
C238 C239 1.389 . S
C238 H260 0.929 . S
C239 C235 1.397 . S
C239 C238 1.389 . S
C239 H261 0.931 . S
C240 C237 1.481 . S
C240 C241 1.387 . S
C240 C245 1.390 1_554 S
C241 C240 1.387 . S
C241 C242 1.401 . S
C241 H262 0.930 . S
C242 C241 1.401 . S
C242 C243 1.376 1_554 S
C242 C251 1.511 . S
C243 C242 1.376 1_556 S
C243 C244 1.392 . S
C243 H264 0.931 . S
C244 C243 1.392 . S
C244 C245 1.361 . S
C244 C246 1.500 . S
C245 C240 1.390 1_556 S
C245 C244 1.361 . S
C245 H263 0.931 . S
C246 C244 1.500 . S
C246 C247 1.371 . S
C246 C248 1.365 . S
C247 C246 1.371 . S
C247 C257 1.386 . S
C247 H265 0.931 . S
C248 C246 1.365 . S
C248 C249 1.409 . S
C248 H266 0.929 . S
C249 C248 1.409 . S
C249 C250 1.380 . S
C249 H267 0.930 . S
C250 C249 1.380 . S
C250 C257 1.357 . S
C251 C242 1.511 . S
C251 C252 1.341 . S
C251 C253 1.371 1_554 S
C252 C251 1.341 . S
C252 C256 1.394 . S
C252 H268 0.930 . S
C253 C251 1.371 1_556 S
C253 C254 1.392 1_556 S
C253 H269 0.931 . S
C254 C253 1.392 1_554 S
C254 C255 1.331 . S
C254 H272 0.932 1_554 S
C255 C254 1.331 . S
C255 C256 1.336 . S
C256 C252 1.394 . S
C256 C255 1.336 . S
C256 H271 0.929 . S
C257 C247 1.386 . S
C257 C250 1.357 . S
C257 H270 0.928 . S
H258 C234 0.931 . S
H259 C236 0.930 . S
H260 C238 0.929 . S
H261 C239 0.931 . S
H262 C241 0.930 . S
H263 C245 0.931 . S
H264 C243 0.931 . S
H265 C247 0.931 . S
H266 C248 0.929 . S
H267 C249 0.930 . S
H268 C252 0.930 . S
H269 C253 0.931 . S
H270 C257 0.928 . S
H271 C256 0.929 . S
H272 C254 0.932 1_556 S
C273 C274 1.386 . S
C273 C275 1.397 . S
C273 H297 0.931 . S
C274 C273 1.386 . S
C274 C278 1.397 . S
C275 C273 1.397 . S
C275 C276 1.384 . S
C275 H298 0.930 . S
C276 C275 1.384 . S
C276 C277 1.377 . S
C276 C279 1.481 . S
C277 C276 1.377 . S
C277 C278 1.389 . S
C277 H299 0.929 . S
C278 C274 1.397 . S
C278 C277 1.389 . S
C278 H300 0.931 . S
C279 C276 1.481 . S
C279 C280 1.387 . S
C279 C284 1.390 1_556 S
C280 C279 1.387 . S
C280 C281 1.401 1_556 S
C280 H301 0.930 . S
C281 C280 1.401 1_554 S
C281 C282 1.376 . S
C281 C290 1.511 . S
C282 C281 1.376 . S
C282 C283 1.392 . S
C282 H303 0.931 . S
C283 C282 1.392 . S
C283 C284 1.361 . S
C283 C285 1.500 . S
C284 C279 1.390 1_554 S
C284 C283 1.361 . S
C284 H302 0.931 1_554 S
C285 C283 1.500 . S
C285 C286 1.371 . S
C285 C287 1.365 . S
C286 C285 1.371 . S
C286 C296 1.386 . S
C286 H304 0.931 . S
C287 C285 1.365 . S
C287 C288 1.409 . S
C287 H305 0.929 . S
C288 C287 1.409 . S
C288 C289 1.380 . S
C288 H306 0.930 . S
C289 C288 1.380 . S
C289 C296 1.357 . S
C290 C281 1.511 . S
C290 C291 1.341 . S
C290 C292 1.371 . S
C291 C290 1.341 . S
C291 C295 1.394 . S
C291 H307 0.930 1_554 S
C292 C290 1.371 . S
C292 C293 1.392 . S
C292 H308 0.931 . S
C293 C292 1.392 . S
C293 C294 1.331 . S
C293 H311 0.932 . S
C294 C293 1.331 . S
C294 C295 1.336 . S
C295 C291 1.394 . S
C295 C294 1.336 . S
C295 H310 0.929 1_554 S
C296 C286 1.386 . S
C296 C289 1.357 . S
C296 H309 0.928 . S
H297 C273 0.931 . S
H298 C275 0.930 . S
H299 C277 0.929 . S
H300 C278 0.931 . S
H301 C280 0.930 . S
H302 C284 0.931 1_556 S
H303 C282 0.931 . S
H304 C286 0.931 . S
H305 C287 0.929 . S
H306 C288 0.930 . S
H307 C291 0.930 1_556 S
H308 C292 0.931 . S
H309 C296 0.928 . S
H310 C295 0.929 1_556 S
H311 C293 0.932 . S
Gd312 N343 2.661 . S
Gd312 N349 2.601 . S
Gd312 O356 2.545 . S
Gd312 O357 2.606 1_655 S
Gd312 O359 2.429 . S
Gd312 O360 2.545 1_655 S
Gd312 O361 2.412 . S
Gd312 O363 2.362 1_545 S
Gd312 O364 2.324 1_655 S
Gd312 C371 2.828 . S
Gd313 N322 2.661 1_565 S
Gd313 N326 2.601 . S
Gd313 O357 2.362 1_565 S
Gd313 O358 2.324 1_455 S
Gd313 O362 2.545 . S
Gd313 O363 2.606 1_455 S
Gd313 O365 2.429 . S
Gd313 O366 2.545 . S
Gd313 O367 2.412 . S
Gd313 C380 2.828 . S
C314 C317 1.417 . S
C314 C319 1.431 . S
C314 C320 1.412 . S
C315 C318 1.437 . S
C315 C319 1.317 . S
C315 H334 0.929 . S
C316 C317 1.426 . S
C316 C318 1.413 . S
C316 N326 1.359 1_545 S
C317 C314 1.417 . S
C317 C316 1.426 . S
C317 N322 1.350 . S
C318 C315 1.437 . S
C318 C316 1.413 . S
C318 C328 1.391 1_545 S
C319 C314 1.431 . S
C319 C315 1.317 . S
C319 H330 0.930 . S
C320 C314 1.412 . S
C320 C321 1.355 . S
C320 H332 0.930 . S
C321 C320 1.355 . S
C321 C323 1.402 . S
C321 H333 0.930 1_455 S
N322 Gd313 2.661 1_545 S
N322 C317 1.350 . S
N322 C323 1.307 . S
C323 C321 1.402 . S
C323 N322 1.307 . S
C323 H324 0.930 1_455 S
H324 C323 0.930 1_655 S
C325 N326 1.334 . S
C325 C327 1.394 . S
C325 H329 0.930 . S
N326 Gd313 2.601 . S
N326 C316 1.359 1_565 S
N326 C325 1.334 . S
C327 C325 1.394 . S
C327 C328 1.359 . S
C327 H339 0.930 . S
C328 C318 1.391 1_565 S
C328 C327 1.359 . S
C328 H340 0.929 . S
H329 C325 0.930 . S
H330 C319 0.930 . S
H331 C348 0.930 . S
H332 C320 0.930 . S
H333 C321 0.930 1_655 S
H334 C315 0.929 . S
H335 C353 0.930 . S
H336 C344 0.930 . S
H337 C345 0.930 . S
H338 C369 0.929 . S
H339 C327 0.930 . S
H340 C328 0.929 . S
H341 C370 0.930 . S
H342 C351 0.930 . S
N343 Gd312 2.661 . S
N343 C347 1.347 1_545 S
N343 C348 1.307 1_645 S
C344 H336 0.930 . S
C344 C345 1.355 1_655 S
C344 C346 1.412 . S
C345 H337 0.930 . S
C345 C344 1.355 1_455 S
C345 C348 1.402 . S
C346 C344 1.412 . S
C346 C347 1.431 . S
C346 C370 1.431 . S
C347 N343 1.347 1_565 S
C347 C346 1.431 . S
C347 C350 1.417 1_565 S
C348 H331 0.930 . S
C348 N343 1.307 1_465 S
C348 C345 1.402 . S
N349 Gd312 2.601 . S
N349 C350 1.359 . S
N349 C353 1.334 . S
C350 C347 1.417 1_545 S
C350 N349 1.359 . S
C350 C354 1.413 . S
C351 H342 0.930 . S
C351 C352 1.359 . S
C351 C353 1.394 . S
C352 C351 1.359 . S
C352 C354 1.391 . S
C352 H355 0.929 . S
C353 H335 0.930 . S
C353 N349 1.334 . S
C353 C351 1.394 . S
C354 C350 1.413 . S
C354 C352 1.391 . S
C354 C369 1.437 1_545 S
H355 C352 0.929 . S
O356 Gd312 2.545 . S
O356 C371 1.258 . S
O357 Gd312 2.606 1_455 S
O357 Gd313 2.362 1_545 S
O357 C368 1.284 . S
O358 Gd313 2.324 1_655 S
O358 C378 1.254 1_565 S
O359 Gd312 2.429 . S
O359 C378 1.268 . S
O360 Gd312 2.545 1_455 S
O360 C368 1.250 . S
O361 Gd312 2.412 . S
O361 C371 1.252 . S
O362 Gd313 2.545 . S
O362 C380 1.258 . S
O363 Gd312 2.362 1_565 S
O363 Gd313 2.606 1_655 S
O363 C379 1.284 . S
O364 Gd312 2.324 1_455 S
O364 C387 1.254 . S
O365 Gd313 2.429 . S
O365 C387 1.268 1_565 S
O366 Gd313 2.545 . S
O366 C379 1.250 1_455 S
O367 Gd313 2.412 . S
O367 C380 1.252 . S
C368 O357 1.284 . S
C368 O360 1.250 . S
C369 H338 0.929 . S
C369 C354 1.437 1_565 S
C369 C370 1.317 . S
C370 H341 0.930 . S
C370 C346 1.431 . S
C370 C369 1.317 . S
C371 Gd312 2.828 . S
C371 O356 1.258 . S
C371 O361 1.252 . S
C371 C372 1.497 . S
C372 C371 1.497 . S
C372 C373 1.395 . S
C372 C374 1.380 . S
C373 C372 1.395 . S
C373 C376 1.398 . S
C373 H388 0.930 . S
C374 C372 1.380 . S
C374 C375 1.391 . S
C374 H389 0.930 1_655 S
C375 C374 1.391 . S
C375 C377 1.387 . S
C376 C373 1.398 . S
C376 C377 1.380 . S
C376 H390 0.930 . S
C377 C375 1.387 . S
C377 C376 1.380 . S
C377 H391 0.930 . S
C378 O358 1.254 1_545 S
C378 O359 1.268 . S
C379 O363 1.284 . S
C379 O366 1.250 1_655 S
C380 Gd313 2.828 . S
C380 O362 1.258 . S
C380 O367 1.252 . S
C380 C381 1.497 . S
C381 C380 1.497 . S
C381 C382 1.395 . S
C381 C383 1.380 . S
C382 C381 1.395 . S
C382 C385 1.398 . S
C382 H392 0.930 . S
C383 C381 1.380 . S
C383 C384 1.391 . S
C383 H393 0.930 1_455 S
C384 C383 1.391 . S
C384 C386 1.387 . S
C385 C382 1.398 . S
C385 C386 1.380 . S
C385 H394 0.930 . S
C386 C384 1.387 . S
C386 C385 1.380 . S
C386 H395 0.930 . S
C387 O364 1.254 . S
C387 O365 1.268 1_545 S
H388 C373 0.930 . S
H389 C374 0.930 1_455 S
H390 C376 0.930 . S
H391 C377 0.930 . S
H392 C382 0.930 . S
H393 C383 0.930 1_655 S
H394 C385 0.930 . S
H395 C386 0.930 . S
Gd396 N427 2.661 . S
Gd396 N433 2.601 . S
Gd396 O440 2.545 . S
Gd396 O441 2.606 1_565 S
Gd396 O443 2.429 . S
Gd396 O444 2.545 1_565 S
Gd396 O445 2.426 . S
Gd396 O447 2.362 . S
Gd396 O448 2.324 1_565 S
Gd396 C455 2.828 . S
Gd397 N406 2.661 . S
Gd397 N410 2.601 . S
Gd397 O441 2.362 . S
Gd397 O442 2.324 1_545 S
Gd397 O446 2.545 . S
Gd397 O447 2.606 1_545 S
Gd397 O449 2.429 . S
Gd397 O450 2.545 . S
Gd397 O451 2.412 . S
Gd397 C464 2.828 . S
C398 C401 1.417 . S
C398 C403 1.431 . S
C398 C404 1.412 . S
C399 C402 1.437 . S
C399 C403 1.317 . S
C399 H418 0.929 . S
C400 C401 1.426 . S
C400 C402 1.413 . S
C400 N410 1.359 . S
C401 C398 1.417 . S
C401 C400 1.426 . S
C401 N406 1.350 . S
C402 C399 1.437 . S
C402 C400 1.413 . S
C402 C412 1.391 . S
C403 C398 1.431 . S
C403 C399 1.317 . S
C403 H414 0.930 . S
C404 C398 1.412 . S
C404 C405 1.355 . S
C404 H416 0.930 . S
C405 C404 1.355 . S
C405 C407 1.402 . S
C405 H417 0.930 1_545 S
N406 Gd397 2.661 . S
N406 C401 1.350 . S
N406 C407 1.307 . S
C407 C405 1.402 . S
C407 N406 1.307 . S
C407 H408 0.930 1_545 S
H408 C407 0.930 1_565 S
C409 N410 1.334 . S
C409 C411 1.394 . S
C409 H413 0.930 . S
N410 Gd397 2.601 . S
N410 C400 1.359 . S
N410 C409 1.334 . S
C411 C409 1.394 . S
C411 C412 1.359 . S
C411 H423 0.930 . S
C412 C402 1.391 . S
C412 C411 1.359 . S
C412 H424 0.929 . S
H413 C409 0.930 . S
H414 C403 0.930 . S
H415 C432 0.930 . S
H416 C404 0.930 . S
H417 C405 0.930 1_565 S
H418 C399 0.929 . S
H419 C437 0.930 . S
H420 C428 0.930 . S
H421 C429 0.930 . S
H422 C453 0.929 . S
H423 C411 0.930 . S
H424 C412 0.929 . S
H425 C454 0.930 . S
H426 C435 0.930 . S
N427 Gd396 2.661 . S
N427 C431 1.350 . S
N427 C432 1.307 1_565 S
C428 H420 0.930 . S
C428 C429 1.355 1_565 S
C428 C430 1.412 . S
C429 H421 0.930 . S
C429 C428 1.355 1_545 S
C429 C432 1.402 . S
C430 C428 1.412 . S
C430 C431 1.417 . S
C430 C454 1.431 . S
C431 N427 1.350 . S
C431 C430 1.417 . S
C431 C434 1.426 . S
C432 H415 0.930 . S
C432 N427 1.307 1_545 S
C432 C429 1.402 . S
N433 Gd396 2.601 . S
N433 C434 1.359 . S
N433 C437 1.334 . S
C434 C431 1.426 . S
C434 N433 1.359 . S
C434 C438 1.413 . S
C435 H426 0.930 . S
C435 C436 1.359 . S
C435 C437 1.394 . S
C436 C435 1.359 . S
C436 C438 1.391 . S
C436 H439 0.929 . S
C437 H419 0.930 . S
C437 N433 1.334 . S
C437 C435 1.394 . S
C438 C434 1.413 . S
C438 C436 1.391 . S
C438 C453 1.437 . S
H439 C436 0.929 . S
O440 Gd396 2.545 . S
O440 C455 1.258 . S
O441 Gd396 2.606 1_545 S
O441 Gd397 2.362 . S
O441 C452 1.284 . S
O442 Gd397 2.324 1_565 S
O442 C462 1.254 . S
O443 Gd396 2.429 . S
O443 C462 1.268 . S
O444 Gd396 2.545 1_545 S
O444 C452 1.250 . S
O445 Gd396 2.426 . S
O445 C455 1.302 . S
O446 Gd397 2.545 . S
O446 C464 1.258 . S
O447 Gd396 2.362 . S
O447 Gd397 2.606 1_565 S
O447 C463 1.284 . S
O448 Gd396 2.324 1_545 S
O448 C471 1.254 . S
O449 Gd397 2.429 . S
O449 C471 1.268 . S
O450 Gd397 2.545 . S
O450 C463 1.250 1_545 S
O451 Gd397 2.412 . S
O451 C464 1.252 . S
C452 O441 1.284 . S
C452 O444 1.250 . S
C453 H422 0.929 . S
C453 C438 1.437 . S
C453 C454 1.317 . S
C454 H425 0.930 . S
C454 C430 1.431 . S
C454 C453 1.317 . S
C455 Gd396 2.828 . S
C455 O440 1.258 . S
C455 O445 1.302 . S
C455 C456 1.497 . S
C456 C455 1.497 . S
C456 C457 1.395 . S
C456 C458 1.408 . S
C457 C456 1.395 . S
C457 C460 1.398 . S
C457 H472 0.930 . S
C458 C456 1.408 . S
C458 C459 1.393 . S
C458 H473 0.901 1_565 S
C459 C458 1.393 . S
C459 C461 1.387 . S
C460 C457 1.398 . S
C460 C461 1.380 . S
C460 H474 0.930 . S
C461 C459 1.387 . S
C461 C460 1.380 . S
C461 H475 0.930 . S
C462 O442 1.254 . S
C462 O443 1.268 . S
C463 O447 1.284 . S
C463 O450 1.250 1_565 S
C464 Gd397 2.828 . S
C464 O446 1.258 . S
C464 O451 1.252 . S
C464 C465 1.497 . S
C465 C464 1.497 . S
C465 C466 1.395 . S
C465 C467 1.380 . S
C466 C465 1.395 . S
C466 C469 1.398 . S
C466 H476 0.930 . S
C467 C465 1.380 . S
C467 C468 1.391 . S
C467 H477 0.927 . S
C468 C467 1.391 . S
C468 C470 1.387 . S
C469 C466 1.398 . S
C469 C470 1.380 . S
C469 H478 0.930 . S
C470 C468 1.387 . S
C470 C469 1.380 . S
C470 H479 0.930 . S
C471 O448 1.254 . S
C471 O449 1.268 . S
H472 C457 0.930 . S
H473 C458 0.901 1_545 S
H474 C460 0.930 . S
H475 C461 0.930 . S
H476 C466 0.930 . S
H477 C467 0.927 . S
H478 C469 0.930 . S
H479 C470 0.930 . S
Gd480 N511 2.661 . S
Gd480 N517 2.601 . S
Gd480 O524 2.545 . S
Gd480 O525 2.606 . S
Gd480 O527 2.429 . S
Gd480 O528 2.545 . S
Gd480 O529 2.412 . S
Gd480 O531 2.362 . S
Gd480 O532 2.324 . S
Gd480 C539 2.828 . S
Gd481 N490 2.661 . S
Gd481 N494 2.601 . S
Gd481 O525 2.362 . S
Gd481 O526 2.324 . S
Gd481 O530 2.545 . S
Gd481 O531 2.606 . S
Gd481 O533 2.429 . S
Gd481 O534 2.545 . S
Gd481 O535 2.412 . S
Gd481 C548 2.828 . S
C482 C485 1.417 . S
C482 C487 1.431 . S
C482 C488 1.412 . S
C483 C486 1.437 . S
C483 C487 1.317 . S
C483 H502 0.929 . S
C484 C485 1.426 . S
C484 C486 1.413 . S
C484 N494 1.359 . S
C485 C482 1.417 . S
C485 C484 1.426 . S
C485 N490 1.350 . S
C486 C483 1.437 . S
C486 C484 1.413 . S
C486 C496 1.391 . S
C487 C482 1.431 . S
C487 C483 1.317 . S
C487 H498 0.930 . S
C488 C482 1.412 . S
C488 C489 1.355 . S
C488 H500 0.930 . S
C489 C488 1.355 . S
C489 C491 1.402 . S
C489 H501 0.930 . S
N490 Gd481 2.661 . S
N490 C485 1.350 . S
N490 C491 1.307 . S
C491 C489 1.402 . S
C491 N490 1.307 . S
C491 H492 0.930 . S
H492 C491 0.930 . S
C493 N494 1.334 . S
C493 C495 1.394 . S
C493 H497 0.930 . S
N494 Gd481 2.601 . S
N494 C484 1.359 . S
N494 C493 1.334 . S
C495 C493 1.394 . S
C495 C496 1.359 . S
C495 H507 0.930 . S
C496 C486 1.391 . S
C496 C495 1.359 . S
C496 H508 0.929 . S
H497 C493 0.930 . S
H498 C487 0.930 . S
H499 C516 0.930 . S
H500 C488 0.930 . S
H501 C489 0.930 . S
H502 C483 0.929 . S
H503 C521 0.930 . S
H504 C512 0.930 . S
H505 C513 0.930 . S
H506 C537 0.929 . S
H507 C495 0.930 . S
H508 C496 0.929 . S
H509 C538 0.930 . S
H510 C519 0.930 . S
N511 Gd480 2.661 . S
N511 C515 1.350 . S
N511 C516 1.307 . S
C512 H504 0.930 . S
C512 C513 1.355 . S
C512 C514 1.412 . S
C513 H505 0.930 . S
C513 C512 1.355 . S
C513 C516 1.402 . S
C514 C512 1.412 . S
C514 C515 1.417 . S
C514 C538 1.431 . S
C515 N511 1.350 . S
C515 C514 1.417 . S
C515 C518 1.426 . S
C516 H499 0.930 . S
C516 N511 1.307 . S
C516 C513 1.402 . S
N517 Gd480 2.601 . S
N517 C518 1.359 . S
N517 C521 1.334 . S
C518 C515 1.426 . S
C518 N517 1.359 . S
C518 C522 1.413 . S
C519 H510 0.930 . S
C519 C520 1.359 . S
C519 C521 1.394 . S
C520 C519 1.359 . S
C520 C522 1.391 . S
C520 H523 0.929 . S
C521 H503 0.930 . S
C521 N517 1.334 . S
C521 C519 1.394 . S
C522 C518 1.413 . S
C522 C520 1.391 . S
C522 C537 1.437 . S
H523 C520 0.929 . S
O524 Gd480 2.545 . S
O524 C539 1.258 . S
O525 Gd480 2.606 . S
O525 Gd481 2.362 . S
O525 C536 1.284 . S
O526 Gd481 2.324 . S
O526 C546 1.254 . S
O527 Gd480 2.429 . S
O527 C546 1.268 . S
O528 Gd480 2.545 . S
O528 C536 1.250 . S
O529 Gd480 2.412 . S
O529 C539 1.252 . S
O530 Gd481 2.545 . S
O530 C548 1.258 . S
O531 Gd480 2.362 . S
O531 Gd481 2.606 . S
O531 C547 1.284 . S
O532 Gd480 2.324 . S
O532 C555 1.254 . S
O533 Gd481 2.429 . S
O533 C555 1.268 . S
O534 Gd481 2.545 . S
O534 C547 1.250 . S
O535 Gd481 2.412 . S
O535 C548 1.252 . S
C536 O525 1.284 . S
C536 O528 1.250 . S
C537 H506 0.929 . S
C537 C522 1.437 . S
C537 C538 1.317 . S
C538 H509 0.930 . S
C538 C514 1.431 . S
C538 C537 1.317 . S
C539 Gd480 2.828 . S
C539 O524 1.258 . S
C539 O529 1.252 . S
C539 C540 1.497 . S
C540 C539 1.497 . S
C540 C541 1.395 . S
C540 C542 1.380 . S
C541 C540 1.395 . S
C541 C544 1.398 . S
C541 H556 0.930 . S
C542 C540 1.380 . S
C542 C543 1.391 . S
C542 H557 0.930 . S
C543 C542 1.391 . S
C543 C545 1.387 . S
C544 C541 1.398 . S
C544 C545 1.380 . S
C544 H558 0.930 . S
C545 C543 1.387 . S
C545 C544 1.380 . S
C545 H559 0.930 . S
C546 O526 1.254 . S
C546 O527 1.268 . S
C547 O531 1.284 . S
C547 O534 1.250 . S
C548 Gd481 2.828 . S
C548 O530 1.258 . S
C548 O535 1.252 . S
C548 C549 1.497 . S
C549 C548 1.497 . S
C549 C550 1.395 . S
C549 C551 1.380 . S
C550 C549 1.395 . S
C550 C553 1.398 . S
C550 H560 0.930 . S
C551 C549 1.380 . S
C551 C552 1.391 . S
C551 H561 0.930 . S
C552 C551 1.391 . S
C552 C554 1.387 . S
C553 C550 1.398 . S
C553 C554 1.380 . S
C553 H562 0.930 . S
C554 C552 1.387 . S
C554 C553 1.380 . S
C554 H563 0.930 . S
C555 O532 1.254 . S
C555 O533 1.268 . S
H556 C541 0.930 . S
H557 C542 0.930 . S
H558 C544 0.930 . S
H559 C545 0.930 . S
H560 C550 0.930 . S
H561 C551 0.930 . S
H562 C553 0.930 . S
H563 C554 0.930 . S
Gd564 N595 2.661 . S
Gd564 N601 2.601 . S
Gd564 O608 2.545 . S
Gd564 O609 2.606 1_655 S
Gd564 O611 2.429 1_655 S
Gd564 O612 2.545 . S
Gd564 O613 2.412 . S
Gd564 O615 2.362 1_655 S
Gd564 O616 2.324 . S
Gd564 C623 2.828 . S
Gd565 N574 2.661 . S
Gd565 N578 2.601 . S
Gd565 O609 2.362 . S
Gd565 O610 2.324 . S
Gd565 O614 2.545 . S
Gd565 O615 2.606 . S
Gd565 O617 2.429 1_455 S
Gd565 O618 2.545 . S
Gd565 O619 2.412 . S
Gd565 C632 2.828 . S
C566 C569 1.417 . S
C566 C571 1.431 . S
C566 C572 1.412 . S
C567 C570 1.437 . S
C567 C571 1.317 . S
C567 H586 0.929 . S
C568 C569 1.426 . S
C568 C570 1.413 . S
C568 N578 1.359 . S
C569 C566 1.417 . S
C569 C568 1.426 . S
C569 N574 1.350 . S
C570 C567 1.437 . S
C570 C568 1.413 . S
C570 C580 1.391 . S
C571 C566 1.431 . S
C571 C567 1.317 . S
C571 H582 0.930 . S
C572 C566 1.412 . S
C572 C573 1.355 . S
C572 H584 0.930 . S
C573 C572 1.355 . S
C573 C575 1.402 . S
C573 H585 0.930 . S
N574 Gd565 2.661 . S
N574 C569 1.350 . S
N574 C575 1.307 . S
C575 C573 1.402 . S
C575 N574 1.307 . S
C575 H576 0.930 . S
H576 C575 0.930 . S
C577 N578 1.334 . S
C577 C579 1.394 . S
C577 H581 0.930 1_455 S
N578 Gd565 2.601 . S
N578 C568 1.359 . S
N578 C577 1.334 . S
C579 C577 1.394 . S
C579 C580 1.359 . S
C579 H591 0.930 1_455 S
C580 C570 1.391 . S
C580 C579 1.359 . S
C580 H592 0.929 . S
H581 C577 0.930 1_655 S
H582 C571 0.930 . S
H583 C600 0.930 . S
H584 C572 0.930 . S
H585 C573 0.930 . S
H586 C567 0.929 . S
H587 C605 0.930 . S
H588 C596 0.930 . S
H589 C597 0.930 . S
H590 C621 0.929 . S
H591 C579 0.930 1_655 S
H592 C580 0.929 . S
H593 C622 0.930 . S
H594 C603 0.930 . S
N595 Gd564 2.661 . S
N595 C599 1.350 . S
N595 C600 1.307 . S
C596 H588 0.930 . S
C596 C597 1.355 . S
C596 C598 1.412 . S
C597 H589 0.930 . S
C597 C596 1.355 . S
C597 C600 1.402 . S
C598 C596 1.412 . S
C598 C599 1.417 . S
C598 C622 1.431 . S
C599 N595 1.350 . S
C599 C598 1.417 . S
C599 C602 1.426 . S
C600 H583 0.930 . S
C600 N595 1.307 . S
C600 C597 1.402 . S
N601 Gd564 2.601 . S
N601 C602 1.359 . S
N601 C605 1.334 1_655 S
C602 C599 1.426 . S
C602 N601 1.359 . S
C602 C606 1.413 . S
C603 H594 0.930 . S
C603 C604 1.359 1_455 S
C603 C605 1.394 . S
C604 C603 1.359 1_655 S
C604 C606 1.391 . S
C604 H607 0.929 . S
C605 H587 0.930 . S
C605 N601 1.334 1_455 S
C605 C603 1.394 . S
C606 C602 1.413 . S
C606 C604 1.391 . S
C606 C621 1.437 . S
H607 C604 0.929 . S
O608 Gd564 2.545 . S
O608 C623 1.258 . S
O609 Gd564 2.606 1_455 S
O609 Gd565 2.362 . S
O609 C620 1.284 1_455 S
O610 Gd565 2.324 . S
O610 C630 1.254 . S
O611 Gd564 2.429 1_455 S
O611 C630 1.268 . S
O612 Gd564 2.545 . S
O612 C620 1.250 . S
O613 Gd564 2.412 . S
O613 C623 1.252 . S
O614 Gd565 2.545 . S
O614 C632 1.258 . S
O615 Gd564 2.362 1_455 S
O615 Gd565 2.606 . S
O615 C631 1.284 . S
O616 Gd564 2.324 . S
O616 C639 1.254 . S
O617 Gd565 2.429 1_655 S
O617 C639 1.268 . S
O618 Gd565 2.545 . S
O618 C631 1.250 . S
O619 Gd565 2.412 . S
O619 C632 1.252 . S
C620 O609 1.284 1_655 S
C620 O612 1.250 . S
C621 H590 0.929 . S
C621 C606 1.437 . S
C621 C622 1.317 . S
C622 H593 0.930 . S
C622 C598 1.431 . S
C622 C621 1.317 . S
C623 Gd564 2.828 . S
C623 O608 1.258 . S
C623 O613 1.252 . S
C623 C624 1.497 . S
C624 C623 1.497 . S
C624 C625 1.395 . S
C624 C626 1.380 . S
C625 C624 1.395 . S
C625 C628 1.398 . S
C625 H640 0.930 . S
C626 C624 1.380 . S
C626 C627 1.391 . S
C626 H641 0.930 . S
C627 C626 1.391 . S
C627 C629 1.387 . S
C628 C625 1.398 . S
C628 C629 1.380 . S
C628 H642 0.930 . S
C629 C627 1.387 . S
C629 C628 1.380 . S
C629 H643 0.930 . S
C630 O610 1.254 . S
C630 O611 1.268 . S
C631 O615 1.284 . S
C631 O618 1.250 . S
C632 Gd565 2.828 . S
C632 O614 1.258 . S
C632 O619 1.252 . S
C632 C633 1.497 . S
C633 C632 1.497 . S
C633 C634 1.395 . S
C633 C635 1.380 . S
C634 C633 1.395 . S
C634 C637 1.398 . S
C634 H644 0.930 . S
C635 C633 1.380 . S
C635 C636 1.391 . S
C635 H645 0.930 . S
C636 C635 1.391 . S
C636 C638 1.387 . S
C637 C634 1.398 . S
C637 C638 1.380 . S
C637 H646 0.930 . S
C638 C636 1.387 . S
C638 C637 1.380 . S
C638 H647 0.930 . S
C639 O616 1.254 . S
C639 O617 1.268 . S
H640 C625 0.930 . S
H641 C626 0.930 . S
H642 C628 0.930 . S
H643 C629 0.930 . S
H644 C634 0.930 . S
H645 C635 0.930 . S
H646 C637 0.930 . S
H647 C638 0.930 . S
C648 C649 1.349 . S
C648 C650 1.327 . S
C648 H673 0.950 . S
C649 C648 1.349 . S
C649 C665 1.349 . S
C650 C648 1.327 . S
C650 C669 1.429 . S
C650 H674 0.950 . S
C651 C668 1.574 . S
C651 C670 1.368 . S
C651 H675 0.949 . S
H652 C656 0.949 . S
C653 C654 1.349 . S
C653 C655 1.327 . S
C653 H676 0.950 . S
C654 C653 1.349 . S
C654 C666 1.349 . S
C655 C653 1.327 . S
C655 C671 1.429 . S
C655 H677 0.950 . S
C656 H652 0.949 . S
C656 C664 1.574 . S
C656 C672 1.368 . S
H657 C665 0.950 . S
H658 C663 0.950 . S
H659 C664 0.949 . S
H660 C666 0.950 . S
H661 C667 0.950 . S
H662 C668 0.949 . S
C663 H658 0.950 . S
C663 C665 1.327 . S
C663 C669 1.429 . S
C664 C656 1.574 . S
C664 H659 0.949 . S
C664 C670 1.368 . S
C665 C649 1.349 . S
C665 H657 0.950 . S
C665 C663 1.327 . S
C666 C654 1.349 . S
C666 H660 0.950 . S
C666 C667 1.327 . S
C667 H661 0.950 . S
C667 C666 1.327 . S
C667 C671 1.429 . S
C668 C651 1.574 . S
C668 H662 0.949 . S
C668 C672 1.368 . S
C669 C650 1.429 . S
C669 C663 1.429 . S
C669 C670 1.523 . S
C670 C651 1.368 . S
C670 C664 1.368 . S
C670 C669 1.523 . S
C671 C655 1.429 . S
C671 C667 1.429 . S
C671 C672 1.523 . S
C672 C656 1.368 . S
C672 C668 1.368 . S
C672 C671 1.523 . S
H673 C648 0.950 . S
H674 C650 0.950 . S
H675 C651 0.949 . S
H676 C653 0.950 . S
H677 C655 0.950 . S
C678 C679 1.349 . S
C678 C680 1.327 . S
C678 H703 0.950 . S
C679 C678 1.349 . S
C679 C695 1.349 . S
C680 C678 1.327 . S
C680 C699 1.429 . S
C680 H704 0.950 . S
C681 C698 1.574 . S
C681 C700 1.368 . S
C681 H705 0.949 . S
H682 C686 0.949 . S
C683 C684 1.349 . S
C683 C685 1.327 . S
C683 H706 0.950 . S
C684 C683 1.349 . S
C684 C696 1.349 . S
C685 C683 1.327 . S
C685 C701 1.429 . S
C685 H707 0.950 . S
C686 H682 0.949 . S
C686 C694 1.574 . S
C686 C702 1.368 . S
H687 C695 0.950 . S
H688 C693 0.950 . S
H689 C694 0.949 . S
H690 C696 0.950 . S
H691 C697 0.950 . S
H692 C698 0.949 . S
C693 H688 0.950 . S
C693 C695 1.327 . S
C693 C699 1.429 . S
C694 C686 1.574 . S
C694 H689 0.949 . S
C694 C700 1.368 . S
C695 C679 1.349 . S
C695 H687 0.950 . S
C695 C693 1.327 . S
C696 C684 1.349 . S
C696 H690 0.950 . S
C696 C697 1.327 . S
C697 H691 0.950 . S
C697 C696 1.327 . S
C697 C701 1.429 . S
C698 C681 1.574 . S
C698 H692 0.949 . S
C698 C702 1.368 . S
C699 C680 1.429 . S
C699 C693 1.429 . S
C699 C700 1.523 . S
C700 C681 1.368 . S
C700 C694 1.368 . S
C700 C699 1.523 . S
C701 C685 1.429 . S
C701 C697 1.429 . S
C701 C702 1.523 . S
C702 C686 1.368 . S
C702 C698 1.368 . S
C702 C701 1.523 . S
H703 C678 0.950 . S
H704 C680 0.950 . S
H705 C681 0.949 . S
H706 C683 0.950 . S
H707 C685 0.950 . S
C708 C709 1.349 . S
C708 C710 1.327 . S
C708 H733 0.950 . S
C709 C708 1.349 . S
C709 C725 1.349 . S
C710 C708 1.327 . S
C710 C729 1.429 . S
C710 H734 0.950 . S
C711 C728 1.574 . S
C711 C730 1.368 . S
C711 H735 0.949 . S
H712 C716 0.949 . S
C713 C714 1.349 . S
C713 C715 1.327 . S
C713 H736 0.950 . S
C714 C713 1.349 . S
C714 C726 1.349 . S
C715 C713 1.327 . S
C715 C731 1.429 . S
C715 H737 0.950 . S
C716 H712 0.949 . S
C716 C724 1.574 . S
C716 C732 1.368 . S
H717 C725 0.950 . S
H718 C723 0.950 . S
H719 C724 0.949 . S
H720 C726 0.950 . S
H721 C727 0.950 . S
H722 C728 0.949 . S
C723 H718 0.950 . S
C723 C725 1.327 . S
C723 C729 1.429 . S
C724 C716 1.574 . S
C724 H719 0.949 . S
C724 C730 1.368 . S
C725 C709 1.349 . S
C725 H717 0.950 . S
C725 C723 1.327 . S
C726 C714 1.349 . S
C726 H720 0.950 . S
C726 C727 1.327 . S
C727 H721 0.950 . S
C727 C726 1.327 . S
C727 C731 1.429 . S
C728 C711 1.574 . S
C728 H722 0.949 . S
C728 C732 1.368 . S
C729 C710 1.429 . S
C729 C723 1.429 . S
C729 C730 1.523 . S
C730 C711 1.368 . S
C730 C724 1.368 . S
C730 C729 1.523 . S
C731 C715 1.429 . S
C731 C727 1.429 . S
C731 C732 1.523 . S
C732 C716 1.368 . S
C732 C728 1.368 . S
C732 C731 1.523 . S
H733 C708 0.950 . S
H734 C710 0.950 . S
H735 C711 0.949 . S
H736 C713 0.950 . S
H737 C715 0.950 . S
C738 C739 1.349 . S
C738 C740 1.327 . S
C738 H763 0.950 . S
C739 C738 1.349 . S
C739 C755 1.349 . S
C740 C738 1.327 . S
C740 C759 1.429 . S
C740 H764 0.950 . S
C741 C758 1.574 . S
C741 C760 1.368 . S
C741 H765 0.949 . S
H742 C746 0.949 . S
C743 C744 1.349 . S
C743 C745 1.327 . S
C743 H766 0.950 1_455 S
C744 C743 1.349 . S
C744 C756 1.349 . S
C745 C743 1.327 . S
C745 C761 1.429 . S
C745 H767 0.950 . S
C746 H742 0.949 . S
C746 C754 1.574 . S
C746 C762 1.368 . S
H747 C755 0.950 . S
H748 C753 0.950 . S
H749 C754 0.949 . S
H750 C756 0.950 . S
H751 C757 0.950 . S
H752 C758 0.949 . S
C753 H748 0.950 . S
C753 C755 1.327 . S
C753 C759 1.429 . S
C754 C746 1.574 . S
C754 H749 0.949 . S
C754 C760 1.368 . S
C755 C739 1.349 . S
C755 H747 0.950 . S
C755 C753 1.327 . S
C756 C744 1.349 . S
C756 H750 0.950 . S
C756 C757 1.327 . S
C757 H751 0.950 . S
C757 C756 1.327 . S
C757 C761 1.429 . S
C758 C741 1.574 . S
C758 H752 0.949 . S
C758 C762 1.368 . S
C759 C740 1.429 . S
C759 C753 1.429 . S
C759 C760 1.523 . S
C760 C741 1.368 . S
C760 C754 1.368 . S
C760 C759 1.523 . S
C761 C745 1.429 . S
C761 C757 1.429 . S
C761 C762 1.523 . S
C762 C746 1.368 . S
C762 C758 1.368 . S
C762 C761 1.523 . S
H763 C738 0.950 . S
H764 C740 0.950 . S
H765 C741 0.949 . S
H766 C743 0.950 1_655 S
H767 C745 0.950 . S
C768 C769 1.349 . S
C768 C770 1.327 1_554 S
C768 H793 0.950 . S
C769 C768 1.349 . S
C769 C785 1.362 . S
C770 C768 1.327 1_556 S
C770 C789 1.429 . S
C770 H794 0.950 . S
C771 C788 1.574 . S
C771 C790 1.368 . S
C771 H795 0.949 . S
H772 C776 0.949 . S
C773 C774 1.349 . S
C773 C775 1.327 . S
C773 H796 0.950 . S
C774 C773 1.349 . S
C774 C786 1.349 1_565 S
C775 C773 1.327 . S
C775 C791 1.429 . S
C775 H797 0.950 . S
C776 H772 0.949 . S
C776 C784 1.574 . S
C776 C792 1.368 . S
H777 C785 0.951 . S
H778 C783 0.950 . S
H779 C784 0.949 . S
H780 C786 0.950 . S
H781 C787 0.950 1_545 S
H782 C788 0.949 . S
C783 H778 0.950 . S
C783 C785 1.313 1_556 S
C783 C789 1.429 . S
C784 C776 1.574 . S
C784 H779 0.949 . S
C784 C790 1.368 . S
C785 C769 1.362 . S
C785 H777 0.951 . S
C785 C783 1.313 1_554 S
C786 C774 1.349 1_545 S
C786 H780 0.950 . S
C786 C787 1.327 1_545 S
C787 H781 0.950 1_565 S
C787 C786 1.327 1_565 S
C787 C791 1.429 . S
C788 C771 1.574 . S
C788 H782 0.949 . S
C788 C792 1.368 . S
C789 C770 1.429 . S
C789 C783 1.429 . S
C789 C790 1.523 . S
C790 C771 1.368 . S
C790 C784 1.368 . S
C790 C789 1.523 . S
C791 C775 1.429 . S
C791 C787 1.429 . S
C791 C792 1.523 . S
C792 C776 1.368 . S
C792 C788 1.368 . S
C792 C791 1.523 . S
H793 C768 0.950 . S
H794 C770 0.950 . S
H795 C771 0.949 . S
H796 C773 0.950 . S
H797 C775 0.950 . S
C798 C799 1.349 . S
C798 C800 1.327 1_554 S
C798 H823 0.950 . S
C799 C798 1.349 . S
C799 C815 1.349 . S
C800 C798 1.327 1_556 S
C800 C819 1.429 . S
C800 H824 0.950 . S
C801 C818 1.574 . S
C801 C820 1.368 . S
C801 H825 0.949 . S
H802 C806 0.949 . S
C803 C804 1.349 . S
C803 C805 1.327 . S
C803 H826 0.950 . S
C804 C803 1.349 . S
C804 C816 1.349 . S
C805 C803 1.327 . S
C805 C821 1.429 . S
C805 H827 0.950 . S
C806 H802 0.949 . S
C806 C814 1.574 . S
C806 C822 1.368 . S
H807 C815 0.950 . S
H808 C813 0.950 . S
H809 C814 0.949 . S
H810 C816 0.950 . S
H811 C817 0.950 . S
H812 C818 0.949 . S
C813 H808 0.950 . S
C813 C815 1.327 1_556 S
C813 C819 1.429 . S
C814 C806 1.574 . S
C814 H809 0.949 . S
C814 C820 1.368 . S
C815 C799 1.349 . S
C815 H807 0.950 . S
C815 C813 1.327 1_554 S
C816 C804 1.349 . S
C816 H810 0.950 . S
C816 C817 1.327 . S
C817 H811 0.950 . S
C817 C816 1.327 . S
C817 C821 1.429 . S
C818 C801 1.574 . S
C818 H812 0.949 . S
C818 C822 1.368 . S
C819 C800 1.429 . S
C819 C813 1.429 . S
C819 C820 1.523 . S
C820 C801 1.368 . S
C820 C814 1.368 . S
C820 C819 1.523 . S
C821 C805 1.429 . S
C821 C817 1.429 . S
C821 C822 1.523 . S
C822 C806 1.368 . S
C822 C818 1.368 . S
C822 C821 1.523 . S
H823 C798 0.950 . S
H824 C800 0.950 . S
H825 C801 0.949 . S
H826 C803 0.950 . S
H827 C805 0.950 . S
C828 C829 1.349 . S
C828 C830 1.327 1_554 S
C828 H853 0.950 . S
C829 C828 1.349 . S
C829 C845 1.349 1_554 S
C830 C828 1.327 1_556 S
C830 C849 1.429 . S
C830 H854 0.950 1_556 S
C831 C848 1.574 . S
C831 C850 1.368 . S
C831 H855 0.949 . S
H832 C836 0.949 . S
C833 C834 1.349 . S
C833 C835 1.327 . S
C833 H856 0.950 . S
C834 C833 1.349 . S
C834 C846 1.349 . S
C835 C833 1.327 . S
C835 C851 1.429 . S
C835 H857 0.950 . S
C836 H832 0.949 . S
C836 C844 1.574 . S
C836 C852 1.368 . S
H837 C845 0.950 . S
H838 C843 0.950 . S
H839 C844 0.949 . S
H840 C846 0.950 . S
H841 C847 0.950 . S
H842 C848 0.949 . S
C843 H838 0.950 . S
C843 C845 1.327 . S
C843 C849 1.429 . S
C844 C836 1.574 . S
C844 H839 0.949 . S
C844 C850 1.368 . S
C845 C829 1.349 1_556 S
C845 H837 0.950 . S
C845 C843 1.327 . S
C846 C834 1.349 . S
C846 H840 0.950 . S
C846 C847 1.327 . S
C847 H841 0.950 . S
C847 C846 1.327 . S
C847 C851 1.429 . S
C848 C831 1.574 . S
C848 H842 0.949 . S
C848 C852 1.368 . S
C849 C830 1.429 . S
C849 C843 1.429 . S
C849 C850 1.523 . S
C850 C831 1.368 . S
C850 C844 1.368 . S
C850 C849 1.523 . S
C851 C835 1.429 . S
C851 C847 1.429 . S
C851 C852 1.523 . S
C852 C836 1.368 . S
C852 C848 1.368 . S
C852 C851 1.523 . S
H853 C828 0.950 . S
H854 C830 0.950 1_554 S
H855 C831 0.949 . S
H856 C833 0.950 . S
H857 C835 0.950 . S
C858 C859 1.349 1_556 S
C858 C860 1.327 . S
C858 H883 0.950 . S
C859 C858 1.349 1_554 S
C859 C875 1.349 . S
C860 C858 1.327 . S
C860 C879 1.429 . S
C860 H884 0.950 . S
C861 C878 1.574 . S
C861 C880 1.368 . S
C861 H885 0.949 . S
H862 C866 0.949 . S
C863 C864 1.349 . S
C863 C865 1.327 . S
C863 H886 0.950 . S
C864 C863 1.349 . S
C864 C876 1.349 . S
C865 C863 1.327 . S
C865 C881 1.429 . S
C865 H887 0.950 . S
C866 H862 0.949 . S
C866 C874 1.574 . S
C866 C882 1.368 . S
H867 C875 0.950 . S
H868 C873 0.950 . S
H869 C874 0.949 . S
H870 C876 0.950 . S
H871 C877 0.950 . S
H872 C878 0.949 . S
C873 H868 0.950 . S
C873 C875 1.327 . S
C873 C879 1.429 1_554 S
C874 C866 1.574 . S
C874 H869 0.949 . S
C874 C880 1.368 . S
C875 C859 1.349 . S
C875 H867 0.950 . S
C875 C873 1.327 . S
C876 C864 1.349 . S
C876 H870 0.950 . S
C876 C877 1.327 . S
C877 H871 0.950 . S
C877 C876 1.327 . S
C877 C881 1.429 . S
C878 C861 1.574 . S
C878 H872 0.949 . S
C878 C882 1.368 . S
C879 C860 1.429 . S
C879 C873 1.429 1_556 S
C879 C880 1.523 . S
C880 C861 1.368 . S
C880 C874 1.368 . S
C880 C879 1.523 . S
C881 C865 1.429 . S
C881 C877 1.429 . S
C881 C882 1.523 . S
C882 C866 1.368 . S
C882 C878 1.368 . S
C882 C881 1.523 . S
H883 C858 0.950 . S
H884 C860 0.950 . S
H885 C861 0.949 . S
H886 C863 0.950 . S
H887 C865 0.950 . S
C888 C889 1.349 . S
C888 C890 1.327 . S
C888 H913 0.950 . S
C889 C888 1.349 . S
C889 C905 1.349 . S
C890 C888 1.327 . S
C890 C909 1.429 . S
C890 H914 0.950 . S
C891 C908 1.574 . S
C891 C910 1.368 . S
C891 H915 0.949 . S
H892 C896 0.949 . S
C893 C894 1.349 . S
C893 C895 1.327 . S
C893 H916 0.950 . S
C894 C893 1.349 . S
C894 C906 1.349 . S
C895 C893 1.327 . S
C895 C911 1.429 . S
C895 H917 0.950 . S
C896 H892 0.949 . S
C896 C904 1.574 . S
C896 C912 1.368 . S
H897 C905 0.950 . S
H898 C903 0.950 . S
H899 C904 0.949 . S
H900 C906 0.950 1_655 S
H901 C907 0.950 . S
H902 C908 0.949 . S
C903 H898 0.950 . S
C903 C905 1.327 . S
C903 C909 1.429 . S
C904 C896 1.574 . S
C904 H899 0.949 . S
C904 C910 1.368 . S
C905 C889 1.349 . S
C905 H897 0.950 . S
C905 C903 1.327 . S
C906 C894 1.349 . S
C906 H900 0.950 1_455 S
C906 C907 1.327 . S
C907 H901 0.950 . S
C907 C906 1.327 . S
C907 C911 1.429 . S
C908 C891 1.574 . S
C908 H902 0.949 . S
C908 C912 1.368 . S
C909 C890 1.429 . S
C909 C903 1.429 . S
C909 C910 1.523 . S
C910 C891 1.368 . S
C910 C904 1.368 . S
C910 C909 1.523 . S
C911 C895 1.429 . S
C911 C907 1.429 . S
C911 C912 1.523 . S
C912 C896 1.368 . S
C912 C908 1.368 . S
C912 C911 1.523 . S
H913 C888 0.950 . S
H914 C890 0.950 . S
H915 C891 0.949 . S
H916 C893 0.950 . S
H917 C895 0.950 . S
C918 C919 1.349 . S
C918 C920 1.327 . S
C918 H943 0.950 . S
C919 C918 1.349 . S
C919 C935 1.349 . S
C920 C918 1.327 . S
C920 C939 1.429 . S
C920 H944 0.950 . S
C921 C938 1.574 . S
C921 C940 1.368 . S
C921 H945 0.949 . S
H922 C926 0.949 . S
C923 C924 1.349 . S
C923 C925 1.327 . S
C923 H946 0.950 . S
C924 C923 1.349 . S
C924 C936 1.349 . S
C925 C923 1.327 . S
C925 C941 1.429 . S
C925 H947 0.950 . S
C926 H922 0.949 . S
C926 C934 1.574 . S
C926 C942 1.368 . S
H927 C935 0.950 . S
H928 C933 0.950 . S
H929 C934 0.949 . S
H930 C936 0.957 . S
H931 C937 0.950 . S
H932 C938 0.949 . S
C933 H928 0.950 . S
C933 C935 1.327 . S
C933 C939 1.429 . S
C934 C926 1.574 . S
C934 H929 0.949 . S
C934 C940 1.368 . S
C935 C919 1.349 . S
C935 H927 0.950 . S
C935 C933 1.327 . S
C936 C924 1.349 . S
C936 H930 0.957 . S
C936 C937 1.327 . S
C937 H931 0.950 . S
C937 C936 1.327 . S
C937 C941 1.429 . S
C938 C921 1.574 . S
C938 H932 0.949 . S
C938 C942 1.368 . S
C939 C920 1.429 . S
C939 C933 1.429 . S
C939 C940 1.523 . S
C940 C921 1.368 . S
C940 C934 1.368 . S
C940 C939 1.523 . S
C941 C925 1.429 . S
C941 C937 1.429 . S
C941 C942 1.523 . S
C942 C926 1.368 . S
C942 C938 1.368 . S
C942 C941 1.523 . S
H943 C918 0.950 . S
H944 C920 0.950 . S
H945 C921 0.949 . S
H946 C923 0.950 . S
H947 C925 0.950 . S
C948 C949 1.349 . S
C948 C950 1.327 . S
C948 H973 0.950 . S
C949 C948 1.349 . S
C949 C965 1.349 . S
C950 C948 1.327 . S
C950 C969 1.429 . S
C950 H974 0.950 . S
C951 C968 1.574 . S
C951 C970 1.368 . S
C951 H975 0.949 . S
H952 C956 0.949 . S
C953 C954 1.349 . S
C953 C955 1.327 . S
C953 H976 0.950 . S
C954 C953 1.349 . S
C954 C966 1.349 . S
C955 C953 1.327 . S
C955 C971 1.429 . S
C955 H977 0.950 . S
C956 H952 0.949 . S
C956 C964 1.574 . S
C956 C972 1.368 . S
H957 C965 0.950 . S
H958 C963 0.950 . S
H959 C964 0.949 . S
H960 C966 0.950 . S
H961 C967 0.950 . S
H962 C968 0.949 . S
C963 H958 0.950 . S
C963 C965 1.327 . S
C963 C969 1.429 . S
C964 C956 1.574 . S
C964 H959 0.949 . S
C964 C970 1.368 . S
C965 C949 1.349 . S
C965 H957 0.950 . S
C965 C963 1.327 . S
C966 C954 1.349 . S
C966 H960 0.950 . S
C966 C967 1.327 . S
C967 H961 0.950 . S
C967 C966 1.327 . S
C967 C971 1.429 . S
C968 C951 1.574 . S
C968 H962 0.949 . S
C968 C972 1.368 . S
C969 C950 1.429 . S
C969 C963 1.429 . S
C969 C970 1.523 . S
C970 C951 1.368 . S
C970 C964 1.368 . S
C970 C969 1.523 . S
C971 C955 1.429 . S
C971 C967 1.429 . S
C971 C972 1.523 . S
C972 C956 1.368 . S
C972 C968 1.368 . S
C972 C971 1.523 . S
H973 C948 0.950 . S
H974 C950 0.950 . S
H975 C951 0.949 . S
H976 C953 0.950 . S
H977 C955 0.950 . S
C978 C979 1.349 . S
C978 C980 1.327 . S
C978 H1003 0.950 . S
C979 C978 1.349 . S
C979 C995 1.349 . S
C980 C978 1.327 . S
C980 C999 1.429 . S
C980 H1004 0.950 . S
C981 C998 1.574 . S
C981 C1000 1.368 . S
C981 H1005 0.949 . S
H982 C986 0.949 . S
C983 C984 1.349 . S
C983 C985 1.327 . S
C983 H1006 0.950 . S
C984 C983 1.349 . S
C984 C996 1.349 . S
C985 C983 1.327 . S
C985 C1001 1.429 . S
C985 H1007 0.950 . S
C986 H982 0.949 . S
C986 C994 1.574 . S
C986 C1002 1.368 . S
H987 C995 0.950 . S
H988 C993 0.950 . S
H989 C994 0.949 . S
H990 C996 0.950 . S
H991 C997 0.950 . S
H992 C998 0.949 . S
C993 H988 0.950 . S
C993 C995 1.327 . S
C993 C999 1.429 . S
C994 C986 1.574 . S
C994 H989 0.949 . S
C994 C1000 1.368 . S
C995 C979 1.349 . S
C995 H987 0.950 . S
C995 C993 1.327 . S
C996 C984 1.349 . S
C996 H990 0.950 . S
C996 C997 1.327 . S
C997 H991 0.950 . S
C997 C996 1.327 . S
C997 C1001 1.429 . S
C998 C981 1.574 . S
C998 H992 0.949 . S
C998 C1002 1.368 . S
C999 C980 1.429 . S
C999 C993 1.429 . S
C999 C1000 1.523 . S
C1000 C981 1.368 . S
C1000 C994 1.368 . S
C1000 C999 1.523 . S
C1001 C985 1.429 . S
C1001 C997 1.429 . S
C1001 C1002 1.523 . S
C1002 C986 1.368 . S
C1002 C998 1.368 . S
C1002 C1001 1.523 . S
H1003 C978 0.950 . S
H1004 C980 0.950 . S
H1005 C981 0.949 . S
H1006 C983 0.950 . S
H1007 C985 0.950 . S
C1008 C1009 1.349 . S
C1008 C1010 1.327 . S
C1008 H1033 0.950 . S
C1009 C1008 1.349 . S
C1009 C1025 1.349 . S
C1010 C1008 1.327 . S
C1010 C1029 1.429 . S
C1010 H1034 0.950 . S
C1011 C1028 1.574 . S
C1011 C1030 1.368 . S
C1011 H1035 0.949 . S
H1012 C1016 0.949 . S
C1013 C1014 1.349 . S
C1013 C1015 1.317 1_455 S
C1013 H1036 0.950 . S
C1014 C1013 1.349 . S
C1014 C1026 1.349 1_455 S
C1015 C1013 1.317 1_655 S
C1015 C1031 1.444 . S
C1015 H1037 0.945 1_655 S
C1016 H1012 0.949 . S
C1016 C1024 1.574 . S
C1016 C1032 1.368 . S
H1017 C1025 0.950 1_554 S
H1018 C1023 0.950 . S
H1019 C1024 0.949 . S
H1020 C1026 0.950 . S
H1021 C1027 0.950 . S
H1022 C1028 0.949 . S
C1023 H1018 0.950 . S
C1023 C1025 1.327 . S
C1023 C1029 1.429 . S
C1024 C1016 1.574 . S
C1024 H1019 0.949 . S
C1024 C1030 1.368 . S
C1025 C1009 1.349 . S
C1025 H1017 0.950 1_556 S
C1025 C1023 1.327 . S
C1026 C1014 1.349 1_655 S
C1026 H1020 0.950 . S
C1026 C1027 1.327 . S
C1027 H1021 0.950 . S
C1027 C1026 1.327 . S
C1027 C1031 1.429 . S
C1028 C1011 1.574 . S
C1028 H1022 0.949 . S
C1028 C1032 1.368 . S
C1029 C1010 1.429 . S
C1029 C1023 1.429 . S
C1029 C1030 1.523 . S
C1030 C1011 1.368 . S
C1030 C1024 1.368 . S
C1030 C1029 1.523 . S
C1031 C1015 1.444 . S
C1031 C1027 1.429 . S
C1031 C1032 1.523 . S
C1032 C1016 1.368 . S
C1032 C1028 1.368 . S
C1032 C1031 1.523 . S
H1033 C1008 0.950 . S
H1034 C1010 0.950 . S
H1035 C1011 0.949 . S
H1036 C1013 0.950 . S
H1037 C1015 0.945 1_455 S
C1038 C1039 1.349 . S
C1038 C1040 1.327 . S
C1038 H1063 0.950 . S
C1039 C1038 1.349 . S
C1039 C1055 1.349 . S
C1040 C1038 1.327 . S
C1040 C1059 1.429 . S
C1040 H1064 0.950 . S
C1041 C1058 1.574 . S
C1041 C1060 1.368 . S
C1041 H1065 0.949 . S
H1042 C1046 0.949 . S
C1043 C1044 1.349 1_565 S
C1043 C1045 1.327 . S
C1043 H1066 0.953 . S
C1044 C1043 1.349 1_545 S
C1044 C1056 1.349 . S
C1045 C1043 1.327 . S
C1045 C1061 1.429 . S
C1045 H1067 0.950 . S
C1046 H1042 0.949 . S
C1046 C1054 1.574 . S
C1046 C1062 1.368 . S
H1047 C1055 0.950 1_554 S
H1048 C1053 0.950 . S
H1049 C1054 0.949 . S
H1050 C1056 0.950 . S
H1051 C1057 0.950 . S
H1052 C1058 0.949 . S
C1053 H1048 0.950 . S
C1053 C1055 1.327 . S
C1053 C1059 1.429 . S
C1054 C1046 1.574 . S
C1054 H1049 0.949 . S
C1054 C1060 1.368 . S
C1055 C1039 1.349 . S
C1055 H1047 0.950 1_556 S
C1055 C1053 1.327 . S
C1056 C1044 1.349 . S
C1056 H1050 0.950 . S
C1056 C1057 1.327 1_545 S
C1057 H1051 0.950 . S
C1057 C1056 1.327 1_565 S
C1057 C1061 1.429 . S
C1058 C1041 1.574 . S
C1058 H1052 0.949 . S
C1058 C1062 1.368 . S
C1059 C1040 1.429 . S
C1059 C1053 1.429 . S
C1059 C1060 1.523 . S
C1060 C1041 1.368 . S
C1060 C1054 1.368 . S
C1060 C1059 1.523 . S
C1061 C1045 1.429 . S
C1061 C1057 1.429 . S
C1061 C1062 1.523 . S
C1062 C1046 1.368 . S
C1062 C1058 1.368 . S
C1062 C1061 1.523 . S
H1063 C1038 0.950 . S
H1064 C1040 0.950 . S
H1065 C1041 0.949 . S
H1066 C1043 0.953 . S
H1067 C1045 0.950 . S
C1068 C1069 1.349 . S
C1068 C1070 1.327 . S
C1068 H1093 0.950 1_556 S
C1069 C1068 1.349 . S
C1069 C1085 1.349 . S
C1070 C1068 1.327 . S
C1070 C1089 1.429 . S
C1070 H1094 0.950 . S
C1071 C1088 1.574 . S
C1071 C1090 1.368 . S
C1071 H1095 0.949 . S
H1072 C1076 0.949 . S
C1073 C1074 1.349 . S
C1073 C1075 1.327 . S
C1073 H1096 0.950 . S
C1074 C1073 1.349 . S
C1074 C1086 1.349 . S
C1075 C1073 1.327 . S
C1075 C1091 1.429 . S
C1075 H1097 0.950 . S
C1076 H1072 0.949 . S
C1076 C1084 1.574 . S
C1076 C1092 1.368 . S
H1077 C1085 0.950 . S
H1078 C1083 0.950 . S
H1079 C1084 0.949 . S
H1080 C1086 0.950 . S
H1081 C1087 0.950 . S
H1082 C1088 0.949 . S
C1083 H1078 0.950 . S
C1083 C1085 1.327 . S
C1083 C1089 1.429 . S
C1084 C1076 1.574 . S
C1084 H1079 0.949 . S
C1084 C1090 1.368 . S
C1085 C1069 1.349 . S
C1085 H1077 0.950 . S
C1085 C1083 1.327 . S
C1086 C1074 1.349 . S
C1086 H1080 0.950 . S
C1086 C1087 1.327 . S
C1087 H1081 0.950 . S
C1087 C1086 1.327 . S
C1087 C1091 1.429 . S
C1088 C1071 1.574 . S
C1088 H1082 0.949 . S
C1088 C1092 1.368 . S
C1089 C1070 1.429 . S
C1089 C1083 1.429 . S
C1089 C1090 1.523 . S
C1090 C1071 1.368 . S
C1090 C1084 1.368 . S
C1090 C1089 1.523 . S
C1091 C1075 1.429 . S
C1091 C1087 1.429 . S
C1091 C1092 1.523 . S
C1092 C1076 1.368 . S
C1092 C1088 1.368 . S
C1092 C1091 1.523 . S
H1093 C1068 0.950 1_554 S
H1094 C1070 0.950 . S
H1095 C1071 0.949 . S
H1096 C1073 0.950 . S
H1097 C1075 0.950 . S
C1098 C1099 1.349 . S
C1098 C1100 1.327 . S
C1098 H1123 0.950 . S
C1099 C1098 1.349 . S
C1099 C1115 1.349 . S
C1100 C1098 1.327 . S
C1100 C1119 1.429 . S
C1100 H1124 0.950 . S
C1101 C1118 1.574 . S
C1101 C1120 1.368 . S
C1101 H1125 0.949 . S
H1102 C1106 0.949 . S
C1103 C1104 1.349 . S
C1103 C1105 1.327 . S
C1103 H1126 0.950 . S
C1104 C1103 1.349 . S
C1104 C1116 1.349 . S
C1105 C1103 1.327 . S
C1105 C1121 1.429 . S
C1105 H1127 0.950 . S
C1106 H1102 0.949 . S
C1106 C1114 1.574 . S
C1106 C1122 1.368 . S
H1107 C1115 0.950 . S
H1108 C1113 0.950 . S
H1109 C1114 0.949 . S
H1110 C1116 0.950 . S
H1111 C1117 0.950 . S
H1112 C1118 0.949 . S
C1113 H1108 0.950 . S
C1113 C1115 1.327 . S
C1113 C1119 1.429 . S
C1114 C1106 1.574 . S
C1114 H1109 0.949 . S
C1114 C1120 1.368 . S
C1115 C1099 1.349 . S
C1115 H1107 0.950 . S
C1115 C1113 1.327 . S
C1116 C1104 1.349 . S
C1116 H1110 0.950 . S
C1116 C1117 1.327 . S
C1117 H1111 0.950 . S
C1117 C1116 1.327 . S
C1117 C1121 1.429 . S
C1118 C1101 1.574 . S
C1118 H1112 0.949 . S
C1118 C1122 1.368 . S
C1119 C1100 1.429 . S
C1119 C1113 1.429 . S
C1119 C1120 1.523 . S
C1120 C1101 1.368 . S
C1120 C1114 1.368 . S
C1120 C1119 1.523 . S
C1121 C1105 1.429 . S
C1121 C1117 1.429 . S
C1121 C1122 1.523 . S
C1122 C1106 1.368 . S
C1122 C1118 1.368 . S
C1122 C1121 1.523 . S
H1123 C1098 0.950 . S
H1124 C1100 0.950 . S
H1125 C1101 0.949 . S
H1126 C1103 0.950 . S
H1127 C1105 0.950 . S
C1128 C1129 1.349 . S
C1128 C1130 1.327 . S
C1128 H1153 0.950 . S
C1129 C1128 1.349 . S
C1129 C1145 1.349 . S
C1130 C1128 1.327 . S
C1130 C1149 1.429 . S
C1130 H1154 0.950 . S
C1131 C1148 1.574 . S
C1131 C1150 1.368 . S
C1131 H1155 0.949 . S
H1132 C1136 0.949 . S
C1133 C1134 1.349 . S
C1133 C1135 1.327 . S
C1133 H1156 0.950 . S
C1134 C1133 1.349 . S
C1134 C1146 1.349 . S
C1135 C1133 1.327 . S
C1135 C1151 1.429 . S
C1135 H1157 0.950 . S
C1136 H1132 0.949 . S
C1136 C1144 1.574 . S
C1136 C1152 1.368 . S
H1137 C1145 0.950 . S
H1138 C1143 0.950 . S
H1139 C1144 0.949 . S
H1140 C1146 0.950 . S
H1141 C1147 0.950 . S
H1142 C1148 0.949 . S
C1143 H1138 0.950 . S
C1143 C1145 1.327 . S
C1143 C1149 1.429 . S
C1144 C1136 1.574 . S
C1144 H1139 0.949 . S
C1144 C1150 1.368 . S
C1145 C1129 1.349 . S
C1145 H1137 0.950 . S
C1145 C1143 1.327 . S
C1146 C1134 1.349 . S
C1146 H1140 0.950 . S
C1146 C1147 1.327 . S
C1147 H1141 0.950 . S
C1147 C1146 1.327 . S
C1147 C1151 1.429 . S
C1148 C1131 1.574 . S
C1148 H1142 0.949 . S
C1148 C1152 1.368 . S
C1149 C1130 1.429 . S
C1149 C1143 1.429 . S
C1149 C1150 1.523 . S
C1150 C1131 1.368 . S
C1150 C1144 1.368 . S
C1150 C1149 1.523 . S
C1151 C1135 1.429 . S
C1151 C1147 1.429 . S
C1151 C1152 1.523 . S
C1152 C1136 1.368 . S
C1152 C1148 1.368 . S
C1152 C1151 1.523 . S
H1153 C1128 0.950 . S
H1154 C1130 0.950 . S
H1155 C1131 0.949 . S
H1156 C1133 0.950 . S
H1157 C1135 0.950 . S
C1158 C1159 1.349 . S
C1158 C1160 1.327 . S
C1158 H1183 0.950 . S
C1159 C1158 1.349 . S
C1159 C1175 1.349 . S
C1160 C1158 1.327 . S
C1160 C1179 1.429 . S
C1160 H1184 0.950 . S
C1161 C1178 1.574 . S
C1161 C1180 1.368 . S
C1161 H1185 0.949 . S
H1162 C1166 0.949 . S
C1163 C1164 1.349 . S
C1163 C1165 1.327 . S
C1163 H1186 0.950 . S
C1164 C1163 1.349 . S
C1164 C1176 1.349 . S
C1165 C1163 1.327 . S
C1165 C1181 1.429 . S
C1165 H1187 0.950 . S
C1166 H1162 0.949 . S
C1166 C1174 1.574 . S
C1166 C1182 1.368 . S
H1167 C1175 0.950 . S
H1168 C1173 0.950 . S
H1169 C1174 0.949 . S
H1170 C1176 0.950 . S
H1171 C1177 0.950 . S
H1172 C1178 0.949 . S
C1173 H1168 0.950 . S
C1173 C1175 1.327 . S
C1173 C1179 1.429 . S
C1174 C1166 1.574 . S
C1174 H1169 0.949 . S
C1174 C1180 1.368 . S
C1175 C1159 1.349 . S
C1175 H1167 0.950 . S
C1175 C1173 1.327 . S
C1176 C1164 1.349 . S
C1176 H1170 0.950 . S
C1176 C1177 1.327 . S
C1177 H1171 0.950 . S
C1177 C1176 1.327 . S
C1177 C1181 1.429 . S
C1178 C1161 1.574 . S
C1178 H1172 0.949 . S
C1178 C1182 1.368 . S
C1179 C1160 1.429 . S
C1179 C1173 1.429 . S
C1179 C1180 1.523 . S
C1180 C1161 1.368 . S
C1180 C1174 1.368 . S
C1180 C1179 1.523 . S
C1181 C1165 1.429 . S
C1181 C1177 1.429 . S
C1181 C1182 1.523 . S
C1182 C1166 1.368 . S
C1182 C1178 1.368 . S
C1182 C1181 1.523 . S
H1183 C1158 0.950 . S
H1184 C1160 0.950 . S
H1185 C1161 0.949 . S
H1186 C1163 0.950 . S
H1187 C1165 0.950 . S
C1188 C1189 1.349 . S
C1188 C1190 1.327 . S
C1188 H1213 0.950 . S
C1189 C1188 1.349 . S
C1189 C1205 1.349 . S
C1190 C1188 1.327 . S
C1190 C1209 1.429 . S
C1190 H1214 0.950 . S
C1191 C1208 1.574 . S
C1191 C1210 1.368 . S
C1191 H1215 0.949 . S
H1192 C1196 0.949 . S
C1193 C1194 1.349 . S
C1193 C1195 1.327 . S
C1193 H1216 0.950 . S
C1194 C1193 1.349 . S
C1194 C1206 1.349 . S
C1195 C1193 1.327 . S
C1195 C1211 1.429 . S
C1195 H1217 0.950 . S
C1196 H1192 0.949 . S
C1196 C1204 1.574 . S
C1196 C1212 1.368 . S
H1197 C1205 0.950 . S
H1198 C1203 0.950 . S
H1199 C1204 0.949 . S
H1200 C1206 0.950 . S
H1201 C1207 0.950 . S
H1202 C1208 0.949 . S
C1203 H1198 0.950 . S
C1203 C1205 1.327 . S
C1203 C1209 1.429 . S
C1204 C1196 1.574 . S
C1204 H1199 0.949 . S
C1204 C1210 1.368 . S
C1205 C1189 1.349 . S
C1205 H1197 0.950 . S
C1205 C1203 1.327 . S
C1206 C1194 1.349 . S
C1206 H1200 0.950 . S
C1206 C1207 1.327 . S
C1207 H1201 0.950 . S
C1207 C1206 1.327 . S
C1207 C1211 1.429 . S
C1208 C1191 1.574 . S
C1208 H1202 0.949 . S
C1208 C1212 1.368 . S
C1209 C1190 1.429 . S
C1209 C1203 1.429 . S
C1209 C1210 1.523 . S
C1210 C1191 1.368 . S
C1210 C1204 1.368 . S
C1210 C1209 1.523 . S
C1211 C1195 1.429 . S
C1211 C1207 1.429 . S
C1211 C1212 1.523 . S
C1212 C1196 1.368 . S
C1212 C1208 1.368 . S
C1212 C1211 1.523 . S
H1213 C1188 0.950 . S
H1214 C1190 0.950 . S
H1215 C1191 0.949 . S
H1216 C1193 0.950 . S
H1217 C1195 0.950 . S
C1218 C1219 1.349 . S
C1218 C1220 1.327 . S
C1218 H1243 0.950 . S
C1219 C1218 1.349 . S
C1219 C1235 1.349 . S
C1220 C1218 1.327 . S
C1220 C1239 1.429 . S
C1220 H1244 0.950 . S
C1221 C1238 1.574 . S
C1221 C1240 1.368 . S
C1221 H1245 0.949 . S
H1222 C1226 0.949 . S
C1223 C1224 1.349 . S
C1223 C1225 1.327 . S
C1223 H1246 0.950 . S
C1224 C1223 1.349 . S
C1224 C1236 1.349 . S
C1225 C1223 1.327 . S
C1225 C1241 1.429 . S
C1225 H1247 0.950 . S
C1226 H1222 0.949 . S
C1226 C1234 1.574 . S
C1226 C1242 1.368 . S
H1227 C1235 0.950 . S
H1228 C1233 0.950 . S
H1229 C1234 0.949 . S
H1230 C1236 0.950 . S
H1231 C1237 0.950 . S
H1232 C1238 0.949 . S
C1233 H1228 0.950 . S
C1233 C1235 1.327 . S
C1233 C1239 1.429 . S
C1234 C1226 1.574 . S
C1234 H1229 0.949 . S
C1234 C1240 1.368 . S
C1235 C1219 1.349 . S
C1235 H1227 0.950 . S
C1235 C1233 1.327 . S
C1236 C1224 1.349 . S
C1236 H1230 0.950 . S
C1236 C1237 1.327 . S
C1237 H1231 0.950 . S
C1237 C1236 1.327 . S
C1237 C1241 1.429 . S
C1238 C1221 1.574 . S
C1238 H1232 0.949 . S
C1238 C1242 1.368 . S
C1239 C1220 1.429 . S
C1239 C1233 1.429 . S
C1239 C1240 1.523 . S
C1240 C1221 1.368 . S
C1240 C1234 1.368 . S
C1240 C1239 1.523 . S
C1241 C1225 1.429 . S
C1241 C1237 1.429 . S
C1241 C1242 1.523 . S
C1242 C1226 1.368 . S
C1242 C1238 1.368 . S
C1242 C1241 1.523 . S
H1243 C1218 0.950 . S
H1244 C1220 0.950 . S
H1245 C1221 0.949 . S
H1246 C1223 0.950 . S
H1247 C1225 0.950 . S
C1248 C1249 1.349 . S
C1248 C1250 1.327 . S
C1248 H1273 0.950 . S
C1249 C1248 1.349 . S
C1249 C1265 1.349 . S
C1250 C1248 1.327 . S
C1250 C1269 1.429 . S
C1250 H1274 0.950 . S
C1251 C1268 1.574 . S
C1251 C1270 1.368 . S
C1251 H1275 0.949 . S
H1252 C1256 0.949 . S
C1253 C1254 1.349 . S
C1253 C1255 1.327 . S
C1253 H1276 0.950 . S
C1254 C1253 1.349 . S
C1254 C1266 1.349 . S
C1255 C1253 1.327 . S
C1255 C1271 1.429 . S
C1255 H1277 0.950 . S
C1256 H1252 0.949 . S
C1256 C1264 1.574 . S
C1256 C1272 1.368 . S
H1257 C1265 0.950 . S
H1258 C1263 0.950 . S
H1259 C1264 0.949 . S
H1260 C1266 0.950 . S
H1261 C1267 0.950 . S
H1262 C1268 0.949 . S
C1263 H1258 0.950 . S
C1263 C1265 1.327 . S
C1263 C1269 1.429 . S
C1264 C1256 1.574 . S
C1264 H1259 0.949 . S
C1264 C1270 1.368 . S
C1265 C1249 1.349 . S
C1265 H1257 0.950 . S
C1265 C1263 1.327 . S
C1266 C1254 1.349 . S
C1266 H1260 0.950 . S
C1266 C1267 1.327 . S
C1267 H1261 0.950 . S
C1267 C1266 1.327 . S
C1267 C1271 1.429 . S
C1268 C1251 1.574 . S
C1268 H1262 0.949 . S
C1268 C1272 1.368 . S
C1269 C1250 1.429 . S
C1269 C1263 1.429 . S
C1269 C1270 1.523 . S
C1270 C1251 1.368 . S
C1270 C1264 1.368 . S
C1270 C1269 1.523 . S
C1271 C1255 1.429 . S
C1271 C1267 1.429 . S
C1271 C1272 1.523 . S
C1272 C1256 1.368 . S
C1272 C1268 1.368 . S
C1272 C1271 1.523 . S
H1273 C1248 0.950 . S
H1274 C1250 0.950 . S
H1275 C1251 0.949 . S
H1276 C1253 0.950 . S
H1277 C1255 0.950 . S
C1278 C1279 1.349 . S
C1278 C1280 1.327 . S
C1278 H1303 0.950 . S
C1279 C1278 1.349 . S
C1279 C1295 1.349 . S
C1280 C1278 1.327 . S
C1280 C1299 1.429 . S
C1280 H1304 0.950 . S
C1281 C1298 1.574 . S
C1281 C1300 1.368 . S
C1281 H1305 0.949 . S
H1282 C1286 0.949 . S
C1283 C1284 1.349 . S
C1283 C1285 1.327 . S
C1283 H1306 0.950 1_565 S
C1284 C1283 1.349 . S
C1284 C1296 1.349 . S
C1285 C1283 1.327 . S
C1285 C1301 1.429 . S
C1285 H1307 0.946 . S
C1286 H1282 0.949 . S
C1286 C1294 1.574 . S
C1286 C1302 1.368 . S
H1287 C1295 0.950 . S
H1288 C1293 0.950 . S
H1289 C1294 0.949 . S
H1290 C1296 0.950 . S
H1291 C1297 0.950 . S
H1292 C1298 0.949 . S
C1293 H1288 0.950 . S
C1293 C1295 1.327 . S
C1293 C1299 1.429 . S
C1294 C1286 1.574 . S
C1294 H1289 0.949 . S
C1294 C1300 1.368 . S
C1295 C1279 1.349 . S
C1295 H1287 0.950 . S
C1295 C1293 1.327 . S
C1296 C1284 1.349 . S
C1296 H1290 0.950 . S
C1296 C1297 1.327 . S
C1297 H1291 0.950 . S
C1297 C1296 1.327 . S
C1297 C1301 1.429 . S
C1298 C1281 1.574 . S
C1298 H1292 0.949 . S
C1298 C1302 1.368 . S
C1299 C1280 1.429 . S
C1299 C1293 1.429 . S
C1299 C1300 1.523 . S
C1300 C1281 1.368 . S
C1300 C1294 1.368 . S
C1300 C1299 1.523 . S
C1301 C1285 1.429 . S
C1301 C1297 1.429 . S
C1301 C1302 1.523 . S
C1302 C1286 1.368 . S
C1302 C1298 1.368 . S
C1302 C1301 1.523 . S
H1303 C1278 0.950 . S
H1304 C1280 0.950 . S
H1305 C1281 0.949 . S
H1306 C1283 0.950 1_545 S
H1307 C1285 0.946 . S
C1308 C1309 1.349 . S
C1308 C1310 1.327 . S
C1308 H1333 0.950 . S
C1309 C1308 1.349 . S
C1309 C1325 1.349 . S
C1310 C1308 1.327 . S
C1310 C1329 1.429 . S
C1310 H1334 0.950 . S
C1311 C1328 1.574 . S
C1311 C1330 1.368 . S
C1311 H1335 0.949 . S
H1312 C1316 0.949 . S
C1313 C1314 1.349 . S
C1313 C1315 1.327 . S
C1313 H1336 0.950 . S
C1314 C1313 1.349 . S
C1314 C1326 1.349 . S
C1315 C1313 1.327 . S
C1315 C1331 1.429 . S
C1315 H1337 0.950 . S
C1316 H1312 0.949 . S
C1316 C1324 1.574 . S
C1316 C1332 1.368 . S
H1317 C1325 0.950 . S
H1318 C1323 0.950 . S
H1319 C1324 0.949 . S
H1320 C1326 0.950 . S
H1321 C1327 0.950 . S
H1322 C1328 0.949 . S
C1323 H1318 0.950 . S
C1323 C1325 1.327 . S
C1323 C1329 1.429 . S
C1324 C1316 1.574 . S
C1324 H1319 0.949 . S
C1324 C1330 1.368 . S
C1325 C1309 1.349 . S
C1325 H1317 0.950 . S
C1325 C1323 1.327 . S
C1326 C1314 1.349 . S
C1326 H1320 0.950 . S
C1326 C1327 1.327 . S
C1327 H1321 0.950 . S
C1327 C1326 1.327 . S
C1327 C1331 1.429 . S
C1328 C1311 1.574 . S
C1328 H1322 0.949 . S
C1328 C1332 1.368 . S
C1329 C1310 1.429 . S
C1329 C1323 1.429 . S
C1329 C1330 1.523 . S
C1330 C1311 1.368 . S
C1330 C1324 1.368 . S
C1330 C1329 1.523 . S
C1331 C1315 1.429 . S
C1331 C1327 1.429 . S
C1331 C1332 1.523 . S
C1332 C1316 1.368 . S
C1332 C1328 1.368 . S
C1332 C1331 1.523 . S
H1333 C1308 0.950 . S
H1334 C1310 0.950 . S
H1335 C1311 0.949 . S
H1336 C1313 0.950 . S
H1337 C1315 0.950 . S
C1338 C1339 1.349 . S
C1338 C1340 1.327 . S
C1338 H1363 0.950 . S
C1339 C1338 1.349 . S
C1339 C1355 1.349 . S
C1340 C1338 1.327 . S
C1340 C1359 1.429 . S
C1340 H1364 0.950 . S
C1341 C1358 1.574 . S
C1341 C1360 1.368 . S
C1341 H1365 0.949 . S
H1342 C1346 0.949 . S
C1343 C1344 1.349 . S
C1343 C1345 1.327 . S
C1343 H1366 0.950 . S
C1344 C1343 1.349 . S
C1344 C1356 1.349 . S
C1345 C1343 1.327 . S
C1345 C1361 1.429 . S
C1345 H1367 0.950 . S
C1346 H1342 0.949 . S
C1346 C1354 1.574 . S
C1346 C1362 1.368 . S
H1347 C1355 0.950 . S
H1348 C1353 0.950 . S
H1349 C1354 0.949 . S
H1350 C1356 0.950 . S
H1351 C1357 0.950 . S
H1352 C1358 0.949 . S
C1353 H1348 0.950 . S
C1353 C1355 1.327 . S
C1353 C1359 1.429 . S
C1354 C1346 1.574 . S
C1354 H1349 0.949 . S
C1354 C1360 1.368 . S
C1355 C1339 1.349 . S
C1355 H1347 0.950 . S
C1355 C1353 1.327 . S
C1356 C1344 1.349 . S
C1356 H1350 0.950 . S
C1356 C1357 1.327 . S
C1357 H1351 0.950 . S
C1357 C1356 1.327 . S
C1357 C1361 1.429 . S
C1358 C1341 1.574 . S
C1358 H1352 0.949 . S
C1358 C1362 1.368 . S
C1359 C1340 1.429 . S
C1359 C1353 1.429 . S
C1359 C1360 1.523 . S
C1360 C1341 1.368 . S
C1360 C1354 1.368 . S
C1360 C1359 1.523 . S
C1361 C1345 1.429 . S
C1361 C1357 1.429 . S
C1361 C1362 1.523 . S
C1362 C1346 1.368 . S
C1362 C1358 1.368 . S
C1362 C1361 1.523 . S
H1363 C1338 0.950 . S
H1364 C1340 0.950 . S
H1365 C1341 0.949 . S
H1366 C1343 0.950 . S
H1367 C1345 0.950 . S
C649 C255 2.069 . S
C654 C387 2.122 . S
C684 C471 2.162 . S
C679 C294 2.097 . S
C714 C547 2.119 . S
C709 C177 2.230 . S
C744 C631 2.100 . S
C739 C216 2.212 . S
C774 C378 2.122 1_565 S
C769 C99 2.081 . S
C799 C138 2.083 . S
C804 C462 2.162 . S
C829 C21 2.244 . S
C834 C536 2.119 . S
C859 C60 2.226 . S
C864 C620 2.100 . S
C894 C375 0.428 1_455 S
C889 C196 0.458 . S
C924 C459 0.404 1_545 S
C919 C235 0.423 . S
C954 C552 0.444 . S
C949 C289 0.421 . S
C979 C157 0.448 . S
C984 C636 0.454 . S
C1009 C40 0.445 . S
C1014 C384 0.428 . S
C1044 C468 0.404 . S
C1039 C79 0.407 . S
C1074 C543 0.444 . S
C1069 C133 0.410 . S
C1099 C1 0.432 . S
C1104 C627 0.454 . S
C1129 C211 2.597 . S
C1134 C368 2.709 . S
C1159 C250 2.546 . S
C1164 C452 2.656 . S
C1194 C546 2.671 . S
C1189 C274 2.431 . S
C1224 C630 2.706 . S
C1219 C172 2.457 . S
C1249 C55 2.594 . S
C1254 C379 2.709 . S
C1284 C463 2.656 . S
C1279 C94 2.542 . S
C1314 C555 2.672 . S
C1309 C118 2.425 . S
C1339 C16 2.453 . S
C1344 C639 2.706 . S
