# Generated by pormake.
# Topology apo, (3,6)-cn, num edge types: 1
# Building blocks:
#     Node 0, Type 0, BuildingBlock: INOVEN_clean_linker_0, # of connection points: 3
#     Node 1, Type 0, BuildingBlock: INOVEN_clean_linker_0, # of connection points: 3
#     Node 2, Type 0, BuildingBlock: INOVEN_clean_linker_0, # of connection points: 3
#     Node 3, Type 0, BuildingBlock: INOVEN_clean_linker_0, # of connection points: 3
#     Node 4, Type 0, BuildingBlock: INOVEN_clean_linker_0, # of connection points: 3
#     Node 5, Type 0, BuildingBlock: INOVEN_clean_linker_0, # of connection points: 3
#     Node 6, Type 0, BuildingBlock: INOVEN_clean_linker_0, # of connection points: 3
#     Node 7, Type 0, BuildingBlock: INOVEN_clean_linker_0, # of connection points: 3
#     Node 8, Type 1, BuildingBlock: MIDCAF_clean_sbu_0, # of connection points: 6
#     Node 9, Type 1, BuildingBlock: MIDCAF_clean_sbu_0, # of connection points: 6
#     Node 10, Type 1, BuildingBlock: MIDCAF_clean_sbu_0, # of connection points: 6
#     Node 11, Type 1, BuildingBlock: MIDCAF_clean_sbu_0, # of connection points: 6
#     Edge 12, Type (0, 1), BuildingBlock: CIFDUS_clean_linker_0, # of connection points: 2
#     Edge 13, Type (0, 1), BuildingBlock: CIFDUS_clean_linker_0, # of connection points: 2
#     Edge 14, Type (0, 1), BuildingBlock: CIFDUS_clean_linker_0, # of connection points: 2
#     Edge 15, Type (0, 1), BuildingBlock: CIFDUS_clean_linker_0, # of connection points: 2
#     Edge 16, Type (0, 1), BuildingBlock: CIFDUS_clean_linker_0, # of connection points: 2
#     Edge 17, Type (0, 1), BuildingBlock: CIFDUS_clean_linker_0, # of connection points: 2
#     Edge 18, Type (0, 1), BuildingBlock: CIFDUS_clean_linker_0, # of connection points: 2
#     Edge 19, Type (0, 1), BuildingBlock: CIFDUS_clean_linker_0, # of connection points: 2
#     Edge 20, Type (0, 1), BuildingBlock: CIFDUS_clean_linker_0, # of connection points: 2
#     Edge 21, Type (0, 1), BuildingBlock: CIFDUS_clean_linker_0, # of connection points: 2
#     Edge 22, Type (0, 1), BuildingBlock: CIFDUS_clean_linker_0, # of connection points: 2
#     Edge 23, Type (0, 1), BuildingBlock: CIFDUS_clean_linker_0, # of connection points: 2
#     Edge 24, Type (0, 1), BuildingBlock: CIFDUS_clean_linker_0, # of connection points: 2
#     Edge 25, Type (0, 1), BuildingBlock: CIFDUS_clean_linker_0, # of connection points: 2
#     Edge 26, Type (0, 1), BuildingBlock: CIFDUS_clean_linker_0, # of connection points: 2
#     Edge 27, Type (0, 1), BuildingBlock: CIFDUS_clean_linker_0, # of connection points: 2
#     Edge 28, Type (0, 1), BuildingBlock: CIFDUS_clean_linker_0, # of connection points: 2
#     Edge 29, Type (0, 1), BuildingBlock: CIFDUS_clean_linker_0, # of connection points: 2
#     Edge 30, Type (0, 1), BuildingBlock: CIFDUS_clean_linker_0, # of connection points: 2
#     Edge 31, Type (0, 1), BuildingBlock: CIFDUS_clean_linker_0, # of connection points: 2
#     Edge 32, Type (0, 1), BuildingBlock: CIFDUS_clean_linker_0, # of connection points: 2
#     Edge 33, Type (0, 1), BuildingBlock: CIFDUS_clean_linker_0, # of connection points: 2
#     Edge 34, Type (0, 1), BuildingBlock: CIFDUS_clean_linker_0, # of connection points: 2
#     Edge 35, Type (0, 1), BuildingBlock: CIFDUS_clean_linker_0, # of connection points: 2
# Relax obj value: 0.015
# Max RMSD: 0.064
# Mean RMSD: 0.052
data_MOF--net-apo--node1-MIDCAF_clean_sbu_0--node2-INOVEN_clean_linker_0--edge1-CIFDUS_clean_linker_0
_symmetry_space_group_name_H-M    P1
_symmetry_Int_Tables_number       1
_symmetry_cell_setting            triclinic
loop_
_symmetry_equiv_pos_as_xyz
'x, y, z'
_cell_length_a     32.100949
_cell_length_b     36.463975
_cell_length_c     30.276357
_cell_angle_alpha  89.839235
_cell_angle_beta   89.468143
_cell_angle_gamma 90.108916
loop_
_atom_site_label
_atom_site_type_symbol
_atom_site_fract_x
_atom_site_fract_y
_atom_site_fract_z
_atom_type_partial_charge
H0 H 0.3232 0.27589 0.45678 0.0
H1 H 0.38689 0.3791 0.44383 0.0
H2 H 0.33438 0.32805 0.32907 0.0
N3 N 0.30128 0.26938 0.37396 0.0
N4 N 0.28284 0.27073 0.33782 0.0
C5 C 0.33444 0.29834 0.43634 0.0
C6 C 0.35572 0.32765 0.45583 0.0
C7 C 0.32574 0.29857 0.39091 0.0
C8 C 0.34054 0.3277 0.36418 0.0
C9 C 0.36301 0.35664 0.38337 0.0
C10 C 0.36987 0.35658 0.42906 0.0
H11 H 0.19657 0.20391 0.9482 0.0
H12 H 0.13225 0.10149 0.93002 0.0
H13 H 0.18967 0.15542 0.8188 0.0
N14 N 0.21919 0.21343 0.86529 0.0
N15 N 0.23679 0.21326 0.82834 0.0
C16 C 0.18564 0.1822 0.92682 0.0
C17 C 0.1638 0.15226 0.94486 0.0
C18 C 0.19536 0.18344 0.88152 0.0
C19 C 0.18212 0.15489 0.85376 0.0
C20 C 0.15861 0.12574 0.8712 0.0
C21 C 0.1497 0.12453 0.91658 0.0
H22 H 0.82417 0.2111 0.56893 0.0
H23 H 0.88306 0.106 0.58399 0.0
H24 H 0.83296 0.16098 0.69776 0.0
N25 N 0.80451 0.22044 0.65277 0.0
N26 N 0.78839 0.22042 0.69046 0.0
C27 C 0.83461 0.18879 0.58979 0.0
C28 C 0.85403 0.15815 0.57076 0.0
C29 C 0.82659 0.18995 0.63548 0.0
C30 C 0.83926 0.1606 0.66255 0.0
C31 C 0.86036 0.13072 0.64392 0.0
C32 C 0.86747 0.1296 0.59826 0.0
H33 H 0.69635 0.2872 0.076 0.0
H34 H 0.6072 0.37305 0.0964 0.0
H35 H 0.66187 0.31906 0.20852 0.0
N36 N 0.7101 0.27243 0.15911 0.0
N37 N 0.72596 0.27166 0.19662 0.0
C38 C 0.67838 0.30443 0.09819 0.0
C39 C 0.65193 0.33119 0.08084 0.0
C40 C 0.68291 0.30038 0.14406 0.0
C41 C 0.65931 0.32259 0.17312 0.0
C42 C 0.63084 0.34819 0.15587 0.0
C43 C 0.62822 0.3527 0.10986 0.0
H44 H 0.72246 0.68667 0.56212 0.0
H45 H 0.62505 0.60736 0.58053 0.0
H46 H 0.67835 0.66071 0.69336 0.0
N47 N 0.73598 0.69897 0.64654 0.0
N48 N 0.73706 0.70946 0.68574 0.0
C49 C 0.70102 0.67207 0.58376 0.0
C50 C 0.67258 0.6471 0.56596 0.0
C51 C 0.70329 0.67703 0.62967 0.0
C52 C 0.67612 0.65739 0.65793 0.0
C53 C 0.64749 0.63217 0.64052 0.0
C54 C 0.64602 0.62748 0.59449 0.0
H55 H 0.84659 0.82524 0.18623 0.0
H56 H 0.90569 0.86936 0.06927 0.0
H57 H 0.80023 0.79863 0.05655 0.0
N58 N 0.78659 0.78866 0.14437 0.0
N59 N 0.75611 0.77913 0.12181 0.0
C60 C 0.84913 0.82707 0.15058 0.0
C61 C 0.88079 0.84864 0.13094 0.0
C62 C 0.81987 0.80873 0.12411 0.0
C63 C 0.82272 0.81203 0.07756 0.0
C64 C 0.85359 0.83394 0.05799 0.0
C65 C 0.88255 0.85167 0.08475 0.0
H66 H 0.22489 0.80184 0.43681 0.0
H67 H 0.11409 0.86653 0.42838 0.0
H68 H 0.1703 0.82365 0.30962 0.0
N69 N 0.23493 0.79021 0.35175 0.0
N70 N 0.23421 0.7765 0.314 0.0
C71 C 0.20022 0.81363 0.41716 0.0
C72 C 0.16875 0.83403 0.43776 0.0
C73 C 0.20075 0.80927 0.37101 0.0
C74 C 0.16933 0.82581 0.34529 0.0
C75 C 0.13743 0.84626 0.36596 0.0
C76 C 0.13755 0.84981 0.41211 0.0
H77 H 0.33556 0.65981 0.82725 0.0
H78 H 0.42622 0.63348 0.92636 0.0
H79 H 0.32868 0.71033 0.95517 0.0
N80 N 0.29049 0.70514 0.87898 0.0
N81 N 0.27736 0.7078 0.84043 0.0
C82 C 0.34869 0.66416 0.85965 0.0
C83 C 0.38359 0.64373 0.87283 0.0
C84 C 0.32887 0.68819 0.88932 0.0
C85 C 0.34469 0.69258 0.93193 0.0
C86 C 0.38063 0.67385 0.94482 0.0
C87 C 0.40005 0.64966 0.91513 0.0
Zn88 Zn 0.0408 0.097 0.33419 0.0
Zn89 Zn 0.97126 0.10364 0.17935 0.0
Zn90 Zn 0.00707 0.10789 0.25672 0.0
C91 C 0.04812 0.13954 0.16747 0.0
C92 C 0.97202 0.03324 0.20687 0.0
O93 O 0.9658 0.13536 0.30573 0.0
O94 O 0.9958 0.12026 0.36885 0.0
C95 C 0.0956 0.14185 0.28244 0.0
O96 O 0.05013 0.13584 0.20972 0.0
O97 O 0.01748 0.12705 0.14643 0.0
O98 O 0.96065 0.05047 0.17295 0.0
O99 O 0.99006 0.05032 0.23871 0.0
O100 O 0.09082 0.12687 0.31983 0.0
O101 O 0.06753 0.13791 0.2526 0.0
O102 O 0.02212 0.04876 0.2702 0.0
O103 O 0.04873 0.04328 0.33699 0.0
C104 C 0.03827 0.02889 0.30095 0.0
O105 O 0.94741 0.13909 0.26378 0.0
O106 O 0.92272 0.13385 0.19615 0.0
C107 C 0.96701 0.1362 0.34824 0.0
C108 C 0.919 0.1459 0.23504 0.0
Zn109 Zn 0.54789 0.382 0.68468 0.0
Zn110 Zn 0.47403 0.38512 0.83719 0.0
Zn111 Zn 0.51234 0.37991 0.76106 0.0
C112 C 0.482 0.4557 0.8103 0.0
C113 C 0.42284 0.34338 0.7828 0.0
O114 O 0.57302 0.35141 0.76878 0.0
O115 O 0.60233 0.36347 0.70403 0.0
C116 C 0.53344 0.45347 0.70274 0.0
O117 O 0.50044 0.43846 0.77858 0.0
O118 O 0.46606 0.43832 0.84227 0.0
O119 O 0.42481 0.35636 0.82131 0.0
O120 O 0.45281 0.34896 0.75493 0.0
O121 O 0.54387 0.43466 0.6696 0.0
O122 O 0.52252 0.43761 0.73916 0.0
O123 O 0.47173 0.35025 0.71291 0.0
O124 O 0.51145 0.34769 0.65291 0.0
C125 C 0.47801 0.33957 0.67279 0.0
O126 O 0.55386 0.35381 0.81086 0.0
O127 O 0.51778 0.36185 0.87278 0.0
C128 C 0.60451 0.34951 0.74213 0.0
C129 C 0.54989 0.3502 0.85307 0.0
Zn130 Zn 0.03562 0.87782 0.81772 0.0
Zn131 Zn 0.9845 0.8807 0.67643 0.0
Zn132 Zn 0.01003 0.87506 0.74755 0.0
C133 C 0.96538 0.94568 0.70902 0.0
C134 C 0.94251 0.82267 0.71247 0.0
O135 O 0.06816 0.84235 0.74661 0.0
O136 O 0.06348 0.82963 0.81739 0.0
C137 C 0.05389 0.94429 0.79038 0.0
O138 O 0.99526 0.93357 0.73315 0.0
O139 O 0.94769 0.92431 0.68243 0.0
O140 O 0.9577 0.83169 0.67541 0.0
O141 O 0.95342 0.84039 0.74719 0.0
O142 O 0.07237 0.92163 0.81475 0.0
O143 O 0.02375 0.93318 0.7659 0.0
O144 O 0.96229 0.84905 0.79137 0.0
O145 O 0.98102 0.88168 0.8489 0.0
C146 C 0.95501 0.86068 0.83081 0.0
O147 O 0.05762 0.85123 0.70231 0.0
O148 O 0.03956 0.88568 0.64585 0.0
C149 C 0.08008 0.82352 0.7802 0.0
C150 C 0.06516 0.86388 0.66327 0.0
Zn151 Zn 0.52848 0.59087 0.19494 0.0
Zn152 Zn 0.48444 0.61982 0.33614 0.0
Zn153 Zn 0.50752 0.60863 0.26609 0.0
C154 C 0.56641 0.62686 0.34476 0.0
C155 C 0.45189 0.55288 0.31985 0.0
O156 O 0.46487 0.63417 0.21716 0.0
O157 O 0.47538 0.59492 0.16303 0.0
C158 C 0.58329 0.64628 0.22003 0.0
O159 O 0.56035 0.63335 0.30345 0.0
O160 O 0.5374 0.61314 0.3678 0.0
O161 O 0.44152 0.58105 0.34134 0.0
O162 O 0.48302 0.55513 0.29267 0.0
O163 O 0.56763 0.63229 0.18589 0.0
O164 O 0.56879 0.63691 0.25825 0.0
O165 O 0.51566 0.54706 0.26508 0.0
O166 O 0.5534 0.5424 0.20406 0.0
C167 C 0.53917 0.52805 0.23893 0.0
O168 O 0.45318 0.64677 0.26116 0.0
O169 O 0.4637 0.67045 0.32678 0.0
C170 C 0.45543 0.62169 0.17879 0.0
C171 C 0.44543 0.67178 0.29008 0.0
H172 H 0.1516 0.89259 0.29645 0.0
H173 H 0.05369 0.85032 0.38078 0.0
H174 H 0.00935 0.90216 0.3618 0.0
H175 H 0.00564 0.96621 0.33526 0.0
H176 H 0.10212 0.00774 0.24899 0.0
H177 H 0.13945 0.94941 0.25384 0.0
C178 C 0.11991 0.89385 0.30908 0.0
C179 C 0.10644 0.86826 0.34102 0.0
C180 C 0.09463 0.9241 0.29838 0.0
C181 C 0.06512 0.87019 0.35688 0.0
C182 C 0.03981 0.89998 0.34629 0.0
C183 C 0.03396 0.96179 0.31618 0.0
C184 C 0.05147 0.991 0.29215 0.0
C185 C 0.05527 0.92822 0.31929 0.0
C186 C 0.08816 0.98535 0.26756 0.0
C187 C 0.10967 0.95214 0.27067 0.0
H188 H 0.46397 0.62068 0.85864 0.0
H189 H 0.33614 0.59476 0.82774 0.0
H190 H 0.35756 0.53625 0.79717 0.0
H191 H 0.41012 0.48803 0.79182 0.0
H192 H 0.53726 0.51094 0.82617 0.0
H193 H 0.51894 0.57495 0.84251 0.0
C194 C 0.44094 0.60244 0.84457 0.0
C195 C 0.39843 0.6121 0.84601 0.0
C196 C 0.45333 0.56807 0.8281 0.0
C197 C 0.36907 0.58841 0.82686 0.0
C198 C 0.38122 0.55463 0.80972 0.0
C199 C 0.43395 0.5075 0.80155 0.0
C200 C 0.47478 0.49529 0.80795 0.0
C201 C 0.42288 0.5436 0.81192 0.0
C202 C 0.50564 0.52018 0.82085 0.0
C203 C 0.49504 0.55656 0.83054 0.0
H204 H 0.5676 0.60898 0.62895 0.0
H205 H 0.67178 0.59832 0.71715 0.0
H206 H 0.63858 0.54562 0.75263 0.0
H207 H 0.5883 0.49472 0.74697 0.0
H208 H 0.49103 0.5002 0.65027 0.0
H209 H 0.51274 0.56239 0.62968 0.0
C210 C 0.58284 0.5954 0.6563 0.0
C211 C 0.62264 0.60711 0.6695 0.0
C212 C 0.56489 0.56368 0.67463 0.0
C213 C 0.64123 0.58999 0.70606 0.0
C214 C 0.62246 0.55948 0.7261 0.0
C215 C 0.57111 0.51023 0.72255 0.0
C216 C 0.53818 0.49339 0.70012 0.0
C217 C 0.58549 0.54493 0.70902 0.0
C218 C 0.51635 0.51303 0.66795 0.0
C219 C 0.52899 0.54837 0.65601 0.0
H220 H 0.86106 0.89457 0.19879 0.0
H221 H 0.9648 0.85628 0.12026 0.0
H222 H 0.00646 0.90884 0.14314 0.0
H223 H 0.00748 0.97205 0.17241 0.0
H224 H 0.90422 0.01005 0.25143 0.0
H225 H 0.86858 0.95121 0.24229 0.0
C226 C 0.89332 0.89692 0.18818 0.0
C227 C 0.90946 0.87208 0.15701 0.0
C228 C 0.91695 0.92763 0.20094 0.0
C229 C 0.95141 0.8755 0.14361 0.0
C230 C 0.9752 0.90567 0.15647 0.0
C231 C 0.97789 0.96677 0.18886 0.0
C232 C 0.9582 -0.00495 0.21229 0.0
C233 C 0.95745 0.93297 0.18306 0.0
C234 C 0.91984 0.98835 0.2334 0.0
C235 C 0.89934 0.95485 0.22788 0.0
H236 H 0.93842 0.11189 0.66754 0.0
H237 H 0.81013 0.07781 0.67726 0.0
H238 H 0.83165 0.01736 0.70405 0.0
H239 H 0.88732 0.97186 0.71334 0.0
H240 H 0.01578 0.00565 0.70461 0.0
H241 H 0.99417 0.06893 0.68965 0.0
C242 C 0.91533 0.09148 0.67696 0.0
C243 C 0.87287 0.09889 0.67065 0.0
C244 C 0.92803 0.05681 0.69193 0.0
C245 C 0.84294 0.0725 0.68238 0.0
C246 C 0.85526 0.03794 0.69726 0.0
C247 C 0.91045 0.99337 0.70916 0.0
C248 C 0.95295 0.98443 0.70968 0.0
C249 C 0.89774 0.0294 0.70046 0.0
C250 C 0.98287 0.01221 0.70453 0.0
C251 C 0.97051 0.04823 0.69565 0.0
H252 H 0.65276 0.39384 0.22333 0.0
H253 H 0.54693 0.35436 0.15084 0.0
H254 H 0.50407 0.40399 0.18014 0.0
H255 H 0.50182 0.46589 0.21208 0.0
H256 H 0.60777 0.50683 0.28267 0.0
H257 H 0.64502 0.4493 0.26974 0.0
C258 C 0.61993 0.39539 0.21538 0.0
C259 C 0.60322 0.37099 0.18429 0.0
C260 C 0.59557 0.42462 0.2317 0.0
C261 C 0.56061 0.37325 0.17418 0.0
C262 C 0.5361 0.4017 0.19079 0.0
C263 C 0.53219 0.46134 0.22654 0.0
C264 C 0.55197 0.49021 0.24861 0.0
C265 C 0.55388 0.42867 0.21758 0.0
C266 C 0.59174 0.48458 0.26628 0.0
C267 C 0.61329 0.4519 0.25824 0.0
H268 H 0.33523 0.42558 0.38785 0.0
H269 H 0.42732 0.35845 0.32331 0.0
H270 H 0.46259 0.41365 0.29441 0.0
H271 H 0.47099 0.4817 0.29517 0.0
H272 H 0.37764 0.54693 0.36192 0.0
H273 H 0.33929 0.4921 0.38212 0.0
C274 C 0.36241 0.42313 0.36647 0.0
C275 C 0.3786 0.3883 0.35737 0.0
C276 C 0.38277 0.45475 0.35105 0.0
C277 C 0.41409 0.38516 0.33015 0.0
C278 C 0.43445 0.4167 0.31411 0.0
C279 C 0.44204 0.48386 0.31357 0.0
C280 C 0.42782 0.51853 0.32753 0.0
C281 C 0.41975 0.45179 0.32548 0.0
C282 C 0.38997 0.52073 0.3513 0.0
C283 C 0.36774 0.48932 0.36284 0.0
H284 H 0.07978 0.10643 0.85034 0.0
H285 H 0.20819 0.07567 0.8314 0.0
H286 H 0.18659 0.01735 0.79874 0.0
H287 H 0.13127 0.97205 0.78583 0.0
H288 H 0.00267 0.00275 0.80311 0.0
H289 H 0.02389 0.06465 0.82527 0.0
C290 C 0.10283 0.08722 0.83795 0.0
C291 C 0.1454 0.09487 0.84329 0.0
C292 C 0.0901 0.05386 0.81927 0.0
C293 C 0.17528 0.07013 0.82731 0.0
C294 C 0.16293 0.0368 0.80896 0.0
C295 C 0.10798 0.9927 0.7934 0.0
C296 C 0.06561 0.98316 0.79318 0.0
C297 C 0.12048 0.0279 0.80625 0.0
C298 C 0.03547 0.00981 0.80284 0.0
C299 C 0.04763 0.045 0.81588 0.0
H300 H 0.1311 0.20348 1.00087 0.0
H301 H 0.17954 0.09331 0.99692 0.0
H302 H 0.15682 0.08305 0.07309 0.0
H303 H 0.11189 0.10134 0.13495 0.0
H304 H 0.05766 0.20906 0.13686 0.0
H305 H 0.09514 0.22512 0.06857 0.0
C306 C 0.13753 0.17761 0.01717 0.0
C307 C 0.15617 0.14893 0.99314 0.0
C308 C 0.12343 0.17159 0.06079 0.0
C309 C 0.16439 0.1155 0.01453 0.0
C310 C 0.15157 0.10966 0.05812 0.0
C311 C 0.11007 0.1289 0.12146 0.0
C312 C 0.08279 0.15423 0.14096 0.0
C313 C 0.12956 0.13695 0.0809 0.0
C314 C 0.07932 0.18949 0.12272 0.0
C315 C 0.10013 0.19837 0.08326 0.0
H316 H 0.39625 0.27706 0.50568 0.0
H317 H 0.334 0.38144 0.51331 0.0
H318 H 0.35839 0.38978 0.58888 0.0
H319 H 0.40808 0.37283 0.64665 0.0
H320 H 0.47704 0.27221 0.63523 0.0
H321 H 0.43852 0.25605 0.5686 0.0
C322 C 0.38715 0.30107 0.52447 0.0
C323 C 0.36373 0.32876 0.50401 0.0
C324 C 0.40261 0.30627 0.56741 0.0
C325 C 0.35237 0.35997 0.52839 0.0
C326 C 0.36631 0.36473 0.57156 0.0
C327 C 0.41312 0.3466 0.63063 0.0
C328 C 0.44475 0.32344 0.64595 0.0
C329 C 0.39288 0.33881 0.59072 0.0
C330 C 0.45221 0.29007 0.62429 0.0
C331 C 0.43066 0.28115 0.58582 0.0
H332 H 0.62985 0.28147 0.01801 0.0
H333 H 0.6644 0.39467 0.03608 0.0
H334 H 0.64503 0.4086 0.96004 0.0
H335 H 0.60607 0.39117 0.89421 0.0
H336 H 0.56495 0.27975 0.87802 0.0
H337 H 0.60012 0.26199 0.94643 0.0
C338 C 0.63417 0.30888 1.00472 0.0
C339 C 0.64807 0.33714 0.03256 0.0
C340 C 0.62168 0.31692 0.96124 0.0
C341 C 0.65332 0.37264 0.01526 0.0
C342 C 0.64225 0.3806 0.97184 0.0
C343 C 0.60661 0.36268 0.90471 0.0
C344 C 0.58372 0.33662 0.88103 0.0
C345 C 0.62476 0.35333 0.9452 0.0
C346 C 0.58327 0.30001 0.89538 0.0
C347 C 0.60276 0.29006 0.93487 0.0
H348 H 0.89052 0.20704 0.51387 0.0
H349 H 0.8308 0.1011 0.51938 0.0
H350 H 0.85246 0.08867 0.44344 0.0
H351 H 0.8999 0.10276 0.38187 0.0
H352 H 0.96436 0.20622 0.37791 0.0
H353 H 0.92841 0.22555 0.44572 0.0
C354 C 0.88133 0.18174 0.49788 0.0
C355 C 0.85986 0.1547 0.5223 0.0
C356 C 0.89484 0.17439 0.4544 0.0
C357 C 0.84805 0.12199 0.50137 0.0
C358 C 0.86035 0.11489 0.45796 0.0
C359 C 0.90439 0.1302 0.39482 0.0
C360 C 0.93411 0.15329 0.37499 0.0
C361 C 0.88535 0.14015 0.43492 0.0
C362 C 0.94087 0.18838 0.39241 0.0
C363 C 0.92086 0.19913 0.43155 0.0
H364 H 0.87002 0.78611 0.99071 0.0
H365 H 0.84123 0.89915 0.01847 0.0
H366 H 0.86141 0.91661 0.94343 0.0
H367 H 0.90129 0.90174 0.87683 0.0
H368 H 0.93356 0.78971 0.84864 0.0
H369 H 0.89695 0.76942 0.91597 0.0
C370 C 0.86686 0.81426 0.97961 0.0
C371 C 0.85474 0.84147 0.00994 0.0
C372 C 0.87955 0.82425 0.93649 0.0
C373 C 0.85083 0.87792 0.99557 0.0
C374 C 0.8625 0.88792 0.95277 0.0
C375 C 0.89866 0.87273 0.88454 0.0
C376 C 0.92014 0.84723 0.85831 0.0
C377 C 0.87892 0.86164 0.92383 0.0
C378 C 0.91689 0.80973 0.86836 0.0
C379 C 0.89653 0.79825 0.90722 0.0
H380 H 0.65932 0.6958 0.49882 0.0
H381 H 0.68089 0.5813 0.52582 0.0
H382 H 0.65948 0.56536 0.45121 0.0
H383 H 0.61962 0.5826 0.38597 0.0
H384 H 0.59408 0.69622 0.35932 0.0
H385 H 0.63324 0.71424 0.42499 0.0
C386 C 0.66065 0.66758 0.48769 0.0
C387 C 0.67075 0.63963 0.51788 0.0
C388 C 0.64729 0.6585 0.44484 0.0
C389 C 0.67248 0.60313 0.50325 0.0
C390 C 0.66021 0.594 0.46064 0.0
C391 C 0.62457 0.61138 0.3934 0.0
C392 C 0.60421 0.63808 0.36816 0.0
C393 C 0.64542 0.62122 0.4321 0.0
C394 C 0.61005 0.67528 0.37812 0.0
C395 C 0.63178 0.68549 0.41614 0.0
H396 H 0.34001 0.65627 0.02111 0.0
H397 H 0.45697 0.69696 0.96978 0.0
H398 H 0.48775 0.69247 0.04319 0.0
H399 H 0.48467 0.66731 0.11799 0.0
H400 H 0.37091 0.61953 0.16781 0.0
H401 H 0.33484 0.63736 0.09977 0.0
C402 C 0.37188 0.66498 0.02649 0.0
C403 C 0.39641 0.67685 0.99039 0.0
C404 C 0.38975 0.66098 0.06851 0.0
C405 C 0.43778 0.68765 0.99725 0.0
C406 C 0.4553 0.68505 0.03911 0.0
C407 C 0.45152 0.66221 0.1145 0.0
C408 C 0.4301 0.64276 0.14771 0.0
C409 C 0.43205 0.67051 0.07451 0.0
C410 C 0.38758 0.63517 0.14281 0.0
C411 C 0.36727 0.64488 0.10369 0.0
H412 H 0.15154 0.78701 0.50571 0.0
H413 H 0.18314 0.89932 0.47594 0.0
H414 H 0.16132 0.91798 0.54996 0.0
H415 H 0.11924 0.90431 0.6158 0.0
H416 H 0.0852 0.79276 0.64605 0.0
H417 H 0.1228 0.77146 0.58005 0.0
C418 C 0.15517 0.81523 0.51628 0.0
C419 C 0.16863 0.84189 0.48564 0.0
C420 C 0.14151 0.8259 0.55872 0.0
C421 C 0.17285 0.87847 0.49921 0.0
C422 C 0.16007 0.88916 0.54136 0.0
C423 C 0.12159 0.8752 0.60881 0.0
C424 C 0.09943 0.85011 0.63528 0.0
C425 C 0.1423 0.86345 0.57042 0.0
C426 C 0.10236 0.81248 0.62613 0.0
C427 C 0.12339 0.8004 0.58809 0.0
H428 H 0.22378 0.27273 0.27624 0.0
H429 H 0.28521 0.20093 0.36837 0.0
H430 H 0.23546 0.15238 0.3527 0.0
H431 H 0.16985 0.13305 0.3208 0.0
H432 H 0.10467 0.20407 0.23095 0.0
H433 H 0.16086 0.24973 0.23657 0.0
C434 C 0.22648 0.24618 0.29214 0.0
C435 C 0.25761 0.24073 0.32397 0.0
C436 C 0.19701 0.21833 0.28352 0.0
C437 C 0.26113 0.20615 0.34436 0.0
C438 C 0.2327 0.1783 0.33535 0.0
C439 C 0.16822 0.15827 0.30176 0.0
C440 C 0.13289 0.16543 0.27603 0.0
C441 C 0.19979 0.18452 0.30622 0.0
C442 C 0.13155 0.19791 0.25101 0.0
C443 C 0.16349 0.22416 0.25463 0.0
H444 H 0.2984 0.21198 0.7691 0.0
H445 H 0.22899 0.28333 0.85584 0.0
H446 H 0.27773 0.3332 0.84081 0.0
H447 H 0.34531 0.35309 0.81307 0.0
H448 H 0.41919 0.28159 0.73089 0.0
H449 H 0.36313 0.23561 0.73259 0.0
C450 C 0.29376 0.23876 0.78382 0.0
C451 C 0.26091 0.24385 0.81417 0.0
C452 C 0.32277 0.26711 0.77596 0.0
C453 C 0.25464 0.27859 0.8331 0.0
C454 C 0.28242 0.30711 0.82444 0.0
C455 C 0.34877 0.32774 0.7947 0.0
C456 C 0.38639 0.32037 0.77248 0.0
C457 C 0.31743 0.30117 0.79747 0.0
C458 C 0.39039 0.28781 0.74819 0.0
C459 C 0.35856 0.26138 0.74967 0.0
H460 H 0.73002 0.21966 0.75315 0.0
H461 H 0.79558 0.2905 0.66184 0.0
H462 H 0.7479 0.34054 0.6789 0.0
H463 H 0.68146 0.36041 0.70951 0.0
H464 H 0.61103 0.28887 0.79582 0.0
H465 H 0.6672 0.24337 0.79258 0.0
C466 C 0.73414 0.24637 0.73789 0.0
C467 C 0.76548 0.25125 0.70571 0.0
C468 C 0.70565 0.27477 0.74689 0.0
C469 C 0.77107 0.28591 0.68605 0.0
C470 C 0.74388 0.31453 0.69586 0.0
C471 C 0.67882 0.33521 0.7285 0.0
C472 C 0.64196 0.32766 0.75224 0.0
C473 C 0.71009 0.30873 0.72468 0.0
C474 C 0.63915 0.29528 0.77731 0.0
C475 C 0.67103 0.26907 0.77493 0.0
H476 H 0.78837 0.27354 0.25485 0.0
H477 H 0.72349 0.20292 0.16438 0.0
H478 H 0.77516 0.15507 0.17513 0.0
H479 H 0.84298 0.1365 0.20174 0.0
H480 H 0.91185 0.20638 0.28944 0.0
H481 H 0.85424 0.25087 0.28943 0.0
C482 C 0.78539 0.24737 0.23826 0.0
C483 C 0.75271 0.24206 0.2082 0.0
C484 C 0.81602 0.21999 0.24393 0.0
C485 C 0.74883 0.20798 0.18694 0.0
C486 C 0.77832 0.18056 0.19315 0.0
C487 C 0.84512 0.16118 0.22156 0.0
C488 C 0.88177 0.16845 0.24503 0.0
C489 C 0.81271 0.18677 0.22024 0.0
C490 C 0.8839 0.20019 0.2711 0.0
C491 C 0.85113 0.22577 0.27067 0.0
H492 H 0.8157 0.70262 0.65718 0.0
H493 H 0.73732 0.75895 0.7508 0.0
H494 H 0.79681 0.79692 0.77383 0.0
H495 H 0.86966 0.81841 0.76024 0.0
H496 H 0.94595 0.76068 0.66529 0.0
H497 H 0.8892 0.71825 0.65061 0.0
C498 C 0.81173 0.72316 0.68271 0.0
C499 C 0.77219 0.729 0.70149 0.0
C500 C 0.84582 0.74439 0.69566 0.0
C501 C 0.76756 0.75467 0.73555 0.0
C502 C 0.80149 0.77625 0.74863 0.0
C503 C 0.874 0.79588 0.73734 0.0
C504 C 0.91162 0.79279 0.71348 0.0
C505 C 0.84063 0.77198 0.72808 0.0
C506 C 0.91703 0.76368 0.68369 0.0
C507 C 0.88457 0.73955 0.67507 0.0
H508 H 0.74461 0.7472 0.20367 0.0
H509 H 0.69004 0.76529 0.07592 0.0
H510 H 0.62986 0.72798 0.09674 0.0
H511 H 0.59487 0.688 0.14853 0.0
H512 H 0.64694 0.66676 0.27677 0.0
H513 H 0.70577 0.70805 0.25908 0.0
C514 C 0.71931 0.74308 0.18076 0.0
C515 C 0.72145 0.75877 0.13802 0.0
C516 C 0.68463 0.72111 0.19302 0.0
C517 C 0.68868 0.7533 0.1087 0.0
C518 C 0.65442 0.73203 0.12059 0.0
C519 C 0.61901 0.69232 0.17285 0.0
C520 C 0.61689 0.67387 0.21363 0.0
C521 C 0.6524 0.71542 0.16226 0.0
C522 C 0.64793 0.68055 0.24505 0.0
C523 C 0.68165 0.70399 0.23478 0.0
H524 H 0.31415 0.79271 0.33062 0.0
H525 H 0.23465 0.71966 0.25838 0.0
H526 H 0.29531 0.68222 0.23711 0.0
H527 H 0.37002 0.66615 0.2483 0.0
H528 H 0.44782 0.74078 0.32112 0.0
H529 H 0.38926 0.78217 0.33192 0.0
C530 C 0.31023 0.76879 0.30984 0.0
C531 C 0.27004 0.75823 0.29691 0.0
C532 C 0.34507 0.74775 0.29779 0.0
C533 C 0.26539 0.72787 0.26902 0.0
C534 C 0.30002 0.70651 0.25701 0.0
C535 C 0.37431 0.69204 0.26524 0.0
C536 C 0.41308 0.70022 0.28433 0.0
C537 C 0.33995 0.71556 0.27235 0.0
C538 C 0.41819 0.73375 0.30645 0.0
C539 C 0.38465 0.75735 0.31294 0.0
H540 H 0.25313 0.74217 0.76724 0.0
H541 H 0.21135 0.70549 0.89571 0.0
H542 H 0.14366 0.73376 0.8842 0.0
H543 H 0.09905 0.77319 0.84136 0.0
H544 H 0.14086 0.81607 0.71562 0.0
H545 H 0.20533 0.78028 0.72141 0.0
C546 C 0.22889 0.74034 0.79233 0.0
C547 C 0.23725 0.72253 0.83249 0.0
C548 C 0.19019 0.7576 0.78589 0.0
C549 C 0.20582 0.71981 0.86494 0.0
C550 C 0.16709 0.73578 0.85829 0.0
C551 C 0.12202 0.77456 0.81488 0.0
C552 C 0.11535 0.79753 0.77829 0.0
C553 C 0.15937 0.75543 0.81944 0.0
C554 C 0.14516 0.79846 0.74403 0.0
C555 C 0.1822 0.77831 0.74761 0.0
loop_
_geom_bond_atom_site_label_1
_geom_bond_atom_site_label_2
_geom_bond_distance
_geom_bond_site_symmetry_2
_ccdc_geom_bond_type
H0 C5 0.929 . S
H1 C10 0.931 . S
H2 C8 0.930 . S
N3 N4 1.234 . S
N3 C7 1.453 . S
N4 N3 1.234 . S
C5 H0 0.929 . S
C5 C6 1.373 . S
C5 C7 1.368 . S
C6 C5 1.373 . S
C6 C10 1.397 . S
C7 N3 1.453 . S
C7 C5 1.368 . S
C7 C8 1.373 . S
C8 H2 0.930 . S
C8 C7 1.373 . S
C8 C9 1.371 . S
C9 C8 1.371 . S
C9 C10 1.383 . S
C10 H1 0.931 . S
C10 C6 1.397 . S
C10 C9 1.383 . S
H11 C16 0.929 . S
H12 C21 0.931 . S
H13 C19 0.930 . S
N14 N15 1.234 . S
N14 C18 1.453 . S
N15 N14 1.234 . S
C16 H11 0.929 . S
C16 C17 1.373 . S
C16 C18 1.368 . S
C17 C16 1.373 . S
C17 C21 1.397 . S
C18 N14 1.453 . S
C18 C16 1.368 . S
C18 C19 1.373 . S
C19 H13 0.930 . S
C19 C18 1.373 . S
C19 C20 1.371 . S
C20 C19 1.371 . S
C20 C21 1.383 . S
C21 H12 0.931 . S
C21 C17 1.397 . S
C21 C20 1.383 . S
H22 C27 0.929 . S
H23 C32 0.931 . S
H24 C30 0.930 . S
N25 N26 1.234 . S
N25 C29 1.453 . S
N26 N25 1.234 . S
C27 H22 0.929 . S
C27 C28 1.373 . S
C27 C29 1.368 . S
C28 C27 1.373 . S
C28 C32 1.397 . S
C29 N25 1.453 . S
C29 C27 1.368 . S
C29 C30 1.373 . S
C30 H24 0.930 . S
C30 C29 1.373 . S
C30 C31 1.371 . S
C31 C30 1.371 . S
C31 C32 1.383 . S
C32 H23 0.931 . S
C32 C28 1.397 . S
C32 C31 1.383 . S
H33 C38 0.929 . S
H34 C43 0.931 . S
H35 C41 0.930 . S
N36 N37 1.234 . S
N36 C40 1.453 . S
N37 N36 1.234 . S
C38 H33 0.929 . S
C38 C39 1.373 . S
C38 C40 1.368 . S
C39 C38 1.373 . S
C39 C43 1.397 . S
C40 N36 1.453 . S
C40 C38 1.368 . S
C40 C41 1.373 . S
C41 H35 0.930 . S
C41 C40 1.373 . S
C41 C42 1.371 . S
C42 C41 1.371 . S
C42 C43 1.383 . S
C43 H34 0.931 . S
C43 C39 1.397 . S
C43 C42 1.383 . S
H44 C49 0.929 . S
H45 C54 0.931 . S
H46 C52 0.930 . S
N47 N48 1.234 . S
N47 C51 1.453 . S
N48 N47 1.234 . S
C49 H44 0.929 . S
C49 C50 1.373 . S
C49 C51 1.368 . S
C50 C49 1.373 . S
C50 C54 1.397 . S
C51 N47 1.453 . S
C51 C49 1.368 . S
C51 C52 1.373 . S
C52 H46 0.930 . S
C52 C51 1.373 . S
C52 C53 1.371 . S
C53 C52 1.371 . S
C53 C54 1.383 . S
C54 H45 0.931 . S
C54 C50 1.397 . S
C54 C53 1.383 . S
H55 C60 0.929 . S
H56 C65 0.931 . S
H57 C63 0.930 . S
N58 N59 1.234 . S
N58 C62 1.453 . S
N59 N58 1.234 . S
C60 H55 0.929 . S
C60 C61 1.373 . S
C60 C62 1.368 . S
C61 C60 1.373 . S
C61 C65 1.397 . S
C62 N58 1.453 . S
C62 C60 1.368 . S
C62 C63 1.373 . S
C63 H57 0.930 . S
C63 C62 1.373 . S
C63 C64 1.371 . S
C64 C63 1.371 . S
C64 C65 1.383 . S
C65 H56 0.931 . S
C65 C61 1.397 . S
C65 C64 1.383 . S
H66 C71 0.929 . S
H67 C76 0.931 . S
H68 C74 0.930 . S
N69 N70 1.234 . S
N69 C73 1.453 . S
N70 N69 1.234 . S
C71 H66 0.929 . S
C71 C72 1.373 . S
C71 C73 1.368 . S
C72 C71 1.373 . S
C72 C76 1.397 . S
C73 N69 1.453 . S
C73 C71 1.368 . S
C73 C74 1.373 . S
C74 H68 0.930 . S
C74 C73 1.373 . S
C74 C75 1.371 . S
C75 C74 1.371 . S
C75 C76 1.383 . S
C76 H67 0.931 . S
C76 C72 1.397 . S
C76 C75 1.383 . S
H77 C82 0.929 . S
H78 C87 0.931 . S
H79 C85 0.930 . S
N80 N81 1.234 . S
N80 C84 1.453 . S
N81 N80 1.234 . S
C82 H77 0.929 . S
C82 C83 1.373 . S
C82 C84 1.368 . S
C83 C82 1.373 . S
C83 C87 1.397 . S
C84 N80 1.453 . S
C84 C82 1.368 . S
C84 C85 1.373 . S
C85 H79 0.930 . S
C85 C84 1.373 . S
C85 C86 1.371 . S
C86 C85 1.371 . S
C86 C87 1.383 . S
C87 H78 0.931 . S
C87 C83 1.397 . S
C87 C86 1.383 . S
Zn88 O94 1.920 . S
Zn88 O100 1.898 . S
Zn88 O103 1.905 . S
Zn89 O97 1.905 1_655 S
Zn89 O98 1.898 . S
Zn89 O106 1.920 . S
Zn90 O93 2.080 1_455 S
Zn90 O96 2.114 . S
Zn90 O99 2.120 1_455 S
Zn90 O101 2.120 . S
Zn90 O102 2.114 . S
Zn90 O105 2.080 1_455 S
C91 O96 1.166 . S
C91 O97 1.182 . S
C92 O98 1.167 . S
C92 O99 1.299 . S
O93 Zn90 2.080 1_655 S
O93 C107 1.305 . S
O94 Zn88 1.920 . S
O94 C107 1.234 1_455 S
C95 O100 1.167 . S
C95 O101 1.299 . S
O96 Zn90 2.114 . S
O96 C91 1.166 . S
O97 Zn89 1.905 1_455 S
O97 C91 1.182 . S
O98 Zn89 1.898 . S
O98 C92 1.167 . S
O99 Zn90 2.120 1_655 S
O99 C92 1.299 . S
O100 Zn88 1.898 . S
O100 C95 1.167 . S
O101 Zn90 2.120 . S
O101 C95 1.299 . S
O102 Zn90 2.114 . S
O102 C104 1.166 . S
O103 Zn88 1.905 . S
O103 C104 1.182 . S
C104 O102 1.166 . S
C104 O103 1.182 . S
O105 Zn90 2.080 1_655 S
O105 C108 1.305 . S
O106 Zn89 1.920 . S
O106 C108 1.234 . S
C107 O93 1.305 . S
C107 O94 1.234 1_655 S
C108 O105 1.305 . S
C108 O106 1.234 . S
Zn109 O115 1.920 . S
Zn109 O121 1.898 . S
Zn109 O124 1.905 . S
Zn110 O118 1.905 . S
Zn110 O119 1.898 . S
Zn110 O127 1.920 . S
Zn111 O114 2.080 . S
Zn111 O117 2.114 . S
Zn111 O120 2.120 . S
Zn111 O122 2.120 . S
Zn111 O123 2.114 . S
Zn111 O126 2.080 . S
C112 O117 1.166 . S
C112 O118 1.182 . S
C113 O119 1.167 . S
C113 O120 1.299 . S
O114 Zn111 2.080 . S
O114 C128 1.305 . S
O115 Zn109 1.920 . S
O115 C128 1.234 . S
C116 O121 1.167 . S
C116 O122 1.299 . S
O117 Zn111 2.114 . S
O117 C112 1.166 . S
O118 Zn110 1.905 . S
O118 C112 1.182 . S
O119 Zn110 1.898 . S
O119 C113 1.167 . S
O120 Zn111 2.120 . S
O120 C113 1.299 . S
O121 Zn109 1.898 . S
O121 C116 1.167 . S
O122 Zn111 2.120 . S
O122 C116 1.299 . S
O123 Zn111 2.114 . S
O123 C125 1.166 . S
O124 Zn109 1.905 . S
O124 C125 1.182 . S
C125 O123 1.166 . S
C125 O124 1.182 . S
O126 Zn111 2.080 . S
O126 C129 1.305 . S
O127 Zn110 1.920 . S
O127 C129 1.234 . S
C128 O114 1.305 . S
C128 O115 1.234 . S
C129 O126 1.305 . S
C129 O127 1.234 . S
Zn130 O136 1.920 . S
Zn130 O142 1.898 . S
Zn130 O145 1.905 1_455 S
Zn131 O139 1.905 . S
Zn131 O140 1.898 . S
Zn131 O148 1.920 1_655 S
Zn132 O135 2.080 . S
Zn132 O138 2.114 1_455 S
Zn132 O141 2.120 1_455 S
Zn132 O143 2.120 . S
Zn132 O144 2.114 1_455 S
Zn132 O147 2.080 . S
C133 O138 1.166 . S
C133 O139 1.182 . S
C134 O140 1.167 . S
C134 O141 1.299 . S
O135 Zn132 2.080 . S
O135 C149 1.305 . S
O136 Zn130 1.920 . S
O136 C149 1.234 . S
C137 O142 1.167 . S
C137 O143 1.299 . S
O138 Zn132 2.114 1_655 S
O138 C133 1.166 . S
O139 Zn131 1.905 . S
O139 C133 1.182 . S
O140 Zn131 1.898 . S
O140 C134 1.167 . S
O141 Zn132 2.120 1_655 S
O141 C134 1.299 . S
O142 Zn130 1.898 . S
O142 C137 1.167 . S
O143 Zn132 2.120 . S
O143 C137 1.299 . S
O144 Zn132 2.114 1_655 S
O144 C146 1.166 . S
O145 Zn130 1.905 1_655 S
O145 C146 1.182 . S
C146 O144 1.166 . S
C146 O145 1.182 . S
O147 Zn132 2.080 . S
O147 C150 1.305 . S
O148 Zn131 1.920 1_455 S
O148 C150 1.234 . S
C149 O135 1.305 . S
C149 O136 1.234 . S
C150 O147 1.305 . S
C150 O148 1.234 . S
Zn151 O157 1.920 . S
Zn151 O163 1.898 . S
Zn151 O166 1.905 . S
Zn152 O160 1.905 . S
Zn152 O161 1.898 . S
Zn152 O169 1.920 . S
Zn153 O156 2.080 . S
Zn153 O159 2.114 . S
Zn153 O162 2.120 . S
Zn153 O164 2.120 . S
Zn153 O165 2.114 . S
Zn153 O168 2.080 . S
C154 O159 1.166 . S
C154 O160 1.182 . S
C155 O161 1.167 . S
C155 O162 1.299 . S
O156 Zn153 2.080 . S
O156 C170 1.305 . S
O157 Zn151 1.920 . S
O157 C170 1.234 . S
C158 O163 1.167 . S
C158 O164 1.299 . S
O159 Zn153 2.114 . S
O159 C154 1.166 . S
O160 Zn152 1.905 . S
O160 C154 1.182 . S
O161 Zn152 1.898 . S
O161 C155 1.167 . S
O162 Zn153 2.120 . S
O162 C155 1.299 . S
O163 Zn151 1.898 . S
O163 C158 1.167 . S
O164 Zn153 2.120 . S
O164 C158 1.299 . S
O165 Zn153 2.114 . S
O165 C167 1.166 . S
O166 Zn151 1.905 . S
O166 C167 1.182 . S
C167 O165 1.166 . S
C167 O166 1.182 . S
O168 Zn153 2.080 . S
O168 C171 1.305 . S
O169 Zn152 1.920 . S
O169 C171 1.234 . S
C170 O156 1.305 . S
C170 O157 1.234 . S
C171 O168 1.305 . S
C171 O169 1.234 . S
H172 C178 0.930 . S
H173 C181 0.930 . S
H174 C182 0.930 . S
H175 C183 0.930 . S
H176 C186 0.930 . S
H177 C187 0.930 . S
C178 H172 0.930 . S
C178 C179 1.355 . S
C178 C180 1.415 . S
C179 C178 1.355 . S
C179 C181 1.419 . S
C180 C178 1.415 . S
C180 C185 1.425 . S
C180 C187 1.409 . S
C181 H173 0.930 . S
C181 C179 1.419 . S
C181 C182 1.362 . S
C182 H174 0.930 . S
C182 C181 1.362 . S
C182 C185 1.409 . S
C183 H175 0.930 . S
C183 C184 1.355 1_565 S
C183 C185 1.415 . S
C184 C183 1.355 1_545 S
C184 C186 1.419 . S
C185 C180 1.425 . S
C185 C182 1.409 . S
C185 C183 1.415 . S
C186 H176 0.930 . S
C186 C184 1.419 . S
C186 C187 1.362 1_545 S
C187 H177 0.930 . S
C187 C180 1.409 . S
C187 C186 1.362 1_565 S
H188 C194 0.930 . S
H189 C197 0.930 . S
H190 C198 0.930 . S
H191 C199 0.930 . S
H192 C202 0.930 . S
H193 C203 0.930 . S
C194 H188 0.930 . S
C194 C195 1.355 . S
C194 C196 1.415 . S
C195 C194 1.355 . S
C195 C197 1.419 . S
C196 C194 1.415 . S
C196 C201 1.425 . S
C196 C203 1.409 . S
C197 H189 0.930 . S
C197 C195 1.419 . S
C197 C198 1.362 . S
C198 H190 0.930 . S
C198 C197 1.362 . S
C198 C201 1.409 . S
C199 H191 0.930 . S
C199 C200 1.355 . S
C199 C201 1.415 . S
C200 C199 1.355 . S
C200 C202 1.419 . S
C201 C196 1.425 . S
C201 C198 1.409 . S
C201 C199 1.415 . S
C202 H192 0.930 . S
C202 C200 1.419 . S
C202 C203 1.362 . S
C203 H193 0.930 . S
C203 C196 1.409 . S
C203 C202 1.362 . S
H204 C210 0.930 . S
H205 C213 0.930 . S
H206 C214 0.930 . S
H207 C215 0.930 . S
H208 C218 0.930 . S
H209 C219 0.930 . S
C210 H204 0.930 . S
C210 C211 1.355 . S
C210 C212 1.415 . S
C211 C210 1.355 . S
C211 C213 1.419 . S
C212 C210 1.415 . S
C212 C217 1.425 . S
C212 C219 1.409 . S
C213 H205 0.930 . S
C213 C211 1.419 . S
C213 C214 1.362 . S
C214 H206 0.930 . S
C214 C213 1.362 . S
C214 C217 1.409 . S
C215 H207 0.930 . S
C215 C216 1.355 . S
C215 C217 1.415 . S
C216 C215 1.355 . S
C216 C218 1.419 . S
C217 C212 1.425 . S
C217 C214 1.409 . S
C217 C215 1.415 . S
C218 H208 0.930 . S
C218 C216 1.419 . S
C218 C219 1.362 . S
C219 H209 0.930 . S
C219 C212 1.409 . S
C219 C218 1.362 . S
H220 C226 0.930 . S
H221 C229 0.930 . S
H222 C230 0.930 . S
H223 C231 0.930 . S
H224 C234 0.930 . S
H225 C235 0.931 . S
C226 H220 0.930 . S
C226 C227 1.355 . S
C226 C228 1.415 . S
C227 C226 1.355 . S
C227 C229 1.419 . S
C228 C226 1.415 . S
C228 C233 1.425 . S
C228 C235 1.404 1_565 S
C229 H221 0.930 . S
C229 C227 1.419 . S
C229 C230 1.362 . S
C230 H222 0.930 . S
C230 C229 1.362 . S
C230 C233 1.409 . S
C231 H223 0.930 . S
C231 C232 1.355 1_565 S
C231 C233 1.415 . S
C232 C231 1.355 1_545 S
C232 C234 1.419 . S
C233 C228 1.425 . S
C233 C230 1.409 . S
C233 C231 1.415 . S
C234 H224 0.930 . S
C234 C232 1.419 . S
C234 C235 1.366 . S
C235 H225 0.931 . S
C235 C228 1.404 1_545 S
C235 C234 1.366 . S
H236 C242 0.930 . S
H237 C245 0.930 . S
H238 C246 0.930 . S
H239 C247 0.930 . S
H240 C250 0.930 1_455 S
H241 C251 0.930 . S
C242 H236 0.930 . S
C242 C243 1.355 . S
C242 C244 1.415 . S
C243 C242 1.355 . S
C243 C245 1.419 . S
C244 C242 1.415 . S
C244 C249 1.425 . S
C244 C251 1.409 . S
C245 H237 0.930 . S
C245 C243 1.419 . S
C245 C246 1.362 . S
C246 H238 0.930 . S
C246 C245 1.362 . S
C246 C249 1.409 . S
C247 H239 0.930 . S
C247 C248 1.355 . S
C247 C249 1.415 1_565 S
C248 C247 1.355 . S
C248 C250 1.419 1_565 S
C249 C244 1.425 . S
C249 C246 1.409 . S
C249 C247 1.415 1_545 S
C250 H240 0.930 1_655 S
C250 C248 1.419 1_545 S
C250 C251 1.362 . S
C251 H241 0.930 . S
C251 C244 1.409 . S
C251 C250 1.362 . S
H252 C258 0.930 . S
H253 C261 0.930 . S
H254 C262 0.930 . S
H255 C263 0.930 . S
H256 C266 0.930 . S
H257 C267 0.930 . S
C258 H252 0.930 . S
C258 C259 1.355 . S
C258 C260 1.415 . S
C259 C258 1.355 . S
C259 C261 1.419 . S
C260 C258 1.415 . S
C260 C265 1.425 . S
C260 C267 1.409 . S
C261 H253 0.930 . S
C261 C259 1.419 . S
C261 C262 1.362 . S
C262 H254 0.930 . S
C262 C261 1.362 . S
C262 C265 1.409 . S
C263 H255 0.930 . S
C263 C264 1.355 . S
C263 C265 1.415 . S
C264 C263 1.355 . S
C264 C266 1.419 . S
C265 C260 1.425 . S
C265 C262 1.409 . S
C265 C263 1.415 . S
C266 H256 0.930 . S
C266 C264 1.419 . S
C266 C267 1.362 . S
C267 H257 0.930 . S
C267 C260 1.409 . S
C267 C266 1.362 . S
H268 C274 0.930 . S
H269 C277 0.930 . S
H270 C278 0.930 . S
H271 C279 0.930 . S
H272 C282 0.930 . S
H273 C283 0.930 . S
C274 H268 0.930 . S
C274 C275 1.355 . S
C274 C276 1.415 . S
C275 C274 1.355 . S
C275 C277 1.419 . S
C276 C274 1.415 . S
C276 C281 1.425 . S
C276 C283 1.409 . S
C277 H269 0.930 . S
C277 C275 1.419 . S
C277 C278 1.362 . S
C278 H270 0.930 . S
C278 C277 1.362 . S
C278 C281 1.409 . S
C279 H271 0.930 . S
C279 C280 1.355 . S
C279 C281 1.415 . S
C280 C279 1.355 . S
C280 C282 1.419 . S
C281 C276 1.425 . S
C281 C278 1.409 . S
C281 C279 1.415 . S
C282 H272 0.930 . S
C282 C280 1.419 . S
C282 C283 1.362 . S
C283 H273 0.930 . S
C283 C276 1.409 . S
C283 C282 1.362 . S
H284 C290 0.930 . S
H285 C293 0.930 . S
H286 C294 0.930 . S
H287 C295 0.930 . S
H288 C298 0.930 . S
H289 C299 0.930 . S
C290 H284 0.930 . S
C290 C291 1.355 . S
C290 C292 1.415 . S
C291 C290 1.355 . S
C291 C293 1.419 . S
C292 C290 1.415 . S
C292 C297 1.425 . S
C292 C299 1.409 . S
C293 H285 0.930 . S
C293 C291 1.419 . S
C293 C294 1.362 . S
C294 H286 0.930 . S
C294 C293 1.362 . S
C294 C297 1.409 . S
C295 H287 0.930 . S
C295 C296 1.355 . S
C295 C297 1.415 1_565 S
C296 C295 1.355 . S
C296 C298 1.419 1_565 S
C297 C292 1.425 . S
C297 C294 1.409 . S
C297 C295 1.415 1_545 S
C298 H288 0.930 . S
C298 C296 1.419 1_545 S
C298 C299 1.362 . S
C299 H289 0.930 . S
C299 C292 1.409 . S
C299 C298 1.362 . S
H300 C306 0.930 . S
H301 C309 0.930 1_556 S
H302 C310 0.930 . S
H303 C311 0.930 . S
H304 C314 0.930 . S
H305 C315 0.930 . S
C306 H300 0.930 . S
C306 C307 1.355 1_554 S
C306 C308 1.415 . S
C307 C306 1.355 1_556 S
C307 C309 1.419 1_556 S
C308 C306 1.415 . S
C308 C313 1.425 . S
C308 C315 1.409 . S
C309 H301 0.930 1_554 S
C309 C307 1.419 1_554 S
C309 C310 1.362 . S
C310 H302 0.930 . S
C310 C309 1.362 . S
C310 C313 1.409 . S
C311 H303 0.930 . S
C311 C312 1.355 . S
C311 C313 1.415 . S
C312 C311 1.355 . S
C312 C314 1.419 . S
C313 C308 1.425 . S
C313 C310 1.409 . S
C313 C311 1.415 . S
C314 H304 0.930 . S
C314 C312 1.419 . S
C314 C315 1.362 . S
C315 H305 0.930 . S
C315 C308 1.409 . S
C315 C314 1.362 . S
H316 C322 0.930 . S
H317 C325 0.930 . S
H318 C326 0.930 . S
H319 C327 0.930 . S
H320 C330 0.930 . S
H321 C331 0.930 . S
C322 H316 0.930 . S
C322 C323 1.355 . S
C322 C324 1.415 . S
C323 C322 1.355 . S
C323 C325 1.419 . S
C324 C322 1.415 . S
C324 C329 1.425 . S
C324 C331 1.409 . S
C325 H317 0.930 . S
C325 C323 1.419 . S
C325 C326 1.362 . S
C326 H318 0.930 . S
C326 C325 1.362 . S
C326 C329 1.409 . S
C327 H319 0.930 . S
C327 C328 1.355 . S
C327 C329 1.415 . S
C328 C327 1.355 . S
C328 C330 1.419 . S
C329 C324 1.425 . S
C329 C326 1.409 . S
C329 C327 1.415 . S
C330 H320 0.930 . S
C330 C328 1.419 . S
C330 C331 1.362 . S
C331 H321 0.930 . S
C331 C324 1.409 . S
C331 C330 1.362 . S
H332 C338 0.930 . S
H333 C341 0.930 . S
H334 C342 0.930 . S
H335 C343 0.930 . S
H336 C346 0.930 . S
H337 C347 0.930 . S
C338 H332 0.930 . S
C338 C339 1.355 . S
C338 C340 1.415 1_554 S
C339 C338 1.355 . S
C339 C341 1.419 1_554 S
C340 C338 1.415 1_556 S
C340 C345 1.425 . S
C340 C347 1.409 . S
C341 H333 0.930 . S
C341 C339 1.419 1_556 S
C341 C342 1.362 . S
C342 H334 0.930 . S
C342 C341 1.362 . S
C342 C345 1.409 . S
C343 H335 0.930 . S
C343 C344 1.355 . S
C343 C345 1.415 . S
C344 C343 1.355 . S
C344 C346 1.419 . S
C345 C340 1.425 . S
C345 C342 1.409 . S
C345 C343 1.415 . S
C346 H336 0.930 . S
C346 C344 1.419 . S
C346 C347 1.362 . S
C347 H337 0.930 . S
C347 C340 1.409 . S
C347 C346 1.362 . S
H348 C354 0.930 . S
H349 C357 0.930 . S
H350 C358 0.930 . S
H351 C359 0.930 . S
H352 C362 0.930 . S
H353 C363 0.930 . S
C354 H348 0.930 . S
C354 C355 1.355 . S
C354 C356 1.415 . S
C355 C354 1.355 . S
C355 C357 1.419 . S
C356 C354 1.415 . S
C356 C361 1.425 . S
C356 C363 1.409 . S
C357 H349 0.930 . S
C357 C355 1.419 . S
C357 C358 1.362 . S
C358 H350 0.930 . S
C358 C357 1.362 . S
C358 C361 1.409 . S
C359 H351 0.930 . S
C359 C360 1.355 . S
C359 C361 1.415 . S
C360 C359 1.355 . S
C360 C362 1.419 . S
C361 C356 1.425 . S
C361 C358 1.409 . S
C361 C359 1.415 . S
C362 H352 0.930 . S
C362 C360 1.419 . S
C362 C363 1.362 . S
C363 H353 0.930 . S
C363 C356 1.409 . S
C363 C362 1.362 . S
H364 C370 0.930 . S
H365 C373 0.930 . S
H366 C374 0.930 . S
H367 C375 0.930 . S
H368 C378 0.931 1_455 S
H369 C379 0.930 . S
C370 H364 0.930 . S
C370 C371 1.355 . S
C370 C372 1.415 1_554 S
C371 C370 1.355 . S
C371 C373 1.419 1_554 S
C372 C370 1.415 1_556 S
C372 C377 1.425 . S
C372 C379 1.409 . S
C373 H365 0.930 . S
C373 C371 1.419 1_556 S
C373 C374 1.362 . S
C374 H366 0.930 . S
C374 C373 1.362 . S
C374 C377 1.409 . S
C375 H367 0.930 . S
C375 C376 1.355 . S
C375 C377 1.415 . S
C376 C375 1.355 . S
C376 C378 1.419 . S
C377 C372 1.425 . S
C377 C374 1.409 . S
C377 C375 1.415 . S
C378 H368 0.931 1_655 S
C378 C376 1.419 . S
C378 C379 1.362 . S
C379 H369 0.930 . S
C379 C372 1.409 . S
C379 C378 1.362 . S
H380 C386 0.930 . S
H381 C389 0.930 . S
H382 C390 0.930 . S
H383 C391 0.930 . S
H384 C394 0.930 . S
H385 C395 0.930 . S
C386 H380 0.930 . S
C386 C387 1.355 . S
C386 C388 1.415 . S
C387 C386 1.355 . S
C387 C389 1.419 . S
C388 C386 1.415 . S
C388 C393 1.425 . S
C388 C395 1.409 . S
C389 H381 0.930 . S
C389 C387 1.419 . S
C389 C390 1.362 . S
C390 H382 0.930 . S
C390 C389 1.362 . S
C390 C393 1.409 . S
C391 H383 0.930 . S
C391 C392 1.355 . S
C391 C393 1.415 . S
C392 C391 1.355 . S
C392 C394 1.419 . S
C393 C388 1.425 . S
C393 C390 1.409 . S
C393 C391 1.415 . S
C394 H384 0.930 . S
C394 C392 1.419 . S
C394 C395 1.362 . S
C395 H385 0.930 . S
C395 C388 1.409 . S
C395 C394 1.362 . S
H396 C402 0.930 . S
H397 C405 0.930 . S
H398 C406 0.930 1_556 S
H399 C407 0.930 . S
H400 C410 0.930 . S
H401 C411 0.930 . S
C402 H396 0.930 . S
C402 C403 1.355 1_554 S
C402 C404 1.415 . S
C403 C402 1.355 1_556 S
C403 C405 1.419 . S
C404 C402 1.415 . S
C404 C409 1.425 . S
C404 C411 1.409 . S
C405 H397 0.930 . S
C405 C403 1.419 . S
C405 C406 1.362 1_556 S
C406 H398 0.930 1_554 S
C406 C405 1.362 1_554 S
C406 C409 1.409 . S
C407 H399 0.930 . S
C407 C408 1.355 . S
C407 C409 1.415 . S
C408 C407 1.355 . S
C408 C410 1.419 . S
C409 C404 1.425 . S
C409 C406 1.409 . S
C409 C407 1.415 . S
C410 H400 0.930 . S
C410 C408 1.419 . S
C410 C411 1.362 . S
C411 H401 0.930 . S
C411 C404 1.409 . S
C411 C410 1.362 . S
H412 C418 0.930 . S
H413 C421 0.930 . S
H414 C422 0.930 . S
H415 C423 0.930 . S
H416 C426 0.930 . S
H417 C427 0.930 . S
C418 H412 0.930 . S
C418 C419 1.355 . S
C418 C420 1.415 . S
C419 C418 1.355 . S
C419 C421 1.419 . S
C420 C418 1.415 . S
C420 C425 1.425 . S
C420 C427 1.409 . S
C421 H413 0.930 . S
C421 C419 1.419 . S
C421 C422 1.362 . S
C422 H414 0.930 . S
C422 C421 1.362 . S
C422 C425 1.409 . S
C423 H415 0.930 . S
C423 C424 1.355 . S
C423 C425 1.415 . S
C424 C423 1.355 . S
C424 C426 1.419 . S
C425 C420 1.425 . S
C425 C422 1.409 . S
C425 C423 1.415 . S
C426 H416 0.930 . S
C426 C424 1.419 . S
C426 C427 1.362 . S
C427 H417 0.930 . S
C427 C420 1.409 . S
C427 C426 1.362 . S
H428 C434 0.930 . S
H429 C437 0.930 . S
H430 C438 0.930 . S
H431 C439 0.930 . S
H432 C442 0.930 . S
H433 C443 0.930 . S
C434 H428 0.930 . S
C434 C435 1.355 . S
C434 C436 1.415 . S
C435 C434 1.355 . S
C435 C437 1.419 . S
C436 C434 1.415 . S
C436 C441 1.425 . S
C436 C443 1.409 . S
C437 H429 0.930 . S
C437 C435 1.419 . S
C437 C438 1.362 . S
C438 H430 0.930 . S
C438 C437 1.362 . S
C438 C441 1.409 . S
C439 H431 0.930 . S
C439 C440 1.355 . S
C439 C441 1.415 . S
C440 C439 1.355 . S
C440 C442 1.419 . S
C441 C436 1.425 . S
C441 C438 1.409 . S
C441 C439 1.415 . S
C442 H432 0.930 . S
C442 C440 1.419 . S
C442 C443 1.362 . S
C443 H433 0.930 . S
C443 C436 1.409 . S
C443 C442 1.362 . S
H444 C450 0.930 . S
H445 C453 0.930 . S
H446 C454 0.930 . S
H447 C455 0.930 . S
H448 C458 0.930 . S
H449 C459 0.930 . S
C450 H444 0.930 . S
C450 C451 1.355 . S
C450 C452 1.415 . S
C451 C450 1.355 . S
C451 C453 1.419 . S
C452 C450 1.415 . S
C452 C457 1.425 . S
C452 C459 1.409 . S
C453 H445 0.930 . S
C453 C451 1.419 . S
C453 C454 1.362 . S
C454 H446 0.930 . S
C454 C453 1.362 . S
C454 C457 1.409 . S
C455 H447 0.930 . S
C455 C456 1.355 . S
C455 C457 1.415 . S
C456 C455 1.355 . S
C456 C458 1.419 . S
C457 C452 1.425 . S
C457 C454 1.409 . S
C457 C455 1.415 . S
C458 H448 0.930 . S
C458 C456 1.419 . S
C458 C459 1.362 . S
C459 H449 0.930 . S
C459 C452 1.409 . S
C459 C458 1.362 . S
H460 C466 0.930 . S
H461 C469 0.930 . S
H462 C470 0.930 . S
H463 C471 0.930 . S
H464 C474 0.930 . S
H465 C475 0.930 . S
C466 H460 0.930 . S
C466 C467 1.355 . S
C466 C468 1.415 . S
C467 C466 1.355 . S
C467 C469 1.419 . S
C468 C466 1.415 . S
C468 C473 1.425 . S
C468 C475 1.409 . S
C469 H461 0.930 . S
C469 C467 1.419 . S
C469 C470 1.362 . S
C470 H462 0.930 . S
C470 C469 1.362 . S
C470 C473 1.409 . S
C471 H463 0.930 . S
C471 C472 1.355 . S
C471 C473 1.415 . S
C472 C471 1.355 . S
C472 C474 1.419 . S
C473 C468 1.425 . S
C473 C470 1.409 . S
C473 C471 1.415 . S
C474 H464 0.930 . S
C474 C472 1.419 . S
C474 C475 1.362 . S
C475 H465 0.930 . S
C475 C468 1.409 . S
C475 C474 1.362 . S
H476 C482 0.930 . S
H477 C485 0.930 . S
H478 C486 0.930 . S
H479 C487 0.930 . S
H480 C490 0.930 . S
H481 C491 0.930 . S
C482 H476 0.930 . S
C482 C483 1.355 . S
C482 C484 1.415 . S
C483 C482 1.355 . S
C483 C485 1.419 . S
C484 C482 1.415 . S
C484 C489 1.425 . S
C484 C491 1.409 . S
C485 H477 0.930 . S
C485 C483 1.419 . S
C485 C486 1.362 . S
C486 H478 0.930 . S
C486 C485 1.362 . S
C486 C489 1.409 . S
C487 H479 0.930 . S
C487 C488 1.355 . S
C487 C489 1.415 . S
C488 C487 1.355 . S
C488 C490 1.419 . S
C489 C484 1.425 . S
C489 C486 1.409 . S
C489 C487 1.415 . S
C490 H480 0.930 . S
C490 C488 1.419 . S
C490 C491 1.362 . S
C491 H481 0.930 . S
C491 C484 1.409 . S
C491 C490 1.362 . S
H492 C498 0.930 . S
H493 C501 0.930 . S
H494 C502 0.930 . S
H495 C503 0.930 . S
H496 C506 0.930 . S
H497 C507 0.930 . S
C498 H492 0.930 . S
C498 C499 1.355 . S
C498 C500 1.415 . S
C499 C498 1.355 . S
C499 C501 1.419 . S
C500 C498 1.415 . S
C500 C505 1.425 . S
C500 C507 1.409 . S
C501 H493 0.930 . S
C501 C499 1.419 . S
C501 C502 1.362 . S
C502 H494 0.930 . S
C502 C501 1.362 . S
C502 C505 1.409 . S
C503 H495 0.930 . S
C503 C504 1.355 . S
C503 C505 1.415 . S
C504 C503 1.355 . S
C504 C506 1.419 . S
C505 C500 1.425 . S
C505 C502 1.409 . S
C505 C503 1.415 . S
C506 H496 0.930 . S
C506 C504 1.419 . S
C506 C507 1.362 . S
C507 H497 0.930 . S
C507 C500 1.409 . S
C507 C506 1.362 . S
H508 C514 0.930 . S
H509 C517 0.930 . S
H510 C518 0.930 . S
H511 C519 0.930 . S
H512 C522 0.930 . S
H513 C523 0.930 . S
C514 H508 0.930 . S
C514 C515 1.355 . S
C514 C516 1.415 . S
C515 C514 1.355 . S
C515 C517 1.419 . S
C516 C514 1.415 . S
C516 C521 1.425 . S
C516 C523 1.409 . S
C517 H509 0.930 . S
C517 C515 1.419 . S
C517 C518 1.362 . S
C518 H510 0.930 . S
C518 C517 1.362 . S
C518 C521 1.409 . S
C519 H511 0.930 . S
C519 C520 1.355 . S
C519 C521 1.415 . S
C520 C519 1.355 . S
C520 C522 1.419 . S
C521 C516 1.425 . S
C521 C518 1.409 . S
C521 C519 1.415 . S
C522 H512 0.930 . S
C522 C520 1.419 . S
C522 C523 1.362 . S
C523 H513 0.930 . S
C523 C516 1.409 . S
C523 C522 1.362 . S
H524 C530 0.930 . S
H525 C533 0.930 . S
H526 C534 0.930 . S
H527 C535 0.930 . S
H528 C538 0.930 . S
H529 C539 0.930 . S
C530 H524 0.930 . S
C530 C531 1.355 . S
C530 C532 1.415 . S
C531 C530 1.355 . S
C531 C533 1.419 . S
C532 C530 1.415 . S
C532 C537 1.425 . S
C532 C539 1.409 . S
C533 H525 0.930 . S
C533 C531 1.419 . S
C533 C534 1.362 . S
C534 H526 0.930 . S
C534 C533 1.362 . S
C534 C537 1.409 . S
C535 H527 0.930 . S
C535 C536 1.355 . S
C535 C537 1.415 . S
C536 C535 1.355 . S
C536 C538 1.419 . S
C537 C532 1.425 . S
C537 C534 1.409 . S
C537 C535 1.415 . S
C538 H528 0.930 . S
C538 C536 1.419 . S
C538 C539 1.362 . S
C539 H529 0.930 . S
C539 C532 1.409 . S
C539 C538 1.362 . S
H540 C546 0.930 . S
H541 C549 0.930 . S
H542 C550 0.930 . S
H543 C551 0.930 . S
H544 C554 0.930 . S
H545 C555 0.930 . S
C546 H540 0.930 . S
C546 C547 1.355 . S
C546 C548 1.415 . S
C547 C546 1.355 . S
C547 C549 1.419 . S
C548 C546 1.415 . S
C548 C553 1.425 . S
C548 C555 1.409 . S
C549 H541 0.930 . S
C549 C547 1.419 . S
C549 C550 1.362 . S
C550 H542 0.930 . S
C550 C549 1.362 . S
C550 C553 1.409 . S
C551 H543 0.930 . S
C551 C552 1.355 . S
C551 C553 1.415 . S
C552 C551 1.355 . S
C552 C554 1.419 . S
C553 C548 1.425 . S
C553 C550 1.409 . S
C553 C551 1.415 . S
C554 H544 0.930 . S
C554 C552 1.419 . S
C554 C555 1.362 . S
C555 H545 0.930 . S
C555 C548 1.409 . S
C555 C554 1.362 . S
C179 C75 1.409 . S
C184 C104 1.396 . S
C200 C112 1.254 . S
C195 C83 1.383 . S
C216 C116 1.423 . S
C211 C53 1.417 . S
C227 C61 1.355 . S
C232 C92 1.257 . S
C248 C133 1.392 . S
C243 C31 1.413 . S
C264 C167 1.357 . S
C259 C42 1.461 . S
C275 C9 1.442 . S
C280 C155 1.307 . S
C291 C20 1.460 . S
C296 C137 1.424 . S
C312 C91 1.261 . S
C307 C17 1.419 . S
C328 C125 1.293 . S
C323 C6 1.444 . S
C344 C129 1.220 . S
C339 C39 1.429 . S
C360 C107 1.270 . S
C355 C28 1.447 . S
C376 C146 1.331 . S
C371 C64 1.501 . S
C387 C50 1.486 . S
C392 C154 1.402 . S
C408 C170 1.435 . S
C403 C86 1.472 . S
C419 C72 1.483 . S
C424 C150 1.383 . S
C440 C95 1.329 . S
C435 N4 1.483 . S
C456 C113 1.427 . S
C451 N15 1.536 . S
C467 N26 1.481 . S
C472 C128 1.355 . S
C488 C108 1.383 . S
C483 N37 1.532 . S
C504 C134 1.347 . S
C499 N48 1.553 . S
C515 N59 1.495 . S
C520 C158 1.392 . S
C531 N70 1.549 . S
C536 C171 1.356 . S
C547 N81 1.494 . S
C552 C149 1.327 . S
