# Generated by pormake.
# Topology pyr, (3,6)-cn, num edge types: 1
# Building blocks:
#     Node 0, Type 0, BuildingBlock: BETDIP_clean_linker_0, # of connection points: 3
#     Node 1, Type 0, BuildingBlock: BETDIP_clean_linker_0, # of connection points: 3
#     Node 2, Type 0, BuildingBlock: BETDIP_clean_linker_0, # of connection points: 3
#     Node 3, Type 0, BuildingBlock: BETDIP_clean_linker_0, # of connection points: 3
#     Node 4, Type 0, BuildingBlock: BETDIP_clean_linker_0, # of connection points: 3
#     Node 5, Type 0, BuildingBlock: BETDIP_clean_linker_0, # of connection points: 3
#     Node 6, Type 0, BuildingBlock: BETDIP_clean_linker_0, # of connection points: 3
#     Node 7, Type 0, BuildingBlock: BETDIP_clean_linker_0, # of connection points: 3
#     Node 8, Type 1, BuildingBlock: JUFBIX_clean_sbu_0, # of connection points: 6
#     Node 9, Type 1, BuildingBlock: JUFBIX_clean_sbu_0, # of connection points: 6
#     Node 10, Type 1, BuildingBlock: JUFBIX_clean_sbu_0, # of connection points: 6
#     Node 11, Type 1, BuildingBlock: JUFBIX_clean_sbu_0, # of connection points: 6
#     Edge 12, Type (0, 1), BuildingBlock: ZUJKAS_clean_linker_0, # of connection points: 2
#     Edge 13, Type (0, 1), BuildingBlock: ZUJKAS_clean_linker_0, # of connection points: 2
#     Edge 14, Type (0, 1), BuildingBlock: ZUJKAS_clean_linker_0, # of connection points: 2
#     Edge 15, Type (0, 1), BuildingBlock: ZUJKAS_clean_linker_0, # of connection points: 2
#     Edge 16, Type (0, 1), BuildingBlock: ZUJKAS_clean_linker_0, # of connection points: 2
#     Edge 17, Type (0, 1), BuildingBlock: ZUJKAS_clean_linker_0, # of connection points: 2
#     Edge 18, Type (0, 1), BuildingBlock: ZUJKAS_clean_linker_0, # of connection points: 2
#     Edge 19, Type (0, 1), BuildingBlock: ZUJKAS_clean_linker_0, # of connection points: 2
#     Edge 20, Type (0, 1), BuildingBlock: ZUJKAS_clean_linker_0, # of connection points: 2
#     Edge 21, Type (0, 1), BuildingBlock: ZUJKAS_clean_linker_0, # of connection points: 2
#     Edge 22, Type (0, 1), BuildingBlock: ZUJKAS_clean_linker_0, # of connection points: 2
#     Edge 23, Type (0, 1), BuildingBlock: ZUJKAS_clean_linker_0, # of connection points: 2
#     Edge 24, Type (0, 1), BuildingBlock: ZUJKAS_clean_linker_0, # of connection points: 2
#     Edge 25, Type (0, 1), BuildingBlock: ZUJKAS_clean_linker_0, # of connection points: 2
#     Edge 26, Type (0, 1), BuildingBlock: ZUJKAS_clean_linker_0, # of connection points: 2
#     Edge 27, Type (0, 1), BuildingBlock: ZUJKAS_clean_linker_0, # of connection points: 2
#     Edge 28, Type (0, 1), BuildingBlock: ZUJKAS_clean_linker_0, # of connection points: 2
#     Edge 29, Type (0, 1), BuildingBlock: ZUJKAS_clean_linker_0, # of connection points: 2
#     Edge 30, Type (0, 1), BuildingBlock: ZUJKAS_clean_linker_0, # of connection points: 2
#     Edge 31, Type (0, 1), BuildingBlock: ZUJKAS_clean_linker_0, # of connection points: 2
#     Edge 32, Type (0, 1), BuildingBlock: ZUJKAS_clean_linker_0, # of connection points: 2
#     Edge 33, Type (0, 1), BuildingBlock: ZUJKAS_clean_linker_0, # of connection points: 2
#     Edge 34, Type (0, 1), BuildingBlock: ZUJKAS_clean_linker_0, # of connection points: 2
#     Edge 35, Type (0, 1), BuildingBlock: ZUJKAS_clean_linker_0, # of connection points: 2
# Relax obj value: 0.132
# Max RMSD: 0.195
# Mean RMSD: 0.130
data_MOF--net-pyr--node1-JUFBIX_clean_sbu_0--node2-BETDIP_clean_linker_0--edge1-ZUJKAS_clean_linker_0
_symmetry_space_group_name_H-M    P1
_symmetry_Int_Tables_number       1
_symmetry_cell_setting            triclinic
loop_
_symmetry_equiv_pos_as_xyz
'x, y, z'
_cell_length_a     47.614551
_cell_length_b     44.799328
_cell_length_c     49.233299
_cell_angle_alpha  87.418285
_cell_angle_beta   85.062012
_cell_angle_gamma 97.21906
loop_
_atom_site_label
_atom_site_type_symbol
_atom_site_fract_x
_atom_site_fract_y
_atom_site_fract_z
_atom_type_partial_charge
H0 H 0.15576 0.18157 0.21986 0.0
H1 H 0.2225 0.18694 0.15461 0.0
H2 H 0.2195 0.12145 0.22177 0.0
H3 H 0.20021 0.2205 0.13463 0.0
C4 C 0.18252 0.22646 0.14771 0.0
C5 C 0.17456 0.17326 0.21065 0.0
C6 C 0.18576 0.14954 0.22397 0.0
C7 C 0.18736 0.18696 0.18569 0.0
C8 C 0.2123 0.17683 0.17385 0.0
C9 C 0.22415 0.1531 0.18668 0.0
C10 C 0.21062 0.13965 0.21174 0.0
N11 N 0.17432 0.21079 0.17361 0.0
H12 H 0.406 0.91046 0.68159 0.0
H13 H 0.40098 0.83675 0.62887 0.0
H14 H 0.46558 0.84573 0.68467 0.0
H15 H 0.35534 0.84347 0.63061 0.0
C16 C 0.35466 0.86743 0.63239 0.0
C17 C 0.41458 0.89081 0.674 0.0
C18 C 0.43794 0.88047 0.68534 0.0
C19 C 0.40076 0.8749 0.65418 0.0
C20 C 0.41091 0.8488 0.64482 0.0
C21 C 0.43418 0.8381 0.65588 0.0
C22 C 0.44782 0.85419 0.67589 0.0
N23 N 0.37625 0.88539 0.64474 0.0
H24 H 0.7323 0.41937 0.84629 0.0
H25 H 0.65949 0.35173 0.8484 0.0
H26 H 0.72211 0.34384 0.90513 0.0
H27 H 0.6394 0.39255 0.83428 0.0
C28 C 0.65557 0.40267 0.81847 0.0
C29 C 0.7204 0.39845 0.8551 0.0
C30 C 0.73015 0.38311 0.87727 0.0
C31 C 0.69463 0.38766 0.84495 0.0
C32 C 0.67912 0.36054 0.85641 0.0
C33 C 0.68872 0.34468 0.87829 0.0
C34 C 0.71424 0.35619 0.88858 0.0
N35 N 0.68479 0.40424 0.82313 0.0
H36 H 0.92356 0.58134 0.44131 0.0
H37 H 0.99513 0.64976 0.44259 0.0
H38 H 0.91963 0.65296 0.49624 0.0
H39 H 1.00458 0.63771 0.40007 0.0
C40 C 0.99424 0.6153 0.39697 0.0
C41 C 0.93366 0.60103 0.45039 0.0
C42 C 0.91821 0.61553 0.47021 0.0
C43 C 0.96116 0.61334 0.44002 0.0
C44 C 0.97399 0.63985 0.45056 0.0
C45 C 0.95901 0.65446 0.47071 0.0
C46 C 0.93134 0.64182 0.48072 0.0
N47 N 0.9739 0.5999 0.41731 0.0
H48 H 0.80847 0.85046 0.91481 0.0
H49 H 0.87775 0.85457 0.85252 0.0
H50 H 0.81314 0.91301 0.84493 0.0
H51 H 0.9001 0.84321 0.89364 0.0
C52 C 0.88459 0.82403 0.90099 0.0
C53 C 0.81921 0.86049 0.89565 0.0
C54 C 0.80786 0.88364 0.88152 0.0
C55 C 0.84448 0.85017 0.88548 0.0
C56 C 0.85833 0.86265 0.86037 0.0
C57 C 0.84712 0.88515 0.8452 0.0
C58 C 0.8219 0.89557 0.85615 0.0
N59 N 0.85508 0.82655 0.90042 0.0
H60 H 0.62962 0.11734 0.38112 0.0
H61 H 0.63801 0.19436 0.42988 0.0
H62 H 0.56778 0.1797 0.38076 0.0
H63 H 0.6648 0.16641 0.45375 0.0
C64 C 0.67584 0.15506 0.43786 0.0
C65 C 0.62123 0.1371 0.38869 0.0
C66 C 0.59649 0.14606 0.37906 0.0
C67 C 0.63607 0.15406 0.40725 0.0
C68 C 0.62629 0.18056 0.4161 0.0
C69 C 0.60162 0.18989 0.40666 0.0
C70 C 0.58663 0.17238 0.38837 0.0
N71 N 0.66177 0.14485 0.41508 0.0
H72 H 0.30659 0.61763 0.216 0.0
H73 H 0.377 0.68757 0.21749 0.0
H74 H 0.31884 0.69214 0.15597 0.0
H75 H 0.39771 0.64791 0.23343 0.0
C76 C 0.38088 0.63672 0.24808 0.0
C77 C 0.31846 0.6387 0.20751 0.0
C78 C 0.30961 0.65356 0.18458 0.0
C79 C 0.34328 0.65024 0.21892 0.0
C80 C 0.35866 0.67765 0.20799 0.0
C81 C 0.34999 0.69295 0.18529 0.0
C82 C 0.32553 0.68063 0.17365 0.0
N83 N 0.35218 0.63411 0.24154 0.0
H84 H 0.02985 0.39524 0.61532 0.0
H85 H 0.10505 0.45852 0.61745 0.0
H86 H 0.11004 0.37636 0.57693 0.0
H87 H 0.0729 0.49033 0.63249 0.0
C88 C 0.05968 0.47353 0.64621 0.0
C89 C 0.05233 0.4017 0.60948 0.0
C90 C 0.0681 0.38246 0.59447 0.0
C91 C 0.06541 0.42896 0.61801 0.0
C92 C 0.0946 0.43765 0.61074 0.0
C93 C 0.11074 0.41901 0.59546 0.0
C94 C 0.09731 0.39149 0.58741 0.0
N95 N 0.04933 0.44534 0.63631 0.0
Co96 Co 0.99739 0.01595 0.5268 0.0
C97 C 0.0218 0.96234 0.52383 0.0
Co98 Co 0.03907 0.01747 0.54311 0.0
C99 C 0.94731 0.03323 0.50396 0.0
C100 C 0.94264 0.98671 0.51776 0.0
N101 N 0.96158 0.01197 0.51458 0.0
N102 N 0.92015 0.02225 0.50079 0.0
C103 C 0.91722 0.99294 0.50928 0.0
H104 H 0.95616 0.05665 0.50008 0.0
H105 H 0.94663 0.96538 0.52682 0.0
C106 C 0.0148 0.07107 0.5461 0.0
N107 N 0.07466 0.02113 0.55557 0.0
C108 C 0.08752 0.99963 0.56766 0.0
C109 C 0.09439 0.04571 0.55238 0.0
N110 N 0.11461 0.00973 0.57193 0.0
C111 C 0.11894 0.03879 0.56247 0.0
C112 C 0.04155 0.0348 0.487 0.0
O113 O 0.99442 0.05655 0.53525 0.0
O114 O 0.036 0.05793 0.55127 0.0
O115 O 0.05608 0.03082 0.50709 0.0
O116 O 0.01454 0.02954 0.49087 0.0
O117 O 0.04199 0.97687 0.53488 0.0
H118 H 0.0915 0.06695 0.54237 0.0
H119 H 0.0774 0.97681 0.57263 0.0
O120 O 1.00068 0.97548 0.51844 0.0
O121 O 0.98041 1.0025 0.56274 0.0
O122 O 0.02184 1.00399 0.5791 0.0
C123 C 0.99484 0.99864 0.5829 0.0
H124 H 0.89785 0.97732 0.51002 0.0
H125 H 0.13886 0.05356 0.56155 0.0
Co126 Co 0.50422 0.01536 1.01479 0.0
C127 C 0.49655 0.97002 0.05633 0.0
Co128 Co 0.52868 0.02586 0.04978 0.0
C129 C 0.49129 0.0056 0.95964 0.0
C130 C 0.45416 0.99779 0.98809 0.0
N131 N 0.4825 0.00614 0.98637 0.0
N132 N 0.46954 0.99727 0.94463 0.0
C133 C 0.44611 0.99242 0.96243 0.0
H134 H 0.51324 0.0111 0.95137 0.0
H135 H 0.44029 0.9952 1.00687 0.0
C136 C 0.53634 0.07118 1.00824 0.0
N137 N 0.55045 0.03514 0.07813 0.0
C138 C 0.54201 0.03461 0.10501 0.0
C139 C 0.57857 0.04475 0.07608 0.0
N140 N 0.56376 0.04367 0.11987 0.0
C141 C 0.58682 0.04996 0.10167 0.0
C142 C 0.55808 0.99691 1.00865 0.0
O143 O 0.51892 0.05314 0.99675 0.0
O144 O 0.5433 0.06362 0.03166 0.0
O145 O 0.55948 0.00781 0.03198 0.0
O146 O 0.53528 0.99756 0.99705 0.0
O147 O 0.51393 0.98808 0.06784 0.0
H148 H 0.59216 0.04804 0.05713 0.0
H149 H 0.52017 0.02843 0.11336 0.0
O150 O 0.48963 0.97757 0.03287 0.0
O151 O 0.47339 0.03322 0.03268 0.0
O152 O 0.49769 0.04384 0.06748 0.0
C153 C 0.47481 0.04426 0.05595 0.0
H154 H 0.42486 0.9845 0.95741 0.0
H155 H 0.60819 0.05776 0.10642 0.0
Co156 Co 0.53571 0.52457 0.52311 0.0
C157 C 0.4908 0.52832 0.49086 0.0
Co158 Co 0.49467 0.50062 0.5415 0.0
C159 C 0.59615 0.5394 0.50914 0.0
C160 C 0.57249 0.57308 0.49387 0.0
N161 N 0.56943 0.54611 0.5078 0.0
N162 N 0.61582 0.56126 0.49676 0.0
C163 C 0.60092 0.58243 0.48703 0.0
H164 H 0.60105 0.51927 0.51974 0.0
H165 H 0.55516 0.58541 0.48936 0.0
C166 C 0.53964 0.4971 0.5738 0.0
N167 N 0.46092 0.47902 0.55677 0.0
C168 C 0.43419 0.4857 0.55549 0.0
C169 C 0.45787 0.45183 0.57034 0.0
N170 N 0.41452 0.46368 0.56764 0.0
C171 C 0.42943 0.44237 0.57707 0.0
C172 C 0.52715 0.46591 0.50915 0.0
O173 O 0.55387 0.51292 0.55404 0.0
O174 O 0.51321 0.48921 0.5725 0.0
O175 O 0.504 0.46592 0.52403 0.0
O176 O 0.54478 0.48982 0.5058 0.0
O177 O 0.47648 0.51229 0.51047 0.0
H178 H 0.4752 0.43931 0.57444 0.0
H179 H 0.42932 0.50625 0.54561 0.0
O180 O 0.51721 0.53608 0.49228 0.0
O181 O 0.5265 0.55916 0.54059 0.0
O182 O 0.48558 0.53552 0.55879 0.0
C183 C 0.50336 0.55933 0.55546 0.0
H184 H 0.60986 0.60326 0.4758 0.0
H185 H 0.42046 0.42095 0.58724 0.0
Co186 Co 0.03547 0.51903 1.00866 0.0
C187 C 0.98044 0.48974 1.00653 0.0
Co188 Co 1.00819 0.51751 0.04752 0.0
C189 C 0.05253 0.50559 0.95304 0.0
C190 C 0.08022 0.54195 0.96683 0.0
N191 N 0.05758 0.52136 0.97526 0.0
N192 N 0.07076 0.51577 0.93111 0.0
C193 C 0.08841 0.53849 0.93981 0.0
H194 H 0.03525 0.48755 0.95259 0.0
H195 H 0.08939 0.5595 0.97899 0.0
C196 C 0.0631 0.54673 0.04988 0.0
N197 N 0.98638 0.51551 0.0808 0.0
C198 C 0.99003 0.53426 0.10126 0.0
C199 C 0.96637 0.49302 0.09139 0.0
N200 N 0.97368 0.5241 0.12436 0.0
C201 C 0.95847 0.49828 0.11815 0.0
C202 C 0.04021 0.46899 0.04251 0.0
O203 O 0.06611 0.54091 0.02489 0.0
O204 O 0.03926 0.53866 0.06338 0.0
O205 O 0.02164 0.48026 0.05765 0.0
O206 O 0.04921 0.48221 0.01936 0.0
O207 O 0.97727 0.49625 0.03136 0.0
H208 H 0.95917 0.47319 0.08087 0.0
H209 H 1.00527 0.55446 0.09962 0.0
O210 O 1.00447 0.49714 0.99309 0.0
O211 O 0.02146 0.55568 0.9982 0.0
O212 O 0.99503 0.5549 0.03707 0.0
C213 C 1.00348 0.56746 1.01354 0.0
H214 H 0.10489 0.55284 0.92713 0.0
H215 H 0.94411 0.48327 0.1324 0.0
H216 H 0.12848 0.13562 0.23908 0.0
H217 H 0.10494 0.11564 0.28344 0.0
H218 H 0.18654 0.11052 0.31378 0.0
H219 H 0.21033 0.13144 0.26967 0.0
H220 H 0.10656 0.0619 0.31271 0.0
H221 H 0.14808 0.15792 0.37158 0.0
H222 H 0.15069 0.15972 0.33474 0.0
H223 H 0.17511 0.14062 0.35278 0.0
C224 C 0.14151 0.13055 0.25523 0.0
C225 C 0.17142 0.13554 0.25072 0.0
C226 C 0.12796 0.11889 0.2806 0.0
C227 C 0.14386 0.11202 0.30225 0.0
C228 C 0.17371 0.1162 0.29766 0.0
H229 H 0.09885 0.04609 0.47203 0.0
H230 H 0.12301 0.06371 0.42729 0.0
C231 C 0.18732 0.12785 0.27224 0.0
C232 C 0.12912 0.10043 0.32948 0.0
H233 H 0.1221 0.11575 0.39705 0.0
C234 C 0.10991 0.07373 0.33114 0.0
C235 C 0.1334 0.11579 0.35363 0.0
C236 C 0.15273 0.14524 0.35319 0.0
C237 C 0.09534 0.06175 0.35618 0.0
C238 C 0.09954 0.07718 0.38032 0.0
C239 C 0.1188 0.10385 0.37866 0.0
C240 C 0.08442 0.06599 0.40752 0.0
C241 C 0.07611 0.03225 0.35661 0.0
C242 C 0.05453 0.06161 0.41166 0.0
C243 C 0.04057 0.05137 0.43732 0.0
C244 C 0.05616 0.04552 0.45957 0.0
C245 C 0.08607 0.05024 0.45542 0.0
C246 C 0.09998 0.06039 0.42978 0.0
H247 H 0.08134 0.01928 0.33855 0.0
H248 H 0.07759 0.01807 0.37539 0.0
H249 H 0.05378 0.03683 0.3562 0.0
H250 H 0.04194 0.06644 0.39509 0.0
H251 H 0.01755 0.04825 0.43974 0.0
H252 H 0.45395 0.85363 0.73151 0.0
H253 H 0.46622 0.8776 0.77314 0.0
H254 H 0.45918 0.96467 0.73521 0.0
H255 H 0.4482 0.94102 0.69286 0.0
H256 H 0.50366 0.96531 0.77003 0.0
H257 H 0.40066 0.90759 0.81943 0.0
H258 H 0.42378 0.88248 0.80511 0.0
H259 H 0.40973 0.90885 0.78302 0.0
C260 C 0.45587 0.87796 0.73164 0.0
C261 C 0.44975 0.8954 0.70894 0.0
C262 C 0.46259 0.89158 0.75558 0.0
C263 C 0.46292 0.92276 0.75736 0.0
C264 C 0.45876 0.9405 0.73424 0.0
H265 H 0.4299 0.00534 0.91002 0.0
H266 H 0.43029 0.99108 0.86262 0.0
C267 C 0.45226 0.92693 0.71018 0.0
C268 C 0.46502 0.93642 0.78396 0.0
H269 H 0.43111 0.93438 0.84799 0.0
C270 C 0.48783 0.95867 0.78712 0.0
C271 C 0.44394 0.92808 0.80594 0.0
C272 C 0.41799 0.90567 0.80323 0.0
C273 C 0.49043 0.97242 0.81202 0.0
C274 C 0.46989 0.96322 0.83428 0.0
C275 C 0.44689 0.9413 0.8309 0.0
C276 C 0.47165 0.97562 0.8615 0.0
C277 C 0.51482 0.99692 0.81412 0.0
C278 C 0.49495 0.97207 0.8764 0.0
C279 C 0.4948 0.98036 0.90342 0.0
C280 C 0.47114 0.99186 0.91605 0.0
C281 C 0.44823 0.99621 0.90083 0.0
C282 C 0.44851 0.98821 0.87377 0.0
H283 H 0.52348 0.00729 0.7937 0.0
H284 H 0.50818 0.01488 0.82713 0.0
H285 H 0.5322 0.98708 0.82348 0.0
H286 H 0.51269 0.9617 0.86757 0.0
H287 H 0.51256 0.9764 0.91481 0.0
H288 H 0.68829 0.4317 0.77368 0.0
H289 H 0.67126 0.45086 0.73139 0.0
H290 H 0.58482 0.41923 0.76304 0.0
H291 H 0.60162 0.4006 0.80534 0.0
H292 H 0.64012 0.4196 0.69408 0.0
H293 H 0.57982 0.50618 0.73905 0.0
H294 H 0.60528 0.48849 0.75719 0.0
H295 H 0.56979 0.46958 0.7559 0.0
C296 C 0.66566 0.42907 0.77166 0.0
C297 C 0.6462 0.41488 0.79284 0.0
C298 C 0.65597 0.43997 0.7475 0.0
C299 C 0.62673 0.43697 0.74427 0.0
C300 C 0.6074 0.42249 0.76534 0.0
H301 H 0.51483 0.46591 0.62058 0.0
H302 H 0.5378 0.452 0.66102 0.0
C303 C 0.61703 0.4117 0.78942 0.0
C304 C 0.61624 0.448 0.71862 0.0
H305 H 0.5698 0.49248 0.69414 0.0
C306 C 0.62503 0.43583 0.694 0.0
C307 C 0.59657 0.4692 0.71857 0.0
C308 C 0.58752 0.48436 0.74405 0.0
C309 C 0.61378 0.44339 0.6695 0.0
C310 C 0.59348 0.4639 0.66966 0.0
C311 C 0.58522 0.4766 0.69414 0.0
C312 C 0.57998 0.47195 0.6448 0.0
C313 C 0.62294 0.42864 0.64384 0.0
C314 C 0.5961 0.48795 0.62236 0.0
C315 C 0.58303 0.496 0.59921 0.0
C316 C 0.55358 0.48824 0.59814 0.0
C317 C 0.53754 0.4722 0.6207 0.0
C318 C 0.55061 0.46425 0.64384 0.0
H319 H 0.63421 0.40896 0.64825 0.0
H320 H 0.6043 0.42108 0.63261 0.0
H321 H 0.63758 0.44525 0.63025 0.0
H322 H 0.61872 0.4945 0.62287 0.0
H323 H 0.596 0.50843 0.58222 0.0
H324 H 0.97236 0.56039 0.37995 0.0
H325 H 0.97127 0.54529 0.33288 0.0
H326 H 0.01864 0.63082 0.3038 0.0
H327 H 0.01984 0.64614 0.35097 0.0
H328 H 0.96553 0.61295 0.27914 0.0
H329 H 0.03772 0.52447 0.27833 0.0
H330 H 1.01084 0.52175 0.30666 0.0
H331 H 0.03851 0.55318 0.30299 0.0
C332 C 0.98287 0.57584 0.36358 0.0
C333 C 0.99614 0.60451 0.36904 0.0
C334 C 0.9823 0.56714 0.33673 0.0
C335 C 0.99497 0.58692 0.31497 0.0
C336 C 1.00881 0.61525 0.32039 0.0
H337 H 0.02054 0.55324 0.14367 0.0
H338 H 0.02503 0.56987 0.18983 0.0
C339 C 1.00956 0.6239 0.34727 0.0
C340 C 0.99233 0.57869 0.28649 0.0
H341 H 1.01168 0.52929 0.23978 0.0
C342 C 0.97567 0.59474 0.27046 0.0
C343 C 1.0057 0.555 0.27533 0.0
C344 C 0.0244 0.53767 0.29157 0.0
C345 C 0.97168 0.58737 0.24353 0.0
C346 C 0.98463 0.56334 0.23255 0.0
C347 C 1.00164 0.54758 0.24844 0.0
C348 C 0.98123 0.55451 0.20436 0.0
C349 C 0.9539 0.60544 0.22689 0.0
C350 C 0.95504 0.54046 0.19733 0.0
C351 C 0.95237 0.53093 0.1709 0.0
C352 C 0.97583 0.53546 0.15111 0.0
C353 C 1.00192 0.54992 0.15824 0.0
C354 C 1.00461 0.55921 0.18467 0.0
H355 H 0.9494 0.62639 0.23672 0.0
H356 H 0.9648 0.61155 0.20616 0.0
H357 H 0.93334 0.59158 0.22451 0.0
H358 H 0.93682 0.53643 0.2124 0.0
H359 H 0.93203 0.51993 0.16595 0.0
H360 H 0.23575 0.09477 0.18207 0.0
H361 H 0.27864 0.07732 0.16076 0.0
H362 H 0.31559 0.16941 0.14091 0.0
H363 H 0.27259 0.18698 0.16189 0.0
H364 H 0.32463 0.13633 0.09847 0.0
H365 H 0.35452 0.07562 0.18977 0.0
H366 H 0.31928 0.06221 0.18174 0.0
H367 H 0.32734 0.10029 0.19172 0.0
C368 C 0.25312 0.11136 0.17345 0.0
C369 C 0.25061 0.14235 0.17388 0.0
C370 C 0.27777 0.10132 0.1613 0.0
C371 C 0.30083 0.12197 0.14958 0.0
C372 C 0.29828 0.15291 0.14982 0.0
H373 H 0.47136 0.07368 0.10385 0.0
H374 H 0.43 0.09353 0.126 0.0
C375 C 0.27356 0.16296 0.16179 0.0
C376 C 0.32718 0.1114 0.1364 0.0
H377 H 0.37911 0.06689 0.14717 0.0
C378 C 0.33657 0.12125 0.10922 0.0
C379 C 0.34328 0.09208 0.15038 0.0
C380 C 0.33579 0.08218 0.18009 0.0
C381 C 0.36101 0.11197 0.09559 0.0
C382 C 0.37635 0.09156 0.10916 0.0
C383 C 0.36732 0.0822 0.13652 0.0
C384 C 0.40175 0.07968 0.0954 0.0
C385 C 0.37044 0.12474 0.0669 0.0
C386 C 0.39986 0.06487 0.07091 0.0
C387 C 0.42357 0.05375 0.05806 0.0
C388 C 0.44982 0.05671 0.06954 0.0
C389 C 0.4516 0.0711 0.0943 0.0
C390 C 0.42787 0.08242 0.10705 0.0
H391 H 0.36233 0.14655 0.06282 0.0
H392 H 0.39397 0.12829 0.0631 0.0
H393 H 0.36183 0.10877 0.05216 0.0
H394 H 0.37988 0.06156 0.06179 0.0
H395 H 0.4212 0.0425 0.03922 0.0
H396 H 0.3079 0.83799 0.61298 0.0
H397 H 0.26482 0.85892 0.60159 0.0
H398 H 0.30094 0.9464 0.62437 0.0
H399 H 0.34391 0.92589 0.63541 0.0
H400 H 0.22783 0.88836 0.63664 0.0
H401 H 0.27669 0.96291 0.54761 0.0
H402 H 0.29367 0.93253 0.56149 0.0
H403 H 0.29537 0.96789 0.57757 0.0
C404 C 0.30663 0.86172 0.61534 0.0
C405 C 0.32919 0.88032 0.62495 0.0
C406 C 0.28208 0.87358 0.60891 0.0
C407 C 0.27997 0.90423 0.61183 0.0
C408 C 0.30245 0.9228 0.62152 0.0
H409 H 0.16102 0.03021 0.59693 0.0
H410 H 0.19973 1.00196 0.60773 0.0
C411 C 0.32693 0.91099 0.62794 0.0
C412 C 0.25402 0.91693 0.60547 0.0
H413 H 0.23094 0.97214 0.56655 0.0
C414 C 0.22834 0.90644 0.62112 0.0
C415 C 0.25489 0.94039 0.58513 0.0
C416 C 0.28157 0.95142 0.56679 0.0
C417 C 0.20365 0.91977 0.61769 0.0
C418 C 0.20483 0.94391 0.59799 0.0
C419 C 0.2303 0.95379 0.58184 0.0
C420 C 0.18009 0.95981 0.59398 0.0
C421 C 0.17678 0.90871 0.63571 0.0
C422 C 0.1562 0.94526 0.58299 0.0
C423 C 0.13413 0.96137 0.57667 0.0
C424 C 0.13575 0.99233 0.58111 0.0
C425 C 0.15936 0.00652 0.59295 0.0
C426 C 0.18139 0.99041 0.59923 0.0
H427 H 0.1808 0.8938 0.65321 0.0
H428 H 0.16672 0.928 0.6437 0.0
H429 H 0.16143 0.89576 0.62352 0.0
H430 H 0.1551 0.92174 0.57839 0.0
H431 H 0.11645 0.94987 0.56722 0.0
H432 H 0.73806 0.38788 0.93117 0.0
H433 H 0.78187 0.40558 0.95126 0.0
H434 H 0.82597 0.42278 0.87073 0.0
H435 H 0.78196 0.40535 0.85044 0.0
H436 H 0.83225 0.38256 0.94712 0.0
H437 H 0.84795 0.50147 0.90578 0.0
H438 H 0.81498 0.47703 0.90459 0.0
H439 H 0.84477 0.47421 0.88022 0.0
C440 C 0.75708 0.39548 0.91772 0.0
C441 C 0.75659 0.3952 0.88921 0.0
C442 C 0.78208 0.40565 0.92924 0.0
C443 C 0.80714 0.4158 0.91253 0.0
C444 C 0.80675 0.41567 0.88402 0.0
H445 H 0.97864 0.47931 0.95235 0.0
H446 H 0.93735 0.4596 0.92921 0.0
C447 C 0.78163 0.40566 0.87245 0.0
C448 C 0.83377 0.42553 0.92518 0.0
H449 H 0.88499 0.48531 0.92963 0.0
C450 C 0.84375 0.40505 0.94332 0.0
C451 C 0.8488 0.45486 0.92016 0.0
C452 C 0.83849 0.47829 0.90183 0.0
C453 C 0.86836 0.41306 0.95653 0.0
C454 C 0.88323 0.44242 0.95166 0.0
C455 C 0.87353 0.46278 0.93325 0.0
C456 C 0.90851 0.45275 0.966 0.0
C457 C 0.87843 0.38999 0.9754 0.0
C458 C 0.90595 0.45535 0.99438 0.0
C459 C 0.92949 0.46666 1.0077 0.0
C460 C 0.95602 0.47559 0.99285 0.0
C461 C 0.95857 0.4725 0.96445 0.0
C462 C 0.93499 0.46133 0.95115 0.0
H463 H 0.86887 0.36672 0.97188 0.0
H464 H 0.90195 0.39116 0.97276 0.0
H465 H 0.87217 0.39469 0.99687 0.0
H466 H 0.88558 0.44927 1.00615 0.0
H467 H 0.92676 0.46888 0.02956 0.0
H468 H 0.89066 0.55775 0.47987 0.0
H469 H 0.83905 0.54207 0.48556 0.0
H470 H 0.82471 0.63521 0.48143 0.0
H471 H 0.87581 0.65103 0.47512 0.0
H472 H 0.79444 0.55992 0.52594 0.0
H473 H 0.78292 0.59469 0.41827 0.0
H474 H 0.81662 0.5882 0.43015 0.0
H475 H 0.8026 0.62292 0.43648 0.0
C476 C 0.87646 0.57485 0.48034 0.0
C477 C 0.88734 0.60563 0.47703 0.0
C478 C 0.84707 0.56586 0.4837 0.0
C479 C 0.82822 0.58752 0.48355 0.0
C480 C 0.83899 0.61819 0.48132 0.0
H481 H 0.65458 0.61139 0.4914 0.0
H482 H 0.70616 0.61373 0.48835 0.0
C483 C 0.86824 0.62717 0.47802 0.0
C484 C 0.7972 0.57849 0.48458 0.0
H485 H 0.74033 0.58567 0.44828 0.0
C486 C 0.78254 0.56506 0.50889 0.0
C487 C 0.78192 0.58513 0.46218 0.0
C488 C 0.79679 0.59828 0.43518 0.0
C489 C 0.75268 0.55962 0.51186 0.0
C490 C 0.73738 0.56755 0.48982 0.0
C491 C 0.75217 0.57979 0.46517 0.0
C492 C 0.70602 0.56544 0.49241 0.0
C493 C 0.73764 0.54678 0.53886 0.0
C494 C 0.68888 0.53745 0.49555 0.0
C495 C 0.65925 0.536 0.49708 0.0
C496 C 0.64633 0.56254 0.49538 0.0
C497 C 0.66372 0.5905 0.49231 0.0
C498 C 0.69324 0.5919 0.49076 0.0
H499 H 0.75242 0.54619 0.5551 0.0
H500 H 0.7205 0.56025 0.54555 0.0
H501 H 0.72762 0.52342 0.5365 0.0
H502 H 0.69842 0.51675 0.49641 0.0
H503 H 0.64653 0.5141 0.49908 0.0
H504 H 0.13635 0.2493 0.17318 0.0
H505 H 0.1107 0.28897 0.1552 0.0
H506 H 0.16741 0.29847 0.08131 0.0
H507 H 0.19289 0.25865 0.09904 0.0
H508 H 0.13015 0.3489 0.139 0.0
H509 H 0.08982 0.2886 0.05148 0.0
H510 H 0.10445 0.26974 0.07912 0.0
H511 H 0.12764 0.29097 0.05233 0.0
C512 C 0.1433 0.25973 0.15306 0.0
C513 C 0.1666 0.25066 0.13744 0.0
C514 C 0.12861 0.28247 0.1428 0.0
C515 C 0.13673 0.29645 0.11665 0.0
C516 C 0.16023 0.28763 0.10124 0.0
H517 H 0.08297 0.44128 0.01733 0.0
H518 H 0.10556 0.39949 0.03573 0.0
C519 C 0.17492 0.26497 0.11148 0.0
C520 C 0.12116 0.32072 0.10574 0.0
H521 H 0.08458 0.34066 0.05228 0.0
C522 C 0.12 0.34699 0.12014 0.0
C523 C 0.10794 0.31839 0.08106 0.0
C524 C 0.10723 0.29031 0.0652 0.0
C525 C 0.10671 0.37116 0.11026 0.0
C526 C 0.0936 0.36888 0.08551 0.0
C527 C 0.09461 0.34253 0.0712 0.0
C528 C 0.07901 0.39367 0.07401 0.0
C529 C 0.1076 0.3993 0.12606 0.0
C530 C 0.05602 0.40398 0.08902 0.0
C531 C 0.04304 0.42791 0.07855 0.0
C532 C 0.05257 0.44202 0.05267 0.0
C533 C 0.07503 0.43104 0.03731 0.0
C534 C 0.08802 0.40711 0.04784 0.0
H535 H 0.12475 0.40073 0.14007 0.0
H536 H 0.11094 0.41985 0.11208 0.0
H537 H 0.08706 0.39904 0.1386 0.0
H538 H 0.04813 0.39358 0.10895 0.0
H539 H 0.02573 0.43559 0.09094 0.0
H540 H 0.67844 0.32655 0.93248 0.0
H541 H 0.6512 0.27981 0.95274 0.0
H542 H 0.63227 0.25272 0.87265 0.0
H543 H 0.66065 0.29871 0.85209 0.0
H544 H 0.59512 0.25902 0.95105 0.0
H545 H 0.66208 0.17894 0.90365 0.0
H546 H 0.67363 0.21891 0.90305 0.0
H547 H 0.64938 0.20402 0.87946 0.0
C548 C 0.66891 0.31043 0.91911 0.0
C549 C 0.67194 0.31631 0.89063 0.0
C550 C 0.65313 0.28384 0.93075 0.0
C551 C 0.64005 0.26258 0.91418 0.0
C552 C 0.64266 0.26852 0.88579 0.0
H553 H 0.53329 0.09053 0.95514 0.0
H554 H 0.5567 0.13772 0.93168 0.0
C555 C 0.6586 0.29503 0.8741 0.0
C556 C 0.62327 0.2345 0.92679 0.0
H557 H 0.61881 0.15772 0.92856 0.0
C558 C 0.60032 0.23688 0.94615 0.0
C559 C 0.63008 0.20562 0.92033 0.0
C560 C 0.65529 0.20161 0.90068 0.0
C561 C 0.584 0.21115 0.95922 0.0
C562 C 0.59092 0.18237 0.95285 0.0
C563 C 0.61355 0.1799 0.93323 0.0
C564 C 0.57574 0.15454 0.96724 0.0
C565 C 0.5594 0.21484 0.97969 0.0
C566 C 0.57886 0.14848 0.99493 0.0
C567 C 0.56572 0.12156 1.00832 0.0
C568 C 0.54914 0.10024 0.99427 0.0
C569 C 0.5458 0.10656 0.96657 0.0
C570 C 0.55917 0.13343 0.95312 0.0
H571 H 0.55307 0.23785 0.97798 0.0
H572 H 0.54071 0.19812 0.97694 0.0
H573 H 0.56563 0.21088 1.00062 0.0
H574 H 0.59189 0.16437 1.00604 0.0
H575 H 0.56876 0.11735 0.02965 0.0
H576 H 0.93141 0.70369 0.47718 0.0
H577 H 0.95068 0.75369 0.48953 0.0
H578 H 0.03287 0.72411 0.49492 0.0
H579 H 1.01356 0.67348 0.48278 0.0
H580 H 0.97743 0.77021 0.53738 0.0
H581 H 0.04837 0.80016 0.44137 0.0
H582 H 0.01996 0.76913 0.44404 0.0
H583 H 0.05187 0.76561 0.46013 0.0
C584 C 0.95349 0.70757 0.4814 0.0
C585 C 0.97091 0.68451 0.4792 0.0
C586 C 0.9645 0.73624 0.48828 0.0
C587 C 0.99321 0.74261 0.49294 0.0
C588 C 1.01073 0.71969 0.49104 0.0
H589 H 0.06261 0.92616 0.53422 0.0
H590 H 0.0604 0.87177 0.52814 0.0
C591 C 0.99968 0.69084 0.48413 0.0
C592 C 1.00429 0.7735 0.49959 0.0
H593 H 0.0439 0.8384 0.47204 0.0
C594 C 0.99239 0.78497 0.52337 0.0
C595 C 0.02378 0.79267 0.4812 0.0
C596 C 0.03672 0.7815 0.45514 0.0
C597 C 0.99848 0.81547 0.52864 0.0
C598 C 0.01679 0.8349 0.5096 0.0
C599 C 0.02992 0.82323 0.48656 0.0
C600 C 0.0195 0.86784 0.51174 0.0
C601 C 0.98436 0.82712 0.55391 0.0
C602 C 0.99745 0.88341 0.50407 0.0
C603 C 0.99862 0.91425 0.50739 0.0
C604 C 0.02191 0.93012 0.51853 0.0
C605 C 0.04439 0.91456 0.52559 0.0
C606 C 0.04321 0.88357 0.52214 0.0
H607 H 0.9748 0.80855 0.56888 0.0
H608 H 0.99994 0.84255 0.56389 0.0
H609 H 0.96725 0.84015 0.54804 0.0
H610 H 0.97904 0.87153 0.49592 0.0
H611 H 0.98097 0.92551 0.50169 0.0
H612 H 0.48815 0.8255 0.64209 0.0
H613 H 0.50227 0.77744 0.62738 0.0
H614 H 0.4144 0.73779 0.63624 0.0
H615 H 0.40018 0.78546 0.6512 0.0
H616 H 0.45628 0.70258 0.66008 0.0
H617 H 0.48398 0.74315 0.55128 0.0
H618 H 0.499 0.7662 0.57678 0.0
H619 H 0.46133 0.76179 0.57445 0.0
C620 C 0.47193 0.80644 0.64104 0.0
C621 C 0.44308 0.80919 0.64749 0.0
C622 C 0.47998 0.77916 0.63255 0.0
C623 C 0.45928 0.75435 0.63056 0.0
C624 C 0.43058 0.75683 0.63758 0.0
H625 H 0.45349 0.57064 0.58248 0.0
H626 H 0.44352 0.61778 0.60227 0.0
C627 C 0.42252 0.78407 0.6459 0.0
C628 C 0.46736 0.72582 0.62066 0.0
H629 H 0.4908 0.6933 0.56321 0.0
C630 C 0.46394 0.70045 0.63894 0.0
C631 C 0.47725 0.72338 0.59309 0.0
C632 C 0.4805 0.74996 0.5726 0.0
C633 C 0.47041 0.67249 0.63035 0.0
C634 C 0.47989 0.6699 0.60264 0.0
C635 C 0.48351 0.69541 0.58444 0.0
C636 C 0.48607 0.64096 0.59189 0.0
C637 C 0.46745 0.64615 0.65105 0.0
C638 C 0.51309 0.63866 0.57905 0.0
C639 C 0.51872 0.612 0.56744 0.0
C640 C 0.49739 0.58713 0.56847 0.0
C641 C 0.47038 0.58937 0.58155 0.0
C642 C 0.46472 0.61618 0.59301 0.0
H643 H 0.46785 0.65371 0.67222 0.0
H644 H 0.44679 0.63202 0.64971 0.0
H645 H 0.48468 0.63192 0.64711 0.0
H646 H 0.52979 0.65761 0.57788 0.0
H647 H 0.53977 0.61096 0.55755 0.0
H648 H 0.85381 0.94363 0.82285 0.0
H649 H 0.87777 0.96317 0.77846 0.0
H650 H 0.8992 0.8747 0.76193 0.0
H651 H 0.87406 0.85467 0.80543 0.0
H652 H 0.93197 0.96677 0.75772 0.0
H653 H 0.86569 0.8952 0.69276 0.0
H654 H 0.85597 0.89766 0.72873 0.0
H655 H 0.8814 0.8733 0.71729 0.0
C656 C 0.86315 0.92814 0.80961 0.0
C657 C 0.86175 0.89743 0.81795 0.0
C658 C 0.87712 0.93946 0.78424 0.0
C659 C 0.89001 0.92041 0.76645 0.0
C660 C 0.88894 0.88985 0.77484 0.0
H661 H 0.01831 0.98098 0.62931 0.0
H662 H 0.99348 0.9625 0.67371 0.0
C663 C 0.87484 0.87848 0.80007 0.0
C664 C 0.90505 0.93254 0.73944 0.0
H665 H 0.90873 0.92188 0.67087 0.0
C666 C 0.92677 0.95702 0.73873 0.0
C667 C 0.89813 0.92024 0.71444 0.0
C668 C 0.87383 0.89537 0.71324 0.0
C669 C 0.94196 0.96912 0.71399 0.0
C670 C 0.93584 0.95598 0.68914 0.0
C671 C 0.91381 0.93182 0.68982 0.0
C672 C 0.95135 0.96737 0.66211 0.0
C673 C 0.96394 0.99636 0.71475 0.0
C674 C 0.93612 0.9755 0.64031 0.0
C675 C 0.95025 0.98564 0.61477 0.0
C676 C 0.98009 0.988 0.61027 0.0
C677 C 0.99537 0.97976 0.63206 0.0
C678 C 0.98116 0.96936 0.65759 0.0
H679 H 0.96013 0.00888 0.73341 0.0
H680 H 0.9853 0.98893 0.71494 0.0
H681 H 0.96408 0.01202 0.69659 0.0
H682 H 0.91317 0.97413 0.64306 0.0
H683 H 0.93771 0.99172 0.59854 0.0
H684 H 0.57831 0.16941 0.33266 0.0
H685 H 0.56239 0.14212 0.29391 0.0
H686 H 0.56827 0.05765 0.33736 0.0
H687 H 0.58433 0.08497 0.37638 0.0
H688 H 0.59867 0.06335 0.28843 0.0
H689 H 0.49096 0.09166 0.27512 0.0
H690 H 0.51526 0.12496 0.27852 0.0
H691 H 0.50742 0.09707 0.30658 0.0
C692 C 0.57533 0.14501 0.33434 0.0
C693 C 0.58263 0.12931 0.35751 0.0
C694 C 0.56611 0.12941 0.3122 0.0
C695 C 0.56375 0.09784 0.31291 0.0
C696 C 0.56977 0.08202 0.3365 0.0
H697 H 0.52443 0.01529 0.15904 0.0
H698 H 0.52183 0.023 0.2081 0.0
C699 C 0.57908 0.09762 0.35867 0.0
C700 C 0.55914 0.08203 0.28763 0.0
H701 H 0.51817 0.07883 0.23404 0.0
C702 C 0.5807 0.06609 0.27685 0.0
C703 C 0.53555 0.08529 0.27266 0.0
C704 C 0.51085 0.10041 0.28399 0.0
C705 C 0.58035 0.05532 0.25062 0.0
C706 C 0.5581 0.06103 0.23471 0.0
C707 C 0.53542 0.07489 0.24621 0.0
C708 C 0.55962 0.05566 0.20531 0.0
C709 C 0.60436 0.03888 0.23975 0.0
C710 C 0.58146 0.07184 0.18763 0.0
C711 C 0.58289 0.06774 0.1597 0.0
C712 C 0.56241 0.04742 0.14884 0.0
C713 C 0.5404 0.03131 0.16667 0.0
C714 C 0.53895 0.03553 0.1947 0.0
H715 H 0.61455 0.0284 0.2566 0.0
H716 H 0.59675 0.02107 0.22615 0.0
H717 H 0.62082 0.05515 0.22777 0.0
H718 H 0.59723 0.08802 0.19542 0.0
H719 H 0.59973 0.08102 0.1466 0.0
H720 H 0.43364 0.63984 0.26456 0.0
H721 H 0.44808 0.61993 0.30758 0.0
H722 H 0.3608 0.58524 0.33352 0.0
H723 H 0.3462 0.60503 0.29033 0.0
H724 H 0.42845 0.63448 0.3613 0.0
H725 H 0.40504 0.51203 0.34493 0.0
H726 H 0.40847 0.54052 0.31727 0.0
H727 H 0.37683 0.53449 0.34046 0.0
C728 C 0.41755 0.62782 0.27939 0.0
C729 C 0.38886 0.62388 0.2741 0.0
C730 C 0.42581 0.61652 0.30394 0.0
C731 C 0.40555 0.60088 0.3236 0.0
C732 C 0.37681 0.59687 0.31842 0.0
H733 H 0.43456 0.51704 0.48159 0.0
H734 H 0.41186 0.53496 0.4422 0.0
C735 C 0.36849 0.60828 0.29381 0.0
C736 C 0.41476 0.58958 0.34972 0.0
H737 H 0.423 0.52528 0.3865 0.0
C738 C 0.42714 0.61061 0.3669 0.0
C739 C 0.41283 0.55844 0.35701 0.0
C740 C 0.40027 0.53494 0.33894 0.0
C741 C 0.43801 0.60134 0.39104 0.0
C742 C 0.43699 0.57019 0.39788 0.0
C743 C 0.42384 0.54914 0.38113 0.0
C744 C 0.45064 0.55908 0.42165 0.0
C745 C 0.45043 0.62502 0.40904 0.0
C746 C 0.48003 0.56626 0.42289 0.0
C747 C 0.49304 0.55612 0.4453 0.0
C748 C 0.47695 0.53837 0.46686 0.0
C749 C 0.44755 0.53073 0.46536 0.0
C750 C 0.43454 0.54093 0.44288 0.0
H751 H 0.44216 0.64683 0.40541 0.0
H752 H 0.44568 0.61769 0.43098 0.0
H753 H 0.47387 0.62891 0.40439 0.0
H754 H 0.49296 0.57969 0.40645 0.0
H755 H 0.51574 0.56228 0.44571 0.0
H756 H 0.03253 0.43449 0.68759 0.0
H757 H 0.03215 0.44082 0.73668 0.0
H758 H 0.08088 0.52868 0.7209 0.0
H759 H 0.08131 0.52254 0.6716 0.0
H760 H 0.08176 0.45081 0.76547 0.0
H761 H 1.01396 0.54266 0.77661 0.0
H762 H 0.01457 0.51984 0.74728 0.0
H763 H 0.04288 0.54971 0.7502 0.0
C764 C 0.04287 0.45534 0.69452 0.0
C765 C 0.05693 0.47813 0.6758 0.0
C766 C 0.04267 0.45886 0.72257 0.0
C767 C 0.0563 0.48528 0.73235 0.0
C768 C 0.06988 0.50831 0.71371 0.0
H769 H 0.11406 0.51877 0.89131 0.0
H770 H 0.11029 0.5094 0.84302 0.0
C771 C 0.07016 0.50476 0.68563 0.0
C772 C 0.05752 0.48807 0.76206 0.0
H773 H 0.03768 0.52967 0.8151 0.0
C774 C 0.07203 0.46796 0.77639 0.0
C775 C 0.04461 0.51031 0.77618 0.0
C776 C 0.0279 0.53175 0.7619 0.0
C777 C 0.07444 0.46988 0.80448 0.0
C778 C 0.06216 0.49262 0.81844 0.0
C779 C 0.04719 0.51237 0.80422 0.0
C780 C 0.06473 0.49647 0.84782 0.0
C781 C 0.08987 0.44747 0.81908 0.0
C782 C 0.04036 0.49234 0.86639 0.0
C783 C 0.04245 0.4977 0.89392 0.0
C784 C 0.06895 0.50762 0.90329 0.0
C785 C 0.09338 0.5113 0.88465 0.0
C786 C 0.09128 0.50576 0.85714 0.0
H787 H 0.09254 0.42756 0.8069 0.0
H788 H 0.1113 0.45848 0.82277 0.0
H789 H 0.07828 0.43964 0.83919 0.0
H790 H 0.01966 0.48535 0.8595 0.0
H791 H 0.02317 0.49512 0.90761 0.0
H792 H 0.7941 0.89579 0.93487 0.0
H793 H 0.75122 0.91451 0.95476 0.0
H794 H 0.71931 0.9178 0.87555 0.0
H795 H 0.762 0.89858 0.85551 0.0
H796 H 0.72975 0.96933 0.94116 0.0
H797 H 0.65238 0.86975 0.92457 0.0
H798 H 0.69023 0.86834 0.92272 0.0
H799 H 0.67487 0.88551 0.89488 0.0
C800 C 0.77786 0.90015 0.92166 0.0
C801 C 0.78159 0.89541 0.89353 0.0
C802 C 0.75337 0.91106 0.93308 0.0
C803 C 0.73173 0.91724 0.9168 0.0
C804 C 0.73541 0.91278 0.88868 0.0
H805 H 0.56544 0.97871 0.9561 0.0
H806 H 0.60735 0.96035 0.93345 0.0
C807 C 0.76003 0.90205 0.87718 0.0
C808 C 0.7057 0.9289 0.92926 0.0
H809 H 0.63353 0.91181 0.94258 0.0
C810 C 0.70872 0.95672 0.94149 0.0
C811 C 0.67815 0.91264 0.92958 0.0
C812 C 0.67356 0.88228 0.91745 0.0
C813 C 0.68509 0.96882 0.95374 0.0
C814 C 0.65753 0.95227 0.9546 0.0
C815 C 0.65451 0.92456 0.94209 0.0
C816 C 0.63173 0.96315 0.9686 0.0
C817 C 0.68991 0.99962 0.96503 0.0
C818 C 0.63095 0.97037 0.99615 0.0
C819 C 0.60707 0.98111 1.00909 0.0
C820 C 0.58305 0.98448 0.99499 0.0
C821 C 0.58351 0.97647 0.96763 0.0
C822 C 0.60753 0.96593 0.95462 0.0
H823 H 0.7097 0.013 0.95519 0.0
H824 H 0.67182 0.01247 0.9621 0.0
H825 H 0.6922 0.99707 0.98722 0.0
H826 H 0.64883 0.96762 1.00778 0.0
H827 H 0.60747 0.98676 0.03023 0.0
H828 H 0.71345 0.13456 0.40026 0.0
H829 H 0.75881 0.11718 0.40829 0.0
H830 H 0.7472 0.13846 0.49279 0.0
H831 H 0.70202 0.15678 0.48465 0.0
H832 H 0.80293 0.15337 0.47015 0.0
H833 H 0.76025 0.03645 0.44879 0.0
H834 H 0.75884 0.0637 0.42125 0.0
H835 H 0.73789 0.06583 0.45313 0.0
C836 C 0.72061 0.13565 0.42053 0.0
C837 C 0.70407 0.14645 0.44204 0.0
C838 C 0.74649 0.12571 0.42507 0.0
C839 C 0.75598 0.12593 0.45125 0.0
C840 C 0.74011 0.13797 0.47247 0.0
H841 H 0.86492 0.012 0.52021 0.0
H842 H 0.82676 0.03962 0.50724 0.0
C843 C 0.71434 0.14828 0.46785 0.0
C844 C 0.78157 0.11206 0.45689 0.0
H845 H 0.80865 0.04514 0.45673 0.0
C846 C 0.8043 0.12974 0.46719 0.0
C847 C 0.78302 0.08113 0.45326 0.0
C848 C 0.75862 0.06056 0.44375 0.0
C849 C 0.82847 0.11719 0.47414 0.0
C850 C 0.83002 0.08636 0.47015 0.0
C851 C 0.80743 0.06884 0.45956 0.0
C852 C 0.85384 0.07101 0.47857 0.0
C853 C 0.85166 0.13672 0.48651 0.0
C854 C 0.88176 0.07957 0.46676 0.0
C855 C 0.90371 0.06378 0.47423 0.0
C856 C 0.89789 0.03897 0.49328 0.0
C857 C 0.86994 0.03064 0.5051 0.0
C858 C 0.84816 0.04652 0.49784 0.0
H859 H 0.84433 0.15778 0.49387 0.0
H860 H 0.85937 0.12437 0.50386 0.0
H861 H 0.86986 0.14308 0.47084 0.0
H862 H 0.88646 0.09805 0.45143 0.0
H863 H 0.92505 0.07048 0.46471 0.0
H864 H 0.25715 0.63062 0.2095 0.0
H865 H 0.21453 0.61184 0.18747 0.0
H866 H 0.2617 0.62976 0.10844 0.0
H867 H 0.30432 0.64805 0.13022 0.0
H868 H 0.18767 0.64533 0.14756 0.0
H869 H 0.22382 0.54142 0.10722 0.0
H870 H 0.24029 0.56105 0.13419 0.0
H871 H 0.24843 0.57512 0.09928 0.0
C872 C 0.25848 0.63015 0.18746 0.0
C873 C 0.28405 0.64083 0.17159 0.0
C874 C 0.23413 0.6196 0.17492 0.0
C875 C 0.23508 0.61919 0.14636 0.0
C876 C 0.26063 0.62955 0.13051 0.0
H877 H 0.11709 0.56702 0.02726 0.0
H878 H 0.15811 0.58632 0.05103 0.0
C879 C 0.28488 0.64022 0.14299 0.0
C880 C 0.20919 0.60891 0.13292 0.0
H881 H 0.18178 0.55616 0.09112 0.0
C882 C 0.18623 0.62572 0.13537 0.0
C883 C 0.20752 0.58343 0.11693 0.0
C884 C 0.2312 0.564 0.11436 0.0
C885 C 0.16184 0.61813 0.12168 0.0
C886 C 0.16021 0.59268 0.10557 0.0
C887 C 0.18312 0.57575 0.10335 0.0
C888 C 0.13486 0.58294 0.09105 0.0
C889 C 0.13844 0.63792 0.12397 0.0
C890 C 0.10816 0.57475 0.10562 0.0
C891 C 0.08466 0.56391 0.09209 0.0
C892 C 0.08747 0.56072 0.06371 0.0
C893 C 0.11418 0.56928 0.0491 0.0
C894 C 0.13765 0.58024 0.06266 0.0
H895 H 0.14625 0.66072 0.13037 0.0
H896 H 0.12899 0.64036 0.10427 0.0
H897 H 0.12141 0.62754 0.1396 0.0
H898 H 0.10561 0.57599 0.1276 0.0
H899 H 0.06445 0.55729 0.10401 0.0
H900 H 0.14875 0.44258 0.62993 0.0
H901 H 0.20029 0.45405 0.62093 0.0
H902 H 0.19525 0.42469 0.53907 0.0
H903 H 0.14345 0.41336 0.54783 0.0
H904 H 0.2354 0.39925 0.56697 0.0
H905 H 0.24852 0.5232 0.57449 0.0
H906 H 0.22777 0.50315 0.60336 0.0
H907 H 0.21469 0.50157 0.57018 0.0
C908 C 0.15849 0.43914 0.60981 0.0
C909 C 0.14196 0.42724 0.58952 0.0
C910 C 0.18798 0.44573 0.6047 0.0
C911 C 0.20153 0.44069 0.57919 0.0
C912 C 0.18515 0.42891 0.55884 0.0
H913 H 0.38359 0.49206 0.53299 0.0
H914 H 0.33173 0.48725 0.53409 0.0
C915 C 0.15561 0.42233 0.56392 0.0
C916 C 0.23294 0.44588 0.57449 0.0
H917 H 0.29052 0.49919 0.57679 0.0
C918 C 0.24745 0.42116 0.56883 0.0
C919 C 0.2486 0.47456 0.57661 0.0
C920 C 0.23412 0.50221 0.58122 0.0
C921 C 0.27725 0.42411 0.56627 0.0
C922 C 0.29288 0.45243 0.56984 0.0
C923 C 0.27843 0.47742 0.57441 0.0
C924 C 0.32422 0.45624 0.56968 0.0
C925 C 0.29178 0.39685 0.55987 0.0
C926 C 0.33708 0.44095 0.58972 0.0
C927 C 0.36664 0.44381 0.58929 0.0
C928 C 0.38398 0.46209 0.56883 0.0
C929 C 0.37095 0.478 0.54917 0.0
C930 C 0.34131 0.47516 0.54966 0.0
H931 H 0.27744 0.37932 0.55074 0.0
H932 H 0.31119 0.40317 0.54559 0.0
H933 H 0.2982 0.38684 0.57904 0.0
H934 H 0.3242 0.42676 0.6057 0.0
H935 H 0.3759 0.43173 0.60506 0.0
H936 H 0.93568 0.82202 0.92068 0.0
H937 H 0.95437 0.77883 0.94123 0.0
H938 H 0.87637 0.7222 0.9303 0.0
H939 H 0.85697 0.76606 0.91118 0.0
H940 H 0.8931 0.70607 0.97643 0.0
H941 H 0.98765 0.71531 0.90199 0.0
H942 H 0.98723 0.7492 0.91986 0.0
H943 H 0.95949 0.73806 0.89818 0.0
C944 C 0.92248 0.80036 0.92277 0.0
C945 C 0.89492 0.79743 0.91421 0.0
C946 C 0.93331 0.77552 0.93427 0.0
C947 C 0.91727 0.74678 0.93663 0.0
C948 C 0.8894 0.74396 0.92858 0.0
H949 H 1.00005 0.58554 0.96046 0.0
H950 H 0.9777 0.62753 0.94272 0.0
C951 C 0.87828 0.76905 0.91762 0.0
C952 C 0.92955 0.7199 0.9476 0.0
H953 H 0.98866 0.68356 0.94207 0.0
C954 C 0.91392 0.70104 0.96872 0.0
C955 C 0.95649 0.71265 0.93733 0.0
C956 C 0.9735 0.72968 0.9129 0.0
C957 C 0.92454 0.6757 0.98007 0.0
C958 C 0.95224 0.66958 0.97094 0.0
C959 C 0.96766 0.68823 0.94955 0.0
C960 C 0.96538 0.64347 0.98235 0.0
C961 C 0.90543 0.65533 1.00111 0.0
C962 C 0.96635 0.63812 1.01068 0.0
C963 C 0.9786 0.61348 0.02094 0.0
C964 C 0.99108 0.59419 1.0031 0.0
C965 C 0.99084 0.60004 0.97481 0.0
C966 C 0.97799 0.62415 0.96462 0.0
H967 H 0.88264 0.65711 0.99901 0.0
H968 H 0.90883 0.6314 0.99938 0.0
H969 H 0.90997 0.66218 0.02183 0.0
H970 H 0.95782 0.65311 0.02494 0.0
H971 H 0.97864 0.60975 0.04283 0.0
H972 H 0.32965 0.74406 0.16718 0.0
H973 H 0.35696 0.7905 0.14623 0.0
H974 H 0.43506 0.75381 0.15685 0.0
H975 H 0.4079 0.70684 0.17695 0.0
H976 H 0.39777 0.83074 0.16743 0.0
H977 H 0.44301 0.77971 0.07544 0.0
H978 H 0.41378 0.76041 0.09793 0.0
H979 H 0.44954 0.7621 0.10738 0.0
C980 C 0.35263 0.74573 0.1648 0.0
C981 C 0.36659 0.72164 0.17352 0.0
C982 C 0.3682 0.77237 0.15302 0.0
C983 C 0.398 0.77542 0.14965 0.0
C984 C 0.41205 0.75171 0.15884 0.0
H985 H 0.50619 0.9468 0.10664 0.0
H986 H 0.48364 0.89931 0.13004 0.0
C987 C 0.3965 0.72502 0.17059 0.0
C988 C 0.41424 0.80347 0.13648 0.0
H989 H 0.45936 0.83099 0.08083 0.0
C990 C 0.41131 0.83084 0.14854 0.0
C991 C 0.43163 0.80349 0.11168 0.0
C992 C 0.43456 0.77493 0.09715 0.0
C993 C 0.42528 0.85829 0.13643 0.0
C994 C 0.443 0.85825 0.11185 0.0
C995 C 0.44596 0.83088 0.09981 0.0
C996 C 0.4575 0.88653 0.09754 0.0
C997 C 0.42031 0.88717 0.14963 0.0
C998 C 0.45087 0.89463 0.07122 0.0
C999 C 0.46382 0.92157 0.05774 0.0
C1000 C 0.48377 0.94092 0.07029 0.0
C1001 C 0.49081 0.93247 0.09647 0.0
C1002 C 0.47784 0.90544 0.10994 0.0
H1003 H 0.40127 0.88394 0.16469 0.0
H1004 H 0.43902 0.89523 0.16053 0.0
H1005 H 0.41757 0.905 0.13403 0.0
H1006 H 0.4353 0.88028 0.06127 0.0
H1007 H 0.45794 0.92736 0.03758 0.0
H1008 H 0.07864 0.35137 0.54859 0.0
H1009 H 0.06122 0.29916 0.5411 0.0
H1010 H 1.00878 0.29253 0.61762 0.0
H1011 H 0.02772 0.34389 0.6263 0.0
H1012 H 0.03691 0.2473 0.61518 0.0
H1013 H 0.98959 0.25739 0.51733 0.0
H1014 H 0.02568 0.27515 0.51388 0.0
H1015 H 0.99961 0.28973 0.53663 0.0
C1016 C 0.06338 0.33886 0.56385 0.0
C1017 C 0.05475 0.35197 0.58812 0.0
C1018 C 0.053 0.3091 0.55928 0.0
C1019 C 0.03325 0.29199 0.57855 0.0
C1020 C 0.02383 0.30533 0.60233 0.0
H1021 H 0.97091 0.10517 0.54339 0.0
H1022 H 0.97148 0.15847 0.55325 0.0
C1023 C 0.03452 0.3349 0.60713 0.0
C1024 C 0.02484 0.25937 0.57531 0.0
H1025 H 1.00332 0.20846 0.52929 0.0
C1026 C 0.02908 0.23889 0.59655 0.0
C1027 C 1.01409 0.24822 0.55127 0.0
C1028 C 1.00668 0.26884 0.52865 0.0
C1029 C 0.02432 0.2077 0.59388 0.0
C1030 C 0.016 0.19664 0.56892 0.0
C1031 C 1.0102 0.21698 0.54824 0.0
C1032 C 0.01514 0.16432 0.56332 0.0
C1033 C 0.02848 0.18696 0.61781 0.0
C1034 C 0.03957 0.15013 0.56529 0.0
C1035 C 0.03922 0.1198 0.55999 0.0
C1036 C 0.01455 0.10308 0.55209 0.0
C1037 C 0.99019 0.11743 0.54958 0.0
C1038 C 0.99049 0.14784 0.55516 0.0
H1039 H 0.02473 0.19774 0.63746 0.0
H1040 H 1.01401 0.16543 0.61839 0.0
H1041 H 0.05075 0.18185 0.61611 0.0
H1042 H 0.05909 0.1626 0.57072 0.0
H1043 H 0.05848 0.10959 0.56177 0.0
H1044 H 0.63431 0.24415 0.40804 0.0
H1045 H 0.61929 0.29128 0.42362 0.0
H1046 H 0.53292 0.24784 0.43917 0.0
H1047 H 0.54786 0.20036 0.42401 0.0
H1048 H 0.57506 0.32416 0.40335 0.0
H1049 H 0.55446 0.2841 0.51282 0.0
H1050 H 0.57592 0.26567 0.48839 0.0
H1051 H 0.5379 0.26032 0.48866 0.0
C1052 C 0.61215 0.24461 0.41495 0.0
C1053 C 0.59226 0.21858 0.41513 0.0
C1054 C 0.60361 0.27153 0.42362 0.0
C1055 C 0.57512 0.27279 0.43274 0.0
C1056 C 0.55507 0.24708 0.43243 0.0
H1057 H 0.49194 0.41311 0.50842 0.0
H1058 H 0.50273 0.36677 0.4879 0.0
C1059 C 0.56358 0.22012 0.42365 0.0
C1060 C 0.56659 0.30099 0.44304 0.0
H1061 H 0.54419 0.3329 0.50121 0.0
C1062 C 0.56824 0.32616 0.42472 0.0
C1063 C 0.55778 0.30329 0.4709 0.0
C1064 C 0.55655 0.27703 0.49147 0.0
C1065 C 0.561 0.35375 0.43357 0.0
C1066 C 0.55252 0.35617 0.46153 0.0
C1067 C 0.55069 0.33088 0.47978 0.0
C1068 C 0.54573 0.38481 0.47251 0.0
C1069 C 0.56211 0.37986 0.41288 0.0
C1070 C 0.56643 0.41021 0.47069 0.0
C1071 C 0.56031 0.43679 0.48228 0.0
C1072 C 0.53349 0.43822 0.49614 0.0
C1073 C 0.51281 0.41271 0.49789 0.0
C1074 C 0.51891 0.38623 0.48618 0.0
H1075 H 0.5612 0.37213 0.3918 0.0
H1076 H 0.54432 0.39321 0.41749 0.0
H1077 H 0.5824 0.39492 0.41347 0.0
H1078 H 0.58749 0.4093 0.46077 0.0
H1079 H 0.57673 0.45602 0.48077 0.0
loop_
_geom_bond_atom_site_label_1
_geom_bond_atom_site_label_2
_geom_bond_distance
_geom_bond_site_symmetry_2
_ccdc_geom_bond_type
H0 C5 0.930 . S
H1 C8 0.930 . S
H2 C10 0.930 . S
H3 C4 1.016 . S
C4 H3 1.016 . S
C4 N11 1.286 . S
C5 H0 0.930 . S
C5 C6 1.397 . S
C5 C7 1.361 . S
C6 C5 1.397 . S
C6 C10 1.390 . S
C7 C5 1.361 . S
C7 C8 1.393 . S
C7 N11 1.413 . S
C8 H1 0.930 . S
C8 C7 1.393 . S
C8 C9 1.399 . S
C9 C8 1.399 . S
C9 C10 1.381 . S
C10 H2 0.930 . S
C10 C6 1.390 . S
C10 C9 1.381 . S
N11 C4 1.286 . S
N11 C7 1.413 . S
H12 C17 0.930 . S
H13 C20 0.930 . S
H14 C22 0.930 . S
H15 C16 1.016 . S
C16 H15 1.016 . S
C16 N23 1.286 . S
C17 H12 0.930 . S
C17 C18 1.397 . S
C17 C19 1.361 . S
C18 C17 1.397 . S
C18 C22 1.390 . S
C19 C17 1.361 . S
C19 C20 1.393 . S
C19 N23 1.413 . S
C20 H13 0.930 . S
C20 C19 1.393 . S
C20 C21 1.399 . S
C21 C20 1.399 . S
C21 C22 1.381 . S
C22 H14 0.930 . S
C22 C18 1.390 . S
C22 C21 1.381 . S
N23 C16 1.286 . S
N23 C19 1.413 . S
H24 C29 0.930 . S
H25 C32 0.930 . S
H26 C34 0.930 . S
H27 C28 1.016 . S
C28 H27 1.016 . S
C28 N35 1.286 . S
C29 H24 0.930 . S
C29 C30 1.397 . S
C29 C31 1.361 . S
C30 C29 1.397 . S
C30 C34 1.390 . S
C31 C29 1.361 . S
C31 C32 1.393 . S
C31 N35 1.413 . S
C32 H25 0.930 . S
C32 C31 1.393 . S
C32 C33 1.399 . S
C33 C32 1.399 . S
C33 C34 1.381 . S
C34 H26 0.930 . S
C34 C30 1.390 . S
C34 C33 1.381 . S
N35 C28 1.286 . S
N35 C31 1.413 . S
H36 C41 0.930 . S
H37 C44 0.930 . S
H38 C46 0.930 . S
H39 C40 1.016 . S
C40 H39 1.016 . S
C40 N47 1.286 . S
C41 H36 0.930 . S
C41 C42 1.397 . S
C41 C43 1.361 . S
C42 C41 1.397 . S
C42 C46 1.390 . S
C43 C41 1.361 . S
C43 C44 1.393 . S
C43 N47 1.413 . S
C44 H37 0.930 . S
C44 C43 1.393 . S
C44 C45 1.399 . S
C45 C44 1.399 . S
C45 C46 1.381 . S
C46 H38 0.930 . S
C46 C42 1.390 . S
C46 C45 1.381 . S
N47 C40 1.286 . S
N47 C43 1.413 . S
H48 C53 0.930 . S
H49 C56 0.930 . S
H50 C58 0.930 . S
H51 C52 1.016 . S
C52 H51 1.016 . S
C52 N59 1.286 . S
C53 H48 0.930 . S
C53 C54 1.397 . S
C53 C55 1.361 . S
C54 C53 1.397 . S
C54 C58 1.390 . S
C55 C53 1.361 . S
C55 C56 1.393 . S
C55 N59 1.413 . S
C56 H49 0.930 . S
C56 C55 1.393 . S
C56 C57 1.399 . S
C57 C56 1.399 . S
C57 C58 1.381 . S
C58 H50 0.930 . S
C58 C54 1.390 . S
C58 C57 1.381 . S
N59 C52 1.286 . S
N59 C55 1.413 . S
H60 C65 0.930 . S
H61 C68 0.930 . S
H62 C70 0.930 . S
H63 C64 1.016 . S
C64 H63 1.016 . S
C64 N71 1.286 . S
C65 H60 0.930 . S
C65 C66 1.397 . S
C65 C67 1.361 . S
C66 C65 1.397 . S
C66 C70 1.390 . S
C67 C65 1.361 . S
C67 C68 1.393 . S
C67 N71 1.413 . S
C68 H61 0.930 . S
C68 C67 1.393 . S
C68 C69 1.399 . S
C69 C68 1.399 . S
C69 C70 1.381 . S
C70 H62 0.930 . S
C70 C66 1.390 . S
C70 C69 1.381 . S
N71 C64 1.286 . S
N71 C67 1.413 . S
H72 C77 0.930 . S
H73 C80 0.930 . S
H74 C82 0.930 . S
H75 C76 1.016 . S
C76 H75 1.016 . S
C76 N83 1.286 . S
C77 H72 0.930 . S
C77 C78 1.397 . S
C77 C79 1.361 . S
C78 C77 1.397 . S
C78 C82 1.390 . S
C79 C77 1.361 . S
C79 C80 1.393 . S
C79 N83 1.413 . S
C80 H73 0.930 . S
C80 C79 1.393 . S
C80 C81 1.399 . S
C81 C80 1.399 . S
C81 C82 1.381 . S
C82 H74 0.930 . S
C82 C78 1.390 . S
C82 C81 1.381 . S
N83 C76 1.286 . S
N83 C79 1.413 . S
H84 C89 0.930 . S
H85 C92 0.930 . S
H86 C94 0.930 . S
H87 C88 1.016 . S
C88 H87 1.016 . S
C88 N95 1.286 . S
C89 H84 0.930 . S
C89 C90 1.397 . S
C89 C91 1.361 . S
C90 C89 1.397 . S
C90 C94 1.390 . S
C91 C89 1.361 . S
C91 C92 1.393 . S
C91 N95 1.413 . S
C92 H85 0.930 . S
C92 C91 1.393 . S
C92 C93 1.399 . S
C93 C92 1.399 . S
C93 C94 1.381 . S
C94 H86 0.930 . S
C94 C90 1.390 . S
C94 C93 1.381 . S
N95 C88 1.286 . S
N95 C91 1.413 . S
Co96 N101 2.057 . S
Co96 O113 2.021 . S
Co96 O116 2.062 . S
Co96 O120 2.117 1_545 S
Co96 O121 2.030 . S
C97 O117 1.259 1_655 S
C97 O120 1.258 . S
Co98 N107 2.057 . S
Co98 O114 2.117 1_565 S
Co98 O115 2.020 1_565 S
Co98 O117 2.021 . S
Co98 O122 2.062 . S
C99 N101 1.316 . S
C99 N102 1.347 . S
C99 H104 0.931 . S
C100 N101 1.375 1_565 S
C100 C103 1.350 1_565 S
C100 H105 0.930 . S
N101 Co96 2.057 . S
N101 C99 1.316 . S
N101 C100 1.375 1_545 S
N102 C99 1.347 . S
N102 C103 1.373 . S
C103 C100 1.350 1_545 S
C103 N102 1.373 . S
C103 H124 0.931 1_545 S
H104 C99 0.931 . S
H105 C100 0.930 . S
C106 O113 1.259 1_455 S
C106 O114 1.258 . S
N107 Co98 2.057 . S
N107 C108 1.316 . S
N107 C109 1.375 1_565 S
C108 N107 1.316 . S
C108 N110 1.347 . S
C108 H119 0.931 . S
C109 N107 1.375 1_545 S
C109 C111 1.350 . S
C109 H118 0.930 . S
N110 C108 1.347 . S
N110 C111 1.373 1_565 S
C111 C109 1.350 . S
C111 N110 1.373 1_545 S
C111 H125 0.931 . S
C112 O115 1.256 . S
C112 O116 1.255 1_455 S
O113 Co96 2.021 . S
O113 C106 1.259 1_655 S
O114 Co98 2.117 1_545 S
O114 C106 1.258 . S
O115 Co98 2.020 1_545 S
O115 C112 1.256 . S
O116 Co96 2.062 . S
O116 C112 1.255 1_655 S
O117 C97 1.259 1_455 S
O117 Co98 2.021 . S
H118 C109 0.930 . S
H119 C108 0.931 . S
O120 Co96 2.117 1_565 S
O120 C97 1.258 . S
O121 Co96 2.030 . S
O121 C123 1.240 1_545 S
O122 Co98 2.062 . S
O122 C123 1.255 1_455 S
C123 O121 1.240 1_565 S
C123 O122 1.255 1_655 S
H124 C103 0.931 1_565 S
H125 C111 0.931 . S
Co126 N131 2.057 1_545 S
Co126 O143 2.021 . S
Co126 O146 2.062 . S
Co126 O150 2.117 1_546 S
Co126 O151 2.020 1_556 S
C127 O147 1.259 . S
C127 O150 1.258 . S
Co128 N137 2.057 . S
Co128 O144 2.117 . S
Co128 O145 2.020 . S
Co128 O147 2.021 1_545 S
Co128 O152 2.062 . S
C129 N131 1.316 . S
C129 N132 1.347 . S
C129 H134 0.931 1_565 S
C130 N131 1.375 . S
C130 C133 1.350 . S
C130 H135 0.930 . S
N131 Co126 2.057 1_565 S
N131 C129 1.316 . S
N131 C130 1.375 . S
N132 C129 1.347 . S
N132 C133 1.373 . S
C133 C130 1.350 . S
C133 N132 1.373 . S
C133 H154 0.931 . S
H134 C129 0.931 1_545 S
H135 C130 0.930 . S
C136 O143 1.259 . S
C136 O144 1.258 1_556 S
N137 Co128 2.057 . S
N137 C138 1.316 . S
N137 C139 1.375 . S
C138 N137 1.316 . S
C138 N140 1.347 . S
C138 H149 0.931 . S
C139 N137 1.375 . S
C139 C141 1.350 . S
C139 H148 0.930 . S
N140 C138 1.347 . S
N140 C141 1.373 . S
C141 C139 1.350 . S
C141 N140 1.373 . S
C141 H155 0.931 . S
C142 O145 1.272 . S
C142 O146 1.243 1_554 S
O143 Co126 2.021 . S
O143 C136 1.259 . S
O144 Co128 2.117 . S
O144 C136 1.258 1_554 S
O145 Co128 2.020 . S
O145 C142 1.272 . S
O146 Co126 2.062 . S
O146 C142 1.243 1_556 S
O147 C127 1.259 . S
O147 Co128 2.021 1_565 S
H148 C139 0.930 . S
H149 C138 0.931 . S
O150 Co126 2.117 1_564 S
O150 C127 1.258 . S
O151 Co126 2.020 1_554 S
O151 C153 1.256 . S
O152 Co128 2.062 . S
O152 C153 1.255 . S
C153 O151 1.256 . S
C153 O152 1.255 . S
H154 C133 0.931 . S
H155 C141 0.931 . S
Co156 N161 2.057 . S
Co156 O173 2.021 . S
Co156 O176 2.062 . S
Co156 O180 2.117 . S
Co156 O181 2.020 . S
C157 O177 1.259 . S
C157 O180 1.258 . S
Co158 N167 2.057 . S
Co158 O174 2.117 . S
Co158 O175 2.020 . S
Co158 O177 2.021 . S
Co158 O182 2.062 . S
C159 N161 1.316 . S
C159 N162 1.347 . S
C159 H164 0.931 . S
C160 N161 1.375 . S
C160 C163 1.350 . S
C160 H165 0.930 . S
N161 Co156 2.057 . S
N161 C159 1.316 . S
N161 C160 1.375 . S
N162 C159 1.347 . S
N162 C163 1.373 . S
C163 C160 1.350 . S
C163 N162 1.373 . S
C163 H184 0.931 . S
H164 C159 0.931 . S
H165 C160 0.930 . S
C166 O173 1.259 . S
C166 O174 1.258 . S
N167 Co158 2.057 . S
N167 C168 1.316 . S
N167 C169 1.375 . S
C168 N167 1.316 . S
C168 N170 1.347 . S
C168 H179 0.931 . S
C169 N167 1.375 . S
C169 C171 1.350 . S
C169 H178 0.930 . S
N170 C168 1.347 . S
N170 C171 1.373 . S
C171 C169 1.350 . S
C171 N170 1.373 . S
C171 H185 0.931 . S
C172 O175 1.256 . S
C172 O176 1.255 . S
O173 Co156 2.021 . S
O173 C166 1.259 . S
O174 Co158 2.117 . S
O174 C166 1.258 . S
O175 Co158 2.020 . S
O175 C172 1.256 . S
O176 Co156 2.062 . S
O176 C172 1.255 . S
O177 C157 1.259 . S
O177 Co158 2.021 . S
H178 C169 0.930 . S
H179 C168 0.931 . S
O180 Co156 2.117 . S
O180 C157 1.258 . S
O181 Co156 2.020 . S
O181 C183 1.256 . S
O182 Co158 2.062 . S
O182 C183 1.255 . S
C183 O181 1.256 . S
C183 O182 1.255 . S
H184 C163 0.931 . S
H185 C171 0.931 . S
Co186 N191 2.057 . S
Co186 O203 2.021 . S
Co186 O206 2.062 1_556 S
Co186 O210 2.117 1_455 S
Co186 O211 2.020 . S
C187 O207 1.259 . S
C187 O210 1.258 1_554 S
Co188 N197 2.057 . S
Co188 O204 2.117 1_655 S
Co188 O205 2.020 1_655 S
Co188 O207 2.021 . S
Co188 O212 2.062 . S
C189 N191 1.316 . S
C189 N192 1.347 . S
C189 H194 0.931 . S
C190 N191 1.375 . S
C190 C193 1.350 . S
C190 H195 0.930 1_455 S
N191 Co186 2.057 . S
N191 C189 1.316 . S
N191 C190 1.375 . S
N192 C189 1.347 . S
N192 C193 1.373 . S
C193 C190 1.350 . S
C193 N192 1.373 . S
C193 H214 0.931 . S
H194 C189 0.931 . S
H195 C190 0.930 1_655 S
C196 O203 1.259 1_554 S
C196 O204 1.258 . S
N197 Co188 2.057 . S
N197 C198 1.316 . S
N197 C199 1.375 1_655 S
C198 N197 1.316 . S
C198 N200 1.347 . S
C198 H209 0.931 . S
C199 N197 1.375 1_455 S
C199 C201 1.350 . S
C199 H208 0.930 . S
N200 C198 1.347 . S
N200 C201 1.373 1_655 S
C201 C199 1.350 . S
C201 N200 1.373 1_455 S
C201 H215 0.931 . S
C202 O205 1.256 . S
C202 O206 1.255 . S
O203 Co186 2.021 . S
O203 C196 1.259 1_556 S
O204 Co188 2.117 1_455 S
O204 C196 1.258 . S
O205 Co188 2.020 1_455 S
O205 C202 1.256 . S
O206 Co186 2.062 1_554 S
O206 C202 1.255 . S
O207 C187 1.259 . S
O207 Co188 2.021 . S
H208 C199 0.930 . S
H209 C198 0.931 . S
O210 Co186 2.117 1_655 S
O210 C187 1.258 1_556 S
O211 Co186 2.020 . S
O211 C213 1.241 1_456 S
O212 Co188 2.062 . S
O212 C213 1.272 . S
C213 O211 1.241 1_654 S
C213 O212 1.272 . S
H214 C193 0.931 . S
H215 C201 0.931 . S
H216 C224 0.929 . S
H217 C226 0.930 . S
H218 C228 0.930 . S
H219 C231 0.929 . S
H220 C234 0.930 . S
H221 C236 0.960 . S
H222 C236 0.960 . S
H223 C236 0.960 . S
C224 H216 0.929 . S
C224 C225 1.377 . S
C224 C226 1.384 . S
C225 C224 1.377 . S
C225 C231 1.390 . S
C226 H217 0.930 . S
C226 C224 1.384 . S
C226 C227 1.372 . S
C227 C226 1.372 . S
C227 C228 1.400 . S
C227 C232 1.490 . S
C228 H218 0.930 . S
C228 C227 1.400 . S
C228 C231 1.386 . S
H229 C245 0.930 . S
H230 C246 0.931 . S
C231 H219 0.929 . S
C231 C225 1.390 . S
C231 C228 1.386 . S
C232 C227 1.490 . S
C232 C234 1.395 . S
C232 C235 1.403 . S
H233 C239 0.930 . S
C234 H220 0.930 . S
C234 C232 1.395 . S
C234 C237 1.403 . S
C235 C232 1.403 . S
C235 C236 1.524 . S
C235 C239 1.400 . S
C236 H221 0.960 . S
C236 H222 0.960 . S
C236 H223 0.960 . S
C236 C235 1.524 . S
C237 C234 1.403 . S
C237 C238 1.392 . S
C237 C241 1.495 . S
C238 C237 1.392 . S
C238 C239 1.385 . S
C238 C240 1.478 . S
C239 H233 0.930 . S
C239 C235 1.400 . S
C239 C238 1.385 . S
C240 C238 1.478 . S
C240 C242 1.381 . S
C240 C246 1.383 . S
C241 C237 1.495 . S
C241 H247 0.948 1_455 S
C241 H248 0.961 . S
C241 H249 0.960 1_455 S
C242 C240 1.381 . S
C242 C243 1.394 . S
C242 H250 0.930 . S
C243 C242 1.394 . S
C243 C244 1.383 . S
C243 H251 0.930 . S
C244 C243 1.383 . S
C244 C245 1.377 . S
C245 H229 0.930 . S
C245 C244 1.377 . S
C245 C246 1.379 . S
C246 H230 0.931 . S
C246 C240 1.383 . S
C246 C245 1.379 . S
H247 C241 0.948 1_655 S
H248 C241 0.961 . S
H249 C241 0.960 1_655 S
H250 C242 0.930 . S
H251 C243 0.930 . S
H252 C260 0.929 . S
H253 C262 0.930 . S
H254 C264 0.930 . S
H255 C267 0.929 . S
H256 C270 0.930 . S
H257 C272 0.960 . S
H258 C272 0.960 . S
H259 C272 0.960 . S
C260 H252 0.929 . S
C260 C261 1.377 . S
C260 C262 1.384 . S
C261 C260 1.377 . S
C261 C267 1.390 . S
C262 H253 0.930 . S
C262 C260 1.384 . S
C262 C263 1.372 . S
C263 C262 1.372 . S
C263 C264 1.400 . S
C263 C268 1.490 . S
C264 H254 0.930 . S
C264 C263 1.400 . S
C264 C267 1.386 . S
H265 C281 0.930 1_545 S
H266 C282 0.931 . S
C267 H255 0.929 . S
C267 C261 1.390 . S
C267 C264 1.386 . S
C268 C263 1.490 . S
C268 C270 1.395 . S
C268 C271 1.403 . S
H269 C275 0.930 . S
C270 H256 0.930 . S
C270 C268 1.395 . S
C270 C273 1.403 . S
C271 C268 1.403 . S
C271 C272 1.524 . S
C271 C275 1.400 . S
C272 H257 0.960 . S
C272 H258 0.960 . S
C272 H259 0.960 . S
C272 C271 1.524 . S
C273 C270 1.403 . S
C273 C274 1.392 . S
C273 C277 1.495 . S
C274 C273 1.392 . S
C274 C275 1.385 . S
C274 C276 1.478 . S
C275 H269 0.930 . S
C275 C271 1.400 . S
C275 C274 1.385 . S
C276 C274 1.478 . S
C276 C278 1.381 . S
C276 C282 1.383 . S
C277 C273 1.495 . S
C277 H283 0.959 . S
C277 H284 0.961 . S
C277 H285 0.960 . S
C278 C276 1.381 . S
C278 C279 1.394 . S
C278 H286 0.930 . S
C279 C278 1.394 . S
C279 C280 1.383 . S
C279 H287 0.929 . S
C280 C279 1.383 . S
C280 C281 1.377 . S
C281 H265 0.930 1_565 S
C281 C280 1.377 . S
C281 C282 1.379 . S
C282 H266 0.931 . S
C282 C276 1.383 . S
C282 C281 1.379 . S
H283 C277 0.959 . S
H284 C277 0.961 . S
H285 C277 0.960 . S
H286 C278 0.930 . S
H287 C279 0.929 . S
H288 C296 0.929 . S
H289 C298 0.930 . S
H290 C300 0.930 . S
H291 C303 0.929 . S
H292 C306 0.930 . S
H293 C308 0.960 . S
H294 C308 0.960 . S
H295 C308 0.960 . S
C296 H288 0.929 . S
C296 C297 1.377 . S
C296 C298 1.384 . S
C297 C296 1.377 . S
C297 C303 1.390 . S
C298 H289 0.930 . S
C298 C296 1.384 . S
C298 C299 1.372 . S
C299 C298 1.372 . S
C299 C300 1.400 . S
C299 C304 1.490 . S
C300 H290 0.930 . S
C300 C299 1.400 . S
C300 C303 1.386 . S
H301 C317 0.930 . S
H302 C318 0.931 . S
C303 H291 0.929 . S
C303 C297 1.390 . S
C303 C300 1.386 . S
C304 C299 1.490 . S
C304 C306 1.395 . S
C304 C307 1.403 . S
H305 C311 0.930 . S
C306 H292 0.930 . S
C306 C304 1.395 . S
C306 C309 1.403 . S
C307 C304 1.403 . S
C307 C308 1.524 . S
C307 C311 1.400 . S
C308 H293 0.960 . S
C308 H294 0.960 . S
C308 H295 0.960 . S
C308 C307 1.524 . S
C309 C306 1.403 . S
C309 C310 1.392 . S
C309 C313 1.495 . S
C310 C309 1.392 . S
C310 C311 1.385 . S
C310 C312 1.478 . S
C311 H305 0.930 . S
C311 C307 1.400 . S
C311 C310 1.385 . S
C312 C310 1.478 . S
C312 C314 1.381 . S
C312 C318 1.383 . S
C313 C309 1.495 . S
C313 H319 0.959 . S
C313 H320 0.961 . S
C313 H321 0.960 . S
C314 C312 1.381 . S
C314 C315 1.394 . S
C314 H322 0.930 . S
C315 C314 1.394 . S
C315 C316 1.383 . S
C315 H323 0.929 . S
C316 C315 1.383 . S
C316 C317 1.377 . S
C317 H301 0.930 . S
C317 C316 1.377 . S
C317 C318 1.379 . S
C318 H302 0.931 . S
C318 C312 1.383 . S
C318 C317 1.379 . S
H319 C313 0.959 . S
H320 C313 0.961 . S
H321 C313 0.960 . S
H322 C314 0.930 . S
H323 C315 0.929 . S
H324 C332 0.929 . S
H325 C334 0.930 . S
H326 C336 0.930 . S
H327 C339 0.929 . S
H328 C342 0.930 . S
H329 C344 0.960 . S
H330 C344 0.960 . S
H331 C344 0.960 . S
C332 H324 0.929 . S
C332 C333 1.377 . S
C332 C334 1.384 . S
C333 C332 1.377 . S
C333 C339 1.390 . S
C334 H325 0.930 . S
C334 C332 1.384 . S
C334 C335 1.372 . S
C335 C334 1.372 . S
C335 C336 1.400 . S
C335 C340 1.490 . S
C336 H326 0.930 . S
C336 C335 1.400 . S
C336 C339 1.386 . S
H337 C353 0.938 . S
H338 C354 0.931 . S
C339 H327 0.929 . S
C339 C333 1.390 . S
C339 C336 1.386 . S
C340 C335 1.490 . S
C340 C342 1.395 . S
C340 C343 1.403 . S
H341 C347 0.930 . S
C342 H328 0.930 . S
C342 C340 1.395 . S
C342 C345 1.403 . S
C343 C340 1.403 . S
C343 C344 1.524 . S
C343 C347 1.400 . S
C344 H329 0.960 . S
C344 H330 0.960 . S
C344 H331 0.960 . S
C344 C343 1.524 . S
C345 C342 1.403 . S
C345 C346 1.392 . S
C345 C349 1.495 . S
C346 C345 1.392 . S
C346 C347 1.385 . S
C346 C348 1.478 . S
C347 H341 0.930 . S
C347 C343 1.400 . S
C347 C346 1.385 . S
C348 C346 1.478 . S
C348 C350 1.381 . S
C348 C354 1.383 . S
C349 C345 1.495 . S
C349 H355 0.959 . S
C349 H356 0.961 . S
C349 H357 0.960 . S
C350 C348 1.381 . S
C350 C351 1.394 . S
C350 H358 0.930 . S
C351 C350 1.394 . S
C351 C352 1.383 . S
C351 H359 0.929 . S
C352 C351 1.383 . S
C352 C353 1.377 . S
C353 H337 0.938 . S
C353 C352 1.377 . S
C353 C354 1.379 . S
C354 H338 0.931 . S
C354 C348 1.383 . S
C354 C353 1.379 . S
H355 C349 0.959 . S
H356 C349 0.961 . S
H357 C349 0.960 . S
H358 C350 0.930 . S
H359 C351 0.929 . S
H360 C368 0.929 . S
H361 C370 0.930 . S
H362 C372 0.930 . S
H363 C375 0.929 . S
H364 C378 0.930 . S
H365 C380 0.960 . S
H366 C380 0.960 . S
H367 C380 0.960 . S
C368 H360 0.929 . S
C368 C369 1.377 . S
C368 C370 1.384 . S
C369 C368 1.377 . S
C369 C375 1.390 . S
C370 H361 0.930 . S
C370 C368 1.384 . S
C370 C371 1.372 . S
C371 C370 1.372 . S
C371 C372 1.400 . S
C371 C376 1.490 . S
C372 H362 0.930 . S
C372 C371 1.400 . S
C372 C375 1.386 . S
H373 C389 0.930 . S
H374 C390 0.931 . S
C375 H363 0.929 . S
C375 C369 1.390 . S
C375 C372 1.386 . S
C376 C371 1.490 . S
C376 C378 1.395 . S
C376 C379 1.403 . S
H377 C383 0.930 . S
C378 H364 0.930 . S
C378 C376 1.395 . S
C378 C381 1.403 . S
C379 C376 1.403 . S
C379 C380 1.524 . S
C379 C383 1.400 . S
C380 H365 0.960 . S
C380 H366 0.960 . S
C380 H367 0.960 . S
C380 C379 1.524 . S
C381 C378 1.403 . S
C381 C382 1.392 . S
C381 C385 1.495 . S
C382 C381 1.392 . S
C382 C383 1.385 . S
C382 C384 1.478 . S
C383 H377 0.930 . S
C383 C379 1.400 . S
C383 C382 1.385 . S
C384 C382 1.478 . S
C384 C386 1.381 . S
C384 C390 1.383 . S
C385 C381 1.495 . S
C385 H391 0.959 . S
C385 H392 0.961 . S
C385 H393 0.960 . S
C386 C384 1.381 . S
C386 C387 1.394 . S
C386 H394 0.930 . S
C387 C386 1.394 . S
C387 C388 1.383 . S
C387 H395 0.936 . S
C388 C387 1.383 . S
C388 C389 1.377 . S
C389 H373 0.930 . S
C389 C388 1.377 . S
C389 C390 1.379 . S
C390 H374 0.931 . S
C390 C384 1.383 . S
C390 C389 1.379 . S
H391 C385 0.959 . S
H392 C385 0.961 . S
H393 C385 0.960 . S
H394 C386 0.930 . S
H395 C387 0.936 . S
H396 C404 0.929 . S
H397 C406 0.930 . S
H398 C408 0.930 . S
H399 C411 0.929 . S
H400 C414 0.930 . S
H401 C416 0.960 . S
H402 C416 0.960 . S
H403 C416 0.960 . S
C404 H396 0.929 . S
C404 C405 1.377 . S
C404 C406 1.384 . S
C405 C404 1.377 . S
C405 C411 1.390 . S
C406 H397 0.930 . S
C406 C404 1.384 . S
C406 C407 1.372 . S
C407 C406 1.372 . S
C407 C408 1.400 . S
C407 C412 1.490 . S
C408 H398 0.930 . S
C408 C407 1.400 . S
C408 C411 1.386 . S
H409 C425 0.930 1_545 S
H410 C426 0.931 . S
C411 H399 0.929 . S
C411 C405 1.390 . S
C411 C408 1.386 . S
C412 C407 1.490 . S
C412 C414 1.395 . S
C412 C415 1.403 . S
H413 C419 0.930 . S
C414 H400 0.930 . S
C414 C412 1.395 . S
C414 C417 1.403 . S
C415 C412 1.403 . S
C415 C416 1.524 . S
C415 C419 1.400 . S
C416 H401 0.960 . S
C416 H402 0.960 . S
C416 H403 0.960 . S
C416 C415 1.524 . S
C417 C414 1.403 . S
C417 C418 1.392 . S
C417 C421 1.495 . S
C418 C417 1.392 . S
C418 C419 1.385 . S
C418 C420 1.478 . S
C419 H413 0.930 . S
C419 C415 1.400 . S
C419 C418 1.385 . S
C420 C418 1.478 . S
C420 C422 1.381 . S
C420 C426 1.383 . S
C421 C417 1.495 . S
C421 H427 0.959 . S
C421 H428 0.961 . S
C421 H429 0.960 . S
C422 C420 1.381 . S
C422 C423 1.394 . S
C422 H430 0.930 . S
C423 C422 1.394 . S
C423 C424 1.383 . S
C423 H431 0.929 . S
C424 C423 1.383 . S
C424 C425 1.377 . S
C425 H409 0.930 1_565 S
C425 C424 1.377 . S
C425 C426 1.379 . S
C426 H410 0.931 . S
C426 C420 1.383 . S
C426 C425 1.379 . S
H427 C421 0.959 . S
H428 C421 0.961 . S
H429 C421 0.960 . S
H430 C422 0.930 . S
H431 C423 0.929 . S
H432 C440 0.929 . S
H433 C442 0.930 . S
H434 C444 0.930 . S
H435 C447 0.929 . S
H436 C450 0.930 . S
H437 C452 0.960 . S
H438 C452 0.960 . S
H439 C452 0.960 . S
C440 H432 0.929 . S
C440 C441 1.377 . S
C440 C442 1.384 . S
C441 C440 1.377 . S
C441 C447 1.390 . S
C442 H433 0.930 . S
C442 C440 1.384 . S
C442 C443 1.372 . S
C443 C442 1.372 . S
C443 C444 1.400 . S
C443 C448 1.490 . S
C444 H434 0.930 . S
C444 C443 1.400 . S
C444 C447 1.386 . S
H445 C461 0.930 . S
H446 C462 0.931 . S
C447 H435 0.929 . S
C447 C441 1.390 . S
C447 C444 1.386 . S
C448 C443 1.490 . S
C448 C450 1.395 . S
C448 C451 1.403 . S
H449 C455 0.930 . S
C450 H436 0.930 . S
C450 C448 1.395 . S
C450 C453 1.403 . S
C451 C448 1.403 . S
C451 C452 1.524 . S
C451 C455 1.400 . S
C452 H437 0.960 . S
C452 H438 0.960 . S
C452 H439 0.960 . S
C452 C451 1.524 . S
C453 C450 1.403 . S
C453 C454 1.392 . S
C453 C457 1.495 1_556 S
C454 C453 1.392 . S
C454 C455 1.385 . S
C454 C456 1.478 . S
C455 H449 0.930 . S
C455 C451 1.400 . S
C455 C454 1.385 . S
C456 C454 1.478 . S
C456 C458 1.383 . S
C456 C462 1.383 . S
C457 C453 1.495 1_554 S
C457 H463 0.959 . S
C457 H464 0.961 . S
C457 H465 0.960 . S
C458 C456 1.383 . S
C458 C459 1.394 1_556 S
C458 H466 0.929 1_556 S
C459 C458 1.394 1_554 S
C459 C460 1.383 1_554 S
C459 H467 0.929 . S
C460 C459 1.383 1_556 S
C460 C461 1.377 . S
C461 H445 0.930 . S
C461 C460 1.377 . S
C461 C462 1.379 . S
C462 H446 0.931 . S
C462 C456 1.383 . S
C462 C461 1.379 . S
H463 C457 0.959 . S
H464 C457 0.961 . S
H465 C457 0.960 . S
H466 C458 0.929 1_554 S
H467 C459 0.929 . S
H468 C476 0.929 . S
H469 C478 0.930 . S
H470 C480 0.930 . S
H471 C483 0.929 . S
H472 C486 0.930 . S
H473 C488 0.960 . S
H474 C488 0.960 . S
H475 C488 0.960 . S
C476 H468 0.929 . S
C476 C477 1.377 . S
C476 C478 1.384 . S
C477 C476 1.377 . S
C477 C483 1.390 . S
C478 H469 0.930 . S
C478 C476 1.384 . S
C478 C479 1.372 . S
C479 C478 1.372 . S
C479 C480 1.400 . S
C479 C484 1.490 . S
C480 H470 0.930 . S
C480 C479 1.400 . S
C480 C483 1.386 . S
H481 C497 0.930 . S
H482 C498 0.931 . S
C483 H471 0.929 . S
C483 C477 1.390 . S
C483 C480 1.386 . S
C484 C479 1.490 . S
C484 C486 1.395 . S
C484 C487 1.403 . S
H485 C491 0.930 . S
C486 H472 0.930 . S
C486 C484 1.395 . S
C486 C489 1.403 . S
C487 C484 1.403 . S
C487 C488 1.524 . S
C487 C491 1.400 . S
C488 H473 0.960 . S
C488 H474 0.960 . S
C488 H475 0.960 . S
C488 C487 1.524 . S
C489 C486 1.403 . S
C489 C490 1.392 . S
C489 C493 1.495 . S
C490 C489 1.392 . S
C490 C491 1.385 . S
C490 C492 1.478 . S
C491 H485 0.930 . S
C491 C487 1.400 . S
C491 C490 1.385 . S
C492 C490 1.478 . S
C492 C494 1.381 . S
C492 C498 1.383 . S
C493 C489 1.495 . S
C493 H499 0.959 . S
C493 H500 0.961 . S
C493 H501 0.960 . S
C494 C492 1.381 . S
C494 C495 1.394 . S
C494 H502 0.930 . S
C495 C494 1.394 . S
C495 C496 1.383 . S
C495 H503 0.929 . S
C496 C495 1.383 . S
C496 C497 1.377 . S
C497 H481 0.930 . S
C497 C496 1.377 . S
C497 C498 1.379 . S
C498 H482 0.931 . S
C498 C492 1.383 . S
C498 C497 1.379 . S
H499 C493 0.959 . S
H500 C493 0.961 . S
H501 C493 0.960 . S
H502 C494 0.930 . S
H503 C495 0.929 . S
H504 C512 0.929 . S
H505 C514 0.930 . S
H506 C516 0.930 . S
H507 C519 0.929 . S
H508 C522 0.930 . S
H509 C524 0.959 1_655 S
H510 C524 0.960 . S
H511 C524 0.960 . S
C512 H504 0.929 . S
C512 C513 1.377 . S
C512 C514 1.384 . S
C513 C512 1.377 . S
C513 C519 1.390 . S
C514 H505 0.930 . S
C514 C512 1.384 . S
C514 C515 1.372 . S
C515 C514 1.372 . S
C515 C516 1.400 . S
C515 C520 1.490 . S
C516 H506 0.930 . S
C516 C515 1.400 . S
C516 C519 1.386 . S
H517 C533 0.930 . S
H518 C534 0.931 . S
C519 H507 0.929 . S
C519 C513 1.390 . S
C519 C516 1.386 . S
C520 C515 1.490 . S
C520 C522 1.395 . S
C520 C523 1.403 . S
H521 C527 0.930 . S
C522 H508 0.930 . S
C522 C520 1.395 . S
C522 C525 1.403 . S
C523 C520 1.403 . S
C523 C524 1.524 . S
C523 C527 1.400 . S
C524 H509 0.959 1_455 S
C524 H510 0.960 . S
C524 H511 0.960 . S
C524 C523 1.524 . S
C525 C522 1.403 . S
C525 C526 1.392 . S
C525 C529 1.495 . S
C526 C525 1.392 . S
C526 C527 1.385 . S
C526 C528 1.478 . S
C527 H521 0.930 . S
C527 C523 1.400 . S
C527 C526 1.385 . S
C528 C526 1.478 . S
C528 C530 1.381 . S
C528 C534 1.383 . S
C529 C525 1.495 . S
C529 H535 0.959 . S
C529 H536 0.961 . S
C529 H537 0.960 . S
C530 C528 1.381 . S
C530 C531 1.394 . S
C530 H538 0.930 . S
C531 C530 1.394 . S
C531 C532 1.383 . S
C531 H539 0.929 . S
C532 C531 1.383 . S
C532 C533 1.377 . S
C533 H517 0.930 . S
C533 C532 1.377 . S
C533 C534 1.379 . S
C534 H518 0.931 . S
C534 C528 1.383 . S
C534 C533 1.379 . S
H535 C529 0.959 . S
H536 C529 0.961 . S
H537 C529 0.960 . S
H538 C530 0.930 . S
H539 C531 0.929 . S
H540 C548 0.929 . S
H541 C550 0.930 . S
H542 C552 0.930 . S
H543 C555 0.929 . S
H544 C558 0.930 . S
H545 C560 0.960 . S
H546 C560 0.960 . S
H547 C560 0.960 . S
C548 H540 0.929 . S
C548 C549 1.377 . S
C548 C550 1.384 . S
C549 C548 1.377 . S
C549 C555 1.390 . S
C550 H541 0.930 . S
C550 C548 1.384 . S
C550 C551 1.372 . S
C551 C550 1.372 . S
C551 C552 1.400 . S
C551 C556 1.490 . S
C552 H542 0.930 . S
C552 C551 1.400 . S
C552 C555 1.386 . S
H553 C569 0.930 . S
H554 C570 0.931 . S
C555 H543 0.929 . S
C555 C549 1.390 . S
C555 C552 1.386 . S
C556 C551 1.490 . S
C556 C558 1.395 . S
C556 C559 1.403 . S
H557 C563 0.930 . S
C558 H544 0.930 . S
C558 C556 1.395 . S
C558 C561 1.403 . S
C559 C556 1.403 . S
C559 C560 1.524 . S
C559 C563 1.400 . S
C560 H545 0.960 . S
C560 H546 0.960 . S
C560 H547 0.960 . S
C560 C559 1.524 . S
C561 C558 1.403 . S
C561 C562 1.392 . S
C561 C565 1.495 . S
C562 C561 1.392 . S
C562 C563 1.385 . S
C562 C564 1.478 . S
C563 H557 0.930 . S
C563 C559 1.400 . S
C563 C562 1.385 . S
C564 C562 1.478 . S
C564 C566 1.381 . S
C564 C570 1.383 . S
C565 C561 1.495 . S
C565 H571 0.959 . S
C565 H572 0.961 . S
C565 H573 0.960 . S
C566 C564 1.381 . S
C566 C567 1.394 1_556 S
C566 H574 0.930 1_556 S
C567 C566 1.394 1_554 S
C567 C568 1.383 1_554 S
C567 H575 0.929 . S
C568 C567 1.383 1_556 S
C568 C569 1.377 . S
C569 H553 0.930 . S
C569 C568 1.377 . S
C569 C570 1.379 . S
C570 H554 0.931 . S
C570 C564 1.383 . S
C570 C569 1.379 . S
H571 C565 0.959 . S
H572 C565 0.961 . S
H573 C565 0.960 . S
H574 C566 0.930 1_554 S
H575 C567 0.929 . S
H576 C584 0.929 . S
H577 C586 0.930 . S
H578 C588 0.930 . S
H579 C591 0.929 . S
H580 C594 0.930 . S
H581 C596 0.960 . S
H582 C596 0.960 . S
H583 C596 0.960 . S
C584 H576 0.929 . S
C584 C585 1.377 . S
C584 C586 1.384 . S
C585 C584 1.377 . S
C585 C591 1.390 . S
C586 H577 0.930 . S
C586 C584 1.384 . S
C586 C587 1.372 . S
C587 C586 1.372 . S
C587 C588 1.400 . S
C587 C592 1.490 . S
C588 H578 0.930 . S
C588 C587 1.400 . S
C588 C591 1.386 . S
H589 C605 0.930 1_455 S
H590 C606 0.931 1_455 S
C591 H579 0.929 . S
C591 C585 1.390 . S
C591 C588 1.386 . S
C592 C587 1.490 . S
C592 C594 1.395 . S
C592 C595 1.403 . S
H593 C599 0.930 . S
C594 H580 0.930 . S
C594 C592 1.395 . S
C594 C597 1.403 . S
C595 C592 1.403 . S
C595 C596 1.524 . S
C595 C599 1.400 . S
C596 H581 0.960 . S
C596 H582 0.960 . S
C596 H583 0.960 . S
C596 C595 1.524 . S
C597 C594 1.403 . S
C597 C598 1.392 . S
C597 C601 1.495 . S
C598 C597 1.392 . S
C598 C599 1.385 . S
C598 C600 1.478 . S
C599 H593 0.930 . S
C599 C595 1.400 . S
C599 C598 1.385 . S
C600 C598 1.478 . S
C600 C602 1.381 . S
C600 C606 1.383 . S
C601 C597 1.495 . S
C601 H607 0.959 . S
C601 H608 0.961 . S
C601 H609 0.960 . S
C602 C600 1.381 . S
C602 C603 1.394 . S
C602 H610 0.930 . S
C603 C602 1.394 . S
C603 C604 1.383 . S
C603 H611 0.929 . S
C604 C603 1.383 . S
C604 C605 1.377 . S
C605 H589 0.930 1_655 S
C605 C604 1.377 . S
C605 C606 1.379 . S
C606 H590 0.931 1_655 S
C606 C600 1.383 . S
C606 C605 1.379 . S
H607 C601 0.959 . S
H608 C601 0.961 . S
H609 C601 0.960 . S
H610 C602 0.930 . S
H611 C603 0.929 . S
H612 C620 0.929 . S
H613 C622 0.930 . S
H614 C624 0.930 . S
H615 C627 0.929 . S
H616 C630 0.930 . S
H617 C632 0.960 . S
H618 C632 0.960 . S
H619 C632 0.960 . S
C620 H612 0.929 . S
C620 C621 1.377 . S
C620 C622 1.384 . S
C621 C620 1.377 . S
C621 C627 1.390 . S
C622 H613 0.930 . S
C622 C620 1.384 . S
C622 C623 1.372 . S
C623 C622 1.372 . S
C623 C624 1.400 . S
C623 C628 1.490 . S
C624 H614 0.930 . S
C624 C623 1.400 . S
C624 C627 1.386 . S
H625 C641 0.930 . S
H626 C642 0.931 . S
C627 H615 0.929 . S
C627 C621 1.390 . S
C627 C624 1.386 . S
C628 C623 1.490 . S
C628 C630 1.395 . S
C628 C631 1.403 . S
H629 C635 0.930 . S
C630 H616 0.930 . S
C630 C628 1.395 . S
C630 C633 1.403 . S
C631 C628 1.403 . S
C631 C632 1.524 . S
C631 C635 1.400 . S
C632 H617 0.960 . S
C632 H618 0.960 . S
C632 H619 0.960 . S
C632 C631 1.524 . S
C633 C630 1.403 . S
C633 C634 1.392 . S
C633 C637 1.495 . S
C634 C633 1.392 . S
C634 C635 1.385 . S
C634 C636 1.478 . S
C635 H629 0.930 . S
C635 C631 1.400 . S
C635 C634 1.385 . S
C636 C634 1.478 . S
C636 C638 1.381 . S
C636 C642 1.383 . S
C637 C633 1.495 . S
C637 H643 0.959 . S
C637 H644 0.961 . S
C637 H645 0.960 . S
C638 C636 1.381 . S
C638 C639 1.394 . S
C638 H646 0.930 . S
C639 C638 1.394 . S
C639 C640 1.383 . S
C639 H647 0.929 . S
C640 C639 1.383 . S
C640 C641 1.377 . S
C641 H625 0.930 . S
C641 C640 1.377 . S
C641 C642 1.379 . S
C642 H626 0.931 . S
C642 C636 1.383 . S
C642 C641 1.379 . S
H643 C637 0.959 . S
H644 C637 0.961 . S
H645 C637 0.960 . S
H646 C638 0.930 . S
H647 C639 0.929 . S
H648 C656 0.929 . S
H649 C658 0.930 . S
H650 C660 0.930 . S
H651 C663 0.929 . S
H652 C666 0.930 . S
H653 C668 0.960 . S
H654 C668 0.960 . S
H655 C668 0.960 . S
C656 H648 0.929 . S
C656 C657 1.377 . S
C656 C658 1.384 . S
C657 C656 1.377 . S
C657 C663 1.390 . S
C658 H649 0.930 . S
C658 C656 1.384 . S
C658 C659 1.372 . S
C659 C658 1.372 . S
C659 C660 1.400 . S
C659 C664 1.490 . S
C660 H650 0.930 . S
C660 C659 1.400 . S
C660 C663 1.386 . S
H661 C677 0.930 . S
H662 C678 0.931 . S
C663 H651 0.929 . S
C663 C657 1.390 . S
C663 C660 1.386 . S
C664 C659 1.490 . S
C664 C666 1.395 . S
C664 C667 1.403 . S
H665 C671 0.930 . S
C666 H652 0.930 . S
C666 C664 1.395 . S
C666 C669 1.403 . S
C667 C664 1.403 . S
C667 C668 1.524 . S
C667 C671 1.400 . S
C668 H653 0.960 . S
C668 H654 0.960 . S
C668 H655 0.960 . S
C668 C667 1.524 . S
C669 C666 1.403 . S
C669 C670 1.392 . S
C669 C673 1.495 1_565 S
C670 C669 1.392 . S
C670 C671 1.385 . S
C670 C672 1.478 . S
C671 H665 0.930 . S
C671 C667 1.400 . S
C671 C670 1.385 . S
C672 C670 1.478 . S
C672 C674 1.381 . S
C672 C678 1.383 . S
C673 C669 1.495 1_545 S
C673 H679 0.959 . S
C673 H680 0.961 . S
C673 H681 0.960 . S
C674 C672 1.381 . S
C674 C675 1.394 . S
C674 H682 0.930 1_565 S
C675 C674 1.394 . S
C675 C676 1.383 . S
C675 H683 0.929 1_565 S
C676 C675 1.383 . S
C676 C677 1.377 . S
C677 H661 0.930 . S
C677 C676 1.377 . S
C677 C678 1.379 . S
C678 H662 0.931 . S
C678 C672 1.383 . S
C678 C677 1.379 . S
H679 C673 0.959 . S
H680 C673 0.961 . S
H681 C673 0.960 . S
H682 C674 0.930 1_545 S
H683 C675 0.929 1_545 S
H684 C692 0.929 . S
H685 C694 0.930 . S
H686 C696 0.930 . S
H687 C699 0.929 . S
H688 C702 0.930 . S
H689 C704 0.960 . S
H690 C704 0.960 . S
H691 C704 0.960 . S
C692 H684 0.929 . S
C692 C693 1.377 . S
C692 C694 1.384 . S
C693 C692 1.377 . S
C693 C699 1.390 . S
C694 H685 0.930 . S
C694 C692 1.384 . S
C694 C695 1.372 . S
C695 C694 1.372 . S
C695 C696 1.400 . S
C695 C700 1.490 . S
C696 H686 0.930 . S
C696 C695 1.400 . S
C696 C699 1.386 . S
H697 C713 0.930 . S
H698 C714 0.931 . S
C699 H687 0.929 . S
C699 C693 1.390 . S
C699 C696 1.386 . S
C700 C695 1.490 . S
C700 C702 1.395 . S
C700 C703 1.403 . S
H701 C707 0.930 . S
C702 H688 0.930 . S
C702 C700 1.395 . S
C702 C705 1.403 . S
C703 C700 1.403 . S
C703 C704 1.524 . S
C703 C707 1.400 . S
C704 H689 0.960 . S
C704 H690 0.960 . S
C704 H691 0.960 . S
C704 C703 1.524 . S
C705 C702 1.403 . S
C705 C706 1.392 . S
C705 C709 1.495 . S
C706 C705 1.392 . S
C706 C707 1.385 . S
C706 C708 1.478 . S
C707 H701 0.930 . S
C707 C703 1.400 . S
C707 C706 1.385 . S
C708 C706 1.478 . S
C708 C710 1.381 . S
C708 C714 1.383 . S
C709 C705 1.495 . S
C709 H715 0.959 . S
C709 H716 0.961 . S
C709 H717 0.960 . S
C710 C708 1.381 . S
C710 C711 1.394 . S
C710 H718 0.930 . S
C711 C710 1.394 . S
C711 C712 1.383 . S
C711 H719 0.929 . S
C712 C711 1.383 . S
C712 C713 1.377 . S
C713 H697 0.930 . S
C713 C712 1.377 . S
C713 C714 1.379 . S
C714 H698 0.931 . S
C714 C708 1.383 . S
C714 C713 1.379 . S
H715 C709 0.959 . S
H716 C709 0.961 . S
H717 C709 0.960 . S
H718 C710 0.930 . S
H719 C711 0.929 . S
H720 C728 0.929 . S
H721 C730 0.930 . S
H722 C732 0.930 . S
H723 C735 0.929 . S
H724 C738 0.930 . S
H725 C740 0.960 . S
H726 C740 0.960 . S
H727 C740 0.960 . S
C728 H720 0.929 . S
C728 C729 1.377 . S
C728 C730 1.384 . S
C729 C728 1.377 . S
C729 C735 1.390 . S
C730 H721 0.930 . S
C730 C728 1.384 . S
C730 C731 1.372 . S
C731 C730 1.372 . S
C731 C732 1.400 . S
C731 C736 1.490 . S
C732 H722 0.930 . S
C732 C731 1.400 . S
C732 C735 1.386 . S
H733 C749 0.930 . S
H734 C750 0.931 . S
C735 H723 0.929 . S
C735 C729 1.390 . S
C735 C732 1.386 . S
C736 C731 1.490 . S
C736 C738 1.395 . S
C736 C739 1.403 . S
H737 C743 0.930 . S
C738 H724 0.930 . S
C738 C736 1.395 . S
C738 C741 1.403 . S
C739 C736 1.403 . S
C739 C740 1.524 . S
C739 C743 1.400 . S
C740 H725 0.960 . S
C740 H726 0.960 . S
C740 H727 0.960 . S
C740 C739 1.524 . S
C741 C738 1.403 . S
C741 C742 1.392 . S
C741 C745 1.495 . S
C742 C741 1.392 . S
C742 C743 1.385 . S
C742 C744 1.478 . S
C743 H737 0.930 . S
C743 C739 1.400 . S
C743 C742 1.385 . S
C744 C742 1.478 . S
C744 C746 1.381 . S
C744 C750 1.383 . S
C745 C741 1.495 . S
C745 H751 0.959 . S
C745 H752 0.961 . S
C745 H753 0.960 . S
C746 C744 1.381 . S
C746 C747 1.394 . S
C746 H754 0.930 . S
C747 C746 1.394 . S
C747 C748 1.383 . S
C747 H755 0.929 . S
C748 C747 1.383 . S
C748 C749 1.377 . S
C749 H733 0.930 . S
C749 C748 1.377 . S
C749 C750 1.379 . S
C750 H734 0.931 . S
C750 C744 1.383 . S
C750 C749 1.379 . S
H751 C745 0.959 . S
H752 C745 0.961 . S
H753 C745 0.960 . S
H754 C746 0.930 . S
H755 C747 0.929 . S
H756 C764 0.929 . S
H757 C766 0.930 . S
H758 C768 0.930 . S
H759 C771 0.929 . S
H760 C774 0.930 . S
H761 C776 0.960 . S
H762 C776 0.960 . S
H763 C776 0.960 . S
C764 H756 0.929 . S
C764 C765 1.377 . S
C764 C766 1.384 . S
C765 C764 1.377 . S
C765 C771 1.390 . S
C766 H757 0.930 . S
C766 C764 1.384 . S
C766 C767 1.372 . S
C767 C766 1.372 . S
C767 C768 1.400 . S
C767 C772 1.490 . S
C768 H758 0.930 . S
C768 C767 1.400 . S
C768 C771 1.386 . S
H769 C785 0.930 . S
H770 C786 0.931 . S
C771 H759 0.929 . S
C771 C765 1.390 . S
C771 C768 1.386 . S
C772 C767 1.490 . S
C772 C774 1.395 . S
C772 C775 1.403 . S
H773 C779 0.930 . S
C774 H760 0.930 . S
C774 C772 1.395 . S
C774 C777 1.403 . S
C775 C772 1.403 . S
C775 C776 1.524 . S
C775 C779 1.400 . S
C776 H761 0.960 . S
C776 H762 0.960 . S
C776 H763 0.960 . S
C776 C775 1.524 . S
C777 C774 1.403 . S
C777 C778 1.392 . S
C777 C781 1.495 . S
C778 C777 1.392 . S
C778 C779 1.385 . S
C778 C780 1.478 . S
C779 H773 0.930 . S
C779 C775 1.400 . S
C779 C778 1.385 . S
C780 C778 1.478 . S
C780 C782 1.381 . S
C780 C786 1.383 . S
C781 C777 1.495 . S
C781 H787 0.959 . S
C781 H788 0.961 . S
C781 H789 0.960 . S
C782 C780 1.381 . S
C782 C783 1.394 . S
C782 H790 0.930 . S
C783 C782 1.394 . S
C783 C784 1.383 . S
C783 H791 0.929 . S
C784 C783 1.383 . S
C784 C785 1.377 . S
C785 H769 0.930 . S
C785 C784 1.377 . S
C785 C786 1.379 . S
C786 H770 0.931 . S
C786 C780 1.383 . S
C786 C785 1.379 . S
H787 C781 0.959 . S
H788 C781 0.961 . S
H789 C781 0.960 . S
H790 C782 0.930 . S
H791 C783 0.929 . S
H792 C800 0.929 . S
H793 C802 0.930 . S
H794 C804 0.930 . S
H795 C807 0.929 . S
H796 C810 0.930 . S
H797 C812 0.960 . S
H798 C812 0.960 . S
H799 C812 0.960 . S
C800 H792 0.929 . S
C800 C801 1.377 . S
C800 C802 1.384 . S
C801 C800 1.377 . S
C801 C807 1.390 . S
C802 H793 0.930 . S
C802 C800 1.384 . S
C802 C803 1.372 . S
C803 C802 1.372 . S
C803 C804 1.400 . S
C803 C808 1.490 . S
C804 H794 0.930 . S
C804 C803 1.400 . S
C804 C807 1.386 . S
H805 C821 0.930 . S
H806 C822 0.931 . S
C807 H795 0.929 . S
C807 C801 1.390 . S
C807 C804 1.386 . S
C808 C803 1.490 . S
C808 C810 1.395 . S
C808 C811 1.403 . S
H809 C815 0.930 . S
C810 H796 0.930 . S
C810 C808 1.395 . S
C810 C813 1.403 . S
C811 C808 1.403 . S
C811 C812 1.524 . S
C811 C815 1.400 . S
C812 H797 0.960 . S
C812 H798 0.960 . S
C812 H799 0.960 . S
C812 C811 1.524 . S
C813 C810 1.403 . S
C813 C814 1.392 . S
C813 C817 1.495 1_565 S
C814 C813 1.392 . S
C814 C815 1.385 . S
C814 C816 1.478 . S
C815 H809 0.930 . S
C815 C811 1.400 . S
C815 C814 1.385 . S
C816 C814 1.478 . S
C816 C818 1.381 . S
C816 C822 1.383 . S
C817 C813 1.495 1_545 S
C817 H823 0.959 . S
C817 H824 0.961 . S
C817 H825 0.960 . S
C818 C816 1.381 . S
C818 C819 1.394 1_556 S
C818 H826 0.930 1_556 S
C819 C818 1.394 1_554 S
C819 C820 1.383 1_554 S
C819 H827 0.929 . S
C820 C819 1.383 1_556 S
C820 C821 1.377 . S
C821 H805 0.930 . S
C821 C820 1.377 . S
C821 C822 1.379 . S
C822 H806 0.931 . S
C822 C816 1.383 . S
C822 C821 1.379 . S
H823 C817 0.959 . S
H824 C817 0.961 . S
H825 C817 0.960 . S
H826 C818 0.930 1_554 S
H827 C819 0.929 . S
H828 C836 0.929 . S
H829 C838 0.930 . S
H830 C840 0.930 . S
H831 C843 0.929 . S
H832 C846 0.930 . S
H833 C848 0.960 . S
H834 C848 0.960 . S
H835 C848 0.960 . S
C836 H828 0.929 . S
C836 C837 1.377 . S
C836 C838 1.384 . S
C837 C836 1.377 . S
C837 C843 1.390 . S
C838 H829 0.930 . S
C838 C836 1.384 . S
C838 C839 1.372 . S
C839 C838 1.372 . S
C839 C840 1.400 . S
C839 C844 1.490 . S
C840 H830 0.930 . S
C840 C839 1.400 . S
C840 C843 1.386 . S
H841 C857 0.930 . S
H842 C858 0.931 . S
C843 H831 0.929 . S
C843 C837 1.390 . S
C843 C840 1.386 . S
C844 C839 1.490 . S
C844 C846 1.395 . S
C844 C847 1.403 . S
H845 C851 0.930 . S
C846 H832 0.930 . S
C846 C844 1.395 . S
C846 C849 1.403 . S
C847 C844 1.403 . S
C847 C848 1.524 . S
C847 C851 1.400 . S
C848 H833 0.960 . S
C848 H834 0.960 . S
C848 H835 0.960 . S
C848 C847 1.524 . S
C849 C846 1.403 . S
C849 C850 1.392 . S
C849 C853 1.495 . S
C850 C849 1.392 . S
C850 C851 1.385 . S
C850 C852 1.478 . S
C851 H845 0.930 . S
C851 C847 1.400 . S
C851 C850 1.385 . S
C852 C850 1.478 . S
C852 C854 1.381 . S
C852 C858 1.383 . S
C853 C849 1.495 . S
C853 H859 0.959 . S
C853 H860 0.961 . S
C853 H861 0.960 . S
C854 C852 1.381 . S
C854 C855 1.394 . S
C854 H862 0.930 . S
C855 C854 1.394 . S
C855 C856 1.383 . S
C855 H863 0.929 . S
C856 C855 1.383 . S
C856 C857 1.377 . S
C857 H841 0.930 . S
C857 C856 1.377 . S
C857 C858 1.379 . S
C858 H842 0.931 . S
C858 C852 1.383 . S
C858 C857 1.379 . S
H859 C853 0.959 . S
H860 C853 0.961 . S
H861 C853 0.960 . S
H862 C854 0.930 . S
H863 C855 0.929 . S
H864 C872 0.929 . S
H865 C874 0.930 . S
H866 C876 0.930 . S
H867 C879 0.929 . S
H868 C882 0.930 . S
H869 C884 0.960 . S
H870 C884 0.960 . S
H871 C884 0.960 . S
C872 H864 0.929 . S
C872 C873 1.377 . S
C872 C874 1.384 . S
C873 C872 1.377 . S
C873 C879 1.390 . S
C874 H865 0.930 . S
C874 C872 1.384 . S
C874 C875 1.372 . S
C875 C874 1.372 . S
C875 C876 1.400 . S
C875 C880 1.490 . S
C876 H866 0.930 . S
C876 C875 1.400 . S
C876 C879 1.386 . S
H877 C893 0.930 . S
H878 C894 0.931 . S
C879 H867 0.929 . S
C879 C873 1.390 . S
C879 C876 1.386 . S
C880 C875 1.490 . S
C880 C882 1.395 . S
C880 C883 1.403 . S
H881 C887 0.930 . S
C882 H868 0.930 . S
C882 C880 1.395 . S
C882 C885 1.403 . S
C883 C880 1.403 . S
C883 C884 1.524 . S
C883 C887 1.400 . S
C884 H869 0.960 . S
C884 H870 0.960 . S
C884 H871 0.960 . S
C884 C883 1.524 . S
C885 C882 1.403 . S
C885 C886 1.392 . S
C885 C889 1.495 . S
C886 C885 1.392 . S
C886 C887 1.385 . S
C886 C888 1.478 . S
C887 H881 0.930 . S
C887 C883 1.400 . S
C887 C886 1.385 . S
C888 C886 1.478 . S
C888 C890 1.381 . S
C888 C894 1.383 . S
C889 C885 1.495 . S
C889 H895 0.959 . S
C889 H896 0.961 . S
C889 H897 0.960 . S
C890 C888 1.381 . S
C890 C891 1.394 . S
C890 H898 0.930 . S
C891 C890 1.394 . S
C891 C892 1.383 . S
C891 H899 0.929 . S
C892 C891 1.383 . S
C892 C893 1.377 . S
C893 H877 0.930 . S
C893 C892 1.377 . S
C893 C894 1.379 . S
C894 H878 0.931 . S
C894 C888 1.383 . S
C894 C893 1.379 . S
H895 C889 0.959 . S
H896 C889 0.961 . S
H897 C889 0.960 . S
H898 C890 0.930 . S
H899 C891 0.929 . S
H900 C908 0.929 . S
H901 C910 0.930 . S
H902 C912 0.930 . S
H903 C915 0.929 . S
H904 C918 0.930 . S
H905 C920 0.960 . S
H906 C920 0.960 . S
H907 C920 0.960 . S
C908 H900 0.929 . S
C908 C909 1.377 . S
C908 C910 1.384 . S
C909 C908 1.377 . S
C909 C915 1.390 . S
C910 H901 0.930 . S
C910 C908 1.384 . S
C910 C911 1.372 . S
C911 C910 1.372 . S
C911 C912 1.400 . S
C911 C916 1.490 . S
C912 H902 0.930 . S
C912 C911 1.400 . S
C912 C915 1.386 . S
H913 C929 0.930 . S
H914 C930 0.931 . S
C915 H903 0.929 . S
C915 C909 1.390 . S
C915 C912 1.386 . S
C916 C911 1.490 . S
C916 C918 1.395 . S
C916 C919 1.403 . S
H917 C923 0.930 . S
C918 H904 0.930 . S
C918 C916 1.395 . S
C918 C921 1.403 . S
C919 C916 1.403 . S
C919 C920 1.524 . S
C919 C923 1.400 . S
C920 H905 0.960 . S
C920 H906 0.960 . S
C920 H907 0.960 . S
C920 C919 1.524 . S
C921 C918 1.403 . S
C921 C922 1.392 . S
C921 C925 1.495 . S
C922 C921 1.392 . S
C922 C923 1.385 . S
C922 C924 1.478 . S
C923 H917 0.930 . S
C923 C919 1.400 . S
C923 C922 1.385 . S
C924 C922 1.478 . S
C924 C926 1.381 . S
C924 C930 1.383 . S
C925 C921 1.495 . S
C925 H931 0.959 . S
C925 H932 0.961 . S
C925 H933 0.960 . S
C926 C924 1.381 . S
C926 C927 1.394 . S
C926 H934 0.930 . S
C927 C926 1.394 . S
C927 C928 1.383 . S
C927 H935 0.929 . S
C928 C927 1.383 . S
C928 C929 1.377 . S
C929 H913 0.930 . S
C929 C928 1.377 . S
C929 C930 1.379 . S
C930 H914 0.931 . S
C930 C924 1.383 . S
C930 C929 1.379 . S
H931 C925 0.959 . S
H932 C925 0.961 . S
H933 C925 0.960 . S
H934 C926 0.930 . S
H935 C927 0.929 . S
H936 C944 0.929 . S
H937 C946 0.930 . S
H938 C948 0.930 . S
H939 C951 0.929 . S
H940 C954 0.930 . S
H941 C956 0.960 . S
H942 C956 0.960 . S
H943 C956 0.960 . S
C944 H936 0.929 . S
C944 C945 1.377 . S
C944 C946 1.384 . S
C945 C944 1.377 . S
C945 C951 1.390 . S
C946 H937 0.930 . S
C946 C944 1.384 . S
C946 C947 1.372 . S
C947 C946 1.372 . S
C947 C948 1.400 . S
C947 C952 1.490 . S
C948 H938 0.930 . S
C948 C947 1.400 . S
C948 C951 1.386 . S
H949 C965 0.930 . S
H950 C966 0.931 . S
C951 H939 0.929 . S
C951 C945 1.390 . S
C951 C948 1.386 . S
C952 C947 1.490 . S
C952 C954 1.395 . S
C952 C955 1.403 . S
H953 C959 0.930 . S
C954 H940 0.930 . S
C954 C952 1.395 . S
C954 C957 1.403 . S
C955 C952 1.403 . S
C955 C956 1.524 . S
C955 C959 1.400 . S
C956 H941 0.960 . S
C956 H942 0.960 . S
C956 H943 0.960 . S
C956 C955 1.524 . S
C957 C954 1.403 . S
C957 C958 1.392 . S
C957 C961 1.495 1_556 S
C958 C957 1.392 . S
C958 C959 1.385 . S
C958 C960 1.478 . S
C959 H953 0.930 . S
C959 C955 1.400 . S
C959 C958 1.385 . S
C960 C958 1.478 . S
C960 C962 1.381 . S
C960 C966 1.383 . S
C961 C957 1.495 1_554 S
C961 H967 0.959 . S
C961 H968 0.961 . S
C961 H969 0.960 . S
C962 C960 1.381 . S
C962 C963 1.397 1_655 S
C962 H970 0.930 1_655 S
C963 C962 1.397 1_455 S
C963 C964 1.386 1_455 S
C963 H971 0.924 1_556 S
C964 C963 1.386 1_655 S
C964 C965 1.377 . S
C965 H949 0.930 . S
C965 C964 1.377 . S
C965 C966 1.379 . S
C966 H950 0.931 . S
C966 C960 1.383 . S
C966 C965 1.379 . S
H967 C961 0.959 . S
H968 C961 0.961 . S
H969 C961 0.960 . S
H970 C962 0.930 1_455 S
H971 C963 0.924 1_554 S
H972 C980 0.929 . S
H973 C982 0.930 . S
H974 C984 0.930 . S
H975 C987 0.929 . S
H976 C990 0.930 . S
H977 C992 0.960 . S
H978 C992 0.960 . S
H979 C992 0.960 . S
C980 H972 0.929 . S
C980 C981 1.377 . S
C980 C982 1.384 . S
C981 C980 1.377 . S
C981 C987 1.390 . S
C982 H973 0.930 . S
C982 C980 1.384 . S
C982 C983 1.372 . S
C983 C982 1.372 . S
C983 C984 1.400 . S
C983 C988 1.490 . S
C984 H974 0.930 . S
C984 C983 1.400 . S
C984 C987 1.386 . S
H985 C1001 0.930 . S
H986 C1002 0.931 . S
C987 H975 0.929 . S
C987 C981 1.390 . S
C987 C984 1.386 . S
C988 C983 1.490 . S
C988 C990 1.395 . S
C988 C991 1.403 . S
H989 C995 0.930 . S
C990 H976 0.930 . S
C990 C988 1.395 . S
C990 C993 1.403 . S
C991 C988 1.403 . S
C991 C992 1.524 . S
C991 C995 1.400 . S
C992 H977 0.960 . S
C992 H978 0.960 . S
C992 H979 0.960 . S
C992 C991 1.524 . S
C993 C990 1.403 . S
C993 C994 1.392 . S
C993 C997 1.495 . S
C994 C993 1.392 . S
C994 C995 1.385 . S
C994 C996 1.478 . S
C995 H989 0.930 . S
C995 C991 1.400 . S
C995 C994 1.385 . S
C996 C994 1.478 . S
C996 C998 1.381 . S
C996 C1002 1.383 . S
C997 C993 1.495 . S
C997 H1003 0.959 . S
C997 H1004 0.961 . S
C997 H1005 0.960 . S
C998 C996 1.381 . S
C998 C999 1.394 . S
C998 H1006 0.930 . S
C999 C998 1.394 . S
C999 C1000 1.383 . S
C999 H1007 0.929 . S
C1000 C999 1.383 . S
C1000 C1001 1.377 . S
C1001 H985 0.930 . S
C1001 C1000 1.377 . S
C1001 C1002 1.379 . S
C1002 H986 0.931 . S
C1002 C996 1.383 . S
C1002 C1001 1.379 . S
H1003 C997 0.959 . S
H1004 C997 0.961 . S
H1005 C997 0.960 . S
H1006 C998 0.930 . S
H1007 C999 0.929 . S
H1008 C1016 0.929 . S
H1009 C1018 0.930 . S
H1010 C1020 0.930 . S
H1011 C1023 0.929 . S
H1012 C1026 0.930 . S
H1013 C1028 0.960 . S
H1014 C1028 0.960 . S
H1015 C1028 0.960 . S
C1016 H1008 0.929 . S
C1016 C1017 1.377 . S
C1016 C1018 1.384 . S
C1017 C1016 1.377 . S
C1017 C1023 1.390 . S
C1018 H1009 0.930 . S
C1018 C1016 1.384 . S
C1018 C1019 1.372 . S
C1019 C1018 1.372 . S
C1019 C1020 1.400 . S
C1019 C1024 1.490 . S
C1020 H1010 0.930 . S
C1020 C1019 1.400 . S
C1020 C1023 1.386 . S
H1021 C1037 0.930 1_655 S
H1022 C1038 0.931 . S
C1023 H1011 0.929 . S
C1023 C1017 1.390 . S
C1023 C1020 1.386 . S
C1024 C1019 1.490 . S
C1024 C1026 1.395 . S
C1024 C1027 1.403 . S
H1025 C1031 0.930 . S
C1026 H1012 0.930 . S
C1026 C1024 1.395 . S
C1026 C1029 1.403 . S
C1027 C1024 1.403 . S
C1027 C1028 1.524 . S
C1027 C1031 1.400 . S
C1028 H1013 0.960 . S
C1028 H1014 0.960 . S
C1028 H1015 0.960 . S
C1028 C1027 1.524 . S
C1029 C1026 1.403 . S
C1029 C1030 1.392 . S
C1029 C1033 1.495 . S
C1030 C1029 1.392 . S
C1030 C1031 1.385 . S
C1030 C1032 1.478 . S
C1031 H1025 0.930 . S
C1031 C1027 1.400 . S
C1031 C1030 1.385 . S
C1032 C1030 1.478 . S
C1032 C1034 1.381 . S
C1032 C1038 1.383 . S
C1033 C1029 1.495 . S
C1033 H1039 0.959 . S
C1033 H1040 0.961 . S
C1033 H1041 0.960 . S
C1034 C1032 1.381 . S
C1034 C1035 1.394 . S
C1034 H1042 0.930 . S
C1035 C1034 1.394 . S
C1035 C1036 1.383 . S
C1035 H1043 0.929 . S
C1036 C1035 1.383 . S
C1036 C1037 1.377 . S
C1037 H1021 0.930 1_455 S
C1037 C1036 1.377 . S
C1037 C1038 1.379 . S
C1038 H1022 0.931 . S
C1038 C1032 1.383 . S
C1038 C1037 1.379 . S
H1039 C1033 0.959 . S
H1040 C1033 0.961 . S
H1041 C1033 0.960 . S
H1042 C1034 0.930 . S
H1043 C1035 0.929 . S
H1044 C1052 0.929 . S
H1045 C1054 0.930 . S
H1046 C1056 0.930 . S
H1047 C1059 0.929 . S
H1048 C1062 0.930 . S
H1049 C1064 0.960 . S
H1050 C1064 0.960 . S
H1051 C1064 0.960 . S
C1052 H1044 0.929 . S
C1052 C1053 1.377 . S
C1052 C1054 1.384 . S
C1053 C1052 1.377 . S
C1053 C1059 1.390 . S
C1054 H1045 0.930 . S
C1054 C1052 1.384 . S
C1054 C1055 1.372 . S
C1055 C1054 1.372 . S
C1055 C1056 1.400 . S
C1055 C1060 1.490 . S
C1056 H1046 0.930 . S
C1056 C1055 1.400 . S
C1056 C1059 1.386 . S
H1057 C1073 0.930 . S
H1058 C1074 0.931 . S
C1059 H1047 0.929 . S
C1059 C1053 1.390 . S
C1059 C1056 1.386 . S
C1060 C1055 1.490 . S
C1060 C1062 1.395 . S
C1060 C1063 1.403 . S
H1061 C1067 0.930 . S
C1062 H1048 0.930 . S
C1062 C1060 1.395 . S
C1062 C1065 1.403 . S
C1063 C1060 1.403 . S
C1063 C1064 1.524 . S
C1063 C1067 1.400 . S
C1064 H1049 0.960 . S
C1064 H1050 0.960 . S
C1064 H1051 0.960 . S
C1064 C1063 1.524 . S
C1065 C1062 1.403 . S
C1065 C1066 1.392 . S
C1065 C1069 1.495 . S
C1066 C1065 1.392 . S
C1066 C1067 1.385 . S
C1066 C1068 1.478 . S
C1067 H1061 0.930 . S
C1067 C1063 1.400 . S
C1067 C1066 1.385 . S
C1068 C1066 1.478 . S
C1068 C1070 1.381 . S
C1068 C1074 1.383 . S
C1069 C1065 1.495 . S
C1069 H1075 0.959 . S
C1069 H1076 0.961 . S
C1069 H1077 0.960 . S
C1070 C1068 1.381 . S
C1070 C1071 1.394 . S
C1070 H1078 0.930 . S
C1071 C1070 1.394 . S
C1071 C1072 1.383 . S
C1071 H1079 0.929 . S
C1072 C1071 1.383 . S
C1072 C1073 1.377 . S
C1073 H1057 0.930 . S
C1073 C1072 1.377 . S
C1073 C1074 1.379 . S
C1074 H1058 0.931 . S
C1074 C1068 1.383 . S
C1074 C1073 1.379 . S
H1075 C1069 0.959 . S
H1076 C1069 0.961 . S
H1077 C1069 0.960 . S
H1078 C1070 0.930 . S
H1079 C1071 0.929 . S
C225 C6 2.352 . S
C244 C112 2.356 . S
C261 C18 1.391 . S
C280 N132 1.397 . S
C316 C166 2.001 . S
C297 C28 1.987 . S
C333 C40 0.734 . S
C352 N200 0.788 . S
C388 C153 2.651 . S
C369 C9 2.646 . S
C424 N110 1.134 . S
C405 C16 1.138 . S
C460 C187 1.952 1_556 S
C441 C30 1.954 . S
C496 N162 0.743 . S
C477 C42 0.703 . S
C513 C4 1.784 . S
C532 C202 1.788 . S
C568 C136 1.717 . S
C549 C33 1.716 . S
C585 C45 1.081 . S
C604 C97 1.095 . S
C621 C21 1.737 . S
C640 C183 1.755 . S
C676 C123 2.405 . S
C657 C57 2.404 . S
C693 C66 1.383 . S
C712 N140 1.338 . S
C729 C76 2.045 . S
C748 C157 2.056 . S
C765 C88 0.688 . S
C784 N192 0.709 . S
C801 C54 2.614 . S
C820 C142 2.608 1_566 S
C856 N102 1.185 . S
C837 C64 1.177 . S
C892 C196 1.831 . S
C873 C78 1.817 . S
C928 N170 0.697 . S
C909 C93 0.738 . S
C945 C52 1.719 . S
C964 C213 1.737 1_556 S
C1000 C127 1.731 . S
C981 C81 1.717 . S
C1036 C106 1.090 . S
C1017 C90 1.083 . S
C1053 C69 1.791 . S
C1072 C172 1.800 . S
