# Generated by pormake.
# Topology ssc, (4,4)-cn, num edge types: 1
# Building blocks:
#     Node 0, Type 0, BuildingBlock: CEKHIL_clean_sbu_0, # of connection points: 4
#     Node 1, Type 0, BuildingBlock: CEKHIL_clean_sbu_0, # of connection points: 4
#     Node 2, Type 0, BuildingBlock: CEKHIL_clean_sbu_0, # of connection points: 4
#     Node 3, Type 0, BuildingBlock: CEKHIL_clean_sbu_0, # of connection points: 4
#     Node 4, Type 0, BuildingBlock: CEKHIL_clean_sbu_0, # of connection points: 4
#     Node 5, Type 0, BuildingBlock: CEKHIL_clean_sbu_0, # of connection points: 4
#     Node 6, Type 0, BuildingBlock: CEKHIL_clean_sbu_0, # of connection points: 4
#     Node 7, Type 0, BuildingBlock: CEKHIL_clean_sbu_0, # of connection points: 4
#     Node 8, Type 0, BuildingBlock: CEKHIL_clean_sbu_0, # of connection points: 4
#     Node 9, Type 0, BuildingBlock: CEKHIL_clean_sbu_0, # of connection points: 4
#     Node 10, Type 0, BuildingBlock: CEKHIL_clean_sbu_0, # of connection points: 4
#     Node 11, Type 0, BuildingBlock: CEKHIL_clean_sbu_0, # of connection points: 4
#     Node 12, Type 1, BuildingBlock: GIZVER_clean_linker_0, # of connection points: 4
#     Node 13, Type 1, BuildingBlock: GIZVER_clean_linker_0, # of connection points: 4
#     Node 14, Type 1, BuildingBlock: GIZVER_clean_linker_0, # of connection points: 4
#     Node 15, Type 1, BuildingBlock: GIZVER_clean_linker_0, # of connection points: 4
#     Node 16, Type 1, BuildingBlock: GIZVER_clean_linker_0, # of connection points: 4
#     Node 17, Type 1, BuildingBlock: GIZVER_clean_linker_0, # of connection points: 4
#     Node 18, Type 1, BuildingBlock: GIZVER_clean_linker_0, # of connection points: 4
#     Node 19, Type 1, BuildingBlock: GIZVER_clean_linker_0, # of connection points: 4
#     Node 20, Type 1, BuildingBlock: GIZVER_clean_linker_0, # of connection points: 4
#     Node 21, Type 1, BuildingBlock: GIZVER_clean_linker_0, # of connection points: 4
#     Node 22, Type 1, BuildingBlock: GIZVER_clean_linker_0, # of connection points: 4
#     Node 23, Type 1, BuildingBlock: GIZVER_clean_linker_0, # of connection points: 4
#     Edge 24, Type (0, 1), BuildingBlock: MIFKUJ_clean_linker_0, # of connection points: 2
#     Edge 25, Type (0, 1), BuildingBlock: MIFKUJ_clean_linker_0, # of connection points: 2
#     Edge 26, Type (0, 1), BuildingBlock: MIFKUJ_clean_linker_0, # of connection points: 2
#     Edge 27, Type (0, 1), BuildingBlock: MIFKUJ_clean_linker_0, # of connection points: 2
#     Edge 28, Type (0, 1), BuildingBlock: MIFKUJ_clean_linker_0, # of connection points: 2
#     Edge 29, Type (0, 1), BuildingBlock: MIFKUJ_clean_linker_0, # of connection points: 2
#     Edge 30, Type (0, 1), BuildingBlock: MIFKUJ_clean_linker_0, # of connection points: 2
#     Edge 31, Type (0, 1), BuildingBlock: MIFKUJ_clean_linker_0, # of connection points: 2
#     Edge 32, Type (0, 1), BuildingBlock: MIFKUJ_clean_linker_0, # of connection points: 2
#     Edge 33, Type (0, 1), BuildingBlock: MIFKUJ_clean_linker_0, # of connection points: 2
#     Edge 34, Type (0, 1), BuildingBlock: MIFKUJ_clean_linker_0, # of connection points: 2
#     Edge 35, Type (0, 1), BuildingBlock: MIFKUJ_clean_linker_0, # of connection points: 2
#     Edge 36, Type (0, 1), BuildingBlock: MIFKUJ_clean_linker_0, # of connection points: 2
#     Edge 37, Type (0, 1), BuildingBlock: MIFKUJ_clean_linker_0, # of connection points: 2
#     Edge 38, Type (0, 1), BuildingBlock: MIFKUJ_clean_linker_0, # of connection points: 2
#     Edge 39, Type (0, 1), BuildingBlock: MIFKUJ_clean_linker_0, # of connection points: 2
#     Edge 40, Type (0, 1), BuildingBlock: MIFKUJ_clean_linker_0, # of connection points: 2
#     Edge 41, Type (0, 1), BuildingBlock: MIFKUJ_clean_linker_0, # of connection points: 2
#     Edge 42, Type (0, 1), BuildingBlock: MIFKUJ_clean_linker_0, # of connection points: 2
#     Edge 43, Type (0, 1), BuildingBlock: MIFKUJ_clean_linker_0, # of connection points: 2
#     Edge 44, Type (0, 1), BuildingBlock: MIFKUJ_clean_linker_0, # of connection points: 2
#     Edge 45, Type (0, 1), BuildingBlock: MIFKUJ_clean_linker_0, # of connection points: 2
#     Edge 46, Type (0, 1), BuildingBlock: MIFKUJ_clean_linker_0, # of connection points: 2
#     Edge 47, Type (0, 1), BuildingBlock: MIFKUJ_clean_linker_0, # of connection points: 2
#     Edge 48, Type (0, 1), BuildingBlock: MIFKUJ_clean_linker_0, # of connection points: 2
#     Edge 49, Type (0, 1), BuildingBlock: MIFKUJ_clean_linker_0, # of connection points: 2
#     Edge 50, Type (0, 1), BuildingBlock: MIFKUJ_clean_linker_0, # of connection points: 2
#     Edge 51, Type (0, 1), BuildingBlock: MIFKUJ_clean_linker_0, # of connection points: 2
#     Edge 52, Type (0, 1), BuildingBlock: MIFKUJ_clean_linker_0, # of connection points: 2
#     Edge 53, Type (0, 1), BuildingBlock: MIFKUJ_clean_linker_0, # of connection points: 2
#     Edge 54, Type (0, 1), BuildingBlock: MIFKUJ_clean_linker_0, # of connection points: 2
#     Edge 55, Type (0, 1), BuildingBlock: MIFKUJ_clean_linker_0, # of connection points: 2
#     Edge 56, Type (0, 1), BuildingBlock: MIFKUJ_clean_linker_0, # of connection points: 2
#     Edge 57, Type (0, 1), BuildingBlock: MIFKUJ_clean_linker_0, # of connection points: 2
#     Edge 58, Type (0, 1), BuildingBlock: MIFKUJ_clean_linker_0, # of connection points: 2
#     Edge 59, Type (0, 1), BuildingBlock: MIFKUJ_clean_linker_0, # of connection points: 2
#     Edge 60, Type (0, 1), BuildingBlock: MIFKUJ_clean_linker_0, # of connection points: 2
#     Edge 61, Type (0, 1), BuildingBlock: MIFKUJ_clean_linker_0, # of connection points: 2
#     Edge 62, Type (0, 1), BuildingBlock: MIFKUJ_clean_linker_0, # of connection points: 2
#     Edge 63, Type (0, 1), BuildingBlock: MIFKUJ_clean_linker_0, # of connection points: 2
#     Edge 64, Type (0, 1), BuildingBlock: MIFKUJ_clean_linker_0, # of connection points: 2
#     Edge 65, Type (0, 1), BuildingBlock: MIFKUJ_clean_linker_0, # of connection points: 2
#     Edge 66, Type (0, 1), BuildingBlock: MIFKUJ_clean_linker_0, # of connection points: 2
#     Edge 67, Type (0, 1), BuildingBlock: MIFKUJ_clean_linker_0, # of connection points: 2
#     Edge 68, Type (0, 1), BuildingBlock: MIFKUJ_clean_linker_0, # of connection points: 2
#     Edge 69, Type (0, 1), BuildingBlock: MIFKUJ_clean_linker_0, # of connection points: 2
#     Edge 70, Type (0, 1), BuildingBlock: MIFKUJ_clean_linker_0, # of connection points: 2
#     Edge 71, Type (0, 1), BuildingBlock: MIFKUJ_clean_linker_0, # of connection points: 2
# Relax obj value: 0.117
# Max RMSD: 0.302
# Mean RMSD: 0.276
data_MOF--net-ssc--node1-CEKHIL_clean_sbu_0--node2-GIZVER_clean_linker_0--edge1-MIFKUJ_clean_linker_0
_symmetry_space_group_name_H-M    P1
_symmetry_Int_Tables_number       1
_symmetry_cell_setting            triclinic
loop_
_symmetry_equiv_pos_as_xyz
'x, y, z'
_cell_length_a     39.979651
_cell_length_b     40.05892
_cell_length_c     39.879168
_cell_angle_alpha  91.299004
_cell_angle_beta   89.911144
_cell_angle_gamma 93.134787
loop_
_atom_site_label
_atom_site_type_symbol
_atom_site_fract_x
_atom_site_fract_y
_atom_site_fract_z
_atom_type_partial_charge
Co0 Co 0.0158 0.25594 0.12733 0.0
O1 O 0.04719 0.27281 0.09441 0.0
O2 O 0.99604 0.29036 0.10202 0.0
C3 C 0.0516 0.25799 0.17102 0.0
O4 O 0.97687 0.24637 0.15931 0.0
Co5 Co 0.02399 0.18908 0.16241 0.0
O6 O 0.9915 0.20708 0.19485 0.0
C7 C 0.99774 0.18799 0.0934 0.0
C8 C 0.02447 0.29309 0.08619 0.0
C9 C 0.97232 0.22981 0.18634 0.0
O10 O 0.9983 0.22017 0.09432 0.0
O11 O 0.00807 0.17069 0.11752 0.0
O12 O 0.03718 0.28458 0.16188 0.0
O13 O 0.04653 0.23176 0.15169 0.0
Co14 Co 0.04668 0.7743 0.40576 0.0
O15 O 0.07938 0.75544 0.43437 0.0
O16 O 0.02569 0.73875 0.43125 0.0
C17 C 0.07862 0.77495 0.35943 0.0
O18 O 0.0058 0.78473 0.37855 0.0
Co19 Co 0.0582 0.84243 0.37111 0.0
O20 O 0.01862 0.82683 0.34386 0.0
C21 C 0.03903 0.84105 0.44273 0.0
C22 C 0.05521 0.7346 0.44354 0.0
C23 C 0.99877 0.80314 0.35385 0.0
O24 O 0.03555 0.8088 0.44137 0.0
O25 O 0.04996 0.85852 0.41816 0.0
O26 O 0.06217 0.74759 0.36789 0.0
O27 O 0.07729 0.80013 0.38005 0.0
Co28 Co 0.51539 0.75348 0.62269 0.0
O29 O 0.5466 0.75111 0.5861 0.0
O30 O 0.50846 0.78889 0.59151 0.0
C31 C 0.55223 0.74787 0.66449 0.0
O32 O 0.48043 0.76468 0.65808 0.0
Co33 Co 0.50188 0.69131 0.66715 0.0
O34 O 0.47793 0.7233 0.69566 0.0
C35 C 0.47229 0.6915 0.59981 0.0
C36 C 0.53321 0.77726 0.57443 0.0
C37 C 0.47017 0.75191 0.68588 0.0
O38 O 0.48235 0.72243 0.59723 0.0
O39 O 0.47965 0.67377 0.62478 0.0
O40 O 0.54948 0.77665 0.6507 0.0
O41 O 0.53581 0.72287 0.64993 0.0
Co42 Co 0.52858 0.24607 0.93035 0.0
O43 O 0.55661 0.2428 0.96924 0.0
O44 O 0.51477 0.20668 0.95464 0.0
C45 C 0.56906 0.25793 0.89271 0.0
O46 O 0.49529 0.23942 0.89155 0.0
Co47 Co 0.52369 0.31212 0.89196 0.0
O48 O 0.50214 0.2826 0.85681 0.0
C49 C 0.49719 0.30648 0.96054 0.0
C50 C 0.53869 0.21558 0.9755 0.0
C51 C 0.49038 0.25324 0.86323 0.0
O52 O 0.498 0.2744 0.95803 0.0
O53 O 0.50877 0.32599 0.93783 0.0
O54 O 0.5626 0.22717 0.90155 0.0
O55 O 0.55367 0.28031 0.90954 0.0
Co56 Co 0.11033 0.02129 0.24935 0.0
O57 O 0.15099 0.00337 0.23237 0.0
O58 O 0.13255 0.99918 0.28479 0.0
C59 C 0.07663 0.00419 0.20666 0.0
O60 O 0.06932 0.03453 0.27585 0.0
Co61 Co 0.07406 0.0766 0.21325 0.0
O62 O 0.03547 0.05957 0.24054 0.0
C63 C 0.13555 0.09454 0.25148 0.0
C64 C 0.15535 0.99302 0.2626 0.0
C65 C 0.04052 0.04478 0.26785 0.0
O66 O 0.13583 0.06437 0.26169 0.0
O67 O 0.11382 0.10445 0.23093 0.0
O68 O 0.08358 0.98358 0.23011 0.0
O69 O 0.09285 0.033 0.20794 0.0
Co70 Co 0.24454 0.91064 0.55739 0.0
O71 O 0.23948 0.95041 0.58424 0.0
O72 O 0.21711 0.94064 0.53388 0.0
C73 C 0.23432 0.8734 0.59786 0.0
O74 O 0.24278 0.87234 0.52323 0.0
Co75 Co 0.30179 0.86386 0.57149 0.0
O76 O 0.27685 0.83294 0.53948 0.0
C77 C 0.31754 0.92721 0.53773 0.0
C78 C 0.22133 0.96059 0.5599 0.0
C79 C 0.25423 0.84304 0.52025 0.0
O80 O 0.28597 0.93163 0.53583 0.0
O81 O 0.32943 0.90301 0.55349 0.0
O82 O 0.2097 0.88665 0.58273 0.0
O83 O 0.26397 0.88589 0.59085 0.0
Co84 Co 0.40005 0.06394 0.78885 0.0
O85 O 0.35729 0.07701 0.77368 0.0
O86 O 0.37417 0.07797 0.82687 0.0
C87 C 0.43211 0.09001 0.75016 0.0
O88 O 0.44202 0.05356 0.81426 0.0
Co89 Co 0.44407 0.01894 0.74487 0.0
O90 O 0.47769 0.02651 0.78115 0.0
C91 C 0.37778 0.99487 0.76855 0.0
C92 C 0.35056 0.08207 0.80525 0.0
C93 C 0.4705 0.04107 0.80879 0.0
O94 O 0.38013 0.01707 0.79228 0.0
O95 O 0.39954 0.99334 0.74508 0.0
O96 O 0.42232 0.10666 0.7765 0.0
O97 O 0.41976 0.05975 0.7468 0.0
Co98 Co 0.27021 0.11133 0.02235 0.0
O99 O 0.2818 0.07785 0.05344 0.0
O100 O 0.30843 0.08815 0.00577 0.0
C101 C 0.26417 0.15312 0.0598 0.0
O102 O 0.26686 0.14547 0.98539 0.0
Co103 Co 0.19978 0.14057 0.02516 0.0
O104 O 0.22046 0.17394 0.99433 0.0
C105 C 0.20654 0.07188 0.00019 0.0
C106 C 0.30594 0.07098 0.03306 0.0
C107 C 0.24817 0.16987 0.97931 0.0
O108 O 0.2385 0.07766 0.99872 0.0
O109 O 0.18674 0.09284 0.01282 0.0
O110 O 0.29385 0.14597 0.04944 0.0
O111 O 0.2399 0.1324 0.05038 0.0
Co112 Co 0.76725 0.39617 0.05569 0.0
O113 O 0.76288 0.43582 0.08346 0.0
O114 O 0.73124 0.42113 0.03938 0.0
C115 C 0.77206 0.36055 0.09788 0.0
O116 O 0.76142 0.35744 0.02199 0.0
Co117 Co 0.82946 0.35359 0.05459 0.0
O118 O 0.80148 0.32088 0.02714 0.0
C119 C 0.83294 0.42034 0.02444 0.0
C120 C 0.73803 0.44216 0.06399 0.0
C121 C 0.77402 0.32939 0.01458 0.0
O122 O 0.80083 0.4214 0.02652 0.0
O123 O 0.84914 0.39672 0.03663 0.0
O124 O 0.74263 0.36909 0.08854 0.0
O125 O 0.79732 0.37527 0.08312 0.0
Co126 Co 0.89157 0.53334 0.28934 0.0
O127 O 0.85883 0.55838 0.26683 0.0
O128 O 0.86227 0.55269 0.32192 0.0
C129 C 0.93681 0.55214 0.26043 0.0
O130 O 0.9219 0.51131 0.32243 0.0
Co131 Co 0.93121 0.47909 0.25238 0.0
O132 O 0.96016 0.48391 0.29288 0.0
C133 C 0.85803 0.47216 0.25861 0.0
C134 C 0.8468 0.56449 0.29654 0.0
C135 C 0.9496 0.49654 0.32027 0.0
O136 O 0.86027 0.4926 0.28397 0.0
O137 O 0.88346 0.46468 0.241 0.0
O138 O 0.9255 0.57013 0.28514 0.0
O139 O 0.91887 0.52542 0.25238 0.0
Co140 Co 0.78683 0.62014 0.51483 0.0
O141 O 0.79577 0.58131 0.5404 0.0
O142 O 0.82508 0.59942 0.4965 0.0
C143 C 0.77905 0.65497 0.55863 0.0
O144 O 0.78809 0.65933 0.48332 0.0
Co145 Co 0.72022 0.65535 0.51616 0.0
O146 O 0.74792 0.69355 0.49808 0.0
C147 C 0.72406 0.59033 0.48041 0.0
C148 C 0.82087 0.57775 0.52006 0.0
C149 C 0.7752 0.68799 0.48294 0.0
O150 O 0.75598 0.59162 0.48472 0.0
O151 O 0.70508 0.61248 0.49227 0.0
O152 O 0.80918 0.64931 0.54845 0.0
O153 O 0.75489 0.63766 0.54386 0.0
Co154 Co 0.63819 0.4824 0.73927 0.0
O155 O 0.67888 0.46673 0.71997 0.0
O156 O 0.66907 0.47219 0.7744 0.0
C157 C 0.60123 0.45216 0.70664 0.0
O158 O 0.59943 0.49629 0.76866 0.0
Co159 Co 0.59099 0.52363 0.69713 0.0
O160 O 0.56018 0.51717 0.73603 0.0
C161 C 0.65527 0.55432 0.71971 0.0
C162 C 0.68967 0.46455 0.75053 0.0
C163 C 0.57004 0.50705 0.76428 0.0
O164 O 0.65819 0.52944 0.73903 0.0
O165 O 0.63175 0.55558 0.69812 0.0
O166 O 0.6147 0.43873 0.73235 0.0
O167 O 0.61319 0.48174 0.69943 0.0
H168 H 0.09995 0.30196 0.771 0.0
H169 H 0.10005 0.29394 0.66306 0.0
H170 H 0.10018 0.20557 0.72191 0.0
H171 H 0.10718 0.35164 0.73974 0.0
H172 H 0.12353 0.34698 0.69823 0.0
H173 H 0.04265 0.34606 0.74722 0.0
H174 H 0.98807 0.38453 0.66519 0.0
H175 H 0.0906 0.36153 0.65111 0.0
C176 C 0.09881 0.28668 0.74821 0.0
C177 C 0.09854 0.25171 0.75026 0.0
C178 C 0.09917 0.30204 0.71679 0.0
C179 C 0.09905 0.28211 0.68723 0.0
C180 C 0.09847 0.2471 0.68889 0.0
C181 C 0.09802 0.23235 0.72049 0.0
C182 C 0.10201 0.33966 0.71471 0.0
C183 C 0.07025 0.35247 0.70082 0.0
C184 C 0.04162 0.35387 0.72142 0.0
C185 C 0.01164 0.36485 0.70846 0.0
C186 C 0.01075 0.3747 0.67505 0.0
C187 C 0.03878 0.37327 0.65423 0.0
C188 C 0.06873 0.36235 0.66712 0.0
H189 H 0.07067 0.76471 0.72529 0.0
H190 H 0.05533 0.74802 0.83095 0.0
H191 H 0.09401 0.8433 0.7979 0.0
H192 H 0.04235 0.71367 0.74128 0.0
H193 H 0.06836 0.70118 0.7744 0.0
H194 H 0.98371 0.73516 0.75875 0.0
H195 H 0.93701 0.67467 0.8358 0.0
H196 H 0.0428 0.67502 0.82151 0.0
C197 C 0.07012 0.77419 0.75095 0.0
C198 C 0.08261 0.80694 0.75832 0.0
C199 C 0.05883 0.75306 0.77688 0.0
C200 C 0.06151 0.76464 0.81054 0.0
C201 C 0.07349 0.79747 0.81779 0.0
C202 C 0.08293 0.81858 0.79168 0.0
C203 C 0.04744 0.7173 0.76858 0.0
C204 C 0.0165 0.70636 0.78798 0.0
C205 C 0.98512 0.71802 0.77924 0.0
C206 C 0.95585 0.70703 0.79641 0.0
C207 C 0.95901 0.68509 0.82309 0.0
C208 C 0.9901 0.67405 0.83245 0.0
C209 C 0.01883 0.68432 0.8147 0.0
H210 H 0.50111 0.70925 0.16172 0.0
H211 H 0.51664 0.73343 0.26675 0.0
H212 H 0.59817 0.70189 0.20617 0.0
H213 H 0.45365 0.71661 0.19729 0.0
H214 H 0.45933 0.71776 0.24177 0.0
H215 H 0.47673 0.77342 0.16685 0.0
H216 H 0.43532 0.858 0.21613 0.0
H217 H 0.43857 0.7655 0.26781 0.0
C218 C 0.51779 0.71306 0.18302 0.0
C219 C 0.55148 0.70524 0.17981 0.0
C220 C 0.50519 0.72414 0.21414 0.0
C221 C 0.52654 0.72687 0.2423 0.0
C222 C 0.56026 0.71943 0.23907 0.0
C223 C 0.57257 0.70952 0.20778 0.0
C224 C 0.46826 0.72936 0.21806 0.0
C225 C 0.4612 0.76601 0.21837 0.0
C226 C 0.4668 0.78497 0.18932 0.0
C227 C 0.45788 0.81833 0.18878 0.0
C228 C 0.44373 0.83277 0.21731 0.0
C229 C 0.43622 0.81379 0.24565 0.0
C230 C 0.44527 0.78048 0.24627 0.0
H231 H 0.55897 0.26381 0.23766 0.0
H232 H 0.54364 0.27043 0.34452 0.0
H233 H 0.56802 0.35903 0.2892 0.0
H234 H 0.55018 0.21375 0.26723 0.0
H235 H 0.56373 0.21704 0.31007 0.0
H236 H 0.48437 0.24559 0.26943 0.0
H237 H 0.42107 0.17852 0.3263 0.0
H238 H 0.52802 0.17595 0.33556 0.0
C239 C 0.55648 0.27883 0.26039 0.0
C240 C 0.56315 0.31356 0.25948 0.0
C241 C 0.54889 0.26317 0.29092 0.0
C242 C 0.54792 0.28256 0.32075 0.0
C243 C 0.55386 0.31739 0.32004 0.0
C244 C 0.56072 0.33256 0.28926 0.0
C245 C 0.54491 0.22553 0.29206 0.0
C246 C 0.51019 0.21356 0.30289 0.0
C247 C 0.48169 0.22632 0.28803 0.0
C248 C 0.4497 0.21364 0.29679 0.0
C249 C 0.44609 0.18796 0.31986 0.0
C250 C 0.47403 0.1737 0.33373 0.0
C251 C 0.50615 0.18699 0.32545 0.0
H252 H 0.68464 0.98251 0.21469 0.0
H253 H 0.78841 0.01477 0.23018 0.0
H254 H 0.71547 0.08693 0.21269 0.0
H255 H 0.72616 0.94164 0.21501 0.0
H256 H 0.76928 0.95509 0.21106 0.0
H257 H 0.69937 0.9392 0.27252 0.0
H258 H 0.76695 0.91847 0.35189 0.0
H259 H 0.80606 0.95468 0.25835 0.0
C260 C 0.70394 0.00242 0.21769 0.0
C261 C 0.69576 0.03576 0.21385 0.0
C262 C 0.73725 0.99468 0.22423 0.0
C263 C 0.76251 0.02057 0.22653 0.0
C264 C 0.75438 0.05382 0.2228 0.0
C265 C 0.72112 0.06119 0.21707 0.0
C266 C 0.74625 0.95875 0.22611 0.0
C267 C 0.75201 0.94935 0.26196 0.0
C268 C 0.72461 0.93956 0.28246 0.0
C269 C 0.73002 0.92805 0.31487 0.0
C270 C 0.76285 0.92816 0.32715 0.0
C271 C 0.79051 0.93756 0.30706 0.0
C272 C 0.78488 0.94837 0.27444 0.0
H273 H 0.21294 0.25088 0.62616 0.0
H274 H 0.25343 0.33583 0.57148 0.0
H275 H 0.31872 0.27483 0.62552 0.0
H276 H 0.17735 0.27647 0.58541 0.0
H277 H 0.18375 0.3155 0.60673 0.0
H278 H 0.1995 0.27279 0.52288 0.0
H279 H 0.17549 0.3594 0.46803 0.0
H280 H 0.1762 0.36403 0.57538 0.0
C281 C 0.23423 0.2656 0.61646 0.0
C282 C 0.26653 0.25936 0.62737 0.0
C283 C 0.22918 0.2923 0.59485 0.0
C284 C 0.25697 0.31356 0.58568 0.0
C285 C 0.2894 0.30668 0.59605 0.0
C286 C 0.29391 0.27901 0.6159 0.0
C287 C 0.1936 0.29989 0.58593 0.0
C288 C 0.19011 0.31702 0.55282 0.0
C289 C 0.19371 0.29889 0.52242 0.0
C290 C 0.18879 0.31421 0.49158 0.0
C291 C 0.18083 0.34786 0.49158 0.0
C292 C 0.17593 0.36589 0.52148 0.0
C293 C 0.18072 0.35043 0.55216 0.0
H294 H 0.8434 0.0386 0.69949 0.0
H295 H 0.74505 0.99619 0.72445 0.0
H296 H 0.81781 0.9346 0.67905 0.0
H297 H 0.80146 0.0751 0.71709 0.0
H298 H 0.75897 0.05958 0.71182 0.0
H299 H 0.82853 0.04698 0.77473 0.0
H300 H 0.7705 0.08242 0.85715 0.0
H301 H 0.72772 0.0758 0.75822 0.0
C302 C 0.82574 0.01718 0.701 0.0
C303 C 0.83488 0.98587 0.68862 0.0
C304 C 0.7935 0.021 0.71459 0.0
C305 C 0.77027 0.99325 0.71524 0.0
C306 C 0.77924 0.96216 0.70239 0.0
C307 C 0.8115 0.95861 0.68975 0.0
C308 C 0.78277 0.05525 0.72506 0.0
C309 C 0.7779 0.05892 0.76256 0.0
C310 C 0.80484 0.05483 0.78456 0.0
C311 C 0.80171 0.06225 0.81897 0.0
C312 C 0.77162 0.07425 0.83109 0.0
C313 C 0.7448 0.07978 0.8095 0.0
C314 C 0.74795 0.07126 0.77529 0.0
H315 H 0.29008 0.74476 0.06768 0.0
H316 H 0.2486 0.64354 0.05747 0.0
H317 H 0.18602 0.72286 0.0874 0.0
H318 H 0.32661 0.69921 0.06566 0.0
H319 H 0.30954 0.65704 0.06693 0.0
H320 H 0.3035 0.72749 0.00445 0.0
H321 H 0.34785 0.6704 0.92561 0.0
H322 H 0.33335 0.62769 0.02275 0.0
C323 C 0.26852 0.72711 0.06719 0.0
C324 C 0.23708 0.738 0.07638 0.0
C325 C 0.27272 0.69312 0.05977 0.0
C326 C 0.24503 0.66991 0.06182 0.0
C327 C 0.21333 0.68048 0.07144 0.0
C328 C 0.20963 0.7147 0.07766 0.0
C329 C 0.30751 0.68126 0.05415 0.0
C330 C 0.31584 0.67734 0.01738 0.0
C331 C 0.31316 0.70419 0.99545 0.0
C332 C 0.32354 0.70117 0.96198 0.0
C333 C 0.33782 0.67168 0.95086 0.0
C334 C 0.34181 0.64511 0.97256 0.0
C335 C 0.33028 0.64799 0.00571 0.0
H336 H 0.73329 0.79801 0.10538 0.0
H337 H 0.74251 0.89063 0.05203 0.0
H338 H 0.82661 0.85594 0.1048 0.0
H339 H 0.68823 0.81108 0.07039 0.0
H340 H 0.68399 0.85253 0.08579 0.0
H341 H 0.70139 0.80092 0.00872 0.0
H342 H 0.66304 0.87363 0.94321 0.0
H343 H 0.67398 0.89659 0.04834 0.0
C344 C 0.74871 0.81873 0.09569 0.0
C345 C 0.78161 0.82421 0.10714 0.0
C346 C 0.73452 0.84186 0.07466 0.0
C347 C 0.75375 0.871 0.0656 0.0
C348 C 0.78714 0.87569 0.07608 0.0
C349 C 0.8012 0.85148 0.09548 0.0
C350 C 0.69759 0.83747 0.06697 0.0
C351 C 0.68924 0.8479 0.03215 0.0
C352 C 0.69244 0.82558 0.00474 0.0
C353 C 0.68335 0.83485 0.97242 0.0
C354 C 0.67122 0.86666 0.96788 0.0
C355 C 0.66763 0.88893 0.99511 0.0
C356 C 0.6772 0.87967 0.02711 0.0
H357 H 0.36406 0.53066 0.21729 0.0
H358 H 0.25853 0.50198 0.21848 0.0
H359 H 0.33066 0.42683 0.21338 0.0
H360 H 0.32499 0.57304 0.21482 0.0
H361 H 0.28417 0.55988 0.19927 0.0
H362 H 0.31823 0.54036 0.28465 0.0
H363 H 0.25761 0.61081 0.33544 0.0
H364 H 0.25876 0.60582 0.22824 0.0
C365 C 0.34401 0.51138 0.21839 0.0
C366 C 0.35165 0.47757 0.21617 0.0
C367 C 0.31042 0.52038 0.22021 0.0
C368 C 0.28441 0.49526 0.21922 0.0
C369 C 0.29193 0.46155 0.21757 0.0
C370 C 0.32537 0.45296 0.21698 0.0
C371 C 0.30225 0.55674 0.22001 0.0
C372 C 0.2871 0.56873 0.25263 0.0
C373 C 0.29914 0.5585 0.28382 0.0
C374 C 0.28821 0.57317 0.31397 0.0
C375 C 0.26451 0.59763 0.31259 0.0
C376 C 0.25428 0.60986 0.28187 0.0
C377 C 0.26523 0.59513 0.25195 0.0
H378 H 0.76421 0.25427 0.58163 0.0
H379 H 0.7494 0.15046 0.55185 0.0
H380 H 0.66637 0.20509 0.58639 0.0
H381 H 0.81063 0.22669 0.55902 0.0
H382 H 0.80855 0.18411 0.5718 0.0
H383 H 0.79234 0.23912 0.49879 0.0
H384 H 0.80728 0.16106 0.42586 0.0
H385 H 0.81356 0.14024 0.53071 0.0
C386 C 0.74753 0.23256 0.57631 0.0
C387 C 0.71353 0.23333 0.585 0.0
C388 C 0.76041 0.20311 0.56286 0.0
C389 C 0.73922 0.17397 0.55951 0.0
C390 C 0.70512 0.17482 0.56732 0.0
C391 C 0.69229 0.20498 0.57848 0.0
C392 C 0.79719 0.20191 0.55472 0.0
C393 C 0.80167 0.19072 0.51877 0.0
C394 C 0.79708 0.21326 0.49285 0.0
C395 C 0.79881 0.20243 0.45932 0.0
C396 C 0.8049 0.16899 0.45181 0.0
C397 C 0.81085 0.1465 0.4773 0.0
C398 C 0.80913 0.15749 0.51085 0.0
H399 H 0.14277 0.47624 0.70198 0.0
H400 H 0.20339 0.53896 0.77016 0.0
H401 H 0.1338 0.58236 0.70453 0.0
H402 H 0.17275 0.44988 0.7457 0.0
H403 H 0.21264 0.47103 0.73917 0.0
H404 H 0.14514 0.4902 0.80267 0.0
H405 H 0.20894 0.47399 0.88612 0.0
H406 H 0.24026 0.44895 0.78555 0.0
C407 C 0.14908 0.50052 0.71352 0.0
C408 C 0.13489 0.52894 0.70101 0.0
C409 C 0.17255 0.50368 0.73992 0.0
C410 C 0.18324 0.53589 0.75201 0.0
C411 C 0.16861 0.56427 0.7399 0.0
C412 C 0.14368 0.56035 0.71535 0.0
C413 C 0.18835 0.47285 0.75254 0.0
C414 C 0.19421 0.47352 0.79009 0.0
C415 C 0.16904 0.48321 0.81234 0.0
C416 C 0.1742 0.48289 0.84707 0.0
C417 C 0.20502 0.47318 0.85933 0.0
C418 C 0.22857 0.45865 0.83795 0.0
C419 C 0.22316 0.46001 0.80304 0.0
H420 H 0.06959 0.29278 0.03523 0.0
H421 H 0.08677 0.3391 0.99919 0.0
H422 H 0.01381 0.40015 0.04675 0.0
H423 H 0.99604 0.35335 0.08244 0.0
H424 H 0.01547 0.41251 0.98336 0.0
H425 H 0.0981 0.40951 0.06758 0.0
H426 H 0.14069 0.38747 0.10457 0.0
H427 H 0.19974 0.36163 0.01882 0.0
H428 H 0.15724 0.38283 0.98124 0.0
H429 H 0.17237 0.51721 0.90737 0.0
H430 H 0.13509 0.50231 0.95403 0.0
H431 H 0.07551 0.43649 0.88784 0.0
H432 H 0.11249 0.45126 0.84139 0.0
H433 H 0.13718 0.44122 0.97311 0.0
H434 H 0.99697 0.41571 0.92577 0.0
H435 H 0.95483 0.44555 0.895 0.0
H436 H 0.01119 0.5385 0.91292 0.0
H437 H 0.05264 0.50976 0.94521 0.0
C438 C 0.05719 0.31606 0.03792 0.0
C439 C 0.03187 0.3197 0.0619 0.0
C440 C 0.06708 0.34257 0.01742 0.0
C441 C 0.05224 0.37348 0.0209 0.0
C442 C 0.02583 0.37667 0.04381 0.0
C443 C 0.01564 0.34992 0.06411 0.0
C444 C 0.06474 0.40227 0.00069 0.0
C445 C 0.04205 0.41892 0.981 0.0
C446 C 0.09931 0.41181 0.99907 0.0
C447 C 0.12438 0.39777 0.02156 0.0
C448 C 0.11998 0.39882 0.05657 0.0
C449 C 0.14415 0.38653 0.07765 0.0
C450 C 0.17297 0.37337 0.06404 0.0
C451 C 0.17748 0.37201 0.02931 0.0
C452 C 0.15335 0.38414 0.00812 0.0
C453 C 0.15047 0.50067 0.90252 0.0
C454 C 0.14575 0.48489 0.8709 0.0
C455 C 0.1292 0.49214 0.92919 0.0
C456 C 0.10284 0.46782 0.92459 0.0
C457 C 0.09554 0.45543 0.89206 0.0
C458 C 0.11677 0.46399 0.86538 0.0
C459 C 0.08817 0.44994 0.95384 0.0
C460 C 0.1105 0.43528 0.9755 0.0
C461 C 0.05329 0.44287 0.9576 0.0
C462 C 0.0283 0.46036 0.93779 0.0
C463 C 0.00029 0.44257 0.92347 0.0
C464 C 0.97637 0.45935 0.90582 0.0
C465 C 0.98023 0.4939 0.90209 0.0
C466 C 0.00809 0.51175 0.91585 0.0
C467 C 0.03184 0.4952 0.93386 0.0
H468 H 0.96159 0.50683 0.88862 0.0
H469 H 0.19184 0.36428 0.08038 0.0
H470 H 0.94294 0.76577 0.37427 0.0
H471 H 0.89349 0.74826 0.34034 0.0
H472 H 0.93446 0.8047 0.2576 0.0
H473 H 0.98341 0.82236 0.291 0.0
H474 H 0.84547 0.78413 0.30581 0.0
H475 H 0.93132 0.75723 0.18947 0.0
H476 H 0.98539 0.73196 0.17929 0.0
H477 H 0.97406 0.67746 0.27042 0.0
H478 H 0.91966 0.70191 0.28092 0.0
H479 H 0.80381 0.85363 0.1645 0.0
H480 H 0.82661 0.82785 0.21301 0.0
H481 H 0.80761 0.73019 0.16672 0.0
H482 H 0.78506 0.7565 0.11689 0.0
H483 H 0.87082 0.73877 0.1923 0.0
H484 H 0.76445 0.74212 0.24717 0.0
H485 H 0.70964 0.76527 0.25888 0.0
H486 H 0.75885 0.85866 0.29048 0.0
H487 H 0.81376 0.83572 0.27886 0.0
C488 C 0.94128 0.77452 0.34885 0.0
C489 C 0.96732 0.79511 0.33513 0.0
C490 C 0.91304 0.76449 0.3296 0.0
C491 C 0.91088 0.77442 0.29623 0.0
C492 C 0.9361 0.79613 0.2831 0.0
C493 C 0.96397 0.80643 0.30232 0.0
C494 C 0.8827 0.76262 0.27423 0.0
C495 C 0.85061 0.77327 0.28138 0.0
C496 C 0.88898 0.74692 0.24287 0.0
C497 C 0.92133 0.73147 0.23599 0.0
C498 C 0.94014 0.73959 0.20717 0.0
C499 C 0.97092 0.72547 0.20139 0.0
C500 C 0.98312 0.70313 0.2242 0.0
C501 C 0.96457 0.69478 0.25279 0.0
C502 C 0.93379 0.7088 0.25868 0.0
C503 C 0.80427 0.8266 0.16467 0.0
C504 C 0.79317 0.80698 0.13688 0.0
C505 C 0.8167 0.8118 0.19273 0.0
C506 C 0.81773 0.77694 0.19413 0.0
C507 C 0.80624 0.75703 0.16656 0.0
C508 C 0.79358 0.77201 0.13813 0.0
C509 C 0.8347 0.76303 0.22314 0.0
C510 C 0.86493 0.74771 0.21738 0.0
C511 C 0.82622 0.77313 0.25613 0.0
C512 C 0.79321 0.7868 0.26353 0.0
C513 C 0.76352 0.76732 0.25723 0.0
C514 C 0.73241 0.78045 0.26368 0.0
C515 C 0.73069 0.81326 0.276 0.0
C516 C 0.76011 0.83305 0.28158 0.0
C517 C 0.79122 0.8199 0.27531 0.0
H518 H 0.70659 0.82343 0.28095 0.0
H519 H 0.00694 0.69231 0.21976 0.0
H520 H 0.43795 0.63035 0.59981 0.0
H521 H 0.40422 0.60377 0.55463 0.0
H522 H 0.42531 0.68952 0.49301 0.0
H523 H 0.45849 0.71665 0.5383 0.0
H524 H 0.36183 0.66864 0.4865 0.0
H525 H 0.46763 0.61819 0.48422 0.0
H526 H 0.51383 0.58933 0.50942 0.0
H527 H 0.44741 0.50383 0.5279 0.0
H528 H 0.40037 0.53274 0.50373 0.0
H529 H 0.35577 0.57149 0.32374 0.0
H530 H 0.38553 0.58259 0.37652 0.0
H531 H 0.29158 0.5799 0.42984 0.0
H532 H 0.26153 0.56786 0.37717 0.0
H533 H 0.39019 0.55699 0.44175 0.0
H534 H 0.29331 0.65354 0.47663 0.0
H535 H 0.25212 0.68767 0.44908 0.0
H536 H 0.30983 0.68627 0.35822 0.0
H537 H 0.35133 0.65245 0.38522 0.0
C538 C 0.43539 0.64365 0.57669 0.0
C539 C 0.45116 0.67561 0.57266 0.0
C540 C 0.41609 0.62836 0.55086 0.0
C541 C 0.41254 0.64446 0.52027 0.0
C542 C 0.42766 0.67662 0.5164 0.0
C543 C 0.44675 0.69205 0.54231 0.0
C544 C 0.39386 0.62755 0.4919 0.0
C545 C 0.36787 0.6441 0.47698 0.0
C546 C 0.40204 0.59572 0.47902 0.0
C547 C 0.4304 0.5778 0.49253 0.0
C548 C 0.46279 0.59333 0.49387 0.0
C549 C 0.48911 0.57698 0.50803 0.0
C550 C 0.48355 0.54477 0.52032 0.0
C551 C 0.45163 0.52882 0.51842 0.0
C552 C 0.4251 0.54522 0.50457 0.0
C553 C 0.34144 0.57165 0.34681 0.0
C554 C 0.30619 0.5692 0.34616 0.0
C555 C 0.35854 0.57824 0.377 0.0
C556 C 0.34069 0.58273 0.40692 0.0
C557 C 0.30576 0.57694 0.4069 0.0
C558 C 0.28866 0.57006 0.37679 0.0
C559 C 0.35804 0.59797 0.43679 0.0
C560 C 0.38378 0.58119 0.45183 0.0
C561 C 0.35022 0.62997 0.44933 0.0
C562 C 0.32516 0.65011 0.43284 0.0
C563 C 0.29714 0.66051 0.45077 0.0
C564 C 0.27374 0.67979 0.43524 0.0
C565 C 0.27831 0.68903 0.4019 0.0
C566 C 0.3062 0.67897 0.38397 0.0
C567 C 0.32962 0.65967 0.39935 0.0
H568 H 0.26035 0.7041 0.39002 0.0
H569 H 0.50399 0.53218 0.53121 0.0
H570 H 0.6085 0.2184 0.8549 0.0
H571 H 0.63051 0.22948 0.79866 0.0
H572 H 0.58677 0.32564 0.80134 0.0
H573 H 0.56746 0.3159 0.85824 0.0
H574 H 0.59373 0.23929 0.74277 0.0
H575 H 0.62467 0.37559 0.75104 0.0
H576 H 0.6362 0.41962 0.79447 0.0
H577 H 0.69247 0.35241 0.85104 0.0
H578 H 0.68024 0.30745 0.80862 0.0
H579 H 0.65645 0.26826 0.58118 0.0
H580 H 0.62712 0.29168 0.62969 0.0
H581 H 0.71215 0.27469 0.69211 0.0
H582 H 0.74195 0.25316 0.64391 0.0
H583 H 0.67165 0.3342 0.71235 0.0
H584 H 0.66046 0.21286 0.67485 0.0
H585 H 0.64167 0.17128 0.63177 0.0
H586 H 0.54249 0.20725 0.63563 0.0
H587 H 0.56123 0.25023 0.67792 0.0
C588 C 0.6041 0.24203 0.84363 0.0
C589 C 0.58578 0.26593 0.86073 0.0
C590 C 0.61638 0.24826 0.81148 0.0
C591 C 0.60997 0.27824 0.79572 0.0
C592 C 0.59234 0.30248 0.81309 0.0
C593 C 0.58105 0.29669 0.84561 0.0
C594 C 0.6213 0.2836 0.76086 0.0
C595 C 0.61105 0.2598 0.73623 0.0
C596 C 0.64235 0.31144 0.75189 0.0
C597 C 0.65183 0.33846 0.77652 0.0
C598 C 0.63995 0.37043 0.77251 0.0
C599 C 0.6465 0.39543 0.79699 0.0
C600 C 0.6657 0.389 0.8251 0.0
C601 C 0.67796 0.35735 0.82906 0.0
C602 C 0.67094 0.33201 0.80501 0.0
C603 C 0.66958 0.27156 0.60486 0.0
C604 C 0.70151 0.25898 0.60878 0.0
C605 C 0.65278 0.28482 0.63254 0.0
C606 C 0.6676 0.28521 0.66445 0.0
C607 C 0.70066 0.27566 0.66759 0.0
C608 C 0.7177 0.26322 0.63991 0.0
C609 C 0.64717 0.28765 0.69529 0.0
C610 C 0.65491 0.31329 0.71906 0.0
C611 C 0.62368 0.26146 0.70361 0.0
C612 C 0.61237 0.23504 0.67904 0.0
C613 C 0.63474 0.21212 0.66628 0.0
C614 C 0.62409 0.18835 0.64193 0.0
C615 C 0.59088 0.18658 0.63084 0.0
C616 C 0.56826 0.20875 0.64407 0.0
C617 C 0.57892 0.23294 0.66811 0.0
H618 H 0.58261 0.16794 0.61217 0.0
H619 H 0.6708 0.40845 0.84397 0.0
H620 H 0.11517 0.70875 0.45901 0.0
H621 H 0.12437 0.66116 0.49513 0.0
H622 H 0.01807 0.64898 0.51304 0.0
H623 H 0.0086 0.69601 0.47683 0.0
H624 H 0.06846 0.66092 0.57109 0.0
H625 H 0.05195 0.60341 0.46381 0.0
H626 H 0.06467 0.58268 0.40731 0.0
H627 H 0.14895 0.53341 0.445 0.0
H628 H 0.13785 0.55504 0.50178 0.0
H629 H 0.06973 0.54229 0.69032 0.0
H630 H 0.04861 0.56467 0.63828 0.0
H631 H 0.14054 0.54151 0.58815 0.0
H632 H 0.16069 0.51754 0.6396 0.0
H633 H 0.09504 0.5441 0.54303 0.0
H634 H 0.13577 0.61865 0.62962 0.0
H635 H 0.14164 0.64459 0.68593 0.0
H636 H 0.03788 0.66713 0.68532 0.0
H637 H 0.03148 0.64147 0.62856 0.0
C638 C 0.09378 0.69584 0.47062 0.0
C639 C 0.06117 0.70627 0.46543 0.0
C640 C 0.09906 0.66848 0.49084 0.0
C641 C 0.07182 0.65138 0.50623 0.0
C642 C 0.03932 0.66169 0.50098 0.0
C643 C 0.03398 0.68864 0.48047 0.0
C644 C 0.07711 0.62547 0.53112 0.0
C645 C 0.07384 0.63523 0.56483 0.0
C646 C 0.08627 0.59253 0.52273 0.0
C647 C 0.09396 0.58126 0.48767 0.0
C648 C 0.07383 0.58908 0.46031 0.0
C649 C 0.08067 0.57691 0.42803 0.0
C650 C 0.10759 0.55673 0.42253 0.0
C651 C 0.12802 0.54901 0.44926 0.0
C652 C 0.12143 0.56128 0.48155 0.0
C653 C 0.08445 0.54022 0.66761 0.0
C654 C 0.11677 0.52828 0.6688 0.0
C655 C 0.07266 0.55344 0.63801 0.0
C656 C 0.09355 0.55599 0.60967 0.0
C657 C 0.12404 0.54015 0.60971 0.0
C658 C 0.1355 0.52624 0.6391 0.0
C659 C 0.08658 0.57977 0.58275 0.0
C660 C 0.0895 0.56978 0.54892 0.0
C661 C 0.07992 0.6134 0.59064 0.0
C662 C 0.08303 0.62771 0.62516 0.0
C663 C 0.11412 0.62884 0.64164 0.0
C664 C 0.11758 0.64366 0.67357 0.0
C665 C 0.09011 0.65732 0.68938 0.0
C666 C 0.05912 0.6564 0.67311 0.0
C667 C 0.05557 0.64183 0.641 0.0
H668 H 0.09288 0.66875 0.71416 0.0
H669 H 0.11259 0.54707 0.39756 0.0
H670 H 0.60004 0.79167 0.69029 0.0
H671 H 0.62871 0.78924 0.74414 0.0
H672 H 0.57465 0.69574 0.76452 0.0
H673 H 0.54623 0.6977 0.71007 0.0
H674 H 0.57286 0.74461 0.81738 0.0
H675 H 0.65041 0.69441 0.74643 0.0
H676 H 0.68756 0.68691 0.69807 0.0
H677 H 0.75011 0.77159 0.73109 0.0
H678 H 0.71181 0.78177 0.77798 0.0
H679 H 0.65775 0.77004 0.97046 0.0
H680 H 0.64356 0.73634 0.91992 0.0
H681 H 0.69154 0.81268 0.85892 0.0
H682 H 0.70675 0.84567 0.90923 0.0
H683 H 0.6965 0.7535 0.82949 0.0
H684 H 0.6065 0.81405 0.88355 0.0
H685 H 0.57013 0.82532 0.93212 0.0
H686 H 0.53386 0.72243 0.93102 0.0
H687 H 0.57028 0.71048 0.88263 0.0
C688 C 0.59442 0.77046 0.70611 0.0
C689 C 0.57085 0.74492 0.69609 0.0
C690 C 0.6109 0.76904 0.7368 0.0
C691 C 0.60384 0.74226 0.75822 0.0
C692 C 0.58044 0.71657 0.74825 0.0
C693 C 0.56435 0.71767 0.71716 0.0
C694 C 0.62008 0.74231 0.79158 0.0
C695 C 0.5999 0.74569 0.82012 0.0
C696 C 0.65537 0.74401 0.79503 0.0
C697 C 0.67793 0.73894 0.76587 0.0
C698 C 0.67156 0.71205 0.74301 0.0
C699 C 0.69282 0.70739 0.71572 0.0
C700 C 0.72133 0.72858 0.71173 0.0
C701 C 0.72793 0.75533 0.73417 0.0
C702 C 0.70628 0.76071 0.761 0.0
C703 C 0.66639 0.77896 0.94634 0.0
C704 C 0.68274 0.81077 0.94363 0.0
C705 C 0.65802 0.75982 0.91746 0.0
C706 C 0.66555 0.77247 0.88558 0.0
C707 C 0.68509 0.80253 0.88319 0.0
C708 C 0.69361 0.8215 0.91195 0.0
C709 C 0.64941 0.75766 0.85478 0.0
C710 C 0.66951 0.75143 0.82673 0.0
C711 C 0.61409 0.75393 0.85157 0.0
C712 C 0.59132 0.76132 0.87979 0.0
C713 C 0.59076 0.79384 0.89371 0.0
C714 C 0.57017 0.80033 0.92121 0.0
C715 C 0.54981 0.77454 0.93473 0.0
C716 C 0.54971 0.74231 0.92056 0.0
C717 C 0.5703 0.73567 0.89311 0.0
H718 H 0.53412 0.77953 0.9562 0.0
H719 H 0.73884 0.72367 0.69188 0.0
H720 H 0.47938 0.2762 0.01976 0.0
H721 H 0.46553 0.30391 0.07309 0.0
H722 H 0.47479 0.3998 0.02599 0.0
H723 H 0.48828 0.37268 0.97287 0.0
H724 H 0.50935 0.39837 0.08783 0.0
H725 H 0.39953 0.36447 0.03962 0.0
H726 H 0.35705 0.32252 0.01774 0.0
H727 H 0.35929 0.27028 0.11052 0.0
H728 H 0.40163 0.31184 0.13286 0.0
H729 H 0.39203 0.5044 0.16738 0.0
H730 H 0.43327 0.47413 0.13551 0.0
H731 H 0.42732 0.39554 0.20759 0.0
H732 H 0.38639 0.42597 0.24007 0.0
H733 H 0.39758 0.38165 0.14051 0.0
H734 H 0.49917 0.41671 0.19351 0.0
H735 H 0.54397 0.45431 0.21793 0.0
H736 H 0.56093 0.49932 0.12227 0.0
H737 H 0.51588 0.46222 0.09728 0.0
C738 C 0.47802 0.30314 0.02064 0.0
C739 C 0.48495 0.32216 0.99195 0.0
C740 C 0.47036 0.31892 0.05118 0.0
C741 C 0.46954 0.35392 0.05348 0.0
C742 C 0.47577 0.37282 0.02482 0.0
C743 C 0.48322 0.35715 0.99437 0.0
C744 C 0.46135 0.3712 0.08541 0.0
C745 C 0.48494 0.3948 0.09951 0.0
C746 C 0.42999 0.36554 0.10119 0.0
C747 C 0.40405 0.34099 0.08774 0.0
C748 C 0.39103 0.34394 0.05526 0.0
C749 C 0.36685 0.32031 0.04282 0.0
C750 C 0.35538 0.29377 0.06271 0.0
C751 C 0.36797 0.29089 0.09513 0.0
C752 C 0.39204 0.31449 0.10772 0.0
C753 C 0.40088 0.48167 0.17759 0.0
C754 C 0.38535 0.46718 0.20582 0.0
C755 C 0.42447 0.4643 0.15923 0.0
C756 C 0.43278 0.43234 0.1689 0.0
C757 C 0.42097 0.42009 0.19963 0.0
C758 C 0.39757 0.43751 0.21812 0.0
C759 C 0.44548 0.40899 0.14323 0.0
C760 C 0.42247 0.38456 0.1298 0.0
C761 C 0.47752 0.41356 0.12857 0.0
C762 C 0.50377 0.43693 0.1436 0.0
C763 C 0.51206 0.43495 0.17775 0.0
C764 C 0.53762 0.45608 0.19167 0.0
C765 C 0.55517 0.47929 0.1717 0.0
C766 C 0.54724 0.48137 0.13772 0.0
C767 C 0.5217 0.46026 0.12366 0.0
H768 H 0.57494 0.49562 0.18254 0.0
H769 H 0.33675 0.27545 0.05299 0.0
H770 H 0.91576 0.26235 0.17085 0.0
H771 H 0.86808 0.27239 0.20776 0.0
H772 H 0.91677 0.22436 0.28831 0.0
H773 H 0.96399 0.21341 0.25175 0.0
H774 H 0.84786 0.20075 0.27172 0.0
H775 H 0.90397 0.32092 0.32415 0.0
H776 H 0.93374 0.37315 0.30606 0.0
H777 H 0.87595 0.36997 0.21523 0.0
H778 H 0.84456 0.31903 0.23381 0.0
H779 H 0.84855 0.24745 0.44326 0.0
H780 H 0.85831 0.2705 0.38766 0.0
H781 H 0.75945 0.23364 0.35689 0.0
H782 H 0.75051 0.20873 0.41207 0.0
H783 H 0.83333 0.30751 0.33418 0.0
H784 H 0.76477 0.18807 0.30763 0.0
H785 H 0.74975 0.1334 0.33286 0.0
H786 H 0.84683 0.13442 0.37915 0.0
H787 H 0.86266 0.18785 0.35296 0.0
C788 C 0.91645 0.25426 0.19655 0.0
C789 C 0.94373 0.23712 0.20841 0.0
C790 C 0.88923 0.26021 0.2176 0.0
C791 C 0.88913 0.24964 0.25083 0.0
C792 C 0.91651 0.23298 0.26275 0.0
C793 C 0.94343 0.22663 0.24178 0.0
C794 C 0.86015 0.25369 0.27342 0.0
C795 C 0.8432 0.22439 0.28424 0.0
C796 C 0.85494 0.28435 0.2904 0.0
C797 C 0.87247 0.31588 0.28 0.0
C798 C 0.89745 0.33163 0.30048 0.0
C799 C 0.91443 0.36113 0.29027 0.0
C800 C 0.90669 0.37496 0.25955 0.0
C801 C 0.88175 0.35947 0.23915 0.0
C802 C 0.86431 0.33033 0.24954 0.0
C803 C 0.82839 0.24559 0.42507 0.0
C804 C 0.79895 0.22617 0.4316 0.0
C805 C 0.83388 0.25892 0.39333 0.0
C806 C 0.80988 0.25313 0.36789 0.0
C807 C 0.77851 0.23787 0.37601 0.0
C808 C 0.77334 0.22377 0.4075 0.0
C809 C 0.82122 0.25443 0.33245 0.0
C810 C 0.83544 0.28441 0.31981 0.0
C811 C 0.82438 0.2243 0.31378 0.0
C812 C 0.8149 0.19158 0.32825 0.0
C813 C 0.78289 0.17625 0.32294 0.0
C814 C 0.77435 0.14536 0.33717 0.0
C815 C 0.79752 0.12997 0.35707 0.0
C816 C 0.82923 0.1455 0.3628 0.0
C817 C 0.83802 0.17605 0.34825 0.0
H818 H 0.79079 0.1062 0.3683 0.0
H819 H 0.92001 0.39766 0.25155 0.0
H820 H 0.97473 0.0337 0.25248 0.0
H821 H 0.92731 0.02976 0.2912 0.0
H822 H 0.99538 0.0421 0.37511 0.0
H823 H 0.04293 0.04468 0.3363 0.0
H824 H 0.94646 0.00293 0.39342 0.0
H825 H 0.95306 0.10961 0.34639 0.0
H826 H 0.95587 0.15525 0.30596 0.0
H827 H 0.86346 0.11732 0.2615 0.0
H828 H 0.85969 0.07153 0.30208 0.0
H829 H 0.86878 0.12013 0.49677 0.0
H830 H 0.89761 0.07654 0.46653 0.0
H831 H 0.80962 0.0546 0.40576 0.0
H832 H 0.78112 0.09898 0.43542 0.0
H833 H 0.85803 0.08103 0.37082 0.0
H834 H 0.85077 0.99048 0.44412 0.0
H835 H 0.85304 0.95913 0.49651 0.0
H836 H 0.95813 0.9857 0.50577 0.0
H837 H 0.95649 0.0178 0.45387 0.0
C838 C 0.97948 0.03547 0.27921 0.0
C839 C 0.01233 0.0402 0.29146 0.0
C840 C 0.95243 0.03312 0.30133 0.0
C841 C 0.95766 0.03631 0.33612 0.0
C842 C 0.99064 0.03953 0.34841 0.0
C843 C 0.01779 0.04122 0.32625 0.0
C844 C 0.92881 0.03907 0.35939 0.0
C845 C 0.9274 0.02056 0.38895 0.0
C846 C 0.90336 0.06125 0.35312 0.0
C847 C 0.90646 0.0868 0.32681 0.0
C848 C 0.93357 0.11068 0.32766 0.0
C849 C 0.93518 0.13673 0.30495 0.0
C850 C 0.90984 0.13918 0.28129 0.0
C851 C 0.8829 0.11545 0.28005 0.0
C852 C 0.88101 0.08943 0.30289 0.0
C853 C 0.85505 0.10487 0.47809 0.0
C854 C 0.823 0.11324 0.46795 0.0
C855 C 0.87148 0.07968 0.46091 0.0
C856 C 0.85595 0.06235 0.43357 0.0
C857 C 0.82217 0.06762 0.4267 0.0
C858 C 0.80594 0.09311 0.44351 0.0
C859 C 0.87726 0.04794 0.4069 0.0
C860 C 0.87697 0.06359 0.37582 0.0
C861 C 0.90244 0.02538 0.41333 0.0
C862 C 0.9034 0.00681 0.4451 0.0
C863 C 0.87429 0.99003 0.45751 0.0
C864 C 0.87549 0.97205 0.48708 0.0
C865 C 0.90567 0.97059 0.50442 0.0
C866 C 0.93477 0.98699 0.49229 0.0
C867 C 0.93371 0.00504 0.46277 0.0
H868 H 0.90655 0.95672 0.5272 0.0
H869 H 0.91119 0.15952 0.26399 0.0
H870 H 0.2798 0.84519 0.63769 0.0
H871 H 0.27124 0.79468 0.67083 0.0
H872 H 0.16837 0.78405 0.63823 0.0
H873 H 0.17676 0.83437 0.6048 0.0
H874 H 0.22269 0.78059 0.72337 0.0
H875 H 0.15322 0.69578 0.62644 0.0
H876 H 0.14515 0.69014 0.56522 0.0
H877 H 0.24269 0.73745 0.54912 0.0
H878 H 0.25168 0.74255 0.61025 0.0
H879 H 0.1375 0.61873 0.76436 0.0
H880 H 0.15521 0.67688 0.75272 0.0
H881 H 0.24924 0.64453 0.71436 0.0
H882 H 0.23207 0.58664 0.72682 0.0
H883 H 0.19923 0.67051 0.66684 0.0
H884 H 0.25741 0.69463 0.77032 0.0
H885 H 0.26582 0.7021 0.83121 0.0
H886 H 0.1939 0.77788 0.83442 0.0
H887 H 0.18403 0.76998 0.77368 0.0
C888 C 0.25531 0.8322 0.63777 0.0
C889 C 0.22893 0.84372 0.61879 0.0
C890 C 0.25043 0.80353 0.65684 0.0
C891 C 0.2192 0.78581 0.65699 0.0
C892 C 0.1927 0.79737 0.63826 0.0
C893 C 0.19753 0.8261 0.61929 0.0
C894 C 0.21476 0.75468 0.67605 0.0
C895 C 0.21793 0.75648 0.71109 0.0
C896 C 0.20762 0.72337 0.65987 0.0
C897 C 0.20294 0.71989 0.62298 0.0
C898 C 0.17302 0.7048 0.60985 0.0
C899 C 0.16829 0.70168 0.57515 0.0
C900 C 0.19334 0.71356 0.5533 0.0
C901 C 0.22326 0.72837 0.56609 0.0
C902 C 0.22818 0.73137 0.60077 0.0
C903 C 0.16273 0.62436 0.75537 0.0
C904 C 0.18347 0.59835 0.74644 0.0
C905 C 0.17278 0.65753 0.74866 0.0
C906 C 0.20337 0.6648 0.73244 0.0
C907 C 0.22558 0.6393 0.727 0.0
C908 C 0.21584 0.60628 0.73432 0.0
C909 C 0.20854 0.69633 0.71422 0.0
C910 C 0.20467 0.69461 0.67921 0.0
C911 C 0.21497 0.72768 0.73053 0.0
C912 C 0.21954 0.73123 0.76741 0.0
C913 C 0.24281 0.71236 0.78406 0.0
C914 C 0.24797 0.71681 0.81857 0.0
C915 C 0.23038 0.74041 0.8367 0.0
C916 C 0.20742 0.7595 0.82038 0.0
C917 C 0.20195 0.75496 0.78591 0.0
H918 H 0.23463 0.74398 0.86337 0.0
H919 H 0.1896 0.71122 0.52645 0.0
H920 H 0.52994 0.01076 0.81129 0.0
H921 H 0.56989 0.01262 0.85732 0.0
H922 H 0.51103 0.08311 0.91151 0.0
H923 H 0.47022 0.08075 0.86574 0.0
H924 H 0.61012 0.0569 0.89492 0.0
H925 H 0.50796 0.05976 0.9897 0.0
H926 H 0.44608 0.0549 0.99262 0.0
H927 H 0.44377 0.97975 0.91396 0.0
H928 H 0.50554 0.98391 0.91097 0.0
H929 H 0.68769 0.95311 0.01527 0.0
H930 H 0.6594 0.00468 0.00285 0.0
H931 H 0.58074 0.94529 0.95195 0.0
H932 H 0.60829 0.89459 0.96456 0.0
H933 H 0.55561 0.99628 0.98924 0.0
H934 H 0.65466 0.98063 0.90855 0.0
H935 H 0.71607 0.98265 0.9006 0.0
H936 H 0.72452 0.07973 0.9488 0.0
H937 H 0.66319 0.07819 0.95693 0.0
C938 C 0.52559 0.02697 0.83279 0.0
C939 C 0.49637 0.04479 0.83528 0.0
C940 C 0.54874 0.02839 0.85892 0.0
C941 C 0.54325 0.04775 0.88798 0.0
C942 C 0.51551 0.06772 0.88945 0.0
C943 C 0.49208 0.06605 0.86341 0.0
C944 C 0.56321 0.04171 0.91825 0.0
C945 C 0.59828 0.04451 0.91612 0.0
C946 C 0.54792 0.02665 0.94658 0.0
C947 C 0.51112 0.02238 0.94992 0.0
C948 C 0.49417 0.04202 0.97329 0.0
C949 C 0.45917 0.03944 0.97489 0.0
C950 C 0.44103 0.01725 0.95326 0.0
C951 C 0.45784 0.99704 0.93055 0.0
C952 C 0.4928 0.99942 0.92896 0.0
C953 C 0.66408 0.95134 0.00187 0.0
C954 C 0.65033 0.9201 0.9903 0.0
C955 C 0.64801 0.98066 0.99487 0.0
C956 C 0.61796 0.97879 0.97655 0.0
C957 C 0.60373 0.94738 0.9664 0.0
C958 C 0.61969 0.91841 0.9732 0.0
C959 C 0.60223 0.00868 0.96408 0.0
C960 C 0.56773 0.01083 0.96958 0.0
C961 C 0.61802 0.0282 0.93892 0.0
C962 C 0.65461 0.02914 0.93362 0.0
C963 C 0.66972 0.00233 0.91746 0.0
C964 C 0.70446 0.0034 0.91295 0.0
C965 C 0.72421 0.03121 0.92439 0.0
C966 C 0.70923 0.05811 0.94018 0.0
C967 C 0.67451 0.05719 0.94467 0.0
H968 H 0.75108 0.03202 0.92084 0.0
H969 H 0.41395 0.01576 0.95396 0.0
H970 H 0.20475 0.17467 0.08366 0.0
H971 H 0.19558 0.22677 0.11423 0.0
H972 H 0.301 0.255 0.10699 0.0
H973 H 0.31035 0.20295 0.07672 0.0
H974 H 0.286 0.26748 0.16489 0.0
H975 H 0.2332 0.28971 0.06056 0.0
H976 H 0.1936 0.28154 0.01335 0.0
H977 H 0.11086 0.28865 0.08141 0.0
H978 H 0.14984 0.29606 0.12903 0.0
H979 H 0.26264 0.45005 0.15754 0.0
H980 H 0.24209 0.39512 0.13636 0.0
H981 H 0.24423 0.35714 0.23672 0.0
H982 H 0.26709 0.41178 0.25751 0.0
H983 H 0.19751 0.34552 0.14055 0.0
H984 H 0.27773 0.30102 0.24236 0.0
H985 H 0.32847 0.31635 0.27558 0.0
H986 H 0.37254 0.36596 0.19087 0.0
H987 H 0.32201 0.35098 0.15719 0.0
C988 C 0.22599 0.19199 0.08875 0.0
C989 C 0.25834 0.18456 0.07822 0.0
C990 C 0.22072 0.22188 0.10624 0.0
C991 C 0.24773 0.24479 0.11362 0.0
C992 C 0.27988 0.23752 0.10233 0.0
C993 C 0.28518 0.20774 0.08492 0.0
C994 C 0.24328 0.276 0.13374 0.0
C995 C 0.26643 0.2843 0.15946 0.0
C996 C 0.21794 0.29833 0.12695 0.0
C997 C 0.19442 0.2929 0.09842 0.0
C998 C 0.20652 0.28903 0.06549 0.0
C999 C 0.18417 0.28457 0.03863 0.0
C1000 C 0.14967 0.2844 0.04435 0.0
C1001 C 0.1375 0.28861 0.07695 0.0
C1002 C 0.15971 0.29287 0.10391 0.0
C1003 C 0.25722 0.43035 0.17526 0.0
C1004 C 0.26641 0.43489 0.20905 0.0
C1005 C 0.24565 0.39888 0.16314 0.0
C1006 C 0.2428 0.3717 0.18479 0.0
C1007 C 0.24739 0.37751 0.21941 0.0
C1008 C 0.25982 0.40881 0.23141 0.0
C1009 C 0.24095 0.33719 0.17035 0.0
C1010 C 0.21652 0.32813 0.1461 0.0
C1011 C 0.26636 0.31498 0.17681 0.0
C1012 C 0.29608 0.32501 0.19745 0.0
C1013 C 0.29824 0.31516 0.23088 0.0
C1014 C 0.32694 0.32388 0.24978 0.0
C1015 C 0.35372 0.34226 0.23535 0.0
C1016 C 0.35178 0.35196 0.20203 0.0
C1017 C 0.32308 0.34345 0.18307 0.0
H1018 H 0.37599 0.34893 0.24996 0.0
H1019 H 0.13241 0.28117 0.0235 0.0
H1020 H 0.06544 0.03317 0.14683 0.0
H1021 H 0.01549 0.02496 0.11106 0.0
H1022 H 0.97204 0.95457 0.18114 0.0
H1023 H 0.02223 0.96167 0.2163 0.0
H1024 H 0.97869 0.94307 0.09659 0.0
H1025 H 0.89335 0.00478 0.18689 0.0
H1026 H 0.89713 0.04674 0.23319 0.0
H1027 H 0.97439 0.10274 0.18048 0.0
H1028 H 0.96998 0.06197 0.13319 0.0
H1029 H 0.79329 0.9224 0.12491 0.0
H1030 H 0.84247 0.95964 0.13366 0.0
H1031 H 0.87408 0.94002 0.03176 0.0
H1032 H 0.82587 0.89986 0.02427 0.0
H1033 H 0.87874 0.00798 0.11994 0.0
H1034 H 0.95778 0.93088 0.0286 0.0
H1035 H 0.9558 0.87616 0.9987 0.0
H1036 H 0.89003 0.83467 0.07414 0.0
H1037 H 0.89206 0.88899 0.1047 0.0
C1038 C 0.04532 0.01572 0.15436 0.0
C1039 C 0.04769 0.99786 0.18415 0.0
C1040 C 0.01688 0.01119 0.13404 0.0
C1041 C 0.9901 0.98956 0.14385 0.0
C1042 C 0.99251 0.97153 0.17339 0.0
C1043 C 0.0212 0.97545 0.19329 0.0
C1044 C 0.95948 0.98502 0.12331 0.0
C1045 C 0.95697 0.95775 0.1008 0.0
C1046 C 0.93107 0.0035 0.13013 0.0
C1047 C 0.93173 0.03001 0.15675 0.0
C1048 C 0.91081 0.02631 0.18496 0.0
C1049 C 0.91301 0.04991 0.21135 0.0
C1050 C 0.93615 0.07723 0.20985 0.0
C1051 C 0.9566 0.08145 0.18165 0.0
C1052 C 0.95418 0.05816 0.15499 0.0
C1053 C 0.80999 0.92719 0.10391 0.0
C1054 C 0.80616 0.90812 0.0741 0.0
C1055 C 0.83831 0.9485 0.10891 0.0
C1056 C 0.86296 0.95169 0.08384 0.0
C1057 C 0.85614 0.93695 0.05198 0.0
C1058 C 0.82829 0.9145 0.0474 0.0
C1059 C 0.89726 0.96512 0.09345 0.0
C1060 C 0.90059 0.99397 0.11428 0.0
C1061 C 0.92609 0.94679 0.08675 0.0
C1062 C 0.92455 0.91411 0.06851 0.0
C1063 C 0.94285 0.91007 0.03872 0.0
C1064 C 0.94179 0.87912 0.02172 0.0
C1065 C 0.92265 0.85201 0.03441 0.0
C1066 C 0.90472 0.85572 0.06426 0.0
C1067 C 0.90584 0.88656 0.08144 0.0
H1068 H 0.92182 0.82809 0.02117 0.0
H1069 H 0.93835 0.09505 0.2306 0.0
H1070 H 0.28242 0.78696 0.49541 0.0
H1071 H 0.26695 0.75542 0.44415 0.0
H1072 H 0.18319 0.81694 0.43012 0.0
H1073 H 0.19878 0.84932 0.48113 0.0
H1074 H 0.17708 0.73748 0.41682 0.0
H1075 H 0.24822 0.84091 0.39938 0.0
H1076 H 0.30097 0.87289 0.41232 0.0
H1077 H 0.35684 0.79325 0.37098 0.0
H1078 H 0.30452 0.76025 0.35861 0.0
H1079 H 0.1892 0.63029 0.27987 0.0
H1080 H 0.17197 0.68415 0.30297 0.0
H1081 H 0.27662 0.71597 0.31539 0.0
H1082 H 0.29266 0.66563 0.28791 0.0
H1083 H 0.25275 0.76517 0.3218 0.0
H1084 H 0.21115 0.65844 0.37515 0.0
H1085 H 0.1739 0.60727 0.37754 0.0
H1086 H 0.08788 0.66591 0.3672 0.0
H1087 H 0.12467 0.71727 0.3646 0.0
C1088 C 0.26039 0.79353 0.48179 0.0
C1089 C 0.2422 0.82106 0.49201 0.0
C1090 C 0.25154 0.77537 0.45261 0.0
C1091 C 0.2242 0.78421 0.43339 0.0
C1092 C 0.20446 0.81 0.4447 0.0
C1093 C 0.21358 0.82854 0.47367 0.0
C1094 C 0.21867 0.76883 0.39982 0.0
C1095 C 0.19357 0.74336 0.39585 0.0
C1096 C 0.24083 0.77625 0.37305 0.0
C1097 C 0.27206 0.79793 0.37798 0.0
C1098 C 0.2716 0.83006 0.39299 0.0
C1099 C 0.30155 0.84837 0.40043 0.0
C1100 C 0.33222 0.83494 0.39276 0.0
C1101 C 0.33304 0.80354 0.37703 0.0
C1102 C 0.3032 0.78507 0.36974 0.0
C1103 C 0.20812 0.64993 0.28581 0.0
C1104 C 0.24225 0.64396 0.28266 0.0
C1105 C 0.19841 0.68039 0.29993 0.0
C1106 C 0.22278 0.70367 0.31359 0.0
C1107 C 0.25669 0.69894 0.30604 0.0
C1108 C 0.26616 0.66978 0.29018 0.0
C1109 C 0.21496 0.72937 0.34007 0.0
C1110 C 0.23632 0.75851 0.34254 0.0
C1111 C 0.19257 0.72235 0.36719 0.0
C1112 C 0.1706 0.69152 0.36883 0.0
C1113 C 0.1843 0.66034 0.37327 0.0
C1114 C 0.16329 0.63133 0.37467 0.0
C1115 C 0.12859 0.63337 0.37224 0.0
C1116 C 0.11478 0.66438 0.3688 0.0
C1117 C 0.13568 0.69342 0.36726 0.0
H1118 H 0.11239 0.61092 0.37292 0.0
H1119 H 0.35539 0.84873 0.3991 0.0
H1120 H 0.49534 0.09279 0.77342 0.0
H1121 H 0.54507 0.08738 0.73933 0.0
H1122 H 0.48818 0.10823 0.65076 0.0
H1123 H 0.43689 0.1062 0.6846 0.0
H1124 H 0.52652 0.06533 0.63333 0.0
H1125 H 0.54889 0.1663 0.70207 0.0
H1126 H 0.55172 0.19452 0.75766 0.0
H1127 H 0.62945 0.13159 0.78734 0.0
H1128 H 0.62662 0.10248 0.73221 0.0
H1129 H 0.64345 0.15873 0.54073 0.0
H1130 H 0.60068 0.12336 0.5681 0.0
H1131 H 0.67557 0.0873 0.634 0.0
H1132 H 0.71843 0.12279 0.60648 0.0
H1133 H 0.63436 0.12249 0.66786 0.0
H1134 H 0.61994 0.032 0.5934 0.0
H1135 H 0.61455 -0.00014 0.54013 0.0
H1136 H 0.52255 0.04553 0.51899 0.0
H1137 H 0.52764 0.07866 0.57182 0.0
C1138 C 0.49352 0.09613 0.74669 0.0
C1139 C 0.46245 0.09982 0.73154 0.0
C1140 C 0.52217 0.09362 0.72711 0.0
C1141 C 0.52102 0.09835 0.69229 0.0
C1142 C 0.49002 0.10437 0.67748 0.0
C1143 C 0.46082 0.10412 0.69684 0.0
C1144 C 0.55181 0.09661 0.67126 0.0
C1145 C 0.54985 0.07865 0.64047 0.0
C1146 C 0.58308 0.11201 0.68141 0.0
C1147 C 0.58735 0.13203 0.71307 0.0
C1148 C 0.56684 0.15872 0.72032 0.0
C1149 C 0.56832 0.17473 0.75183 0.0
C1150 C 0.59087 0.16494 0.77596 0.0
C1151 C 0.61221 0.13932 0.76854 0.0
C1152 C 0.61061 0.12298 0.73719 0.0
C1153 C 0.65105 0.14173 0.55968 0.0
C1154 C 0.68403 0.1438 0.57187 0.0
C1155 C 0.62657 0.12138 0.57538 0.0
C1156 C 0.63478 0.10312 0.60363 0.0
C1157 C 0.66863 0.10137 0.61244 0.0
C1158 C 0.69318 0.12153 0.59654 0.0
C1159 C 0.60808 0.09437 0.62834 0.0
C1160 C 0.61091 0.10961 0.66035 0.0
C1161 C 0.57754 0.07745 0.61879 0.0
C1162 C 0.5743 0.05799 0.58665 0.0
C1163 C 0.5987 0.03551 0.57728 0.0
C1164 C 0.59567 0.01709 0.54715 0.0
C1165 C 0.56825 0.02075 0.52617 0.0
C1166 C 0.54378 0.04284 0.53528 0.0
C1167 C 0.54671 0.06142 0.56536 0.0
H1168 H 0.56591 0.00642 0.50287 0.0
H1169 H 0.59165 0.17701 0.80051 0.0
H1170 H 0.21072 0.20933 0.94163 0.0
H1171 H 0.22989 0.25773 0.90919 0.0
H1172 H 0.33195 0.24096 0.93621 0.0
H1173 H 0.31287 0.1913 0.9668 0.0
H1174 H 0.3213 0.30272 0.94644 0.0
H1175 H 0.29734 0.22554 0.86003 0.0
H1176 H 0.27269 0.18591 0.8186 0.0
H1177 H 0.21017 0.26061 0.78208 0.0
H1178 H 0.2318 0.30015 0.82564 0.0
H1179 H 0.28807 0.43783 0.80878 0.0
H1180 H 0.31933 0.39038 0.82588 0.0
H1181 H 0.26279 0.38504 0.91773 0.0
H1182 H 0.22921 0.42859 0.9001 0.0
H1183 H 0.28067 0.33115 0.83393 0.0
H1184 H 0.31218 0.35425 0.97823 0.0
H1185 H 0.34535 0.39613 0.01218 0.0
H1186 H 0.39845 0.42898 0.92416 0.0
H1187 H 0.36612 0.38688 0.88972 0.0
C1188 C 0.2373 0.21527 0.93947 0.0
C1189 C 0.26027 0.19612 0.95607 0.0
C1190 C 0.24829 0.24301 0.92104 0.0
C1191 C 0.28254 0.25267 0.91945 0.0
C1192 C 0.30557 0.2335 0.93604 0.0
C1193 C 0.29462 0.20509 0.95359 0.0
C1194 C 0.29369 0.28423 0.90279 0.0
C1195 C 0.3122 0.30881 0.92184 0.0
C1196 C 0.28355 0.2917 0.86975 0.0
C1197 C 0.26685 0.26633 0.84636 0.0
C1198 C 0.27762 0.23351 0.8441 0.0
C1199 C 0.26378 0.21078 0.82028 0.0
C1200 C 0.24 0.22069 0.79752 0.0
C1201 C 0.22886 0.25301 0.79953 0.0
C1202 C 0.24155 0.27548 0.82423 0.0
C1203 C 0.28207 0.4268 0.83269 0.0
C1204 C 0.25473 0.43716 0.85214 0.0
C1205 C 0.30069 0.40004 0.84271 0.0
C1206 C 0.29343 0.38425 0.87311 0.0
C1207 C 0.26926 0.39717 0.89438 0.0
C1208 C 0.24984 0.42273 0.88393 0.0
C1209 C 0.30352 0.34994 0.87944 0.0
C1210 C 0.28942 0.32451 0.85847 0.0
C1211 C 0.31736 0.34166 0.91047 0.0
C1212 C 0.33658 0.3673 0.9313 0.0
C1213 C 0.33106 0.3702 0.96608 0.0
C1214 C 0.34972 0.39404 0.98544 0.0
C1215 C 0.374 0.41519 0.97036 0.0
C1216 C 0.37962 0.41261 0.93584 0.0
C1217 C 0.36107 0.38879 0.91637 0.0
H1218 H 0.38844 0.43358 0.98542 0.0
H1219 H 0.23037 0.20348 0.77815 0.0
H1220 H 0.31031 0.03824 0.09168 0.0
H1221 H 0.34896 0.99592 0.10617 0.0
H1222 H 0.39379 0.00229 0.00813 0.0
H1223 H 0.35503 0.04527 0.99316 0.0
H1224 H 0.3828 0.93754 0.02634 0.0
H1225 H 0.44327 0.03273 0.07203 0.0
H1226 H 0.45416 0.08634 0.10283 0.0
H1227 H 0.41453 0.04248 0.19286 0.0
H1228 H 0.40303 0.98879 0.16234 0.0
H1229 H 0.50191 0.86761 0.16732 0.0
H1230 H 0.49018 0.90935 0.12548 0.0
H1231 H 0.39626 0.85539 0.10219 0.0
H1232 H 0.40917 0.813 0.14231 0.0
H1233 H 0.44626 0.94903 0.13304 0.0
H1234 H 0.35914 0.87855 0.03291 0.0
H1235 H 0.35828 0.82715 0.99771 0.0
H1236 H 0.46502 0.82417 0.007 0.0
H1237 H 0.46666 0.87588 0.04188 0.0
C1238 C 0.32841 0.03081 0.0731 0.0
C1239 C 0.32962 0.04519 0.04127 0.0
C1240 C 0.35066 0.00672 0.08152 0.0
C1241 C 0.37462 0.99636 0.05832 0.0
C1242 C 0.37567 0.01026 0.02634 0.0
C1243 C 0.35354 0.03473 0.01792 0.0
C1244 C 0.39769 0.97032 0.06776 0.0
C1245 C 0.39711 0.93997 0.04943 0.0
C1246 C 0.41743 0.97407 0.09704 0.0
C1247 C 0.42245 0.00675 0.11503 0.0
C1248 C 0.43657 0.03466 0.09831 0.0
C1249 C 0.44291 0.06503 0.11571 0.0
C1250 C 0.43506 0.06782 0.14979 0.0
C1251 C 0.42069 0.04028 0.16649 0.0
C1252 C 0.41437 0.00985 0.1492 0.0
C1253 C 0.47973 0.8639 0.15182 0.0
C1254 C 0.45673 0.83692 0.15737 0.0
C1255 C 0.47278 0.88788 0.12819 0.0
C1256 C 0.44229 0.8857 0.11039 0.0
C1257 C 0.42035 0.85745 0.11463 0.0
C1258 C 0.42768 0.83315 0.13768 0.0
C1259 C 0.43069 0.9152 0.09241 0.0
C1260 C 0.43305 0.94641 0.10934 0.0
C1261 C 0.41376 0.91238 0.06111 0.0
C1262 C 0.41299 0.8811 0.04023 0.0
C1263 C 0.38248 0.86708 0.02733 0.0
C1264 C 0.38185 0.83783 0.00745 0.0
C1265 C 0.41156 0.82236 0.00019 0.0
C1266 C 0.442 0.83613 0.01276 0.0
C1267 C 0.44279 0.86538 0.03265 0.0
H1268 H 0.41098 0.79972 0.98482 0.0
H1269 H 0.44011 0.09132 0.16325 0.0
H1270 H 0.89988 0.4237 0.00949 0.0
H1271 H 0.93235 0.46904 0.98282 0.0
H1272 H 0.84349 0.52489 0.97567 0.0
H1273 H 0.81053 0.47935 0.0019 0.0
H1274 H 0.876 0.52486 0.91837 0.0
H1275 H 0.90566 0.54773 0.0332 0.0
H1276 H 0.92658 0.53684 0.08986 0.0
H1277 H 0.02173 0.51272 0.04853 0.0
H1278 H 0.00133 0.52333 0.99169 0.0
H1279 H 0.98044 0.68409 0.89904 0.0
H1280 H 0.96126 0.64094 0.93839 0.0
H1281 H 0.97811 0.56471 0.86303 0.0
H1282 H 0.99778 0.60781 0.82395 0.0
H1283 H 0.981 0.57897 0.96513 0.0
H1284 H 0.90049 0.51915 0.85703 0.0
H1285 H 0.87922 0.53435 0.80165 0.0
H1286 H 0.88084 0.63756 0.83347 0.0
H1287 H 0.9019 0.62286 0.88901 0.0
C1288 C 0.88714 0.44563 0.00236 0.0
C1289 C 0.85248 0.4478 0.0078 0.0
C1290 C 0.90588 0.47166 0.98735 0.0
C1291 C 0.89046 0.50055 0.97775 0.0
C1292 C 0.8559 0.50283 0.98304 0.0
C1293 C 0.83708 0.47673 0.99795 0.0
C1294 C 0.90997 0.52751 0.96036 0.0
C1295 C 0.89891 0.53669 0.92869 0.0
C1296 C 0.93976 0.54316 0.97395 0.0
C1297 C 0.95182 0.53596 0.00808 0.0
C1298 C 0.93093 0.53976 0.03615 0.0
C1299 C 0.94274 0.53377 0.06834 0.0
C1300 C 0.97544 0.52403 0.07279 0.0
C1301 C 0.99638 0.52018 0.04506 0.0
C1302 C 0.98471 0.52622 0.01285 0.0
C1303 C 0.98164 0.65799 0.89164 0.0
C1304 C 0.99071 0.64901 0.85878 0.0
C1305 C 0.9706 0.63343 0.914 0.0
C1306 C 0.96785 0.59979 0.90337 0.0
C1307 C 0.98001 0.5906 0.8716 0.0
C1308 C 0.99145 0.61513 0.8494 0.0
C1309 C 0.94737 0.57541 0.92299 0.0
C1310 C 0.9581 0.56698 0.95499 0.0
C1311 C 0.91698 0.56069 0.90997 0.0
C1312 C 0.90347 0.5699 0.87692 0.0
C1313 C 0.89639 0.54506 0.85212 0.0
C1314 C 0.88433 0.5536 0.82073 0.0
C1315 C 0.87892 0.58695 0.81397 0.0
C1316 C 0.88533 0.61178 0.83865 0.0
C1317 C 0.89741 0.60334 0.87007 0.0
H1318 H 0.86959 0.59354 0.78966 0.0
H1319 H 0.98459 0.51955 0.09774 0.0
H1320 H 0.79653 0.56931 0.25161 0.0
H1321 H 0.74579 0.60006 0.25831 0.0
H1322 H 0.77666 0.63159 0.35827 0.0
H1323 H 0.82694 0.59931 0.35221 0.0
H1324 H 0.70856 0.62041 0.35474 0.0
H1325 H 0.79317 0.68261 0.29692 0.0
H1326 H 0.83856 0.68679 0.2553 0.0
H1327 H 0.76722 0.66899 0.17564 0.0
H1328 H 0.72134 0.6636 0.21695 0.0
H1329 H 0.61137 0.76158 0.26194 0.0
H1330 H 0.6605 0.74345 0.29177 0.0
H1331 H 0.60981 0.64686 0.30609 0.0
H1332 H 0.56036 0.6658 0.2783 0.0
H1333 H 0.69482 0.70085 0.26361 0.0
H1334 H 0.64817 0.59864 0.35921 0.0
H1335 H 0.60762 0.59269 0.4056 0.0
H1336 H 0.60872 0.69945 0.41845 0.0
H1337 H 0.64955 0.70611 0.3724 0.0
C1338 C 0.79244 0.58266 0.27506 0.0
C1339 C 0.81592 0.58256 0.30114 0.0
C1340 C 0.76337 0.60005 0.27896 0.0
C1341 C 0.75777 0.61861 0.30858 0.0
C1342 C 0.78052 0.61746 0.33523 0.0
C1343 C 0.80933 0.59932 0.33161 0.0
C1344 C 0.72992 0.64161 0.30996 0.0
C1345 C 0.70539 0.63815 0.335 0.0
C1346 C 0.7269 0.66598 0.28522 0.0
C1347 C 0.75379 0.67247 0.26008 0.0
C1348 C 0.78709 0.67961 0.27054 0.0
C1349 C 0.81295 0.68199 0.24702 0.0
C1350 C 0.80581 0.67788 0.21287 0.0
C1351 C 0.7727 0.67195 0.20214 0.0
C1352 C 0.74673 0.66924 0.22561 0.0
C1353 C 0.61011 0.7373 0.27345 0.0
C1354 C 0.5821 0.71515 0.26823 0.0
C1355 C 0.63835 0.7267 0.29001 0.0
C1356 C 0.63926 0.69354 0.30078 0.0
C1357 C 0.60986 0.67268 0.29861 0.0
C1358 C 0.58141 0.68355 0.28276 0.0
C1359 C 0.67191 0.67874 0.3076 0.0
C1360 C 0.69776 0.68374 0.28394 0.0
C1361 C 0.67649 0.65671 0.33438 0.0
C1362 C 0.65178 0.65288 0.36208 0.0
C1363 C 0.63987 0.62088 0.37197 0.0
C1364 C 0.61678 0.61737 0.3982 0.0
C1365 C 0.60555 0.64567 0.4149 0.0
C1366 C 0.61736 0.67755 0.40541 0.0
C1367 C 0.6404 0.68121 0.37916 0.0
H1368 H 0.58773 0.64289 0.43524 0.0
H1369 H 0.82594 0.67944 0.19471 0.0
H1370 H 0.66677 0.58655 0.44323 0.0
H1371 H 0.63634 0.53593 0.42179 0.0
H1372 H 0.7135 0.47591 0.46018 0.0
H1373 H 0.74492 0.52668 0.47994 0.0
H1374 H 0.69144 0.44938 0.40441 0.0
H1375 H 0.63804 0.48664 0.50475 0.0
H1376 H 0.61506 0.53099 0.54044 0.0
H1377 H 0.53981 0.54589 0.46631 0.0
H1378 H 0.56237 0.50171 0.43026 0.0
H1379 H 0.59323 0.30432 0.37352 0.0
H1380 H 0.61865 0.34648 0.41237 0.0
H1381 H 0.55507 0.42005 0.37332 0.0
H1382 H 0.52876 0.37773 0.33548 0.0
H1383 H 0.5719 0.43538 0.43752 0.0
H1384 H 0.62835 0.39978 0.33538 0.0
H1385 H 0.65412 0.35763 0.29904 0.0
H1386 H 0.72714 0.34211 0.37507 0.0
H1387 H 0.70085 0.38294 0.41255 0.0
C1388 C 0.67743 0.56257 0.44659 0.0
C1389 C 0.708 0.56048 0.46349 0.0
C1390 C 0.65992 0.53363 0.43462 0.0
C1391 C 0.67202 0.50197 0.44045 0.0
C1392 C 0.70346 0.49998 0.45571 0.0
C1393 C 0.72142 0.52902 0.46694 0.0
C1394 C 0.65131 0.47102 0.4317 0.0
C1395 C 0.66544 0.44614 0.41187 0.0
C1396 C 0.61743 0.46657 0.44188 0.0
C1397 C 0.60194 0.49098 0.46479 0.0
C1398 C 0.61645 0.49927 0.4962 0.0
C1399 C 0.60359 0.52446 0.51644 0.0
C1400 C 0.57607 0.54136 0.50563 0.0
C1401 C 0.56108 0.53278 0.47474 0.0
C1402 C 0.5738 0.50756 0.45444 0.0
C1403 C 0.58344 0.329 0.3745 0.0
C1404 C 0.55949 0.33799 0.35107 0.0
C1405 C 0.59825 0.3532 0.39646 0.0
C1406 C 0.58958 0.38666 0.39483 0.0
C1407 C 0.56249 0.39451 0.37471 0.0
C1408 C 0.54747 0.37031 0.35305 0.0
C1409 C 0.61183 0.41423 0.40916 0.0
C1410 C 0.59801 0.43845 0.43018 0.0
C1411 C 0.64612 0.41808 0.39999 0.0
C1412 C 0.66227 0.39404 0.37703 0.0
C1413 C 0.64967 0.38713 0.34451 0.0
C1414 C 0.66436 0.36347 0.3237 0.0
C1415 C 0.69225 0.34728 0.33473 0.0
C1416 C 0.70544 0.35458 0.36663 0.0
C1417 C 0.69055 0.37784 0.38774 0.0
H1418 H 0.70374 0.32913 0.31855 0.0
H1419 H 0.56632 0.56098 0.52128 0.0
H1420 H 0.16735 0.92788 0.25134 0.0
H1421 H 0.21818 0.89967 0.26548 0.0
H1422 H 0.26232 0.99224 0.30701 0.0
H1423 H 0.21088 0.02032 0.29356 0.0
H1424 H 0.30491 0.95994 0.26307 0.0
H1425 H 0.24222 0.93291 0.36151 0.0
H1426 H 0.19155 0.9146 0.39297 0.0
H1427 H 0.19001 0.81918 0.34207 0.0
H1428 H 0.23984 0.83716 0.30929 0.0
H1429 H 0.44509 0.86981 0.2856 0.0
H1430 H 0.39981 0.90242 0.30817 0.0
H1431 H 0.32799 0.82248 0.27957 0.0
H1432 H 0.37334 0.7894 0.25869 0.0
H1433 H 0.30257 0.85571 0.32811 0.0
H1434 H 0.3562 0.88677 0.22253 0.0
H1435 H 0.40493 0.90415 0.18774 0.0
H1436 H 0.42322 0.99151 0.25082 0.0
H1437 H 0.37437 0.97475 0.28584 0.0
C1438 C 0.18787 0.94201 0.26371 0.0
C1439 C 0.1855 0.97603 0.27158 0.0
C1440 C 0.21683 0.92597 0.27179 0.0
C1441 C 0.24399 0.94384 0.28742 0.0
C1442 C 0.24162 0.97801 0.29507 0.0
C1443 C 0.21237 0.99395 0.28747 0.0
C1444 C 0.27518 0.92684 0.29442 0.0
C1445 C 0.30478 0.93778 0.27823 0.0
C1446 C 0.27477 0.8976 0.31359 0.0
C1447 C 0.24467 0.88645 0.33291 0.0
C1448 C 0.23079 0.90812 0.35674 0.0
C1449 C 0.20212 0.89783 0.37466 0.0
C1450 C 0.18721 0.86585 0.36908 0.0
C1451 C 0.20102 0.84413 0.34564 0.0
C1452 C 0.22955 0.85432 0.32746 0.0
C1453 C 0.41979 0.85865 0.2858 0.0
C1454 C 0.41255 0.82729 0.27026 0.0
C1455 C 0.39386 0.8774 0.2983 0.0
C1456 C 0.36032 0.8655 0.29427 0.0
C1457 C 0.35357 0.83245 0.28261 0.0
C1458 C 0.37955 0.81342 0.2708 0.0
C1459 C 0.33249 0.88862 0.29669 0.0
C1460 C 0.30331 0.87871 0.31432 0.0
C1461 C 0.3332 0.91875 0.27855 0.0
C1462 C 0.3619 0.92936 0.25697 0.0
C1463 C 0.3706 0.90969 0.22895 0.0
C1464 C 0.39825 0.9194 0.20923 0.0
C1465 C 0.4174 0.94867 0.21735 0.0
C1466 C 0.40852 0.96868 0.24477 0.0
C1467 C 0.38078 0.95919 0.26447 0.0
H1468 H 0.43897 0.95598 0.20224 0.0
H1469 H 0.16515 0.85778 0.38312 0.0
H1470 H 0.18502 0.99073 0.51192 0.0
H1471 H 0.16182 0.04622 0.5157 0.0
H1472 H 0.20043 0.05938 0.61641 0.0
H1473 H 0.22423 0.00486 0.61251 0.0
H1474 H 0.11639 0.07238 0.55562 0.0
H1475 H 0.2298 0.13073 0.63226 0.0
H1476 H 0.29118 0.12572 0.63157 0.0
H1477 H 0.28784 0.1011 0.52643 0.0
H1478 H 0.22647 0.1049 0.52655 0.0
H1479 H 0.06706 0.18617 0.67513 0.0
H1480 H 0.08477 0.14433 0.63518 0.0
H1481 H 0.15506 0.21698 0.59196 0.0
H1482 H 0.13951 0.25831 0.63445 0.0
H1483 H 0.18701 0.16835 0.60156 0.0
H1484 H 0.08419 0.17376 0.54662 0.0
H1485 H 0.02352 0.17682 0.53728 0.0
H1486 H 0.00565 0.08038 0.58075 0.0
H1487 H 0.06607 0.07702 0.59107 0.0
C1488 C 0.18869 0.00563 0.53475 0.0
C1489 C 0.20665 0.99359 0.56184 0.0
C1490 C 0.17541 0.03724 0.53687 0.0
C1491 C 0.18 0.0572 0.56605 0.0
C1492 C 0.19735 0.04482 0.59328 0.0
C1493 C 0.21078 0.01351 0.5911 0.0
C1494 C 0.16616 0.09072 0.56909 0.0
C1495 C 0.13164 0.09365 0.56529 0.0
C1496 C 0.18649 0.1189 0.57973 0.0
C1497 C 0.22357 0.11817 0.57944 0.0
C1498 C 0.24221 0.12449 0.60896 0.0
C1499 C 0.27695 0.12172 0.60871 0.0
C1500 C 0.29339 0.11344 0.579 0.0
C1501 C 0.27511 0.10759 0.54944 0.0
C1502 C 0.24034 0.10981 0.54963 0.0
C1503 C 0.08596 0.19345 0.65681 0.0
C1504 C 0.10236 0.22539 0.6585 0.0
C1505 C 0.09574 0.16953 0.63342 0.0
C1506 C 0.12126 0.17727 0.61013 0.0
C1507 C 0.13546 0.2102 0.6097 0.0
C1508 C 0.12624 0.23401 0.63378 0.0
C1509 C 0.13628 0.1498 0.59033 0.0
C1510 C 0.17134 0.14783 0.59095 0.0
C1511 C 0.1164 0.12311 0.57519 0.0
C1512 C 0.07981 0.12518 0.56964 0.0
C1513 C 0.06733 0.15332 0.55446 0.0
C1514 C 0.03294 0.1551 0.54898 0.0
C1515 C 0.01074 0.12882 0.55842 0.0
C1516 C 0.02287 0.10072 0.57342 0.0
C1517 C 0.05721 0.09885 0.57906 0.0
H1518 H 0.98414 0.13023 0.55409 0.0
H1519 H 0.32028 0.11144 0.57891 0.0
H1520 H 0.79915 0.50196 0.26818 0.0
H1521 H 0.74389 0.48333 0.24701 0.0
H1522 H 0.78535 0.39596 0.20149 0.0
H1523 H 0.84128 0.41583 0.22084 0.0
H1524 H 0.7339 0.41728 0.16296 0.0
H1525 H 0.75254 0.39233 0.27969 0.0
H1526 H 0.7702 0.40864 0.33723 0.0
H1527 H 0.6921 0.47797 0.34372 0.0
H1528 H 0.67406 0.46211 0.28609 0.0
H1529 H 0.61486 0.28964 0.22368 0.0
H1530 H 0.65898 0.32481 0.19913 0.0
H1531 H 0.59759 0.40969 0.20717 0.0
H1532 H 0.5526 0.37428 0.23163 0.0
H1533 H 0.65401 0.39935 0.25704 0.0
H1534 H 0.66206 0.43637 0.12844 0.0
H1535 H 0.64301 0.41835 0.0717 0.0
H1536 H 0.66744 0.31765 0.09148 0.0
H1537 H 0.68627 0.33512 0.14845 0.0
C1538 C 0.79654 0.47875 0.25371 0.0
C1539 C 0.82439 0.45968 0.24713 0.0
C1540 C 0.765 0.46834 0.24126 0.0
C1541 C 0.76037 0.43798 0.22309 0.0
C1542 C 0.78832 0.41948 0.21541 0.0
C1543 C 0.82013 0.43047 0.22705 0.0
C1544 C 0.72607 0.4234 0.21637 0.0
C1545 C 0.7165 0.41326 0.18355 0.0
C1546 C 0.70306 0.41848 0.24305 0.0
C1547 C 0.71231 0.42644 0.27844 0.0
C1548 C 0.73916 0.41107 0.29339 0.0
C1549 C 0.74928 0.42028 0.32597 0.0
C1550 C 0.73253 0.44459 0.34396 0.0
C1551 C 0.70522 0.45932 0.32964 0.0
C1552 C 0.69498 0.45018 0.29704 0.0
C1553 C 0.60961 0.31517 0.21809 0.0
C1554 C 0.58063 0.32942 0.23056 0.0
C1555 C 0.63503 0.33537 0.20378 0.0
C1556 C 0.63167 0.3699 0.20145 0.0
C1557 C 0.60058 0.38304 0.2086 0.0
C1558 C 0.57498 0.36278 0.22278 0.0
C1559 C 0.66237 0.39195 0.20413 0.0
C1560 C 0.67129 0.40371 0.23641 0.0
C1561 C 0.68484 0.39727 0.17728 0.0
C1562 C 0.67526 0.38694 0.1427 0.0
C1563 C 0.66338 0.41042 0.12065 0.0
C1564 C 0.65268 0.40033 0.08844 0.0
C1565 C 0.65418 0.36694 0.07792 0.0
C1566 C 0.66624 0.34351 0.09965 0.0
C1567 C 0.67681 0.35346 0.13195 0.0
H1568 H 0.64596 0.35921 0.05295 0.0
H1569 H 0.74066 0.45189 0.36906 0.0
H1570 H 0.67921 0.59659 0.67092 0.0
H1571 H 0.72566 0.63921 0.67632 0.0
H1572 H 0.7345 0.61756 0.78134 0.0
H1573 H 0.68889 0.57489 0.776 0.0
H1574 H 0.73906 0.68438 0.77056 0.0
H1575 H 0.78609 0.58373 0.72451 0.0
H1576 H 0.79359 0.53834 0.6828 0.0
H1577 H 0.81604 0.61061 0.607 0.0
H1578 H 0.80804 0.65651 0.64816 0.0
H1579 H 0.89852 0.71261 0.83413 0.0
H1580 H 0.84215 0.70371 0.81383 0.0
H1581 H 0.87712 0.71673 0.71211 0.0
H1582 H 0.93454 0.71927 0.732 0.0
H1583 H 0.84461 0.66591 0.7096 0.0
H1584 H 0.81435 0.76693 0.76139 0.0
H1585 H 0.80802 0.81202 0.80376 0.0
H1586 H 0.75316 0.74384 0.86748 0.0
H1587 H 0.75979 0.69811 0.82622 0.0
C1588 C 0.69087 0.6013 0.69519 0.0
C1589 C 0.68062 0.58237 0.72302 0.0
C1590 C 0.71746 0.62543 0.69819 0.0
C1591 C 0.73354 0.63141 0.72923 0.0
C1592 C 0.72235 0.61344 0.75722 0.0
C1593 C 0.69638 0.58897 0.75409 0.0
C1594 C 0.76311 0.65511 0.73283 0.0
C1595 C 0.76233 0.68073 0.7573 0.0
C1596 C 0.79277 0.65098 0.71438 0.0
C1597 C 0.79595 0.6235 0.68926 0.0
C1598 C 0.7921 0.58993 0.69882 0.0
C1599 C 0.79654 0.56414 0.67531 0.0
C1600 C 0.80511 0.57161 0.64223 0.0
C1601 C 0.80918 0.6049 0.63257 0.0
C1602 C 0.80467 0.63081 0.65596 0.0
C1603 C 0.89447 0.71334 0.80734 0.0
C1604 C 0.9216 0.71465 0.78474 0.0
C1605 C 0.86165 0.70935 0.79568 0.0
C1606 C 0.85475 0.70919 0.76113 0.0
C1607 C 0.88154 0.71587 0.73886 0.0
C1608 C 0.91464 0.71786 0.75041 0.0
C1609 C 0.82149 0.69563 0.74831 0.0
C1610 C 0.82141 0.67132 0.7222 0.0
C1611 C 0.79085 0.70155 0.76498 0.0
C1612 C 0.78762 0.72895 0.79048 0.0
C1613 C 0.80122 0.76141 0.78456 0.0
C1614 C 0.79751 0.78712 0.80837 0.0
C1615 C 0.78012 0.78083 0.83815 0.0
C1616 C 0.7666 0.74871 0.84436 0.0
C1617 C 0.77027 0.72288 0.82072 0.0
H1618 H 0.77716 0.80083 0.85644 0.0
H1619 H 0.80875 0.5516 0.62415 0.0
H1620 H 0.58393 0.7569 0.53476 0.0
H1621 H 0.61086 0.78623 0.48828 0.0
H1622 H 0.5408 0.86396 0.49812 0.0
H1623 H 0.51378 0.83477 0.54542 0.0
H1624 H 0.55504 0.8428 0.42945 0.0
H1625 H 0.61248 0.87958 0.53015 0.0
H1626 H 0.64182 0.87335 0.58379 0.0
H1627 H 0.71885 0.82143 0.53285 0.0
H1628 H 0.68947 0.82636 0.47906 0.0
H1629 H 0.66891 0.95286 0.33115 0.0
H1630 H 0.62784 0.92946 0.37173 0.0
H1631 H 0.68872 0.8451 0.38491 0.0
H1632 H 0.72905 0.86792 0.34451 0.0
H1633 H 0.67521 0.87758 0.44413 0.0
H1634 H 0.61652 0.83362 0.34625 0.0
H1635 H 0.58743 0.83552 0.29192 0.0
H1636 H 0.51456 0.898 0.33614 0.0
H1637 H 0.5435 0.8968 0.39071 0.0
C1638 C 0.57411 0.78017 0.52711 0.0
C1639 C 0.54701 0.79373 0.54414 0.0
C1640 C 0.58951 0.79687 0.50044 0.0
C1641 C 0.57807 0.82745 0.49005 0.0
C1642 C 0.55003 0.84042 0.50587 0.0
C1643 C 0.5347 0.82376 0.53289 0.0
C1644 C 0.59672 0.84626 0.46372 0.0
C1645 C 0.58113 0.85107 0.43279 0.0
C1646 C 0.63093 0.85642 0.46802 0.0
C1647 C 0.64854 0.85311 0.50052 0.0
C1648 C 0.63544 0.86645 0.53041 0.0
C1649 C 0.6521 0.86315 0.56088 0.0
C1650 C 0.68212 0.84691 0.56176 0.0
C1651 C 0.69553 0.8339 0.53217 0.0
C1652 C 0.67885 0.8369 0.50169 0.0
C1653 C 0.67302 0.929 0.34226 0.0
C1654 C 0.70246 0.91249 0.33522 0.0
C1655 C 0.64964 0.91569 0.3654 0.0
C1656 C 0.65546 0.8857 0.38157 0.0
C1657 C 0.68389 0.8684 0.37299 0.0
C1658 C 0.70698 0.88152 0.34998 0.0
C1659 C 0.63387 0.87333 0.40946 0.0
C1660 C 0.64896 0.86983 0.44085 0.0
C1661 C 0.59943 0.86411 0.40539 0.0
C1662 C 0.58248 0.86555 0.37244 0.0
C1663 C 0.59457 0.84815 0.3443 0.0
C1664 C 0.57803 0.84899 0.31348 0.0
C1665 C 0.54925 0.867 0.31054 0.0
C1666 C 0.53692 0.88415 0.33843 0.0
C1667 C 0.55337 0.88339 0.36931 0.0
H1668 H 0.53643 0.86755 0.28669 0.0
H1669 H 0.69503 0.84446 0.58535 0.0
H1670 H 0.47221 0.27604 0.80226 0.0
H1671 H 0.43196 0.24995 0.76281 0.0
H1672 H 0.42126 0.16297 0.82432 0.0
H1673 H 0.46142 0.18919 0.86473 0.0
H1674 H 0.41781 0.17449 0.72976 0.0
H1675 H 0.36508 0.18023 0.84732 0.0
H1676 H 0.3738 0.2121 0.90051 0.0
H1677 H 0.36524 0.30415 0.84882 0.0
H1678 H 0.35744 0.27272 0.79519 0.0
H1679 H 0.27817 0.19261 0.62761 0.0
H1680 H 0.30744 0.16503 0.67242 0.0
H1681 H 0.30289 0.25472 0.73418 0.0
H1682 H 0.27099 0.28006 0.69132 0.0
H1683 H 0.31117 0.21571 0.77325 0.0
H1684 H 0.37601 0.22589 0.66513 0.0
H1685 H 0.38442 0.21015 0.60561 0.0
H1686 H 0.37911 0.10627 0.63068 0.0
H1687 H 0.37044 0.12154 0.69033 0.0
C1688 C 0.46187 0.25111 0.80732 0.0
C1689 C 0.46934 0.23516 0.83728 0.0
C1690 C 0.43925 0.23599 0.78434 0.0
C1691 C 0.42368 0.20459 0.79067 0.0
C1692 C 0.43319 0.18719 0.81896 0.0
C1693 C 0.45577 0.20244 0.84224 0.0
C1694 C 0.39236 0.19491 0.77235 0.0
C1695 C 0.39402 0.18239 0.73939 0.0
C1696 C 0.36175 0.206 0.78477 0.0
C1697 C 0.36062 0.22415 0.81744 0.0
C1698 C 0.36461 0.20722 0.84746 0.0
C1699 C 0.36977 0.22523 0.87758 0.0
C1700 C 0.37028 0.26016 0.878 0.0
C1701 C 0.36501 0.27712 0.84841 0.0
C1702 C 0.36018 0.25921 0.81817 0.0
C1703 C 0.28199 0.20537 0.65162 0.0
C1704 C 0.27241 0.23826 0.65627 0.0
C1705 C 0.29957 0.19004 0.67693 0.0
C1706 C 0.30948 0.20814 0.70631 0.0
C1707 C 0.2964 0.23975 0.71199 0.0
C1708 C 0.27786 0.25445 0.68739 0.0
C1709 C 0.33623 0.19706 0.72935 0.0
C1710 C 0.3339 0.20575 0.76361 0.0
C1711 C 0.36659 0.18386 0.71752 0.0
C1712 C 0.37221 0.17481 0.68193 0.0
C1713 C 0.37658 0.19974 0.65786 0.0
C1714 C 0.38137 0.1909 0.62414 0.0
C1715 C 0.38219 0.15722 0.61435 0.0
C1716 C 0.37838 0.13233 0.63829 0.0
C1717 C 0.37353 0.14105 0.67203 0.0
H1718 H 0.38586 0.15041 0.58824 0.0
H1719 H 0.37464 0.2741 0.90129 0.0
H1720 H 0.96196 0.12795 0.0903 0.0
H1721 H 0.93418 0.10136 0.0416 0.0
H1722 H 0.97726 0.17916 0.97892 0.0
H1723 H 0.00183 0.20777 0.02851 0.0
H1724 H 0.91963 0.16934 0.9602 0.0
H1725 H 0.00231 0.08926 0.98372 0.0
H1726 H 0.03176 0.05058 0.0192 0.0
H1727 H 0.93962 0.9928 0.03459 0.0
H1728 H 0.90957 0.03133 0.99985 0.0
H1729 H 0.86389 0.09225 0.80972 0.0
H1730 H 0.90561 0.10653 0.85341 0.0
H1731 H 0.84589 0.05002 0.92476 0.0
H1732 H 0.80436 0.03536 0.88107 0.0
H1733 H 0.91514 0.04716 0.9361 0.0
H1734 H 0.83307 0.12997 0.91689 0.0
H1735 H 0.80322 0.16835 0.88142 0.0
H1736 H 0.89648 0.22057 0.85719 0.0
H1737 H 0.92692 0.18222 0.89214 0.0
C1738 C 0.96541 0.1394 0.06614 0.0
C1739 C 0.98372 0.17014 0.06327 0.0
C1740 C 0.94991 0.12385 0.03805 0.0
C1741 C 0.95406 0.13763 0.00605 0.0
C1742 C 0.97341 0.16787 0.00315 0.0
C1743 C 0.9876 0.18421 0.03149 0.0
C1744 C 0.93665 0.12192 0.976 0.0
C1745 C 0.91951 0.14269 0.9547 0.0
C1746 C 0.93532 0.08693 0.96891 0.0
C1747 C 0.95365 0.06335 0.98932 0.0
C1748 C 0.98833 0.06837 0.99482 0.0
C1749 C 0.00512 0.04647 0.01486 0.0
C1750 C 0.98756 0.01929 0.02931 0.0
C1751 C 0.95321 0.01387 0.02358 0.0
C1752 C 0.93629 0.03571 0.00366 0.0
C1753 C 0.86035 0.08177 0.83436 0.0
C1754 C 0.83081 0.06288 0.8421 0.0
C1755 C 0.88404 0.09018 0.85938 0.0
C1756 C 0.87852 0.07983 0.89247 0.0
C1757 C 0.8506 0.05836 0.89945 0.0
C1758 C 0.82688 0.05005 0.8745 0.0
C1759 C 0.89911 0.09477 0.92052 0.0
C1760 C 0.91627 0.07387 0.94149 0.0
C1761 C 0.90076 0.12963 0.92729 0.0
C1762 C 0.8823 0.15302 0.90681 0.0
C1763 C 0.84722 0.14952 0.90383 0.0
C1764 C 0.83019 0.17128 0.88385 0.0
C1765 C 0.84799 0.19678 0.86697 0.0
C1766 C 0.88277 0.20074 0.87022 0.0
C1767 C 0.89991 0.17903 0.89011 0.0
H1768 H 0.8349 0.21349 0.85135 0.0
H1769 H 0.00056 0.00239 0.04486 0.0
H1770 H 0.05002 0.78208 0.29865 0.0
H1771 H 0.07901 0.79322 0.24544 0.0
H1772 H 0.17425 0.78475 0.29449 0.0
H1773 H 0.14513 0.77587 0.34817 0.0
H1774 H 0.17906 0.83658 0.25589 0.0
H1775 H 0.14459 0.72296 0.24202 0.0
H1776 H 0.11047 0.67016 0.2384 0.0
H1777 H 0.04891 0.71054 0.16275 0.0
H1778 H 0.08291 0.76388 0.16596 0.0
H1779 H 0.27297 0.76348 0.12926 0.0
H1780 H 0.24783 0.7953 0.17398 0.0
H1781 H 0.16685 0.81772 0.10826 0.0
H1782 H 0.19171 0.78477 0.06343 0.0
H1783 H 0.15016 0.76989 0.15275 0.0
H1784 H 0.19897 0.88525 0.16784 0.0
H1785 H 0.24843 0.92504 0.16766 0.0
H1786 H 0.29723 0.8654 0.23894 0.0
H1787 H 0.24761 0.82634 0.24076 0.0
C1788 C 0.07714 0.78265 0.29788 0.0
C1789 C 0.09561 0.77824 0.32711 0.0
C1790 C 0.09367 0.78895 0.2676 0.0
C1791 C 0.12887 0.79021 0.26611 0.0
C1792 C 0.14717 0.78473 0.2953 0.0
C1793 C 0.13063 0.77923 0.3257 0.0
C1794 C 0.14661 0.79696 0.23411 0.0
C1795 C 0.17257 0.82213 0.23326 0.0
C1796 C 0.13839 0.77821 0.20455 0.0
C1797 C 0.11588 0.74759 0.20469 0.0
C1798 C 0.12337 0.72084 0.22509 0.0
C1799 C 0.10417 0.6907 0.22293 0.0
C1800 C 0.0774 0.68698 0.20043 0.0
C1801 C 0.06963 0.7135 0.1802 0.0
C1802 C 0.08885 0.7437 0.18219 0.0
C1803 C 0.2511 0.77713 0.12353 0.0
C1804 C 0.23362 0.77081 0.09335 0.0
C1805 C 0.23667 0.79559 0.14928 0.0
C1806 C 0.20495 0.80827 0.14477 0.0
C1807 C 0.19117 0.80785 0.11236 0.0
C1808 C 0.20541 0.78903 0.0867 0.0
C1809 C 0.18233 0.80971 0.17418 0.0
C1810 C 0.15552 0.78561 0.17484 0.0
C1811 C 0.19083 0.82832 0.20371 0.0
C1812 C 0.21965 0.85303 0.20447 0.0
C1813 C 0.22016 0.88096 0.18377 0.0
C1814 C 0.24814 0.90347 0.18354 0.0
C1815 C 0.27591 0.89794 0.2035 0.0
C1816 C 0.27559 0.87006 0.22396 0.0
C1817 C 0.24742 0.84791 0.22487 0.0
H1818 H 0.29771 0.91516 0.20298 0.0
H1819 H 0.06275 0.66355 0.1985 0.0
H1820 H 0.55974 0.23836 0.03691 0.0
H1821 H 0.57292 0.20517 0.08532 0.0
H1822 H 0.54807 0.11448 0.02782 0.0
H1823 H 0.53168 0.14797 0.98057 0.0
H1824 H 0.53137 0.10316 0.08747 0.0
H1825 H 0.63293 0.15279 0.03978 0.0
H1826 H 0.67136 0.19871 0.0204 0.0
H1827 H 0.67353 0.24295 0.1195 0.0
H1828 H 0.63468 0.19759 0.13934 0.0
H1829 H 0.66003 0.00696 0.16145 0.0
H1830 H 0.61743 0.03388 0.12922 0.0
H1831 H 0.61551 0.11295 0.20422 0.0
H1832 H 0.65755 0.08583 0.23689 0.0
H1833 H 0.64202 0.13082 0.14009 0.0
H1834 H 0.54427 0.07576 0.18786 0.0
H1835 H 0.50847 0.02728 0.2057 0.0
H1836 H 0.5039 0.98921 0.10422 0.0
H1837 H 0.53973 0.03747 0.08572 0.0
C1838 C 0.55687 0.21134 0.03483 0.0
C1839 C 0.54538 0.19558 0.00496 0.0
C1840 C 0.56458 0.19234 0.06239 0.0
C1841 C 0.56271 0.15719 0.05998 0.0
C1842 C 0.55 0.1415 0.0304 0.0
C1843 C 0.54091 0.1606 0.00329 0.0
C1844 C 0.57541 0.1369 0.08757 0.0
C1845 C 0.55572 0.10907 0.09872 0.0
C1846 C 0.60698 0.14478 0.10283 0.0
C1847 C 0.63055 0.17198 0.09093 0.0
C1848 C 0.6414 0.17243 0.05736 0.0
C1849 C 0.66328 0.19834 0.0463 0.0
C1850 C 0.67478 0.22377 0.06867 0.0
C1851 C 0.66453 0.22328 0.10218 0.0
C1852 C 0.64258 0.19748 0.11334 0.0
C1853 C 0.64924 0.0291 0.17196 0.0
C1854 C 0.66252 0.04465 0.20136 0.0
C1855 C 0.62492 0.04452 0.15346 0.0
C1856 C 0.61366 0.07557 0.1642 0.0
C1857 C 0.62397 0.08902 0.19552 0.0
C1858 C 0.64803 0.07354 0.21409 0.0
C1859 C 0.59807 0.09728 0.13981 0.0
C1860 C 0.61749 0.12523 0.12905 0.0
C1861 C 0.56676 0.08903 0.12457 0.0
C1862 C 0.54506 0.06004 0.13549 0.0
C1863 C 0.53587 0.05692 0.16938 0.0
C1864 C 0.51549 0.02953 0.17959 0.0
C1865 C 0.50414 0.00508 0.15615 0.0
C1866 C 0.51288 0.0081 0.12238 0.0
C1867 C 0.5331 0.03555 0.11199 0.0
H1868 H 0.48848 0.98387 0.16418 0.0
H1869 H 0.6917 0.2438 0.06006 0.0
H1870 H 0.09949 0.21543 0.18887 0.0
H1871 H 0.12974 0.21509 0.24234 0.0
H1872 H 0.07493 0.2982 0.27885 0.0
H1873 H 0.04558 0.29949 0.22523 0.0
H1874 H 0.16989 0.26147 0.27714 0.0
H1875 H 0.05312 0.28515 0.3598 0.0
H1876 H 0.99205 0.27233 0.35775 0.0
H1877 H 0.00687 0.18755 0.29262 0.0
H1878 H 0.06786 0.19937 0.2949 0.0
H1879 H 0.21597 0.33302 0.43185 0.0
H1880 H 0.19876 0.31208 0.37694 0.0
H1881 H 0.14127 0.23035 0.42199 0.0
H1882 H 0.1566 0.25319 0.47767 0.0
H1883 H 0.10341 0.25344 0.38192 0.0
H1884 H 0.21524 0.2219 0.3629 0.0
H1885 H 0.27641 0.2314 0.36808 0.0
H1886 H 0.27355 0.31722 0.30575 0.0
H1887 H 0.21232 0.30851 0.30062 0.0
C1888 C 0.09391 0.23355 0.20837 0.0
C1889 C 0.07004 0.25733 0.20304 0.0
C1890 C 0.11117 0.2333 0.2389 0.0
C1891 C 0.10402 0.25604 0.26491 0.0
C1892 C 0.08049 0.28006 0.25935 0.0
C1893 C 0.06381 0.28083 0.22866 0.0
C1894 C 0.12061 0.25466 0.29814 0.0
C1895 C 0.15554 0.25911 0.30006 0.0
C1896 C 0.10183 0.251 0.32805 0.0
C1897 C 0.06508 0.24332 0.32734 0.0
C1898 C 0.04334 0.26362 0.34526 0.0
C1899 C 0.0087 0.25653 0.34405 0.0
C1900 C 0.99554 0.22914 0.32509 0.0
C1901 C 0.01699 0.20874 0.30735 0.0
C1902 C 0.0516 0.21564 0.30856 0.0
C1903 C 0.20029 0.31011 0.43008 0.0
C1904 C 0.18726 0.2951 0.45915 0.0
C1905 C 0.19059 0.29782 0.39841 0.0
C1906 C 0.16845 0.26946 0.39476 0.0
C1907 C 0.15801 0.25251 0.42385 0.0
C1908 C 0.16721 0.26527 0.45577 0.0
C1909 C 0.15322 0.26038 0.36126 0.0
C1910 C 0.11824 0.25451 0.35915 0.0
C1911 C 0.17215 0.26114 0.33111 0.0
C1912 C 0.20923 0.26456 0.33143 0.0
C1913 C 0.22773 0.24265 0.35011 0.0
C1914 C 0.26241 0.24796 0.3531 0.0
C1915 C 0.27892 0.27483 0.33711 0.0
C1916 C 0.26082 0.29624 0.31785 0.0
C1917 C 0.2261 0.29113 0.3149 0.0
H1918 H 0.30568 0.27927 0.3399 0.0
H1919 H 0.96875 0.22368 0.32421 0.0
H1920 H 0.03846 0.90877 0.45294 0.0
H1921 H 0.01059 0.93886 0.4975 0.0
H1922 H 0.98567 0.84573 0.54637 0.0
H1923 H 0.01185 0.81508 0.50059 0.0
H1924 H 0.93309 0.87964 0.54171 0.0
H1925 H 0.04755 0.9095 0.57422 0.0
H1926 H 0.10477 0.93281 0.56351 0.0
H1927 H 0.06655 0.02862 0.54429 0.0
H1928 H 0.00892 0.00563 0.55378 0.0
H1929 H 0.87818 0.9371 0.6984 0.0
H1930 H 0.92003 0.91839 0.65832 0.0
H1931 H 0.90667 0.00527 0.59903 0.0
H1932 H 0.86341 0.02331 0.63832 0.0
H1933 H 0.9781 0.97908 0.60678 0.0
H1934 H 0.86561 0.95187 0.57468 0.0
H1935 H 0.80713 0.92972 0.57573 0.0
H1936 H 0.83987 0.83021 0.58604 0.0
H1937 H 0.89866 0.85202 0.58753 0.0
C1938 C 0.02747 0.89458 0.47331 0.0
C1939 C 0.0271 0.85936 0.47286 0.0
C1940 C 0.01172 0.91196 0.49907 0.0
C1941 C 0.99624 0.89469 0.52559 0.0
C1942 C 0.99736 0.85965 0.52612 0.0
C1943 C 0.01251 0.84217 0.49998 0.0
C1944 C 0.97646 0.91259 0.55127 0.0
C1945 C 0.94326 0.9008 0.55662 0.0
C1946 C 0.98908 0.94164 0.5691 0.0
C1947 C 0.02385 0.95572 0.56444 0.0
C1948 C 0.0513 0.93549 0.56752 0.0
C1949 C 0.08382 0.94866 0.56164 0.0
C1950 C 0.08931 0.98222 0.55334 0.0
C1951 C 0.06227 0.00267 0.55082 0.0
C1952 C 0.02965 0.98955 0.55635 0.0
C1953 C 0.88465 0.95252 0.67715 0.0
C1954 C 0.86705 0.98117 0.671 0.0
C1955 C 0.90851 0.94184 0.65435 0.0
C1956 C 0.91571 0.96006 0.62543 0.0
C1957 C 0.90115 0.9908 0.62118 0.0
C1958 C 0.87665 0.00118 0.64373 0.0
C1959 C 0.93543 0.9449 0.59824 0.0
C1960 C 0.9683 0.95743 0.59237 0.0
C1961 C 0.92244 0.91658 0.57964 0.0
C1962 C 0.88682 0.90382 0.58205 0.0
C1963 C 0.86051 0.92544 0.57844 0.0
C1964 C 0.82719 0.91289 0.5784 0.0
C1965 C 0.81976 0.8786 0.58106 0.0
C1966 C 0.84566 0.85681 0.58405 0.0
C1967 C 0.87897 0.86932 0.58495 0.0
H1968 H 0.79395 0.86888 0.58076 0.0
H1969 H 0.11451 0.99237 0.5489 0.0
H1970 H 0.40461 0.73841 0.69818 0.0
H1971 H 0.37325 0.75804 0.74672 0.0
H1972 H 0.45735 0.82469 0.77541 0.0
H1973 H 0.48868 0.80504 0.72634 0.0
H1974 H 0.44043 0.78365 0.82436 0.0
H1975 H 0.38489 0.85491 0.75842 0.0
H1976 H 0.35485 0.87763 0.71112 0.0
H1977 H 0.26828 0.81425 0.7333 0.0
H1978 H 0.29844 0.78871 0.77895 0.0
H1979 H 0.35122 0.76459 0.9715 0.0
H1980 H 0.36779 0.80304 0.92666 0.0
H1981 H 0.3139 0.73844 0.85488 0.0
H1982 H 0.29664 0.70071 0.89955 0.0
H1983 H 0.31928 0.80321 0.83341 0.0
H1984 H 0.39256 0.72045 0.88205 0.0
H1985 H 0.42247 0.70002 0.93092 0.0
H1986 H 0.47598 0.7955 0.94278 0.0
H1987 H 0.44578 0.81665 0.89441 0.0
C1988 C 0.41574 0.75833 0.71406 0.0
C1989 C 0.44869 0.77067 0.70846 0.0
C1990 C 0.39787 0.76956 0.74181 0.0
C1991 C 0.41288 0.79297 0.76471 0.0
C1992 C 0.44521 0.8068 0.75797 0.0
C1993 C 0.46296 0.79581 0.72987 0.0
C1994 C 0.39678 0.79829 0.79787 0.0
C1995 C 0.41425 0.78926 0.82647 0.0
C1996 C 0.36262 0.80564 0.80076 0.0
C1997 C 0.34429 0.81955 0.7722 0.0
C1998 C 0.35975 0.84498 0.75274 0.0
C1999 C 0.3427 0.85823 0.726 0.0
C2000 C 0.30974 0.84704 0.71895 0.0
C2001 C 0.29395 0.82229 0.73839 0.0
C2002 C 0.31113 0.80826 0.76462 0.0
C2003 C 0.3415 0.75961 0.94644 0.0
C2004 C 0.32327 0.72943 0.93872 0.0
C2005 C 0.35107 0.7815 0.9208 0.0
C2006 C 0.34281 0.77308 0.88727 0.0
C2007 C 0.32069 0.74536 0.88048 0.0
C2008 C 0.31103 0.72366 0.906 0.0
C2009 C 0.36265 0.7873 0.85897 0.0
C2010 C 0.34585 0.79949 0.83129 0.0
C2011 C 0.39759 0.78342 0.85685 0.0
C2012 C 0.41681 0.77017 0.88486 0.0
C2013 C 0.41076 0.73702 0.89509 0.0
C2014 C 0.4277 0.72535 0.92274 0.0
C2015 C 0.45129 0.74638 0.93986 0.0
C2016 C 0.4579 0.77915 0.92939 0.0
C2017 C 0.44078 0.79104 0.90195 0.0
H2018 H 0.46442 0.73731 0.96124 0.0
H2019 H 0.29628 0.85788 0.69876 0.0
H2020 H 0.58454 0.50299 0.83124 0.0
H2021 H 0.54603 0.50855 0.87864 0.0
H2022 H 0.46403 0.51757 0.80986 0.0
H2023 H 0.50219 0.51212 0.76252 0.0
H2024 H 0.51335 0.56389 0.89123 0.0
H2025 H 0.38979 0.4896 0.8464 0.0
H2026 H 0.37247 0.43506 0.82032 0.0
H2027 H 0.46489 0.3952 0.85082 0.0
H2028 H 0.4826 0.44932 0.87762 0.0
H2029 H 0.33894 0.61262 0.91138 0.0
H2030 H 0.37851 0.57368 0.88879 0.0
H2031 H 0.42663 0.57139 0.98532 0.0
H2032 H 0.38866 0.61225 0.00757 0.0
H2033 H 0.39975 0.5098 0.90526 0.0
H2034 H 0.48977 0.57814 0.97971 0.0
H2035 H 0.50611 0.63304 0.00605 0.0
H2036 H 0.48372 0.68166 0.91451 0.0
H2037 H 0.46573 0.6272 0.88831 0.0
C2038 C 0.55822 0.50567 0.82621 0.0
C2039 C 0.54653 0.50763 0.79308 0.0
C2040 C 0.53623 0.50871 0.85333 0.0
C2041 C 0.50208 0.51315 0.84784 0.0
C2042 C 0.49014 0.5136 0.81477 0.0
C2043 C 0.51212 0.51093 0.7877 0.0
C2044 C 0.47981 0.5223 0.87602 0.0
C2045 C 0.48894 0.55131 0.89498 0.0
C2046 C 0.44777 0.50617 0.88084 0.0
C2047 C 0.43769 0.47376 0.86382 0.0
C2048 C 0.40645 0.46923 0.84763 0.0
C2049 C 0.39653 0.43835 0.83272 0.0
C2050 C 0.4176 0.41171 0.83382 0.0
C2051 C 0.44865 0.41591 0.84984 0.0
C2052 C 0.45869 0.44674 0.86482 0.0
C2053 C 0.3579 0.60382 0.92788 0.0
C2054 C 0.36108 0.61622 0.96107 0.0
C2055 C 0.38031 0.58129 0.91501 0.0
C2056 C 0.40613 0.57041 0.93512 0.0
C2057 C 0.40756 0.58032 0.96908 0.0
C2058 C 0.38543 0.60329 0.9819 0.0
C2059 C 0.43314 0.55168 0.91921 0.0
C2060 C 0.42476 0.52128 0.90231 0.0
C2061 C 0.46602 0.56617 0.9164 0.0
C2062 C 0.476 0.59884 0.93233 0.0
C2063 C 0.48792 0.60066 0.96544 0.0
C2064 C 0.49727 0.63168 0.98039 0.0
C2065 C 0.49566 0.66088 0.96208 0.0
C2066 C 0.48454 0.65912 0.92884 0.0
C2067 C 0.47451 0.62823 0.91402 0.0
H2068 H 0.50322 0.68483 0.9736 0.0
H2069 H 0.40982 0.38779 0.82234 0.0
H2070 H 0.72837 0.30826 0.11298 0.0
H2071 H 0.73894 0.26114 0.14868 0.0
H2072 H 0.83832 0.30396 0.16971 0.0
H2073 H 0.82752 0.35135 0.13469 0.0
H2074 H 0.84067 0.24101 0.14979 0.0
H2075 H 0.78295 0.29919 0.23299 0.0
H2076 H 0.73841 0.33256 0.25713 0.0
H2077 H 0.66617 0.25093 0.23893 0.0
H2078 H 0.71013 0.21726 0.21404 0.0
H2079 H 0.77815 0.09584 0.27286 0.0
H2080 H 0.80123 0.15303 0.26421 0.0
H2081 H 0.8063 0.13286 0.15794 0.0
H2082 H 0.78499 0.0755 0.16657 0.0
H2083 H 0.76385 0.19284 0.23591 0.0
H2084 H 0.85323 0.18876 0.11715 0.0
H2085 H 0.90686 0.16537 0.10108 0.0
H2086 H 0.92893 0.14954 0.20459 0.0
H2087 H 0.87511 0.17234 0.22116 0.0
C2088 C 0.75197 0.30815 0.12619 0.0
C2089 C 0.77693 0.33358 0.12149 0.0
C2090 C 0.75809 0.28116 0.14644 0.0
C2091 C 0.78933 0.27919 0.16219 0.0
C2092 C 0.81402 0.305 0.15802 0.0
C2093 C 0.80784 0.332 0.13791 0.0
C2094 C 0.79709 0.24861 0.18015 0.0
C2095 C 0.82397 0.23041 0.16869 0.0
C2096 C 0.77647 0.23583 0.20617 0.0
C2097 C 0.74987 0.25572 0.2215 0.0
C2098 C 0.75753 0.28841 0.23394 0.0
C2099 C 0.7324 0.30738 0.24778 0.0
C2100 C 0.69952 0.29384 0.24962 0.0
C2101 C 0.69169 0.26133 0.23757 0.0
C2102 C 0.71672 0.24228 0.22361 0.0
C2103 C 0.78603 0.10319 0.24796 0.0
C2104 C 0.78002 0.08146 0.22033 0.0
C2105 C 0.79862 0.13596 0.24303 0.0
C2106 C 0.80469 0.1476 0.21054 0.0
C2107 C 0.80217 0.12464 0.18337 0.0
C2108 C 0.79003 0.09175 0.18828 0.0
C2109 C 0.80645 0.18408 0.20409 0.0
C2110 C 0.78105 0.20346 0.21746 0.0
C2111 C 0.82939 0.19861 0.18091 0.0
C2112 C 0.86006 0.18196 0.17044 0.0
C2113 C 0.86936 0.17994 0.13646 0.0
C2114 C 0.89976 0.16669 0.12724 0.0
C2115 C 0.92116 0.15564 0.15182 0.0
C2116 C 0.91203 0.15744 0.18557 0.0
C2117 C 0.88153 0.17032 0.19487 0.0
H2118 H 0.94494 0.14596 0.14481 0.0
H2119 H 0.68008 0.30856 0.26033 0.0
H2120 H 0.93379 0.47716 0.38449 0.0
H2121 H 0.97355 0.47125 0.43111 0.0
H2122 H 0.0538 0.51179 0.3691 0.0
H2123 H 0.01487 0.51597 0.32258 0.0
H2124 H 0.06316 0.45025 0.38981 0.0
H2125 H 0.01411 0.54732 0.43368 0.0
H2126 H 0.97865 0.58696 0.46143 0.0
H2127 H 0.98967 0.53798 0.55483 0.0
H2128 H 0.02244 0.49564 0.52738 0.0
H2129 H 0.19812 0.42059 0.48671 0.0
H2130 H 0.16177 0.46142 0.46342 0.0
H2131 H 0.08053 0.42357 0.52558 0.0
H2132 H 0.11682 0.38297 0.549 0.0
H2133 H 0.07459 0.49106 0.50748 0.0
H2134 H 0.09819 0.38283 0.45313 0.0
H2135 H 0.13006 0.34091 0.42262 0.0
H2136 H 0.16429 0.4149 0.35235 0.0
H2137 H 0.13194 0.45717 0.38201 0.0
C2138 C 0.95989 0.48511 0.3812 0.0
C2139 C 0.97159 0.49632 0.34989 0.0
C2140 C 0.98245 0.48202 0.40783 0.0
C2141 C 0.01664 0.49109 0.40356 0.0
C2142 C 0.02758 0.50452 0.37293 0.0
C2143 C 0.00542 0.50669 0.3463 0.0
C2144 C 0.0423 0.4818 0.42802 0.0
C2145 C 0.06546 0.4596 0.41554 0.0
C2146 C 0.04478 0.49348 0.46201 0.0
C2147 C 0.02123 0.51731 0.47778 0.0
C2148 C 0.00799 0.54345 0.4597 0.0
C2149 C 0.98821 0.56681 0.47559 0.0
C2150 C 0.98175 0.56496 0.50987 0.0
C2151 C 0.99444 0.5393 0.52819 0.0
C2152 C 0.0135 0.51539 0.5123 0.0
C2153 C 0.173 0.42222 0.49663 0.0
C2154 C 0.16005 0.39831 0.51919 0.0
C2155 C 0.1522 0.44542 0.4832 0.0
C2156 C 0.11814 0.44473 0.4919 0.0
C2157 C 0.10659 0.42428 0.51813 0.0
C2158 C 0.12745 0.40114 0.53171 0.0
C2159 C 0.09359 0.45911 0.46922 0.0
C2160 C 0.07117 0.48211 0.48183 0.0
C2161 C 0.09074 0.44798 0.43546 0.0
C2162 C 0.11271 0.42325 0.4199 0.0
C2163 C 0.11262 0.39029 0.43133 0.0
C2164 C 0.13066 0.36639 0.41406 0.0
C2165 C 0.1492 0.37528 0.38559 0.0
C2166 C 0.14993 0.40808 0.37443 0.0
C2167 C 0.13166 0.43197 0.39137 0.0
H2168 H 0.16279 0.35677 0.37194 0.0
H2169 H 0.96694 0.58343 0.52222 0.0
H2170 H 0.72646 0.65972 0.60142 0.0
H2171 H 0.7134 0.70758 0.63716 0.0
H2172 H 0.80224 0.76196 0.60125 0.0
H2173 H 0.81618 0.71332 0.56713 0.0
H2174 H 0.79818 0.77484 0.66221 0.0
H2175 H 0.71309 0.77319 0.5732 0.0
H2176 H 0.66674 0.74511 0.54064 0.0
H2177 H 0.61113 0.7283 0.63142 0.0
H2178 H 0.65677 0.75714 0.66439 0.0
H2179 H 0.74953 0.93947 0.64527 0.0
H2180 H 0.73203 0.88113 0.6334 0.0
H2181 H 0.73889 0.85998 0.73863 0.0
H2182 H 0.75803 0.91842 0.75035 0.0
H2183 H 0.68753 0.82479 0.65609 0.0
H2184 H 0.78564 0.82249 0.74413 0.0
H2185 H 0.83615 0.85252 0.76819 0.0
H2186 H 0.86963 0.87803 0.66922 0.0
H2187 H 0.81879 0.84919 0.64524 0.0
C2188 C 0.74325 0.68188 0.60149 0.0
C2189 C 0.77228 0.68299 0.58163 0.0
C2190 C 0.73566 0.70939 0.62171 0.0
C2191 C 0.75645 0.73887 0.6216 0.0
C2192 C 0.78577 0.73959 0.602 0.0
C2193 C 0.79379 0.7118 0.58248 0.0
C2194 C 0.74823 0.76914 0.64172 0.0
C2195 C 0.77379 0.78539 0.66104 0.0
C2196 C 0.71629 0.78291 0.64106 0.0
C2197 C 0.68821 0.76729 0.62114 0.0
C2198 C 0.69077 0.76384 0.5861 0.0
C2199 C 0.66463 0.74784 0.56762 0.0
C2200 C 0.63598 0.73497 0.584 0.0
C2201 C 0.63318 0.73857 0.6188 0.0
C2202 C 0.65906 0.75492 0.63736 0.0
C2203 C 0.74559 0.92275 0.66606 0.0
C2204 C 0.75516 0.93318 0.69866 0.0
C2205 C 0.73562 0.8894 0.65928 0.0
C2206 C 0.73501 0.86614 0.68505 0.0
C2207 C 0.73987 0.87753 0.71836 0.0
C2208 C 0.75038 0.91093 0.72512 0.0
C2209 C 0.73772 0.83044 0.67567 0.0
C2210 C 0.71138 0.81332 0.65819 0.0
C2211 C 0.76902 0.81583 0.6777 0.0
C2212 C 0.79868 0.8339 0.69286 0.0
C2213 C 0.80379 0.83468 0.72767 0.0
C2214 C 0.83233 0.85159 0.74134 0.0
C2215 C 0.85608 0.86724 0.72032 0.0
C2216 C 0.85122 0.86619 0.68562 0.0
C2217 C 0.82254 0.84974 0.672 0.0
H2218 H 0.87825 0.88012 0.73091 0.0
H2219 H 0.61604 0.72199 0.56979 0.0
H2220 H 0.59319 0.42072 0.64565 0.0
H2221 H 0.54062 0.39775 0.62048 0.0
H2222 H 0.48652 0.43179 0.70761 0.0
H2223 H 0.53926 0.45072 0.73395 0.0
H2224 H 0.45996 0.3784 0.6925 0.0
H2225 H 0.49294 0.47102 0.62153 0.0
H2226 H 0.5297 0.50345 0.58294 0.0
H2227 H 0.52715 0.42038 0.51288 0.0
H2228 H 0.49095 0.38721 0.55132 0.0
H2229 H 0.2977 0.36794 0.62559 0.0
H2230 H 0.35183 0.39732 0.63801 0.0
H2231 H 0.40129 0.32738 0.57376 0.0
H2232 H 0.34723 0.29755 0.5619 0.0
H2233 H 0.42959 0.39786 0.5743 0.0
H2234 H 0.39431 0.30722 0.64788 0.0
H2235 H 0.35589 0.27781 0.68712 0.0
H2236 H 0.36072 0.36349 0.75388 0.0
H2237 H 0.39848 0.39382 0.71462 0.0
C2238 C 0.56994 0.42292 0.65931 0.0
C2239 C 0.57001 0.43783 0.69145 0.0
C2240 C 0.53981 0.41026 0.64477 0.0
C2241 C 0.50908 0.41379 0.66153 0.0
C2242 C 0.50957 0.42867 0.69386 0.0
C2243 C 0.53974 0.43991 0.70888 0.0
C2244 C 0.47642 0.40123 0.64635 0.0
C2245 C 0.45334 0.38339 0.6668 0.0
C2246 C 0.46761 0.40659 0.61244 0.0
C2247 C 0.48952 0.42653 0.58947 0.0
C2248 C 0.50044 0.45959 0.59802 0.0
C2249 C 0.52118 0.47808 0.57618 0.0
C2250 C 0.53076 0.46392 0.54553 0.0
C2251 C 0.51972 0.43126 0.53666 0.0
C2252 C 0.49913 0.4126 0.55847 0.0
C2253 C 0.31992 0.35991 0.61283 0.0
C2254 C 0.31839 0.33078 0.59252 0.0
C2255 C 0.35083 0.37644 0.62022 0.0
C2256 C 0.38051 0.36421 0.60711 0.0
C2257 C 0.37864 0.3372 0.58406 0.0
C2258 C 0.34778 0.32035 0.57709 0.0
C2259 C 0.41343 0.37647 0.6209 0.0
C2260 C 0.43646 0.39362 0.6001 0.0
C2261 C 0.422 0.37122 0.6547 0.0
C2262 C 0.39889 0.35298 0.67804 0.0
C2263 C 0.38683 0.31999 0.67068 0.0
C2264 C 0.36523 0.3031 0.69299 0.0
C2265 C 0.35584 0.31877 0.72294 0.0
C2266 C 0.36795 0.3514 0.73063 0.0
C2267 C 0.38941 0.36847 0.70834 0.0
H2268 H 0.33926 0.30564 0.74027 0.0
H2269 H 0.54664 0.47824 0.52857 0.0
H2270 H 0.79949 0.27825 0.9779 0.0
H2271 H 0.77055 0.24164 0.93623 0.0
H2272 H 0.67908 0.2915 0.95405 0.0
H2273 H 0.70804 0.3287 0.99573 0.0
H2274 H 0.6695 0.22127 0.95005 0.0
H2275 H 0.71479 0.30855 0.88639 0.0
H2276 H 0.75516 0.35147 0.86446 0.0
H2277 H 0.81775 0.27486 0.82805 0.0
H2278 H 0.77807 0.23153 0.85022 0.0
H2279 H 0.71287 0.1291 0.77706 0.0
H2280 H 0.68562 0.17504 0.80444 0.0
H2281 H 0.69079 0.12521 0.89912 0.0
H2282 H 0.7138 0.07757 0.8709 0.0
H2283 H 0.72088 0.21146 0.83744 0.0
H2284 H 0.66007 0.16495 0.96641 0.0
H2285 H 0.61272 0.12805 0.98484 0.0
H2286 H 0.57122 0.12623 0.88566 0.0
H2287 H 0.61815 0.16311 0.86641 0.0
C2288 C 0.77322 0.28146 0.97307 0.0
C2289 C 0.75616 0.30655 0.98999 0.0
C2290 C 0.75673 0.2606 0.94915 0.0
C2291 C 0.72276 0.26413 0.94183 0.0
C2292 C 0.70533 0.28852 0.95923 0.0
C2293 C 0.72197 0.3098 0.9829 0.0
C2294 C 0.70614 0.24199 0.91583 0.0
C2295 C 0.68044 0.2188 0.92529 0.0
C2296 C 0.71889 0.24066 0.88284 0.0
C2297 C 0.74344 0.26672 0.87018 0.0
C2298 C 0.73732 0.30084 0.87402 0.0
C2299 C 0.76005 0.32526 0.86147 0.0
C2300 C 0.78898 0.3159 0.84486 0.0
C2301 C 0.79531 0.2821 0.84089 0.0
C2302 C 0.77269 0.2576 0.85345 0.0
C2303 C 0.70636 0.1269 0.8033 0.0
C2304 C 0.71716 0.10028 0.82221 0.0
C2305 C 0.69106 0.15359 0.81916 0.0
C2306 C 0.68735 0.15467 0.85428 0.0
C2307 C 0.69326 0.12567 0.8721 0.0
C2308 C 0.70722 0.09844 0.85599 0.0
C2309 C 0.68666 0.18755 0.87269 0.0
C2310 C 0.70902 0.21346 0.86179 0.0
C2311 C 0.67018 0.19153 0.904 0.0
C2312 C 0.64257 0.16767 0.91504 0.0
C2313 C 0.64072 0.15713 0.9485 0.0
C2314 C 0.61397 0.13602 0.95911 0.0
C2315 C 0.58878 0.12522 0.93657 0.0
C2316 C 0.59062 0.1349 0.90319 0.0
C2317 C 0.61739 0.15588 0.89238 0.0
H2318 H 0.56793 0.1092 0.94498 0.0
H2319 H 0.80646 0.33484 0.83503 0.0
H2320 H 0.97866 0.51027 0.22887 0.0
H2321 H 0.02835 0.52555 0.19534 0.0
H2322 H 0.01297 0.62988 0.21466 0.0
H2323 H 0.96427 0.61475 0.24978 0.0
H2324 H 0.02157 0.5822 0.13697 0.0
H2325 H 0.06359 0.62647 0.24948 0.0
H2326 H 0.07982 0.61737 0.30786 0.0
H2327 H 0.14669 0.5431 0.27474 0.0
H2328 H 0.13025 0.55124 0.21604 0.0
H2329 H 0.14608 0.68515 0.06052 0.0
H2330 H 0.10059 0.65532 0.08972 0.0
H2331 H 0.17103 0.59035 0.13253 0.0
H2332 H 0.21703 0.6219 0.10535 0.0
H2333 H 0.13635 0.61005 0.17964 0.0
H2334 H 0.10614 0.56275 0.07483 0.0
H2335 H 0.09284 0.55729 0.01456 0.0
H2336 H 0.00788 0.61704 0.02911 0.0
H2337 H 0.02096 0.6234 0.08941 0.0
C2338 C 0.98629 0.53646 0.22652 0.0
C2339 C 0.96791 0.56138 0.24219 0.0
C2340 C 0.01463 0.5451 0.2074 0.0
C2341 C 0.02465 0.57878 0.20316 0.0
C2342 C 0.00612 0.60373 0.21843 0.0
C2343 C 0.97834 0.5951 0.23841 0.0
C2344 C 0.05293 0.58789 0.18068 0.0
C2345 C 0.04667 0.58878 0.14613 0.0
C2346 C 0.08595 0.59402 0.19269 0.0
C2347 C 0.0951 0.589 0.22825 0.0
C2348 C 0.08114 0.60765 0.25455 0.0
C2349 C 0.0906 0.60285 0.28777 0.0
C2350 C 0.11412 0.57951 0.29504 0.0
C2351 C 0.12836 0.56107 0.26909 0.0
C2352 C 0.11898 0.56579 0.23585 0.0
C2353 C 0.15188 0.66416 0.07573 0.0
C2354 C 0.18536 0.65633 0.08093 0.0
C2355 C 0.12569 0.6468 0.09221 0.0
C2356 C 0.13215 0.62046 0.11353 0.0
C2357 C 0.16529 0.61074 0.1165 0.0
C2358 C 0.19162 0.62853 0.10047 0.0
C2359 C 0.10505 0.60589 0.13543 0.0
C2360 C 0.11142 0.60359 0.17001 0.0
C2361 C 0.07242 0.59687 0.12319 0.0
C2362 C 0.06484 0.59393 0.08669 0.0
C2363 C 0.08489 0.57514 0.06515 0.0
C2364 C 0.07735 0.57184 0.03096 0.0
C2365 C 0.04972 0.58707 0.01797 0.0
C2366 C 0.02944 0.60549 0.03918 0.0
C2367 C 0.03688 0.60891 0.07338 0.0
H2368 H 0.04384 0.58434 0.99153 0.0
H2369 H 0.12141 0.57575 0.32073 0.0
H2370 H 0.756 0.75195 0.47563 0.0
H2371 H 0.78417 0.79648 0.44369 0.0
H2372 H 0.86246 0.73125 0.41623 0.0
H2373 H 0.83451 0.68625 0.44825 0.0
H2374 H 0.88264 0.80618 0.43481 0.0
H2375 H 0.81243 0.73376 0.35975 0.0
H2376 H 0.75963 0.70172 0.34579 0.0
H2377 H 0.70569 0.7912 0.3549 0.0
H2378 H 0.75793 0.8235 0.37041 0.0
H2379 H 0.83556 0.90139 0.2725 0.0
H2380 H 0.86879 0.86096 0.3 0.0
H2381 H 0.85269 0.91018 0.39537 0.0
H2382 H 0.8208 0.95165 0.36779 0.0
H2383 H 0.81397 0.83576 0.3379 0.0
H2384 H 0.89113 0.86898 0.45575 0.0
H2385 H 0.93814 0.90861 0.47155 0.0
H2386 H 0.97845 0.90076 0.37198 0.0
H2387 H 0.93174 0.86098 0.3556 0.0
C2388 C 0.7793 0.74699 0.46303 0.0
C2389 C 0.79269 0.71531 0.46415 0.0
C2390 C 0.79553 0.77259 0.44506 0.0
C2391 C 0.82545 0.76711 0.42785 0.0
C2392 C 0.83959 0.73599 0.42972 0.0
C2393 C 0.82331 0.71025 0.44768 0.0
C2394 C 0.83906 0.79265 0.4046 0.0
C2395 C 0.86838 0.81215 0.41284 0.0
C2396 C 0.82032 0.8004 0.37617 0.0
C2397 C 0.78902 0.78099 0.36639 0.0
C2398 C 0.78926 0.74653 0.35903 0.0
C2399 C 0.75945 0.72834 0.35083 0.0
C2400 C 0.72937 0.74446 0.34941 0.0
C2401 C 0.72901 0.77878 0.35613 0.0
C2402 C 0.75867 0.79701 0.36466 0.0
C2403 C 0.84125 0.90526 0.2989 0.0
C2404 C 0.82413 0.92852 0.31837 0.0
C2405 C 0.86037 0.882 0.31468 0.0
C2406 C 0.86166 0.88158 0.34988 0.0
C2407 C 0.85146 0.90956 0.36821 0.0
C2408 C 0.83287 0.93319 0.35239 0.0
C2409 C 0.85857 0.84877 0.36637 0.0
C2410 C 0.83009 0.82845 0.35786 0.0
C2411 C 0.87832 0.84041 0.39398 0.0
C2412 C 0.90786 0.8621 0.40443 0.0
C2413 C 0.91024 0.87538 0.43734 0.0
C2414 C 0.93672 0.89804 0.44634 0.0
C2415 C 0.96106 0.90744 0.42268 0.0
C2416 C 0.95941 0.89366 0.39019 0.0
C2417 C 0.93292 0.8711 0.38102 0.0
H2418 H 0.98115 0.92549 0.42946 0.0
H2419 H 0.7063 0.73041 0.34328 0.0
H2420 H 0.81931 0.52916 0.56713 0.0
H2421 H 0.86271 0.49001 0.57804 0.0
H2422 H 0.91954 0.52777 0.49362 0.0
H2423 H 0.87642 0.56689 0.48261 0.0
H2424 H 0.92379 0.46183 0.49798 0.0
H2425 H 0.93297 0.55785 0.57383 0.0
H2426 H 0.91218 0.59633 0.61717 0.0
H2427 H 0.89851 0.51517 0.68524 0.0
H2428 H 0.91868 0.47604 0.64208 0.0
H2429 H 0.06706 0.43078 0.62971 0.0
H2430 H 0.03873 0.46432 0.58909 0.0
H2431 H 0.97166 0.37943 0.56393 0.0
H2432 H 0.00046 0.34588 0.60384 0.0
H2433 H 0.97663 0.47282 0.61034 0.0
H2434 H 0.92311 0.39896 0.49237 0.0
H2435 H 0.94177 0.36078 0.44767 0.0
H2436 H 0.04368 0.39628 0.46419 0.0
H2437 H 0.02561 0.43494 0.50858 0.0
C2438 C 0.84097 0.52896 0.55081 0.0
C2439 C 0.84483 0.55152 0.52447 0.0
C2440 C 0.8657 0.5066 0.55704 0.0
C2441 C 0.89474 0.50669 0.53717 0.0
C2442 C 0.89759 0.5277 0.50957 0.0
C2443 C 0.87292 0.55006 0.50335 0.0
C2444 C 0.92317 0.48663 0.54636 0.0
C2445 C 0.93534 0.46395 0.52259 0.0
C2446 C 0.93848 0.49009 0.57829 0.0
C2447 C 0.9271 0.51391 0.60453 0.0
C2448 C 0.92544 0.54814 0.59796 0.0
C2449 C 0.91371 0.57008 0.62251 0.0
C2450 C 0.90392 0.55819 0.6539 0.0
C2451 C 0.90601 0.52435 0.66088 0.0
C2452 C 0.9176 0.50227 0.63637 0.0
C2453 C 0.04784 0.41871 0.61377 0.0
C2454 C 0.03559 0.38597 0.62003 0.0
C2455 C 0.03137 0.43797 0.59082 0.0
C2456 C 0.00254 0.42459 0.57409 0.0
C2457 C 0.99381 0.39033 0.57644 0.0
C2458 C 0.0104 0.37106 0.5992 0.0
C2459 C 0.97723 0.44729 0.56211 0.0
C2460 C 0.96533 0.47049 0.58561 0.0
C2461 C 0.96188 0.44378 0.53015 0.0
C2462 C 0.97308 0.41983 0.50403 0.0
C2463 C 0.94955 0.39872 0.48643 0.0
C2464 C 0.96001 0.37695 0.46109 0.0
C2465 C 0.99396 0.37607 0.45306 0.0
C2466 C 0.01747 0.39691 0.47041 0.0
C2467 C 0.00714 0.4187 0.49572 0.0
H2468 H 0.00206 0.35926 0.43341 0.0
H2469 H 0.89475 0.57521 0.67282 0.0
H2470 H 0.30255 0.96871 0.48725 0.0
H2471 H 0.34101 0.00535 0.45546 0.0
H2472 H 0.42383 0.97545 0.51475 0.0
H2473 H 0.38549 0.93802 0.54657 0.0
H2474 H 0.41603 0.05032 0.5037 0.0
H2475 H 0.42383 0.94356 0.44331 0.0
H2476 H 0.40022 0.89268 0.41414 0.0
H2477 H 0.34827 0.95283 0.34567 0.0
H2478 H 0.37156 0.00404 0.3744 0.0
H2479 H 0.50799 0.15813 0.39129 0.0
H2480 H 0.49499 0.11109 0.42832 0.0
H2481 H 0.41368 0.07707 0.36259 0.0
H2482 H 0.42888 0.12112 0.32434 0.0
H2483 H 0.43488 0.02722 0.3827 0.0
H2484 H 0.40875 0.12941 0.44496 0.0
H2485 H 0.42228 0.18432 0.47247 0.0
H2486 H 0.49362 0.13988 0.53576 0.0
H2487 H 0.48066 0.08491 0.50819 0.0
C2488 C 0.3289 0.96993 0.49372 0.0
C2489 C 0.34093 0.95038 0.51948 0.0
C2490 C 0.35084 0.9908 0.47541 0.0
C2491 C 0.3852 0.99288 0.48268 0.0
C2492 C 0.39736 0.97403 0.50877 0.0
C2493 C 0.37544 0.95266 0.52683 0.0
C2494 C 0.40801 0.01497 0.46274 0.0
C2495 C 0.42075 0.0452 0.47733 0.0
C2496 C 0.41336 0.00847 0.42828 0.0
C2497 C 0.39933 0.97759 0.41112 0.0
C2498 C 0.40721 0.94591 0.42217 0.0
C2499 C 0.39394 0.91702 0.40564 0.0
C2500 C 0.37271 0.91955 0.37809 0.0
C2501 C 0.36476 0.95092 0.36695 0.0
C2502 C 0.37807 0.97987 0.38328 0.0
C2503 C 0.48782 0.14012 0.38452 0.0
C2504 C 0.46884 0.144 0.35531 0.0
C2505 C 0.48 0.1135 0.40602 0.0
C2506 C 0.45252 0.09087 0.3991 0.0
C2507 C 0.43485 0.09403 0.36902 0.0
C2508 C 0.44324 0.11975 0.34723 0.0
C2509 C 0.44093 0.06422 0.42278 0.0
C2510 C 0.4307 0.03263 0.40911 0.0
C2511 C 0.43632 0.0703 0.45768 0.0
C2512 C 0.44433 0.10332 0.474 0.0
C2513 C 0.42762 0.13154 0.46441 0.0
C2514 C 0.4351 0.16262 0.48009 0.0
C2515 C 0.45896 0.16564 0.50572 0.0
C2516 C 0.47528 0.13756 0.51579 0.0
C2517 C 0.46791 0.10646 0.50011 0.0
H2518 H 0.46468 0.1897 0.51788 0.0
H2519 H 0.36249 0.89725 0.36527 0.0
H2520 H 0.29261 0.05201 0.78274 0.0
H2521 H 0.23588 0.06847 0.79496 0.0
H2522 H 0.27574 0.14517 0.86402 0.0
H2523 H 0.33245 0.12708 0.85326 0.0
H2524 H 0.21387 0.12793 0.88159 0.0
H2525 H 0.27025 0.14996 0.77324 0.0
H2526 H 0.29454 0.1301 0.72042 0.0
H2527 H 0.19953 0.08326 0.69144 0.0
H2528 H 0.17496 0.10125 0.74526 0.0
H2529 H 0.1446 0.27141 0.79815 0.0
H2530 H 0.17257 0.23329 0.83374 0.0
H2531 H 0.09845 0.1548 0.80874 0.0
H2532 H 0.06929 0.19325 0.77387 0.0
H2533 H 0.16881 0.16366 0.77318 0.0
H2534 H 0.14939 0.10978 0.90102 0.0
H2535 H 0.12181 0.12036 0.95527 0.0
H2536 H 0.1365 0.22621 0.94205 0.0
H2537 H 0.1653 0.21627 0.88857 0.0
C2538 C 0.28906 0.072 0.80095 0.0
C2539 C 0.31666 0.08941 0.81603 0.0
C2540 C 0.25667 0.08117 0.8082 0.0
C2541 C 0.25164 0.10913 0.82916 0.0
C2542 C 0.27902 0.12408 0.84706 0.0
C2543 C 0.31143 0.11411 0.84064 0.0
C2544 C 0.21975 0.12638 0.82781 0.0
C2545 C 0.20394 0.13573 0.85789 0.0
C2546 C 0.20618 0.13581 0.79677 0.0
C2547 C 0.22078 0.1267 0.76364 0.0
C2548 C 0.2544 0.13552 0.75575 0.0
C2549 C 0.26831 0.12444 0.72562 0.0
C2550 C 0.24856 0.10559 0.70249 0.0
C2551 C 0.21482 0.0978 0.70945 0.0
C2552 C 0.20096 0.10821 0.7399 0.0
C2553 C 0.13283 0.24677 0.80191 0.0
C2554 C 0.10539 0.23497 0.78225 0.0
C2555 C 0.14895 0.22489 0.82244 0.0
C2556 C 0.13795 0.19106 0.82351 0.0
C2557 C 0.1073 0.18084 0.80847 0.0
C2558 C 0.09089 0.2028 0.78819 0.0
C2559 C 0.1637 0.16628 0.82692 0.0
C2560 C 0.17831 0.15537 0.79691 0.0
C2561 C 0.17581 0.15542 0.85786 0.0
C2562 C 0.15863 0.16225 0.89009 0.0
C2563 C 0.14665 0.13534 0.90963 0.0
C2564 C 0.13094 0.14121 0.94038 0.0
C2565 C 0.12707 0.17395 0.95193 0.0
C2566 C 0.13906 0.20085 0.93283 0.0
C2567 C 0.15496 0.19509 0.90214 0.0
H2568 H 0.11497 0.17847 0.97578 0.0
H2569 H 0.25944 0.09685 0.67928 0.0
H2570 H 0.23823 0.02366 0.96447 0.0
H2571 H 0.21386 0.9705 0.94216 0.0
H2572 H 0.11777 0.99317 0.98351 0.0
H2573 H 0.14181 0.04645 0.00595 0.0
H2574 H 0.13213 0.92716 0.99299 0.0
H2575 H 0.12906 0.00417 0.90519 0.0
H2576 H 0.14965 0.04757 0.86626 0.0
H2577 H 0.21852 0.9801 0.82326 0.0
H2578 H 0.19915 0.93658 0.86278 0.0
H2579 H 0.03481 0.83226 0.8607 0.0
H2580 H 0.05709 0.87172 0.90421 0.0
H2581 H 0.15501 0.83321 0.8915 0.0
H2582 H 0.13256 0.79316 0.84888 0.0
H2583 H 0.139 0.90553 0.87025 0.0
H2584 H 0.13645 0.82725 0.96111 0.0
H2585 H 0.10925 0.7861 0.99888 0.0
H2586 H 0.04147 0.85913 0.03314 0.0
H2587 H 0.06808 0.90063 0.9953 0.0
C2588 C 0.21193 0.01738 0.96893 0.0
C2589 C 0.19194 0.03949 0.9868 0.0
C2590 C 0.19807 0.98696 0.95618 0.0
C2591 C 0.16401 0.97801 0.96113 0.0
C2592 C 0.14413 0.99959 0.97956 0.0
C2593 C 0.1579 0.03016 0.99212 0.0
C2594 C 0.1489 0.94683 0.9456 0.0
C2595 C 0.1334 0.92248 0.96613 0.0
C2596 C 0.15051 0.94088 0.91056 0.0
C2597 C 0.1629 0.96719 0.88722 0.0
C2598 C 0.14896 0.99871 0.8878 0.0
C2599 C 0.1604 0.02334 0.86562 0.0
C2600 C 0.18546 0.01661 0.8424 0.0
C2601 C 0.19924 0.98529 0.84139 0.0
C2602 C 0.18807 0.96064 0.8637 0.0
C2603 C 0.06052 0.83082 0.86886 0.0
C2604 C 0.08195 0.80949 0.85201 0.0
C2605 C 0.07329 0.85349 0.89345 0.0
C2606 C 0.10764 0.85528 0.90093 0.0
C2607 C 0.12837 0.83186 0.88631 0.0
C2608 C 0.1155 0.80886 0.86222 0.0
C2609 C 0.12291 0.8856 0.91768 0.0
C2610 C 0.13813 0.91004 0.89717 0.0
C2611 C 0.12019 0.89189 0.95251 0.0
C2612 C 0.10402 0.86692 0.97508 0.0
C2613 C 0.11551 0.83442 0.97642 0.0
C2614 C 0.10028 0.81107 0.99794 0.0
C2615 C 0.07359 0.81996 0.01833 0.0
C2616 C 0.06213 0.85226 0.01731 0.0
C2617 C 0.07731 0.87572 0.99587 0.0
H2618 H 0.06184 0.80185 0.03498 0.0
H2619 H 0.19402 0.03561 0.82508 0.0
H2620 H 0.74037 0.45764 0.70563 0.0
H2621 H 0.79733 0.44152 0.71661 0.0
H2622 H 0.77478 0.43451 0.822 0.0
H2623 H 0.71754 0.45115 0.81132 0.0
H2624 H 0.84863 0.46974 0.78734 0.0
H2625 H 0.76494 0.3667 0.7903 0.0
H2626 H 0.71807 0.343 0.75564 0.0
H2627 H 0.78126 0.34293 0.66873 0.0
H2628 H 0.82848 0.3669 0.70254 0.0
H2629 H 0.00432 0.39153 0.77233 0.0
H2630 H 0.95126 0.405 0.79941 0.0
H2631 H 0.89709 0.35942 0.71486 0.0
H2632 H 0.94901 0.34339 0.69008 0.0
H2633 H 0.86114 0.34944 0.76114 0.0
H2634 H 0.91629 0.45407 0.72329 0.0
H2635 H 0.96355 0.49628 0.72093 0.0
H2636 H 0.9624 0.50703 0.82824 0.0
H2637 H 0.9151 0.46464 0.83121 0.0
C2638 C 0.74752 0.45296 0.73121 0.0
C2639 C 0.72432 0.45535 0.75757 0.0
C2640 C 0.7802 0.44414 0.73747 0.0
C2641 C 0.79031 0.43722 0.77014 0.0
C2642 C 0.76755 0.44028 0.79671 0.0
C2643 C 0.7348 0.44941 0.79049 0.0
C2644 C 0.82301 0.42237 0.77528 0.0
C2645 C 0.85149 0.44328 0.78255 0.0
C2646 C 0.82692 0.38837 0.76694 0.0
C2647 C 0.80015 0.36847 0.74895 0.0
C2648 C 0.76895 0.36106 0.76395 0.0
C2649 C 0.74228 0.34781 0.74439 0.0
C2650 C 0.74665 0.34186 0.71005 0.0
C2651 C 0.77796 0.34772 0.69532 0.0
C2652 C 0.80469 0.36096 0.71467 0.0
C2653 C 0.98088 0.38341 0.76035 0.0
C2654 C 0.98073 0.36696 0.72881 0.0
C2655 C 0.95059 0.39164 0.77551 0.0
C2656 C 0.91992 0.38413 0.75893 0.0
C2657 C 0.92006 0.36562 0.72856 0.0
C2658 C 0.94994 0.35666 0.71407 0.0
C2659 C 0.88759 0.39703 0.77096 0.0
C2660 C 0.85873 0.37564 0.7677 0.0
C2661 C 0.88381 0.43137 0.77878 0.0
C2662 C 0.91239 0.45629 0.77748 0.0
C2663 C 0.92624 0.4654 0.74638 0.0
C2664 C 0.95297 0.48931 0.74494 0.0
C2665 C 0.96598 0.50428 0.77448 0.0
C2666 C 0.95228 0.49533 0.80548 0.0
C2667 C 0.92547 0.47146 0.80705 0.0
H2668 H 0.98665 0.52283 0.77335 0.0
H2669 H 0.72577 0.33328 0.69458 0.0
H2670 H 0.75067 0.49481 0.10774 0.0
H2671 H 0.71618 0.54248 0.11805 0.0
H2672 H 0.64407 0.50207 0.04533 0.0
H2673 H 0.67957 0.4556 0.03338 0.0
H2674 H 0.64919 0.56487 0.03831 0.0
H2675 H 0.63062 0.49652 0.13458 0.0
H2676 H 0.64617 0.46358 0.18319 0.0
H2677 H 0.69844 0.55022 0.22715 0.0
H2678 H 0.68285 0.58381 0.17903 0.0
H2679 H 0.52081 0.65155 0.14669 0.0
H2680 H 0.54938 0.6097 0.11335 0.0
H2681 H 0.64 0.67306 0.11554 0.0
H2682 H 0.61129 0.71563 0.14749 0.0
H2683 H 0.62164 0.59791 0.15527 0.0
H2684 H 0.63513 0.66549 0.0536 0.0
H2685 H 0.61374 0.69393 0.00454 0.0
H2686 H 0.56459 0.6018 0.96937 0.0
H2687 H 0.58444 0.57314 0.01904 0.0
C2688 C 0.72755 0.49622 0.09384 0.0
C2689 C 0.71769 0.47137 0.06995 0.0
C2690 C 0.70767 0.52332 0.09995 0.0
C2691 C 0.67705 0.52556 0.08302 0.0
C2692 C 0.66749 0.50096 0.05877 0.0
C2693 C 0.68776 0.4743 0.05208 0.0
C2694 C 0.65507 0.55353 0.09057 0.0
C2695 C 0.64292 0.57185 0.0639 0.0
C2696 C 0.64663 0.56264 0.12391 0.0
C2697 C 0.65579 0.5426 0.15306 0.0
C2698 C 0.64554 0.50851 0.15456 0.0
C2699 C 0.65432 0.48974 0.18203 0.0
C2700 C 0.67349 0.50473 0.20808 0.0
C2701 C 0.68363 0.53862 0.20691 0.0
C2702 C 0.67468 0.55759 0.17964 0.0
C2703 C 0.5462 0.65747 0.13835 0.0
C2704 C 0.56397 0.6867 0.15007 0.0
C2705 C 0.56254 0.63342 0.11943 0.0
C2706 C 0.59671 0.63841 0.11193 0.0
C2707 C 0.61347 0.66901 0.12061 0.0
C2708 C 0.59707 0.69322 0.13903 0.0
C2709 C 0.6165 0.60945 0.10311 0.0
C2710 C 0.62796 0.59078 0.1297 0.0
C2711 C 0.62353 0.59964 0.06974 0.0
C2712 C 0.61064 0.61734 0.04055 0.0
C2713 C 0.61901 0.65148 0.03595 0.0
C2714 C 0.60726 0.66763 0.00791 0.0
C2715 C 0.58752 0.64978 0.98401 0.0
C2716 C 0.57958 0.61571 0.98807 0.0
C2717 C 0.59096 0.59954 0.01623 0.0
H2718 H 0.57857 0.66228 0.96226 0.0
H2719 H 0.68037 0.49012 0.22922 0.0
H2720 H 0.32437 0.99049 0.81207 0.0
H2721 H 0.27028 0.96004 0.80238 0.0
H2722 H 0.3062 0.92211 0.70774 0.0
H2723 H 0.36033 0.9512 0.71742 0.0
H2724 H 0.24401 0.95224 0.70466 0.0
H2725 H 0.30471 0.88387 0.78184 0.0
H2726 H 0.32777 0.87017 0.83638 0.0
H2727 H 0.22944 0.86883 0.8798 0.0
H2728 H 0.20581 0.88404 0.82574 0.0
H2729 H 0.13424 0.78562 0.72095 0.0
H2730 H 0.18347 0.82157 0.70835 0.0
H2731 H 0.12869 0.90879 0.73122 0.0
H2732 H 0.07892 0.87298 0.74349 0.0
H2733 H 0.19949 0.85584 0.76975 0.0
H2734 H 0.18843 0.97987 0.70146 0.0
H2735 H 0.15885 0.00374 0.65435 0.0
H2736 H 0.1456 0.90639 0.60753 0.0
H2737 H 0.17567 0.88198 0.65411 0.0
C2738 C 0.32098 0.9751 0.78952 0.0
C2739 C 0.3468 0.97314 0.76561 0.0
C2740 C 0.28997 0.95803 0.78393 0.0
C2741 C 0.28438 0.93895 0.75435 0.0
C2742 C 0.31017 0.93662 0.73078 0.0
C2743 C 0.34119 0.95316 0.73651 0.0
C2744 C 0.25174 0.9214 0.74716 0.0
C2745 C 0.23398 0.93129 0.71903 0.0
C2746 C 0.23857 0.8947 0.76667 0.0
C2747 C 0.2534 0.88546 0.79931 0.0
C2748 C 0.28789 0.88108 0.80287 0.0
C2749 C 0.30114 0.87302 0.83387 0.0
C2750 C 0.2801 0.86845 0.86155 0.0
C2751 C 0.24577 0.87228 0.85834 0.0
C2752 C 0.23247 0.88078 0.82748 0.0
C2753 C 0.13184 0.81244 0.72099 0.0
C2754 C 0.10305 0.82658 0.73403 0.0
C2755 C 0.16016 0.83295 0.714 0.0
C2756 C 0.15984 0.86762 0.71957 0.0
C2757 C 0.12944 0.88205 0.72684 0.0
C2758 C 0.10098 0.86155 0.73375 0.0
C2759 C 0.19176 0.88655 0.72709 0.0
C2760 C 0.20933 0.87698 0.75551 0.0
C2761 C 0.20341 0.91502 0.70939 0.0
C2762 C 0.18433 0.92895 0.68145 0.0
C2763 C 0.17932 0.96347 0.6811 0.0
C2764 C 0.16243 0.97715 0.6545 0.0
C2765 C 0.15041 0.95661 0.62797 0.0
C2766 C 0.15495 0.92228 0.62814 0.0
C2767 C 0.17189 0.90848 0.6547 0.0
H2768 H 0.13776 0.96742 0.60727 0.0
H2769 H 0.29042 0.86196 0.88546 0.0
H2770 H 0.13426 0.16185 0.26374 0.0
H2771 H 0.18266 0.20103 0.27562 0.0
H2772 H 0.24759 0.11849 0.27337 0.0
H2773 H 0.19966 0.07968 0.2627 0.0
H2774 H 0.26588 0.16039 0.32133 0.0
H2775 H 0.2311 0.17117 0.20293 0.0
H2776 H 0.18579 0.18462 0.16439 0.0
H2777 H 0.18452 0.28351 0.20803 0.0
H2778 H 0.2286 0.26998 0.24775 0.0
H2779 H 0.41589 0.18267 0.2457 0.0
H2780 H 0.35547 0.18408 0.23764 0.0
H2781 H 0.35301 0.26874 0.30602 0.0
H2782 H 0.41354 0.26675 0.31487 0.0
H2783 H 0.29715 0.24323 0.2345 0.0
H2784 H 0.33774 0.23045 0.35283 0.0
H2785 H 0.37662 0.20974 0.39441 0.0
H2786 H 0.36358 0.11078 0.35112 0.0
H2787 H 0.32557 0.1312 0.30854 0.0
C2788 C 0.15896 0.15236 0.266 0.0
C2789 C 0.16343 0.118 0.26187 0.0
C2790 C 0.18645 0.17463 0.27286 0.0
C2791 C 0.2188 0.16284 0.27485 0.0
C2792 C 0.2229 0.12828 0.27201 0.0
C2793 C 0.19549 0.10608 0.26585 0.0
C2794 C 0.24909 0.1858 0.27804 0.0
C2795 C 0.27241 0.17906 0.30278 0.0
C2796 C 0.25738 0.21072 0.25427 0.0
C2797 C 0.2332 0.21965 0.22829 0.0
C2798 C 0.22125 0.19583 0.20417 0.0
C2799 C 0.1955 0.20333 0.18238 0.0
C2800 C 0.18224 0.2349 0.1838 0.0
C2801 C 0.19479 0.25906 0.20694 0.0
C2802 C 0.22013 0.25147 0.22914 0.0
C2803 C 0.40273 0.20279 0.25745 0.0
C2804 C 0.41909 0.22457 0.2809 0.0
C2805 C 0.36821 0.20357 0.25288 0.0
C2806 C 0.34977 0.22616 0.27169 0.0
C2807 C 0.36681 0.25106 0.29141 0.0
C2808 C 0.4014 0.25006 0.29631 0.0
C2809 C 0.31393 0.21726 0.27754 0.0
C2810 C 0.28988 0.22614 0.25423 0.0
C2811 C 0.30472 0.19419 0.30271 0.0
C2812 C 0.32916 0.1825 0.32719 0.0
C2813 C 0.34362 0.20443 0.35176 0.0
C2814 C 0.36544 0.19272 0.37561 0.0
C2815 C 0.37261 0.15898 0.3754 0.0
C2816 C 0.35816 0.13694 0.35121 0.0
C2817 C 0.33661 0.14861 0.32712 0.0
H2818 H 0.38948 0.14998 0.39385 0.0
H2819 H 0.16232 0.24068 0.1669 0.0
loop_
_geom_bond_atom_site_label_1
_geom_bond_atom_site_label_2
_geom_bond_distance
_geom_bond_site_symmetry_2
_ccdc_geom_bond_type
Co0 O1 2.216 . S
Co0 O2 2.091 . S
Co0 O4 2.004 1_455 S
Co0 O10 2.021 1_455 S
Co0 O12 2.137 . S
Co0 O13 2.244 . S
O1 Co0 2.216 . S
O1 C8 1.247 . S
O2 Co0 2.091 . S
O2 C8 1.261 . S
C3 O12 1.247 . S
C3 O13 1.272 . S
O4 Co0 2.004 1_655 S
O4 C9 1.259 . S
Co5 O6 2.061 1_455 S
Co5 O11 2.052 1_455 S
Co5 O13 2.135 . S
O6 Co5 2.061 1_655 S
O6 C9 1.235 . S
C7 O10 1.238 . S
C7 O11 1.242 . S
C8 O1 1.247 . S
C8 O2 1.261 . S
C9 O4 1.259 . S
C9 O6 1.235 . S
O10 Co0 2.021 1_655 S
O10 C7 1.238 . S
O11 Co5 2.052 1_655 S
O11 C7 1.242 . S
O12 Co0 2.137 . S
O12 C3 1.247 . S
O13 Co0 2.244 . S
O13 C3 1.272 . S
O13 Co5 2.135 . S
Co14 O15 2.216 . S
Co14 O16 2.091 . S
Co14 O18 2.004 1_455 S
Co14 O24 2.021 1_455 S
Co14 O26 2.137 . S
Co14 O27 2.244 . S
O15 Co14 2.216 . S
O15 C22 1.247 . S
O16 Co14 2.091 . S
O16 C22 1.258 . S
C17 O26 1.247 . S
C17 O27 1.272 . S
O18 Co14 2.004 1_655 S
O18 C23 1.259 . S
Co19 O20 2.061 1_455 S
Co19 O25 2.052 1_455 S
Co19 O27 2.135 . S
O20 Co19 2.061 1_655 S
O20 C23 1.235 . S
C21 O24 1.238 . S
C21 O25 1.241 . S
C22 O15 1.247 . S
C22 O16 1.258 . S
C23 O18 1.259 . S
C23 O20 1.235 . S
O24 Co14 2.021 1_655 S
O24 C21 1.238 . S
O25 Co19 2.052 1_655 S
O25 C21 1.241 . S
O26 Co14 2.137 . S
O26 C17 1.247 . S
O27 Co14 2.244 . S
O27 C17 1.272 . S
O27 Co19 2.135 . S
Co28 O29 2.216 . S
Co28 O30 2.091 . S
Co28 O32 2.004 . S
Co28 O38 2.021 . S
Co28 O40 2.137 . S
Co28 O41 2.244 . S
O29 Co28 2.216 . S
O29 C36 1.247 . S
O30 Co28 2.091 . S
O30 C36 1.261 . S
C31 O40 1.247 . S
C31 O41 1.272 . S
O32 Co28 2.004 . S
O32 C37 1.259 . S
Co33 O34 2.061 . S
Co33 O39 2.052 . S
Co33 O41 2.135 . S
O34 Co33 2.061 . S
O34 C37 1.235 . S
C35 O38 1.238 . S
C35 O39 1.241 . S
C36 O29 1.247 . S
C36 O30 1.261 . S
C37 O32 1.259 . S
C37 O34 1.235 . S
O38 Co28 2.021 . S
O38 C35 1.238 . S
O39 Co33 2.052 . S
O39 C35 1.241 . S
O40 Co28 2.137 . S
O40 C31 1.247 . S
O41 Co28 2.244 . S
O41 C31 1.272 . S
O41 Co33 2.135 . S
Co42 O43 2.216 . S
Co42 O44 2.091 . S
Co42 O46 2.004 . S
Co42 O52 2.021 . S
Co42 O54 2.137 . S
Co42 O55 2.244 . S
O43 Co42 2.216 . S
O43 C50 1.247 . S
O44 Co42 2.091 . S
O44 C50 1.261 . S
C45 O54 1.247 . S
C45 O55 1.272 . S
O46 Co42 2.004 . S
O46 C51 1.259 . S
Co47 O48 2.061 . S
Co47 O53 2.052 . S
Co47 O55 2.135 . S
O48 Co47 2.061 . S
O48 C51 1.235 . S
C49 O52 1.238 . S
C49 O53 1.241 . S
C50 O43 1.247 . S
C50 O44 1.261 . S
C51 O46 1.259 . S
C51 O48 1.235 . S
O52 Co42 2.021 . S
O52 C49 1.238 . S
O53 Co47 2.052 . S
O53 C49 1.241 . S
O54 Co42 2.137 . S
O54 C45 1.247 . S
O55 Co42 2.244 . S
O55 C45 1.272 . S
O55 Co47 2.135 . S
Co56 O57 2.216 . S
Co56 O58 2.091 . S
Co56 O60 2.004 1_565 S
Co56 O66 2.021 1_565 S
Co56 O68 2.137 . S
Co56 O69 2.244 1_565 S
O57 Co56 2.216 . S
O57 C64 1.247 . S
O58 Co56 2.091 . S
O58 C64 1.261 . S
C59 O68 1.247 . S
C59 O69 1.272 1_565 S
O60 Co56 2.004 1_545 S
O60 C65 1.259 . S
Co61 O62 2.061 . S
Co61 O67 2.052 . S
Co61 O69 2.135 . S
O62 Co61 2.061 . S
O62 C65 1.235 . S
C63 O66 1.238 . S
C63 O67 1.241 . S
C64 O57 1.247 . S
C64 O58 1.261 . S
C65 O60 1.259 . S
C65 O62 1.235 . S
O66 Co56 2.021 1_545 S
O66 C63 1.238 . S
O67 Co61 2.052 . S
O67 C63 1.241 . S
O68 Co56 2.137 . S
O68 C59 1.247 . S
O69 Co56 2.244 1_545 S
O69 C59 1.272 1_545 S
O69 Co61 2.135 . S
Co70 O71 2.216 . S
Co70 O72 2.091 . S
Co70 O74 2.004 . S
Co70 O80 2.021 . S
Co70 O82 2.137 . S
Co70 O83 2.244 . S
O71 Co70 2.216 . S
O71 C78 1.247 . S
O72 Co70 2.091 . S
O72 C78 1.261 . S
C73 O82 1.247 . S
C73 O83 1.272 . S
O74 Co70 2.004 . S
O74 C79 1.259 . S
Co75 O76 2.061 . S
Co75 O81 2.052 . S
Co75 O83 2.135 . S
O76 Co75 2.061 . S
O76 C79 1.235 . S
C77 O80 1.238 . S
C77 O81 1.241 . S
C78 O71 1.247 . S
C78 O72 1.261 . S
C79 O74 1.259 . S
C79 O76 1.235 . S
O80 Co70 2.021 . S
O80 C77 1.238 . S
O81 Co75 2.052 . S
O81 C77 1.241 . S
O82 Co70 2.137 . S
O82 C73 1.247 . S
O83 Co70 2.244 . S
O83 C73 1.272 . S
O83 Co75 2.135 . S
Co84 O85 2.216 . S
Co84 O86 2.091 . S
Co84 O88 2.004 . S
Co84 O94 2.021 . S
Co84 O96 2.137 . S
Co84 O97 2.244 . S
O85 Co84 2.216 . S
O85 C92 1.247 . S
O86 Co84 2.091 . S
O86 C92 1.261 . S
C87 O96 1.247 . S
C87 O97 1.272 . S
O88 Co84 2.004 . S
O88 C93 1.259 . S
Co89 O90 2.061 . S
Co89 O95 2.052 . S
Co89 O97 2.135 1_565 S
O90 Co89 2.061 . S
O90 C93 1.235 1_565 S
C91 O94 1.238 1_565 S
C91 O95 1.241 . S
C92 O85 1.247 . S
C92 O86 1.261 . S
C93 O88 1.259 . S
C93 O90 1.235 1_545 S
O94 Co84 2.021 . S
O94 C91 1.238 1_545 S
O95 Co89 2.052 . S
O95 C91 1.241 . S
O96 Co84 2.137 . S
O96 C87 1.247 . S
O97 Co84 2.244 . S
O97 C87 1.272 . S
O97 Co89 2.135 1_545 S
Co98 O99 2.216 . S
Co98 O100 2.091 1_554 S
Co98 O102 2.004 1_554 S
Co98 O108 2.021 1_554 S
Co98 O110 2.137 . S
Co98 O111 2.244 . S
O99 Co98 2.216 . S
O99 C106 1.247 . S
O100 Co98 2.091 1_556 S
O100 C106 1.261 1_556 S
C101 O110 1.247 . S
C101 O111 1.272 . S
O102 Co98 2.004 1_556 S
O102 C107 1.259 . S
Co103 O104 2.061 1_554 S
Co103 O109 2.052 1_554 S
Co103 O111 2.135 . S
O104 Co103 2.061 1_556 S
O104 C107 1.235 . S
C105 O108 1.238 . S
C105 O109 1.241 . S
C106 O99 1.247 . S
C106 O100 1.261 1_554 S
C107 O102 1.259 . S
C107 O104 1.235 . S
O108 Co98 2.021 1_556 S
O108 C105 1.238 . S
O109 Co103 2.052 1_556 S
O109 C105 1.241 . S
O110 Co98 2.137 . S
O110 C101 1.247 . S
O111 Co98 2.244 . S
O111 C101 1.272 . S
O111 Co103 2.135 . S
Co112 O113 2.216 . S
Co112 O114 2.091 . S
Co112 O116 2.004 1_554 S
Co112 O122 2.021 1_554 S
Co112 O124 2.137 . S
Co112 O125 2.244 . S
O113 Co112 2.216 . S
O113 C120 1.247 . S
O114 Co112 2.091 . S
O114 C120 1.261 . S
C115 O124 1.247 . S
C115 O125 1.272 . S
O116 Co112 2.004 1_556 S
O116 C121 1.259 . S
Co117 O118 2.061 1_554 S
Co117 O123 2.052 . S
Co117 O125 2.135 . S
O118 Co117 2.061 1_556 S
O118 C121 1.235 . S
C119 O122 1.238 . S
C119 O123 1.241 1_556 S
C120 O113 1.247 . S
C120 O114 1.261 . S
C121 O116 1.259 . S
C121 O118 1.235 . S
O122 Co112 2.021 1_556 S
O122 C119 1.238 . S
O123 Co117 2.052 . S
O123 C119 1.241 1_554 S
O124 Co112 2.137 . S
O124 C115 1.247 . S
O125 Co112 2.244 . S
O125 C115 1.272 . S
O125 Co117 2.135 . S
Co126 O127 2.216 . S
Co126 O128 2.091 . S
Co126 O130 2.004 . S
Co126 O136 2.021 . S
Co126 O138 2.137 . S
Co126 O139 2.244 . S
O127 Co126 2.216 . S
O127 C134 1.247 . S
O128 Co126 2.091 . S
O128 C134 1.261 . S
C129 O138 1.247 . S
C129 O139 1.272 . S
O130 Co126 2.004 . S
O130 C135 1.259 . S
Co131 O132 2.061 . S
Co131 O137 2.052 . S
Co131 O139 2.135 . S
O132 Co131 2.061 . S
O132 C135 1.235 . S
C133 O136 1.238 . S
C133 O137 1.241 . S
C134 O127 1.247 . S
C134 O128 1.261 . S
C135 O130 1.259 . S
C135 O132 1.235 . S
O136 Co126 2.021 . S
O136 C133 1.238 . S
O137 Co131 2.052 . S
O137 C133 1.241 . S
O138 Co126 2.137 . S
O138 C129 1.247 . S
O139 Co126 2.244 . S
O139 C129 1.272 . S
O139 Co131 2.135 . S
Co140 O141 2.216 . S
Co140 O142 2.091 . S
Co140 O144 2.004 . S
Co140 O150 2.021 . S
Co140 O152 2.137 . S
Co140 O153 2.244 . S
O141 Co140 2.216 . S
O141 C148 1.247 . S
O142 Co140 2.091 . S
O142 C148 1.261 . S
C143 O152 1.247 . S
C143 O153 1.272 . S
O144 Co140 2.004 . S
O144 C149 1.259 . S
Co145 O146 2.061 . S
Co145 O151 2.052 . S
Co145 O153 2.135 . S
O146 Co145 2.061 . S
O146 C149 1.235 . S
C147 O150 1.238 . S
C147 O151 1.241 . S
C148 O141 1.247 . S
C148 O142 1.261 . S
C149 O144 1.259 . S
C149 O146 1.235 . S
O150 Co140 2.021 . S
O150 C147 1.238 . S
O151 Co145 2.052 . S
O151 C147 1.241 . S
O152 Co140 2.137 . S
O152 C143 1.247 . S
O153 Co140 2.244 . S
O153 C143 1.272 . S
O153 Co145 2.135 . S
Co154 O155 2.216 . S
Co154 O156 2.091 . S
Co154 O158 2.004 . S
Co154 O164 2.021 . S
Co154 O166 2.137 . S
Co154 O167 2.244 . S
O155 Co154 2.216 . S
O155 C162 1.247 . S
O156 Co154 2.091 . S
O156 C162 1.261 . S
C157 O166 1.247 . S
C157 O167 1.272 . S
O158 Co154 2.004 . S
O158 C163 1.259 . S
Co159 O160 2.061 . S
Co159 O165 2.052 . S
Co159 O167 2.135 . S
O160 Co159 2.061 . S
O160 C163 1.235 . S
C161 O164 1.238 . S
C161 O165 1.241 . S
C162 O155 1.247 . S
C162 O156 1.261 . S
C163 O158 1.259 . S
C163 O160 1.235 . S
O164 Co154 2.021 . S
O164 C161 1.238 . S
O165 Co159 2.052 . S
O165 C161 1.241 . S
O166 Co154 2.137 . S
O166 C157 1.247 . S
O167 Co154 2.244 . S
O167 C157 1.272 . S
O167 Co159 2.135 . S
H168 C176 0.930 . S
H169 C179 0.930 . S
H170 C181 0.930 . S
H171 C182 0.970 . S
H172 C182 0.970 . S
H173 C184 0.930 1_455 S
H174 C186 0.930 . S
H175 C188 0.930 1_455 S
C176 H168 0.930 . S
C176 C177 1.382 . S
C176 C178 1.426 . S
C177 C176 1.382 . S
C177 C181 1.389 . S
C178 C176 1.426 . S
C178 C179 1.375 . S
C178 C182 1.532 . S
C179 H169 0.930 . S
C179 C178 1.375 . S
C179 C180 1.416 . S
C180 C179 1.416 . S
C180 C181 1.371 . S
C181 H170 0.930 . S
C181 C177 1.389 . S
C181 C180 1.371 . S
C182 H171 0.970 . S
C182 H172 0.970 . S
C182 C178 1.532 . S
C182 C183 1.499 . S
C183 C182 1.499 . S
C183 C184 1.370 1_455 S
C183 C188 1.415 1_455 S
C184 H173 0.930 1_655 S
C184 C183 1.370 1_655 S
C184 C185 1.407 . S
C185 C184 1.407 . S
C185 C186 1.365 . S
C186 H174 0.930 . S
C186 C185 1.365 . S
C186 C187 1.393 . S
C187 C186 1.393 . S
C187 C188 1.387 . S
C188 H175 0.930 1_655 S
C188 C183 1.415 1_655 S
C188 C187 1.387 . S
H189 C197 0.930 . S
H190 C200 0.930 . S
H191 C202 0.930 . S
H192 C203 0.970 . S
H193 C203 0.970 . S
H194 C205 0.930 1_455 S
H195 C207 0.930 . S
H196 C209 0.917 1_455 S
C197 H189 0.930 . S
C197 C198 1.382 . S
C197 C199 1.426 . S
C198 C197 1.382 . S
C198 C202 1.389 . S
C199 C197 1.426 . S
C199 C200 1.375 . S
C199 C203 1.532 . S
C200 H190 0.930 . S
C200 C199 1.375 . S
C200 C201 1.416 . S
C201 C200 1.416 . S
C201 C202 1.371 . S
C202 H191 0.930 . S
C202 C198 1.389 . S
C202 C201 1.371 . S
C203 H192 0.970 . S
C203 H193 0.970 . S
C203 C199 1.532 . S
C203 C204 1.499 . S
C204 C203 1.499 . S
C204 C205 1.370 1_455 S
C204 C209 1.405 1_455 S
C205 H194 0.930 1_655 S
C205 C204 1.370 1_655 S
C205 C206 1.407 . S
C206 C205 1.407 . S
C206 C207 1.365 . S
C207 H195 0.930 . S
C207 C206 1.365 . S
C207 C208 1.393 . S
C208 C207 1.393 . S
C208 C209 1.412 . S
C209 H196 0.917 1_655 S
C209 C204 1.405 1_655 S
C209 C208 1.412 . S
H210 C218 0.930 . S
H211 C221 0.930 . S
H212 C223 0.930 . S
H213 C224 0.970 . S
H214 C224 0.970 . S
H215 C226 0.930 . S
H216 C228 0.930 . S
H217 C230 0.930 . S
C218 H210 0.930 . S
C218 C219 1.382 . S
C218 C220 1.426 . S
C219 C218 1.382 . S
C219 C223 1.389 . S
C220 C218 1.426 . S
C220 C221 1.375 . S
C220 C224 1.532 . S
C221 H211 0.930 . S
C221 C220 1.375 . S
C221 C222 1.416 . S
C222 C221 1.416 . S
C222 C223 1.371 . S
C223 H212 0.930 . S
C223 C219 1.389 . S
C223 C222 1.371 . S
C224 H213 0.970 . S
C224 H214 0.970 . S
C224 C220 1.532 . S
C224 C225 1.499 . S
C225 C224 1.499 . S
C225 C226 1.370 . S
C225 C230 1.415 . S
C226 H215 0.930 . S
C226 C225 1.370 . S
C226 C227 1.407 . S
C227 C226 1.407 . S
C227 C228 1.365 . S
C228 H216 0.930 . S
C228 C227 1.365 . S
C228 C229 1.393 . S
C229 C228 1.393 . S
C229 C230 1.387 . S
C230 H217 0.930 . S
C230 C225 1.415 . S
C230 C229 1.387 . S
H231 C239 0.930 . S
H232 C242 0.930 . S
H233 C244 0.930 . S
H234 C245 0.970 . S
H235 C245 0.970 . S
H236 C247 0.930 . S
H237 C249 0.930 . S
H238 C251 0.930 . S
C239 H231 0.930 . S
C239 C240 1.382 . S
C239 C241 1.426 . S
C240 C239 1.382 . S
C240 C244 1.389 . S
C241 C239 1.426 . S
C241 C242 1.375 . S
C241 C245 1.532 . S
C242 H232 0.930 . S
C242 C241 1.375 . S
C242 C243 1.416 . S
C243 C242 1.416 . S
C243 C244 1.371 . S
C244 H233 0.930 . S
C244 C240 1.389 . S
C244 C243 1.371 . S
C245 H234 0.970 . S
C245 H235 0.970 . S
C245 C241 1.532 . S
C245 C246 1.499 . S
C246 C245 1.499 . S
C246 C247 1.370 . S
C246 C251 1.415 . S
C247 H236 0.930 . S
C247 C246 1.370 . S
C247 C248 1.407 . S
C248 C247 1.407 . S
C248 C249 1.365 . S
C249 H237 0.930 . S
C249 C248 1.365 . S
C249 C250 1.393 . S
C250 C249 1.393 . S
C250 C251 1.387 . S
C251 H238 0.930 . S
C251 C246 1.415 . S
C251 C250 1.387 . S
H252 C260 0.930 . S
H253 C263 0.930 . S
H254 C265 0.930 . S
H255 C266 0.970 . S
H256 C266 0.970 . S
H257 C268 0.930 . S
H258 C270 0.930 . S
H259 C272 0.930 . S
C260 H252 0.930 . S
C260 C261 1.382 . S
C260 C262 1.426 . S
C261 C260 1.382 . S
C261 C265 1.389 . S
C262 C260 1.426 . S
C262 C263 1.375 . S
C262 C266 1.532 1_545 S
C263 H253 0.930 . S
C263 C262 1.375 . S
C263 C264 1.416 . S
C264 C263 1.416 . S
C264 C265 1.371 . S
C265 H254 0.930 . S
C265 C261 1.389 . S
C265 C264 1.371 . S
C266 H255 0.970 . S
C266 H256 0.970 . S
C266 C262 1.532 1_565 S
C266 C267 1.499 . S
C267 C266 1.499 . S
C267 C268 1.370 . S
C267 C272 1.415 . S
C268 H257 0.930 . S
C268 C267 1.370 . S
C268 C269 1.407 . S
C269 C268 1.407 . S
C269 C270 1.365 . S
C270 H258 0.930 . S
C270 C269 1.365 . S
C270 C271 1.393 . S
C271 C270 1.393 . S
C271 C272 1.387 . S
C272 H259 0.930 . S
C272 C267 1.415 . S
C272 C271 1.387 . S
H273 C281 0.930 . S
H274 C284 0.930 . S
H275 C286 0.930 . S
H276 C287 0.970 . S
H277 C287 0.970 . S
H278 C289 0.930 . S
H279 C291 0.930 . S
H280 C293 0.930 . S
C281 H273 0.930 . S
C281 C282 1.382 . S
C281 C283 1.426 . S
C282 C281 1.382 . S
C282 C286 1.389 . S
C283 C281 1.426 . S
C283 C284 1.375 . S
C283 C287 1.532 . S
C284 H274 0.930 . S
C284 C283 1.375 . S
C284 C285 1.416 . S
C285 C284 1.416 . S
C285 C286 1.371 . S
C286 H275 0.930 . S
C286 C282 1.389 . S
C286 C285 1.371 . S
C287 H276 0.970 . S
C287 H277 0.970 . S
C287 C283 1.532 . S
C287 C288 1.499 . S
C288 C287 1.499 . S
C288 C289 1.370 . S
C288 C293 1.415 . S
C289 H278 0.930 . S
C289 C288 1.370 . S
C289 C290 1.407 . S
C290 C289 1.407 . S
C290 C291 1.365 . S
C291 H279 0.930 . S
C291 C290 1.365 . S
C291 C292 1.393 . S
C292 C291 1.393 . S
C292 C293 1.387 . S
C293 H280 0.930 . S
C293 C288 1.415 . S
C293 C292 1.387 . S
H294 C302 0.930 . S
H295 C305 0.930 . S
H296 C307 0.930 . S
H297 C308 0.970 . S
H298 C308 0.970 . S
H299 C310 0.930 . S
H300 C312 0.930 . S
H301 C314 0.930 . S
C302 H294 0.930 . S
C302 C303 1.382 . S
C302 C304 1.426 1_565 S
C303 C302 1.382 . S
C303 C307 1.389 . S
C304 C302 1.426 1_545 S
C304 C305 1.375 1_545 S
C304 C308 1.532 . S
C305 H295 0.930 . S
C305 C304 1.375 1_565 S
C305 C306 1.416 . S
C306 C305 1.416 . S
C306 C307 1.371 . S
C307 H296 0.930 . S
C307 C303 1.389 . S
C307 C306 1.371 . S
C308 H297 0.970 . S
C308 H298 0.970 . S
C308 C304 1.532 . S
C308 C309 1.499 . S
C309 C308 1.499 . S
C309 C310 1.370 . S
C309 C314 1.415 . S
C310 H299 0.930 . S
C310 C309 1.370 . S
C310 C311 1.407 . S
C311 C310 1.407 . S
C311 C312 1.365 . S
C312 H300 0.930 . S
C312 C311 1.365 . S
C312 C313 1.393 . S
C313 C312 1.393 . S
C313 C314 1.387 . S
C314 H301 0.930 . S
C314 C309 1.415 . S
C314 C313 1.387 . S
H315 C323 0.930 . S
H316 C326 0.930 . S
H317 C328 0.930 . S
H318 C329 0.970 . S
H319 C329 0.970 . S
H320 C331 0.930 . S
H321 C333 0.930 . S
H322 C335 0.930 . S
C323 H315 0.930 . S
C323 C324 1.382 . S
C323 C325 1.426 . S
C324 C323 1.382 . S
C324 C328 1.389 . S
C325 C323 1.426 . S
C325 C326 1.375 . S
C325 C329 1.532 . S
C326 H316 0.930 . S
C326 C325 1.375 . S
C326 C327 1.416 . S
C327 C326 1.416 . S
C327 C328 1.371 . S
C328 H317 0.930 . S
C328 C324 1.389 . S
C328 C327 1.371 . S
C329 H318 0.970 . S
C329 H319 0.970 . S
C329 C325 1.532 . S
C329 C330 1.499 . S
C330 C329 1.499 . S
C330 C331 1.370 . S
C330 C335 1.415 . S
C331 H320 0.930 . S
C331 C330 1.370 . S
C331 C332 1.407 1_554 S
C332 C331 1.407 1_556 S
C332 C333 1.365 . S
C333 H321 0.930 . S
C333 C332 1.365 . S
C333 C334 1.393 . S
C334 C333 1.393 . S
C334 C335 1.387 1_556 S
C335 H322 0.930 . S
C335 C330 1.415 . S
C335 C334 1.387 1_554 S
H336 C344 0.930 . S
H337 C347 0.930 . S
H338 C349 0.930 . S
H339 C350 0.970 . S
H340 C350 0.970 . S
H341 C352 0.930 . S
H342 C354 0.930 . S
H343 C356 0.930 . S
C344 H336 0.930 . S
C344 C345 1.382 . S
C344 C346 1.426 . S
C345 C344 1.382 . S
C345 C349 1.389 . S
C346 C344 1.426 . S
C346 C347 1.375 . S
C346 C350 1.532 . S
C347 H337 0.930 . S
C347 C346 1.375 . S
C347 C348 1.416 . S
C348 C347 1.416 . S
C348 C349 1.371 . S
C349 H338 0.930 . S
C349 C345 1.389 . S
C349 C348 1.371 . S
C350 H339 0.970 . S
C350 H340 0.970 . S
C350 C346 1.532 . S
C350 C351 1.499 . S
C351 C350 1.499 . S
C351 C352 1.370 . S
C351 C356 1.415 . S
C352 H341 0.930 . S
C352 C351 1.370 . S
C352 C353 1.407 1_554 S
C353 C352 1.407 1_556 S
C353 C354 1.365 . S
C354 H342 0.930 . S
C354 C353 1.365 . S
C354 C355 1.393 . S
C355 C354 1.393 . S
C355 C356 1.387 1_556 S
C356 H343 0.930 . S
C356 C351 1.415 . S
C356 C355 1.387 1_554 S
H357 C365 0.930 . S
H358 C368 0.930 . S
H359 C370 0.930 . S
H360 C371 0.970 . S
H361 C371 0.970 . S
H362 C373 0.930 . S
H363 C375 0.930 . S
H364 C377 0.930 . S
C365 H357 0.930 . S
C365 C366 1.382 . S
C365 C367 1.426 . S
C366 C365 1.382 . S
C366 C370 1.389 . S
C367 C365 1.426 . S
C367 C368 1.375 . S
C367 C371 1.532 . S
C368 H358 0.930 . S
C368 C367 1.375 . S
C368 C369 1.416 . S
C369 C368 1.416 . S
C369 C370 1.371 . S
C370 H359 0.930 . S
C370 C366 1.389 . S
C370 C369 1.371 . S
C371 H360 0.970 . S
C371 H361 0.970 . S
C371 C367 1.532 . S
C371 C372 1.499 . S
C372 C371 1.499 . S
C372 C373 1.370 . S
C372 C377 1.415 . S
C373 H362 0.930 . S
C373 C372 1.370 . S
C373 C374 1.407 . S
C374 C373 1.407 . S
C374 C375 1.365 . S
C375 H363 0.930 . S
C375 C374 1.365 . S
C375 C376 1.393 . S
C376 C375 1.393 . S
C376 C377 1.387 . S
C377 H364 0.930 . S
C377 C372 1.415 . S
C377 C376 1.387 . S
H378 C386 0.930 . S
H379 C389 0.930 . S
H380 C391 0.930 . S
H381 C392 0.970 . S
H382 C392 0.970 . S
H383 C394 0.930 . S
H384 C396 0.930 . S
H385 C398 0.930 . S
C386 H378 0.930 . S
C386 C387 1.382 . S
C386 C388 1.426 . S
C387 C386 1.382 . S
C387 C391 1.389 . S
C388 C386 1.426 . S
C388 C389 1.375 . S
C388 C392 1.532 . S
C389 H379 0.930 . S
C389 C388 1.375 . S
C389 C390 1.416 . S
C390 C389 1.416 . S
C390 C391 1.371 . S
C391 H380 0.930 . S
C391 C387 1.389 . S
C391 C390 1.371 . S
C392 H381 0.970 . S
C392 H382 0.970 . S
C392 C388 1.532 . S
C392 C393 1.499 . S
C393 C392 1.499 . S
C393 C394 1.370 . S
C393 C398 1.415 . S
C394 H383 0.930 . S
C394 C393 1.370 . S
C394 C395 1.407 . S
C395 C394 1.407 . S
C395 C396 1.365 . S
C396 H384 0.930 . S
C396 C395 1.365 . S
C396 C397 1.393 . S
C397 C396 1.393 . S
C397 C398 1.387 . S
C398 H385 0.930 . S
C398 C393 1.415 . S
C398 C397 1.387 . S
H399 C407 0.930 . S
H400 C410 0.930 . S
H401 C412 0.930 . S
H402 C413 0.970 . S
H403 C413 0.970 . S
H404 C415 0.930 . S
H405 C417 0.930 . S
H406 C419 0.930 . S
C407 H399 0.930 . S
C407 C408 1.382 . S
C407 C409 1.426 . S
C408 C407 1.382 . S
C408 C412 1.389 . S
C409 C407 1.426 . S
C409 C410 1.375 . S
C409 C413 1.532 . S
C410 H400 0.930 . S
C410 C409 1.375 . S
C410 C411 1.416 . S
C411 C410 1.416 . S
C411 C412 1.371 . S
C412 H401 0.930 . S
C412 C408 1.389 . S
C412 C411 1.371 . S
C413 H402 0.970 . S
C413 H403 0.970 . S
C413 C409 1.532 . S
C413 C414 1.499 . S
C414 C413 1.499 . S
C414 C415 1.370 . S
C414 C419 1.415 . S
C415 H404 0.930 . S
C415 C414 1.370 . S
C415 C416 1.407 . S
C416 C415 1.407 . S
C416 C417 1.365 . S
C417 H405 0.930 . S
C417 C416 1.365 . S
C417 C418 1.393 . S
C418 C417 1.393 . S
C418 C419 1.387 . S
C419 H406 0.930 . S
C419 C414 1.415 . S
C419 C418 1.387 . S
H420 C438 0.951 . S
H421 C440 0.951 . S
H422 C442 0.950 . S
H423 C443 0.950 . S
H424 C445 0.950 . S
H425 C448 0.950 . S
H426 C449 0.950 . S
H427 C451 0.950 . S
H428 C452 0.950 . S
H429 C453 0.951 . S
H430 C455 0.951 . S
H431 C457 0.950 . S
H432 C458 0.950 . S
H433 C460 0.950 . S
H434 C463 0.950 . S
H435 C464 0.950 . S
H436 C466 0.949 . S
H437 C467 0.950 . S
C438 H420 0.951 . S
C438 C439 1.366 . S
C438 C440 1.388 . S
C439 C438 1.366 . S
C439 C443 1.385 . S
C440 H421 0.951 . S
C440 C438 1.388 . S
C440 C441 1.366 . S
C441 C440 1.366 . S
C441 C442 1.414 . S
C441 C444 1.499 1_554 S
C442 H422 0.950 . S
C442 C441 1.414 . S
C442 C443 1.374 . S
C443 H423 0.950 . S
C443 C439 1.385 . S
C443 C442 1.374 . S
C444 C441 1.499 1_556 S
C444 C445 1.373 . S
C444 C446 1.389 . S
C445 H424 0.950 . S
C445 C444 1.373 . S
C445 C461 1.377 . S
C446 C444 1.389 . S
C446 C447 1.524 . S
C446 C460 1.377 . S
C447 C446 1.524 . S
C447 C448 1.397 1_556 S
C447 C452 1.363 . S
C448 H425 0.950 . S
C448 C447 1.397 1_554 S
C448 C449 1.334 . S
C449 H426 0.950 . S
C449 C448 1.334 . S
C449 C450 1.287 . S
C450 C449 1.287 . S
C450 C451 1.524 1_554 S
C450 H469 0.913 . S
C451 H427 0.950 . S
C451 C450 1.524 1_556 S
C451 C452 1.415 . S
C452 H428 0.950 . S
C452 C447 1.363 . S
C452 C451 1.415 . S
C453 H429 0.951 . S
C453 C454 1.366 . S
C453 C455 1.388 . S
C454 C453 1.366 . S
C454 C458 1.385 . S
C455 H430 0.951 . S
C455 C453 1.388 . S
C455 C456 1.366 . S
C456 C455 1.366 . S
C456 C457 1.414 . S
C456 C459 1.499 . S
C457 H431 0.950 . S
C457 C456 1.414 . S
C457 C458 1.374 . S
C458 H432 0.950 . S
C458 C454 1.385 . S
C458 C457 1.374 . S
C459 C456 1.499 . S
C459 C460 1.373 . S
C459 C461 1.389 . S
C460 H433 0.950 . S
C460 C446 1.377 . S
C460 C459 1.373 . S
C461 C445 1.377 . S
C461 C459 1.389 . S
C461 C462 1.524 . S
C462 C461 1.524 . S
C462 C463 1.397 . S
C462 C467 1.363 . S
C463 H434 0.950 . S
C463 C462 1.397 . S
C463 C464 1.334 . S
C464 H435 0.950 . S
C464 C463 1.334 . S
C464 C465 1.287 . S
C465 C464 1.287 . S
C465 C466 1.524 . S
C465 H468 0.999 1_455 S
C466 H436 0.949 . S
C466 C465 1.524 . S
C466 C467 1.415 . S
C467 H437 0.950 . S
C467 C462 1.363 . S
C467 C466 1.415 . S
H468 C465 0.999 1_655 S
H469 C450 0.913 . S
H470 C488 0.951 . S
H471 C490 0.951 . S
H472 C492 0.950 . S
H473 C493 0.950 . S
H474 C495 0.950 . S
H475 C498 0.950 . S
H476 C499 0.950 1_455 S
H477 C501 0.950 . S
H478 C502 0.950 . S
H479 C503 0.951 . S
H480 C505 0.951 . S
H481 C507 0.950 . S
H482 C508 0.950 . S
H483 C510 0.950 . S
H484 C513 0.950 . S
H485 C514 0.950 . S
H486 C516 0.950 . S
H487 C517 0.950 . S
C488 H470 0.951 . S
C488 C489 1.366 . S
C488 C490 1.388 . S
C489 C488 1.366 . S
C489 C493 1.385 . S
C490 H471 0.951 . S
C490 C488 1.388 . S
C490 C491 1.366 . S
C491 C490 1.366 . S
C491 C492 1.414 . S
C491 C494 1.499 . S
C492 H472 0.950 . S
C492 C491 1.414 . S
C492 C493 1.374 . S
C493 H473 0.950 . S
C493 C489 1.385 . S
C493 C492 1.374 . S
C494 C491 1.499 . S
C494 C495 1.373 . S
C494 C496 1.389 . S
C495 H474 0.950 . S
C495 C494 1.373 . S
C495 C511 1.377 . S
C496 C494 1.389 . S
C496 C497 1.524 . S
C496 C510 1.377 . S
C497 C496 1.524 . S
C497 C498 1.397 . S
C497 C502 1.363 . S
C498 H475 0.950 . S
C498 C497 1.397 . S
C498 C499 1.334 . S
C499 H476 0.950 1_655 S
C499 C498 1.334 . S
C499 C500 1.287 . S
C500 C499 1.287 . S
C500 C501 1.524 . S
C500 H519 0.913 . S
C501 H477 0.950 . S
C501 C500 1.524 . S
C501 C502 1.415 . S
C502 H478 0.950 . S
C502 C497 1.363 . S
C502 C501 1.415 . S
C503 H479 0.951 . S
C503 C504 1.366 . S
C503 C505 1.388 . S
C504 C503 1.366 . S
C504 C508 1.385 . S
C505 H480 0.951 . S
C505 C503 1.388 . S
C505 C506 1.366 . S
C506 C505 1.366 . S
C506 C507 1.414 . S
C506 C509 1.499 . S
C507 H481 0.950 . S
C507 C506 1.414 . S
C507 C508 1.374 . S
C508 H482 0.950 . S
C508 C504 1.385 . S
C508 C507 1.374 . S
C509 C506 1.499 . S
C509 C510 1.373 . S
C509 C511 1.389 . S
C510 H483 0.950 . S
C510 C496 1.377 . S
C510 C509 1.373 . S
C511 C495 1.377 . S
C511 C509 1.389 . S
C511 C512 1.524 . S
C512 C511 1.524 . S
C512 C513 1.397 . S
C512 C517 1.363 . S
C513 H484 0.950 . S
C513 C512 1.397 . S
C513 C514 1.334 . S
C514 H485 0.950 . S
C514 C513 1.334 . S
C514 C515 1.287 . S
C515 C514 1.287 . S
C515 C516 1.524 . S
C515 H518 0.999 . S
C516 H486 0.950 . S
C516 C515 1.524 . S
C516 C517 1.415 . S
C517 H487 0.950 . S
C517 C512 1.363 . S
C517 C516 1.415 . S
H518 C515 0.999 . S
H519 C500 0.913 . S
H520 C538 0.951 . S
H521 C540 0.951 . S
H522 C542 0.950 . S
H523 C543 0.950 . S
H524 C545 0.950 . S
H525 C548 0.950 . S
H526 C549 0.950 . S
H527 C551 0.950 . S
H528 C552 0.950 . S
H529 C553 0.951 . S
H530 C555 0.951 . S
H531 C557 0.950 . S
H532 C558 0.950 . S
H533 C560 0.950 . S
H534 C563 0.950 . S
H535 C564 0.950 . S
H536 C566 0.950 . S
H537 C567 0.950 . S
C538 H520 0.951 . S
C538 C539 1.366 . S
C538 C540 1.388 . S
C539 C538 1.366 . S
C539 C543 1.385 . S
C540 H521 0.951 . S
C540 C538 1.388 . S
C540 C541 1.366 . S
C541 C540 1.366 . S
C541 C542 1.414 . S
C541 C544 1.499 . S
C542 H522 0.950 . S
C542 C541 1.414 . S
C542 C543 1.374 . S
C543 H523 0.950 . S
C543 C539 1.385 . S
C543 C542 1.374 . S
C544 C541 1.499 . S
C544 C545 1.373 . S
C544 C546 1.389 . S
C545 H524 0.950 . S
C545 C544 1.373 . S
C545 C561 1.377 . S
C546 C544 1.389 . S
C546 C547 1.524 . S
C546 C560 1.377 . S
C547 C546 1.524 . S
C547 C548 1.397 . S
C547 C552 1.363 . S
C548 H525 0.950 . S
C548 C547 1.397 . S
C548 C549 1.334 . S
C549 H526 0.950 . S
C549 C548 1.334 . S
C549 C550 1.287 . S
C550 C549 1.287 . S
C550 C551 1.524 . S
C550 H569 0.913 . S
C551 H527 0.950 . S
C551 C550 1.524 . S
C551 C552 1.415 . S
C552 H528 0.950 . S
C552 C547 1.363 . S
C552 C551 1.415 . S
C553 H529 0.951 . S
C553 C554 1.366 . S
C553 C555 1.388 . S
C554 C553 1.366 . S
C554 C558 1.385 . S
C555 H530 0.951 . S
C555 C553 1.388 . S
C555 C556 1.366 . S
C556 C555 1.366 . S
C556 C557 1.414 . S
C556 C559 1.499 . S
C557 H531 0.950 . S
C557 C556 1.414 . S
C557 C558 1.374 . S
C558 H532 0.950 . S
C558 C554 1.385 . S
C558 C557 1.374 . S
C559 C556 1.499 . S
C559 C560 1.373 . S
C559 C561 1.389 . S
C560 H533 0.950 . S
C560 C546 1.377 . S
C560 C559 1.373 . S
C561 C545 1.377 . S
C561 C559 1.389 . S
C561 C562 1.524 . S
C562 C561 1.524 . S
C562 C563 1.397 . S
C562 C567 1.363 . S
C563 H534 0.950 . S
C563 C562 1.397 . S
C563 C564 1.334 . S
C564 H535 0.950 . S
C564 C563 1.334 . S
C564 C565 1.287 . S
C565 C564 1.287 . S
C565 C566 1.524 . S
C565 H568 0.999 . S
C566 H536 0.950 . S
C566 C565 1.524 . S
C566 C567 1.415 . S
C567 H537 0.950 . S
C567 C562 1.363 . S
C567 C566 1.415 . S
H568 C565 0.999 . S
H569 C550 0.913 . S
H570 C588 0.951 . S
H571 C590 0.951 . S
H572 C592 0.950 . S
H573 C593 0.950 . S
H574 C595 0.950 . S
H575 C598 0.950 . S
H576 C599 0.950 . S
H577 C601 0.950 . S
H578 C602 0.950 . S
H579 C603 0.951 . S
H580 C605 0.951 . S
H581 C607 0.950 . S
H582 C608 0.950 . S
H583 C610 0.950 . S
H584 C613 0.950 . S
H585 C614 0.950 . S
H586 C616 0.950 . S
H587 C617 0.950 . S
C588 H570 0.951 . S
C588 C589 1.366 . S
C588 C590 1.388 . S
C589 C588 1.366 . S
C589 C593 1.385 . S
C590 H571 0.951 . S
C590 C588 1.388 . S
C590 C591 1.366 . S
C591 C590 1.366 . S
C591 C592 1.414 . S
C591 C594 1.499 . S
C592 H572 0.950 . S
C592 C591 1.414 . S
C592 C593 1.374 . S
C593 H573 0.950 . S
C593 C589 1.385 . S
C593 C592 1.374 . S
C594 C591 1.499 . S
C594 C595 1.373 . S
C594 C596 1.389 . S
C595 H574 0.950 . S
C595 C594 1.373 . S
C595 C611 1.377 . S
C596 C594 1.389 . S
C596 C597 1.524 . S
C596 C610 1.377 . S
C597 C596 1.524 . S
C597 C598 1.397 . S
C597 C602 1.363 . S
C598 H575 0.950 . S
C598 C597 1.397 . S
C598 C599 1.334 . S
C599 H576 0.950 . S
C599 C598 1.334 . S
C599 C600 1.287 . S
C600 C599 1.287 . S
C600 C601 1.524 . S
C600 H619 0.913 . S
C601 H577 0.950 . S
C601 C600 1.524 . S
C601 C602 1.415 . S
C602 H578 0.950 . S
C602 C597 1.363 . S
C602 C601 1.415 . S
C603 H579 0.951 . S
C603 C604 1.366 . S
C603 C605 1.388 . S
C604 C603 1.366 . S
C604 C608 1.385 . S
C605 H580 0.951 . S
C605 C603 1.388 . S
C605 C606 1.366 . S
C606 C605 1.366 . S
C606 C607 1.414 . S
C606 C609 1.499 . S
C607 H581 0.950 . S
C607 C606 1.414 . S
C607 C608 1.374 . S
C608 H582 0.950 . S
C608 C604 1.385 . S
C608 C607 1.374 . S
C609 C606 1.499 . S
C609 C610 1.373 . S
C609 C611 1.389 . S
C610 H583 0.950 . S
C610 C596 1.377 . S
C610 C609 1.373 . S
C611 C595 1.377 . S
C611 C609 1.389 . S
C611 C612 1.524 . S
C612 C611 1.524 . S
C612 C613 1.397 . S
C612 C617 1.363 . S
C613 H584 0.950 . S
C613 C612 1.397 . S
C613 C614 1.334 . S
C614 H585 0.950 . S
C614 C613 1.334 . S
C614 C615 1.287 . S
C615 C614 1.287 . S
C615 C616 1.524 . S
C615 H618 0.999 . S
C616 H586 0.950 . S
C616 C615 1.524 . S
C616 C617 1.415 . S
C617 H587 0.950 . S
C617 C612 1.363 . S
C617 C616 1.415 . S
H618 C615 0.999 . S
H619 C600 0.913 . S
H620 C638 0.951 . S
H621 C640 0.951 . S
H622 C642 0.950 . S
H623 C643 0.950 . S
H624 C645 0.950 . S
H625 C648 0.950 . S
H626 C649 0.950 1_655 S
H627 C651 0.950 . S
H628 C652 0.950 . S
H629 C653 0.951 . S
H630 C655 0.951 . S
H631 C657 0.950 . S
H632 C658 0.950 . S
H633 C660 0.950 . S
H634 C663 0.950 . S
H635 C664 0.950 . S
H636 C666 0.950 . S
H637 C667 0.950 . S
C638 H620 0.951 . S
C638 C639 1.366 . S
C638 C640 1.388 . S
C639 C638 1.366 . S
C639 C643 1.385 . S
C640 H621 0.951 . S
C640 C638 1.388 . S
C640 C641 1.366 . S
C641 C640 1.366 . S
C641 C642 1.414 . S
C641 C644 1.499 . S
C642 H622 0.950 . S
C642 C641 1.414 . S
C642 C643 1.374 . S
C643 H623 0.950 . S
C643 C639 1.385 . S
C643 C642 1.374 . S
C644 C641 1.499 . S
C644 C645 1.373 . S
C644 C646 1.389 . S
C645 H624 0.950 . S
C645 C644 1.373 . S
C645 C661 1.377 . S
C646 C644 1.389 . S
C646 C647 1.524 . S
C646 C660 1.377 . S
C647 C646 1.524 . S
C647 C648 1.397 . S
C647 C652 1.363 . S
C648 H625 0.950 . S
C648 C647 1.397 . S
C648 C649 1.334 . S
C649 H626 0.950 1_455 S
C649 C648 1.334 . S
C649 C650 1.287 . S
C650 C649 1.287 . S
C650 C651 1.524 . S
C650 H669 0.913 . S
C651 H627 0.950 . S
C651 C650 1.524 . S
C651 C652 1.415 . S
C652 H628 0.950 . S
C652 C647 1.363 . S
C652 C651 1.415 . S
C653 H629 0.951 . S
C653 C654 1.366 . S
C653 C655 1.388 . S
C654 C653 1.366 . S
C654 C658 1.385 . S
C655 H630 0.951 . S
C655 C653 1.388 . S
C655 C656 1.366 . S
C656 C655 1.366 . S
C656 C657 1.414 . S
C656 C659 1.499 . S
C657 H631 0.950 . S
C657 C656 1.414 . S
C657 C658 1.374 . S
C658 H632 0.950 . S
C658 C654 1.385 . S
C658 C657 1.374 . S
C659 C656 1.499 . S
C659 C660 1.373 . S
C659 C661 1.389 . S
C660 H633 0.950 . S
C660 C646 1.377 . S
C660 C659 1.373 . S
C661 C645 1.377 . S
C661 C659 1.389 . S
C661 C662 1.524 . S
C662 C661 1.524 . S
C662 C663 1.397 . S
C662 C667 1.363 . S
C663 H634 0.950 . S
C663 C662 1.397 . S
C663 C664 1.334 . S
C664 H635 0.950 . S
C664 C663 1.334 . S
C664 C665 1.287 . S
C665 C664 1.287 . S
C665 C666 1.524 . S
C665 H668 0.999 . S
C666 H636 0.950 . S
C666 C665 1.524 . S
C666 C667 1.415 . S
C667 H637 0.950 . S
C667 C662 1.363 . S
C667 C666 1.415 . S
H668 C665 0.999 . S
H669 C650 0.913 . S
H670 C688 0.951 . S
H671 C690 0.951 . S
H672 C692 0.950 . S
H673 C693 0.950 . S
H674 C695 0.950 . S
H675 C698 0.950 . S
H676 C699 0.950 . S
H677 C701 0.950 . S
H678 C702 0.950 . S
H679 C703 0.951 . S
H680 C705 0.951 . S
H681 C707 0.950 . S
H682 C708 0.950 . S
H683 C710 0.950 . S
H684 C713 0.950 . S
H685 C714 0.950 . S
H686 C716 0.950 . S
H687 C717 0.950 . S
C688 H670 0.951 . S
C688 C689 1.366 . S
C688 C690 1.388 . S
C689 C688 1.366 . S
C689 C693 1.385 . S
C690 H671 0.951 . S
C690 C688 1.388 . S
C690 C691 1.366 . S
C691 C690 1.366 . S
C691 C692 1.414 . S
C691 C694 1.499 . S
C692 H672 0.950 . S
C692 C691 1.414 . S
C692 C693 1.374 . S
C693 H673 0.950 . S
C693 C689 1.385 . S
C693 C692 1.374 . S
C694 C691 1.499 . S
C694 C695 1.373 . S
C694 C696 1.389 . S
C695 H674 0.950 . S
C695 C694 1.373 . S
C695 C711 1.377 . S
C696 C694 1.389 . S
C696 C697 1.524 . S
C696 C710 1.377 . S
C697 C696 1.524 . S
C697 C698 1.397 . S
C697 C702 1.363 . S
C698 H675 0.950 . S
C698 C697 1.397 . S
C698 C699 1.334 . S
C699 H676 0.950 . S
C699 C698 1.334 . S
C699 C700 1.287 . S
C700 C699 1.287 . S
C700 C701 1.524 . S
C700 H719 0.913 . S
C701 H677 0.950 . S
C701 C700 1.524 . S
C701 C702 1.415 . S
C702 H678 0.950 . S
C702 C697 1.363 . S
C702 C701 1.415 . S
C703 H679 0.951 . S
C703 C704 1.366 . S
C703 C705 1.388 . S
C704 C703 1.366 . S
C704 C708 1.385 . S
C705 H680 0.951 . S
C705 C703 1.388 . S
C705 C706 1.366 . S
C706 C705 1.366 . S
C706 C707 1.414 . S
C706 C709 1.499 . S
C707 H681 0.950 . S
C707 C706 1.414 . S
C707 C708 1.374 . S
C708 H682 0.950 . S
C708 C704 1.385 . S
C708 C707 1.374 . S
C709 C706 1.499 . S
C709 C710 1.373 . S
C709 C711 1.389 . S
C710 H683 0.950 . S
C710 C696 1.377 . S
C710 C709 1.373 . S
C711 C695 1.377 . S
C711 C709 1.389 . S
C711 C712 1.524 . S
C712 C711 1.524 . S
C712 C713 1.397 . S
C712 C717 1.363 . S
C713 H684 0.950 . S
C713 C712 1.397 . S
C713 C714 1.334 . S
C714 H685 0.950 . S
C714 C713 1.334 . S
C714 C715 1.287 . S
C715 C714 1.287 . S
C715 C716 1.524 . S
C715 H718 0.999 . S
C716 H686 0.950 . S
C716 C715 1.524 . S
C716 C717 1.415 . S
C717 H687 0.950 . S
C717 C712 1.363 . S
C717 C716 1.415 . S
H718 C715 0.999 . S
H719 C700 0.913 . S
H720 C738 0.951 . S
H721 C740 0.951 . S
H722 C742 0.950 . S
H723 C743 0.950 . S
H724 C745 0.950 . S
H725 C748 0.950 . S
H726 C749 0.950 . S
H727 C751 0.950 . S
H728 C752 0.950 . S
H729 C753 0.951 . S
H730 C755 0.951 . S
H731 C757 0.950 . S
H732 C758 0.950 . S
H733 C760 0.950 . S
H734 C763 0.950 . S
H735 C764 0.950 . S
H736 C766 0.950 . S
H737 C767 0.950 . S
C738 H720 0.951 . S
C738 C739 1.366 . S
C738 C740 1.388 1_556 S
C739 C738 1.366 . S
C739 C743 1.385 . S
C740 H721 0.951 . S
C740 C738 1.388 1_554 S
C740 C741 1.366 . S
C741 C740 1.366 . S
C741 C742 1.414 . S
C741 C744 1.499 . S
C742 H722 0.950 . S
C742 C741 1.414 . S
C742 C743 1.374 1_554 S
C743 H723 0.950 . S
C743 C739 1.385 . S
C743 C742 1.374 1_556 S
C744 C741 1.499 . S
C744 C745 1.373 . S
C744 C746 1.389 . S
C745 H724 0.950 . S
C745 C744 1.373 . S
C745 C761 1.377 . S
C746 C744 1.389 . S
C746 C747 1.524 . S
C746 C760 1.377 . S
C747 C746 1.524 . S
C747 C748 1.397 . S
C747 C752 1.363 . S
C748 H725 0.950 . S
C748 C747 1.397 . S
C748 C749 1.334 1_554 S
C749 H726 0.950 . S
C749 C748 1.334 1_556 S
C749 C750 1.287 . S
C750 C749 1.287 . S
C750 C751 1.524 1_556 S
C750 H769 0.913 . S
C751 H727 0.950 . S
C751 C750 1.524 1_554 S
C751 C752 1.415 . S
C752 H728 0.950 . S
C752 C747 1.363 . S
C752 C751 1.415 . S
C753 H729 0.951 . S
C753 C754 1.366 . S
C753 C755 1.388 . S
C754 C753 1.366 . S
C754 C758 1.385 . S
C755 H730 0.951 . S
C755 C753 1.388 . S
C755 C756 1.366 . S
C756 C755 1.366 . S
C756 C757 1.414 . S
C756 C759 1.499 . S
C757 H731 0.950 . S
C757 C756 1.414 . S
C757 C758 1.374 . S
C758 H732 0.950 . S
C758 C754 1.385 . S
C758 C757 1.374 . S
C759 C756 1.499 . S
C759 C760 1.373 . S
C759 C761 1.389 . S
C760 H733 0.950 . S
C760 C746 1.377 . S
C760 C759 1.373 . S
C761 C745 1.377 . S
C761 C759 1.389 . S
C761 C762 1.524 . S
C762 C761 1.524 . S
C762 C763 1.397 . S
C762 C767 1.363 . S
C763 H734 0.950 . S
C763 C762 1.397 . S
C763 C764 1.334 . S
C764 H735 0.950 . S
C764 C763 1.334 . S
C764 C765 1.287 . S
C765 C764 1.287 . S
C765 C766 1.524 . S
C765 H768 0.999 . S
C766 H736 0.950 . S
C766 C765 1.524 . S
C766 C767 1.415 . S
C767 H737 0.950 . S
C767 C762 1.363 . S
C767 C766 1.415 . S
H768 C765 0.999 . S
H769 C750 0.913 . S
H770 C788 0.951 . S
H771 C790 0.951 . S
H772 C792 0.950 . S
H773 C793 0.950 . S
H774 C795 0.950 . S
H775 C798 0.950 . S
H776 C799 0.950 . S
H777 C801 0.950 . S
H778 C802 0.950 . S
H779 C803 0.951 . S
H780 C805 0.951 . S
H781 C807 0.950 . S
H782 C808 0.950 . S
H783 C810 0.950 . S
H784 C813 0.950 . S
H785 C814 0.950 . S
H786 C816 0.950 . S
H787 C817 0.950 . S
C788 H770 0.951 . S
C788 C789 1.366 . S
C788 C790 1.388 . S
C789 C788 1.366 . S
C789 C793 1.385 . S
C790 H771 0.951 . S
C790 C788 1.388 . S
C790 C791 1.366 . S
C791 C790 1.366 . S
C791 C792 1.414 . S
C791 C794 1.499 . S
C792 H772 0.950 . S
C792 C791 1.414 . S
C792 C793 1.374 . S
C793 H773 0.950 . S
C793 C789 1.385 . S
C793 C792 1.374 . S
C794 C791 1.499 . S
C794 C795 1.373 . S
C794 C796 1.389 . S
C795 H774 0.950 . S
C795 C794 1.373 . S
C795 C811 1.377 . S
C796 C794 1.389 . S
C796 C797 1.524 . S
C796 C810 1.377 . S
C797 C796 1.524 . S
C797 C798 1.397 . S
C797 C802 1.363 . S
C798 H775 0.950 . S
C798 C797 1.397 . S
C798 C799 1.334 . S
C799 H776 0.950 . S
C799 C798 1.334 . S
C799 C800 1.287 . S
C800 C799 1.287 . S
C800 C801 1.524 . S
C800 H819 0.913 . S
C801 H777 0.950 . S
C801 C800 1.524 . S
C801 C802 1.415 . S
C802 H778 0.950 . S
C802 C797 1.363 . S
C802 C801 1.415 . S
C803 H779 0.951 . S
C803 C804 1.366 . S
C803 C805 1.388 . S
C804 C803 1.366 . S
C804 C808 1.385 . S
C805 H780 0.951 . S
C805 C803 1.388 . S
C805 C806 1.366 . S
C806 C805 1.366 . S
C806 C807 1.414 . S
C806 C809 1.499 . S
C807 H781 0.950 . S
C807 C806 1.414 . S
C807 C808 1.374 . S
C808 H782 0.950 . S
C808 C804 1.385 . S
C808 C807 1.374 . S
C809 C806 1.499 . S
C809 C810 1.373 . S
C809 C811 1.389 . S
C810 H783 0.950 . S
C810 C796 1.377 . S
C810 C809 1.373 . S
C811 C795 1.377 . S
C811 C809 1.389 . S
C811 C812 1.524 . S
C812 C811 1.524 . S
C812 C813 1.397 . S
C812 C817 1.363 . S
C813 H784 0.950 . S
C813 C812 1.397 . S
C813 C814 1.334 . S
C814 H785 0.950 . S
C814 C813 1.334 . S
C814 C815 1.287 . S
C815 C814 1.287 . S
C815 C816 1.524 . S
C815 H818 0.999 . S
C816 H786 0.950 . S
C816 C815 1.524 . S
C816 C817 1.415 . S
C817 H787 0.950 . S
C817 C812 1.363 . S
C817 C816 1.415 . S
H818 C815 0.999 . S
H819 C800 0.913 . S
H820 C838 0.951 . S
H821 C840 0.951 1_655 S
H822 C842 0.950 . S
H823 C843 0.950 . S
H824 C845 0.950 . S
H825 C848 0.950 . S
H826 C849 0.950 . S
H827 C851 0.950 . S
H828 C852 0.950 . S
H829 C853 0.951 . S
H830 C855 0.951 . S
H831 C857 0.950 . S
H832 C858 0.950 . S
H833 C860 0.950 . S
H834 C863 0.950 . S
H835 C864 0.950 . S
H836 C866 0.950 . S
H837 C867 0.950 . S
C838 H820 0.951 . S
C838 C839 1.366 . S
C838 C840 1.388 . S
C839 C838 1.366 . S
C839 C843 1.385 . S
C840 H821 0.951 1_455 S
C840 C838 1.388 . S
C840 C841 1.366 . S
C841 C840 1.366 . S
C841 C842 1.414 . S
C841 C844 1.499 1_455 S
C842 H822 0.950 . S
C842 C841 1.414 . S
C842 C843 1.374 . S
C843 H823 0.950 . S
C843 C839 1.385 . S
C843 C842 1.374 . S
C844 C841 1.499 1_655 S
C844 C845 1.373 . S
C844 C846 1.389 . S
C845 H824 0.950 . S
C845 C844 1.373 . S
C845 C861 1.377 . S
C846 C844 1.389 . S
C846 C847 1.524 . S
C846 C860 1.377 . S
C847 C846 1.524 . S
C847 C848 1.397 1_655 S
C847 C852 1.363 . S
C848 H825 0.950 . S
C848 C847 1.397 1_455 S
C848 C849 1.334 . S
C849 H826 0.950 . S
C849 C848 1.334 . S
C849 C850 1.276 1_455 S
C850 C849 1.276 1_655 S
C850 C851 1.540 . S
C850 H869 0.906 1_655 S
C851 H827 0.950 . S
C851 C850 1.540 . S
C851 C852 1.415 . S
C852 H828 0.950 . S
C852 C847 1.363 . S
C852 C851 1.415 . S
C853 H829 0.951 . S
C853 C854 1.366 . S
C853 C855 1.388 . S
C854 C853 1.366 . S
C854 C858 1.385 . S
C855 H830 0.951 . S
C855 C853 1.388 . S
C855 C856 1.366 . S
C856 C855 1.366 . S
C856 C857 1.414 . S
C856 C859 1.499 . S
C857 H831 0.950 . S
C857 C856 1.414 . S
C857 C858 1.374 . S
C858 H832 0.950 . S
C858 C854 1.385 . S
C858 C857 1.374 . S
C859 C856 1.499 . S
C859 C860 1.373 . S
C859 C861 1.389 . S
C860 H833 0.950 . S
C860 C846 1.377 . S
C860 C859 1.373 . S
C861 C845 1.377 . S
C861 C859 1.389 . S
C861 C862 1.524 . S
C862 C861 1.524 . S
C862 C863 1.397 . S
C862 C867 1.363 . S
C863 H834 0.950 . S
C863 C862 1.397 . S
C863 C864 1.334 . S
C864 H835 0.950 . S
C864 C863 1.334 . S
C864 C865 1.287 . S
C865 C864 1.287 . S
C865 C866 1.524 . S
C865 H868 0.999 . S
C866 H836 0.950 . S
C866 C865 1.524 . S
C866 C867 1.415 . S
C867 H837 0.950 . S
C867 C862 1.363 . S
C867 C866 1.415 . S
H868 C865 0.999 . S
H869 C850 0.906 1_455 S
H870 C888 0.951 . S
H871 C890 0.951 . S
H872 C892 0.950 . S
H873 C893 0.950 . S
H874 C895 0.950 . S
H875 C898 0.950 . S
H876 C899 0.950 . S
H877 C901 0.950 . S
H878 C902 0.950 . S
H879 C903 0.951 . S
H880 C905 0.951 . S
H881 C907 0.950 . S
H882 C908 0.950 . S
H883 C910 0.950 . S
H884 C913 0.950 . S
H885 C914 0.950 . S
H886 C916 0.950 . S
H887 C917 0.950 . S
C888 H870 0.951 . S
C888 C889 1.366 . S
C888 C890 1.388 . S
C889 C888 1.366 . S
C889 C893 1.385 . S
C890 H871 0.951 . S
C890 C888 1.388 . S
C890 C891 1.366 . S
C891 C890 1.366 . S
C891 C892 1.414 . S
C891 C894 1.499 . S
C892 H872 0.950 . S
C892 C891 1.414 . S
C892 C893 1.374 . S
C893 H873 0.950 . S
C893 C889 1.385 . S
C893 C892 1.374 . S
C894 C891 1.499 . S
C894 C895 1.373 . S
C894 C896 1.389 . S
C895 H874 0.950 . S
C895 C894 1.373 . S
C895 C911 1.377 . S
C896 C894 1.389 . S
C896 C897 1.524 . S
C896 C910 1.377 . S
C897 C896 1.524 . S
C897 C898 1.397 . S
C897 C902 1.363 . S
C898 H875 0.950 . S
C898 C897 1.397 . S
C898 C899 1.334 . S
C899 H876 0.950 . S
C899 C898 1.334 . S
C899 C900 1.287 . S
C900 C899 1.287 . S
C900 C901 1.524 . S
C900 H919 0.913 . S
C901 H877 0.950 . S
C901 C900 1.524 . S
C901 C902 1.415 . S
C902 H878 0.950 . S
C902 C897 1.363 . S
C902 C901 1.415 . S
C903 H879 0.951 . S
C903 C904 1.366 . S
C903 C905 1.388 . S
C904 C903 1.366 . S
C904 C908 1.385 . S
C905 H880 0.951 . S
C905 C903 1.388 . S
C905 C906 1.366 . S
C906 C905 1.366 . S
C906 C907 1.414 . S
C906 C909 1.499 . S
C907 H881 0.950 . S
C907 C906 1.414 . S
C907 C908 1.374 . S
C908 H882 0.950 . S
C908 C904 1.385 . S
C908 C907 1.374 . S
C909 C906 1.499 . S
C909 C910 1.373 . S
C909 C911 1.389 . S
C910 H883 0.950 . S
C910 C896 1.377 . S
C910 C909 1.373 . S
C911 C895 1.377 . S
C911 C909 1.389 . S
C911 C912 1.524 . S
C912 C911 1.524 . S
C912 C913 1.397 . S
C912 C917 1.363 . S
C913 H884 0.950 . S
C913 C912 1.397 . S
C913 C914 1.334 . S
C914 H885 0.950 . S
C914 C913 1.334 . S
C914 C915 1.287 . S
C915 C914 1.287 . S
C915 C916 1.524 . S
C915 H918 0.999 . S
C916 H886 0.950 . S
C916 C915 1.524 . S
C916 C917 1.415 . S
C917 H887 0.950 . S
C917 C912 1.363 . S
C917 C916 1.415 . S
H918 C915 0.999 . S
H919 C900 0.913 . S
H920 C938 0.951 . S
H921 C940 0.951 . S
H922 C942 0.950 . S
H923 C943 0.950 . S
H924 C945 0.942 1_545 S
H925 C948 0.950 . S
H926 C949 0.950 . S
H927 C951 0.950 . S
H928 C952 0.950 . S
H929 C953 0.951 . S
H930 C955 0.951 . S
H931 C957 0.950 . S
H932 C958 0.950 . S
H933 C960 0.950 . S
H934 C963 0.950 . S
H935 C964 0.950 . S
H936 C966 0.950 . S
H937 C967 0.950 . S
C938 H920 0.951 . S
C938 C939 1.366 1_565 S
C938 C940 1.388 . S
C939 C938 1.366 1_545 S
C939 C943 1.385 . S
C940 H921 0.951 . S
C940 C938 1.388 . S
C940 C941 1.366 . S
C941 C940 1.366 . S
C941 C942 1.414 1_565 S
C941 C944 1.499 . S
C942 H922 0.950 . S
C942 C941 1.414 1_545 S
C942 C943 1.374 . S
C943 H923 0.950 . S
C943 C939 1.385 . S
C943 C942 1.374 . S
C944 C941 1.499 . S
C944 C945 1.373 . S
C944 C946 1.389 . S
C945 H924 0.942 1_565 S
C945 C944 1.373 . S
C945 C961 1.377 . S
C946 C944 1.389 . S
C946 C947 1.524 . S
C946 C960 1.377 . S
C947 C946 1.524 . S
C947 C948 1.397 . S
C947 C952 1.363 . S
C948 H925 0.950 . S
C948 C947 1.397 . S
C948 C949 1.334 . S
C949 H926 0.950 . S
C949 C948 1.334 . S
C949 C950 1.287 . S
C950 C949 1.287 . S
C950 C951 1.524 . S
C950 H969 0.913 . S
C951 H927 0.950 . S
C951 C950 1.524 . S
C951 C952 1.415 . S
C952 H928 0.950 . S
C952 C947 1.363 . S
C952 C951 1.415 . S
C953 H929 0.951 . S
C953 C954 1.366 . S
C953 C955 1.388 . S
C954 C953 1.366 . S
C954 C958 1.385 . S
C955 H930 0.951 . S
C955 C953 1.388 . S
C955 C956 1.366 . S
C956 C955 1.366 . S
C956 C957 1.414 . S
C956 C959 1.499 . S
C957 H931 0.950 . S
C957 C956 1.414 . S
C957 C958 1.374 . S
C958 H932 0.950 . S
C958 C954 1.385 . S
C958 C957 1.374 . S
C959 C956 1.499 . S
C959 C960 1.373 . S
C959 C961 1.389 . S
C960 H933 0.950 . S
C960 C946 1.377 . S
C960 C959 1.373 . S
C961 C945 1.377 . S
C961 C959 1.389 . S
C961 C962 1.524 . S
C962 C961 1.524 . S
C962 C963 1.397 . S
C962 C967 1.363 1_565 S
C963 H934 0.950 . S
C963 C962 1.397 . S
C963 C964 1.334 . S
C964 H935 0.950 . S
C964 C963 1.334 . S
C964 C965 1.287 1_565 S
C965 C964 1.287 1_545 S
C965 C966 1.524 . S
C965 H968 0.999 . S
C966 H936 0.950 . S
C966 C965 1.524 . S
C966 C967 1.415 . S
C967 H937 0.950 . S
C967 C962 1.363 1_545 S
C967 C966 1.415 . S
H968 C965 0.999 . S
H969 C950 0.913 . S
H970 C988 0.951 . S
H971 C990 0.951 . S
H972 C992 0.950 . S
H973 C993 0.950 . S
H974 C995 0.950 . S
H975 C998 0.950 . S
H976 C999 0.950 . S
H977 C1001 0.950 . S
H978 C1002 0.950 . S
H979 C1003 0.951 . S
H980 C1005 0.951 . S
H981 C1007 0.950 . S
H982 C1008 0.950 . S
H983 C1010 0.950 . S
H984 C1013 0.950 . S
H985 C1014 0.950 . S
H986 C1016 0.950 . S
H987 C1017 0.950 . S
C988 H970 0.951 . S
C988 C989 1.366 . S
C988 C990 1.388 . S
C989 C988 1.366 . S
C989 C993 1.385 . S
C990 H971 0.951 . S
C990 C988 1.388 . S
C990 C991 1.366 . S
C991 C990 1.366 . S
C991 C992 1.414 . S
C991 C994 1.499 . S
C992 H972 0.950 . S
C992 C991 1.414 . S
C992 C993 1.374 . S
C993 H973 0.950 . S
C993 C989 1.385 . S
C993 C992 1.374 . S
C994 C991 1.499 . S
C994 C995 1.373 . S
C994 C996 1.389 . S
C995 H974 0.950 . S
C995 C994 1.373 . S
C995 C1011 1.377 . S
C996 C994 1.389 . S
C996 C997 1.524 . S
C996 C1010 1.377 . S
C997 C996 1.524 . S
C997 C998 1.397 . S
C997 C1002 1.363 . S
C998 H975 0.950 . S
C998 C997 1.397 . S
C998 C999 1.334 . S
C999 H976 0.950 . S
C999 C998 1.334 . S
C999 C1000 1.287 . S
C1000 C999 1.287 . S
C1000 C1001 1.524 . S
C1000 H1019 0.913 . S
C1001 H977 0.950 . S
C1001 C1000 1.524 . S
C1001 C1002 1.415 . S
C1002 H978 0.950 . S
C1002 C997 1.363 . S
C1002 C1001 1.415 . S
C1003 H979 0.951 . S
C1003 C1004 1.366 . S
C1003 C1005 1.388 . S
C1004 C1003 1.366 . S
C1004 C1008 1.385 . S
C1005 H980 0.951 . S
C1005 C1003 1.388 . S
C1005 C1006 1.366 . S
C1006 C1005 1.366 . S
C1006 C1007 1.414 . S
C1006 C1009 1.499 . S
C1007 H981 0.950 . S
C1007 C1006 1.414 . S
C1007 C1008 1.374 . S
C1008 H982 0.950 . S
C1008 C1004 1.385 . S
C1008 C1007 1.374 . S
C1009 C1006 1.499 . S
C1009 C1010 1.373 . S
C1009 C1011 1.389 . S
C1010 H983 0.950 . S
C1010 C996 1.377 . S
C1010 C1009 1.373 . S
C1011 C995 1.377 . S
C1011 C1009 1.389 . S
C1011 C1012 1.524 . S
C1012 C1011 1.524 . S
C1012 C1013 1.397 . S
C1012 C1017 1.363 . S
C1013 H984 0.950 . S
C1013 C1012 1.397 . S
C1013 C1014 1.334 . S
C1014 H985 0.950 . S
C1014 C1013 1.334 . S
C1014 C1015 1.287 . S
C1015 C1014 1.287 . S
C1015 C1016 1.524 . S
C1015 H1018 0.999 . S
C1016 H986 0.950 . S
C1016 C1015 1.524 . S
C1016 C1017 1.415 . S
C1017 H987 0.950 . S
C1017 C1012 1.363 . S
C1017 C1016 1.415 . S
H1018 C1015 0.999 . S
H1019 C1000 0.913 . S
H1020 C1038 0.951 1_545 S
H1021 C1040 0.951 . S
H1022 C1042 0.950 . S
H1023 C1043 0.950 . S
H1024 C1045 0.950 . S
H1025 C1048 0.950 1_565 S
H1026 C1049 0.950 . S
H1027 C1051 0.950 . S
H1028 C1052 0.950 . S
H1029 C1053 0.951 . S
H1030 C1055 0.951 . S
H1031 C1057 0.950 . S
H1032 C1058 0.950 . S
H1033 C1060 0.950 . S
H1034 C1063 0.950 . S
H1035 C1064 0.950 . S
H1036 C1066 0.950 . S
H1037 C1067 0.950 . S
C1038 H1020 0.951 1_565 S
C1038 C1039 1.366 . S
C1038 C1040 1.388 . S
C1039 C1038 1.366 . S
C1039 C1043 1.385 . S
C1040 H1021 0.951 . S
C1040 C1038 1.388 . S
C1040 C1041 1.366 . S
C1041 C1040 1.366 . S
C1041 C1042 1.414 . S
C1041 C1044 1.499 1_455 S
C1042 H1022 0.950 . S
C1042 C1041 1.414 . S
C1042 C1043 1.374 . S
C1043 H1023 0.950 . S
C1043 C1039 1.385 . S
C1043 C1042 1.374 . S
C1044 C1041 1.499 1_655 S
C1044 C1045 1.373 . S
C1044 C1046 1.389 . S
C1045 H1024 0.950 . S
C1045 C1044 1.373 . S
C1045 C1061 1.377 . S
C1046 C1044 1.389 . S
C1046 C1047 1.524 . S
C1046 C1060 1.377 . S
C1047 C1046 1.524 . S
C1047 C1048 1.397 1_565 S
C1047 C1052 1.363 1_565 S
C1048 H1025 0.950 1_545 S
C1048 C1047 1.397 1_545 S
C1048 C1049 1.334 . S
C1049 H1026 0.950 . S
C1049 C1048 1.334 . S
C1049 C1050 1.287 . S
C1050 C1049 1.287 . S
C1050 C1051 1.524 . S
C1050 H1069 0.913 . S
C1051 H1027 0.950 . S
C1051 C1050 1.524 . S
C1051 C1052 1.415 . S
C1052 H1028 0.950 . S
C1052 C1047 1.363 1_545 S
C1052 C1051 1.415 . S
C1053 H1029 0.951 . S
C1053 C1054 1.366 . S
C1053 C1055 1.388 . S
C1054 C1053 1.366 . S
C1054 C1058 1.385 . S
C1055 H1030 0.951 . S
C1055 C1053 1.388 . S
C1055 C1056 1.366 . S
C1056 C1055 1.366 . S
C1056 C1057 1.414 . S
C1056 C1059 1.499 . S
C1057 H1031 0.950 . S
C1057 C1056 1.414 . S
C1057 C1058 1.374 . S
C1058 H1032 0.950 . S
C1058 C1054 1.385 . S
C1058 C1057 1.374 . S
C1059 C1056 1.499 . S
C1059 C1060 1.373 . S
C1059 C1061 1.389 . S
C1060 H1033 0.950 . S
C1060 C1046 1.377 . S
C1060 C1059 1.373 . S
C1061 C1045 1.377 . S
C1061 C1059 1.389 . S
C1061 C1062 1.524 . S
C1062 C1061 1.524 . S
C1062 C1063 1.397 . S
C1062 C1067 1.363 . S
C1063 H1034 0.950 . S
C1063 C1062 1.397 . S
C1063 C1064 1.334 . S
C1064 H1035 0.950 . S
C1064 C1063 1.334 . S
C1064 C1065 1.287 . S
C1065 C1064 1.287 . S
C1065 C1066 1.524 . S
C1065 H1068 0.999 . S
C1066 H1036 0.950 . S
C1066 C1065 1.524 . S
C1066 C1067 1.415 . S
C1067 H1037 0.950 . S
C1067 C1062 1.363 . S
C1067 C1066 1.415 . S
H1068 C1065 0.999 . S
H1069 C1050 0.913 . S
H1070 C1088 0.951 . S
H1071 C1090 0.951 . S
H1072 C1092 0.950 . S
H1073 C1093 0.950 . S
H1074 C1095 0.950 . S
H1075 C1098 0.950 . S
H1076 C1099 0.950 . S
H1077 C1101 0.950 . S
H1078 C1102 0.950 . S
H1079 C1103 0.951 . S
H1080 C1105 0.951 . S
H1081 C1107 0.950 . S
H1082 C1108 0.950 . S
H1083 C1110 0.950 . S
H1084 C1113 0.950 . S
H1085 C1114 0.950 . S
H1086 C1116 0.950 . S
H1087 C1117 0.950 . S
C1088 H1070 0.951 . S
C1088 C1089 1.366 . S
C1088 C1090 1.388 . S
C1089 C1088 1.366 . S
C1089 C1093 1.385 . S
C1090 H1071 0.951 . S
C1090 C1088 1.388 . S
C1090 C1091 1.366 . S
C1091 C1090 1.366 . S
C1091 C1092 1.414 . S
C1091 C1094 1.499 . S
C1092 H1072 0.950 . S
C1092 C1091 1.414 . S
C1092 C1093 1.374 . S
C1093 H1073 0.950 . S
C1093 C1089 1.385 . S
C1093 C1092 1.374 . S
C1094 C1091 1.499 . S
C1094 C1095 1.373 . S
C1094 C1096 1.389 . S
C1095 H1074 0.950 . S
C1095 C1094 1.373 . S
C1095 C1111 1.377 . S
C1096 C1094 1.389 . S
C1096 C1097 1.524 . S
C1096 C1110 1.377 . S
C1097 C1096 1.524 . S
C1097 C1098 1.397 . S
C1097 C1102 1.363 . S
C1098 H1075 0.950 . S
C1098 C1097 1.397 . S
C1098 C1099 1.334 . S
C1099 H1076 0.950 . S
C1099 C1098 1.334 . S
C1099 C1100 1.287 . S
C1100 C1099 1.287 . S
C1100 C1101 1.524 . S
C1100 H1119 0.913 . S
C1101 H1077 0.950 . S
C1101 C1100 1.524 . S
C1101 C1102 1.415 . S
C1102 H1078 0.950 . S
C1102 C1097 1.363 . S
C1102 C1101 1.415 . S
C1103 H1079 0.951 . S
C1103 C1104 1.366 . S
C1103 C1105 1.388 . S
C1104 C1103 1.366 . S
C1104 C1108 1.385 . S
C1105 H1080 0.951 . S
C1105 C1103 1.388 . S
C1105 C1106 1.366 . S
C1106 C1105 1.366 . S
C1106 C1107 1.414 . S
C1106 C1109 1.499 . S
C1107 H1081 0.950 . S
C1107 C1106 1.414 . S
C1107 C1108 1.374 . S
C1108 H1082 0.950 . S
C1108 C1104 1.385 . S
C1108 C1107 1.374 . S
C1109 C1106 1.499 . S
C1109 C1110 1.373 . S
C1109 C1111 1.389 . S
C1110 H1083 0.950 . S
C1110 C1096 1.377 . S
C1110 C1109 1.373 . S
C1111 C1095 1.377 . S
C1111 C1109 1.389 . S
C1111 C1112 1.524 . S
C1112 C1111 1.524 . S
C1112 C1113 1.397 . S
C1112 C1117 1.363 . S
C1113 H1084 0.950 . S
C1113 C1112 1.397 . S
C1113 C1114 1.334 . S
C1114 H1085 0.950 . S
C1114 C1113 1.334 . S
C1114 C1115 1.287 . S
C1115 C1114 1.287 . S
C1115 C1116 1.524 . S
C1115 H1118 0.999 . S
C1116 H1086 0.950 . S
C1116 C1115 1.524 . S
C1116 C1117 1.415 . S
C1117 H1087 0.950 . S
C1117 C1112 1.363 . S
C1117 C1116 1.415 . S
H1118 C1115 0.999 . S
H1119 C1100 0.913 . S
H1120 C1138 0.951 . S
H1121 C1140 0.951 . S
H1122 C1142 0.950 . S
H1123 C1143 0.950 . S
H1124 C1145 0.950 . S
H1125 C1148 0.950 . S
H1126 C1149 0.950 . S
H1127 C1151 0.950 . S
H1128 C1152 0.950 . S
H1129 C1153 0.951 . S
H1130 C1155 0.951 . S
H1131 C1157 0.950 . S
H1132 C1158 0.950 . S
H1133 C1160 0.950 . S
H1134 C1163 0.950 . S
H1135 C1164 0.950 . S
H1136 C1166 0.950 . S
H1137 C1167 0.950 . S
C1138 H1120 0.951 . S
C1138 C1139 1.366 . S
C1138 C1140 1.388 . S
C1139 C1138 1.366 . S
C1139 C1143 1.385 . S
C1140 H1121 0.951 . S
C1140 C1138 1.388 . S
C1140 C1141 1.366 . S
C1141 C1140 1.366 . S
C1141 C1142 1.414 . S
C1141 C1144 1.499 . S
C1142 H1122 0.950 . S
C1142 C1141 1.414 . S
C1142 C1143 1.374 . S
C1143 H1123 0.950 . S
C1143 C1139 1.385 . S
C1143 C1142 1.374 . S
C1144 C1141 1.499 . S
C1144 C1145 1.373 . S
C1144 C1146 1.389 . S
C1145 H1124 0.950 . S
C1145 C1144 1.373 . S
C1145 C1161 1.377 . S
C1146 C1144 1.389 . S
C1146 C1147 1.524 . S
C1146 C1160 1.377 . S
C1147 C1146 1.524 . S
C1147 C1148 1.397 . S
C1147 C1152 1.363 . S
C1148 H1125 0.950 . S
C1148 C1147 1.397 . S
C1148 C1149 1.334 . S
C1149 H1126 0.950 . S
C1149 C1148 1.334 . S
C1149 C1150 1.287 . S
C1150 C1149 1.287 . S
C1150 C1151 1.524 . S
C1150 H1169 0.913 . S
C1151 H1127 0.950 . S
C1151 C1150 1.524 . S
C1151 C1152 1.415 . S
C1152 H1128 0.950 . S
C1152 C1147 1.363 . S
C1152 C1151 1.415 . S
C1153 H1129 0.951 . S
C1153 C1154 1.366 . S
C1153 C1155 1.388 . S
C1154 C1153 1.366 . S
C1154 C1158 1.385 . S
C1155 H1130 0.951 . S
C1155 C1153 1.388 . S
C1155 C1156 1.366 . S
C1156 C1155 1.366 . S
C1156 C1157 1.414 . S
C1156 C1159 1.499 . S
C1157 H1131 0.950 . S
C1157 C1156 1.414 . S
C1157 C1158 1.374 . S
C1158 H1132 0.950 . S
C1158 C1154 1.385 . S
C1158 C1157 1.374 . S
C1159 C1156 1.499 . S
C1159 C1160 1.373 . S
C1159 C1161 1.389 . S
C1160 H1133 0.950 . S
C1160 C1146 1.377 . S
C1160 C1159 1.373 . S
C1161 C1145 1.377 . S
C1161 C1159 1.389 . S
C1161 C1162 1.524 . S
C1162 C1161 1.524 . S
C1162 C1163 1.397 . S
C1162 C1167 1.363 . S
C1163 H1134 0.950 . S
C1163 C1162 1.397 . S
C1163 C1164 1.334 . S
C1164 H1135 0.950 . S
C1164 C1163 1.334 . S
C1164 C1165 1.287 . S
C1165 C1164 1.287 . S
C1165 C1166 1.524 . S
C1165 H1168 0.999 . S
C1166 H1136 0.950 . S
C1166 C1165 1.524 . S
C1166 C1167 1.415 . S
C1167 H1137 0.950 . S
C1167 C1162 1.363 . S
C1167 C1166 1.415 . S
H1168 C1165 0.999 . S
H1169 C1150 0.913 . S
H1170 C1188 0.951 . S
H1171 C1190 0.951 . S
H1172 C1192 0.950 . S
H1173 C1193 0.950 . S
H1174 C1195 0.950 . S
H1175 C1198 0.950 . S
H1176 C1199 0.950 . S
H1177 C1201 0.950 . S
H1178 C1202 0.950 . S
H1179 C1203 0.951 . S
H1180 C1205 0.951 . S
H1181 C1207 0.950 . S
H1182 C1208 0.950 . S
H1183 C1210 0.950 . S
H1184 C1213 0.950 . S
H1185 C1214 0.950 . S
H1186 C1216 0.950 . S
H1187 C1217 0.950 . S
C1188 H1170 0.951 . S
C1188 C1189 1.366 . S
C1188 C1190 1.388 . S
C1189 C1188 1.366 . S
C1189 C1193 1.385 . S
C1190 H1171 0.951 . S
C1190 C1188 1.388 . S
C1190 C1191 1.366 . S
C1191 C1190 1.366 . S
C1191 C1192 1.414 . S
C1191 C1194 1.499 . S
C1192 H1172 0.950 . S
C1192 C1191 1.414 . S
C1192 C1193 1.374 . S
C1193 H1173 0.950 . S
C1193 C1189 1.385 . S
C1193 C1192 1.374 . S
C1194 C1191 1.499 . S
C1194 C1195 1.373 . S
C1194 C1196 1.389 . S
C1195 H1174 0.950 . S
C1195 C1194 1.373 . S
C1195 C1211 1.377 . S
C1196 C1194 1.389 . S
C1196 C1197 1.524 . S
C1196 C1210 1.377 . S
C1197 C1196 1.524 . S
C1197 C1198 1.397 . S
C1197 C1202 1.363 . S
C1198 H1175 0.950 . S
C1198 C1197 1.397 . S
C1198 C1199 1.334 . S
C1199 H1176 0.950 . S
C1199 C1198 1.334 . S
C1199 C1200 1.287 . S
C1200 C1199 1.287 . S
C1200 C1201 1.524 . S
C1200 H1219 0.913 . S
C1201 H1177 0.950 . S
C1201 C1200 1.524 . S
C1201 C1202 1.415 . S
C1202 H1178 0.950 . S
C1202 C1197 1.363 . S
C1202 C1201 1.415 . S
C1203 H1179 0.951 . S
C1203 C1204 1.366 . S
C1203 C1205 1.388 . S
C1204 C1203 1.366 . S
C1204 C1208 1.385 . S
C1205 H1180 0.951 . S
C1205 C1203 1.388 . S
C1205 C1206 1.366 . S
C1206 C1205 1.366 . S
C1206 C1207 1.414 . S
C1206 C1209 1.499 . S
C1207 H1181 0.950 . S
C1207 C1206 1.414 . S
C1207 C1208 1.374 . S
C1208 H1182 0.950 . S
C1208 C1204 1.385 . S
C1208 C1207 1.374 . S
C1209 C1206 1.499 . S
C1209 C1210 1.373 . S
C1209 C1211 1.389 . S
C1210 H1183 0.950 . S
C1210 C1196 1.377 . S
C1210 C1209 1.373 . S
C1211 C1195 1.377 . S
C1211 C1209 1.389 . S
C1211 C1212 1.524 . S
C1212 C1211 1.524 . S
C1212 C1213 1.397 . S
C1212 C1217 1.363 . S
C1213 H1184 0.950 . S
C1213 C1212 1.397 . S
C1213 C1214 1.334 . S
C1214 H1185 0.950 . S
C1214 C1213 1.334 . S
C1214 C1215 1.287 . S
C1215 C1214 1.287 . S
C1215 C1216 1.524 . S
C1215 H1218 0.999 . S
C1216 H1186 0.950 . S
C1216 C1215 1.524 . S
C1216 C1217 1.415 . S
C1217 H1187 0.950 . S
C1217 C1212 1.363 . S
C1217 C1216 1.415 . S
H1218 C1215 0.999 . S
H1219 C1200 0.913 . S
H1220 C1238 0.951 . S
H1221 C1240 0.951 . S
H1222 C1242 0.944 1_565 S
H1223 C1243 0.950 1_556 S
H1224 C1245 0.950 . S
H1225 C1248 0.950 . S
H1226 C1249 0.950 . S
H1227 C1251 0.950 . S
H1228 C1252 0.950 . S
H1229 C1253 0.951 . S
H1230 C1255 0.951 . S
H1231 C1257 0.950 . S
H1232 C1258 0.950 . S
H1233 C1260 0.950 . S
H1234 C1263 0.950 . S
H1235 C1264 0.950 . S
H1236 C1266 0.950 1_556 S
H1237 C1267 0.950 . S
C1238 H1220 0.951 . S
C1238 C1239 1.366 . S
C1238 C1240 1.388 . S
C1239 C1238 1.366 . S
C1239 C1243 1.385 . S
C1240 H1221 0.951 . S
C1240 C1238 1.388 . S
C1240 C1241 1.366 . S
C1241 C1240 1.366 . S
C1241 C1242 1.414 . S
C1241 C1244 1.499 1_545 S
C1242 H1222 0.944 1_545 S
C1242 C1241 1.414 . S
C1242 C1243 1.374 . S
C1243 H1223 0.950 1_554 S
C1243 C1239 1.385 . S
C1243 C1242 1.374 . S
C1244 C1241 1.499 1_565 S
C1244 C1245 1.373 . S
C1244 C1246 1.389 . S
C1245 H1224 0.950 . S
C1245 C1244 1.373 . S
C1245 C1261 1.377 . S
C1246 C1244 1.389 . S
C1246 C1247 1.524 1_565 S
C1246 C1260 1.377 . S
C1247 C1246 1.524 1_545 S
C1247 C1248 1.397 . S
C1247 C1252 1.363 . S
C1248 H1225 0.950 . S
C1248 C1247 1.397 . S
C1248 C1249 1.334 . S
C1249 H1226 0.950 . S
C1249 C1248 1.334 . S
C1249 C1250 1.287 . S
C1250 C1249 1.287 . S
C1250 C1251 1.524 . S
C1250 H1269 0.913 . S
C1251 H1227 0.950 . S
C1251 C1250 1.524 . S
C1251 C1252 1.415 . S
C1252 H1228 0.950 . S
C1252 C1247 1.363 . S
C1252 C1251 1.415 . S
C1253 H1229 0.951 . S
C1253 C1254 1.366 . S
C1253 C1255 1.388 . S
C1254 C1253 1.366 . S
C1254 C1258 1.385 . S
C1255 H1230 0.951 . S
C1255 C1253 1.388 . S
C1255 C1256 1.366 . S
C1256 C1255 1.366 . S
C1256 C1257 1.414 . S
C1256 C1259 1.499 . S
C1257 H1231 0.950 . S
C1257 C1256 1.414 . S
C1257 C1258 1.374 . S
C1258 H1232 0.950 . S
C1258 C1254 1.385 . S
C1258 C1257 1.374 . S
C1259 C1256 1.499 . S
C1259 C1260 1.373 . S
C1259 C1261 1.389 . S
C1260 H1233 0.950 . S
C1260 C1246 1.377 . S
C1260 C1259 1.373 . S
C1261 C1245 1.377 . S
C1261 C1259 1.389 . S
C1261 C1262 1.524 . S
C1262 C1261 1.524 . S
C1262 C1263 1.397 . S
C1262 C1267 1.363 . S
C1263 H1234 0.950 . S
C1263 C1262 1.397 . S
C1263 C1264 1.334 . S
C1264 H1235 0.950 . S
C1264 C1263 1.334 . S
C1264 C1265 1.287 . S
C1265 C1264 1.287 . S
C1265 C1266 1.524 . S
C1265 H1268 0.999 . S
C1266 H1236 0.950 1_554 S
C1266 C1265 1.524 . S
C1266 C1267 1.415 . S
C1267 H1237 0.950 . S
C1267 C1262 1.363 . S
C1267 C1266 1.415 . S
H1268 C1265 0.999 . S
H1269 C1250 0.913 . S
H1270 C1288 0.951 . S
H1271 C1290 0.951 . S
H1272 C1292 0.950 . S
H1273 C1293 0.950 1_554 S
H1274 C1295 0.950 . S
H1275 C1298 0.950 1_554 S
H1276 C1299 0.950 . S
H1277 C1301 0.950 . S
H1278 C1302 0.950 . S
H1279 C1303 0.951 . S
H1280 C1305 0.951 . S
H1281 C1307 0.950 . S
H1282 C1308 0.950 . S
H1283 C1310 0.950 . S
H1284 C1313 0.950 . S
H1285 C1314 0.950 . S
H1286 C1316 0.950 . S
H1287 C1317 0.950 . S
C1288 H1270 0.951 . S
C1288 C1289 1.366 . S
C1288 C1290 1.388 . S
C1289 C1288 1.366 . S
C1289 C1293 1.385 . S
C1290 H1271 0.951 . S
C1290 C1288 1.388 . S
C1290 C1291 1.366 . S
C1291 C1290 1.366 . S
C1291 C1292 1.414 . S
C1291 C1294 1.499 . S
C1292 H1272 0.950 . S
C1292 C1291 1.414 . S
C1292 C1293 1.374 . S
C1293 H1273 0.950 1_556 S
C1293 C1289 1.385 . S
C1293 C1292 1.374 . S
C1294 C1291 1.499 . S
C1294 C1295 1.373 . S
C1294 C1296 1.389 . S
C1295 H1274 0.950 . S
C1295 C1294 1.373 . S
C1295 C1311 1.377 . S
C1296 C1294 1.389 . S
C1296 C1297 1.524 . S
C1296 C1310 1.377 . S
C1297 C1296 1.524 . S
C1297 C1298 1.397 . S
C1297 C1302 1.363 . S
C1298 H1275 0.950 1_556 S
C1298 C1297 1.397 . S
C1298 C1299 1.334 1_556 S
C1299 H1276 0.950 . S
C1299 C1298 1.334 1_554 S
C1299 C1300 1.287 . S
C1300 C1299 1.287 . S
C1300 C1301 1.524 1_554 S
C1300 H1319 0.913 . S
C1301 H1277 0.950 . S
C1301 C1300 1.524 1_556 S
C1301 C1302 1.415 . S
C1302 H1278 0.950 . S
C1302 C1297 1.363 . S
C1302 C1301 1.415 . S
C1303 H1279 0.951 . S
C1303 C1304 1.366 . S
C1303 C1305 1.388 . S
C1304 C1303 1.366 . S
C1304 C1308 1.385 . S
C1305 H1280 0.951 . S
C1305 C1303 1.388 . S
C1305 C1306 1.366 . S
C1306 C1305 1.366 . S
C1306 C1307 1.414 . S
C1306 C1309 1.499 . S
C1307 H1281 0.950 . S
C1307 C1306 1.414 . S
C1307 C1308 1.374 . S
C1308 H1282 0.950 . S
C1308 C1304 1.385 . S
C1308 C1307 1.374 . S
C1309 C1306 1.499 . S
C1309 C1310 1.373 . S
C1309 C1311 1.389 . S
C1310 H1283 0.950 . S
C1310 C1296 1.377 . S
C1310 C1309 1.373 . S
C1311 C1295 1.377 . S
C1311 C1309 1.389 . S
C1311 C1312 1.524 . S
C1312 C1311 1.524 . S
C1312 C1313 1.397 . S
C1312 C1317 1.363 . S
C1313 H1284 0.950 . S
C1313 C1312 1.397 . S
C1313 C1314 1.334 . S
C1314 H1285 0.950 . S
C1314 C1313 1.334 . S
C1314 C1315 1.287 . S
C1315 C1314 1.287 . S
C1315 C1316 1.524 . S
C1315 H1318 0.999 . S
C1316 H1286 0.950 . S
C1316 C1315 1.524 . S
C1316 C1317 1.415 . S
C1317 H1287 0.950 . S
C1317 C1312 1.363 . S
C1317 C1316 1.415 . S
H1318 C1315 0.999 . S
H1319 C1300 0.913 . S
H1320 C1338 0.951 . S
H1321 C1340 0.951 . S
H1322 C1342 0.950 . S
H1323 C1343 0.950 . S
H1324 C1345 0.950 . S
H1325 C1348 0.950 . S
H1326 C1349 0.950 . S
H1327 C1351 0.950 . S
H1328 C1352 0.950 . S
H1329 C1353 0.951 . S
H1330 C1355 0.951 . S
H1331 C1357 0.950 . S
H1332 C1358 0.950 . S
H1333 C1360 0.950 . S
H1334 C1363 0.950 . S
H1335 C1364 0.950 . S
H1336 C1366 0.950 . S
H1337 C1367 0.950 . S
C1338 H1320 0.951 . S
C1338 C1339 1.366 . S
C1338 C1340 1.388 . S
C1339 C1338 1.366 . S
C1339 C1343 1.385 . S
C1340 H1321 0.951 . S
C1340 C1338 1.388 . S
C1340 C1341 1.366 . S
C1341 C1340 1.366 . S
C1341 C1342 1.414 . S
C1341 C1344 1.499 . S
C1342 H1322 0.950 . S
C1342 C1341 1.414 . S
C1342 C1343 1.374 . S
C1343 H1323 0.950 . S
C1343 C1339 1.385 . S
C1343 C1342 1.374 . S
C1344 C1341 1.499 . S
C1344 C1345 1.373 . S
C1344 C1346 1.389 . S
C1345 H1324 0.950 . S
C1345 C1344 1.373 . S
C1345 C1361 1.377 . S
C1346 C1344 1.389 . S
C1346 C1347 1.524 . S
C1346 C1360 1.377 . S
C1347 C1346 1.524 . S
C1347 C1348 1.397 . S
C1347 C1352 1.363 . S
C1348 H1325 0.950 . S
C1348 C1347 1.397 . S
C1348 C1349 1.334 . S
C1349 H1326 0.950 . S
C1349 C1348 1.334 . S
C1349 C1350 1.287 . S
C1350 C1349 1.287 . S
C1350 C1351 1.524 . S
C1350 H1369 0.913 . S
C1351 H1327 0.950 . S
C1351 C1350 1.524 . S
C1351 C1352 1.415 . S
C1352 H1328 0.950 . S
C1352 C1347 1.363 . S
C1352 C1351 1.415 . S
C1353 H1329 0.951 . S
C1353 C1354 1.366 . S
C1353 C1355 1.388 . S
C1354 C1353 1.366 . S
C1354 C1358 1.385 . S
C1355 H1330 0.951 . S
C1355 C1353 1.388 . S
C1355 C1356 1.366 . S
C1356 C1355 1.366 . S
C1356 C1357 1.414 . S
C1356 C1359 1.499 . S
C1357 H1331 0.950 . S
C1357 C1356 1.414 . S
C1357 C1358 1.374 . S
C1358 H1332 0.950 . S
C1358 C1354 1.385 . S
C1358 C1357 1.374 . S
C1359 C1356 1.499 . S
C1359 C1360 1.373 . S
C1359 C1361 1.389 . S
C1360 H1333 0.950 . S
C1360 C1346 1.377 . S
C1360 C1359 1.373 . S
C1361 C1345 1.377 . S
C1361 C1359 1.389 . S
C1361 C1362 1.524 . S
C1362 C1361 1.524 . S
C1362 C1363 1.397 . S
C1362 C1367 1.363 . S
C1363 H1334 0.950 . S
C1363 C1362 1.397 . S
C1363 C1364 1.334 . S
C1364 H1335 0.950 . S
C1364 C1363 1.334 . S
C1364 C1365 1.287 . S
C1365 C1364 1.287 . S
C1365 C1366 1.524 . S
C1365 H1368 0.999 . S
C1366 H1336 0.950 . S
C1366 C1365 1.524 . S
C1366 C1367 1.415 . S
C1367 H1337 0.950 . S
C1367 C1362 1.363 . S
C1367 C1366 1.415 . S
H1368 C1365 0.999 . S
H1369 C1350 0.913 . S
H1370 C1388 0.951 . S
H1371 C1390 0.951 . S
H1372 C1392 0.950 . S
H1373 C1393 0.950 . S
H1374 C1395 0.950 . S
H1375 C1398 0.950 . S
H1376 C1399 0.950 . S
H1377 C1401 0.950 . S
H1378 C1402 0.950 . S
H1379 C1403 0.951 . S
H1380 C1405 0.951 . S
H1381 C1407 0.950 . S
H1382 C1408 0.950 . S
H1383 C1410 0.950 . S
H1384 C1413 0.950 . S
H1385 C1414 0.950 . S
H1386 C1416 0.950 . S
H1387 C1417 0.950 . S
C1388 H1370 0.951 . S
C1388 C1389 1.366 . S
C1388 C1390 1.388 . S
C1389 C1388 1.366 . S
C1389 C1393 1.385 . S
C1390 H1371 0.951 . S
C1390 C1388 1.388 . S
C1390 C1391 1.366 . S
C1391 C1390 1.366 . S
C1391 C1392 1.414 . S
C1391 C1394 1.499 . S
C1392 H1372 0.950 . S
C1392 C1391 1.414 . S
C1392 C1393 1.374 . S
C1393 H1373 0.950 . S
C1393 C1389 1.385 . S
C1393 C1392 1.374 . S
C1394 C1391 1.499 . S
C1394 C1395 1.373 . S
C1394 C1396 1.389 . S
C1395 H1374 0.950 . S
C1395 C1394 1.373 . S
C1395 C1411 1.377 . S
C1396 C1394 1.389 . S
C1396 C1397 1.524 . S
C1396 C1410 1.377 . S
C1397 C1396 1.524 . S
C1397 C1398 1.397 . S
C1397 C1402 1.363 . S
C1398 H1375 0.950 . S
C1398 C1397 1.397 . S
C1398 C1399 1.334 . S
C1399 H1376 0.950 . S
C1399 C1398 1.334 . S
C1399 C1400 1.287 . S
C1400 C1399 1.287 . S
C1400 C1401 1.524 . S
C1400 H1419 0.913 . S
C1401 H1377 0.950 . S
C1401 C1400 1.524 . S
C1401 C1402 1.415 . S
C1402 H1378 0.950 . S
C1402 C1397 1.363 . S
C1402 C1401 1.415 . S
C1403 H1379 0.951 . S
C1403 C1404 1.366 . S
C1403 C1405 1.388 . S
C1404 C1403 1.366 . S
C1404 C1408 1.385 . S
C1405 H1380 0.951 . S
C1405 C1403 1.388 . S
C1405 C1406 1.366 . S
C1406 C1405 1.366 . S
C1406 C1407 1.414 . S
C1406 C1409 1.499 . S
C1407 H1381 0.950 . S
C1407 C1406 1.414 . S
C1407 C1408 1.374 . S
C1408 H1382 0.950 . S
C1408 C1404 1.385 . S
C1408 C1407 1.374 . S
C1409 C1406 1.499 . S
C1409 C1410 1.373 . S
C1409 C1411 1.389 . S
C1410 H1383 0.950 . S
C1410 C1396 1.377 . S
C1410 C1409 1.373 . S
C1411 C1395 1.377 . S
C1411 C1409 1.389 . S
C1411 C1412 1.524 . S
C1412 C1411 1.524 . S
C1412 C1413 1.397 . S
C1412 C1417 1.363 . S
C1413 H1384 0.950 . S
C1413 C1412 1.397 . S
C1413 C1414 1.334 . S
C1414 H1385 0.950 . S
C1414 C1413 1.334 . S
C1414 C1415 1.287 . S
C1415 C1414 1.287 . S
C1415 C1416 1.524 . S
C1415 H1418 0.999 . S
C1416 H1386 0.950 . S
C1416 C1415 1.524 . S
C1416 C1417 1.415 . S
C1417 H1387 0.950 . S
C1417 C1412 1.363 . S
C1417 C1416 1.415 . S
H1418 C1415 0.999 . S
H1419 C1400 0.913 . S
H1420 C1438 0.951 . S
H1421 C1440 0.951 . S
H1422 C1442 0.950 . S
H1423 C1443 0.950 . S
H1424 C1445 0.950 . S
H1425 C1448 0.950 . S
H1426 C1449 0.950 . S
H1427 C1451 0.950 . S
H1428 C1452 0.950 . S
H1429 C1453 0.951 . S
H1430 C1455 0.951 . S
H1431 C1457 0.950 . S
H1432 C1458 0.950 . S
H1433 C1460 0.950 . S
H1434 C1463 0.950 . S
H1435 C1464 0.950 . S
H1436 C1466 0.950 . S
H1437 C1467 0.950 . S
C1438 H1420 0.951 . S
C1438 C1439 1.366 . S
C1438 C1440 1.388 . S
C1439 C1438 1.366 . S
C1439 C1443 1.385 . S
C1440 H1421 0.951 . S
C1440 C1438 1.388 . S
C1440 C1441 1.366 . S
C1441 C1440 1.366 . S
C1441 C1442 1.414 . S
C1441 C1444 1.499 . S
C1442 H1422 0.950 . S
C1442 C1441 1.414 . S
C1442 C1443 1.374 . S
C1443 H1423 0.950 . S
C1443 C1439 1.385 . S
C1443 C1442 1.374 . S
C1444 C1441 1.499 . S
C1444 C1445 1.373 . S
C1444 C1446 1.389 . S
C1445 H1424 0.950 . S
C1445 C1444 1.373 . S
C1445 C1461 1.377 . S
C1446 C1444 1.389 . S
C1446 C1447 1.524 . S
C1446 C1460 1.377 . S
C1447 C1446 1.524 . S
C1447 C1448 1.397 . S
C1447 C1452 1.363 . S
C1448 H1425 0.950 . S
C1448 C1447 1.397 . S
C1448 C1449 1.334 . S
C1449 H1426 0.950 . S
C1449 C1448 1.334 . S
C1449 C1450 1.287 . S
C1450 C1449 1.287 . S
C1450 C1451 1.524 . S
C1450 H1469 0.913 . S
C1451 H1427 0.950 . S
C1451 C1450 1.524 . S
C1451 C1452 1.415 . S
C1452 H1428 0.950 . S
C1452 C1447 1.363 . S
C1452 C1451 1.415 . S
C1453 H1429 0.951 . S
C1453 C1454 1.366 . S
C1453 C1455 1.388 . S
C1454 C1453 1.366 . S
C1454 C1458 1.385 . S
C1455 H1430 0.951 . S
C1455 C1453 1.388 . S
C1455 C1456 1.366 . S
C1456 C1455 1.366 . S
C1456 C1457 1.414 . S
C1456 C1459 1.499 . S
C1457 H1431 0.950 . S
C1457 C1456 1.414 . S
C1457 C1458 1.374 . S
C1458 H1432 0.950 . S
C1458 C1454 1.385 . S
C1458 C1457 1.374 . S
C1459 C1456 1.499 . S
C1459 C1460 1.373 . S
C1459 C1461 1.389 . S
C1460 H1433 0.950 . S
C1460 C1446 1.377 . S
C1460 C1459 1.373 . S
C1461 C1445 1.377 . S
C1461 C1459 1.389 . S
C1461 C1462 1.524 . S
C1462 C1461 1.524 . S
C1462 C1463 1.397 . S
C1462 C1467 1.363 . S
C1463 H1434 0.950 . S
C1463 C1462 1.397 . S
C1463 C1464 1.334 . S
C1464 H1435 0.950 . S
C1464 C1463 1.334 . S
C1464 C1465 1.287 . S
C1465 C1464 1.287 . S
C1465 C1466 1.524 . S
C1465 H1468 0.999 . S
C1466 H1436 0.950 . S
C1466 C1465 1.524 . S
C1466 C1467 1.415 . S
C1467 H1437 0.950 . S
C1467 C1462 1.363 . S
C1467 C1466 1.415 . S
H1468 C1465 0.999 . S
H1469 C1450 0.913 . S
H1470 C1488 0.951 . S
H1471 C1490 0.951 . S
H1472 C1492 0.950 . S
H1473 C1493 0.950 . S
H1474 C1495 0.950 . S
H1475 C1498 0.950 . S
H1476 C1499 0.950 . S
H1477 C1501 0.950 . S
H1478 C1502 0.950 . S
H1479 C1503 0.951 . S
H1480 C1505 0.951 . S
H1481 C1507 0.950 . S
H1482 C1508 0.950 . S
H1483 C1510 0.950 . S
H1484 C1513 0.950 . S
H1485 C1514 0.950 . S
H1486 C1516 0.950 1_655 S
H1487 C1517 0.950 . S
C1488 H1470 0.951 . S
C1488 C1489 1.366 . S
C1488 C1490 1.388 1_565 S
C1489 C1488 1.366 . S
C1489 C1493 1.385 . S
C1490 H1471 0.951 . S
C1490 C1488 1.388 1_545 S
C1490 C1491 1.366 . S
C1491 C1490 1.366 . S
C1491 C1492 1.414 1_545 S
C1491 C1494 1.499 . S
C1492 H1472 0.950 . S
C1492 C1491 1.414 1_565 S
C1492 C1493 1.374 . S
C1493 H1473 0.950 . S
C1493 C1489 1.385 . S
C1493 C1492 1.374 . S
C1494 C1491 1.499 . S
C1494 C1495 1.373 . S
C1494 C1496 1.389 . S
C1495 H1474 0.950 . S
C1495 C1494 1.373 . S
C1495 C1511 1.377 . S
C1496 C1494 1.389 . S
C1496 C1497 1.524 . S
C1496 C1510 1.377 . S
C1497 C1496 1.524 . S
C1497 C1498 1.397 . S
C1497 C1502 1.363 . S
C1498 H1475 0.950 . S
C1498 C1497 1.397 . S
C1498 C1499 1.334 . S
C1499 H1476 0.950 . S
C1499 C1498 1.334 . S
C1499 C1500 1.287 . S
C1500 C1499 1.287 . S
C1500 C1501 1.524 . S
C1500 H1519 0.913 . S
C1501 H1477 0.950 . S
C1501 C1500 1.524 . S
C1501 C1502 1.415 . S
C1502 H1478 0.950 . S
C1502 C1497 1.363 . S
C1502 C1501 1.415 . S
C1503 H1479 0.951 . S
C1503 C1504 1.366 . S
C1503 C1505 1.388 . S
C1504 C1503 1.366 . S
C1504 C1508 1.385 . S
C1505 H1480 0.951 . S
C1505 C1503 1.388 . S
C1505 C1506 1.366 . S
C1506 C1505 1.366 . S
C1506 C1507 1.414 . S
C1506 C1509 1.499 . S
C1507 H1481 0.950 . S
C1507 C1506 1.414 . S
C1507 C1508 1.374 . S
C1508 H1482 0.950 . S
C1508 C1504 1.385 . S
C1508 C1507 1.374 . S
C1509 C1506 1.499 . S
C1509 C1510 1.373 . S
C1509 C1511 1.389 . S
C1510 H1483 0.950 . S
C1510 C1496 1.377 . S
C1510 C1509 1.373 . S
C1511 C1495 1.377 . S
C1511 C1509 1.389 . S
C1511 C1512 1.524 . S
C1512 C1511 1.524 . S
C1512 C1513 1.397 . S
C1512 C1517 1.363 . S
C1513 H1484 0.950 . S
C1513 C1512 1.397 . S
C1513 C1514 1.334 . S
C1514 H1485 0.950 . S
C1514 C1513 1.334 . S
C1514 C1515 1.287 . S
C1515 C1514 1.287 . S
C1515 C1516 1.524 . S
C1515 H1518 0.999 1_455 S
C1516 H1486 0.950 1_455 S
C1516 C1515 1.524 . S
C1516 C1517 1.415 . S
C1517 H1487 0.950 . S
C1517 C1512 1.363 . S
C1517 C1516 1.415 . S
H1518 C1515 0.999 1_655 S
H1519 C1500 0.913 . S
H1520 C1538 0.951 . S
H1521 C1540 0.951 . S
H1522 C1542 0.950 . S
H1523 C1543 0.950 . S
H1524 C1545 0.950 . S
H1525 C1548 0.950 . S
H1526 C1549 0.950 . S
H1527 C1551 0.950 . S
H1528 C1552 0.950 . S
H1529 C1553 0.951 . S
H1530 C1555 0.951 . S
H1531 C1557 0.950 . S
H1532 C1558 0.950 . S
H1533 C1560 0.950 . S
H1534 C1563 0.950 . S
H1535 C1564 0.950 . S
H1536 C1566 0.950 . S
H1537 C1567 0.950 . S
C1538 H1520 0.951 . S
C1538 C1539 1.366 . S
C1538 C1540 1.388 . S
C1539 C1538 1.366 . S
C1539 C1543 1.385 . S
C1540 H1521 0.951 . S
C1540 C1538 1.388 . S
C1540 C1541 1.366 . S
C1541 C1540 1.366 . S
C1541 C1542 1.414 . S
C1541 C1544 1.499 . S
C1542 H1522 0.950 . S
C1542 C1541 1.414 . S
C1542 C1543 1.374 . S
C1543 H1523 0.950 . S
C1543 C1539 1.385 . S
C1543 C1542 1.374 . S
C1544 C1541 1.499 . S
C1544 C1545 1.373 . S
C1544 C1546 1.389 . S
C1545 H1524 0.950 . S
C1545 C1544 1.373 . S
C1545 C1561 1.377 . S
C1546 C1544 1.389 . S
C1546 C1547 1.524 . S
C1546 C1560 1.377 . S
C1547 C1546 1.524 . S
C1547 C1548 1.397 . S
C1547 C1552 1.363 . S
C1548 H1525 0.950 . S
C1548 C1547 1.397 . S
C1548 C1549 1.334 . S
C1549 H1526 0.950 . S
C1549 C1548 1.334 . S
C1549 C1550 1.287 . S
C1550 C1549 1.287 . S
C1550 C1551 1.524 . S
C1550 H1569 0.913 . S
C1551 H1527 0.950 . S
C1551 C1550 1.524 . S
C1551 C1552 1.415 . S
C1552 H1528 0.950 . S
C1552 C1547 1.363 . S
C1552 C1551 1.415 . S
C1553 H1529 0.951 . S
C1553 C1554 1.366 . S
C1553 C1555 1.388 . S
C1554 C1553 1.366 . S
C1554 C1558 1.385 . S
C1555 H1530 0.951 . S
C1555 C1553 1.388 . S
C1555 C1556 1.366 . S
C1556 C1555 1.366 . S
C1556 C1557 1.414 . S
C1556 C1559 1.499 . S
C1557 H1531 0.950 . S
C1557 C1556 1.414 . S
C1557 C1558 1.374 . S
C1558 H1532 0.950 . S
C1558 C1554 1.385 . S
C1558 C1557 1.374 . S
C1559 C1556 1.499 . S
C1559 C1560 1.373 . S
C1559 C1561 1.389 . S
C1560 H1533 0.950 . S
C1560 C1546 1.377 . S
C1560 C1559 1.373 . S
C1561 C1545 1.377 . S
C1561 C1559 1.389 . S
C1561 C1562 1.524 . S
C1562 C1561 1.524 . S
C1562 C1563 1.397 . S
C1562 C1567 1.363 . S
C1563 H1534 0.950 . S
C1563 C1562 1.397 . S
C1563 C1564 1.334 . S
C1564 H1535 0.950 . S
C1564 C1563 1.334 . S
C1564 C1565 1.287 . S
C1565 C1564 1.287 . S
C1565 C1566 1.524 . S
C1565 H1568 0.999 . S
C1566 H1536 0.950 . S
C1566 C1565 1.524 . S
C1566 C1567 1.415 . S
C1567 H1537 0.950 . S
C1567 C1562 1.363 . S
C1567 C1566 1.415 . S
H1568 C1565 0.999 . S
H1569 C1550 0.913 . S
H1570 C1588 0.951 . S
H1571 C1590 0.951 . S
H1572 C1592 0.950 . S
H1573 C1593 0.950 . S
H1574 C1595 0.950 . S
H1575 C1598 0.950 . S
H1576 C1599 0.950 . S
H1577 C1601 0.950 . S
H1578 C1602 0.950 . S
H1579 C1603 0.951 . S
H1580 C1605 0.951 . S
H1581 C1607 0.950 . S
H1582 C1608 0.950 . S
H1583 C1610 0.950 . S
H1584 C1613 0.950 . S
H1585 C1614 0.950 . S
H1586 C1616 0.950 . S
H1587 C1617 0.950 . S
C1588 H1570 0.951 . S
C1588 C1589 1.366 . S
C1588 C1590 1.388 . S
C1589 C1588 1.366 . S
C1589 C1593 1.385 . S
C1590 H1571 0.951 . S
C1590 C1588 1.388 . S
C1590 C1591 1.366 . S
C1591 C1590 1.366 . S
C1591 C1592 1.414 . S
C1591 C1594 1.499 . S
C1592 H1572 0.950 . S
C1592 C1591 1.414 . S
C1592 C1593 1.374 . S
C1593 H1573 0.950 . S
C1593 C1589 1.385 . S
C1593 C1592 1.374 . S
C1594 C1591 1.499 . S
C1594 C1595 1.373 . S
C1594 C1596 1.389 . S
C1595 H1574 0.950 . S
C1595 C1594 1.373 . S
C1595 C1611 1.377 . S
C1596 C1594 1.389 . S
C1596 C1597 1.524 . S
C1596 C1610 1.377 . S
C1597 C1596 1.524 . S
C1597 C1598 1.397 . S
C1597 C1602 1.363 . S
C1598 H1575 0.950 . S
C1598 C1597 1.397 . S
C1598 C1599 1.334 . S
C1599 H1576 0.950 . S
C1599 C1598 1.334 . S
C1599 C1600 1.287 . S
C1600 C1599 1.287 . S
C1600 C1601 1.524 . S
C1600 H1619 0.913 . S
C1601 H1577 0.950 . S
C1601 C1600 1.524 . S
C1601 C1602 1.415 . S
C1602 H1578 0.950 . S
C1602 C1597 1.363 . S
C1602 C1601 1.415 . S
C1603 H1579 0.951 . S
C1603 C1604 1.366 . S
C1603 C1605 1.388 . S
C1604 C1603 1.366 . S
C1604 C1608 1.385 . S
C1605 H1580 0.951 . S
C1605 C1603 1.388 . S
C1605 C1606 1.366 . S
C1606 C1605 1.366 . S
C1606 C1607 1.414 . S
C1606 C1609 1.499 . S
C1607 H1581 0.950 . S
C1607 C1606 1.414 . S
C1607 C1608 1.374 . S
C1608 H1582 0.950 . S
C1608 C1604 1.385 . S
C1608 C1607 1.374 . S
C1609 C1606 1.499 . S
C1609 C1610 1.373 . S
C1609 C1611 1.389 . S
C1610 H1583 0.950 . S
C1610 C1596 1.377 . S
C1610 C1609 1.373 . S
C1611 C1595 1.377 . S
C1611 C1609 1.389 . S
C1611 C1612 1.524 . S
C1612 C1611 1.524 . S
C1612 C1613 1.397 . S
C1612 C1617 1.363 . S
C1613 H1584 0.950 . S
C1613 C1612 1.397 . S
C1613 C1614 1.334 . S
C1614 H1585 0.950 . S
C1614 C1613 1.334 . S
C1614 C1615 1.287 . S
C1615 C1614 1.287 . S
C1615 C1616 1.524 . S
C1615 H1618 0.999 . S
C1616 H1586 0.950 . S
C1616 C1615 1.524 . S
C1616 C1617 1.415 . S
C1617 H1587 0.950 . S
C1617 C1612 1.363 . S
C1617 C1616 1.415 . S
H1618 C1615 0.999 . S
H1619 C1600 0.913 . S
H1620 C1638 0.951 . S
H1621 C1640 0.951 . S
H1622 C1642 0.950 . S
H1623 C1643 0.950 . S
H1624 C1645 0.950 . S
H1625 C1648 0.950 . S
H1626 C1649 0.950 . S
H1627 C1651 0.950 . S
H1628 C1652 0.950 . S
H1629 C1653 0.951 . S
H1630 C1655 0.951 . S
H1631 C1657 0.950 . S
H1632 C1658 0.950 . S
H1633 C1660 0.950 . S
H1634 C1663 0.950 . S
H1635 C1664 0.950 . S
H1636 C1666 0.950 . S
H1637 C1667 0.950 . S
C1638 H1620 0.951 . S
C1638 C1639 1.366 . S
C1638 C1640 1.388 . S
C1639 C1638 1.366 . S
C1639 C1643 1.385 . S
C1640 H1621 0.951 . S
C1640 C1638 1.388 . S
C1640 C1641 1.366 . S
C1641 C1640 1.366 . S
C1641 C1642 1.414 . S
C1641 C1644 1.499 . S
C1642 H1622 0.950 . S
C1642 C1641 1.414 . S
C1642 C1643 1.374 . S
C1643 H1623 0.950 . S
C1643 C1639 1.385 . S
C1643 C1642 1.374 . S
C1644 C1641 1.499 . S
C1644 C1645 1.373 . S
C1644 C1646 1.389 . S
C1645 H1624 0.950 . S
C1645 C1644 1.373 . S
C1645 C1661 1.377 . S
C1646 C1644 1.389 . S
C1646 C1647 1.524 . S
C1646 C1660 1.377 . S
C1647 C1646 1.524 . S
C1647 C1648 1.397 . S
C1647 C1652 1.363 . S
C1648 H1625 0.950 . S
C1648 C1647 1.397 . S
C1648 C1649 1.334 . S
C1649 H1626 0.950 . S
C1649 C1648 1.334 . S
C1649 C1650 1.287 . S
C1650 C1649 1.287 . S
C1650 C1651 1.524 . S
C1650 H1669 0.913 . S
C1651 H1627 0.950 . S
C1651 C1650 1.524 . S
C1651 C1652 1.415 . S
C1652 H1628 0.950 . S
C1652 C1647 1.363 . S
C1652 C1651 1.415 . S
C1653 H1629 0.951 . S
C1653 C1654 1.366 . S
C1653 C1655 1.388 . S
C1654 C1653 1.366 . S
C1654 C1658 1.385 . S
C1655 H1630 0.951 . S
C1655 C1653 1.388 . S
C1655 C1656 1.366 . S
C1656 C1655 1.366 . S
C1656 C1657 1.414 . S
C1656 C1659 1.499 . S
C1657 H1631 0.950 . S
C1657 C1656 1.414 . S
C1657 C1658 1.374 . S
C1658 H1632 0.950 . S
C1658 C1654 1.385 . S
C1658 C1657 1.374 . S
C1659 C1656 1.499 . S
C1659 C1660 1.373 . S
C1659 C1661 1.389 . S
C1660 H1633 0.950 . S
C1660 C1646 1.377 . S
C1660 C1659 1.373 . S
C1661 C1645 1.377 . S
C1661 C1659 1.389 . S
C1661 C1662 1.524 . S
C1662 C1661 1.524 . S
C1662 C1663 1.397 . S
C1662 C1667 1.363 . S
C1663 H1634 0.950 . S
C1663 C1662 1.397 . S
C1663 C1664 1.334 . S
C1664 H1635 0.950 . S
C1664 C1663 1.334 . S
C1664 C1665 1.287 . S
C1665 C1664 1.287 . S
C1665 C1666 1.524 . S
C1665 H1668 0.999 . S
C1666 H1636 0.950 . S
C1666 C1665 1.524 . S
C1666 C1667 1.415 . S
C1667 H1637 0.950 . S
C1667 C1662 1.363 . S
C1667 C1666 1.415 . S
H1668 C1665 0.999 . S
H1669 C1650 0.913 . S
H1670 C1688 0.951 . S
H1671 C1690 0.951 . S
H1672 C1692 0.950 . S
H1673 C1693 0.950 . S
H1674 C1695 0.950 . S
H1675 C1698 0.950 . S
H1676 C1699 0.950 . S
H1677 C1701 0.950 . S
H1678 C1702 0.950 . S
H1679 C1703 0.951 . S
H1680 C1705 0.951 . S
H1681 C1707 0.950 . S
H1682 C1708 0.950 . S
H1683 C1710 0.950 . S
H1684 C1713 0.950 . S
H1685 C1714 0.950 . S
H1686 C1716 0.950 . S
H1687 C1717 0.950 . S
C1688 H1670 0.951 . S
C1688 C1689 1.366 . S
C1688 C1690 1.388 . S
C1689 C1688 1.366 . S
C1689 C1693 1.385 . S
C1690 H1671 0.951 . S
C1690 C1688 1.388 . S
C1690 C1691 1.366 . S
C1691 C1690 1.366 . S
C1691 C1692 1.414 . S
C1691 C1694 1.499 . S
C1692 H1672 0.950 . S
C1692 C1691 1.414 . S
C1692 C1693 1.374 . S
C1693 H1673 0.950 . S
C1693 C1689 1.385 . S
C1693 C1692 1.374 . S
C1694 C1691 1.499 . S
C1694 C1695 1.373 . S
C1694 C1696 1.389 . S
C1695 H1674 0.950 . S
C1695 C1694 1.373 . S
C1695 C1711 1.377 . S
C1696 C1694 1.389 . S
C1696 C1697 1.524 . S
C1696 C1710 1.377 . S
C1697 C1696 1.524 . S
C1697 C1698 1.397 . S
C1697 C1702 1.363 . S
C1698 H1675 0.950 . S
C1698 C1697 1.397 . S
C1698 C1699 1.334 . S
C1699 H1676 0.950 . S
C1699 C1698 1.334 . S
C1699 C1700 1.287 . S
C1700 C1699 1.287 . S
C1700 C1701 1.524 . S
C1700 H1719 0.913 . S
C1701 H1677 0.950 . S
C1701 C1700 1.524 . S
C1701 C1702 1.415 . S
C1702 H1678 0.950 . S
C1702 C1697 1.363 . S
C1702 C1701 1.415 . S
C1703 H1679 0.951 . S
C1703 C1704 1.366 . S
C1703 C1705 1.388 . S
C1704 C1703 1.366 . S
C1704 C1708 1.385 . S
C1705 H1680 0.951 . S
C1705 C1703 1.388 . S
C1705 C1706 1.366 . S
C1706 C1705 1.366 . S
C1706 C1707 1.414 . S
C1706 C1709 1.499 . S
C1707 H1681 0.950 . S
C1707 C1706 1.414 . S
C1707 C1708 1.374 . S
C1708 H1682 0.950 . S
C1708 C1704 1.385 . S
C1708 C1707 1.374 . S
C1709 C1706 1.499 . S
C1709 C1710 1.373 . S
C1709 C1711 1.389 . S
C1710 H1683 0.950 . S
C1710 C1696 1.377 . S
C1710 C1709 1.373 . S
C1711 C1695 1.377 . S
C1711 C1709 1.389 . S
C1711 C1712 1.524 . S
C1712 C1711 1.524 . S
C1712 C1713 1.397 . S
C1712 C1717 1.363 . S
C1713 H1684 0.950 . S
C1713 C1712 1.397 . S
C1713 C1714 1.334 . S
C1714 H1685 0.950 . S
C1714 C1713 1.334 . S
C1714 C1715 1.287 . S
C1715 C1714 1.287 . S
C1715 C1716 1.524 . S
C1715 H1718 0.999 . S
C1716 H1686 0.950 . S
C1716 C1715 1.524 . S
C1716 C1717 1.415 . S
C1717 H1687 0.950 . S
C1717 C1712 1.363 . S
C1717 C1716 1.415 . S
H1718 C1715 0.999 . S
H1719 C1700 0.913 . S
H1720 C1738 0.951 . S
H1721 C1740 0.951 . S
H1722 C1742 0.940 1_556 S
H1723 C1743 0.950 1_455 S
H1724 C1745 0.950 . S
H1725 C1748 0.950 . S
H1726 C1749 0.950 . S
H1727 C1751 0.950 . S
H1728 C1752 0.950 . S
H1729 C1753 0.951 . S
H1730 C1755 0.951 . S
H1731 C1757 0.950 . S
H1732 C1758 0.950 . S
H1733 C1760 0.950 . S
H1734 C1763 0.950 . S
H1735 C1764 0.950 . S
H1736 C1766 0.950 . S
H1737 C1767 0.950 . S
C1738 H1720 0.951 . S
C1738 C1739 1.366 . S
C1738 C1740 1.388 . S
C1739 C1738 1.366 . S
C1739 C1743 1.385 . S
C1740 H1721 0.951 . S
C1740 C1738 1.388 . S
C1740 C1741 1.366 . S
C1741 C1740 1.366 . S
C1741 C1742 1.414 . S
C1741 C1744 1.499 1_554 S
C1742 H1722 0.940 1_554 S
C1742 C1741 1.414 . S
C1742 C1743 1.374 . S
C1743 H1723 0.950 1_655 S
C1743 C1739 1.385 . S
C1743 C1742 1.374 . S
C1744 C1741 1.499 1_556 S
C1744 C1745 1.373 . S
C1744 C1746 1.389 . S
C1745 H1724 0.950 . S
C1745 C1744 1.373 . S
C1745 C1761 1.377 . S
C1746 C1744 1.389 . S
C1746 C1747 1.524 1_556 S
C1746 C1760 1.377 . S
C1747 C1746 1.524 1_554 S
C1747 C1748 1.397 . S
C1747 C1752 1.363 . S
C1748 H1725 0.950 . S
C1748 C1747 1.397 . S
C1748 C1749 1.334 . S
C1749 H1726 0.950 . S
C1749 C1748 1.334 . S
C1749 C1750 1.287 . S
C1750 C1749 1.287 . S
C1750 C1751 1.524 . S
C1750 H1769 0.913 . S
C1751 H1727 0.950 . S
C1751 C1750 1.524 . S
C1751 C1752 1.415 . S
C1752 H1728 0.950 . S
C1752 C1747 1.363 . S
C1752 C1751 1.415 . S
C1753 H1729 0.951 . S
C1753 C1754 1.366 . S
C1753 C1755 1.388 . S
C1754 C1753 1.366 . S
C1754 C1758 1.385 . S
C1755 H1730 0.951 . S
C1755 C1753 1.388 . S
C1755 C1756 1.366 . S
C1756 C1755 1.366 . S
C1756 C1757 1.414 . S
C1756 C1759 1.499 . S
C1757 H1731 0.950 . S
C1757 C1756 1.414 . S
C1757 C1758 1.374 . S
C1758 H1732 0.950 . S
C1758 C1754 1.385 . S
C1758 C1757 1.374 . S
C1759 C1756 1.499 . S
C1759 C1760 1.373 . S
C1759 C1761 1.389 . S
C1760 H1733 0.950 . S
C1760 C1746 1.377 . S
C1760 C1759 1.373 . S
C1761 C1745 1.377 . S
C1761 C1759 1.389 . S
C1761 C1762 1.524 . S
C1762 C1761 1.524 . S
C1762 C1763 1.397 . S
C1762 C1767 1.363 . S
C1763 H1734 0.950 . S
C1763 C1762 1.397 . S
C1763 C1764 1.334 . S
C1764 H1735 0.950 . S
C1764 C1763 1.334 . S
C1764 C1765 1.287 . S
C1765 C1764 1.287 . S
C1765 C1766 1.524 . S
C1765 H1768 0.999 . S
C1766 H1736 0.950 . S
C1766 C1765 1.524 . S
C1766 C1767 1.415 . S
C1767 H1737 0.950 . S
C1767 C1762 1.363 . S
C1767 C1766 1.415 . S
H1768 C1765 0.999 . S
H1769 C1750 0.913 . S
H1770 C1788 0.951 . S
H1771 C1790 0.951 . S
H1772 C1792 0.950 . S
H1773 C1793 0.950 . S
H1774 C1795 0.950 . S
H1775 C1798 0.950 . S
H1776 C1799 0.950 . S
H1777 C1801 0.950 . S
H1778 C1802 0.950 . S
H1779 C1803 0.951 . S
H1780 C1805 0.951 . S
H1781 C1807 0.950 . S
H1782 C1808 0.950 . S
H1783 C1810 0.950 . S
H1784 C1813 0.950 . S
H1785 C1814 0.950 . S
H1786 C1816 0.950 . S
H1787 C1817 0.950 . S
C1788 H1770 0.951 . S
C1788 C1789 1.366 . S
C1788 C1790 1.388 . S
C1789 C1788 1.366 . S
C1789 C1793 1.385 . S
C1790 H1771 0.951 . S
C1790 C1788 1.388 . S
C1790 C1791 1.366 . S
C1791 C1790 1.366 . S
C1791 C1792 1.414 . S
C1791 C1794 1.499 . S
C1792 H1772 0.950 . S
C1792 C1791 1.414 . S
C1792 C1793 1.374 . S
C1793 H1773 0.950 . S
C1793 C1789 1.385 . S
C1793 C1792 1.374 . S
C1794 C1791 1.499 . S
C1794 C1795 1.373 . S
C1794 C1796 1.389 . S
C1795 H1774 0.950 . S
C1795 C1794 1.373 . S
C1795 C1811 1.377 . S
C1796 C1794 1.389 . S
C1796 C1797 1.524 . S
C1796 C1810 1.377 . S
C1797 C1796 1.524 . S
C1797 C1798 1.397 . S
C1797 C1802 1.363 . S
C1798 H1775 0.950 . S
C1798 C1797 1.397 . S
C1798 C1799 1.334 . S
C1799 H1776 0.950 . S
C1799 C1798 1.334 . S
C1799 C1800 1.287 . S
C1800 C1799 1.287 . S
C1800 C1801 1.524 . S
C1800 H1819 0.913 . S
C1801 H1777 0.950 . S
C1801 C1800 1.524 . S
C1801 C1802 1.415 . S
C1802 H1778 0.950 . S
C1802 C1797 1.363 . S
C1802 C1801 1.415 . S
C1803 H1779 0.951 . S
C1803 C1804 1.366 . S
C1803 C1805 1.388 . S
C1804 C1803 1.366 . S
C1804 C1808 1.385 . S
C1805 H1780 0.951 . S
C1805 C1803 1.388 . S
C1805 C1806 1.366 . S
C1806 C1805 1.366 . S
C1806 C1807 1.414 . S
C1806 C1809 1.499 . S
C1807 H1781 0.950 . S
C1807 C1806 1.414 . S
C1807 C1808 1.374 . S
C1808 H1782 0.950 . S
C1808 C1804 1.385 . S
C1808 C1807 1.374 . S
C1809 C1806 1.499 . S
C1809 C1810 1.373 . S
C1809 C1811 1.389 . S
C1810 H1783 0.950 . S
C1810 C1796 1.377 . S
C1810 C1809 1.373 . S
C1811 C1795 1.377 . S
C1811 C1809 1.389 . S
C1811 C1812 1.524 . S
C1812 C1811 1.524 . S
C1812 C1813 1.397 . S
C1812 C1817 1.363 . S
C1813 H1784 0.950 . S
C1813 C1812 1.397 . S
C1813 C1814 1.334 . S
C1814 H1785 0.950 . S
C1814 C1813 1.334 . S
C1814 C1815 1.287 . S
C1815 C1814 1.287 . S
C1815 C1816 1.524 . S
C1815 H1818 0.999 . S
C1816 H1786 0.950 . S
C1816 C1815 1.524 . S
C1816 C1817 1.415 . S
C1817 H1787 0.950 . S
C1817 C1812 1.363 . S
C1817 C1816 1.415 . S
H1818 C1815 0.999 . S
H1819 C1800 0.913 . S
H1820 C1838 0.953 . S
H1821 C1840 0.951 . S
H1822 C1842 0.950 . S
H1823 C1843 0.950 . S
H1824 C1845 0.950 . S
H1825 C1848 0.950 . S
H1826 C1849 0.950 1_556 S
H1827 C1851 0.950 . S
H1828 C1852 0.950 . S
H1829 C1853 0.951 . S
H1830 C1855 0.951 . S
H1831 C1857 0.950 . S
H1832 C1858 0.950 . S
H1833 C1860 0.950 . S
H1834 C1863 0.950 . S
H1835 C1864 0.950 . S
H1836 C1866 0.950 . S
H1837 C1867 0.950 . S
C1838 H1820 0.953 . S
C1838 C1839 1.384 . S
C1838 C1840 1.368 1_556 S
C1839 C1838 1.384 . S
C1839 C1843 1.385 . S
C1840 H1821 0.951 . S
C1840 C1838 1.368 1_554 S
C1840 C1841 1.366 . S
C1841 C1840 1.366 . S
C1841 C1842 1.414 . S
C1841 C1844 1.499 . S
C1842 H1822 0.950 . S
C1842 C1841 1.414 . S
C1842 C1843 1.374 1_554 S
C1843 H1823 0.950 . S
C1843 C1839 1.385 . S
C1843 C1842 1.374 1_556 S
C1844 C1841 1.499 . S
C1844 C1845 1.373 . S
C1844 C1846 1.389 . S
C1845 H1824 0.950 . S
C1845 C1844 1.373 . S
C1845 C1861 1.377 . S
C1846 C1844 1.389 . S
C1846 C1847 1.524 . S
C1846 C1860 1.377 . S
C1847 C1846 1.524 . S
C1847 C1848 1.397 . S
C1847 C1852 1.363 . S
C1848 H1825 0.950 . S
C1848 C1847 1.397 . S
C1848 C1849 1.334 . S
C1849 H1826 0.950 1_554 S
C1849 C1848 1.334 . S
C1849 C1850 1.287 . S
C1850 C1849 1.287 . S
C1850 C1851 1.524 . S
C1850 H1869 0.913 . S
C1851 H1827 0.950 . S
C1851 C1850 1.524 . S
C1851 C1852 1.415 . S
C1852 H1828 0.950 . S
C1852 C1847 1.363 . S
C1852 C1851 1.415 . S
C1853 H1829 0.951 . S
C1853 C1854 1.366 . S
C1853 C1855 1.388 . S
C1854 C1853 1.366 . S
C1854 C1858 1.385 . S
C1855 H1830 0.951 . S
C1855 C1853 1.388 . S
C1855 C1856 1.366 . S
C1856 C1855 1.366 . S
C1856 C1857 1.414 . S
C1856 C1859 1.499 . S
C1857 H1831 0.950 . S
C1857 C1856 1.414 . S
C1857 C1858 1.374 . S
C1858 H1832 0.950 . S
C1858 C1854 1.385 . S
C1858 C1857 1.374 . S
C1859 C1856 1.499 . S
C1859 C1860 1.373 . S
C1859 C1861 1.389 . S
C1860 H1833 0.950 . S
C1860 C1846 1.377 . S
C1860 C1859 1.373 . S
C1861 C1845 1.377 . S
C1861 C1859 1.389 . S
C1861 C1862 1.524 . S
C1862 C1861 1.524 . S
C1862 C1863 1.397 . S
C1862 C1867 1.363 . S
C1863 H1834 0.950 . S
C1863 C1862 1.397 . S
C1863 C1864 1.334 . S
C1864 H1835 0.950 . S
C1864 C1863 1.334 . S
C1864 C1865 1.287 . S
C1865 C1864 1.287 . S
C1865 C1866 1.524 . S
C1865 H1868 0.999 . S
C1866 H1836 0.950 . S
C1866 C1865 1.524 . S
C1866 C1867 1.415 . S
C1867 H1837 0.950 . S
C1867 C1862 1.363 . S
C1867 C1866 1.415 . S
H1868 C1865 0.999 . S
H1869 C1850 0.913 . S
H1870 C1888 0.951 . S
H1871 C1890 0.951 . S
H1872 C1892 0.950 . S
H1873 C1893 0.950 . S
H1874 C1895 0.950 . S
H1875 C1898 0.950 . S
H1876 C1899 0.950 . S
H1877 C1901 0.950 1_655 S
H1878 C1902 0.950 . S
H1879 C1903 0.951 . S
H1880 C1905 0.951 . S
H1881 C1907 0.950 . S
H1882 C1908 0.950 . S
H1883 C1910 0.950 . S
H1884 C1913 0.950 . S
H1885 C1914 0.950 . S
H1886 C1916 0.950 . S
H1887 C1917 0.950 . S
C1888 H1870 0.951 . S
C1888 C1889 1.366 . S
C1888 C1890 1.388 . S
C1889 C1888 1.366 . S
C1889 C1893 1.385 . S
C1890 H1871 0.951 . S
C1890 C1888 1.388 . S
C1890 C1891 1.366 . S
C1891 C1890 1.366 . S
C1891 C1892 1.414 . S
C1891 C1894 1.499 . S
C1892 H1872 0.950 . S
C1892 C1891 1.414 . S
C1892 C1893 1.374 . S
C1893 H1873 0.950 . S
C1893 C1889 1.385 . S
C1893 C1892 1.374 . S
C1894 C1891 1.499 . S
C1894 C1895 1.373 . S
C1894 C1896 1.389 . S
C1895 H1874 0.950 . S
C1895 C1894 1.373 . S
C1895 C1911 1.377 . S
C1896 C1894 1.389 . S
C1896 C1897 1.524 . S
C1896 C1910 1.377 . S
C1897 C1896 1.524 . S
C1897 C1898 1.397 . S
C1897 C1902 1.363 . S
C1898 H1875 0.950 . S
C1898 C1897 1.397 . S
C1898 C1899 1.334 . S
C1899 H1876 0.950 . S
C1899 C1898 1.334 . S
C1899 C1900 1.287 1_455 S
C1900 C1899 1.287 1_655 S
C1900 C1901 1.524 1_655 S
C1900 H1919 0.913 . S
C1901 H1877 0.950 1_455 S
C1901 C1900 1.524 1_455 S
C1901 C1902 1.415 . S
C1902 H1878 0.950 . S
C1902 C1897 1.363 . S
C1902 C1901 1.415 . S
C1903 H1879 0.951 . S
C1903 C1904 1.366 . S
C1903 C1905 1.388 . S
C1904 C1903 1.366 . S
C1904 C1908 1.385 . S
C1905 H1880 0.951 . S
C1905 C1903 1.388 . S
C1905 C1906 1.366 . S
C1906 C1905 1.366 . S
C1906 C1907 1.414 . S
C1906 C1909 1.499 . S
C1907 H1881 0.950 . S
C1907 C1906 1.414 . S
C1907 C1908 1.374 . S
C1908 H1882 0.950 . S
C1908 C1904 1.385 . S
C1908 C1907 1.374 . S
C1909 C1906 1.499 . S
C1909 C1910 1.373 . S
C1909 C1911 1.389 . S
C1910 H1883 0.950 . S
C1910 C1896 1.377 . S
C1910 C1909 1.373 . S
C1911 C1895 1.377 . S
C1911 C1909 1.389 . S
C1911 C1912 1.524 . S
C1912 C1911 1.524 . S
C1912 C1913 1.397 . S
C1912 C1917 1.363 . S
C1913 H1884 0.950 . S
C1913 C1912 1.397 . S
C1913 C1914 1.334 . S
C1914 H1885 0.950 . S
C1914 C1913 1.334 . S
C1914 C1915 1.287 . S
C1915 C1914 1.287 . S
C1915 C1916 1.524 . S
C1915 H1918 0.999 . S
C1916 H1886 0.950 . S
C1916 C1915 1.524 . S
C1916 C1917 1.415 . S
C1917 H1887 0.950 . S
C1917 C1912 1.363 . S
C1917 C1916 1.415 . S
H1918 C1915 0.999 . S
H1919 C1900 0.913 . S
H1920 C1938 0.951 . S
H1921 C1940 0.951 . S
H1922 C1942 0.950 . S
H1923 C1943 0.950 . S
H1924 C1945 0.950 . S
H1925 C1948 0.950 . S
H1926 C1949 0.950 . S
H1927 C1951 0.950 . S
H1928 C1952 0.949 . S
H1929 C1953 0.951 . S
H1930 C1955 0.951 . S
H1931 C1957 0.950 . S
H1932 C1958 0.950 . S
H1933 C1960 0.950 . S
H1934 C1963 0.950 . S
H1935 C1964 0.950 . S
H1936 C1966 0.950 . S
H1937 C1967 0.950 . S
C1938 H1920 0.951 . S
C1938 C1939 1.366 . S
C1938 C1940 1.388 . S
C1939 C1938 1.366 . S
C1939 C1943 1.385 . S
C1940 H1921 0.951 . S
C1940 C1938 1.388 . S
C1940 C1941 1.366 . S
C1941 C1940 1.366 . S
C1941 C1942 1.414 . S
C1941 C1944 1.499 . S
C1942 H1922 0.950 . S
C1942 C1941 1.414 . S
C1942 C1943 1.374 . S
C1943 H1923 0.950 . S
C1943 C1939 1.385 . S
C1943 C1942 1.374 . S
C1944 C1941 1.499 . S
C1944 C1945 1.373 . S
C1944 C1946 1.389 . S
C1945 H1924 0.950 . S
C1945 C1944 1.373 . S
C1945 C1961 1.377 . S
C1946 C1944 1.389 . S
C1946 C1947 1.524 . S
C1946 C1960 1.377 . S
C1947 C1946 1.524 . S
C1947 C1948 1.397 1_655 S
C1947 C1952 1.363 1_655 S
C1948 H1925 0.950 . S
C1948 C1947 1.397 1_455 S
C1948 C1949 1.334 . S
C1949 H1926 0.950 . S
C1949 C1948 1.334 . S
C1949 C1950 1.287 . S
C1950 C1949 1.287 . S
C1950 C1951 1.524 . S
C1950 H1969 0.913 . S
C1951 H1927 0.950 . S
C1951 C1950 1.524 . S
C1951 C1952 1.415 . S
C1952 H1928 0.949 . S
C1952 C1947 1.363 1_455 S
C1952 C1951 1.415 . S
C1953 H1929 0.951 . S
C1953 C1954 1.366 . S
C1953 C1955 1.388 . S
C1954 C1953 1.366 . S
C1954 C1958 1.385 . S
C1955 H1930 0.951 . S
C1955 C1953 1.388 . S
C1955 C1956 1.366 . S
C1956 C1955 1.366 . S
C1956 C1957 1.414 . S
C1956 C1959 1.499 . S
C1957 H1931 0.950 . S
C1957 C1956 1.414 . S
C1957 C1958 1.374 . S
C1958 H1932 0.950 . S
C1958 C1954 1.385 . S
C1958 C1957 1.374 . S
C1959 C1956 1.499 . S
C1959 C1960 1.373 . S
C1959 C1961 1.389 . S
C1960 H1933 0.950 . S
C1960 C1946 1.377 . S
C1960 C1959 1.373 . S
C1961 C1945 1.377 . S
C1961 C1959 1.389 . S
C1961 C1962 1.524 . S
C1962 C1961 1.524 . S
C1962 C1963 1.397 . S
C1962 C1967 1.363 . S
C1963 H1934 0.950 . S
C1963 C1962 1.397 . S
C1963 C1964 1.334 . S
C1964 H1935 0.950 . S
C1964 C1963 1.334 . S
C1964 C1965 1.287 . S
C1965 C1964 1.287 . S
C1965 C1966 1.524 . S
C1965 H1968 0.999 . S
C1966 H1936 0.950 . S
C1966 C1965 1.524 . S
C1966 C1967 1.415 . S
C1967 H1937 0.950 . S
C1967 C1962 1.363 . S
C1967 C1966 1.415 . S
H1968 C1965 0.999 . S
H1969 C1950 0.913 . S
H1970 C1988 0.951 . S
H1971 C1990 0.951 . S
H1972 C1992 0.950 . S
H1973 C1993 0.950 . S
H1974 C1995 0.950 . S
H1975 C1998 0.950 . S
H1976 C1999 0.950 . S
H1977 C2001 0.950 . S
H1978 C2002 0.950 . S
H1979 C2003 0.951 . S
H1980 C2005 0.951 . S
H1981 C2007 0.950 . S
H1982 C2008 0.950 . S
H1983 C2010 0.950 . S
H1984 C2013 0.950 . S
H1985 C2014 0.950 . S
H1986 C2016 0.950 . S
H1987 C2017 0.950 . S
C1988 H1970 0.951 . S
C1988 C1989 1.366 . S
C1988 C1990 1.388 . S
C1989 C1988 1.366 . S
C1989 C1993 1.385 . S
C1990 H1971 0.951 . S
C1990 C1988 1.388 . S
C1990 C1991 1.366 . S
C1991 C1990 1.366 . S
C1991 C1992 1.414 . S
C1991 C1994 1.499 . S
C1992 H1972 0.950 . S
C1992 C1991 1.414 . S
C1992 C1993 1.374 . S
C1993 H1973 0.950 . S
C1993 C1989 1.385 . S
C1993 C1992 1.374 . S
C1994 C1991 1.499 . S
C1994 C1995 1.373 . S
C1994 C1996 1.389 . S
C1995 H1974 0.950 . S
C1995 C1994 1.373 . S
C1995 C2011 1.377 . S
C1996 C1994 1.389 . S
C1996 C1997 1.524 . S
C1996 C2010 1.377 . S
C1997 C1996 1.524 . S
C1997 C1998 1.397 . S
C1997 C2002 1.363 . S
C1998 H1975 0.950 . S
C1998 C1997 1.397 . S
C1998 C1999 1.334 . S
C1999 H1976 0.950 . S
C1999 C1998 1.334 . S
C1999 C2000 1.287 . S
C2000 C1999 1.287 . S
C2000 C2001 1.524 . S
C2000 H2019 0.913 . S
C2001 H1977 0.950 . S
C2001 C2000 1.524 . S
C2001 C2002 1.415 . S
C2002 H1978 0.950 . S
C2002 C1997 1.363 . S
C2002 C2001 1.415 . S
C2003 H1979 0.951 . S
C2003 C2004 1.366 . S
C2003 C2005 1.388 . S
C2004 C2003 1.366 . S
C2004 C2008 1.385 . S
C2005 H1980 0.951 . S
C2005 C2003 1.388 . S
C2005 C2006 1.366 . S
C2006 C2005 1.366 . S
C2006 C2007 1.414 . S
C2006 C2009 1.499 . S
C2007 H1981 0.950 . S
C2007 C2006 1.414 . S
C2007 C2008 1.374 . S
C2008 H1982 0.950 . S
C2008 C2004 1.385 . S
C2008 C2007 1.374 . S
C2009 C2006 1.499 . S
C2009 C2010 1.373 . S
C2009 C2011 1.389 . S
C2010 H1983 0.950 . S
C2010 C1996 1.377 . S
C2010 C2009 1.373 . S
C2011 C1995 1.377 . S
C2011 C2009 1.389 . S
C2011 C2012 1.524 . S
C2012 C2011 1.524 . S
C2012 C2013 1.397 . S
C2012 C2017 1.363 . S
C2013 H1984 0.950 . S
C2013 C2012 1.397 . S
C2013 C2014 1.334 . S
C2014 H1985 0.950 . S
C2014 C2013 1.334 . S
C2014 C2015 1.287 . S
C2015 C2014 1.287 . S
C2015 C2016 1.524 . S
C2015 H2018 0.999 . S
C2016 H1986 0.950 . S
C2016 C2015 1.524 . S
C2016 C2017 1.415 . S
C2017 H1987 0.950 . S
C2017 C2012 1.363 . S
C2017 C2016 1.415 . S
H2018 C2015 0.999 . S
H2019 C2000 0.913 . S
H2020 C2038 0.951 . S
H2021 C2040 0.951 . S
H2022 C2042 0.950 . S
H2023 C2043 0.950 . S
H2024 C2045 0.950 . S
H2025 C2048 0.950 . S
H2026 C2049 0.950 . S
H2027 C2051 0.950 . S
H2028 C2052 0.950 . S
H2029 C2053 0.951 . S
H2030 C2055 0.951 . S
H2031 C2057 0.950 . S
H2032 C2058 0.950 1_554 S
H2033 C2060 0.950 . S
H2034 C2063 0.950 . S
H2035 C2064 0.950 . S
H2036 C2066 0.950 . S
H2037 C2067 0.950 . S
C2038 H2020 0.951 . S
C2038 C2039 1.366 . S
C2038 C2040 1.388 . S
C2039 C2038 1.366 . S
C2039 C2043 1.385 . S
C2040 H2021 0.951 . S
C2040 C2038 1.388 . S
C2040 C2041 1.366 . S
C2041 C2040 1.366 . S
C2041 C2042 1.414 . S
C2041 C2044 1.499 . S
C2042 H2022 0.950 . S
C2042 C2041 1.414 . S
C2042 C2043 1.374 . S
C2043 H2023 0.950 . S
C2043 C2039 1.385 . S
C2043 C2042 1.374 . S
C2044 C2041 1.499 . S
C2044 C2045 1.373 . S
C2044 C2046 1.389 . S
C2045 H2024 0.950 . S
C2045 C2044 1.373 . S
C2045 C2061 1.377 . S
C2046 C2044 1.389 . S
C2046 C2047 1.524 . S
C2046 C2060 1.377 . S
C2047 C2046 1.524 . S
C2047 C2048 1.397 . S
C2047 C2052 1.363 . S
C2048 H2025 0.950 . S
C2048 C2047 1.397 . S
C2048 C2049 1.334 . S
C2049 H2026 0.950 . S
C2049 C2048 1.334 . S
C2049 C2050 1.287 . S
C2050 C2049 1.287 . S
C2050 C2051 1.524 . S
C2050 H2069 0.913 . S
C2051 H2027 0.950 . S
C2051 C2050 1.524 . S
C2051 C2052 1.415 . S
C2052 H2028 0.950 . S
C2052 C2047 1.363 . S
C2052 C2051 1.415 . S
C2053 H2029 0.951 . S
C2053 C2054 1.366 . S
C2053 C2055 1.388 . S
C2054 C2053 1.366 . S
C2054 C2058 1.385 . S
C2055 H2030 0.951 . S
C2055 C2053 1.388 . S
C2055 C2056 1.366 . S
C2056 C2055 1.366 . S
C2056 C2057 1.414 . S
C2056 C2059 1.499 . S
C2057 H2031 0.950 . S
C2057 C2056 1.414 . S
C2057 C2058 1.374 . S
C2058 H2032 0.950 1_556 S
C2058 C2054 1.385 . S
C2058 C2057 1.374 . S
C2059 C2056 1.499 . S
C2059 C2060 1.373 . S
C2059 C2061 1.389 . S
C2060 H2033 0.950 . S
C2060 C2046 1.377 . S
C2060 C2059 1.373 . S
C2061 C2045 1.377 . S
C2061 C2059 1.389 . S
C2061 C2062 1.524 . S
C2062 C2061 1.524 . S
C2062 C2063 1.397 . S
C2062 C2067 1.363 . S
C2063 H2034 0.950 . S
C2063 C2062 1.397 . S
C2063 C2064 1.334 . S
C2064 H2035 0.950 . S
C2064 C2063 1.334 . S
C2064 C2065 1.287 . S
C2065 C2064 1.287 . S
C2065 C2066 1.524 . S
C2065 H2068 0.999 . S
C2066 H2036 0.950 . S
C2066 C2065 1.524 . S
C2066 C2067 1.415 . S
C2067 H2037 0.950 . S
C2067 C2062 1.363 . S
C2067 C2066 1.415 . S
H2068 C2065 0.999 . S
H2069 C2050 0.913 . S
H2070 C2088 0.951 . S
H2071 C2090 0.951 . S
H2072 C2092 0.950 . S
H2073 C2093 0.950 . S
H2074 C2095 0.950 . S
H2075 C2098 0.950 . S
H2076 C2099 0.950 . S
H2077 C2101 0.950 . S
H2078 C2102 0.950 . S
H2079 C2103 0.951 . S
H2080 C2105 0.951 . S
H2081 C2107 0.950 . S
H2082 C2108 0.950 . S
H2083 C2110 0.950 . S
H2084 C2113 0.950 . S
H2085 C2114 0.950 . S
H2086 C2116 0.950 . S
H2087 C2117 0.950 . S
C2088 H2070 0.951 . S
C2088 C2089 1.366 . S
C2088 C2090 1.388 . S
C2089 C2088 1.366 . S
C2089 C2093 1.385 . S
C2090 H2071 0.951 . S
C2090 C2088 1.388 . S
C2090 C2091 1.366 . S
C2091 C2090 1.366 . S
C2091 C2092 1.414 . S
C2091 C2094 1.499 . S
C2092 H2072 0.950 . S
C2092 C2091 1.414 . S
C2092 C2093 1.374 . S
C2093 H2073 0.950 . S
C2093 C2089 1.385 . S
C2093 C2092 1.374 . S
C2094 C2091 1.499 . S
C2094 C2095 1.373 . S
C2094 C2096 1.389 . S
C2095 H2074 0.950 . S
C2095 C2094 1.373 . S
C2095 C2111 1.377 . S
C2096 C2094 1.389 . S
C2096 C2097 1.524 . S
C2096 C2110 1.377 . S
C2097 C2096 1.524 . S
C2097 C2098 1.397 . S
C2097 C2102 1.363 . S
C2098 H2075 0.950 . S
C2098 C2097 1.397 . S
C2098 C2099 1.334 . S
C2099 H2076 0.950 . S
C2099 C2098 1.334 . S
C2099 C2100 1.287 . S
C2100 C2099 1.287 . S
C2100 C2101 1.524 . S
C2100 H2119 0.913 . S
C2101 H2077 0.950 . S
C2101 C2100 1.524 . S
C2101 C2102 1.415 . S
C2102 H2078 0.950 . S
C2102 C2097 1.363 . S
C2102 C2101 1.415 . S
C2103 H2079 0.951 . S
C2103 C2104 1.366 . S
C2103 C2105 1.388 . S
C2104 C2103 1.366 . S
C2104 C2108 1.385 . S
C2105 H2080 0.951 . S
C2105 C2103 1.388 . S
C2105 C2106 1.366 . S
C2106 C2105 1.366 . S
C2106 C2107 1.414 . S
C2106 C2109 1.499 . S
C2107 H2081 0.950 . S
C2107 C2106 1.414 . S
C2107 C2108 1.374 . S
C2108 H2082 0.950 . S
C2108 C2104 1.385 . S
C2108 C2107 1.374 . S
C2109 C2106 1.499 . S
C2109 C2110 1.373 . S
C2109 C2111 1.389 . S
C2110 H2083 0.950 . S
C2110 C2096 1.377 . S
C2110 C2109 1.373 . S
C2111 C2095 1.377 . S
C2111 C2109 1.389 . S
C2111 C2112 1.524 . S
C2112 C2111 1.524 . S
C2112 C2113 1.397 . S
C2112 C2117 1.363 . S
C2113 H2084 0.950 . S
C2113 C2112 1.397 . S
C2113 C2114 1.334 . S
C2114 H2085 0.950 . S
C2114 C2113 1.334 . S
C2114 C2115 1.287 . S
C2115 C2114 1.287 . S
C2115 C2116 1.524 . S
C2115 H2118 0.999 . S
C2116 H2086 0.950 . S
C2116 C2115 1.524 . S
C2116 C2117 1.415 . S
C2117 H2087 0.950 . S
C2117 C2112 1.363 . S
C2117 C2116 1.415 . S
H2118 C2115 0.999 . S
H2119 C2100 0.913 . S
H2120 C2138 0.951 . S
H2121 C2140 0.951 . S
H2122 C2142 0.950 . S
H2123 C2143 0.950 . S
H2124 C2145 0.950 . S
H2125 C2148 0.950 . S
H2126 C2149 0.950 . S
H2127 C2151 0.950 . S
H2128 C2152 0.950 . S
H2129 C2153 0.951 . S
H2130 C2155 0.951 . S
H2131 C2157 0.950 . S
H2132 C2158 0.950 . S
H2133 C2160 0.950 . S
H2134 C2163 0.950 . S
H2135 C2164 0.950 . S
H2136 C2166 0.950 . S
H2137 C2167 0.950 . S
C2138 H2120 0.951 . S
C2138 C2139 1.366 . S
C2138 C2140 1.388 . S
C2139 C2138 1.366 . S
C2139 C2143 1.385 . S
C2140 H2121 0.951 . S
C2140 C2138 1.388 . S
C2140 C2141 1.366 1_655 S
C2141 C2140 1.366 1_455 S
C2141 C2142 1.414 . S
C2141 C2144 1.499 . S
C2142 H2122 0.950 . S
C2142 C2141 1.414 . S
C2142 C2143 1.374 1_455 S
C2143 H2123 0.950 . S
C2143 C2139 1.385 . S
C2143 C2142 1.374 1_655 S
C2144 C2141 1.499 . S
C2144 C2145 1.373 . S
C2144 C2146 1.389 . S
C2145 H2124 0.950 . S
C2145 C2144 1.373 . S
C2145 C2161 1.377 . S
C2146 C2144 1.389 . S
C2146 C2147 1.524 . S
C2146 C2160 1.377 . S
C2147 C2146 1.524 . S
C2147 C2148 1.397 . S
C2147 C2152 1.363 . S
C2148 H2125 0.950 . S
C2148 C2147 1.397 . S
C2148 C2149 1.334 1_455 S
C2149 H2126 0.950 . S
C2149 C2148 1.334 1_655 S
C2149 C2150 1.287 . S
C2150 C2149 1.287 . S
C2150 C2151 1.524 . S
C2150 H2169 0.913 . S
C2151 H2127 0.950 . S
C2151 C2150 1.524 . S
C2151 C2152 1.415 1_655 S
C2152 H2128 0.950 . S
C2152 C2147 1.363 . S
C2152 C2151 1.415 1_455 S
C2153 H2129 0.951 . S
C2153 C2154 1.366 . S
C2153 C2155 1.388 . S
C2154 C2153 1.366 . S
C2154 C2158 1.385 . S
C2155 H2130 0.951 . S
C2155 C2153 1.388 . S
C2155 C2156 1.366 . S
C2156 C2155 1.366 . S
C2156 C2157 1.414 . S
C2156 C2159 1.499 . S
C2157 H2131 0.950 . S
C2157 C2156 1.414 . S
C2157 C2158 1.374 . S
C2158 H2132 0.950 . S
C2158 C2154 1.385 . S
C2158 C2157 1.374 . S
C2159 C2156 1.499 . S
C2159 C2160 1.373 . S
C2159 C2161 1.389 . S
C2160 H2133 0.950 . S
C2160 C2146 1.377 . S
C2160 C2159 1.373 . S
C2161 C2145 1.377 . S
C2161 C2159 1.389 . S
C2161 C2162 1.524 . S
C2162 C2161 1.524 . S
C2162 C2163 1.397 . S
C2162 C2167 1.363 . S
C2163 H2134 0.950 . S
C2163 C2162 1.397 . S
C2163 C2164 1.334 . S
C2164 H2135 0.950 . S
C2164 C2163 1.334 . S
C2164 C2165 1.287 . S
C2165 C2164 1.287 . S
C2165 C2166 1.524 . S
C2165 H2168 0.999 . S
C2166 H2136 0.950 . S
C2166 C2165 1.524 . S
C2166 C2167 1.415 . S
C2167 H2137 0.950 . S
C2167 C2162 1.363 . S
C2167 C2166 1.415 . S
H2168 C2165 0.999 . S
H2169 C2150 0.913 . S
H2170 C2188 0.951 . S
H2171 C2190 0.951 . S
H2172 C2192 0.950 . S
H2173 C2193 0.950 . S
H2174 C2195 0.950 . S
H2175 C2198 0.950 . S
H2176 C2199 0.950 . S
H2177 C2201 0.950 . S
H2178 C2202 0.950 . S
H2179 C2203 0.951 . S
H2180 C2205 0.951 . S
H2181 C2207 0.950 . S
H2182 C2208 0.950 . S
H2183 C2210 0.950 . S
H2184 C2213 0.950 . S
H2185 C2214 0.950 . S
H2186 C2216 0.950 . S
H2187 C2217 0.950 . S
C2188 H2170 0.951 . S
C2188 C2189 1.366 . S
C2188 C2190 1.388 . S
C2189 C2188 1.366 . S
C2189 C2193 1.385 . S
C2190 H2171 0.951 . S
C2190 C2188 1.388 . S
C2190 C2191 1.366 . S
C2191 C2190 1.366 . S
C2191 C2192 1.414 . S
C2191 C2194 1.499 . S
C2192 H2172 0.950 . S
C2192 C2191 1.414 . S
C2192 C2193 1.374 . S
C2193 H2173 0.950 . S
C2193 C2189 1.385 . S
C2193 C2192 1.374 . S
C2194 C2191 1.499 . S
C2194 C2195 1.373 . S
C2194 C2196 1.389 . S
C2195 H2174 0.950 . S
C2195 C2194 1.373 . S
C2195 C2211 1.377 . S
C2196 C2194 1.389 . S
C2196 C2197 1.524 . S
C2196 C2210 1.377 . S
C2197 C2196 1.524 . S
C2197 C2198 1.397 . S
C2197 C2202 1.363 . S
C2198 H2175 0.950 . S
C2198 C2197 1.397 . S
C2198 C2199 1.334 . S
C2199 H2176 0.950 . S
C2199 C2198 1.334 . S
C2199 C2200 1.287 . S
C2200 C2199 1.287 . S
C2200 C2201 1.524 . S
C2200 H2219 0.913 . S
C2201 H2177 0.950 . S
C2201 C2200 1.524 . S
C2201 C2202 1.415 . S
C2202 H2178 0.950 . S
C2202 C2197 1.363 . S
C2202 C2201 1.415 . S
C2203 H2179 0.951 . S
C2203 C2204 1.366 . S
C2203 C2205 1.388 . S
C2204 C2203 1.366 . S
C2204 C2208 1.385 . S
C2205 H2180 0.951 . S
C2205 C2203 1.388 . S
C2205 C2206 1.366 . S
C2206 C2205 1.366 . S
C2206 C2207 1.414 . S
C2206 C2209 1.499 . S
C2207 H2181 0.950 . S
C2207 C2206 1.414 . S
C2207 C2208 1.374 . S
C2208 H2182 0.950 . S
C2208 C2204 1.385 . S
C2208 C2207 1.374 . S
C2209 C2206 1.499 . S
C2209 C2210 1.373 . S
C2209 C2211 1.389 . S
C2210 H2183 0.950 . S
C2210 C2196 1.377 . S
C2210 C2209 1.373 . S
C2211 C2195 1.377 . S
C2211 C2209 1.389 . S
C2211 C2212 1.524 . S
C2212 C2211 1.524 . S
C2212 C2213 1.397 . S
C2212 C2217 1.363 . S
C2213 H2184 0.950 . S
C2213 C2212 1.397 . S
C2213 C2214 1.334 . S
C2214 H2185 0.950 . S
C2214 C2213 1.334 . S
C2214 C2215 1.287 . S
C2215 C2214 1.287 . S
C2215 C2216 1.524 . S
C2215 H2218 0.999 . S
C2216 H2186 0.950 . S
C2216 C2215 1.524 . S
C2216 C2217 1.415 . S
C2217 H2187 0.950 . S
C2217 C2212 1.363 . S
C2217 C2216 1.415 . S
H2218 C2215 0.999 . S
H2219 C2200 0.913 . S
H2220 C2238 0.951 . S
H2221 C2240 0.951 . S
H2222 C2242 0.950 . S
H2223 C2243 0.950 . S
H2224 C2245 0.950 . S
H2225 C2248 0.950 . S
H2226 C2249 0.950 . S
H2227 C2251 0.950 . S
H2228 C2252 0.950 . S
H2229 C2253 0.951 . S
H2230 C2255 0.951 . S
H2231 C2257 0.950 . S
H2232 C2258 0.950 . S
H2233 C2260 0.950 . S
H2234 C2263 0.950 . S
H2235 C2264 0.950 . S
H2236 C2266 0.950 . S
H2237 C2267 0.950 . S
C2238 H2220 0.951 . S
C2238 C2239 1.366 . S
C2238 C2240 1.388 . S
C2239 C2238 1.366 . S
C2239 C2243 1.385 . S
C2240 H2221 0.951 . S
C2240 C2238 1.388 . S
C2240 C2241 1.366 . S
C2241 C2240 1.366 . S
C2241 C2242 1.414 . S
C2241 C2244 1.499 . S
C2242 H2222 0.950 . S
C2242 C2241 1.414 . S
C2242 C2243 1.374 . S
C2243 H2223 0.950 . S
C2243 C2239 1.385 . S
C2243 C2242 1.374 . S
C2244 C2241 1.499 . S
C2244 C2245 1.373 . S
C2244 C2246 1.389 . S
C2245 H2224 0.950 . S
C2245 C2244 1.373 . S
C2245 C2261 1.377 . S
C2246 C2244 1.389 . S
C2246 C2247 1.524 . S
C2246 C2260 1.377 . S
C2247 C2246 1.524 . S
C2247 C2248 1.397 . S
C2247 C2252 1.363 . S
C2248 H2225 0.950 . S
C2248 C2247 1.397 . S
C2248 C2249 1.334 . S
C2249 H2226 0.950 . S
C2249 C2248 1.334 . S
C2249 C2250 1.287 . S
C2250 C2249 1.287 . S
C2250 C2251 1.524 . S
C2250 H2269 0.913 . S
C2251 H2227 0.950 . S
C2251 C2250 1.524 . S
C2251 C2252 1.415 . S
C2252 H2228 0.950 . S
C2252 C2247 1.363 . S
C2252 C2251 1.415 . S
C2253 H2229 0.951 . S
C2253 C2254 1.366 . S
C2253 C2255 1.388 . S
C2254 C2253 1.366 . S
C2254 C2258 1.385 . S
C2255 H2230 0.951 . S
C2255 C2253 1.388 . S
C2255 C2256 1.366 . S
C2256 C2255 1.366 . S
C2256 C2257 1.414 . S
C2256 C2259 1.499 . S
C2257 H2231 0.950 . S
C2257 C2256 1.414 . S
C2257 C2258 1.374 . S
C2258 H2232 0.950 . S
C2258 C2254 1.385 . S
C2258 C2257 1.374 . S
C2259 C2256 1.499 . S
C2259 C2260 1.373 . S
C2259 C2261 1.389 . S
C2260 H2233 0.950 . S
C2260 C2246 1.377 . S
C2260 C2259 1.373 . S
C2261 C2245 1.377 . S
C2261 C2259 1.389 . S
C2261 C2262 1.524 . S
C2262 C2261 1.524 . S
C2262 C2263 1.397 . S
C2262 C2267 1.363 . S
C2263 H2234 0.950 . S
C2263 C2262 1.397 . S
C2263 C2264 1.334 . S
C2264 H2235 0.950 . S
C2264 C2263 1.334 . S
C2264 C2265 1.287 . S
C2265 C2264 1.287 . S
C2265 C2266 1.524 . S
C2265 H2268 0.999 . S
C2266 H2236 0.950 . S
C2266 C2265 1.524 . S
C2266 C2267 1.415 . S
C2267 H2237 0.950 . S
C2267 C2262 1.363 . S
C2267 C2266 1.415 . S
H2268 C2265 0.999 . S
H2269 C2250 0.913 . S
H2270 C2288 0.951 . S
H2271 C2290 0.951 . S
H2272 C2292 0.950 . S
H2273 C2293 0.950 . S
H2274 C2295 0.950 . S
H2275 C2298 0.950 . S
H2276 C2299 0.950 . S
H2277 C2301 0.950 . S
H2278 C2302 0.950 . S
H2279 C2303 0.951 . S
H2280 C2305 0.951 . S
H2281 C2307 0.950 . S
H2282 C2308 0.950 . S
H2283 C2310 0.950 . S
H2284 C2313 0.950 . S
H2285 C2314 0.950 . S
H2286 C2316 0.950 . S
H2287 C2317 0.950 . S
C2288 H2270 0.951 . S
C2288 C2289 1.366 . S
C2288 C2290 1.388 . S
C2289 C2288 1.366 . S
C2289 C2293 1.385 . S
C2290 H2271 0.951 . S
C2290 C2288 1.388 . S
C2290 C2291 1.366 . S
C2291 C2290 1.366 . S
C2291 C2292 1.414 . S
C2291 C2294 1.499 . S
C2292 H2272 0.950 . S
C2292 C2291 1.414 . S
C2292 C2293 1.374 . S
C2293 H2273 0.950 . S
C2293 C2289 1.385 . S
C2293 C2292 1.374 . S
C2294 C2291 1.499 . S
C2294 C2295 1.373 . S
C2294 C2296 1.389 . S
C2295 H2274 0.950 . S
C2295 C2294 1.373 . S
C2295 C2311 1.377 . S
C2296 C2294 1.389 . S
C2296 C2297 1.524 . S
C2296 C2310 1.377 . S
C2297 C2296 1.524 . S
C2297 C2298 1.397 . S
C2297 C2302 1.363 . S
C2298 H2275 0.950 . S
C2298 C2297 1.397 . S
C2298 C2299 1.334 . S
C2299 H2276 0.950 . S
C2299 C2298 1.334 . S
C2299 C2300 1.287 . S
C2300 C2299 1.287 . S
C2300 C2301 1.524 . S
C2300 H2319 0.913 . S
C2301 H2277 0.950 . S
C2301 C2300 1.524 . S
C2301 C2302 1.415 . S
C2302 H2278 0.950 . S
C2302 C2297 1.363 . S
C2302 C2301 1.415 . S
C2303 H2279 0.951 . S
C2303 C2304 1.366 . S
C2303 C2305 1.388 . S
C2304 C2303 1.366 . S
C2304 C2308 1.385 . S
C2305 H2280 0.951 . S
C2305 C2303 1.388 . S
C2305 C2306 1.366 . S
C2306 C2305 1.366 . S
C2306 C2307 1.414 . S
C2306 C2309 1.499 . S
C2307 H2281 0.950 . S
C2307 C2306 1.414 . S
C2307 C2308 1.374 . S
C2308 H2282 0.950 . S
C2308 C2304 1.385 . S
C2308 C2307 1.374 . S
C2309 C2306 1.499 . S
C2309 C2310 1.373 . S
C2309 C2311 1.389 . S
C2310 H2283 0.950 . S
C2310 C2296 1.377 . S
C2310 C2309 1.373 . S
C2311 C2295 1.377 . S
C2311 C2309 1.389 . S
C2311 C2312 1.524 . S
C2312 C2311 1.524 . S
C2312 C2313 1.397 . S
C2312 C2317 1.363 . S
C2313 H2284 0.950 . S
C2313 C2312 1.397 . S
C2313 C2314 1.334 . S
C2314 H2285 0.950 . S
C2314 C2313 1.334 . S
C2314 C2315 1.287 . S
C2315 C2314 1.287 . S
C2315 C2316 1.524 . S
C2315 H2318 0.999 . S
C2316 H2286 0.950 . S
C2316 C2315 1.524 . S
C2316 C2317 1.415 . S
C2317 H2287 0.950 . S
C2317 C2312 1.363 . S
C2317 C2316 1.415 . S
H2318 C2315 0.999 . S
H2319 C2300 0.913 . S
H2320 C2338 0.951 . S
H2321 C2340 0.951 . S
H2322 C2342 0.950 . S
H2323 C2343 0.950 . S
H2324 C2345 0.950 . S
H2325 C2348 0.950 . S
H2326 C2349 0.950 . S
H2327 C2351 0.950 . S
H2328 C2352 0.950 . S
H2329 C2353 0.951 . S
H2330 C2355 0.951 . S
H2331 C2357 0.950 . S
H2332 C2358 0.950 . S
H2333 C2360 0.950 . S
H2334 C2363 0.950 . S
H2335 C2364 0.950 . S
H2336 C2366 0.950 . S
H2337 C2367 0.950 . S
C2338 H2320 0.951 . S
C2338 C2339 1.366 . S
C2338 C2340 1.388 1_655 S
C2339 C2338 1.366 . S
C2339 C2343 1.385 . S
C2340 H2321 0.951 . S
C2340 C2338 1.388 1_455 S
C2340 C2341 1.366 . S
C2341 C2340 1.366 . S
C2341 C2342 1.414 1_455 S
C2341 C2344 1.499 . S
C2342 H2322 0.950 . S
C2342 C2341 1.414 1_655 S
C2342 C2343 1.374 . S
C2343 H2323 0.950 . S
C2343 C2339 1.385 . S
C2343 C2342 1.374 . S
C2344 C2341 1.499 . S
C2344 C2345 1.373 . S
C2344 C2346 1.389 . S
C2345 H2324 0.950 . S
C2345 C2344 1.373 . S
C2345 C2361 1.377 . S
C2346 C2344 1.389 . S
C2346 C2347 1.524 . S
C2346 C2360 1.377 . S
C2347 C2346 1.524 . S
C2347 C2348 1.397 . S
C2347 C2352 1.363 . S
C2348 H2325 0.950 . S
C2348 C2347 1.397 . S
C2348 C2349 1.334 . S
C2349 H2326 0.950 . S
C2349 C2348 1.334 . S
C2349 C2350 1.287 . S
C2350 C2349 1.287 . S
C2350 C2351 1.524 . S
C2350 H2369 0.913 . S
C2351 H2327 0.950 . S
C2351 C2350 1.524 . S
C2351 C2352 1.415 . S
C2352 H2328 0.950 . S
C2352 C2347 1.363 . S
C2352 C2351 1.415 . S
C2353 H2329 0.951 . S
C2353 C2354 1.366 . S
C2353 C2355 1.388 . S
C2354 C2353 1.366 . S
C2354 C2358 1.385 . S
C2355 H2330 0.951 . S
C2355 C2353 1.388 . S
C2355 C2356 1.366 . S
C2356 C2355 1.366 . S
C2356 C2357 1.414 . S
C2356 C2359 1.499 . S
C2357 H2331 0.950 . S
C2357 C2356 1.414 . S
C2357 C2358 1.374 . S
C2358 H2332 0.950 . S
C2358 C2354 1.385 . S
C2358 C2357 1.374 . S
C2359 C2356 1.499 . S
C2359 C2360 1.373 . S
C2359 C2361 1.389 . S
C2360 H2333 0.950 . S
C2360 C2346 1.377 . S
C2360 C2359 1.373 . S
C2361 C2345 1.377 . S
C2361 C2359 1.389 . S
C2361 C2362 1.524 . S
C2362 C2361 1.524 . S
C2362 C2363 1.397 . S
C2362 C2367 1.363 . S
C2363 H2334 0.950 . S
C2363 C2362 1.397 . S
C2363 C2364 1.334 . S
C2364 H2335 0.950 . S
C2364 C2363 1.334 . S
C2364 C2365 1.287 . S
C2365 C2364 1.287 . S
C2365 C2366 1.524 . S
C2365 H2368 0.999 . S
C2366 H2336 0.950 . S
C2366 C2365 1.524 . S
C2366 C2367 1.415 . S
C2367 H2337 0.950 . S
C2367 C2362 1.363 . S
C2367 C2366 1.415 . S
H2368 C2365 0.999 . S
H2369 C2350 0.913 . S
H2370 C2388 0.951 . S
H2371 C2390 0.951 . S
H2372 C2392 0.950 . S
H2373 C2393 0.950 . S
H2374 C2395 0.950 . S
H2375 C2398 0.950 . S
H2376 C2399 0.950 . S
H2377 C2401 0.950 . S
H2378 C2402 0.950 . S
H2379 C2403 0.951 . S
H2380 C2405 0.951 . S
H2381 C2407 0.950 . S
H2382 C2408 0.950 . S
H2383 C2410 0.950 . S
H2384 C2413 0.950 . S
H2385 C2414 0.950 . S
H2386 C2416 0.950 . S
H2387 C2417 0.950 . S
C2388 H2370 0.951 . S
C2388 C2389 1.366 . S
C2388 C2390 1.388 . S
C2389 C2388 1.366 . S
C2389 C2393 1.385 . S
C2390 H2371 0.951 . S
C2390 C2388 1.388 . S
C2390 C2391 1.366 . S
C2391 C2390 1.366 . S
C2391 C2392 1.414 . S
C2391 C2394 1.499 . S
C2392 H2372 0.950 . S
C2392 C2391 1.414 . S
C2392 C2393 1.374 . S
C2393 H2373 0.950 . S
C2393 C2389 1.385 . S
C2393 C2392 1.374 . S
C2394 C2391 1.499 . S
C2394 C2395 1.373 . S
C2394 C2396 1.389 . S
C2395 H2374 0.950 . S
C2395 C2394 1.373 . S
C2395 C2411 1.377 . S
C2396 C2394 1.389 . S
C2396 C2397 1.524 . S
C2396 C2410 1.377 . S
C2397 C2396 1.524 . S
C2397 C2398 1.397 . S
C2397 C2402 1.363 . S
C2398 H2375 0.950 . S
C2398 C2397 1.397 . S
C2398 C2399 1.334 . S
C2399 H2376 0.950 . S
C2399 C2398 1.334 . S
C2399 C2400 1.287 . S
C2400 C2399 1.287 . S
C2400 C2401 1.524 . S
C2400 H2419 0.913 . S
C2401 H2377 0.950 . S
C2401 C2400 1.524 . S
C2401 C2402 1.415 . S
C2402 H2378 0.950 . S
C2402 C2397 1.363 . S
C2402 C2401 1.415 . S
C2403 H2379 0.951 . S
C2403 C2404 1.366 . S
C2403 C2405 1.388 . S
C2404 C2403 1.366 . S
C2404 C2408 1.385 . S
C2405 H2380 0.951 . S
C2405 C2403 1.388 . S
C2405 C2406 1.366 . S
C2406 C2405 1.366 . S
C2406 C2407 1.414 . S
C2406 C2409 1.499 . S
C2407 H2381 0.950 . S
C2407 C2406 1.414 . S
C2407 C2408 1.374 . S
C2408 H2382 0.950 . S
C2408 C2404 1.385 . S
C2408 C2407 1.374 . S
C2409 C2406 1.499 . S
C2409 C2410 1.373 . S
C2409 C2411 1.389 . S
C2410 H2383 0.950 . S
C2410 C2396 1.377 . S
C2410 C2409 1.373 . S
C2411 C2395 1.377 . S
C2411 C2409 1.389 . S
C2411 C2412 1.524 . S
C2412 C2411 1.524 . S
C2412 C2413 1.397 . S
C2412 C2417 1.363 . S
C2413 H2384 0.950 . S
C2413 C2412 1.397 . S
C2413 C2414 1.334 . S
C2414 H2385 0.950 . S
C2414 C2413 1.334 . S
C2414 C2415 1.287 . S
C2415 C2414 1.287 . S
C2415 C2416 1.524 . S
C2415 H2418 0.999 . S
C2416 H2386 0.950 . S
C2416 C2415 1.524 . S
C2416 C2417 1.415 . S
C2417 H2387 0.950 . S
C2417 C2412 1.363 . S
C2417 C2416 1.415 . S
H2418 C2415 0.999 . S
H2419 C2400 0.913 . S
H2420 C2438 0.951 . S
H2421 C2440 0.951 . S
H2422 C2442 0.950 . S
H2423 C2443 0.950 . S
H2424 C2445 0.950 . S
H2425 C2448 0.950 . S
H2426 C2449 0.950 . S
H2427 C2451 0.950 . S
H2428 C2452 0.950 . S
H2429 C2453 0.951 . S
H2430 C2455 0.951 . S
H2431 C2457 0.950 . S
H2432 C2458 0.950 . S
H2433 C2460 0.950 . S
H2434 C2463 0.950 . S
H2435 C2464 0.950 . S
H2436 C2466 0.950 . S
H2437 C2467 0.950 . S
C2438 H2420 0.951 . S
C2438 C2439 1.366 . S
C2438 C2440 1.388 . S
C2439 C2438 1.366 . S
C2439 C2443 1.385 . S
C2440 H2421 0.951 . S
C2440 C2438 1.388 . S
C2440 C2441 1.366 . S
C2441 C2440 1.366 . S
C2441 C2442 1.414 . S
C2441 C2444 1.499 . S
C2442 H2422 0.950 . S
C2442 C2441 1.414 . S
C2442 C2443 1.374 . S
C2443 H2423 0.950 . S
C2443 C2439 1.385 . S
C2443 C2442 1.374 . S
C2444 C2441 1.499 . S
C2444 C2445 1.373 . S
C2444 C2446 1.389 . S
C2445 H2424 0.950 . S
C2445 C2444 1.373 . S
C2445 C2461 1.377 . S
C2446 C2444 1.389 . S
C2446 C2447 1.524 . S
C2446 C2460 1.377 . S
C2447 C2446 1.524 . S
C2447 C2448 1.397 . S
C2447 C2452 1.363 . S
C2448 H2425 0.950 . S
C2448 C2447 1.397 . S
C2448 C2449 1.334 . S
C2449 H2426 0.950 . S
C2449 C2448 1.334 . S
C2449 C2450 1.287 . S
C2450 C2449 1.287 . S
C2450 C2451 1.524 . S
C2450 H2469 0.913 . S
C2451 H2427 0.950 . S
C2451 C2450 1.524 . S
C2451 C2452 1.415 . S
C2452 H2428 0.950 . S
C2452 C2447 1.363 . S
C2452 C2451 1.415 . S
C2453 H2429 0.951 . S
C2453 C2454 1.366 . S
C2453 C2455 1.388 . S
C2454 C2453 1.366 . S
C2454 C2458 1.385 . S
C2455 H2430 0.951 . S
C2455 C2453 1.388 . S
C2455 C2456 1.366 . S
C2456 C2455 1.366 . S
C2456 C2457 1.414 . S
C2456 C2459 1.499 . S
C2457 H2431 0.950 . S
C2457 C2456 1.414 . S
C2457 C2458 1.374 . S
C2458 H2432 0.950 . S
C2458 C2454 1.385 . S
C2458 C2457 1.374 . S
C2459 C2456 1.499 . S
C2459 C2460 1.373 . S
C2459 C2461 1.389 . S
C2460 H2433 0.950 . S
C2460 C2446 1.377 . S
C2460 C2459 1.373 . S
C2461 C2445 1.377 . S
C2461 C2459 1.389 . S
C2461 C2462 1.524 . S
C2462 C2461 1.524 . S
C2462 C2463 1.397 . S
C2462 C2467 1.363 . S
C2463 H2434 0.950 . S
C2463 C2462 1.397 . S
C2463 C2464 1.334 . S
C2464 H2435 0.950 . S
C2464 C2463 1.334 . S
C2464 C2465 1.287 . S
C2465 C2464 1.287 . S
C2465 C2466 1.524 . S
C2465 H2468 0.999 . S
C2466 H2436 0.950 . S
C2466 C2465 1.524 . S
C2466 C2467 1.415 . S
C2467 H2437 0.950 . S
C2467 C2462 1.363 . S
C2467 C2466 1.415 . S
H2468 C2465 0.999 . S
H2469 C2450 0.913 . S
H2470 C2488 0.951 . S
H2471 C2490 0.951 . S
H2472 C2492 0.952 . S
H2473 C2493 0.950 . S
H2474 C2495 0.950 . S
H2475 C2498 0.943 1_565 S
H2476 C2499 0.950 . S
H2477 C2501 0.950 . S
H2478 C2502 0.950 . S
H2479 C2503 0.951 . S
H2480 C2505 0.951 . S
H2481 C2507 0.950 . S
H2482 C2508 0.950 . S
H2483 C2510 0.950 . S
H2484 C2513 0.950 . S
H2485 C2514 0.950 . S
H2486 C2516 0.950 . S
H2487 C2517 0.950 . S
C2488 H2470 0.951 . S
C2488 C2489 1.366 . S
C2488 C2490 1.388 1_565 S
C2489 C2488 1.366 . S
C2489 C2493 1.385 . S
C2490 H2471 0.951 . S
C2490 C2488 1.388 1_545 S
C2490 C2491 1.366 . S
C2491 C2490 1.366 . S
C2491 C2492 1.414 1_545 S
C2491 C2494 1.499 . S
C2492 H2472 0.952 . S
C2492 C2491 1.414 1_565 S
C2492 C2493 1.374 . S
C2493 H2473 0.950 . S
C2493 C2489 1.385 . S
C2493 C2492 1.374 . S
C2494 C2491 1.499 . S
C2494 C2495 1.373 . S
C2494 C2496 1.389 . S
C2495 H2474 0.950 . S
C2495 C2494 1.373 . S
C2495 C2511 1.377 . S
C2496 C2494 1.389 . S
C2496 C2497 1.524 . S
C2496 C2510 1.377 . S
C2497 C2496 1.524 . S
C2497 C2498 1.416 . S
C2497 C2502 1.363 . S
C2498 H2475 0.943 1_545 S
C2498 C2497 1.416 . S
C2498 C2499 1.322 1_545 S
C2499 H2476 0.950 . S
C2499 C2498 1.322 1_565 S
C2499 C2500 1.287 . S
C2500 C2499 1.287 . S
C2500 C2501 1.524 1_565 S
C2500 H2519 0.913 . S
C2501 H2477 0.950 . S
C2501 C2500 1.524 1_545 S
C2501 C2502 1.415 . S
C2502 H2478 0.950 . S
C2502 C2497 1.363 . S
C2502 C2501 1.415 . S
C2503 H2479 0.951 . S
C2503 C2504 1.366 . S
C2503 C2505 1.388 . S
C2504 C2503 1.366 . S
C2504 C2508 1.385 . S
C2505 H2480 0.951 . S
C2505 C2503 1.388 . S
C2505 C2506 1.366 . S
C2506 C2505 1.366 . S
C2506 C2507 1.414 . S
C2506 C2509 1.499 . S
C2507 H2481 0.950 . S
C2507 C2506 1.414 . S
C2507 C2508 1.374 . S
C2508 H2482 0.950 . S
C2508 C2504 1.385 . S
C2508 C2507 1.374 . S
C2509 C2506 1.499 . S
C2509 C2510 1.373 . S
C2509 C2511 1.389 . S
C2510 H2483 0.950 . S
C2510 C2496 1.377 . S
C2510 C2509 1.373 . S
C2511 C2495 1.377 . S
C2511 C2509 1.389 . S
C2511 C2512 1.524 . S
C2512 C2511 1.524 . S
C2512 C2513 1.397 . S
C2512 C2517 1.363 . S
C2513 H2484 0.950 . S
C2513 C2512 1.397 . S
C2513 C2514 1.334 . S
C2514 H2485 0.950 . S
C2514 C2513 1.334 . S
C2514 C2515 1.287 . S
C2515 C2514 1.287 . S
C2515 C2516 1.524 . S
C2515 H2518 0.999 . S
C2516 H2486 0.950 . S
C2516 C2515 1.524 . S
C2516 C2517 1.415 . S
C2517 H2487 0.950 . S
C2517 C2512 1.363 . S
C2517 C2516 1.415 . S
H2518 C2515 0.999 . S
H2519 C2500 0.913 . S
H2520 C2538 0.951 . S
H2521 C2540 0.951 . S
H2522 C2542 0.950 . S
H2523 C2543 0.950 . S
H2524 C2545 0.950 . S
H2525 C2548 0.950 . S
H2526 C2549 0.950 . S
H2527 C2551 0.950 . S
H2528 C2552 0.950 . S
H2529 C2553 0.951 . S
H2530 C2555 0.951 . S
H2531 C2557 0.950 . S
H2532 C2558 0.950 . S
H2533 C2560 0.950 . S
H2534 C2563 0.950 . S
H2535 C2564 0.950 . S
H2536 C2566 0.950 . S
H2537 C2567 0.950 . S
C2538 H2520 0.951 . S
C2538 C2539 1.366 . S
C2538 C2540 1.388 . S
C2539 C2538 1.366 . S
C2539 C2543 1.385 . S
C2540 H2521 0.951 . S
C2540 C2538 1.388 . S
C2540 C2541 1.366 . S
C2541 C2540 1.366 . S
C2541 C2542 1.414 . S
C2541 C2544 1.499 . S
C2542 H2522 0.950 . S
C2542 C2541 1.414 . S
C2542 C2543 1.374 . S
C2543 H2523 0.950 . S
C2543 C2539 1.385 . S
C2543 C2542 1.374 . S
C2544 C2541 1.499 . S
C2544 C2545 1.373 . S
C2544 C2546 1.389 . S
C2545 H2524 0.950 . S
C2545 C2544 1.373 . S
C2545 C2561 1.377 . S
C2546 C2544 1.389 . S
C2546 C2547 1.524 . S
C2546 C2560 1.377 . S
C2547 C2546 1.524 . S
C2547 C2548 1.397 . S
C2547 C2552 1.363 . S
C2548 H2525 0.950 . S
C2548 C2547 1.397 . S
C2548 C2549 1.334 . S
C2549 H2526 0.950 . S
C2549 C2548 1.334 . S
C2549 C2550 1.287 . S
C2550 C2549 1.287 . S
C2550 C2551 1.524 . S
C2550 H2569 0.913 . S
C2551 H2527 0.950 . S
C2551 C2550 1.524 . S
C2551 C2552 1.415 . S
C2552 H2528 0.950 . S
C2552 C2547 1.363 . S
C2552 C2551 1.415 . S
C2553 H2529 0.951 . S
C2553 C2554 1.366 . S
C2553 C2555 1.388 . S
C2554 C2553 1.366 . S
C2554 C2558 1.385 . S
C2555 H2530 0.951 . S
C2555 C2553 1.388 . S
C2555 C2556 1.366 . S
C2556 C2555 1.366 . S
C2556 C2557 1.414 . S
C2556 C2559 1.499 . S
C2557 H2531 0.950 . S
C2557 C2556 1.414 . S
C2557 C2558 1.374 . S
C2558 H2532 0.950 . S
C2558 C2554 1.385 . S
C2558 C2557 1.374 . S
C2559 C2556 1.499 . S
C2559 C2560 1.373 . S
C2559 C2561 1.389 . S
C2560 H2533 0.950 . S
C2560 C2546 1.377 . S
C2560 C2559 1.373 . S
C2561 C2545 1.377 . S
C2561 C2559 1.389 . S
C2561 C2562 1.524 . S
C2562 C2561 1.524 . S
C2562 C2563 1.397 . S
C2562 C2567 1.363 . S
C2563 H2534 0.950 . S
C2563 C2562 1.397 . S
C2563 C2564 1.334 . S
C2564 H2535 0.950 . S
C2564 C2563 1.334 . S
C2564 C2565 1.287 . S
C2565 C2564 1.287 . S
C2565 C2566 1.524 . S
C2565 H2568 0.999 . S
C2566 H2536 0.950 . S
C2566 C2565 1.524 . S
C2566 C2567 1.415 . S
C2567 H2537 0.950 . S
C2567 C2562 1.363 . S
C2567 C2566 1.415 . S
H2568 C2565 0.999 . S
H2569 C2550 0.913 . S
H2570 C2588 0.951 . S
H2571 C2590 0.951 . S
H2572 C2592 0.950 . S
H2573 C2593 0.950 . S
H2574 C2595 0.950 . S
H2575 C2598 0.950 . S
H2576 C2599 0.950 . S
H2577 C2601 0.950 1_565 S
H2578 C2602 0.950 . S
H2579 C2603 0.951 . S
H2580 C2605 0.951 . S
H2581 C2607 0.950 . S
H2582 C2608 0.950 . S
H2583 C2610 0.950 . S
H2584 C2613 0.950 . S
H2585 C2614 0.950 . S
H2586 C2616 0.950 . S
H2587 C2617 0.950 . S
C2588 H2570 0.951 . S
C2588 C2589 1.366 . S
C2588 C2590 1.388 . S
C2589 C2588 1.366 . S
C2589 C2593 1.385 . S
C2590 H2571 0.951 . S
C2590 C2588 1.388 . S
C2590 C2591 1.366 . S
C2591 C2590 1.366 . S
C2591 C2592 1.414 . S
C2591 C2594 1.499 1_545 S
C2592 H2572 0.950 . S
C2592 C2591 1.414 . S
C2592 C2593 1.374 . S
C2593 H2573 0.950 . S
C2593 C2589 1.385 . S
C2593 C2592 1.374 . S
C2594 C2591 1.499 1_565 S
C2594 C2595 1.373 . S
C2594 C2596 1.389 . S
C2595 H2574 0.950 . S
C2595 C2594 1.373 . S
C2595 C2611 1.377 . S
C2596 C2594 1.389 . S
C2596 C2597 1.524 . S
C2596 C2610 1.377 . S
C2597 C2596 1.524 . S
C2597 C2598 1.397 1_565 S
C2597 C2602 1.363 . S
C2598 H2575 0.950 . S
C2598 C2597 1.397 1_545 S
C2598 C2599 1.334 . S
C2599 H2576 0.950 . S
C2599 C2598 1.334 . S
C2599 C2600 1.287 . S
C2600 C2599 1.287 . S
C2600 C2601 1.524 . S
C2600 H2619 0.913 . S
C2601 H2577 0.950 1_545 S
C2601 C2600 1.524 . S
C2601 C2602 1.415 1_545 S
C2602 H2578 0.950 . S
C2602 C2597 1.363 . S
C2602 C2601 1.415 1_565 S
C2603 H2579 0.951 . S
C2603 C2604 1.366 . S
C2603 C2605 1.388 . S
C2604 C2603 1.366 . S
C2604 C2608 1.385 . S
C2605 H2580 0.951 . S
C2605 C2603 1.388 . S
C2605 C2606 1.366 . S
C2606 C2605 1.366 . S
C2606 C2607 1.414 . S
C2606 C2609 1.499 . S
C2607 H2581 0.950 . S
C2607 C2606 1.414 . S
C2607 C2608 1.374 . S
C2608 H2582 0.950 . S
C2608 C2604 1.385 . S
C2608 C2607 1.374 . S
C2609 C2606 1.499 . S
C2609 C2610 1.373 . S
C2609 C2611 1.389 . S
C2610 H2583 0.950 . S
C2610 C2596 1.377 . S
C2610 C2609 1.373 . S
C2611 C2595 1.377 . S
C2611 C2609 1.389 . S
C2611 C2612 1.524 . S
C2612 C2611 1.524 . S
C2612 C2613 1.397 . S
C2612 C2617 1.363 . S
C2613 H2584 0.950 . S
C2613 C2612 1.397 . S
C2613 C2614 1.334 . S
C2614 H2585 0.950 . S
C2614 C2613 1.334 . S
C2614 C2615 1.287 1_556 S
C2615 C2614 1.287 1_554 S
C2615 C2616 1.524 . S
C2615 H2618 0.999 . S
C2616 H2586 0.950 . S
C2616 C2615 1.524 . S
C2616 C2617 1.415 1_554 S
C2617 H2587 0.950 . S
C2617 C2612 1.363 . S
C2617 C2616 1.415 1_556 S
H2618 C2615 0.999 . S
H2619 C2600 0.913 . S
H2620 C2638 0.951 . S
H2621 C2640 0.951 . S
H2622 C2642 0.950 . S
H2623 C2643 0.950 . S
H2624 C2645 0.950 . S
H2625 C2648 0.950 . S
H2626 C2649 0.950 . S
H2627 C2651 0.950 . S
H2628 C2652 0.950 . S
H2629 C2653 0.951 . S
H2630 C2655 0.951 . S
H2631 C2657 0.950 . S
H2632 C2658 0.950 . S
H2633 C2660 0.950 . S
H2634 C2663 0.950 . S
H2635 C2664 0.950 . S
H2636 C2666 0.950 . S
H2637 C2667 0.950 . S
C2638 H2620 0.951 . S
C2638 C2639 1.366 . S
C2638 C2640 1.388 . S
C2639 C2638 1.366 . S
C2639 C2643 1.385 . S
C2640 H2621 0.951 . S
C2640 C2638 1.388 . S
C2640 C2641 1.366 . S
C2641 C2640 1.366 . S
C2641 C2642 1.414 . S
C2641 C2644 1.499 . S
C2642 H2622 0.950 . S
C2642 C2641 1.414 . S
C2642 C2643 1.374 . S
C2643 H2623 0.950 . S
C2643 C2639 1.385 . S
C2643 C2642 1.374 . S
C2644 C2641 1.499 . S
C2644 C2645 1.373 . S
C2644 C2646 1.389 . S
C2645 H2624 0.950 . S
C2645 C2644 1.373 . S
C2645 C2661 1.377 . S
C2646 C2644 1.389 . S
C2646 C2647 1.524 . S
C2646 C2660 1.377 . S
C2647 C2646 1.524 . S
C2647 C2648 1.397 . S
C2647 C2652 1.363 . S
C2648 H2625 0.950 . S
C2648 C2647 1.397 . S
C2648 C2649 1.334 . S
C2649 H2626 0.950 . S
C2649 C2648 1.334 . S
C2649 C2650 1.287 . S
C2650 C2649 1.287 . S
C2650 C2651 1.524 . S
C2650 H2669 0.913 . S
C2651 H2627 0.950 . S
C2651 C2650 1.524 . S
C2651 C2652 1.415 . S
C2652 H2628 0.950 . S
C2652 C2647 1.363 . S
C2652 C2651 1.415 . S
C2653 H2629 0.951 . S
C2653 C2654 1.366 . S
C2653 C2655 1.388 . S
C2654 C2653 1.366 . S
C2654 C2658 1.385 . S
C2655 H2630 0.951 . S
C2655 C2653 1.388 . S
C2655 C2656 1.366 . S
C2656 C2655 1.366 . S
C2656 C2657 1.414 . S
C2656 C2659 1.499 . S
C2657 H2631 0.950 . S
C2657 C2656 1.414 . S
C2657 C2658 1.374 . S
C2658 H2632 0.950 . S
C2658 C2654 1.385 . S
C2658 C2657 1.374 . S
C2659 C2656 1.499 . S
C2659 C2660 1.373 . S
C2659 C2661 1.389 . S
C2660 H2633 0.950 . S
C2660 C2646 1.377 . S
C2660 C2659 1.373 . S
C2661 C2645 1.377 . S
C2661 C2659 1.389 . S
C2661 C2662 1.524 . S
C2662 C2661 1.524 . S
C2662 C2663 1.397 . S
C2662 C2667 1.363 . S
C2663 H2634 0.950 . S
C2663 C2662 1.397 . S
C2663 C2664 1.334 . S
C2664 H2635 0.950 . S
C2664 C2663 1.334 . S
C2664 C2665 1.287 . S
C2665 C2664 1.287 . S
C2665 C2666 1.524 . S
C2665 H2668 0.999 . S
C2666 H2636 0.950 . S
C2666 C2665 1.524 . S
C2666 C2667 1.415 . S
C2667 H2637 0.950 . S
C2667 C2662 1.363 . S
C2667 C2666 1.415 . S
H2668 C2665 0.999 . S
H2669 C2650 0.913 . S
H2670 C2688 0.951 . S
H2671 C2690 0.951 . S
H2672 C2692 0.950 . S
H2673 C2693 0.950 . S
H2674 C2695 0.950 . S
H2675 C2698 0.950 . S
H2676 C2699 0.950 . S
H2677 C2701 0.950 . S
H2678 C2702 0.950 . S
H2679 C2703 0.951 . S
H2680 C2705 0.951 . S
H2681 C2707 0.950 . S
H2682 C2708 0.950 . S
H2683 C2710 0.950 . S
H2684 C2713 0.950 . S
H2685 C2714 0.950 . S
H2686 C2716 0.950 . S
H2687 C2717 0.950 . S
C2688 H2670 0.951 . S
C2688 C2689 1.366 . S
C2688 C2690 1.388 . S
C2689 C2688 1.366 . S
C2689 C2693 1.385 . S
C2690 H2671 0.951 . S
C2690 C2688 1.388 . S
C2690 C2691 1.366 . S
C2691 C2690 1.366 . S
C2691 C2692 1.414 . S
C2691 C2694 1.499 . S
C2692 H2672 0.950 . S
C2692 C2691 1.414 . S
C2692 C2693 1.374 . S
C2693 H2673 0.950 . S
C2693 C2689 1.385 . S
C2693 C2692 1.374 . S
C2694 C2691 1.499 . S
C2694 C2695 1.373 . S
C2694 C2696 1.389 . S
C2695 H2674 0.950 . S
C2695 C2694 1.373 . S
C2695 C2711 1.377 . S
C2696 C2694 1.389 . S
C2696 C2697 1.524 . S
C2696 C2710 1.377 . S
C2697 C2696 1.524 . S
C2697 C2698 1.397 . S
C2697 C2702 1.363 . S
C2698 H2675 0.950 . S
C2698 C2697 1.397 . S
C2698 C2699 1.334 . S
C2699 H2676 0.950 . S
C2699 C2698 1.334 . S
C2699 C2700 1.287 . S
C2700 C2699 1.287 . S
C2700 C2701 1.524 . S
C2700 H2719 0.913 . S
C2701 H2677 0.950 . S
C2701 C2700 1.524 . S
C2701 C2702 1.415 . S
C2702 H2678 0.950 . S
C2702 C2697 1.363 . S
C2702 C2701 1.415 . S
C2703 H2679 0.951 . S
C2703 C2704 1.366 . S
C2703 C2705 1.388 . S
C2704 C2703 1.366 . S
C2704 C2708 1.385 . S
C2705 H2680 0.951 . S
C2705 C2703 1.388 . S
C2705 C2706 1.366 . S
C2706 C2705 1.366 . S
C2706 C2707 1.414 . S
C2706 C2709 1.499 . S
C2707 H2681 0.950 . S
C2707 C2706 1.414 . S
C2707 C2708 1.374 . S
C2708 H2682 0.950 . S
C2708 C2704 1.385 . S
C2708 C2707 1.374 . S
C2709 C2706 1.499 . S
C2709 C2710 1.373 . S
C2709 C2711 1.389 . S
C2710 H2683 0.950 . S
C2710 C2696 1.377 . S
C2710 C2709 1.373 . S
C2711 C2695 1.377 . S
C2711 C2709 1.389 . S
C2711 C2712 1.524 . S
C2712 C2711 1.524 . S
C2712 C2713 1.397 . S
C2712 C2717 1.363 . S
C2713 H2684 0.950 . S
C2713 C2712 1.397 . S
C2713 C2714 1.334 . S
C2714 H2685 0.950 . S
C2714 C2713 1.334 . S
C2714 C2715 1.287 . S
C2715 C2714 1.287 . S
C2715 C2716 1.524 1_554 S
C2715 H2718 0.999 1_554 S
C2716 H2686 0.950 . S
C2716 C2715 1.524 1_556 S
C2716 C2717 1.415 1_556 S
C2717 H2687 0.950 . S
C2717 C2712 1.363 . S
C2717 C2716 1.415 1_554 S
H2718 C2715 0.999 1_556 S
H2719 C2700 0.913 . S
H2720 C2738 0.951 . S
H2721 C2740 0.951 . S
H2722 C2742 0.950 . S
H2723 C2743 0.950 . S
H2724 C2745 0.950 . S
H2725 C2748 0.950 . S
H2726 C2749 0.950 . S
H2727 C2751 0.950 . S
H2728 C2752 0.950 . S
H2729 C2753 0.951 . S
H2730 C2755 0.951 . S
H2731 C2757 0.950 . S
H2732 C2758 0.950 . S
H2733 C2760 0.950 . S
H2734 C2763 0.950 . S
H2735 C2764 0.950 . S
H2736 C2766 0.950 . S
H2737 C2767 0.950 . S
C2738 H2720 0.951 . S
C2738 C2739 1.366 . S
C2738 C2740 1.388 . S
C2739 C2738 1.366 . S
C2739 C2743 1.385 . S
C2740 H2721 0.951 . S
C2740 C2738 1.388 . S
C2740 C2741 1.366 . S
C2741 C2740 1.366 . S
C2741 C2742 1.414 . S
C2741 C2744 1.499 . S
C2742 H2722 0.950 . S
C2742 C2741 1.414 . S
C2742 C2743 1.374 . S
C2743 H2723 0.950 . S
C2743 C2739 1.385 . S
C2743 C2742 1.374 . S
C2744 C2741 1.499 . S
C2744 C2745 1.373 . S
C2744 C2746 1.389 . S
C2745 H2724 0.950 . S
C2745 C2744 1.373 . S
C2745 C2761 1.377 . S
C2746 C2744 1.389 . S
C2746 C2747 1.524 . S
C2746 C2760 1.377 . S
C2747 C2746 1.524 . S
C2747 C2748 1.397 . S
C2747 C2752 1.363 . S
C2748 H2725 0.950 . S
C2748 C2747 1.397 . S
C2748 C2749 1.334 . S
C2749 H2726 0.950 . S
C2749 C2748 1.334 . S
C2749 C2750 1.287 . S
C2750 C2749 1.287 . S
C2750 C2751 1.524 . S
C2750 H2769 0.913 . S
C2751 H2727 0.950 . S
C2751 C2750 1.524 . S
C2751 C2752 1.415 . S
C2752 H2728 0.950 . S
C2752 C2747 1.363 . S
C2752 C2751 1.415 . S
C2753 H2729 0.951 . S
C2753 C2754 1.366 . S
C2753 C2755 1.388 . S
C2754 C2753 1.366 . S
C2754 C2758 1.385 . S
C2755 H2730 0.951 . S
C2755 C2753 1.388 . S
C2755 C2756 1.366 . S
C2756 C2755 1.366 . S
C2756 C2757 1.414 . S
C2756 C2759 1.499 . S
C2757 H2731 0.950 . S
C2757 C2756 1.414 . S
C2757 C2758 1.374 . S
C2758 H2732 0.950 . S
C2758 C2754 1.385 . S
C2758 C2757 1.374 . S
C2759 C2756 1.499 . S
C2759 C2760 1.373 . S
C2759 C2761 1.389 . S
C2760 H2733 0.950 . S
C2760 C2746 1.377 . S
C2760 C2759 1.373 . S
C2761 C2745 1.377 . S
C2761 C2759 1.389 . S
C2761 C2762 1.524 . S
C2762 C2761 1.524 . S
C2762 C2763 1.397 . S
C2762 C2767 1.363 . S
C2763 H2734 0.950 . S
C2763 C2762 1.397 . S
C2763 C2764 1.334 . S
C2764 H2735 0.950 . S
C2764 C2763 1.334 . S
C2764 C2765 1.287 . S
C2765 C2764 1.287 . S
C2765 C2766 1.524 . S
C2765 H2768 0.999 . S
C2766 H2736 0.950 . S
C2766 C2765 1.524 . S
C2766 C2767 1.415 . S
C2767 H2737 0.950 . S
C2767 C2762 1.363 . S
C2767 C2766 1.415 . S
H2768 C2765 0.999 . S
H2769 C2750 0.913 . S
H2770 C2788 0.951 . S
H2771 C2790 0.951 . S
H2772 C2792 0.950 . S
H2773 C2793 0.950 . S
H2774 C2795 0.950 . S
H2775 C2798 0.950 . S
H2776 C2799 0.950 . S
H2777 C2801 0.950 . S
H2778 C2802 0.950 . S
H2779 C2803 0.951 . S
H2780 C2805 0.951 . S
H2781 C2807 0.950 . S
H2782 C2808 0.950 . S
H2783 C2810 0.950 . S
H2784 C2813 0.950 . S
H2785 C2814 0.950 . S
H2786 C2816 0.950 . S
H2787 C2817 0.950 . S
C2788 H2770 0.951 . S
C2788 C2789 1.366 . S
C2788 C2790 1.388 . S
C2789 C2788 1.366 . S
C2789 C2793 1.385 . S
C2790 H2771 0.951 . S
C2790 C2788 1.388 . S
C2790 C2791 1.366 . S
C2791 C2790 1.366 . S
C2791 C2792 1.414 . S
C2791 C2794 1.499 . S
C2792 H2772 0.950 . S
C2792 C2791 1.414 . S
C2792 C2793 1.374 . S
C2793 H2773 0.950 . S
C2793 C2789 1.385 . S
C2793 C2792 1.374 . S
C2794 C2791 1.499 . S
C2794 C2795 1.373 . S
C2794 C2796 1.389 . S
C2795 H2774 0.950 . S
C2795 C2794 1.373 . S
C2795 C2811 1.377 . S
C2796 C2794 1.389 . S
C2796 C2797 1.524 . S
C2796 C2810 1.377 . S
C2797 C2796 1.524 . S
C2797 C2798 1.397 . S
C2797 C2802 1.363 . S
C2798 H2775 0.950 . S
C2798 C2797 1.397 . S
C2798 C2799 1.334 . S
C2799 H2776 0.950 . S
C2799 C2798 1.334 . S
C2799 C2800 1.287 . S
C2800 C2799 1.287 . S
C2800 C2801 1.524 . S
C2800 H2819 0.913 . S
C2801 H2777 0.950 . S
C2801 C2800 1.524 . S
C2801 C2802 1.415 . S
C2802 H2778 0.950 . S
C2802 C2797 1.363 . S
C2802 C2801 1.415 . S
C2803 H2779 0.951 . S
C2803 C2804 1.366 . S
C2803 C2805 1.388 . S
C2804 C2803 1.366 . S
C2804 C2808 1.385 . S
C2805 H2780 0.951 . S
C2805 C2803 1.388 . S
C2805 C2806 1.366 . S
C2806 C2805 1.366 . S
C2806 C2807 1.414 . S
C2806 C2809 1.499 . S
C2807 H2781 0.950 . S
C2807 C2806 1.414 . S
C2807 C2808 1.374 . S
C2808 H2782 0.950 . S
C2808 C2804 1.385 . S
C2808 C2807 1.374 . S
C2809 C2806 1.499 . S
C2809 C2810 1.373 . S
C2809 C2811 1.389 . S
C2810 H2783 0.950 . S
C2810 C2796 1.377 . S
C2810 C2809 1.373 . S
C2811 C2795 1.377 . S
C2811 C2809 1.389 . S
C2811 C2812 1.524 . S
C2812 C2811 1.524 . S
C2812 C2813 1.397 . S
C2812 C2817 1.363 . S
C2813 H2784 0.950 . S
C2813 C2812 1.397 . S
C2813 C2814 1.334 . S
C2814 H2785 0.950 . S
C2814 C2813 1.334 . S
C2814 C2815 1.287 . S
C2815 C2814 1.287 . S
C2815 C2816 1.524 . S
C2815 H2818 0.999 . S
C2816 H2786 0.950 . S
C2816 C2815 1.524 . S
C2816 C2817 1.415 . S
C2817 H2787 0.950 . S
C2817 C2812 1.363 . S
C2817 C2816 1.415 . S
H2818 C2815 0.999 . S
H2819 C2800 0.913 . S
C454 C416 1.177 . S
C439 C8 1.246 . S
C489 C23 1.028 . S
C504 C345 0.914 . S
C539 C35 1.266 . S
C554 C374 1.189 . S
C604 C387 0.865 . S
C589 C45 0.992 . S
C639 C22 1.237 . S
C654 C408 1.111 . S
C704 C353 0.887 . S
C689 C31 0.952 . S
C754 C366 1.103 . S
C739 C49 1.249 . S
C804 C395 0.923 . S
C789 C9 0.983 . S
C839 C65 1.217 . S
C854 C397 1.166 . S
C904 C411 0.911 . S
C889 C73 1.006 . S
C954 C355 1.189 . S
C939 C93 1.240 . S
C1004 C369 0.864 . S
C989 C101 0.952 . S
C1039 C59 1.203 . S
C1054 C348 1.136 . S
C1089 C79 0.991 . S
C1104 C376 0.899 . S
C1139 C87 1.196 . S
C1154 C390 1.122 . S
C1204 C418 0.978 . S
C1189 C107 1.081 . S
C1254 C227 1.246 . S
C1239 C106 1.310 . S
C1304 C208 1.112 . S
C1289 C119 1.210 . S
C1354 C222 0.953 . S
C1339 C134 1.035 . S
C1404 C243 1.106 . S
C1389 C147 1.188 . S
C1439 C64 1.019 . S
C1454 C229 0.913 . S
C1489 C78 1.266 . S
C1504 C180 1.192 . S
C1539 C133 1.014 . S
C1554 C240 0.857 . S
C1589 C161 0.987 . S
C1604 C206 0.883 . S
C1654 C269 1.174 . S
C1639 C36 1.242 . S
C1704 C282 0.902 . S
C1689 C51 1.017 . S
C1739 C7 1.262 . S
C1754 C311 1.185 . S
C1789 C17 0.991 . S
C1804 C324 0.862 . S
C1854 C261 1.108 . S
C1839 C50 1.235 . S
C1904 C290 0.885 . S
C1889 C3 0.952 . S
C1939 C21 1.258 . S
C1954 C303 1.113 . S
C2004 C332 0.925 . S
C1989 C37 0.981 . S
C2039 C163 1.229 . S
C2054 C334 1.179 . S
C2089 C115 0.992 . S
C2104 C264 0.903 . S
C2154 C292 1.195 . S
C2139 C135 1.247 . S
C2189 C143 0.931 . S
C2204 C306 0.851 . S
C2254 C285 1.148 . S
C2239 C157 1.216 . S
C2289 C121 0.982 . S
C2304 C313 0.893 . S
C2354 C327 1.129 . S
C2339 C129 1.204 . S
C2404 C271 0.965 . S
C2389 C149 1.067 . S
C2454 C187 1.194 . S
C2439 C148 1.302 . S
C2504 C250 1.134 . S
C2489 C77 1.240 . S
C2539 C92 1.045 . S
C2554 C177 0.911 . S
C2604 C201 1.129 . S
C2589 C105 1.217 . S
C2654 C185 0.933 . S
C2639 C162 1.012 . S
C2689 C120 1.265 . S
C2704 C219 1.140 . S
C2739 C91 0.983 . S
C2754 C198 0.841 . S
C2789 C63 0.956 . S
C2804 C248 0.864 . S
