# Generated by pormake.
# Topology zzz, (3,6)-cn, num edge types: 1
# Building blocks:
#     Node 0, Type 0, BuildingBlock: BELTOD_clean_linker_0, # of connection points: 3
#     Node 1, Type 0, BuildingBlock: BELTOD_clean_linker_0, # of connection points: 3
#     Node 2, Type 0, BuildingBlock: BELTOD_clean_linker_0, # of connection points: 3
#     Node 3, Type 0, BuildingBlock: BELTOD_clean_linker_0, # of connection points: 3
#     Node 4, Type 0, BuildingBlock: BELTOD_clean_linker_0, # of connection points: 3
#     Node 5, Type 0, BuildingBlock: BELTOD_clean_linker_0, # of connection points: 3
#     Node 6, Type 0, BuildingBlock: BELTOD_clean_linker_0, # of connection points: 3
#     Node 7, Type 0, BuildingBlock: BELTOD_clean_linker_0, # of connection points: 3
#     Node 8, Type 1, BuildingBlock: CUKXOW_clean_sbu_0, # of connection points: 6
#     Node 9, Type 1, BuildingBlock: CUKXOW_clean_sbu_0, # of connection points: 6
#     Node 10, Type 1, BuildingBlock: CUKXOW_clean_sbu_0, # of connection points: 6
#     Node 11, Type 1, BuildingBlock: CUKXOW_clean_sbu_0, # of connection points: 6
#     Edge 12, Type (0, 1), BuildingBlock: KIFKEQ_clean_linker_1, # of connection points: 2
#     Edge 13, Type (0, 1), BuildingBlock: KIFKEQ_clean_linker_1, # of connection points: 2
#     Edge 14, Type (0, 1), BuildingBlock: KIFKEQ_clean_linker_1, # of connection points: 2
#     Edge 15, Type (0, 1), BuildingBlock: KIFKEQ_clean_linker_1, # of connection points: 2
#     Edge 16, Type (0, 1), BuildingBlock: KIFKEQ_clean_linker_1, # of connection points: 2
#     Edge 17, Type (0, 1), BuildingBlock: KIFKEQ_clean_linker_1, # of connection points: 2
#     Edge 18, Type (0, 1), BuildingBlock: KIFKEQ_clean_linker_1, # of connection points: 2
#     Edge 19, Type (0, 1), BuildingBlock: KIFKEQ_clean_linker_1, # of connection points: 2
#     Edge 20, Type (0, 1), BuildingBlock: KIFKEQ_clean_linker_1, # of connection points: 2
#     Edge 21, Type (0, 1), BuildingBlock: KIFKEQ_clean_linker_1, # of connection points: 2
#     Edge 22, Type (0, 1), BuildingBlock: KIFKEQ_clean_linker_1, # of connection points: 2
#     Edge 23, Type (0, 1), BuildingBlock: KIFKEQ_clean_linker_1, # of connection points: 2
#     Edge 24, Type (0, 1), BuildingBlock: KIFKEQ_clean_linker_1, # of connection points: 2
#     Edge 25, Type (0, 1), BuildingBlock: KIFKEQ_clean_linker_1, # of connection points: 2
#     Edge 26, Type (0, 1), BuildingBlock: KIFKEQ_clean_linker_1, # of connection points: 2
#     Edge 27, Type (0, 1), BuildingBlock: KIFKEQ_clean_linker_1, # of connection points: 2
#     Edge 28, Type (0, 1), BuildingBlock: KIFKEQ_clean_linker_1, # of connection points: 2
#     Edge 29, Type (0, 1), BuildingBlock: KIFKEQ_clean_linker_1, # of connection points: 2
#     Edge 30, Type (0, 1), BuildingBlock: KIFKEQ_clean_linker_1, # of connection points: 2
#     Edge 31, Type (0, 1), BuildingBlock: KIFKEQ_clean_linker_1, # of connection points: 2
#     Edge 32, Type (0, 1), BuildingBlock: KIFKEQ_clean_linker_1, # of connection points: 2
#     Edge 33, Type (0, 1), BuildingBlock: KIFKEQ_clean_linker_1, # of connection points: 2
#     Edge 34, Type (0, 1), BuildingBlock: KIFKEQ_clean_linker_1, # of connection points: 2
#     Edge 35, Type (0, 1), BuildingBlock: KIFKEQ_clean_linker_1, # of connection points: 2
# Relax obj value: 0.195
# Max RMSD: 0.216
# Mean RMSD: 0.177
data_MOF--net-zzz--node1-CUKXOW_clean_sbu_0--node2-BELTOD_clean_linker_0--edge1-KIFKEQ_clean_linker_1
_symmetry_space_group_name_H-M    P1
_symmetry_Int_Tables_number       1
_symmetry_cell_setting            triclinic
loop_
_symmetry_equiv_pos_as_xyz
'x, y, z'
_cell_length_a     55.445385
_cell_length_b     54.471455
_cell_length_c     19.319953
_cell_angle_alpha  92.770235
_cell_angle_beta   88.083109
_cell_angle_gamma 95.529835
loop_
_atom_site_label
_atom_site_type_symbol
_atom_site_fract_x
_atom_site_fract_y
_atom_site_fract_z
_atom_type_partial_charge
P0 P 0.75539 0.39077 0.10105 0.0
H1 H 0.76768 0.37525 0.2375 0.0
H2 H 0.79206 0.39614 0.32898 0.0
H3 H 0.79369 0.46456 0.22323 0.0
H4 H 0.77134 0.44292 0.12912 0.0
H5 H 0.72299 0.37047 0.99414 0.0
H6 H 0.68831 0.3858 0.94006 0.0
H7 H 0.69542 0.45122 0.07551 0.0
H8 H 0.72908 0.43537 0.13213 0.0
H9 H 0.79726 0.36292 0.07416 0.0
H10 H 0.76846 0.42618 0.99364 0.0
O11 O 0.74893 0.36105 0.11783 0.0
H12 H 0.8346 0.37148 0.00496 0.0
H13 H 0.80582 0.43517 0.92553 0.0
C14 C 0.76716 0.40761 0.17707 0.0
C15 C 0.77281 0.39487 0.23479 0.0
C16 C 0.78672 0.40696 0.28752 0.0
C17 C 0.79513 0.43211 0.28367 0.0
C18 C 0.78806 0.44509 0.22759 0.0
C19 C 0.77474 0.43283 0.17417 0.0
C20 C 0.72881 0.40179 0.06682 0.0
C21 C 0.7169 0.38796 0.01289 0.0
C22 C 0.6972 0.39671 0.98194 0.0
C23 C 0.6895 0.41971 0.00354 0.0
C24 C 0.7013 0.43353 0.05775 0.0
C25 C 0.72065 0.42448 0.08982 0.0
C26 C 0.77993 0.39362 0.03798 0.0
C27 C 0.79871 0.37825 0.04009 0.0
C28 C 0.82014 0.38332 0.00107 0.0
C29 C 0.82324 0.40408 0.95993 0.0
C30 C 0.8039 0.41883 0.95575 0.0
C31 C 0.78249 0.41371 0.99478 0.0
P32 P 0.97073 0.76298 0.12348 0.0
H33 H 0.99472 0.77903 0.25069 0.0
H34 H 0.98228 0.80371 0.35056 0.0
H35 H 0.90894 0.79736 0.27722 0.0
H36 H 0.92207 0.77313 0.17498 0.0
H37 H 0.96484 0.74798 0.97859 0.0
H38 H 0.94959 0.70917 0.9225 0.0
H39 H 0.92186 0.68304 0.12034 0.0
H40 H 0.93797 0.72216 0.17668 0.0
H41 H 0.01271 0.79735 0.09042 0.0
H42 H 0.9367 0.78761 0.04503 0.0
O43 O 0.99777 0.7528 0.13384 0.0
H44 H 0.01733 0.83535 0.0275 0.0
H45 H 0.94122 0.82545 0.98043 0.0
C46 C 0.95925 0.77396 0.20599 0.0
C47 C 0.97577 0.78217 0.25716 0.0
C48 C 0.96853 0.79631 0.31475 0.0
C49 C 0.94453 0.80266 0.32233 0.0
C50 C 0.92761 0.79307 0.27278 0.0
C51 C 0.935 0.77898 0.2147 0.0
C52 C 0.95226 0.73809 0.08167 0.0
C53 C 0.95463 0.73434 0.00967 0.0
C54 C 0.94575 0.71201 0.97746 0.0
C55 C 0.93457 0.6928 0.01685 0.0
C56 C 0.93062 0.69734 0.08855 0.0
C57 C 0.93963 0.71976 0.12081 0.0
C58 C 0.97449 0.78945 0.07095 0.0
C59 C 0.99711 0.80315 0.06563 0.0
C60 C -0.00027 0.82485 0.02948 0.0
C61 C 0.97967 0.83335 0.99851 0.0
C62 C 0.95699 0.81948 0.00401 0.0
C63 C 0.95441 0.79777 0.04033 0.0
P64 P 0.74307 0.08226 0.1797 0.0
H65 H 0.73229 0.09077 0.32767 0.0
H66 H 0.70491 0.06775 0.40736 0.0
H67 H 0.69721 0.00653 0.2563 0.0
H68 H 0.72348 0.03015 0.17559 0.0
H69 H 0.78235 0.11104 0.1104 0.0
H70 H 0.81868 0.10013 0.04576 0.0
H71 H 0.80087 0.02362 0.09167 0.0
H72 H 0.7649 0.03467 0.15804 0.0
H73 H 0.70493 0.11429 0.15767 0.0
H74 H 0.73061 0.04817 0.06205 0.0
O75 O 0.74803 0.11097 0.21391 0.0
H76 H 0.67053 0.11009 0.08123 0.0
H77 H 0.69548 0.04268 0.98922 0.0
C78 C 0.73003 0.06228 0.24544 0.0
C79 C 0.7253 0.07214 0.31229 0.0
C80 C 0.70967 0.05883 0.35817 0.0
C81 C 0.69855 0.03538 0.33787 0.0
C82 C 0.7051 0.02472 0.27309 0.0
C83 C 0.72047 0.03816 0.22705 0.0
C84 C 0.771 0.07376 0.13975 0.0
C85 C 0.78648 0.09198 0.10781 0.0
C86 C 0.80719 0.08574 0.0708 0.0
C87 C 0.81251 0.06105 0.06393 0.0
C88 C 0.79705 0.04278 0.09606 0.0
C89 C 0.77649 0.04912 0.13414 0.0
C90 C 0.72046 0.0817 0.11501 0.0
C91 C 0.70332 0.09902 0.11958 0.0
C92 C 0.68341 0.09633 0.07648 0.0
C93 C 0.67991 0.07585 0.0293 0.0
C94 C 0.6976 0.05891 0.02385 0.0
C95 C 0.71774 0.06194 0.06593 0.0
P96 P 0.53869 0.74993 0.20818 0.0
H97 H 0.51643 0.73131 0.33524 0.0
H98 H 0.531 0.70643 0.42249 0.0
H99 H 0.60366 0.71806 0.33404 0.0
H100 H 0.58856 0.74296 0.24527 0.0
H101 H 0.55311 0.76161 0.06538 0.0
H102 H 0.56526 0.80043 0.01286 0.0
H103 H 0.57028 0.83711 0.21591 0.0
H104 H 0.55814 0.79759 0.26893 0.0
H105 H 0.49734 0.71796 0.15452 0.0
H106 H 0.57523 0.72423 0.12901 0.0
O107 O 0.51088 0.75779 0.2286 0.0
H108 H 0.49449 0.68125 0.07673 0.0
H109 H 0.57253 0.68774 0.0498 0.0
C110 C 0.55143 0.73921 0.28417 0.0
C111 C 0.53566 0.72936 0.33599 0.0
C112 C 0.54411 0.71507 0.38623 0.0
C113 C 0.56856 0.71009 0.38542 0.0
C114 C 0.58468 0.72131 0.33582 0.0
C115 C 0.57614 0.73573 0.28542 0.0
C116 C 0.55511 0.77652 0.17137 0.0
C117 C 0.55784 0.77763 0.09916 0.0
C118 C 0.56481 0.80002 0.06889 0.0
C119 C 0.5687 0.82192 0.11015 0.0
C120 C 0.56732 0.82055 0.18276 0.0
C121 C 0.56057 0.79798 0.21312 0.0
C122 C 0.53649 0.72391 0.14704 0.0
C123 C 0.51383 0.71163 0.13144 0.0
C124 C 0.51222 0.69069 0.0866 0.0
C125 C 0.53328 0.68161 0.05676 0.0
C126 C 0.55598 0.6941 0.07239 0.0
C127 C 0.55755 0.71501 0.11741 0.0
P128 P 0.24756 0.49 0.25446 0.0
H129 H 0.24525 0.47901 0.10524 0.0
H130 H 0.22243 0.49662 0.01761 0.0
H131 H 0.20929 0.55779 0.16022 0.0
H132 H 0.23203 0.53987 0.24816 0.0
H133 H 0.28185 0.45956 0.30759 0.0
H134 H 0.32223 0.46834 0.35291 0.0
H135 H 0.32016 0.54578 0.31706 0.0
H136 H 0.27923 0.53672 0.27073 0.0
H137 H 0.20038 0.46408 0.28156 0.0
H138 H 0.24492 0.52534 0.37457 0.0
O139 O 0.24496 0.46027 0.22764 0.0
H140 H 0.16727 0.47217 0.36249 0.0
H141 H 0.21164 0.53358 0.4567 0.0
C142 C 0.23969 0.50774 0.18385 0.0
C143 C 0.23818 0.49663 0.11702 0.0
C144 C 0.2252 0.50684 0.06664 0.0
C145 C 0.21357 0.52833 0.08255 0.0
C146 C 0.21765 0.54095 0.14697 0.0
C147 C 0.2307 0.53074 0.19725 0.0
C148 C 0.27779 0.4974 0.28441 0.0
C149 C 0.29014 0.4784 0.3083 0.0
C150 C 0.31329 0.48343 0.33407 0.0
C151 C 0.32452 0.50769 0.33739 0.0
C152 C 0.31196 0.5269 0.31459 0.0
C153 C 0.2887 0.52175 0.28794 0.0
C154 C 0.22527 0.49375 0.32296 0.0
C155 C 0.20327 0.47886 0.32078 0.0
C156 C 0.18433 0.48352 0.36729 0.0
C157 C 0.18689 0.5034 0.41654 0.0
C158 C 0.20914 0.51812 0.41939 0.0
C159 C 0.22822 0.5133 0.37289 0.0
P160 P 0.14091 0.25761 0.30653 0.0
H161 H 0.16853 0.236 0.19154 0.0
H162 H 0.15547 0.21274 0.08578 0.0
H163 H 0.08224 0.2312 0.12759 0.0
H164 H 0.09532 0.25414 0.23394 0.0
H165 H 0.14106 0.28389 0.44005 0.0
H166 H 0.12355 0.32112 0.48346 0.0
H167 H 0.10317 0.33473 0.27556 0.0
H168 H 0.1202 0.2969 0.23294 0.0
H169 H 0.15066 0.20707 0.32725 0.0
H170 H 0.09701 0.2557 0.39723 0.0
O171 O 0.17082 0.25856 0.31538 0.0
H172 H 0.12747 0.173 0.38402 0.0
H173 H 0.07488 0.22255 0.45889 0.0
C174 C 0.133 0.24728 0.21976 0.0
C175 C 0.14984 0.23579 0.1768 0.0
C176 C 0.14235 0.22236 0.11663 0.0
C177 C 0.11787 0.22021 0.0986 0.0
C178 C 0.10128 0.23289 0.1397 0.0
C179 C 0.10875 0.24607 0.20031 0.0
C180 C 0.13131 0.28728 0.33379 0.0
C181 C 0.133 0.29502 0.40374 0.0
C182 C 0.12308 0.31643 0.42839 0.0
C183 C 0.11168 0.33085 0.38313 0.0
C184 C 0.11128 0.32374 0.3121 0.0
C185 C 0.12108 0.30213 0.28759 0.0
C186 C 0.12601 0.23411 0.35954 0.0
C187 C 0.13433 0.21061 0.35693 0.0
C188 C 0.12104 0.19115 0.38978 0.0
C189 C 0.0992 0.19489 0.42646 0.0
C190 C 0.09134 0.21875 0.43037 0.0
C191 C 0.10434 0.238 0.39612 0.0
P192 P 0.27914 0.06772 0.28105 0.0
H193 H 0.29197 0.08798 0.1454 0.0
H194 H 0.31541 0.07174 0.04721 0.0
H195 H 0.31159 0.00096 0.14059 0.0
H196 H 0.28811 0.01733 0.23877 0.0
H197 H 0.25044 0.0832 0.39914 0.0
H198 H 0.21129 0.06743 0.44881 0.0
H199 H 0.2022 0.01353 0.27797 0.0
H200 H 0.24162 0.02949 0.22815 0.0
H201 H 0.33032 0.08286 0.2975 0.0
H202 H 0.27562 0.03283 0.3938 0.0
O203 O 0.28152 0.09839 0.27698 0.0
H204 H 0.36137 0.06677 0.36431 0.0
H205 H 0.30622 0.01757 0.46338 0.0
C206 C 0.28846 0.05388 0.19945 0.0
C207 C 0.29541 0.06873 0.14363 0.0
C208 C 0.30879 0.05941 0.08743 0.0
C209 C 0.31558 0.03519 0.08683 0.0
C210 C 0.30682 0.01978 0.14018 0.0
C211 C 0.29329 0.02906 0.196 0.0
C212 C 0.24888 0.05754 0.31014 0.0
C213 C 0.23991 0.06818 0.37191 0.0
C214 C 0.21767 0.059 0.40053 0.0
C215 C 0.20392 0.03903 0.36766 0.0
C216 C 0.21251 0.02891 0.3043 0.0
C217 C 0.235 0.03801 0.27591 0.0
C218 C 0.30062 0.05943 0.34151 0.0
C219 C 0.3249 0.06898 0.33472 0.0
C220 C 0.34263 0.05974 0.37313 0.0
C221 C 0.33635 0.04076 0.41928 0.0
C222 C 0.3118 0.03188 0.4276 0.0
C223 C 0.29415 0.04092 0.38849 0.0
P224 P 0.36628 0.25969 0.27484 0.0
H225 H 0.3395 0.27408 0.15638 0.0
H226 H 0.35231 0.30052 0.0598 0.0
H227 H 0.42667 0.30186 0.12006 0.0
H228 H 0.41405 0.27549 0.21527 0.0
H229 H 0.34942 0.22162 0.36955 0.0
H230 H 0.36607 0.18377 0.40054 0.0
H231 H 0.42091 0.1938 0.23781 0.0
H232 H 0.4039 0.23124 0.20591 0.0
H233 H 0.35099 0.30384 0.34969 0.0
H234 H 0.4136 0.26251 0.33854 0.0
O235 O 0.33621 0.25882 0.2852 0.0
H236 H 0.37342 0.33666 0.41833 0.0
H237 H 0.43672 0.29575 0.40161 0.0
C238 C 0.37578 0.27287 0.19342 0.0
C239 C 0.35862 0.27945 0.14758 0.0
C240 C 0.36592 0.29452 0.09246 0.0
C241 C 0.3904 0.30337 0.08334 0.0
C242 C 0.40765 0.29542 0.12654 0.0
C243 C 0.40041 0.28026 0.1809 0.0
C244 C 0.37536 0.22927 0.28541 0.0
C245 C 0.36457 0.21527 0.33914 0.0
C246 C 0.37407 0.19365 0.35678 0.0
C247 C 0.39482 0.18596 0.32169 0.0
C248 C 0.40497 0.19943 0.26587 0.0
C249 C 0.39523 0.22087 0.24765 0.0
C250 C 0.3805 0.28061 0.33963 0.0
C251 C 0.36944 0.30162 0.36315 0.0
C252 C 0.3825 0.32061 0.4014 0.0
C253 C 0.40717 0.31926 0.41494 0.0
C254 C 0.41776 0.29754 0.39364 0.0
C255 C 0.4045 0.27838 0.357 0.0
Tb256 Tb 0.98938 0.00185 0.64522 0.0
C257 C 0.04459 0.01667 0.62134 0.0
Tb258 Tb 0.01408 0.04379 0.73874 0.0
O259 O 0.99599 0.02413 0.55414 0.0
O260 O 0.99162 0.04082 0.65226 0.0
O261 O 0.02724 0.99809 0.61602 0.0
C262 C 0.0389 0.08438 0.79163 0.0
O263 O 0.04172 0.03734 0.65883 0.0
C264 C 0.00705 0.00045 0.79245 0.0
C265 C 0.95831 0.03107 0.75871 0.0
O266 O 0.04582 0.06228 0.79026 0.0
O267 O 0.01789 0.08366 0.76356 0.0
O268 O 0.0077 0.02107 0.82929 0.0
O269 O 0.01254 0.00486 0.73036 0.0
O270 O 0.97675 0.04817 0.76807 0.0
O271 O 0.95975 0.01089 0.71762 0.0
C272 C 0.96633 0.95974 0.59533 0.0
O273 O 0.9779 0.96242 0.65281 0.0
O274 O 0.96776 0.98076 0.5659 0.0
C275 C 0.9971 0.045 0.58991 0.0
Tb276 Tb 0.49708 0.03173 0.65505 0.0
C277 C 0.54383 0.00644 0.61211 0.0
Tb278 Tb 0.50937 0.98725 0.73787 0.0
O279 O 0.5285 0.05511 0.69289 0.0
O280 O 0.51246 0.02617 0.7514 0.0
O281 O 0.52681 0.01962 0.5905 0.0
C282 C 0.52935 0.95676 0.81813 0.0
O283 O 0.54171 0.99463 0.671 0.0
C284 C 0.47636 0.97769 0.64342 0.0
C285 C 0.46221 0.01228 0.77954 0.0
O286 O 0.52383 0.95202 0.75373 0.0
O287 O 0.52342 0.97858 0.83752 0.0
O288 O 0.47697 0.96512 0.69874 0.0
O289 O 0.49486 0.99293 0.64151 0.0
O290 O 0.47887 0.99862 0.80085 0.0
O291 O 0.46477 0.02468 0.72174 0.0
C292 C 0.47686 0.0628 0.57697 0.0
O293 O 0.48462 0.0679 0.6391 0.0
O294 O 0.4806 0.04025 0.55859 0.0
C295 C 0.53053 0.04199 0.74635 0.0
Tb296 Tb 0.5257 0.51172 0.65118 0.0
C297 C 0.47057 0.50358 0.6227 0.0
Tb298 Tb 0.49386 0.47406 0.7368 0.0
O299 O 0.51966 0.48853 0.55603 0.0
O300 O 0.51884 0.47297 0.65232 0.0
O301 O 0.48972 0.52022 0.62389 0.0
C302 C 0.46315 0.43811 0.78779 0.0
O303 O 0.4696 0.48291 0.65686 0.0
C304 C 0.5052 0.51736 0.79759 0.0
C305 C 0.54997 0.4784 0.75641 0.0
O306 O 0.4624 0.46155 0.80189 0.0
O307 O 0.48121 0.43492 0.74509 0.0
O308 O 0.50193 0.49705 0.83047 0.0
O309 O 0.50029 0.51303 0.73481 0.0
O310 O 0.52924 0.46422 0.76336 0.0
O311 O 0.5523 0.49864 0.71965 0.0
C312 C 0.55319 0.55178 0.61024 0.0
O313 O 0.54341 0.549 0.67161 0.0
O314 O 0.54777 0.53184 0.57227 0.0
C315 C 0.51504 0.46831 0.58903 0.0
Tb316 Tb 0.98081 0.50048 0.6373 0.0
C317 C 0.02308 0.46648 0.61914 0.0
Tb318 Tb 0.02306 0.50797 0.7384 0.0
O319 O 0.00298 0.51602 0.55167 0.0
O320 O 0.01176 0.52588 0.65248 0.0
O321 O -0.00073 0.46715 0.6143 0.0
C322 C 0.06514 0.51615 0.80255 0.0
O323 O 0.0364 0.48259 0.65901 0.0
C324 C 0.98379 0.48195 0.78212 0.0
C325 C 0.98159 0.54343 0.75596 0.0
O326 O 0.04922 0.49739 0.81102 0.0
O327 O 0.0574 0.53035 0.75789 0.0
O328 O 0.9984 0.49541 0.8228 0.0
O329 O 0.99258 0.48184 0.72124 0.0
O330 O 0.00429 0.53995 0.77001 0.0
O331 O 0.96875 0.52971 0.70867 0.0
C332 C 0.93899 0.48899 0.57346 0.0
O333 O 0.94118 0.49167 0.64019 0.0
O334 O 0.96014 0.49295 0.54352 0.0
C335 C 0.01966 0.52706 0.59068 0.0
H336 H 0.19654 0.02671 0.50155 0.0
H337 H 0.15955 0.02847 0.30899 0.0
H338 H 0.15794 0.01613 0.56198 0.0
H339 H 0.12063 0.01801 0.36991 0.0
H340 H 0.05538 0.98653 0.50821 0.0
H341 H 0.09439 0.98671 0.44365 0.0
H342 H 0.12525 0.04385 0.58614 0.0
H343 H 0.08692 0.04365 0.64995 0.0
C344 C 0.18012 0.02457 0.47209 0.0
C345 C 0.18091 0.02888 0.40096 0.0
C346 C 0.15806 0.01848 0.50659 0.0
C347 C 0.13629 0.01665 0.4708 0.0
C348 C 0.13718 0.01922 0.39867 0.0
C349 C 0.15938 0.02527 0.36391 0.0
C350 C 0.07064 0.99886 0.52597 0.0
C351 C 0.0681 0.01506 0.58409 0.0
C352 C 0.09285 0.99906 0.48889 0.0
C353 C 0.11286 0.01515 0.51027 0.0
C354 C 0.11029 0.03095 0.56906 0.0
C355 C 0.08822 0.03095 0.60534 0.0
H356 H 0.3754 0.13972 0.35551 0.0
H357 H 0.44245 0.18713 0.35053 0.0
H358 H 0.39583 0.10844 0.41255 0.0
H359 H 0.46266 0.15613 0.40791 0.0
H360 H 0.47404 0.1118 0.60364 0.0
H361 H 0.45453 0.14028 0.53461 0.0
H362 H 0.43331 0.08064 0.38729 0.0
H363 H 0.45358 0.05219 0.45539 0.0
C364 C 0.39453 0.14328 0.36587 0.0
C365 C 0.40739 0.16577 0.34857 0.0
C366 C 0.40619 0.12542 0.39816 0.0
C367 C 0.43072 0.13005 0.41483 0.0
C368 C 0.44369 0.15224 0.39586 0.0
C369 C 0.43218 0.16985 0.3626 0.0
C370 C 0.46533 0.10481 0.55634 0.0
C371 C 0.46527 0.07986 0.53471 0.0
C372 C 0.45425 0.12108 0.51685 0.0
C373 C 0.44253 0.11259 0.45571 0.0
C374 C 0.44222 0.08757 0.43434 0.0
C375 C 0.45383 0.07138 0.47311 0.0
H376 H 0.34005 0.5434 0.43503 0.0
H377 H 0.36376 0.48234 0.308 0.0
H378 H 0.37749 0.54543 0.50014 0.0
H379 H 0.40084 0.48425 0.3731 0.0
H380 H 0.43635 0.46842 0.57538 0.0
H381 H 0.40336 0.47316 0.49916 0.0
H382 H 0.42524 0.55126 0.49199 0.0
H383 H 0.45874 0.54656 0.56895 0.0
C384 C 0.35353 0.53089 0.41986 0.0
C385 C 0.34886 0.51243 0.36736 0.0
C386 C 0.37489 0.53203 0.45712 0.0
C387 C 0.39176 0.51469 0.44233 0.0
C388 C 0.38788 0.49752 0.38634 0.0
C389 C 0.36669 0.49644 0.34916 0.0
C390 C 0.43414 0.48668 0.55811 0.0
C391 C 0.4501 0.50715 0.57846 0.0
C392 C 0.41536 0.48933 0.51383 0.0
C393 C 0.41194 0.51253 0.4892 0.0
C394 C 0.42757 0.53317 0.51029 0.0
C395 C 0.44669 0.53046 0.55411 0.0
H396 H 0.12675 0.36455 0.48619 0.0
H397 H 0.06862 0.34606 0.34368 0.0
H398 H 0.10477 0.39711 0.54014 0.0
H399 H 0.04733 0.37995 0.39455 0.0
H400 H 0.0033 0.42293 0.55793 0.0
H401 H 0.02496 0.39107 0.49639 0.0
H402 H 0.09268 0.43629 0.5252 0.0
H403 H 0.07132 0.46719 0.58952 0.0
C404 C 0.10935 0.36756 0.46591 0.0
C405 C 0.0994 0.3525 0.41091 0.0
C406 C 0.09685 0.38653 0.49627 0.0
C407 C 0.0742 0.39124 0.47181 0.0
C408 C 0.06455 0.37664 0.41544 0.0
C409 C 0.07696 0.35744 0.38549 0.0
C410 C 0.02281 0.42597 0.551 0.0
C411 C 0.03561 0.44742 0.5792 0.0
C412 C 0.03523 0.40782 0.51528 0.0
C413 C 0.06065 0.41098 0.5062 0.0
C414 C 0.07323 0.43288 0.5326 0.0
C415 C 0.06091 0.45072 0.56921 0.0
H416 H 0.81398 0.02556 0.95977 0.0
H417 H 0.85883 0.08206 0.07223 0.0
H418 H 0.84844 0.01755 0.88246 0.0
H419 H 0.89348 0.07358 0.99715 0.0
H420 H 0.94278 0.07437 0.80917 0.0
H421 H 0.9071 0.08034 0.88196 0.0
H422 H 0.88716 0.00154 0.87256 0.0
H423 H 0.92258 0.99572 0.79702 0.0
C424 C 0.83136 0.03593 0.96856 0.0
C425 C 0.83381 0.05453 0.02145 0.0
C426 C 0.8511 0.03135 0.92444 0.0
C427 C 0.87368 0.04514 0.93295 0.0
C428 C 0.87621 0.06308 0.98779 0.0
C429 C 0.85645 0.06785 0.03117 0.0
C430 C 0.93069 0.05833 0.82222 0.0
C431 C 0.9355 0.03457 0.79772 0.0
C432 C 0.91032 0.06172 0.86448 0.0
C433 C 0.89445 0.04138 0.88425 0.0
C434 C 0.8989 0.01763 0.85804 0.0
C435 C 0.91919 0.01427 0.81482 0.0
H436 H 0.54505 0.86217 0.14952 0.0
H437 H 0.59526 0.83581 0.99382 0.0
H438 H 0.5401 0.89755 0.08112 0.0
H439 H 0.59039 0.87141 0.92519 0.0
H440 H 0.54142 0.91053 0.78301 0.0
H441 H 0.55643 0.88117 0.85845 0.0
H442 H 0.5569 0.93548 0.02921 0.0
H443 H 0.5414 0.96473 0.95353 0.0
C444 C 0.5557 0.86437 0.10182 0.0
C445 C 0.57036 0.84604 0.07674 0.0
C446 C 0.55281 0.88467 0.06241 0.0
C447 C 0.56454 0.88709 0.99711 0.0
C448 C 0.58068 0.86977 0.97459 0.0
C449 C 0.58355 0.84945 0.01398 0.0
C450 C 0.54494 0.91623 0.8365 0.0
C451 C 0.54005 0.93975 0.86272 0.0
C452 C 0.55377 0.89951 0.87964 0.0
C453 C 0.5579 0.90598 0.94994 0.0
C454 C 0.55369 0.92985 0.97552 0.0
C455 C 0.54486 0.94659 0.93225 0.0
H456 H 0.69088 0.46118 0.93029 0.0
H457 H 0.64293 0.3996 -0.00073 0.0
H458 H 0.65794 0.47577 0.86728 0.0
H459 H 0.60946 0.41478 0.94071 0.0
H460 H 0.55998 0.43154 0.77497 0.0
H461 H 0.59423 0.41797 0.83267 0.0
H462 H 0.62178 0.49417 0.87396 0.0
H463 H 0.58806 0.50755 0.81175 0.0
C464 C 0.67309 0.45103 0.9326 0.0
C465 C 0.66928 0.42928 0.96901 0.0
C466 C 0.65416 0.45942 0.89697 0.0
C467 C 0.63092 0.44643 0.89825 0.0
C468 C 0.62717 0.42496 0.93666 0.0
C469 C 0.64623 0.41633 0.97087 0.0
C470 C 0.57346 0.44536 0.79611 0.0
C471 C 0.5714 0.47057 0.78919 0.0
C472 C 0.59303 0.43761 0.82987 0.0
C473 C 0.61073 0.45491 0.85924 0.0
C474 C 0.60874 0.48024 0.85142 0.0
C475 C 0.58939 0.48797 0.81605 0.0
H476 H 0.91927 0.67775 0.88601 0.0
H477 H 0.94357 0.65001 0.07507 0.0
H478 H 0.92635 0.63875 0.82474 0.0
H479 H 0.94935 0.61085 0.01477 0.0
H480 H 0.0005 0.57188 0.8643 0.0
H481 H 0.98247 0.60447 0.931 0.0
H482 H 0.91858 0.59291 0.80719 0.0
H483 H 0.93687 0.56003 0.73894 0.0
C484 C 0.92542 0.66313 0.91499 0.0
C485 C 0.93142 0.6673 0.9851 0.0
C486 C 0.92926 0.6407 0.87997 0.0
C487 C 0.93902 0.62201 0.91462 0.0
C488 C 0.94237 0.62517 0.98637 0.0
C489 C 0.9387 0.64759 0.0212 0.0
C490 C 0.98259 0.57614 0.85099 0.0
C491 C 0.97021 0.56338 0.79588 0.0
C492 C 0.9721 0.59468 0.88998 0.0
C493 C 0.94894 0.60104 0.87503 0.0
C494 C 0.93645 0.58836 0.81993 0.0
C495 C 0.94694 0.56957 0.78091 0.0
H496 H 0.04947 0.1874 0.4361 0.0
H497 H 0.11428 0.15417 0.48553 0.0
H498 H 0.02466 0.15209 0.48128 0.0
H499 H 0.08913 0.11819 0.5265 0.0
H500 H 0.03161 0.04872 0.48721 0.0
H501 H 0.05686 0.08582 0.45383 0.0
H502 H 0.01922 0.12939 0.60718 0.0
H503 H 0.99421 0.092 0.64198 0.0
C504 C 0.05852 0.17285 0.45739 0.0
C505 C 0.08402 0.1738 0.45701 0.0
C506 C 0.04422 0.15256 0.4828 0.0
C507 C 0.05507 0.13255 0.50697 0.0
C508 C 0.08043 0.13343 0.50753 0.0
C509 C 0.09477 0.15396 0.48353 0.0
C510 C 0.02862 0.06625 0.51344 0.0
C511 C 0.01096 0.06766 0.56691 0.0
C512 C 0.04319 0.08735 0.49481 0.0
C513 C 0.03995 0.11028 0.52825 0.0
C514 C 0.02197 0.11182 0.58081 0.0
C515 C 0.00774 0.09056 0.60058 0.0
H516 H 0.3379 0.99194 0.44707 0.0
H517 H 0.37833 0.06366 0.47331 0.0
H518 H 0.37036 0.97306 0.50118 0.0
H519 H 0.41092 0.04435 0.52497 0.0
H520 H 0.47395 0.99314 0.51338 0.0
H521 H 0.4384 0.00689 0.46004 0.0
H522 H 0.39353 0.98212 0.63452 0.0
H523 H 0.42928 0.96892 0.68898 0.0
C524 C 0.35348 0.00376 0.46501 0.0
C525 C 0.35547 0.02939 0.4555 0.0
C526 C 0.37208 0.99285 0.49549 0.0
C527 C 0.3931 0.0073 0.51598 0.0
C528 C 0.39499 0.03287 0.50801 0.0
C529 C 0.37634 0.04385 0.47837 0.0
C530 C 0.45642 0.9904 0.53983 0.0
C531 C 0.45431 0.98052 0.60562 0.0
C532 C 0.43621 0.99827 0.50951 0.0
C533 C 0.41352 0.9959 0.54402 0.0
C534 C 0.41096 0.98416 0.6073 0.0
C535 C 0.43131 0.97652 0.63809 0.0
H536 H 0.44657 0.31955 0.4986 0.0
H537 H 0.40259 0.36864 0.40084 0.0
H538 H 0.47406 0.35453 0.53557 0.0
H539 H 0.42845 0.40376 0.44484 0.0
H540 H 0.49072 0.46213 0.46826 0.0
H541 H 0.4652 0.42584 0.42721 0.0
H542 H 0.48164 0.38796 0.60944 0.0
H543 H 0.50915 0.42342 0.64553 0.0
C544 C 0.44255 0.33777 0.48541 0.0
C545 C 0.42233 0.34098 0.44578 0.0
C546 C 0.4582 0.35803 0.50785 0.0
C547 C 0.45378 0.38222 0.49297 0.0
C548 C 0.43298 0.38549 0.45592 0.0
C549 C 0.41768 0.3652 0.43194 0.0
C550 C 0.48915 0.44583 0.49866 0.0
C551 C 0.50137 0.44569 0.56095 0.0
C552 C 0.47416 0.4251 0.47588 0.0
C553 C 0.47076 0.4039 0.51551 0.0
C554 C 0.48373 0.4037 0.57693 0.0
C555 C 0.49918 0.42421 0.59858 0.0
H556 H 0.17118 0.54905 0.447 0.0
H557 H 0.1542 0.47161 0.48412 0.0
H558 H 0.1318 0.5578 0.49894 0.0
H559 H 0.11485 0.48041 0.53433 0.0
H560 H 0.0586 0.55516 0.64774 0.0
H561 H 0.10186 0.55134 0.61898 0.0
H562 H 0.08134 0.49747 0.45515 0.0
H563 H 0.03883 0.50102 0.48374 0.0
C564 C 0.15939 0.53403 0.46801 0.0
C565 C 0.1656 0.50956 0.46037 0.0
C566 C 0.13688 0.53907 0.49759 0.0
C567 C 0.12031 0.5197 0.51954 0.0
C568 C 0.12728 0.49558 0.51688 0.0
C569 C 0.14973 0.49056 0.4879 0.0
C570 C 0.06352 0.5425 0.60587 0.0
C571 C 0.04547 0.52797 0.56912 0.0
C572 C 0.08811 0.54046 0.58918 0.0
C573 C 0.09474 0.52373 0.53588 0.0
C574 C 0.07663 0.51018 0.49725 0.0
C575 C 0.0523 0.51241 0.5133 0.0
H576 H 0.94867 0.86962 0.00498 0.0
H577 H 0.01682 0.85078 0.91203 0.0
H578 H 0.95407 0.9094 0.95112 0.0
H579 H 0.02274 0.89097 0.86076 0.0
H580 H 0.98743 0.98876 0.91861 0.0
H581 H 0.97983 0.94776 0.96525 0.0
H582 H 0.0076 0.9154 0.77365 0.0
H583 H 0.01609 0.95653 0.72848 0.0
C584 C 0.96471 0.87388 0.97261 0.0
C585 C 0.98235 0.85705 0.96293 0.0
C586 C 0.96795 0.89681 0.94247 0.0
C587 C 0.9889 0.90343 0.90203 0.0
C588 C 0.00629 0.88638 0.89113 0.0
C589 C 0.00304 0.86345 0.92118 0.0
C590 C 0.9919 0.97284 0.88667 0.0
C591 C 0.00214 0.97569 0.81987 0.0
C592 C 0.98735 0.94936 0.91302 0.0
C593 C 0.993 0.92829 0.87304 0.0
C594 C 0.00322 0.93125 0.806 0.0
C595 C 0.00784 0.95475 0.77982 0.0
H596 H 0.63382 0.08648 0.06891 0.0
H597 H 0.67461 0.05487 0.89746 0.0
H598 H 0.59687 0.07838 0.00328 0.0
H599 H 0.63721 0.04544 0.83444 0.0
H600 H 0.55828 0.00816 0.79429 0.0
H601 H 0.59424 0.01643 0.8651 0.0
H602 H 0.5844 0.09416 0.87492 0.0
H603 H 0.54864 0.08587 0.80293 0.0
C604 C 0.63507 0.07803 0.01722 0.0
C605 C 0.65739 0.07144 0.98863 0.0
C606 C 0.61381 0.07317 0.98011 0.0
C607 C 0.61432 0.06114 0.91441 0.0
C608 C 0.63643 0.05446 0.88559 0.0
C609 C 0.65779 0.05979 0.92195 0.0
C610 C 0.56343 0.02685 0.8131 0.0
C611 C 0.55051 0.04632 0.79467 0.0
C612 C 0.58414 0.03162 0.85269 0.0
C613 C 0.59189 0.05589 0.87531 0.0
C614 C 0.57859 0.07529 0.85834 0.0
C615 C 0.55824 0.07056 0.81738 0.0
H616 H 0.56229 0.6437 0.05507 0.0
H617 H 0.50025 0.66758 0.95676 0.0
H618 H 0.55792 0.60494 0.98629 0.0
H619 H 0.4952 0.62835 0.8903 0.0
H620 H 0.50316 0.56224 0.74198 0.0
H621 H 0.51269 0.60296 0.79872 0.0
H622 H 0.52963 0.56831 0.98549 0.0
H623 H 0.52097 0.52779 0.92784 0.0
C624 C 0.54786 0.64079 0.01829 0.0
C625 C 0.53153 0.65868 0.01168 0.0
C626 C 0.54519 0.61845 0.97946 0.0
C627 C 0.52609 0.61346 0.93324 0.0
C628 C 0.51022 0.63167 0.92504 0.0
C629 C 0.51292 0.65403 0.96379 0.0
C630 C 0.50929 0.56342 0.79479 0.0
C631 C 0.5115 0.54196 0.83051 0.0
C632 C 0.51453 0.5867 0.82749 0.0
C633 C 0.52193 0.58889 0.89664 0.0
C634 C 0.52436 0.56731 0.93188 0.0
C635 C 0.51919 0.54409 0.89913 0.0
H636 H 0.83324 0.42248 0.83105 0.0
H637 H 0.8676 0.40387 0.01651 0.0
H638 H 0.87251 0.43988 0.78488 0.0
H639 H 0.90671 0.42048 0.96959 0.0
H640 H 0.9627 0.48388 0.91035 0.0
H641 H 0.92422 0.46283 0.94908 0.0
H642 H 0.91386 0.42941 0.74352 0.0
H643 H 0.95265 0.45057 0.70472 0.0
C644 C 0.84919 0.42183 0.86153 0.0
C645 C 0.84727 0.41186 0.92754 0.0
C646 C 0.87168 0.4316 0.83486 0.0
C647 C 0.89264 0.43174 0.87392 0.0
C648 C 0.89083 0.42094 0.93869 0.0
C649 C 0.86843 0.41112 0.96518 0.0
C650 C 0.95225 0.47197 0.87349 0.0
C651 C 0.96055 0.4689 0.80455 0.0
C652 C 0.93028 0.45981 0.89573 0.0
C653 C 0.91608 0.44434 0.84945 0.0
C654 C 0.92435 0.44133 0.78022 0.0
C655 C 0.9465 0.45341 0.75805 0.0
H656 H 0.12737 0.17245 0.08069 0.0
H657 H 0.08791 0.22734 0.9928 0.0
H658 H 0.10965 0.14128 0.99881 0.0
H659 H 0.07082 0.19632 0.90772 0.0
H660 H 0.02114 0.12768 0.8339 0.0
H661 H 0.04197 0.16207 0.9005 0.0
H662 H 0.10788 0.1253 0.88579 0.0
H663 H 0.08643 0.09039 0.8232 0.0
C664 C 0.11538 0.17796 0.04235 0.0
C665 C 0.10908 0.2023 0.04283 0.0
C666 C 0.10523 0.16009 0.99502 0.0
C667 C 0.08876 0.16616 0.94614 0.0
C668 C 0.08309 0.19081 0.94523 0.0
C669 C 0.09299 0.20865 0.99354 0.0
C670 C 0.04013 0.12715 0.84466 0.0
C671 C 0.05215 0.10635 0.82445 0.0
C672 C 0.05217 0.14693 0.88238 0.0
C673 C 0.07663 0.14646 0.89948 0.0
C674 C 0.0889 0.12609 0.87549 0.0
C675 C 0.0767 0.10613 0.83913 0.0
H676 H 0.35594 0.01359 0.11545 0.0
H677 H 0.31833 0.0401 0.9461 0.0
H678 H 0.39004 0.00607 0.03803 0.0
H679 H 0.35225 0.03172 0.86717 0.0
H680 H 0.42923 0.04617 0.7741 0.0
H681 H 0.39224 0.04877 0.844 0.0
H682 H 0.4058 0.98258 0.94541 0.0
H683 H 0.44342 0.98069 0.87751 0.0
C684 C 0.35469 0.01712 0.06103 0.0
C685 C 0.33447 0.02738 0.03672 0.0
C686 C 0.37428 0.01278 0.01645 0.0
C687 C 0.37404 0.01837 0.94618 0.0
C688 C 0.35329 0.02765 0.92124 0.0
C689 C 0.33378 0.0323 0.96619 0.0
C690 C 0.42431 0.03216 0.81132 0.0
C691 C 0.43942 0.01342 0.82095 0.0
C692 C 0.40292 0.0335 0.851 0.0
C693 C 0.39595 0.0159 0.9006 0.0
C694 C 0.4108 0.99674 0.90876 0.0
C695 C 0.43237 0.99562 0.86973 0.0
H696 H 0.4145 0.3477 0.11467 0.0
H697 H 0.38287 0.30338 0.9436 0.0
H698 H 0.42825 0.3803 0.0365 0.0
H699 H 0.39698 0.33621 0.86433 0.0
H700 H 0.46171 0.38859 0.75795 0.0
H701 H 0.44028 0.35555 0.82443 0.0
H702 H 0.40914 0.41008 0.96044 0.0
H703 H 0.43039 0.44302 0.89395 0.0
C704 C 0.41051 0.34501 0.06014 0.0
C705 C 0.39783 0.32304 0.03483 0.0
C706 C 0.41817 0.36372 0.01558 0.0
C707 C 0.41356 0.36078 0.94453 0.0
C708 C 0.40074 0.33886 0.91898 0.0
C709 C 0.39266 0.32019 0.96407 0.0
C710 C 0.44994 0.39343 0.80134 0.0
C711 C 0.44786 0.41827 0.82148 0.0
C712 C 0.4376 0.37457 0.83902 0.0
C713 C 0.42325 0.38033 0.89776 0.0
C714 C 0.42027 0.40519 0.91567 0.0
C715 C 0.43238 0.424 0.87762 0.0
H716 H 0.2133 0.52921 0.94018 0.0
H717 H 0.16877 0.54011 0.12496 0.0
H718 H 0.17751 0.52977 0.86911 0.0
H719 H 0.13342 0.54083 0.05416 0.0
H720 H 0.07723 0.49385 0.91675 0.0
H721 H 0.11421 0.50214 0.98231 0.0
H722 H 0.14147 0.5573 0.83889 0.0
H723 H 0.10397 0.54927 0.77346 0.0
C724 C 0.19606 0.53235 0.96541 0.0
C725 C 0.19386 0.53449 0.03818 0.0
C726 C 0.17566 0.53277 0.9248 0.0
C727 C 0.15276 0.53502 0.95646 0.0
C728 C 0.15088 0.53886 0.02868 0.0
C729 C 0.17122 0.5387 0.0691 0.0
C730 C 0.09108 0.50776 0.89926 0.0
C731 C 0.08781 0.52099 0.84038 0.0
C732 C 0.11214 0.51261 0.93695 0.0
C733 C 0.1305 0.53052 0.91589 0.0
C734 C 0.12749 0.54347 0.85614 0.0
C735 C 0.10612 0.53891 0.81898 0.0
H736 H 0.91482 0.8397 0.31103 0.0
H737 H 0.96087 0.80963 0.45519 0.0
H738 H 0.91254 0.8761 0.38744 0.0
H739 H 0.96049 0.84697 0.52831 0.0
H740 H 0.95734 0.91583 0.65768 0.0
H741 H 0.94381 0.87577 0.60272 0.0
H742 H 0.93965 0.91056 0.40724 0.0
H743 H 0.95168 0.95044 0.46344 0.0
C744 C 0.92408 0.84054 0.35965 0.0
C745 C 0.93854 0.82189 0.37597 0.0
C746 C 0.92314 0.86173 0.40305 0.0
C747 C 0.93699 0.86501 0.46312 0.0
C748 C 0.9496 0.84533 0.48257 0.0
C749 C 0.95013 0.82394 0.43991 0.0
C750 C 0.95302 0.91482 0.60326 0.0
C751 C 0.9557 0.93608 0.56451 0.0
C752 C 0.94542 0.89187 0.57156 0.0
C753 C 0.94083 0.88969 0.50014 0.0
C754 C 0.94255 0.91134 0.46245 0.0
C755 C 0.94971 0.93428 0.49446 0.0
H756 H 0.693 0.03375 0.4797 0.0
H757 H 0.65638 0.01192 0.28918 0.0
H758 H 0.65553 0.02252 0.54552 0.0
H759 H 0.61952 -0.00031 0.35497 0.0
H760 H 0.58587 0.98807 0.647 0.0
H761 H 0.62419 0.98962 0.58049 0.0
H762 H 0.59158 0.02538 0.41722 0.0
H763 H 0.55335 0.0235 0.48263 0.0
C764 C 0.67715 0.02609 0.45198 0.0
C765 C 0.67768 0.024 0.37913 0.0
C766 C 0.65575 0.01943 0.48971 0.0
C767 C 0.6345 0.01056 0.45525 0.0
C768 C 0.63551 0.00687 0.38285 0.0
C769 C 0.6568 0.01358 0.34521 0.0
C770 C 0.5868 0.99597 0.59649 0.0
C771 C 0.56656 0.00573 0.57017 0.0
C772 C 0.60879 0.99696 0.55865 0.0
C773 C 0.61088 0.00756 0.49362 0.0
C774 C 0.59046 0.01673 0.46669 0.0
C775 C 0.56856 0.01584 0.50451 0.0
H776 H 0.55442 0.70135 0.52018 0.0
H777 H 0.59908 0.67439 0.35102 0.0
H778 H 0.55743 0.66371 0.58005 0.0
H779 H 0.60362 0.63745 0.41327 0.0
H780 H 0.56595 0.56182 0.477 0.0
H781 H 0.577 0.60211 0.43052 0.0
H782 H 0.57742 0.63533 0.63854 0.0
H783 H 0.56515 0.59486 0.68449 0.0
C784 C 0.56543 0.68766 0.49655 0.0
C785 C 0.57595 0.69067 0.4299 0.0
C786 C 0.56745 0.66611 0.53142 0.0
C787 C 0.58036 0.64715 0.50095 0.0
C788 C 0.59296 0.65132 0.43751 0.0
C789 C 0.59067 0.67276 0.40219 0.0
C790 C 0.56886 0.57768 0.51282 0.0
C791 C 0.56442 0.57532 0.58416 0.0
C792 C 0.57541 0.60086 0.48626 0.0
C793 C 0.57792 0.6222 0.5306 0.0
C794 C 0.57516 0.61944 0.60264 0.0
C795 C 0.56831 0.59625 0.62911 0.0
H796 H 0.83307 0.4666 0.25603 0.0
H797 H 0.79927 0.42421 0.42294 0.0
H798 H 0.86528 0.48275 0.33111 0.0
H799 H 0.833 0.43897 0.49676 0.0
H800 H 0.89217 0.48412 0.62577 0.0
H801 H 0.85521 0.47292 0.56021 0.0
H802 H 0.89906 0.46555 0.37232 0.0
H803 H 0.93534 0.47757 0.43683 0.0
C804 C 0.8322 0.46092 0.30903 0.0
C805 C 0.81342 0.44391 0.33293 0.0
C806 C 0.85106 0.46989 0.3519 0.0
C807 C 0.85209 0.46172 0.41952 0.0
C808 C 0.83281 0.44564 0.4449 0.0
C809 C 0.81362 0.43691 0.40216 0.0
C810 C 0.89371 0.48021 0.57037 0.0
C811 C 0.9165 0.48191 0.5361 0.0
C812 C 0.87262 0.4737 0.5329 0.0
C813 C 0.8741 0.46867 0.46075 0.0
C814 C 0.89708 0.46999 0.42734 0.0
C815 C 0.91796 0.47668 0.46444 0.0
loop_
_geom_bond_atom_site_label_1
_geom_bond_atom_site_label_2
_geom_bond_distance
_geom_bond_site_symmetry_2
_ccdc_geom_bond_type
P0 O11 1.490 . S
P0 C14 1.812 . S
P0 C20 1.803 . S
P0 C26 1.819 . S
H1 C15 0.941 . S
H2 C16 0.939 . S
H3 C18 0.940 . S
H4 C19 0.940 . S
H5 C21 0.939 1_556 S
H6 C22 0.942 . S
H7 C24 0.940 . S
H8 C25 0.939 . S
H9 C27 0.943 . S
H10 C31 0.939 . S
O11 P0 1.490 . S
H12 C28 0.939 . S
H13 C30 0.940 . S
C14 P0 1.812 . S
C14 C15 1.389 . S
C14 C19 1.391 . S
C15 H1 0.941 . S
C15 C14 1.389 . S
C15 C16 1.397 . S
C16 H2 0.939 . S
C16 C15 1.397 . S
C16 C17 1.378 . S
C17 C16 1.378 . S
C17 C18 1.378 . S
C18 H3 0.940 . S
C18 C17 1.378 . S
C18 C19 1.396 . S
C19 H4 0.940 . S
C19 C14 1.391 . S
C19 C18 1.396 . S
C20 P0 1.803 . S
C20 C21 1.378 . S
C20 C25 1.400 . S
C21 H5 0.939 1_554 S
C21 C20 1.378 . S
C21 C22 1.361 1_554 S
C22 H6 0.942 . S
C22 C21 1.361 1_556 S
C22 C23 1.369 1_556 S
C23 C22 1.369 1_554 S
C23 C24 1.404 . S
C24 H7 0.940 . S
C24 C23 1.404 . S
C24 C25 1.389 . S
C25 H8 0.939 . S
C25 C20 1.400 . S
C25 C24 1.389 . S
C26 P0 1.819 . S
C26 C27 1.391 . S
C26 C31 1.391 1_554 S
C27 H9 0.943 . S
C27 C26 1.391 . S
C27 C28 1.395 1_554 S
C28 H12 0.939 . S
C28 C27 1.395 1_556 S
C28 C29 1.397 . S
C29 C28 1.397 . S
C29 C30 1.385 . S
C30 H13 0.940 . S
C30 C29 1.385 . S
C30 C31 1.388 . S
C31 H10 0.939 . S
C31 C26 1.391 1_556 S
C31 C30 1.388 . S
P32 O43 1.490 . S
P32 C46 1.812 . S
P32 C52 1.803 . S
P32 C58 1.819 1_554 S
H33 C47 0.941 . S
H34 C48 0.939 . S
H35 C50 0.940 . S
H36 C51 0.940 . S
H37 C53 0.939 . S
H38 C54 0.942 . S
H39 C56 0.940 . S
H40 C57 0.939 . S
H41 C59 0.941 1_554 S
H42 C63 0.939 . S
O43 P32 1.490 . S
H44 C60 0.939 . S
H45 C62 0.940 . S
C46 P32 1.812 . S
C46 C47 1.389 . S
C46 C51 1.391 . S
C47 H33 0.941 . S
C47 C46 1.389 . S
C47 C48 1.397 . S
C48 H34 0.939 . S
C48 C47 1.397 . S
C48 C49 1.378 . S
C49 C48 1.378 . S
C49 C50 1.378 . S
C50 H35 0.940 . S
C50 C49 1.378 . S
C50 C51 1.396 . S
C51 H36 0.940 . S
C51 C46 1.391 . S
C51 C50 1.396 . S
C52 P32 1.803 . S
C52 C53 1.378 1_554 S
C52 C57 1.400 . S
C53 H37 0.939 . S
C53 C52 1.378 1_556 S
C53 C54 1.361 . S
C54 H38 0.942 . S
C54 C53 1.361 . S
C54 C55 1.369 . S
C55 C54 1.369 . S
C55 C56 1.404 1_556 S
C56 H39 0.940 . S
C56 C55 1.404 1_554 S
C56 C57 1.389 . S
C57 H40 0.939 . S
C57 C52 1.400 . S
C57 C56 1.389 . S
C58 P32 1.819 1_556 S
C58 C59 1.391 . S
C58 C63 1.391 . S
C59 H41 0.941 1_556 S
C59 C58 1.391 . S
C59 C60 1.396 . S
C60 H44 0.939 . S
C60 C59 1.396 . S
C60 C61 1.397 . S
C61 C60 1.397 . S
C61 C62 1.385 . S
C62 H45 0.940 . S
C62 C61 1.385 . S
C62 C63 1.388 . S
C63 H42 0.939 . S
C63 C58 1.391 . S
C63 C62 1.388 . S
P64 O75 1.490 . S
P64 C78 1.812 . S
P64 C84 1.803 . S
P64 C90 1.819 . S
H65 C79 0.941 . S
H66 C80 0.939 . S
H67 C82 0.940 . S
H68 C83 0.949 . S
H69 C85 0.939 . S
H70 C86 0.942 . S
H71 C88 0.940 . S
H72 C89 0.958 . S
H73 C91 0.941 . S
H74 C95 0.926 1_565 S
O75 P64 1.490 . S
H76 C92 0.939 . S
H77 C94 0.940 . S
C78 P64 1.812 . S
C78 C79 1.389 . S
C78 C83 1.376 1_545 S
C79 H65 0.941 . S
C79 C78 1.389 . S
C79 C80 1.397 . S
C80 H66 0.939 . S
C80 C79 1.397 . S
C80 C81 1.378 . S
C81 C80 1.378 . S
C81 C82 1.378 1_545 S
C82 H67 0.940 . S
C82 C81 1.378 1_565 S
C82 C83 1.403 . S
C83 H68 0.949 . S
C83 C78 1.376 1_565 S
C83 C82 1.403 . S
C84 P64 1.803 . S
C84 C85 1.378 . S
C84 C89 1.367 1_545 S
C85 H69 0.939 . S
C85 C84 1.378 . S
C85 C86 1.361 . S
C86 H70 0.942 . S
C86 C85 1.361 . S
C86 C87 1.369 . S
C87 C86 1.369 . S
C87 C88 1.404 1_545 S
C88 H71 0.940 . S
C88 C87 1.404 1_565 S
C88 C89 1.404 . S
C89 H72 0.958 . S
C89 C84 1.367 1_565 S
C89 C88 1.404 . S
C90 P64 1.819 . S
C90 C91 1.391 . S
C90 C95 1.391 1_554 S
C91 H73 0.941 . S
C91 C90 1.391 . S
C91 C92 1.406 . S
C92 H76 0.939 . S
C92 C91 1.406 . S
C92 C93 1.388 1_554 S
C93 C92 1.388 1_556 S
C93 C94 1.385 1_545 S
C94 H77 0.940 . S
C94 C93 1.385 1_565 S
C94 C95 1.388 1_565 S
C95 H74 0.926 1_545 S
C95 C90 1.391 1_556 S
C95 C94 1.388 1_545 S
P96 O107 1.490 . S
P96 C110 1.812 . S
P96 C116 1.803 . S
P96 C122 1.819 . S
H97 C111 0.941 . S
H98 C112 0.939 . S
H99 C114 0.940 . S
H100 C115 0.940 . S
H101 C117 0.939 . S
H102 C118 0.942 1_556 S
H103 C120 0.940 . S
H104 C121 0.939 . S
H105 C123 0.941 . S
H106 C127 0.939 . S
O107 P96 1.490 . S
H108 C124 0.939 . S
H109 C126 0.940 . S
C110 P96 1.812 . S
C110 C111 1.389 . S
C110 C115 1.391 . S
C111 H97 0.941 . S
C111 C110 1.389 . S
C111 C112 1.397 . S
C112 H98 0.939 . S
C112 C111 1.397 . S
C112 C113 1.378 . S
C113 C112 1.378 . S
C113 C114 1.378 . S
C114 H99 0.940 . S
C114 C113 1.378 . S
C114 C115 1.396 . S
C115 H100 0.940 . S
C115 C110 1.391 . S
C115 C114 1.396 . S
C116 P96 1.803 . S
C116 C117 1.378 . S
C116 C121 1.400 . S
C117 H101 0.939 . S
C117 C116 1.378 . S
C117 C118 1.361 . S
C118 H102 0.942 1_554 S
C118 C117 1.361 . S
C118 C119 1.369 . S
C119 C118 1.369 . S
C119 C120 1.404 . S
C120 H103 0.940 . S
C120 C119 1.404 . S
C120 C121 1.389 . S
C121 H104 0.939 . S
C121 C116 1.400 . S
C121 C120 1.389 . S
C122 P96 1.819 . S
C122 C123 1.391 . S
C122 C127 1.391 1_554 S
C123 H105 0.941 . S
C123 C122 1.391 . S
C123 C124 1.396 1_554 S
C124 H108 0.939 . S
C124 C123 1.396 1_556 S
C124 C125 1.397 . S
C125 C124 1.397 . S
C125 C126 1.385 . S
C126 H109 0.940 . S
C126 C125 1.385 . S
C126 C127 1.388 . S
C127 H106 0.939 . S
C127 C122 1.391 1_556 S
C127 C126 1.388 . S
P128 O139 1.490 . S
P128 C142 1.812 . S
P128 C148 1.803 . S
P128 C154 1.819 . S
H129 C143 0.941 . S
H130 C144 0.939 . S
H131 C146 0.940 . S
H132 C147 0.940 . S
H133 C149 0.939 . S
H134 C150 0.942 . S
H135 C152 0.940 . S
H136 C153 0.939 . S
H137 C155 0.941 . S
H138 C159 0.939 . S
O139 P128 1.490 . S
H140 C156 0.939 . S
H141 C158 0.940 . S
C142 P128 1.812 . S
C142 C143 1.389 . S
C142 C147 1.391 . S
C143 H129 0.941 . S
C143 C142 1.389 . S
C143 C144 1.397 . S
C144 H130 0.939 . S
C144 C143 1.397 . S
C144 C145 1.378 . S
C145 C144 1.378 . S
C145 C146 1.378 . S
C146 H131 0.940 . S
C146 C145 1.378 . S
C146 C147 1.396 . S
C147 H132 0.940 . S
C147 C142 1.391 . S
C147 C146 1.396 . S
C148 P128 1.803 . S
C148 C149 1.378 . S
C148 C153 1.400 . S
C149 H133 0.939 . S
C149 C148 1.378 . S
C149 C150 1.361 . S
C150 H134 0.942 . S
C150 C149 1.361 . S
C150 C151 1.369 . S
C151 C150 1.369 . S
C151 C152 1.404 . S
C152 H135 0.940 . S
C152 C151 1.404 . S
C152 C153 1.389 . S
C153 H136 0.939 . S
C153 C148 1.400 . S
C153 C152 1.389 . S
C154 P128 1.819 . S
C154 C155 1.391 . S
C154 C159 1.391 . S
C155 H137 0.941 . S
C155 C154 1.391 . S
C155 C156 1.396 . S
C156 H140 0.939 . S
C156 C155 1.396 . S
C156 C157 1.397 . S
C157 C156 1.397 . S
C157 C158 1.385 . S
C158 H141 0.940 . S
C158 C157 1.385 . S
C158 C159 1.388 . S
C159 H138 0.939 . S
C159 C154 1.391 . S
C159 C158 1.388 . S
P160 O171 1.490 . S
P160 C174 1.812 . S
P160 C180 1.803 . S
P160 C186 1.819 . S
H161 C175 0.941 . S
H162 C176 0.939 . S
H163 C178 0.940 . S
H164 C179 0.940 . S
H165 C181 0.939 . S
H166 C182 0.942 . S
H167 C184 0.940 . S
H168 C185 0.939 . S
H169 C187 0.941 . S
H170 C191 0.939 . S
O171 P160 1.490 . S
H172 C188 0.939 . S
H173 C190 0.940 . S
C174 P160 1.812 . S
C174 C175 1.389 . S
C174 C179 1.391 . S
C175 H161 0.941 . S
C175 C174 1.389 . S
C175 C176 1.397 . S
C176 H162 0.939 . S
C176 C175 1.397 . S
C176 C177 1.378 . S
C177 C176 1.378 . S
C177 C178 1.378 . S
C178 H163 0.940 . S
C178 C177 1.378 . S
C178 C179 1.396 . S
C179 H164 0.940 . S
C179 C174 1.391 . S
C179 C178 1.396 . S
C180 P160 1.803 . S
C180 C181 1.378 . S
C180 C185 1.400 . S
C181 H165 0.939 . S
C181 C180 1.378 . S
C181 C182 1.361 . S
C182 H166 0.942 . S
C182 C181 1.361 . S
C182 C183 1.369 . S
C183 C182 1.369 . S
C183 C184 1.404 . S
C184 H167 0.940 . S
C184 C183 1.404 . S
C184 C185 1.389 . S
C185 H168 0.939 . S
C185 C180 1.400 . S
C185 C184 1.389 . S
C186 P160 1.819 . S
C186 C187 1.391 . S
C186 C191 1.391 . S
C187 H169 0.941 . S
C187 C186 1.391 . S
C187 C188 1.396 . S
C188 H172 0.939 . S
C188 C187 1.396 . S
C188 C189 1.397 . S
C189 C188 1.397 . S
C189 C190 1.385 . S
C190 H173 0.940 . S
C190 C189 1.385 . S
C190 C191 1.388 . S
C191 H170 0.939 . S
C191 C186 1.391 . S
C191 C190 1.388 . S
P192 O203 1.490 . S
P192 C206 1.812 . S
P192 C212 1.803 . S
P192 C218 1.819 . S
H193 C207 0.941 . S
H194 C208 0.939 . S
H195 C210 0.940 1_565 S
H196 C211 0.940 . S
H197 C213 0.939 . S
H198 C214 0.942 . S
H199 C216 0.940 1_565 S
H200 C217 0.939 . S
H201 C219 0.941 . S
H202 C223 0.939 . S
O203 P192 1.490 . S
H204 C220 0.939 . S
H205 C222 0.940 1_565 S
C206 P192 1.812 . S
C206 C207 1.389 . S
C206 C211 1.391 . S
C207 H193 0.941 . S
C207 C206 1.389 . S
C207 C208 1.397 . S
C208 H194 0.939 . S
C208 C207 1.397 . S
C208 C209 1.378 . S
C209 C208 1.378 . S
C209 C210 1.378 . S
C210 H195 0.940 1_545 S
C210 C209 1.378 . S
C210 C211 1.396 . S
C211 H196 0.940 . S
C211 C206 1.391 . S
C211 C210 1.396 . S
C212 P192 1.803 . S
C212 C213 1.378 . S
C212 C217 1.400 . S
C213 H197 0.939 . S
C213 C212 1.378 . S
C213 C214 1.361 . S
C214 H198 0.942 . S
C214 C213 1.361 . S
C214 C215 1.369 . S
C215 C214 1.369 . S
C215 C216 1.404 . S
C216 H199 0.940 1_545 S
C216 C215 1.404 . S
C216 C217 1.389 . S
C217 H200 0.939 . S
C217 C212 1.400 . S
C217 C216 1.389 . S
C218 P192 1.819 . S
C218 C219 1.391 . S
C218 C223 1.391 . S
C219 H201 0.941 . S
C219 C218 1.391 . S
C219 C220 1.396 . S
C220 H204 0.939 . S
C220 C219 1.396 . S
C220 C221 1.397 . S
C221 C220 1.397 . S
C221 C222 1.385 . S
C222 H205 0.940 1_545 S
C222 C221 1.385 . S
C222 C223 1.388 . S
C223 H202 0.939 . S
C223 C218 1.391 . S
C223 C222 1.388 . S
P224 O235 1.490 . S
P224 C238 1.812 . S
P224 C244 1.803 . S
P224 C250 1.819 . S
H225 C239 0.941 . S
H226 C240 0.939 . S
H227 C242 0.940 . S
H228 C243 0.940 . S
H229 C245 0.939 . S
H230 C246 0.942 . S
H231 C248 0.940 . S
H232 C249 0.939 . S
H233 C251 0.941 . S
H234 C255 0.939 . S
O235 P224 1.490 . S
H236 C252 0.939 . S
H237 C254 0.940 . S
C238 P224 1.812 . S
C238 C239 1.389 . S
C238 C243 1.391 . S
C239 H225 0.941 . S
C239 C238 1.389 . S
C239 C240 1.397 . S
C240 H226 0.939 . S
C240 C239 1.397 . S
C240 C241 1.378 . S
C241 C240 1.378 . S
C241 C242 1.378 . S
C242 H227 0.940 . S
C242 C241 1.378 . S
C242 C243 1.396 . S
C243 H228 0.940 . S
C243 C238 1.391 . S
C243 C242 1.396 . S
C244 P224 1.803 . S
C244 C245 1.378 . S
C244 C249 1.400 . S
C245 H229 0.939 . S
C245 C244 1.378 . S
C245 C246 1.361 . S
C246 H230 0.942 . S
C246 C245 1.361 . S
C246 C247 1.369 . S
C247 C246 1.369 . S
C247 C248 1.404 . S
C248 H231 0.940 . S
C248 C247 1.404 . S
C248 C249 1.389 . S
C249 H232 0.939 . S
C249 C244 1.400 . S
C249 C248 1.389 . S
C250 P224 1.819 . S
C250 C251 1.391 . S
C250 C255 1.391 . S
C251 H233 0.941 . S
C251 C250 1.391 . S
C251 C252 1.396 . S
C252 H236 0.939 . S
C252 C251 1.396 . S
C252 C253 1.397 . S
C253 C252 1.397 . S
C253 C254 1.385 . S
C254 H237 0.940 . S
C254 C253 1.385 . S
C254 C255 1.388 . S
C255 H234 0.939 . S
C255 C250 1.391 . S
C255 C254 1.388 . S
Tb256 O259 2.453 1_655 S
Tb256 O260 2.596 1_655 S
Tb256 O261 2.374 1_645 S
Tb256 O269 2.343 1_545 S
Tb256 O271 2.353 . S
Tb256 O273 2.427 1_545 S
Tb256 O274 2.513 1_545 S
C257 O261 1.251 1_545 S
C257 O263 1.263 . S
Tb258 O260 2.343 . S
Tb258 O263 2.353 . S
Tb258 O266 2.427 . S
Tb258 O267 2.513 . S
Tb258 O268 2.453 1_545 S
Tb258 O269 2.596 1_445 S
Tb258 O270 2.374 1_455 S
O259 Tb256 2.453 1_455 S
O259 C275 1.245 . S
O260 Tb256 2.596 1_455 S
O260 Tb258 2.343 . S
O260 C275 1.259 . S
O261 Tb256 2.374 1_465 S
O261 C257 1.251 1_565 S
C262 O266 1.275 . S
C262 O267 1.246 . S
O263 C257 1.263 . S
O263 Tb258 2.353 . S
C264 O268 1.245 1_655 S
C264 O269 1.259 . S
C265 O270 1.250 . S
C265 O271 1.263 . S
O266 Tb258 2.427 . S
O266 C262 1.275 . S
O267 Tb258 2.513 . S
O267 C262 1.246 . S
O268 Tb258 2.453 1_565 S
O268 C264 1.245 1_455 S
O269 Tb256 2.343 1_565 S
O269 Tb258 2.596 1_665 S
O269 C264 1.259 . S
O270 Tb258 2.374 1_655 S
O270 C265 1.250 . S
O271 Tb256 2.353 . S
O271 C265 1.263 . S
C272 O273 1.275 . S
C272 O274 1.246 . S
O273 Tb256 2.427 1_565 S
O273 C272 1.275 . S
O274 Tb256 2.513 1_565 S
O274 C272 1.246 . S
C275 O259 1.245 . S
C275 O260 1.259 . S
Tb276 O279 2.453 . S
Tb276 O280 2.596 . S
Tb276 O281 2.374 . S
Tb276 O289 2.343 . S
Tb276 O291 2.353 . S
Tb276 O293 2.427 . S
Tb276 O294 2.513 . S
C277 O281 1.251 . S
C277 O283 1.263 1_545 S
Tb278 O280 2.343 1_565 S
Tb278 O283 2.353 . S
Tb278 O286 2.427 . S
Tb278 O287 2.513 . S
Tb278 O288 2.453 . S
Tb278 O289 2.596 1_565 S
Tb278 O290 2.374 . S
O279 Tb276 2.453 . S
O279 C295 1.245 . S
O280 Tb276 2.596 . S
O280 Tb278 2.343 1_545 S
O280 C295 1.259 . S
O281 Tb276 2.374 . S
O281 C277 1.251 . S
C282 O286 1.275 . S
C282 O287 1.246 . S
O283 C277 1.263 1_565 S
O283 Tb278 2.353 . S
C284 O288 1.249 . S
C284 O289 1.257 1_565 S
C285 O290 1.250 1_545 S
C285 O291 1.263 . S
O286 Tb278 2.427 . S
O286 C282 1.275 . S
O287 Tb278 2.513 . S
O287 C282 1.246 . S
O288 Tb278 2.453 . S
O288 C284 1.249 . S
O289 Tb276 2.343 . S
O289 Tb278 2.596 1_545 S
O289 C284 1.257 1_545 S
O290 Tb278 2.374 . S
O290 C285 1.250 1_565 S
O291 Tb276 2.353 . S
O291 C285 1.263 . S
C292 O293 1.275 . S
C292 O294 1.246 . S
O293 Tb276 2.427 . S
O293 C292 1.275 . S
O294 Tb276 2.513 . S
O294 C292 1.246 . S
C295 O279 1.245 . S
C295 O280 1.259 . S
Tb296 O299 2.453 . S
Tb296 O300 2.596 . S
Tb296 O301 2.374 . S
Tb296 O309 2.343 . S
Tb296 O311 2.353 . S
Tb296 O313 2.427 . S
Tb296 O314 2.513 . S
C297 O301 1.251 . S
C297 O303 1.263 . S
Tb298 O300 2.343 . S
Tb298 O303 2.353 . S
Tb298 O306 2.427 . S
Tb298 O307 2.513 . S
Tb298 O308 2.453 . S
Tb298 O309 2.596 . S
Tb298 O310 2.374 . S
O299 Tb296 2.453 . S
O299 C315 1.245 . S
O300 Tb296 2.596 . S
O300 Tb298 2.343 . S
O300 C315 1.259 . S
O301 Tb296 2.374 . S
O301 C297 1.251 . S
C302 O306 1.275 . S
C302 O307 1.246 . S
O303 C297 1.263 . S
O303 Tb298 2.353 . S
C304 O308 1.245 . S
C304 O309 1.259 . S
C305 O310 1.250 . S
C305 O311 1.263 . S
O306 Tb298 2.427 . S
O306 C302 1.275 . S
O307 Tb298 2.513 . S
O307 C302 1.246 . S
O308 Tb298 2.453 . S
O308 C304 1.245 . S
O309 Tb296 2.343 . S
O309 Tb298 2.596 . S
O309 C304 1.259 . S
O310 Tb298 2.374 . S
O310 C305 1.250 . S
O311 Tb296 2.353 . S
O311 C305 1.263 . S
C312 O313 1.275 . S
C312 O314 1.246 . S
O313 Tb296 2.427 . S
O313 C312 1.275 . S
O314 Tb296 2.513 . S
O314 C312 1.246 . S
C315 O299 1.245 . S
C315 O300 1.259 . S
Tb316 O319 2.453 1_655 S
Tb316 O320 2.596 1_655 S
Tb316 O321 2.374 1_655 S
Tb316 O329 2.343 . S
Tb316 O331 2.353 . S
Tb316 O333 2.427 . S
Tb316 O334 2.513 . S
C317 O321 1.251 . S
C317 O323 1.263 . S
Tb318 O320 2.343 . S
Tb318 O323 2.353 . S
Tb318 O326 2.427 . S
Tb318 O327 2.513 . S
Tb318 O328 2.453 1_455 S
Tb318 O329 2.596 1_455 S
Tb318 O330 2.374 . S
O319 Tb316 2.453 1_455 S
O319 C335 1.245 . S
O320 Tb316 2.596 1_455 S
O320 Tb318 2.343 . S
O320 C335 1.259 . S
O321 Tb316 2.374 1_455 S
O321 C317 1.251 . S
C322 O326 1.275 . S
C322 O327 1.246 . S
O323 C317 1.263 . S
O323 Tb318 2.353 . S
C324 O328 1.245 . S
C324 O329 1.259 . S
C325 O330 1.250 1_655 S
C325 O331 1.263 . S
O326 Tb318 2.427 . S
O326 C322 1.275 . S
O327 Tb318 2.513 . S
O327 C322 1.246 . S
O328 Tb318 2.453 1_655 S
O328 C324 1.245 . S
O329 Tb316 2.343 . S
O329 Tb318 2.596 1_655 S
O329 C324 1.259 . S
O330 Tb318 2.374 . S
O330 C325 1.250 1_455 S
O331 Tb316 2.353 . S
O331 C325 1.263 . S
C332 O333 1.275 . S
C332 O334 1.246 . S
O333 Tb316 2.427 . S
O333 C332 1.275 . S
O334 Tb316 2.513 . S
O334 C332 1.246 . S
C335 O319 1.245 . S
C335 O320 1.259 . S
H336 C344 0.950 . S
H337 C349 0.950 . S
H338 C346 0.950 . S
H339 C348 0.950 . S
H340 C350 0.950 . S
H341 C352 0.950 . S
H342 C354 0.950 . S
H343 C355 0.950 . S
C344 H336 0.950 . S
C344 C345 1.386 . S
C344 C346 1.391 . S
C345 C344 1.386 . S
C345 C349 1.393 1_545 S
C346 H338 0.950 . S
C346 C344 1.391 . S
C346 C347 1.400 . S
C347 C346 1.400 . S
C347 C348 1.398 1_545 S
C347 C353 1.491 . S
C348 H339 0.950 . S
C348 C347 1.398 1_565 S
C348 C349 1.391 . S
C349 H337 0.950 . S
C349 C345 1.393 1_565 S
C349 C348 1.391 . S
C350 H340 0.950 . S
C350 C351 1.386 1_565 S
C350 C352 1.391 . S
C351 C350 1.386 1_545 S
C351 C355 1.393 . S
C352 H341 0.950 . S
C352 C350 1.391 . S
C352 C353 1.400 1_565 S
C353 C347 1.491 . S
C353 C352 1.400 1_545 S
C353 C354 1.398 . S
C354 H342 0.950 . S
C354 C353 1.398 . S
C354 C355 1.391 . S
C355 H343 0.950 . S
C355 C351 1.393 . S
C355 C354 1.391 . S
H356 C364 0.950 . S
H357 C369 0.950 . S
H358 C366 0.950 . S
H359 C368 0.950 . S
H360 C370 0.950 . S
H361 C372 0.950 . S
H362 C374 0.950 . S
H363 C375 0.950 . S
C364 H356 0.950 . S
C364 C365 1.386 . S
C364 C366 1.391 . S
C365 C364 1.386 . S
C365 C369 1.393 . S
C366 H358 0.950 . S
C366 C364 1.391 . S
C366 C367 1.400 . S
C367 C366 1.400 . S
C367 C368 1.398 . S
C367 C373 1.491 . S
C368 H359 0.950 . S
C368 C367 1.398 . S
C368 C369 1.391 . S
C369 H357 0.950 . S
C369 C365 1.393 . S
C369 C368 1.391 . S
C370 H360 0.950 . S
C370 C371 1.386 . S
C370 C372 1.391 . S
C371 C370 1.386 . S
C371 C375 1.393 . S
C372 H361 0.950 . S
C372 C370 1.391 . S
C372 C373 1.400 . S
C373 C367 1.491 . S
C373 C372 1.400 . S
C373 C374 1.398 . S
C374 H362 0.950 . S
C374 C373 1.398 . S
C374 C375 1.391 . S
C375 H363 0.950 . S
C375 C371 1.393 . S
C375 C374 1.391 . S
H376 C384 0.950 . S
H377 C389 0.950 . S
H378 C386 0.950 . S
H379 C388 0.950 . S
H380 C390 0.950 . S
H381 C392 0.950 . S
H382 C394 0.950 . S
H383 C395 0.950 . S
C384 H376 0.950 . S
C384 C385 1.386 . S
C384 C386 1.391 . S
C385 C384 1.386 . S
C385 C389 1.393 . S
C386 H378 0.950 . S
C386 C384 1.391 . S
C386 C387 1.400 . S
C387 C386 1.400 . S
C387 C388 1.398 . S
C387 C393 1.491 . S
C388 H379 0.950 . S
C388 C387 1.398 . S
C388 C389 1.391 . S
C389 H377 0.950 . S
C389 C385 1.393 . S
C389 C388 1.391 . S
C390 H380 0.950 . S
C390 C391 1.386 . S
C390 C392 1.391 . S
C391 C390 1.386 . S
C391 C395 1.393 . S
C392 H381 0.950 . S
C392 C390 1.391 . S
C392 C393 1.400 . S
C393 C387 1.491 . S
C393 C392 1.400 . S
C393 C394 1.398 . S
C394 H382 0.950 . S
C394 C393 1.398 . S
C394 C395 1.391 . S
C395 H383 0.950 . S
C395 C391 1.393 . S
C395 C394 1.391 . S
H396 C404 0.950 . S
H397 C409 0.950 . S
H398 C406 0.950 . S
H399 C408 0.950 . S
H400 C410 0.950 . S
H401 C412 0.950 . S
H402 C414 0.950 . S
H403 C415 0.950 . S
C404 H396 0.950 . S
C404 C405 1.386 . S
C404 C406 1.391 . S
C405 C404 1.386 . S
C405 C409 1.393 . S
C406 H398 0.950 . S
C406 C404 1.391 . S
C406 C407 1.400 . S
C407 C406 1.400 . S
C407 C408 1.398 . S
C407 C413 1.491 . S
C408 H399 0.950 . S
C408 C407 1.398 . S
C408 C409 1.391 . S
C409 H397 0.950 . S
C409 C405 1.393 . S
C409 C408 1.391 . S
C410 H400 0.950 . S
C410 C411 1.386 . S
C410 C412 1.391 . S
C411 C410 1.386 . S
C411 C415 1.393 . S
C412 H401 0.950 . S
C412 C410 1.391 . S
C412 C413 1.400 . S
C413 C407 1.491 . S
C413 C412 1.400 . S
C413 C414 1.398 . S
C414 H402 0.950 . S
C414 C413 1.398 . S
C414 C415 1.391 . S
C415 H403 0.950 . S
C415 C411 1.393 . S
C415 C414 1.391 . S
H416 C424 0.950 . S
H417 C429 0.950 . S
H418 C426 0.950 . S
H419 C428 0.950 . S
H420 C430 0.950 . S
H421 C432 0.950 . S
H422 C434 0.950 . S
H423 C435 0.950 . S
C424 H416 0.950 . S
C424 C425 1.386 1_566 S
C424 C426 1.391 . S
C425 C424 1.386 1_544 S
C425 C429 1.393 . S
C426 H418 0.950 . S
C426 C424 1.391 . S
C426 C427 1.400 1_565 S
C427 C426 1.400 1_545 S
C427 C428 1.398 . S
C427 C433 1.491 . S
C428 H419 0.950 . S
C428 C427 1.398 . S
C428 C429 1.391 1_556 S
C429 H417 0.950 . S
C429 C425 1.393 . S
C429 C428 1.391 1_554 S
C430 H420 0.950 . S
C430 C431 1.386 . S
C430 C432 1.391 . S
C431 C430 1.386 . S
C431 C435 1.393 1_545 S
C432 H421 0.950 . S
C432 C430 1.391 . S
C432 C433 1.400 . S
C433 C427 1.491 . S
C433 C432 1.400 . S
C433 C434 1.398 1_545 S
C434 H422 0.950 . S
C434 C433 1.398 1_565 S
C434 C435 1.391 . S
C435 H423 0.950 . S
C435 C431 1.393 1_565 S
C435 C434 1.391 . S
H436 C444 0.950 . S
H437 C449 0.950 . S
H438 C446 0.950 1_554 S
H439 C448 0.950 . S
H440 C450 0.950 . S
H441 C452 0.950 . S
H442 C454 0.950 . S
H443 C455 0.950 . S
C444 H436 0.950 . S
C444 C445 1.386 1_554 S
C444 C446 1.391 1_554 S
C445 C444 1.386 1_556 S
C445 C449 1.393 . S
C446 H438 0.950 1_556 S
C446 C444 1.391 1_556 S
C446 C447 1.400 . S
C447 C446 1.400 . S
C447 C448 1.398 . S
C447 C453 1.491 . S
C448 H439 0.950 . S
C448 C447 1.398 . S
C448 C449 1.391 . S
C449 H437 0.950 . S
C449 C445 1.393 . S
C449 C448 1.391 . S
C450 H440 0.950 . S
C450 C451 1.386 . S
C450 C452 1.391 . S
C451 C450 1.386 . S
C451 C455 1.393 . S
C452 H441 0.950 . S
C452 C450 1.391 . S
C452 C453 1.400 . S
C453 C447 1.491 . S
C453 C452 1.400 . S
C453 C454 1.398 . S
C454 H442 0.950 . S
C454 C453 1.398 . S
C454 C455 1.391 . S
C455 H443 0.950 . S
C455 C451 1.393 . S
C455 C454 1.391 . S
H456 C464 0.950 . S
H457 C469 0.950 1_554 S
H458 C466 0.950 . S
H459 C468 0.950 . S
H460 C470 0.950 . S
H461 C472 0.950 . S
H462 C474 0.950 . S
H463 C475 0.950 . S
C464 H456 0.950 . S
C464 C465 1.386 . S
C464 C466 1.391 . S
C465 C464 1.386 . S
C465 C469 1.393 . S
C466 H458 0.950 . S
C466 C464 1.391 . S
C466 C467 1.400 . S
C467 C466 1.400 . S
C467 C468 1.398 . S
C467 C473 1.491 . S
C468 H459 0.950 . S
C468 C467 1.398 . S
C468 C469 1.391 . S
C469 H457 0.950 1_556 S
C469 C465 1.393 . S
C469 C468 1.391 . S
C470 H460 0.950 . S
C470 C471 1.386 . S
C470 C472 1.391 . S
C471 C470 1.386 . S
C471 C475 1.393 . S
C472 H461 0.950 . S
C472 C470 1.391 . S
C472 C473 1.400 . S
C473 C467 1.491 . S
C473 C472 1.400 . S
C473 C474 1.398 . S
C474 H462 0.950 . S
C474 C473 1.398 . S
C474 C475 1.391 . S
C475 H463 0.950 . S
C475 C471 1.393 . S
C475 C474 1.391 . S
H476 C484 0.950 . S
H477 C489 0.950 . S
H478 C486 0.950 . S
H479 C488 0.950 . S
H480 C490 0.950 1_455 S
H481 C492 0.950 . S
H482 C494 0.950 . S
H483 C495 0.950 . S
C484 H476 0.950 . S
C484 C485 1.386 . S
C484 C486 1.391 . S
C485 C484 1.386 . S
C485 C489 1.393 . S
C486 H478 0.950 . S
C486 C484 1.391 . S
C486 C487 1.400 . S
C487 C486 1.400 . S
C487 C488 1.398 . S
C487 C493 1.491 . S
C488 H479 0.950 . S
C488 C487 1.398 . S
C488 C489 1.391 . S
C489 H477 0.950 . S
C489 C485 1.393 . S
C489 C488 1.391 . S
C490 H480 0.950 1_655 S
C490 C491 1.386 . S
C490 C492 1.391 . S
C491 C490 1.386 . S
C491 C495 1.393 . S
C492 H481 0.950 . S
C492 C490 1.391 . S
C492 C493 1.400 . S
C493 C487 1.491 . S
C493 C492 1.400 . S
C493 C494 1.398 . S
C494 H482 0.950 . S
C494 C493 1.398 . S
C494 C495 1.391 . S
C495 H483 0.950 . S
C495 C491 1.393 . S
C495 C494 1.391 . S
H496 C504 0.950 . S
H497 C509 0.950 . S
H498 C506 0.950 . S
H499 C508 0.950 . S
H500 C510 0.950 . S
H501 C512 0.950 . S
H502 C514 0.950 . S
H503 C515 0.950 . S
C504 H496 0.950 . S
C504 C505 1.386 . S
C504 C506 1.391 . S
C505 C504 1.386 . S
C505 C509 1.393 . S
C506 H498 0.950 . S
C506 C504 1.391 . S
C506 C507 1.400 . S
C507 C506 1.400 . S
C507 C508 1.398 . S
C507 C513 1.491 . S
C508 H499 0.950 . S
C508 C507 1.398 . S
C508 C509 1.391 . S
C509 H497 0.950 . S
C509 C505 1.393 . S
C509 C508 1.391 . S
C510 H500 0.950 . S
C510 C511 1.386 . S
C510 C512 1.391 . S
C511 C510 1.386 . S
C511 C515 1.393 . S
C512 H501 0.950 . S
C512 C510 1.391 . S
C512 C513 1.400 . S
C513 C507 1.491 . S
C513 C512 1.400 . S
C513 C514 1.398 . S
C514 H502 0.950 . S
C514 C513 1.398 . S
C514 C515 1.391 . S
C515 H503 0.950 . S
C515 C511 1.393 . S
C515 C514 1.391 . S
H516 C524 0.950 . S
H517 C529 0.950 . S
H518 C526 0.950 . S
H519 C528 0.950 . S
H520 C530 0.950 . S
H521 C532 0.950 . S
H522 C534 0.950 . S
H523 C535 0.950 . S
C524 H516 0.950 . S
C524 C525 1.386 1_565 S
C524 C526 1.391 . S
C525 C524 1.386 1_545 S
C525 C529 1.393 . S
C526 H518 0.950 . S
C526 C524 1.391 . S
C526 C527 1.400 1_565 S
C527 C526 1.400 1_545 S
C527 C528 1.398 . S
C527 C533 1.491 . S
C528 H519 0.950 . S
C528 C527 1.398 . S
C528 C529 1.391 . S
C529 H517 0.950 . S
C529 C525 1.393 . S
C529 C528 1.391 . S
C530 H520 0.950 . S
C530 C531 1.386 . S
C530 C532 1.391 . S
C531 C530 1.386 . S
C531 C535 1.393 1_545 S
C532 H521 0.950 . S
C532 C530 1.391 . S
C532 C533 1.400 . S
C533 C527 1.491 . S
C533 C532 1.400 . S
C533 C534 1.398 1_545 S
C534 H522 0.950 . S
C534 C533 1.398 1_565 S
C534 C535 1.391 . S
C535 H523 0.950 . S
C535 C531 1.393 1_565 S
C535 C534 1.391 . S
H536 C544 0.950 . S
H537 C549 0.950 . S
H538 C546 0.950 . S
H539 C548 0.950 . S
H540 C550 0.950 . S
H541 C552 0.950 . S
H542 C554 0.950 . S
H543 C555 0.950 . S
C544 H536 0.950 . S
C544 C545 1.386 . S
C544 C546 1.391 . S
C545 C544 1.386 . S
C545 C549 1.393 . S
C546 H538 0.950 . S
C546 C544 1.391 . S
C546 C547 1.400 . S
C547 C546 1.400 . S
C547 C548 1.398 . S
C547 C553 1.491 . S
C548 H539 0.950 . S
C548 C547 1.398 . S
C548 C549 1.391 . S
C549 H537 0.950 . S
C549 C545 1.393 . S
C549 C548 1.391 . S
C550 H540 0.950 . S
C550 C551 1.386 . S
C550 C552 1.391 . S
C551 C550 1.386 . S
C551 C555 1.393 . S
C552 H541 0.950 . S
C552 C550 1.391 . S
C552 C553 1.400 . S
C553 C547 1.491 . S
C553 C552 1.400 . S
C553 C554 1.398 . S
C554 H542 0.950 . S
C554 C553 1.398 . S
C554 C555 1.391 . S
C555 H543 0.950 . S
C555 C551 1.393 . S
C555 C554 1.391 . S
H556 C564 0.950 . S
H557 C569 0.950 . S
H558 C566 0.950 . S
H559 C568 0.950 . S
H560 C570 0.950 . S
H561 C572 0.950 . S
H562 C574 0.950 . S
H563 C575 0.950 . S
C564 H556 0.950 . S
C564 C565 1.386 . S
C564 C566 1.391 . S
C565 C564 1.386 . S
C565 C569 1.393 . S
C566 H558 0.950 . S
C566 C564 1.391 . S
C566 C567 1.400 . S
C567 C566 1.400 . S
C567 C568 1.398 . S
C567 C573 1.491 . S
C568 H559 0.950 . S
C568 C567 1.398 . S
C568 C569 1.391 . S
C569 H557 0.950 . S
C569 C565 1.393 . S
C569 C568 1.391 . S
C570 H560 0.950 . S
C570 C571 1.386 . S
C570 C572 1.391 . S
C571 C570 1.386 . S
C571 C575 1.393 . S
C572 H561 0.950 . S
C572 C570 1.391 . S
C572 C573 1.400 . S
C573 C567 1.491 . S
C573 C572 1.400 . S
C573 C574 1.398 . S
C574 H562 0.950 . S
C574 C573 1.398 . S
C574 C575 1.391 . S
C575 H563 0.950 . S
C575 C571 1.393 . S
C575 C574 1.391 . S
H576 C584 0.950 . S
H577 C589 0.950 . S
H578 C586 0.950 . S
H579 C588 0.950 . S
H580 C590 0.988 . S
H581 C592 0.950 . S
H582 C594 0.950 . S
H583 C595 0.950 . S
C584 H576 0.950 . S
C584 C585 1.386 . S
C584 C586 1.391 . S
C585 C584 1.386 . S
C585 C589 1.393 . S
C586 H578 0.950 . S
C586 C584 1.391 . S
C586 C587 1.400 . S
C587 C586 1.400 . S
C587 C588 1.398 . S
C587 C593 1.491 . S
C588 H579 0.950 . S
C588 C587 1.398 . S
C588 C589 1.391 . S
C589 H577 0.950 . S
C589 C585 1.393 . S
C589 C588 1.391 . S
C590 H580 0.988 . S
C590 C591 1.386 . S
C590 C592 1.391 . S
C591 C590 1.386 . S
C591 C595 1.393 . S
C592 H581 0.950 . S
C592 C590 1.391 . S
C592 C593 1.400 . S
C593 C587 1.491 . S
C593 C592 1.400 . S
C593 C594 1.398 . S
C594 H582 0.950 . S
C594 C593 1.398 . S
C594 C595 1.391 . S
C595 H583 0.950 . S
C595 C591 1.393 . S
C595 C594 1.391 . S
H596 C604 0.950 1_554 S
H597 C609 0.950 . S
H598 C606 0.950 . S
H599 C608 0.950 . S
H600 C610 0.950 . S
H601 C612 0.950 . S
H602 C614 0.950 . S
H603 C615 0.950 . S
C604 H596 0.950 1_556 S
C604 C605 1.402 . S
C604 C606 1.391 . S
C605 C604 1.402 . S
C605 C609 1.382 1_545 S
C606 H598 0.950 . S
C606 C604 1.391 . S
C606 C607 1.400 . S
C607 C606 1.400 . S
C607 C608 1.398 1_545 S
C607 C613 1.491 . S
C608 H599 0.950 . S
C608 C607 1.398 1_565 S
C608 C609 1.391 . S
C609 H597 0.950 . S
C609 C605 1.382 1_565 S
C609 C608 1.391 . S
C610 H600 0.950 . S
C610 C611 1.386 1_565 S
C610 C612 1.391 . S
C611 C610 1.386 1_545 S
C611 C615 1.393 . S
C612 H601 0.950 . S
C612 C610 1.391 . S
C612 C613 1.400 1_565 S
C613 C607 1.491 . S
C613 C612 1.400 1_545 S
C613 C614 1.398 . S
C614 H602 0.950 . S
C614 C613 1.398 . S
C614 C615 1.391 . S
C615 H603 0.950 . S
C615 C611 1.393 . S
C615 C614 1.391 . S
H616 C624 0.950 . S
H617 C629 0.950 . S
H618 C626 0.950 . S
H619 C628 0.950 . S
H620 C630 0.950 . S
H621 C632 0.950 . S
H622 C634 0.950 . S
H623 C635 0.950 . S
C624 H616 0.950 . S
C624 C625 1.386 . S
C624 C626 1.391 . S
C625 C624 1.386 . S
C625 C629 1.393 . S
C626 H618 0.950 . S
C626 C624 1.391 . S
C626 C627 1.400 . S
C627 C626 1.400 . S
C627 C628 1.398 . S
C627 C633 1.491 . S
C628 H619 0.950 . S
C628 C627 1.398 . S
C628 C629 1.391 . S
C629 H617 0.950 . S
C629 C625 1.393 . S
C629 C628 1.391 . S
C630 H620 0.950 . S
C630 C631 1.386 . S
C630 C632 1.391 . S
C631 C630 1.386 . S
C631 C635 1.393 . S
C632 H621 0.950 . S
C632 C630 1.391 . S
C632 C633 1.400 . S
C633 C627 1.491 . S
C633 C632 1.400 . S
C633 C634 1.398 . S
C634 H622 0.950 . S
C634 C633 1.398 . S
C634 C635 1.391 . S
C635 H623 0.950 . S
C635 C631 1.393 . S
C635 C634 1.391 . S
H636 C644 0.950 . S
H637 C649 0.950 . S
H638 C646 0.950 . S
H639 C648 0.950 . S
H640 C650 0.950 . S
H641 C652 0.950 . S
H642 C654 0.950 . S
H643 C655 0.950 . S
C644 H636 0.950 . S
C644 C645 1.386 . S
C644 C646 1.391 . S
C645 C644 1.386 . S
C645 C649 1.393 . S
C646 H638 0.950 . S
C646 C644 1.391 . S
C646 C647 1.400 . S
C647 C646 1.400 . S
C647 C648 1.398 . S
C647 C653 1.491 . S
C648 H639 0.950 . S
C648 C647 1.398 . S
C648 C649 1.391 . S
C649 H637 0.950 . S
C649 C645 1.393 . S
C649 C648 1.391 . S
C650 H640 0.950 . S
C650 C651 1.386 . S
C650 C652 1.391 . S
C651 C650 1.386 . S
C651 C655 1.393 . S
C652 H641 0.950 . S
C652 C650 1.391 . S
C652 C653 1.400 . S
C653 C647 1.491 . S
C653 C652 1.400 . S
C653 C654 1.398 . S
C654 H642 0.950 . S
C654 C653 1.398 . S
C654 C655 1.391 . S
C655 H643 0.950 . S
C655 C651 1.393 . S
C655 C654 1.391 . S
H656 C664 0.950 . S
H657 C669 0.950 . S
H658 C666 0.950 1_556 S
H659 C668 0.950 . S
H660 C670 0.950 . S
H661 C672 0.950 1_554 S
H662 C674 0.950 . S
H663 C675 0.950 . S
C664 H656 0.950 . S
C664 C665 1.386 . S
C664 C666 1.391 . S
C665 C664 1.386 . S
C665 C669 1.393 . S
C666 H658 0.950 1_554 S
C666 C664 1.391 . S
C666 C667 1.400 . S
C667 C666 1.400 . S
C667 C668 1.398 . S
C667 C673 1.491 1_554 S
C668 H659 0.950 . S
C668 C667 1.398 . S
C668 C669 1.391 . S
C669 H657 0.950 . S
C669 C665 1.393 . S
C669 C668 1.391 . S
C670 H660 0.950 . S
C670 C671 1.386 . S
C670 C672 1.391 . S
C671 C670 1.386 . S
C671 C675 1.393 . S
C672 H661 0.950 1_556 S
C672 C670 1.391 . S
C672 C673 1.400 . S
C673 C667 1.491 1_556 S
C673 C672 1.400 . S
C673 C674 1.398 . S
C674 H662 0.950 . S
C674 C673 1.398 . S
C674 C675 1.391 . S
C675 H663 0.950 . S
C675 C671 1.393 . S
C675 C674 1.391 . S
H676 C684 0.950 . S
H677 C689 0.950 . S
H678 C686 0.950 . S
H679 C688 0.950 . S
H680 C690 0.950 . S
H681 C692 0.950 . S
H682 C694 0.950 1_554 S
H683 C695 0.950 . S
C684 H676 0.950 . S
C684 C685 1.386 . S
C684 C686 1.391 . S
C685 C684 1.386 . S
C685 C689 1.393 1_554 S
C686 H678 0.950 . S
C686 C684 1.391 . S
C686 C687 1.400 1_554 S
C687 C686 1.400 1_556 S
C687 C688 1.398 . S
C687 C693 1.491 . S
C688 H679 0.950 . S
C688 C687 1.398 . S
C688 C689 1.391 . S
C689 H677 0.950 . S
C689 C685 1.393 1_556 S
C689 C688 1.391 . S
C690 H680 0.950 . S
C690 C691 1.386 . S
C690 C692 1.391 . S
C691 C690 1.386 . S
C691 C695 1.393 . S
C692 H681 0.950 . S
C692 C690 1.391 . S
C692 C693 1.400 . S
C693 C687 1.491 . S
C693 C692 1.400 . S
C693 C694 1.398 . S
C694 H682 0.950 1_556 S
C694 C693 1.398 . S
C694 C695 1.391 . S
C695 H683 0.950 . S
C695 C691 1.393 . S
C695 C694 1.391 . S
H696 C704 0.950 . S
H697 C709 0.950 . S
H698 C706 0.950 . S
H699 C708 0.950 . S
H700 C710 0.950 . S
H701 C712 0.950 . S
H702 C714 0.950 . S
H703 C715 0.950 . S
C704 H696 0.950 . S
C704 C705 1.386 . S
C704 C706 1.391 . S
C705 C704 1.386 . S
C705 C709 1.393 1_554 S
C706 H698 0.950 . S
C706 C704 1.391 . S
C706 C707 1.400 1_554 S
C707 C706 1.400 1_556 S
C707 C708 1.398 . S
C707 C713 1.491 . S
C708 H699 0.950 . S
C708 C707 1.398 . S
C708 C709 1.391 . S
C709 H697 0.950 . S
C709 C705 1.393 1_556 S
C709 C708 1.391 . S
C710 H700 0.950 . S
C710 C711 1.386 . S
C710 C712 1.391 . S
C711 C710 1.386 . S
C711 C715 1.393 . S
C712 H701 0.950 . S
C712 C710 1.391 . S
C712 C713 1.400 . S
C713 C707 1.491 . S
C713 C712 1.400 . S
C713 C714 1.398 . S
C714 H702 0.950 . S
C714 C713 1.398 . S
C714 C715 1.391 . S
C715 H703 0.950 . S
C715 C711 1.393 . S
C715 C714 1.391 . S
H716 C724 0.953 . S
H717 C729 0.950 . S
H718 C726 0.950 . S
H719 C728 0.950 . S
H720 C730 0.950 . S
H721 C732 0.950 1_554 S
H722 C734 0.950 . S
H723 C735 0.950 . S
C724 H716 0.953 . S
C724 C725 1.376 1_556 S
C724 C726 1.397 . S
C725 C724 1.376 1_554 S
C725 C729 1.393 . S
C726 H718 0.950 . S
C726 C724 1.397 . S
C726 C727 1.400 . S
C727 C726 1.400 . S
C727 C728 1.398 1_556 S
C727 C733 1.491 . S
C728 H719 0.950 . S
C728 C727 1.398 1_554 S
C728 C729 1.391 . S
C729 H717 0.950 . S
C729 C725 1.393 . S
C729 C728 1.391 . S
C730 H720 0.950 . S
C730 C731 1.386 . S
C730 C732 1.391 . S
C731 C730 1.386 . S
C731 C735 1.393 . S
C732 H721 0.950 1_556 S
C732 C730 1.391 . S
C732 C733 1.400 . S
C733 C727 1.491 . S
C733 C732 1.400 . S
C733 C734 1.398 . S
C734 H722 0.950 . S
C734 C733 1.398 . S
C734 C735 1.391 . S
C735 H723 0.950 . S
C735 C731 1.393 . S
C735 C734 1.391 . S
H736 C744 0.950 . S
H737 C749 0.950 . S
H738 C746 0.950 . S
H739 C748 0.950 . S
H740 C750 0.950 . S
H741 C752 0.950 . S
H742 C754 0.950 . S
H743 C755 0.950 . S
C744 H736 0.950 . S
C744 C745 1.386 . S
C744 C746 1.391 . S
C745 C744 1.386 . S
C745 C749 1.393 . S
C746 H738 0.950 . S
C746 C744 1.391 . S
C746 C747 1.400 . S
C747 C746 1.400 . S
C747 C748 1.398 . S
C747 C753 1.491 . S
C748 H739 0.950 . S
C748 C747 1.398 . S
C748 C749 1.391 . S
C749 H737 0.950 . S
C749 C745 1.393 . S
C749 C748 1.391 . S
C750 H740 0.950 . S
C750 C751 1.386 . S
C750 C752 1.391 . S
C751 C750 1.386 . S
C751 C755 1.393 . S
C752 H741 0.950 . S
C752 C750 1.391 . S
C752 C753 1.400 . S
C753 C747 1.491 . S
C753 C752 1.400 . S
C753 C754 1.398 . S
C754 H742 0.950 . S
C754 C753 1.398 . S
C754 C755 1.391 . S
C755 H743 0.950 . S
C755 C751 1.393 . S
C755 C754 1.391 . S
H756 C764 0.950 . S
H757 C769 0.949 1_565 S
H758 C766 0.950 . S
H759 C768 0.950 . S
H760 C770 0.949 1_565 S
H761 C772 0.950 1_565 S
H762 C774 0.950 . S
H763 C775 0.950 . S
C764 H756 0.950 . S
C764 C765 1.386 . S
C764 C766 1.391 . S
C765 C764 1.386 . S
C765 C769 1.392 . S
C766 H758 0.950 . S
C766 C764 1.391 . S
C766 C767 1.400 . S
C767 C766 1.400 . S
C767 C768 1.398 . S
C767 C773 1.491 . S
C768 H759 0.950 . S
C768 C767 1.398 . S
C768 C769 1.392 . S
C769 H757 0.949 1_545 S
C769 C765 1.392 . S
C769 C768 1.392 . S
C770 H760 0.949 1_545 S
C770 C771 1.386 . S
C770 C772 1.394 . S
C771 C770 1.386 . S
C771 C775 1.393 . S
C772 H761 0.950 1_545 S
C772 C770 1.394 . S
C772 C773 1.399 . S
C773 C767 1.491 . S
C773 C772 1.399 . S
C773 C774 1.398 . S
C774 H762 0.950 . S
C774 C773 1.398 . S
C774 C775 1.391 . S
C775 H763 0.950 . S
C775 C771 1.393 . S
C775 C774 1.391 . S
H776 C784 0.950 . S
H777 C789 0.950 . S
H778 C786 0.950 . S
H779 C788 0.950 . S
H780 C790 0.950 . S
H781 C792 0.950 . S
H782 C794 0.950 . S
H783 C795 0.950 . S
C784 H776 0.950 . S
C784 C785 1.386 . S
C784 C786 1.391 . S
C785 C784 1.386 . S
C785 C789 1.393 . S
C786 H778 0.950 . S
C786 C784 1.391 . S
C786 C787 1.400 . S
C787 C786 1.400 . S
C787 C788 1.398 . S
C787 C793 1.491 . S
C788 H779 0.950 . S
C788 C787 1.398 . S
C788 C789 1.391 . S
C789 H777 0.950 . S
C789 C785 1.393 . S
C789 C788 1.391 . S
C790 H780 0.950 . S
C790 C791 1.386 . S
C790 C792 1.391 . S
C791 C790 1.386 . S
C791 C795 1.393 . S
C792 H781 0.950 . S
C792 C790 1.391 . S
C792 C793 1.400 . S
C793 C787 1.491 . S
C793 C792 1.400 . S
C793 C794 1.398 . S
C794 H782 0.950 . S
C794 C793 1.398 . S
C794 C795 1.391 . S
C795 H783 0.950 . S
C795 C791 1.393 . S
C795 C794 1.391 . S
H796 C804 0.950 . S
H797 C809 0.950 . S
H798 C806 0.950 . S
H799 C808 0.950 . S
H800 C810 0.950 . S
H801 C812 0.950 . S
H802 C814 0.950 . S
H803 C815 0.950 . S
C804 H796 0.950 . S
C804 C805 1.386 . S
C804 C806 1.391 . S
C805 C804 1.386 . S
C805 C809 1.393 . S
C806 H798 0.950 . S
C806 C804 1.391 . S
C806 C807 1.400 . S
C807 C806 1.400 . S
C807 C808 1.398 . S
C807 C813 1.491 . S
C808 H799 0.950 . S
C808 C807 1.398 . S
C808 C809 1.391 . S
C809 H797 0.950 . S
C809 C805 1.393 . S
C809 C808 1.391 . S
C810 H800 0.950 . S
C810 C811 1.386 . S
C810 C812 1.391 . S
C811 C810 1.386 . S
C811 C815 1.393 . S
C812 H801 0.950 . S
C812 C810 1.391 . S
C812 C813 1.400 . S
C813 C807 1.491 . S
C813 C812 1.400 . S
C813 C814 1.398 . S
C814 H802 0.950 . S
C814 C813 1.398 . S
C814 C815 1.391 . S
C815 H803 0.950 . S
C815 C811 1.393 . S
C815 C814 1.391 . S
C345 C215 1.479 . S
C351 C257 1.503 . S
C371 C292 2.031 . S
C365 C247 1.995 . S
C391 C297 1.326 . S
C385 C151 1.278 . S
C411 C317 1.782 . S
C405 C183 1.765 . S
C431 C265 1.496 . S
C425 C87 1.447 . S
C445 C119 1.806 1_556 S
C451 C282 2.029 . S
C465 C23 1.331 1_556 S
C471 C305 1.334 . S
C485 C55 1.575 . S
C491 C325 1.779 . S
C511 C275 1.348 . S
C505 C189 1.318 . S
C531 C284 0.717 1_545 S
C525 C221 0.704 . S
C551 C315 1.482 . S
C545 C253 1.469 . S
C565 C157 0.824 . S
C571 C335 0.841 . S
C585 C61 1.152 . S
C591 C264 1.345 . S
C611 C295 0.724 . S
C605 C93 0.714 . S
C631 C304 1.486 . S
C625 C125 1.224 . S
C645 C29 0.873 . S
C651 C324 0.843 . S
C665 C177 1.917 . S
C671 C262 1.962 . S
C685 C209 1.592 . S
C691 C285 1.688 . S
C711 C302 2.079 . S
C705 C241 2.011 . S
C731 C322 1.849 . S
C725 C145 1.726 . S
C745 C49 1.787 . S
C751 C272 1.959 . S
C771 C277 1.688 . S
C765 C81 1.562 . S
C791 C312 2.073 . S
C785 C113 1.846 . S
C805 C17 1.794 . S
C811 C332 1.854 . S
