# Generated by pormake.
# Topology zzz, (3,6)-cn, num edge types: 1
# Building blocks:
#     Node 0, Type 0, BuildingBlock: VETTIZ_charged_linker_0, # of connection points: 3
#     Node 1, Type 0, BuildingBlock: VETTIZ_charged_linker_0, # of connection points: 3
#     Node 2, Type 0, BuildingBlock: VETTIZ_charged_linker_0, # of connection points: 3
#     Node 3, Type 0, BuildingBlock: VETTIZ_charged_linker_0, # of connection points: 3
#     Node 4, Type 0, BuildingBlock: VETTIZ_charged_linker_0, # of connection points: 3
#     Node 5, Type 0, BuildingBlock: VETTIZ_charged_linker_0, # of connection points: 3
#     Node 6, Type 0, BuildingBlock: VETTIZ_charged_linker_0, # of connection points: 3
#     Node 7, Type 0, BuildingBlock: VETTIZ_charged_linker_0, # of connection points: 3
#     Node 8, Type 1, BuildingBlock: GEDQOX_clean_sbu_0, # of connection points: 6
#     Node 9, Type 1, BuildingBlock: GEDQOX_clean_sbu_0, # of connection points: 6
#     Node 10, Type 1, BuildingBlock: GEDQOX_clean_sbu_0, # of connection points: 6
#     Node 11, Type 1, BuildingBlock: GEDQOX_clean_sbu_0, # of connection points: 6
#     Edge 12, Type (0, 1), BuildingBlock: UVAHIK_clean_linker_0, # of connection points: 2
#     Edge 13, Type (0, 1), BuildingBlock: UVAHIK_clean_linker_0, # of connection points: 2
#     Edge 14, Type (0, 1), BuildingBlock: UVAHIK_clean_linker_0, # of connection points: 2
#     Edge 15, Type (0, 1), BuildingBlock: UVAHIK_clean_linker_0, # of connection points: 2
#     Edge 16, Type (0, 1), BuildingBlock: UVAHIK_clean_linker_0, # of connection points: 2
#     Edge 17, Type (0, 1), BuildingBlock: UVAHIK_clean_linker_0, # of connection points: 2
#     Edge 18, Type (0, 1), BuildingBlock: UVAHIK_clean_linker_0, # of connection points: 2
#     Edge 19, Type (0, 1), BuildingBlock: UVAHIK_clean_linker_0, # of connection points: 2
#     Edge 20, Type (0, 1), BuildingBlock: UVAHIK_clean_linker_0, # of connection points: 2
#     Edge 21, Type (0, 1), BuildingBlock: UVAHIK_clean_linker_0, # of connection points: 2
#     Edge 22, Type (0, 1), BuildingBlock: UVAHIK_clean_linker_0, # of connection points: 2
#     Edge 23, Type (0, 1), BuildingBlock: UVAHIK_clean_linker_0, # of connection points: 2
#     Edge 24, Type (0, 1), BuildingBlock: UVAHIK_clean_linker_0, # of connection points: 2
#     Edge 25, Type (0, 1), BuildingBlock: UVAHIK_clean_linker_0, # of connection points: 2
#     Edge 26, Type (0, 1), BuildingBlock: UVAHIK_clean_linker_0, # of connection points: 2
#     Edge 27, Type (0, 1), BuildingBlock: UVAHIK_clean_linker_0, # of connection points: 2
#     Edge 28, Type (0, 1), BuildingBlock: UVAHIK_clean_linker_0, # of connection points: 2
#     Edge 29, Type (0, 1), BuildingBlock: UVAHIK_clean_linker_0, # of connection points: 2
#     Edge 30, Type (0, 1), BuildingBlock: UVAHIK_clean_linker_0, # of connection points: 2
#     Edge 31, Type (0, 1), BuildingBlock: UVAHIK_clean_linker_0, # of connection points: 2
#     Edge 32, Type (0, 1), BuildingBlock: UVAHIK_clean_linker_0, # of connection points: 2
#     Edge 33, Type (0, 1), BuildingBlock: UVAHIK_clean_linker_0, # of connection points: 2
#     Edge 34, Type (0, 1), BuildingBlock: UVAHIK_clean_linker_0, # of connection points: 2
#     Edge 35, Type (0, 1), BuildingBlock: UVAHIK_clean_linker_0, # of connection points: 2
# Relax obj value: 0.309
# Max RMSD: 0.256
# Mean RMSD: 0.207
data_MOF--net-zzz--node1-GEDQOX_clean_sbu_0--node2-VETTIZ_charged_linker_0--edge1-UVAHIK_clean_linker_0
_symmetry_space_group_name_H-M    P1
_symmetry_Int_Tables_number       1
_symmetry_cell_setting            triclinic
loop_
_symmetry_equiv_pos_as_xyz
'x, y, z'
_cell_length_a     76.707208
_cell_length_b     71.319677
_cell_length_c     26.213704
_cell_angle_alpha  83.817273
_cell_angle_beta   91.582422
_cell_angle_gamma 100.98607
loop_
_atom_site_label
_atom_site_type_symbol
_atom_site_fract_x
_atom_site_fract_y
_atom_site_fract_z
_atom_type_partial_charge
C0 C 0.78751 0.46523 0.25205 0.0
C1 C 0.80315 0.46072 0.2755 0.0
C2 C 0.81239 0.44864 0.25223 0.0
C3 C 0.79124 0.4467 0.18192 0.0
C4 C 0.78173 0.45791 0.20556 0.0
C5 C 0.76533 0.461 0.17524 0.0
H6 H 0.71559 0.44912 0.9588 0.0
C7 C 0.78238 0.44232 0.13277 0.0
C8 C 0.76704 0.45042 0.12874 0.0
H9 H 0.7044 0.47615 0.09104 0.0
H10 H 0.73142 0.46947 0.13208 0.0
H11 H 0.75605 0.46734 0.95326 0.0
H12 H 0.72905 0.4125 0.02316 0.0
H13 H 0.74742 0.40885 0.98921 0.0
H14 H 0.7301 0.41892 0.95501 0.0
H15 H 0.74797 0.44775 0.91608 0.0
H16 H 0.7698 0.45089 0.94518 0.0
C17 C 0.76677 0.48284 0.16041 0.0
C18 C 0.74883 0.45145 0.20781 0.0
C19 C 0.81373 0.41142 0.00634 0.0
C20 C 0.8105 0.40842 0.95456 0.0
C21 C 0.79426 0.41145 0.93186 0.0
C22 C 0.78178 0.41819 0.95976 0.0
C23 C 0.7857 0.42221 0.01066 0.0
C24 C 0.80133 0.41847 0.03332 0.0
C25 C 0.80389 0.42464 0.08646 0.0
C26 C 0.78736 0.43302 0.09176 0.0
C27 C 0.77673 0.43151 0.04742 0.0
C28 C 0.82112 0.44012 0.08679 0.0
C29 C 0.80398 0.40651 0.12477 0.0
C30 C 0.71885 0.45343 0.99682 0.0
C31 C 0.7078 0.46317 0.02166 0.0
C32 C 0.71276 0.46884 0.07075 0.0
C33 C 0.7284 0.46481 0.09473 0.0
C34 C 0.73927 0.45504 0.0694 0.0
C35 C 0.73441 0.4495 0.02129 0.0
C36 C 0.74765 0.43943 0.99983 0.0
C37 C 0.76099 0.43933 0.04361 0.0
C38 C 0.75612 0.44864 0.08413 0.0
C39 C 0.75578 0.45181 0.95085 0.0
C40 C 0.73815 0.41885 0.99088 0.0
H41 H 0.81432 0.43275 0.18978 0.0
H42 H 0.78 0.47424 0.26945 0.0
H43 H 0.75144 0.43864 0.23286 0.0
H44 H 0.73725 0.44589 0.18411 0.0
H45 H 0.74506 0.46157 0.23302 0.0
H46 H 0.78049 0.48956 0.14784 0.0
H47 H 0.76361 0.49004 0.19359 0.0
H48 H 0.75808 0.48625 0.12788 0.0
H49 H 0.82624 0.40965 0.02459 0.0
H50 H 0.79147 0.40917 0.89203 0.0
H51 H 0.76983 0.4206 0.94009 0.0
H52 H 0.82262 0.44956 0.04989 0.0
H53 H 0.83306 0.43341 0.0921 0.0
H54 H 0.82123 0.45003 0.11636 0.0
H55 H 0.79551 0.3936 0.11065 0.0
H56 H 0.7983 0.40762 0.16242 0.0
H57 H 0.81761 0.40347 0.13056 0.0
H58 H 0.82453 0.44508 0.2692 0.0
C59 C 0.8065 0.44159 0.2058 0.0
C60 C 0.9385 0.76047 0.01433 0.0
C61 C 0.93752 0.78002 0.01065 0.0
C62 C 0.93078 0.78737 0.05215 0.0
C63 C 0.93021 0.75708 0.10382 0.0
C64 C 0.93466 0.7492 0.06128 0.0
C65 C 0.93616 0.72847 0.07355 0.0
H66 H 0.9632 0.66272 0.23999 0.0
C67 C 0.93131 0.74321 0.14919 0.0
C68 C 0.93447 0.72628 0.13197 0.0
H69 H 0.94285 0.65683 0.08585 0.0
H70 H 0.93185 0.68637 0.08521 0.0
H71 H 0.97808 0.7097 0.23077 0.0
H72 H 0.92543 0.67866 0.27425 0.0
H73 H 0.93344 0.69609 0.31644 0.0
H74 H 0.94459 0.67617 0.31359 0.0
H75 H 0.97443 0.69295 0.28758 0.0
H76 H 0.97085 0.71714 0.28754 0.0
C77 C 0.95462 0.72584 0.05627 0.0
C78 C 0.92045 0.71595 0.04694 0.0
C79 C 0.93688 0.769 0.3221 0.0
C80 C 0.94304 0.76268 0.37056 0.0
C81 C 0.94836 0.74466 0.37737 0.0
C82 C 0.94733 0.73313 0.33638 0.0
C83 C 0.94118 0.73984 0.28792 0.0
C84 C 0.93622 0.75761 0.28174 0.0
C85 C 0.93133 0.7635 0.22751 0.0
C86 C 0.93348 0.74604 0.20192 0.0
C87 C 0.93914 0.73202 0.23721 0.0
C88 C 0.9447 0.78199 0.20743 0.0
C89 C 0.91168 0.76594 0.22633 0.0
C90 C 0.95646 0.66797 0.20614 0.0
C91 C 0.95431 0.65789 0.16217 0.0
C92 C 0.94493 0.66464 0.11947 0.0
C93 C 0.93883 0.68184 0.11866 0.0
C94 C 0.94247 0.69266 0.16038 0.0
C95 C 0.94998 0.68528 0.20467 0.0
C96 C 0.94996 0.69807 0.24729 0.0
C97 C 0.94204 0.71457 0.21975 0.0
C98 C 0.93857 0.71145 0.16812 0.0
C99 C 0.96933 0.70482 0.26465 0.0
C100 C 0.93781 0.68672 0.29056 0.0
H101 H 0.9226 0.78243 0.12971 0.0
H102 H 0.94317 0.75449 0.98219 0.0
H103 H 0.91145 0.72462 0.02559 0.0
H104 H 0.91192 0.70579 0.07527 0.0
H105 H 0.92522 0.70765 0.01845 0.0
H106 H 0.96535 0.7361 0.07349 0.0
H107 H 0.95584 0.72838 0.01387 0.0
H108 H 0.95718 0.71127 0.06748 0.0
H109 H 0.93327 0.78302 0.3149 0.0
H110 H 0.95326 0.73948 0.41435 0.0
H111 H 0.9516 0.71961 0.34367 0.0
H112 H 0.95591 0.78574 0.23461 0.0
H113 H 0.93817 0.79468 0.20115 0.0
H114 H 0.9512 0.78033 0.1714 0.0
H115 H 0.90343 0.75416 0.25137 0.0
H116 H 0.90564 0.76519 0.18763 0.0
H117 H 0.91038 0.77977 0.24025 0.0
H118 H 0.92974 0.80237 0.04991 0.0
C119 C 0.92701 0.77592 0.09872 0.0
C120 C 0.80297 0.01323 0.06197 0.0
C121 C 0.8112 0.02062 0.01457 0.0
C122 C 0.80354 0.03402 0.98211 0.0
C123 C 0.78008 0.03236 0.04319 0.0
C124 C 0.78755 0.01941 0.07563 0.0
C125 C 0.77736 0.01364 0.12512 0.0
H126 H 0.71086 0.027 0.27619 0.0
C127 C 0.76456 0.03643 0.06886 0.0
C128 C 0.76302 0.02582 0.11748 0.0
H129 H 0.74523 0.98578 0.30812 0.0
H130 H 0.76031 0.9969 0.2267 0.0
H131 H 0.74001 0.06289 0.22266 0.0
H132 H 0.70179 0.01688 0.17002 0.0
H133 H 0.70279 0.03556 0.12054 0.0
H134 H 0.69565 0.03884 0.18345 0.0
H135 H 0.71643 0.06162 0.22405 0.0
H136 H 0.72939 0.07265 0.16858 0.0
C137 C 0.78999 0.01934 0.17018 0.0
C138 C 0.76944 0.99191 0.12795 0.0
C139 C 0.72377 0.07652 0.97159 0.0
C140 C 0.70808 0.0821 0.98582 0.0
C141 C 0.70324 0.07932 0.03797 0.0
C142 C 0.71306 0.06993 0.07464 0.0
C143 C 0.72787 0.0631 0.05919 0.0
C144 C 0.73346 0.0671 0.0089 0.0
C145 C 0.74989 0.05921 1.00028 0.0
C146 C 0.75227 0.04851 0.05274 0.0
C147 C 0.73925 0.05078 0.08675 0.0
C148 C 0.76542 0.07636 0.98718 0.0
C149 C 0.74575 0.04533 0.9581 0.0
C150 C 0.72186 0.02063 0.26599 0.0
C151 C 0.72717 1.00584 0.29859 0.0
C152 C 0.74109 0.99736 0.28348 0.0
C153 C 0.74975 1.00381 0.23632 0.0
C154 C 0.74414 0.01861 0.20375 0.0
C155 C 0.73025 0.02654 0.21884 0.0
C156 C 0.72472 0.04069 0.17809 0.0
C157 C 0.73782 0.0404 0.1362 0.0
C158 C 0.7494 0.0277 0.15139 0.0
C159 C 0.72762 0.06053 0.19921 0.0
C160 C 0.70523 0.03279 0.16217 0.0
H161 H 0.783 0.05 0.9695 0.0
H162 H 0.80835 1.00285 0.08788 0.0
H163 H 0.76539 0.98759 0.08918 0.0
H164 H 0.75722 0.98786 0.15103 0.0
H165 H 0.77928 0.98319 0.14372 0.0
H166 H 0.79778 0.03412 0.16125 0.0
H167 H 0.79952 0.00941 0.17756 0.0
H168 H 0.7829 0.01954 0.20607 0.0
H169 H 0.72799 0.07877 0.93196 0.0
H170 H 0.69119 0.08332 0.05009 0.0
H171 H 0.70828 0.06766 0.11329 0.0
H172 H 0.76269 0.08994 0.99969 0.0
H173 H 0.7679 0.07894 0.94523 0.0
H174 H 0.77789 0.07424 0.0074 0.0
H175 H 0.73268 0.0356 0.96521 0.0
H176 H 0.75553 0.0359 0.95681 0.0
H177 H 0.74516 0.05341 0.91961 0.0
H178 H 0.8097 0.04044 0.94612 0.0
C179 C 0.78808 0.03982 0.99603 0.0
C180 C 0.57274 0.74011 0.42577 0.0
C181 C 0.58032 0.72374 0.44019 0.0
C182 C 0.59401 0.72011 0.41021 0.0
C183 C 0.59125 0.74746 0.34984 0.0
C184 C 0.57875 0.75206 0.38083 0.0
C185 C 0.57322 0.7707 0.35987 0.0
H186 H 0.57943 0.84305 0.1641 0.0
C187 C 0.59391 0.76161 0.3043 0.0
C188 C 0.58389 0.77579 0.31031 0.0
H189 H 0.5487 0.83749 0.3023 0.0
H190 H 0.55915 0.80799 0.3323 0.0
H191 H 0.6152 0.82968 0.21552 0.0
H192 H 0.56787 0.80415 0.14068 0.0
H193 H 0.58256 0.78889 0.13081 0.0
H194 H 0.58765 0.8138 0.10495 0.0
H195 H 0.6099 0.83431 0.14874 0.0
H196 H 0.62129 0.81507 0.17141 0.0
C197 C 0.57908 0.78556 0.39869 0.0
C198 C 0.55301 0.76663 0.34933 0.0
C199 C 0.61949 0.74365 0.1448 0.0
C200 C 0.62011 0.75213 0.09371 0.0
C201 C 0.61855 0.77156 0.08395 0.0
C202 C 0.61438 0.78162 0.12358 0.0
C203 C 0.61148 0.77205 0.17325 0.0
C204 C 0.61496 0.75375 0.18381 0.0
C205 C 0.61099 0.74576 0.23867 0.0
C206 C 0.60291 0.76163 0.2577 0.0
C207 C 0.6032 0.77687 0.21917 0.0
C208 C 0.6288 0.74364 0.26629 0.0
C209 C 0.59736 0.72665 0.23875 0.0
C210 C 0.57526 0.83581 0.2015 0.0
C211 C 0.56357 0.84285 0.23135 0.0
C212 C 0.55784 0.83242 0.27873 0.0
C213 C 0.56397 0.81537 0.2961 0.0
C214 C 0.57574 0.80858 0.26541 0.0
C215 C 0.58104 0.81884 0.21884 0.0
C216 C 0.59242 0.80919 0.18885 0.0
C217 C 0.59393 0.7918 0.22593 0.0
C218 C 0.58416 0.79132 0.27095 0.0
C219 C 0.61068 0.82274 0.18019 0.0
C220 C 0.58227 0.80377 0.13864 0.0
H221 H 0.60977 0.72816 0.34387 0.0
H222 H 0.56247 0.74346 0.44885 0.0
H223 H 0.54916 0.7534 0.32953 0.0
H224 H 0.54859 0.7782 0.32394 0.0
H225 H 0.54547 0.76447 0.38574 0.0
H226 H 0.59254 0.78455 0.41428 0.0
H227 H 0.56977 0.78305 0.43152 0.0
H228 H 0.58013 0.8005 0.38123 0.0
H229 H 0.62071 0.72878 0.15366 0.0
H230 H 0.6194 0.77858 0.04509 0.0
H231 H 0.61258 0.79609 0.11339 0.0
H232 H 0.64054 0.75138 0.24364 0.0
H233 H 0.63017 0.72835 0.27323 0.0
H234 H 0.63012 0.74996 0.30341 0.0
H235 H 0.58616 0.72851 0.21201 0.0
H236 H 0.59138 0.72138 0.2765 0.0
H237 H 0.60364 0.7151 0.22637 0.0
H238 H 0.60007 0.70767 0.42057 0.0
C239 C 0.59955 0.7319 0.36545 0.0
C240 C 0.31087 0.55645 0.53375 0.0
C241 C 0.31895 0.55932 0.58194 0.0
C242 C 0.31078 0.56868 0.61668 0.0
C243 C 0.28716 0.57233 0.55543 0.0
C244 C 0.29508 0.56314 0.52126 0.0
C245 C 0.28469 0.56138 0.47178 0.0
H246 H 0.21269 0.57829 0.33149 0.0
C247 C 0.2712 0.57797 0.53057 0.0
C248 C 0.2698 0.57193 0.48111 0.0
H249 H 0.25013 0.54318 0.29722 0.0
H250 H 0.26773 0.55252 0.37172 0.0
H251 H 0.20981 0.56135 0.4482 0.0
H252 H 0.23941 0.61345 0.37085 0.0
H253 H 0.23375 0.61937 0.43081 0.0
H254 H 0.21638 0.61114 0.3859 0.0
H255 H 0.19978 0.58029 0.41653 0.0
H256 H 0.20694 0.58045 0.48207 0.0
C257 C 0.27769 0.53976 0.46706 0.0
C258 C 0.29673 0.57183 0.42706 0.0
C259 C 0.22768 0.60408 0.63298 0.0
C260 C 0.21169 0.61026 0.61906 0.0
C261 C 0.20757 0.61393 0.56667 0.0
C262 C 0.21825 0.60958 0.52886 0.0
C263 C 0.23306 0.60132 0.54365 0.0
C264 C 0.23828 0.59991 0.59454 0.0
C265 C 0.2553 0.59232 0.60208 0.0
C266 C 0.25832 0.58764 0.54811 0.0
C267 C 0.24498 0.59251 0.51449 0.0
C268 C 0.25191 0.57403 0.6408 0.0
C269 C 0.27001 0.60863 0.61908 0.0
C270 C 0.22466 0.57253 0.33988 0.0
C271 C 0.22979 0.55968 0.30878 0.0
C272 C 0.2458 0.55307 0.32047 0.0
C273 C 0.25588 0.55832 0.36413 0.0
C274 C 0.24977 0.57008 0.3968 0.0
C275 C 0.23449 0.57713 0.38392 0.0
C276 C 0.22893 0.58796 0.42476 0.0
C277 C 0.2434 0.58628 0.46464 0.0
C278 C 0.25565 0.57589 0.44807 0.0
C279 C 0.21038 0.57715 0.44403 0.0
C280 C 0.22949 0.60906 0.40214 0.0
H281 H 0.28942 0.58212 0.63183 0.0
H282 H 0.31684 0.54942 0.50603 0.0
H283 H 0.30408 0.58594 0.43739 0.0
H284 H 0.28918 0.57503 0.39179 0.0
H285 H 0.30666 0.56321 0.41799 0.0
H286 H 0.27553 0.53141 0.50548 0.0
H287 H 0.28725 0.53349 0.44626 0.0
H288 H 0.26458 0.53703 0.44786 0.0
H289 H 0.23131 0.60158 0.67301 0.0
H290 H 0.19537 0.61878 0.55502 0.0
H291 H 0.214 0.61178 0.48973 0.0
H292 H 0.2393 0.56443 0.63126 0.0
H293 H 0.25082 0.57777 0.6805 0.0
H294 H 0.26237 0.56536 0.64056 0.0
H295 H 0.26656 0.62305 0.60905 0.0
H296 H 0.28276 0.6094 0.59936 0.0
H297 H 0.27226 0.60692 0.66123 0.0
H298 H 0.31651 0.57078 0.65435 0.0
C299 C 0.29501 0.57523 0.60363 0.0
C300 C 0.08432 0.24995 0.58877 0.0
C301 C 0.08613 0.23063 0.5923 0.0
C302 C 0.09459 0.22412 0.55242 0.0
C303 C 0.09496 0.25446 0.50147 0.0
C304 C 0.0891 0.26174 0.54312 0.0
C305 C 0.08745 0.28243 0.53115 0.0
H306 H 0.05815 0.34665 0.37448 0.0
C307 C 0.09433 0.26836 0.4561 0.0
C308 C 0.09099 0.28524 0.47329 0.0
H309 H 0.08853 0.35647 0.51409 0.0
H310 H 0.09986 0.3271 0.50865 0.0
H311 H 0.09414 0.33167 0.32643 0.0
H312 H 0.04469 0.29826 0.38936 0.0
H313 H 0.04961 0.29144 0.32909 0.0
H314 H 0.04512 0.31507 0.33287 0.0
H315 H 0.07324 0.33272 0.29453 0.0
H316 H 0.08488 0.31347 0.2877 0.0
C317 C 0.10167 0.29477 0.56293 0.0
C318 C 0.06845 0.28486 0.54335 0.0
C319 C 0.08454 0.24073 0.2855 0.0
C320 C 0.0763 0.24609 0.23931 0.0
C321 C 0.06992 0.26352 0.23395 0.0
C322 C 0.07203 0.27549 0.27409 0.0
C323 C 0.08025 0.26976 0.32036 0.0
C324 C 0.08605 0.25242 0.32547 0.0
C325 C 0.09282 0.24734 0.37836 0.0
C326 C 0.09104 0.26499 0.40391 0.0
C327 C 0.08384 0.27828 0.36977 0.0
C328 C 0.11254 0.24565 0.37453 0.0
C329 C 0.08067 0.22859 0.40248 0.0
C330 C 0.06659 0.34204 0.40522 0.0
C331 C 0.07165 0.35332 0.44636 0.0
C332 C 0.08379 0.34765 0.48354 0.0
C333 C 0.08965 0.33037 0.4824 0.0
C334 C 0.08275 0.31834 0.44537 0.0
C335 C 0.07291 0.32473 0.40476 0.0
C336 C 0.07149 0.3115 0.3625 0.0
C337 C 0.08114 0.2958 0.38714 0.0
C338 C 0.08646 0.2997 0.43707 0.0
C339 C 0.08135 0.32286 0.31494 0.0
C340 C 0.05167 0.30364 0.35251 0.0
H341 H 0.10531 0.23051 0.47724 0.0
H342 H 0.07848 0.25539 0.6199 0.0
H343 H 0.05842 0.27535 0.52159 0.0
H344 H 0.06666 0.29987 0.53327 0.0
H345 H 0.06561 0.28131 0.58494 0.0
H346 H 0.10539 0.28647 0.5986 0.0
H347 H 0.09666 0.30695 0.57648 0.0
H348 H 0.11402 0.30026 0.54057 0.0
H349 H 0.08904 0.22714 0.29143 0.0
H350 H 0.06334 0.26784 0.19876 0.0
H351 H 0.06688 0.28853 0.26808 0.0
H352 H 0.11984 0.25767 0.34814 0.0
H353 H 0.11373 0.23195 0.35959 0.0
H354 H 0.11953 0.24648 0.4119 0.0
H355 H 0.07045 0.22218 0.37524 0.0
H356 H 0.07305 0.2312 0.43555 0.0
H357 H 0.08837 0.21719 0.41493 0.0
H358 H 0.09647 0.20938 0.55479 0.0
C359 C 0.0992 0.2361 0.50705 0.0
C360 C 0.28984 1.0028 0.33279 0.0
C361 C 0.30432 0.99687 0.31162 0.0
C362 C 0.31188 0.98227 0.33893 0.0
C363 C 0.29134 0.98025 0.4085 0.0
C364 C 0.28337 0.99403 0.38104 0.0
C365 C 0.26753 0.99758 0.40899 0.0
H366 H 0.21398 0.97503 0.618 0.0
C367 C 0.28209 0.97443 0.45786 0.0
C368 C 0.26789 0.98423 0.45838 0.0
H369 H 0.20819 0.01442 0.48366 0.0
H370 H 0.23511 0.00838 0.44869 0.0
H371 H 0.22759 0.94208 0.56242 0.0
H372 H 0.25444 0.99162 0.63228 0.0
H373 H 0.2684 0.97471 0.64181 0.0
H374 H 0.24653 0.96924 0.66986 0.0
H375 H 0.22678 0.94477 0.62965 0.0
H376 H 0.24447 0.93545 0.60383 0.0
C377 C 0.25073 0.99141 0.37624 0.0
C378 C 0.27093 0.01892 0.41932 0.0
C379 C 0.30931 0.93309 0.59488 0.0
C380 C 0.30575 0.92782 0.64726 0.0
C381 C 0.29007 0.9315 0.66769 0.0
C382 C 0.2785 0.94097 0.63671 0.0
C383 C 0.28283 0.94714 0.585 0.0
C384 C 0.2979 0.9429 0.56486 0.0
C385 C 0.30119 0.9516 0.51043 0.0
C386 C 0.28586 0.96223 0.5015 0.0
C387 C 0.27505 0.95944 0.54497 0.0
C388 C 0.29977 0.93502 0.47583 0.0
C389 C 0.31943 0.96552 0.50871 0.0
C390 C 0.21849 0.98256 0.58128 0.0
C391 C 0.20861 0.99504 0.5535 0.0
C392 C 0.21516 1.00434 0.50557 0.0
C393 C 0.23088 1.0009 0.48528 0.0
C394 C 0.24032 0.98808 0.51317 0.0
C395 C 0.23422 0.97943 0.56074 0.0
C396 C 0.24639 0.96698 0.58631 0.0
C397 C 0.26023 0.9687 0.54502 0.0
C398 C 0.25668 0.98111 0.50214 0.0
C399 C 0.23583 0.94619 0.5965 0.0
C400 C 0.25432 0.97591 0.6353 0.0
H401 H 0.31206 0.96315 0.40607 0.0
H402 H 0.28364 0.01381 0.31211 0.0
H403 H 0.28493 0.02363 0.43175 0.0
H404 H 0.2627 0.02164 0.45058 0.0
H405 H 0.26856 0.02829 0.38414 0.0
H406 H 0.25173 0.9785 0.35696 0.0
H407 H 0.24891 1.00303 0.34592 0.0
H408 H 0.23852 0.98714 0.39929 0.0
H409 H 0.32145 0.93089 0.57827 0.0
H410 H 0.28706 0.92755 0.70799 0.0
H411 H 0.26691 0.94364 0.65454 0.0
H412 H 0.29111 0.92166 0.49323 0.0
H413 H 0.313 0.93152 0.46957 0.0
H414 H 0.29348 0.93826 0.4382 0.0
H415 H 0.32136 0.9735 0.54328 0.0
H416 H 0.3208 0.97676 0.47597 0.0
H417 H 0.33052 0.95757 0.50769 0.0
H418 H 0.32307 0.97756 0.32334 0.0
C419 C 0.30551 0.97397 0.38709 0.0
C420 C 0.45104 0.27009 0.14542 0.0
C421 C 0.44386 0.28654 0.12875 0.0
C422 C 0.42982 0.29066 0.1564 0.0
C423 C 0.43146 0.26362 0.21907 0.0
C424 C 0.44431 0.25855 0.19027 0.0
C425 C 0.4494 0.23994 0.21336 0.0
H426 H 0.4408 0.16936 0.41375 0.0
C427 C 0.4281 0.24983 0.26524 0.0
C428 C 0.43807 0.23541 0.26171 0.0
H429 H 0.4728 0.17331 0.27863 0.0
H430 H 0.46274 0.20265 0.24514 0.0
H431 H 0.4519 0.20856 0.43492 0.0
H432 H 0.40556 0.18236 0.35684 0.0
H433 H 0.39889 0.19746 0.3986 0.0
H434 H 0.40998 0.17834 0.42437 0.0
H435 H 0.43169 0.19917 0.4689 0.0
H436 H 0.43701 0.22391 0.44174 0.0
C437 C 0.46947 0.24388 0.22612 0.0
C438 C 0.44394 0.22475 0.17519 0.0
C439 C 0.40057 0.26949 0.41931 0.0
C440 C 0.39917 0.26138 0.47076 0.0
C441 C 0.40046 0.24193 0.48218 0.0
C442 C 0.40516 0.23148 0.44412 0.0
C443 C 0.40881 0.24065 0.39432 0.0
C444 C 0.40557 0.25898 0.38188 0.0
C445 C 0.41032 0.2665 0.32714 0.0
C446 C 0.41852 0.25031 0.31051 0.0
C447 C 0.41765 0.23533 0.3501 0.0
C448 C 0.42406 0.28551 0.3273 0.0
C449 C 0.39295 0.26862 0.29713 0.0
C450 C 0.44534 0.1762 0.3763 0.0
C451 C 0.45732 0.16877 0.34839 0.0
C452 C 0.46348 0.1787 0.30081 0.0
C453 C 0.45757 0.19567 0.28139 0.0
C454 C 0.44554 0.20287 0.31015 0.0
C455 C 0.43974 0.19307 0.35685 0.0
C456 C 0.42798 0.20308 0.38443 0.0
C457 C 0.42693 0.2202 0.3458 0.0
C458 C 0.43723 0.22017 0.30214 0.0
C459 C 0.43747 0.20894 0.43519 0.0
C460 C 0.40962 0.18965 0.39194 0.0
H461 H 0.41311 0.28337 0.221 0.0
H462 H 0.46158 0.26636 0.12417 0.0
H463 H 0.43082 0.22598 0.15732 0.0
H464 H 0.44228 0.20991 0.19381 0.0
H465 H 0.4538 0.22669 0.14389 0.0
H466 H 0.47316 0.25732 0.24509 0.0
H467 H 0.47749 0.24559 0.1907 0.0
H468 H 0.47347 0.23246 0.25305 0.0
H469 H 0.39958 0.28436 0.40914 0.0
H470 H 0.39901 0.23519 0.52128 0.0
H471 H 0.40676 0.21703 0.45566 0.0
H472 H 0.43489 0.28372 0.35548 0.0
H473 H 0.41772 0.29729 0.33794 0.0
H474 H 0.43056 0.29042 0.29005 0.0
H475 H 0.38087 0.2611 0.31863 0.0
H476 H 0.39212 0.26208 0.26039 0.0
H477 H 0.39174 0.28394 0.28906 0.0
H478 H 0.42407 0.30318 0.14431 0.0
C479 C 0.42356 0.27926 0.20117 0.0
Nd480 Nd -0.00018 1.00273 0.75318 0.0
Nd481 Nd 0.02169 0.00681 0.8478 0.0
C482 C 0.97613 0.98857 0.68548 0.0
C483 C 0.97323 0.97007 0.66283 0.0
C484 C 0.95609 0.95895 0.66084 0.0
C485 C 0.9534 0.94071 0.64337 0.0
C486 C 0.96781 0.93318 0.62733 0.0
C487 C 0.98496 0.94451 0.62896 0.0
C488 C 0.98764 0.96265 0.64678 0.0
C489 C 0.0356 0.00731 0.73535 0.0
C490 C 0.00863 0.96425 0.82342 0.0
C491 C 0.04463 0.02084 0.91789 0.0
C492 C 0.04711 0.0394 0.93979 0.0
C493 C 0.06068 0.04441 0.97548 0.0
C494 C 0.0629 0.06214 0.99579 0.0
C495 C 0.05162 0.07524 0.98054 0.0
C496 C 0.03809 0.07009 0.94442 0.0
C497 C 0.03581 0.05235 0.92461 0.0
C498 C 0.98579 1.00223 0.86442 0.0
C499 C 0.01351 0.04521 0.77644 0.0
O500 O 0.97277 0.98737 0.73447 0.0
O501 O 0.99068 1.00085 0.67252 0.0
O502 O 0.02464 0.01504 0.70527 0.0
O503 O 0.02756 0.99684 0.77268 0.0
O504 O 0.99733 0.97216 0.79356 0.0
O505 O 0.02211 0.97497 0.84519 0.0
O506 O 0.04854 0.02185 0.86933 0.0
O507 O 0.0297 0.00903 0.92931 0.0
O508 O 0.99653 0.99418 0.89452 0.0
O509 O 0.9941 0.01286 0.82792 0.0
O510 O 0.02492 0.03714 0.80538 0.0
O511 O -0.00031 0.03461 0.7559 0.0
H512 H 0.9448 0.96422 0.67377 0.0
H513 H 0.94004 0.93235 0.64353 0.0
H514 H 0.99637 0.93942 0.61625 0.0
H515 H 0.00107 0.97077 0.64853 0.0
H516 H 0.06951 0.03458 0.98781 0.0
H517 H 0.07331 0.06545 0.02398 0.0
H518 H 0.02933 0.07985 0.93095 0.0
H519 H 0.02517 0.04875 0.89731 0.0
Nd520 Nd 0.51941 0.99228 0.76602 0.0
Nd521 Nd 0.5006 0.01901 0.81634 0.0
C522 C 0.53536 0.96602 0.73346 0.0
C523 C 0.55215 0.96723 0.7064 0.0
C524 C 0.55839 0.95054 0.69862 0.0
C525 C 0.57436 0.95179 0.67259 0.0
C526 C 0.58434 0.9698 0.65388 0.0
C527 C 0.57796 0.98648 0.66208 0.0
C528 C 0.56207 0.9852 0.68819 0.0
C529 C 0.51184 0.02256 0.70067 0.0
C530 C 0.54346 0.03139 0.79607 0.0
C531 C 0.48497 0.04548 0.84903 0.0
C532 C 0.46864 0.04463 0.87802 0.0
C533 C 0.46188 0.06133 0.8819 0.0
C534 C 0.44638 0.06049 0.9098 0.0
C535 C 0.43739 0.0429 0.9344 0.0
C536 C 0.44426 0.02618 0.93002 0.0
C537 C 0.45967 0.02704 0.90195 0.0
C538 C 0.50823 0.98872 0.88166 0.0
C539 C 0.47653 0.97979 0.78711 0.0
O540 O 0.53688 0.97075 0.78045 0.0
O541 O 0.52305 0.9733 0.70711 0.0
O542 O 0.52645 0.01604 0.69937 0.0
O543 O 0.50151 0.01276 0.73435 0.0
O544 O 0.54357 0.01338 0.78941 0.0
O545 O 0.52846 0.03759 0.80078 0.0
O546 O 0.48273 0.04016 0.8027 0.0
O547 O 0.49768 0.03857 0.87438 0.0
O548 O 0.49364 0.99527 0.88312 0.0
O549 O 0.51854 0.99859 0.84803 0.0
O550 O 0.47641 0.99777 0.79414 0.0
O551 O 0.49151 0.97367 0.78124 0.0
H552 H 0.55094 0.93655 0.71268 0.0
H553 H 0.57896 0.93867 0.66758 0.0
H554 H 0.58508 1.00057 0.64756 0.0
H555 H 0.55746 0.99826 0.69391 0.0
H556 H 0.46858 0.07502 0.86335 0.0
H557 H 0.44137 0.0736 0.9117 0.0
H558 H 0.43792 0.01244 0.94902 0.0
H559 H 0.46467 0.01396 0.89924 0.0
Nd560 Nd 0.50561 0.51123 0.82262 0.0
Nd561 Nd 0.51994 0.49586 0.73563 0.0
C562 C 0.49395 0.53393 0.88086 0.0
C563 C 0.5038 0.55293 0.89076 0.0
C564 C 0.49574 0.56625 0.91227 0.0
C565 C 0.50557 0.58453 0.91905 0.0
C566 C 0.52345 0.58968 0.90369 0.0
C567 C 0.53136 0.57621 0.88213 0.0
C568 C 0.52166 0.55804 0.87592 0.0
C569 C 0.53826 0.50156 0.84235 0.0
C570 C 0.52857 0.54114 0.7321 0.0
C571 C 0.53315 0.47415 0.67746 0.0
C572 C 0.52582 0.45442 0.66524 0.0
C573 C 0.52366 0.43886 0.70385 0.0
C574 C 0.51304 0.42128 0.69511 0.0
C575 C 0.5044 0.41889 0.64765 0.0
C576 C 0.50772 0.43397 0.60784 0.0
C577 C 0.51838 0.45153 0.61652 0.0
C578 C 0.48735 0.5056 0.71575 0.0
C579 C 0.49621 0.46604 0.82564 0.0
O580 O 0.48875 0.53257 0.83325 0.0
O581 O 0.50137 0.5196 0.89966 0.0
O582 O 0.52551 0.49829 0.8753 0.0
O583 O 0.53394 0.51036 0.80104 0.0
O584 O 0.51588 0.53815 0.76661 0.0
O585 O 0.53502 0.52667 0.71786 0.0
O586 O 0.53838 0.47616 0.72486 0.0
O587 O 0.52412 0.48719 0.65895 0.0
O588 O 0.50006 0.50874 0.68261 0.0
O589 O 0.49164 0.4968 0.75713 0.0
O590 O 0.50864 0.46869 0.79021 0.0
O591 O 0.49018 0.48069 0.84049 0.0
H592 H 0.48193 0.56256 0.92357 0.0
H593 H 0.49917 0.59469 0.93576 0.0
H594 H 0.54518 0.57959 0.87085 0.0
H595 H 0.52814 0.54791 0.85934 0.0
H596 H 0.52933 0.44051 0.74176 0.0
H597 H 0.51106 0.40978 0.72616 0.0
H598 H 0.50124 0.43265 0.57083 0.0
H599 H 0.51989 0.46324 0.58603 0.0
Nd600 Nd -0.00012 0.52145 0.76114 0.0
Nd601 Nd 0.01974 0.49262 0.83259 0.0
C602 C 0.9773 0.54418 0.73276 0.0
C603 C 0.95992 0.54098 0.70599 0.0
C604 C 0.94604 0.52619 0.72476 0.0
C605 C 0.9303 0.522 0.69668 0.0
C606 C 0.92808 0.5324 0.64901 0.0
C607 C 0.94175 0.54762 0.63109 0.0
C608 C 0.95751 0.55186 0.65935 0.0
C609 C 0.01006 0.49504 0.7036 0.0
C610 C 0.97931 0.47737 0.80094 0.0
C611 C 0.04354 0.47314 0.87372 0.0
C612 C 0.05984 0.47935 0.903 0.0
C613 C 0.0726 0.46766 0.91173 0.0
C614 C 0.08811 0.47387 0.93958 0.0
C615 C 0.09096 0.49182 0.95922 0.0
C616 C 0.07821 0.50357 0.94953 0.0
C617 C 0.06283 0.49742 0.92163 0.0
C618 C 0.00276 0.51598 0.88217 0.0
C619 C 0.04175 0.53585 0.78521 0.0
O620 O 0.97785 0.53549 0.7794 0.0
O621 O 0.99118 0.54355 0.70522 0.0
O622 O 0.00209 0.50868 0.6839 0.0
O623 O 0.01225 0.4964 0.75077 0.0
O624 O 0.97814 0.49561 0.78864 0.0
O625 O 0.9946 0.47189 0.81245 0.0
O626 O 0.04382 0.48015 0.82543 0.0
O627 O 0.02869 0.47371 0.89651 0.0
O628 O 0.00349 0.49841 0.89993 0.0
O629 O 0.0115 0.52073 0.84125 0.0
O630 O 0.04173 0.51923 0.81325 0.0
O631 O 0.02744 0.5405 0.76172 0.0
H632 H 0.94742 0.51752 0.76065 0.0
H633 H 0.91994 0.51041 0.71209 0.0
H634 H 0.94057 0.55581 0.59432 0.0
H635 H 0.96803 0.56329 0.64401 0.0
H636 H 0.07054 0.45373 0.89725 0.0
H637 H 0.09768 0.46449 0.94665 0.0
H638 H 0.08017 0.51761 0.96337 0.0
H639 H 0.05321 0.50675 0.91471 0.0
C640 C 0.18875 0.99735 0.62703 0.0
C641 C 0.19139 0.99789 0.57389 0.0
C642 C 0.17225 0.99875 0.64622 0.0
C643 C 0.12451 0.99396 0.6075 0.0
H644 H 0.12079 0.018 0.7316 0.0
C645 C 0.05955 0.01376 0.66991 0.0
C646 C 0.05394 0.00696 0.72022 0.0
C647 C 0.07654 0.01272 0.6541 0.0
C648 C 0.12167 0.01113 0.69712 0.0
H649 H 0.17852 1.00079 0.49939 0.0
H650 H 0.15029 1.0044 0.53244 0.0
H651 H 0.15008 0.0169 0.69899 0.0
H652 H 0.06185 0.99426 0.79396 0.0
H653 H 0.09195 0.99289 0.76647 0.0
H654 H 0.09607 0.98886 0.60485 0.0
C655 C 0.16078 1.00221 0.55962 0.0
C656 C 0.13845 0.01041 0.67842 0.0
C657 C 0.17718 1.0005 0.54048 0.0
C658 C 0.06584 0.99954 0.75491 0.0
C659 C 0.08303 0.99882 0.73928 0.0
C660 C 0.10781 0.99499 0.62569 0.0
C661 C 0.15796 1.00104 0.61282 0.0
C662 C 0.14012 1.00185 0.63319 0.0
C663 C 0.08842 1.00516 0.68848 0.0
C664 C 0.10622 1.00361 0.67057 0.0
H665 H 0.19941 0.99576 0.65412 0.0
H666 H 0.17066 0.99761 0.68741 0.0
H667 H 0.12512 0.98678 0.57343 0.0
H668 H 0.05069 0.01959 0.64233 0.0
H669 H 0.08042 0.01787 0.6149 0.0
C670 C 0.48184 0.15042 0.3729 0.0
C671 C 0.46367 0.15121 0.37113 0.0
C672 C 0.4879 0.13526 0.40222 0.0
C673 C 0.47237 0.08689 0.47473 0.0
H674 H 0.51459 0.10134 0.55706 0.0
C675 C 0.48934 0.04023 0.65696 0.0
C676 C 0.50692 0.0373 0.66179 0.0
C677 C 0.48467 0.05358 0.61833 0.0
C678 C 0.50287 0.09704 0.534 0.0
H679 H 0.43752 0.13602 0.39552 0.0
H680 H 0.44799 0.11007 0.44728 0.0
H681 H 0.50561 0.1249 0.49226 0.0
H682 H 0.53349 0.04628 0.63097 0.0
H683 H 0.52539 0.06981 0.56408 0.0
H684 H 0.46935 0.0592 0.51797 0.0
C685 C 0.45767 0.12093 0.42602 0.0
C686 C 0.49776 0.11051 0.49654 0.0
C687 C 0.45164 0.13596 0.39665 0.0
C688 C 0.51982 0.04823 0.62804 0.0
C689 C 0.5152 0.06173 0.58987 0.0
C690 C 0.47737 0.0735 0.51257 0.0
C691 C 0.47592 0.12059 0.43034 0.0
C692 C 0.48231 0.1057 0.46675 0.0
C693 C 0.49755 0.06443 0.58427 0.0
C694 C 0.49257 0.07849 0.54298 0.0
H695 H 0.49144 0.16197 0.35378 0.0
H696 H 0.50203 0.1353 0.40381 0.0
H697 H 0.46061 0.08248 0.45193 0.0
H698 H 0.47914 0.03202 0.68253 0.0
H699 H 0.471 0.05551 0.61533 0.0
C700 C 0.34922 0.56428 0.62291 0.0
C701 C 0.33587 0.55275 0.59621 0.0
C702 C 0.365 0.55806 0.63731 0.0
C703 C 0.39353 0.5249 0.60593 0.0
H704 H 0.41464 0.53438 0.73914 0.0
C705 C 0.46586 0.5184 0.655 0.0
C706 C 0.46953 0.50993 0.70397 0.0
C707 C 0.44906 0.52254 0.64315 0.0
C708 C 0.40884 0.53145 0.70202 0.0
H709 H 0.32867 0.52556 0.56391 0.0
H710 H 0.35633 0.51472 0.58886 0.0
H711 H 0.38604 0.54332 0.71633 0.0
H712 H 0.45862 0.49923 0.77918 0.0
H713 H 0.4291 0.50642 0.75843 0.0
H714 H 0.41627 0.51294 0.59171 0.0
C715 C 0.3546 0.52867 0.59825 0.0
C716 C 0.39255 0.53677 0.68871 0.0
C717 C 0.33877 0.53489 0.58387 0.0
C718 C 0.45611 0.50575 0.74108 0.0
C719 C 0.43926 0.50995 0.72926 0.0
C720 C 0.40984 0.51963 0.61918 0.0
C721 C 0.36788 0.54016 0.62529 0.0
C722 C 0.38479 0.53371 0.64032 0.0
C723 C 0.43555 0.51834 0.68007 0.0
C724 C 0.41777 0.52301 0.66718 0.0
H725 H 0.34756 0.57828 0.63217 0.0
H726 H 0.3751 0.56743 0.65719 0.0
H727 H 0.38799 0.52246 0.56824 0.0
H728 H 0.476 0.52188 0.62572 0.0
H729 H 0.44674 0.5293 0.60521 0.0
C730 C 0.0459 0.36887 0.46124 0.0
C731 C 0.06419 0.37056 0.45343 0.0
C732 C 0.03939 0.38344 0.48223 0.0
C733 C 0.05517 0.42157 0.56647 0.0
H734 H 0.00955 0.43609 0.53578 0.0
C735 C 0.02405 0.4662 0.69849 0.0
C736 C 0.01579 0.48074 0.6742 0.0
C737 C 0.02948 0.45285 0.66983 0.0
C738 C 0.02238 0.43229 0.54464 0.0
H739 H 0.08982 0.38935 0.45717 0.0
H740 H 0.07848 0.41499 0.49214 0.0
H741 H 0.01997 0.41396 0.48407 0.0
H742 H 0.00657 0.49268 0.60115 0.0
H743 H 0.01615 0.46961 0.55118 0.0
H744 H 0.05772 0.44002 0.62653 0.0
C745 C 0.06917 0.40225 0.48363 0.0
C746 C 0.02829 0.41947 0.51523 0.0
C747 C 0.07565 0.38769 0.46298 0.0
C748 C 0.01291 0.4816 0.62092 0.0
C749 C 0.01829 0.46829 0.59231 0.0
C750 C 0.04926 0.43433 0.59587 0.0
C751 C 0.05108 0.39997 0.49561 0.0
C752 C 0.04479 0.414 0.52566 0.0
C753 C 0.0267 0.45376 0.6163 0.0
C754 C 0.0328 0.43988 0.58538 0.0
H755 H 0.03683 0.3557 0.45483 0.0
H756 H 0.02539 0.38117 0.491 0.0
H757 H 0.0678 0.41742 0.57631 0.0
H758 H 0.02629 0.4651 0.73957 0.0
H759 H 0.0357 0.4417 0.68969 0.0
C760 C 0.83133 0.01397 0.94709 0.0
C761 C 0.82799 0.01513 0.99915 0.0
C762 C 0.84776 0.01091 0.93166 0.0
C763 C 0.88715 0.99167 0.97288 0.0
H764 H 0.91184 0.02996 0.87004 0.0
C765 C 0.96099 0.9954 0.92733 0.0
C766 C 0.96718 1.00215 0.8776 0.0
C767 C 0.94361 0.99593 0.94088 0.0
C768 C 0.90507 0.01887 0.89799 0.0
H769 H 0.83933 0.01307 0.07592 0.0
H770 H 0.86779 0.00694 0.04888 0.0
H771 H 0.88207 0.03194 0.89598 0.0
H772 H 0.95997 0.01423 0.80246 0.0
H773 H 0.92934 0.01437 0.82512 0.0
H774 H 0.90978 0.97818 0.97408 0.0
C775 C 0.85763 0.00868 0.02017 0.0
C776 C 0.88802 0.02012 0.91308 0.0
C777 C 0.84127 0.0121 0.03562 0.0
C778 C 0.95555 0.00907 0.84122 0.0
C779 C 0.93803 0.00927 0.85446 0.0
C780 C 0.90407 0.99018 0.9571 0.0
C781 C 0.86114 0.00849 0.96793 0.0
C782 C 0.87897 0.00664 0.95097 0.0
C783 C 0.93184 1.00289 0.90471 0.0
C784 C 0.91339 1.00389 0.91979 0.0
H785 H 0.82131 0.01566 0.91794 0.0
H786 H 0.85004 0.01052 0.89121 0.0
H787 H 0.88036 0.98098 1.00182 0.0
H788 H 0.96971 0.99008 0.95628 0.0
H789 H 0.9396 0.99125 0.98017 0.0
C790 C 0.56894 0.87611 0.18607 0.0
C791 C 0.55703 0.86052 0.2106 0.0
C792 C 0.56275 0.89119 0.15742 0.0
C793 C 0.52262 0.90105 0.08628 0.0
H794 H 0.55046 0.95268 0.0659 0.0
C795 C 0.50027 0.963 0.95409 0.0
C796 C 0.51319 0.97405 0.92065 0.0
C797 C 0.50489 0.94957 0.99245 0.0
C798 C 0.5426 0.93829 0.07102 0.0
H799 H 0.52931 0.84919 0.22728 0.0
H800 H 0.5184 0.87594 0.17851 0.0
H801 H 0.55926 0.92952 0.1322 0.0
H802 H 0.54105 0.97963 0.90063 0.0
H803 H 0.54922 0.95628 0.96821 0.0
H804 H 0.50589 0.91002 0.02521 0.0
C805 C 0.53257 0.87622 0.18028 0.0
C806 C 0.54763 0.92498 0.10902 0.0
C807 C 0.53881 0.86102 0.20889 0.0
C808 C 0.53083 0.97132 0.92595 0.0
C809 C 0.53551 0.95806 0.96479 0.0
C810 C 0.51747 0.91445 0.04869 0.0
C811 C 0.54444 0.89122 0.15285 0.0
C812 C 0.53791 0.90605 0.11658 0.0
C813 C 0.52259 0.94709 0.99856 0.0
C814 C 0.52758 0.93311 0.04006 0.0
H815 H 0.5831 0.87623 0.18713 0.0
H816 H 0.57235 0.90229 0.1367 0.0
H817 H 0.51494 0.88658 0.09022 0.0
H818 H 0.48655 0.96479 0.95078 0.0
H819 H 0.49468 0.9414 0.01799 0.0
C820 C 0.68587 0.48492 0.99947 0.0
C821 C 0.69106 0.46719 0.99675 0.0
C822 C 0.66993 0.48851 0.97694 0.0
C823 C 0.63971 0.49574 0.90395 0.0
H824 H 0.59811 0.45538 0.92564 0.0
C825 C 0.57014 0.50318 0.8197 0.0
C826 C 0.55604 0.49715 0.85433 0.0
C827 C 0.58701 0.49916 0.83247 0.0
C828 C 0.6096 0.4668 0.91926 0.0
H829 H 0.68358 0.43934 0.968 0.0
H830 H 0.65591 0.44569 0.92816 0.0
H831 H 0.62697 0.44945 0.95684 0.0
H832 H 0.54836 0.48205 0.92893 0.0
H833 H 0.57763 0.47511 0.95117 0.0
H834 H 0.62215 0.51326 0.86765 0.0
C835 C 0.6641 0.45678 0.94804 0.0
C836 C 0.62618 0.46334 0.93669 0.0
C837 C 0.68005 0.45321 0.97045 0.0
C838 C 0.55899 0.48688 0.90148 0.0
C839 C 0.57574 0.48278 0.91408 0.0
C840 C 0.6231 0.49918 0.88631 0.0
C841 C 0.6588 0.47442 0.95131 0.0
C842 C 0.64139 0.47784 0.92985 0.0
C843 C 0.58997 0.4889 0.87985 0.0
C844 C 0.60783 0.48484 0.8945 0.0
H845 H 0.69415 0.49607 0.01893 0.0
H846 H 0.66615 0.50218 0.9806 0.0
H847 H 0.65121 0.50713 0.89756 0.0
H848 H 0.56818 0.51108 0.783 0.0
H849 H 0.59768 0.50394 0.80516 0.0
C850 C 0.97922 0.64472 0.13167 0.0
C851 C 0.96279 0.64132 0.15657 0.0
C852 C 0.98478 0.63006 0.10881 0.0
C853 C 0.97896 0.57858 0.0979 0.0
H854 H 0.98524 0.59391 0.95208 0.0
C855 C 0.98632 0.52353 0.95623 0.0
C856 C 0.99727 0.5299 0.9134 0.0
C857 C 0.98211 0.53664 0.98785 0.0
C858 C 0.98391 0.58938 0.99276 0.0
H859 H 0.93968 0.61985 0.17959 0.0
H860 H 0.94979 0.59382 0.1414 0.0
H861 H 0.97976 0.61705 0.00837 0.0
H862 H 0.01245 0.55496 0.86996 0.0
H863 H 0.00587 0.57772 0.92591 0.0
H864 H 0.98366 0.55107 0.0829 0.0
C865 C 0.95834 0.60784 0.13958 0.0
C866 C 0.98068 0.60269 0.02501 0.0
C867 C 0.95263 0.62264 0.16179 0.0
C868 C 0.00382 0.54964 0.90247 0.0
C869 C -7e-05 0.56272 0.93459 0.0
C870 C 0.98258 0.56531 0.06576 0.0
C871 C 0.97406 0.61168 0.11087 0.0
C872 C 0.97815 0.59745 0.07784 0.0
C873 C 0.98904 0.55645 0.97793 0.0
C874 C 0.98508 0.57049 0.01258 0.0
H875 H 0.98704 0.65913 0.12611 0.0
H876 H 0.99698 0.63335 0.08707 0.0
H877 H 0.97704 0.57419 0.13853 0.0
H878 H 0.98103 0.50837 0.96539 0.0
H879 H 0.97337 0.53119 0.01998 0.0
C880 C 0.08492 0.20237 0.6585 0.0
C881 C 0.07663 0.21656 0.63239 0.0
C882 C 0.07484 0.18675 0.68786 0.0
C883 C 0.03304 0.15622 0.67933 0.0
H884 H 0.04411 0.13277 0.81355 0.0
C885 C 0.00436 0.07654 0.74422 0.0
C886 C 0.01686 0.0664 0.76819 0.0
C887 C 0.00813 0.09668 0.73715 0.0
C888 C 0.04087 0.13909 0.7759 0.0
H889 H 0.05158 0.22613 0.61824 0.0
H890 H 0.03392 0.19852 0.66861 0.0
H891 H 0.05833 0.16579 0.78574 0.0
H892 H 0.04303 0.06942 0.80398 0.0
H893 H 0.04974 0.10388 0.7901 0.0
H894 H 0.01684 0.12919 0.66721 0.0
C895 C 0.0482 0.19968 0.66703 0.0
C896 C 0.04891 0.15802 0.76033 0.0
C897 C 0.05831 0.21548 0.63854 0.0
C898 C 0.03302 0.07671 0.78543 0.0
C899 C 0.03681 0.09664 0.77807 0.0
C900 C 0.02528 0.13716 0.69442 0.0
C901 C 0.05632 0.18494 0.69061 0.0
C902 C 0.04544 0.16651 0.71135 0.0
C903 C 0.02449 0.10694 0.7537 0.0
C904 C 0.02964 0.12812 0.74212 0.0
H905 H 0.09902 0.2029 0.65416 0.0
H906 H 0.08135 0.17543 0.70543 0.0
H907 H 0.03028 0.16249 0.64114 0.0
H908 H 0.99173 0.06897 0.73098 0.0
H909 H 0.99828 0.10417 0.71854 0.0
C910 C 0.32553 0.93088 0.72426 0.0
C911 C 0.31981 0.92138 0.68087 0.0
C912 C 0.34171 0.92893 0.74798 0.0
C913 C 0.37655 0.92233 0.79606 0.0
H914 H 0.41229 0.92946 0.69033 0.0
C915 C 0.45748 0.94907 0.764 0.0
C916 C 0.45933 0.96632 0.7867 0.0
C917 C 0.44074 0.9373 0.76031 0.0
C918 C 0.40255 0.92702 0.72063 0.0
H919 H 0.32541 0.90065 0.63199 0.0
H920 H 0.35353 0.8969 0.67406 0.0
H921 H 0.38128 0.91892 0.66854 0.0
H922 H 0.44531 0.98417 0.82615 0.0
H923 H 0.41631 0.96378 0.81971 0.0
H924 H 0.39791 0.93177 0.84727 0.0
C925 C 0.34579 0.9063 0.68888 0.0
C926 C 0.3847 0.92091 0.7082 0.0
C927 C 0.32966 0.90836 0.66495 0.0
C928 C 0.44431 0.97108 0.80787 0.0
C929 C 0.4277 0.95926 0.80477 0.0
C930 C 0.39442 0.92856 0.80841 0.0
C931 C 0.35245 0.91733 0.72895 0.0
C932 C 0.3714 0.91927 0.74526 0.0
C933 C 0.42564 0.94244 0.78005 0.0
C934 C 0.4075 0.93173 0.7703 0.0
H935 H 0.31832 0.94114 0.73715 0.0
H936 H 0.34642 0.93778 0.77843 0.0
H937 H 0.3667 0.92083 0.82577 0.0
H938 H 0.46884 0.945 0.74753 0.0
H939 H 0.43953 0.92439 0.74116 0.0
C940 C 0.4131 0.27282 0.55157 0.0
C941 C 0.40047 0.27428 0.51213 0.0
C942 C 0.41897 0.28814 0.58052 0.0
C943 C 0.42637 0.33986 0.55433 0.0
H944 H 0.44978 0.33811 0.68731 0.0
C945 C 0.48934 0.39335 0.59403 0.0
C946 C 0.49085 0.40146 0.6408 0.0
C947 C 0.47552 0.37815 0.58582 0.0
C948 C 0.44313 0.33891 0.65037 0.0
H949 H 0.3822 0.29175 0.47738 0.0
H950 H 0.39239 0.31854 0.5283 0.0
H951 H 0.42766 0.31055 0.66556 0.0
H952 H 0.47913 0.39973 0.71607 0.0
H953 H 0.45512 0.3729 0.70185 0.0
H954 H 0.4421 0.36795 0.53855 0.0
C955 C 0.3981 0.30573 0.53581 0.0
C956 C 0.43052 0.32312 0.63785 0.0
C957 C 0.39223 0.29038 0.50674 0.0
C958 C 0.4785 0.39362 0.67981 0.0
C959 C 0.46469 0.37834 0.67164 0.0
C960 C 0.43895 0.35557 0.5668 0.0
C961 C 0.41231 0.30523 0.57069 0.0
C962 C 0.42243 0.32319 0.58901 0.0
C963 C 0.46289 0.37068 0.62422 0.0
C964 C 0.44791 0.355 0.61419 0.0
H965 H 0.41984 0.26072 0.55669 0.0
H966 H 0.42996 0.28724 0.6069 0.0
H967 H 0.42059 0.34039 0.51615 0.0
H968 H 0.49879 0.39884 0.56355 0.0
H969 H 0.47471 0.37222 0.54929 0.0
C970 C 0.18792 0.62412 0.65729 0.0
C971 C 0.19778 0.60942 0.65767 0.0
C972 C 0.17226 0.6212 0.68562 0.0
C973 C 0.13356 0.60592 0.70872 0.0
H974 H 0.12293 0.56508 0.8195 0.0
C975 C 0.06365 0.56037 0.73358 0.0
C976 C 0.05863 0.54972 0.78064 0.0
C977 C 0.08059 0.57173 0.72765 0.0
C978 C 0.12549 0.57685 0.78935 0.0
H979 H 0.19955 0.58056 0.68969 0.0
H980 H 0.17215 0.57508 0.73687 0.0
H981 H 0.15345 0.57878 0.799 0.0
H982 H 0.06666 0.54354 0.85952 0.0
H983 H 0.09569 0.56439 0.85059 0.0
H984 H 0.10562 0.60468 0.70077 0.0
C985 C 0.17654 0.58916 0.71661 0.0
C986 C 0.14318 0.58449 0.77683 0.0
C987 C 0.19234 0.59226 0.6893 0.0
C988 C 0.07037 0.55147 0.82257 0.0
C989 C 0.0871 0.56331 0.81718 0.0
C990 C 0.11587 0.59869 0.72228 0.0
C991 C 0.1659 0.60332 0.71378 0.0
C992 C 0.14747 0.59844 0.73464 0.0
C993 C 0.09273 0.57314 0.76918 0.0
C994 C 0.11152 0.58338 0.76115 0.0
H995 H 0.19193 0.63753 0.63333 0.0
H996 H 0.16478 0.63268 0.68357 0.0
H997 H 0.13613 0.61662 0.67595 0.0
H998 H 0.05483 0.55912 0.7006 0.0
H999 H 0.08435 0.57865 0.68975 0.0
C1000 C 0.96466 0.79404 0.96012 0.0
C1001 C 0.94654 0.79349 0.96861 0.0
C1002 C 0.97468 0.80959 0.93049 0.0
C1003 C 0.97412 0.85135 0.83803 0.0
H1004 H 0.00611 0.88023 0.93121 0.0
C1005 C 0.98957 0.93261 0.81318 0.0
C1006 C 0.00554 0.94306 0.83118 0.0
C1007 C 0.98597 0.91268 0.82018 0.0
C1008 C 0.99772 0.87225 0.90394 0.0
H1009 H 0.92434 0.80774 0.94972 0.0
H1010 H 0.9418 0.83474 0.89623 0.0
H1011 H 0.99274 0.84692 0.95721 0.0
H1012 H 0.03058 0.94073 0.86924 0.0
H1013 H 0.02442 0.90552 0.88091 0.0
H1014 H 0.9789 0.87658 0.78474 0.0
C1015 C 0.94822 0.82321 0.91288 0.0
C1016 C 0.99 0.85318 0.91901 0.0
C1017 C 0.93826 0.80786 0.94345 0.0
C1018 C 0.01808 0.93305 0.85544 0.0
C1019 C 0.01453 0.9129 0.86207 0.0
C1020 C 0.98216 0.87028 0.82241 0.0
C1021 C 0.96663 0.82456 0.90805 0.0
C1022 C 0.97759 0.84288 0.88702 0.0
C1023 C 0.99833 0.90249 0.84487 0.0
C1024 C 0.99333 0.88128 0.85625 0.0
H1025 H 0.97138 0.78324 0.9797 0.0
H1026 H 0.98887 0.81044 0.92735 0.0
H1027 H 0.96467 0.84356 0.81268 0.0
H1028 H 0.97952 0.93979 0.79436 0.0
H1029 H 0.97315 0.90534 0.80766 0.0
C1030 C 0.69099 0.07747 0.90421 0.0
C1031 C 0.69534 0.08804 0.94653 0.0
C1032 C 0.676 0.07949 0.87429 0.0
C1033 C 0.63228 0.09005 0.89451 0.0
H1034 H 0.62457 0.07684 0.75497 0.0
C1035 C 0.56195 0.06237 0.81927 0.0
C1036 C 0.56068 0.04473 0.79884 0.0
C1037 C 0.57858 0.07394 0.8263 0.0
C1038 C 0.62652 0.0807 0.79386 0.0
H1039 H 0.68861 0.11061 0.98699 0.0
H1040 H 0.66245 0.11427 0.93437 0.0
H1041 H 0.65481 0.08727 0.78608 0.0
H1042 H 0.57571 0.02598 0.76664 0.0
H1043 H 0.60453 0.04599 0.77915 0.0
H1044 H 0.60411 0.08257 0.90318 0.0
C1045 C 0.67039 0.10408 0.92512 0.0
C1046 C 0.64383 0.08665 0.81168 0.0
C1047 C 0.68538 0.10202 0.95518 0.0
C1048 C 0.57624 0.03939 0.78303 0.0
C1049 C 0.59278 0.051 0.78962 0.0
C1050 C 0.61499 0.08417 0.87664 0.0
C1051 C 0.66504 0.09216 0.88593 0.0
C1052 C 0.64694 0.09057 0.86293 0.0
C1053 C 0.5942 0.06817 0.81244 0.0
C1054 C 0.61198 0.07861 0.82687 0.0
H1055 H 0.69828 0.06647 0.89674 0.0
H1056 H 0.67224 0.06994 0.84476 0.0
H1057 H 0.63413 0.09274 0.93435 0.0
H1058 H 0.55019 0.06691 0.83157 0.0
H1059 H 0.57927 0.08717 0.84371 0.0
C1060 C 0.62686 0.72374 0.0544 0.0
C1061 C 0.61831 0.73959 0.05146 0.0
C1062 C 0.62077 0.7086 0.02483 0.0
C1063 C 0.59289 0.67413 0.006 0.0
H1064 H 0.56931 0.67629 0.8733 0.0
C1065 C 0.53422 0.61589 0.95955 0.0
C1066 C 0.53433 0.60862 0.91194 0.0
C1067 C 0.54621 0.63243 0.96968 0.0
C1068 C 0.57597 0.67542 0.91022 0.0
H1069 H 0.59805 0.75297 0.0108 0.0
H1070 H 0.58757 0.72678 0.95954 0.0
H1071 H 0.59014 0.70447 0.89747 0.0
H1072 H 0.54631 0.61355 0.83649 0.0
H1073 H 0.56732 0.64247 0.85432 0.0
H1074 H 0.57856 0.64529 0.01923 0.0
C1075 C 0.59896 0.72593 0.98445 0.0
C1076 C 0.58785 0.69155 0.92409 0.0
C1077 C 0.60504 0.74105 0.01393 0.0
C1078 C 0.54609 0.61873 0.87378 0.0
C1079 C 0.55803 0.63533 0.88384 0.0
C1080 C 0.58102 0.6581 0.99222 0.0
C1081 C 0.60605 0.70907 0.99185 0.0
C1082 C 0.59614 0.69121 0.97263 0.0
C1083 C 0.5585 0.64207 0.93233 0.0
C1084 C 0.57209 0.65872 0.94478 0.0
H1085 H 0.63735 0.72239 0.08228 0.0
H1086 H 0.62679 0.69596 0.0304 0.0
H1087 H 0.59881 0.67342 0.04398 0.0
H1088 H 0.52538 0.60835 0.98972 0.0
H1089 H 0.54605 0.63752 0.0071 0.0
C1090 C 0.83634 0.39241 0.94299 0.0
C1091 C 0.82518 0.40499 0.92327 0.0
C1092 C 0.85257 0.39272 0.9196 0.0
C1093 C 0.88108 0.41507 0.80693 0.0
H1094 H 0.91828 0.42033 0.91051 0.0
C1095 C 0.94717 0.46756 0.77977 0.0
C1096 C 0.96267 0.4629 0.80341 0.0
C1097 C 0.93098 0.45482 0.786 0.0
C1098 C 0.90815 0.41847 0.8809 0.0
H1099 H 0.82159 0.42667 0.86135 0.0
H1100 H 0.84984 0.42744 0.82103 0.0
H1101 H 0.88789 0.40712 0.93599 0.0
H1102 H 0.97354 0.44077 0.84994 0.0
H1103 H 0.94506 0.4185 0.86137 0.0
H1104 H 0.90138 0.42767 0.75232 0.0
C1105 C 0.84609 0.41709 0.85404 0.0
C1106 C 0.89065 0.41083 0.89549 0.0
C1107 C 0.82983 0.41667 0.87723 0.0
C1108 C 0.9618 0.44481 0.83144 0.0
C1109 C 0.94551 0.43209 0.83809 0.0
C1110 C 0.89859 0.42283 0.79238 0.0
C1111 C 0.85801 0.40575 0.87626 0.0
C1112 C 0.8768 0.40973 0.85896 0.0
C1113 C 0.92987 0.43715 0.81627 0.0
C1114 C 0.91219 0.42528 0.8295 0.0
H1115 H 0.83296 0.38305 0.97808 0.0
H1116 H 0.86126 0.38348 0.93703 0.0
H1117 H 0.87079 0.41406 0.77768 0.0
H1118 H 0.94742 0.48129 0.75737 0.0
H1119 H 0.91916 0.45927 0.76917 0.0
C1120 C 0.08786 0.22441 0.18501 0.0
C1121 C 0.07365 0.23263 0.199 0.0
C1122 C 0.08498 0.20923 0.15433 0.0
C1123 C 0.05013 0.16907 0.12405 0.0
H1124 H 0.08333 0.16261 0.02141 0.0
C1125 C 0.03886 0.10187 0.01268 0.0
C1126 C 0.05379 0.09413 1.00224 0.0
C1127 C 0.04083 0.11961 0.03255 0.0
C1128 C 0.07402 0.16406 0.05036 0.0
H1129 H 0.0454 0.23189 0.19012 0.0
H1130 H 0.04031 0.20529 0.13616 0.0
H1131 H 0.08745 0.19266 0.06072 0.0
H1132 H 0.08259 0.09931 0.00441 0.0
H1133 H 0.086 0.12986 0.04063 0.0
H1134 H 0.03697 0.14034 0.11498 0.0
C1135 C 0.05368 0.21058 0.14922 0.0
C1136 C 0.07634 0.18136 0.07272 0.0
C1137 C 0.05661 0.22594 0.17958 0.0
C1138 C 0.07076 0.10465 0.01244 0.0
C1139 C 0.07273 0.12236 0.03256 0.0
C1140 C 0.04787 0.15173 0.10196 0.0
C1141 C 0.06778 0.20175 0.13721 0.0
C1142 C 0.06451 0.18402 0.11017 0.0
C1143 C 0.05779 0.13012 0.04291 0.0
C1144 C 0.05986 0.1489 0.0651 0.0
H1145 H 0.10114 0.22929 0.19946 0.0
H1146 H 0.09612 0.20273 0.1462 0.0
H1147 H 0.04094 0.17049 0.1534 0.0
H1148 H 0.02556 0.09413 0.00605 0.0
H1149 H 0.029 0.12515 0.0394 0.0
C1150 C 0.31453 0.99435 0.22359 0.0
C1151 C 0.3123 1.00591 0.2621 0.0
C1152 C 0.32526 1.0019 0.1813 0.0
C1153 C 0.36486 0.03784 0.15013 0.0
H1154 H 0.35591 0.02325 0.01218 0.0
C1155 C 0.4197 0.0565 0.99615 0.0
C1156 C 0.42111 0.04192 0.96522 0.0
C1157 C 0.40484 0.05499 0.02724 0.0
C1158 C 0.35869 0.02736 0.05059 0.0
H1159 H 0.31882 0.03458 0.28576 0.0
H1160 H 0.33781 0.04788 0.21163 0.0
H1161 H 0.33199 0.01575 0.07488 0.0
H1162 H 0.40751 0.01467 0.94134 0.0
H1163 H 0.38206 0.0117 0.99673 0.0
H1164 H 0.39171 0.04861 0.12697 0.0
C1165 C 0.33119 0.03298 0.21416 0.0
C1166 C 0.34493 0.02315 0.08639 0.0
C1167 C 0.32022 0.02545 0.25624 0.0
C1168 C 0.40706 0.02604 0.96526 0.0
C1169 C 0.39228 0.02448 0.99653 0.0
C1170 C 0.37865 0.04191 0.11448 0.0
C1171 C 0.33421 0.02113 0.17698 0.0
C1172 C 0.34795 0.02801 0.13685 0.0
C1173 C 0.39103 0.03883 0.0284 0.0
C1174 C 0.37586 0.03636 0.06452 0.0
H1175 H 0.30861 0.97921 0.22749 0.0
H1176 H 0.32742 0.99235 0.15364 0.0
H1177 H 0.36769 0.04153 0.18891 0.0
H1178 H 0.4303 0.06888 0.99748 0.0
H1179 H 0.40427 0.06646 0.05071 0.0
C1180 C 0.4692 0.30973 0.08594 0.0
C1181 C 0.45134 0.30045 0.08503 0.0
C1182 C 0.47522 0.32608 0.05186 0.0
C1183 C 0.46417 0.3551 0.93325 0.0
H1184 H 0.48866 0.39831 1.00173 0.0
C1185 C 0.4925 0.43029 0.82717 0.0
C1186 C 0.48976 0.44634 0.85051 0.0
C1187 C 0.48789 0.41174 0.85241 0.0
C1188 C 0.48178 0.3864 0.98207 0.0
H1189 H 0.42611 0.30007 0.04566 0.0
H1190 H 0.43665 0.32834 0.98559 0.0
H1191 H 0.48169 0.36651 0.04939 0.0
H1192 H 0.47962 0.45543 0.91826 0.0
H1193 H 0.47166 0.42305 0.96256 0.0
H1194 H 0.46409 0.37514 0.86605 0.0
C1195 C 0.44601 0.32313 0.01262 0.0
C1196 C 0.478 0.36812 0.00919 0.0
C1197 C 0.43996 0.30695 0.04703 0.0
C1198 C 0.48188 0.44338 0.89918 0.0
C1199 C 0.47747 0.42485 0.92473 0.0
C1200 C 0.46815 0.37337 0.90592 0.0
C1201 C 0.46353 0.33331 0.01587 0.0
C1202 C 0.46898 0.35229 0.9853 0.0
C1203 C 0.48062 0.40884 0.90191 0.0
C1204 C 0.47679 0.38928 0.93024 0.0
H1205 H 0.47819 0.30512 0.11517 0.0
H1206 H 0.48885 0.3335 0.0549 0.0
H1207 H 0.45725 0.34318 0.91374 0.0
H1208 H 0.4984 0.43207 0.78955 0.0
H1209 H 0.49052 0.39973 0.83379 0.0
C1210 C 0.22395 0.54874 0.22001 0.0
C1211 C 0.21758 0.5522 0.26734 0.0
C1212 C 0.21204 0.54229 0.18116 0.0
C1213 C 0.16699 0.54397 0.13611 0.0
H1214 H 0.16709 0.49701 0.07414 0.0
C1215 C 0.10511 0.50667 0.03593 0.0
C1216 C 0.1069 0.49826 0.99083 0.0
C1217 C 0.11999 0.5135 0.06504 0.0
C1218 C 0.16705 0.51034 0.09038 0.0
H1219 H 0.19368 0.55026 0.31182 0.0
H1220 H 0.1732 0.53981 0.24395 0.0
H1221 H 0.19129 0.50881 0.1325 0.0
H1222 H 0.12572 0.49012 0.94123 0.0
H1223 H 0.15192 0.50229 0.99209 0.0
H1224 H 0.14289 0.54566 0.09471 0.0
C1225 C 0.18733 0.54235 0.23658 0.0
C1226 C 0.18089 0.51705 0.12375 0.0
C1227 C 0.19912 0.54848 0.27535 0.0
C1228 C 0.12394 0.49646 0.97599 0.0
C1229 C 0.13892 0.50343 0.00511 0.0
C1230 C 0.15332 0.5374 0.10258 0.0
C1231 C 0.19363 0.53941 0.18895 0.0
C1232 C 0.18067 0.53363 0.14797 0.0
C1233 C 0.13712 0.51224 0.04969 0.0
C1234 C 0.15286 0.52019 0.08051 0.0
H1235 H 0.23807 0.55142 0.21257 0.0
H1236 H 0.21718 0.54005 0.14469 0.0
H1237 H 0.16667 0.55696 0.15373 0.0
H1238 H 0.09213 0.50789 0.04896 0.0
H1239 H 0.11803 0.5197 0.09991 0.0
C1240 C 0.96025 0.7797 0.44106 0.0
C1241 C 0.94455 0.77566 0.41204 0.0
C1242 C 0.96269 0.79451 0.4733 0.0
C1243 C 0.93873 0.82808 0.53212 0.0
H1244 H 0.98488 0.86174 0.52536 0.0
C1245 C 0.94985 0.90677 0.58028 0.0
C1246 C 0.96504 0.91364 0.60913 0.0
C1247 C 0.94742 0.88861 0.56254 0.0
C1248 C 0.97197 0.85237 0.52819 0.0
H1249 H 0.91864 0.78307 0.39697 0.0
H1250 H 0.92295 0.80891 0.45181 0.0
H1251 H 0.98044 0.83185 0.48539 0.0
H1252 H 0.98934 0.90625 0.64296 0.0
H1253 H 0.98525 0.87484 0.61082 0.0
H1254 H 0.93015 0.84905 0.57327 0.0
C1255 C 0.93341 0.80071 0.45034 0.0
C1256 C 0.96943 0.83514 0.50545 0.0
C1257 C 0.93097 0.78595 0.41839 0.0
C1258 C 0.97766 0.90171 0.61997 0.0
C1259 C 0.9753 0.88363 0.60176 0.0
C1260 C 0.94124 0.84539 0.55438 0.0
C1261 C 0.94947 0.80556 0.47731 0.0
C1262 C 0.95269 0.82287 0.50637 0.0
C1263 C 0.96016 0.87687 0.57275 0.0
C1264 C 0.95782 0.85787 0.55206 0.0
H1265 H 0.97099 0.7721 0.43689 0.0
H1266 H 0.97511 0.79758 0.49414 0.0
H1267 H 0.92576 0.81886 0.53466 0.0
H1268 H 0.93998 0.91558 0.57037 0.0
H1269 H 0.93573 0.88395 0.53969 0.0
C1270 C 0.71671 0.01182 0.38335 0.0
C1271 C 0.71726 0.99901 0.34668 0.0
C1272 C 0.70454 0.00704 0.42349 0.0
C1273 C 0.67086 0.96724 0.4885 0.0
H1274 H 0.64865 0.00964 0.51553 0.0
C1275 C 0.60279 0.95815 0.59005 0.0
C1276 C 0.60118 0.9713 0.62524 0.0
C1277 C 0.61823 0.96032 0.56096 0.0
C1278 C 0.65485 0.99768 0.509 0.0
H1279 H 0.70608 0.97097 0.32378 0.0
H1280 H 0.6844 0.96266 0.3932 0.0
H1281 H 0.67356 0.01539 0.4572 0.0
H1282 H 0.61505 0.99649 0.65912 0.0
H1283 H 0.64176 1.00043 0.60783 0.0
H1284 H 0.65151 0.94947 0.53929 0.0
C1285 C 0.69363 0.97623 0.39195 0.0
C1286 C 0.66924 1.00098 0.47563 0.0
C1287 C 0.70604 0.98094 0.35216 0.0
C1288 C 0.61562 0.98634 0.63159 0.0
C1289 C 0.63097 0.98858 0.60231 0.0
C1290 C 0.6563 0.96392 0.52164 0.0
C1291 C 0.69233 0.98949 0.4272 0.0
C1292 C 0.67748 0.98583 0.46483 0.0
C1293 C 0.63237 0.97576 0.56615 0.0
C1294 C 0.64813 0.97912 0.53221 0.0
H1295 H 0.72524 0.02587 0.37971 0.0
H1296 H 0.7043 0.01741 0.4506 0.0
H1297 H 0.67694 0.95525 0.48157 0.0
H1298 H 0.5919 0.94651 0.58368 0.0
H1299 H 0.61883 0.95031 0.53306 0.0
C1300 C 0.58589 0.70327 0.52015 0.0
C1301 C 0.57375 0.70949 0.48414 0.0
C1302 C 0.58081 0.6867 0.55398 0.0
C1303 C 0.54213 0.64989 0.60428 0.0
H1304 H 0.57699 0.61673 0.61629 0.0
C1305 C 0.52965 0.5766 0.72856 0.0
C1306 C 0.53503 0.56107 0.7086 0.0
C1307 C 0.53476 0.59534 0.70512 0.0
C1308 C 0.56705 0.62573 0.61313 0.0
H1309 H 0.54654 0.70391 0.45715 0.0
H1310 H 0.53759 0.67481 0.51599 0.0
H1311 H 0.58442 0.64861 0.57017 0.0
H1312 H 0.55026 0.55319 0.64861 0.0
H1313 H 0.55897 0.58587 0.60709 0.0
H1314 H 0.52453 0.62665 0.64565 0.0
C1315 C 0.55101 0.68283 0.51863 0.0
C1316 C 0.5714 0.64418 0.58729 0.0
C1317 C 0.55609 0.69955 0.48498 0.0
C1318 C 0.54594 0.56481 0.66511 0.0
C1319 C 0.55099 0.58359 0.64143 0.0
C1320 C 0.53776 0.63138 0.63011 0.0
C1321 C 0.5635 0.6758 0.55226 0.0
C1322 C 0.55899 0.65651 0.58229 0.0
C1323 C 0.54532 0.59909 0.66085 0.0
C1324 C 0.55013 0.619 0.63461 0.0
H1325 H 0.59959 0.71073 0.52037 0.0
H1326 H 0.59066 0.68205 0.58025 0.0
H1327 H 0.53227 0.65899 0.60152 0.0
H1328 H 0.52134 0.57431 0.76225 0.0
H1329 H 0.53044 0.60691 0.72182 0.0
C1330 C 0.81749 0.45776 0.36223 0.0
C1331 C 0.81056 0.46916 0.32262 0.0
C1332 C 0.82684 0.4661 0.4031 0.0
C1333 C 0.85436 0.51164 0.43157 0.0
H1334 H 0.85381 0.48595 0.56979 0.0
C1335 C 0.90392 0.54056 0.58823 0.0
C1336 C 0.91199 0.52669 0.61703 0.0
C1337 C 0.88926 0.535 0.55655 0.0
C1338 C 0.85416 0.49328 0.53132 0.0
H1339 H 0.80726 0.49812 0.296 0.0
H1340 H 0.82352 0.51274 0.36788 0.0
H1341 H 0.83146 0.4736 0.50756 0.0
H1342 H 0.91099 0.49606 0.63466 0.0
H1343 H 0.88553 0.48643 0.57982 0.0
H1344 H 0.87737 0.53097 0.45483 0.0
C1345 C 0.82185 0.49735 0.36696 0.0
C1346 C 0.84134 0.48622 0.49571 0.0
C1347 C 0.81239 0.48897 0.32611 0.0
C1348 C 0.90491 0.50715 0.61389 0.0
C1349 C 0.89028 0.5016 0.58238 0.0
C1350 C 0.86719 0.5187 0.4672 0.0
C1351 C 0.82954 0.48606 0.40529 0.0
C1352 C 0.84154 0.49504 0.44507 0.0
C1353 C 0.88234 0.51544 0.55304 0.0
C1354 C 0.86749 0.50933 0.51714 0.0
H1355 H 0.81614 0.44243 0.36078 0.0
H1356 H 0.8327 0.45698 0.43167 0.0
H1357 H 0.85505 0.51865 0.39272 0.0
H1358 H 0.90889 0.55573 0.59025 0.0
H1359 H 0.88334 0.54601 0.53482 0.0
loop_
_geom_bond_atom_site_label_1
_geom_bond_atom_site_label_2
_geom_bond_distance
_geom_bond_site_symmetry_2
_ccdc_geom_bond_type
C0 C1 1.391 . S
C0 C4 1.391 . S
C0 H42 0.948 . S
C1 C0 1.391 . S
C1 C2 1.391 . S
C2 C1 1.391 . S
C2 H58 0.947 . S
C2 C59 1.392 . S
C3 C4 1.391 . S
C3 C7 1.397 . S
C3 C59 1.419 . S
C4 C0 1.391 . S
C4 C3 1.391 . S
C4 C5 1.399 . S
C5 C4 1.399 . S
C5 C8 1.396 . S
C5 C17 1.453 . S
C5 C18 1.684 . S
H6 C30 0.948 . S
C7 C3 1.397 . S
C7 C8 1.394 . S
C7 C26 1.723 . S
C8 C5 1.396 . S
C8 C7 1.394 . S
C8 C38 1.723 . S
H9 C32 0.947 . S
H10 C33 0.948 . S
H11 C39 0.982 . S
H12 C40 0.979 . S
H13 C40 0.980 . S
H14 C40 0.983 . S
H15 C39 0.979 . S
H16 C39 0.977 . S
C17 C5 1.453 . S
C17 H46 0.982 . S
C17 H47 0.979 . S
C17 H48 0.977 . S
C18 C5 1.684 . S
C18 H43 0.979 . S
C18 H44 0.980 . S
C18 H45 0.983 . S
C19 C20 1.391 . S
C19 C24 1.391 . S
C19 H49 0.948 . S
C20 C19 1.391 . S
C20 C21 1.391 . S
C21 C20 1.391 . S
C21 C22 1.392 . S
C21 H50 0.947 . S
C22 C21 1.392 . S
C22 C23 1.419 . S
C22 H51 0.948 . S
C23 C22 1.419 . S
C23 C24 1.391 . S
C23 C27 1.392 1_556 S
C24 C19 1.391 . S
C24 C23 1.391 . S
C24 C25 1.399 1_556 S
C25 C24 1.399 1_554 S
C25 C26 1.396 . S
C25 C28 1.453 . S
C25 C29 1.684 . S
C26 C7 1.723 . S
C26 C25 1.396 . S
C26 C27 1.398 . S
C27 C23 1.392 1_554 S
C27 C26 1.398 . S
C27 C37 1.723 1_554 S
C28 C25 1.453 . S
C28 H52 0.982 . S
C28 H53 0.979 . S
C28 H54 0.977 . S
C29 C25 1.684 . S
C29 H55 0.979 . S
C29 H56 0.980 . S
C29 H57 0.983 . S
C30 H6 0.948 . S
C30 C31 1.391 1_556 S
C30 C35 1.391 . S
C31 C30 1.391 1_554 S
C31 C32 1.391 . S
C32 H9 0.947 . S
C32 C31 1.391 . S
C32 C33 1.392 . S
C33 H10 0.948 . S
C33 C32 1.392 . S
C33 C34 1.419 . S
C34 C33 1.419 . S
C34 C35 1.391 1_554 S
C34 C38 1.397 . S
C35 C30 1.391 . S
C35 C34 1.391 1_556 S
C35 C36 1.399 . S
C36 C35 1.399 . S
C36 C37 1.396 . S
C36 C39 1.453 . S
C36 C40 1.684 . S
C37 C27 1.723 1_556 S
C37 C36 1.396 . S
C37 C38 1.394 1_556 S
C38 C8 1.723 . S
C38 C34 1.397 . S
C38 C37 1.394 1_554 S
C39 H11 0.982 . S
C39 H15 0.979 . S
C39 H16 0.977 . S
C39 C36 1.453 . S
C40 H12 0.979 . S
C40 H13 0.980 . S
C40 H14 0.983 . S
C40 C36 1.684 . S
H41 C59 0.948 . S
H42 C0 0.948 . S
H43 C18 0.979 . S
H44 C18 0.980 . S
H45 C18 0.983 . S
H46 C17 0.982 . S
H47 C17 0.979 . S
H48 C17 0.977 . S
H49 C19 0.948 . S
H50 C21 0.947 . S
H51 C22 0.948 . S
H52 C28 0.982 . S
H53 C28 0.979 . S
H54 C28 0.977 . S
H55 C29 0.979 . S
H56 C29 0.980 . S
H57 C29 0.983 . S
H58 C2 0.947 . S
C59 C2 1.392 . S
C59 C3 1.419 . S
C59 H41 0.948 . S
C60 C61 1.391 . S
C60 C64 1.391 . S
C60 H102 0.948 . S
C61 C60 1.391 . S
C61 C62 1.391 . S
C62 C61 1.391 . S
C62 H118 0.947 . S
C62 C119 1.392 . S
C63 C64 1.391 . S
C63 C67 1.397 1_556 S
C63 C119 1.419 . S
C64 C60 1.391 . S
C64 C63 1.391 . S
C64 C65 1.399 . S
C65 C64 1.399 . S
C65 C68 1.396 . S
C65 C77 1.453 . S
C65 C78 1.684 . S
H66 C90 0.948 . S
C67 C63 1.397 1_554 S
C67 C68 1.394 1_554 S
C67 C86 1.723 . S
C68 C65 1.396 . S
C68 C67 1.394 1_556 S
C68 C98 1.723 1_556 S
H69 C92 0.947 . S
H70 C93 0.948 . S
H71 C99 0.982 . S
H72 C100 0.979 . S
H73 C100 0.980 . S
H74 C100 0.983 . S
H75 C99 0.979 . S
H76 C99 0.977 . S
C77 C65 1.453 . S
C77 H106 0.982 . S
C77 H107 0.979 . S
C77 H108 0.977 . S
C78 C65 1.684 . S
C78 H103 0.979 . S
C78 H104 0.980 . S
C78 H105 0.983 . S
C79 C80 1.391 . S
C79 C84 1.391 . S
C79 H109 0.948 . S
C80 C79 1.391 . S
C80 C81 1.391 . S
C81 C80 1.391 . S
C81 C82 1.392 . S
C81 H110 0.947 . S
C82 C81 1.392 . S
C82 C83 1.419 . S
C82 H111 0.948 . S
C83 C82 1.419 . S
C83 C84 1.391 . S
C83 C87 1.397 . S
C84 C79 1.391 . S
C84 C83 1.391 . S
C84 C85 1.399 . S
C85 C84 1.399 . S
C85 C86 1.396 . S
C85 C88 1.453 . S
C85 C89 1.684 . S
C86 C67 1.723 . S
C86 C85 1.396 . S
C86 C87 1.394 . S
C87 C83 1.397 . S
C87 C86 1.394 . S
C87 C97 1.723 . S
C88 C85 1.453 . S
C88 H112 0.982 . S
C88 H113 0.979 . S
C88 H114 0.977 . S
C89 C85 1.684 . S
C89 H115 0.979 . S
C89 H116 0.980 . S
C89 H117 0.983 . S
C90 H66 0.948 . S
C90 C91 1.403 . S
C90 C95 1.391 . S
C91 C90 1.403 . S
C91 C92 1.382 1_554 S
C92 H69 0.947 . S
C92 C91 1.382 1_556 S
C92 C93 1.392 . S
C93 H70 0.948 . S
C93 C92 1.392 . S
C93 C94 1.419 1_556 S
C94 C93 1.419 1_554 S
C94 C95 1.391 . S
C94 C98 1.397 . S
C95 C90 1.391 . S
C95 C94 1.391 . S
C95 C96 1.399 . S
C96 C95 1.399 . S
C96 C97 1.396 . S
C96 C99 1.453 . S
C96 C100 1.684 . S
C97 C87 1.723 . S
C97 C96 1.396 . S
C97 C98 1.394 . S
C98 C68 1.723 1_554 S
C98 C94 1.397 . S
C98 C97 1.394 . S
C99 H71 0.982 . S
C99 H75 0.979 . S
C99 H76 0.977 . S
C99 C96 1.453 . S
C100 H72 0.979 . S
C100 H73 0.980 . S
C100 H74 0.983 . S
C100 C96 1.684 . S
H101 C119 0.948 1_554 S
H102 C60 0.948 . S
H103 C78 0.979 . S
H104 C78 0.980 . S
H105 C78 0.983 . S
H106 C77 0.982 . S
H107 C77 0.979 . S
H108 C77 0.977 . S
H109 C79 0.948 . S
H110 C81 0.947 . S
H111 C82 0.948 . S
H112 C88 0.982 . S
H113 C88 0.979 . S
H114 C88 0.977 . S
H115 C89 0.979 . S
H116 C89 0.980 . S
H117 C89 0.983 . S
H118 C62 0.947 . S
C119 C62 1.392 . S
C119 C63 1.419 . S
C119 H101 0.948 1_556 S
C120 C121 1.391 . S
C120 C124 1.391 1_556 S
C120 H162 0.948 1_556 S
C121 C120 1.391 . S
C121 C122 1.391 . S
C122 C121 1.391 . S
C122 H178 0.947 . S
C122 C179 1.392 . S
C123 C124 1.391 1_556 S
C123 C127 1.398 1_565 S
C123 C179 1.419 . S
C124 C120 1.391 1_554 S
C124 C123 1.391 1_554 S
C124 C125 1.399 . S
C125 C124 1.399 . S
C125 C128 1.380 1_565 S
C125 C137 1.453 1_565 S
C125 C138 1.684 . S
H126 C150 0.948 . S
C127 C123 1.398 1_545 S
C127 C128 1.387 1_556 S
C127 C146 1.717 . S
C128 C125 1.380 1_545 S
C128 C127 1.387 1_554 S
C128 C158 1.735 . S
H129 C152 0.947 . S
H130 C153 0.948 . S
H131 C159 0.982 . S
H132 C160 0.979 . S
H133 C160 0.980 . S
H134 C160 0.983 . S
H135 C159 0.979 . S
H136 C159 0.977 . S
C137 C125 1.453 1_545 S
C137 H166 0.982 . S
C137 H167 0.979 . S
C137 H168 0.977 . S
C138 C125 1.684 . S
C138 H163 0.979 . S
C138 H164 0.980 . S
C138 H165 0.983 . S
C139 C140 1.391 . S
C139 C144 1.391 . S
C139 H169 0.948 . S
C140 C139 1.391 . S
C140 C141 1.391 . S
C141 C140 1.391 . S
C141 C142 1.392 . S
C141 H170 0.947 . S
C142 C141 1.392 . S
C142 C143 1.419 . S
C142 H171 0.948 . S
C143 C142 1.419 . S
C143 C144 1.391 . S
C143 C147 1.397 1_565 S
C144 C139 1.391 . S
C144 C143 1.391 . S
C144 C145 1.399 . S
C145 C144 1.399 . S
C145 C146 1.385 1_565 S
C145 C148 1.453 1_565 S
C145 C149 1.684 . S
C146 C127 1.717 . S
C146 C145 1.385 1_545 S
C146 C147 1.406 . S
C147 C143 1.397 1_545 S
C147 C146 1.406 . S
C147 C157 1.713 1_556 S
C148 C145 1.453 1_545 S
C148 H172 0.982 . S
C148 H173 0.979 . S
C148 H174 0.977 . S
C149 C145 1.684 . S
C149 H175 0.979 . S
C149 H176 0.980 . S
C149 H177 0.983 . S
C150 H126 0.948 . S
C150 C151 1.391 . S
C150 C155 1.391 . S
C151 C150 1.391 . S
C151 C152 1.391 . S
C152 H129 0.947 . S
C152 C151 1.391 . S
C152 C153 1.392 . S
C153 H130 0.948 . S
C153 C152 1.392 . S
C153 C154 1.419 . S
C154 C153 1.419 . S
C154 C155 1.391 . S
C154 C158 1.396 1_565 S
C155 C150 1.391 . S
C155 C154 1.391 . S
C155 C156 1.399 . S
C156 C155 1.399 . S
C156 C157 1.400 1_565 S
C156 C159 1.453 1_565 S
C156 C160 1.684 . S
C157 C147 1.713 1_554 S
C157 C156 1.400 1_545 S
C157 C158 1.386 . S
C158 C128 1.735 . S
C158 C154 1.396 1_545 S
C158 C157 1.386 . S
C159 H131 0.982 . S
C159 H135 0.979 . S
C159 H136 0.977 . S
C159 C156 1.453 1_545 S
C160 H132 0.979 . S
C160 H133 0.980 . S
C160 H134 0.983 . S
C160 C156 1.684 . S
H161 C179 0.948 . S
H162 C120 0.948 1_554 S
H163 C138 0.979 . S
H164 C138 0.980 . S
H165 C138 0.983 . S
H166 C137 0.982 . S
H167 C137 0.979 . S
H168 C137 0.977 . S
H169 C139 0.948 . S
H170 C141 0.947 . S
H171 C142 0.948 . S
H172 C148 0.982 . S
H173 C148 0.979 . S
H174 C148 0.977 . S
H175 C149 0.979 . S
H176 C149 0.980 . S
H177 C149 0.983 . S
H178 C122 0.947 . S
C179 C122 1.392 . S
C179 C123 1.419 . S
C179 H161 0.948 . S
C180 C181 1.391 . S
C180 C184 1.391 . S
C180 H222 0.948 . S
C181 C180 1.391 . S
C181 C182 1.391 . S
C182 C181 1.391 . S
C182 H238 0.947 . S
C182 C239 1.392 . S
C183 C184 1.391 . S
C183 C187 1.397 . S
C183 C239 1.419 . S
C184 C180 1.391 . S
C184 C183 1.391 . S
C184 C185 1.399 . S
C185 C184 1.399 . S
C185 C188 1.396 . S
C185 C197 1.453 . S
C185 C198 1.684 . S
H186 C210 0.948 . S
C187 C183 1.397 . S
C187 C188 1.394 . S
C187 C206 1.723 . S
C188 C185 1.396 . S
C188 C187 1.394 . S
C188 C218 1.723 . S
H189 C212 0.947 . S
H190 C213 0.948 . S
H191 C219 0.982 . S
H192 C220 0.979 . S
H193 C220 0.980 . S
H194 C220 0.983 . S
H195 C219 0.979 . S
H196 C219 0.977 . S
C197 C185 1.453 . S
C197 H226 0.982 . S
C197 H227 0.979 . S
C197 H228 0.977 . S
C198 C185 1.684 . S
C198 H223 0.979 . S
C198 H224 0.980 . S
C198 H225 0.983 . S
C199 C200 1.391 . S
C199 C204 1.391 . S
C199 H229 0.948 . S
C200 C199 1.391 . S
C200 C201 1.391 . S
C201 C200 1.391 . S
C201 C202 1.392 . S
C201 H230 0.947 . S
C202 C201 1.392 . S
C202 C203 1.419 . S
C202 H231 0.948 . S
C203 C202 1.419 . S
C203 C204 1.391 . S
C203 C207 1.397 . S
C204 C199 1.391 . S
C204 C203 1.391 . S
C204 C205 1.399 . S
C205 C204 1.399 . S
C205 C206 1.396 . S
C205 C208 1.453 . S
C205 C209 1.684 . S
C206 C187 1.723 . S
C206 C205 1.396 . S
C206 C207 1.394 . S
C207 C203 1.397 . S
C207 C206 1.394 . S
C207 C217 1.723 . S
C208 C205 1.453 . S
C208 H232 0.982 . S
C208 H233 0.979 . S
C208 H234 0.977 . S
C209 C205 1.684 . S
C209 H235 0.979 . S
C209 H236 0.980 . S
C209 H237 0.983 . S
C210 H186 0.948 . S
C210 C211 1.391 . S
C210 C215 1.391 . S
C211 C210 1.391 . S
C211 C212 1.391 . S
C212 H189 0.947 . S
C212 C211 1.391 . S
C212 C213 1.392 . S
C213 H190 0.948 . S
C213 C212 1.392 . S
C213 C214 1.419 . S
C214 C213 1.419 . S
C214 C215 1.391 . S
C214 C218 1.397 . S
C215 C210 1.391 . S
C215 C214 1.391 . S
C215 C216 1.399 . S
C216 C215 1.399 . S
C216 C217 1.396 . S
C216 C219 1.453 . S
C216 C220 1.684 . S
C217 C207 1.723 . S
C217 C216 1.396 . S
C217 C218 1.394 . S
C218 C188 1.723 . S
C218 C214 1.397 . S
C218 C217 1.394 . S
C219 H191 0.982 . S
C219 H195 0.979 . S
C219 H196 0.977 . S
C219 C216 1.453 . S
C220 H192 0.979 . S
C220 H193 0.980 . S
C220 H194 0.983 . S
C220 C216 1.684 . S
H221 C239 0.948 . S
H222 C180 0.948 . S
H223 C198 0.979 . S
H224 C198 0.980 . S
H225 C198 0.983 . S
H226 C197 0.982 . S
H227 C197 0.979 . S
H228 C197 0.977 . S
H229 C199 0.948 . S
H230 C201 0.947 . S
H231 C202 0.948 . S
H232 C208 0.982 . S
H233 C208 0.979 . S
H234 C208 0.977 . S
H235 C209 0.979 . S
H236 C209 0.980 . S
H237 C209 0.983 . S
H238 C182 0.947 . S
C239 C182 1.392 . S
C239 C183 1.419 . S
C239 H221 0.948 . S
C240 C241 1.391 . S
C240 C244 1.391 . S
C240 H282 0.948 . S
C241 C240 1.391 . S
C241 C242 1.391 . S
C242 C241 1.391 . S
C242 H298 0.947 . S
C242 C299 1.392 . S
C243 C244 1.391 . S
C243 C247 1.397 . S
C243 C299 1.419 . S
C244 C240 1.391 . S
C244 C243 1.391 . S
C244 C245 1.399 . S
C245 C244 1.399 . S
C245 C248 1.396 . S
C245 C257 1.453 . S
C245 C258 1.684 . S
H246 C270 0.948 . S
C247 C243 1.397 . S
C247 C248 1.394 . S
C247 C266 1.723 . S
C248 C245 1.396 . S
C248 C247 1.394 . S
C248 C278 1.723 . S
H249 C272 0.947 . S
H250 C273 0.948 . S
H251 C279 0.982 . S
H252 C280 0.979 . S
H253 C280 0.980 . S
H254 C280 0.983 . S
H255 C279 0.979 . S
H256 C279 0.977 . S
C257 C245 1.453 . S
C257 H286 0.982 . S
C257 H287 0.979 . S
C257 H288 0.977 . S
C258 C245 1.684 . S
C258 H283 0.979 . S
C258 H284 0.980 . S
C258 H285 0.983 . S
C259 C260 1.391 . S
C259 C264 1.391 . S
C259 H289 0.948 . S
C260 C259 1.391 . S
C260 C261 1.391 . S
C261 C260 1.391 . S
C261 C262 1.392 . S
C261 H290 0.947 . S
C262 C261 1.392 . S
C262 C263 1.419 . S
C262 H291 0.948 . S
C263 C262 1.419 . S
C263 C264 1.391 . S
C263 C267 1.397 . S
C264 C259 1.391 . S
C264 C263 1.391 . S
C264 C265 1.399 . S
C265 C264 1.399 . S
C265 C266 1.396 . S
C265 C268 1.453 . S
C265 C269 1.684 . S
C266 C247 1.723 . S
C266 C265 1.396 . S
C266 C267 1.394 . S
C267 C263 1.397 . S
C267 C266 1.394 . S
C267 C277 1.723 . S
C268 C265 1.453 . S
C268 H292 0.982 . S
C268 H293 0.979 . S
C268 H294 0.977 . S
C269 C265 1.684 . S
C269 H295 0.979 . S
C269 H296 0.980 . S
C269 H297 0.983 . S
C270 H246 0.948 . S
C270 C271 1.391 . S
C270 C275 1.391 . S
C271 C270 1.391 . S
C271 C272 1.391 . S
C272 H249 0.947 . S
C272 C271 1.391 . S
C272 C273 1.392 . S
C273 H250 0.948 . S
C273 C272 1.392 . S
C273 C274 1.419 . S
C274 C273 1.419 . S
C274 C275 1.391 . S
C274 C278 1.397 . S
C275 C270 1.391 . S
C275 C274 1.391 . S
C275 C276 1.399 . S
C276 C275 1.399 . S
C276 C277 1.396 . S
C276 C279 1.453 . S
C276 C280 1.684 . S
C277 C267 1.723 . S
C277 C276 1.396 . S
C277 C278 1.394 . S
C278 C248 1.723 . S
C278 C274 1.397 . S
C278 C277 1.394 . S
C279 H251 0.982 . S
C279 H255 0.979 . S
C279 H256 0.977 . S
C279 C276 1.453 . S
C280 H252 0.979 . S
C280 H253 0.980 . S
C280 H254 0.983 . S
C280 C276 1.684 . S
H281 C299 0.948 . S
H282 C240 0.948 . S
H283 C258 0.979 . S
H284 C258 0.980 . S
H285 C258 0.983 . S
H286 C257 0.982 . S
H287 C257 0.979 . S
H288 C257 0.977 . S
H289 C259 0.948 . S
H290 C261 0.947 . S
H291 C262 0.948 . S
H292 C268 0.982 . S
H293 C268 0.979 . S
H294 C268 0.977 . S
H295 C269 0.979 . S
H296 C269 0.980 . S
H297 C269 0.983 . S
H298 C242 0.947 . S
C299 C242 1.392 . S
C299 C243 1.419 . S
C299 H281 0.948 . S
C300 C301 1.391 . S
C300 C304 1.391 . S
C300 H342 0.948 . S
C301 C300 1.391 . S
C301 C302 1.391 . S
C302 C301 1.391 . S
C302 H358 0.947 . S
C302 C359 1.392 . S
C303 C304 1.391 . S
C303 C307 1.397 . S
C303 C359 1.419 . S
C304 C300 1.391 . S
C304 C303 1.391 . S
C304 C305 1.399 . S
C305 C304 1.399 . S
C305 C308 1.396 . S
C305 C317 1.453 . S
C305 C318 1.684 . S
H306 C330 0.948 . S
C307 C303 1.397 . S
C307 C308 1.394 . S
C307 C326 1.723 . S
C308 C305 1.396 . S
C308 C307 1.394 . S
C308 C338 1.723 . S
H309 C332 0.947 . S
H310 C333 0.948 . S
H311 C339 0.982 . S
H312 C340 0.979 . S
H313 C340 0.980 . S
H314 C340 0.983 . S
H315 C339 0.979 . S
H316 C339 0.977 . S
C317 C305 1.453 . S
C317 H346 0.982 . S
C317 H347 0.979 . S
C317 H348 0.977 . S
C318 C305 1.684 . S
C318 H343 0.979 . S
C318 H344 0.980 . S
C318 H345 0.983 . S
C319 C320 1.391 . S
C319 C324 1.391 . S
C319 H349 0.948 . S
C320 C319 1.391 . S
C320 C321 1.391 . S
C321 C320 1.391 . S
C321 C322 1.392 . S
C321 H350 0.947 . S
C322 C321 1.392 . S
C322 C323 1.419 . S
C322 H351 0.948 . S
C323 C322 1.419 . S
C323 C324 1.391 . S
C323 C327 1.397 . S
C324 C319 1.391 . S
C324 C323 1.391 . S
C324 C325 1.399 . S
C325 C324 1.399 . S
C325 C326 1.396 . S
C325 C328 1.453 . S
C325 C329 1.684 . S
C326 C307 1.723 . S
C326 C325 1.396 . S
C326 C327 1.394 . S
C327 C323 1.397 . S
C327 C326 1.394 . S
C327 C337 1.723 . S
C328 C325 1.453 . S
C328 H352 0.982 . S
C328 H353 0.979 . S
C328 H354 0.977 . S
C329 C325 1.684 . S
C329 H355 0.979 . S
C329 H356 0.980 . S
C329 H357 0.983 . S
C330 H306 0.948 . S
C330 C331 1.391 . S
C330 C335 1.391 . S
C331 C330 1.391 . S
C331 C332 1.391 . S
C332 H309 0.947 . S
C332 C331 1.391 . S
C332 C333 1.392 . S
C333 H310 0.948 . S
C333 C332 1.392 . S
C333 C334 1.419 . S
C334 C333 1.419 . S
C334 C335 1.391 . S
C334 C338 1.397 . S
C335 C330 1.391 . S
C335 C334 1.391 . S
C335 C336 1.399 . S
C336 C335 1.399 . S
C336 C337 1.396 . S
C336 C339 1.453 . S
C336 C340 1.684 . S
C337 C327 1.723 . S
C337 C336 1.396 . S
C337 C338 1.394 . S
C338 C308 1.723 . S
C338 C334 1.397 . S
C338 C337 1.394 . S
C339 H311 0.982 . S
C339 H315 0.979 . S
C339 H316 0.977 . S
C339 C336 1.453 . S
C340 H312 0.979 . S
C340 H313 0.980 . S
C340 H314 0.983 . S
C340 C336 1.684 . S
H341 C359 0.948 . S
H342 C300 0.948 . S
H343 C318 0.979 . S
H344 C318 0.980 . S
H345 C318 0.983 . S
H346 C317 0.982 . S
H347 C317 0.979 . S
H348 C317 0.977 . S
H349 C319 0.948 . S
H350 C321 0.947 . S
H351 C322 0.948 . S
H352 C328 0.982 . S
H353 C328 0.979 . S
H354 C328 0.977 . S
H355 C329 0.979 . S
H356 C329 0.980 . S
H357 C329 0.983 . S
H358 C302 0.947 . S
C359 C302 1.392 . S
C359 C303 1.419 . S
C359 H341 0.948 . S
C360 C361 1.391 . S
C360 C364 1.391 . S
C360 H402 0.948 . S
C361 C360 1.391 . S
C361 C362 1.391 . S
C362 C361 1.391 . S
C362 H418 0.947 . S
C362 C419 1.392 . S
C363 C364 1.391 . S
C363 C367 1.396 1_545 S
C363 C419 1.419 . S
C364 C360 1.391 . S
C364 C363 1.391 . S
C364 C365 1.399 . S
C365 C364 1.399 . S
C365 C368 1.392 1_545 S
C365 C377 1.453 1_545 S
C365 C378 1.684 . S
H366 C390 0.948 . S
C367 C363 1.396 1_565 S
C367 C368 1.404 . S
C367 C386 1.721 . S
C368 C365 1.392 1_565 S
C368 C367 1.404 . S
C368 C398 1.711 . S
H369 C392 0.947 . S
H370 C393 0.948 . S
H371 C399 0.982 . S
H372 C400 0.979 . S
H373 C400 0.980 . S
H374 C400 0.983 . S
H375 C399 0.979 . S
H376 C399 0.977 . S
C377 C365 1.453 1_565 S
C377 H406 0.982 . S
C377 H407 0.979 . S
C377 H408 0.977 . S
C378 C365 1.684 . S
C378 H403 0.979 . S
C378 H404 0.980 . S
C378 H405 0.983 . S
C379 C380 1.391 . S
C379 C384 1.391 . S
C379 H409 0.948 . S
C380 C379 1.391 . S
C380 C381 1.391 . S
C381 C380 1.391 . S
C381 C382 1.392 . S
C381 H410 0.947 . S
C382 C381 1.392 . S
C382 C383 1.419 . S
C382 H411 0.948 . S
C383 C382 1.419 . S
C383 C384 1.391 . S
C383 C387 1.397 1_545 S
C384 C379 1.391 . S
C384 C383 1.391 . S
C384 C385 1.399 . S
C385 C384 1.399 . S
C385 C386 1.396 1_545 S
C385 C388 1.453 1_545 S
C385 C389 1.684 . S
C386 C367 1.721 . S
C386 C385 1.396 1_565 S
C386 C387 1.380 . S
C387 C383 1.397 1_565 S
C387 C386 1.380 . S
C387 C397 1.734 . S
C388 C385 1.453 1_565 S
C388 H412 0.982 . S
C388 H413 0.979 . S
C388 H414 0.977 . S
C389 C385 1.684 . S
C389 H415 0.979 . S
C389 H416 0.980 . S
C389 H417 0.983 . S
C390 H366 0.948 . S
C390 C391 1.391 . S
C390 C395 1.391 . S
C391 C390 1.391 . S
C391 C392 1.391 . S
C392 H369 0.947 . S
C392 C391 1.391 . S
C392 C393 1.392 . S
C393 H370 0.948 . S
C393 C392 1.392 . S
C393 C394 1.419 . S
C394 C393 1.419 . S
C394 C395 1.391 . S
C394 C398 1.398 1_545 S
C395 C390 1.391 . S
C395 C394 1.391 . S
C395 C396 1.399 . S
C396 C395 1.399 . S
C396 C397 1.376 1_545 S
C396 C399 1.453 1_545 S
C396 C400 1.684 . S
C397 C387 1.734 . S
C397 C396 1.376 1_565 S
C397 C398 1.395 . S
C398 C368 1.711 . S
C398 C394 1.398 1_565 S
C398 C397 1.395 . S
C399 H371 0.982 . S
C399 H375 0.979 . S
C399 H376 0.977 . S
C399 C396 1.453 1_565 S
C400 H372 0.979 . S
C400 H373 0.980 . S
C400 H374 0.983 . S
C400 C396 1.684 . S
H401 C419 0.948 . S
H402 C360 0.948 . S
H403 C378 0.979 . S
H404 C378 0.980 . S
H405 C378 0.983 . S
H406 C377 0.982 . S
H407 C377 0.979 . S
H408 C377 0.977 . S
H409 C379 0.948 . S
H410 C381 0.947 . S
H411 C382 0.948 . S
H412 C388 0.982 . S
H413 C388 0.979 . S
H414 C388 0.977 . S
H415 C389 0.979 . S
H416 C389 0.980 . S
H417 C389 0.983 . S
H418 C362 0.947 . S
C419 C362 1.392 . S
C419 C363 1.419 . S
C419 H401 0.948 . S
C420 C421 1.391 . S
C420 C424 1.391 . S
C420 H462 0.948 . S
C421 C420 1.391 . S
C421 C422 1.391 . S
C422 C421 1.391 . S
C422 H478 0.947 . S
C422 C479 1.392 . S
C423 C424 1.391 . S
C423 C427 1.397 . S
C423 C479 1.419 . S
C424 C420 1.391 . S
C424 C423 1.391 . S
C424 C425 1.399 . S
C425 C424 1.399 . S
C425 C428 1.396 . S
C425 C437 1.453 . S
C425 C438 1.684 . S
H426 C450 0.948 . S
C427 C423 1.397 . S
C427 C428 1.394 . S
C427 C446 1.723 . S
C428 C425 1.396 . S
C428 C427 1.394 . S
C428 C458 1.723 . S
H429 C452 0.947 . S
H430 C453 0.948 . S
H431 C459 0.982 . S
H432 C460 0.979 . S
H433 C460 0.980 . S
H434 C460 0.983 . S
H435 C459 0.979 . S
H436 C459 0.977 . S
C437 C425 1.453 . S
C437 H466 0.982 . S
C437 H467 0.979 . S
C437 H468 0.977 . S
C438 C425 1.684 . S
C438 H463 0.979 . S
C438 H464 0.980 . S
C438 H465 0.983 . S
C439 C440 1.391 . S
C439 C444 1.391 . S
C439 H469 0.948 . S
C440 C439 1.391 . S
C440 C441 1.391 . S
C441 C440 1.391 . S
C441 C442 1.392 . S
C441 H470 0.947 . S
C442 C441 1.392 . S
C442 C443 1.419 . S
C442 H471 0.948 . S
C443 C442 1.419 . S
C443 C444 1.391 . S
C443 C447 1.397 . S
C444 C439 1.391 . S
C444 C443 1.391 . S
C444 C445 1.399 . S
C445 C444 1.399 . S
C445 C446 1.396 . S
C445 C448 1.453 . S
C445 C449 1.684 . S
C446 C427 1.723 . S
C446 C445 1.396 . S
C446 C447 1.394 . S
C447 C443 1.397 . S
C447 C446 1.394 . S
C447 C457 1.723 . S
C448 C445 1.453 . S
C448 H472 0.982 . S
C448 H473 0.979 . S
C448 H474 0.977 . S
C449 C445 1.684 . S
C449 H475 0.979 . S
C449 H476 0.980 . S
C449 H477 0.983 . S
C450 H426 0.948 . S
C450 C451 1.391 . S
C450 C455 1.391 . S
C451 C450 1.391 . S
C451 C452 1.391 . S
C452 H429 0.947 . S
C452 C451 1.391 . S
C452 C453 1.392 . S
C453 H430 0.948 . S
C453 C452 1.392 . S
C453 C454 1.419 . S
C454 C453 1.419 . S
C454 C455 1.391 . S
C454 C458 1.397 . S
C455 C450 1.391 . S
C455 C454 1.391 . S
C455 C456 1.399 . S
C456 C455 1.399 . S
C456 C457 1.396 . S
C456 C459 1.453 . S
C456 C460 1.684 . S
C457 C447 1.723 . S
C457 C456 1.396 . S
C457 C458 1.394 . S
C458 C428 1.723 . S
C458 C454 1.397 . S
C458 C457 1.394 . S
C459 H431 0.982 . S
C459 H435 0.979 . S
C459 H436 0.977 . S
C459 C456 1.453 . S
C460 H432 0.979 . S
C460 H433 0.980 . S
C460 H434 0.983 . S
C460 C456 1.684 . S
H461 C479 0.948 . S
H462 C420 0.948 . S
H463 C438 0.979 . S
H464 C438 0.980 . S
H465 C438 0.983 . S
H466 C437 0.982 . S
H467 C437 0.979 . S
H468 C437 0.977 . S
H469 C439 0.948 . S
H470 C441 0.947 . S
H471 C442 0.948 . S
H472 C448 0.982 . S
H473 C448 0.979 . S
H474 C448 0.977 . S
H475 C449 0.979 . S
H476 C449 0.980 . S
H477 C449 0.983 . S
H478 C422 0.947 . S
C479 C422 1.392 . S
C479 C423 1.419 . S
C479 H461 0.948 . S
Nd480 C482 2.836 1_455 S
Nd480 O500 2.500 1_455 S
Nd480 O501 2.492 . S
Nd480 O502 2.487 . S
Nd480 O503 2.678 1_565 S
Nd480 O504 2.410 . S
Nd480 O509 2.426 1_455 S
Nd480 O511 2.424 1_565 S
Nd481 C491 2.836 . S
Nd481 O503 2.430 . S
Nd481 O505 2.424 1_545 S
Nd481 O506 2.500 . S
Nd481 O507 2.492 . S
Nd481 O508 2.487 1_455 S
Nd481 O509 2.679 1_445 S
Nd481 O510 2.410 . S
C482 Nd480 2.836 1_655 S
C482 C483 1.498 . S
C482 O500 1.258 . S
C482 O501 1.239 1_655 S
C483 C482 1.498 . S
C483 C484 1.366 . S
C483 C488 1.407 . S
C484 C483 1.366 . S
C484 C485 1.392 . S
C484 H512 0.930 . S
C485 C484 1.392 . S
C485 C486 1.398 . S
C485 H513 0.929 . S
C486 C485 1.398 . S
C486 C487 1.352 . S
C487 C486 1.352 . S
C487 C488 1.384 . S
C487 H514 0.930 . S
C488 C483 1.407 . S
C488 C487 1.384 . S
C488 H515 0.929 1_655 S
C489 O502 1.241 . S
C489 O503 1.249 1_565 S
C490 O504 1.251 . S
C490 O505 1.268 . S
C491 Nd481 2.836 . S
C491 C492 1.498 . S
C491 O506 1.258 . S
C491 O507 1.239 . S
C492 C491 1.498 . S
C492 C493 1.366 . S
C492 C497 1.407 . S
C493 C492 1.366 . S
C493 C494 1.392 . S
C493 H516 0.930 . S
C494 C493 1.392 . S
C494 C495 1.398 . S
C494 H517 0.929 . S
C495 C494 1.398 . S
C495 C496 1.352 1_556 S
C496 C495 1.352 1_554 S
C496 C497 1.384 1_554 S
C496 H518 0.930 . S
C497 C492 1.407 . S
C497 C496 1.384 1_556 S
C497 H519 0.929 . S
C498 O508 1.241 . S
C498 O509 1.256 1_545 S
C499 O510 1.251 . S
C499 O511 1.268 . S
O500 Nd480 2.500 1_655 S
O500 C482 1.258 . S
O501 Nd480 2.492 . S
O501 C482 1.239 1_455 S
O502 Nd480 2.487 . S
O502 C489 1.241 . S
O503 Nd480 2.678 1_545 S
O503 Nd481 2.430 . S
O503 C489 1.249 1_545 S
O504 Nd480 2.410 . S
O504 C490 1.251 . S
O505 Nd481 2.424 1_565 S
O505 C490 1.268 . S
O506 Nd481 2.500 . S
O506 C491 1.258 . S
O507 Nd481 2.492 . S
O507 C491 1.239 . S
O508 Nd481 2.487 1_655 S
O508 C498 1.241 . S
O509 Nd480 2.426 1_655 S
O509 Nd481 2.679 1_665 S
O509 C498 1.256 1_565 S
O510 Nd481 2.410 . S
O510 C499 1.251 . S
O511 Nd480 2.424 1_545 S
O511 C499 1.268 . S
H512 C484 0.930 . S
H513 C485 0.929 . S
H514 C487 0.930 . S
H515 C488 0.929 1_455 S
H516 C493 0.930 . S
H517 C494 0.929 . S
H518 C496 0.930 . S
H519 C497 0.929 . S
Nd520 C522 2.836 . S
Nd520 O540 2.500 . S
Nd520 O541 2.492 1_565 S
Nd520 O542 2.487 1_565 S
Nd520 O543 2.682 1_565 S
Nd520 O544 2.410 1_565 S
Nd520 O549 2.414 . S
Nd520 O551 2.424 . S
Nd521 C531 2.836 . S
Nd521 O543 2.414 . S
Nd521 O545 2.424 . S
Nd521 O546 2.500 . S
Nd521 O547 2.492 . S
Nd521 O548 2.487 1_545 S
Nd521 O549 2.682 1_545 S
Nd521 O550 2.410 1_545 S
C522 Nd520 2.836 . S
C522 C523 1.498 . S
C522 O540 1.258 . S
C522 O541 1.233 1_565 S
C523 C522 1.498 . S
C523 C524 1.366 . S
C523 C528 1.407 . S
C524 C523 1.366 . S
C524 C525 1.392 . S
C524 H552 0.930 . S
C525 C524 1.392 . S
C525 C526 1.398 . S
C525 H553 0.929 . S
C526 C525 1.398 . S
C526 C527 1.352 . S
C527 C526 1.352 . S
C527 C528 1.384 . S
C527 H554 0.929 . S
C528 C523 1.407 . S
C528 C527 1.384 . S
C528 H555 0.929 1_565 S
C529 O542 1.241 . S
C529 O543 1.273 . S
C530 O544 1.251 . S
C530 O545 1.268 . S
C531 Nd521 2.836 . S
C531 C532 1.498 . S
C531 O546 1.258 . S
C531 O547 1.233 . S
C532 C531 1.498 . S
C532 C533 1.366 . S
C532 C537 1.407 . S
C533 C532 1.366 . S
C533 C534 1.392 . S
C533 H556 0.930 . S
C534 C533 1.392 . S
C534 C535 1.398 . S
C534 H557 0.929 . S
C535 C534 1.398 . S
C535 C536 1.352 1_556 S
C536 C535 1.352 1_554 S
C536 C537 1.384 1_554 S
C536 H558 0.934 . S
C537 C532 1.407 . S
C537 C536 1.384 1_556 S
C537 H559 0.929 1_546 S
C538 O548 1.241 . S
C538 O549 1.273 . S
C539 O550 1.251 . S
C539 O551 1.268 . S
O540 Nd520 2.500 . S
O540 C522 1.258 . S
O541 Nd520 2.492 1_545 S
O541 C522 1.233 1_545 S
O542 Nd520 2.487 1_545 S
O542 C529 1.241 . S
O543 Nd520 2.682 1_545 S
O543 Nd521 2.414 . S
O543 C529 1.273 . S
O544 Nd520 2.410 1_545 S
O544 C530 1.251 . S
O545 Nd521 2.424 . S
O545 C530 1.268 . S
O546 Nd521 2.500 . S
O546 C531 1.258 . S
O547 Nd521 2.492 . S
O547 C531 1.233 . S
O548 Nd521 2.487 1_565 S
O548 C538 1.241 . S
O549 Nd520 2.414 . S
O549 Nd521 2.682 1_565 S
O549 C538 1.273 . S
O550 Nd521 2.410 1_565 S
O550 C539 1.251 . S
O551 Nd520 2.424 . S
O551 C539 1.268 . S
H552 C524 0.930 . S
H553 C525 0.929 . S
H554 C527 0.929 . S
H555 C528 0.929 1_545 S
H556 C533 0.930 . S
H557 C534 0.929 . S
H558 C536 0.934 . S
H559 C537 0.929 1_564 S
Nd560 C562 2.836 . S
Nd560 O580 2.500 . S
Nd560 O581 2.492 . S
Nd560 O582 2.487 . S
Nd560 O583 2.682 . S
Nd560 O584 2.410 . S
Nd560 O589 2.414 . S
Nd560 O591 2.424 . S
Nd561 C571 2.836 . S
Nd561 O583 2.414 . S
Nd561 O585 2.424 . S
Nd561 O586 2.500 . S
Nd561 O587 2.492 . S
Nd561 O588 2.487 . S
Nd561 O589 2.682 . S
Nd561 O590 2.410 . S
C562 Nd560 2.836 . S
C562 C563 1.498 . S
C562 O580 1.258 . S
C562 O581 1.239 . S
C563 C562 1.498 . S
C563 C564 1.366 . S
C563 C568 1.407 . S
C564 C563 1.366 . S
C564 C565 1.392 . S
C564 H592 0.930 . S
C565 C564 1.392 . S
C565 C566 1.398 . S
C565 H593 0.929 . S
C566 C565 1.398 . S
C566 C567 1.352 . S
C567 C566 1.352 . S
C567 C568 1.384 . S
C567 H594 0.930 . S
C568 C563 1.407 . S
C568 C567 1.384 . S
C568 H595 0.929 . S
C569 O582 1.241 . S
C569 O583 1.273 . S
C570 O584 1.251 . S
C570 O585 1.268 . S
C571 Nd561 2.836 . S
C571 C572 1.498 . S
C571 O586 1.258 . S
C571 O587 1.239 . S
C572 C571 1.498 . S
C572 C573 1.366 . S
C572 C577 1.407 . S
C573 C572 1.366 . S
C573 C574 1.392 . S
C573 H596 0.930 . S
C574 C573 1.392 . S
C574 C575 1.398 . S
C574 H597 0.929 . S
C575 C574 1.398 . S
C575 C576 1.352 . S
C576 C575 1.352 . S
C576 C577 1.384 . S
C576 H598 0.930 . S
C577 C572 1.407 . S
C577 C576 1.384 . S
C577 H599 0.929 . S
C578 O588 1.241 . S
C578 O589 1.273 . S
C579 O590 1.251 . S
C579 O591 1.268 . S
O580 Nd560 2.500 . S
O580 C562 1.258 . S
O581 Nd560 2.492 . S
O581 C562 1.239 . S
O582 Nd560 2.487 . S
O582 C569 1.241 . S
O583 Nd560 2.682 . S
O583 Nd561 2.414 . S
O583 C569 1.273 . S
O584 Nd560 2.410 . S
O584 C570 1.251 . S
O585 Nd561 2.424 . S
O585 C570 1.268 . S
O586 Nd561 2.500 . S
O586 C571 1.258 . S
O587 Nd561 2.492 . S
O587 C571 1.239 . S
O588 Nd561 2.487 . S
O588 C578 1.241 . S
O589 Nd560 2.414 . S
O589 Nd561 2.682 . S
O589 C578 1.273 . S
O590 Nd561 2.410 . S
O590 C579 1.251 . S
O591 Nd560 2.424 . S
O591 C579 1.268 . S
H592 C564 0.930 . S
H593 C565 0.929 . S
H594 C567 0.930 . S
H595 C568 0.929 . S
H596 C573 0.930 . S
H597 C574 0.929 . S
H598 C576 0.930 . S
H599 C577 0.929 . S
Nd600 C602 2.836 1_455 S
Nd600 O620 2.500 1_455 S
Nd600 O621 2.492 1_455 S
Nd600 O622 2.487 . S
Nd600 O623 2.682 . S
Nd600 O624 2.410 1_455 S
Nd600 O629 2.414 . S
Nd600 O631 2.424 . S
Nd601 C611 2.836 . S
Nd601 O623 2.414 . S
Nd601 O625 2.424 1_455 S
Nd601 O626 2.500 . S
Nd601 O627 2.492 . S
Nd601 O628 2.487 . S
Nd601 O629 2.682 . S
Nd601 O630 2.410 . S
C602 Nd600 2.836 1_655 S
C602 C603 1.498 . S
C602 O620 1.258 . S
C602 O621 1.239 . S
C603 C602 1.498 . S
C603 C604 1.366 . S
C603 C608 1.407 . S
C604 C603 1.366 . S
C604 C605 1.392 . S
C604 H632 0.930 . S
C605 C604 1.392 . S
C605 C606 1.398 . S
C605 H633 0.929 . S
C606 C605 1.398 . S
C606 C607 1.352 . S
C607 C606 1.352 . S
C607 C608 1.384 . S
C607 H634 0.930 . S
C608 C603 1.407 . S
C608 C607 1.384 . S
C608 H635 0.929 . S
C609 O622 1.241 . S
C609 O623 1.273 . S
C610 O624 1.251 . S
C610 O625 1.268 . S
C611 Nd601 2.836 . S
C611 C612 1.498 . S
C611 O626 1.258 . S
C611 O627 1.239 . S
C612 C611 1.498 . S
C612 C613 1.366 . S
C612 C617 1.407 . S
C613 C612 1.366 . S
C613 C614 1.392 . S
C613 H636 0.930 . S
C614 C613 1.392 . S
C614 C615 1.398 . S
C614 H637 0.929 . S
C615 C614 1.398 . S
C615 C616 1.352 1_556 S
C616 C615 1.352 1_554 S
C616 C617 1.384 1_554 S
C616 H638 0.930 . S
C617 C612 1.407 . S
C617 C616 1.384 1_556 S
C617 H639 0.929 . S
C618 O628 1.241 . S
C618 O629 1.273 . S
C619 O630 1.251 . S
C619 O631 1.268 . S
O620 Nd600 2.500 1_655 S
O620 C602 1.258 . S
O621 Nd600 2.492 1_655 S
O621 C602 1.239 . S
O622 Nd600 2.487 . S
O622 C609 1.241 . S
O623 Nd600 2.682 . S
O623 Nd601 2.414 . S
O623 C609 1.273 . S
O624 Nd600 2.410 1_655 S
O624 C610 1.251 . S
O625 Nd601 2.424 1_655 S
O625 C610 1.268 . S
O626 Nd601 2.500 . S
O626 C611 1.258 . S
O627 Nd601 2.492 . S
O627 C611 1.239 . S
O628 Nd601 2.487 . S
O628 C618 1.241 . S
O629 Nd600 2.414 . S
O629 Nd601 2.682 . S
O629 C618 1.273 . S
O630 Nd601 2.410 . S
O630 C619 1.251 . S
O631 Nd600 2.424 . S
O631 C619 1.268 . S
H632 C604 0.930 . S
H633 C605 0.929 . S
H634 C607 0.930 . S
H635 C608 0.929 . S
H636 C613 0.930 . S
H637 C614 0.929 . S
H638 C616 0.930 . S
H639 C617 0.929 . S
C640 C641 1.348 . S
C640 C642 1.327 . S
C640 H665 0.950 . S
C641 C640 1.348 . S
C641 C657 1.350 1_545 S
C642 C640 1.327 . S
C642 C661 1.395 1_545 S
C642 H666 0.950 . S
C643 C660 1.574 . S
C643 C662 1.368 . S
C643 H667 0.949 . S
H644 C648 0.949 . S
C645 C646 1.349 . S
C645 C647 1.327 . S
C645 H668 0.950 . S
C646 C645 1.349 . S
C646 C658 1.349 1_565 S
C647 C645 1.327 . S
C647 C663 1.429 . S
C647 H669 0.950 . S
C648 H644 0.949 . S
C648 C656 1.574 . S
C648 C664 1.368 1_545 S
H649 C657 0.950 . S
H650 C655 0.950 . S
H651 C656 0.949 . S
H652 C658 0.950 . S
H653 C659 0.950 . S
H654 C660 0.949 . S
C655 H650 0.950 . S
C655 C657 1.327 . S
C655 C661 1.473 . S
C656 C648 1.574 . S
C656 H651 0.949 . S
C656 C662 1.368 1_545 S
C657 C641 1.350 1_565 S
C657 H649 0.950 . S
C657 C655 1.327 . S
C658 C646 1.349 1_545 S
C658 H652 0.950 . S
C658 C659 1.327 . S
C659 H653 0.950 . S
C659 C658 1.327 . S
C659 C663 1.429 1_545 S
C660 C643 1.574 . S
C660 H654 0.949 . S
C660 C664 1.368 . S
C661 C642 1.395 1_565 S
C661 C655 1.473 . S
C661 C662 1.514 . S
C662 C643 1.368 . S
C662 C656 1.368 1_565 S
C662 C661 1.514 . S
C663 C647 1.429 . S
C663 C659 1.429 1_565 S
C663 C664 1.523 . S
C664 C648 1.368 1_565 S
C664 C660 1.368 . S
C664 C663 1.523 . S
H665 C640 0.950 . S
H666 C642 0.950 . S
H667 C643 0.949 . S
H668 C645 0.950 . S
H669 C647 0.950 . S
C670 C671 1.349 . S
C670 C672 1.327 . S
C670 H695 0.950 . S
C671 C670 1.349 . S
C671 C687 1.349 . S
C672 C670 1.327 . S
C672 C691 1.429 . S
C672 H696 0.950 . S
C673 C690 1.574 . S
C673 C692 1.368 . S
C673 H697 0.949 . S
H674 C678 0.949 . S
C675 C676 1.349 . S
C675 C677 1.327 . S
C675 H698 0.950 . S
C676 C675 1.349 . S
C676 C688 1.349 . S
C677 C675 1.327 . S
C677 C693 1.429 . S
C677 H699 0.950 . S
C678 H674 0.949 . S
C678 C686 1.574 . S
C678 C694 1.368 . S
H679 C687 0.950 . S
H680 C685 0.950 . S
H681 C686 0.949 . S
H682 C688 0.950 . S
H683 C689 0.950 . S
H684 C690 0.949 . S
C685 H680 0.950 . S
C685 C687 1.327 . S
C685 C691 1.429 . S
C686 C678 1.574 . S
C686 H681 0.949 . S
C686 C692 1.368 . S
C687 C671 1.349 . S
C687 H679 0.950 . S
C687 C685 1.327 . S
C688 C676 1.349 . S
C688 H682 0.950 . S
C688 C689 1.327 . S
C689 H683 0.950 . S
C689 C688 1.327 . S
C689 C693 1.429 . S
C690 C673 1.574 . S
C690 H684 0.949 . S
C690 C694 1.368 . S
C691 C672 1.429 . S
C691 C685 1.429 . S
C691 C692 1.523 . S
C692 C673 1.368 . S
C692 C686 1.368 . S
C692 C691 1.523 . S
C693 C677 1.429 . S
C693 C689 1.429 . S
C693 C694 1.523 . S
C694 C678 1.368 . S
C694 C690 1.368 . S
C694 C693 1.523 . S
H695 C670 0.950 . S
H696 C672 0.950 . S
H697 C673 0.949 . S
H698 C675 0.950 . S
H699 C677 0.950 . S
C700 C701 1.349 . S
C700 C702 1.327 . S
C700 H725 0.950 . S
C701 C700 1.349 . S
C701 C717 1.349 . S
C702 C700 1.327 . S
C702 C721 1.429 . S
C702 H726 0.950 . S
C703 C720 1.574 . S
C703 C722 1.368 . S
C703 H727 0.949 . S
H704 C708 0.949 . S
C705 C706 1.349 . S
C705 C707 1.327 . S
C705 H728 0.950 . S
C706 C705 1.349 . S
C706 C718 1.349 . S
C707 C705 1.327 . S
C707 C723 1.429 . S
C707 H729 0.950 . S
C708 H704 0.949 . S
C708 C716 1.574 . S
C708 C724 1.368 . S
H709 C717 0.950 . S
H710 C715 0.950 . S
H711 C716 0.949 . S
H712 C718 0.950 . S
H713 C719 0.950 . S
H714 C720 0.949 . S
C715 H710 0.950 . S
C715 C717 1.327 . S
C715 C721 1.429 . S
C716 C708 1.574 . S
C716 H711 0.949 . S
C716 C722 1.368 . S
C717 C701 1.349 . S
C717 H709 0.950 . S
C717 C715 1.327 . S
C718 C706 1.349 . S
C718 H712 0.950 . S
C718 C719 1.327 . S
C719 H713 0.950 . S
C719 C718 1.327 . S
C719 C723 1.429 . S
C720 C703 1.574 . S
C720 H714 0.949 . S
C720 C724 1.368 . S
C721 C702 1.429 . S
C721 C715 1.429 . S
C721 C722 1.523 . S
C722 C703 1.368 . S
C722 C716 1.368 . S
C722 C721 1.523 . S
C723 C707 1.429 . S
C723 C719 1.429 . S
C723 C724 1.523 . S
C724 C708 1.368 . S
C724 C720 1.368 . S
C724 C723 1.523 . S
H725 C700 0.950 . S
H726 C702 0.950 . S
H727 C703 0.949 . S
H728 C705 0.950 . S
H729 C707 0.950 . S
C730 C731 1.349 . S
C730 C732 1.327 . S
C730 H755 0.950 . S
C731 C730 1.349 . S
C731 C747 1.349 . S
C732 C730 1.327 . S
C732 C751 1.429 . S
C732 H756 0.950 . S
C733 C750 1.574 . S
C733 C752 1.368 . S
C733 H757 0.949 . S
H734 C738 0.949 . S
C735 C736 1.349 . S
C735 C737 1.327 . S
C735 H758 0.950 . S
C736 C735 1.349 . S
C736 C748 1.349 . S
C737 C735 1.327 . S
C737 C753 1.429 . S
C737 H759 0.950 . S
C738 H734 0.949 . S
C738 C746 1.574 . S
C738 C754 1.368 . S
H739 C747 0.950 . S
H740 C745 0.950 . S
H741 C746 0.949 . S
H742 C748 0.950 . S
H743 C749 0.950 . S
H744 C750 0.949 . S
C745 H740 0.950 . S
C745 C747 1.327 . S
C745 C751 1.429 . S
C746 C738 1.574 . S
C746 H741 0.949 . S
C746 C752 1.368 . S
C747 C731 1.349 . S
C747 H739 0.950 . S
C747 C745 1.327 . S
C748 C736 1.349 . S
C748 H742 0.950 . S
C748 C749 1.327 . S
C749 H743 0.950 . S
C749 C748 1.327 . S
C749 C753 1.429 . S
C750 C733 1.574 . S
C750 H744 0.949 . S
C750 C754 1.368 . S
C751 C732 1.429 . S
C751 C745 1.429 . S
C751 C752 1.523 . S
C752 C733 1.368 . S
C752 C746 1.368 . S
C752 C751 1.523 . S
C753 C737 1.429 . S
C753 C749 1.429 . S
C753 C754 1.523 . S
C754 C738 1.368 . S
C754 C750 1.368 . S
C754 C753 1.523 . S
H755 C730 0.950 . S
H756 C732 0.950 . S
H757 C733 0.949 . S
H758 C735 0.950 . S
H759 C737 0.950 . S
C760 C761 1.349 1_565 S
C760 C762 1.327 . S
C760 H785 0.950 . S
C761 C760 1.349 1_545 S
C761 C777 1.349 . S
C762 C760 1.327 . S
C762 C781 1.391 1_565 S
C762 H786 0.950 . S
C763 C780 1.574 . S
C763 C782 1.368 . S
C763 H787 0.949 . S
H764 C768 0.949 . S
C765 C766 1.349 . S
C765 C767 1.327 . S
C765 H788 0.950 . S
C766 C765 1.349 . S
C766 C778 1.349 1_545 S
C767 C765 1.327 . S
C767 C783 1.429 . S
C767 H789 0.950 . S
C768 H764 0.949 . S
C768 C776 1.574 . S
C768 C784 1.368 1_565 S
H769 C777 0.950 . S
H770 C775 0.950 . S
H771 C776 0.949 . S
H772 C778 0.950 . S
H773 C779 0.950 . S
H774 C780 0.949 . S
C775 H770 0.950 . S
C775 C777 1.327 . S
C775 C781 1.481 . S
C776 C768 1.574 . S
C776 H771 0.949 . S
C776 C782 1.368 1_565 S
C777 C761 1.349 . S
C777 H769 0.950 . S
C777 C775 1.327 . S
C778 C766 1.349 1_565 S
C778 H772 0.950 . S
C778 C779 1.327 . S
C779 H773 0.950 . S
C779 C778 1.327 . S
C779 C783 1.429 1_565 S
C780 C763 1.574 . S
C780 H774 0.949 . S
C780 C784 1.368 . S
C781 C762 1.391 1_545 S
C781 C775 1.481 . S
C781 C782 1.512 . S
C782 C763 1.368 . S
C782 C776 1.368 1_545 S
C782 C781 1.512 . S
C783 C767 1.429 . S
C783 C779 1.429 1_545 S
C783 C784 1.523 . S
C784 C768 1.368 1_545 S
C784 C780 1.368 . S
C784 C783 1.523 . S
H785 C760 0.950 . S
H786 C762 0.950 . S
H787 C763 0.949 . S
H788 C765 0.950 . S
H789 C767 0.950 . S
C790 C791 1.349 . S
C790 C792 1.327 . S
C790 H815 0.950 . S
C791 C790 1.349 . S
C791 C807 1.349 . S
C792 C790 1.327 . S
C792 C811 1.429 . S
C792 H816 0.950 . S
C793 C810 1.574 . S
C793 C812 1.368 . S
C793 H817 0.949 . S
H794 C798 0.949 . S
C795 C796 1.349 . S
C795 C797 1.327 . S
C795 H818 0.950 . S
C796 C795 1.349 . S
C796 C808 1.349 . S
C797 C795 1.327 . S
C797 C813 1.429 . S
C797 H819 0.950 . S
C798 H794 0.949 . S
C798 C806 1.574 . S
C798 C814 1.368 . S
H799 C807 0.950 . S
H800 C805 0.950 . S
H801 C806 0.949 . S
H802 C808 0.950 . S
H803 C809 0.950 . S
H804 C810 0.953 . S
C805 H800 0.950 . S
C805 C807 1.327 . S
C805 C811 1.429 . S
C806 C798 1.574 . S
C806 H801 0.949 . S
C806 C812 1.368 . S
C807 C791 1.349 . S
C807 H799 0.950 . S
C807 C805 1.327 . S
C808 C796 1.349 . S
C808 H802 0.950 . S
C808 C809 1.327 . S
C809 H803 0.950 . S
C809 C808 1.327 . S
C809 C813 1.429 . S
C810 C793 1.574 . S
C810 H804 0.953 . S
C810 C814 1.368 . S
C811 C792 1.429 . S
C811 C805 1.429 . S
C811 C812 1.523 . S
C812 C793 1.368 . S
C812 C806 1.368 . S
C812 C811 1.523 . S
C813 C797 1.429 . S
C813 C809 1.429 . S
C813 C814 1.523 1_556 S
C814 C798 1.368 . S
C814 C810 1.368 . S
C814 C813 1.523 1_554 S
H815 C790 0.950 . S
H816 C792 0.950 . S
H817 C793 0.949 . S
H818 C795 0.950 . S
H819 C797 0.950 . S
C820 C821 1.349 1_554 S
C820 C822 1.327 1_554 S
C820 H845 0.950 . S
C821 C820 1.349 1_556 S
C821 C837 1.349 . S
C822 C820 1.327 1_556 S
C822 C841 1.429 . S
C822 H846 0.950 1_556 S
C823 C840 1.574 . S
C823 C842 1.368 . S
C823 H847 0.949 . S
H824 C828 0.949 . S
C825 C826 1.349 . S
C825 C827 1.327 . S
C825 H848 0.950 . S
C826 C825 1.349 . S
C826 C838 1.349 . S
C827 C825 1.327 . S
C827 C843 1.429 . S
C827 H849 0.950 . S
C828 H824 0.949 . S
C828 C836 1.574 . S
C828 C844 1.368 . S
H829 C837 0.950 . S
H830 C835 0.950 . S
H831 C836 0.949 . S
H832 C838 0.950 . S
H833 C839 0.950 . S
H834 C840 0.949 . S
C835 H830 0.950 . S
C835 C837 1.327 . S
C835 C841 1.429 . S
C836 C828 1.574 . S
C836 H831 0.949 . S
C836 C842 1.368 . S
C837 C821 1.349 . S
C837 H829 0.950 . S
C837 C835 1.327 . S
C838 C826 1.349 . S
C838 H832 0.950 . S
C838 C839 1.327 . S
C839 H833 0.950 . S
C839 C838 1.327 . S
C839 C843 1.429 . S
C840 C823 1.574 . S
C840 H834 0.949 . S
C840 C844 1.368 . S
C841 C822 1.429 . S
C841 C835 1.429 . S
C841 C842 1.523 . S
C842 C823 1.368 . S
C842 C836 1.368 . S
C842 C841 1.523 . S
C843 C827 1.429 . S
C843 C839 1.429 . S
C843 C844 1.523 . S
C844 C828 1.368 . S
C844 C840 1.368 . S
C844 C843 1.523 . S
H845 C820 0.950 . S
H846 C822 0.950 1_554 S
H847 C823 0.949 . S
H848 C825 0.950 . S
H849 C827 0.950 . S
C850 C851 1.349 . S
C850 C852 1.327 . S
C850 H875 0.950 . S
C851 C850 1.349 . S
C851 C867 1.349 1_556 S
C852 C850 1.327 . S
C852 C871 1.429 . S
C852 H876 0.950 . S
C853 C870 1.574 . S
C853 C872 1.368 . S
C853 H877 0.949 . S
H854 C858 0.949 . S
C855 C856 1.349 . S
C855 C857 1.327 . S
C855 H878 0.950 . S
C856 C855 1.349 . S
C856 C868 1.349 . S
C857 C855 1.327 . S
C857 C873 1.429 . S
C857 H879 0.950 . S
C858 H854 0.949 . S
C858 C866 1.574 . S
C858 C874 1.368 . S
H859 C867 0.950 . S
H860 C865 0.950 1_554 S
H861 C866 0.949 . S
H862 C868 0.950 . S
H863 C869 0.950 . S
H864 C870 0.949 . S
C865 H860 0.950 1_556 S
C865 C867 1.327 1_556 S
C865 C871 1.429 . S
C866 C858 1.574 . S
C866 H861 0.949 . S
C866 C872 1.368 . S
C867 C851 1.349 1_554 S
C867 H859 0.950 . S
C867 C865 1.327 1_554 S
C868 C856 1.349 . S
C868 H862 0.950 . S
C868 C869 1.327 . S
C869 H863 0.950 . S
C869 C868 1.327 . S
C869 C873 1.429 . S
C870 C853 1.574 . S
C870 H864 0.949 . S
C870 C874 1.368 . S
C871 C852 1.429 . S
C871 C865 1.429 . S
C871 C872 1.523 . S
C872 C853 1.368 . S
C872 C866 1.368 . S
C872 C871 1.523 . S
C873 C857 1.429 . S
C873 C869 1.429 . S
C873 C874 1.523 . S
C874 C858 1.368 . S
C874 C870 1.368 . S
C874 C873 1.523 . S
H875 C850 0.950 . S
H876 C852 0.950 . S
H877 C853 0.949 . S
H878 C855 0.950 . S
H879 C857 0.950 . S
C880 C881 1.349 . S
C880 C882 1.327 . S
C880 H905 0.950 . S
C881 C880 1.349 . S
C881 C897 1.349 . S
C882 C880 1.327 . S
C882 C901 1.429 . S
C882 H906 0.950 . S
C883 C900 1.574 . S
C883 C902 1.368 . S
C883 H907 0.949 . S
H884 C888 0.949 . S
C885 C886 1.349 . S
C885 C887 1.327 . S
C885 H908 0.950 . S
C886 C885 1.349 . S
C886 C898 1.349 . S
C887 C885 1.327 . S
C887 C903 1.429 . S
C887 H909 0.950 . S
C888 H884 0.949 . S
C888 C896 1.574 . S
C888 C904 1.368 . S
H889 C897 0.950 . S
H890 C895 0.950 . S
H891 C896 0.949 . S
H892 C898 0.950 . S
H893 C899 0.950 . S
H894 C900 0.949 . S
C895 H890 0.950 . S
C895 C897 1.327 . S
C895 C901 1.429 . S
C896 C888 1.574 . S
C896 H891 0.949 . S
C896 C902 1.368 . S
C897 C881 1.349 . S
C897 H889 0.950 . S
C897 C895 1.327 . S
C898 C886 1.349 . S
C898 H892 0.950 . S
C898 C899 1.327 . S
C899 H893 0.950 . S
C899 C898 1.327 . S
C899 C903 1.429 . S
C900 C883 1.574 . S
C900 H894 0.949 . S
C900 C904 1.368 . S
C901 C882 1.429 . S
C901 C895 1.429 . S
C901 C902 1.523 . S
C902 C883 1.368 . S
C902 C896 1.368 . S
C902 C901 1.523 . S
C903 C887 1.429 . S
C903 C899 1.429 . S
C903 C904 1.523 . S
C904 C888 1.368 . S
C904 C900 1.368 . S
C904 C903 1.523 . S
H905 C880 0.950 . S
H906 C882 0.950 . S
H907 C883 0.949 . S
H908 C885 0.950 . S
H909 C887 0.950 . S
C910 C911 1.352 . S
C910 C912 1.327 . S
C910 H935 0.950 . S
C911 C910 1.352 . S
C911 C927 1.339 1_545 S
C912 C910 1.327 . S
C912 C931 1.429 1_545 S
C912 H936 0.950 . S
C913 C930 1.574 . S
C913 C932 1.368 . S
C913 H937 0.949 . S
H914 C918 0.947 1_545 S
C915 C916 1.349 . S
C915 C917 1.327 . S
C915 H938 0.950 . S
C916 C915 1.349 . S
C916 C928 1.349 . S
C917 C915 1.327 . S
C917 C933 1.429 . S
C917 H939 0.950 . S
C918 H914 0.947 1_565 S
C918 C926 1.561 1_565 S
C918 C934 1.386 . S
H919 C927 0.950 . S
H920 C925 0.950 . S
H921 C926 0.949 . S
H922 C928 0.950 . S
H923 C929 0.943 1_545 S
H924 C930 0.949 . S
C925 H920 0.950 . S
C925 C927 1.327 . S
C925 C931 1.429 . S
C926 C918 1.561 1_545 S
C926 H921 0.949 . S
C926 C932 1.368 1_545 S
C927 C911 1.339 1_565 S
C927 H919 0.950 . S
C927 C925 1.327 . S
C928 C916 1.349 . S
C928 H922 0.950 . S
C928 C929 1.327 . S
C929 H923 0.943 1_565 S
C929 C928 1.327 . S
C929 C933 1.429 . S
C930 C913 1.574 . S
C930 H924 0.949 . S
C930 C934 1.368 . S
C931 C912 1.429 1_565 S
C931 C925 1.429 . S
C931 C932 1.523 . S
C932 C913 1.368 . S
C932 C926 1.368 1_565 S
C932 C931 1.523 . S
C933 C917 1.429 . S
C933 C929 1.429 . S
C933 C934 1.523 . S
C934 C918 1.386 . S
C934 C930 1.368 . S
C934 C933 1.523 . S
H935 C910 0.950 . S
H936 C912 0.950 . S
H937 C913 0.949 . S
H938 C915 0.950 . S
H939 C917 0.950 . S
C940 C941 1.349 . S
C940 C942 1.327 . S
C940 H965 0.950 . S
C941 C940 1.349 . S
C941 C957 1.349 . S
C942 C940 1.327 . S
C942 C961 1.429 . S
C942 H966 0.950 . S
C943 C960 1.574 . S
C943 C962 1.368 . S
C943 H967 0.949 . S
H944 C948 0.949 . S
C945 C946 1.349 . S
C945 C947 1.327 . S
C945 H968 0.950 . S
C946 C945 1.349 . S
C946 C958 1.349 . S
C947 C945 1.327 . S
C947 C963 1.429 . S
C947 H969 0.950 . S
C948 H944 0.949 . S
C948 C956 1.574 . S
C948 C964 1.368 . S
H949 C957 0.950 . S
H950 C955 0.950 . S
H951 C956 0.949 . S
H952 C958 0.950 . S
H953 C959 0.950 . S
H954 C960 0.949 . S
C955 H950 0.950 . S
C955 C957 1.327 . S
C955 C961 1.429 . S
C956 C948 1.574 . S
C956 H951 0.949 . S
C956 C962 1.368 . S
C957 C941 1.349 . S
C957 H949 0.950 . S
C957 C955 1.327 . S
C958 C946 1.349 . S
C958 H952 0.950 . S
C958 C959 1.327 . S
C959 H953 0.950 . S
C959 C958 1.327 . S
C959 C963 1.429 . S
C960 C943 1.574 . S
C960 H954 0.949 . S
C960 C964 1.368 . S
C961 C942 1.429 . S
C961 C955 1.429 . S
C961 C962 1.523 . S
C962 C943 1.368 . S
C962 C956 1.368 . S
C962 C961 1.523 . S
C963 C947 1.429 . S
C963 C959 1.429 . S
C963 C964 1.523 . S
C964 C948 1.368 . S
C964 C960 1.368 . S
C964 C963 1.523 . S
H965 C940 0.950 . S
H966 C942 0.950 . S
H967 C943 0.949 . S
H968 C945 0.950 . S
H969 C947 0.950 . S
C970 C971 1.349 . S
C970 C972 1.327 . S
C970 H995 0.950 . S
C971 C970 1.349 . S
C971 C987 1.349 . S
C972 C970 1.327 . S
C972 C991 1.429 . S
C972 H996 0.950 . S
C973 C990 1.574 . S
C973 C992 1.368 . S
C973 H997 0.949 . S
H974 C978 0.949 . S
C975 C976 1.349 . S
C975 C977 1.327 . S
C975 H998 0.950 . S
C976 C975 1.349 . S
C976 C988 1.349 . S
C977 C975 1.327 . S
C977 C993 1.429 . S
C977 H999 0.950 . S
C978 H974 0.949 . S
C978 C986 1.574 . S
C978 C994 1.368 . S
H979 C987 0.950 . S
H980 C985 0.950 . S
H981 C986 0.949 . S
H982 C988 0.950 . S
H983 C989 0.950 . S
H984 C990 0.949 . S
C985 H980 0.950 . S
C985 C987 1.327 . S
C985 C991 1.429 . S
C986 C978 1.574 . S
C986 H981 0.949 . S
C986 C992 1.368 . S
C987 C971 1.349 . S
C987 H979 0.950 . S
C987 C985 1.327 . S
C988 C976 1.349 . S
C988 H982 0.950 . S
C988 C989 1.327 . S
C989 H983 0.950 . S
C989 C988 1.327 . S
C989 C993 1.429 . S
C990 C973 1.574 . S
C990 H984 0.949 . S
C990 C994 1.368 . S
C991 C972 1.429 . S
C991 C985 1.429 . S
C991 C992 1.523 . S
C992 C973 1.368 . S
C992 C986 1.368 . S
C992 C991 1.523 . S
C993 C977 1.429 . S
C993 C989 1.429 . S
C993 C994 1.523 . S
C994 C978 1.368 . S
C994 C990 1.368 . S
C994 C993 1.523 . S
H995 C970 0.950 . S
H996 C972 0.950 . S
H997 C973 0.949 . S
H998 C975 0.950 . S
H999 C977 0.950 . S
C1000 C1001 1.349 . S
C1000 C1002 1.327 . S
C1000 H1025 0.950 . S
C1001 C1000 1.349 . S
C1001 C1017 1.349 . S
C1002 C1000 1.327 . S
C1002 C1021 1.429 . S
C1002 H1026 0.950 . S
C1003 C1020 1.574 . S
C1003 C1022 1.368 . S
C1003 H1027 0.949 . S
H1004 C1008 0.949 . S
C1005 C1006 1.349 . S
C1005 C1007 1.327 . S
C1005 H1028 0.950 . S
C1006 C1005 1.349 . S
C1006 C1018 1.349 . S
C1007 C1005 1.327 . S
C1007 C1023 1.429 . S
C1007 H1029 0.950 . S
C1008 H1004 0.949 . S
C1008 C1016 1.574 . S
C1008 C1024 1.368 . S
H1009 C1017 0.950 . S
H1010 C1015 0.950 . S
H1011 C1016 0.949 . S
H1012 C1018 0.950 1_455 S
H1013 C1019 0.950 . S
H1014 C1020 0.949 . S
C1015 H1010 0.950 . S
C1015 C1017 1.327 . S
C1015 C1021 1.429 . S
C1016 C1008 1.574 . S
C1016 H1011 0.949 . S
C1016 C1022 1.368 . S
C1017 C1001 1.349 . S
C1017 H1009 0.950 . S
C1017 C1015 1.327 . S
C1018 C1006 1.349 . S
C1018 H1012 0.950 1_655 S
C1018 C1019 1.327 . S
C1019 H1013 0.950 . S
C1019 C1018 1.327 . S
C1019 C1023 1.429 . S
C1020 C1003 1.574 . S
C1020 H1014 0.949 . S
C1020 C1024 1.368 . S
C1021 C1002 1.429 . S
C1021 C1015 1.429 . S
C1021 C1022 1.523 . S
C1022 C1003 1.368 . S
C1022 C1016 1.368 . S
C1022 C1021 1.523 . S
C1023 C1007 1.429 . S
C1023 C1019 1.429 . S
C1023 C1024 1.523 . S
C1024 C1008 1.368 . S
C1024 C1020 1.368 . S
C1024 C1023 1.523 . S
H1025 C1000 0.950 . S
H1026 C1002 0.950 . S
H1027 C1003 0.949 . S
H1028 C1005 0.950 . S
H1029 C1007 0.950 . S
C1030 C1031 1.358 . S
C1030 C1032 1.327 . S
C1030 H1055 0.950 . S
C1031 C1030 1.358 . S
C1031 C1047 1.335 1_565 S
C1032 C1030 1.327 . S
C1032 C1051 1.429 1_565 S
C1032 H1056 0.950 . S
C1033 C1050 1.574 . S
C1033 C1052 1.368 . S
C1033 H1057 0.949 . S
H1034 C1038 0.949 . S
C1035 C1036 1.349 . S
C1035 C1037 1.327 . S
C1035 H1058 0.950 . S
C1036 C1035 1.349 . S
C1036 C1048 1.349 . S
C1037 C1035 1.327 . S
C1037 C1053 1.429 . S
C1037 H1059 0.950 . S
C1038 H1034 0.949 . S
C1038 C1046 1.574 . S
C1038 C1054 1.368 1_565 S
H1039 C1047 0.950 . S
H1040 C1045 0.950 . S
H1041 C1046 0.949 . S
H1042 C1048 0.950 1_565 S
H1043 C1049 0.965 . S
H1044 C1050 0.949 . S
C1045 H1040 0.950 . S
C1045 C1047 1.327 . S
C1045 C1051 1.429 . S
C1046 C1038 1.574 . S
C1046 H1041 0.949 . S
C1046 C1052 1.368 1_565 S
C1047 C1031 1.335 1_545 S
C1047 H1039 0.950 . S
C1047 C1045 1.327 . S
C1048 C1036 1.349 . S
C1048 H1042 0.950 1_545 S
C1048 C1049 1.322 1_545 S
C1049 H1043 0.965 . S
C1049 C1048 1.322 1_565 S
C1049 C1053 1.420 1_565 S
C1050 C1033 1.574 . S
C1050 H1044 0.949 . S
C1050 C1054 1.368 . S
C1051 C1032 1.429 1_545 S
C1051 C1045 1.429 . S
C1051 C1052 1.523 . S
C1052 C1033 1.368 . S
C1052 C1046 1.368 1_545 S
C1052 C1051 1.523 . S
C1053 C1037 1.429 . S
C1053 C1049 1.420 1_545 S
C1053 C1054 1.523 . S
C1054 C1038 1.368 1_545 S
C1054 C1050 1.368 . S
C1054 C1053 1.523 . S
H1055 C1030 0.950 . S
H1056 C1032 0.950 . S
H1057 C1033 0.949 . S
H1058 C1035 0.950 . S
H1059 C1037 0.950 . S
C1060 C1061 1.349 . S
C1060 C1062 1.327 . S
C1060 H1085 0.950 . S
C1061 C1060 1.349 . S
C1061 C1077 1.349 . S
C1062 C1060 1.327 . S
C1062 C1081 1.429 . S
C1062 H1086 0.950 . S
C1063 C1080 1.574 . S
C1063 C1082 1.368 . S
C1063 H1087 0.949 . S
H1064 C1068 0.949 . S
C1065 C1066 1.349 . S
C1065 C1067 1.327 1_556 S
C1065 H1088 0.950 . S
C1066 C1065 1.349 . S
C1066 C1078 1.349 . S
C1067 C1065 1.327 1_554 S
C1067 C1083 1.429 1_554 S
C1067 H1089 0.950 . S
C1068 H1064 0.949 . S
C1068 C1076 1.574 1_556 S
C1068 C1084 1.368 1_556 S
H1069 C1077 0.950 . S
H1070 C1075 0.950 . S
H1071 C1076 0.949 . S
H1072 C1078 0.950 . S
H1073 C1079 0.950 . S
H1074 C1080 0.949 . S
C1075 H1070 0.950 . S
C1075 C1077 1.327 . S
C1075 C1081 1.429 . S
C1076 C1068 1.574 1_554 S
C1076 H1071 0.949 . S
C1076 C1082 1.368 . S
C1077 C1061 1.349 . S
C1077 H1069 0.950 . S
C1077 C1075 1.327 . S
C1078 C1066 1.349 . S
C1078 H1072 0.950 . S
C1078 C1079 1.327 . S
C1079 H1073 0.950 . S
C1079 C1078 1.327 . S
C1079 C1083 1.429 . S
C1080 C1063 1.574 . S
C1080 H1074 0.949 . S
C1080 C1084 1.368 . S
C1081 C1062 1.429 . S
C1081 C1075 1.429 . S
C1081 C1082 1.523 . S
C1082 C1063 1.368 . S
C1082 C1076 1.368 . S
C1082 C1081 1.523 . S
C1083 C1067 1.429 1_556 S
C1083 C1079 1.429 . S
C1083 C1084 1.523 1_556 S
C1084 C1068 1.368 1_554 S
C1084 C1080 1.368 . S
C1084 C1083 1.523 1_554 S
H1085 C1060 0.950 . S
H1086 C1062 0.950 . S
H1087 C1063 0.949 . S
H1088 C1065 0.950 . S
H1089 C1067 0.950 . S
C1090 C1091 1.349 . S
C1090 C1092 1.327 . S
C1090 H1115 0.950 . S
C1091 C1090 1.349 . S
C1091 C1107 1.349 . S
C1092 C1090 1.327 . S
C1092 C1111 1.429 . S
C1092 H1116 0.950 . S
C1093 C1110 1.574 . S
C1093 C1112 1.368 . S
C1093 H1117 0.949 . S
H1094 C1098 0.949 . S
C1095 C1096 1.349 . S
C1095 C1097 1.327 . S
C1095 H1118 0.950 . S
C1096 C1095 1.349 . S
C1096 C1108 1.349 . S
C1097 C1095 1.327 . S
C1097 C1113 1.429 . S
C1097 H1119 0.950 . S
C1098 H1094 0.949 . S
C1098 C1106 1.574 . S
C1098 C1114 1.368 . S
H1099 C1107 0.950 . S
H1100 C1105 0.950 . S
H1101 C1106 0.949 . S
H1102 C1108 0.950 . S
H1103 C1109 0.950 . S
H1104 C1110 0.949 . S
C1105 H1100 0.950 . S
C1105 C1107 1.327 . S
C1105 C1111 1.429 . S
C1106 C1098 1.574 . S
C1106 H1101 0.949 . S
C1106 C1112 1.368 . S
C1107 C1091 1.349 . S
C1107 H1099 0.950 . S
C1107 C1105 1.327 . S
C1108 C1096 1.349 . S
C1108 H1102 0.950 . S
C1108 C1109 1.327 . S
C1109 H1103 0.950 . S
C1109 C1108 1.327 . S
C1109 C1113 1.429 . S
C1110 C1093 1.574 . S
C1110 H1104 0.949 . S
C1110 C1114 1.368 . S
C1111 C1092 1.429 . S
C1111 C1105 1.429 . S
C1111 C1112 1.523 . S
C1112 C1093 1.368 . S
C1112 C1106 1.368 . S
C1112 C1111 1.523 . S
C1113 C1097 1.429 . S
C1113 C1109 1.429 . S
C1113 C1114 1.523 . S
C1114 C1098 1.368 . S
C1114 C1110 1.368 . S
C1114 C1113 1.523 . S
H1115 C1090 0.950 . S
H1116 C1092 0.950 . S
H1117 C1093 0.949 . S
H1118 C1095 0.950 . S
H1119 C1097 0.950 . S
C1120 C1121 1.349 . S
C1120 C1122 1.327 . S
C1120 H1145 0.950 . S
C1121 C1120 1.349 . S
C1121 C1137 1.349 . S
C1122 C1120 1.327 . S
C1122 C1141 1.429 . S
C1122 H1146 0.950 . S
C1123 C1140 1.574 . S
C1123 C1142 1.368 . S
C1123 H1147 0.949 . S
H1124 C1128 0.949 . S
C1125 C1126 1.349 . S
C1125 C1127 1.327 . S
C1125 H1148 0.950 . S
C1126 C1125 1.349 . S
C1126 C1138 1.349 . S
C1127 C1125 1.327 . S
C1127 C1143 1.429 . S
C1127 H1149 0.950 . S
C1128 H1124 0.949 . S
C1128 C1136 1.574 . S
C1128 C1144 1.368 . S
H1129 C1137 0.950 . S
H1130 C1135 0.950 . S
H1131 C1136 0.949 . S
H1132 C1138 0.950 1_556 S
H1133 C1139 0.950 . S
H1134 C1140 0.949 . S
C1135 H1130 0.950 . S
C1135 C1137 1.327 . S
C1135 C1141 1.429 . S
C1136 C1128 1.574 . S
C1136 H1131 0.949 . S
C1136 C1142 1.368 . S
C1137 C1121 1.349 . S
C1137 H1129 0.950 . S
C1137 C1135 1.327 . S
C1138 C1126 1.349 . S
C1138 H1132 0.950 1_554 S
C1138 C1139 1.327 . S
C1139 H1133 0.950 . S
C1139 C1138 1.327 . S
C1139 C1143 1.429 . S
C1140 C1123 1.574 . S
C1140 H1134 0.949 . S
C1140 C1144 1.368 . S
C1141 C1122 1.429 . S
C1141 C1135 1.429 . S
C1141 C1142 1.523 . S
C1142 C1123 1.368 . S
C1142 C1136 1.368 . S
C1142 C1141 1.523 . S
C1143 C1127 1.429 . S
C1143 C1139 1.429 . S
C1143 C1144 1.523 . S
C1144 C1128 1.368 . S
C1144 C1140 1.368 . S
C1144 C1143 1.523 . S
H1145 C1120 0.950 . S
H1146 C1122 0.950 . S
H1147 C1123 0.949 . S
H1148 C1125 0.950 . S
H1149 C1127 0.950 . S
C1150 C1151 1.349 1_565 S
C1150 C1152 1.327 . S
C1150 H1175 0.950 . S
C1151 C1150 1.349 1_545 S
C1151 C1167 1.349 . S
C1152 C1150 1.327 . S
C1152 C1171 1.429 1_565 S
C1152 H1176 0.950 . S
C1153 C1170 1.574 . S
C1153 C1172 1.368 . S
C1153 H1177 0.949 . S
H1154 C1158 0.949 . S
C1155 C1156 1.349 . S
C1155 C1157 1.327 . S
C1155 H1178 0.950 . S
C1156 C1155 1.349 . S
C1156 C1168 1.349 . S
C1157 C1155 1.327 . S
C1157 C1173 1.429 . S
C1157 H1179 0.950 . S
C1158 H1154 0.949 . S
C1158 C1166 1.574 . S
C1158 C1174 1.368 1_565 S
H1159 C1167 0.950 . S
H1160 C1165 0.950 . S
H1161 C1166 0.949 . S
H1162 C1168 0.950 1_565 S
H1163 C1169 0.916 1_565 S
H1164 C1170 0.949 . S
C1165 H1160 0.950 . S
C1165 C1167 1.327 . S
C1165 C1171 1.429 . S
C1166 C1158 1.574 . S
C1166 H1161 0.949 . S
C1166 C1172 1.368 1_565 S
C1167 C1151 1.349 . S
C1167 H1159 0.950 . S
C1167 C1165 1.327 . S
C1168 C1156 1.349 . S
C1168 H1162 0.950 1_545 S
C1168 C1169 1.323 . S
C1169 H1163 0.916 1_545 S
C1169 C1168 1.323 . S
C1169 C1173 1.468 . S
C1170 C1153 1.574 . S
C1170 H1164 0.949 . S
C1170 C1174 1.368 . S
C1171 C1152 1.429 1_545 S
C1171 C1165 1.429 . S
C1171 C1172 1.523 . S
C1172 C1153 1.368 . S
C1172 C1166 1.368 1_545 S
C1172 C1171 1.523 . S
C1173 C1157 1.429 . S
C1173 C1169 1.468 . S
C1173 C1174 1.523 . S
C1174 C1158 1.368 1_545 S
C1174 C1170 1.368 . S
C1174 C1173 1.523 . S
H1175 C1150 0.950 . S
H1176 C1152 0.950 . S
H1177 C1153 0.949 . S
H1178 C1155 0.950 . S
H1179 C1157 0.950 . S
C1180 C1181 1.349 . S
C1180 C1182 1.327 . S
C1180 H1205 0.950 . S
C1181 C1180 1.349 . S
C1181 C1197 1.349 1_554 S
C1182 C1180 1.327 . S
C1182 C1201 1.429 1_554 S
C1182 H1206 0.950 . S
C1183 C1200 1.574 . S
C1183 C1202 1.368 . S
C1183 H1207 0.949 . S
H1184 C1188 0.949 1_554 S
C1185 C1186 1.349 . S
C1185 C1187 1.327 . S
C1185 H1208 0.950 . S
C1186 C1185 1.349 . S
C1186 C1198 1.349 . S
C1187 C1185 1.327 . S
C1187 C1203 1.429 . S
C1187 H1209 0.950 . S
C1188 H1184 0.949 1_556 S
C1188 C1196 1.574 1_556 S
C1188 C1204 1.368 . S
H1189 C1197 0.950 . S
H1190 C1195 0.950 . S
H1191 C1196 0.949 . S
H1192 C1198 0.950 . S
H1193 C1199 0.950 . S
H1194 C1200 0.949 . S
C1195 H1190 0.950 . S
C1195 C1197 1.327 . S
C1195 C1201 1.429 . S
C1196 C1188 1.574 1_554 S
C1196 H1191 0.949 . S
C1196 C1202 1.368 1_554 S
C1197 C1181 1.349 1_556 S
C1197 H1189 0.950 . S
C1197 C1195 1.327 . S
C1198 C1186 1.349 . S
C1198 H1192 0.950 . S
C1198 C1199 1.327 . S
C1199 H1193 0.950 . S
C1199 C1198 1.327 . S
C1199 C1203 1.429 . S
C1200 C1183 1.574 . S
C1200 H1194 0.949 . S
C1200 C1204 1.368 . S
C1201 C1182 1.429 1_556 S
C1201 C1195 1.429 . S
C1201 C1202 1.523 . S
C1202 C1183 1.368 . S
C1202 C1196 1.368 1_556 S
C1202 C1201 1.523 . S
C1203 C1187 1.429 . S
C1203 C1199 1.429 . S
C1203 C1204 1.523 . S
C1204 C1188 1.368 . S
C1204 C1200 1.368 . S
C1204 C1203 1.523 . S
H1205 C1180 0.950 . S
H1206 C1182 0.950 . S
H1207 C1183 0.949 . S
H1208 C1185 0.950 . S
H1209 C1187 0.950 . S
C1210 C1211 1.349 . S
C1210 C1212 1.327 . S
C1210 H1235 0.950 . S
C1211 C1210 1.349 . S
C1211 C1227 1.349 . S
C1212 C1210 1.327 . S
C1212 C1231 1.429 . S
C1212 H1236 0.950 . S
C1213 C1230 1.574 . S
C1213 C1232 1.368 . S
C1213 H1237 0.949 . S
H1214 C1218 0.949 . S
C1215 C1216 1.349 . S
C1215 C1217 1.327 . S
C1215 H1238 0.950 . S
C1216 C1215 1.349 . S
C1216 C1228 1.349 . S
C1217 C1215 1.327 . S
C1217 C1233 1.429 . S
C1217 H1239 0.950 . S
C1218 H1214 0.949 . S
C1218 C1226 1.574 . S
C1218 C1234 1.368 . S
H1219 C1227 0.950 . S
H1220 C1225 0.950 . S
H1221 C1226 0.949 . S
H1222 C1228 0.950 1_556 S
H1223 C1229 0.950 . S
H1224 C1230 0.949 . S
C1225 H1220 0.950 . S
C1225 C1227 1.327 . S
C1225 C1231 1.429 . S
C1226 C1218 1.574 . S
C1226 H1221 0.949 . S
C1226 C1232 1.368 . S
C1227 C1211 1.349 . S
C1227 H1219 0.950 . S
C1227 C1225 1.327 . S
C1228 C1216 1.349 . S
C1228 H1222 0.950 1_554 S
C1228 C1229 1.327 . S
C1229 H1223 0.950 . S
C1229 C1228 1.327 . S
C1229 C1233 1.429 . S
C1230 C1213 1.574 . S
C1230 H1224 0.949 . S
C1230 C1234 1.368 . S
C1231 C1212 1.429 . S
C1231 C1225 1.429 . S
C1231 C1232 1.523 . S
C1232 C1213 1.368 . S
C1232 C1226 1.368 . S
C1232 C1231 1.523 . S
C1233 C1217 1.429 . S
C1233 C1229 1.429 . S
C1233 C1234 1.523 . S
C1234 C1218 1.368 . S
C1234 C1230 1.368 . S
C1234 C1233 1.523 . S
H1235 C1210 0.950 . S
H1236 C1212 0.950 . S
H1237 C1213 0.949 . S
H1238 C1215 0.950 . S
H1239 C1217 0.950 . S
C1240 C1241 1.349 . S
C1240 C1242 1.327 . S
C1240 H1265 0.950 . S
C1241 C1240 1.349 . S
C1241 C1257 1.349 . S
C1242 C1240 1.327 . S
C1242 C1261 1.429 . S
C1242 H1266 0.950 . S
C1243 C1260 1.574 . S
C1243 C1262 1.368 . S
C1243 H1267 0.949 . S
H1244 C1248 0.949 . S
C1245 C1246 1.349 . S
C1245 C1247 1.327 . S
C1245 H1268 0.950 . S
C1246 C1245 1.349 . S
C1246 C1258 1.349 . S
C1247 C1245 1.327 . S
C1247 C1263 1.429 . S
C1247 H1269 0.950 . S
C1248 H1244 0.949 . S
C1248 C1256 1.574 . S
C1248 C1264 1.368 . S
H1249 C1257 0.950 . S
H1250 C1255 0.950 . S
H1251 C1256 0.949 . S
H1252 C1258 0.950 . S
H1253 C1259 0.950 . S
H1254 C1260 0.949 . S
C1255 H1250 0.950 . S
C1255 C1257 1.327 . S
C1255 C1261 1.429 . S
C1256 C1248 1.574 . S
C1256 H1251 0.949 . S
C1256 C1262 1.368 . S
C1257 C1241 1.349 . S
C1257 H1249 0.950 . S
C1257 C1255 1.327 . S
C1258 C1246 1.349 . S
C1258 H1252 0.950 . S
C1258 C1259 1.327 . S
C1259 H1253 0.950 . S
C1259 C1258 1.327 . S
C1259 C1263 1.429 . S
C1260 C1243 1.574 . S
C1260 H1254 0.949 . S
C1260 C1264 1.368 . S
C1261 C1242 1.429 . S
C1261 C1255 1.429 . S
C1261 C1262 1.523 . S
C1262 C1243 1.368 . S
C1262 C1256 1.368 . S
C1262 C1261 1.523 . S
C1263 C1247 1.429 . S
C1263 C1259 1.429 . S
C1263 C1264 1.523 . S
C1264 C1248 1.368 . S
C1264 C1260 1.368 . S
C1264 C1263 1.523 . S
H1265 C1240 0.950 . S
H1266 C1242 0.950 . S
H1267 C1243 0.949 . S
H1268 C1245 0.950 . S
H1269 C1247 0.950 . S
C1270 C1271 1.349 1_545 S
C1270 C1272 1.327 . S
C1270 H1295 0.950 . S
C1271 C1270 1.349 1_565 S
C1271 C1287 1.349 . S
C1272 C1270 1.327 . S
C1272 C1291 1.429 1_545 S
C1272 H1296 0.950 . S
C1273 C1290 1.574 . S
C1273 C1292 1.368 . S
C1273 H1297 0.949 . S
H1274 C1278 0.949 . S
C1275 C1276 1.349 . S
C1275 C1277 1.327 . S
C1275 H1298 0.950 . S
C1276 C1275 1.349 . S
C1276 C1288 1.349 . S
C1277 C1275 1.327 . S
C1277 C1293 1.429 . S
C1277 H1299 0.950 . S
C1278 H1274 0.949 . S
C1278 C1286 1.574 . S
C1278 C1294 1.368 1_545 S
H1279 C1287 0.950 . S
H1280 C1285 0.950 . S
H1281 C1286 0.949 . S
H1282 C1288 0.950 1_545 S
H1283 C1289 0.950 1_545 S
H1284 C1290 0.949 . S
C1285 H1280 0.950 . S
C1285 C1287 1.327 . S
C1285 C1291 1.429 . S
C1286 C1278 1.574 . S
C1286 H1281 0.949 . S
C1286 C1292 1.368 1_545 S
C1287 C1271 1.349 . S
C1287 H1279 0.950 . S
C1287 C1285 1.327 . S
C1288 C1276 1.349 . S
C1288 H1282 0.950 1_565 S
C1288 C1289 1.327 . S
C1289 H1283 0.950 1_565 S
C1289 C1288 1.327 . S
C1289 C1293 1.429 . S
C1290 C1273 1.574 . S
C1290 H1284 0.949 . S
C1290 C1294 1.368 . S
C1291 C1272 1.429 1_565 S
C1291 C1285 1.429 . S
C1291 C1292 1.523 . S
C1292 C1273 1.368 . S
C1292 C1286 1.368 1_565 S
C1292 C1291 1.523 . S
C1293 C1277 1.429 . S
C1293 C1289 1.429 . S
C1293 C1294 1.523 . S
C1294 C1278 1.368 1_565 S
C1294 C1290 1.368 . S
C1294 C1293 1.523 . S
H1295 C1270 0.950 . S
H1296 C1272 0.950 . S
H1297 C1273 0.949 . S
H1298 C1275 0.950 . S
H1299 C1277 0.950 . S
C1300 C1301 1.349 . S
C1300 C1302 1.327 . S
C1300 H1325 0.950 . S
C1301 C1300 1.349 . S
C1301 C1317 1.349 . S
C1302 C1300 1.327 . S
C1302 C1321 1.429 . S
C1302 H1326 0.950 . S
C1303 C1320 1.574 . S
C1303 C1322 1.368 . S
C1303 H1327 0.949 . S
H1304 C1308 0.949 . S
C1305 C1306 1.349 . S
C1305 C1307 1.327 . S
C1305 H1328 0.950 . S
C1306 C1305 1.349 . S
C1306 C1318 1.349 . S
C1307 C1305 1.327 . S
C1307 C1323 1.429 . S
C1307 H1329 0.950 . S
C1308 H1304 0.949 . S
C1308 C1316 1.574 . S
C1308 C1324 1.368 . S
H1309 C1317 0.950 . S
H1310 C1315 0.950 . S
H1311 C1316 0.949 . S
H1312 C1318 0.950 . S
H1313 C1319 0.950 . S
H1314 C1320 0.949 . S
C1315 H1310 0.950 . S
C1315 C1317 1.327 . S
C1315 C1321 1.429 . S
C1316 C1308 1.574 . S
C1316 H1311 0.949 . S
C1316 C1322 1.368 . S
C1317 C1301 1.349 . S
C1317 H1309 0.950 . S
C1317 C1315 1.327 . S
C1318 C1306 1.349 . S
C1318 H1312 0.950 . S
C1318 C1319 1.327 . S
C1319 H1313 0.950 . S
C1319 C1318 1.327 . S
C1319 C1323 1.429 . S
C1320 C1303 1.574 . S
C1320 H1314 0.949 . S
C1320 C1324 1.368 . S
C1321 C1302 1.429 . S
C1321 C1315 1.429 . S
C1321 C1322 1.523 . S
C1322 C1303 1.368 . S
C1322 C1316 1.368 . S
C1322 C1321 1.523 . S
C1323 C1307 1.429 . S
C1323 C1319 1.429 . S
C1323 C1324 1.523 . S
C1324 C1308 1.368 . S
C1324 C1320 1.368 . S
C1324 C1323 1.523 . S
H1325 C1300 0.950 . S
H1326 C1302 0.950 . S
H1327 C1303 0.949 . S
H1328 C1305 0.950 . S
H1329 C1307 0.950 . S
C1330 C1331 1.349 . S
C1330 C1332 1.327 . S
C1330 H1355 0.950 . S
C1331 C1330 1.349 . S
C1331 C1347 1.349 . S
C1332 C1330 1.327 . S
C1332 C1351 1.429 . S
C1332 H1356 0.950 . S
C1333 C1350 1.574 . S
C1333 C1352 1.368 . S
C1333 H1357 0.949 . S
H1334 C1338 0.949 . S
C1335 C1336 1.349 . S
C1335 C1337 1.327 . S
C1335 H1358 0.950 . S
C1336 C1335 1.349 . S
C1336 C1348 1.349 . S
C1337 C1335 1.327 . S
C1337 C1353 1.429 . S
C1337 H1359 0.950 . S
C1338 H1334 0.949 . S
C1338 C1346 1.574 . S
C1338 C1354 1.368 . S
H1339 C1347 0.950 . S
H1340 C1345 0.950 . S
H1341 C1346 0.949 . S
H1342 C1348 0.950 . S
H1343 C1349 0.950 . S
H1344 C1350 0.949 . S
C1345 H1340 0.950 . S
C1345 C1347 1.327 . S
C1345 C1351 1.429 . S
C1346 C1338 1.574 . S
C1346 H1341 0.949 . S
C1346 C1352 1.368 . S
C1347 C1331 1.349 . S
C1347 H1339 0.950 . S
C1347 C1345 1.327 . S
C1348 C1336 1.349 . S
C1348 H1342 0.950 . S
C1348 C1349 1.327 . S
C1349 H1343 0.950 . S
C1349 C1348 1.327 . S
C1349 C1353 1.429 . S
C1350 C1333 1.574 . S
C1350 H1344 0.949 . S
C1350 C1354 1.368 . S
C1351 C1332 1.429 . S
C1351 C1345 1.429 . S
C1351 C1352 1.523 . S
C1352 C1333 1.368 . S
C1352 C1346 1.368 . S
C1352 C1351 1.523 . S
C1353 C1337 1.429 . S
C1353 C1349 1.429 . S
C1353 C1354 1.523 . S
C1354 C1338 1.368 . S
C1354 C1350 1.368 . S
C1354 C1353 1.523 . S
H1355 C1330 0.950 . S
H1356 C1332 0.950 . S
H1357 C1333 0.949 . S
H1358 C1335 0.950 . S
H1359 C1337 0.950 . S
C641 C391 0.798 . S
C646 C489 0.790 . S
C676 C529 1.756 . S
C671 C451 1.892 . S
C706 C578 1.638 . S
C701 C241 1.649 . S
C736 C609 2.117 . S
C731 C331 2.018 . S
C766 C498 0.791 . S
C761 C121 0.795 1_545 S
C791 C211 1.813 . S
C796 C538 1.759 . S
C821 C31 1.673 1_556 S
C826 C569 1.638 . S
C851 C91 2.120 1_556 S
C856 C618 2.117 1_655 S
C886 C499 1.080 . S
C881 C301 0.891 . S
C916 C539 0.420 . S
C911 C380 0.487 . S
C946 C575 0.406 . S
C941 C440 0.402 . S
C971 C260 1.075 . S
C976 C619 1.223 . S
C1001 C61 0.958 . S
C1006 C490 1.084 1_655 S
C1036 C530 0.420 . S
C1031 C140 0.672 . S
C1066 C566 0.406 . S
C1061 C200 0.502 . S
C1091 C20 1.189 . S
C1096 C610 1.222 . S
C1121 C320 2.132 . S
C1126 C495 2.221 1_554 S
C1151 C361 1.578 . S
C1156 C535 1.723 1_554 S
C1186 C579 2.765 . S
C1181 C421 2.380 . S
C1216 C615 1.785 1_554 S
C1211 C271 1.779 . S
C1241 C80 2.199 . S
C1246 C486 2.229 . S
C1276 C526 1.722 . S
C1271 C151 1.712 . S
C1306 C570 2.765 . S
C1301 C181 2.297 . S
C1331 C1 1.655 . S
C1336 C606 1.784 . S
