# Generated by pormake.
# Topology rtl, (3,6)-cn, num edge types: 1
# Building blocks:
#     Node 0, Type 0, BuildingBlock: CUQRIR_clean_linker_1, # of connection points: 3
#     Node 1, Type 0, BuildingBlock: CUQRIR_clean_linker_1, # of connection points: 3
#     Node 2, Type 0, BuildingBlock: CUQRIR_clean_linker_1, # of connection points: 3
#     Node 3, Type 0, BuildingBlock: CUQRIR_clean_linker_1, # of connection points: 3
#     Node 4, Type 1, BuildingBlock: KUMBOL_clean_sbu_1, # of connection points: 6
#     Node 5, Type 1, BuildingBlock: KUMBOL_clean_sbu_1, # of connection points: 6
#     Edge 6, Type (0, 1), BuildingBlock: CIFDUS_clean_linker_0, # of connection points: 2
#     Edge 7, Type (0, 1), BuildingBlock: CIFDUS_clean_linker_0, # of connection points: 2
#     Edge 8, Type (0, 1), BuildingBlock: CIFDUS_clean_linker_0, # of connection points: 2
#     Edge 9, Type (0, 1), BuildingBlock: CIFDUS_clean_linker_0, # of connection points: 2
#     Edge 10, Type (0, 1), BuildingBlock: CIFDUS_clean_linker_0, # of connection points: 2
#     Edge 11, Type (0, 1), BuildingBlock: CIFDUS_clean_linker_0, # of connection points: 2
#     Edge 12, Type (0, 1), BuildingBlock: CIFDUS_clean_linker_0, # of connection points: 2
#     Edge 13, Type (0, 1), BuildingBlock: CIFDUS_clean_linker_0, # of connection points: 2
#     Edge 14, Type (0, 1), BuildingBlock: CIFDUS_clean_linker_0, # of connection points: 2
#     Edge 15, Type (0, 1), BuildingBlock: CIFDUS_clean_linker_0, # of connection points: 2
#     Edge 16, Type (0, 1), BuildingBlock: CIFDUS_clean_linker_0, # of connection points: 2
#     Edge 17, Type (0, 1), BuildingBlock: CIFDUS_clean_linker_0, # of connection points: 2
# Relax obj value: 0.066
# Max RMSD: 0.236
# Mean RMSD: 0.182
data_MOF--net-rtl--node1-KUMBOL_clean_sbu_1--node2-CUQRIR_clean_linker_1--edge1-CIFDUS_clean_linker_0
_symmetry_space_group_name_H-M    P1
_symmetry_Int_Tables_number       1
_symmetry_cell_setting            triclinic
loop_
_symmetry_equiv_pos_as_xyz
'x, y, z'
_cell_length_a     28.528527
_cell_length_b     29.214595
_cell_length_c     21.921676
_cell_angle_alpha  74.272391
_cell_angle_beta   98.016307
_cell_angle_gamma 91.323752
loop_
_atom_site_label
_atom_site_type_symbol
_atom_site_fract_x
_atom_site_fract_y
_atom_site_fract_z
_atom_type_partial_charge
C0 C 0.2447 0.7977 0.98195 0.0
N1 N 0.21095 0.82254 0.99762 0.0
N2 N 0.26731 0.76646 0.03479 0.0
C3 C 0.25331 0.80159 0.91442 0.0
C4 C 0.24605 0.77331 0.08328 0.0
N5 N 0.21168 0.80731 0.06063 0.0
C6 C 0.25705 0.74472 0.1519 0.0
H7 H 0.22358 0.78486 0.89039 0.0
H8 H 0.28707 0.78404 0.91321 0.0
H9 H 0.25462 0.83931 0.88676 0.0
H10 H 0.29063 0.75745 0.17341 0.0
H11 H 0.26224 0.70666 0.15457 0.0
H12 H 0.22865 0.74828 0.18016 0.0
C13 C 0.72174 0.74923 0.71074 0.0
N14 N 0.69199 0.71298 0.7054 0.0
N15 N 0.7426 0.76569 0.65694 0.0
C16 C 0.72789 0.77074 0.76626 0.0
C17 C 0.72463 0.73799 0.61904 0.0
N18 N 0.69339 0.70677 0.64778 0.0
C19 C 0.74133 0.73796 0.55673 0.0
H20 H 0.69516 0.76725 0.78909 0.0
H21 H 0.73712 0.80885 0.75063 0.0
H22 H 0.75712 0.75169 0.80239 0.0
H23 H 0.77791 0.75144 0.55475 0.0
H24 H 0.7174 0.76117 0.51659 0.0
H25 H 0.74058 0.70163 0.55006 0.0
C26 C 0.80327 0.22628 0.16955 0.0
N27 N 0.83925 0.20415 0.15424 0.0
N28 N 0.77386 0.24856 0.11624 0.0
C29 C 0.79768 0.22739 0.23647 0.0
C30 C 0.79322 0.23892 0.06793 0.0
N31 N 0.83295 0.21165 0.09109 0.0
C32 C 0.77426 0.25743 0.99802 0.0
H33 H 0.77508 0.19741 0.25731 0.0
H34 H 0.78042 0.2611 0.23616 0.0
H35 H 0.83228 0.22331 0.26767 0.0
H36 H 0.79595 0.28789 0.97612 0.0
H37 H 0.73678 0.2693 0.99095 0.0
H38 H 0.77667 0.22976 0.9726 0.0
C39 C 0.30465 0.28287 0.43563 0.0
N40 N 0.33384 0.31934 0.44074 0.0
N41 N 0.28453 0.26593 0.48983 0.0
C42 C 0.2979 0.26219 0.37934 0.0
C43 C 0.3026 0.29357 0.52784 0.0
N44 N 0.33298 0.32556 0.49837 0.0
C45 C 0.28759 0.29186 0.5916 0.0
H46 H 0.26731 0.28043 0.34509 0.0
H47 H 0.29037 0.22364 0.39467 0.0
H48 H 0.32963 0.26764 0.35427 0.0
H49 H 0.31226 0.26806 0.63015 0.0
H50 H 0.25124 0.27788 0.59454 0.0
H51 H 0.2887 0.32774 0.59982 0.0
C52 C 0.90747 0.11768 0.51062 0.0
C53 C 0.83278 0.07665 0.51227 0.0
C54 C 0.88112 0.07856 0.53605 0.0
C55 C 0.8124 0.11323 0.45985 0.0
C56 C 0.88681 0.15548 0.4599 0.0
C57 C 0.8394 0.15254 0.43363 0.0
N58 N 0.95344 0.11896 0.53628 0.0
C59 C 0.97982 0.15856 0.51726 0.0
C60 C 0.91433 0.19528 0.43772 0.0
C61 C 0.96083 0.1971 0.4672 0.0
Gd62 Gd 0.05514 0.96354 0.54056 0.0
Gd63 Gd 0.98428 0.05058 0.61444 0.0
N64 N 0.90204 0.04379 0.58652 0.0
C65 C 0.80609 0.03887 0.54324 0.0
C66 C 0.8752 0.00938 0.62029 0.0
C67 C 0.82716 0.00571 0.59839 0.0
H68 H 0.89064 0.98463 0.66431 0.0
H69 H 0.80637 0.97747 0.62429 0.0
H70 H 0.16579 0.00247 0.55104 0.0
H71 H 0.01592 0.1597 0.53954 0.0
H72 H 0.24238 0.97973 0.62118 0.0
H73 H 0.76884 0.03606 0.52652 0.0
H74 H 0.77549 0.11204 0.44031 0.0
H75 H 0.98967 0.86289 0.56626 0.0
H76 H 0.89982 0.22501 0.39864 0.0
H77 H 0.98215 0.22799 0.45104 0.0
H78 H 0.20984 0.83253 0.77051 0.0
H79 H 0.82299 0.18092 0.39405 0.0
H80 H 0.05853 0.76269 0.73329 0.0
H81 H 0.9904 0.78583 0.64753 0.0
N82 N 0.05427 0.88585 0.6095 0.0
C83 C 0.09388 0.87192 0.6526 0.0
C84 C 0.01873 0.85428 0.60489 0.0
C85 C 0.05796 0.79709 0.69849 0.0
C86 C 0.01942 0.81006 0.65023 0.0
C87 C 0.0965 0.82754 0.69899 0.0
H88 H 0.14046 0.78065 0.77931 0.0
N89 N 0.12972 0.94276 0.60142 0.0
C90 C 0.13311 0.90082 0.64763 0.0
C91 C 0.21521 0.91582 0.67985 0.0
C92 C 0.17571 0.88664 0.68905 0.0
C93 C 0.16868 0.9701 0.5897 0.0
C94 C 0.21185 0.95738 0.62933 0.0
O95 O 0.98768 0.06655 0.50787 0.0
O96 O 0.98387 0.99334 0.4889 0.0
O97 O 0.08194 0.98626 0.44903 0.0
O98 O 0.07199 0.9118 0.49161 0.0
O99 O 0.97032 0.97127 0.64272 0.0
O100 O 0.97795 0.94638 0.55329 0.0
O101 O 0.08574 0.98686 0.62832 0.0
O102 O 0.0213 0.98439 0.67887 0.0
O103 O 0.94624 0.07052 0.68303 0.0
O104 O 0.02013 0.08788 0.68046 0.0
O105 O 0.07719 0.041 0.5136 0.0
O106 O 0.05744 0.07643 0.59115 0.0
C107 C 0.9739 0.03899 0.47066 0.0
C108 C 0.95768 0.94393 0.60462 0.0
C109 C 0.06308 0.93762 0.37919 0.0
C110 C 0.07373 0.91686 0.28106 0.0
C111 C 0.99537 0.93682 0.29926 0.0
C112 C 1.01436 0.94393 0.35819 0.0
C113 C 0.02472 0.92316 0.26102 0.0
C114 C 0.09268 0.92442 0.34041 0.0
C115 C 0.08335 0.94356 0.44201 0.0
C116 C 0.17762 0.84373 0.73762 0.0
C117 C 0.13806 0.81426 0.74268 0.0
H118 H 0.24858 0.90621 0.71076 0.0
C119 C 0.06667 0.97802 0.68112 0.0
C120 C 0.08155 0.07447 0.54435 0.0
C121 C 0.97407 0.1344 0.7248 0.0
C122 C 0.94713 0.17173 0.80144 0.0
C123 C 0.9801 0.21968 0.70834 0.0
C124 C 0.98688 0.17904 0.68842 0.0
C125 C 0.96053 0.21615 0.76449 0.0
C126 C 0.95408 0.13099 0.78097 0.0
C127 C 0.98268 0.09042 0.70729 0.0
H128 H 0.95773 0.94177 0.28323 0.0
H129 H 0.99107 0.95406 0.38749 0.0
H130 H 1.00916 0.91804 0.2154 0.0
H131 H 0.13029 0.91915 0.35701 0.0
H132 H 0.99002 0.25409 0.68013 0.0
H133 H 1.00238 0.18243 0.64507 0.0
H134 H 0.95509 0.2483 0.77836 0.0
H135 H 0.94462 0.09635 0.80931 0.0
C136 C 0.67672 0.5069 0.16139 0.0
C137 C 0.70214 0.58877 0.13295 0.0
C138 C 0.66599 0.55497 0.14287 0.0
C139 C 0.74934 0.57322 0.14035 0.0
C140 C 0.72415 0.491 0.17124 0.0
C141 C 0.76033 0.5244 0.15943 0.0
N142 N 0.64096 0.47578 0.1733 0.0
C143 C 0.65048 0.4285 0.20027 0.0
C144 C 0.73384 0.44212 0.19457 0.0
C145 C 0.69688 0.4108 0.2101 0.0
Gd146 Gd 0.46963 0.48513 1.00105 0.0
Gd147 Gd 0.56402 0.50826 0.15431 0.0
N148 N 0.62002 0.56868 0.13556 0.0
C149 C 0.6897 0.63712 0.11648 0.0
C150 C 0.60777 0.61561 0.12236 0.0
C151 C 0.64232 0.65057 0.11173 0.0
H152 H 0.57114 0.6259 0.11877 0.0
H153 H 0.63243 0.6878 0.1 0.0
H154 H 0.52836 0.38303 1.002 0.0
H155 H 0.62209 0.40435 0.2138 0.0
H156 H 0.52677 0.29788 0.05592 0.0
H157 H 0.7164 0.66424 0.10829 0.0
H158 H 0.77764 0.59861 0.13244 0.0
H159 H 0.36044 0.52628 0.98901 0.0
H160 H 0.76979 0.4284 0.20263 0.0
H161 H 0.70412 0.37309 0.22995 0.0
H162 H 0.38253 0.27901 0.14784 0.0
H163 H 0.79698 0.51289 0.16625 0.0
H164 H 0.27734 0.4141 0.08932 0.0
H165 H 0.2841 0.49769 0.02632 0.0
N166 N 0.39585 0.45995 0.03162 0.0
C167 C 0.39213 0.41323 0.06236 0.0
C168 C 0.35739 0.48984 1.01631 0.0
C169 C 0.31064 0.42646 0.07278 0.0
C170 C 0.31431 0.47369 0.03724 0.0
C171 C 0.34963 0.39541 0.08507 0.0
H172 H 0.31505 0.33295 0.13676 0.0
N173 N 0.46977 0.40108 0.04247 0.0
C174 C 0.43059 0.38313 0.06928 0.0
C175 C 0.46327 0.30343 0.09633 0.0
C176 C 0.4268 0.33397 0.09816 0.0
C177 C 0.50179 0.37047 0.03284 0.0
C178 C 0.50014 0.3216 0.06167 0.0
O179 O 0.58113 0.54958 0.05614 0.0
O180 O 0.53064 0.53305 0.97031 0.0
O181 O 0.44682 0.45587 0.92091 0.0
O182 O 0.43164 0.52931 0.91216 0.0
O183 O 0.50242 0.56088 0.1179 0.0
O184 O 0.46075 0.55707 0.01843 0.0
O185 O 0.44363 0.48618 0.09397 0.0
O186 O 0.50881 0.45209 0.15906 0.0
O187 O 0.55127 0.54338 0.22727 0.0
O188 O 0.57764 0.47117 0.2548 0.0
O189 O 0.54547 0.46054 1.01212 0.0
O190 O 0.55716 0.44237 0.12027 0.0
C191 C 0.56702 0.55479 0.99441 0.0
C192 C 0.47134 0.5774 0.06585 0.0
C193 C 0.44321 0.50802 0.81744 0.0
C194 C 0.44521 0.48482 0.71856 0.0
C195 C 0.47483 0.56176 0.7277 0.0
C196 C 0.4635 0.5517 0.78997 0.0
C197 C 0.46566 0.52865 0.69203 0.0
C198 C 0.43411 0.47493 0.78137 0.0
C199 C 0.43027 0.49604 0.88286 0.0
C200 C 0.38566 0.31652 0.12457 0.0
C201 C 0.34712 0.34718 0.11798 0.0
H202 H 0.46172 0.26547 0.11785 0.0
C203 C 0.46416 0.46389 0.15131 0.0
C204 C 0.57232 0.4425 0.06664 0.0
C205 C 0.60808 0.51916 0.32119 0.0
C206 C 0.6345 0.55363 0.40995 0.0
C207 C 0.68995 0.50921 0.37236 0.0
C208 C 0.65429 0.50122 0.32641 0.0
C209 C 0.68021 0.53505 0.41399 0.0
C210 C 0.59844 0.54587 0.36289 0.0
C211 C 0.57001 0.50822 0.27416 0.0
H212 H 0.49059 0.59543 0.70688 0.0
H213 H 0.47032 0.57812 0.81629 0.0
H214 H 0.47483 0.53718 0.64394 0.0
H215 H 0.41746 0.44163 0.80201 0.0
H216 H 0.72533 0.49527 0.37572 0.0
H217 H 0.66303 0.48042 0.29558 0.0
H218 H 0.70882 0.54135 0.44867 0.0
H219 H 0.56304 0.55994 0.35933 0.0
H220 H 0.20231 0.25079 0.42151 0.0
H221 H 0.29723 0.19171 0.59471 0.0
H222 H 0.24209 0.12731 0.62829 0.0
H223 H 0.16558 0.08873 0.60944 0.0
H224 H 0.07237 0.14478 0.43365 0.0
H225 H 0.12769 0.20925 0.3995 0.0
C226 C 0.21098 0.22336 0.46607 0.0
C227 C 0.25342 0.22608 0.50599 0.0
C228 C 0.17921 0.18617 0.48466 0.0
C229 C 0.26436 0.19058 0.56386 0.0
C230 C 0.23292 0.15379 0.58294 0.0
C231 C 0.15761 0.11523 0.56377 0.0
C232 C 0.11512 0.11269 0.52417 0.0
C233 C 0.18999 0.15149 0.54411 0.0
C234 C 0.10503 0.14648 0.46471 0.0
C235 C 0.13661 0.1832 0.44528 0.0
H236 H 0.35475 0.74864 0.10162 0.0
H237 H 0.25104 0.69925 0.9725 0.0
H238 H 0.30676 0.63873 0.96677 0.0
H239 H 0.38464 0.60096 0.99711 0.0
H240 H 0.48736 0.64397 0.13414 0.0
H241 H 0.43284 0.70651 0.13755 0.0
C242 C 0.34455 0.72419 0.07288 0.0
C243 C 0.29937 0.72862 0.03661 0.0
C244 C 0.37669 0.68896 0.07065 0.0
C245 C 0.28604 0.69679 0.99973 0.0
C246 C 0.31783 0.66232 0.99649 0.0
C247 C 0.3954 0.6239 0.02772 0.0
C248 C 0.44029 0.61776 0.06496 0.0
C249 C 0.36334 0.6584 0.03124 0.0
C250 C 0.45318 0.64797 0.1046 0.0
C251 C 0.4219 0.68361 0.10683 0.0
H252 H 0.8241 0.77915 0.72888 0.0
H253 H 0.73572 0.83803 0.54962 0.0
H254 H 0.79615 0.8964 0.51496 0.0
H255 H 0.87551 0.92949 0.53446 0.0
H256 H 0.96014 0.87725 0.71835 0.0
H257 H 0.9005 0.81746 0.7525 0.0
C258 C 0.81787 0.80536 0.68282 0.0
C259 C 0.77583 0.80388 0.64143 0.0
C260 C 0.85253 0.8395 0.66372 0.0
C261 C 0.7682 0.83801 0.58173 0.0
C262 C 0.80274 0.87132 0.5619 0.0
C263 C 0.88084 0.90466 0.58174 0.0
C264 C 0.9223 0.90692 0.62352 0.0
C265 C 0.84539 0.87194 0.60202 0.0
C266 C 0.92849 0.87569 0.68536 0.0
C267 C 0.89436 0.84168 0.70492 0.0
H268 H 0.7587 0.33908 0.04627 0.0
H269 H 0.69823 0.22359 0.17784 0.0
H270 H 0.63 0.27399 0.17496 0.0
H271 H 0.5882 0.35122 0.13546 0.0
H272 H 0.64595 0.46566 0.99888 0.0
H273 H 0.71464 0.41547 1.00226 0.0
C274 C 0.73017 0.32503 0.07351 0.0
C275 C 0.73312 0.27791 0.11219 0.0
C276 C 0.69084 0.35397 0.07057 0.0
C277 C 0.69654 0.25995 0.14819 0.0
C278 C 0.65762 0.28863 0.14633 0.0
C279 C 0.61578 0.36488 0.10622 0.0
C280 C 0.61257 0.41183 0.06721 0.0
C281 C 0.65449 0.33569 0.10782 0.0
C282 C 0.64806 0.42944 0.02916 0.0
C283 C 0.68722 0.40087 0.03128 0.0
H284 H 0.22599 0.87946 0.11399 0.0
H285 H 0.12896 0.76872 0.09111 0.0
H286 H 0.07628 0.79373 0.15605 0.0
H287 H 0.05906 0.84627 0.22134 0.0
H288 H 0.15842 0.95467 0.24933 0.0
H289 H 0.2094 0.93137 0.18143 0.0
C290 C 0.19306 0.86134 0.12314 0.0
C291 C 0.18041 0.82319 0.09709 0.0
C292 C 0.1638 0.87525 0.16186 0.0
C293 C 0.13842 0.79889 0.10981 0.0
C294 C 0.10866 0.813 0.14718 0.0
C295 C 0.09172 0.86498 0.21219 0.0
C296 C 0.10485 0.90227 0.24019 0.0
C297 C 0.12104 0.85107 0.17361 0.0
C298 C 0.14769 0.92565 0.22875 0.0
C299 C 0.17673 0.91249 0.18968 0.0
H300 H 0.7201 0.66792 0.82944 0.0
H301 H 0.59822 0.69847 0.68444 0.0
H302 H 0.54825 0.65246 0.76104 0.0
H303 H 0.53936 0.60363 0.86984 0.0
H304 H 0.66189 0.57147 1.01387 0.0
H305 H 0.71109 0.61895 0.93848 0.0
C306 C 0.6825 0.66484 0.81508 0.0
C307 C 0.66274 0.68662 0.75154 0.0
C308 C 0.65405 0.6384 0.85954 0.0
C309 C 0.61415 0.68171 0.733 0.0
C310 C 0.58562 0.65558 0.77684 0.0
C311 C 0.57681 0.60691 0.88463 0.0
C312 C 0.59656 0.58459 0.94812 0.0
C313 C 0.60517 0.63367 0.84027 0.0
C314 C 0.64527 0.58947 0.96634 0.0
C315 C 0.67365 0.61618 0.92278 0.0
H316 H 0.83808 0.11107 0.21015 0.0
H317 H 0.92026 0.23707 0.20243 0.0
H318 H 0.97188 0.1957 0.30026 0.0
H319 H 0.98757 0.12629 0.39373 0.0
H320 H 0.90555 0.99957 0.40198 0.0
H321 H 0.85986 0.03802 0.29799 0.0
C322 C 0.86848 0.12853 0.22893 0.0
C323 C 0.8763 0.17649 0.19921 0.0
C324 C 0.89715 0.10468 0.28573 0.0
C325 C 0.91471 0.19975 0.22421 0.0
C326 C 0.9436 0.17632 0.28043 0.0
C327 C 0.95991 0.10706 0.37243 0.0
C328 C 0.94935 0.06052 0.40559 0.0
C329 C 0.93421 0.12926 0.31261 0.0
C330 C 0.91408 0.03554 0.37722 0.0
C331 C 0.88796 0.05752 0.31791 0.0
H332 H 0.39154 0.30928 0.60846 0.0
H333 H 0.33071 0.42044 0.44621 0.0
H334 H 0.36455 0.48091 0.49771 0.0
H335 H 0.40389 0.50133 0.59442 0.0
H336 H 0.4618 0.38908 0.75852 0.0
H337 H 0.43623 0.32973 0.70155 0.0
C338 C 0.38631 0.34682 0.58442 0.0
C339 C 0.35867 0.36071 0.52409 0.0
C340 C 0.40467 0.381 0.61517 0.0
C341 C 0.35226 0.40923 0.49254 0.0
C342 C 0.37119 0.44364 0.52227 0.0
C343 C 0.41166 0.46395 0.61722 0.0
C344 C 0.43423 0.44961 0.68091 0.0
C345 C 0.39639 0.4299 0.58435 0.0
C346 C 0.44374 0.40097 0.70997 0.0
C347 C 0.4293 0.36702 0.67736 0.0
H348 H 0.63309 0.71932 0.53979 0.0
H349 H 0.70498 0.61239 0.69842 0.0
H350 H 0.68494 0.55153 0.6412 0.0
H351 H 0.6599 0.53283 0.53863 0.0
H352 H 0.59221 0.64136 0.37727 0.0
H353 H 0.59658 0.69751 0.4428 0.0
C354 C 0.64291 0.68232 0.56219 0.0
C355 C 0.67065 0.66997 0.62263 0.0
C356 C 0.63262 0.64821 0.52801 0.0
C357 C 0.68344 0.62225 0.65196 0.0
C358 C 0.67243 0.58776 0.61893 0.0
C359 C 0.64523 0.56852 0.5183 0.0
C360 C 0.62648 0.58326 0.45299 0.0
C361 C 0.64904 0.60086 0.55579 0.0
C362 C 0.60683 0.62924 0.42736 0.0
C363 C 0.60971 0.66144 0.46469 0.0
H364 H 0.81839 0.15002 0.02005 0.0
H365 H 0.91896 0.24814 0.07539 0.0
H366 H 0.96621 0.24203 0.99235 0.0
H367 H 0.97348 0.21546 0.89624 0.0
H368 H 0.87014 0.11979 0.83825 0.0
H369 H 0.82937 0.118 0.92965 0.0
C370 C 0.85131 0.16902 1.01454 0.0
C371 C 0.86553 0.1994 0.05329 0.0
C372 C 0.87716 0.16639 0.96546 0.0
C373 C 0.90793 0.22422 0.04622 0.0
C374 C 0.93446 0.22114 0.99832 0.0
C375 C 0.94211 0.19413 0.90375 0.0
C376 C 0.9247 0.16813 0.86003 0.0
C377 C 0.91855 0.19355 0.95627 0.0
C378 C 0.88449 0.13996 0.87119 0.0
C379 C 0.861 0.13905 0.92336 0.0
H380 H 0.30828 0.38688 0.33178 0.0
H381 H 0.42739 0.30575 0.44979 0.0
H382 H 0.47963 0.3442 0.37108 0.0
H383 H 0.49027 0.39921 0.26672 0.0
H384 H 0.37178 0.48517 0.15282 0.0
H385 H 0.32033 0.44687 0.23126 0.0
C386 C 0.34574 0.37805 0.33985 0.0
C387 C 0.36436 0.34361 0.39564 0.0
C388 C 0.37541 0.40099 0.29501 0.0
C389 C 0.4128 0.33225 0.40674 0.0
C390 C 0.44243 0.35418 0.36186 0.0
C391 C 0.45329 0.40984 0.25925 0.0
C392 C 0.43462 0.44406 0.20281 0.0
C393 C 0.42406 0.38841 0.30553 0.0
C394 C 0.38678 0.45791 0.19469 0.0
C395 C 0.35733 0.4362 0.23979 0.0
H396 H 0.2252 0.90636 0.91653 0.0
H397 H 0.11831 0.80425 0.97569 0.0
H398 H 0.06114 0.84751 0.88566 0.0
H399 H 0.04491 0.90904 0.78278 0.0
H400 H 0.15561 0.00467 0.71635 0.0
H401 H 0.20847 0.96918 0.81523 0.0
C402 C 0.18904 0.89441 0.90998 0.0
C403 C 0.17546 0.85289 0.95283 0.0
C404 C 0.15756 0.9178 0.85599 0.0
C405 C 0.12889 0.83699 0.94422 0.0
C406 C 0.09656 0.86126 0.89215 0.0
C407 C 0.08032 0.92256 0.79078 0.0
C408 C 0.09654 0.95937 0.74298 0.0
C409 C 0.11091 0.90096 0.84676 0.0
C410 C 0.14265 0.97622 0.75281 0.0
C411 C 0.17277 0.95602 0.80924 0.0
loop_
_geom_bond_atom_site_label_1
_geom_bond_atom_site_label_2
_geom_bond_distance
_geom_bond_site_symmetry_2
_ccdc_geom_bond_type
C0 N1 1.317 . S
C0 N2 1.348 1_556 S
C0 C3 1.485 . S
N1 C0 1.317 . S
N1 N5 1.370 1_556 S
N2 C0 1.348 1_554 S
N2 C4 1.346 . S
C3 C0 1.485 . S
C3 H7 0.960 . S
C3 H8 0.961 . S
C3 H9 0.960 . S
C4 N2 1.346 . S
C4 N5 1.307 . S
C4 C6 1.486 . S
N5 N1 1.370 1_554 S
N5 C4 1.307 . S
C6 C4 1.486 . S
C6 H10 0.960 . S
C6 H11 0.960 . S
C6 H12 0.959 . S
H7 C3 0.960 . S
H8 C3 0.961 . S
H9 C3 0.960 . S
H10 C6 0.960 . S
H11 C6 0.960 . S
H12 C6 0.959 . S
C13 N14 1.317 . S
C13 N15 1.348 . S
C13 C16 1.485 . S
N14 C13 1.317 . S
N14 N18 1.370 . S
N15 C13 1.348 . S
N15 C17 1.346 . S
C16 C13 1.485 . S
C16 H20 0.960 . S
C16 H21 0.961 . S
C16 H22 0.960 . S
C17 N15 1.346 . S
C17 N18 1.307 . S
C17 C19 1.486 . S
N18 N14 1.370 . S
N18 C17 1.307 . S
C19 C17 1.486 . S
C19 H23 0.960 . S
C19 H24 0.960 . S
C19 H25 0.959 . S
H20 C16 0.960 . S
H21 C16 0.961 . S
H22 C16 0.960 . S
H23 C19 0.960 . S
H24 C19 0.960 . S
H25 C19 0.959 . S
C26 N27 1.317 . S
C26 N28 1.348 . S
C26 C29 1.485 . S
N27 C26 1.317 . S
N27 N31 1.370 . S
N28 C26 1.348 . S
N28 C30 1.346 . S
C29 C26 1.485 . S
C29 H33 0.960 . S
C29 H34 0.961 . S
C29 H35 0.960 . S
C30 N28 1.346 . S
C30 N31 1.307 . S
C30 C32 1.486 1_554 S
N31 N27 1.370 . S
N31 C30 1.307 . S
C32 C30 1.486 1_556 S
C32 H36 0.960 . S
C32 H37 0.960 . S
C32 H38 0.959 . S
H33 C29 0.960 . S
H34 C29 0.961 . S
H35 C29 0.960 . S
H36 C32 0.960 . S
H37 C32 0.960 . S
H38 C32 0.959 . S
C39 N40 1.317 . S
C39 N41 1.348 . S
C39 C42 1.485 . S
N40 C39 1.317 . S
N40 N44 1.370 . S
N41 C39 1.348 . S
N41 C43 1.346 . S
C42 C39 1.485 . S
C42 H46 0.960 . S
C42 H47 0.961 . S
C42 H48 0.960 . S
C43 N41 1.346 . S
C43 N44 1.307 . S
C43 C45 1.486 . S
N44 N40 1.370 . S
N44 C43 1.307 . S
C45 C43 1.486 . S
C45 H49 0.960 . S
C45 H50 0.960 . S
C45 H51 0.959 . S
H46 C42 0.960 . S
H47 C42 0.961 . S
H48 C42 0.960 . S
H49 C45 0.960 . S
H50 C45 0.960 . S
H51 C45 0.959 . S
C52 C54 1.422 . S
C52 C56 1.415 . S
C52 N58 1.369 . S
C53 C54 1.421 . S
C53 C55 1.417 . S
C53 C65 1.422 . S
C54 C52 1.422 . S
C54 C53 1.421 . S
C54 N64 1.359 . S
C55 C53 1.417 . S
C55 C57 1.329 . S
C55 H74 0.930 . S
C56 C52 1.415 . S
C56 C57 1.437 . S
C56 C60 1.413 . S
C57 C55 1.329 . S
C57 C56 1.437 . S
C57 H79 0.929 . S
N58 C52 1.369 . S
N58 C59 1.338 1_655 S
N58 Gd63 2.622 . S
C59 N58 1.338 1_455 S
C59 C61 1.378 . S
C59 H71 0.929 . S
C60 C56 1.413 . S
C60 C61 1.348 1_655 S
C60 H76 0.931 . S
C61 C59 1.378 . S
C61 C60 1.348 1_455 S
C61 H77 0.930 . S
Gd62 N82 2.622 . S
Gd62 N89 2.570 . S
Gd62 O96 2.353 1_465 S
Gd62 O97 2.468 . S
Gd62 O98 2.427 . S
Gd62 O100 2.388 1_455 S
Gd62 O101 2.386 . S
Gd62 O105 2.307 1_565 S
Gd62 C115 2.805 . S
Gd63 N58 2.622 . S
Gd63 N64 2.570 . S
Gd63 O95 2.386 . S
Gd63 O99 2.307 1_545 S
Gd63 O102 2.353 1_655 S
Gd63 O103 2.468 . S
Gd63 O104 2.427 . S
Gd63 O106 2.388 1_655 S
Gd63 C127 2.805 . S
N64 C54 1.359 . S
N64 Gd63 2.570 . S
N64 C66 1.343 . S
C65 C53 1.422 . S
C65 C67 1.321 . S
C65 H73 0.931 . S
C66 N64 1.343 . S
C66 C67 1.390 . S
C66 H68 0.931 . S
C67 C65 1.321 . S
C67 C66 1.390 . S
C67 H69 0.930 . S
H68 C66 0.931 . S
H69 C67 0.930 . S
H70 C93 0.931 . S
H71 C59 0.929 . S
H72 C94 0.930 . S
H73 C65 0.931 . S
H74 C55 0.930 . S
H75 C84 0.929 1_655 S
H76 C60 0.931 . S
H77 C61 0.930 . S
H78 C116 0.930 . S
H79 C57 0.929 . S
H80 C85 0.931 . S
H81 C86 0.930 1_655 S
N82 Gd62 2.622 . S
N82 C83 1.369 . S
N82 C84 1.338 . S
C83 N82 1.369 . S
C83 C87 1.415 . S
C83 C90 1.422 . S
C84 H75 0.929 1_455 S
C84 N82 1.338 . S
C84 C86 1.378 . S
C85 H80 0.931 . S
C85 C86 1.348 . S
C85 C87 1.413 . S
C86 H81 0.930 1_455 S
C86 C84 1.378 . S
C86 C85 1.348 . S
C87 C83 1.415 . S
C87 C85 1.413 . S
C87 C117 1.437 . S
H88 C117 0.929 . S
N89 Gd62 2.570 . S
N89 C90 1.359 . S
N89 C93 1.343 . S
C90 C83 1.422 . S
C90 N89 1.359 . S
C90 C92 1.421 . S
C91 C92 1.422 . S
C91 C94 1.321 . S
C91 H118 0.931 . S
C92 C90 1.421 . S
C92 C91 1.422 . S
C92 C116 1.417 . S
C93 H70 0.931 . S
C93 N89 1.343 . S
C93 C94 1.390 . S
C94 H72 0.930 . S
C94 C91 1.321 . S
C94 C93 1.390 . S
O95 Gd63 2.386 . S
O95 C107 1.265 . S
O96 Gd62 2.353 1_645 S
O96 C107 1.242 . S
O97 Gd62 2.468 . S
O97 C115 1.263 . S
O98 Gd62 2.427 . S
O98 C115 1.252 . S
O99 Gd63 2.307 1_565 S
O99 C108 1.261 . S
O100 Gd62 2.388 1_655 S
O100 C108 1.252 . S
O101 Gd62 2.386 . S
O101 C119 1.265 . S
O102 Gd63 2.353 1_455 S
O102 C119 1.242 1_545 S
O103 Gd63 2.468 . S
O103 C127 1.263 . S
O104 Gd63 2.427 . S
O104 C127 1.252 . S
O105 Gd62 2.307 1_545 S
O105 C120 1.261 . S
O106 Gd63 2.388 1_455 S
O106 C120 1.252 . S
C107 O95 1.265 . S
C107 O96 1.242 . S
C108 O99 1.261 . S
C108 O100 1.252 . S
C109 C112 1.394 . S
C109 C114 1.370 . S
C109 C115 1.500 . S
C110 C113 1.383 . S
C110 C114 1.395 . S
C111 C112 1.396 . S
C111 C113 1.365 . S
C111 H128 0.929 . S
C112 C109 1.394 . S
C112 C111 1.396 . S
C112 H129 0.930 . S
C113 C110 1.383 . S
C113 C111 1.365 . S
C113 H130 0.931 . S
C114 C109 1.370 . S
C114 C110 1.395 . S
C114 H131 0.930 . S
C115 Gd62 2.805 . S
C115 O97 1.263 . S
C115 O98 1.252 . S
C115 C109 1.500 . S
C116 H78 0.930 . S
C116 C92 1.417 . S
C116 C117 1.329 . S
C117 C87 1.437 . S
C117 H88 0.929 . S
C117 C116 1.329 . S
H118 C91 0.931 . S
C119 O101 1.265 . S
C119 O102 1.242 1_565 S
C120 O105 1.261 . S
C120 O106 1.252 . S
C121 C124 1.394 . S
C121 C126 1.370 . S
C121 C127 1.500 . S
C122 C125 1.383 . S
C122 C126 1.395 . S
C123 C124 1.396 . S
C123 C125 1.365 . S
C123 H132 0.929 . S
C124 C121 1.394 . S
C124 C123 1.396 . S
C124 H133 0.930 . S
C125 C122 1.383 . S
C125 C123 1.365 . S
C125 H134 0.931 . S
C126 C121 1.370 . S
C126 C122 1.395 . S
C126 H135 0.930 . S
C127 Gd63 2.805 . S
C127 O103 1.263 . S
C127 O104 1.252 . S
C127 C121 1.500 . S
H128 C111 0.929 . S
H129 C112 0.930 . S
H130 C113 0.931 . S
H131 C114 0.930 . S
H132 C123 0.929 . S
H133 C124 0.930 . S
H134 C125 0.931 . S
H135 C126 0.930 . S
C136 C138 1.422 . S
C136 C140 1.415 . S
C136 N142 1.369 . S
C137 C138 1.421 . S
C137 C139 1.417 . S
C137 C149 1.422 . S
C138 C136 1.422 . S
C138 C137 1.421 . S
C138 N148 1.359 . S
C139 C137 1.417 . S
C139 C141 1.329 . S
C139 H158 0.930 . S
C140 C136 1.415 . S
C140 C141 1.437 . S
C140 C144 1.413 . S
C141 C139 1.329 . S
C141 C140 1.437 . S
C141 H163 0.929 . S
N142 C136 1.369 . S
N142 C143 1.338 . S
N142 Gd147 2.622 . S
C143 N142 1.338 . S
C143 C145 1.378 . S
C143 H155 0.929 . S
C144 C140 1.413 . S
C144 C145 1.348 . S
C144 H160 0.931 . S
C145 C143 1.378 . S
C145 C144 1.348 . S
C145 H161 0.930 . S
Gd146 N166 2.622 1_556 S
Gd146 N173 2.570 1_556 S
Gd146 O180 2.353 . S
Gd146 O181 2.468 . S
Gd146 O182 2.427 . S
Gd146 O184 2.388 1_556 S
Gd146 O185 2.386 1_556 S
Gd146 O189 2.307 1_556 S
Gd146 C199 2.805 . S
Gd147 N142 2.622 . S
Gd147 N148 2.570 . S
Gd147 O179 2.386 . S
Gd147 O183 2.307 . S
Gd147 O186 2.353 . S
Gd147 O187 2.468 . S
Gd147 O188 2.427 . S
Gd147 O190 2.388 . S
Gd147 C211 2.805 . S
N148 C138 1.359 . S
N148 Gd147 2.570 . S
N148 C150 1.343 . S
C149 C137 1.422 . S
C149 C151 1.321 . S
C149 H157 0.931 . S
C150 N148 1.343 . S
C150 C151 1.390 . S
C150 H152 0.931 . S
C151 C149 1.321 . S
C151 C150 1.390 . S
C151 H153 0.930 . S
H152 C150 0.931 . S
H153 C151 0.930 . S
H154 C177 0.931 . S
H155 C143 0.929 . S
H156 C178 0.930 . S
H157 C149 0.931 . S
H158 C139 0.930 . S
H159 C168 0.929 . S
H160 C144 0.931 . S
H161 C145 0.930 . S
H162 C200 0.930 . S
H163 C141 0.929 . S
H164 C169 0.931 . S
H165 C170 0.930 . S
N166 Gd146 2.622 1_554 S
N166 C167 1.369 . S
N166 C168 1.338 1_554 S
C167 N166 1.369 . S
C167 C171 1.415 . S
C167 C174 1.422 . S
C168 H159 0.929 . S
C168 N166 1.338 1_556 S
C168 C170 1.378 . S
C169 H164 0.931 . S
C169 C170 1.348 1_554 S
C169 C171 1.413 . S
C170 H165 0.930 . S
C170 C168 1.378 . S
C170 C169 1.348 1_556 S
C171 C167 1.415 . S
C171 C169 1.413 . S
C171 C201 1.437 . S
H172 C201 0.929 . S
N173 Gd146 2.570 1_554 S
N173 C174 1.359 . S
N173 C177 1.343 . S
C174 C167 1.422 . S
C174 N173 1.359 . S
C174 C176 1.421 . S
C175 C176 1.422 . S
C175 C178 1.321 . S
C175 H202 0.931 . S
C176 C174 1.421 . S
C176 C175 1.422 . S
C176 C200 1.417 . S
C177 H154 0.931 . S
C177 N173 1.343 . S
C177 C178 1.390 . S
C178 H156 0.930 . S
C178 C175 1.321 . S
C178 C177 1.390 . S
O179 Gd147 2.386 . S
O179 C191 1.265 1_554 S
O180 Gd146 2.353 . S
O180 C191 1.242 . S
O181 Gd146 2.468 . S
O181 C199 1.263 . S
O182 Gd146 2.427 . S
O182 C199 1.252 . S
O183 Gd147 2.307 . S
O183 C192 1.261 . S
O184 Gd146 2.388 1_554 S
O184 C192 1.252 . S
O185 Gd146 2.386 1_554 S
O185 C203 1.265 . S
O186 Gd147 2.353 . S
O186 C203 1.242 . S
O187 Gd147 2.468 . S
O187 C211 1.263 . S
O188 Gd147 2.427 . S
O188 C211 1.252 . S
O189 Gd146 2.307 1_554 S
O189 C204 1.261 . S
O190 Gd147 2.388 . S
O190 C204 1.252 . S
C191 O179 1.265 1_556 S
C191 O180 1.242 . S
C192 O183 1.261 . S
C192 O184 1.252 . S
C193 C196 1.394 . S
C193 C198 1.370 . S
C193 C199 1.500 . S
C194 C197 1.383 . S
C194 C198 1.395 . S
C195 C196 1.396 . S
C195 C197 1.365 . S
C195 H212 0.929 . S
C196 C193 1.394 . S
C196 C195 1.396 . S
C196 H213 0.930 . S
C197 C194 1.383 . S
C197 C195 1.365 . S
C197 H214 0.931 . S
C198 C193 1.370 . S
C198 C194 1.395 . S
C198 H215 0.930 . S
C199 Gd146 2.805 . S
C199 O181 1.263 . S
C199 O182 1.252 . S
C199 C193 1.500 . S
C200 H162 0.930 . S
C200 C176 1.417 . S
C200 C201 1.329 . S
C201 C171 1.437 . S
C201 H172 0.929 . S
C201 C200 1.329 . S
H202 C175 0.931 . S
C203 O185 1.265 . S
C203 O186 1.242 . S
C204 O189 1.261 . S
C204 O190 1.252 . S
C205 C208 1.394 . S
C205 C210 1.370 . S
C205 C211 1.500 . S
C206 C209 1.383 . S
C206 C210 1.395 . S
C207 C208 1.396 . S
C207 C209 1.365 . S
C207 H216 0.929 . S
C208 C205 1.394 . S
C208 C207 1.396 . S
C208 H217 0.930 . S
C209 C206 1.383 . S
C209 C207 1.365 . S
C209 H218 0.931 . S
C210 C205 1.370 . S
C210 C206 1.395 . S
C210 H219 0.930 . S
C211 Gd147 2.805 . S
C211 O187 1.263 . S
C211 O188 1.252 . S
C211 C205 1.500 . S
H212 C195 0.929 . S
H213 C196 0.930 . S
H214 C197 0.931 . S
H215 C198 0.930 . S
H216 C207 0.929 . S
H217 C208 0.930 . S
H218 C209 0.931 . S
H219 C210 0.930 . S
H220 C226 0.930 . S
H221 C229 0.930 . S
H222 C230 0.930 . S
H223 C231 0.930 . S
H224 C234 0.930 . S
H225 C235 0.930 . S
C226 H220 0.930 . S
C226 C227 1.355 . S
C226 C228 1.415 . S
C227 C226 1.355 . S
C227 C229 1.419 . S
C228 C226 1.415 . S
C228 C233 1.425 . S
C228 C235 1.409 . S
C229 H221 0.930 . S
C229 C227 1.419 . S
C229 C230 1.362 . S
C230 H222 0.930 . S
C230 C229 1.362 . S
C230 C233 1.409 . S
C231 H223 0.930 . S
C231 C232 1.355 . S
C231 C233 1.415 . S
C232 C231 1.355 . S
C232 C234 1.419 . S
C233 C228 1.425 . S
C233 C230 1.409 . S
C233 C231 1.415 . S
C234 H224 0.930 . S
C234 C232 1.419 . S
C234 C235 1.362 . S
C235 H225 0.930 . S
C235 C228 1.409 . S
C235 C234 1.362 . S
H236 C242 0.930 . S
H237 C245 0.930 1_556 S
H238 C246 0.930 . S
H239 C247 0.930 . S
H240 C250 0.930 . S
H241 C251 0.930 . S
C242 H236 0.930 . S
C242 C243 1.355 . S
C242 C244 1.415 . S
C243 C242 1.355 . S
C243 C245 1.419 . S
C244 C242 1.415 . S
C244 C249 1.425 . S
C244 C251 1.409 . S
C245 H237 0.930 1_554 S
C245 C243 1.419 . S
C245 C246 1.362 1_554 S
C246 H238 0.930 . S
C246 C245 1.362 1_556 S
C246 C249 1.409 1_556 S
C247 H239 0.930 . S
C247 C248 1.355 . S
C247 C249 1.415 . S
C248 C247 1.355 . S
C248 C250 1.419 . S
C249 C244 1.425 . S
C249 C246 1.409 1_554 S
C249 C247 1.415 . S
C250 H240 0.930 . S
C250 C248 1.419 . S
C250 C251 1.362 . S
C251 H241 0.930 . S
C251 C244 1.409 . S
C251 C250 1.362 . S
H252 C258 0.930 . S
H253 C261 0.930 . S
H254 C262 0.930 . S
H255 C263 0.930 . S
H256 C266 0.930 . S
H257 C267 0.930 . S
C258 H252 0.930 . S
C258 C259 1.355 . S
C258 C260 1.415 . S
C259 C258 1.355 . S
C259 C261 1.419 . S
C260 C258 1.415 . S
C260 C265 1.425 . S
C260 C267 1.409 . S
C261 H253 0.930 . S
C261 C259 1.419 . S
C261 C262 1.362 . S
C262 H254 0.930 . S
C262 C261 1.362 . S
C262 C265 1.409 . S
C263 H255 0.930 . S
C263 C264 1.355 . S
C263 C265 1.415 . S
C264 C263 1.355 . S
C264 C266 1.419 . S
C265 C260 1.425 . S
C265 C262 1.409 . S
C265 C263 1.415 . S
C266 H256 0.930 . S
C266 C264 1.419 . S
C266 C267 1.362 . S
C267 H257 0.930 . S
C267 C260 1.409 . S
C267 C266 1.362 . S
H268 C274 0.930 . S
H269 C277 0.930 . S
H270 C278 0.930 . S
H271 C279 0.930 . S
H272 C282 0.930 . S
H273 C283 0.930 . S
C274 H268 0.930 . S
C274 C275 1.355 . S
C274 C276 1.415 . S
C275 C274 1.355 . S
C275 C277 1.419 . S
C276 C274 1.415 . S
C276 C281 1.425 . S
C276 C283 1.409 . S
C277 H269 0.930 . S
C277 C275 1.419 . S
C277 C278 1.362 . S
C278 H270 0.930 . S
C278 C277 1.362 . S
C278 C281 1.409 . S
C279 H271 0.930 . S
C279 C280 1.355 . S
C279 C281 1.415 . S
C280 C279 1.355 . S
C280 C282 1.419 . S
C281 C276 1.425 . S
C281 C278 1.409 . S
C281 C279 1.415 . S
C282 H272 0.930 . S
C282 C280 1.419 . S
C282 C283 1.362 . S
C283 H273 0.930 . S
C283 C276 1.409 . S
C283 C282 1.362 . S
H284 C290 0.930 . S
H285 C293 0.930 . S
H286 C294 0.930 . S
H287 C295 0.930 . S
H288 C298 0.930 1_545 S
H289 C299 0.930 . S
C290 H284 0.930 . S
C290 C291 1.355 . S
C290 C292 1.415 . S
C291 C290 1.355 . S
C291 C293 1.419 . S
C292 C290 1.415 . S
C292 C297 1.425 . S
C292 C299 1.409 . S
C293 H285 0.930 . S
C293 C291 1.419 . S
C293 C294 1.362 . S
C294 H286 0.930 . S
C294 C293 1.362 . S
C294 C297 1.409 . S
C295 H287 0.930 . S
C295 C296 1.355 . S
C295 C297 1.415 . S
C296 C295 1.355 . S
C296 C298 1.419 . S
C297 C292 1.425 . S
C297 C294 1.409 . S
C297 C295 1.415 . S
C298 H288 0.930 1_565 S
C298 C296 1.419 . S
C298 C299 1.362 . S
C299 H289 0.930 . S
C299 C292 1.409 . S
C299 C298 1.362 . S
H300 C306 0.930 . S
H301 C309 0.930 . S
H302 C310 0.930 . S
H303 C311 0.930 . S
H304 C314 0.930 . S
H305 C315 0.930 . S
C306 H300 0.930 . S
C306 C307 1.355 . S
C306 C308 1.415 . S
C307 C306 1.355 . S
C307 C309 1.419 . S
C308 C306 1.415 . S
C308 C313 1.425 . S
C308 C315 1.409 . S
C309 H301 0.930 . S
C309 C307 1.419 . S
C309 C310 1.362 . S
C310 H302 0.930 . S
C310 C309 1.362 . S
C310 C313 1.409 . S
C311 H303 0.930 . S
C311 C312 1.355 . S
C311 C313 1.415 . S
C312 C311 1.355 . S
C312 C314 1.419 . S
C313 C308 1.425 . S
C313 C310 1.409 . S
C313 C311 1.415 . S
C314 H304 0.930 . S
C314 C312 1.419 . S
C314 C315 1.362 . S
C315 H305 0.930 . S
C315 C308 1.409 . S
C315 C314 1.362 . S
H316 C322 0.930 . S
H317 C325 0.930 . S
H318 C326 0.930 . S
H319 C327 0.930 . S
H320 C330 0.930 . S
H321 C331 0.930 . S
C322 H316 0.930 . S
C322 C323 1.355 . S
C322 C324 1.415 . S
C323 C322 1.355 . S
C323 C325 1.419 . S
C324 C322 1.415 . S
C324 C329 1.425 . S
C324 C331 1.409 . S
C325 H317 0.930 . S
C325 C323 1.419 . S
C325 C326 1.362 . S
C326 H318 0.930 . S
C326 C325 1.362 . S
C326 C329 1.409 . S
C327 H319 0.930 . S
C327 C328 1.355 . S
C327 C329 1.415 . S
C328 C327 1.355 . S
C328 C330 1.419 . S
C329 C324 1.425 . S
C329 C326 1.409 . S
C329 C327 1.415 . S
C330 H320 0.930 . S
C330 C328 1.419 . S
C330 C331 1.362 . S
C331 H321 0.930 . S
C331 C324 1.409 . S
C331 C330 1.362 . S
H332 C338 0.930 . S
H333 C341 0.930 . S
H334 C342 0.930 . S
H335 C343 0.930 . S
H336 C346 0.930 . S
H337 C347 0.930 . S
C338 H332 0.930 . S
C338 C339 1.355 . S
C338 C340 1.415 . S
C339 C338 1.355 . S
C339 C341 1.419 . S
C340 C338 1.415 . S
C340 C345 1.425 . S
C340 C347 1.409 . S
C341 H333 0.930 . S
C341 C339 1.419 . S
C341 C342 1.362 . S
C342 H334 0.930 . S
C342 C341 1.362 . S
C342 C345 1.409 . S
C343 H335 0.930 . S
C343 C344 1.355 . S
C343 C345 1.415 . S
C344 C343 1.355 . S
C344 C346 1.419 . S
C345 C340 1.425 . S
C345 C342 1.409 . S
C345 C343 1.415 . S
C346 H336 0.930 . S
C346 C344 1.419 . S
C346 C347 1.362 . S
C347 H337 0.930 . S
C347 C340 1.409 . S
C347 C346 1.362 . S
H348 C354 0.930 . S
H349 C357 0.930 . S
H350 C358 0.930 . S
H351 C359 0.930 . S
H352 C362 0.930 . S
H353 C363 0.930 . S
C354 H348 0.930 . S
C354 C355 1.355 . S
C354 C356 1.415 . S
C355 C354 1.355 . S
C355 C357 1.419 . S
C356 C354 1.415 . S
C356 C361 1.425 . S
C356 C363 1.409 . S
C357 H349 0.930 . S
C357 C355 1.419 . S
C357 C358 1.362 . S
C358 H350 0.930 . S
C358 C357 1.362 . S
C358 C361 1.409 . S
C359 H351 0.930 . S
C359 C360 1.355 . S
C359 C361 1.415 . S
C360 C359 1.355 . S
C360 C362 1.419 . S
C361 C356 1.425 . S
C361 C358 1.409 . S
C361 C359 1.415 . S
C362 H352 0.930 . S
C362 C360 1.419 . S
C362 C363 1.362 . S
C363 H353 0.930 . S
C363 C356 1.409 . S
C363 C362 1.362 . S
H364 C370 0.930 . S
H365 C373 0.930 . S
H366 C374 0.929 1_554 S
H367 C375 0.930 . S
H368 C378 0.930 . S
H369 C379 0.930 . S
C370 H364 0.930 . S
C370 C371 1.355 1_556 S
C370 C372 1.415 . S
C371 C370 1.355 1_554 S
C371 C373 1.419 . S
C372 C370 1.415 . S
C372 C377 1.425 . S
C372 C379 1.409 . S
C373 H365 0.930 . S
C373 C371 1.419 . S
C373 C374 1.347 1_554 S
C374 H366 0.929 1_556 S
C374 C373 1.347 1_556 S
C374 C377 1.426 . S
C375 H367 0.930 . S
C375 C376 1.355 . S
C375 C377 1.415 . S
C376 C375 1.355 . S
C376 C378 1.419 . S
C377 C372 1.425 . S
C377 C374 1.426 . S
C377 C375 1.415 . S
C378 H368 0.930 . S
C378 C376 1.419 . S
C378 C379 1.362 . S
C379 H369 0.930 . S
C379 C372 1.409 . S
C379 C378 1.362 . S
H380 C386 0.930 . S
H381 C389 0.930 . S
H382 C390 0.930 . S
H383 C391 0.930 . S
H384 C394 0.930 . S
H385 C395 0.930 . S
C386 H380 0.930 . S
C386 C387 1.355 . S
C386 C388 1.415 . S
C387 C386 1.355 . S
C387 C389 1.419 . S
C388 C386 1.415 . S
C388 C393 1.425 . S
C388 C395 1.409 . S
C389 H381 0.930 . S
C389 C387 1.419 . S
C389 C390 1.362 . S
C390 H382 0.930 . S
C390 C389 1.362 . S
C390 C393 1.409 . S
C391 H383 0.930 . S
C391 C392 1.355 . S
C391 C393 1.415 . S
C392 C391 1.355 . S
C392 C394 1.419 . S
C393 C388 1.425 . S
C393 C390 1.409 . S
C393 C391 1.415 . S
C394 H384 0.930 . S
C394 C392 1.419 . S
C394 C395 1.362 . S
C395 H385 0.930 . S
C395 C388 1.409 . S
C395 C394 1.362 . S
H396 C402 0.930 . S
H397 C405 0.930 . S
H398 C406 0.930 . S
H399 C407 0.930 . S
H400 C410 0.930 . S
H401 C411 0.930 . S
C402 H396 0.930 . S
C402 C403 1.355 . S
C402 C404 1.415 . S
C403 C402 1.355 . S
C403 C405 1.419 . S
C404 C402 1.415 . S
C404 C409 1.425 . S
C404 C411 1.409 . S
C405 H397 0.930 . S
C405 C403 1.419 . S
C405 C406 1.362 . S
C406 H398 0.930 . S
C406 C405 1.362 . S
C406 C409 1.409 . S
C407 H399 0.930 . S
C407 C408 1.355 . S
C407 C409 1.415 . S
C408 C407 1.355 . S
C408 C410 1.419 . S
C409 C404 1.425 . S
C409 C406 1.409 . S
C409 C407 1.415 . S
C410 H400 0.930 . S
C410 C408 1.419 . S
C410 C411 1.362 . S
C411 H401 0.930 . S
C411 C404 1.409 . S
C411 C410 1.362 . S
C232 C120 1.658 . S
C227 N41 1.673 . S
C243 N2 1.607 . S
C248 C192 1.625 . S
C259 N15 1.678 . S
C264 C108 1.649 . S
C275 N28 1.618 . S
C280 C204 1.618 . S
C296 C110 1.442 . S
C291 N5 1.577 . S
C312 C191 1.646 . S
C307 N14 1.662 . S
C323 N27 1.568 . S
C328 C107 1.601 . S
C339 N44 1.560 . S
C344 C194 1.464 . S
C360 C206 1.384 . S
C355 N18 1.586 . S
C376 C122 1.411 . S
C371 N31 1.590 . S
C392 C203 1.650 . S
C387 N40 1.654 . S
C403 N1 1.603 . S
C408 C119 1.599 . S
