# Generated by pormake.
# Topology pyr, (3,6)-cn, num edge types: 1
# Building blocks:
#     Node 0, Type 0, BuildingBlock: KAKCAD_clean_linker_0, # of connection points: 3
#     Node 1, Type 0, BuildingBlock: KAKCAD_clean_linker_0, # of connection points: 3
#     Node 2, Type 0, BuildingBlock: KAKCAD_clean_linker_0, # of connection points: 3
#     Node 3, Type 0, BuildingBlock: KAKCAD_clean_linker_0, # of connection points: 3
#     Node 4, Type 0, BuildingBlock: KAKCAD_clean_linker_0, # of connection points: 3
#     Node 5, Type 0, BuildingBlock: KAKCAD_clean_linker_0, # of connection points: 3
#     Node 6, Type 0, BuildingBlock: KAKCAD_clean_linker_0, # of connection points: 3
#     Node 7, Type 0, BuildingBlock: KAKCAD_clean_linker_0, # of connection points: 3
#     Node 8, Type 1, BuildingBlock: MIDCAF_clean_sbu_0, # of connection points: 6
#     Node 9, Type 1, BuildingBlock: MIDCAF_clean_sbu_0, # of connection points: 6
#     Node 10, Type 1, BuildingBlock: MIDCAF_clean_sbu_0, # of connection points: 6
#     Node 11, Type 1, BuildingBlock: MIDCAF_clean_sbu_0, # of connection points: 6
#     Edge 12, Type (0, 1), BuildingBlock: EZIPEK_clean_linker_0, # of connection points: 2
#     Edge 13, Type (0, 1), BuildingBlock: EZIPEK_clean_linker_0, # of connection points: 2
#     Edge 14, Type (0, 1), BuildingBlock: EZIPEK_clean_linker_0, # of connection points: 2
#     Edge 15, Type (0, 1), BuildingBlock: EZIPEK_clean_linker_0, # of connection points: 2
#     Edge 16, Type (0, 1), BuildingBlock: EZIPEK_clean_linker_0, # of connection points: 2
#     Edge 17, Type (0, 1), BuildingBlock: EZIPEK_clean_linker_0, # of connection points: 2
#     Edge 18, Type (0, 1), BuildingBlock: EZIPEK_clean_linker_0, # of connection points: 2
#     Edge 19, Type (0, 1), BuildingBlock: EZIPEK_clean_linker_0, # of connection points: 2
#     Edge 20, Type (0, 1), BuildingBlock: EZIPEK_clean_linker_0, # of connection points: 2
#     Edge 21, Type (0, 1), BuildingBlock: EZIPEK_clean_linker_0, # of connection points: 2
#     Edge 22, Type (0, 1), BuildingBlock: EZIPEK_clean_linker_0, # of connection points: 2
#     Edge 23, Type (0, 1), BuildingBlock: EZIPEK_clean_linker_0, # of connection points: 2
#     Edge 24, Type (0, 1), BuildingBlock: EZIPEK_clean_linker_0, # of connection points: 2
#     Edge 25, Type (0, 1), BuildingBlock: EZIPEK_clean_linker_0, # of connection points: 2
#     Edge 26, Type (0, 1), BuildingBlock: EZIPEK_clean_linker_0, # of connection points: 2
#     Edge 27, Type (0, 1), BuildingBlock: EZIPEK_clean_linker_0, # of connection points: 2
#     Edge 28, Type (0, 1), BuildingBlock: EZIPEK_clean_linker_0, # of connection points: 2
#     Edge 29, Type (0, 1), BuildingBlock: EZIPEK_clean_linker_0, # of connection points: 2
#     Edge 30, Type (0, 1), BuildingBlock: EZIPEK_clean_linker_0, # of connection points: 2
#     Edge 31, Type (0, 1), BuildingBlock: EZIPEK_clean_linker_0, # of connection points: 2
#     Edge 32, Type (0, 1), BuildingBlock: EZIPEK_clean_linker_0, # of connection points: 2
#     Edge 33, Type (0, 1), BuildingBlock: EZIPEK_clean_linker_0, # of connection points: 2
#     Edge 34, Type (0, 1), BuildingBlock: EZIPEK_clean_linker_0, # of connection points: 2
#     Edge 35, Type (0, 1), BuildingBlock: EZIPEK_clean_linker_0, # of connection points: 2
# Relax obj value: 0.019
# Max RMSD: 0.063
# Mean RMSD: 0.024
data_MOF--net-pyr--node1-MIDCAF_clean_sbu_0--node2-KAKCAD_clean_linker_0--edge1-EZIPEK_clean_linker_0
_symmetry_space_group_name_H-M    P1
_symmetry_Int_Tables_number       1
_symmetry_cell_setting            triclinic
loop_
_symmetry_equiv_pos_as_xyz
'x, y, z'
_cell_length_a     34.254908
_cell_length_b     34.275603
_cell_length_c     34.226986
_cell_angle_alpha  90.292942
_cell_angle_beta   89.898403
_cell_angle_gamma 90.37724
loop_
_atom_site_label
_atom_site_type_symbol
_atom_site_fract_x
_atom_site_fract_y
_atom_site_fract_z
_atom_type_partial_charge
C0 C 0.13608 0.19367 0.32826 0.0
C1 C 0.15527 0.17039 0.35571 0.0
C2 C 0.15731 0.21346 0.29949 0.0
C3 C 0.1984 0.21131 0.29816 0.0
C4 C 0.21754 0.18982 0.32738 0.0
C5 C 0.1962 0.16929 0.35556 0.0
C6 C 0.221 0.22965 0.26547 0.0
C7 C 0.20801 0.26421 0.24771 0.0
C8 C 0.22763 0.28029 0.21525 0.0
C9 C 0.26173 0.26193 0.20167 0.0
C10 C 0.2748 0.22689 0.21821 0.0
C11 C 0.2543 0.21113 0.25012 0.0
C12 C 0.30789 0.20513 0.20014 0.0
C13 C 0.3115 0.20301 0.1592 0.0
C14 C 0.33502 0.1849 0.22328 0.0
C15 C 0.36459 0.1627 0.20583 0.0
C16 C 0.36758 0.16051 0.165 0.0
C17 C 0.21046 0.3139 0.19346 0.0
C18 C 0.18777 0.34225 0.21281 0.0
C19 C 0.21384 0.31609 0.15242 0.0
C20 C 0.19355 0.34431 0.13137 0.0
C21 C 0.16843 0.37022 0.15066 0.0
C22 C 0.16662 0.36976 0.1916 0.0
C23 C 0.34107 0.18103 0.14188 0.0
H24 H 0.10448 0.19485 0.32785 0.0
H25 H 0.14121 0.22901 0.27738 0.0
H26 H 0.24909 0.1882 0.3281 0.0
H27 H 0.2116 0.15164 0.37662 0.0
H28 H 0.18181 0.27797 0.25855 0.0
H29 H 0.2632 0.18324 0.26173 0.0
H30 H 0.27798 0.27461 0.17768 0.0
H31 H 0.29077 0.21745 0.14039 0.0
H32 H 0.33332 0.18613 0.25485 0.0
H33 H 0.38485 0.14693 0.22407 0.0
H34 H 0.1853 0.34257 0.24433 0.0
H35 H 0.23045 0.29477 0.13608 0.0
H36 H 0.34282 0.17937 0.1103 0.0
H37 H 0.14771 0.3898 0.2071 0.0
H38 H 0.19546 0.3443 0.09977 0.0
C39 C 0.33485 0.87709 0.8551 0.0
C40 C 0.37563 0.87447 0.85759 0.0
C41 C 0.31438 0.85615 0.82641 0.0
C42 C 0.33435 0.8328 0.79896 0.0
C43 C 0.37517 0.8291 0.80281 0.0
C44 C 0.39543 0.84922 0.83212 0.0
C45 C 0.31344 0.81466 0.76493 0.0
C46 C 0.28151 0.83358 0.74752 0.0
C47 C 0.26432 0.8189 0.71315 0.0
C48 C 0.27958 0.78502 0.69573 0.0
C49 C 0.3114 0.76562 0.71247 0.0
C50 C 0.32728 0.78004 0.74761 0.0
C51 C 0.33028 0.73239 0.69167 0.0
C52 C 0.308 0.70347 0.67236 0.0
C53 C 0.37125 0.73045 0.68963 0.0
C54 C 0.38949 0.70067 0.6687 0.0
C55 C 0.36728 0.67214 0.6493 0.0
C56 C 0.23216 0.84053 0.69401 0.0
C57 C 0.20001 0.85398 0.7158 0.0
C58 C 0.23382 0.84845 0.65378 0.0
C59 C 0.20414 0.8695 0.63576 0.0
C60 C 0.1721 0.8828 0.65751 0.0
C61 C 0.17 0.87468 0.6976 0.0
C62 C 0.32639 0.67352 0.65133 0.0
H63 H 0.31899 0.89626 0.87465 0.0
H64 H 0.28296 0.85905 0.82529 0.0
H65 H 0.39201 0.81215 0.78213 0.0
H66 H 0.42691 0.84682 0.83355 0.0
H67 H 0.27113 0.86098 0.75936 0.0
H68 H 0.35101 0.76438 0.76112 0.0
H69 H 0.2673 0.77442 0.66849 0.0
H70 H 0.27642 0.70401 0.6735 0.0
H71 H 0.38935 0.7526 0.70339 0.0
H72 H 0.42109 0.70017 0.66714 0.0
H73 H 0.19791 0.84812 0.74681 0.0
H74 H 0.25842 0.83889 0.63634 0.0
H75 H 0.30885 0.65173 0.63634 0.0
H76 H 0.14532 0.88455 0.71474 0.0
H77 H 0.20612 0.87543 0.60476 0.0
C78 C 0.82063 0.39809 0.85926 0.0
C79 C 0.85354 0.38028 0.87541 0.0
C80 C 0.79418 0.37639 0.83694 0.0
C81 C 0.79995 0.33628 0.83051 0.0
C82 C 0.83377 0.31873 0.84548 0.0
C83 C 0.86062 0.34069 0.86748 0.0
C84 C 0.76935 0.31288 0.81022 0.0
C85 C 0.75123 0.32769 0.7767 0.0
C86 C 0.71884 0.30869 0.76002 0.0
C87 C 0.70506 0.2739 0.7767 0.0
C88 C 0.72239 0.25876 0.81065 0.0
C89 C 0.75504 0.27812 0.82678 0.0
C90 C 0.7037 0.22551 0.83162 0.0
C91 C 0.66282 0.22399 0.83563 0.0
C92 C 0.72618 0.19619 0.84925 0.0
C93 C 0.70811 0.16623 0.87058 0.0
C94 C 0.66734 0.16536 0.87477 0.0
C95 C 0.69701 0.32748 0.72785 0.0
C96 C 0.68697 0.36707 0.73099 0.0
C97 C 0.68525 0.30625 0.69454 0.0
C98 C 0.66432 0.32455 0.66468 0.0
C99 C 0.65426 0.36406 0.66822 0.0
C100 C 0.66572 0.38511 0.70153 0.0
C101 C 0.64489 0.19422 0.85689 0.0
H102 H 0.8146 0.42853 0.86527 0.0
H103 H 0.76824 0.39069 0.82621 0.0
H104 H 0.83904 0.28794 0.84075 0.0
H105 H 0.88585 0.32648 0.87986 0.0
H106 H 0.76185 0.35467 0.764 0.0
H107 H 0.7676 0.26769 0.8538 0.0
H108 H 0.67962 0.2596 0.76424 0.0
H109 H 0.64461 0.24644 0.82321 0.0
H110 H 0.75769 0.19643 0.84657 0.0
H111 H 0.72583 0.14404 0.88415 0.0
H112 H 0.69511 0.384 0.75655 0.0
H113 H 0.69268 0.27573 0.69142 0.0
H114 H 0.6134 0.19402 0.85995 0.0
H115 H 0.65831 0.41566 0.70461 0.0
H116 H 0.65591 0.30801 0.63896 0.0
C117 C 0.83731 0.67266 0.17542 0.0
C118 C 0.8779 0.67803 0.17341 0.0
C119 C 0.81507 0.69351 0.20264 0.0
C120 C 0.83309 0.71949 0.22921 0.0
C121 C 0.87366 0.72608 0.22563 0.0
C122 C 0.89563 0.70609 0.19761 0.0
C123 C 0.81054 0.73721 0.26233 0.0
C124 C 0.77976 0.71643 0.2802 0.0
C125 C 0.76115 0.73086 0.3139 0.0
C126 C 0.77403 0.76633 0.33038 0.0
C127 C 0.80525 0.78718 0.31357 0.0
C128 C 0.82206 0.77319 0.27873 0.0
C129 C 0.82366 0.8207 0.33465 0.0
C130 C 0.80115 0.84899 0.35424 0.0
C131 C 0.86463 0.82335 0.3368 0.0
C132 C 0.88264 0.85319 0.35805 0.0
C133 C 0.86024 0.88104 0.37784 0.0
C134 C 0.73124 0.70676 0.33431 0.0
C135 C 0.69638 0.72336 0.34825 0.0
C136 C 0.73841 0.66711 0.34158 0.0
C137 C 0.71213 0.64496 0.3636 0.0
C138 C 0.67802 0.66184 0.37856 0.0
C139 C 0.66975 0.70094 0.3699 0.0
C140 C 0.81934 0.87908 0.37559 0.0
H141 H 0.82297 0.65141 0.1567 0.0
H142 H 0.78387 0.68839 0.20345 0.0
H143 H 0.88908 0.7452 0.24565 0.0
H144 H 0.92693 0.71076 0.19641 0.0
H145 H 0.771 0.68817 0.26887 0.0
H146 H 0.84511 0.79006 0.26505 0.0
H147 H 0.7615 0.77624 0.35775 0.0
H148 H 0.76958 0.84783 0.35308 0.0
H149 H 0.88293 0.80168 0.32288 0.0
H150 H 0.91423 0.8542 0.35962 0.0
H151 H 0.69004 0.75377 0.34285 0.0
H152 H 0.76515 0.65359 0.33161 0.0
H153 H 0.80165 0.90047 0.39069 0.0
H154 H 0.64358 0.71445 0.38133 0.0
H155 H 0.71909 0.6149 0.37016 0.0
C156 C 0.94788 0.96078 0.76697 0.0
C157 C 0.98866 0.95975 0.76404 0.0
C158 C 0.92929 0.95074 0.80176 0.0
C159 C 0.95109 0.93965 0.83461 0.0
C160 C 0.99212 0.93845 0.83154 0.0
C161 C 0.01077 0.94826 0.79641 0.0
C162 C 0.9306 0.92793 0.87117 0.0
C163 C 0.94291 0.89509 0.89213 0.0
C164 C 0.92109 0.88085 0.92397 0.0
C165 C 0.88715 0.90076 0.93535 0.0
C166 C 0.8745 0.93391 0.91503 0.0
C167 C 0.89669 0.94753 0.88333 0.0
C168 C 0.8366 0.95243 0.92513 0.0
C169 C 0.80406 0.92898 0.93431 0.0
C170 C 0.83231 0.9933 0.92508 0.0
C171 C 0.79641 0.01023 0.93476 0.0
C172 C 0.76446 0.9865 0.94484 0.0
C173 C 0.93179 0.84346 0.94317 0.0
C174 C 0.94628 0.81229 0.92064 0.0
C175 C 0.92596 0.83779 0.98356 0.0
C176 C 0.93395 0.8017 0.00075 0.0
C177 C 0.94861 0.77097 0.97797 0.0
C178 C 0.95479 0.77661 0.9379 0.0
C179 C 0.76845 0.94586 0.94415 0.0
H180 H 0.93037 0.96928 0.74212 0.0
H181 H 0.89769 0.95101 0.80261 0.0
H182 H 0.00981 0.93019 0.85631 0.0
H183 H 0.04232 0.9472 0.79452 0.0
H184 H 0.96884 0.87974 0.88273 0.0
H185 H 0.88677 0.97271 0.86723 0.0
H186 H 0.86975 0.88973 0.95937 0.0
H187 H 0.80596 0.89746 0.93364 0.0
H188 H 0.85682 0.01218 0.91822 0.0
H189 H 0.7937 0.0417 0.9351 0.0
H190 H 0.95018 0.81499 0.88937 0.0
H191 H 0.91517 0.86118 0.00191 0.0
H192 H 0.74396 0.92713 0.95159 0.0
H193 H 0.96571 0.75304 0.91979 0.0
H194 H 0.92879 0.79774 0.03171 0.0
C195 C 0.56489 0.05381 0.29142 0.0
C196 C 0.55122 0.08326 0.26677 0.0
C197 C 0.57953 0.06313 0.32842 0.0
C198 C 0.58108 0.10217 0.34129 0.0
C199 C 0.56543 0.13133 0.31709 0.0
C200 C 0.55035 0.12189 0.28031 0.0
C201 C 0.60139 0.11292 0.37833 0.0
C202 C 0.63624 0.09423 0.38903 0.0
C203 C 0.65782 0.107 0.42162 0.0
C204 C 0.6441 0.1388 0.44374 0.0
C205 C 0.6097 0.1581 0.43331 0.0
C206 C 0.58803 0.14425 0.40124 0.0
C207 C 0.59847 0.19502 0.45324 0.0
C208 C 0.6019 0.19964 0.49404 0.0
C209 C 0.58583 0.2268 0.43086 0.0
C210 C 0.57666 0.26218 0.44868 0.0
C211 C 0.58002 0.26671 0.48922 0.0
C212 C 0.69619 0.08921 0.43085 0.0
C213 C 0.70153 0.04851 0.42914 0.0
C214 C 0.728 0.11319 0.44128 0.0
C215 C 0.76391 0.09693 0.4508 0.0
C216 C 0.76891 0.05641 0.44997 0.0
C217 C 0.73771 0.0322 0.43861 0.0
C218 C 0.59273 0.23532 0.51194 0.0
H219 H 0.56557 0.02378 0.28142 0.0
H220 H 0.59056 0.03985 0.34652 0.0
H221 H 0.56653 0.16177 0.32565 0.0
H222 H 0.53997 0.14496 0.26154 0.0
H223 H 0.64783 0.07115 0.37075 0.0
H224 H 0.56098 0.15852 0.39362 0.0
H225 H 0.66104 0.14946 0.46832 0.0
H226 H 0.61146 0.17568 0.51208 0.0
H227 H 0.58375 0.22465 0.39935 0.0
H228 H 0.56706 0.28625 0.43075 0.0
H229 H 0.67757 0.02928 0.42124 0.0
H230 H 0.72526 0.14464 0.44194 0.0
H231 H 0.59545 0.23846 0.54332 0.0
H232 H 0.7412 0.00082 0.43775 0.0
H233 H 0.78782 0.11602 0.45925 0.0
C234 C 0.27108 0.55418 0.13195 0.0
C235 C 0.25849 0.55296 0.093 0.0
C236 C 0.3078 0.56974 0.14121 0.0
C237 C 0.33264 0.584 0.11159 0.0
C238 C 0.32081 0.58009 0.07241 0.0
C239 C 0.28402 0.56483 0.06324 0.0
C240 C 0.36928 0.60548 0.12161 0.0
C241 C 0.39257 0.59358 0.15306 0.0
C242 C 0.42541 0.61555 0.16465 0.0
C243 C 0.43573 0.64898 0.14335 0.0
C244 C 0.41266 0.66177 0.11197 0.0
C245 C 0.37952 0.63972 0.10138 0.0
C246 C 0.42176 0.69941 0.09202 0.0
C247 C 0.43682 0.73118 0.11355 0.0
C248 C 0.41485 0.70434 0.05172 0.0
C249 C 0.42299 0.74005 0.03355 0.0
C250 C 0.439 0.77112 0.05518 0.0
C251 C 0.44708 0.60527 0.20077 0.0
C252 C 0.42636 0.5939 0.23439 0.0
C253 C 0.48811 0.60798 0.20259 0.0
C254 C 0.5079 0.59905 0.23719 0.0
C255 C 0.48689 0.58729 0.27037 0.0
C256 C 0.44608 0.58499 0.26876 0.0
C257 C 0.44561 0.76641 0.09528 0.0
H258 H 0.25158 0.54529 0.15527 0.0
H259 H 0.31576 0.57254 0.1717 0.0
H260 H 0.3395 0.58997 0.04885 0.0
H261 H 0.27473 0.564 0.033 0.0
H262 H 0.38499 0.56724 0.16879 0.0
H263 H 0.36052 0.65026 0.07854 0.0
H264 H 0.46116 0.66575 0.15212 0.0
H265 H 0.44141 0.72918 0.14475 0.0
H266 H 0.40351 0.68054 0.0341 0.0
H267 H 0.41735 0.7433 0.00261 0.0
H268 H 0.39477 0.59235 0.23433 0.0
H269 H 0.50491 0.61652 0.17717 0.0
H270 H 0.45746 0.79025 0.11258 0.0
H271 H 0.42946 0.57599 0.29418 0.0
H272 H 0.53947 0.60079 0.23799 0.0
C273 C 0.13457 0.28775 0.55312 0.0
C274 C 0.09612 0.27365 0.55093 0.0
C275 C 0.14229 0.32429 0.56991 0.0
C276 C 0.11161 0.34756 0.58432 0.0
C277 C 0.07296 0.33424 0.57954 0.0
C278 C 0.06533 0.29757 0.56313 0.0
C279 C 0.12 0.38413 0.60664 0.0
C280 C 0.15112 0.40873 0.59577 0.0
C281 C 0.16142 0.4415 0.61858 0.0
C282 C 0.13946 0.44992 0.65226 0.0
C283 C 0.10832 0.4256 0.66384 0.0
C284 C 0.09867 0.39298 0.64071 0.0
C285 C 0.08752 0.43298 0.70135 0.0
C286 C 0.10873 0.4439 0.73485 0.0
C287 C 0.04664 0.42905 0.70417 0.0
C288 C 0.02739 0.43694 0.7395 0.0
C289 C 0.04881 0.44873 0.77245 0.0
C290 C 0.19723 0.46451 0.60896 0.0
C291 C 0.20788 0.47114 0.5698 0.0
C292 C 0.22312 0.47651 0.63872 0.0
C293 C 0.25991 0.49185 0.62942 0.0
C294 C 0.27158 0.49494 0.59026 0.0
C295 C 0.2448 0.48602 0.56056 0.0
C296 C 0.08955 0.4517 0.76998 0.0
H297 H 0.15866 0.26953 0.54397 0.0
H298 H 0.17243 0.33331 0.5734 0.0
H299 H 0.04861 0.35168 0.58951 0.0
H300 H 0.03544 0.28713 0.56153 0.0
H301 H 0.16818 0.40158 0.57009 0.0
H302 H 0.07578 0.37332 0.65042 0.0
H303 H 0.14679 0.47538 0.66972 0.0
H304 H 0.14026 0.44639 0.73394 0.0
H305 H 0.02948 0.42079 0.67886 0.0
H306 H 0.99586 0.43475 0.74093 0.0
H307 H 0.18834 0.46321 0.54618 0.0
H308 H 0.2161 0.47169 0.66918 0.0
H309 H 0.10649 0.46079 0.79518 0.0
H310 H 0.25329 0.48844 0.53015 0.0
H311 H 0.28032 0.49854 0.65269 0.0
Zn312 Zn 0.96978 0.07862 0.56788 0.0
Zn313 Zn 0.05501 0.97999 0.47315 0.0
Zn314 Zn 0.01391 0.03167 0.52081 0.0
C315 C 0.07592 0.05949 0.45587 0.0
C316 C 0.97431 0.97131 0.4586 0.0
O317 O 0.0222 0.01288 0.58156 0.0
O318 O 0.98108 0.04882 0.61626 0.0
C319 C 0.02942 0.12355 0.53182 0.0
O320 O 0.05301 0.06759 0.48462 0.0
O321 O 0.08119 0.02449 0.44526 0.0
O322 O 0.00664 0.95607 0.44972 0.0
O323 O 0.97262 0.99991 0.48307 0.0
O324 O 0.0023 0.12548 0.55678 0.0
O325 O 0.03702 0.09128 0.51408 0.0
O326 O 0.95173 0.02739 0.50419 0.0
O327 O 0.91932 0.07003 0.54048 0.0
C328 C 0.91978 0.04476 0.51353 0.0
O329 O 0.04707 0.99127 0.55777 0.0
O330 O 0.08177 0.95378 0.51792 0.0
C331 C 0.00599 0.02188 0.61432 0.0
C332 C 0.07242 0.96421 0.55213 0.0
Zn333 Zn 0.47757 0.06371 0.97749 0.0
Zn334 Zn 0.56649 0.9626 0.06434 0.0
Zn335 Zn 0.52085 0.01125 0.02107 0.0
C336 C 0.61422 0.9982 0.00883 0.0
C337 C 0.50551 0.91878 0.02967 0.0
O338 O 0.48963 0.05053 0.06128 0.0
O339 O 0.45187 0.08767 0.02448 0.0
C340 C 0.55729 0.07331 0.95914 0.0
O341 O 0.58211 0.01605 0.00146 0.0
O342 O 0.61543 0.97203 0.03461 0.0
O343 O 0.53381 0.91589 0.05304 0.0
O344 O 0.49725 0.95165 0.01368 0.0
O345 O 0.52462 0.0891 0.95318 0.0
O346 O 0.56022 0.04372 0.98195 0.0
O347 O 0.4797 0.97619 0.98605 0.0
O348 O 0.45111 0.02005 0.94834 0.0
C349 C 0.45621 0.98491 0.95813 0.0
O350 O 0.51683 0.02964 0.0825 0.0
O351 O 0.55859 0.99196 0.11398 0.0
C352 C 0.46338 0.077 0.05779 0.0
C353 C 0.53447 0.01965 0.11403 0.0
Zn354 Zn 0.55589 0.55365 0.5658 0.0
Zn355 Zn 0.47004 0.46793 0.46463 0.0
Zn356 Zn 0.5163 0.51262 0.51125 0.0
C357 C 0.52297 0.41859 0.50031 0.0
C358 C 0.50886 0.52603 0.41952 0.0
O359 O 0.47631 0.54796 0.54797 0.0
O360 O 0.51165 0.58314 0.5895 0.0
C361 C 0.57344 0.47507 0.57639 0.0
O362 O 0.53179 0.45071 0.51793 0.0
O363 O 0.49755 0.41791 0.47366 0.0
O364 O 0.48255 0.50004 0.41823 0.0
O365 O 0.52708 0.53355 0.45162 0.0
O366 O 0.5788 0.5076 0.5931 0.0
O367 O 0.55215 0.47239 0.54553 0.0
O368 O 0.55698 0.54946 0.47655 0.0
O369 O 0.5886 0.57854 0.52442 0.0
C370 C 0.58554 0.57124 0.48834 0.0
O371 O 0.45454 0.51994 0.52849 0.0
O372 O 0.42079 0.47685 0.49362 0.0
C373 C 0.47888 0.57371 0.57544 0.0
C374 C 0.42211 0.50266 0.52 0.0
Zn375 Zn 0.05985 0.56878 0.96883 0.0
Zn376 Zn 0.97481 0.48478 0.06405 0.0
Zn377 Zn 0.01425 0.52632 0.01405 0.0
C378 C 0.05015 0.46296 0.07581 0.0
C379 C 0.94425 0.46936 0.98807 0.0
O380 O 0.99642 0.58799 0.01962 0.0
O381 O 0.03061 0.61812 0.9736 0.0
C382 C 0.10787 0.53851 0.02495 0.0
O383 O 0.05438 0.49113 0.05124 0.0
O384 O 0.01648 0.45174 0.08585 0.0
O385 O 0.9396 0.46234 0.02391 0.0
O386 O 0.97425 0.48975 0.97746 0.0
O387 O 0.10861 0.56413 0.99868 0.0
O388 O 0.07599 0.51987 0.03282 0.0
O389 O 0.0052 0.50449 0.95375 0.0
O390 O 0.05221 0.53588 0.92205 0.0
C391 C 0.02522 0.51064 0.92239 0.0
O392 O 0.97851 0.56695 0.04936 0.0
O393 O 0.95467 0.529 0.09591 0.0
C394 C 0.00483 0.61888 0.99994 0.0
C395 C 0.95879 0.56247 0.08115 0.0
C396 C 0.13484 0.14888 0.42337 0.0
C397 C 0.13253 0.14426 0.38215 0.0
C398 C 0.08579 0.09071 0.39092 0.0
C399 C 0.09318 0.09103 0.43167 0.0
N400 N 0.12937 0.11725 0.48634 0.0
N401 N 0.11148 0.10513 0.32692 0.0
C402 C 0.11876 0.11946 0.44798 0.0
C403 C 0.10943 0.11371 0.36592 0.0
N404 N 0.15164 0.18165 0.43899 0.0
N405 N 0.0555 0.06912 0.37609 0.0
H406 H 0.12969 0.11998 0.30753 0.0
H407 H 0.09816 0.08058 0.31458 0.0
H408 H 0.03653 0.05293 0.39365 0.0
H409 H 0.04664 0.07081 0.34703 0.0
H410 H 0.15062 0.18834 0.4687 0.0
H411 H 0.16321 0.20395 0.42176 0.0
H412 H 0.15086 0.13498 0.49878 0.0
H413 H 0.11892 0.0956 0.50501 0.0
C414 C 0.39314 0.89848 0.92538 0.0
C415 C 0.39795 0.90094 0.88422 0.0
C416 C 0.4471 0.95236 0.89345 0.0
C417 C 0.438 0.95387 0.93384 0.0
N418 N 0.39711 0.93298 0.98721 0.0
N419 N 0.42372 0.93643 0.82881 0.0
C420 C 0.40974 0.92801 0.94969 0.0
C421 C 0.42347 0.92951 0.86812 0.0
N422 N 0.3735 0.8676 0.94129 0.0
N423 N 0.47884 0.97218 0.87933 0.0
H424 H 0.4056 0.92173 0.80914 0.0
H425 H 0.43892 0.95964 0.81626 0.0
H426 H 0.49746 0.98857 0.89717 0.0
H427 H 0.48896 0.96899 0.85076 0.0
H428 H 0.37253 0.86241 0.97126 0.0
H429 H 0.36142 0.84521 0.92436 0.0
H430 H 0.37376 0.91738 0.99907 0.0
H431 H 0.40784 0.95507 0.00538 0.0
C432 C 0.65408 0.4094 0.61111 0.0
C433 C 0.63292 0.38474 0.63685 0.0
C434 C 0.57114 0.41343 0.61554 0.0
C435 C 0.59268 0.44011 0.59227 0.0
N436 N 0.65214 0.45708 0.55883 0.0
N437 N 0.57188 0.35604 0.65707 0.0
C438 C 0.63345 0.43591 0.58708 0.0
C439 C 0.59149 0.38421 0.63666 0.0
N440 N 0.69399 0.40845 0.61096 0.0
N441 N 0.53157 0.41742 0.61889 0.0
H442 H 0.58612 0.33487 0.67342 0.0
H443 H 0.54184 0.35167 0.6557 0.0
H444 H 0.5158 0.43776 0.60287 0.0
H445 H 0.51431 0.4018 0.63842 0.0
H446 H 0.71153 0.42876 0.59666 0.0
H447 H 0.70982 0.38783 0.62658 0.0
H448 H 0.68118 0.45307 0.55091 0.0
H449 H 0.63752 0.47657 0.54076 0.0
C450 C 0.89674 0.65098 0.10735 0.0
C451 C 0.90206 0.65179 0.14848 0.0
C452 C 0.95269 0.60205 0.14204 0.0
C453 C 0.94231 0.59638 0.10238 0.0
N454 N 0.89974 0.6116 0.04856 0.0
N455 N 0.93043 0.62222 0.20586 0.0
C456 C 0.91334 0.62007 0.08511 0.0
C457 C 0.92902 0.62594 0.16614 0.0
N458 N 0.87632 0.67993 0.08948 0.0
N459 N 0.98544 0.58489 0.15664 0.0
H460 H 0.91225 0.63751 0.22489 0.0
H461 H 0.94681 0.60087 0.21974 0.0
H462 H 0.00403 0.56789 0.13948 0.0
H463 H 0.99631 0.591 0.18445 0.0
H464 H 0.87479 0.68273 0.05921 0.0
H465 H 0.86427 0.70328 0.1049 0.0
H466 H 0.87582 0.62553 0.03623 0.0
H467 H 0.91025 0.58842 0.03185 0.0
C468 C 0.43329 0.15216 0.13365 0.0
C469 C 0.39723 0.13548 0.14563 0.0
C470 C 0.41254 0.07515 0.11006 0.0
C471 C 0.44497 0.09437 0.09286 0.0
N472 N 0.48914 0.14905 0.08969 0.0
N473 N 0.35245 0.08102 0.14733 0.0
C474 C 0.45656 0.13212 0.10555 0.0
C475 C 0.38718 0.0966 0.13502 0.0
N476 N 0.44495 0.18716 0.14918 0.0
N477 N 0.406 0.03649 0.10221 0.0
H478 H 0.33399 0.09533 0.1669 0.0
H479 H 0.34093 0.05476 0.13702 0.0
H480 H 0.42379 0.02027 0.08354 0.0
H481 H 0.38511 0.01958 0.11646 0.0
H482 H 0.47216 0.19986 0.14424 0.0
H483 H 0.42821 0.20242 0.16958 0.0
H484 H 0.49732 0.178 0.09419 0.0
H485 H 0.50778 0.13408 0.07076 0.0
C486 C 0.11204 0.88376 0.6156 0.0
C487 C 0.14062 0.9046 0.63741 0.0
C488 C 0.11897 0.9663 0.60884 0.0
C489 C 0.09163 0.94515 0.5857 0.0
N490 N 0.05451 0.88641 0.57429 0.0
N491 N 0.16539 0.9657 0.66244 0.0
C492 C 0.08574 0.90463 0.59147 0.0
C493 C 0.14192 0.94598 0.6367 0.0
N494 N 0.11102 0.8439 0.61701 0.0
N495 N 0.12475 0.00528 0.60244 0.0
H496 H 0.18345 0.95162 0.68233 0.0
H497 H 0.16478 0.99581 0.66637 0.0
H498 H 0.10827 0.02133 0.58272 0.0
H499 H 0.14733 0.0215 0.61491 0.0
H500 H 0.0943 0.82659 0.59831 0.0
H501 H 0.12843 0.82785 0.63596 0.0
H502 H 0.04619 0.85776 0.58009 0.0
H503 H 0.03463 0.90119 0.55676 0.0
C504 C 0.87036 0.39764 0.94456 0.0
C505 C 0.87753 0.40265 0.90406 0.0
C506 C 0.91821 0.46002 0.91871 0.0
C507 C 0.91611 0.45134 0.95908 0.0
N508 N 0.86977 0.42891 0.00768 0.0
N509 N 0.91106 0.43662 0.85228 0.0
C510 C 0.88661 0.42467 0.97166 0.0
C511 C 0.9022 0.43334 0.89104 0.0
N512 N 0.84757 0.36737 0.95733 0.0
N513 N 0.92967 0.49632 0.90717 0.0
H514 H 0.89992 0.41751 0.83117 0.0
H515 H 0.93213 0.45604 0.84182 0.0
H516 H 0.93541 0.51868 0.92717 0.0
H517 H 0.92723 0.50585 0.87842 0.0
H518 H 0.84578 0.35937 0.98662 0.0
H519 H 0.8327 0.34835 0.93866 0.0
H520 H 0.84631 0.41206 0.01736 0.0
H521 H 0.87395 0.45368 0.02498 0.0
C522 C 0.65869 0.64509 0.44717 0.0
C523 C 0.6536 0.6391 0.40646 0.0
C524 C 0.61408 0.58073 0.41994 0.0
C525 C 0.61412 0.5901 0.46034 0.0
N526 N 0.65745 0.61507 0.51058 0.0
N527 N 0.62331 0.60334 0.35368 0.0
C528 C 0.64211 0.61803 0.47386 0.0
C529 C 0.63043 0.60748 0.39273 0.0
N530 N 0.67983 0.67637 0.46057 0.0
N531 N 0.60431 0.54391 0.40815 0.0
H532 H 0.63476 0.62243 0.33289 0.0
H533 H 0.60325 0.58316 0.34255 0.0
H534 H 0.59863 0.5216 0.428 0.0
H535 H 0.6081 0.53409 0.37954 0.0
H536 H 0.67997 0.68501 0.48981 0.0
H537 H 0.69489 0.69552 0.44233 0.0
H538 H 0.67982 0.63297 0.52105 0.0
H539 H 0.65352 0.59045 0.52789 0.0
C540 C 0.14275 0.43633 0.13137 0.0
C541 C 0.14102 0.39502 0.12801 0.0
C542 C 0.08665 0.40079 0.08205 0.0
C543 C 0.08427 0.44117 0.09054 0.0
N544 N 0.10686 0.49691 0.12759 0.0
N545 N 0.10591 0.33759 0.10562 0.0
C546 C 0.11164 0.45901 0.11616 0.0
C547 C 0.11168 0.37708 0.10458 0.0
N548 N 0.17434 0.45387 0.14847 0.0
N549 N 0.06521 0.38509 0.05214 0.0
H550 H 0.12212 0.31897 0.12317 0.0
H551 H 0.08228 0.32374 0.09218 0.0
H552 H 0.04698 0.4018 0.03456 0.0
H553 H 0.06869 0.35651 0.04227 0.0
H554 H 0.17888 0.48396 0.14845 0.0
H555 H 0.19787 0.43807 0.1593 0.0
H556 H 0.12364 0.5102 0.14931 0.0
H557 H 0.08427 0.5143 0.11727 0.0
C558 C 0.64341 0.13979 0.93934 0.0
C559 C 0.64723 0.1349 0.8983 0.0
C560 C 0.59767 0.08302 0.89888 0.0
C561 C 0.59231 0.08948 0.93948 0.0
N562 N 0.61665 0.11537 1.00036 0.0
N563 N 0.63669 0.09563 0.84084 0.0
C564 C 0.61763 0.11485 0.96043 0.0
C565 C 0.6272 0.10426 0.8787 0.0
N566 N 0.66265 0.16973 0.95771 0.0
N567 N 0.57368 0.05742 0.87956 0.0
H568 H 0.65834 0.11081 0.8256 0.0
H569 H 0.62575 0.07158 0.82564 0.0
H570 H 0.55332 0.03985 0.89398 0.0
H571 H 0.57281 0.05451 0.8493 0.0
H572 H 0.65751 0.17796 0.98657 0.0
H573 H 0.68251 0.18792 0.94341 0.0
H574 H 0.63699 0.13021 0.01752 0.0
H575 H 0.59736 0.09819 0.01657 0.0
C576 C 0.88699 0.90541 0.44189 0.0
C577 C 0.88073 0.91142 0.40139 0.0
C578 C 0.93026 0.9633 0.40075 0.0
C579 C 0.93818 0.95562 0.44062 0.0
N580 N 0.91755 0.92802 0.50194 0.0
N581 N 0.88754 0.95244 0.34503 0.0
C582 C 0.91409 0.92971 0.4622 0.0
C583 C 0.89944 0.94269 0.38177 0.0
N584 N 0.86885 0.87496 0.46029 0.0
N585 N 0.95305 0.98943 0.38088 0.0
H586 H 0.86488 0.9377 0.33076 0.0
H587 H 0.8975 0.97694 0.3301 0.0
H588 H 0.97439 0.00651 0.39456 0.0
H589 H 0.95193 0.99326 0.35077 0.0
H590 H 0.87575 0.86588 0.4884 0.0
H591 H 0.84802 0.85729 0.44662 0.0
H592 H 0.89822 0.91274 0.51979 0.0
H593 H 0.9379 0.9446 0.51754 0.0
C594 C 0.3972 0.60556 0.64262 0.0
C595 C 0.38775 0.64202 0.62572 0.0
C596 C 0.43244 0.62947 0.57119 0.0
C597 C 0.44358 0.59417 0.58932 0.0
N598 N 0.42961 0.54303 0.63516 0.0
N599 N 0.38741 0.68393 0.56957 0.0
C600 C 0.42351 0.58031 0.62273 0.0
C601 C 0.40241 0.65232 0.58839 0.0
N602 N 0.38254 0.59606 0.67851 0.0
N603 N 0.45164 0.64176 0.53836 0.0
H604 H 0.36539 0.7011 0.58166 0.0
H605 H 0.39417 0.69124 0.54086 0.0
H606 H 0.47246 0.6248 0.524 0.0
H607 H 0.44831 0.66929 0.5262 0.0
H608 H 0.39172 0.57212 0.69458 0.0
H609 H 0.36225 0.61335 0.69321 0.0
H610 H 0.41323 0.52968 0.65705 0.0
H611 H 0.44889 0.52414 0.62106 0.0
C612 C 0.00217 0.94559 0.69384 0.0
C613 C 0.0071 0.97081 0.72638 0.0
C614 C 0.02962 0.02259 0.68277 0.0
C615 C 0.01538 0.0007 0.65059 0.0
N616 N 0.98886 0.94055 0.62452 0.0
N617 N 0.02723 0.03313 0.75278 0.0
C618 C 0.00291 0.96149 0.65559 0.0
C619 C 0.0223 0.00902 0.72124 0.0
N620 N 0.99599 0.90667 0.69983 0.0
N621 N 0.04969 0.05651 0.67624 0.0
H622 H 0.02289 0.02392 0.78144 0.0
H623 H 0.03368 0.06276 0.75045 0.0
H624 H 0.05559 0.06655 0.64806 0.0
H625 H 0.06364 0.07241 0.69821 0.0
H626 H 0.99549 0.88606 0.67737 0.0
H627 H 0.99525 0.89466 0.7278 0.0
H628 H 0.97514 0.9135 0.62721 0.0
H629 H 0.98887 0.95112 0.59604 0.0
C630 C 0.56905 0.08361 0.19564 0.0
C631 C 0.54181 0.07386 0.22545 0.0
C632 C 0.5036 0.03489 0.17874 0.0
C633 C 0.5315 0.04389 0.14956 0.0
N634 N 0.58309 0.08563 0.1262 0.0
N635 N 0.47856 0.04887 0.24379 0.0
C636 C 0.56154 0.07146 0.15672 0.0
C637 C 0.50741 0.05235 0.2164 0.0
N638 N 0.60336 0.10209 0.20485 0.0
N639 N 0.47457 0.00852 0.1708 0.0
H640 H 0.48076 0.06149 0.27153 0.0
H641 H 0.45134 0.03644 0.23812 0.0
H642 H 0.47047 0.99656 0.14299 0.0
H643 H 0.45566 0.99734 0.19184 0.0
H644 H 0.62623 0.10571 0.18508 0.0
H645 H 0.6105 0.11121 0.23304 0.0
H646 H 0.60301 0.10856 0.12896 0.0
H647 H 0.57816 0.07704 0.09731 0.0
C648 C 0.51863 0.53637 0.31155 0.0
C649 C 0.50675 0.57558 0.30693 0.0
C650 C 0.50981 0.58632 0.3777 0.0
C651 C 0.51825 0.54616 0.38245 0.0
N652 N 0.5436 0.48676 0.35508 0.0
N653 N 0.50309 0.6407 0.33285 0.0
C654 C 0.52723 0.52256 0.34956 0.0
C655 C 0.50674 0.6016 0.33923 0.0
N656 N 0.51924 0.51179 0.27998 0.0
N657 N 0.50184 0.60904 0.40961 0.0
H658 H 0.50063 0.65221 0.30478 0.0
H659 H 0.50608 0.66178 0.35466 0.0
H660 H 0.50452 0.59909 0.43818 0.0
H661 H 0.49087 0.63722 0.40789 0.0
H662 H 0.52283 0.48174 0.28207 0.0
H663 H 0.51431 0.52128 0.25153 0.0
H664 H 0.55392 0.46924 0.33244 0.0
H665 H 0.55041 0.47636 0.38286 0.0
C666 C 0.02837 0.43497 0.84137 0.0
C667 C 0.02927 0.46092 0.80926 0.0
C668 C 0.00898 0.51444 0.85204 0.0
C669 C 0.01656 0.49065 0.88488 0.0
N670 N 0.03086 0.42756 0.91188 0.0
N671 N 0.01842 0.52491 0.78268 0.0
C672 C 0.02443 0.45035 0.87993 0.0
C673 C 0.01804 0.50038 0.81406 0.0
N674 N 0.03188 0.39582 0.83474 0.0
N675 N 0.99337 0.55067 0.85759 0.0
H676 H 0.02364 0.5153 0.7542 0.0
H677 H 0.01541 0.55503 0.78494 0.0
H678 H 0.98624 0.56133 0.88532 0.0
H679 H 0.98395 0.56842 0.83495 0.0
H680 H 0.02832 0.37479 0.8563 0.0
H681 H 0.03499 0.38422 0.80665 0.0
H682 H 0.04126 0.39914 0.91031 0.0
H683 H 0.0273 0.4377 0.9404 0.0
C684 C 0.72133 0.01553 0.99661 0.0
C685 C 0.72654 0.00317 0.95735 0.0
C686 C 0.65579 0.99893 0.94817 0.0
C687 C 0.65079 0.00847 0.98823 0.0
N688 N 0.67635 0.03915 0.04613 0.0
N689 N 0.7001 0.99596 0.89272 0.0
C690 C 0.6829 0.02144 0.01089 0.0
C691 C 0.69405 0.9995 0.93202 0.0
N692 N 0.7528 0.01911 0.02087 0.0
N693 N 0.6246 0.98663 0.92641 0.0
H694 H 0.72807 0.99625 0.88053 0.0
H695 H 0.67772 0.99659 0.87219 0.0
H696 H 0.59613 0.98609 0.93716 0.0
H697 H 0.62713 0.97505 0.89835 0.0
H698 H 0.75041 0.02332 0.05093 0.0
H699 H 0.78149 0.0158 0.01126 0.0
H700 H 0.6983 0.05228 0.06272 0.0
H701 H 0.64822 0.0441 0.0568 0.0
C702 C 0.81227 0.02775 0.50129 0.0
C703 C 0.80705 0.04033 0.46226 0.0
C704 C 0.87775 0.04582 0.45329 0.0
C705 C 0.88282 0.03555 0.49308 0.0
N706 N 0.85726 0.00403 0.55034 0.0
N707 N 0.83372 0.0485 0.39783 0.0
C708 C 0.85072 0.02211 0.5155 0.0
C709 C 0.83959 0.04475 0.43707 0.0
N710 N 0.78071 0.02354 0.52542 0.0
N711 N 0.90867 0.05936 0.43191 0.0
H712 H 0.80584 0.04791 0.38555 0.0
H713 H 0.85626 0.04824 0.37736 0.0
H714 H 0.93709 0.06068 0.44265 0.0
H715 H 0.90587 0.07146 0.40422 0.0
H716 H 0.783 0.01915 0.55541 0.0
H717 H 0.75204 0.0265 0.51578 0.0
H718 H 0.83534 0.99054 0.56662 0.0
H719 H 0.88537 0.99917 0.56095 0.0
C720 C 0.20655 0.50879 0.06501 0.0
C721 C 0.21703 0.5446 0.08335 0.0
C722 C 0.1502 0.56802 0.07559 0.0
C723 C 0.14218 0.53584 0.05079 0.0
N724 N 0.16057 0.47409 0.02303 0.0
N725 N 0.1995 0.60953 0.10478 0.0
C726 C 0.16953 0.50536 0.0463 0.0
C727 C 0.18884 0.57431 0.08897 0.0
N728 N 0.23199 0.47828 0.06579 0.0
N729 N 0.12063 0.59248 0.08631 0.0
H730 H 0.22749 0.61565 0.11512 0.0
H731 H 0.18138 0.6338 0.10508 0.0
H732 H 0.09187 0.58825 0.07709 0.0
H733 H 0.1237 0.61434 0.10735 0.0
H734 H 0.22502 0.4503 0.05602 0.0
H735 H 0.25918 0.48029 0.07939 0.0
H736 H 0.18054 0.4527 0.0151 0.0
H737 H 0.13307 0.47035 0.01043 0.0
C738 C 0.33998 0.47008 0.58417 0.0
C739 C 0.31327 0.50131 0.57992 0.0
C740 C 0.362 0.53839 0.54249 0.0
C741 C 0.38792 0.5066 0.54598 0.0
N742 N 0.40727 0.44903 0.58069 0.0
N743 N 0.3017 0.56865 0.56435 0.0
C744 C 0.37874 0.47478 0.57053 0.0
C745 C 0.32532 0.53677 0.56217 0.0
N746 N 0.32776 0.43497 0.59875 0.0
N747 N 0.37181 0.56911 0.51911 0.0
H748 H 0.27476 0.56796 0.57864 0.0
H749 H 0.31011 0.59635 0.55511 0.0
H750 H 0.39899 0.57136 0.50546 0.0
H751 H 0.35269 0.59145 0.51202 0.0
H752 H 0.34482 0.40993 0.598 0.0
H753 H 0.29949 0.4297 0.60879 0.0
H754 H 0.40329 0.42731 0.60152 0.0
H755 H 0.43615 0.45205 0.57131 0.0
C756 C 0.93313 0.69998 0.9823 0.0
C757 C 0.95648 0.73194 0.9948 0.0
C758 C 0.00174 0.68661 0.02582 0.0
C759 C 0.98318 0.65546 0.00579 0.0
N760 N 0.93155 0.63162 0.96412 0.0
N761 N 0.01332 0.75639 0.02888 0.0
C762 C 0.94846 0.66172 0.9844 0.0
C763 C 0.99046 0.72555 0.01754 0.0
N764 N 0.89652 0.70648 0.96809 0.0
N765 N 0.03055 0.67874 0.05212 0.0
H766 H 0.00594 0.78532 0.02354 0.0
H767 H 0.04073 0.75328 0.04154 0.0
H768 H 0.03906 0.65025 0.0584 0.0
H769 H 0.0432 0.69982 0.07017 0.0
H770 H 0.87676 0.68415 0.96164 0.0
H771 H 0.88465 0.7344 0.96654 0.0
H772 H 0.90897 0.63538 0.94418 0.0
H773 H 0.94147 0.60296 0.96583 0.0
C774 C 0.42809 0.84275 0.05008 0.0
C775 C 0.44861 0.80936 0.03705 0.0
C776 C 0.49559 0.85179 0.00351 0.0
C777 C 0.48035 0.88409 0.0242 0.0
N778 N 0.43268 0.91084 0.06865 0.0
N779 N 0.50252 0.78155 0.00106 0.0
C780 C 0.44619 0.87996 0.04725 0.0
C781 C 0.48205 0.81363 0.01279 0.0
N782 N 0.3916 0.8386 0.0657 0.0
N783 N 0.52358 0.8578 0.97569 0.0
H784 H 0.49368 0.75311 0.00727 0.0
H785 H 0.52958 0.78315 0.98725 0.0
H786 H 0.53368 0.88573 0.9687 0.0
H787 H 0.53378 0.8359 0.95719 0.0
H788 H 0.37381 0.86216 0.07272 0.0
H789 H 0.37774 0.81146 0.06783 0.0
H790 H 0.41077 0.90828 0.08965 0.0
H791 H 0.44481 0.93877 0.06683 0.0
C792 C 0.06999 0.22277 0.50447 0.0
C793 C 0.08792 0.23224 0.54071 0.0
C794 C 0.08114 0.16433 0.56145 0.0
C795 C 0.05631 0.15723 0.52922 0.0
N796 N 0.02906 0.17712 0.46796 0.0
N797 N 0.10983 0.21243 0.60473 0.0
C798 C 0.05185 0.18551 0.49965 0.0
C799 C 0.09411 0.20293 0.5692 0.0
N800 N 0.07043 0.24948 0.47499 0.0
N801 N 0.09193 0.13399 0.58476 0.0
H802 H 0.11975 0.24035 0.61192 0.0
H803 H 0.11053 0.19329 0.62824 0.0
H804 H 0.0828 0.10533 0.57944 0.0
H805 H 0.11287 0.13646 0.60667 0.0
H806 H 0.06069 0.24356 0.44679 0.0
H807 H 0.08365 0.27686 0.47805 0.0
H808 H 0.02107 0.19758 0.44715 0.0
H809 H 0.01708 0.14941 0.46324 0.0
C810 C 0.5312 0.31165 0.51979 0.0
C811 C 0.56985 0.30496 0.50672 0.0
C812 C 0.58176 0.37516 0.50123 0.0
C813 C 0.54205 0.38162 0.51097 0.0
N814 N 0.48348 0.35882 0.54241 0.0
N815 N 0.63527 0.32901 0.49793 0.0
C816 C 0.51832 0.35065 0.52479 0.0
C817 C 0.59637 0.33647 0.50217 0.0
N818 N 0.50624 0.28086 0.52505 0.0
N819 N 0.60456 0.40533 0.48831 0.0
H820 H 0.64626 0.30068 0.49837 0.0
H821 H 0.65673 0.35066 0.49777 0.0
H822 H 0.59495 0.43409 0.48744 0.0
H823 H 0.63236 0.4017 0.47657 0.0
H824 H 0.47641 0.28393 0.52991 0.0
H825 H 0.51524 0.25192 0.52286 0.0
H826 H 0.46609 0.33788 0.55603 0.0
H827 H 0.4739 0.38739 0.54666 0.0
loop_
_geom_bond_atom_site_label_1
_geom_bond_atom_site_label_2
_geom_bond_distance
_geom_bond_site_symmetry_2
_ccdc_geom_bond_type
C0 C1 1.386 . S
C0 C2 1.397 . S
C0 H24 0.931 . S
C1 C0 1.386 . S
C1 C5 1.397 . S
C2 C0 1.397 . S
C2 C3 1.384 . S
C2 H25 0.930 . S
C3 C2 1.384 . S
C3 C4 1.377 . S
C3 C6 1.481 . S
C4 C3 1.377 . S
C4 C5 1.389 . S
C4 H26 0.929 . S
C5 C1 1.397 . S
C5 C4 1.389 . S
C5 H27 0.931 . S
C6 C3 1.481 . S
C6 C7 1.387 . S
C6 C11 1.390 . S
C7 C6 1.387 . S
C7 C8 1.401 . S
C7 H28 0.930 . S
C8 C7 1.401 . S
C8 C9 1.376 . S
C8 C17 1.511 . S
C9 C8 1.376 . S
C9 C10 1.392 . S
C9 H30 0.931 . S
C10 C9 1.392 . S
C10 C11 1.361 . S
C10 C12 1.500 . S
C11 C6 1.390 . S
C11 C10 1.361 . S
C11 H29 0.931 . S
C12 C10 1.500 . S
C12 C13 1.371 . S
C12 C14 1.365 . S
C13 C12 1.371 . S
C13 C23 1.386 . S
C13 H31 0.931 . S
C14 C12 1.365 . S
C14 C15 1.409 . S
C14 H32 0.929 . S
C15 C14 1.409 . S
C15 C16 1.380 . S
C15 H33 0.930 . S
C16 C15 1.380 . S
C16 C23 1.357 . S
C17 C8 1.511 . S
C17 C18 1.341 . S
C17 C19 1.371 . S
C18 C17 1.341 . S
C18 C22 1.394 . S
C18 H34 0.930 . S
C19 C17 1.371 . S
C19 C20 1.392 . S
C19 H35 0.931 . S
C20 C19 1.392 . S
C20 C21 1.331 . S
C20 H38 0.932 . S
C21 C20 1.331 . S
C21 C22 1.336 . S
C22 C18 1.394 . S
C22 C21 1.336 . S
C22 H37 0.929 . S
C23 C13 1.386 . S
C23 C16 1.357 . S
C23 H36 0.928 . S
H24 C0 0.931 . S
H25 C2 0.930 . S
H26 C4 0.929 . S
H27 C5 0.931 . S
H28 C7 0.930 . S
H29 C11 0.931 . S
H30 C9 0.931 . S
H31 C13 0.931 . S
H32 C14 0.929 . S
H33 C15 0.930 . S
H34 C18 0.930 . S
H35 C19 0.931 . S
H36 C23 0.928 . S
H37 C22 0.929 . S
H38 C20 0.932 . S
C39 C40 1.386 . S
C39 C41 1.397 . S
C39 H63 0.931 . S
C40 C39 1.386 . S
C40 C44 1.397 . S
C41 C39 1.397 . S
C41 C42 1.384 . S
C41 H64 0.930 . S
C42 C41 1.384 . S
C42 C43 1.377 . S
C42 C45 1.481 . S
C43 C42 1.377 . S
C43 C44 1.389 . S
C43 H65 0.929 . S
C44 C40 1.397 . S
C44 C43 1.389 . S
C44 H66 0.931 . S
C45 C42 1.481 . S
C45 C46 1.387 . S
C45 C50 1.390 . S
C46 C45 1.387 . S
C46 C47 1.401 . S
C46 H67 0.930 . S
C47 C46 1.401 . S
C47 C48 1.376 . S
C47 C56 1.511 . S
C48 C47 1.376 . S
C48 C49 1.392 . S
C48 H69 0.931 . S
C49 C48 1.392 . S
C49 C50 1.361 . S
C49 C51 1.500 . S
C50 C45 1.390 . S
C50 C49 1.361 . S
C50 H68 0.931 . S
C51 C49 1.500 . S
C51 C52 1.371 . S
C51 C53 1.365 . S
C52 C51 1.371 . S
C52 C62 1.386 . S
C52 H70 0.931 . S
C53 C51 1.365 . S
C53 C54 1.409 . S
C53 H71 0.929 . S
C54 C53 1.409 . S
C54 C55 1.380 . S
C54 H72 0.930 . S
C55 C54 1.380 . S
C55 C62 1.357 . S
C56 C47 1.511 . S
C56 C57 1.341 . S
C56 C58 1.371 . S
C57 C56 1.341 . S
C57 C61 1.394 . S
C57 H73 0.930 . S
C58 C56 1.371 . S
C58 C59 1.392 . S
C58 H74 0.931 . S
C59 C58 1.392 . S
C59 C60 1.331 . S
C59 H77 0.932 . S
C60 C59 1.331 . S
C60 C61 1.336 . S
C61 C57 1.394 . S
C61 C60 1.336 . S
C61 H76 0.929 . S
C62 C52 1.386 . S
C62 C55 1.357 . S
C62 H75 0.928 . S
H63 C39 0.931 . S
H64 C41 0.930 . S
H65 C43 0.929 . S
H66 C44 0.931 . S
H67 C46 0.930 . S
H68 C50 0.931 . S
H69 C48 0.931 . S
H70 C52 0.931 . S
H71 C53 0.929 . S
H72 C54 0.930 . S
H73 C57 0.930 . S
H74 C58 0.931 . S
H75 C62 0.928 . S
H76 C61 0.929 . S
H77 C59 0.932 . S
C78 C79 1.386 . S
C78 C80 1.397 . S
C78 H102 0.931 . S
C79 C78 1.386 . S
C79 C83 1.397 . S
C80 C78 1.397 . S
C80 C81 1.384 . S
C80 H103 0.930 . S
C81 C80 1.384 . S
C81 C82 1.377 . S
C81 C84 1.481 . S
C82 C81 1.377 . S
C82 C83 1.389 . S
C82 H104 0.929 . S
C83 C79 1.397 . S
C83 C82 1.389 . S
C83 H105 0.931 . S
C84 C81 1.481 . S
C84 C85 1.387 . S
C84 C89 1.390 . S
C85 C84 1.387 . S
C85 C86 1.401 . S
C85 H106 0.930 . S
C86 C85 1.401 . S
C86 C87 1.376 . S
C86 C95 1.511 . S
C87 C86 1.376 . S
C87 C88 1.392 . S
C87 H108 0.931 . S
C88 C87 1.392 . S
C88 C89 1.361 . S
C88 C90 1.500 . S
C89 C84 1.390 . S
C89 C88 1.361 . S
C89 H107 0.931 . S
C90 C88 1.500 . S
C90 C91 1.371 . S
C90 C92 1.365 . S
C91 C90 1.371 . S
C91 C101 1.386 . S
C91 H109 0.931 . S
C92 C90 1.365 . S
C92 C93 1.409 . S
C92 H110 0.929 . S
C93 C92 1.409 . S
C93 C94 1.380 . S
C93 H111 0.930 . S
C94 C93 1.380 . S
C94 C101 1.357 . S
C95 C86 1.511 . S
C95 C96 1.341 . S
C95 C97 1.371 . S
C96 C95 1.341 . S
C96 C100 1.394 . S
C96 H112 0.930 . S
C97 C95 1.371 . S
C97 C98 1.392 . S
C97 H113 0.931 . S
C98 C97 1.392 . S
C98 C99 1.331 . S
C98 H116 0.932 . S
C99 C98 1.331 . S
C99 C100 1.336 . S
C100 C96 1.394 . S
C100 C99 1.336 . S
C100 H115 0.929 . S
C101 C91 1.386 . S
C101 C94 1.357 . S
C101 H114 0.928 . S
H102 C78 0.931 . S
H103 C80 0.930 . S
H104 C82 0.929 . S
H105 C83 0.931 . S
H106 C85 0.930 . S
H107 C89 0.931 . S
H108 C87 0.931 . S
H109 C91 0.931 . S
H110 C92 0.929 . S
H111 C93 0.930 . S
H112 C96 0.930 . S
H113 C97 0.931 . S
H114 C101 0.928 . S
H115 C100 0.929 . S
H116 C98 0.932 . S
C117 C118 1.386 . S
C117 C119 1.397 . S
C117 H141 0.931 . S
C118 C117 1.386 . S
C118 C122 1.397 . S
C119 C117 1.397 . S
C119 C120 1.384 . S
C119 H142 0.930 . S
C120 C119 1.384 . S
C120 C121 1.377 . S
C120 C123 1.481 . S
C121 C120 1.377 . S
C121 C122 1.389 . S
C121 H143 0.929 . S
C122 C118 1.397 . S
C122 C121 1.389 . S
C122 H144 0.931 . S
C123 C120 1.481 . S
C123 C124 1.387 . S
C123 C128 1.390 . S
C124 C123 1.387 . S
C124 C125 1.401 . S
C124 H145 0.930 . S
C125 C124 1.401 . S
C125 C126 1.376 . S
C125 C134 1.511 . S
C126 C125 1.376 . S
C126 C127 1.392 . S
C126 H147 0.931 . S
C127 C126 1.392 . S
C127 C128 1.361 . S
C127 C129 1.500 . S
C128 C123 1.390 . S
C128 C127 1.361 . S
C128 H146 0.931 . S
C129 C127 1.500 . S
C129 C130 1.371 . S
C129 C131 1.365 . S
C130 C129 1.371 . S
C130 C140 1.386 . S
C130 H148 0.931 . S
C131 C129 1.365 . S
C131 C132 1.409 . S
C131 H149 0.929 . S
C132 C131 1.409 . S
C132 C133 1.380 . S
C132 H150 0.930 . S
C133 C132 1.380 . S
C133 C140 1.357 . S
C134 C125 1.511 . S
C134 C135 1.341 . S
C134 C136 1.371 . S
C135 C134 1.341 . S
C135 C139 1.394 . S
C135 H151 0.930 . S
C136 C134 1.371 . S
C136 C137 1.392 . S
C136 H152 0.931 . S
C137 C136 1.392 . S
C137 C138 1.331 . S
C137 H155 0.932 . S
C138 C137 1.331 . S
C138 C139 1.336 . S
C139 C135 1.394 . S
C139 C138 1.336 . S
C139 H154 0.929 . S
C140 C130 1.386 . S
C140 C133 1.357 . S
C140 H153 0.928 . S
H141 C117 0.931 . S
H142 C119 0.930 . S
H143 C121 0.929 . S
H144 C122 0.931 . S
H145 C124 0.930 . S
H146 C128 0.931 . S
H147 C126 0.931 . S
H148 C130 0.931 . S
H149 C131 0.929 . S
H150 C132 0.930 . S
H151 C135 0.930 . S
H152 C136 0.931 . S
H153 C140 0.928 . S
H154 C139 0.929 . S
H155 C137 0.932 . S
C156 C157 1.386 1_565 S
C156 C158 1.397 . S
C156 H180 0.931 . S
C157 C156 1.386 1_545 S
C157 C161 1.397 . S
C158 C156 1.397 . S
C158 C159 1.384 . S
C158 H181 0.930 . S
C159 C158 1.384 . S
C159 C160 1.377 1_565 S
C159 C162 1.481 . S
C160 C159 1.377 1_545 S
C160 C161 1.389 . S
C160 H182 0.929 . S
C161 C157 1.397 . S
C161 C160 1.389 . S
C161 H183 0.931 . S
C162 C159 1.481 . S
C162 C163 1.387 . S
C162 C167 1.390 . S
C163 C162 1.387 . S
C163 C164 1.401 . S
C163 H184 0.930 . S
C164 C163 1.401 . S
C164 C165 1.376 . S
C164 C173 1.511 . S
C165 C164 1.376 . S
C165 C166 1.392 . S
C165 H186 0.931 . S
C166 C165 1.392 . S
C166 C167 1.361 . S
C166 C168 1.500 . S
C167 C162 1.390 . S
C167 C166 1.361 . S
C167 H185 0.931 . S
C168 C166 1.500 . S
C168 C169 1.371 . S
C168 C170 1.365 1_565 S
C169 C168 1.371 . S
C169 C179 1.386 1_556 S
C169 H187 0.931 . S
C170 C168 1.365 1_545 S
C170 C171 1.409 . S
C170 H188 0.929 . S
C171 C170 1.409 . S
C171 C172 1.380 1_546 S
C171 H189 0.930 . S
C172 C171 1.380 1_564 S
C172 C179 1.357 . S
C173 C164 1.511 . S
C173 C174 1.341 . S
C173 C175 1.361 1_556 S
C174 C173 1.341 . S
C174 C178 1.394 1_655 S
C174 H190 0.930 . S
C175 C173 1.361 1_554 S
C175 C176 1.397 . S
C175 H191 0.938 . S
C176 C175 1.397 . S
C176 C177 1.348 1_554 S
C176 H194 0.932 . S
C177 C176 1.348 1_556 S
C177 C178 1.332 1_655 S
C178 C174 1.394 1_455 S
C178 C177 1.332 1_455 S
C178 H193 0.929 . S
C179 C169 1.386 1_554 S
C179 C172 1.357 . S
C179 H192 0.928 . S
H180 C156 0.931 . S
H181 C158 0.930 . S
H182 C160 0.929 . S
H183 C161 0.931 . S
H184 C163 0.930 . S
H185 C167 0.931 . S
H186 C165 0.931 . S
H187 C169 0.931 . S
H188 C170 0.929 . S
H189 C171 0.930 . S
H190 C174 0.930 . S
H191 C175 0.938 . S
H192 C179 0.928 . S
H193 C178 0.929 . S
H194 C176 0.932 . S
C195 C196 1.386 . S
C195 C197 1.397 . S
C195 H219 0.931 1_545 S
C196 C195 1.386 . S
C196 C200 1.397 . S
C197 C195 1.397 . S
C197 C198 1.384 . S
C197 H220 0.930 . S
C198 C197 1.384 . S
C198 C199 1.377 . S
C198 C201 1.481 . S
C199 C198 1.377 . S
C199 C200 1.389 . S
C199 H221 0.929 . S
C200 C196 1.397 . S
C200 C199 1.389 . S
C200 H222 0.931 . S
C201 C198 1.481 . S
C201 C202 1.387 . S
C201 C206 1.390 . S
C202 C201 1.387 . S
C202 C203 1.401 . S
C202 H223 0.930 . S
C203 C202 1.401 . S
C203 C204 1.376 . S
C203 C212 1.511 . S
C204 C203 1.376 . S
C204 C205 1.392 . S
C204 H225 0.931 . S
C205 C204 1.392 . S
C205 C206 1.361 . S
C205 C207 1.500 . S
C206 C201 1.390 . S
C206 C205 1.361 . S
C206 H224 0.931 . S
C207 C205 1.500 . S
C207 C208 1.371 . S
C207 C209 1.365 . S
C208 C207 1.371 . S
C208 C218 1.386 . S
C208 H226 0.931 . S
C209 C207 1.365 . S
C209 C210 1.409 . S
C209 H227 0.929 . S
C210 C209 1.409 . S
C210 C211 1.380 . S
C210 H228 0.930 . S
C211 C210 1.380 . S
C211 C218 1.357 . S
C212 C203 1.511 . S
C212 C213 1.341 . S
C212 C214 1.371 . S
C213 C212 1.341 . S
C213 C217 1.394 . S
C213 H229 0.930 . S
C214 C212 1.371 . S
C214 C215 1.392 . S
C214 H230 0.931 . S
C215 C214 1.392 . S
C215 C216 1.331 . S
C215 H233 0.932 . S
C216 C215 1.331 . S
C216 C217 1.336 . S
C217 C213 1.394 . S
C217 C216 1.336 . S
C217 H232 0.932 1_545 S
C218 C208 1.386 . S
C218 C211 1.357 . S
C218 H231 0.928 . S
H219 C195 0.931 1_565 S
H220 C197 0.930 . S
H221 C199 0.929 . S
H222 C200 0.931 . S
H223 C202 0.930 . S
H224 C206 0.931 . S
H225 C204 0.931 . S
H226 C208 0.931 . S
H227 C209 0.929 . S
H228 C210 0.930 . S
H229 C213 0.930 . S
H230 C214 0.931 . S
H231 C218 0.928 . S
H232 C217 0.932 1_565 S
H233 C215 0.932 . S
C234 C235 1.386 . S
C234 C236 1.397 . S
C234 H258 0.931 . S
C235 C234 1.386 . S
C235 C239 1.397 . S
C236 C234 1.397 . S
C236 C237 1.384 . S
C236 H259 0.930 . S
C237 C236 1.384 . S
C237 C238 1.377 . S
C237 C240 1.481 . S
C238 C237 1.377 . S
C238 C239 1.389 . S
C238 H260 0.929 . S
C239 C235 1.397 . S
C239 C238 1.389 . S
C239 H261 0.931 1_554 S
C240 C237 1.481 . S
C240 C241 1.387 . S
C240 C245 1.390 . S
C241 C240 1.387 . S
C241 C242 1.401 . S
C241 H262 0.930 . S
C242 C241 1.401 . S
C242 C243 1.376 . S
C242 C251 1.511 . S
C243 C242 1.376 . S
C243 C244 1.392 . S
C243 H264 0.931 . S
C244 C243 1.392 . S
C244 C245 1.361 . S
C244 C246 1.500 . S
C245 C240 1.390 . S
C245 C244 1.361 . S
C245 H263 0.931 . S
C246 C244 1.500 . S
C246 C247 1.371 . S
C246 C248 1.365 . S
C247 C246 1.371 . S
C247 C257 1.386 . S
C247 H265 0.931 . S
C248 C246 1.365 . S
C248 C249 1.409 . S
C248 H266 0.929 . S
C249 C248 1.409 . S
C249 C250 1.380 . S
C249 H267 0.930 1_554 S
C250 C249 1.380 . S
C250 C257 1.357 . S
C251 C242 1.511 . S
C251 C252 1.341 . S
C251 C253 1.371 . S
C252 C251 1.341 . S
C252 C256 1.394 . S
C252 H268 0.930 . S
C253 C251 1.371 . S
C253 C254 1.392 . S
C253 H269 0.931 . S
C254 C253 1.392 . S
C254 C255 1.331 . S
C254 H272 0.932 . S
C255 C254 1.331 . S
C255 C256 1.336 . S
C256 C252 1.394 . S
C256 C255 1.336 . S
C256 H271 0.929 . S
C257 C247 1.386 . S
C257 C250 1.357 . S
C257 H270 0.928 . S
H258 C234 0.931 . S
H259 C236 0.930 . S
H260 C238 0.929 . S
H261 C239 0.931 1_556 S
H262 C241 0.930 . S
H263 C245 0.931 . S
H264 C243 0.931 . S
H265 C247 0.931 . S
H266 C248 0.929 . S
H267 C249 0.930 1_556 S
H268 C252 0.930 . S
H269 C253 0.931 . S
H270 C257 0.928 . S
H271 C256 0.929 . S
H272 C254 0.932 . S
C273 C274 1.386 . S
C273 C275 1.397 . S
C273 H297 0.931 . S
C274 C273 1.386 . S
C274 C278 1.397 . S
C275 C273 1.397 . S
C275 C276 1.384 . S
C275 H298 0.930 . S
C276 C275 1.384 . S
C276 C277 1.377 . S
C276 C279 1.481 . S
C277 C276 1.377 . S
C277 C278 1.389 . S
C277 H299 0.929 . S
C278 C274 1.397 . S
C278 C277 1.389 . S
C278 H300 0.931 1_455 S
C279 C276 1.481 . S
C279 C280 1.387 . S
C279 C284 1.390 . S
C280 C279 1.387 . S
C280 C281 1.401 . S
C280 H301 0.930 . S
C281 C280 1.401 . S
C281 C282 1.376 . S
C281 C290 1.511 . S
C282 C281 1.376 . S
C282 C283 1.392 . S
C282 H303 0.931 . S
C283 C282 1.392 . S
C283 C284 1.361 . S
C283 C285 1.500 . S
C284 C279 1.390 . S
C284 C283 1.361 . S
C284 H302 0.931 . S
C285 C283 1.500 . S
C285 C286 1.371 . S
C285 C287 1.365 . S
C286 C285 1.371 . S
C286 C296 1.386 . S
C286 H304 0.931 . S
C287 C285 1.365 . S
C287 C288 1.409 . S
C287 H305 0.929 . S
C288 C287 1.409 . S
C288 C289 1.380 . S
C288 H306 0.930 1_455 S
C289 C288 1.380 . S
C289 C296 1.357 . S
C290 C281 1.511 . S
C290 C291 1.341 . S
C290 C292 1.371 . S
C291 C290 1.341 . S
C291 C295 1.394 . S
C291 H307 0.930 . S
C292 C290 1.371 . S
C292 C293 1.392 . S
C292 H308 0.931 . S
C293 C292 1.392 . S
C293 C294 1.331 . S
C293 H311 0.932 . S
C294 C293 1.331 . S
C294 C295 1.336 . S
C295 C291 1.394 . S
C295 C294 1.336 . S
C295 H310 0.929 . S
C296 C286 1.386 . S
C296 C289 1.357 . S
C296 H309 0.928 . S
H297 C273 0.931 . S
H298 C275 0.930 . S
H299 C277 0.929 . S
H300 C278 0.931 1_655 S
H301 C280 0.930 . S
H302 C284 0.931 . S
H303 C282 0.931 . S
H304 C286 0.931 . S
H305 C287 0.929 . S
H306 C288 0.930 1_655 S
H307 C291 0.930 . S
H308 C292 0.931 . S
H309 C296 0.928 . S
H310 C295 0.929 . S
H311 C293 0.932 . S
Zn312 O318 1.920 . S
Zn312 O324 1.898 . S
Zn312 O327 1.905 . S
Zn313 O321 1.905 1_565 S
Zn313 O322 1.898 . S
Zn313 O330 1.920 . S
Zn314 O317 2.080 1_455 S
Zn314 O320 2.114 . S
Zn314 O323 2.120 1_445 S
Zn314 O325 2.120 . S
Zn314 O326 2.114 1_455 S
Zn314 O329 2.080 . S
C315 O320 1.166 . S
C315 O321 1.182 . S
C316 O322 1.167 1_655 S
C316 O323 1.299 . S
O317 Zn314 2.080 1_655 S
O317 C331 1.305 . S
O318 Zn312 1.920 . S
O318 C331 1.234 . S
C319 O324 1.167 1_455 S
C319 O325 1.299 . S
O320 Zn314 2.114 . S
O320 C315 1.166 . S
O321 Zn313 1.905 1_545 S
O321 C315 1.182 . S
O322 Zn313 1.898 . S
O322 C316 1.167 1_455 S
O323 Zn314 2.120 1_665 S
O323 C316 1.299 . S
O324 Zn312 1.898 . S
O324 C319 1.167 1_655 S
O325 Zn314 2.120 . S
O325 C319 1.299 . S
O326 Zn314 2.114 1_655 S
O326 C328 1.166 . S
O327 Zn312 1.905 . S
O327 C328 1.182 . S
C328 O326 1.166 . S
C328 O327 1.182 . S
O329 Zn314 2.080 . S
O329 C332 1.305 1_545 S
O330 Zn313 1.920 . S
O330 C332 1.234 . S
C331 O317 1.305 . S
C331 O318 1.234 . S
C332 O329 1.305 1_565 S
C332 O330 1.234 . S
Zn333 O339 1.920 1_556 S
Zn333 O345 1.898 . S
Zn333 O348 1.905 . S
Zn334 O342 1.905 . S
Zn334 O343 1.898 . S
Zn334 O351 1.920 . S
Zn335 O338 2.080 . S
Zn335 O341 2.114 1_545 S
Zn335 O344 2.120 1_545 S
Zn335 O346 2.120 . S
Zn335 O347 2.114 1_544 S
Zn335 O350 2.080 . S
C336 O341 1.166 . S
C336 O342 1.182 . S
C337 O343 1.167 . S
C337 O344 1.299 . S
O338 Zn335 2.080 . S
O338 C352 1.305 . S
O339 Zn333 1.920 1_554 S
O339 C352 1.234 . S
C340 O345 1.167 . S
C340 O346 1.299 1_556 S
O341 Zn335 2.114 1_565 S
O341 C336 1.166 . S
O342 Zn334 1.905 . S
O342 C336 1.182 . S
O343 Zn334 1.898 . S
O343 C337 1.167 . S
O344 Zn335 2.120 1_565 S
O344 C337 1.299 . S
O345 Zn333 1.898 . S
O345 C340 1.167 . S
O346 Zn335 2.120 . S
O346 C340 1.299 1_554 S
O347 Zn335 2.114 1_566 S
O347 C349 1.166 . S
O348 Zn333 1.905 . S
O348 C349 1.182 1_545 S
C349 O347 1.166 . S
C349 O348 1.182 1_565 S
O350 Zn335 2.080 . S
O350 C353 1.305 . S
O351 Zn334 1.920 . S
O351 C353 1.234 1_565 S
C352 O338 1.305 . S
C352 O339 1.234 . S
C353 O350 1.305 . S
C353 O351 1.234 1_545 S
Zn354 O360 1.920 . S
Zn354 O366 1.898 . S
Zn354 O369 1.905 . S
Zn355 O363 1.905 . S
Zn355 O364 1.898 . S
Zn355 O372 1.920 . S
Zn356 O359 2.080 . S
Zn356 O362 2.114 . S
Zn356 O365 2.120 . S
Zn356 O367 2.120 . S
Zn356 O368 2.114 . S
Zn356 O371 2.080 . S
C357 O362 1.166 . S
C357 O363 1.182 . S
C358 O364 1.167 . S
C358 O365 1.299 . S
O359 Zn356 2.080 . S
O359 C373 1.305 . S
O360 Zn354 1.920 . S
O360 C373 1.234 . S
C361 O366 1.167 . S
C361 O367 1.299 . S
O362 Zn356 2.114 . S
O362 C357 1.166 . S
O363 Zn355 1.905 . S
O363 C357 1.182 . S
O364 Zn355 1.898 . S
O364 C358 1.167 . S
O365 Zn356 2.120 . S
O365 C358 1.299 . S
O366 Zn354 1.898 . S
O366 C361 1.167 . S
O367 Zn356 2.120 . S
O367 C361 1.299 . S
O368 Zn356 2.114 . S
O368 C370 1.166 . S
O369 Zn354 1.905 . S
O369 C370 1.182 . S
C370 O368 1.166 . S
C370 O369 1.182 . S
O371 Zn356 2.080 . S
O371 C374 1.305 . S
O372 Zn355 1.920 . S
O372 C374 1.234 . S
C373 O359 1.305 . S
C373 O360 1.234 . S
C374 O371 1.305 . S
C374 O372 1.234 . S
Zn375 O381 1.920 . S
Zn375 O387 1.898 . S
Zn375 O390 1.905 . S
Zn376 O384 1.905 1_655 S
Zn376 O385 1.898 . S
Zn376 O393 1.920 . S
Zn377 O380 2.080 1_554 S
Zn377 O383 2.114 . S
Zn377 O386 2.120 1_454 S
Zn377 O388 2.120 . S
Zn377 O389 2.114 1_554 S
Zn377 O392 2.080 . S
C378 O383 1.166 . S
C378 O384 1.182 . S
C379 O385 1.167 1_556 S
C379 O386 1.299 . S
O380 Zn377 2.080 1_556 S
O380 C394 1.305 . S
O381 Zn375 1.920 . S
O381 C394 1.234 . S
C382 O387 1.167 1_554 S
C382 O388 1.299 . S
O383 Zn377 2.114 . S
O383 C378 1.166 . S
O384 Zn376 1.905 1_455 S
O384 C378 1.182 . S
O385 Zn376 1.898 . S
O385 C379 1.167 1_554 S
O386 Zn377 2.120 1_656 S
O386 C379 1.299 . S
O387 Zn375 1.898 . S
O387 C382 1.167 1_556 S
O388 Zn377 2.120 . S
O388 C382 1.299 . S
O389 Zn377 2.114 1_556 S
O389 C391 1.166 . S
O390 Zn375 1.905 . S
O390 C391 1.182 . S
C391 O389 1.166 . S
C391 O390 1.182 . S
O392 Zn377 2.080 . S
O392 C395 1.305 1_455 S
O393 Zn376 1.920 . S
O393 C395 1.234 . S
C394 O380 1.305 . S
C394 O381 1.234 . S
C395 O392 1.305 1_655 S
C395 O393 1.234 . S
C396 C397 1.363 . S
C396 C402 1.379 . S
C396 N404 1.356 . S
C397 C396 1.363 . S
C397 C403 1.363 . S
C398 C399 1.363 . S
C398 C403 1.379 . S
C398 N405 1.356 . S
C399 C398 1.363 . S
C399 C402 1.363 . S
N400 C402 1.356 . S
N400 H412 0.984 . S
N400 H413 0.985 . S
N401 C403 1.356 . S
N401 H406 0.984 . S
N401 H407 0.985 . S
C402 C396 1.379 . S
C402 C399 1.363 . S
C402 N400 1.356 . S
C403 C397 1.363 . S
C403 C398 1.379 . S
C403 N401 1.356 . S
N404 C396 1.356 . S
N404 H410 0.984 . S
N404 H411 0.984 . S
N405 C398 1.356 . S
N405 H408 0.984 . S
N405 H409 0.985 . S
H406 N401 0.984 . S
H407 N401 0.985 . S
H408 N405 0.984 . S
H409 N405 0.985 . S
H410 N404 0.984 . S
H411 N404 0.984 . S
H412 N400 0.984 . S
H413 N400 0.985 . S
C414 C415 1.363 . S
C414 C420 1.379 . S
C414 N422 1.356 . S
C415 C414 1.363 . S
C415 C421 1.363 . S
C416 C417 1.363 . S
C416 C421 1.379 . S
C416 N423 1.356 1_565 S
C417 C416 1.363 . S
C417 C420 1.363 . S
N418 C420 1.356 . S
N418 H430 0.984 . S
N418 H431 0.985 . S
N419 C421 1.356 . S
N419 H424 0.984 . S
N419 H425 0.985 . S
C420 C414 1.379 . S
C420 C417 1.363 . S
C420 N418 1.356 . S
C421 C415 1.363 . S
C421 C416 1.379 . S
C421 N419 1.356 . S
N422 C414 1.356 . S
N422 H428 0.984 . S
N422 H429 0.984 . S
N423 C416 1.356 1_545 S
N423 H426 0.984 . S
N423 H427 0.985 . S
H424 N419 0.984 . S
H425 N419 0.985 . S
H426 N423 0.984 . S
H427 N423 0.985 . S
H428 N422 0.984 . S
H429 N422 0.984 . S
H430 N418 0.984 . S
H431 N418 0.985 . S
C432 C433 1.363 . S
C432 C438 1.379 . S
C432 N440 1.356 . S
C433 C432 1.363 . S
C433 C439 1.363 . S
C434 C435 1.363 . S
C434 C439 1.379 . S
C434 N441 1.356 . S
C435 C434 1.363 . S
C435 C438 1.363 . S
N436 C438 1.356 . S
N436 H448 0.984 . S
N436 H449 0.985 . S
N437 C439 1.356 . S
N437 H442 0.984 . S
N437 H443 0.985 . S
C438 C432 1.379 . S
C438 C435 1.363 . S
C438 N436 1.356 . S
C439 C433 1.363 . S
C439 C434 1.379 . S
C439 N437 1.356 . S
N440 C432 1.356 . S
N440 H446 0.984 . S
N440 H447 0.984 . S
N441 C434 1.356 . S
N441 H444 0.984 . S
N441 H445 0.985 . S
H442 N437 0.984 . S
H443 N437 0.985 . S
H444 N441 0.984 . S
H445 N441 0.985 . S
H446 N440 0.984 . S
H447 N440 0.984 . S
H448 N436 0.984 . S
H449 N436 0.985 . S
C450 C451 1.363 . S
C450 C456 1.379 . S
C450 N458 1.356 . S
C451 C450 1.363 . S
C451 C457 1.363 . S
C452 C453 1.363 . S
C452 C457 1.379 . S
C452 N459 1.356 . S
C453 C452 1.363 . S
C453 C456 1.363 . S
N454 C456 1.356 . S
N454 H466 0.984 . S
N454 H467 0.985 . S
N455 C457 1.356 . S
N455 H460 0.984 . S
N455 H461 0.985 . S
C456 C450 1.379 . S
C456 C453 1.363 . S
C456 N454 1.356 . S
C457 C451 1.363 . S
C457 C452 1.379 . S
C457 N455 1.356 . S
N458 C450 1.356 . S
N458 H464 0.984 . S
N458 H465 0.984 . S
N459 C452 1.356 . S
N459 H462 0.984 1_655 S
N459 H463 0.985 1_655 S
H460 N455 0.984 . S
H461 N455 0.985 . S
H462 N459 0.984 1_455 S
H463 N459 0.985 1_455 S
H464 N458 0.984 . S
H465 N458 0.984 . S
H466 N454 0.984 . S
H467 N454 0.985 . S
C468 C469 1.363 . S
C468 C474 1.379 . S
C468 N476 1.356 . S
C469 C468 1.363 . S
C469 C475 1.363 . S
C470 C471 1.363 . S
C470 C475 1.379 . S
C470 N477 1.356 . S
C471 C470 1.363 . S
C471 C474 1.363 . S
N472 C474 1.356 . S
N472 H484 0.984 . S
N472 H485 0.985 . S
N473 C475 1.356 . S
N473 H478 0.984 . S
N473 H479 0.985 . S
C474 C468 1.379 . S
C474 C471 1.363 . S
C474 N472 1.356 . S
C475 C469 1.363 . S
C475 C470 1.379 . S
C475 N473 1.356 . S
N476 C468 1.356 . S
N476 H482 0.984 . S
N476 H483 0.984 . S
N477 C470 1.356 . S
N477 H480 0.984 . S
N477 H481 0.985 . S
H478 N473 0.984 . S
H479 N473 0.985 . S
H480 N477 0.984 . S
H481 N477 0.985 . S
H482 N476 0.984 . S
H483 N476 0.984 . S
H484 N472 0.984 . S
H485 N472 0.985 . S
C486 C487 1.363 . S
C486 C492 1.379 . S
C486 N494 1.356 . S
C487 C486 1.363 . S
C487 C493 1.363 . S
C488 C489 1.363 . S
C488 C493 1.379 . S
C488 N495 1.356 . S
C489 C488 1.363 . S
C489 C492 1.363 . S
N490 C492 1.356 . S
N490 H502 0.984 . S
N490 H503 0.985 . S
N491 C493 1.356 . S
N491 H496 0.984 . S
N491 H497 0.985 . S
C492 C486 1.379 . S
C492 C489 1.363 . S
C492 N490 1.356 . S
C493 C487 1.363 . S
C493 C488 1.379 . S
C493 N491 1.356 . S
N494 C486 1.356 . S
N494 H500 0.984 . S
N494 H501 0.984 . S
N495 C488 1.356 . S
N495 H498 0.984 . S
N495 H499 0.985 . S
H496 N491 0.984 . S
H497 N491 0.985 . S
H498 N495 0.984 . S
H499 N495 0.985 . S
H500 N494 0.984 . S
H501 N494 0.984 . S
H502 N490 0.984 . S
H503 N490 0.985 . S
C504 C505 1.363 . S
C504 C510 1.379 . S
C504 N512 1.356 . S
C505 C504 1.363 . S
C505 C511 1.363 . S
C506 C507 1.363 . S
C506 C511 1.379 . S
C506 N513 1.356 . S
C507 C506 1.363 . S
C507 C510 1.363 . S
N508 C510 1.356 1_554 S
N508 H520 0.984 . S
N508 H521 0.985 . S
N509 C511 1.356 . S
N509 H514 0.984 . S
N509 H515 0.985 . S
C510 C504 1.379 . S
C510 C507 1.363 . S
C510 N508 1.356 1_556 S
C511 C505 1.363 . S
C511 C506 1.379 . S
C511 N509 1.356 . S
N512 C504 1.356 . S
N512 H518 0.984 1_556 S
N512 H519 0.984 . S
N513 C506 1.356 . S
N513 H516 0.984 . S
N513 H517 0.985 . S
H514 N509 0.984 . S
H515 N509 0.985 . S
H516 N513 0.984 . S
H517 N513 0.985 . S
H518 N512 0.984 1_554 S
H519 N512 0.984 . S
H520 N508 0.984 . S
H521 N508 0.985 . S
C522 C523 1.363 . S
C522 C528 1.379 . S
C522 N530 1.356 . S
C523 C522 1.363 . S
C523 C529 1.363 . S
C524 C525 1.363 . S
C524 C529 1.379 . S
C524 N531 1.356 . S
C525 C524 1.363 . S
C525 C528 1.363 . S
N526 C528 1.356 . S
N526 H538 0.984 . S
N526 H539 0.985 . S
N527 C529 1.356 . S
N527 H532 0.984 . S
N527 H533 0.985 . S
C528 C522 1.379 . S
C528 C525 1.363 . S
C528 N526 1.356 . S
C529 C523 1.363 . S
C529 C524 1.379 . S
C529 N527 1.356 . S
N530 C522 1.356 . S
N530 H536 0.984 . S
N530 H537 0.984 . S
N531 C524 1.356 . S
N531 H534 0.984 . S
N531 H535 0.985 . S
H532 N527 0.984 . S
H533 N527 0.985 . S
H534 N531 0.984 . S
H535 N531 0.985 . S
H536 N530 0.984 . S
H537 N530 0.984 . S
H538 N526 0.984 . S
H539 N526 0.985 . S
C540 C541 1.363 . S
C540 C546 1.379 . S
C540 N548 1.356 . S
C541 C540 1.363 . S
C541 C547 1.363 . S
C542 C543 1.363 . S
C542 C547 1.379 . S
C542 N549 1.356 . S
C543 C542 1.363 . S
C543 C546 1.363 . S
N544 C546 1.356 . S
N544 H556 0.984 . S
N544 H557 0.985 . S
N545 C547 1.356 . S
N545 H550 0.984 . S
N545 H551 0.985 . S
C546 C540 1.379 . S
C546 C543 1.363 . S
C546 N544 1.356 . S
C547 C541 1.363 . S
C547 C542 1.379 . S
C547 N545 1.356 . S
N548 C540 1.356 . S
N548 H554 0.984 . S
N548 H555 0.984 . S
N549 C542 1.356 . S
N549 H552 0.984 . S
N549 H553 0.985 1_455 S
H550 N545 0.984 . S
H551 N545 0.985 . S
H552 N549 0.984 . S
H553 N549 0.985 1_655 S
H554 N548 0.984 . S
H555 N548 0.984 . S
H556 N544 0.984 . S
H557 N544 0.985 . S
C558 C559 1.363 . S
C558 C564 1.379 . S
C558 N566 1.356 . S
C559 C558 1.363 . S
C559 C565 1.363 . S
C560 C561 1.363 . S
C560 C565 1.379 . S
C560 N567 1.356 . S
C561 C560 1.363 . S
C561 C564 1.363 . S
N562 C564 1.356 1_554 S
N562 H574 0.984 . S
N562 H575 0.985 . S
N563 C565 1.356 . S
N563 H568 0.984 . S
N563 H569 0.985 . S
C564 C558 1.379 . S
C564 C561 1.363 . S
C564 N562 1.356 1_556 S
C565 C559 1.363 . S
C565 C560 1.379 . S
C565 N563 1.356 . S
N566 C558 1.356 . S
N566 H572 0.984 1_556 S
N566 H573 0.984 . S
N567 C560 1.356 . S
N567 H570 0.984 . S
N567 H571 0.985 . S
H568 N563 0.984 . S
H569 N563 0.985 . S
H570 N567 0.984 . S
H571 N567 0.985 . S
H572 N566 0.984 1_554 S
H573 N566 0.984 . S
H574 N562 0.984 . S
H575 N562 0.985 . S
C576 C577 1.363 . S
C576 C582 1.379 . S
C576 N584 1.356 . S
C577 C576 1.363 . S
C577 C583 1.363 . S
C578 C579 1.363 . S
C578 C583 1.379 . S
C578 N585 1.356 . S
C579 C578 1.363 . S
C579 C582 1.363 . S
N580 C582 1.356 . S
N580 H592 0.984 . S
N580 H593 0.985 . S
N581 C583 1.356 . S
N581 H586 0.984 . S
N581 H587 0.985 . S
C582 C576 1.379 . S
C582 C579 1.363 . S
C582 N580 1.356 . S
C583 C577 1.363 . S
C583 C578 1.379 . S
C583 N581 1.356 . S
N584 C576 1.356 . S
N584 H590 0.984 . S
N584 H591 0.984 . S
N585 C578 1.356 . S
N585 H588 0.984 . S
N585 H589 0.985 . S
H586 N581 0.984 . S
H587 N581 0.985 . S
H588 N585 0.984 . S
H589 N585 0.985 . S
H590 N584 0.984 . S
H591 N584 0.984 . S
H592 N580 0.984 . S
H593 N580 0.985 . S
C594 C595 1.363 . S
C594 C600 1.379 . S
C594 N602 1.356 . S
C595 C594 1.363 . S
C595 C601 1.363 . S
C596 C597 1.363 . S
C596 C601 1.379 . S
C596 N603 1.356 . S
C597 C596 1.363 . S
C597 C600 1.363 . S
N598 C600 1.356 . S
N598 H610 0.984 . S
N598 H611 0.985 . S
N599 C601 1.356 . S
N599 H604 0.984 . S
N599 H605 0.985 . S
C600 C594 1.379 . S
C600 C597 1.363 . S
C600 N598 1.356 . S
C601 C595 1.363 . S
C601 C596 1.379 . S
C601 N599 1.356 . S
N602 C594 1.356 . S
N602 H608 0.984 . S
N602 H609 0.984 . S
N603 C596 1.356 . S
N603 H606 0.984 . S
N603 H607 0.985 . S
H604 N599 0.984 . S
H605 N599 0.985 . S
H606 N603 0.984 . S
H607 N603 0.985 . S
H608 N602 0.984 . S
H609 N602 0.984 . S
H610 N598 0.984 . S
H611 N598 0.985 . S
C612 C613 1.363 1_465 S
C612 C618 1.379 . S
C612 N620 1.356 . S
C613 C612 1.363 1_645 S
C613 C619 1.363 . S
C614 C615 1.363 . S
C614 C619 1.379 . S
C614 N621 1.356 . S
C615 C614 1.363 . S
C615 C618 1.363 1_645 S
N616 C618 1.356 . S
N616 H628 0.984 . S
N616 H629 0.985 . S
N617 C619 1.356 . S
N617 H622 0.984 . S
N617 H623 0.985 . S
C618 C612 1.379 . S
C618 C615 1.363 1_465 S
C618 N616 1.356 . S
C619 C613 1.363 . S
C619 C614 1.379 . S
C619 N617 1.356 . S
N620 C612 1.356 . S
N620 H626 0.984 . S
N620 H627 0.984 . S
N621 C614 1.356 . S
N621 H624 0.984 . S
N621 H625 0.985 . S
H622 N617 0.984 . S
H623 N617 0.985 . S
H624 N621 0.984 . S
H625 N621 0.985 . S
H626 N620 0.984 . S
H627 N620 0.984 . S
H628 N616 0.984 . S
H629 N616 0.985 . S
C630 C631 1.363 . S
C630 C636 1.379 . S
C630 N638 1.356 1_545 S
C631 C630 1.363 . S
C631 C637 1.363 . S
C632 C633 1.363 . S
C632 C637 1.379 . S
C632 N639 1.356 . S
C633 C632 1.363 . S
C633 C636 1.363 . S
N634 C636 1.356 1_565 S
N634 H646 0.984 . S
N634 H647 0.985 . S
N635 C637 1.356 . S
N635 H640 0.984 . S
N635 H641 0.985 . S
C636 C630 1.379 . S
C636 C633 1.363 . S
C636 N634 1.356 1_545 S
C637 C631 1.363 . S
C637 C632 1.379 . S
C637 N635 1.356 . S
N638 C630 1.356 1_565 S
N638 H644 0.984 . S
N638 H645 0.984 . S
N639 C632 1.356 . S
N639 H642 0.984 . S
N639 H643 0.985 . S
H640 N635 0.984 . S
H641 N635 0.985 . S
H642 N639 0.984 . S
H643 N639 0.985 . S
H644 N638 0.984 . S
H645 N638 0.984 . S
H646 N634 0.984 . S
H647 N634 0.985 . S
C648 C649 1.363 . S
C648 C654 1.379 . S
C648 N656 1.356 . S
C649 C648 1.363 . S
C649 C655 1.363 . S
C650 C651 1.363 . S
C650 C655 1.379 . S
C650 N657 1.356 . S
C651 C650 1.363 . S
C651 C654 1.363 . S
N652 C654 1.356 . S
N652 H664 0.984 . S
N652 H665 0.985 . S
N653 C655 1.356 . S
N653 H658 0.984 . S
N653 H659 0.985 . S
C654 C648 1.379 . S
C654 C651 1.363 . S
C654 N652 1.356 . S
C655 C649 1.363 . S
C655 C650 1.379 . S
C655 N653 1.356 . S
N656 C648 1.356 . S
N656 H662 0.984 . S
N656 H663 0.984 . S
N657 C650 1.356 . S
N657 H660 0.984 . S
N657 H661 0.985 . S
H658 N653 0.984 . S
H659 N653 0.985 . S
H660 N657 0.984 . S
H661 N657 0.985 . S
H662 N656 0.984 . S
H663 N656 0.984 . S
H664 N652 0.984 . S
H665 N652 0.985 . S
C666 C667 1.363 . S
C666 C672 1.379 . S
C666 N674 1.356 1_455 S
C667 C666 1.363 . S
C667 C673 1.363 . S
C668 C669 1.363 . S
C668 C673 1.379 . S
C668 N675 1.356 . S
C669 C668 1.363 . S
C669 C672 1.363 . S
N670 C672 1.356 . S
N670 H682 0.984 1_455 S
N670 H683 0.985 . S
N671 C673 1.356 . S
N671 H676 0.984 . S
N671 H677 0.985 . S
C672 C666 1.379 . S
C672 C669 1.363 . S
C672 N670 1.356 . S
C673 C667 1.363 . S
C673 C668 1.379 . S
C673 N671 1.356 . S
N674 C666 1.356 1_655 S
N674 H680 0.984 . S
N674 H681 0.984 . S
N675 C668 1.356 . S
N675 H678 0.984 . S
N675 H679 0.985 . S
H676 N671 0.984 . S
H677 N671 0.985 . S
H678 N675 0.984 . S
H679 N675 0.985 . S
H680 N674 0.984 . S
H681 N674 0.984 . S
H682 N670 0.984 1_655 S
H683 N670 0.985 . S
C684 C685 1.363 1_565 S
C684 C690 1.379 . S
C684 N692 1.356 . S
C685 C684 1.363 1_545 S
C685 C691 1.363 1_554 S
C686 C687 1.363 1_546 S
C686 C691 1.379 . S
C686 N693 1.356 . S
C687 C686 1.363 1_564 S
C687 C690 1.363 . S
N688 C690 1.356 . S
N688 H700 0.984 . S
N688 H701 0.985 . S
N689 C691 1.356 . S
N689 H694 0.984 . S
N689 H695 0.985 . S
C690 C684 1.379 . S
C690 C687 1.363 . S
C690 N688 1.356 . S
C691 C685 1.363 1_556 S
C691 C686 1.379 . S
C691 N689 1.356 . S
N692 C684 1.356 . S
N692 H698 0.984 . S
N692 H699 0.984 . S
N693 C686 1.356 . S
N693 H696 0.984 . S
N693 H697 0.985 . S
H694 N689 0.984 . S
H695 N689 0.985 . S
H696 N693 0.984 . S
H697 N693 0.985 . S
H698 N692 0.984 . S
H699 N692 0.984 . S
H700 N688 0.984 . S
H701 N688 0.985 . S
C702 C703 1.363 . S
C702 C708 1.379 . S
C702 N710 1.356 . S
C703 C702 1.363 . S
C703 C709 1.363 . S
C704 C705 1.363 . S
C704 C709 1.379 . S
C704 N711 1.356 . S
C705 C704 1.363 . S
C705 C708 1.363 . S
N706 C708 1.356 . S
N706 H718 0.984 . S
N706 H719 0.985 . S
N707 C709 1.356 . S
N707 H712 0.984 . S
N707 H713 0.985 1_545 S
C708 C702 1.379 . S
C708 C705 1.363 . S
C708 N706 1.356 . S
C709 C703 1.363 . S
C709 C704 1.379 . S
C709 N707 1.356 . S
N710 C702 1.356 . S
N710 H716 0.984 . S
N710 H717 0.984 . S
N711 C704 1.356 . S
N711 H714 0.984 . S
N711 H715 0.985 1_545 S
H712 N707 0.984 . S
H713 N707 0.985 1_565 S
H714 N711 0.984 . S
H715 N711 0.985 1_565 S
H716 N710 0.984 . S
H717 N710 0.984 . S
H718 N706 0.984 . S
H719 N706 0.985 . S
C720 C721 1.363 . S
C720 C726 1.379 . S
C720 N728 1.356 1_554 S
C721 C720 1.363 . S
C721 C727 1.363 . S
C722 C723 1.363 . S
C722 C727 1.379 . S
C722 N729 1.356 . S
C723 C722 1.363 . S
C723 C726 1.363 . S
N724 C726 1.353 1_556 S
N724 H736 0.990 . S
N724 H737 0.983 1_556 S
N725 C727 1.356 . S
N725 H730 0.984 . S
N725 H731 0.985 . S
C726 C720 1.379 . S
C726 C723 1.363 . S
C726 N724 1.353 1_554 S
C727 C721 1.363 . S
C727 C722 1.379 . S
C727 N725 1.356 . S
N728 C720 1.356 1_556 S
N728 H734 0.984 . S
N728 H735 0.984 . S
N729 C722 1.356 . S
N729 H732 0.984 . S
N729 H733 0.985 . S
H730 N725 0.984 . S
H731 N725 0.985 . S
H732 N729 0.984 . S
H733 N729 0.985 . S
H734 N728 0.984 . S
H735 N728 0.984 . S
H736 N724 0.990 . S
H737 N724 0.983 1_554 S
C738 C739 1.363 . S
C738 C744 1.379 . S
C738 N746 1.356 . S
C739 C738 1.363 . S
C739 C745 1.363 . S
C740 C741 1.363 . S
C740 C745 1.379 . S
C740 N747 1.356 . S
C741 C740 1.363 . S
C741 C744 1.363 . S
N742 C744 1.356 . S
N742 H754 0.984 . S
N742 H755 0.985 . S
N743 C745 1.356 . S
N743 H748 0.984 . S
N743 H749 0.985 . S
C744 C738 1.379 . S
C744 C741 1.363 . S
C744 N742 1.356 . S
C745 C739 1.363 . S
C745 C740 1.379 . S
C745 N743 1.356 . S
N746 C738 1.356 . S
N746 H752 0.984 . S
N746 H753 0.984 . S
N747 C740 1.356 . S
N747 H750 0.984 . S
N747 H751 0.985 . S
H748 N743 0.984 . S
H749 N743 0.985 . S
H750 N747 0.984 . S
H751 N747 0.985 . S
H752 N746 0.984 . S
H753 N746 0.984 . S
H754 N742 0.984 . S
H755 N742 0.985 . S
C756 C757 1.363 1_655 S
C756 C762 1.379 . S
C756 N764 1.356 . S
C757 C756 1.363 1_455 S
C757 C763 1.363 1_556 S
C758 C759 1.363 1_554 S
C758 C763 1.379 . S
C758 N765 1.356 . S
C759 C758 1.363 1_556 S
C759 C762 1.363 1_455 S
N760 C762 1.356 . S
N760 H772 0.984 . S
N760 H773 0.985 . S
N761 C763 1.356 . S
N761 H766 0.984 . S
N761 H767 0.985 . S
C762 C756 1.379 . S
C762 C759 1.363 1_655 S
C762 N760 1.356 . S
C763 C757 1.363 1_554 S
C763 C758 1.379 . S
C763 N761 1.356 . S
N764 C756 1.356 . S
N764 H770 0.984 . S
N764 H771 0.984 . S
N765 C758 1.356 . S
N765 H768 0.984 . S
N765 H769 0.985 . S
H766 N761 0.984 . S
H767 N761 0.985 . S
H768 N765 0.984 . S
H769 N765 0.985 . S
H770 N764 0.984 . S
H771 N764 0.984 . S
H772 N760 0.984 . S
H773 N760 0.985 . S
C774 C775 1.363 . S
C774 C780 1.379 . S
C774 N782 1.356 . S
C775 C774 1.363 . S
C775 C781 1.363 . S
C776 C777 1.363 . S
C776 C781 1.379 . S
C776 N783 1.356 1_554 S
C777 C776 1.363 . S
C777 C780 1.363 . S
N778 C780 1.356 . S
N778 H790 0.984 . S
N778 H791 0.985 . S
N779 C781 1.356 1_556 S
N779 H784 0.984 . S
N779 H785 0.985 . S
C780 C774 1.379 . S
C780 C777 1.363 . S
C780 N778 1.356 . S
C781 C775 1.363 . S
C781 C776 1.379 . S
C781 N779 1.356 1_554 S
N782 C774 1.356 . S
N782 H788 0.984 . S
N782 H789 0.984 . S
N783 C776 1.356 1_556 S
N783 H786 0.984 1_556 S
N783 H787 0.985 . S
H784 N779 0.984 . S
H785 N779 0.985 . S
H786 N783 0.984 1_554 S
H787 N783 0.985 . S
H788 N782 0.984 . S
H789 N782 0.984 . S
H790 N778 0.984 . S
H791 N778 0.985 . S
C792 C793 1.359 1_655 S
C792 C798 1.378 1_655 S
C792 N800 1.360 . S
C793 C792 1.359 1_455 S
C793 C799 1.363 . S
C794 C795 1.363 . S
C794 C799 1.379 . S
C794 N801 1.356 . S
C795 C794 1.363 . S
C795 C798 1.371 . S
N796 C798 1.350 1_655 S
N796 H808 0.984 . S
N796 H809 0.985 . S
N797 C799 1.356 . S
N797 H802 0.984 . S
N797 H803 0.985 . S
C798 C792 1.378 1_455 S
C798 C795 1.371 . S
C798 N796 1.350 1_455 S
C799 C793 1.363 . S
C799 C794 1.379 . S
C799 N797 1.356 . S
N800 C792 1.360 . S
N800 H806 0.984 . S
N800 H807 0.984 . S
N801 C794 1.356 . S
N801 H804 0.984 . S
N801 H805 0.985 . S
H802 N797 0.984 . S
H803 N797 0.985 . S
H804 N801 0.984 . S
H805 N801 0.985 . S
H806 N800 0.984 . S
H807 N800 0.984 . S
H808 N796 0.984 . S
H809 N796 0.985 . S
C810 C811 1.363 . S
C810 C816 1.379 . S
C810 N818 1.356 . S
C811 C810 1.363 . S
C811 C817 1.363 . S
C812 C813 1.363 . S
C812 C817 1.379 . S
C812 N819 1.356 . S
C813 C812 1.363 . S
C813 C816 1.363 . S
N814 C816 1.356 . S
N814 H826 0.984 . S
N814 H827 0.985 . S
N815 C817 1.356 . S
N815 H820 0.984 . S
N815 H821 0.985 . S
C816 C810 1.379 . S
C816 C813 1.363 . S
C816 N814 1.356 . S
C817 C811 1.363 . S
C817 C812 1.379 . S
C817 N815 1.356 . S
N818 C810 1.356 . S
N818 H824 0.984 . S
N818 H825 0.984 . S
N819 C812 1.356 . S
N819 H822 0.984 . S
N819 H823 0.985 . S
H820 N815 0.984 . S
H821 N815 0.985 . S
H822 N819 0.984 . S
H823 N819 0.985 . S
H824 N818 0.984 . S
H825 N818 0.984 . S
H826 N814 0.984 . S
H827 N814 0.985 . S
C397 C1 1.545 . S
C399 C315 1.443 . S
C415 C40 1.514 . S
C417 C349 1.418 . S
C435 C361 1.407 . S
C433 C99 1.503 . S
C451 C118 1.505 . S
C453 C395 1.411 . S
C471 C352 1.435 . S
C469 C16 1.535 . S
C489 C332 1.411 . S
C487 C60 1.511 . S
C507 C379 1.408 . S
C505 C79 1.507 . S
C525 C370 1.402 . S
C523 C138 1.495 . S
C541 C21 1.530 . S
C543 C378 1.428 . S
C561 C340 1.418 . S
C559 C94 1.515 . S
C577 C133 1.500 . S
C579 C316 1.391 . S
C595 C55 1.517 . S
C597 C373 1.413 . S
C615 C331 1.685 . S
C613 C157 1.747 . S
C631 C196 1.743 . S
C633 C353 1.675 . S
C649 C255 1.747 . S
C651 C358 1.695 . S
C667 C289 1.763 . S
C669 C391 1.710 . S
C685 C172 1.767 1_545 S
C687 C336 1.710 . S
C705 C328 1.703 . S
C703 C216 1.772 . S
C723 C382 1.709 . S
C721 C235 1.772 . S
C741 C374 1.669 . S
C739 C294 1.718 . S
C757 C177 1.718 1_455 S
C759 C394 1.673 . S
C777 C337 1.715 . S
C775 C250 1.778 . S
C795 C319 1.663 . S
C793 C274 1.728 . S
C811 C211 1.745 . S
C813 C357 1.693 . S
