# Generated by pormake.
# Topology nom, (4,4)-cn, num edge types: 1
# Building blocks:
#     Node 0, Type 0, BuildingBlock: KUFVIS_clean_linker_0, # of connection points: 4
#     Node 1, Type 0, BuildingBlock: KUFVIS_clean_linker_0, # of connection points: 4
#     Node 2, Type 0, BuildingBlock: KUFVIS_clean_linker_0, # of connection points: 4
#     Node 3, Type 0, BuildingBlock: KUFVIS_clean_linker_0, # of connection points: 4
#     Node 4, Type 0, BuildingBlock: KUFVIS_clean_linker_0, # of connection points: 4
#     Node 5, Type 0, BuildingBlock: KUFVIS_clean_linker_0, # of connection points: 4
#     Node 6, Type 1, BuildingBlock: KUFVIS_clean_sbu_0, # of connection points: 4
#     Node 7, Type 1, BuildingBlock: KUFVIS_clean_sbu_0, # of connection points: 4
#     Node 8, Type 1, BuildingBlock: KUFVIS_clean_sbu_0, # of connection points: 4
#     Node 9, Type 1, BuildingBlock: KUFVIS_clean_sbu_0, # of connection points: 4
#     Node 10, Type 1, BuildingBlock: KUFVIS_clean_sbu_0, # of connection points: 4
#     Node 11, Type 1, BuildingBlock: KUFVIS_clean_sbu_0, # of connection points: 4
#     Edge 12, Type (0, 1), BuildingBlock: XUDNAN_clean_linker_2, # of connection points: 2
#     Edge 13, Type (0, 1), BuildingBlock: XUDNAN_clean_linker_2, # of connection points: 2
#     Edge 14, Type (0, 1), BuildingBlock: XUDNAN_clean_linker_2, # of connection points: 2
#     Edge 15, Type (0, 1), BuildingBlock: XUDNAN_clean_linker_2, # of connection points: 2
#     Edge 16, Type (0, 1), BuildingBlock: XUDNAN_clean_linker_2, # of connection points: 2
#     Edge 17, Type (0, 1), BuildingBlock: XUDNAN_clean_linker_2, # of connection points: 2
#     Edge 18, Type (0, 1), BuildingBlock: XUDNAN_clean_linker_2, # of connection points: 2
#     Edge 19, Type (0, 1), BuildingBlock: XUDNAN_clean_linker_2, # of connection points: 2
#     Edge 20, Type (0, 1), BuildingBlock: XUDNAN_clean_linker_2, # of connection points: 2
#     Edge 21, Type (0, 1), BuildingBlock: XUDNAN_clean_linker_2, # of connection points: 2
#     Edge 22, Type (0, 1), BuildingBlock: XUDNAN_clean_linker_2, # of connection points: 2
#     Edge 23, Type (0, 1), BuildingBlock: XUDNAN_clean_linker_2, # of connection points: 2
#     Edge 24, Type (0, 1), BuildingBlock: XUDNAN_clean_linker_2, # of connection points: 2
#     Edge 25, Type (0, 1), BuildingBlock: XUDNAN_clean_linker_2, # of connection points: 2
#     Edge 26, Type (0, 1), BuildingBlock: XUDNAN_clean_linker_2, # of connection points: 2
#     Edge 27, Type (0, 1), BuildingBlock: XUDNAN_clean_linker_2, # of connection points: 2
#     Edge 28, Type (0, 1), BuildingBlock: XUDNAN_clean_linker_2, # of connection points: 2
#     Edge 29, Type (0, 1), BuildingBlock: XUDNAN_clean_linker_2, # of connection points: 2
#     Edge 30, Type (0, 1), BuildingBlock: XUDNAN_clean_linker_2, # of connection points: 2
#     Edge 31, Type (0, 1), BuildingBlock: XUDNAN_clean_linker_2, # of connection points: 2
#     Edge 32, Type (0, 1), BuildingBlock: XUDNAN_clean_linker_2, # of connection points: 2
#     Edge 33, Type (0, 1), BuildingBlock: XUDNAN_clean_linker_2, # of connection points: 2
#     Edge 34, Type (0, 1), BuildingBlock: XUDNAN_clean_linker_2, # of connection points: 2
#     Edge 35, Type (0, 1), BuildingBlock: XUDNAN_clean_linker_2, # of connection points: 2
# Relax obj value: 0.004
# Max RMSD: 0.052
# Mean RMSD: 0.039
data_MOF--net-nom--node1-KUFVIS_clean_sbu_0--node2-KUFVIS_clean_linker_0--edge1-XUDNAN_clean_linker_2
_symmetry_space_group_name_H-M    P1
_symmetry_Int_Tables_number       1
_symmetry_cell_setting            triclinic
loop_
_symmetry_equiv_pos_as_xyz
'x, y, z'
_cell_length_a     44.847095
_cell_length_b     45.309626
_cell_length_c     46.692953
_cell_angle_alpha  90.54447
_cell_angle_beta   90.704245
_cell_angle_gamma 120.0399
loop_
_atom_site_label
_atom_site_type_symbol
_atom_site_fract_x
_atom_site_fract_y
_atom_site_fract_z
_atom_type_partial_charge
H0 H 0.1495 0.63281 0.33669 0.0
H1 H 0.07135 0.61437 0.27364 0.0
H2 H 0.04445 0.56256 0.35495 0.0
H3 H 0.99656 0.56816 0.34748 0.0
H4 H 0.91873 0.51986 0.28142 0.0
H5 H 1.02447 0.5597 0.26073 0.0
C6 C 0.12254 0.62099 0.33029 0.0
C7 C 0.09797 0.59788 0.34877 0.0
C8 C 0.1136 0.62688 0.30307 0.0
C9 C 0.07849 0.60987 0.29471 0.0
C10 C 0.05276 0.58722 0.31365 0.0
C11 C 0.06309 0.58125 0.34072 0.0
C12 C 1.01543 0.56855 0.30482 0.0
C13 C 0.98941 0.56045 0.3253 0.0
C14 C 0.95417 0.54164 0.31735 0.0
C15 C 0.94552 0.533 0.28842 0.0
C16 C 0.97046 0.53841 0.26831 0.0
C17 C 1.00542 0.55655 0.2763 0.0
H18 H 0.52699 0.14027 0.50785 0.0
H19 H 0.50353 0.06905 0.43922 0.0
H20 H 0.50087 0.03802 0.52713 0.0
H21 H 0.45575 0.98865 0.51317 0.0
H22 H 0.43806 0.91557 0.44706 0.0
H23 H 0.50226 0.02139 0.43003 0.0
C24 C 0.52024 0.1148 0.50073 0.0
C25 C 0.51588 0.09048 0.52094 0.0
C26 C 0.51992 0.10834 0.47145 0.0
C27 C 0.50616 0.07421 0.46201 0.0
C28 C 0.49658 0.04746 0.48212 0.0
C29 C 0.50361 0.05669 0.51156 0.0
C30 C 0.48082 1.01046 0.47272 0.0
C31 C 0.46059 0.98334 0.49164 0.0
C32 C 0.44549 0.9489 0.48259 0.0
C33 C 0.4501 0.94185 0.4543 0.0
C34 C 0.47006 0.96767 0.43519 0.0
C35 C 0.4857 1.00182 0.44463 0.0
H36 H 0.53394 0.41471 0.62675 0.0
H37 H 0.50001 0.45654 0.69222 0.0
H38 H 0.5184 0.49788 0.60665 0.0
H39 H 0.47791 0.5097 0.6163 0.0
H40 H 0.45053 0.55622 0.68355 0.0
H41 H 0.50636 0.50566 0.70432 0.0
C42 C 0.52657 0.43304 0.63338 0.0
C43 C 0.52668 0.45578 0.61328 0.0
C44 C 0.51875 0.43431 0.66206 0.0
C45 C 0.5078 0.45724 0.67032 0.0
C46 C 0.50631 0.48003 0.65036 0.0
C47 C 0.51687 0.47946 0.62196 0.0
C48 C 0.49352 0.50393 0.65905 0.0
C49 C 0.47888 0.51633 0.63868 0.0
C50 C 0.4644 0.53648 0.64707 0.0
C51 C 0.46413 0.54349 0.67632 0.0
C52 C 0.47889 0.53213 0.69684 0.0
C53 C 0.49425 0.51324 0.68809 0.0
H54 H 0.15166 0.58207 0.77619 0.0
H55 H 0.0809 0.53697 0.84396 0.0
H56 H 0.04366 0.5285 0.75622 0.0
H57 H 0.99668 0.4856 0.76999 0.0
H58 H 0.92514 0.45513 0.83811 0.0
H59 H 0.03068 0.52816 0.856 0.0
C60 C 0.12515 0.56836 0.78309 0.0
C61 C 0.0982 0.55517 0.76281 0.0
C62 C 0.11873 0.56249 0.81219 0.0
C63 C 0.08474 0.54257 0.82142 0.0
C64 C 0.0565 0.52999 0.80165 0.0
C65 C 0.06401 0.53694 0.77221 0.0
C66 C 1.01972 0.5094 0.81161 0.0
C67 C 0.99227 0.48804 0.79234 0.0
C68 C 0.95827 0.46901 0.80188 0.0
C69 C 0.95144 0.46985 0.83078 0.0
C70 C 0.97764 0.49075 0.85015 0.0
C71 C 1.01141 0.51106 0.84061 0.0
H72 H 0.50714 0.91922 0.01039 0.0
H73 H 0.54301 0.98631 0.93893 0.0
H74 H 0.53751 0.02375 0.0235 0.0
H75 H 0.58349 0.07066 0.01023 0.0
H76 H 0.60694 0.1396 0.9412 0.0
H77 H 0.54312 0.0325 0.92476 0.0
C78 C 0.51673 0.94434 0.00145 0.0
C79 C 0.52247 0.97116 0.01974 0.0
C80 C 0.52219 0.94909 0.97201 0.0
C81 C 0.53703 0.9825 0.96141 0.0
C82 C 0.5438 1.01049 0.97983 0.0
C83 C 0.53488 1.00382 0.00895 0.0
C84 C 0.56022 0.04647 0.96915 0.0
C85 C 0.57972 0.07467 0.98801 0.0
C86 C 0.59555 0.10842 0.97828 0.0
C87 C 0.59265 0.11389 0.94926 0.0
C88 C 0.57445 0.08664 0.92995 0.0
C89 C 0.55772 0.05311 0.93998 0.0
H90 H 0.52626 0.62765 0.12405 0.0
H91 H 0.55805 0.58637 0.19121 0.0
H92 H 0.54635 0.54649 0.10437 0.0
H93 H 0.59038 0.53833 0.11736 0.0
H94 H 0.60579 0.48406 0.18538 0.0
H95 H 0.55263 0.53799 0.20242 0.0
C96 C 0.53404 0.6096 0.13072 0.0
C97 C 0.53492 0.58688 0.11069 0.0
C98 C 0.54029 0.60791 0.15972 0.0
C99 C 0.55194 0.58592 0.1687 0.0
C100 C 0.55596 0.56428 0.14875 0.0
C101 C 0.54632 0.5645 0.11973 0.0
C102 C 0.56906 0.54098 0.15834 0.0
C103 C 0.58614 0.5299 0.13929 0.0
C104 C 0.59936 0.50911 0.14885 0.0
C105 C 0.59552 0.4997 0.17768 0.0
C106 C 0.58026 0.51144 0.19717 0.0
C107 C 0.56595 0.53082 0.1872 0.0
Mn108 Mn 0.65435 0.40215 0.40831 0.0
Mn109 Mn 0.69056 0.4821 0.43723 0.0
C110 C 0.62401 0.41701 0.43989 0.0
C111 C 0.64 0.34455 0.408 0.0
C112 C 0.65904 0.46394 0.37753 0.0
O113 O 0.70604 0.42114 0.40037 0.0
O114 O 0.72534 0.47283 0.42085 0.0
C115 C 0.72989 0.47339 0.48456 0.0
N116 N 0.7069 0.48267 0.47528 0.0
C117 C 0.70799 0.50768 0.52118 0.0
C118 C 0.73188 0.49863 0.53122 0.0
C119 C 0.74249 0.48095 0.51294 0.0
C120 C 0.69523 0.49814 0.49309 0.0
H121 H 0.7388 0.46064 0.47031 0.0
C122 C 0.73049 0.45086 0.40795 0.0
O123 O 0.63964 0.35983 0.38478 0.0
O124 O 0.65118 0.36336 0.43116 0.0
N125 N 0.66087 0.49591 0.45443 0.0
C126 C 0.63836 0.50359 0.44127 0.0
C127 C 0.6239 0.51971 0.45705 0.0
C128 C 0.63403 0.52932 0.48578 0.0
C129 C 0.65845 0.52261 0.49848 0.0
C130 C 0.67089 0.50521 0.48205 0.0
H131 H 0.63135 0.49734 0.41892 0.0
O132 O 0.60798 0.39125 0.42233 0.0
O133 O 0.65744 0.43302 0.43942 0.0
O134 O 0.6513 0.43274 0.37761 0.0
O135 O 0.67406 0.48448 0.39858 0.0
C136 C 0.67185 0.53358 0.52647 0.0
C137 C 0.69672 0.52623 0.53778 0.0
H138 H 0.74226 0.50514 0.5529 0.0
H139 H 0.76086 0.47381 0.52053 0.0
H140 H 0.60551 0.52531 0.44692 0.0
H141 H 0.6234 0.54242 0.4977 0.0
H142 H 0.66308 0.5475 0.53955 0.0
H143 H 0.70653 0.53444 0.55944 0.0
Mn144 Mn 0.28419 0.65665 0.55326 0.0
Mn145 Mn 0.24103 0.57452 0.52895 0.0
C146 C 0.2409 0.63881 0.51801 0.0
C147 C 0.32771 0.7141 0.55057 0.0
C148 C 0.22689 0.59718 0.58593 0.0
O149 O 0.31702 0.63893 0.5655 0.0
O150 O 0.28558 0.58574 0.54677 0.0
C151 C 0.28857 0.58013 0.48302 0.0
N152 N 0.25617 0.57052 0.49179 0.0
C153 C 0.23201 0.54648 0.44528 0.0
C154 C 0.26504 0.55544 0.43594 0.0
C155 C 0.29347 0.57259 0.45482 0.0
C156 C 0.22872 0.55461 0.47364 0.0
H157 H 0.3105 0.59365 0.49738 0.0
C158 C 0.31257 0.6092 0.5596 0.0
O159 O 0.31211 0.70129 0.57433 0.0
O160 O 0.31995 0.69306 0.52901 0.0
N161 N 0.19736 0.55999 0.51062 0.0
C162 C 0.16798 0.55643 0.52209 0.0
C163 C 0.13744 0.54147 0.50549 0.0
C164 C 0.13736 0.53012 0.47737 0.0
C165 C 0.1679 0.53398 0.46606 0.0
C166 C 0.1975 0.54888 0.48368 0.0
H167 H 0.16783 0.56493 0.54374 0.0
O168 O 0.24883 0.66542 0.53397 0.0
O169 O 0.25778 0.62315 0.52343 0.0
O170 O 0.24964 0.62866 0.58433 0.0
O171 O 0.22244 0.57512 0.5667 0.0
C172 C 0.17033 0.52441 0.43776 0.0
C173 C 0.20239 0.53075 0.42735 0.0
H174 H 0.26895 0.54983 0.41416 0.0
H175 H 0.3191 0.58003 0.44764 0.0
H176 H 0.11399 0.53867 0.51436 0.0
H177 H 0.11381 0.51884 0.46455 0.0
H178 H 0.14789 0.5129 0.42361 0.0
H179 H 0.20411 0.52408 0.40533 0.0
Mn180 Mn 0.65005 0.27153 0.72599 0.0
Mn181 Mn 0.69629 0.23675 0.70118 0.0
C182 C 0.62482 0.22485 0.6953 0.0
C183 C 0.62935 0.30963 0.72447 0.0
C184 C 0.66187 0.21919 0.75811 0.0
O185 O 0.6993 0.30932 0.73439 0.0
O186 O 0.72634 0.2809 0.72161 0.0
C187 C 0.73539 0.28965 0.65837 0.0
N188 N 0.71453 0.25627 0.66494 0.0
C189 C 0.72022 0.23795 0.61783 0.0
C190 C 0.74179 0.27211 0.61055 0.0
C191 C 0.74911 0.29809 0.63082 0.0
C192 C 0.70636 0.23118 0.64528 0.0
H193 H 0.74179 0.30967 0.67406 0.0
C194 C 0.72638 0.30706 0.73219 0.0
O195 O 0.63143 0.29629 0.74832 0.0
O196 O 0.64051 0.30195 0.70166 0.0
N197 N 0.67229 0.19418 0.68062 0.0
C198 C 0.65115 0.16248 0.69103 0.0
C199 C 0.64036 0.13374 0.67307 0.0
C200 C 0.65269 0.13774 0.64505 0.0
C201 C 0.67544 0.17049 0.63516 0.0
C202 C 0.68421 0.19828 0.65365 0.0
H203 H 0.64241 0.15917 0.71282 0.0
O204 O 0.60621 0.23188 0.712 0.0
O205 O 0.658 0.246 0.69608 0.0
O206 O 0.65287 0.24184 0.75774 0.0
O207 O 0.67783 0.21455 0.73775 0.0
C208 C 0.6903 0.17662 0.60789 0.0
C209 C 0.71236 0.21034 0.59909 0.0
H210 H 0.75295 0.27868 0.5895 0.0
H211 H 0.76576 0.32452 0.62539 0.0
H212 H 0.6231 0.10852 0.68098 0.0
H213 H 0.64484 0.11546 0.63144 0.0
H214 H 0.68438 0.1556 0.59327 0.0
H215 H 0.72306 0.21475 0.57785 0.0
Mn216 Mn 0.41761 0.65516 0.90646 0.0
Mn217 Mn 0.36496 0.57422 0.928 0.0
C218 C 0.43725 0.63102 0.93964 0.0
C219 C 0.43836 0.71388 0.90892 0.0
C220 C 0.40532 0.59079 0.87353 0.0
O221 O 0.3705 0.64587 0.89248 0.0
O222 O 0.33857 0.59187 0.90689 0.0
C223 C 0.32525 0.59016 0.96936 0.0
N224 N 0.3448 0.57568 0.96339 0.0
C225 C 0.3336 0.54922 0.00941 0.0
C226 C 0.31331 0.56381 0.01608 0.0
C227 C 0.30943 0.58467 -0.00392 0.0
C228 C 0.34972 0.5566 0.98285 0.0
H229 H 0.32148 0.6055 0.95377 0.0
C230 C 0.34172 0.61842 0.89473 0.0
O231 O 0.4408 0.69918 0.88582 0.0
O232 O 0.42341 0.69443 0.93056 0.0
N233 N 0.3851 0.55229 0.94901 0.0
C234 C 0.40526 0.53988 0.93921 0.0
C235 C 0.41259 0.51941 0.957 0.0
C236 C 0.39777 0.51053 0.98414 0.0
C237 C 0.37602 0.52249 0.99333 0.0
C238 C 0.37078 0.54393 0.97514 0.0
H239 H 0.41589 0.54577 0.91804 0.0
O240 O 0.4586 0.65737 0.92524 0.0
O241 O 0.4045 0.62032 0.93565 0.0
O242 O 0.41827 0.62307 0.87543 0.0
O243 O 0.38506 0.57015 0.89202 0.0
C244 C 0.35876 0.51342 0.0196 0.0
C245 C 0.33793 0.52714 0.02781 0.0
H246 H 0.3005 0.55905 0.03644 0.0
H247 H 0.29377 0.59598 0.00104 0.0
H248 H 0.4291 0.50998 0.9496 0.0
H249 H 0.40294 0.49419 -0.00241 0.0
H250 H 0.3619 0.49646 0.03392 0.0
H251 H 0.32538 0.52054 0.04832 0.0
Mn252 Mn 0.78562 0.40953 0.06263 0.0
Mn253 Mn 0.83975 0.37927 0.07674 0.0
C254 C 0.83005 0.43641 0.0966 0.0
C255 C 0.73668 0.41426 0.07025 0.0
C256 C 0.84412 0.41889 0.02368 0.0
O257 O 0.75798 0.35977 0.04741 0.0
O258 O 0.79588 0.34296 0.05994 0.0
C259 C 0.80039 0.33019 0.12204 0.0
N260 N 0.83018 0.35726 0.11291 0.0
C261 C 0.85986 0.35941 0.15687 0.0
C262 C 0.82962 0.33123 0.16656 0.0
C263 C 0.79971 0.31669 0.14913 0.0
C264 C 0.85902 0.37167 0.12963 0.0
H265 H 0.77729 0.31908 0.10881 0.0
C266 C 0.76663 0.33683 0.04979 0.0
O267 O 0.75199 0.42145 0.04585 0.0
O268 O 0.74846 0.40231 0.08979 0.0
N269 N 0.88311 0.41186 0.0938 0.0
C270 C 0.90894 0.44097 0.08253 0.0
C271 C 0.94009 0.4598 0.09801 0.0
C272 C 0.94444 0.44838 0.12476 0.0
C273 C 0.91748 0.4184 0.13594 0.0
C274 C 0.88708 0.40061 0.11949 0.0
H275 H 0.9058 0.44975 0.0619 0.0
O276 O 0.81741 0.45334 0.08411 0.0
O277 O 0.817 0.40484 0.08847 0.0
O278 O 0.81929 0.42378 0.0296 0.0
O279 O 0.8531 0.40167 0.03932 0.0
C280 C 0.91927 0.40592 0.16305 0.0
C281 C 0.89047 0.37647 0.17353 0.0
H282 H 0.82893 0.32089 0.18752 0.0
H283 H 0.77618 0.29517 0.15658 0.0
H284 H 0.96071 0.48305 0.08934 0.0
H285 H 0.96846 0.46303 0.13669 0.0
H286 H 0.94242 0.41921 0.17629 0.0
H287 H 0.8919 0.36758 0.19468 0.0
Mn288 Mn 0.40761 0.78545 0.23143 0.0
Mn289 Mn 0.49364 0.82942 0.2452 0.0
C290 C 0.43182 0.83408 0.26026 0.0
C291 C 0.34997 0.74428 0.23852 0.0
C292 C 0.4616 0.83762 0.19132 0.0
O293 O 0.42184 0.75024 0.22116 0.0
O294 O 0.47911 0.78394 0.22786 0.0
C295 C 0.49568 0.78455 0.29001 0.0
N296 N 0.50299 0.81608 0.28138 0.0
C297 C 0.53713 0.84243 0.32402 0.0
C298 C 0.52997 0.81027 0.3334 0.0
C299 C 0.50885 0.78116 0.31644 0.0
C300 C 0.5223 0.84408 0.29797 0.0
H301 H 0.48023 0.76221 0.27673 0.0
C302 C 0.45263 0.75555 0.22048 0.0
O303 O 0.36122 0.75679 0.21359 0.0
O304 O 0.37255 0.75431 0.25946 0.0
N305 N 0.51252 0.87391 0.26227 0.0
C306 C 0.51702 0.9031 0.25017 0.0
C307 C 0.53632 0.93433 0.26499 0.0
C308 C 0.55204 0.93546 0.29149 0.0
C309 C 0.54807 0.90528 0.30303 0.0
C310 C 0.52747 0.87473 0.2878 0.0
H311 H 0.50586 0.90254 0.2294 0.0
O312 O 0.4026 0.82378 0.24692 0.0
O313 O 0.44619 0.81545 0.25696 0.0
O314 O 0.43126 0.81384 0.19648 0.0
O315 O 0.48729 0.84597 0.20808 0.0
C316 C 0.56436 0.9044 0.32873 0.0
C317 C 0.55874 0.87297 0.33932 0.0
H318 H 0.54061 0.80763 0.35352 0.0
H319 H 0.50324 0.75624 0.3235 0.0
H320 H 0.53958 0.95757 0.25577 0.0
H321 H 0.56745 0.9597 0.30261 0.0
H322 H 0.58082 0.92768 0.34079 0.0
H323 H 0.57092 0.87256 0.35937 0.0
H324 H 0.17254 0.68693 0.31565 0.0
H325 H 0.12112 0.61229 0.24715 0.0
H326 H 0.17618 0.63654 0.22137 0.0
H327 H 0.23974 0.75779 0.27319 0.0
H328 H 0.27168 0.76823 0.30119 0.0
H329 H 0.22704 0.75069 0.31011 0.0
H330 H 0.22953 0.70262 0.3377 0.0
H331 H 0.27378 0.71926 0.32816 0.0
H332 H 0.24223 0.67566 0.31923 0.0
H333 H 0.23895 0.66507 0.20604 0.0
H334 H 0.30247 0.69623 0.20171 0.0
H335 H 0.31294 0.74568 0.28408 0.0
C336 C 0.17255 0.67637 0.29474 0.0
C337 C 0.1424 0.6477 0.2834 0.0
C338 C 0.14362 0.63458 0.25607 0.0
C339 C 0.17495 0.64796 0.24146 0.0
C340 C 0.20477 0.6743 0.25457 0.0
C341 C 0.20367 0.68852 0.28054 0.0
C342 C 0.23953 0.71351 0.292 0.0
C343 C 0.24481 0.7497 0.29424 0.0
C344 C 0.24666 0.70206 0.32098 0.0
C345 C 0.26121 0.71083 0.26868 0.0
C346 C 0.24074 0.68859 0.24699 0.0
C347 C 0.2551 0.68247 0.22293 0.0
C348 C 0.29117 0.70005 0.22076 0.0
C349 C 0.31251 0.72274 0.24284 0.0
C350 C 0.29725 0.72782 0.26723 0.0
H351 H 0.57979 0.16743 0.48318 0.0
H352 H 0.50037 0.11861 0.41707 0.0
H353 H 0.52726 0.17289 0.39028 0.0
H354 H 0.57721 0.24254 0.48581 0.0
H355 H 0.62259 0.26963 0.49347 0.0
H356 H 0.60105 0.22582 0.50414 0.0
H357 H 0.64476 0.2159 0.47609 0.0
H358 H 0.66665 0.25978 0.4653 0.0
H359 H 0.65117 0.22606 0.43862 0.0
H360 H 0.56124 0.23511 0.37308 0.0
H361 H 0.59485 0.2978 0.36872 0.0
H362 H 0.64729 0.30568 0.44947 0.0
C363 C 0.56793 0.16784 0.46295 0.0
C364 C 0.53755 0.13864 0.45244 0.0
C365 C 0.52362 0.14043 0.42557 0.0
C366 C 0.53873 0.17125 0.41029 0.0
C367 C 0.56773 0.19995 0.42218 0.0
C368 C 0.58203 0.1983 0.44801 0.0
C369 C 0.61078 0.23302 0.45806 0.0
C370 C 0.60238 0.24335 0.48707 0.0
C371 C 0.64539 0.23372 0.4596 0.0
C372 C 0.61021 0.25502 0.43414 0.0
C373 C 0.58582 0.23547 0.41325 0.0
C374 C 0.58041 0.25046 0.38929 0.0
C375 C 0.59978 0.28617 0.38695 0.0
C376 C 0.62383 0.30675 0.40873 0.0
C377 C 0.62928 0.29072 0.43241 0.0
H378 H 0.45765 0.59427 0.64989 0.0
H379 H 0.42917 0.50399 0.59705 0.0
H380 H 0.39485 0.51914 0.5658 0.0
H381 H 0.37459 0.58247 0.65039 0.0
H382 H 0.38752 0.62708 0.65006 0.0
H383 H 0.41593 0.61384 0.66526 0.0
H384 H 0.46415 0.65383 0.63123 0.0
H385 H 0.43588 0.66731 0.61592 0.0
H386 H 0.4558 0.65005 0.59311 0.0
H387 H 0.35864 0.53894 0.54363 0.0
H388 H 0.31992 0.56037 0.53229 0.0
H389 H 0.36599 0.63607 0.6012 0.0
C390 C 0.44444 0.57763 0.63169 0.0
C391 C 0.44671 0.54786 0.62611 0.0
C392 C 0.42909 0.52738 0.60168 0.0
C393 C 0.40914 0.53566 0.58379 0.0
C394 C 0.40662 0.56433 0.59059 0.0
C395 C 0.4236 0.585 0.61399 0.0
C396 C 0.41317 0.61197 0.61829 0.0
C397 C 0.39683 0.60862 0.64774 0.0
C398 C 0.4441 0.64793 0.6144 0.0
C399 C 0.38675 0.60244 0.59411 0.0
C400 C 0.38418 0.5753 0.5782 0.0
C401 C 0.36065 0.56039 0.55571 0.0
C402 C 0.33859 0.57289 0.54954 0.0
C403 C 0.33967 0.60013 0.56581 0.0
C404 C 0.36471 0.61559 0.58813 0.0
H405 H 0.91919 0.40013 0.79421 0.0
H406 H 0.92867 0.4958 0.76807 0.0
H407 H 0.86997 0.4647 0.74632 0.0
H408 H 0.86738 0.34901 0.72968 0.0
H409 H 0.84238 0.3118 0.75091 0.0
H410 H 0.88647 0.34161 0.761 0.0
H411 H 0.86647 0.34788 0.81137 0.0
H412 H 0.82226 0.31889 0.80125 0.0
H413 H 0.8348 0.36109 0.81455 0.0
H414 H 0.807 0.42364 0.73451 0.0
H415 H 0.74813 0.37481 0.72553 0.0
H416 H 0.78118 0.30573 0.75676 0.0
C417 C 0.90937 0.41426 0.78274 0.0
C418 C 0.92851 0.45018 0.78209 0.0
C419 C 0.91459 0.46818 0.76798 0.0
C420 C 0.88119 0.45075 0.75589 0.0
C421 C 0.86234 0.41532 0.75784 0.0
C422 C 0.87631 0.39719 0.77019 0.0
C423 C 0.8503 0.35939 0.77044 0.0
C424 C 0.86235 0.33927 0.7519 0.0
C425 C 0.84304 0.34605 0.80123 0.0
C426 C 0.81927 0.35917 0.75703 0.0
C427 C 0.82657 0.39168 0.75015 0.0
C428 C 0.8012 0.39799 0.73927 0.0
C429 C 0.76778 0.37022 0.73455 0.0
C430 C 0.76025 0.3366 0.74035 0.0
C431 C 0.78636 0.33118 0.75187 0.0
H432 H 0.46434 0.88668 0.97661 0.0
H433 H 0.55583 0.9413 0.92555 0.0
H434 H 0.54096 0.88724 0.9 0.0
H435 H 0.47573 0.81769 0.98937 0.0
H436 H 0.43044 0.78645 0.98912 0.0
H437 H 0.44466 0.82997 -0.00079 0.0
H438 H 0.40483 0.83278 0.95995 0.0
H439 H 0.39024 0.7891 0.94982 0.0
H440 H 0.40828 0.82194 0.92336 0.0
H441 H 0.5178 0.82537 0.88297 0.0
H442 H 0.49085 0.76265 0.8777 0.0
H443 H 0.41897 0.74943 0.94437 0.0
C444 C 0.48128 0.88754 0.95991 0.0
C445 C 0.51149 0.91836 0.95328 0.0
C446 C 0.53241 0.91818 0.93087 0.0
C447 C 0.52421 0.88752 0.91636 0.0
C448 C 0.49509 0.85735 0.92456 0.0
C449 C 0.47402 0.85729 0.94589 0.0
C450 C 0.44633 0.82146 0.95305 0.0
C451 C 0.44951 0.81344 0.98454 0.0
C452 C 0.41029 0.81601 0.94612 0.0
C453 C 0.45539 0.80104 0.93283 0.0
C454 C 0.48307 0.8221 0.91608 0.0
C455 C 0.49608 0.80877 0.89594 0.0
C456 C 0.48061 0.77313 0.8931 0.0
C457 C 0.45297 0.75126 0.91075 0.0
C458 C 0.44018 0.76553 0.93071 0.0
H459 H 0.65621 0.50379 0.1627 0.0
H460 H 0.58574 0.48784 0.09191 0.0
H461 H 0.61316 0.46174 0.06332 0.0
H462 H 0.73044 0.51939 0.12257 0.0
H463 H 0.74196 0.49592 0.14691 0.0
H464 H 0.71943 0.5168 0.15982 0.0
H465 H 0.67174 0.4594 0.17964 0.0
H466 H 0.69389 0.43823 0.16648 0.0
H467 H 0.6497 0.42292 0.15581 0.0
H468 H 0.64892 0.43621 0.04302 0.0
H469 H 0.68811 0.41351 0.03353 0.0
H470 H 0.7281 0.43945 0.12065 0.0
C471 C 0.64615 0.49468 0.14125 0.0
C472 C 0.61833 0.49756 0.12978 0.0
C473 C 0.60711 0.48623 0.1012 0.0
C474 C 0.62236 0.47108 0.08489 0.0
C475 C 0.64856 0.46716 0.09757 0.0
C476 C 0.66021 0.47867 0.12518 0.0
C477 C 0.68716 0.46991 0.13481 0.0
C478 C 0.7218 0.50244 0.1414 0.0
C479 C 0.67487 0.44621 0.16071 0.0
C480 C 0.68904 0.45154 0.10831 0.0
C481 C 0.66702 0.4506 0.08683 0.0
C482 C 0.66587 0.43648 0.05985 0.0
C483 C 0.68808 0.42353 0.05467 0.0
C484 C 0.71046 0.42401 0.07657 0.0
C485 C 0.71051 0.43782 0.10378 0.0
H486 H 0.38708 0.88779 0.4697 0.0
H487 H 0.46067 0.94171 0.53889 0.0
H488 H 0.43654 0.88783 0.56582 0.0
H489 H 0.31576 0.82305 0.51102 0.0
H490 H 0.30614 0.79038 0.48427 0.0
H491 H 0.32435 0.83417 0.47386 0.0
H492 H 0.37414 0.83091 0.44924 0.0
H493 H 0.3565 0.78737 0.46 0.0
H494 H 0.40027 0.81857 0.46981 0.0
H495 H 0.4057 0.8253 0.58353 0.0
H496 H 0.37335 0.76238 0.58924 0.0
H497 H 0.32827 0.75032 0.50435 0.0
C498 C 0.39803 0.8886 0.49069 0.0
C499 C 0.42609 0.91923 0.502 0.0
C500 C 0.43895 0.91886 0.52981 0.0
C501 C 0.42558 0.8882 0.54514 0.0
C502 C 0.39959 0.85805 0.53228 0.0
C503 C 0.38603 0.85823 0.5056 0.0
C504 C 0.36112 0.82242 0.49472 0.0
C505 C 0.32469 0.81721 0.49075 0.0
C506 C 0.37378 0.81436 0.4668 0.0
C507 C 0.36279 0.80176 0.51929 0.0
C508 C 0.38447 0.82261 0.54112 0.0
C509 C 0.38894 0.80889 0.56641 0.0
C510 C 0.37062 0.77316 0.56945 0.0
C511 C 0.349 0.75152 0.54698 0.0
C512 C 0.34534 0.76619 0.52159 0.0
H513 H 0.50633 0.36885 0.65505 0.0
H514 H 0.54984 0.45415 0.71547 0.0
H515 H 0.57785 0.42737 0.74216 0.0
H516 H 0.50063 0.3004 0.70235 0.0
H517 H 0.5153 0.28361 0.67415 0.0
H518 H 0.4906 0.30387 0.66546 0.0
H519 H 0.53924 0.34502 0.63218 0.0
H520 H 0.56449 0.32558 0.64122 0.0
H521 H 0.58233 0.37082 0.64664 0.0
H522 H 0.60772 0.39452 0.75833 0.0
H523 H 0.63708 0.36044 0.76136 0.0
H524 H 0.5822 0.30401 0.68459 0.0
C525 C 0.52102 0.3816 0.67433 0.0
C526 C 0.52599 0.4138 0.683 0.0
C527 C 0.54513 0.42927 0.70855 0.0
C528 C 0.56146 0.41436 0.7237 0.0
C529 C 0.55861 0.38417 0.71288 0.0
C530 C 0.53872 0.36799 0.68873 0.0
C531 C 0.54415 0.33928 0.67839 0.0
C532 C 0.51068 0.30474 0.68021 0.0
C533 C 0.5584 0.34558 0.64782 0.0
C534 C 0.57078 0.34216 0.7001 0.0
C535 C 0.57812 0.36749 0.72036 0.0
C536 C 0.60205 0.37464 0.74257 0.0
C537 C 0.61871 0.35534 0.74408 0.0
C538 C 0.61222 0.33015 0.72293 0.0
C539 C 0.58799 0.32357 0.70074 0.0
H540 H 0.14593 0.52823 0.83968 0.0
H541 H 0.16064 0.62904 0.82632 0.0
H542 H 0.21878 0.65486 0.84878 0.0
H543 H 0.19671 0.54835 0.90899 0.0
H544 H 0.21395 0.52134 0.8992 0.0
H545 H 0.17165 0.51108 0.88654 0.0
H546 H 0.19031 0.51025 0.83438 0.0
H547 H 0.23283 0.52125 0.84676 0.0
H548 H 0.22741 0.54747 0.82081 0.0
H549 H 0.278 0.66961 0.86609 0.0
H550 H 0.33219 0.67221 0.88165 0.0
H551 H 0.27882 0.56161 0.88382 0.0
C552 C 0.16088 0.55564 0.84278 0.0
C553 C 0.14872 0.57677 0.83209 0.0
C554 C 0.16942 0.6126 0.83512 0.0
C555 C 0.20248 0.62742 0.84764 0.0
C556 C 0.2144 0.60599 0.85698 0.0
C557 C 0.19405 0.57084 0.85515 0.0
C558 C 0.21401 0.55368 0.86464 0.0
C559 C 0.19814 0.53236 0.89144 0.0
C560 C 0.21626 0.53189 0.84019 0.0
C561 C 0.24887 0.58461 0.87144 0.0
C562 C 0.2486 0.61454 0.86692 0.0
C563 C 0.27839 0.64633 0.87018 0.0
C564 C 0.30912 0.64755 0.87878 0.0
C565 C 0.3098 0.61716 0.88409 0.0
C566 C 0.27916 0.58536 0.88026 0.0
H567 H 0.60205 0.17232 0.9795 0.0
H568 H 0.64256 0.1126 0.01848 0.0
H569 H 0.68744 0.16421 0.04342 0.0
H570 H 0.68144 0.24259 0.96436 0.0
H571 H 0.66982 0.2746 0.97189 0.0
H572 H 0.63723 0.2324 0.96046 0.0
H573 H 0.60213 0.22661 0.00578 0.0
H574 H 0.6344 0.26903 0.01721 0.0
H575 H 0.62249 0.2336 0.04066 0.0
H576 H 0.73205 0.22189 0.05826 0.0
H577 H 0.77209 0.28244 0.06657 0.0
H578 H 0.70428 0.30759 0.01849 0.0
C579 C 0.61996 0.16998 0.99375 0.0
C580 C 0.61856 0.1382 -0.00287 0.0
C581 C 0.64252 0.1363 0.01594 0.0
C582 C 0.66834 0.16561 0.03002 0.0
C583 C 0.66979 0.19663 0.02524 0.0
C584 C 0.64604 0.19907 0.00791 0.0
C585 C 0.65499 0.23604 0.00502 0.0
C586 C 0.66124 0.24704 0.97357 0.0
C587 C 0.62682 0.24165 0.01794 0.0
C588 C 0.68812 0.25407 0.0228 0.0
C589 C 0.69587 0.23059 0.03424 0.0
C590 C 0.72597 0.24049 0.04989 0.0
C591 C 0.74873 0.27525 0.05431 0.0
C592 C 0.74147 0.30024 0.04336 0.0
C593 C 0.71051 0.28932 0.02741 0.0
H594 H 0.5649 0.67637 0.16426 0.0
H595 H 0.48803 0.57919 0.1974 0.0
H596 H 0.45641 0.60628 0.21734 0.0
H597 H 0.56181 0.73077 0.22449 0.0
H598 H 0.56809 0.7638 0.19997 0.0
H599 H 0.58678 0.73743 0.19276 0.0
H600 H 0.55611 0.72175 0.14297 0.0
H601 H 0.53626 0.74696 0.15036 0.0
H602 H 0.50989 0.70245 0.14074 0.0
H603 H 0.42831 0.64256 0.22627 0.0
H604 H 0.41216 0.6873 0.23178 0.0
H605 H 0.50854 0.76059 0.19374 0.0
C606 C 0.54236 0.66126 0.17699 0.0
C607 C 0.52923 0.62589 0.17987 0.0
C608 C 0.49897 0.60651 0.19571 0.0
C609 C 0.4806 0.62161 0.20672 0.0
C610 C 0.49316 0.6562 0.20201 0.0
C611 C 0.52395 0.67599 0.18828 0.0
C612 C 0.5311 0.71211 0.18466 0.0
C613 C 0.56388 0.73753 0.20148 0.0
C614 C 0.53347 0.72133 0.1528 0.0
C615 C 0.49919 0.70943 0.19783 0.0
C616 C 0.4774 0.67697 0.20755 0.0
C617 C 0.4455 0.6682 0.21918 0.0
C618 C 0.4363 0.6936 0.22187 0.0
C619 C 0.45908 0.72736 0.2132 0.0
C620 C 0.49065 0.73503 0.2007 0.0
H621 H 0.89142 0.48155 0.31525 0.0
H622 H 0.95187 0.57281 0.36794 0.0
H623 H 0.903 0.5535 0.4006 0.0
H624 H 0.81595 0.48612 0.31724 0.0
H625 H 0.78712 0.44064 0.31706 0.0
H626 H 0.82867 0.45798 0.30094 0.0
H627 H 0.84296 0.42036 0.33323 0.0
H628 H 0.80142 0.40296 0.34958 0.0
H629 H 0.8401 0.42277 0.37158 0.0
H630 H 0.84669 0.52744 0.42489 0.0
H631 H 0.7859 0.50024 0.43727 0.0
H632 H 0.75893 0.42858 0.36586 0.0
C633 C 0.89467 0.49782 0.33353 0.0
C634 C 0.92586 0.52911 0.33869 0.0
C635 C 0.92874 0.54864 0.36351 0.0
C636 C 0.90098 0.53788 0.38219 0.0
C637 C 0.8704 0.50762 0.37573 0.0
C638 C 0.86698 0.48799 0.35188 0.0
C639 C 0.83019 0.45868 0.34793 0.0
C640 C 0.81457 0.46101 0.31909 0.0
C641 C 0.82859 0.42414 0.35076 0.0
C642 C 0.81306 0.46543 0.37295 0.0
C643 C 0.83709 0.4933 0.38903 0.0
C644 C 0.82773 0.50558 0.41253 0.0
C645 C 0.7929 0.48983 0.41929 0.0
C646 C 0.76729 0.46223 0.40242 0.0
C647 C 0.77774 0.44929 0.37935 0.0
H648 H 0.09146 0.61142 0.40555 0.0
H649 H 0.13658 0.56808 0.34947 0.0
H650 H 0.17909 0.57662 0.38712 0.0
H651 H 0.16511 0.67352 0.43878 0.0
H652 H 0.14972 0.66857 0.47489 0.0
H653 H 0.11986 0.65647 0.44502 0.0
H654 H 0.08408 0.59664 0.46515 0.0
H655 H 0.11351 0.60686 0.49518 0.0
H656 H 0.10353 0.57098 0.4719 0.0
H657 H 0.22605 0.60725 0.42249 0.0
H658 H 0.26075 0.6282 0.467 0.0
H659 H 0.18008 0.63952 0.50668 0.0
C660 C 0.10907 0.60202 0.40192 0.0
C661 C 0.11116 0.58942 0.37463 0.0
C662 C 0.13476 0.57776 0.3703 0.0
C663 C 0.15929 0.583 0.39134 0.0
C664 C 0.15867 0.59834 0.41703 0.0
C665 C 0.13298 0.60557 0.42337 0.0
C666 C 0.13831 0.62073 0.45351 0.0
C667 C 0.14355 0.65697 0.45299 0.0
C668 C 0.1081 0.59742 0.4726 0.0
C669 C 0.17141 0.62149 0.46251 0.0
C670 C 0.18335 0.61015 0.44029 0.0
C671 C 0.21598 0.61382 0.4409 0.0
C672 C 0.23544 0.62572 0.46621 0.0
C673 C 0.22166 0.63247 0.49079 0.0
C674 C 0.19012 0.63238 0.48858 0.0
H675 H 0.57059 0.1518 0.53796 0.0
H676 H 0.4903 0.05642 0.5722 0.0
H677 H 0.51195 0.079 0.62138 0.0
H678 H 0.63449 0.17014 0.58229 0.0
H679 H 0.65117 0.21528 0.589 0.0
H680 H 0.6296 0.19564 0.55559 0.0
H681 H 0.58283 0.21099 0.55995 0.0
H682 H 0.6054 0.23609 0.59132 0.0
H683 H 0.56039 0.20436 0.59312 0.0
H684 H 0.54065 0.11505 0.667 0.0
H685 H 0.57435 0.1595 0.7041 0.0
H686 H 0.63442 0.22988 0.63802 0.0
C687 C 0.55659 0.13558 0.55555 0.0
C688 C 0.52815 0.10238 0.55095 0.0
C689 C 0.51217 0.08189 0.575 0.0
C690 C 0.52413 0.09462 0.60301 0.0
C691 C 0.55167 0.12795 0.60646 0.0
C692 C 0.56715 0.14817 0.58323 0.0
C693 C 0.59528 0.1835 0.59201 0.0
C694 C 0.62978 0.19168 0.57903 0.0
C695 C 0.58537 0.2103 0.58361 0.0
C696 C 0.595 0.17964 0.62408 0.0
C697 C 0.569 0.14778 0.63216 0.0
C698 C 0.56142 0.13975 0.66088 0.0
C699 C 0.58061 0.16503 0.68174 0.0
C700 C 0.60761 0.19742 0.67372 0.0
C701 C 0.6149 0.20473 0.6446 0.0
H702 H 0.4886 0.5903 0.72385 0.0
H703 H 0.45699 0.48429 0.73855 0.0
H704 H 0.43798 0.48897 0.78693 0.0
H705 H 0.51647 0.62159 0.79921 0.0
H706 H 0.50003 0.65057 0.79685 0.0
H707 H 0.5161 0.64024 0.76537 0.0
H708 H 0.45792 0.62126 0.73903 0.0
H709 H 0.4414 0.63085 0.77052 0.0
H710 H 0.41855 0.58876 0.75442 0.0
H711 H 0.41443 0.50248 0.83005 0.0
H712 H 0.39389 0.52567 0.86789 0.0
H713 H 0.44112 0.62335 0.82541 0.0
C714 C 0.47852 0.56836 0.73758 0.0
C715 C 0.47438 0.53697 0.72757 0.0
C716 C 0.46091 0.50872 0.746 0.0
C717 C 0.4498 0.51107 0.77341 0.0
C718 C 0.45272 0.54194 0.78208 0.0
C719 C 0.46735 0.57029 0.76496 0.0
C720 C 0.4654 0.59974 0.77856 0.0
C721 C 0.50166 0.62981 0.78541 0.0
C722 C 0.44457 0.61078 0.7595 0.0
C723 C 0.44642 0.58317 0.80561 0.0
C724 C 0.43944 0.54988 0.80724 0.0
C725 C 0.42033 0.52873 0.82933 0.0
C726 C 0.40857 0.54214 0.85064 0.0
C727 C 0.41609 0.57649 0.84982 0.0
C728 C 0.43521 0.59713 0.82686 0.0
H729 H 0.96299 0.44286 0.89036 0.0
H730 H 0.96708 0.5389 0.8753 0.0
H731 H 0.93537 0.53241 0.92006 0.0
H732 H 0.88047 0.39932 0.9138 0.0
H733 H 0.88712 0.37534 0.94122 0.0
H734 H 0.9149 0.38988 0.91085 0.0
H735 H 0.96863 0.42135 0.94434 0.0
H736 H 0.94112 0.40617 0.97494 0.0
H737 H 0.97034 0.45119 0.97105 0.0
H738 H 0.89499 0.51046 0.96143 0.0
H739 H 0.85617 0.47909 0.00095 0.0
H740 H 0.88059 0.39832 0.99041 0.0
C741 C 0.95854 0.46318 0.89732 0.0
C742 C 0.96804 0.49178 0.88003 0.0
C743 C 0.96073 0.51735 0.88887 0.0
C744 C 0.9425 0.51367 0.91406 0.0
C745 C 0.93222 0.48444 0.93015 0.0
C746 C 0.94072 0.46004 0.92253 0.0
C747 C 0.92482 0.43004 0.9425 0.0
C748 C 0.90039 0.39669 0.9261 0.0
C749 C 0.95291 0.42703 0.95921 0.0
C750 C 0.90513 0.44084 0.96198 0.0
C751 C 0.9096 0.47221 0.95443 0.0
C752 C 0.89188 0.48623 0.96793 0.0
C753 C 0.86961 0.46805 0.99012 0.0
C754 C 0.86549 0.43635 -0.00124 0.0
C755 C 0.88354 0.42268 0.98445 0.0
H756 H 0.55713 0.95677 0.05989 0.0
H757 H 0.4656 0.96418 0.04553 0.0
H758 H 0.44128 0.93348 0.09052 0.0
H759 H 0.51756 0.87581 0.08245 0.0
H760 H 0.54833 0.88057 0.10991 0.0
H761 H 0.56199 0.909 0.08014 0.0
H762 H 0.58574 0.96143 0.11452 0.0
H763 H 0.57319 0.93327 0.14458 0.0
H764 H 0.55817 0.96331 0.14138 0.0
H765 H 0.42263 0.89253 0.13062 0.0
H766 H 0.41428 0.85205 0.16883 0.0
H767 H 0.51923 0.87318 0.15884 0.0
C768 C 0.53279 0.95342 0.06715 0.0
C769 C 0.5134 0.96334 0.04992 0.0
C770 C 0.48102 0.95748 0.05908 0.0
C771 C 0.46699 0.93984 0.08439 0.0
C772 C 0.486 0.92879 0.10026 0.0
C773 C 0.51865 0.93619 0.09249 0.0
C774 C 0.53252 0.91914 0.11202 0.0
C775 C 0.54055 0.89469 0.09511 0.0
C776 C 0.56428 0.94588 0.12915 0.0
C777 C 0.50201 0.89982 0.13122 0.0
C778 C 0.47545 0.90569 0.12401 0.0
C779 C 0.44352 0.88837 0.13695 0.0
C780 C 0.4389 0.86509 0.15833 0.0
C781 C 0.46615 0.85954 0.16673 0.0
C782 C 0.4981 0.87719 0.15298 0.0
H783 H 0.57255 0.45456 0.22474 0.0
H784 H 0.59871 0.55962 0.23967 0.0
H785 H 0.61852 0.55755 0.28866 0.0
H786 H 0.54726 0.4245 0.29948 0.0
H787 H 0.56655 0.39793 0.29751 0.0
H788 H 0.54864 0.40576 0.26565 0.0
H789 H 0.60713 0.42772 0.24068 0.0
H790 H 0.62549 0.42074 0.27259 0.0
H791 H 0.64559 0.46239 0.25692 0.0
H792 H 0.64354 0.54721 0.33282 0.0
H793 H 0.66623 0.52729 0.37166 0.0
H794 H 0.62546 0.4292 0.32773 0.0
C795 C 0.58164 0.47687 0.23856 0.0
C796 C 0.58398 0.50725 0.22833 0.0
C797 C 0.59604 0.53586 0.24711 0.0
C798 C 0.60769 0.53504 0.27492 0.0
C799 C 0.60692 0.50536 0.28368 0.0
C800 C 0.59365 0.47657 0.26627 0.0
C801 C 0.5982 0.44886 0.27999 0.0
C802 C 0.56307 0.4174 0.28602 0.0
C803 C 0.62042 0.43939 0.26144 0.0
C804 C 0.61696 0.46693 0.3075 0.0
C805 C 0.62157 0.49942 0.30923 0.0
C806 C 0.63959 0.52161 0.33195 0.0
C807 C 0.65262 0.51007 0.35383 0.0
C808 C 0.64761 0.47655 0.35292 0.0
C809 C 0.62968 0.45488 0.32923 0.0
H810 H 0.47436 0.91203 0.41729 0.0
H811 H 0.47197 1.00041 0.38492 0.0
H812 H 0.46793 0.97849 0.33542 0.0
H813 H 0.51711 0.89723 0.36581 0.0
H814 H 0.48996 0.85144 0.36114 0.0
H815 H 0.493 0.87175 0.39521 0.0
H816 H 0.42941 0.85121 0.39854 0.0
H817 H 0.42264 0.8258 0.36665 0.0
H818 H 0.40623 0.85485 0.36827 0.0
H819 H 0.4552 0.94215 0.2901 0.0
H820 H 0.43932 0.89694 0.25294 0.0
H821 H 0.44874 0.83245 0.31594 0.0
C822 C 0.47287 0.92697 0.39998 0.0
C823 C 0.4732 0.95793 0.40524 0.0
C824 C 0.47224 0.97687 0.38159 0.0
C825 C 0.46953 0.9644 0.35339 0.0
C826 C 0.46731 0.93279 0.34929 0.0
C827 C 0.46858 0.91428 0.37208 0.0
C828 C 0.4622 0.87958 0.3627 0.0
C829 C 0.4924 0.87465 0.37164 0.0
C830 C 0.42811 0.8512 0.37475 0.0
C831 C 0.45928 0.88207 0.33063 0.0
C832 C 0.46126 0.91256 0.32333 0.0
C833 C 0.45452 0.91864 0.29543 0.0
C834 C 0.44543 0.89289 0.27454 0.0
C835 C 0.44419 0.86201 0.28156 0.0
C836 C 0.45119 0.85658 0.30989 0.0
H837 H 0.57679 0.44143 0.59714 0.0
H838 H 0.50267 0.46704 0.56177 0.0
H839 H 0.5191 0.45959 0.51286 0.0
H840 H 0.63792 0.4756 0.5555 0.0
H841 H 0.64984 0.44411 0.54593 0.0
H842 H 0.63057 0.44267 0.57984 0.0
H843 H 0.57742 0.38561 0.57487 0.0
H844 H 0.59676 0.37898 0.54366 0.0
H845 H 0.55365 0.37229 0.54138 0.0
H846 H 0.54079 0.44397 0.46766 0.0
H847 H 0.57187 0.43047 0.43078 0.0
H848 H 0.63154 0.41672 0.49742 0.0
C849 C 0.56306 0.44467 0.57935 0.0
C850 C 0.5379 0.45434 0.58358 0.0
C851 C 0.52219 0.45988 0.55927 0.0
C852 C 0.53095 0.45517 0.5314 0.0
C853 C 0.55479 0.44414 0.52832 0.0
C854 C 0.57014 0.43851 0.55178 0.0
C855 C 0.59445 0.42614 0.54322 0.0
C856 C 0.63043 0.44845 0.55678 0.0
C857 C 0.57968 0.38853 0.55125 0.0
C858 C 0.59359 0.42951 0.51111 0.0
C859 C 0.56901 0.43785 0.50277 0.0
C860 C 0.56056 0.43816 0.47397 0.0
C861 C 0.57818 0.43042 0.45324 0.0
C862 C 0.60492 0.42416 0.46151 0.0
C863 C 0.61227 0.4231 0.49073 0.0
H864 H 0.14809 0.61086 0.7348 0.0
H865 H 0.06904 0.50496 0.72153 0.0
H866 H 0.09157 0.50548 0.67346 0.0
H867 H 0.15267 0.6378 0.65895 0.0
H868 H 0.19875 0.66521 0.66149 0.0
H869 H 0.17287 0.65805 0.69269 0.0
H870 H 0.21006 0.63816 0.72014 0.0
H871 H 0.23561 0.64456 0.68893 0.0
H872 H 0.21435 0.60349 0.70562 0.0
H873 H 0.12746 0.51485 0.63033 0.0
H874 H 0.17039 0.53392 0.59244 0.0
H875 H 0.22729 0.63387 0.63382 0.0
C876 C 0.135 0.58801 0.7215 0.0
C877 C 0.10671 0.55786 0.73192 0.0
C878 C 0.09033 0.5285 0.71386 0.0
C879 C 0.10316 0.52847 0.68662 0.0
C880 C 0.1322 0.55808 0.67768 0.0
C881 C 0.14758 0.58751 0.69435 0.0
C882 C 0.17989 0.61515 0.68061 0.0
C883 C 0.17579 0.64587 0.67298 0.0
C884 C 0.21185 0.62596 0.69998 0.0
C885 C 0.18083 0.59634 0.65395 0.0
C886 C 0.15299 0.56352 0.65267 0.0
C887 C 0.14906 0.54066 0.63087 0.0
C888 C 0.17385 0.55176 0.60951 0.0
C889 C 0.20238 0.58554 0.60998 0.0
C890 C 0.20581 0.60799 0.63267 0.0
H891 H 0.56631 0.13527 0.90274 0.0
H892 H 0.59279 0.05657 0.88825 0.0
H893 H 0.61517 0.08028 0.84076 0.0
H894 H 0.54547 0.144 0.82579 0.0
H895 H 0.5646 0.18951 0.83033 0.0
H896 H 0.54411 0.16191 0.86006 0.0
H897 H 0.60038 0.1963 0.89022 0.0
H898 H 0.62145 0.2233 0.86042 0.0
H899 H 0.63995 0.20037 0.87727 0.0
H900 H 0.6441 0.11842 0.79957 0.0
H901 H 0.66998 0.1634 0.76368 0.0
H902 H 0.62557 0.21816 0.80558 0.0
C903 C 0.57557 0.12227 0.88904 0.0
C904 C 0.57769 0.09402 0.89899 0.0
C905 C 0.59038 0.07786 0.88077 0.0
C906 C 0.60347 0.09137 0.8539 0.0
C907 C 0.60325 0.12074 0.84561 0.0
C908 C 0.58889 0.13554 0.86233 0.0
C909 C 0.59462 0.16864 0.84979 0.0
C910 C 0.56015 0.16584 0.84096 0.0
C911 C 0.61533 0.19892 0.87067 0.0
C912 C 0.6155 0.17076 0.82392 0.0
C913 C 0.62007 0.14284 0.82183 0.0
C914 C 0.6401 0.14005 0.80063 0.0
C915 C 0.65497 0.16598 0.78049 0.0
C916 C 0.64974 0.19438 0.78164 0.0
C917 C 0.63002 0.19681 0.80394 0.0
H918 H 0.48073 0.5954 0.09532 0.0
H919 H 0.55808 0.57602 0.05885 0.0
H920 H 0.53772 0.58008 0.01015 0.0
H921 H 0.41616 0.55523 0.04812 0.0
H922 H 0.40279 0.58669 0.04367 0.0
H923 H 0.42218 0.58426 0.07688 0.0
H924 H 0.47204 0.64485 0.07651 0.0
H925 H 0.4521 0.6518 0.0456 0.0
H926 H 0.49631 0.66165 0.04439 0.0
H927 H 0.51279 0.59324 0.96574 0.0
H928 H 0.48396 0.61101 0.92983 0.0
H929 H 0.42415 0.62229 -0.00336 0.0
C930 C 0.494 0.59244 0.07728 0.0
C931 C 0.5215 0.58588 0.0811 0.0
C932 C 0.53686 0.58085 0.05659 0.0
C933 C 0.52566 0.58344 0.02887 0.0
C934 C 0.49942 0.59143 0.02616 0.0
C935 C 0.48423 0.59626 0.04985 0.0
C936 C 0.45832 0.60693 0.04182 0.0
C937 C 0.42263 0.58175 0.05321 0.0
C938 C 0.47043 0.64347 0.05272 0.0
C939 C 0.45965 0.60559 0.00955 0.0
C940 C 0.48418 0.59748 0.00089 0.0
C941 C 0.49301 0.5988 0.97224 0.0
C942 C 0.47661 0.60893 0.95206 0.0
C943 C 0.45101 0.61661 0.96052 0.0
C944 C 0.44244 0.61489 0.98958 0.0
H945 H 0.97155 0.56188 0.21341 0.0
H946 H 0.93862 0.47066 0.26317 0.0
H947 H 0.8988 0.43583 0.22416 0.0
H948 H 0.89338 0.5412 0.18233 0.0
H949 H 0.90787 0.55617 0.14675 0.0
H950 H 0.93703 0.57484 0.17699 0.0
H951 H 0.98008 0.56118 0.15326 0.0
H952 H 0.95154 0.54167 0.12271 0.0
H953 H 0.96702 0.51805 0.14274 0.0
H954 H 0.85184 0.41531 0.18868 0.0
H955 H 0.81609 0.4008 0.1448 0.0
H956 H 0.88518 0.50071 0.11106 0.0
C957 C 0.95718 0.53442 0.21533 0.0
C958 C 0.95787 0.51877 0.2412 0.0
C959 C 0.93835 0.48288 0.2434 0.0
C960 C 0.9154 0.463 0.22157 0.0
C961 C 0.91327 0.47931 0.19727 0.0
C962 C 0.93485 0.51375 0.19305 0.0
C963 C 0.92706 0.52397 0.16416 0.0
C964 C 0.91566 0.55063 0.1678 0.0
C965 C 0.95825 0.53696 0.14453 0.0
C966 C 0.89725 0.49 0.15347 0.0
C967 C 0.88901 0.46524 0.17376 0.0
C968 C 0.8593 0.43354 0.17163 0.0
C969 C 0.83923 0.42555 0.14667 0.0
C970 C 0.84967 0.44856 0.12378 0.0
C971 C 0.87798 0.48196 0.12768 0.0
loop_
_geom_bond_atom_site_label_1
_geom_bond_atom_site_label_2
_geom_bond_distance
_geom_bond_site_symmetry_2
_ccdc_geom_bond_type
H0 C6 0.930 . S
H1 C9 0.931 . S
H2 C11 0.931 . S
H3 C13 0.930 . S
H4 C15 0.930 . S
H5 C17 0.931 . S
C6 H0 0.930 . S
C6 C7 1.380 . S
C6 C8 1.394 . S
C7 C6 1.380 . S
C7 C11 1.382 . S
C8 C6 1.394 . S
C8 C9 1.400 . S
C9 H1 0.931 . S
C9 C8 1.400 . S
C9 C10 1.375 . S
C10 C9 1.375 . S
C10 C11 1.415 . S
C10 C12 1.501 1_455 S
C11 H2 0.931 . S
C11 C7 1.382 . S
C11 C10 1.415 . S
C12 C10 1.501 1_655 S
C12 C13 1.384 . S
C12 C17 1.408 . S
C13 H3 0.930 . S
C13 C12 1.384 . S
C13 C14 1.389 . S
C14 C13 1.389 . S
C14 C15 1.405 . S
C15 H4 0.930 . S
C15 C14 1.405 . S
C15 C16 1.364 . S
C16 C15 1.364 . S
C16 C17 1.400 . S
C17 H5 0.931 . S
C17 C12 1.408 . S
C17 C16 1.400 . S
H18 C24 0.930 . S
H19 C27 0.931 . S
H20 C29 0.931 . S
H21 C31 0.930 . S
H22 C33 0.930 . S
H23 C35 0.931 1_545 S
C24 H18 0.930 . S
C24 C25 1.380 . S
C24 C26 1.394 . S
C25 C24 1.380 . S
C25 C29 1.382 . S
C26 C24 1.394 . S
C26 C27 1.400 . S
C27 H19 0.931 . S
C27 C26 1.400 . S
C27 C28 1.375 . S
C28 C27 1.375 . S
C28 C29 1.415 . S
C28 C30 1.501 1_545 S
C29 H20 0.931 . S
C29 C25 1.382 . S
C29 C28 1.415 . S
C30 C28 1.501 1_565 S
C30 C31 1.384 . S
C30 C35 1.408 . S
C31 H21 0.930 . S
C31 C30 1.384 . S
C31 C32 1.389 . S
C32 C31 1.389 . S
C32 C33 1.405 . S
C33 H22 0.930 . S
C33 C32 1.405 . S
C33 C34 1.364 . S
C34 C33 1.364 . S
C34 C35 1.400 . S
C35 H23 0.931 1_565 S
C35 C30 1.408 . S
C35 C34 1.400 . S
H36 C42 0.930 . S
H37 C45 0.931 . S
H38 C47 0.931 . S
H39 C49 0.930 . S
H40 C51 0.930 . S
H41 C53 0.931 . S
C42 H36 0.930 . S
C42 C43 1.380 . S
C42 C44 1.394 . S
C43 C42 1.380 . S
C43 C47 1.382 . S
C44 C42 1.394 . S
C44 C45 1.400 . S
C45 H37 0.931 . S
C45 C44 1.400 . S
C45 C46 1.375 . S
C46 C45 1.375 . S
C46 C47 1.415 . S
C46 C48 1.501 . S
C47 H38 0.931 . S
C47 C43 1.382 . S
C47 C46 1.415 . S
C48 C46 1.501 . S
C48 C49 1.384 . S
C48 C53 1.408 . S
C49 H39 0.930 . S
C49 C48 1.384 . S
C49 C50 1.389 . S
C50 C49 1.389 . S
C50 C51 1.405 . S
C51 H40 0.930 . S
C51 C50 1.405 . S
C51 C52 1.364 . S
C52 C51 1.364 . S
C52 C53 1.400 . S
C53 H41 0.931 . S
C53 C48 1.408 . S
C53 C52 1.400 . S
H54 C60 0.930 . S
H55 C63 0.931 . S
H56 C65 0.931 . S
H57 C67 0.930 . S
H58 C69 0.930 . S
H59 C71 0.952 . S
C60 H54 0.930 . S
C60 C61 1.380 . S
C60 C62 1.394 . S
C61 C60 1.380 . S
C61 C65 1.382 . S
C62 C60 1.394 . S
C62 C63 1.400 . S
C63 H55 0.931 . S
C63 C62 1.400 . S
C63 C64 1.375 . S
C64 C63 1.375 . S
C64 C65 1.415 . S
C64 C66 1.501 1_455 S
C65 H56 0.931 . S
C65 C61 1.382 . S
C65 C64 1.415 . S
C66 C64 1.501 1_655 S
C66 C67 1.384 . S
C66 C71 1.408 . S
C67 H57 0.930 . S
C67 C66 1.384 . S
C67 C68 1.389 . S
C68 C67 1.389 . S
C68 C69 1.405 . S
C69 H58 0.930 . S
C69 C68 1.405 . S
C69 C70 1.364 . S
C70 C69 1.364 . S
C70 C71 1.400 . S
C71 H59 0.952 . S
C71 C66 1.408 . S
C71 C70 1.400 . S
H72 C78 0.930 . S
H73 C81 0.931 . S
H74 C83 0.931 1_545 S
H75 C85 0.930 . S
H76 C87 0.930 . S
H77 C89 0.931 . S
C78 H72 0.930 . S
C78 C79 1.380 . S
C78 C80 1.394 1_554 S
C79 C78 1.380 . S
C79 C83 1.382 . S
C80 C78 1.394 1_556 S
C80 C81 1.400 . S
C81 H73 0.931 . S
C81 C80 1.400 . S
C81 C82 1.375 . S
C82 C81 1.375 . S
C82 C83 1.415 1_556 S
C82 C84 1.501 1_565 S
C83 H74 0.931 1_565 S
C83 C79 1.382 . S
C83 C82 1.415 1_554 S
C84 C82 1.501 1_545 S
C84 C85 1.384 1_556 S
C84 C89 1.408 . S
C85 H75 0.930 . S
C85 C84 1.384 1_554 S
C85 C86 1.389 1_554 S
C86 C85 1.389 1_556 S
C86 C87 1.405 . S
C87 H76 0.930 . S
C87 C86 1.405 . S
C87 C88 1.364 . S
C88 C87 1.364 . S
C88 C89 1.400 . S
C89 H77 0.931 . S
C89 C84 1.408 . S
C89 C88 1.400 . S
H90 C96 0.930 . S
H91 C99 0.931 . S
H92 C101 0.931 . S
H93 C103 0.930 . S
H94 C105 0.930 . S
H95 C107 0.931 . S
C96 H90 0.930 . S
C96 C97 1.380 . S
C96 C98 1.394 . S
C97 C96 1.380 . S
C97 C101 1.382 . S
C98 C96 1.394 . S
C98 C99 1.400 . S
C99 H91 0.931 . S
C99 C98 1.400 . S
C99 C100 1.375 . S
C100 C99 1.375 . S
C100 C101 1.415 . S
C100 C102 1.501 . S
C101 H92 0.931 . S
C101 C97 1.382 . S
C101 C100 1.415 . S
C102 C100 1.501 . S
C102 C103 1.384 . S
C102 C107 1.408 . S
C103 H93 0.930 . S
C103 C102 1.384 . S
C103 C104 1.389 . S
C104 C103 1.389 . S
C104 C105 1.405 . S
C105 H94 0.930 . S
C105 C104 1.405 . S
C105 C106 1.364 . S
C106 C105 1.364 . S
C106 C107 1.400 . S
C107 H95 0.931 . S
C107 C102 1.408 . S
C107 C106 1.400 . S
Mn108 O113 2.095 . S
Mn108 O123 2.162 . S
Mn108 O124 2.297 . S
Mn108 O132 2.385 . S
Mn108 O133 2.209 . S
Mn108 O134 2.094 . S
Mn109 O114 2.121 . S
Mn109 N116 2.257 . S
Mn109 N125 2.282 . S
Mn109 O133 2.215 . S
Mn109 O135 2.117 . S
C110 O132 1.234 . S
C110 O133 1.283 . S
C111 O123 1.281 . S
C111 O124 1.236 . S
C112 O134 1.240 . S
C112 O135 1.264 . S
O113 Mn108 2.095 . S
O113 C122 1.250 . S
O114 Mn109 2.121 . S
O114 C122 1.258 . S
C115 N116 1.326 . S
C115 C119 1.460 . S
C115 H121 0.929 . S
N116 Mn109 2.257 . S
N116 C115 1.326 . S
N116 C120 1.362 . S
C117 C118 1.258 . S
C117 C120 1.431 . S
C117 C137 1.449 . S
C118 C117 1.258 . S
C118 C119 1.477 . S
C118 H138 0.931 . S
C119 C115 1.460 . S
C119 C118 1.477 . S
C119 H139 0.930 . S
C120 N116 1.362 . S
C120 C117 1.431 . S
C120 C130 1.476 . S
H121 C115 0.929 . S
C122 O113 1.250 . S
C122 O114 1.258 . S
O123 Mn108 2.162 . S
O123 C111 1.281 . S
O124 Mn108 2.297 . S
O124 C111 1.236 . S
N125 Mn109 2.282 . S
N125 C126 1.328 . S
N125 C130 1.318 . S
C126 N125 1.328 . S
C126 C127 1.457 . S
C126 H131 0.929 . S
C127 C126 1.457 . S
C127 C128 1.291 . S
C127 H140 0.931 . S
C128 C127 1.291 . S
C128 C129 1.373 . S
C128 H141 0.929 . S
C129 C128 1.373 . S
C129 C130 1.396 . S
C129 C136 1.403 . S
C130 C120 1.476 . S
C130 N125 1.318 . S
C130 C129 1.396 . S
H131 C126 0.929 . S
O132 Mn108 2.385 . S
O132 C110 1.234 . S
O133 Mn108 2.209 . S
O133 Mn109 2.215 . S
O133 C110 1.283 . S
O134 Mn108 2.094 . S
O134 C112 1.240 . S
O135 Mn109 2.117 . S
O135 C112 1.264 . S
C136 C129 1.403 . S
C136 C137 1.399 . S
C136 H142 0.929 . S
C137 C117 1.449 . S
C137 C136 1.399 . S
C137 H143 0.930 . S
H138 C118 0.931 . S
H139 C119 0.930 . S
H140 C127 0.931 . S
H141 C128 0.929 . S
H142 C136 0.929 . S
H143 C137 0.930 . S
Mn144 O149 2.095 . S
Mn144 O159 2.162 . S
Mn144 O160 2.297 . S
Mn144 O168 2.385 . S
Mn144 O169 2.209 . S
Mn144 O170 2.094 . S
Mn145 O150 2.121 . S
Mn145 N152 2.257 . S
Mn145 N161 2.282 . S
Mn145 O169 2.215 . S
Mn145 O171 2.117 . S
C146 O168 1.234 . S
C146 O169 1.283 . S
C147 O159 1.281 . S
C147 O160 1.236 . S
C148 O170 1.240 . S
C148 O171 1.264 . S
O149 Mn144 2.095 . S
O149 C158 1.250 . S
O150 Mn145 2.121 . S
O150 C158 1.258 . S
C151 N152 1.326 . S
C151 C155 1.460 . S
C151 H157 0.929 . S
N152 Mn145 2.257 . S
N152 C151 1.326 . S
N152 C156 1.362 . S
C153 C154 1.258 . S
C153 C156 1.431 . S
C153 C173 1.449 . S
C154 C153 1.258 . S
C154 C155 1.477 . S
C154 H174 0.931 . S
C155 C151 1.460 . S
C155 C154 1.477 . S
C155 H175 0.930 . S
C156 N152 1.362 . S
C156 C153 1.431 . S
C156 C166 1.476 . S
H157 C151 0.929 . S
C158 O149 1.250 . S
C158 O150 1.258 . S
O159 Mn144 2.162 . S
O159 C147 1.281 . S
O160 Mn144 2.297 . S
O160 C147 1.236 . S
N161 Mn145 2.282 . S
N161 C162 1.328 . S
N161 C166 1.318 . S
C162 N161 1.328 . S
C162 C163 1.457 . S
C162 H167 0.929 . S
C163 C162 1.457 . S
C163 C164 1.291 . S
C163 H176 0.931 . S
C164 C163 1.291 . S
C164 C165 1.373 . S
C164 H177 0.929 . S
C165 C164 1.373 . S
C165 C166 1.396 . S
C165 C172 1.403 . S
C166 C156 1.476 . S
C166 N161 1.318 . S
C166 C165 1.396 . S
H167 C162 0.929 . S
O168 Mn144 2.385 . S
O168 C146 1.234 . S
O169 Mn144 2.209 . S
O169 Mn145 2.215 . S
O169 C146 1.283 . S
O170 Mn144 2.094 . S
O170 C148 1.240 . S
O171 Mn145 2.117 . S
O171 C148 1.264 . S
C172 C165 1.403 . S
C172 C173 1.399 . S
C172 H178 0.929 . S
C173 C153 1.449 . S
C173 C172 1.399 . S
C173 H179 0.930 . S
H174 C154 0.931 . S
H175 C155 0.930 . S
H176 C163 0.931 . S
H177 C164 0.929 . S
H178 C172 0.929 . S
H179 C173 0.930 . S
Mn180 O185 2.095 . S
Mn180 O195 2.162 . S
Mn180 O196 2.297 . S
Mn180 O204 2.385 . S
Mn180 O205 2.209 . S
Mn180 O206 2.094 . S
Mn181 O186 2.121 . S
Mn181 N188 2.257 . S
Mn181 N197 2.282 . S
Mn181 O205 2.215 . S
Mn181 O207 2.117 . S
C182 O204 1.234 . S
C182 O205 1.283 . S
C183 O195 1.281 . S
C183 O196 1.236 . S
C184 O206 1.240 . S
C184 O207 1.264 . S
O185 Mn180 2.095 . S
O185 C194 1.250 . S
O186 Mn181 2.121 . S
O186 C194 1.258 . S
C187 N188 1.326 . S
C187 C191 1.460 . S
C187 H193 0.929 . S
N188 Mn181 2.257 . S
N188 C187 1.326 . S
N188 C192 1.362 . S
C189 C190 1.258 . S
C189 C192 1.431 . S
C189 C209 1.449 . S
C190 C189 1.258 . S
C190 C191 1.477 . S
C190 H210 0.931 . S
C191 C187 1.460 . S
C191 C190 1.477 . S
C191 H211 0.930 . S
C192 N188 1.362 . S
C192 C189 1.431 . S
C192 C202 1.476 . S
H193 C187 0.929 . S
C194 O185 1.250 . S
C194 O186 1.258 . S
O195 Mn180 2.162 . S
O195 C183 1.281 . S
O196 Mn180 2.297 . S
O196 C183 1.236 . S
N197 Mn181 2.282 . S
N197 C198 1.328 . S
N197 C202 1.318 . S
C198 N197 1.328 . S
C198 C199 1.457 . S
C198 H203 0.929 . S
C199 C198 1.457 . S
C199 C200 1.291 . S
C199 H212 0.931 . S
C200 C199 1.291 . S
C200 C201 1.373 . S
C200 H213 0.929 . S
C201 C200 1.373 . S
C201 C202 1.396 . S
C201 C208 1.403 . S
C202 C192 1.476 . S
C202 N197 1.318 . S
C202 C201 1.396 . S
H203 C198 0.929 . S
O204 Mn180 2.385 . S
O204 C182 1.234 . S
O205 Mn180 2.209 . S
O205 Mn181 2.215 . S
O205 C182 1.283 . S
O206 Mn180 2.094 . S
O206 C184 1.240 . S
O207 Mn181 2.117 . S
O207 C184 1.264 . S
C208 C201 1.403 . S
C208 C209 1.399 . S
C208 H214 0.929 . S
C209 C189 1.449 . S
C209 C208 1.399 . S
C209 H215 0.930 . S
H210 C190 0.931 . S
H211 C191 0.930 . S
H212 C199 0.931 . S
H213 C200 0.929 . S
H214 C208 0.929 . S
H215 C209 0.930 . S
Mn216 O221 2.095 . S
Mn216 O231 2.162 . S
Mn216 O232 2.297 . S
Mn216 O240 2.385 . S
Mn216 O241 2.209 . S
Mn216 O242 2.094 . S
Mn217 O222 2.121 . S
Mn217 N224 2.257 . S
Mn217 N233 2.282 . S
Mn217 O241 2.215 . S
Mn217 O243 2.117 . S
C218 O240 1.234 . S
C218 O241 1.283 . S
C219 O231 1.281 . S
C219 O232 1.236 . S
C220 O242 1.240 . S
C220 O243 1.264 . S
O221 Mn216 2.095 . S
O221 C230 1.250 . S
O222 Mn217 2.121 . S
O222 C230 1.258 . S
C223 N224 1.326 . S
C223 C227 1.460 . S
C223 H229 0.929 . S
N224 Mn217 2.257 . S
N224 C223 1.326 . S
N224 C228 1.362 . S
C225 C226 1.258 . S
C225 C228 1.431 . S
C225 C245 1.449 . S
C226 C225 1.258 . S
C226 C227 1.477 . S
C226 H246 0.931 1_556 S
C227 C223 1.460 . S
C227 C226 1.477 . S
C227 H247 0.930 . S
C228 N224 1.362 . S
C228 C225 1.431 . S
C228 C238 1.476 . S
H229 C223 0.929 . S
C230 O221 1.250 . S
C230 O222 1.258 . S
O231 Mn216 2.162 . S
O231 C219 1.281 . S
O232 Mn216 2.297 . S
O232 C219 1.236 . S
N233 Mn217 2.282 . S
N233 C234 1.328 . S
N233 C238 1.318 . S
C234 N233 1.328 . S
C234 C235 1.457 . S
C234 H239 0.929 . S
C235 C234 1.457 . S
C235 C236 1.291 . S
C235 H248 0.931 . S
C236 C235 1.291 . S
C236 C237 1.373 . S
C236 H249 0.929 . S
C237 C236 1.373 . S
C237 C238 1.396 . S
C237 C244 1.403 . S
C238 C228 1.476 . S
C238 N233 1.318 . S
C238 C237 1.396 . S
H239 C234 0.929 . S
O240 Mn216 2.385 . S
O240 C218 1.234 . S
O241 Mn216 2.209 . S
O241 Mn217 2.215 . S
O241 C218 1.283 . S
O242 Mn216 2.094 . S
O242 C220 1.240 . S
O243 Mn217 2.117 . S
O243 C220 1.264 . S
C244 C237 1.403 . S
C244 C245 1.399 . S
C244 H250 0.929 . S
C245 C225 1.449 . S
C245 C244 1.399 . S
C245 H251 0.930 1_556 S
H246 C226 0.931 1_554 S
H247 C227 0.930 . S
H248 C235 0.931 . S
H249 C236 0.929 . S
H250 C244 0.929 . S
H251 C245 0.930 1_554 S
Mn252 O257 2.095 . S
Mn252 O267 2.162 . S
Mn252 O268 2.297 . S
Mn252 O276 2.385 . S
Mn252 O277 2.209 . S
Mn252 O278 2.094 . S
Mn253 O258 2.121 . S
Mn253 N260 2.257 . S
Mn253 N269 2.282 . S
Mn253 O277 2.215 . S
Mn253 O279 2.117 . S
C254 O276 1.234 . S
C254 O277 1.283 . S
C255 O267 1.281 . S
C255 O268 1.236 . S
C256 O278 1.240 . S
C256 O279 1.264 . S
O257 Mn252 2.095 . S
O257 C266 1.250 . S
O258 Mn253 2.121 . S
O258 C266 1.258 . S
C259 N260 1.326 . S
C259 C263 1.460 . S
C259 H265 0.929 . S
N260 Mn253 2.257 . S
N260 C259 1.326 . S
N260 C264 1.362 . S
C261 C262 1.258 . S
C261 C264 1.431 . S
C261 C281 1.449 . S
C262 C261 1.258 . S
C262 C263 1.477 . S
C262 H282 0.931 . S
C263 C259 1.460 . S
C263 C262 1.477 . S
C263 H283 0.930 . S
C264 N260 1.362 . S
C264 C261 1.431 . S
C264 C274 1.476 . S
H265 C259 0.929 . S
C266 O257 1.250 . S
C266 O258 1.258 . S
O267 Mn252 2.162 . S
O267 C255 1.281 . S
O268 Mn252 2.297 . S
O268 C255 1.236 . S
N269 Mn253 2.282 . S
N269 C270 1.328 . S
N269 C274 1.318 . S
C270 N269 1.328 . S
C270 C271 1.457 . S
C270 H275 0.929 . S
C271 C270 1.457 . S
C271 C272 1.291 . S
C271 H284 0.931 . S
C272 C271 1.291 . S
C272 C273 1.373 . S
C272 H285 0.929 . S
C273 C272 1.373 . S
C273 C274 1.396 . S
C273 C280 1.403 . S
C274 C264 1.476 . S
C274 N269 1.318 . S
C274 C273 1.396 . S
H275 C270 0.929 . S
O276 Mn252 2.385 . S
O276 C254 1.234 . S
O277 Mn252 2.209 . S
O277 Mn253 2.215 . S
O277 C254 1.283 . S
O278 Mn252 2.094 . S
O278 C256 1.240 . S
O279 Mn253 2.117 . S
O279 C256 1.264 . S
C280 C273 1.403 . S
C280 C281 1.399 . S
C280 H286 0.929 . S
C281 C261 1.449 . S
C281 C280 1.399 . S
C281 H287 0.930 . S
H282 C262 0.931 . S
H283 C263 0.930 . S
H284 C271 0.931 . S
H285 C272 0.929 . S
H286 C280 0.929 . S
H287 C281 0.930 . S
Mn288 O293 2.095 . S
Mn288 O303 2.162 . S
Mn288 O304 2.297 . S
Mn288 O312 2.385 . S
Mn288 O313 2.209 . S
Mn288 O314 2.094 . S
Mn289 O294 2.121 . S
Mn289 N296 2.257 . S
Mn289 N305 2.282 . S
Mn289 O313 2.215 . S
Mn289 O315 2.117 . S
C290 O312 1.234 . S
C290 O313 1.283 . S
C291 O303 1.281 . S
C291 O304 1.236 . S
C292 O314 1.240 . S
C292 O315 1.264 . S
O293 Mn288 2.095 . S
O293 C302 1.250 . S
O294 Mn289 2.121 . S
O294 C302 1.258 . S
C295 N296 1.326 . S
C295 C299 1.460 . S
C295 H301 0.929 . S
N296 Mn289 2.257 . S
N296 C295 1.326 . S
N296 C300 1.362 . S
C297 C298 1.258 . S
C297 C300 1.431 . S
C297 C317 1.449 . S
C298 C297 1.258 . S
C298 C299 1.477 . S
C298 H318 0.931 . S
C299 C295 1.460 . S
C299 C298 1.477 . S
C299 H319 0.930 . S
C300 N296 1.362 . S
C300 C297 1.431 . S
C300 C310 1.476 . S
H301 C295 0.929 . S
C302 O293 1.250 . S
C302 O294 1.258 . S
O303 Mn288 2.162 . S
O303 C291 1.281 . S
O304 Mn288 2.297 . S
O304 C291 1.236 . S
N305 Mn289 2.282 . S
N305 C306 1.328 . S
N305 C310 1.318 . S
C306 N305 1.328 . S
C306 C307 1.457 . S
C306 H311 0.929 . S
C307 C306 1.457 . S
C307 C308 1.291 . S
C307 H320 0.931 . S
C308 C307 1.291 . S
C308 C309 1.373 . S
C308 H321 0.929 . S
C309 C308 1.373 . S
C309 C310 1.396 . S
C309 C316 1.403 . S
C310 C300 1.476 . S
C310 N305 1.318 . S
C310 C309 1.396 . S
H311 C306 0.929 . S
O312 Mn288 2.385 . S
O312 C290 1.234 . S
O313 Mn288 2.209 . S
O313 Mn289 2.215 . S
O313 C290 1.283 . S
O314 Mn288 2.094 . S
O314 C292 1.240 . S
O315 Mn289 2.117 . S
O315 C292 1.264 . S
C316 C309 1.403 . S
C316 C317 1.399 . S
C316 H322 0.929 . S
C317 C297 1.449 . S
C317 C316 1.399 . S
C317 H323 0.930 . S
H318 C298 0.931 . S
H319 C299 0.930 . S
H320 C307 0.931 . S
H321 C308 0.929 . S
H322 C316 0.929 . S
H323 C317 0.930 . S
H324 C336 0.930 . S
H325 C338 0.930 . S
H326 C339 0.930 . S
H327 C343 0.959 . S
H328 C343 0.959 . S
H329 C343 0.961 . S
H330 C344 0.960 . S
H331 C344 0.961 . S
H332 C344 0.959 . S
H333 C347 0.929 . S
H334 C348 0.931 . S
H335 C350 0.930 . S
C336 H324 0.930 . S
C336 C337 1.399 . S
C336 C341 1.399 . S
C337 C336 1.399 . S
C337 C338 1.376 . S
C338 H325 0.930 . S
C338 C337 1.376 . S
C338 C339 1.388 . S
C339 H326 0.930 . S
C339 C338 1.388 . S
C339 C340 1.390 . S
C340 C339 1.390 . S
C340 C341 1.394 . S
C340 C346 1.465 . S
C341 C336 1.399 . S
C341 C340 1.394 . S
C341 C342 1.516 . S
C342 C341 1.516 . S
C342 C343 1.502 . S
C342 C344 1.561 . S
C342 C345 1.526 . S
C343 H327 0.959 . S
C343 H328 0.959 . S
C343 H329 0.961 . S
C343 C342 1.502 . S
C344 H330 0.960 . S
C344 H331 0.961 . S
C344 H332 0.959 . S
C344 C342 1.561 . S
C345 C342 1.526 . S
C345 C346 1.396 . S
C345 C350 1.390 . S
C346 C340 1.465 . S
C346 C345 1.396 . S
C346 C347 1.399 . S
C347 H333 0.929 . S
C347 C346 1.399 . S
C347 C348 1.385 . S
C348 H334 0.931 . S
C348 C347 1.385 . S
C348 C349 1.389 . S
C349 C348 1.389 . S
C349 C350 1.387 . S
C350 H335 0.930 . S
C350 C345 1.390 . S
C350 C349 1.387 . S
H351 C363 0.930 . S
H352 C365 0.930 . S
H353 C366 0.930 . S
H354 C370 0.959 . S
H355 C370 0.959 . S
H356 C370 0.961 . S
H357 C371 0.960 . S
H358 C371 0.961 . S
H359 C371 0.959 . S
H360 C374 0.929 . S
H361 C375 0.931 . S
H362 C377 0.930 . S
C363 H351 0.930 . S
C363 C364 1.399 . S
C363 C368 1.399 . S
C364 C363 1.399 . S
C364 C365 1.376 . S
C365 H352 0.930 . S
C365 C364 1.376 . S
C365 C366 1.388 . S
C366 H353 0.930 . S
C366 C365 1.388 . S
C366 C367 1.390 . S
C367 C366 1.390 . S
C367 C368 1.394 . S
C367 C373 1.465 . S
C368 C363 1.399 . S
C368 C367 1.394 . S
C368 C369 1.516 . S
C369 C368 1.516 . S
C369 C370 1.502 . S
C369 C371 1.561 . S
C369 C372 1.526 . S
C370 H354 0.959 . S
C370 H355 0.959 . S
C370 H356 0.961 . S
C370 C369 1.502 . S
C371 H357 0.960 . S
C371 H358 0.961 . S
C371 H359 0.959 . S
C371 C369 1.561 . S
C372 C369 1.526 . S
C372 C373 1.396 . S
C372 C377 1.390 . S
C373 C367 1.465 . S
C373 C372 1.396 . S
C373 C374 1.399 . S
C374 H360 0.929 . S
C374 C373 1.399 . S
C374 C375 1.385 . S
C375 H361 0.931 . S
C375 C374 1.385 . S
C375 C376 1.389 . S
C376 C375 1.389 . S
C376 C377 1.387 . S
C377 H362 0.930 . S
C377 C372 1.390 . S
C377 C376 1.387 . S
H378 C390 0.930 . S
H379 C392 0.930 . S
H380 C393 0.930 . S
H381 C397 0.959 . S
H382 C397 0.959 . S
H383 C397 0.961 . S
H384 C398 0.960 . S
H385 C398 0.961 . S
H386 C398 0.959 . S
H387 C401 0.929 . S
H388 C402 0.931 . S
H389 C404 0.930 . S
C390 H378 0.930 . S
C390 C391 1.399 . S
C390 C395 1.399 . S
C391 C390 1.399 . S
C391 C392 1.376 . S
C392 H379 0.930 . S
C392 C391 1.376 . S
C392 C393 1.388 . S
C393 H380 0.930 . S
C393 C392 1.388 . S
C393 C394 1.390 . S
C394 C393 1.390 . S
C394 C395 1.394 . S
C394 C400 1.465 . S
C395 C390 1.399 . S
C395 C394 1.394 . S
C395 C396 1.516 . S
C396 C395 1.516 . S
C396 C397 1.502 . S
C396 C398 1.561 . S
C396 C399 1.526 . S
C397 H381 0.959 . S
C397 H382 0.959 . S
C397 H383 0.961 . S
C397 C396 1.502 . S
C398 H384 0.960 . S
C398 H385 0.961 . S
C398 H386 0.959 . S
C398 C396 1.561 . S
C399 C396 1.526 . S
C399 C400 1.396 . S
C399 C404 1.390 . S
C400 C394 1.465 . S
C400 C399 1.396 . S
C400 C401 1.399 . S
C401 H387 0.929 . S
C401 C400 1.399 . S
C401 C402 1.385 . S
C402 H388 0.931 . S
C402 C401 1.385 . S
C402 C403 1.389 . S
C403 C402 1.389 . S
C403 C404 1.387 . S
C404 H389 0.930 . S
C404 C399 1.390 . S
C404 C403 1.387 . S
H405 C417 0.930 . S
H406 C419 0.930 . S
H407 C420 0.930 . S
H408 C424 0.959 . S
H409 C424 0.959 . S
H410 C424 0.961 . S
H411 C425 0.960 . S
H412 C425 0.961 . S
H413 C425 0.959 . S
H414 C428 0.929 . S
H415 C429 0.931 . S
H416 C431 0.930 . S
C417 H405 0.930 . S
C417 C418 1.399 . S
C417 C422 1.399 . S
C418 C417 1.399 . S
C418 C419 1.376 . S
C419 H406 0.930 . S
C419 C418 1.376 . S
C419 C420 1.388 . S
C420 H407 0.930 . S
C420 C419 1.388 . S
C420 C421 1.390 . S
C421 C420 1.390 . S
C421 C422 1.394 . S
C421 C427 1.465 . S
C422 C417 1.399 . S
C422 C421 1.394 . S
C422 C423 1.516 . S
C423 C422 1.516 . S
C423 C424 1.502 . S
C423 C425 1.561 . S
C423 C426 1.526 . S
C424 H408 0.959 . S
C424 H409 0.959 . S
C424 H410 0.961 . S
C424 C423 1.502 . S
C425 H411 0.960 . S
C425 H412 0.961 . S
C425 H413 0.959 . S
C425 C423 1.561 . S
C426 C423 1.526 . S
C426 C427 1.396 . S
C426 C431 1.390 . S
C427 C421 1.465 . S
C427 C426 1.396 . S
C427 C428 1.399 . S
C428 H414 0.929 . S
C428 C427 1.399 . S
C428 C429 1.385 . S
C429 H415 0.931 . S
C429 C428 1.385 . S
C429 C430 1.389 . S
C430 C429 1.389 . S
C430 C431 1.387 . S
C431 H416 0.930 . S
C431 C426 1.390 . S
C431 C430 1.387 . S
H432 C444 0.930 . S
H433 C446 0.930 1_554 S
H434 C447 0.930 1_554 S
H435 C451 0.959 . S
H436 C451 0.959 . S
H437 C451 0.961 . S
H438 C452 0.960 . S
H439 C452 0.961 . S
H440 C452 0.959 . S
H441 C455 0.929 . S
H442 C456 0.931 . S
H443 C458 0.930 . S
C444 H432 0.930 . S
C444 C445 1.399 . S
C444 C449 1.399 . S
C445 C444 1.399 . S
C445 C446 1.376 . S
C446 H433 0.930 1_556 S
C446 C445 1.376 . S
C446 C447 1.388 . S
C447 H434 0.930 1_556 S
C447 C446 1.388 . S
C447 C448 1.390 . S
C448 C447 1.390 . S
C448 C449 1.394 . S
C448 C454 1.465 . S
C449 C444 1.399 . S
C449 C448 1.394 . S
C449 C450 1.516 . S
C450 C449 1.516 . S
C450 C451 1.502 . S
C450 C452 1.561 . S
C450 C453 1.526 . S
C451 H435 0.959 . S
C451 H436 0.959 . S
C451 H437 0.961 . S
C451 C450 1.502 . S
C452 H438 0.960 . S
C452 H439 0.961 . S
C452 H440 0.959 . S
C452 C450 1.561 . S
C453 C450 1.526 . S
C453 C454 1.396 . S
C453 C458 1.390 . S
C454 C448 1.465 . S
C454 C453 1.396 . S
C454 C455 1.399 . S
C455 H441 0.929 . S
C455 C454 1.399 . S
C455 C456 1.385 . S
C456 H442 0.931 . S
C456 C455 1.385 . S
C456 C457 1.389 . S
C457 C456 1.389 . S
C457 C458 1.387 . S
C458 H443 0.930 . S
C458 C453 1.390 . S
C458 C457 1.387 . S
H459 C471 0.930 . S
H460 C473 0.930 . S
H461 C474 0.930 . S
H462 C478 0.959 . S
H463 C478 0.959 . S
H464 C478 0.961 . S
H465 C479 0.960 . S
H466 C479 0.961 . S
H467 C479 0.959 . S
H468 C482 0.929 . S
H469 C483 0.931 . S
H470 C485 0.930 . S
C471 H459 0.930 . S
C471 C472 1.399 . S
C471 C476 1.399 . S
C472 C471 1.399 . S
C472 C473 1.376 . S
C473 H460 0.930 . S
C473 C472 1.376 . S
C473 C474 1.388 . S
C474 H461 0.930 . S
C474 C473 1.388 . S
C474 C475 1.390 . S
C475 C474 1.390 . S
C475 C476 1.394 . S
C475 C481 1.465 . S
C476 C471 1.399 . S
C476 C475 1.394 . S
C476 C477 1.516 . S
C477 C476 1.516 . S
C477 C478 1.502 . S
C477 C479 1.561 . S
C477 C480 1.526 . S
C478 H462 0.959 . S
C478 H463 0.959 . S
C478 H464 0.961 . S
C478 C477 1.502 . S
C479 H465 0.960 . S
C479 H466 0.961 . S
C479 H467 0.959 . S
C479 C477 1.561 . S
C480 C477 1.526 . S
C480 C481 1.396 . S
C480 C485 1.390 . S
C481 C475 1.465 . S
C481 C480 1.396 . S
C481 C482 1.399 . S
C482 H468 0.929 . S
C482 C481 1.399 . S
C482 C483 1.385 . S
C483 H469 0.931 . S
C483 C482 1.385 . S
C483 C484 1.389 . S
C484 C483 1.389 . S
C484 C485 1.387 . S
C485 H470 0.930 . S
C485 C480 1.390 . S
C485 C484 1.387 . S
H486 C498 0.930 . S
H487 C500 0.930 . S
H488 C501 0.930 . S
H489 C505 0.959 . S
H490 C505 0.959 . S
H491 C505 0.961 . S
H492 C506 0.960 . S
H493 C506 0.961 . S
H494 C506 0.959 . S
H495 C509 0.929 . S
H496 C510 0.931 . S
H497 C512 0.930 . S
C498 H486 0.930 . S
C498 C499 1.399 . S
C498 C503 1.399 . S
C499 C498 1.399 . S
C499 C500 1.376 . S
C500 H487 0.930 . S
C500 C499 1.376 . S
C500 C501 1.388 . S
C501 H488 0.930 . S
C501 C500 1.388 . S
C501 C502 1.390 . S
C502 C501 1.390 . S
C502 C503 1.394 . S
C502 C508 1.465 . S
C503 C498 1.399 . S
C503 C502 1.394 . S
C503 C504 1.516 . S
C504 C503 1.516 . S
C504 C505 1.502 . S
C504 C506 1.561 . S
C504 C507 1.526 . S
C505 H489 0.959 . S
C505 H490 0.959 . S
C505 H491 0.961 . S
C505 C504 1.502 . S
C506 H492 0.960 . S
C506 H493 0.961 . S
C506 H494 0.959 . S
C506 C504 1.561 . S
C507 C504 1.526 . S
C507 C508 1.396 . S
C507 C512 1.390 . S
C508 C502 1.465 . S
C508 C507 1.396 . S
C508 C509 1.399 . S
C509 H495 0.929 . S
C509 C508 1.399 . S
C509 C510 1.385 . S
C510 H496 0.931 . S
C510 C509 1.385 . S
C510 C511 1.389 . S
C511 C510 1.389 . S
C511 C512 1.387 . S
C512 H497 0.930 . S
C512 C507 1.390 . S
C512 C511 1.387 . S
H513 C525 0.930 . S
H514 C527 0.930 . S
H515 C528 0.930 . S
H516 C532 0.959 . S
H517 C532 0.959 . S
H518 C532 0.961 . S
H519 C533 0.960 . S
H520 C533 0.961 . S
H521 C533 0.959 . S
H522 C536 0.929 . S
H523 C537 0.931 . S
H524 C539 0.930 . S
C525 H513 0.930 . S
C525 C526 1.399 . S
C525 C530 1.399 . S
C526 C525 1.399 . S
C526 C527 1.376 . S
C527 H514 0.930 . S
C527 C526 1.376 . S
C527 C528 1.388 . S
C528 H515 0.930 . S
C528 C527 1.388 . S
C528 C529 1.390 . S
C529 C528 1.390 . S
C529 C530 1.394 . S
C529 C535 1.465 . S
C530 C525 1.399 . S
C530 C529 1.394 . S
C530 C531 1.516 . S
C531 C530 1.516 . S
C531 C532 1.502 . S
C531 C533 1.561 . S
C531 C534 1.526 . S
C532 H516 0.959 . S
C532 H517 0.959 . S
C532 H518 0.961 . S
C532 C531 1.502 . S
C533 H519 0.960 . S
C533 H520 0.961 . S
C533 H521 0.959 . S
C533 C531 1.561 . S
C534 C531 1.526 . S
C534 C535 1.396 . S
C534 C539 1.390 . S
C535 C529 1.465 . S
C535 C534 1.396 . S
C535 C536 1.399 . S
C536 H522 0.929 . S
C536 C535 1.399 . S
C536 C537 1.385 . S
C537 H523 0.931 . S
C537 C536 1.385 . S
C537 C538 1.389 . S
C538 C537 1.389 . S
C538 C539 1.387 . S
C539 H524 0.930 . S
C539 C534 1.390 . S
C539 C538 1.387 . S
H540 C552 0.930 . S
H541 C554 0.930 . S
H542 C555 0.930 . S
H543 C559 0.959 . S
H544 C559 0.959 . S
H545 C559 0.961 . S
H546 C560 0.960 . S
H547 C560 0.961 . S
H548 C560 0.959 . S
H549 C563 0.929 . S
H550 C564 0.931 . S
H551 C566 0.930 . S
C552 H540 0.930 . S
C552 C553 1.399 . S
C552 C557 1.399 . S
C553 C552 1.399 . S
C553 C554 1.376 . S
C554 H541 0.930 . S
C554 C553 1.376 . S
C554 C555 1.388 . S
C555 H542 0.930 . S
C555 C554 1.388 . S
C555 C556 1.390 . S
C556 C555 1.390 . S
C556 C557 1.394 . S
C556 C562 1.465 . S
C557 C552 1.399 . S
C557 C556 1.394 . S
C557 C558 1.516 . S
C558 C557 1.516 . S
C558 C559 1.502 . S
C558 C560 1.561 . S
C558 C561 1.526 . S
C559 H543 0.959 . S
C559 H544 0.959 . S
C559 H545 0.961 . S
C559 C558 1.502 . S
C560 H546 0.960 . S
C560 H547 0.961 . S
C560 H548 0.959 . S
C560 C558 1.561 . S
C561 C558 1.526 . S
C561 C562 1.396 . S
C561 C566 1.390 . S
C562 C556 1.465 . S
C562 C561 1.396 . S
C562 C563 1.399 . S
C563 H549 0.929 . S
C563 C562 1.399 . S
C563 C564 1.385 . S
C564 H550 0.931 . S
C564 C563 1.385 . S
C564 C565 1.389 . S
C565 C564 1.389 . S
C565 C566 1.387 . S
C566 H551 0.930 . S
C566 C561 1.390 . S
C566 C565 1.387 . S
H567 C579 0.930 . S
H568 C581 0.930 . S
H569 C582 0.930 . S
H570 C586 0.959 . S
H571 C586 0.959 . S
H572 C586 0.961 . S
H573 C587 0.960 . S
H574 C587 0.961 . S
H575 C587 0.959 . S
H576 C590 0.929 1_556 S
H577 C591 0.931 . S
H578 C593 0.930 . S
C579 H567 0.930 . S
C579 C580 1.399 . S
C579 C584 1.399 . S
C580 C579 1.399 . S
C580 C581 1.376 1_554 S
C581 H568 0.930 . S
C581 C580 1.376 1_556 S
C581 C582 1.388 . S
C582 H569 0.930 . S
C582 C581 1.388 . S
C582 C583 1.390 1_556 S
C583 C582 1.390 1_554 S
C583 C584 1.394 . S
C583 C589 1.465 . S
C584 C579 1.399 . S
C584 C583 1.394 . S
C584 C585 1.516 . S
C585 C584 1.516 . S
C585 C586 1.502 . S
C585 C587 1.561 . S
C585 C588 1.526 . S
C586 H570 0.959 . S
C586 H571 0.959 . S
C586 H572 0.961 . S
C586 C585 1.502 . S
C587 H573 0.960 . S
C587 H574 0.961 . S
C587 H575 0.959 . S
C587 C585 1.561 . S
C588 C585 1.526 . S
C588 C589 1.396 . S
C588 C593 1.390 . S
C589 C583 1.465 . S
C589 C588 1.396 . S
C589 C590 1.399 . S
C590 H576 0.929 1_554 S
C590 C589 1.399 . S
C590 C591 1.385 . S
C591 H577 0.931 . S
C591 C590 1.385 . S
C591 C592 1.389 . S
C592 C591 1.389 . S
C592 C593 1.387 . S
C593 H578 0.930 . S
C593 C588 1.390 . S
C593 C592 1.387 . S
H594 C606 0.930 . S
H595 C608 0.930 . S
H596 C609 0.930 . S
H597 C613 0.959 . S
H598 C613 0.959 . S
H599 C613 0.961 . S
H600 C614 0.960 . S
H601 C614 0.961 . S
H602 C614 0.959 . S
H603 C617 0.929 . S
H604 C618 0.931 . S
H605 C620 0.930 . S
C606 H594 0.930 . S
C606 C607 1.399 . S
C606 C611 1.399 . S
C607 C606 1.399 . S
C607 C608 1.376 . S
C608 H595 0.930 . S
C608 C607 1.376 . S
C608 C609 1.388 . S
C609 H596 0.930 . S
C609 C608 1.388 . S
C609 C610 1.390 . S
C610 C609 1.390 . S
C610 C611 1.394 . S
C610 C616 1.465 . S
C611 C606 1.399 . S
C611 C610 1.394 . S
C611 C612 1.516 . S
C612 C611 1.516 . S
C612 C613 1.502 . S
C612 C614 1.561 . S
C612 C615 1.526 . S
C613 H597 0.959 . S
C613 H598 0.959 . S
C613 H599 0.961 . S
C613 C612 1.502 . S
C614 H600 0.960 . S
C614 H601 0.961 . S
C614 H602 0.959 . S
C614 C612 1.561 . S
C615 C612 1.526 . S
C615 C616 1.396 . S
C615 C620 1.390 . S
C616 C610 1.465 . S
C616 C615 1.396 . S
C616 C617 1.399 . S
C617 H603 0.929 . S
C617 C616 1.399 . S
C617 C618 1.385 . S
C618 H604 0.931 . S
C618 C617 1.385 . S
C618 C619 1.389 . S
C619 C618 1.389 . S
C619 C620 1.387 . S
C620 H605 0.930 . S
C620 C615 1.390 . S
C620 C619 1.387 . S
H621 C633 0.930 . S
H622 C635 0.930 . S
H623 C636 0.930 . S
H624 C640 0.959 . S
H625 C640 0.959 . S
H626 C640 0.961 . S
H627 C641 0.960 . S
H628 C641 0.961 . S
H629 C641 0.959 . S
H630 C644 0.929 . S
H631 C645 0.931 . S
H632 C647 0.930 . S
C633 H621 0.930 . S
C633 C634 1.399 . S
C633 C638 1.399 . S
C634 C633 1.399 . S
C634 C635 1.376 . S
C635 H622 0.930 . S
C635 C634 1.376 . S
C635 C636 1.388 . S
C636 H623 0.930 . S
C636 C635 1.388 . S
C636 C637 1.390 . S
C637 C636 1.390 . S
C637 C638 1.394 . S
C637 C643 1.465 . S
C638 C633 1.399 . S
C638 C637 1.394 . S
C638 C639 1.516 . S
C639 C638 1.516 . S
C639 C640 1.502 . S
C639 C641 1.561 . S
C639 C642 1.526 . S
C640 H624 0.959 . S
C640 H625 0.959 . S
C640 H626 0.961 . S
C640 C639 1.502 . S
C641 H627 0.960 . S
C641 H628 0.961 . S
C641 H629 0.959 . S
C641 C639 1.561 . S
C642 C639 1.526 . S
C642 C643 1.396 . S
C642 C647 1.390 . S
C643 C637 1.465 . S
C643 C642 1.396 . S
C643 C644 1.399 . S
C644 H630 0.929 . S
C644 C643 1.399 . S
C644 C645 1.385 . S
C645 H631 0.931 . S
C645 C644 1.385 . S
C645 C646 1.389 . S
C646 C645 1.389 . S
C646 C647 1.387 . S
C647 H632 0.930 . S
C647 C642 1.390 . S
C647 C646 1.387 . S
H648 C660 0.930 . S
H649 C662 0.930 . S
H650 C663 0.930 . S
H651 C667 0.959 . S
H652 C667 0.959 . S
H653 C667 0.961 . S
H654 C668 0.960 . S
H655 C668 0.961 . S
H656 C668 0.959 . S
H657 C671 0.929 . S
H658 C672 0.931 . S
H659 C674 0.930 . S
C660 H648 0.930 . S
C660 C661 1.399 . S
C660 C665 1.399 . S
C661 C660 1.399 . S
C661 C662 1.376 . S
C662 H649 0.930 . S
C662 C661 1.376 . S
C662 C663 1.388 . S
C663 H650 0.930 . S
C663 C662 1.388 . S
C663 C664 1.390 . S
C664 C663 1.390 . S
C664 C665 1.394 . S
C664 C670 1.465 . S
C665 C660 1.399 . S
C665 C664 1.394 . S
C665 C666 1.516 . S
C666 C665 1.516 . S
C666 C667 1.502 . S
C666 C668 1.561 . S
C666 C669 1.526 . S
C667 H651 0.959 . S
C667 H652 0.959 . S
C667 H653 0.961 . S
C667 C666 1.502 . S
C668 H654 0.960 . S
C668 H655 0.961 . S
C668 H656 0.959 . S
C668 C666 1.561 . S
C669 C666 1.526 . S
C669 C670 1.396 . S
C669 C674 1.390 . S
C670 C664 1.465 . S
C670 C669 1.396 . S
C670 C671 1.399 . S
C671 H657 0.929 . S
C671 C670 1.399 . S
C671 C672 1.385 . S
C672 H658 0.931 . S
C672 C671 1.385 . S
C672 C673 1.389 . S
C673 C672 1.389 . S
C673 C674 1.387 . S
C674 H659 0.930 . S
C674 C669 1.390 . S
C674 C673 1.387 . S
H675 C687 0.930 . S
H676 C689 0.930 . S
H677 C690 0.930 . S
H678 C694 0.959 . S
H679 C694 0.959 . S
H680 C694 0.961 . S
H681 C695 0.960 . S
H682 C695 0.961 . S
H683 C695 0.959 . S
H684 C698 0.929 . S
H685 C699 0.931 . S
H686 C701 0.930 . S
C687 H675 0.930 . S
C687 C688 1.399 . S
C687 C692 1.399 . S
C688 C687 1.399 . S
C688 C689 1.376 . S
C689 H676 0.930 . S
C689 C688 1.376 . S
C689 C690 1.388 . S
C690 H677 0.930 . S
C690 C689 1.388 . S
C690 C691 1.390 . S
C691 C690 1.390 . S
C691 C692 1.394 . S
C691 C697 1.465 . S
C692 C687 1.399 . S
C692 C691 1.394 . S
C692 C693 1.516 . S
C693 C692 1.516 . S
C693 C694 1.502 . S
C693 C695 1.561 . S
C693 C696 1.526 . S
C694 H678 0.959 . S
C694 H679 0.959 . S
C694 H680 0.961 . S
C694 C693 1.502 . S
C695 H681 0.960 . S
C695 H682 0.961 . S
C695 H683 0.959 . S
C695 C693 1.561 . S
C696 C693 1.526 . S
C696 C697 1.396 . S
C696 C701 1.390 . S
C697 C691 1.465 . S
C697 C696 1.396 . S
C697 C698 1.399 . S
C698 H684 0.929 . S
C698 C697 1.399 . S
C698 C699 1.385 . S
C699 H685 0.931 . S
C699 C698 1.385 . S
C699 C700 1.389 . S
C700 C699 1.389 . S
C700 C701 1.387 . S
C701 H686 0.930 . S
C701 C696 1.390 . S
C701 C700 1.387 . S
H702 C714 0.930 . S
H703 C716 0.930 . S
H704 C717 0.930 . S
H705 C721 0.959 . S
H706 C721 0.959 . S
H707 C721 0.961 . S
H708 C722 0.960 . S
H709 C722 0.961 . S
H710 C722 0.959 . S
H711 C725 0.929 . S
H712 C726 0.931 . S
H713 C728 0.930 . S
C714 H702 0.930 . S
C714 C715 1.399 . S
C714 C719 1.399 . S
C715 C714 1.399 . S
C715 C716 1.376 . S
C716 H703 0.930 . S
C716 C715 1.376 . S
C716 C717 1.388 . S
C717 H704 0.930 . S
C717 C716 1.388 . S
C717 C718 1.390 . S
C718 C717 1.390 . S
C718 C719 1.394 . S
C718 C724 1.465 . S
C719 C714 1.399 . S
C719 C718 1.394 . S
C719 C720 1.516 . S
C720 C719 1.516 . S
C720 C721 1.502 . S
C720 C722 1.561 . S
C720 C723 1.526 . S
C721 H705 0.959 . S
C721 H706 0.959 . S
C721 H707 0.961 . S
C721 C720 1.502 . S
C722 H708 0.960 . S
C722 H709 0.961 . S
C722 H710 0.959 . S
C722 C720 1.561 . S
C723 C720 1.526 . S
C723 C724 1.396 . S
C723 C728 1.390 . S
C724 C718 1.465 . S
C724 C723 1.396 . S
C724 C725 1.399 . S
C725 H711 0.929 . S
C725 C724 1.399 . S
C725 C726 1.385 . S
C726 H712 0.931 . S
C726 C725 1.385 . S
C726 C727 1.389 . S
C727 C726 1.389 . S
C727 C728 1.387 . S
C728 H713 0.930 . S
C728 C723 1.390 . S
C728 C727 1.387 . S
H729 C741 0.930 . S
H730 C743 0.930 . S
H731 C744 0.930 . S
H732 C748 0.959 . S
H733 C748 0.959 . S
H734 C748 0.961 . S
H735 C749 0.960 . S
H736 C749 0.961 . S
H737 C749 0.959 . S
H738 C752 0.929 . S
H739 C753 0.931 . S
H740 C755 0.930 . S
C741 H729 0.930 . S
C741 C742 1.399 . S
C741 C746 1.399 . S
C742 C741 1.399 . S
C742 C743 1.376 . S
C743 H730 0.930 . S
C743 C742 1.376 . S
C743 C744 1.388 . S
C744 H731 0.930 . S
C744 C743 1.388 . S
C744 C745 1.390 . S
C745 C744 1.390 . S
C745 C746 1.394 . S
C745 C751 1.465 . S
C746 C741 1.399 . S
C746 C745 1.394 . S
C746 C747 1.516 . S
C747 C746 1.516 . S
C747 C748 1.502 . S
C747 C749 1.561 . S
C747 C750 1.526 . S
C748 H732 0.959 . S
C748 H733 0.959 . S
C748 H734 0.961 . S
C748 C747 1.502 . S
C749 H735 0.960 . S
C749 H736 0.961 . S
C749 H737 0.959 . S
C749 C747 1.561 . S
C750 C747 1.526 . S
C750 C751 1.396 . S
C750 C755 1.390 . S
C751 C745 1.465 . S
C751 C750 1.396 . S
C751 C752 1.399 . S
C752 H738 0.929 . S
C752 C751 1.399 . S
C752 C753 1.385 1_556 S
C753 H739 0.931 . S
C753 C752 1.385 1_554 S
C753 C754 1.389 . S
C754 C753 1.389 . S
C754 C755 1.387 1_554 S
C755 H740 0.930 . S
C755 C750 1.390 . S
C755 C754 1.387 1_556 S
H756 C768 0.930 . S
H757 C770 0.930 . S
H758 C771 0.930 . S
H759 C775 0.959 . S
H760 C775 0.959 . S
H761 C775 0.961 . S
H762 C776 0.960 . S
H763 C776 0.961 . S
H764 C776 0.959 . S
H765 C779 0.929 . S
H766 C780 0.931 . S
H767 C782 0.930 . S
C768 H756 0.930 . S
C768 C769 1.399 . S
C768 C773 1.399 . S
C769 C768 1.399 . S
C769 C770 1.376 . S
C770 H757 0.930 . S
C770 C769 1.376 . S
C770 C771 1.388 . S
C771 H758 0.930 . S
C771 C770 1.388 . S
C771 C772 1.390 . S
C772 C771 1.390 . S
C772 C773 1.394 . S
C772 C778 1.465 . S
C773 C768 1.399 . S
C773 C772 1.394 . S
C773 C774 1.516 . S
C774 C773 1.516 . S
C774 C775 1.502 . S
C774 C776 1.561 . S
C774 C777 1.526 . S
C775 H759 0.959 . S
C775 H760 0.959 . S
C775 H761 0.961 . S
C775 C774 1.502 . S
C776 H762 0.960 . S
C776 H763 0.961 . S
C776 H764 0.959 . S
C776 C774 1.561 . S
C777 C774 1.526 . S
C777 C778 1.396 . S
C777 C782 1.390 . S
C778 C772 1.465 . S
C778 C777 1.396 . S
C778 C779 1.399 . S
C779 H765 0.929 . S
C779 C778 1.399 . S
C779 C780 1.385 . S
C780 H766 0.931 . S
C780 C779 1.385 . S
C780 C781 1.389 . S
C781 C780 1.389 . S
C781 C782 1.387 . S
C782 H767 0.930 . S
C782 C777 1.390 . S
C782 C781 1.387 . S
H783 C795 0.930 . S
H784 C797 0.930 . S
H785 C798 0.930 . S
H786 C802 0.959 . S
H787 C802 0.959 . S
H788 C802 0.961 . S
H789 C803 0.960 . S
H790 C803 0.961 . S
H791 C803 0.959 . S
H792 C806 0.929 . S
H793 C807 0.931 . S
H794 C809 0.930 . S
C795 H783 0.930 . S
C795 C796 1.399 . S
C795 C800 1.399 . S
C796 C795 1.399 . S
C796 C797 1.376 . S
C797 H784 0.930 . S
C797 C796 1.376 . S
C797 C798 1.388 . S
C798 H785 0.930 . S
C798 C797 1.388 . S
C798 C799 1.390 . S
C799 C798 1.390 . S
C799 C800 1.394 . S
C799 C805 1.465 . S
C800 C795 1.399 . S
C800 C799 1.394 . S
C800 C801 1.516 . S
C801 C800 1.516 . S
C801 C802 1.502 . S
C801 C803 1.561 . S
C801 C804 1.526 . S
C802 H786 0.959 . S
C802 H787 0.959 . S
C802 H788 0.961 . S
C802 C801 1.502 . S
C803 H789 0.960 . S
C803 H790 0.961 . S
C803 H791 0.959 . S
C803 C801 1.561 . S
C804 C801 1.526 . S
C804 C805 1.396 . S
C804 C809 1.390 . S
C805 C799 1.465 . S
C805 C804 1.396 . S
C805 C806 1.399 . S
C806 H792 0.929 . S
C806 C805 1.399 . S
C806 C807 1.385 . S
C807 H793 0.931 . S
C807 C806 1.385 . S
C807 C808 1.389 . S
C808 C807 1.389 . S
C808 C809 1.387 . S
C809 H794 0.930 . S
C809 C804 1.390 . S
C809 C808 1.387 . S
H810 C822 0.930 . S
H811 C824 0.930 . S
H812 C825 0.930 . S
H813 C829 0.959 . S
H814 C829 0.959 . S
H815 C829 0.961 . S
H816 C830 0.960 . S
H817 C830 0.961 . S
H818 C830 0.959 . S
H819 C833 0.929 . S
H820 C834 0.931 . S
H821 C836 0.930 . S
C822 H810 0.930 . S
C822 C823 1.399 . S
C822 C827 1.399 . S
C823 C822 1.399 . S
C823 C824 1.376 . S
C824 H811 0.930 . S
C824 C823 1.376 . S
C824 C825 1.388 . S
C825 H812 0.930 . S
C825 C824 1.388 . S
C825 C826 1.390 . S
C826 C825 1.390 . S
C826 C827 1.394 . S
C826 C832 1.465 . S
C827 C822 1.399 . S
C827 C826 1.394 . S
C827 C828 1.516 . S
C828 C827 1.516 . S
C828 C829 1.502 . S
C828 C830 1.561 . S
C828 C831 1.526 . S
C829 H813 0.959 . S
C829 H814 0.959 . S
C829 H815 0.961 . S
C829 C828 1.502 . S
C830 H816 0.960 . S
C830 H817 0.961 . S
C830 H818 0.959 . S
C830 C828 1.561 . S
C831 C828 1.526 . S
C831 C832 1.396 . S
C831 C836 1.390 . S
C832 C826 1.465 . S
C832 C831 1.396 . S
C832 C833 1.399 . S
C833 H819 0.929 . S
C833 C832 1.399 . S
C833 C834 1.385 . S
C834 H820 0.931 . S
C834 C833 1.385 . S
C834 C835 1.389 . S
C835 C834 1.389 . S
C835 C836 1.387 . S
C836 H821 0.930 . S
C836 C831 1.390 . S
C836 C835 1.387 . S
H837 C849 0.930 . S
H838 C851 0.930 . S
H839 C852 0.930 . S
H840 C856 0.959 . S
H841 C856 0.959 . S
H842 C856 0.961 . S
H843 C857 0.960 . S
H844 C857 0.961 . S
H845 C857 0.959 . S
H846 C860 0.929 . S
H847 C861 0.931 . S
H848 C863 0.930 . S
C849 H837 0.930 . S
C849 C850 1.399 . S
C849 C854 1.399 . S
C850 C849 1.399 . S
C850 C851 1.376 . S
C851 H838 0.930 . S
C851 C850 1.376 . S
C851 C852 1.388 . S
C852 H839 0.930 . S
C852 C851 1.388 . S
C852 C853 1.390 . S
C853 C852 1.390 . S
C853 C854 1.394 . S
C853 C859 1.465 . S
C854 C849 1.399 . S
C854 C853 1.394 . S
C854 C855 1.516 . S
C855 C854 1.516 . S
C855 C856 1.502 . S
C855 C857 1.561 . S
C855 C858 1.526 . S
C856 H840 0.959 . S
C856 H841 0.959 . S
C856 H842 0.961 . S
C856 C855 1.502 . S
C857 H843 0.960 . S
C857 H844 0.961 . S
C857 H845 0.959 . S
C857 C855 1.561 . S
C858 C855 1.526 . S
C858 C859 1.396 . S
C858 C863 1.390 . S
C859 C853 1.465 . S
C859 C858 1.396 . S
C859 C860 1.399 . S
C860 H846 0.929 . S
C860 C859 1.399 . S
C860 C861 1.385 . S
C861 H847 0.931 . S
C861 C860 1.385 . S
C861 C862 1.389 . S
C862 C861 1.389 . S
C862 C863 1.387 . S
C863 H848 0.930 . S
C863 C858 1.390 . S
C863 C862 1.387 . S
H864 C876 0.930 . S
H865 C878 0.930 . S
H866 C879 0.930 . S
H867 C883 0.959 . S
H868 C883 0.959 . S
H869 C883 0.961 . S
H870 C884 0.960 . S
H871 C884 0.961 . S
H872 C884 0.959 . S
H873 C887 0.929 . S
H874 C888 0.931 . S
H875 C890 0.930 . S
C876 H864 0.930 . S
C876 C877 1.399 . S
C876 C881 1.399 . S
C877 C876 1.399 . S
C877 C878 1.376 . S
C878 H865 0.930 . S
C878 C877 1.376 . S
C878 C879 1.388 . S
C879 H866 0.930 . S
C879 C878 1.388 . S
C879 C880 1.390 . S
C880 C879 1.390 . S
C880 C881 1.394 . S
C880 C886 1.465 . S
C881 C876 1.399 . S
C881 C880 1.394 . S
C881 C882 1.516 . S
C882 C881 1.516 . S
C882 C883 1.502 . S
C882 C884 1.561 . S
C882 C885 1.526 . S
C883 H867 0.959 . S
C883 H868 0.959 . S
C883 H869 0.961 . S
C883 C882 1.502 . S
C884 H870 0.960 . S
C884 H871 0.961 . S
C884 H872 0.959 . S
C884 C882 1.561 . S
C885 C882 1.526 . S
C885 C886 1.396 . S
C885 C890 1.390 . S
C886 C880 1.465 . S
C886 C885 1.396 . S
C886 C887 1.399 . S
C887 H873 0.929 . S
C887 C886 1.399 . S
C887 C888 1.385 . S
C888 H874 0.931 . S
C888 C887 1.385 . S
C888 C889 1.389 . S
C889 C888 1.389 . S
C889 C890 1.387 . S
C890 H875 0.930 . S
C890 C885 1.390 . S
C890 C889 1.387 . S
H891 C903 0.930 . S
H892 C905 0.930 . S
H893 C906 0.930 . S
H894 C910 0.959 . S
H895 C910 0.959 . S
H896 C910 0.961 . S
H897 C911 0.960 . S
H898 C911 0.961 . S
H899 C911 0.959 . S
H900 C914 0.929 . S
H901 C915 0.931 . S
H902 C917 0.930 . S
C903 H891 0.930 . S
C903 C904 1.399 . S
C903 C908 1.399 . S
C904 C903 1.399 . S
C904 C905 1.376 . S
C905 H892 0.930 . S
C905 C904 1.376 . S
C905 C906 1.388 . S
C906 H893 0.930 . S
C906 C905 1.388 . S
C906 C907 1.390 . S
C907 C906 1.390 . S
C907 C908 1.394 . S
C907 C913 1.465 . S
C908 C903 1.399 . S
C908 C907 1.394 . S
C908 C909 1.516 . S
C909 C908 1.516 . S
C909 C910 1.502 . S
C909 C911 1.561 . S
C909 C912 1.526 . S
C910 H894 0.959 . S
C910 H895 0.959 . S
C910 H896 0.961 . S
C910 C909 1.502 . S
C911 H897 0.960 . S
C911 H898 0.961 . S
C911 H899 0.959 . S
C911 C909 1.561 . S
C912 C909 1.526 . S
C912 C913 1.396 . S
C912 C917 1.390 . S
C913 C907 1.465 . S
C913 C912 1.396 . S
C913 C914 1.399 . S
C914 H900 0.929 . S
C914 C913 1.399 . S
C914 C915 1.385 . S
C915 H901 0.931 . S
C915 C914 1.385 . S
C915 C916 1.389 . S
C916 C915 1.389 . S
C916 C917 1.387 . S
C917 H902 0.930 . S
C917 C912 1.390 . S
C917 C916 1.387 . S
H918 C930 0.930 . S
H919 C932 0.930 . S
H920 C933 0.930 . S
H921 C937 0.959 1_556 S
H922 C937 0.959 1_556 S
H923 C937 0.961 . S
H924 C938 0.960 . S
H925 C938 0.961 . S
H926 C938 0.959 . S
H927 C941 0.929 . S
H928 C942 0.931 . S
H929 C944 0.930 . S
C930 H918 0.930 . S
C930 C931 1.399 . S
C930 C935 1.399 . S
C931 C930 1.399 . S
C931 C932 1.376 . S
C932 H919 0.930 . S
C932 C931 1.376 . S
C932 C933 1.388 . S
C933 H920 0.930 . S
C933 C932 1.388 . S
C933 C934 1.390 . S
C934 C933 1.390 . S
C934 C935 1.394 . S
C934 C940 1.465 . S
C935 C930 1.399 . S
C935 C934 1.394 . S
C935 C936 1.516 . S
C936 C935 1.516 . S
C936 C937 1.502 . S
C936 C938 1.561 . S
C936 C939 1.526 . S
C937 H921 0.959 1_554 S
C937 H922 0.959 1_554 S
C937 H923 0.961 . S
C937 C936 1.502 . S
C938 H924 0.960 . S
C938 H925 0.961 . S
C938 H926 0.959 . S
C938 C936 1.561 . S
C939 C936 1.526 . S
C939 C940 1.396 . S
C939 C944 1.390 1_554 S
C940 C934 1.465 . S
C940 C939 1.396 . S
C940 C941 1.399 . S
C941 H927 0.929 . S
C941 C940 1.399 . S
C941 C942 1.385 1_554 S
C942 H928 0.931 . S
C942 C941 1.385 1_556 S
C942 C943 1.389 . S
C943 C942 1.389 . S
C943 C944 1.387 . S
C944 H929 0.930 . S
C944 C939 1.390 1_556 S
C944 C943 1.387 . S
H945 C957 0.930 . S
H946 C959 0.930 . S
H947 C960 0.930 . S
H948 C964 0.959 . S
H949 C964 0.959 . S
H950 C964 0.961 . S
H951 C965 0.960 . S
H952 C965 0.961 . S
H953 C965 0.959 . S
H954 C968 0.929 . S
H955 C969 0.931 . S
H956 C971 0.930 . S
C957 H945 0.930 . S
C957 C958 1.399 . S
C957 C962 1.399 . S
C958 C957 1.399 . S
C958 C959 1.376 . S
C959 H946 0.930 . S
C959 C958 1.376 . S
C959 C960 1.388 . S
C960 H947 0.930 . S
C960 C959 1.388 . S
C960 C961 1.390 . S
C961 C960 1.390 . S
C961 C962 1.394 . S
C961 C967 1.465 . S
C962 C957 1.399 . S
C962 C961 1.394 . S
C962 C963 1.516 . S
C963 C962 1.516 . S
C963 C964 1.502 . S
C963 C965 1.561 . S
C963 C966 1.526 . S
C964 H948 0.959 . S
C964 H949 0.959 . S
C964 H950 0.961 . S
C964 C963 1.502 . S
C965 H951 0.960 . S
C965 H952 0.961 . S
C965 H953 0.959 . S
C965 C963 1.561 . S
C966 C963 1.526 . S
C966 C967 1.396 . S
C966 C971 1.390 . S
C967 C961 1.465 . S
C967 C966 1.396 . S
C967 C968 1.399 . S
C968 H954 0.929 . S
C968 C967 1.399 . S
C968 C969 1.385 . S
C969 H955 0.931 . S
C969 C968 1.385 . S
C969 C970 1.389 . S
C970 C969 1.389 . S
C970 C971 1.387 . S
C971 H956 0.930 . S
C971 C966 1.390 . S
C971 C970 1.387 . S
C349 C291 1.564 . S
C337 C8 1.557 . S
C364 C26 1.522 . S
C376 C111 1.604 . S
C391 C50 1.494 . S
C403 C158 1.531 . S
C418 C68 1.451 . S
C430 C194 1.490 . S
C457 C219 1.557 . S
C445 C80 1.470 . S
C472 C104 1.549 . S
C484 C255 1.561 . S
C499 C32 1.576 . S
C511 C147 1.594 . S
C526 C44 1.532 . S
C538 C183 1.544 . S
C553 C62 1.510 . S
C565 C230 1.492 . S
C592 C266 1.496 . S
C580 C86 1.468 1_554 S
C619 C302 1.544 . S
C607 C98 1.544 . S
C646 C122 1.535 . S
C634 C14 1.561 . S
C661 C7 1.494 . S
C673 C146 1.493 . S
C688 C25 1.482 . S
C700 C182 1.490 . S
C727 C220 1.492 . S
C715 C52 1.445 . S
C742 C70 1.499 . S
C754 C256 1.502 . S
C781 C292 1.464 . S
C769 C79 1.465 . S
C808 C112 1.477 . S
C796 C106 1.382 . S
C835 C290 1.468 . S
C823 C34 1.470 . S
C850 C43 1.419 . S
C862 C110 1.480 . S
C889 C148 1.473 . S
C877 C61 1.471 . S
C904 C88 1.424 . S
C916 C184 1.498 . S
C931 C97 1.470 . S
C943 C218 1.517 . S
C958 C16 1.481 . S
C970 C254 1.534 . S
