# Generated by pormake.
# Topology ftw, (4,12)-cn, num edge types: 1
# Building blocks:
#     Node 0, Type 0, BuildingBlock: NAHDIM_clean_linker_0, # of connection points: 4
#     Node 1, Type 0, BuildingBlock: NAHDIM_clean_linker_0, # of connection points: 4
#     Node 2, Type 0, BuildingBlock: NAHDIM_clean_linker_0, # of connection points: 4
#     Node 3, Type 1, BuildingBlock: QEWDON_clean_sbu_0, # of connection points: 12
#     Edge 4, Type (0, 1), None
#     Edge 5, Type (0, 1), None
#     Edge 6, Type (0, 1), None
#     Edge 7, Type (0, 1), None
#     Edge 8, Type (0, 1), None
#     Edge 9, Type (0, 1), None
#     Edge 10, Type (0, 1), None
#     Edge 11, Type (0, 1), None
#     Edge 12, Type (0, 1), None
#     Edge 13, Type (0, 1), None
#     Edge 14, Type (0, 1), None
#     Edge 15, Type (0, 1), None
# Relax obj value: 0.039
# Max RMSD: 0.111
# Mean RMSD: 0.081
data_MOF--net-ftw--node1-QEWDON_clean_sbu_0--node2-NAHDIM_clean_linker_0--edge1-none
_symmetry_space_group_name_H-M    P1
_symmetry_Int_Tables_number       1
_symmetry_cell_setting            triclinic
loop_
_symmetry_equiv_pos_as_xyz
'x, y, z'
_cell_length_a     20.847317
_cell_length_b     20.370396
_cell_length_c     20.852704
_cell_angle_alpha  90.567551
_cell_angle_beta   89.31495
_cell_angle_gamma 88.995389
loop_
_atom_site_label
_atom_site_type_symbol
_atom_site_fract_x
_atom_site_fract_y
_atom_site_fract_z
_atom_type_partial_charge
C0 C 0.19164 0.82877 0.14463 0.0
C1 C 0.13156 0.78839 0.15445 0.0
C2 C 0.09461 0.73582 0.25109 0.0
C3 C 0.03334 0.7361 0.27877 0.0
C4 C 0.01106 0.68117 0.31191 0.0
C5 C 0.05252 0.62601 0.32002 0.0
C6 C 0.11492 0.62589 0.29216 0.0
C7 C 0.13506 0.68078 0.25753 0.0
C8 C 0.94334 0.68242 0.33839 0.0
C9 C 0.16057 0.56816 0.29942 0.0
C10 C 0.9774 0.12265 0.28502 0.0
C11 C 0.98006 0.16332 0.22374 0.0
C12 C 0.95677 0.27568 0.26249 0.0
C13 C 0.01773 0.28663 0.28865 0.0
C14 C 0.03145 0.34613 0.3195 0.0
C15 C 0.98283 0.39504 0.32634 0.0
C16 C 0.92159 0.38447 0.30008 0.0
C17 C 0.90955 0.32502 0.26812 0.0
C18 C 0.09803 0.35666 0.34502 0.0
C19 C 0.8688 0.4358 0.30627 0.0
C20 C 0.94515 0.30646 0.75823 0.0
C21 C 0.00826 0.31606 0.73652 0.0
C22 C 0.02261 0.36793 0.69515 0.0
C23 C 0.97275 0.41064 0.67475 0.0
C24 C 0.90882 0.39963 0.69484 0.0
C25 C 0.89579 0.34711 0.73584 0.0
C26 C 0.09114 0.37744 0.67355 0.0
C27 C 0.8545 0.44394 0.6737 0.0
C28 C 0.05823 0.91748 0.69456 0.0
C29 C 0.06122 0.87862 0.75691 0.0
C30 C 0.07413 0.76277 0.72256 0.0
C31 C 0.11888 0.71138 0.71505 0.0
C32 C 0.10187 0.6513 0.68733 0.0
C33 C 0.03814 0.64241 0.66704 0.0
C34 C 0.99179 0.69324 0.67679 0.0
C35 C 0.0103 0.7532 0.70405 0.0
C36 C 0.15238 0.59797 0.67811 0.0
C37 C 0.92309 0.68467 0.65684 0.0
C38 C 0.0316 0.56959 0.35951 0.0
C39 C 0.01453 0.51158 0.32808 0.0
C40 C -0.00411 0.45638 0.36258 0.0
C41 C 0.99285 0.4591 0.4304 0.0
C42 C 0.97384 0.40465 0.46662 0.0
C43 C 0.97228 0.40738 0.53339 0.0
C44 C 0.98898 0.46489 0.56654 0.0
C45 C 0.98799 0.46818 0.63441 0.0
C46 C 0.00339 0.52677 0.66571 0.0
C47 C 0.0213 0.58202 0.63111 0.0
C48 C 0.02445 0.57909 0.56337 0.0
C49 C 0.04487 0.63302 0.5273 0.0
C50 C 0.04801 0.62974 0.46073 0.0
C51 C 0.02973 0.57286 0.42738 0.0
C52 C 0.00976 0.5176 0.46284 0.0
C53 C 0.00751 0.52059 0.53096 0.0
C54 C 0.96763 0.1648 0.85712 0.0
C55 C 0.96434 0.23972 0.85315 0.0
O56 O 0.11421 0.78938 0.21874 0.0
O57 O 0.09536 0.82047 0.74682 0.0
O58 O 0.92998 0.25763 0.79934 0.0
O59 O 0.94172 0.21921 0.23087 0.0
H60 H 0.14404 0.73739 0.13823 0.0
H61 H 0.21136 0.81945 0.09572 0.0
H62 H 0.22893 0.81318 0.17921 0.0
H63 H 0.18123 0.8818 0.15236 0.0
H64 H 0.00253 0.77904 0.27319 0.0
H65 H 0.18276 0.6814 0.23634 0.0
H66 H 0.91984 0.63478 0.32922 0.0
H67 H 0.91375 0.72236 0.31715 0.0
H68 H 0.94437 0.69046 0.39106 0.0
H69 H 0.20958 0.57881 0.28125 0.0
H70 H 0.14229 0.52539 0.27224 0.0
H71 H 0.16361 0.55396 0.35059 0.0
H72 H 0.03026 0.17703 0.21393 0.0
H73 H 0.00707 0.07732 0.27897 0.0
H74 H 0.92719 0.10923 0.2967 0.0
H75 H -0.0034 0.15099 0.32604 0.0
H76 H 0.05526 0.2495 0.28522 0.0
H77 H 0.86283 0.31653 0.24766 0.0
H78 H 0.096 0.35947 0.39819 0.0
H79 H 0.11691 0.40395 0.32746 0.0
H80 H 0.13214 0.31656 0.33051 0.0
H81 H 0.82311 0.41921 0.28511 0.0
H82 H 0.88373 0.48134 0.28183 0.0
H83 H 0.86024 0.44831 0.35766 0.0
H84 H 0.01446 0.25726 0.85026 0.0
H85 H 0.04626 0.28275 0.75112 0.0
H86 H 0.84707 0.33851 0.75196 0.0
H87 H 0.09403 0.37711 0.62034 0.0
H88 H 0.12412 0.33876 0.69197 0.0
H89 H 0.10776 0.42603 0.6905 0.0
H90 H 0.80723 0.428 0.69246 0.0
H91 H 0.85294 0.44481 0.62051 0.0
H92 H 0.86289 0.49491 0.69061 0.0
H93 H 0.01185 0.86945 0.77487 0.0
H94 H 0.03406 0.96587 0.70308 0.0
H95 H 0.0306 0.89015 0.65812 0.0
H96 H 0.1073 0.9257 0.67514 0.0
H97 H 0.16786 0.7191 0.72988 0.0
H98 H 0.97486 0.79228 0.70966 0.0
H99 H 0.15779 0.58569 0.6263 0.0
H100 H 0.13709 0.55282 0.70301 0.0
H101 H 0.19979 0.61253 0.69683 0.0
H102 H 0.8916 0.7264 0.67284 0.0
H103 H 0.90409 0.63856 0.67703 0.0
H104 H 0.92099 0.68049 0.60378 0.0
H105 H 0.01673 0.50899 0.27609 0.0
H106 H 0.96014 0.35915 0.44374 0.0
H107 H 0.95763 0.36389 0.55872 0.0
H108 H 0.00218 0.52916 0.71773 0.0
H109 H 0.05908 0.67838 0.5501 0.0
H110 H 0.0648 0.67262 0.4358 0.0
H111 H 0.91989 0.14343 0.84852 0.0
H112 H 0.98585 0.149 0.9045 0.0
H113 H 0.00096 0.14513 0.81936 0.0
C114 C 0.8946 0.02441 0.7318 0.0
C115 C 0.85174 0.00251 0.78765 0.0
C116 C 0.75073 0.9791 0.73191 0.0
C117 C 0.71279 0.92871 0.70826 0.0
C118 C 0.6574 0.94231 0.67282 0.0
C119 C 0.63961 0.0083 0.66041 0.0
C120 C 0.6775 0.05977 0.68445 0.0
C121 C 0.73252 0.04475 0.72023 0.0
C122 C 0.61773 0.88608 0.64883 0.0
C123 C 0.65973 0.13065 0.67238 0.0
C124 C 0.14514 0.08982 0.76369 0.0
C125 C 0.20189 0.0878 0.80973 0.0
C126 C 0.30144 0.1024 0.74604 0.0
C127 C 0.34586 0.14879 0.72623 0.0
C128 C 0.3986 0.13111 0.68691 0.0
C129 C 0.40797 0.06474 0.66778 0.0
C130 C 0.36349 0.01717 0.68787 0.0
C131 C 0.30999 0.0366 0.72569 0.0
C132 C 0.44461 0.18344 0.66621 0.0
C133 C 0.37267 0.94568 0.66968 0.0
C134 C 0.27317 0.97851 0.26919 0.0
C135 C 0.29356 0.04303 0.27972 0.0
C136 C 0.35395 0.055 0.30626 0.0
C137 C 0.39374 0.00129 0.32399 0.0
C138 C 0.37396 0.9363 0.3111 0.0
C139 C 0.31432 0.92595 0.28275 0.0
C140 C 0.37488 0.12487 0.31605 0.0
C141 C 0.41547 0.87754 0.32754 0.0
C142 C 0.90125 0.96132 0.25489 0.0
C143 C 0.84827 0.93331 0.21321 0.0
C144 C 0.74424 0.98548 0.23723 0.0
C145 C 0.71943 0.04799 0.25231 0.0
C146 C 0.66299 0.056 0.28933 0.0
C147 C 0.63056 -9e-05 0.31144 0.0
C148 C 0.65395 0.93653 0.29399 0.0
C149 C 0.70994 0.93001 0.25629 0.0
C150 C 0.63818 0.12432 0.3052 0.0
C151 C 0.61958 0.87557 0.31474 0.0
C152 C 0.58029 0.02303 0.62385 0.0
C153 C 0.52373 0.03656 0.65865 0.0
C154 C 0.46504 0.04553 0.6278 0.0
C155 C 0.46209 0.03829 0.5603 0.0
C156 C 0.40338 0.04196 0.52793 0.0
C157 C 0.40079 0.03216 0.46186 0.0
C158 C 0.45716 0.02216 0.42499 0.0
C159 C 0.4551 0.01224 0.35773 0.0
C160 C 0.51229 0.00657 0.32222 0.0
C161 C 0.57188 0.00744 0.35229 0.0
C162 C 0.57471 0.01263 0.42 0.0
C163 C 0.63346 0.00871 0.4524 0.0
C164 C 0.63545 0.01173 0.51915 0.0
C165 C 0.57894 0.02059 0.556 0.0
C166 C 0.51942 0.02682 0.52425 0.0
C167 C 0.51714 0.02102 0.45631 0.0
C168 C 0.10614 0.95223 0.27843 0.0
C169 C 0.15838 0.00028 0.25915 0.0
O170 O 0.80414 0.96181 0.76524 0.0
O171 O 0.80062 0.98049 0.20377 0.0
O172 O 0.21439 0.96509 0.24577 0.0
O173 O 0.25199 0.12374 0.78472 0.0
H174 H 0.83067 0.0465 0.81254 0.0
H175 H 0.86675 0.05465 0.69764 0.0
H176 H 0.91481 0.98096 0.70544 0.0
H177 H 0.93465 0.05459 0.74971 0.0
H178 H 0.72694 0.87829 0.71763 0.0
H179 H 0.76079 0.08455 0.73867 0.0
H180 H 0.56719 0.89265 0.66542 0.0
H181 H 0.63615 0.83773 0.66547 0.0
H182 H 0.61781 0.88571 0.59559 0.0
H183 H 0.69698 0.16483 0.6894 0.0
H184 H 0.61381 0.14304 0.69752 0.0
H185 H 0.65234 0.13838 0.62032 0.0
H186 H 0.21651 0.03589 0.81719 0.0
H187 H 0.10398 0.06263 0.78392 0.0
H188 H 0.15934 0.06635 0.71724 0.0
H189 H 0.1297 0.14138 0.75469 0.0
H190 H 0.33893 0.19939 0.74175 0.0
H191 H 0.27574 -0.00018 0.73901 0.0
H192 H 0.45222 0.18113 0.61342 0.0
H193 H 0.49179 0.17459 0.68897 0.0
H194 H 0.4272 0.23359 0.67979 0.0
H195 H 0.33793 0.91378 0.69476 0.0
H196 H 0.42211 0.9288 0.68122 0.0
H197 H 0.36648 0.93942 0.61721 0.0
H198 H 0.16468 0.03452 0.30052 0.0
H199 H 0.26259 0.08395 0.26688 0.0
H200 H 0.29852 0.87646 0.27302 0.0
H201 H 0.37528 0.13666 0.36811 0.0
H202 H 0.34249 0.16066 0.29212 0.0
H203 H 0.42446 0.1309 0.29717 0.0
H204 H 0.3894 0.83066 0.32278 0.0
H205 H 0.43347 0.88194 0.37727 0.0
H206 H 0.45757 0.87543 0.29454 0.0
H207 H 0.82955 0.89019 0.23913 0.0
H208 H 0.93546 0.92159 0.26872 0.0
H209 H 0.8802 0.9836 0.29937 0.0
H210 H 0.92838 -0.00096 0.22873 0.0
H211 H 0.74523 0.09059 0.23606 0.0
H212 H 0.72609 0.88143 0.24132 0.0
H213 H 0.63674 0.13165 0.35803 0.0
H214 H 0.58836 0.1304 0.28766 0.0
H215 H 0.66835 0.16291 0.28356 0.0
H216 H 0.64781 0.83002 0.30363 0.0
H217 H 0.57315 0.87297 0.28954 0.0
H218 H 0.60912 0.87755 0.36706 0.0
H219 H 0.52537 0.03997 0.71057 0.0
H220 H 0.35854 0.05083 0.55352 0.0
H221 H 0.35399 0.03349 0.43998 0.0
H222 H 0.51036 -0.00033 0.27061 0.0
H223 H 0.67849 0.00219 0.42653 0.0
H224 H 0.68191 0.00759 0.54156 0.0
H225 H 0.06172 0.97905 0.29369 0.0
H226 H 0.12269 0.92203 0.31931 0.0
H227 H 0.09466 0.91887 0.23789 0.0
C228 C 0.94246 0.68662 0.87611 0.0
C229 C 0.88726 0.70057 0.92356 0.0
C230 C 0.8058 0.63153 0.96795 0.0
C231 C 0.79132 0.62446 0.03307 0.0
C232 C 0.72761 0.61786 0.05417 0.0
C233 C 0.67803 0.61503 0.00848 0.0
C234 C 0.69328 0.61875 0.94216 0.0
C235 C 0.75704 0.62818 0.92276 0.0
C236 C 0.71328 0.61433 0.12514 0.0
C237 C 0.64249 0.61367 0.89151 0.0
C238 C 0.26626 0.81602 0.93386 0.0
C239 C 0.29163 0.88042 0.96311 0.0
C240 C 0.37588 0.82621 0.02565 0.0
C241 C 0.41351 0.80488 0.973 0.0
C242 C 0.45616 0.7514 0.97826 0.0
C243 C 0.46541 0.72198 0.03888 0.0
C244 C 0.43426 0.74986 0.09385 0.0
C245 C 0.38867 0.80074 0.0862 0.0
C246 C 0.48959 0.72585 0.91819 0.0
C247 C 0.44685 0.72462 0.16039 0.0
C248 C 0.19444 0.38093 0.11989 0.0
C249 C 0.22217 0.37132 0.05858 0.0
C250 C 0.28766 0.3822 0.0477 0.0
C251 C 0.32649 0.40233 0.09921 0.0
C252 C 0.29888 0.41176 0.16102 0.0
C253 C 0.23306 0.40121 0.1704 0.0
C254 C 0.31548 0.37177 0.98112 0.0
C255 C 0.33899 0.43244 0.21722 0.0
C256 C 0.67542 0.06028 0.97562 0.0
C257 C 0.70552 0.11535 0.01485 0.0
C258 C 0.62315 0.18681 0.06552 0.0
C259 C 0.6001 0.21577 0.00922 0.0
C260 C 0.55861 0.27073 0.01225 0.0
C261 C 0.54087 0.29802 0.07275 0.0
C262 C 0.56231 0.2676 0.12951 0.0
C263 C 0.60267 0.21186 0.12503 0.0
C264 C 0.5345 0.30018 0.9507 0.0
C265 C 0.54371 0.29474 0.19483 0.0
C266 C 0.61025 0.60806 0.02961 0.0
C267 C 0.57114 0.66449 0.03207 0.0
C268 C 0.50506 0.66069 0.04373 0.0
C269 C 0.47727 0.59859 0.05456 0.0
C270 C 0.41061 0.59185 0.06311 0.0
C271 C 0.38402 0.5308 0.07466 0.0
C272 C 0.42286 0.47379 0.0771 0.0
C273 C 0.39635 0.41143 0.08863 0.0
C274 C 0.43613 0.35545 0.08818 0.0
C275 C 0.50201 0.35978 0.07638 0.0
C276 C 0.52958 0.42179 0.06599 0.0
C277 C 0.59578 0.42788 0.05437 0.0
C278 C 0.6222 0.4887 0.04208 0.0
C279 C 0.58378 0.54613 0.04256 0.0
C280 C 0.51708 0.5414 0.05519 0.0
C281 C 0.48986 0.47901 0.06648 0.0
C282 C 0.01887 0.37043 0.11716 0.0
C283 C 0.08493 0.35271 0.08898 0.0
O284 O 0.8671 0.64179 0.94914 0.0
O285 O 0.66467 0.13466 0.06469 0.0
O286 O 0.13121 0.37075 0.13257 0.0
O287 O 0.32517 0.86853 0.01918 0.0
H288 H 0.84777 0.72534 0.89699 0.0
H289 H 0.92636 0.65275 0.83767 0.0
H290 H 0.98391 0.66347 0.90079 0.0
H291 H 0.95819 0.73276 0.85319 0.0
H292 H 0.82982 0.62605 0.06745 0.0
H293 H 0.76917 0.63258 0.87232 0.0
H294 H 0.67578 0.65143 0.13881 0.0
H295 H 0.75653 0.62279 0.15451 0.0
H296 H 0.69429 0.56525 0.13676 0.0
H297 H 0.6636 0.6012 0.84365 0.0
H298 H 0.61715 0.6617 0.88783 0.0
H299 H 0.6066 0.57613 0.90406 0.0
H300 H 0.32267 0.90516 0.92731 0.0
H301 H 0.23435 0.8265 0.89272 0.0
H302 H 0.23874 0.78845 0.97046 0.0
H303 H 0.30539 0.78366 0.91494 0.0
H304 H 0.40731 0.82764 0.92675 0.0
H305 H 0.36126 0.81923 0.12726 0.0
H306 H 0.49155 0.67135 0.91692 0.0
H307 H 0.5394 0.74411 0.91734 0.0
H308 H 0.46554 0.7432 0.87405 0.0
H309 H 0.43589 0.76293 0.19744 0.0
H310 H 0.49754 0.708 0.16539 0.0
H311 H 0.41553 0.68227 0.16999 0.0
H312 H 0.08993 0.38119 0.04396 0.0
H313 H 0.19333 0.35502 0.01893 0.0
H314 H 0.21139 0.40838 0.21754 0.0
H315 H 0.34279 0.41554 0.96632 0.0
H316 H 0.27794 0.3622 0.94501 0.0
H317 H 0.34951 0.32923 0.98122 0.0
H318 H 0.31091 0.43446 0.26284 0.0
H319 H 0.35891 0.48173 0.20822 0.0
H320 H 0.38013 0.39765 0.2227 0.0
H321 H 0.71627 0.15739 0.98299 0.0
H322 H 0.70815 0.04469 0.93562 0.0
H323 H 0.62948 0.07758 0.95476 0.0
H324 H 0.66557 0.01724 0.00636 0.0
H325 H 0.61402 0.19566 0.9628 0.0
H326 H 0.61993 0.1885 0.16814 0.0
H327 H 0.55806 0.34786 0.94256 0.0
H328 H 0.48196 0.30982 0.95406 0.0
H329 H 0.54472 0.26775 0.90852 0.0
H330 H 0.56701 0.2672 0.23424 0.0
H331 H 0.49088 0.29245 0.20145 0.0
H332 H 0.55718 0.34714 0.19847 0.0
H333 H 0.59208 0.71182 0.02238 0.0
H334 H 0.378 0.63363 0.06087 0.0
H335 H 0.33251 0.5288 0.08131 0.0
H336 H 0.41534 0.30767 0.09597 0.0
H337 H 0.62795 0.38558 0.05406 0.0
H338 H 0.6733 0.49007 0.03251 0.0
H339 H 0.98055 0.35591 0.08352 0.0
H340 H 0.01493 0.42428 0.12567 0.0
H341 H 0.01139 0.34545 0.16349 0.0
Zn342 Zn 0.10802 0.16579 0.98232 0.0
Zn343 Zn 0.0896 0.13913 0.12444 0.0
O344 O 0.14015 0.10325 0.05004 0.0
H345 H 0.1825 0.08327 0.05133 0.0
C346 C 0.93337 0.27245 0.91115 0.0
O347 O 0.94845 0.33324 0.92506 0.0
Zn348 Zn 0.94523 0.80698 0.0741 0.0
Zn349 Zn 0.96309 0.85478 0.89127 0.0
O350 O 0.96193 0.86901 0.99596 0.0
H351 H 0.97104 0.91377 0.00825 0.0
Zn352 Zn 0.85726 0.1493 0.93812 0.0
O353 O 0.89531 0.07906 0.0071 0.0
Zn354 Zn 0.86515 0.04473 0.09637 0.0
H355 H 0.93505 0.05885 0.9921 0.0
Zn356 Zn 0.11608 0.99151 0.92272 0.0
O357 O 0.07055 -0.00101 0.00866 0.0
H358 H 0.03675 0.03013 0.01971 0.0
Zn359 Zn 0.12117 0.94823 0.07207 0.0
C360 C 0.09533 0.91769 0.80672 0.0
O361 O 0.15832 0.91711 0.80764 0.0
O362 O 0.09377 0.26062 0.01684 0.0
O363 O 0.09058 0.23968 0.12184 0.0
O364 O 0.93384 0.80044 0.96594 0.0
O365 O 0.90068 0.73034 0.03525 0.0
O366 O 0.8213 0.1029 0.01544 0.0
O367 O 0.76919 0.05781 0.09309 0.0
C368 C 0.13851 0.03829 0.20125 0.0
O369 O 0.20679 0.95129 0.93032 0.0
O370 O 0.20684 0.91997 0.03231 0.0
O371 O 0.89803 0.90387 0.83241 0.0
C372 C 0.08992 0.28009 0.07517 0.0
O373 O 0.1309 0.14327 0.88689 0.0
C374 C 0.87604 0.90904 0.15037 0.0
O375 O 0.89117 0.24453 0.94556 0.0
C376 C 0.90802 0.74546 0.97686 0.0
O377 O 0.06388 0.9487 0.85022 0.0
C378 C 0.95798 0.12357 0.16724 0.0
O379 O 0.12743 0.09982 0.20508 0.0
O380 O 0.12991 0.00931 0.14792 0.0
C381 C 0.76763 0.09185 0.04261 0.0
O382 O 0.89376 0.84917 0.14601 0.0
O383 O 0.88789 0.9477 0.10423 0.0
C384 C 0.07448 0.81125 0.11636 0.0
O385 O 0.90107 0.10192 0.16668 0.0
O386 O -0.00325 0.10952 0.12119 0.0
C387 C 0.23407 0.92353 0.97738 0.0
O388 O 0.06931 0.86758 0.09068 0.0
O389 O 0.02668 0.77382 0.1136 0.0
C390 C 0.8924 0.9661 0.83514 0.0
O391 O 0.92676 -0.00095 0.87638 0.0
C392 C 0.18449 0.11437 0.87542 0.0
O393 O 0.22425 0.10438 0.92284 0.0
loop_
_geom_bond_atom_site_label_1
_geom_bond_atom_site_label_2
_geom_bond_distance
_geom_bond_site_symmetry_2
_ccdc_geom_bond_type
C0 C1 1.560 . S
C0 H61 0.959 . S
C0 H62 0.959 . S
C0 H63 0.960 . S
C1 C0 1.560 . S
C1 O56 1.426 . S
C1 H60 0.980 . S
C2 C3 1.407 1_455 S
C2 C7 1.418 . S
C2 O56 1.334 . S
C3 C2 1.407 1_655 S
C3 C4 1.360 . S
C3 H64 0.929 . S
C4 C3 1.360 . S
C4 C5 1.401 1_655 S
C4 C8 1.527 . S
C5 C4 1.401 1_455 S
C5 C6 1.405 . S
C5 C38 1.587 1_455 S
C6 C5 1.405 . S
C6 C7 1.332 . S
C6 C9 1.496 . S
C7 C2 1.418 . S
C7 C6 1.332 . S
C7 H65 0.929 . S
C8 C4 1.527 . S
C8 H66 0.959 . S
C8 H67 0.961 . S
C8 H68 0.961 . S
C9 C6 1.496 . S
C9 H69 0.960 . S
C9 H70 0.960 . S
C9 H71 0.961 . S
C10 C11 1.517 . S
C10 H73 0.961 1_655 S
C10 H74 0.960 . S
C10 H75 0.959 . S
C11 C10 1.517 . S
C11 O59 1.468 . S
C11 H72 0.980 1_655 S
C12 C13 1.349 1_655 S
C12 C17 1.367 . S
C12 O59 1.408 . S
C13 C12 1.349 1_455 S
C13 C14 1.407 . S
C13 H76 0.930 . S
C14 C13 1.407 . S
C14 C15 1.449 1_455 S
C14 C18 1.535 . S
C15 C14 1.449 1_655 S
C15 C16 1.384 . S
C15 C40 1.553 . S
C16 C15 1.384 . S
C16 C17 1.364 . S
C16 C19 1.450 . S
C17 C12 1.367 . S
C17 C16 1.364 . S
C17 H77 0.931 . S
C18 C14 1.535 . S
C18 H78 0.959 . S
C18 H79 0.961 . S
C18 H80 0.959 . S
C19 C16 1.450 . S
C19 H81 0.960 . S
C19 H82 0.960 . S
C19 H83 0.960 . S
C20 C21 1.309 1_655 S
C20 C25 1.304 . S
C20 O58 1.435 . S
C21 C20 1.309 1_455 S
C21 C22 1.476 . S
C21 H85 0.930 . S
C22 C21 1.476 . S
C22 C23 1.400 1_455 S
C22 C26 1.567 . S
C23 C22 1.400 1_655 S
C23 C24 1.373 . S
C23 C45 1.432 . S
C24 C23 1.373 . S
C24 C25 1.339 . S
C24 C27 1.530 . S
C25 C20 1.304 . S
C25 C24 1.339 . S
C25 H86 0.930 . S
C26 C22 1.567 . S
C26 H87 0.961 . S
C26 H88 0.960 . S
C26 H89 0.958 . S
C27 C24 1.530 . S
C27 H90 0.961 . S
C27 H91 0.960 . S
C27 H92 0.960 . S
C28 C29 1.530 . S
C28 H94 0.961 . S
C28 H95 0.961 . S
C28 H96 0.959 . S
C29 C28 1.530 . S
C29 O57 1.412 . S
C29 H93 0.980 . S
C30 C31 1.288 . S
C30 C35 1.377 1_455 S
C30 O57 1.393 . S
C31 C30 1.288 . S
C31 C32 1.369 . S
C31 H97 0.932 . S
C32 C31 1.369 . S
C32 C33 1.398 . S
C32 C36 1.527 . S
C33 C32 1.398 . S
C33 C34 1.380 1_455 S
C33 C47 1.497 . S
C34 C33 1.380 1_655 S
C34 C35 1.383 . S
C34 C37 1.603 . S
C35 C30 1.377 1_655 S
C35 C34 1.383 . S
C35 H98 0.929 . S
C36 C32 1.527 . S
C36 H99 0.961 . S
C36 H100 0.959 . S
C36 H101 0.959 . S
C37 C34 1.603 . S
C37 H102 0.960 . S
C37 H103 0.962 . S
C37 H104 0.961 . S
C38 C5 1.587 1_655 S
C38 C39 1.360 . S
C38 C51 1.412 . S
C39 C38 1.360 . S
C39 C40 1.365 . S
C39 H105 0.929 . S
C40 C15 1.553 . S
C40 C39 1.365 . S
C40 C41 1.404 . S
C41 C40 1.404 . S
C41 C42 1.395 . S
C41 C52 1.451 . S
C42 C41 1.395 . S
C42 C43 1.322 . S
C42 H106 0.930 . S
C43 C42 1.322 . S
C43 C44 1.459 . S
C43 H107 0.929 . S
C44 C43 1.459 . S
C44 C45 1.445 . S
C44 C53 1.395 . S
C45 C23 1.432 . S
C45 C44 1.445 . S
C45 C46 1.370 1_655 S
C46 C45 1.370 1_455 S
C46 C47 1.438 . S
C46 H108 0.930 . S
C47 C33 1.497 . S
C47 C46 1.438 . S
C47 C48 1.360 . S
C48 C47 1.360 . S
C48 C49 1.401 . S
C48 C53 1.446 1_455 S
C49 C48 1.401 . S
C49 C50 1.347 . S
C49 H109 0.929 . S
C50 C49 1.347 . S
C50 C51 1.455 1_455 S
C50 H110 0.930 . S
C51 C38 1.412 . S
C51 C50 1.455 1_655 S
C51 C52 1.331 . S
C52 C41 1.451 . S
C52 C51 1.331 . S
C52 C53 1.497 . S
C53 C44 1.395 . S
C53 C48 1.446 1_655 S
C53 C52 1.497 . S
C54 C55 1.582 1_655 S
C54 H111 0.964 . S
C54 H112 0.959 . S
C54 H113 0.958 . S
C55 C54 1.582 1_455 S
C55 O58 1.458 1_455 S
C55 H84 0.980 . S
O56 C1 1.426 . S
O56 C2 1.334 . S
O57 C29 1.412 . S
O57 C30 1.393 . S
O58 C20 1.435 . S
O58 C55 1.458 1_655 S
O59 C11 1.468 . S
O59 C12 1.408 . S
H60 C1 0.980 . S
H61 C0 0.959 . S
H62 C0 0.959 . S
H63 C0 0.960 . S
H64 C3 0.929 . S
H65 C7 0.929 . S
H66 C8 0.959 . S
H67 C8 0.961 . S
H68 C8 0.961 . S
H69 C9 0.960 . S
H70 C9 0.960 . S
H71 C9 0.961 . S
H72 C11 0.980 1_455 S
H73 C10 0.961 1_455 S
H74 C10 0.960 . S
H75 C10 0.959 . S
H76 C13 0.930 . S
H77 C17 0.931 . S
H78 C18 0.959 . S
H79 C18 0.961 . S
H80 C18 0.959 . S
H81 C19 0.960 . S
H82 C19 0.960 . S
H83 C19 0.960 . S
H84 C55 0.980 . S
H85 C21 0.930 . S
H86 C25 0.930 . S
H87 C26 0.961 . S
H88 C26 0.960 . S
H89 C26 0.958 . S
H90 C27 0.961 . S
H91 C27 0.960 . S
H92 C27 0.960 . S
H93 C29 0.980 . S
H94 C28 0.961 . S
H95 C28 0.961 . S
H96 C28 0.959 . S
H97 C31 0.932 . S
H98 C35 0.929 . S
H99 C36 0.961 . S
H100 C36 0.959 . S
H101 C36 0.959 . S
H102 C37 0.960 . S
H103 C37 0.962 . S
H104 C37 0.961 . S
H105 C39 0.929 . S
H106 C42 0.930 . S
H107 C43 0.929 . S
H108 C46 0.930 . S
H109 C49 0.929 . S
H110 C50 0.930 . S
H111 C54 0.964 . S
H112 C54 0.959 . S
H113 C54 0.958 . S
C114 C115 1.560 . S
C114 H175 0.959 . S
C114 H176 0.959 . S
C114 H177 0.960 . S
C115 C114 1.560 . S
C115 O170 1.426 . S
C115 H174 0.980 . S
C116 C117 1.407 1_545 S
C116 C121 1.418 . S
C116 O170 1.334 . S
C117 C116 1.407 1_565 S
C117 C118 1.360 . S
C117 H178 0.929 . S
C118 C117 1.360 . S
C118 C119 1.401 1_565 S
C118 C122 1.527 . S
C119 C118 1.401 1_545 S
C119 C120 1.405 . S
C119 C152 1.587 1_545 S
C120 C119 1.405 . S
C120 C121 1.332 . S
C120 C123 1.496 . S
C121 C116 1.418 . S
C121 C120 1.332 . S
C121 H179 0.929 . S
C122 C118 1.527 . S
C122 H180 0.959 . S
C122 H181 0.961 . S
C122 H182 0.961 . S
C123 C120 1.496 . S
C123 H183 0.960 . S
C123 H184 0.960 . S
C123 H185 0.961 . S
C124 C125 1.517 . S
C124 H187 0.973 . S
C124 H188 0.960 . S
C124 H189 0.959 . S
C125 C124 1.517 . S
C125 O173 1.468 . S
C125 H186 0.980 1_565 S
C126 C127 1.362 . S
C126 C131 1.367 . S
C126 O173 1.408 . S
C127 C126 1.362 . S
C127 C128 1.405 1_565 S
C127 H190 0.920 1_565 S
C128 C127 1.405 1_545 S
C128 C129 1.449 1_545 S
C128 C132 1.535 . S
C129 C128 1.449 1_565 S
C129 C130 1.384 . S
C129 C154 1.553 . S
C130 C129 1.384 . S
C130 C131 1.364 . S
C130 C133 1.450 . S
C131 C126 1.367 . S
C131 C130 1.364 . S
C131 H191 0.931 . S
C132 C128 1.535 . S
C132 H192 0.959 . S
C132 H193 0.961 . S
C132 H194 0.959 . S
C133 C130 1.450 . S
C133 H195 0.960 . S
C133 H196 0.960 . S
C133 H197 0.960 . S
C134 C135 1.309 1_565 S
C134 C139 1.304 . S
C134 O172 1.435 . S
C135 C134 1.309 1_545 S
C135 C136 1.476 . S
C135 H199 0.930 . S
C136 C135 1.476 . S
C136 C137 1.400 1_545 S
C136 C140 1.567 . S
C137 C136 1.400 1_565 S
C137 C138 1.373 . S
C137 C159 1.432 . S
C138 C137 1.373 . S
C138 C139 1.339 . S
C138 C141 1.530 . S
C139 C134 1.304 . S
C139 C138 1.339 . S
C139 H200 0.930 . S
C140 C136 1.567 . S
C140 H201 0.961 . S
C140 H202 0.960 . S
C140 H203 0.958 . S
C141 C138 1.530 . S
C141 H204 0.961 . S
C141 H205 0.960 . S
C141 H206 0.960 . S
C142 C143 1.530 . S
C142 H208 0.961 . S
C142 H209 0.961 . S
C142 H210 0.959 . S
C143 C142 1.530 . S
C143 O171 1.412 . S
C143 H207 0.980 . S
C144 C145 1.288 . S
C144 C149 1.377 1_545 S
C144 O171 1.393 . S
C145 C144 1.288 . S
C145 C146 1.369 . S
C145 H211 0.932 . S
C146 C145 1.369 . S
C146 C147 1.398 . S
C146 C150 1.527 . S
C147 C146 1.398 . S
C147 C148 1.380 1_545 S
C147 C161 1.497 . S
C148 C147 1.380 1_565 S
C148 C149 1.383 . S
C148 C151 1.603 . S
C149 C144 1.377 1_565 S
C149 C148 1.383 . S
C149 H212 0.929 . S
C150 C146 1.527 . S
C150 H213 0.961 . S
C150 H214 0.959 . S
C150 H215 0.959 . S
C151 C148 1.603 . S
C151 H216 0.960 . S
C151 H217 0.962 . S
C151 H218 0.961 . S
C152 C119 1.587 1_565 S
C152 C153 1.360 . S
C152 C165 1.412 . S
C153 C152 1.360 . S
C153 C154 1.365 . S
C153 H219 0.929 . S
C154 C129 1.553 . S
C154 C153 1.365 . S
C154 C155 1.404 . S
C155 C154 1.404 . S
C155 C156 1.395 . S
C155 C166 1.451 . S
C156 C155 1.395 . S
C156 C157 1.322 . S
C156 H220 0.930 . S
C157 C156 1.322 . S
C157 C158 1.459 . S
C157 H221 0.929 . S
C158 C157 1.459 . S
C158 C159 1.445 . S
C158 C167 1.395 . S
C159 C137 1.432 . S
C159 C158 1.445 . S
C159 C160 1.370 . S
C160 C159 1.370 . S
C160 C161 1.438 1_565 S
C160 H222 0.930 . S
C161 C147 1.497 . S
C161 C160 1.438 1_545 S
C161 C162 1.360 1_545 S
C162 C161 1.360 1_565 S
C162 C163 1.401 1_565 S
C162 C167 1.446 . S
C163 C162 1.401 1_545 S
C163 C164 1.347 . S
C163 H223 0.929 . S
C164 C163 1.347 . S
C164 C165 1.455 1_545 S
C164 H224 0.930 . S
C165 C152 1.412 . S
C165 C164 1.455 1_565 S
C165 C166 1.331 . S
C166 C155 1.451 . S
C166 C165 1.331 . S
C166 C167 1.497 . S
C167 C158 1.395 . S
C167 C162 1.446 . S
C167 C166 1.497 . S
C168 C169 1.582 1_565 S
C168 H225 0.962 . S
C168 H226 0.959 . S
C168 H227 0.958 . S
C169 C168 1.582 1_545 S
C169 O172 1.458 1_545 S
C169 H198 0.980 . S
O170 C115 1.426 . S
O170 C116 1.334 . S
O171 C143 1.412 . S
O171 C144 1.393 . S
O172 C134 1.435 . S
O172 C169 1.458 1_565 S
O173 C125 1.468 . S
O173 C126 1.408 . S
H174 C115 0.980 . S
H175 C114 0.959 . S
H176 C114 0.959 . S
H177 C114 0.960 . S
H178 C117 0.929 . S
H179 C121 0.929 . S
H180 C122 0.959 . S
H181 C122 0.961 . S
H182 C122 0.961 . S
H183 C123 0.960 . S
H184 C123 0.960 . S
H185 C123 0.961 . S
H186 C125 0.980 1_545 S
H187 C124 0.973 . S
H188 C124 0.960 . S
H189 C124 0.959 . S
H190 C127 0.920 1_545 S
H191 C131 0.931 . S
H192 C132 0.959 . S
H193 C132 0.961 . S
H194 C132 0.959 . S
H195 C133 0.960 . S
H196 C133 0.960 . S
H197 C133 0.960 . S
H198 C169 0.980 . S
H199 C135 0.930 . S
H200 C139 0.930 . S
H201 C140 0.961 . S
H202 C140 0.960 . S
H203 C140 0.958 . S
H204 C141 0.961 . S
H205 C141 0.960 . S
H206 C141 0.960 . S
H207 C143 0.980 . S
H208 C142 0.961 . S
H209 C142 0.961 . S
H210 C142 0.959 . S
H211 C145 0.932 . S
H212 C149 0.929 . S
H213 C150 0.961 . S
H214 C150 0.959 . S
H215 C150 0.959 . S
H216 C151 0.960 . S
H217 C151 0.962 . S
H218 C151 0.961 . S
H219 C153 0.929 . S
H220 C156 0.930 . S
H221 C157 0.929 . S
H222 C160 0.930 . S
H223 C163 0.929 . S
H224 C164 0.930 . S
H225 C168 0.962 . S
H226 C168 0.959 . S
H227 C168 0.958 . S
C228 C229 1.560 . S
C228 H289 0.959 . S
C228 H290 0.959 . S
C228 H291 0.960 . S
C229 C228 1.560 . S
C229 O284 1.426 . S
C229 H288 0.980 1_556 S
C230 C231 1.407 1_556 S
C230 C235 1.418 . S
C230 O284 1.334 . S
C231 C230 1.407 1_554 S
C231 C232 1.360 . S
C231 H292 0.929 . S
C232 C231 1.360 . S
C232 C233 1.401 . S
C232 C236 1.527 . S
C233 C232 1.401 . S
C233 C234 1.405 1_554 S
C233 C266 1.587 . S
C234 C233 1.405 1_556 S
C234 C235 1.332 . S
C234 C237 1.496 . S
C235 C230 1.418 . S
C235 C234 1.332 . S
C235 H293 0.929 . S
C236 C232 1.527 . S
C236 H294 0.959 . S
C236 H295 0.961 . S
C236 H296 0.961 . S
C237 C234 1.496 . S
C237 H297 0.960 . S
C237 H298 0.960 . S
C237 H299 0.961 . S
C238 C239 1.517 . S
C238 H301 0.961 . S
C238 H302 0.960 . S
C238 H303 0.959 . S
C239 C238 1.517 . S
C239 O287 1.468 . S
C239 H300 0.980 . S
C240 C241 1.349 . S
C240 C245 1.367 . S
C240 O287 1.408 . S
C241 C240 1.349 . S
C241 C242 1.407 . S
C241 H304 0.930 1_554 S
C242 C241 1.407 . S
C242 C243 1.449 . S
C242 C246 1.535 1_554 S
C243 C242 1.449 . S
C243 C244 1.384 . S
C243 C268 1.553 . S
C244 C243 1.384 . S
C244 C245 1.364 . S
C244 C247 1.450 . S
C245 C240 1.367 . S
C245 C244 1.364 . S
C245 H305 0.931 . S
C246 C242 1.535 1_556 S
C246 H306 0.959 . S
C246 H307 0.961 . S
C246 H308 0.959 . S
C247 C244 1.450 . S
C247 H309 0.960 . S
C247 H310 0.960 . S
C247 H311 0.960 . S
C248 C249 1.309 . S
C248 C253 1.304 . S
C248 O286 1.435 . S
C249 C248 1.309 . S
C249 C250 1.476 1_554 S
C249 H313 0.930 1_554 S
C250 C249 1.476 1_556 S
C250 C251 1.400 1_556 S
C250 C254 1.567 . S
C251 C250 1.400 1_554 S
C251 C252 1.373 . S
C251 C273 1.432 . S
C252 C251 1.373 . S
C252 C253 1.339 . S
C252 C255 1.530 . S
C253 C248 1.304 . S
C253 C252 1.339 . S
C253 H314 0.930 . S
C254 C250 1.567 . S
C254 H315 0.961 . S
C254 H316 0.960 . S
C254 H317 0.958 . S
C255 C252 1.530 . S
C255 H318 0.961 . S
C255 H319 0.960 . S
C255 H320 0.960 . S
C256 C257 1.530 . S
C256 H322 0.961 . S
C256 H323 0.961 . S
C256 H324 0.959 . S
C257 C256 1.530 . S
C257 O285 1.412 . S
C257 H321 0.980 1_556 S
C258 C259 1.288 . S
C258 C263 1.377 1_556 S
C258 O285 1.393 . S
C259 C258 1.288 . S
C259 C260 1.369 . S
C259 H325 0.932 . S
C260 C259 1.369 . S
C260 C261 1.398 1_556 S
C260 C264 1.527 . S
C261 C260 1.398 1_554 S
C261 C262 1.380 . S
C261 C275 1.497 . S
C262 C261 1.380 . S
C262 C263 1.383 . S
C262 C265 1.603 . S
C263 C258 1.377 1_554 S
C263 C262 1.383 . S
C263 H326 0.929 . S
C264 C260 1.527 . S
C264 H327 0.961 . S
C264 H328 0.959 . S
C264 H329 0.959 . S
C265 C262 1.603 . S
C265 H330 0.960 . S
C265 H331 0.962 . S
C265 H332 0.961 . S
C266 C233 1.587 . S
C266 C267 1.360 . S
C266 C279 1.412 . S
C267 C266 1.360 . S
C267 C268 1.365 . S
C267 H333 0.929 . S
C268 C243 1.553 . S
C268 C267 1.365 . S
C268 C269 1.404 . S
C269 C268 1.404 . S
C269 C270 1.395 . S
C269 C280 1.451 . S
C270 C269 1.395 . S
C270 C271 1.322 . S
C270 H334 0.930 . S
C271 C270 1.322 . S
C271 C272 1.459 . S
C271 H335 0.929 . S
C272 C271 1.459 . S
C272 C273 1.445 . S
C272 C281 1.395 . S
C273 C251 1.432 . S
C273 C272 1.445 . S
C273 C274 1.370 . S
C274 C273 1.370 . S
C274 C275 1.438 . S
C274 H336 0.930 . S
C275 C261 1.497 . S
C275 C274 1.438 . S
C275 C276 1.360 . S
C276 C275 1.360 . S
C276 C277 1.401 . S
C276 C281 1.446 . S
C277 C276 1.401 . S
C277 C278 1.347 . S
C277 H337 0.929 . S
C278 C277 1.347 . S
C278 C279 1.455 . S
C278 H338 0.930 . S
C279 C266 1.412 . S
C279 C278 1.455 . S
C279 C280 1.331 . S
C280 C269 1.451 . S
C280 C279 1.331 . S
C280 C281 1.497 . S
C281 C272 1.395 . S
C281 C276 1.446 . S
C281 C280 1.497 . S
C282 C283 1.582 . S
C282 H339 0.962 . S
C282 H340 0.959 . S
C282 H341 0.958 . S
C283 C282 1.582 . S
C283 O286 1.458 . S
C283 H312 0.980 . S
O284 C229 1.426 . S
O284 C230 1.334 . S
O285 C257 1.412 . S
O285 C258 1.393 . S
O286 C248 1.435 . S
O286 C283 1.458 . S
O287 C239 1.468 . S
O287 C240 1.408 . S
H288 C229 0.980 1_554 S
H289 C228 0.959 . S
H290 C228 0.959 . S
H291 C228 0.960 . S
H292 C231 0.929 . S
H293 C235 0.929 . S
H294 C236 0.959 . S
H295 C236 0.961 . S
H296 C236 0.961 . S
H297 C237 0.960 . S
H298 C237 0.960 . S
H299 C237 0.961 . S
H300 C239 0.980 . S
H301 C238 0.961 . S
H302 C238 0.960 . S
H303 C238 0.959 . S
H304 C241 0.930 1_556 S
H305 C245 0.931 . S
H306 C246 0.959 . S
H307 C246 0.961 . S
H308 C246 0.959 . S
H309 C247 0.960 . S
H310 C247 0.960 . S
H311 C247 0.960 . S
H312 C283 0.980 . S
H313 C249 0.930 1_556 S
H314 C253 0.930 . S
H315 C254 0.961 . S
H316 C254 0.960 . S
H317 C254 0.958 . S
H318 C255 0.961 . S
H319 C255 0.960 . S
H320 C255 0.960 . S
H321 C257 0.980 1_554 S
H322 C256 0.961 . S
H323 C256 0.961 . S
H324 C256 0.959 . S
H325 C259 0.932 . S
H326 C263 0.929 . S
H327 C264 0.961 . S
H328 C264 0.959 . S
H329 C264 0.959 . S
H330 C265 0.960 . S
H331 C265 0.962 . S
H332 C265 0.961 . S
H333 C267 0.929 . S
H334 C270 0.930 . S
H335 C271 0.929 . S
H336 C274 0.930 . S
H337 C277 0.929 . S
H338 C278 0.930 . S
H339 C282 0.962 . S
H340 C282 0.959 . S
H341 C282 0.958 . S
Zn342 O344 1.933 1_556 S
Zn342 O362 1.985 . S
Zn342 O373 1.955 . S
Zn343 O344 1.911 . S
Zn343 O363 1.970 . S
Zn343 O379 1.945 . S
Zn343 O386 1.981 . S
O344 Zn342 1.933 1_554 S
O344 Zn343 1.911 . S
O344 H345 0.842 . S
H345 O344 0.842 . S
C346 O347 1.246 . S
C346 O375 1.276 1_455 S
O347 C346 1.246 . S
Zn348 O350 1.911 . S
Zn348 O365 1.970 . S
Zn348 O382 1.945 . S
Zn348 O389 1.981 . S
Zn349 O350 1.933 1_556 S
Zn349 O364 1.985 . S
Zn349 O371 1.955 . S
O350 Zn348 1.911 . S
O350 Zn349 1.933 1_554 S
O350 H351 0.841 1_565 S
H351 O350 0.841 1_545 S
Zn352 O353 1.933 1_556 S
Zn352 O366 1.985 . S
Zn352 O375 1.955 . S
O353 Zn352 1.933 1_554 S
O353 Zn354 1.911 . S
O353 H355 0.841 1_655 S
Zn354 O353 1.911 . S
Zn354 O367 1.970 . S
Zn354 O383 1.981 . S
Zn354 O385 1.945 . S
H355 O353 0.841 1_455 S
Zn356 O357 1.933 1_556 S
Zn356 O369 1.985 . S
Zn356 O377 1.955 . S
O357 Zn356 1.933 1_554 S
O357 H358 0.841 . S
O357 Zn359 1.911 . S
H358 O357 0.841 . S
Zn359 O357 1.911 . S
Zn359 O370 1.970 . S
Zn359 O380 1.981 . S
Zn359 O388 1.945 . S
C360 O361 1.246 1_455 S
C360 O377 1.276 . S
O361 C360 1.246 1_655 S
O362 Zn342 1.985 . S
O362 C372 1.245 1_556 S
O363 Zn343 1.970 . S
O363 C372 1.263 . S
O364 Zn349 1.985 . S
O364 C376 1.245 1_556 S
O365 Zn348 1.970 . S
O365 C376 1.263 . S
O366 Zn352 1.985 . S
O366 C381 1.245 1_556 S
O367 Zn354 1.970 . S
O367 C381 1.263 . S
C368 O379 1.262 . S
C368 O380 1.245 1_545 S
O369 Zn356 1.985 . S
O369 C387 1.245 1_556 S
O370 Zn359 1.970 . S
O370 C387 1.263 . S
O371 Zn349 1.955 . S
O371 C390 1.276 1_565 S
C372 O362 1.245 1_554 S
C372 O363 1.263 . S
O373 Zn342 1.955 . S
O373 C392 1.276 . S
C374 O382 1.262 1_545 S
C374 O383 1.245 . S
O375 C346 1.276 1_655 S
O375 Zn352 1.955 . S
C376 O364 1.245 1_554 S
C376 O365 1.263 . S
O377 Zn356 1.955 . S
O377 C360 1.276 . S
C378 O385 1.262 1_455 S
C378 O386 1.245 . S
O379 Zn343 1.945 . S
O379 C368 1.262 . S
O380 Zn359 1.981 . S
O380 C368 1.245 1_565 S
C381 O366 1.245 1_554 S
C381 O367 1.263 . S
O382 Zn348 1.945 . S
O382 C374 1.262 1_565 S
O383 Zn354 1.981 . S
O383 C374 1.245 . S
C384 O388 1.262 . S
C384 O389 1.245 1_455 S
O385 Zn354 1.945 . S
O385 C378 1.262 1_655 S
O386 Zn343 1.981 . S
O386 C378 1.245 . S
C387 O369 1.245 1_554 S
C387 O370 1.263 . S
O388 Zn359 1.945 . S
O388 C384 1.262 . S
O389 Zn348 1.981 . S
O389 C384 1.245 1_655 S
C390 O371 1.276 1_545 S
C390 O391 1.246 . S
O391 C390 1.246 . S
C392 O373 1.276 . S
C392 O393 1.246 1_545 S
O393 C392 1.246 1_565 S
C378 C11 1.131 1_455 S
C374 C143 1.299 . S
C384 C1 0.962 . S
C368 C169 1.684 . S
C29 C360 1.350 . S
C392 C125 1.212 1_545 S
C55 C346 1.757 . S
C115 C390 1.217 . S
C283 C372 0.786 . S
C239 C387 1.020 . S
C381 C257 0.763 1_554 S
C376 C229 1.001 1_554 S
