# Generated by pormake.
# Topology ssa, (4,4)-cn, num edge types: 1
# Building blocks:
#     Node 0, Type 0, BuildingBlock: NAWXER_clean_sbu_0, # of connection points: 4
#     Node 1, Type 0, BuildingBlock: NAWXER_clean_sbu_0, # of connection points: 4
#     Node 2, Type 0, BuildingBlock: NAWXER_clean_sbu_0, # of connection points: 4
#     Node 3, Type 0, BuildingBlock: NAWXER_clean_sbu_0, # of connection points: 4
#     Node 4, Type 0, BuildingBlock: NAWXER_clean_sbu_0, # of connection points: 4
#     Node 5, Type 0, BuildingBlock: NAWXER_clean_sbu_0, # of connection points: 4
#     Node 6, Type 1, BuildingBlock: KUFVIS_clean_linker_0, # of connection points: 4
#     Node 7, Type 1, BuildingBlock: KUFVIS_clean_linker_0, # of connection points: 4
#     Node 8, Type 1, BuildingBlock: KUFVIS_clean_linker_0, # of connection points: 4
#     Node 9, Type 1, BuildingBlock: KUFVIS_clean_linker_0, # of connection points: 4
#     Node 10, Type 1, BuildingBlock: KUFVIS_clean_linker_0, # of connection points: 4
#     Node 11, Type 1, BuildingBlock: KUFVIS_clean_linker_0, # of connection points: 4
#     Edge 12, Type (0, 1), BuildingBlock: OJICUG_clean_linker_0, # of connection points: 2
#     Edge 13, Type (0, 1), BuildingBlock: OJICUG_clean_linker_0, # of connection points: 2
#     Edge 14, Type (0, 1), BuildingBlock: OJICUG_clean_linker_0, # of connection points: 2
#     Edge 15, Type (0, 1), BuildingBlock: OJICUG_clean_linker_0, # of connection points: 2
#     Edge 16, Type (0, 1), BuildingBlock: OJICUG_clean_linker_0, # of connection points: 2
#     Edge 17, Type (0, 1), BuildingBlock: OJICUG_clean_linker_0, # of connection points: 2
#     Edge 18, Type (0, 1), BuildingBlock: OJICUG_clean_linker_0, # of connection points: 2
#     Edge 19, Type (0, 1), BuildingBlock: OJICUG_clean_linker_0, # of connection points: 2
#     Edge 20, Type (0, 1), BuildingBlock: OJICUG_clean_linker_0, # of connection points: 2
#     Edge 21, Type (0, 1), BuildingBlock: OJICUG_clean_linker_0, # of connection points: 2
#     Edge 22, Type (0, 1), BuildingBlock: OJICUG_clean_linker_0, # of connection points: 2
#     Edge 23, Type (0, 1), BuildingBlock: OJICUG_clean_linker_0, # of connection points: 2
#     Edge 24, Type (0, 1), BuildingBlock: OJICUG_clean_linker_0, # of connection points: 2
#     Edge 25, Type (0, 1), BuildingBlock: OJICUG_clean_linker_0, # of connection points: 2
#     Edge 26, Type (0, 1), BuildingBlock: OJICUG_clean_linker_0, # of connection points: 2
#     Edge 27, Type (0, 1), BuildingBlock: OJICUG_clean_linker_0, # of connection points: 2
#     Edge 28, Type (0, 1), BuildingBlock: OJICUG_clean_linker_0, # of connection points: 2
#     Edge 29, Type (0, 1), BuildingBlock: OJICUG_clean_linker_0, # of connection points: 2
#     Edge 30, Type (0, 1), BuildingBlock: OJICUG_clean_linker_0, # of connection points: 2
#     Edge 31, Type (0, 1), BuildingBlock: OJICUG_clean_linker_0, # of connection points: 2
#     Edge 32, Type (0, 1), BuildingBlock: OJICUG_clean_linker_0, # of connection points: 2
#     Edge 33, Type (0, 1), BuildingBlock: OJICUG_clean_linker_0, # of connection points: 2
#     Edge 34, Type (0, 1), BuildingBlock: OJICUG_clean_linker_0, # of connection points: 2
#     Edge 35, Type (0, 1), BuildingBlock: OJICUG_clean_linker_0, # of connection points: 2
# Relax obj value: 0.007
# Max RMSD: 0.057
# Mean RMSD: 0.038
data_MOF--net-ssa--node1-NAWXER_clean_sbu_0--node2-KUFVIS_clean_linker_0--edge1-OJICUG_clean_linker_0
_symmetry_space_group_name_H-M    P1
_symmetry_Int_Tables_number       1
_symmetry_cell_setting            triclinic
loop_
_symmetry_equiv_pos_as_xyz
'x, y, z'
_cell_length_a     35.845947
_cell_length_b     35.777578
_cell_length_c     23.532264
_cell_angle_alpha  90.13011
_cell_angle_beta   89.290298
_cell_angle_gamma 119.98186
loop_
_atom_site_label
_atom_site_type_symbol
_atom_site_fract_x
_atom_site_fract_y
_atom_site_fract_z
_atom_type_partial_charge
C0 C 0.0868 0.60942 0.02163 0.0
C1 C 1.00429 0.47003 0.92275 0.0
O2 O 1.05087 0.57875 0.04034 0.0
Zn3 Zn 1.04203 0.53653 -0.01976 0.0
O4 O 0.10353 0.60462 -0.02375 0.0
Zn5 Zn 0.09213 0.56089 0.91176 0.0
O6 O 0.08337 0.59309 0.85017 0.0
O7 O 1.03073 0.56763 0.91428 0.0
O8 O 1.04009 0.49804 0.90003 0.0
O9 O 0.99214 0.47826 -0.02996 0.0
O10 O 0.09389 0.52568 -0.00665 0.0
O11 O 0.14181 0.55243 0.92316 0.0
C12 C 1.04746 0.58819 0.86836 0.0
C13 C 0.12961 0.53289 -0.02906 0.0
C14 C 0.50899 1.0327 0.51108 0.0
C15 C 0.57581 0.9516 0.4319 0.0
O16 O 0.50447 0.9981 0.53329 0.0
Zn17 Zn 0.54279 0.99026 0.47921 0.0
O18 O 0.5338 0.04925 0.46806 0.0
Zn19 Zn 0.57224 1.03843 0.41105 0.0
O20 O 0.53697 1.02971 0.34399 0.0
O21 O 0.50416 0.97744 0.40747 0.0
O22 O 0.58516 0.98683 0.4063 0.0
O23 O 0.55189 0.94033 0.47633 0.0
O24 O 0.60461 0.04427 0.49813 0.0
O25 O 0.6283 0.08989 0.42571 0.0
C26 C 0.50413 0.99435 0.35991 0.0
C27 C 0.63349 0.07998 0.47583 0.0
C28 C 0.54256 0.44271 0.89898 0.0
C29 C 0.59229 0.56836 0.02591 0.0
O30 O 0.54034 0.47483 0.87887 0.0
Zn31 Zn 0.55505 0.53818 0.90203 0.0
O32 O 0.55724 0.44513 -0.05129 0.0
Zn33 Zn 0.56878 0.50352 -0.03211 0.0
O34 O 0.50737 0.49811 -0.02621 0.0
O35 O 0.49957 0.53685 0.90695 0.0
O36 O 0.59148 0.53361 0.04072 0.0
O37 O 0.57992 0.57195 -0.02308 0.0
O38 O 0.60368 0.57699 0.85317 0.0
O39 O 0.62231 0.54342 0.9156 0.0
C40 C 0.48508 0.51287 -0.04896 0.0
C41 C 0.63247 0.57072 0.8752 0.0
C42 C 0.0879 0.62782 0.36971 0.0
C43 C 1.00365 0.48845 0.47034 0.0
O44 O 0.1045 0.62359 0.41502 0.0
Zn45 Zn 0.09212 0.57948 0.48054 0.0
O46 O 1.05287 0.59629 0.35139 0.0
Zn47 Zn 1.04436 0.55527 0.41272 0.0
O48 O 1.03234 0.58811 0.47727 0.0
O49 O 0.08388 0.61298 0.541 0.0
O50 O 0.99346 0.49752 0.42272 0.0
O51 O 1.03904 0.51585 0.49376 0.0
O52 O 0.14283 0.57229 0.4712 0.0
O53 O 0.09722 0.54438 0.40026 0.0
C54 C 1.04903 0.60954 0.52227 0.0
C55 C 0.13255 0.55251 0.42384 0.0
C56 C 0.59223 0.96818 -0.00904 0.0
C57 C 0.54328 0.04489 0.86494 0.0
O58 O 0.59427 1.00236 0.01157 0.0
Zn59 Zn 0.57965 0.05106 -0.01092 0.0
O60 O 0.57785 0.95618 0.94101 0.0
Zn61 Zn 0.56637 1.0031 0.92238 0.0
O62 O 0.62774 0.05903 0.91757 0.0
O63 O 0.63514 0.10544 -0.01536 0.0
O64 O 0.54502 1.01157 0.84913 0.0
O65 O 0.55498 0.06018 0.91444 0.0
O66 O 0.53081 1.04097 0.03756 0.0
O67 O 0.51234 0.98919 -0.02587 0.0
C68 C 0.64987 0.09606 0.9406 0.0
C69 C 0.50205 1.00616 0.01477 0.0
C70 C 0.6333 0.5602 0.52718 0.0
C71 C 0.50272 0.51541 0.41374 0.0
O72 O 0.60069 0.56299 0.54349 0.0
Zn73 Zn 0.56466 0.53576 0.4772 0.0
O74 O 0.63271 0.54264 0.47978 0.0
Zn75 Zn 0.59321 0.51606 0.40885 0.0
O76 O 0.63089 0.56139 0.35363 0.0
O77 O 0.60243 0.58421 0.41902 0.0
O78 O 0.53125 0.50821 0.39104 0.0
O79 O 0.50855 0.53118 0.46362 0.0
O80 O 0.55129 0.47111 0.48243 0.0
O81 O 0.5837 0.45689 0.41209 0.0
C82 C 0.62664 0.5918 0.37547 0.0
C83 C 0.5601 0.44478 0.45683 0.0
H84 H 0.43267 0.50746 0.18463 0.0
H85 H 0.33816 0.51633 0.28796 0.0
H86 H 0.34394 0.53553 0.10491 0.0
H87 H 0.27886 0.51602 0.10836 0.0
H88 H 0.18278 0.52652 0.20233 0.0
H89 H 0.29085 0.53657 0.29122 0.0
C90 C 0.40523 0.51235 0.18853 0.0
C91 C 0.38806 0.51912 0.13921 0.0
C92 C 0.38833 0.51286 0.24248 0.0
C93 C 0.35215 0.51858 0.24636 0.0
C94 C 0.33377 0.52537 0.19691 0.0
C95 C 0.35428 0.52791 0.14384 0.0
C96 C 0.29236 0.52731 0.19937 0.0
C97 C 0.26879 0.52211 0.14898 0.0
C98 C 0.23004 0.52261 0.14978 0.0
C99 C 0.21295 0.52631 0.20172 0.0
C100 C 0.2342 0.53022 0.25285 0.0
C101 C 0.27451 0.53217 0.25144 0.0
H102 H 0.70191 0.14235 0.7063 0.0
H103 H 0.78976 0.25965 0.78646 0.0
H104 H 0.79702 0.2458 0.60366 0.0
H105 H 0.84441 0.31377 0.60105 0.0
H106 H 0.95204 0.4113 0.69194 0.0
H107 H 0.85519 0.30416 0.78385 0.0
C108 C 0.72929 0.17475 0.70255 0.0
C109 C 0.74648 0.19209 0.6487 0.0
C110 C 0.7461 0.19885 0.75197 0.0
C111 C 0.77976 0.2415 0.74752 0.0
C112 C 0.8007 0.25934 0.69468 0.0
C113 C 0.78268 0.23406 0.6451 0.0
C114 C 0.84225 0.30261 0.69278 0.0
C115 C 0.86052 0.32556 0.64105 0.0
C116 C 0.90094 0.36392 0.64036 0.0
C117 C 0.92181 0.38094 0.69189 0.0
C118 C 0.90429 0.35981 0.74343 0.0
C119 C 0.86552 0.32061 0.7435 0.0
H120 H 0.67782 0.69306 0.18862 0.0
H121 H 0.61185 0.75425 0.12189 0.0
H122 H 0.66886 0.78837 0.28874 0.0
H123 H 0.6211 0.80997 0.29998 0.0
H124 H 0.60435 0.90747 0.21957 0.0
H125 H 0.63587 0.82759 0.11696 0.0
C126 C 0.66983 0.71849 0.19267 0.0
C127 C 0.67475 0.73901 0.24465 0.0
C128 C 0.64573 0.72237 0.14987 0.0
C129 C 0.63183 0.75265 0.15484 0.0
C130 C 0.64239 0.77934 0.20349 0.0
C131 C 0.66313 0.77123 0.249 0.0
C132 C 0.62985 0.81369 0.20778 0.0
C133 C 0.62104 0.8262 0.26128 0.0
C134 C 0.61272 0.86051 0.2654 0.0
C135 C 0.6114 0.88137 0.21596 0.0
C136 C 0.61917 0.86948 0.16226 0.0
C137 C 0.62831 0.83557 0.15833 0.0
H138 H 1.01436 0.67955 0.70485 0.0
H139 H 0.89596 0.63668 0.79487 0.0
H140 H 0.90692 0.66911 0.61561 0.0
H141 H 0.83711 0.63424 0.61813 0.0
H142 H 0.73602 0.63692 0.71145 0.0
H143 H 0.84739 0.65706 0.8006 0.0
C144 C 0.98214 0.67514 0.70581 0.0
C145 C 0.96294 0.67481 0.65474 0.0
C146 C 0.958 0.65983 0.75564 0.0
C147 C 0.91478 0.65028 0.75643 0.0
C148 C 0.89588 0.65636 0.70701 0.0
C149 C 0.92047 0.6674 0.65559 0.0
C150 C 0.85056 0.64949 0.70848 0.0
C151 C 0.82582 0.64017 0.65805 0.0
C152 C 0.78524 0.63741 0.65917 0.0
C153 C 0.76864 0.64223 0.71037 0.0
C154 C 0.78992 0.64768 0.7612 0.0
C155 C 0.83114 0.65195 0.76054 0.0
H156 H 0.12141 0.73284 0.18738 0.0
H157 H 0.23814 0.80985 0.09476 0.0
H158 H 0.2302 0.82914 0.27564 0.0
H159 H 0.29981 0.86504 0.27129 0.0
H160 H 0.3995 0.9694 0.17736 0.0
H161 H 0.28708 0.87828 0.0897 0.0
C162 C 0.15356 0.76079 0.18602 0.0
C163 C 0.17357 0.77919 0.23695 0.0
C164 C 0.17684 0.77035 0.13534 0.0
C165 C 0.22001 0.80417 0.13396 0.0
C166 C 0.23975 0.82857 0.1836 0.0
C167 C 0.21602 0.81432 0.23563 0.0
C168 C 0.28505 0.86717 0.18159 0.0
C169 C 0.3105 0.88244 0.2315 0.0
C170 C 0.35105 0.92034 0.22996 0.0
C171 C 0.36691 0.94203 0.17885 0.0
C172 C 0.34499 0.92626 0.12836 0.0
C173 C 0.30379 0.88927 0.12949 0.0
H174 H 0.52976 0.3709 0.66934 0.0
H175 H 0.50061 0.25949 0.76996 0.0
H176 H 0.51482 0.25775 0.58671 0.0
H177 H 0.46666 0.18768 0.59813 0.0
H178 H 0.46294 0.08482 0.69557 0.0
H179 H 0.52757 0.21222 0.76252 0.0
C180 C 0.52321 0.33789 0.6723 0.0
C181 C 0.52223 0.31617 0.62238 0.0
C182 C 0.51595 0.31803 0.7257 0.0
C183 C 0.50767 0.27523 0.72882 0.0
C184 C 0.50644 0.25228 0.67887 0.0
C185 C 0.51469 0.27377 0.6257 0.0
C186 C 0.49506 0.20574 0.68236 0.0
C187 C 0.47371 0.17661 0.63712 0.0
C188 C 0.46294 0.13297 0.64096 0.0
C189 C 0.47024 0.11805 0.69184 0.0
C190 C 0.4952 0.14653 0.73375 0.0
C191 C 0.50737 0.19031 0.72988 0.0
C192 C 0.1382 0.49134 0.04891 0.0
C193 C 0.15758 0.52305 0.00621 0.0
H194 H 0.14606 0.46627 0.12752 0.0
C195 C 0.20254 0.55016 0.00616 0.0
H196 H 0.10365 0.46971 0.04987 0.0
C197 C 0.22695 0.54811 0.05108 0.0
C198 C 0.20663 0.51906 0.09652 0.0
H199 H 0.2183 0.57512 -0.02587 0.0
H200 H 0.26112 0.57123 0.05235 0.0
C201 C 0.16239 0.48947 0.0936 0.0
C202 C 0.68765 0.15527 0.50775 0.0
C203 C 0.67006 0.11029 0.51175 0.0
H204 H 0.72574 0.21675 0.5483 0.0
C205 C 0.68334 0.09371 0.55627 0.0
H206 H 0.67786 0.169 0.47408 0.0
C207 C 0.71098 0.12089 0.59806 0.0
C208 C 0.7256 0.16544 0.59721 0.0
H209 H 0.6708 0.05928 0.56023 0.0
H210 H 0.71923 0.10662 0.63275 0.0
C211 C 0.7151 0.18263 0.55026 0.0
C212 C 0.64641 0.64329 0.04752 0.0
C213 C 0.60741 0.60621 0.06213 0.0
H214 H 0.68848 0.71082 0.06221 0.0
C215 C 0.57804 0.60996 0.09819 0.0
H216 H 0.66847 0.64141 0.01729 0.0
C217 C 0.58853 0.64997 0.12158 0.0
C218 C 0.62833 0.68682 0.10872 0.0
H219 H 0.54676 0.58214 0.10743 0.0
H220 H 0.56662 0.65171 0.15221 0.0
C221 C 0.65701 0.68318 0.07108 0.0
C222 C 1.05054 0.67225 0.57212 0.0
C223 C 1.02722 0.63075 0.54926 0.0
H224 H 1.04743 0.7221 0.61876 0.0
C225 C 0.98202 0.6104 0.54776 0.0
H226 H 0.08542 0.68942 0.57141 0.0
C227 C 0.96028 0.62886 0.57474 0.0
C228 C 0.9834 0.66825 0.60335 0.0
H229 H 0.96329 0.57888 0.5286 0.0
H230 H 0.9255 0.61001 0.57846 0.0
C231 C 1.02874 0.69141 0.59754 0.0
C232 C 0.4383 1.01038 0.05119 0.0
C233 C 0.45625 0.98558 0.03208 0.0
H234 H 0.38424 1.00978 0.09167 0.0
C235 C 0.42958 0.94057 0.02791 0.0
H236 H 0.45761 0.04524 0.05259 0.0
C237 C 0.38758 0.92027 0.05009 0.0
C238 C 0.37164 0.94477 0.07642 0.0
H239 H 0.44227 0.92075 0.01156 0.0
H240 H 0.36991 0.88537 0.05336 0.0
C241 C 0.3958 0.99012 0.07162 0.0
C242 C 0.5744 0.38719 0.49342 0.0
C243 C 0.54563 0.40252 0.48446 0.0
H244 H 0.58928 0.34677 0.54503 0.0
C245 C 0.50576 0.3825 0.51334 0.0
H246 H 0.60561 0.40251 0.47232 0.0
C247 C 0.49646 0.35079 0.55428 0.0
C248 C 0.52687 0.33849 0.56751 0.0
H249 H 0.48305 0.39374 0.50735 0.0
H250 H 0.46685 0.33835 0.57894 0.0
C251 C 0.56512 0.3554 0.53502 0.0
C252 C 0.63001 0.9427 0.3763 0.0
C253 C 0.58981 0.92334 0.40433 0.0
H254 H 0.66901 0.93706 0.31102 0.0
C255 C 0.56034 0.87952 0.39419 0.0
H256 H 0.65323 0.97646 0.38313 0.0
C257 C 0.56936 0.85692 0.35228 0.0
C258 C 0.60807 0.87785 0.32069 0.0
H259 H 0.52886 0.86405 0.41455 0.0
H260 H 0.54474 0.82448 0.34131 0.0
C261 C 0.63908 0.92018 0.33506 0.0
C262 C 0.70458 0.57704 0.86094 0.0
C263 C 0.67816 0.59566 0.85729 0.0
H264 H 0.76403 0.58117 0.83508 0.0
C265 C 0.69631 0.63842 0.83835 0.0
H266 H 0.69174 0.5445 0.8771 0.0
C267 C 0.73876 0.66047 0.81775 0.0
C268 C 0.76275 0.63912 0.81274 0.0
H269 H 0.67719 0.65417 0.8373 0.0
H270 H 0.75052 0.69177 0.79797 0.0
C271 C 0.74655 0.59856 0.83862 0.0
C272 C 0.1551 0.6948 0.34202 0.0
C273 C 0.10983 0.67053 0.34207 0.0
H274 H 0.21154 0.75049 0.31015 0.0
C275 C 0.08663 0.6892 0.32065 0.0
H276 H 0.17375 0.6816 0.3601 0.0
C277 C 0.10847 0.73011 0.29526 0.0
C278 C 0.1537 0.75181 0.28811 0.0
H279 H 1.05176 0.67194 0.32261 0.0
H280 H 0.08978 0.74252 0.27527 0.0
C281 C 0.17686 0.73496 0.31505 0.0
C282 C 0.49811 0.07787 0.85013 0.0
C283 C 0.52936 0.06857 0.82858 0.0
H284 H 0.46373 0.11196 0.83764 0.0
C285 C 0.5538 0.09081 0.78064 0.0
H286 H 0.48 0.06209 0.88846 0.0
C287 C 0.54608 0.121 0.7536 0.0
C288 C 0.51371 0.12916 0.77401 0.0
H289 H 0.57933 0.08554 0.76491 0.0
H290 H 0.56369 0.13627 0.71478 0.0
C291 C 0.48992 0.10748 0.82261 0.0
C292 C 0.45193 0.47834 0.33444 0.0
C293 C 0.46578 0.50877 0.37848 0.0
H294 H 0.41529 0.45455 0.25861 0.0
C295 C 0.4484 0.53633 0.38247 0.0
H296 H 0.46431 0.45631 0.33051 0.0
C297 C 0.42059 0.53581 0.34033 0.0
C298 C 0.40953 0.50754 0.29378 0.0
H299 H 0.45863 0.56028 0.41577 0.0
H300 H 0.41011 0.55942 0.34219 0.0
C301 C 0.42395 0.47747 0.29302 0.0
C302 C 0.93126 0.41501 0.88711 0.0
C303 C 0.97606 0.43191 0.88795 0.0
H304 H 0.87301 0.37846 0.83985 0.0
C305 C 0.99527 0.41868 0.84599 0.0
H306 H 0.91567 0.42495 0.91853 0.0
C307 C 0.97122 0.39285 0.80095 0.0
C308 C 0.92727 0.37925 0.79708 0.0
H309 H 1.0297 0.43089 0.84573 0.0
H310 H 0.98747 0.3854 0.76746 0.0
C311 C 0.90697 0.38871 0.8419 0.0
C312 C 1.04431 0.65208 0.83319 0.0
C313 C 1.02453 0.60737 0.84062 0.0
H314 H 1.03691 0.70487 0.80511 0.0
C315 C 0.98005 0.58165 0.83143 0.0
H316 H 0.07806 0.67272 0.84283 0.0
C317 C 0.9564 0.59983 0.81028 0.0
C318 C 0.97669 0.64428 0.79914 0.0
H319 H 0.96382 0.54716 0.83919 0.0
H320 H 0.92313 0.5787 0.79869 0.0
C321 C 1.0204 0.67048 0.81359 0.0
C322 C 0.43888 0.92956 0.32313 0.0
C323 C 0.46329 0.97467 0.3291 0.0
H324 H 0.38245 0.87614 0.28762 0.0
C325 C 0.44536 0.99991 0.31315 0.0
H326 H 0.45162 0.90934 0.33709 0.0
C327 C 0.40471 0.98065 0.28858 0.0
C328 C 0.38199 0.93599 0.27732 0.0
H329 H 0.46275 1.03449 0.31974 0.0
H330 H 0.39259 1.00117 0.27368 0.0
C331 C 0.39876 0.91038 0.29666 0.0
C332 C 0.54883 0.37849 0.8664 0.0
C333 C 0.52989 0.40462 0.86187 0.0
H334 H 0.55926 0.33012 0.82648 0.0
C335 C 0.50162 0.39716 0.81688 0.0
H336 H 0.57078 0.38348 0.90059 0.0
C337 C 0.49476 0.36663 0.77526 0.0
C338 C 0.51633 0.34292 0.77691 0.0
H339 H 0.48594 0.41619 0.81254 0.0
H340 H 0.474 0.363 0.74007 0.0
C341 C 0.54217 0.34789 0.82409 0.0
C342 C 0.14383 0.50519 0.35689 0.0
C343 C 0.16187 0.5418 0.39179 0.0
H344 H 0.15314 0.4723 0.28704 0.0
C345 C 0.20641 0.57116 0.38723 0.0
H346 H 0.10969 0.48191 0.35958 0.0
C347 C 0.23146 0.56588 0.34477 0.0
C348 C 0.21225 0.53106 0.30671 0.0
H349 H 0.22107 0.59989 0.41324 0.0
H350 H 0.26488 0.59059 0.33903 0.0
C351 C 0.16872 0.49974 0.31524 0.0
C352 C 0.69008 0.16982 0.8968 0.0
C353 C 0.68609 0.12911 0.90602 0.0
H354 H 0.71218 0.22408 0.83986 0.0
C355 C 0.70789 0.11536 0.869 0.0
H356 H 0.67299 0.18091 0.92395 0.0
C357 C 0.7292 0.13936 0.8206 0.0
C358 C 0.7297 0.17796 0.80834 0.0
H359 H 0.70527 0.0841 0.87484 0.0
H360 H 0.74343 0.12659 0.79108 0.0
C361 C 0.71191 0.19419 0.84825 0.0
C362 C 0.62918 0.66205 0.36355 0.0
C363 C 0.64744 0.63595 0.35158 0.0
H364 H 0.62541 0.71758 0.34054 0.0
C365 C 0.68476 0.65281 0.31763 0.0
H366 H 0.60112 0.65062 0.39114 0.0
C367 C 0.70044 0.69302 0.29106 0.0
C368 C 0.67721 0.71533 0.29505 0.0
H369 H 0.70062 0.63426 0.3097 0.0
H370 H 0.7272 0.70375 0.26131 0.0
C371 C 0.64389 0.70132 0.33563 0.0
C372 C 0.50562 0.10021 0.52076 0.0
C373 C 0.48785 0.05609 0.534 0.0
H374 H 0.50944 0.1598 0.54284 0.0
C375 C 0.45091 1.03601 0.56869 0.0
H376 H 0.53329 0.11653 0.49249 0.0
C377 C 0.43542 0.06084 0.59504 0.0
C378 C 0.45862 0.10635 0.59019 0.0
H379 H 0.43537 1.00175 0.57761 0.0
H380 H 0.40928 0.04526 0.62576 0.0
C381 C 0.49112 0.1251 0.54849 0.0
C382 C 0.44433 0.54601 -0.00536 0.0
C383 C 0.44879 0.50951 -0.01432 0.0
H384 H 0.42159 0.57795 0.05121 0.0
C385 C 0.42712 0.47402 0.02267 0.0
H386 H 0.46131 0.57415 -0.03252 0.0
C387 C 0.40542 0.47658 0.07079 0.0
C388 C 0.40445 0.5145 0.08283 0.0
H389 H 0.43007 0.44553 0.017 0.0
H390 H 0.3913 0.44966 0.10034 0.0
C391 C 0.42216 0.54844 0.04295 0.0
C392 C 0.92964 0.43293 0.50634 0.0
C393 C 0.97429 0.44856 0.50259 0.0
H394 H 0.87076 0.39334 0.55349 0.0
C395 C 0.99225 0.43033 0.538 0.0
H396 H 0.915 0.44669 0.47988 0.0
C397 C 0.96711 0.3998 0.57924 0.0
C398 C 0.92338 0.38707 0.58692 0.0
H399 H 1.02646 0.44149 0.5359 0.0
H400 H 0.9826 0.38813 0.60773 0.0
C401 C 0.90433 0.40243 0.54844 0.0
C402 C 0.63282 0.96334 0.07312 0.0
C403 C 0.60491 0.94269 0.02768 0.0
H404 H 0.66024 0.95654 0.14978 0.0
C405 C 0.58641 0.89768 0.02223 0.0
H406 H 0.64816 0.99801 0.07818 0.0
C407 C 0.59317 0.87361 0.06403 0.0
C408 C 0.61866 0.89428 0.11163 0.0
H409 H 0.56476 0.88084 -0.01233 0.0
H410 H 0.57645 0.83876 0.06091 0.0
C411 C 0.63977 0.93955 0.11425 0.0
C412 C 0.69206 0.62417 0.57511 0.0
C413 C 0.67428 0.58125 0.55775 0.0
H414 H 0.74441 0.67756 0.61648 0.0
C415 C 0.69867 0.56051 0.56292 0.0
H416 H 0.67468 0.64142 0.56926 0.0
C417 C 0.73852 0.58104 0.5901 0.0
C418 C 0.75504 0.62306 0.61101 0.0
H419 H 0.68604 0.52775 0.54798 0.0
H420 H 0.75472 0.56297 0.59858 0.0
C421 C 0.73247 0.64519 0.60039 0.0
C422 C 0.15479 0.67159 0.05527 0.0
C423 C 0.10997 0.65199 0.04852 0.0
H424 H 0.21201 0.72603 0.08668 0.0
C425 C 0.08964 0.6761 0.0587 0.0
H426 H 0.17137 0.65395 0.04554 0.0
C427 C 0.11344 0.71839 0.07874 0.0
C428 C 0.1576 0.73659 0.09107 0.0
H429 H 1.05551 0.66233 0.0511 0.0
H430 H 0.09659 0.73561 0.08943 0.0
C431 C 0.17836 0.71336 0.07688 0.0
loop_
_geom_bond_atom_site_label_1
_geom_bond_atom_site_label_2
_geom_bond_distance
_geom_bond_site_symmetry_2
_ccdc_geom_bond_type
C0 O2 1.247 . S
C0 O4 1.243 1_554 S
C1 O8 1.247 . S
C1 O9 1.258 1_556 S
O2 C0 1.247 . S
O2 Zn3 2.028 1_455 S
Zn3 O2 2.028 1_655 S
Zn3 O7 2.035 . S
Zn3 O9 2.035 . S
Zn3 O10 2.028 1_655 S
O4 C0 1.243 1_556 S
O4 Zn5 2.045 . S
Zn5 O4 2.045 . S
Zn5 O6 2.028 1_455 S
Zn5 O8 2.028 1_455 S
Zn5 O11 2.045 . S
O6 Zn5 2.028 1_655 S
O6 C12 1.247 . S
O7 Zn3 2.035 . S
O7 C12 1.258 1_554 S
O8 C1 1.247 . S
O8 Zn5 2.028 1_655 S
O9 C1 1.258 1_554 S
O9 Zn3 2.035 . S
O10 Zn3 2.028 1_455 S
O10 C13 1.247 . S
O11 Zn5 2.045 . S
O11 C13 1.242 1_556 S
C12 O6 1.247 . S
C12 O7 1.258 1_556 S
C13 O10 1.247 . S
C13 O11 1.242 1_554 S
C14 O16 1.247 . S
C14 O18 1.258 . S
C15 O22 1.247 . S
C15 O23 1.258 . S
O16 C14 1.247 . S
O16 Zn17 2.028 1_545 S
Zn17 O16 2.028 1_565 S
Zn17 O21 2.035 . S
Zn17 O23 2.035 . S
Zn17 O24 2.028 1_565 S
O18 C14 1.258 . S
O18 Zn19 2.035 . S
Zn19 O18 2.035 . S
Zn19 O20 2.028 1_545 S
Zn19 O22 2.028 1_545 S
Zn19 O25 2.035 . S
O20 Zn19 2.028 1_565 S
O20 C26 1.247 . S
O21 Zn17 2.035 . S
O21 C26 1.258 . S
O22 C15 1.247 . S
O22 Zn19 2.028 1_565 S
O23 C15 1.258 . S
O23 Zn17 2.035 . S
O24 Zn17 2.028 1_545 S
O24 C27 1.247 . S
O25 Zn19 2.035 . S
O25 C27 1.258 . S
C26 O20 1.247 . S
C26 O21 1.258 . S
C27 O24 1.247 . S
C27 O25 1.258 . S
C28 O30 1.247 . S
C28 O32 1.258 1_556 S
C29 O36 1.247 . S
C29 O37 1.244 1_554 S
O30 C28 1.247 . S
O30 Zn31 2.028 . S
Zn31 O30 2.028 . S
Zn31 O35 2.044 . S
Zn31 O37 2.044 . S
Zn31 O38 2.028 . S
O32 C28 1.258 1_554 S
O32 Zn33 2.035 . S
Zn33 O32 2.035 . S
Zn33 O34 2.028 . S
Zn33 O36 2.028 . S
Zn33 O39 2.035 . S
O34 Zn33 2.028 . S
O34 C40 1.247 . S
O35 Zn31 2.044 . S
O35 C40 1.244 1_556 S
O36 C29 1.247 . S
O36 Zn33 2.028 . S
O37 C29 1.244 1_556 S
O37 Zn31 2.044 . S
O38 Zn31 2.028 . S
O38 C41 1.247 . S
O39 Zn33 2.035 . S
O39 C41 1.258 1_554 S
C40 O34 1.247 . S
C40 O35 1.244 1_554 S
C41 O38 1.247 . S
C41 O39 1.258 1_556 S
C42 O44 1.247 . S
C42 O46 1.258 . S
C43 O50 1.247 . S
C43 O51 1.258 . S
O44 C42 1.247 . S
O44 Zn45 2.028 . S
Zn45 O44 2.028 . S
Zn45 O49 2.035 1_455 S
Zn45 O51 2.035 1_455 S
Zn45 O52 2.028 . S
O46 C42 1.258 . S
O46 Zn47 2.035 1_455 S
Zn47 O46 2.035 1_655 S
Zn47 O48 2.028 . S
Zn47 O50 2.028 . S
Zn47 O53 2.035 1_655 S
O48 Zn47 2.028 . S
O48 C54 1.247 . S
O49 Zn45 2.035 1_655 S
O49 C54 1.258 . S
O50 C43 1.247 . S
O50 Zn47 2.028 . S
O51 C43 1.258 . S
O51 Zn45 2.035 1_655 S
O52 Zn45 2.028 . S
O52 C55 1.247 . S
O53 Zn47 2.035 1_455 S
O53 C55 1.258 . S
C54 O48 1.247 . S
C54 O49 1.258 . S
C55 O52 1.247 . S
C55 O53 1.258 . S
C56 O58 1.247 . S
C56 O60 1.258 . S
C57 O64 1.247 . S
C57 O65 1.258 1_556 S
O58 C56 1.247 . S
O58 Zn59 2.028 1_565 S
Zn59 O58 2.028 1_545 S
Zn59 O63 2.035 . S
Zn59 O65 2.035 . S
Zn59 O66 2.028 1_545 S
O60 C56 1.258 . S
O60 Zn61 2.035 1_554 S
Zn61 O60 2.035 1_556 S
Zn61 O62 2.028 1_565 S
Zn61 O64 2.028 1_565 S
Zn61 O67 2.035 1_556 S
O62 Zn61 2.028 1_545 S
O62 C68 1.247 . S
O63 Zn59 2.035 . S
O63 C68 1.258 1_554 S
O64 C57 1.247 . S
O64 Zn61 2.028 1_545 S
O65 C57 1.258 1_554 S
O65 Zn59 2.035 . S
O66 Zn59 2.028 1_565 S
O66 C69 1.247 . S
O67 Zn61 2.035 1_554 S
O67 C69 1.258 . S
C68 O62 1.247 . S
C68 O63 1.258 1_556 S
C69 O66 1.247 . S
C69 O67 1.258 . S
C70 O72 1.247 . S
C70 O74 1.258 . S
C71 O78 1.247 . S
C71 O79 1.258 . S
O72 C70 1.247 . S
O72 Zn73 2.028 . S
Zn73 O72 2.028 . S
Zn73 O77 2.035 . S
Zn73 O79 2.035 . S
Zn73 O80 2.028 . S
O74 C70 1.258 . S
O74 Zn75 2.035 . S
Zn75 O74 2.035 . S
Zn75 O76 2.028 . S
Zn75 O78 2.028 . S
Zn75 O81 2.035 . S
O76 Zn75 2.028 . S
O76 C82 1.247 . S
O77 Zn73 2.035 . S
O77 C82 1.258 . S
O78 C71 1.247 . S
O78 Zn75 2.028 . S
O79 C71 1.258 . S
O79 Zn73 2.035 . S
O80 Zn73 2.028 . S
O80 C83 1.247 . S
O81 Zn75 2.035 . S
O81 C83 1.258 . S
C82 O76 1.247 . S
C82 O77 1.258 . S
C83 O80 1.247 . S
C83 O81 1.258 . S
H84 C90 0.930 . S
H85 C93 0.931 . S
H86 C95 0.931 . S
H87 C97 0.930 . S
H88 C99 0.930 . S
H89 C101 0.931 . S
C90 H84 0.930 . S
C90 C91 1.380 . S
C90 C92 1.394 . S
C91 C90 1.380 . S
C91 C95 1.382 . S
C92 C90 1.394 . S
C92 C93 1.400 . S
C93 H85 0.931 . S
C93 C92 1.400 . S
C93 C94 1.375 . S
C94 C93 1.375 . S
C94 C95 1.415 . S
C94 C96 1.501 . S
C95 H86 0.931 . S
C95 C91 1.382 . S
C95 C94 1.415 . S
C96 C94 1.501 . S
C96 C97 1.384 . S
C96 C101 1.408 . S
C97 H87 0.930 . S
C97 C96 1.384 . S
C97 C98 1.389 . S
C98 C97 1.389 . S
C98 C99 1.405 . S
C99 H88 0.930 . S
C99 C98 1.405 . S
C99 C100 1.364 . S
C100 C99 1.364 . S
C100 C101 1.400 . S
C101 H89 0.931 . S
C101 C96 1.408 . S
C101 C100 1.400 . S
H102 C108 0.930 . S
H103 C111 0.931 . S
H104 C113 0.931 . S
H105 C115 0.930 . S
H106 C117 0.930 . S
H107 C119 0.931 . S
C108 H102 0.930 . S
C108 C109 1.380 . S
C108 C110 1.394 . S
C109 C108 1.380 . S
C109 C113 1.382 . S
C110 C108 1.394 . S
C110 C111 1.400 . S
C111 H103 0.931 . S
C111 C110 1.400 . S
C111 C112 1.375 . S
C112 C111 1.375 . S
C112 C113 1.415 . S
C112 C114 1.501 . S
C113 H104 0.931 . S
C113 C109 1.382 . S
C113 C112 1.415 . S
C114 C112 1.501 . S
C114 C115 1.384 . S
C114 C119 1.408 . S
C115 H105 0.930 . S
C115 C114 1.384 . S
C115 C116 1.389 . S
C116 C115 1.389 . S
C116 C117 1.405 . S
C117 H106 0.930 . S
C117 C116 1.405 . S
C117 C118 1.364 . S
C118 C117 1.364 . S
C118 C119 1.400 . S
C119 H107 0.931 . S
C119 C114 1.408 . S
C119 C118 1.400 . S
H120 C126 0.930 . S
H121 C129 0.931 . S
H122 C131 0.931 . S
H123 C133 0.930 . S
H124 C135 0.930 . S
H125 C137 0.931 . S
C126 H120 0.930 . S
C126 C127 1.380 . S
C126 C128 1.394 . S
C127 C126 1.380 . S
C127 C131 1.382 . S
C128 C126 1.394 . S
C128 C129 1.400 . S
C129 H121 0.931 . S
C129 C128 1.400 . S
C129 C130 1.375 . S
C130 C129 1.375 . S
C130 C131 1.415 . S
C130 C132 1.501 . S
C131 H122 0.931 . S
C131 C127 1.382 . S
C131 C130 1.415 . S
C132 C130 1.501 . S
C132 C133 1.384 . S
C132 C137 1.408 . S
C133 H123 0.930 . S
C133 C132 1.384 . S
C133 C134 1.389 . S
C134 C133 1.389 . S
C134 C135 1.405 . S
C135 H124 0.930 . S
C135 C134 1.405 . S
C135 C136 1.364 . S
C136 C135 1.364 . S
C136 C137 1.400 . S
C137 H125 0.931 . S
C137 C132 1.408 . S
C137 C136 1.400 . S
H138 C144 0.930 . S
H139 C147 0.931 . S
H140 C149 0.931 . S
H141 C151 0.930 . S
H142 C153 0.930 . S
H143 C155 0.931 . S
C144 H138 0.930 . S
C144 C145 1.380 . S
C144 C146 1.394 . S
C145 C144 1.380 . S
C145 C149 1.382 . S
C146 C144 1.394 . S
C146 C147 1.400 . S
C147 H139 0.931 . S
C147 C146 1.400 . S
C147 C148 1.375 . S
C148 C147 1.375 . S
C148 C149 1.415 . S
C148 C150 1.501 . S
C149 H140 0.931 . S
C149 C145 1.382 . S
C149 C148 1.415 . S
C150 C148 1.501 . S
C150 C151 1.384 . S
C150 C155 1.408 . S
C151 H141 0.930 . S
C151 C150 1.384 . S
C151 C152 1.389 . S
C152 C151 1.389 . S
C152 C153 1.405 . S
C153 H142 0.930 . S
C153 C152 1.405 . S
C153 C154 1.364 . S
C154 C153 1.364 . S
C154 C155 1.400 . S
C155 H143 0.931 . S
C155 C150 1.408 . S
C155 C154 1.400 . S
H156 C162 0.930 . S
H157 C165 0.931 . S
H158 C167 0.931 . S
H159 C169 0.930 . S
H160 C171 0.930 . S
H161 C173 0.931 . S
C162 H156 0.930 . S
C162 C163 1.380 . S
C162 C164 1.394 . S
C163 C162 1.380 . S
C163 C167 1.382 . S
C164 C162 1.394 . S
C164 C165 1.400 . S
C165 H157 0.931 . S
C165 C164 1.400 . S
C165 C166 1.375 . S
C166 C165 1.375 . S
C166 C167 1.415 . S
C166 C168 1.501 . S
C167 H158 0.931 . S
C167 C163 1.382 . S
C167 C166 1.415 . S
C168 C166 1.501 . S
C168 C169 1.384 . S
C168 C173 1.408 . S
C169 H159 0.930 . S
C169 C168 1.384 . S
C169 C170 1.389 . S
C170 C169 1.389 . S
C170 C171 1.405 . S
C171 H160 0.930 . S
C171 C170 1.405 . S
C171 C172 1.364 . S
C172 C171 1.364 . S
C172 C173 1.400 . S
C173 H161 0.931 . S
C173 C168 1.408 . S
C173 C172 1.400 . S
H174 C180 0.930 . S
H175 C183 0.931 . S
H176 C185 0.931 . S
H177 C187 0.930 . S
H178 C189 0.930 . S
H179 C191 0.931 . S
C180 H174 0.930 . S
C180 C181 1.380 . S
C180 C182 1.394 . S
C181 C180 1.380 . S
C181 C185 1.382 . S
C182 C180 1.394 . S
C182 C183 1.400 . S
C183 H175 0.931 . S
C183 C182 1.400 . S
C183 C184 1.375 . S
C184 C183 1.375 . S
C184 C185 1.415 . S
C184 C186 1.501 . S
C185 H176 0.931 . S
C185 C181 1.382 . S
C185 C184 1.415 . S
C186 C184 1.501 . S
C186 C187 1.384 . S
C186 C191 1.408 . S
C187 H177 0.930 . S
C187 C186 1.384 . S
C187 C188 1.389 . S
C188 C187 1.389 . S
C188 C189 1.405 . S
C189 H178 0.930 . S
C189 C188 1.405 . S
C189 C190 1.364 . S
C190 C189 1.364 . S
C190 C191 1.400 . S
C191 H179 0.931 . S
C191 C186 1.408 . S
C191 C190 1.400 . S
C192 C193 1.387 . S
C192 H196 0.950 . S
C192 C201 1.390 . S
C193 C192 1.387 . S
C193 C195 1.387 . S
H194 C201 0.950 . S
C195 C193 1.387 . S
C195 C197 1.390 . S
C195 H199 0.950 . S
H196 C192 0.950 . S
C197 C195 1.390 . S
C197 C198 1.387 . S
C197 H200 0.950 . S
C198 C197 1.387 . S
C198 C201 1.387 . S
H199 C195 0.950 . S
H200 C197 0.950 . S
C201 C192 1.390 . S
C201 H194 0.950 . S
C201 C198 1.387 . S
C202 C203 1.387 . S
C202 H206 0.950 . S
C202 C211 1.390 . S
C203 C202 1.387 . S
C203 C205 1.387 . S
H204 C211 0.950 . S
C205 C203 1.387 . S
C205 C207 1.390 . S
C205 H209 0.950 . S
H206 C202 0.950 . S
C207 C205 1.390 . S
C207 C208 1.387 . S
C207 H210 0.950 . S
C208 C207 1.387 . S
C208 C211 1.387 . S
H209 C205 0.950 . S
H210 C207 0.950 . S
C211 C202 1.390 . S
C211 H204 0.950 . S
C211 C208 1.387 . S
C212 C213 1.387 . S
C212 H216 0.950 . S
C212 C221 1.390 . S
C213 C212 1.387 . S
C213 C215 1.387 . S
H214 C221 0.950 . S
C215 C213 1.387 . S
C215 C217 1.390 . S
C215 H219 0.950 . S
H216 C212 0.950 . S
C217 C215 1.390 . S
C217 C218 1.387 . S
C217 H220 0.950 . S
C218 C217 1.387 . S
C218 C221 1.387 . S
H219 C215 0.950 . S
H220 C217 0.950 . S
C221 C212 1.390 . S
C221 H214 0.950 . S
C221 C218 1.387 . S
C222 C223 1.387 . S
C222 H226 0.950 . S
C222 C231 1.390 . S
C223 C222 1.387 . S
C223 C225 1.387 . S
H224 C231 0.950 . S
C225 C223 1.387 . S
C225 C227 1.390 . S
C225 H229 0.950 . S
H226 C222 0.950 . S
C227 C225 1.390 . S
C227 C228 1.387 . S
C227 H230 0.950 . S
C228 C227 1.387 . S
C228 C231 1.387 . S
H229 C225 0.950 . S
H230 C227 0.950 . S
C231 C222 1.390 . S
C231 H224 0.950 . S
C231 C228 1.387 . S
C232 C233 1.387 . S
C232 H236 0.950 . S
C232 C241 1.390 . S
C233 C232 1.387 . S
C233 C235 1.387 . S
H234 C241 0.950 . S
C235 C233 1.387 . S
C235 C237 1.390 . S
C235 H239 0.950 . S
H236 C232 0.950 . S
C237 C235 1.390 . S
C237 C238 1.387 . S
C237 H240 0.950 . S
C238 C237 1.387 . S
C238 C241 1.387 . S
H239 C235 0.950 . S
H240 C237 0.950 . S
C241 C232 1.390 . S
C241 H234 0.950 . S
C241 C238 1.387 . S
C242 C243 1.387 . S
C242 H246 0.950 . S
C242 C251 1.390 . S
C243 C242 1.387 . S
C243 C245 1.387 . S
H244 C251 0.950 . S
C245 C243 1.387 . S
C245 C247 1.390 . S
C245 H249 0.950 . S
H246 C242 0.950 . S
C247 C245 1.390 . S
C247 C248 1.387 . S
C247 H250 0.950 . S
C248 C247 1.387 . S
C248 C251 1.387 . S
H249 C245 0.950 . S
H250 C247 0.950 . S
C251 C242 1.390 . S
C251 H244 0.950 . S
C251 C248 1.387 . S
C252 C253 1.387 . S
C252 H256 0.950 . S
C252 C261 1.390 . S
C253 C252 1.387 . S
C253 C255 1.387 . S
H254 C261 0.950 . S
C255 C253 1.387 . S
C255 C257 1.390 . S
C255 H259 0.950 . S
H256 C252 0.950 . S
C257 C255 1.390 . S
C257 C258 1.387 . S
C257 H260 0.950 . S
C258 C257 1.387 . S
C258 C261 1.387 . S
H259 C255 0.950 . S
H260 C257 0.950 . S
C261 C252 1.390 . S
C261 H254 0.950 . S
C261 C258 1.387 . S
C262 C263 1.387 . S
C262 H266 0.950 . S
C262 C271 1.390 . S
C263 C262 1.387 . S
C263 C265 1.387 . S
H264 C271 0.950 . S
C265 C263 1.387 . S
C265 C267 1.390 . S
C265 H269 0.950 . S
H266 C262 0.950 . S
C267 C265 1.390 . S
C267 C268 1.387 . S
C267 H270 0.950 . S
C268 C267 1.387 . S
C268 C271 1.387 . S
H269 C265 0.950 . S
H270 C267 0.950 . S
C271 C262 1.390 . S
C271 H264 0.950 . S
C271 C268 1.387 . S
C272 C273 1.387 . S
C272 H276 0.950 . S
C272 C281 1.390 . S
C273 C272 1.387 . S
C273 C275 1.387 . S
H274 C281 0.950 . S
C275 C273 1.387 . S
C275 C277 1.390 . S
C275 H279 0.950 . S
H276 C272 0.950 . S
C277 C275 1.390 . S
C277 C278 1.387 . S
C277 H280 0.950 . S
C278 C277 1.387 . S
C278 C281 1.387 . S
H279 C275 0.950 . S
H280 C277 0.950 . S
C281 C272 1.390 . S
C281 H274 0.950 . S
C281 C278 1.387 . S
C282 C283 1.387 . S
C282 H286 0.950 . S
C282 C291 1.390 . S
C283 C282 1.387 . S
C283 C285 1.387 . S
H284 C291 0.950 . S
C285 C283 1.387 . S
C285 C287 1.390 . S
C285 H289 0.950 . S
H286 C282 0.950 . S
C287 C285 1.390 . S
C287 C288 1.387 . S
C287 H290 0.950 . S
C288 C287 1.387 . S
C288 C291 1.387 . S
H289 C285 0.950 . S
H290 C287 0.950 . S
C291 C282 1.390 . S
C291 H284 0.950 . S
C291 C288 1.387 . S
C292 C293 1.387 . S
C292 H296 0.950 . S
C292 C301 1.390 . S
C293 C292 1.387 . S
C293 C295 1.387 . S
H294 C301 0.950 . S
C295 C293 1.387 . S
C295 C297 1.390 . S
C295 H299 0.950 . S
H296 C292 0.950 . S
C297 C295 1.390 . S
C297 C298 1.387 . S
C297 H300 0.950 . S
C298 C297 1.387 . S
C298 C301 1.387 . S
H299 C295 0.950 . S
H300 C297 0.950 . S
C301 C292 1.390 . S
C301 H294 0.950 . S
C301 C298 1.387 . S
C302 C303 1.387 . S
C302 H306 0.950 . S
C302 C311 1.390 . S
C303 C302 1.387 . S
C303 C305 1.387 . S
H304 C311 0.950 . S
C305 C303 1.387 . S
C305 C307 1.390 . S
C305 H309 0.950 . S
H306 C302 0.950 . S
C307 C305 1.390 . S
C307 C308 1.387 . S
C307 H310 0.950 . S
C308 C307 1.387 . S
C308 C311 1.387 . S
H309 C305 0.950 . S
H310 C307 0.950 . S
C311 C302 1.390 . S
C311 H304 0.950 . S
C311 C308 1.387 . S
C312 C313 1.387 . S
C312 H316 0.950 . S
C312 C321 1.390 . S
C313 C312 1.387 . S
C313 C315 1.387 . S
H314 C321 0.950 . S
C315 C313 1.387 . S
C315 C317 1.390 . S
C315 H319 0.950 . S
H316 C312 0.950 . S
C317 C315 1.390 . S
C317 C318 1.387 . S
C317 H320 0.950 . S
C318 C317 1.387 . S
C318 C321 1.387 . S
H319 C315 0.950 . S
H320 C317 0.950 . S
C321 C312 1.390 . S
C321 H314 0.950 . S
C321 C318 1.387 . S
C322 C323 1.387 . S
C322 H326 0.950 . S
C322 C331 1.390 . S
C323 C322 1.387 . S
C323 C325 1.387 . S
H324 C331 0.950 . S
C325 C323 1.387 . S
C325 C327 1.390 . S
C325 H329 0.950 . S
H326 C322 0.950 . S
C327 C325 1.390 . S
C327 C328 1.387 . S
C327 H330 0.950 . S
C328 C327 1.387 . S
C328 C331 1.387 . S
H329 C325 0.950 . S
H330 C327 0.950 . S
C331 C322 1.390 . S
C331 H324 0.950 . S
C331 C328 1.387 . S
C332 C333 1.387 . S
C332 H336 0.950 . S
C332 C341 1.390 . S
C333 C332 1.387 . S
C333 C335 1.387 . S
H334 C341 0.950 . S
C335 C333 1.387 . S
C335 C337 1.390 . S
C335 H339 0.950 . S
H336 C332 0.950 . S
C337 C335 1.390 . S
C337 C338 1.387 . S
C337 H340 0.950 . S
C338 C337 1.387 . S
C338 C341 1.387 . S
H339 C335 0.950 . S
H340 C337 0.950 . S
C341 C332 1.390 . S
C341 H334 0.950 . S
C341 C338 1.387 . S
C342 C343 1.387 . S
C342 H346 0.950 . S
C342 C351 1.390 . S
C343 C342 1.387 . S
C343 C345 1.387 . S
H344 C351 0.950 . S
C345 C343 1.387 . S
C345 C347 1.390 . S
C345 H349 0.950 . S
H346 C342 0.950 . S
C347 C345 1.390 . S
C347 C348 1.387 . S
C347 H350 0.950 . S
C348 C347 1.387 . S
C348 C351 1.387 . S
H349 C345 0.950 . S
H350 C347 0.950 . S
C351 C342 1.390 . S
C351 H344 0.950 . S
C351 C348 1.387 . S
C352 C353 1.387 . S
C352 H356 0.950 . S
C352 C361 1.390 . S
C353 C352 1.387 . S
C353 C355 1.387 . S
H354 C361 0.950 . S
C355 C353 1.387 . S
C355 C357 1.390 . S
C355 H359 0.950 . S
H356 C352 0.950 . S
C357 C355 1.390 . S
C357 C358 1.387 . S
C357 H360 0.950 . S
C358 C357 1.387 . S
C358 C361 1.387 . S
H359 C355 0.950 . S
H360 C357 0.950 . S
C361 C352 1.390 . S
C361 H354 0.950 . S
C361 C358 1.387 . S
C362 C363 1.387 . S
C362 H366 0.950 . S
C362 C371 1.390 . S
C363 C362 1.387 . S
C363 C365 1.387 . S
H364 C371 0.950 . S
C365 C363 1.387 . S
C365 C367 1.390 . S
C365 H369 0.950 . S
H366 C362 0.950 . S
C367 C365 1.390 . S
C367 C368 1.387 . S
C367 H370 0.950 . S
C368 C367 1.387 . S
C368 C371 1.387 . S
H369 C365 0.950 . S
H370 C367 0.950 . S
C371 C362 1.390 . S
C371 H364 0.950 . S
C371 C368 1.387 . S
C372 C373 1.387 . S
C372 H376 0.950 . S
C372 C381 1.390 . S
C373 C372 1.387 . S
C373 C375 1.387 . S
H374 C381 0.950 . S
C375 C373 1.387 . S
C375 C377 1.390 . S
C375 H379 0.950 . S
H376 C372 0.950 . S
C377 C375 1.390 . S
C377 C378 1.387 . S
C377 H380 0.950 . S
C378 C377 1.387 . S
C378 C381 1.387 . S
H379 C375 0.950 . S
H380 C377 0.950 . S
C381 C372 1.390 . S
C381 H374 0.950 . S
C381 C378 1.387 . S
C382 C383 1.387 . S
C382 H386 0.950 . S
C382 C391 1.390 . S
C383 C382 1.387 . S
C383 C385 1.387 . S
H384 C391 0.950 . S
C385 C383 1.387 . S
C385 C387 1.390 . S
C385 H389 0.950 . S
H386 C382 0.950 . S
C387 C385 1.390 . S
C387 C388 1.387 . S
C387 H390 0.950 . S
C388 C387 1.387 . S
C388 C391 1.387 . S
H389 C385 0.950 . S
H390 C387 0.950 . S
C391 C382 1.390 . S
C391 H384 0.950 . S
C391 C388 1.387 . S
C392 C393 1.387 . S
C392 H396 0.950 . S
C392 C401 1.390 . S
C393 C392 1.387 . S
C393 C395 1.387 . S
H394 C401 0.950 . S
C395 C393 1.387 . S
C395 C397 1.390 . S
C395 H399 0.950 . S
H396 C392 0.950 . S
C397 C395 1.390 . S
C397 C398 1.387 . S
C397 H400 0.950 . S
C398 C397 1.387 . S
C398 C401 1.387 . S
H399 C395 0.950 . S
H400 C397 0.950 . S
C401 C392 1.390 . S
C401 H394 0.950 . S
C401 C398 1.387 . S
C402 C403 1.387 . S
C402 H406 0.950 . S
C402 C411 1.390 . S
C403 C402 1.387 . S
C403 C405 1.387 . S
H404 C411 0.950 . S
C405 C403 1.387 . S
C405 C407 1.390 . S
C405 H409 0.950 . S
H406 C402 0.950 . S
C407 C405 1.390 . S
C407 C408 1.387 . S
C407 H410 0.950 . S
C408 C407 1.387 . S
C408 C411 1.387 . S
H409 C405 0.950 . S
H410 C407 0.950 . S
C411 C402 1.390 . S
C411 H404 0.950 . S
C411 C408 1.387 . S
C412 C413 1.387 . S
C412 H416 0.950 . S
C412 C421 1.390 . S
C413 C412 1.387 . S
C413 C415 1.387 . S
H414 C421 0.950 . S
C415 C413 1.387 . S
C415 C417 1.390 . S
C415 H419 0.950 . S
H416 C412 0.950 . S
C417 C415 1.390 . S
C417 C418 1.387 . S
C417 H420 0.950 . S
C418 C417 1.387 . S
C418 C421 1.387 . S
H419 C415 0.950 . S
H420 C417 0.950 . S
C421 C412 1.390 . S
C421 H414 0.950 . S
C421 C418 1.387 . S
C422 C423 1.387 . S
C422 H426 0.950 . S
C422 C431 1.390 . S
C423 C422 1.387 . S
C423 C425 1.387 . S
H424 C431 0.950 . S
C425 C423 1.387 . S
C425 C427 1.390 . S
C425 H429 0.950 . S
H426 C422 0.950 . S
C427 C425 1.390 . S
C427 C428 1.387 . S
C427 H430 0.950 . S
C428 C427 1.387 . S
C428 C431 1.387 . S
H429 C425 0.950 . S
H430 C427 0.950 . S
C431 C422 1.390 . S
C431 H424 0.950 . S
C431 C428 1.387 . S
C193 C13 1.585 . S
C198 C98 1.501 . S
C203 C27 1.592 . S
C208 C109 1.517 . S
C218 C128 1.508 . S
C213 C29 1.583 . S
C228 C145 1.517 . S
C223 C54 1.590 . S
C238 C172 1.520 . S
C233 C69 1.583 . S
C248 C181 1.517 . S
C243 C83 1.592 . S
C253 C15 1.587 . S
C258 C134 1.502 . S
C263 C41 1.590 . S
C268 C154 1.524 . S
C278 C163 1.510 . S
C273 C42 1.586 . S
C288 C190 1.528 . S
C283 C57 1.589 . S
C293 C71 1.584 . S
C298 C92 1.508 . S
C308 C118 1.522 . S
C303 C1 1.586 . S
C318 C146 1.555 . S
C313 C12 1.655 . S
C323 C26 1.664 . S
C328 C170 1.572 . S
C338 C182 1.555 . S
C333 C28 1.652 . S
C343 C55 1.663 . S
C348 C100 1.535 . S
C353 C68 1.655 . S
C358 C110 1.559 . S
C363 C82 1.661 . S
C368 C127 1.546 . S
C373 C14 1.658 . S
C378 C188 1.567 . S
C388 C91 1.545 . S
C383 C40 1.660 . S
C393 C43 1.660 . S
C398 C116 1.566 . S
C403 C56 1.657 . S
C408 C136 1.529 . S
C413 C70 1.657 . S
C418 C152 1.564 . S
C423 C0 1.659 . S
C428 C164 1.563 . S
