# Generated by pormake.
# Topology eea, (3,6)-cn, num edge types: 1
# Building blocks:
#     Node 0, Type 0, BuildingBlock: MIDCAF_clean_linker_0, # of connection points: 3
#     Node 1, Type 0, BuildingBlock: MIDCAF_clean_linker_0, # of connection points: 3
#     Node 2, Type 0, BuildingBlock: MIDCAF_clean_linker_0, # of connection points: 3
#     Node 3, Type 0, BuildingBlock: MIDCAF_clean_linker_0, # of connection points: 3
#     Node 4, Type 0, BuildingBlock: MIDCAF_clean_linker_0, # of connection points: 3
#     Node 5, Type 0, BuildingBlock: MIDCAF_clean_linker_0, # of connection points: 3
#     Node 6, Type 0, BuildingBlock: MIDCAF_clean_linker_0, # of connection points: 3
#     Node 7, Type 0, BuildingBlock: MIDCAF_clean_linker_0, # of connection points: 3
#     Node 8, Type 0, BuildingBlock: MIDCAF_clean_linker_0, # of connection points: 3
#     Node 9, Type 0, BuildingBlock: MIDCAF_clean_linker_0, # of connection points: 3
#     Node 10, Type 0, BuildingBlock: MIDCAF_clean_linker_0, # of connection points: 3
#     Node 11, Type 0, BuildingBlock: MIDCAF_clean_linker_0, # of connection points: 3
#     Node 12, Type 0, BuildingBlock: MIDCAF_clean_linker_0, # of connection points: 3
#     Node 13, Type 0, BuildingBlock: MIDCAF_clean_linker_0, # of connection points: 3
#     Node 14, Type 0, BuildingBlock: MIDCAF_clean_linker_0, # of connection points: 3
#     Node 15, Type 0, BuildingBlock: MIDCAF_clean_linker_0, # of connection points: 3
#     Node 16, Type 0, BuildingBlock: MIDCAF_clean_linker_0, # of connection points: 3
#     Node 17, Type 0, BuildingBlock: MIDCAF_clean_linker_0, # of connection points: 3
#     Node 18, Type 1, BuildingBlock: KUMJIN_clean_sbu_0, # of connection points: 6
#     Node 19, Type 1, BuildingBlock: KUMJIN_clean_sbu_0, # of connection points: 6
#     Node 20, Type 1, BuildingBlock: KUMJIN_clean_sbu_0, # of connection points: 6
#     Node 21, Type 1, BuildingBlock: KUMJIN_clean_sbu_0, # of connection points: 6
#     Node 22, Type 1, BuildingBlock: KUMJIN_clean_sbu_0, # of connection points: 6
#     Node 23, Type 1, BuildingBlock: KUMJIN_clean_sbu_0, # of connection points: 6
#     Node 24, Type 1, BuildingBlock: KUMJIN_clean_sbu_0, # of connection points: 6
#     Node 25, Type 1, BuildingBlock: KUMJIN_clean_sbu_0, # of connection points: 6
#     Node 26, Type 1, BuildingBlock: KUMJIN_clean_sbu_0, # of connection points: 6
#     Edge 27, Type (0, 1), BuildingBlock: EZIPEK_clean_linker_0, # of connection points: 2
#     Edge 28, Type (0, 1), BuildingBlock: EZIPEK_clean_linker_0, # of connection points: 2
#     Edge 29, Type (0, 1), BuildingBlock: EZIPEK_clean_linker_0, # of connection points: 2
#     Edge 30, Type (0, 1), BuildingBlock: EZIPEK_clean_linker_0, # of connection points: 2
#     Edge 31, Type (0, 1), BuildingBlock: EZIPEK_clean_linker_0, # of connection points: 2
#     Edge 32, Type (0, 1), BuildingBlock: EZIPEK_clean_linker_0, # of connection points: 2
#     Edge 33, Type (0, 1), BuildingBlock: EZIPEK_clean_linker_0, # of connection points: 2
#     Edge 34, Type (0, 1), BuildingBlock: EZIPEK_clean_linker_0, # of connection points: 2
#     Edge 35, Type (0, 1), BuildingBlock: EZIPEK_clean_linker_0, # of connection points: 2
#     Edge 36, Type (0, 1), BuildingBlock: EZIPEK_clean_linker_0, # of connection points: 2
#     Edge 37, Type (0, 1), BuildingBlock: EZIPEK_clean_linker_0, # of connection points: 2
#     Edge 38, Type (0, 1), BuildingBlock: EZIPEK_clean_linker_0, # of connection points: 2
#     Edge 39, Type (0, 1), BuildingBlock: EZIPEK_clean_linker_0, # of connection points: 2
#     Edge 40, Type (0, 1), BuildingBlock: EZIPEK_clean_linker_0, # of connection points: 2
#     Edge 41, Type (0, 1), BuildingBlock: EZIPEK_clean_linker_0, # of connection points: 2
#     Edge 42, Type (0, 1), BuildingBlock: EZIPEK_clean_linker_0, # of connection points: 2
#     Edge 43, Type (0, 1), BuildingBlock: EZIPEK_clean_linker_0, # of connection points: 2
#     Edge 44, Type (0, 1), BuildingBlock: EZIPEK_clean_linker_0, # of connection points: 2
#     Edge 45, Type (0, 1), BuildingBlock: EZIPEK_clean_linker_0, # of connection points: 2
#     Edge 46, Type (0, 1), BuildingBlock: EZIPEK_clean_linker_0, # of connection points: 2
#     Edge 47, Type (0, 1), BuildingBlock: EZIPEK_clean_linker_0, # of connection points: 2
#     Edge 48, Type (0, 1), BuildingBlock: EZIPEK_clean_linker_0, # of connection points: 2
#     Edge 49, Type (0, 1), BuildingBlock: EZIPEK_clean_linker_0, # of connection points: 2
#     Edge 50, Type (0, 1), BuildingBlock: EZIPEK_clean_linker_0, # of connection points: 2
#     Edge 51, Type (0, 1), BuildingBlock: EZIPEK_clean_linker_0, # of connection points: 2
#     Edge 52, Type (0, 1), BuildingBlock: EZIPEK_clean_linker_0, # of connection points: 2
#     Edge 53, Type (0, 1), BuildingBlock: EZIPEK_clean_linker_0, # of connection points: 2
#     Edge 54, Type (0, 1), BuildingBlock: EZIPEK_clean_linker_0, # of connection points: 2
#     Edge 55, Type (0, 1), BuildingBlock: EZIPEK_clean_linker_0, # of connection points: 2
#     Edge 56, Type (0, 1), BuildingBlock: EZIPEK_clean_linker_0, # of connection points: 2
#     Edge 57, Type (0, 1), BuildingBlock: EZIPEK_clean_linker_0, # of connection points: 2
#     Edge 58, Type (0, 1), BuildingBlock: EZIPEK_clean_linker_0, # of connection points: 2
#     Edge 59, Type (0, 1), BuildingBlock: EZIPEK_clean_linker_0, # of connection points: 2
#     Edge 60, Type (0, 1), BuildingBlock: EZIPEK_clean_linker_0, # of connection points: 2
#     Edge 61, Type (0, 1), BuildingBlock: EZIPEK_clean_linker_0, # of connection points: 2
#     Edge 62, Type (0, 1), BuildingBlock: EZIPEK_clean_linker_0, # of connection points: 2
#     Edge 63, Type (0, 1), BuildingBlock: EZIPEK_clean_linker_0, # of connection points: 2
#     Edge 64, Type (0, 1), BuildingBlock: EZIPEK_clean_linker_0, # of connection points: 2
#     Edge 65, Type (0, 1), BuildingBlock: EZIPEK_clean_linker_0, # of connection points: 2
#     Edge 66, Type (0, 1), BuildingBlock: EZIPEK_clean_linker_0, # of connection points: 2
#     Edge 67, Type (0, 1), BuildingBlock: EZIPEK_clean_linker_0, # of connection points: 2
#     Edge 68, Type (0, 1), BuildingBlock: EZIPEK_clean_linker_0, # of connection points: 2
#     Edge 69, Type (0, 1), BuildingBlock: EZIPEK_clean_linker_0, # of connection points: 2
#     Edge 70, Type (0, 1), BuildingBlock: EZIPEK_clean_linker_0, # of connection points: 2
#     Edge 71, Type (0, 1), BuildingBlock: EZIPEK_clean_linker_0, # of connection points: 2
#     Edge 72, Type (0, 1), BuildingBlock: EZIPEK_clean_linker_0, # of connection points: 2
#     Edge 73, Type (0, 1), BuildingBlock: EZIPEK_clean_linker_0, # of connection points: 2
#     Edge 74, Type (0, 1), BuildingBlock: EZIPEK_clean_linker_0, # of connection points: 2
#     Edge 75, Type (0, 1), BuildingBlock: EZIPEK_clean_linker_0, # of connection points: 2
#     Edge 76, Type (0, 1), BuildingBlock: EZIPEK_clean_linker_0, # of connection points: 2
#     Edge 77, Type (0, 1), BuildingBlock: EZIPEK_clean_linker_0, # of connection points: 2
#     Edge 78, Type (0, 1), BuildingBlock: EZIPEK_clean_linker_0, # of connection points: 2
#     Edge 79, Type (0, 1), BuildingBlock: EZIPEK_clean_linker_0, # of connection points: 2
#     Edge 80, Type (0, 1), BuildingBlock: EZIPEK_clean_linker_0, # of connection points: 2
# Relax obj value: 0.008
# Max RMSD: 0.090
# Mean RMSD: 0.072
data_MOF--net-eea--node1-KUMJIN_clean_sbu_0--node2-MIDCAF_clean_linker_0--edge1-EZIPEK_clean_linker_0
_symmetry_space_group_name_H-M    P1
_symmetry_Int_Tables_number       1
_symmetry_cell_setting            triclinic
loop_
_symmetry_equiv_pos_as_xyz
'x, y, z'
_cell_length_a     48.289542
_cell_length_b     49.505439
_cell_length_c     72.401176
_cell_angle_alpha  90.16455
_cell_angle_beta   90.230859
_cell_angle_gamma 119.98227
loop_
_atom_site_label
_atom_site_type_symbol
_atom_site_fract_x
_atom_site_fract_y
_atom_site_fract_z
_atom_type_partial_charge
C0 C 0.22104 0.01683 0.39498 0.0
C1 C 0.23225 0.01721 0.37705 0.0
C2 C 0.25378 0.04589 0.36898 0.0
C3 C 0.26272 0.07381 0.37846 0.0
H4 H 0.22109 0.13859 0.37715 0.0
H5 H 0.20541 0.17339 0.36279 0.0
H6 H 0.27089 0.24856 0.39836 0.0
H7 H 0.28596 0.2132 0.41349 0.0
H8 H 0.27051 0.17421 0.45814 0.0
H9 H 0.28293 0.1793 0.4912 0.0
H10 H 0.29174 0.09694 0.4891 0.0
H11 H 0.27938 0.09146 0.45605 0.0
H12 H 0.22167 0.04348 0.41842 0.0
H13 H 0.20461 0.99493 0.40151 0.0
H14 H 0.2631 0.04663 0.35529 0.0
H15 H 0.27859 0.0958 0.37186 0.0
N16 N 0.25722 0.1251 0.39707 0.0
N17 N 0.26684 0.15331 0.42476 0.0
N18 N 0.2644 0.10475 0.42467 0.0
C19 C 0.26103 0.15069 0.40625 0.0
C20 C 0.26869 0.13038 0.43407 0.0
C21 C 0.25903 0.10219 0.40618 0.0
C22 C 0.25466 0.17318 0.3965 0.0
C23 C 0.23253 0.16261 0.38181 0.0
C24 C 0.22348 0.18242 0.37358 0.0
C25 C 0.23688 0.21338 0.37957 0.0
C26 C 0.26025 0.22462 0.39362 0.0
C27 C 0.26873 0.20446 0.40225 0.0
C28 C 0.27438 0.13268 0.45432 0.0
C29 C 0.27489 0.15703 0.46467 0.0
C30 C 0.28175 0.15988 0.48359 0.0
C31 C 0.28827 0.13852 0.49247 0.0
C32 C 0.28665 0.11355 0.48242 0.0
C33 C 0.27974 0.11062 0.46351 0.0
C34 C 0.25142 0.07321 0.39641 0.0
C35 C 0.23092 0.0445 0.40468 0.0
C36 C 0.994 0.21213 0.3969 0.0
C37 C 0.99369 0.21336 0.37755 0.0
C38 C 0.9651 0.19483 0.36786 0.0
C39 C 0.93748 0.17408 0.37739 0.0
H40 H 0.8684 0.07945 0.37333 0.0
H41 H 0.83201 0.03009 0.35804 0.0
H42 H 0.76211 0.00925 0.4006 0.0
H43 H 0.7986 0.05856 0.41627 0.0
H44 H 0.82457 0.10335 0.45436 0.0
H45 H 0.81849 0.11279 0.48688 0.0
H46 H 0.92068 0.17147 0.49226 0.0
H47 H 0.92692 0.16321 0.45952 0.0
H48 H 0.96736 0.19087 0.42138 0.0
H49 H 0.0159 0.22656 0.40457 0.0
H50 H 0.96448 0.19579 0.35293 0.0
H51 H 0.91589 0.15946 0.36953 0.0
N52 N 0.88616 0.12348 0.39743 0.0
N53 N 0.85669 0.10452 0.42467 0.0
N54 N 0.90593 0.15135 0.42513 0.0
C55 C 0.85995 0.10129 0.40627 0.0
C56 C 0.87967 0.12948 0.43421 0.0
C57 C 0.90913 0.14864 0.40669 0.0
C58 C 0.8365 0.07286 0.39614 0.0
C59 C 0.84513 0.06466 0.37936 0.0
C60 C 0.82439 0.03648 0.37055 0.0
C61 C 0.79449 0.01615 0.3782 0.0
C62 C 0.78516 0.02475 0.39451 0.0
C63 C 0.80607 0.05282 0.40347 0.0
C64 C 0.87618 0.13294 0.45427 0.0
C65 C 0.84579 0.11814 0.46246 0.0
C66 C 0.84226 0.12344 0.48106 0.0
C67 C 0.86909 0.14314 0.49193 0.0
C68 C 0.89965 0.15643 0.48407 0.0
C69 C 0.90313 0.15179 0.46535 0.0
C70 C 0.93786 0.17207 0.39678 0.0
C71 C 0.96626 0.19179 0.40647 0.0
C72 C 0.78966 0.77977 0.39705 0.0
C73 C 0.79108 0.78344 0.37781 0.0
C74 C 0.81442 0.78057 0.36791 0.0
C75 C 0.83673 0.77523 0.37721 0.0
H76 H 0.92203 0.7771 0.36932 0.0
H77 H 0.97162 0.78912 0.3535 0.0
H78 H 0.01223 0.7817 0.405 0.0
H79 H 0.96276 0.76923 0.42098 0.0
H80 H 0.9086 0.73078 0.45397 0.0
H81 H 0.89914 0.71374 0.48615 0.0
H82 H 0.83274 0.74744 0.49167 0.0
H83 H 0.84129 0.76377 0.45928 0.0
H84 H 0.8102 0.77184 0.42124 0.0
H85 H 0.77177 0.78183 0.40493 0.0
H86 H 0.81584 0.78328 0.35304 0.0
H87 H 0.85478 0.77371 0.36919 0.0
N88 N 0.88644 0.77098 0.39747 0.0
N89 N 0.90545 0.76013 0.4247 0.0
N90 N 0.85714 0.76073 0.42487 0.0
C91 C 0.90919 0.76736 0.40643 0.0
C92 C 0.87951 0.75676 0.43404 0.0
C93 C 0.86032 0.76768 0.40655 0.0
C94 C 0.93839 0.77249 0.39652 0.0
C95 C 0.94136 0.77777 0.37732 0.0
C96 C 0.96964 0.78458 0.3682 0.0
C97 C 0.99563 0.78668 0.37814 0.0
C98 C 0.99248 0.78045 0.39714 0.0
C99 C 0.96413 0.77333 0.40624 0.0
C100 C 0.87542 0.74834 0.45394 0.0
C101 C 0.89209 0.73475 0.46201 0.0
C102 C 0.88676 0.72502 0.48043 0.0
C103 C 0.86504 0.72908 0.49126 0.0
C104 C 0.84943 0.7439 0.48352 0.0
C105 C 0.85427 0.7531 0.46498 0.0
C106 C 0.83587 0.7722 0.39659 0.0
C107 C 0.81173 0.7741 0.40635 0.0
C108 C 0.00536 0.20562 0.61139 0.0
C109 C 0.00678 0.21328 0.6302 0.0
C110 C 0.03644 0.22717 0.63938 0.0
C111 C 0.06401 0.23222 0.63007 0.0
H112 H 0.13849 0.21093 0.63809 0.0
H113 H 0.17563 0.19869 0.65405 0.0
H114 H 0.23447 0.22376 0.6055 0.0
H115 H 0.19754 0.23601 0.58929 0.0
H116 H 0.16887 0.24403 0.55068 0.0
H117 H 0.17803 0.26167 0.51852 0.0
H118 H 0.095 0.27259 0.52009 0.0
H119 H 0.08538 0.25485 0.5521 0.0
H120 H 0.03118 0.20504 0.58748 0.0
H121 H 0.98272 0.19497 0.60404 0.0
H122 H 0.03806 0.23342 0.65386 0.0
H123 H 0.08648 0.24243 0.63757 0.0
N124 N 0.1144 0.22586 0.61082 0.0
N125 N 0.14439 0.23619 0.58367 0.0
N126 N 0.0955 0.23569 0.58318 0.0
C127 C 0.14079 0.22925 0.60202 0.0
C128 C 0.12193 0.23959 0.57413 0.0
C129 C 0.09164 0.22895 0.60151 0.0
C130 C 0.16473 0.22422 0.61226 0.0
C131 C 0.15946 0.21419 0.63079 0.0
C132 C 0.1807 0.20724 0.64001 0.0
C133 C 0.20772 0.2103 0.63095 0.0
C134 C 0.21375 0.22133 0.61274 0.0
C135 C 0.19249 0.2282 0.60347 0.0
C136 C 0.12652 0.24824 0.55417 0.0
C137 C 0.15236 0.24994 0.54419 0.0
C138 C 0.15761 0.2599 0.52576 0.0
C139 C 0.1373 0.2686 0.51696 0.0
C140 C 0.11097 0.266 0.52663 0.0
C141 C 0.10558 0.2559 0.54499 0.0
C142 C 0.06261 0.22438 0.61125 0.0
C143 C 0.03305 0.21144 0.60195 0.0
C144 C 0.76908 0.78825 0.61585 0.0
C145 C 0.77212 0.79023 0.63517 0.0
C146 C 0.76409 0.80972 0.64496 0.0
C147 C 0.75408 0.82785 0.63543 0.0
H148 H 0.7693 0.91421 0.6399 0.0
H149 H 0.78468 0.96375 0.65497 0.0
H150 H 0.74639 0.9904 0.60915 0.0
H151 H 0.73101 0.94068 0.59362 0.0
H152 H 0.75911 0.91173 0.55212 0.0
H153 H 0.74928 0.90579 0.51864 0.0
H154 H 0.68487 0.8072 0.52572 0.0
H155 H 0.69594 0.81274 0.55899 0.0
H156 H 0.75724 0.80448 0.5914 0.0
H157 H 0.77482 0.77292 0.60813 0.0
H158 H 0.76583 0.81105 0.65989 0.0
H159 H 0.74856 0.84318 0.64331 0.0
N160 N 0.74694 0.87324 0.61474 0.0
N161 N 0.73719 0.89163 0.58713 0.0
N162 N 0.73759 0.84433 0.5875 0.0
C163 C 0.74339 0.89511 0.60556 0.0
C164 C 0.73399 0.86611 0.57809 0.0
C165 C 0.74417 0.8479 0.6059 0.0
C166 C 0.74921 0.92363 0.61542 0.0
C167 C 0.7636 0.93027 0.63306 0.0
C168 C 0.77239 0.95853 0.64176 0.0
C169 C 0.76664 0.98048 0.63311 0.0
C170 C 0.7509 0.9735 0.61595 0.0
C171 C 0.74231 0.94524 0.60711 0.0
C172 C 0.72804 0.86269 0.55804 0.0
C173 C 0.74294 0.88882 0.54646 0.0
C174 C 0.73748 0.88546 0.52741 0.0
C175 C 0.71605 0.85615 0.5198 0.0
C176 C 0.70135 0.83003 0.53137 0.0
C177 C 0.70763 0.83321 0.55032 0.0
C178 C 0.75161 0.82642 0.616 0.0
C179 C 0.75877 0.80607 0.60633 0.0
C180 C 0.20764 0.97556 0.61138 0.0
C181 C 0.20846 0.97789 0.63094 0.0
C182 C 0.18262 0.95314 0.64037 0.0
C183 C 0.1599 0.92631 0.63108 0.0
H184 H 0.07428 0.84959 0.63897 0.0
H185 H 0.02715 0.8122 0.6561 0.0
H186 H 0.98988 0.75504 0.60726 0.0
H187 H 0.03704 0.79216 0.58986 0.0
H188 H 0.07196 0.84188 0.54758 0.0
H189 H 0.07952 0.83462 0.51477 0.0
H190 H 0.17987 0.86954 0.52501 0.0
H191 H 0.17277 0.87866 0.55747 0.0
H192 H 0.18593 0.94802 0.58717 0.0
H193 H 0.22389 0.99478 0.60282 0.0
H194 H 0.17833 0.95381 0.65482 0.0
H195 H 0.141 0.90788 0.63906 0.0
N196 N 0.11074 0.87327 0.61122 0.0
N197 N 0.09117 0.84344 0.5841 0.0
N198 N 0.1402 0.89056 0.58391 0.0
C199 C 0.0878 0.84739 0.60243 0.0
C200 C 0.11746 0.86494 0.57482 0.0
C201 C 0.13687 0.89502 0.6021 0.0
C202 C 0.05947 0.82408 0.61291 0.0
C203 C 0.05622 0.82904 0.63179 0.0
C204 C 0.02934 0.8077 0.64168 0.0
C205 C 0.00513 0.78104 0.63291 0.0
C206 C 0.0084 0.77562 0.61421 0.0
C207 C 0.03533 0.79691 0.60429 0.0
C208 C 0.12173 0.86055 0.55504 0.0
C209 C 0.09563 0.84821 0.54275 0.0
C210 C 0.09996 0.84423 0.52403 0.0
C211 C 0.13019 0.8512 0.51747 0.0
C212 C 0.15633 0.86393 0.52974 0.0
C213 C 0.15223 0.869 0.54829 0.0
C214 C 0.16118 0.92348 0.61188 0.0
C215 C 0.18504 0.94866 0.60211 0.0
C216 C 0.8916 0.35043 0.72761 0.0
C217 C 0.89686 0.35129 0.70849 0.0
C218 C 0.91273 0.3801 0.69951 0.0
C219 C 0.92199 0.40761 0.70945 0.0
H220 H 0.8918 0.47333 0.70562 0.0
H221 H 0.87616 0.50758 0.69048 0.0
H222 H 0.927 0.57831 0.73195 0.0
H223 H 0.94241 0.54379 0.7476 0.0
H224 H 0.91825 0.49925 0.78981 0.0
H225 H 0.93032 0.50791 0.82284 0.0
H226 H 0.96844 0.44559 0.82147 0.0
H227 H 0.95542 0.43589 0.7885 0.0
H228 H 0.89649 0.37647 0.75226 0.0
H229 H 0.87985 0.32835 0.73482 0.0
H230 H 0.91765 0.38122 0.68486 0.0
H231 H 0.93353 0.4296 0.70215 0.0
N232 N 0.92095 0.45799 0.72922 0.0
N233 N 0.92904 0.48625 0.7566 0.0
N234 N 0.92783 0.43822 0.75716 0.0
C235 C 0.92399 0.48344 0.73808 0.0
C236 C 0.93115 0.46382 0.76624 0.0
C237 C 0.92288 0.43536 0.73856 0.0
C238 C 0.91817 0.50584 0.72789 0.0
C239 C 0.9002 0.49636 0.71141 0.0
C240 C 0.8912 0.51582 0.70271 0.0
C241 C 0.90043 0.54523 0.71018 0.0
C242 C 0.91974 0.55555 0.72609 0.0
C243 C 0.92838 0.53584 0.735 0.0
C244 C 0.9363 0.46719 0.78648 0.0
C245 C 0.92888 0.48709 0.79655 0.0
C246 C 0.93556 0.49195 0.81544 0.0
C247 C 0.95063 0.47771 0.8245 0.0
C248 C 0.95695 0.45691 0.81467 0.0
C249 C 0.94958 0.45147 0.79584 0.0
C250 C 0.91627 0.40672 0.72857 0.0
C251 C 0.90145 0.3779 0.7376 0.0
C252 C 0.6597 0.54555 0.72968 0.0
C253 C 0.65989 0.54652 0.71032 0.0
C254 C 0.6315 0.52803 0.70044 0.0
C255 C 0.60352 0.50762 0.70981 0.0
H256 H 0.535 0.41164 0.70636 0.0
H257 H 0.49913 0.36116 0.69197 0.0
H258 H 0.43115 0.33967 0.73577 0.0
H259 H 0.46704 0.39001 0.75051 0.0
H260 H 0.52593 0.41891 0.79291 0.0
H261 H 0.51893 0.42444 0.82602 0.0
H262 H 0.54832 0.5214 0.81787 0.0
H263 H 0.55704 0.51638 0.785 0.0
H264 H 0.63236 0.52486 0.75401 0.0
H265 H 0.68142 0.55996 0.73749 0.0
H266 H 0.63127 0.52885 0.68549 0.0
H267 H 0.58207 0.49297 0.70185 0.0
N268 N 0.55251 0.45653 0.73013 0.0
N269 N 0.52369 0.4376 0.75757 0.0
N270 N 0.57086 0.48628 0.75734 0.0
C271 C 0.52695 0.43392 0.73927 0.0
C272 C 0.54545 0.46377 0.76663 0.0
C273 C 0.57454 0.48274 0.73906 0.0
C274 C 0.50404 0.40469 0.72971 0.0
C275 C 0.51234 0.39635 0.7129 0.0
C276 C 0.49197 0.36752 0.70467 0.0
C277 C 0.46285 0.34674 0.71299 0.0
C278 C 0.45377 0.35542 0.72932 0.0
C279 C 0.47431 0.38412 0.73769 0.0
C280 C 0.54185 0.46722 0.78651 0.0
C281 C 0.53107 0.44142 0.79827 0.0
C282 C 0.52716 0.44454 0.81712 0.0
C283 C 0.53273 0.47321 0.82429 0.0
C284 C 0.54378 0.49906 0.81255 0.0
C285 C 0.54873 0.4962 0.79384 0.0
C286 C 0.60339 0.506 0.72922 0.0
C287 C 0.63163 0.52561 0.73907 0.0
C288 C 0.44862 0.09315 0.72953 0.0
C289 C 0.45792 0.11695 0.71638 0.0
C290 C 0.49018 0.13378 0.71107 0.0
C291 C 0.51272 0.12723 0.71882 0.0
H292 H 0.59674 0.12558 0.70705 0.0
H293 H 0.64478 0.13523 0.69034 0.0
H294 H 0.67439 0.10123 0.7367 0.0
H295 H 0.62654 0.09161 0.75369 0.0
H296 H 0.5881 0.08126 0.79315 0.0
H297 H 0.57812 0.06393 0.82538 0.0
H298 H 0.48659 0.05907 0.82311 0.0
H299 H 0.49603 0.07618 0.79104 0.0
H300 H 0.46383 0.06969 0.74839 0.0
H301 H 0.42393 0.07989 0.73388 0.0
H302 H 0.49807 0.15241 0.70109 0.0
H303 H 0.53742 0.14088 0.71456 0.0
N304 N 0.55535 0.10549 0.73321 0.0
N305 N 0.57432 0.09376 0.76021 0.0
N306 N 0.52459 0.09151 0.76014 0.0
C307 C 0.57839 0.10217 0.74205 0.0
C308 C 0.54746 0.08855 0.76939 0.0
C309 C 0.52832 0.09999 0.74213 0.0
C310 C 0.6076 0.10779 0.73182 0.0
C311 C 0.61331 0.11997 0.71375 0.0
C312 C 0.64073 0.12546 0.70409 0.0
C313 C 0.66294 0.11868 0.71221 0.0
C314 C 0.65735 0.10637 0.73014 0.0
C315 C 0.63003 0.10103 0.73987 0.0
C316 C 0.54274 0.07976 0.7893 0.0
C317 C 0.56592 0.07672 0.79949 0.0
C318 C 0.56036 0.067 0.81796 0.0
C319 C 0.53159 0.06018 0.82658 0.0
C320 C 0.50896 0.06429 0.81671 0.0
C321 C 0.51442 0.07393 0.7983 0.0
C322 C 0.50376 0.10454 0.73261 0.0
C323 C 0.47144 0.08741 0.73783 0.0
C324 C 0.6795 0.56096 0.94668 0.0
C325 C 0.67316 0.54866 0.96458 0.0
C326 C 0.69471 0.54133 0.97309 0.0
C327 C 0.72223 0.54617 0.96378 0.0
H328 H 0.81414 0.55913 0.97247 0.0
H329 H 0.85321 0.5493 0.98824 0.0
H330 H 0.89561 0.54968 0.93593 0.0
H331 H 0.85704 0.55992 0.92001 0.0
H332 H 0.84025 0.59692 0.88624 0.0
H333 H 0.84627 0.61468 0.85423 0.0
H334 H 0.74552 0.58345 0.85125 0.0
H335 H 0.73941 0.56658 0.88345 0.0
H336 H 0.71079 0.57484 0.92343 0.0
H337 H 0.66301 0.56656 0.93985 0.0
H338 H 0.69007 0.53162 0.98687 0.0
H339 H 0.73829 0.54009 0.97069 0.0
N340 N 0.7807 0.55982 0.94436 0.0
N341 N 0.80952 0.57029 0.91672 0.0
N342 N 0.76026 0.56894 0.91712 0.0
C343 C 0.80695 0.56372 0.93511 0.0
C344 C 0.78625 0.5729 0.90761 0.0
C345 C 0.75725 0.56244 0.93549 0.0
C346 C 0.83209 0.56 0.94489 0.0
C347 C 0.83192 0.55742 0.96428 0.0
C348 C 0.85434 0.55197 0.97337 0.0
C349 C 0.87719 0.5486 0.96325 0.0
C350 C 0.87817 0.5522 0.94399 0.0
C351 C 0.85598 0.55797 0.93491 0.0
C352 C 0.78944 0.5808 0.88759 0.0
C353 C 0.81928 0.59362 0.87878 0.0
C354 C 0.82278 0.60373 0.86043 0.0
C355 C 0.79644 0.6008 0.85038 0.0
C356 C 0.76624 0.58622 0.85877 0.0
C357 C 0.76284 0.57672 0.87723 0.0
C358 C 0.72853 0.5581 0.94568 0.0
C359 C 0.70681 0.56553 0.93729 0.0
C360 C 0.41684 0.10887 0.94797 0.0
C361 C 0.43464 0.11838 0.96444 0.0
C362 C 0.44175 0.14666 0.97276 0.0
C363 C 0.43194 0.1658 0.96445 0.0
H364 H 0.43944 0.24783 0.97119 0.0
H365 H 0.45619 0.29789 0.98613 0.0
H366 H 0.41113 0.32195 0.94272 0.0
H367 H 0.39464 0.27192 0.92732 0.0
H368 H 0.41173 0.24572 0.8861 0.0
H369 H 0.40149 0.24128 0.85278 0.0
H370 H 0.36416 0.14202 0.85556 0.0
H371 H 0.37495 0.14621 0.8888 0.0
H372 H 0.39426 0.12083 0.92653 0.0
H373 H 0.41116 0.08694 0.94147 0.0
H374 H 0.45553 0.15421 0.98547 0.0
H375 H 0.43858 0.18794 0.97099 0.0
N376 N 0.41202 0.20485 0.94695 0.0
N377 N 0.40266 0.22416 0.91962 0.0
N378 N 0.40178 0.1763 0.91948 0.0
C379 C 0.40902 0.22724 0.93802 0.0
C380 C 0.39894 0.19869 0.91027 0.0
C381 C 0.40835 0.17932 0.93786 0.0
C382 C 0.41594 0.25604 0.94795 0.0
C383 C 0.43268 0.26352 0.96487 0.0
C384 C 0.44233 0.2921 0.97345 0.0
C385 C 0.43498 0.31347 0.96543 0.0
C386 C 0.41704 0.30562 0.94901 0.0
C387 C 0.40773 0.27714 0.94025 0.0
C388 C 0.39367 0.19622 0.89011 0.0
C389 C 0.40147 0.22295 0.87962 0.0
C390 C 0.39594 0.22056 0.8606 0.0
C391 C 0.38187 0.19132 0.85187 0.0
C392 C 0.37497 0.16475 0.86216 0.0
C393 C 0.38101 0.16719 0.88112 0.0
C394 C 0.41521 0.15712 0.94752 0.0
C395 C 0.40728 0.12822 0.93949 0.0
C396 C 0.87299 0.30738 0.94598 0.0
C397 C 0.87437 0.3086 0.96535 0.0
C398 C 0.85534 0.28137 0.97545 0.0
C399 C 0.83387 0.25373 0.96628 0.0
H400 H 0.7439 0.17825 0.97391 0.0
H401 H 0.69482 0.14229 0.99008 0.0
H402 H 0.65588 0.08973 0.93978 0.0
H403 H 0.70485 0.12534 0.92338 0.0
H404 H 0.73809 0.16281 0.88402 0.0
H405 H 0.74438 0.15544 0.85108 0.0
H406 H 0.84648 0.21482 0.8565 0.0
H407 H 0.8404 0.2233 0.88908 0.0
H408 H 0.85095 0.27988 0.92188 0.0
H409 H 0.88747 0.32817 0.93794 0.0
H410 H 0.85619 0.28189 0.9904 0.0
H411 H 0.81866 0.23329 0.9744 0.0
N412 N 0.78093 0.2028 0.94626 0.0
N413 N 0.7596 0.17507 0.91861 0.0
N414 N 0.80913 0.2214 0.91862 0.0
C415 C 0.75715 0.17791 0.93715 0.0
C416 C 0.78564 0.19669 0.90929 0.0
C417 C 0.80695 0.22465 0.93709 0.0
C418 C 0.72831 0.1549 0.94726 0.0
C419 C 0.7251 0.1589 0.96626 0.0
C420 C 0.69714 0.13837 0.97558 0.0
C421 C 0.67188 0.11357 0.96607 0.0
C422 C 0.67524 0.10884 0.9473 0.0
C423 C 0.70322 0.1293 0.93796 0.0
C424 C 0.7888 0.19333 0.88921 0.0
C425 C 0.76184 0.17452 0.87814 0.0
C426 C 0.76534 0.17041 0.85933 0.0
C427 C 0.79593 0.18423 0.85146 0.0
C428 C 0.8227 0.2038 0.86235 0.0
C429 C 0.81916 0.20854 0.88099 0.0
C430 C 0.83162 0.25279 0.94687 0.0
C431 C 0.85203 0.27972 0.93682 0.0
C432 C 0.56701 0.68528 0.06334 0.0
C433 C 0.57001 0.68461 0.04408 0.0
C434 C 0.58434 0.71273 0.03426 0.0
C435 C 0.59359 0.74089 0.04348 0.0
H436 H 0.59295 0.82342 0.03378 0.0
H437 H 0.57757 0.85667 0.01675 0.0
H438 H 0.56479 0.89298 0.06824 0.0
H439 H 0.58077 0.86072 0.08533 0.0
H440 H 0.58257 0.82958 0.12344 0.0
H441 H 0.59356 0.8379 0.15667 0.0
H442 H 0.63857 0.7815 0.15502 0.0
H443 H 0.62657 0.77201 0.12203 0.0
H444 H 0.57352 0.71288 0.08738 0.0
H445 H 0.55605 0.66385 0.0712 0.0
H446 H 0.58706 0.71269 0.01942 0.0
H447 H 0.60325 0.76216 0.03553 0.0
N448 N 0.59245 0.79213 0.06256 0.0
N449 N 0.59707 0.81927 0.09002 0.0
N450 N 0.59872 0.77278 0.09084 0.0
C451 C 0.59352 0.81685 0.07137 0.0
C452 C 0.59996 0.79748 0.09982 0.0
C453 C 0.59496 0.77 0.07219 0.0
C454 C 0.58779 0.8392 0.06093 0.0
C455 C 0.58726 0.8388 0.04147 0.0
C456 C 0.57852 0.85772 0.0317 0.0
C457 C 0.56969 0.87685 0.04127 0.0
C458 C 0.57138 0.87817 0.06063 0.0
C459 C 0.58055 0.85971 0.07038 0.0
C460 C 0.60419 0.80055 0.12009 0.0
C461 C 0.59448 0.81865 0.13021 0.0
C462 C 0.60055 0.8233 0.14918 0.0
C463 C 0.61738 0.81079 0.15817 0.0
C464 C 0.62581 0.79158 0.14827 0.0
C465 C 0.61901 0.78626 0.12942 0.0
C466 C 0.58954 0.74134 0.06271 0.0
C467 C 0.57709 0.71337 0.07259 0.0
C468 C 0.32569 0.87768 0.06376 0.0
C469 C 0.32488 0.88092 0.04455 0.0
C470 C 0.2958 0.86412 0.03498 0.0
C471 C 0.26814 0.8431 0.04441 0.0
H472 H 0.20249 0.74442 0.0407 0.0
H473 H 0.1669 0.6942 0.02589 0.0
H474 H 0.098 0.6719 0.06925 0.0
H475 H 0.13364 0.72185 0.08445 0.0
H476 H 0.18881 0.75028 0.12695 0.0
H477 H 0.18096 0.75555 0.15995 0.0
H478 H 0.21647 0.8539 0.15259 0.0
H479 H 0.22586 0.84906 0.11983 0.0
H480 H 0.2994 0.85474 0.08802 0.0
H481 H 0.34794 0.89074 0.07136 0.0
H482 H 0.29476 0.86672 0.02018 0.0
H483 H 0.24611 0.82973 0.03668 0.0
N484 N 0.21879 0.78933 0.0644 0.0
N485 N 0.19011 0.76973 0.09183 0.0
N486 N 0.23675 0.81883 0.09174 0.0
C487 C 0.19351 0.76632 0.07351 0.0
C488 C 0.21155 0.79596 0.10098 0.0
C489 C 0.24048 0.8156 0.07342 0.0
C490 C 0.17099 0.73703 0.06384 0.0
C491 C 0.17971 0.72896 0.04707 0.0
C492 C 0.15953 0.70028 0.03861 0.0
C493 C 0.1301 0.67946 0.0466 0.0
C494 C 0.12078 0.68774 0.06299 0.0
C495 C 0.14117 0.71623 0.07163 0.0
C496 C 0.20772 0.79926 0.12089 0.0
C497 C 0.19513 0.77304 0.13244 0.0
C498 C 0.19075 0.77601 0.15125 0.0
C499 C 0.19772 0.80501 0.1586 0.0
C500 C 0.21079 0.8313 0.14712 0.0
C501 C 0.21612 0.82852 0.12846 0.0
C502 C 0.26903 0.83934 0.06362 0.0
C503 C 0.29795 0.85725 0.07325 0.0
C504 C 0.11505 0.42611 0.0611 0.0
C505 C 0.12521 0.45146 0.049 0.0
C506 C 0.1579 0.46919 0.0447 0.0
C507 C 0.17995 0.46192 0.05239 0.0
H508 H 0.25506 0.44064 0.03726 0.0
H509 H 0.30413 0.45133 0.02134 0.0
H510 H 0.34467 0.44376 0.07285 0.0
H511 H 0.29576 0.43281 0.08895 0.0
H512 H 0.23806 0.39057 0.12136 0.0
H513 H 0.22927 0.37515 0.15385 0.0
H514 H 0.17158 0.4186 0.16023 0.0
H515 H 0.17926 0.43314 0.12754 0.0
H516 H 0.12908 0.40074 0.07923 0.0
H517 H 0.09003 0.41212 0.06467 0.0
H518 H 0.16644 0.48901 0.03555 0.0
H519 H 0.205 0.47618 0.04893 0.0
N520 N 0.22013 0.43585 0.06555 0.0
N521 N 0.23861 0.42381 0.09259 0.0
N522 N 0.19033 0.42442 0.09285 0.0
C523 C 0.24253 0.43151 0.07439 0.0
C524 C 0.21268 0.42039 0.10192 0.0
C525 C 0.19387 0.43206 0.07467 0.0
C526 C 0.27145 0.43609 0.06445 0.0
C527 C 0.27424 0.44096 0.04523 0.0
C528 C 0.30217 0.4469 0.03606 0.0
C529 C 0.32788 0.44829 0.04595 0.0
C530 C 0.32495 0.44262 0.065 0.0
C531 C 0.29698 0.43648 0.07417 0.0
C532 C 0.20895 0.41265 0.12182 0.0
C533 C 0.22357 0.39693 0.12967 0.0
C534 C 0.21863 0.38816 0.14823 0.0
C535 C 0.19951 0.39546 0.15937 0.0
C536 C 0.18618 0.41252 0.15181 0.0
C537 C 0.19046 0.42064 0.13312 0.0
C538 C 0.17002 0.43761 0.06518 0.0
C539 C 0.13735 0.41968 0.06943 0.0
C540 C 0.35117 0.89975 0.27565 0.0
C541 C 0.33878 0.88062 0.2912 0.0
C542 C 0.35615 0.8677 0.29916 0.0
C543 C 0.38522 0.87352 0.2916 0.0
H544 H 0.4716 0.87679 0.30391 0.0
H545 H 0.50905 0.86616 0.32084 0.0
H546 H 0.5711 0.8941 0.27362 0.0
H547 H 0.53384 0.90479 0.25643 0.0
H548 H 0.51325 0.93652 0.2199 0.0
H549 H 0.51904 0.9547 0.18788 0.0
H550 H 0.41655 0.91026 0.1824 0.0
H551 H 0.41058 0.89302 0.21445 0.0
H552 H 0.38845 0.91923 0.25556 0.0
H553 H 0.33822 0.90999 0.26933 0.0
H554 H 0.347 0.85281 0.31115 0.0
H555 H 0.39784 0.86296 0.29794 0.0
N556 N 0.44872 0.89232 0.27634 0.0
N557 N 0.47999 0.90323 0.24961 0.0
N558 N 0.43121 0.90281 0.24849 0.0
C559 C 0.47564 0.89607 0.26795 0.0
C560 C 0.45763 0.90636 0.23979 0.0
C561 C 0.42656 0.89594 0.2667 0.0
C562 C 0.49945 0.89147 0.27866 0.0
C563 C 0.49332 0.88101 0.29709 0.0
C564 C 0.51474 0.87499 0.30687 0.0
C565 C 0.54283 0.87941 0.2985 0.0
C566 C 0.54958 0.89068 0.28034 0.0
C567 C 0.52813 0.89663 0.27051 0.0
C568 C 0.46152 0.91386 0.21982 0.0
C569 C 0.49197 0.93038 0.21181 0.0
C570 C 0.49529 0.94075 0.19354 0.0
C571 C 0.46822 0.9343 0.18289 0.0
C572 C 0.43774 0.91584 0.19045 0.0
C573 C 0.43443 0.90612 0.20879 0.0
C574 C 0.39711 0.89173 0.27565 0.0
C575 C 0.37985 0.90493 0.26781 0.0
C576 C 0.10878 0.45887 0.28222 0.0
C577 C 0.10482 0.45483 0.30141 0.0
C578 C 0.08964 0.46836 0.31104 0.0
C579 C 0.07983 0.48686 0.30165 0.0
H580 H 0.11349 0.58492 0.30361 0.0
H581 H 0.13046 0.63542 0.31802 0.0
H582 H 0.07388 0.65283 0.27878 0.0
H583 H 0.05738 0.60238 0.26374 0.0
H584 H 0.09003 0.5784 0.21953 0.0
H585 H 0.08007 0.57327 0.18608 0.0
H586 H 0.02002 0.47376 0.19198 0.0
H587 H 0.03117 0.47857 0.22524 0.0
H588 H 0.10218 0.47968 0.25803 0.0
H589 H 0.12004 0.44817 0.27452 0.0
H590 H 0.08576 0.4649 0.32578 0.0
H591 H 0.0689 0.49781 0.30939 0.0
N592 N 0.08021 0.53848 0.28177 0.0
N593 N 0.07062 0.55745 0.25428 0.0
N594 N 0.07023 0.50981 0.25432 0.0
C595 C 0.07708 0.56075 0.2727 0.0
C596 C 0.06692 0.53189 0.24506 0.0
C597 C 0.0768 0.513 0.27272 0.0
C598 C 0.08429 0.5898 0.28243 0.0
C599 C 0.10433 0.59926 0.2981 0.0
C600 C 0.11416 0.62814 0.30634 0.0
C601 C 0.10359 0.64779 0.29934 0.0
C602 C 0.08235 0.63791 0.28426 0.0
C603 C 0.07304 0.60921 0.2757 0.0
C604 C 0.06107 0.52889 0.22494 0.0
C605 C 0.0748 0.55544 0.21365 0.0
C606 C 0.0693 0.55256 0.19458 0.0
C607 C 0.04898 0.5232 0.18664 0.0
C608 C 0.03563 0.49663 0.19788 0.0
C609 C 0.04193 0.4994 0.21684 0.0
C610 C 0.08419 0.49119 0.28244 0.0
C611 C 0.09827 0.47658 0.27279 0.0
C612 C 0.54219 0.64264 0.27741 0.0
C613 C 0.54236 0.64618 0.29689 0.0
C614 C 0.51545 0.62258 0.3063 0.0
C615 C 0.49243 0.59555 0.29727 0.0
H616 H 0.39848 0.5237 0.3022 0.0
H617 H 0.35067 0.48612 0.31892 0.0
H618 H 0.33108 0.41687 0.27694 0.0
H619 H 0.37854 0.45434 0.2599 0.0
H620 H 0.40386 0.49578 0.21627 0.0
H621 H 0.41114 0.48677 0.18377 0.0
H622 H 0.5129 0.54772 0.18962 0.0
H623 H 0.50578 0.55783 0.22182 0.0
H624 H 0.52072 0.61406 0.25354 0.0
H625 H 0.55879 0.661 0.26855 0.0
H626 H 0.51055 0.62473 0.32053 0.0
H627 H 0.47271 0.57809 0.30527 0.0
N628 N 0.44356 0.54135 0.27788 0.0
N629 N 0.4242 0.51075 0.251 0.0
N630 N 0.47294 0.55802 0.25048 0.0
C631 C 0.42074 0.51522 0.26923 0.0
C632 C 0.45028 0.53213 0.24154 0.0
C633 C 0.46973 0.56287 0.26864 0.0
C634 C 0.39233 0.49208 0.27965 0.0
C635 C 0.38421 0.50039 0.29657 0.0
C636 C 0.35699 0.47897 0.30621 0.0
C637 C 0.33771 0.4487 0.29928 0.0
C638 C 0.34599 0.44007 0.2826 0.0
C639 C 0.37295 0.4616 0.27281 0.0
C640 C 0.45428 0.52727 0.2217 0.0
C641 C 0.42776 0.50745 0.2106 0.0
C642 C 0.43184 0.50241 0.19201 0.0
C643 C 0.46259 0.5163 0.18433 0.0
C644 C 0.48898 0.53667 0.19527 0.0
C645 C 0.48485 0.54233 0.2137 0.0
C646 C 0.49435 0.59145 0.27826 0.0
C647 C 0.51927 0.61558 0.2684 0.0
Eu648 Eu 0.48619 0.97869 0.98222 0.0
C649 C 0.56427 0.08763 0.03613 0.0
C650 C 0.61717 0.09347 0.0346 0.0
C651 C 0.61159 0.13833 0.04192 0.0
C652 C 0.58352 0.07464 0.03317 0.0
C653 C 0.57822 0.11956 0.04088 0.0
C654 C 0.63101 0.12531 0.03879 0.0
C655 C 0.52525 0.11164 0.04533 0.0
N656 N 0.532 0.06898 0.03511 0.0
C657 C 0.51261 0.08014 0.0409 0.0
C658 C 0.55822 0.13158 0.04504 0.0
Eu659 Eu 0.51233 0.01526 0.02811 0.0
N660 N 0.56955 0.04369 0.02915 0.0
C661 C 0.58825 0.03039 0.02664 0.0
C662 C 0.63608 0.07976 0.03199 0.0
C663 C 0.62151 0.04806 0.02806 0.0
H664 H 0.48725 0.06466 0.04218 0.0
H665 H 0.63592 0.03724 0.02574 0.0
H666 H 0.65674 0.14 0.0399 0.0
H667 H 0.50958 0.12037 0.04932 0.0
H668 H 0.57832 0.00655 0.02249 0.0
H669 H 0.36364 0.95952 0.98629 0.0
H670 H 0.66191 0.09343 0.03295 0.0
H671 H 0.51056 0.92922 0.96819 0.0
H672 H 0.42127 0.98877 0.99022 0.0
H673 H 0.48715 0.87525 0.95666 0.0
H674 H 0.62262 0.16284 0.0455 0.0
H675 H 0.3369 0.90513 0.97502 0.0
H676 H 0.3411 0.85946 0.96423 0.0
H677 H 0.56803 0.15592 0.04872 0.0
H678 H 0.37432 0.83627 0.95681 0.0
N679 N 0.42911 0.95218 0.98052 0.0
C680 C 0.41093 0.96557 0.98465 0.0
C681 C 0.3627 0.91807 0.97647 0.0
C682 C 0.38109 0.9043 0.97228 0.0
C683 C 0.3777 0.94877 0.98274 0.0
C684 C 0.41468 0.92207 0.9745 0.0
H685 H 0.42848 0.84176 0.95416 0.0
N686 N 0.46553 0.92596 0.97318 0.0
C687 C 0.47171 0.88423 0.9607 0.0
C688 C 0.43337 0.90868 0.9707 0.0
C689 C 0.48484 0.91477 0.96732 0.0
C690 C 0.43862 0.86543 0.95931 0.0
C691 C 0.41901 0.87768 0.96403 0.0
O692 O 0.51867 0.98332 0.96052 0.0
O693 O 0.52878 0.00882 1.00074 0.0
O694 O 0.49479 0.04337 0.01118 0.0
O695 O 0.47463 0.01754 0.98284 0.0
O696 O 0.52752 0.02486 0.97459 0.0
O697 O 0.47502 0.98414 0.95312 0.0
O698 O 0.48505 0.0137 0.05254 0.0
O699 O 0.46931 0.98486 0.00991 0.0
O700 O 0.50234 0.94896 0.99898 0.0
O701 O 0.52408 0.97693 0.02605 0.0
O702 O 0.47009 0.96924 0.03614 0.0
O703 O 0.52624 0.00731 0.0553 0.0
C704 C 0.54373 0.03107 0.98953 0.0
C705 C 0.50821 0.98183 0.9282 0.0
C706 C 0.51739 -0.00089 0.89604 0.0
C707 C 0.50588 -0.00019 0.91381 0.0
C708 C 0.5305 0.97982 0.89277 0.0
C709 C 0.52105 0.96243 0.92443 0.0
C710 C 0.53204 0.96145 0.90682 0.0
C711 C 0.48113 0.04038 0.99469 0.0
C712 C 0.50213 0.98705 0.94749 0.0
C713 C 0.3857 0.86008 0.96186 0.0
C714 C 0.36679 0.87333 0.96602 0.0
C715 C 0.45373 0.96282 0.02121 0.0
C716 C 0.50671 0.01806 0.0827 0.0
C717 C 0.49411 0.99579 0.09684 0.0
C718 C 0.49951 0.00518 0.11544 0.0
C719 C 0.51666 0.03722 0.11969 0.0
C720 C 0.52383 0.04988 0.08711 0.0
C721 C 0.52853 0.05937 0.10559 0.0
C722 C 0.51646 0.95258 0.01539 0.0
C723 C 0.50216 0.00702 0.06358 0.0
H724 H 0.4962 0.01501 0.91655 0.0
H725 H 0.53943 0.97888 0.87921 0.0
H726 H 0.52354 0.94872 0.93524 0.0
H727 H 0.54226 0.94674 0.90411 0.0
H728 H 0.48059 0.97115 0.09341 0.0
H729 H 0.52078 0.04504 0.13394 0.0
H730 H 0.53364 0.06725 0.07634 0.0
H731 H 0.54163 0.08396 0.10903 0.0
Eu732 Eu 0.01769 0.50388 0.98227 0.0
C733 C 0.90846 0.4696 0.03726 0.0
C734 C 0.90327 0.51575 0.03499 0.0
C735 C 0.8578 0.46659 0.04445 0.0
C736 C 0.9218 0.50103 0.03345 0.0
C737 C 0.87648 0.45219 0.0432 0.0
C738 C 0.87113 0.49827 0.04028 0.0
C739 C 0.88442 0.40818 0.0476 0.0
N740 N 0.92694 0.45619 0.03558 0.0
C741 C 0.91592 0.42634 0.04151 0.0
C742 C 0.86444 0.42101 0.04816 0.0
Eu743 Eu 0.98114 0.4894 0.02759 0.0
N744 N 0.95303 0.51739 0.02859 0.0
C745 C 0.96753 0.54887 0.02605 0.0
C746 C 0.91774 0.54772 0.03148 0.0
C747 C 0.95011 0.5644 0.02713 0.0
H748 H 0.93147 0.41646 0.0413 0.0
H749 H 0.96177 0.58927 0.02473 0.0
H750 H 0.85655 0.50917 0.04151 0.0
H751 H 0.8756 0.38433 0.05186 0.0
H752 H 0.99249 0.56226 0.0231 0.0
H753 H 0.03346 0.40008 0.98041 0.0
H754 H 0.9043 0.55984 0.03245 0.0
H755 H 0.07762 0.58038 0.97648 0.0
H756 H 0.01063 0.43039 0.99214 0.0
H757 H 0.13185 0.60871 0.96489 0.0
H758 H 0.83314 0.45355 0.04889 0.0
H759 H 0.08133 0.42445 0.96078 0.0
H760 H 0.12642 0.47287 0.94794 0.0
H761 H 0.84005 0.40691 0.05286 0.0
H762 H 0.15462 0.52981 0.94532 0.0
N763 N 0.04244 0.47238 0.97749 0.0
C764 C 0.03041 0.44189 0.9828 0.0
C765 C 0.07068 0.43806 0.96534 0.0
C766 C 0.08508 0.46985 0.96155 0.0
C767 C 0.04376 0.42427 0.97646 0.0
C768 C 0.07021 0.48666 0.96775 0.0
H769 H 0.15767 0.58035 0.95256 0.0
N770 N 0.07256 0.53492 0.97335 0.0
C771 C 0.1195 0.58349 0.96539 0.0
C772 C 0.08622 0.51892 0.96621 0.0
C773 C 0.08869 0.56696 0.97257 0.0
C774 C 0.13384 0.56741 0.95828 0.0
C775 C 0.11726 0.53484 0.9585 0.0
O776 O 0.02618 0.53663 0.95967 0.0
O777 O 0.9845 0.5126 1.00031 0.0
O778 O 0.94897 0.4462 0.00952 0.0
O779 O 0.98119 0.45277 0.9845 0.0
O780 O 0.96775 0.49288 0.97471 0.0
O781 O 0.99819 0.487 0.95479 0.0
O782 O 0.98558 0.46778 0.0526 0.0
O783 O 0.02543 0.49715 0.01233 0.0
O784 O 0.0413 0.55006 0.99834 0.0
O785 O 0.02482 0.53785 0.02894 0.0
O786 O 0.00257 0.4578 0.02811 0.0
O787 O 0.99022 0.51357 0.05457 0.0
C788 C 0.96123 0.50384 0.989 0.0
C789 C 0.0223 0.51796 0.92875 0.0
C790 C 0.01149 0.50876 0.89574 0.0
C791 C 0.00063 0.50788 0.91382 0.0
C792 C 0.04409 0.51955 0.89275 0.0
C793 C 0.0549 0.52988 0.92535 0.0
C794 C 0.06567 0.53027 0.90748 0.0
C795 C 0.95461 0.43586 0.9938 0.0
C796 C 0.00993 0.51461 0.94763 0.0
C797 C 0.13106 0.51794 0.95146 0.0
C798 C 0.11492 0.48551 0.95286 0.0
C799 C 0.02856 0.47517 0.01912 0.0
C800 C 0.97899 0.48325 0.0824 0.0
C801 C 0.00091 0.49796 0.09693 0.0
C802 C 0.99207 0.48796 0.11517 0.0
C803 C 0.96133 0.46311 0.11882 0.0
C804 C 0.94819 0.45869 0.0863 0.0
C805 C 0.93948 0.44862 0.10443 0.0
C806 C 0.04305 0.55756 0.01606 0.0
C807 C 0.99057 0.49083 0.06338 0.0
H808 H 0.97547 0.49948 0.91623 0.0
H809 H 0.05293 0.52048 0.8789 0.0
H810 H 0.07213 0.53913 0.93636 0.0
H811 H 0.09086 0.53922 0.90502 0.0
H812 H 0.02493 0.5167 0.09407 0.0
H813 H 0.95429 0.45504 0.13283 0.0
H814 H 0.93108 0.44687 0.0754 0.0
H815 H 0.91583 0.42936 0.10731 0.0
Eu816 Eu 0.51429 0.49361 0.02787 0.0
C817 C 0.43824 0.5279 0.97214 0.0
C818 C 0.38454 0.48416 0.97579 0.0
C819 C 0.39225 0.53426 0.96591 0.0
C820 C 0.41804 0.49704 0.97674 0.0
C821 C 0.42553 0.54656 0.96609 0.0
C822 C 0.3718 0.50313 0.9708 0.0
C823 C 0.47928 0.58696 0.95881 0.0
N824 N 0.47028 0.53913 0.97245 0.0
C825 C 0.4908 0.56771 0.96518 0.0
C826 C 0.44657 0.5766 0.95966 0.0
Eu827 Eu 0.48791 0.50456 0.98187 0.0
N828 N 0.43107 0.47917 0.98116 0.0
C829 C 0.41177 0.44775 0.98371 0.0
C830 C 0.36479 0.45236 0.97928 0.0
C831 C 0.37852 0.43401 0.98299 0.0
H832 H 0.5161 0.57566 0.96455 0.0
H833 H 0.36352 0.40925 0.9854 0.0
H834 H 0.34617 0.49369 0.97014 0.0
H835 H 0.49564 0.60985 0.95342 0.0
H836 H 0.42145 0.43288 0.98677 0.0
H837 H 0.63699 0.5931 0.03663 0.0
H838 H 0.33899 0.44161 0.97869 0.0
H839 H 0.49189 0.42113 0.04422 0.0
H840 H 0.5793 0.56785 0.03527 0.0
H841 H 0.51448 0.38657 0.04763 0.0
H842 H 0.38206 0.54835 0.9615 0.0
H843 H 0.66391 0.56203 0.03443 0.0
H844 H 0.65952 0.50976 0.03371 0.0
H845 H 0.43772 0.59159 0.95481 0.0
H846 H 0.62592 0.453 0.03643 0.0
N847 N 0.57149 0.52173 0.03091 0.0
C848 C 0.58968 0.5533 0.03374 0.0
C849 C 0.63807 0.55048 0.03351 0.0
C850 C 0.61956 0.51806 0.03223 0.0
C851 C 0.62298 0.56806 0.03481 0.0
C852 C 0.58586 0.50406 0.03122 0.0
H853 H 0.57193 0.4069 0.04189 0.0
N854 N 0.53477 0.45944 0.03395 0.0
C855 C 0.52943 0.41033 0.04302 0.0
C856 C 0.56693 0.47197 0.0327 0.0
C857 C 0.51656 0.42985 0.04073 0.0
C858 C 0.56182 0.42189 0.03975 0.0
C859 C 0.58125 0.45334 0.03529 0.0
O860 O 0.48464 0.46704 0.05135 0.0
O861 O 0.47152 0.48366 0.00989 0.0
O862 O 0.49828 0.54763 0.9991 0.0
O863 O 0.52962 0.54443 0.02244 0.0
O864 O 0.47392 0.50189 0.03582 0.0
O865 O 0.52606 0.51334 0.05541 0.0
O866 O 0.51788 0.51564 0.95737 0.0
O867 O 0.52662 0.50311 0.9982 0.0
O868 O 0.49496 0.44712 0.01248 0.0
O869 O 0.47631 0.45455 0.98424 0.0
O870 O 0.54098 0.53988 0.98019 0.0
O871 O 0.4693 0.47823 0.95597 0.0
C872 C 0.45677 0.49169 0.02118 0.0
C873 C 0.50614 0.48211 0.08185 0.0
C874 C 0.49921 0.48632 0.11485 0.0
C875 C 0.49219 0.48977 0.09647 0.0
C876 C 0.51951 0.47418 0.1184 0.0
C877 C 0.5265 0.47025 0.08559 0.0
C878 C 0.53289 0.46604 0.10384 0.0
C879 C 0.51612 0.55897 0.01426 0.0
C880 C 0.50146 0.48972 0.06303 0.0
C881 C 0.61462 0.46702 0.03469 0.0
C882 C 0.63375 0.49934 0.03316 0.0
C883 C 0.55101 0.52645 0.99153 0.0
C884 C 0.49381 0.50405 0.9281 0.0
C885 C 0.50483 0.49342 0.91343 0.0
C886 C 0.50463 0.50358 0.89538 0.0
C887 C 0.49433 0.52509 0.89215 0.0
C888 C 0.48262 0.5248 0.92459 0.0
C889 C 0.48338 0.53565 0.90672 0.0
C890 C 0.48139 0.43717 0.99602 0.0
C891 C 0.49578 0.49445 0.94698 0.0
H892 H 0.47656 0.49913 0.09359 0.0
H893 H 0.52498 0.47099 0.13248 0.0
H894 H 0.53786 0.46482 0.07447 0.0
H895 H 0.54858 0.45682 0.10674 0.0
H896 H 0.5132 0.4771 0.91597 0.0
H897 H 0.49432 0.53329 0.87829 0.0
H898 H 0.47321 0.53252 0.93554 0.0
H899 H 0.47515 0.55202 0.90415 0.0
Eu900 Eu 0.154 0.30955 0.31528 0.0
C901 C 0.232 0.42023 0.36804 0.0
C902 C 0.28343 0.42315 0.37111 0.0
C903 C 0.2805 0.47059 0.37212 0.0
C904 C 0.25001 0.40547 0.36808 0.0
C905 C 0.24704 0.45279 0.37108 0.0
C906 C 0.29869 0.45578 0.37209 0.0
C907 C 0.19497 0.44711 0.3758 0.0
N908 N 0.19964 0.40242 0.36763 0.0
C909 C 0.18118 0.41506 0.37272 0.0
C910 C 0.22801 0.46621 0.37443 0.0
Eu911 Eu 0.1783 0.34829 0.36157 0.0
N912 N 0.23448 0.37376 0.36797 0.0
C913 C 0.2504 0.35881 0.37379 0.0
C914 C 0.30022 0.40751 0.37471 0.0
C915 C 0.28343 0.37528 0.37673 0.0
H916 H 0.1555 0.40052 0.37371 0.0
H917 H 0.29583 0.36307 0.38079 0.0
H918 H 0.32434 0.46963 0.3741 0.0
H919 H 0.1801 0.45706 0.37913 0.0
H920 H 0.23815 0.33419 0.37663 0.0
H921 H 0.03304 0.2937 0.31908 0.0
H922 H 0.32578 0.42024 0.37725 0.0
H923 H 0.17564 0.26033 0.29848 0.0
H924 H 0.09102 0.32243 0.32084 0.0
H925 H 0.15123 0.20518 0.28871 0.0
H926 H 0.29241 0.49563 0.37413 0.0
H927 H 0.00431 0.23725 0.31217 0.0
H928 H 0.00667 0.1894 0.30387 0.0
H929 H 0.23868 0.49104 0.37694 0.0
H930 H 0.03873 0.16511 0.29588 0.0
N931 N 0.09689 0.28338 0.3145 0.0
C932 C 0.07967 0.29821 0.31721 0.0
C933 C 0.0302 0.24994 0.31268 0.0
C934 C 0.04772 0.23497 0.30929 0.0
C935 C 0.0463 0.28178 0.31647 0.0
C936 C 0.08148 0.25252 0.3103 0.0
H937 H 0.09253 0.17088 0.28991 0.0
N938 N 0.13187 0.25635 0.30702 0.0
C939 C 0.13643 0.21401 0.29413 0.0
C940 C 0.0995 0.23862 0.30639 0.0
C941 C 0.15031 0.24501 0.3001 0.0
C942 C 0.10328 0.19479 0.29473 0.0
C943 C 0.08431 0.20713 0.30062 0.0
O944 O 0.18558 0.32606 0.29135 0.0
O945 O 0.1918 0.34939 0.33198 0.0
O946 O 0.16187 0.37673 0.34424 0.0
O947 O 0.14572 0.35031 0.31616 0.0
O948 O 0.2069 0.32608 0.31464 0.0
O949 O 0.13709 0.31554 0.28818 0.0
O950 O 0.14589 0.34668 0.38289 0.0
O951 O 0.13742 0.31612 0.34267 0.0
O952 O 0.16622 0.27879 0.33318 0.0
O953 O 0.19506 0.31323 0.35741 0.0
O954 O 0.13666 0.30205 0.36935 0.0
O955 O 0.18432 0.33739 0.39019 0.0
C956 C 0.21646 0.34964 0.32575 0.0
C957 C 0.16553 0.31733 0.26098 0.0
C958 C 0.17547 0.33228 0.22861 0.0
C959 C 0.17197 0.33929 0.24696 0.0
C960 C 0.17253 0.30328 0.22437 0.0
C961 C 0.16256 0.28843 0.25651 0.0
C962 C 0.1661 0.28149 0.23827 0.0
C963 C 0.15072 0.37363 0.32707 0.0
C964 C 0.16462 0.32618 0.28023 0.0
C965 C 0.05077 0.18937 0.30012 0.0
C966 C 0.03252 0.20322 0.30459 0.0
C967 C 0.1217 0.29427 0.35399 0.0
C968 C 0.15696 0.34631 0.41523 0.0
C969 C 0.15756 0.32723 0.42954 0.0
C970 C 0.1509 0.33164 0.4479 0.0
C971 C 0.14438 0.35572 0.45178 0.0
C972 C 0.15059 0.37032 0.41955 0.0
C973 C 0.14444 0.37499 0.43773 0.0
C974 C 0.18475 0.28671 0.34822 0.0
C975 C 0.15917 0.33843 0.39582 0.0
H976 H 0.17447 0.36177 0.2503 0.0
H977 H 0.17511 0.29752 0.21027 0.0
H978 H 0.1579 0.27141 0.26708 0.0
H979 H 0.16395 0.2592 0.23491 0.0
H980 H 0.1623 0.30851 0.42635 0.0
H981 H 0.13929 0.35964 0.46579 0.0
H982 H 0.1497 0.38507 0.40883 0.0
H983 H 0.13931 0.3934 0.44093 0.0
Eu984 Eu 0.6855 0.83677 0.31565 0.0
C985 C 0.5736 0.80476 0.36779 0.0
C986 C 0.56862 0.85106 0.36621 0.0
C987 C 0.52144 0.80065 0.37111 0.0
C988 C 0.58763 0.8367 0.36546 0.0
C989 C 0.54066 0.78681 0.3718 0.0
C990 C 0.53538 0.8327 0.36815 0.0
C991 C 0.54908 0.74435 0.3802 0.0
N992 N 0.59261 0.79182 0.36825 0.0
C993 C 0.58126 0.76261 0.37536 0.0
C994 C 0.52842 0.75607 0.3777 0.0
Eu995 Eu 0.64744 0.82504 0.36162 0.0
N996 N 0.62002 0.85402 0.36428 0.0
C997 C 0.6347 0.88588 0.3659 0.0
C998 C 0.58365 0.88356 0.3661 0.0
C999 C 0.61684 0.90101 0.36647 0.0
H1000 H 0.59692 0.753 0.37687 0.0
H1001 H 0.6288 0.92621 0.36722 0.0
H1002 H 0.52047 0.84333 0.36846 0.0
H1003 H 0.54014 0.72102 0.38546 0.0
H1004 H 0.66019 0.90052 0.36669 0.0
H1005 H 0.70369 0.73524 0.31558 0.0
H1006 H 0.5699 0.8954 0.36665 0.0
H1007 H 0.73792 0.90983 0.30147 0.0
H1008 H 0.67267 0.76132 0.31657 0.0
H1009 H 0.79563 0.94274 0.29595 0.0
H1010 H 0.49602 0.78705 0.37377 0.0
H1011 H 0.76235 0.76558 0.31265 0.0
H1012 H 0.81168 0.81704 0.30858 0.0
H1013 H 0.50341 0.74173 0.38122 0.0
H1014 H 0.83682 0.87347 0.3037 0.0
N1015 N 0.7129 0.80769 0.31443 0.0
C1016 C 0.69806 0.77575 0.31517 0.0
C1017 C 0.74877 0.77759 0.31302 0.0
C1018 C 0.76387 0.80999 0.31148 0.0
C1019 C 0.7157 0.76041 0.31462 0.0
C1020 C 0.74513 0.82464 0.31211 0.0
H1021 H 0.83113 0.92039 0.29896 0.0
N1022 N 0.74092 0.87011 0.30967 0.0
C1023 C 0.78594 0.91874 0.30015 0.0
C1024 C 0.75948 0.85664 0.30971 0.0
C1025 C 0.75329 0.90012 0.30357 0.0
C1026 C 0.80585 0.90602 0.30182 0.0
C1027 C 0.79262 0.87445 0.30614 0.0
O1028 O 0.68411 0.86199 0.29126 0.0
O1029 O 0.65402 0.8474 0.33408 0.0
O1030 O 0.6166 0.77993 0.34421 0.0
O1031 O 0.64554 0.78764 0.31715 0.0
O1032 O 0.64012 0.8358 0.30691 0.0
O1033 O 0.67664 0.81488 0.28863 0.0
O1034 O 0.6509 0.79902 0.38483 0.0
O1035 O 0.67865 0.81426 0.34308 0.0
O1036 O 0.71457 0.88198 0.33213 0.0
O1037 O 0.68685 0.87541 0.35969 0.0
O1038 O 0.69278 0.82627 0.37018 0.0
O1039 O 0.65667 0.84517 0.38949 0.0
C1040 C 0.63236 0.84262 0.32235 0.0
C1041 C 0.69051 0.84521 0.26165 0.0
C1042 C 0.68044 0.84139 0.22859 0.0
C1043 C 0.66924 0.83761 0.24674 0.0
C1044 C 0.71331 0.85384 0.22551 0.0
C1045 C 0.7232 0.85738 0.25848 0.0
C1046 C 0.73456 0.86191 0.2404 0.0
C1047 C 0.62018 0.77091 0.32737 0.0
C1048 C 0.67735 0.83852 0.28023 0.0
C1049 C 0.81134 0.86007 0.30623 0.0
C1050 C 0.79702 0.82794 0.30895 0.0
C1051 C 0.70057 0.81959 0.35474 0.0
C1052 C 0.64652 0.81248 0.41581 0.0
C1053 C 0.66858 0.8276 0.43021 0.0
C1054 C 0.65973 0.81846 0.44855 0.0
C1055 C 0.62894 0.79394 0.45244 0.0
C1056 C 0.61572 0.78815 0.41992 0.0
C1057 C 0.60704 0.77887 0.43816 0.0
C1058 C 0.71067 0.8922 0.34832 0.0
C1059 C 0.65727 0.8213 0.39673 0.0
H1060 H 0.64391 0.82821 0.24921 0.0
H1061 H 0.72248 0.85731 0.21156 0.0
H1062 H 0.73977 0.86304 0.26989 0.0
H1063 H 0.75983 0.87143 0.23791 0.0
H1064 H 0.69254 0.84632 0.4272 0.0
H1065 H 0.62189 0.78657 0.46656 0.0
H1066 H 0.59841 0.77612 0.40918 0.0
H1067 H 0.58331 0.75992 0.44122 0.0
Eu1068 Eu 0.18216 0.82783 0.36182 0.0
C1069 C 0.10288 0.85845 0.30854 0.0
C1070 C 0.05053 0.81245 0.31151 0.0
C1071 C 0.05491 0.86215 0.30391 0.0
C1072 C 0.08423 0.82694 0.31218 0.0
C1073 C 0.08836 0.87606 0.30354 0.0
C1074 C 0.03604 0.83043 0.308 0.0
C1075 C 0.14063 0.91852 0.29559 0.0
N1076 N 0.13514 0.87127 0.30824 0.0
C1077 C 0.15398 0.90035 0.301 0.0
C1078 C 0.10776 0.90661 0.29732 0.0
Eu1079 Eu 0.15583 0.83817 0.31566 0.0
N1080 N 0.09893 0.80999 0.31497 0.0
C1081 C 0.0812 0.77816 0.3158 0.0
C1082 C 0.03237 0.7801 0.31353 0.0
C1083 C 0.04781 0.76284 0.31531 0.0
H1084 H 0.17947 0.90965 0.29974 0.0
H1085 H 0.03402 0.73769 0.31639 0.0
H1086 H 0.01023 0.81974 0.30762 0.0
H1087 H 0.15572 0.94177 0.29027 0.0
H1088 H 0.09229 0.7641 0.31715 0.0
H1089 H 0.29876 0.93417 0.37847 0.0
H1090 H 0.00648 0.76814 0.3131 0.0
H1091 H 0.16284 0.75156 0.36961 0.0
H1092 H 0.24748 0.9066 0.36432 0.0
H1093 H 0.18839 0.72229 0.37881 0.0
H1094 H 0.04337 0.87542 0.30037 0.0
H1095 H 0.32298 0.90625 0.3932 0.0
H1096 H 0.32078 0.85647 0.40001 0.0
H1097 H 0.09747 0.92075 0.29319 0.0
H1098 H 0.29249 0.79951 0.39831 0.0
N1099 N 0.23755 0.86018 0.37166 0.0
C1100 C 0.25524 0.89231 0.37101 0.0
C1101 C 0.29907 0.89316 0.38743 0.0
C1102 C 0.2822 0.86071 0.38763 0.0
C1103 C 0.28556 0.90894 0.37902 0.0
C1104 C 0.25083 0.8445 0.38 0.0
H1105 H 0.24427 0.74983 0.38975 0.0
N1106 N 0.20506 0.79657 0.37141 0.0
C1107 C 0.20209 0.74751 0.37856 0.0
C1108 C 0.23478 0.81208 0.37915 0.0
C1109 C 0.18797 0.76456 0.37255 0.0
C1110 C 0.2334 0.76311 0.38492 0.0
C1111 C 0.24982 0.79562 0.38581 0.0
O1112 O 0.14994 0.79489 0.38261 0.0
O1113 O 0.13949 0.81835 0.34384 0.0
O1114 O 0.16406 0.87996 0.33322 0.0
O1115 O 0.19788 0.87831 0.35524 0.0
O1116 O 0.1427 0.83739 0.36967 0.0
O1117 O 0.18247 0.84348 0.38973 0.0
O1118 O 0.18149 0.85846 0.29027 0.0
O1119 O 0.19475 0.83407 0.33128 0.0
O1120 O 0.16414 0.7824 0.34563 0.0
O1121 O 0.14803 0.78898 0.31636 0.0
O1122 O 0.20925 0.87167 0.31425 0.0
O1123 O 0.13935 0.81244 0.2892 0.0
C1124 C 0.12519 0.82688 0.35518 0.0
C1125 C 0.16383 0.80882 0.41454 0.0
C1126 C 0.15964 0.81635 0.44748 0.0
C1127 C 0.15476 0.82171 0.42904 0.0
C1128 C 0.17363 0.79801 0.4513 0.0
C1129 C 0.17783 0.79063 0.41859 0.0
C1130 C 0.18267 0.78526 0.43691 0.0
C1131 C 0.18341 0.89226 0.34761 0.0
C1132 C 0.16 0.81649 0.39548 0.0
C1133 C 0.28072 0.81185 0.39329 0.0
C1134 C 0.29672 0.84425 0.39436 0.0
C1135 C 0.21948 0.8566 0.32402 0.0
C1136 C 0.15784 0.8413 0.26087 0.0
C1137 C 0.16666 0.82791 0.2466 0.0
C1138 C 0.16761 0.8375 0.22831 0.0
C1139 C 0.15966 0.86052 0.22432 0.0
C1140 C 0.14949 0.86397 0.25669 0.0
C1141 C 0.15052 0.87359 0.23847 0.0
C1142 C 0.15156 0.7718 0.3291 0.0
C1143 C 0.16259 0.83474 0.27996 0.0
H1144 H 0.14388 0.8358 0.42603 0.0
H1145 H 0.17723 0.79332 0.46544 0.0
H1146 H 0.18515 0.78069 0.40773 0.0
H1147 H 0.1934 0.77111 0.43998 0.0
H1148 H 0.17353 0.81063 0.24972 0.0
H1149 H 0.16055 0.8683 0.21026 0.0
H1150 H 0.14285 0.87469 0.26746 0.0
H1151 H 0.14457 0.89146 0.23533 0.0
Eu1152 Eu 0.82042 0.64457 0.64771 0.0
C1153 C 0.89695 0.7547 0.70058 0.0
C1154 C 0.94968 0.76013 0.7008 0.0
C1155 C 0.94438 0.80612 0.70377 0.0
C1156 C 0.91607 0.74128 0.69923 0.0
C1157 C 0.91098 0.78714 0.70378 0.0
C1158 C 0.96371 0.79263 0.70219 0.0
C1159 C 0.85837 0.77923 0.70982 0.0
N1160 N 0.86473 0.73576 0.70093 0.0
C1161 C 0.84556 0.74734 0.70651 0.0
C1162 C 0.89116 0.79934 0.70802 0.0
Eu1163 Eu 0.84504 0.68189 0.69448 0.0
N1164 N 0.90181 0.70966 0.69869 0.0
C1165 C 0.91965 0.69575 0.70237 0.0
C1166 C 0.96814 0.74571 0.70232 0.0
C1167 C 0.95294 0.71341 0.70375 0.0
H1168 H 0.82005 0.73207 0.7079 0.0
H1169 H 0.96683 0.70204 0.70605 0.0
H1170 H 0.98945 0.80739 0.70316 0.0
H1171 H 0.84291 0.78827 0.71368 0.0
H1172 H 0.90886 0.67102 0.70446 0.0
H1173 H 0.69764 0.62182 0.65388 0.0
H1174 H 0.99393 0.75935 0.70359 0.0
H1175 H 0.84597 0.59711 0.63166 0.0
H1176 H 0.75592 0.65193 0.65695 0.0
H1177 H 0.82396 0.54191 0.62264 0.0
H1178 H 0.95549 0.83108 0.7059 0.0
H1179 H 0.67124 0.56645 0.6443 0.0
H1180 H 0.67629 0.52048 0.63472 0.0
H1181 H 0.90105 0.82404 0.71068 0.0
H1182 H 0.71054 0.49841 0.62707 0.0
N1183 N 0.76355 0.61563 0.64738 0.0
C1184 C 0.74519 0.62869 0.65146 0.0
C1185 C 0.6971 0.58003 0.64502 0.0
C1186 C 0.71587 0.56658 0.64095 0.0
C1187 C 0.71187 0.61128 0.65028 0.0
C1188 C 0.7495 0.58527 0.64218 0.0
H1189 H 0.76548 0.50605 0.62278 0.0
N1190 N 0.80102 0.59168 0.63901 0.0
C1191 C 0.80817 0.55014 0.62726 0.0
C1192 C 0.76878 0.57284 0.63806 0.0
C1193 C 0.82067 0.5812 0.63278 0.0
C1194 C 0.77516 0.53002 0.62727 0.0
C1195 C 0.75496 0.54141 0.63234 0.0
O1196 O 0.85153 0.66436 0.62381 0.0
O1197 O 0.85838 0.68329 0.66493 0.0
O1198 O 0.82383 0.70756 0.67834 0.0
O1199 O 0.81209 0.68528 0.64887 0.0
O1200 O 0.87328 0.66128 0.64636 0.0
O1201 O 0.80183 0.64957 0.62086 0.0
O1202 O 0.81742 0.68207 0.71836 0.0
O1203 O 0.80391 0.65004 0.67563 0.0
O1204 O 0.83285 0.61355 0.66469 0.0
O1205 O 0.86052 0.6458 0.69001 0.0
O1206 O 0.8028 0.63659 0.70256 0.0
O1207 O 0.85216 0.66651 0.72132 0.0
C1208 C 0.8829 0.68376 0.65829 0.0
C1209 C 0.83089 0.65254 0.59366 0.0
C1210 C 0.84115 0.66582 0.56102 0.0
C1211 C 0.83683 0.6735 0.57909 0.0
C1212 C 0.83952 0.63713 0.55764 0.0
C1213 C 0.82918 0.62392 0.58997 0.0
C1214 C 0.83355 0.61632 0.57206 0.0
C1215 C 0.81389 0.70597 0.66096 0.0
C1216 C 0.8294 0.66208 0.61271 0.0
C1217 C 0.72154 0.52259 0.63139 0.0
C1218 C 0.70204 0.53517 0.63568 0.0
C1219 C 0.78813 0.62835 0.68711 0.0
C1220 C 0.83685 0.68162 0.74866 0.0
C1221 C 0.82318 0.65982 0.76308 0.0
C1222 C 0.83089 0.66939 0.78164 0.0
C1223 C 0.85171 0.70117 0.7855 0.0
C1224 C 0.85748 0.71314 0.75283 0.0
C1225 C 0.86467 0.72284 0.77122 0.0
C1226 C 0.85083 0.62034 0.67979 0.0
C1227 C 0.83039 0.67059 0.72944 0.0
H1228 H 0.83835 0.69576 0.58179 0.0
H1229 H 0.84273 0.63082 0.5438 0.0
H1230 H 0.82488 0.60765 0.60091 0.0
H1231 H 0.83239 0.59426 0.56935 0.0
H1232 H 0.80703 0.63542 0.75988 0.0
H1233 H 0.8578 0.70922 0.79966 0.0
H1234 H 0.86821 0.73012 0.74191 0.0
H1235 H 0.88057 0.74723 0.77442 0.0
Eu1236 Eu 0.35309 0.17083 0.64851 0.0
C1237 C 0.24166 0.13781 0.69954 0.0
C1238 C 0.23811 0.18487 0.69785 0.0
C1239 C 0.19055 0.13538 0.70424 0.0
C1240 C 0.2562 0.16962 0.69672 0.0
C1241 C 0.20899 0.12068 0.70429 0.0
C1242 C 0.20506 0.16741 0.70091 0.0
C1243 C 0.21643 0.07735 0.71203 0.0
N1244 N 0.26007 0.12423 0.69963 0.0
C1245 C 0.24845 0.09501 0.70674 0.0
C1246 C 0.19633 0.08989 0.71021 0.0
Eu1247 Eu 0.31514 0.15648 0.69341 0.0
N1248 N 0.2884 0.18601 0.69444 0.0
C1249 C 0.30404 0.21794 0.69443 0.0
C1250 C 0.25395 0.21738 0.69684 0.0
C1251 C 0.28713 0.23399 0.69548 0.0
H1252 H 0.26388 0.08509 0.70799 0.0
H1253 H 0.29976 0.25923 0.69515 0.0
H1254 H 0.19081 0.17871 0.70162 0.0
H1255 H 0.20722 0.05397 0.71728 0.0
H1256 H 0.32956 0.23165 0.69334 0.0
H1257 H 0.3634 0.06405 0.6462 0.0
H1258 H 0.24093 0.22992 0.6977 0.0
H1259 H 0.41242 0.24566 0.64048 0.0
H1260 H 0.34177 0.09574 0.65759 0.0
H1261 H 0.46673 0.27305 0.62863 0.0
H1262 H 0.16534 0.12248 0.70758 0.0
H1263 H 0.41243 0.08747 0.62753 0.0
H1264 H 0.45921 0.1353 0.61536 0.0
H1265 H 0.1715 0.07612 0.71423 0.0
H1266 H 0.48858 0.19217 0.61215 0.0
N1267 N 0.37556 0.13753 0.64353 0.0
C1268 C 0.36208 0.10678 0.64857 0.0
C1269 C 0.40232 0.10168 0.63187 0.0
C1270 C 0.41787 0.13356 0.62818 0.0
C1271 C 0.37472 0.08841 0.64245 0.0
C1272 C 0.40364 0.15114 0.63401 0.0
H1273 H 0.49228 0.24345 0.61785 0.0
N1274 N 0.40741 0.20023 0.63892 0.0
C1275 C 0.45421 0.24788 0.62973 0.0
C1276 C 0.42035 0.18342 0.63207 0.0
C1277 C 0.42342 0.23205 0.63698 0.0
C1278 C 0.46836 0.23109 0.6235 0.0
C1279 C 0.45138 0.19854 0.62438 0.0
O1280 O 0.3554 0.20633 0.62972 0.0
O1281 O 0.31867 0.17834 0.66595 0.0
O1282 O 0.28314 0.11349 0.67511 0.0
O1283 O 0.31467 0.12052 0.64934 0.0
O1284 O 0.30312 0.15896 0.64002 0.0
O1285 O 0.34876 0.16178 0.61876 0.0
O1286 O 0.31857 0.13342 0.71789 0.0
O1287 O 0.36001 0.16417 0.67869 0.0
O1288 O 0.38167 0.21517 0.66542 0.0
O1289 O 0.35832 0.20565 0.69457 0.0
O1290 O 0.33633 0.12464 0.69421 0.0
O1291 O 0.32246 0.17881 0.72101 0.0
C1292 C 0.29577 0.16926 0.65437 0.0
C1293 C 0.35097 0.19931 0.5963 0.0
C1294 C 0.33634 0.18811 0.56376 0.0
C1295 C 0.33729 0.17766 0.58166 0.0
C1296 C 0.34976 0.22019 0.56055 0.0
C1297 C 0.36416 0.23126 0.59279 0.0
C1298 C 0.36365 0.24159 0.57498 0.0
C1299 C 0.28847 0.10376 0.65902 0.0
C1300 C 0.35173 0.18897 0.61522 0.0
C1301 C 0.46487 0.1809 0.61809 0.0
C1302 C 0.44807 0.1485 0.61985 0.0
C1303 C 0.36263 0.1419 0.68547 0.0
C1304 C 0.31132 0.1465 0.74819 0.0
C1305 C 0.33175 0.16393 0.76279 0.0
C1306 C 0.32481 0.15253 0.78088 0.0
C1307 C 0.29712 0.12397 0.7844 0.0
C1308 C 0.28368 0.11794 0.75194 0.0
C1309 C 0.27659 0.10685 0.76998 0.0
C1310 C 0.37947 0.22425 0.68225 0.0
C1311 C 0.32259 0.15549 0.72921 0.0
H1312 H 0.32721 0.15292 0.58414 0.0
H1313 H 0.34959 0.22865 0.54679 0.0
H1314 H 0.37511 0.24831 0.60379 0.0
H1315 H 0.37407 0.26628 0.57234 0.0
H1316 H 0.35356 0.18566 0.76004 0.0
H1317 H 0.29151 0.11496 0.79834 0.0
H1318 H 0.26814 0.1036 0.74098 0.0
H1319 H 0.25545 0.08465 0.77273 0.0
Eu1320 Eu 0.84745 0.15842 0.69495 0.0
C1321 C 0.76828 0.19056 0.6431 0.0
C1322 C 0.71635 0.14356 0.64252 0.0
C1323 C 0.71981 0.19401 0.64047 0.0
C1324 C 0.75003 0.15837 0.64416 0.0
C1325 C 0.75328 0.20849 0.64021 0.0
C1326 C 0.70135 0.16156 0.64171 0.0
C1327 C 0.805 0.2527 0.63351 0.0
N1328 N 0.80059 0.20391 0.64246 0.0
C1329 C 0.81882 0.23414 0.63663 0.0
C1330 C 0.77219 0.24006 0.63584 0.0
Eu1331 Eu 0.82196 0.17065 0.64879 0.0
N1332 N 0.76523 0.14152 0.64414 0.0
C1333 C 0.74838 0.11048 0.63946 0.0
C1334 C 0.69886 0.11122 0.64017 0.0
C1335 C 0.71507 0.09481 0.63791 0.0
H1336 H 0.84436 0.24442 0.63497 0.0
H1337 H 0.70196 0.07008 0.63484 0.0
H1338 H 0.67555 0.15052 0.64078 0.0
H1339 H 0.81974 0.27681 0.62948 0.0
H1340 H 0.76001 0.09719 0.63662 0.0
H1341 H 0.96949 0.25746 0.69045 0.0
H1342 H 0.67305 0.09904 0.63878 0.0
H1343 H 0.82257 0.08638 0.71041 0.0
H1344 H 0.91133 0.23052 0.68759 0.0
H1345 H 0.84531 0.05361 0.72017 0.0
H1346 H 0.70795 0.2075 0.63864 0.0
H1347 H 0.99651 0.22845 0.69991 0.0
H1348 H 0.99223 0.17804 0.70968 0.0
H1349 H 0.76153 0.25448 0.63338 0.0
H1350 H 0.95862 0.12247 0.71712 0.0
N1351 N 0.90429 0.18608 0.69559 0.0
C1352 C 0.92223 0.21734 0.6921 0.0
C1353 C 0.97068 0.21636 0.69879 0.0
C1354 C 0.9523 0.18453 0.70264 0.0
C1355 C 0.95553 0.23283 0.69352 0.0
C1356 C 0.91869 0.16982 0.70092 0.0
H1357 H 0.90396 0.07581 0.72077 0.0
N1358 N 0.86752 0.12524 0.70352 0.0
C1359 C 0.86091 0.0773 0.71566 0.0
C1360 C 0.89978 0.13847 0.70489 0.0
C1361 C 0.84806 0.09568 0.70985 0.0
C1362 C 0.89402 0.08994 0.71603 0.0
C1363 C 0.91393 0.12107 0.71101 0.0
O1364 O 0.81824 0.144 0.71999 0.0
O1365 O 0.80909 0.16079 0.67852 0.0
O1366 O 0.84168 0.21721 0.66482 0.0
O1367 O 0.85593 0.20721 0.69364 0.0
O1368 O 0.79428 0.12459 0.69699 0.0
O1369 O 0.8655 0.18395 0.72079 0.0
O1370 O 0.84961 0.19853 0.62522 0.0
O1371 O 0.86399 0.17974 0.66713 0.0
O1372 O 0.83604 0.1157 0.67788 0.0
O1373 O 0.80566 0.11944 0.65379 0.0
O1374 O 0.8638 0.16551 0.64055 0.0
O1375 O 0.81552 0.14896 0.62177 0.0
C1376 C 0.78448 0.13788 0.68546 0.0
C1377 C 0.84429 0.15813 0.74885 0.0
C1378 C 0.83476 0.15854 0.78178 0.0
C1379 C 0.8294 0.16435 0.76354 0.0
C1380 C 0.85428 0.14544 0.7851 0.0
C1381 C 0.86369 0.14506 0.75234 0.0
C1382 C 0.86845 0.13855 0.77043 0.0
C1383 C 0.85235 0.22567 0.68207 0.0
C1384 C 0.83983 0.16628 0.73012 0.0
C1385 C 0.94735 0.13548 0.71247 0.0
C1386 C 0.96649 0.16714 0.70829 0.0
C1387 C 0.87946 0.17286 0.6557 0.0
C1388 C 0.82975 0.17966 0.59493 0.0
C1389 C 0.84263 0.17094 0.58021 0.0
C1390 C 0.83494 0.1739 0.56188 0.0
C1391 C 0.81477 0.18621 0.55845 0.0
C1392 C 0.80948 0.19166 0.5913 0.0
C1393 C 0.80221 0.19509 0.57308 0.0
C1394 C 0.81671 0.10412 0.66344 0.0
C1395 C 0.83685 0.17467 0.61388 0.0
H1396 H 0.81415 0.17421 0.76085 0.0
H1397 H 0.85844 0.14047 0.79908 0.0
H1398 H 0.87534 0.14017 0.74117 0.0
H1399 H 0.88337 0.12839 0.77311 0.0
H1400 H 0.85838 0.16168 0.58298 0.0
H1401 H 0.80887 0.18906 0.5444 0.0
H1402 H 0.79914 0.19815 0.60249 0.0
H1403 H 0.78669 0.20454 0.57028 0.0
C1404 C 0.3683 0.93481 0.03694 0.0
C1405 C 0.35491 0.90224 0.03477 0.0
C1406 C 0.40369 0.91023 0.01969 0.0
C1407 C 0.41814 0.94288 0.02268 0.0
N1408 N 0.4156 0.98574 0.03669 0.0
N1409 N 0.35643 0.8589 0.0206 0.0
C1410 C 0.40052 0.95509 0.03168 0.0
C1411 C 0.37147 0.88997 0.02492 0.0
N1412 N 0.34989 0.9463 0.04387 0.0
N1413 N 0.42186 0.89839 0.01324 0.0
H1414 H 0.33358 0.8429 0.02516 0.0
H1415 H 0.36557 0.84922 0.01136 0.0
H1416 H 0.44504 0.9131 0.00896 0.0
H1417 H 0.41481 0.87481 0.01284 0.0
H1418 H 0.35689 0.96987 0.04417 0.0
H1419 H 0.32621 0.93195 0.0479 0.0
H1420 H 0.40602 0.99563 0.04545 0.0
H1421 H 0.43908 0.00093 0.03308 0.0
C1422 C 0.10044 0.46524 0.02251 0.0
C1423 C 0.10229 0.46097 0.04175 0.0
C1424 C 0.06427 0.47973 0.04665 0.0
C1425 C 0.05945 0.47905 0.02729 0.0
N1426 N 0.0974 0.50287 0.00367 0.0
N1427 N 0.0914 0.47172 0.07269 0.0
C1428 C 0.08366 0.48005 0.01634 0.0
C1429 C 0.08563 0.47032 0.05411 0.0
N1430 N 0.1151 0.45605 0.00998 0.0
N1431 N 0.05305 0.49477 0.05727 0.0
H1432 H 0.10984 0.46922 0.07838 0.0
H1433 H 0.07808 0.4754 0.0826 0.0
H1434 H 0.04536 0.50871 0.05092 0.0
H1435 H 0.0554 0.49727 0.07154 0.0
H1436 H 0.11371 0.45921 0.99584 0.0
H1437 H 0.12617 0.44333 0.01362 0.0
H1438 H 0.11847 0.50772 0.99692 0.0
H1439 H 0.09009 0.51938 1.00254 0.0
C1440 C 0.53 0.64304 0.02235 0.0
C1441 C 0.55667 0.65393 0.03455 0.0
C1442 C 0.54493 0.60087 0.03812 0.0
C1443 C 0.5249 0.59077 0.02225 0.0
N1444 N 0.4937 0.60343 1.0012 0.0
N1445 N 0.59353 0.64264 0.05074 0.0
C1446 C 0.51628 0.61228 0.01466 0.0
C1447 C 0.56589 0.63276 0.04098 0.0
N1448 N 0.51596 0.66077 0.01935 0.0
N1449 N 0.54036 0.58071 0.05206 0.0
H1450 H 0.61003 0.66625 0.0528 0.0
H1451 H 0.60094 0.62712 0.05506 0.0
H1452 H 0.51981 0.55881 0.05242 0.0
H1453 H 0.55372 0.58777 0.06429 0.0
H1454 H 0.49415 0.65249 0.01252 0.0
H1455 H 0.5243 0.68274 0.02523 0.0
H1456 H 0.49063 0.61934 0.99332 0.0
H1457 H 0.47725 0.58039 0.99842 0.0
C1458 C 0.87949 0.35392 0.98401 0.0
C1459 C 0.89414 0.33924 0.97469 0.0
C1460 C 0.94322 0.38907 0.9732 0.0
C1461 C 0.93168 0.40304 0.98623 0.0
N1462 N 0.88512 0.39472 0.00404 0.0
N1463 N 0.94282 0.34173 0.96472 0.0
C1464 C 0.8989 0.38416 0.99188 0.0
C1465 C 0.92713 0.35632 0.97117 0.0
N1466 N 0.84687 0.34018 0.98427 0.0
N1467 N 0.9663 0.40636 0.96063 0.0
H1468 H 0.93148 0.31757 0.96297 0.0
H1469 H 0.96758 0.35353 0.963 0.0
H1470 H 0.97195 0.42884 0.95709 0.0
H1471 H 0.97438 0.39637 0.95088 0.0
H1472 H 0.83498 0.35171 0.9887 0.0
H1473 H 0.83157 0.31845 0.97837 0.0
H1474 H 0.86358 0.38003 0.01062 0.0
H1475 H 0.8948 0.41769 0.0077 0.0
C1476 C 0.64133 0.5657 0.98403 0.0
C1477 C 0.64297 0.54199 0.97396 0.0
C1478 C 0.58748 0.50541 0.98223 0.0
C1479 C 0.58374 0.53041 0.98907 0.0
N1480 N 0.6077 0.58579 0.99483 0.0
N1481 N 0.61576 0.49015 0.96092 0.0
C1482 C 0.61092 0.561 0.98951 0.0
C1483 C 0.61551 0.51208 0.97232 0.0
N1484 N 0.66878 0.59254 0.98856 0.0
N1485 N 0.56508 0.47523 0.98561 0.0
H1486 H 0.63599 0.49385 0.95368 0.0
H1487 H 0.59508 0.46939 0.95744 0.0
H1488 H 0.54596 0.46921 0.99431 0.0
H1489 H 0.56795 0.45639 0.98196 0.0
H1490 H 0.66928 0.60912 0.99767 0.0
H1491 H 0.69135 0.59673 0.98461 0.0
H1492 H 0.62591 0.60887 0.99349 0.0
H1493 H 0.58638 0.58335 0.99989 0.0
C1494 C 0.47409 0.09981 0.96443 0.0
C1495 C 0.44742 0.09954 0.97262 0.0
C1496 C 0.4481 0.06703 0.99776 0.0
C1497 C 0.47237 0.06398 0.9885 0.0
N1498 N 0.50817 0.07733 0.96254 0.0
N1499 N 0.40646 0.0807 0.9958 0.0
C1500 C 0.48522 0.08035 0.97168 0.0
C1501 C 0.43384 0.08271 0.989 0.0
N1502 N 0.48964 0.11969 0.95014 0.0
N1503 N 0.43873 0.05521 0.015 0.0
H1504 H 0.39538 0.09202 0.98979 0.0
H1505 H 0.39312 0.06581 0.00643 0.0
H1506 H 0.44817 0.04327 0.02165 0.0
H1507 H 0.42411 0.05982 0.0234 0.0
H1508 H 0.51139 0.12368 0.9449 0.0
H1509 H 0.48218 0.1343 0.94438 0.0
H1510 H 0.51446 0.0839 0.94887 0.0
H1511 H 0.52054 0.06757 0.9686 0.0
C1512 C 0.61978 0.105 0.97862 0.0
C1513 C 0.64097 0.0935 0.97537 0.0
C1514 C 0.59944 0.04102 0.98413 0.0
C1515 C 0.57866 0.05275 0.98841 0.0
N1516 N 0.57088 0.09678 0.9927 0.0
N1517 N 0.65396 0.05281 0.97916 0.0
C1518 C 0.58959 0.0851 0.98671 0.0
C1519 C 0.63175 0.06221 0.97951 0.0
N1520 N 0.62763 0.13428 0.97291 0.0
N1521 N 0.58805 0.0096 0.98351 0.0
H1522 H 0.67784 0.06782 0.97577 0.0
H1523 H 0.6494 0.03113 0.98391 0.0
H1524 H 0.56485 0.9931 0.9872 0.0
H1525 H 0.60109 -0.0002 0.97822 0.0
H1526 H 0.61157 0.14253 0.97278 0.0
H1527 H 0.64946 0.14967 0.96686 0.0
H1528 H 0.57877 0.12052 0.99378 0.0
H1529 H 0.54835 0.08269 0.99827 0.0
C1530 C 0.88571 0.50773 0.97869 0.0
C1531 C 0.8985 0.53885 0.97251 0.0
C1532 C 0.95271 0.5483 0.97849 0.0
C1533 C 0.94012 0.518 0.98621 0.0
N1534 N 0.89411 0.46996 0.99497 0.0
N1535 N 0.94373 0.59065 0.96995 0.0
C1536 C 0.90639 0.49827 0.98682 0.0
C1537 C 0.93186 0.55975 0.9736 0.0
N1538 N 0.85408 0.48658 0.97574 0.0
N1539 N 0.98432 0.5653 0.97429 0.0
H1540 H 0.92915 0.59977 0.96621 0.0
H1541 H 0.96754 0.60754 0.9723 0.0
H1542 H 0.00028 0.55781 0.97761 0.0
H1543 H 0.99416 0.58555 0.96641 0.0
H1544 H 0.844 0.46273 0.97791 0.0
H1545 H 0.83811 0.4923 0.96965 0.0
H1546 H 0.87004 0.45551 0.99803 0.0
H1547 H 0.90921 0.46282 1.00035 0.0
C1548 C 0.4361 0.34838 0.9909 0.0
C1549 C 0.44785 0.34487 0.97374 0.0
C1550 C 0.48258 0.40141 0.97156 0.0
C1551 C 0.47225 0.40512 0.98939 0.0
N1552 N 0.4439 0.38051 0.01757 0.0
N1553 N 0.48746 0.36679 0.9498 0.0
C1554 C 0.45068 0.37814 0.99959 0.0
C1555 C 0.47255 0.37102 0.96465 0.0
N1556 N 0.40995 0.32349 0.99853 0.0
N1557 N 0.50184 0.42678 0.96099 0.0
H1558 H 0.48113 0.34488 0.94441 0.0
H1559 H 0.50809 0.38471 0.94388 0.0
H1560 H 0.51314 0.44964 0.96583 0.0
H1561 H 0.50544 0.42521 0.94694 0.0
H1562 H 0.39782 0.32538 0.00988 0.0
H1563 H 0.39844 0.30132 0.99254 0.0
H1564 H 0.43191 0.36135 0.02623 0.0
H1565 H 0.4525 0.4015 0.02445 0.0
C1566 C 0.10951 0.62192 0.04458 0.0
C1567 C 0.10915 0.64864 0.0379 0.0
C1568 C 0.06625 0.61616 0.01615 0.0
C1569 C 0.06746 0.58949 0.02224 0.0
N1570 N 0.09595 0.56851 0.03863 0.0
N1571 N 0.09155 0.67252 0.01525 0.0
C1572 C 0.09073 0.59281 0.03547 0.0
C1573 C 0.08902 0.64618 0.02294 0.0
N1574 N 0.12758 0.62429 0.05974 0.0
N1575 N 0.04219 0.61272 0.00473 0.0
H1576 H 0.10666 0.69486 0.02048 0.0
H1577 H 0.08043 0.6725 1.00289 0.0
H1578 H 0.02498 0.59114 0.9998 0.0
H1579 H 0.03759 0.63058 1.00149 0.0
H1580 H 0.12577 0.60502 0.06661 0.0
H1581 H 0.1429 0.64546 0.06627 0.0
H1582 H 0.11436 0.57014 0.04696 0.0
H1583 H 0.08403 0.5476 0.03125 0.0
C1584 C 0.36867 0.43618 0.03286 0.0
C1585 C 0.35896 0.45826 0.03672 0.0
C1586 C 0.40966 0.49991 0.02462 0.0
C1587 C 0.42131 0.47875 0.02287 0.0
N1588 N 0.41228 0.42668 0.02692 0.0
N1589 N 0.37114 0.51174 0.03813 0.0
C1590 C 0.40073 0.44675 0.02728 0.0
C1591 C 0.37953 0.49023 0.03287 0.0
N1592 N 0.34709 0.40506 0.03441 0.0
N1593 N 0.42755 0.52953 0.0183 0.0
H1594 H 0.34929 0.50579 0.0442 0.0
H1595 H 0.38674 0.53572 0.03786 0.0
H1596 H 0.44993 0.53719 0.01286 0.0
H1597 H 0.41916 0.54511 0.01678 0.0
H1598 H 0.35153 0.38754 0.03002 0.0
H1599 H 0.32361 0.39667 0.03873 0.0
H1600 H 0.40023 0.40417 0.03222 0.0
H1601 H 0.43489 0.43336 0.022 0.0
C1602 C 0.57342 0.92742 0.03441 0.0
C1603 C 0.55749 0.89506 0.03148 0.0
C1604 C 0.51396 0.89863 0.01627 0.0
C1605 C 0.52802 0.93065 0.02194 0.0
N1606 N 0.56129 0.96422 0.04727 0.0
N1607 N 0.50845 0.84829 0.02327 0.0
C1608 C 0.55536 0.94248 0.03391 0.0
C1609 C 0.52667 0.88011 0.02325 0.0
N1610 N 0.60489 0.94329 0.03945 0.0
N1611 N 0.48769 0.88494 0.00516 0.0
H1612 H 0.51653 0.83381 0.02842 0.0
H1613 H 0.48427 0.83634 0.01969 0.0
H1614 H 0.47438 0.89522 1.00188 0.0
H1615 H 0.47964 0.86332 0.99882 0.0
H1616 H 0.61739 0.96751 0.04104 0.0
H1617 H 0.61874 0.93251 0.04017 0.0
H1618 H 0.58096 0.97259 0.05617 0.0
H1619 H 0.54354 0.9683 0.05219 0.0
C1620 C 0.03564 0.26631 0.36696 0.0
C1621 C 0.02382 0.23375 0.36761 0.0
C1622 C 0.07375 0.24071 0.35483 0.0
C1623 C 0.08647 0.27354 0.35477 0.0
N1624 N 0.08023 0.31815 0.36103 0.0
N1625 N 0.02764 0.18908 0.358 0.0
C1626 C 0.06734 0.28647 0.36061 0.0
C1627 C 0.04155 0.2207 0.36008 0.0
N1628 N 0.01615 0.27765 0.37217 0.0
N1629 N 0.09318 0.22867 0.35118 0.0
H1630 H 0.00475 0.17341 0.36267 0.0
H1631 H 0.03771 0.1784 0.3503 0.0
H1632 H 0.11666 0.24234 0.34697 0.0
H1633 H 0.08677 0.2055 0.35336 0.0
H1634 H 0.02189 0.30079 0.37102 0.0
H1635 H 0.99284 0.26331 0.37679 0.0
H1636 H 0.06947 0.32967 0.36701 0.0
H1637 H 0.10252 0.33355 0.35556 0.0
C1638 C 0.73669 0.76836 0.36484 0.0
C1639 C 0.76887 0.7917 0.36827 0.0
C1640 C 0.75744 0.83181 0.35681 0.0
C1641 C 0.72452 0.80889 0.35482 0.0
N1642 N 0.68212 0.7557 0.35845 0.0
N1643 N 0.81165 0.84467 0.36481 0.0
C1644 C 0.71407 0.77714 0.35895 0.0
C1645 C 0.77979 0.82312 0.36329 0.0
N1646 N 0.728 0.73768 0.36691 0.0
N1647 N 0.76688 0.86234 0.35353 0.0
H1648 H 0.82839 0.83974 0.37063 0.0
H1649 H 0.82217 0.86711 0.3595 0.0
H1650 H 0.75161 0.86908 0.34774 0.0
H1651 H 0.78923 0.88113 0.35683 0.0
H1652 H 0.70593 0.71919 0.36281 0.0
H1653 H 0.74394 0.73057 0.37135 0.0
H1654 H 0.67227 0.73322 0.36366 0.0
H1655 H 0.66498 0.76082 0.35348 0.0
C1656 C 0.22825 0.96534 0.3764 0.0
C1657 C 0.22171 0.9869 0.36756 0.0
C1658 C 0.18301 0.94479 0.34721 0.0
C1659 C 0.19155 0.92387 0.35551 0.0
N1660 N 0.20269 0.91227 0.38588 0.0
N1661 N 0.19405 -0.00193 0.34358 0.0
C1662 C 0.209 0.93348 0.37231 0.0
C1663 C 0.1996 0.97698 0.35256 0.0
N1664 N 0.2524 0.97509 0.38909 0.0
N1665 N 0.15574 0.93335 0.33692 0.0
H1666 H 0.20361 0.02113 0.34791 0.0
H1667 H 0.18176 0.9933 0.33105 0.0
H1668 H 0.13949 0.90968 0.33586 0.0
H1669 H 0.14635 0.94689 0.33205 0.0
H1670 H 0.25905 0.95989 0.39492 0.0
H1671 H 0.2676 -0.0014 0.39226 0.0
H1672 H 0.21329 0.91822 0.39895 0.0
H1673 H 0.18233 0.89037 0.38501 0.0
C1674 C 0.56396 0.68328 0.32505 0.0
C1675 C 0.56757 0.67607 0.30654 0.0
C1676 C 0.60219 0.73175 0.30103 0.0
C1677 C 0.59703 0.73914 0.31923 0.0
N1678 N 0.55741 0.72027 0.3429 0.0
N1679 N 0.60911 0.69434 0.28362 0.0
C1680 C 0.57396 0.71452 0.32998 0.0
C1681 C 0.59222 0.70053 0.29629 0.0
N1682 N 0.55561 0.66163 0.33859 0.0
N1683 N 0.61349 0.75385 0.28758 0.0
H1684 H 0.6056 0.67188 0.28191 0.0
H1685 H 0.62891 0.712 0.27685 0.0
H1686 H 0.6152 0.77552 0.28956 0.0
H1687 H 0.61598 0.74869 0.27391 0.0
H1688 H 0.55466 0.66697 0.35245 0.0
H1689 H 0.55457 0.64034 0.33611 0.0
H1690 H 0.53876 0.70235 0.35027 0.0
H1691 H 0.55826 0.74171 0.34306 0.0
C1692 C 0.27834 0.85482 0.28878 0.0
C1693 C 0.30716 0.87307 0.299 0.0
C1694 C 0.27522 0.8644 0.32643 0.0
C1695 C 0.24731 0.85429 0.31603 0.0
N1696 N 0.22055 0.8304 0.2877 0.0
N1697 N 0.33187 0.89851 0.32796 0.0
C1698 C 0.24842 0.8471 0.29711 0.0
C1699 C 0.30522 0.8795 0.31783 0.0
N1700 N 0.2794 0.84322 0.27179 0.0
N1701 N 0.27275 0.85104 0.34291 0.0
H1702 H 0.35459 0.91084 0.32214 0.0
H1703 H 0.33031 0.90359 0.3418 0.0
H1704 H 0.25084 0.8316 0.34609 0.0
H1705 H 0.29277 0.85433 0.35037 0.0
H1706 H 0.25928 0.82778 0.2642 0.0
H1707 H 0.30061 0.84717 0.2657 0.0
H1708 H 0.21879 0.82733 0.27343 0.0
H1709 H 0.19916 0.81872 0.29486 0.0
C1710 C 0.14359 0.44719 0.32128 0.0
C1711 C 0.11494 0.4344 0.31064 0.0
C1712 C 0.11608 0.38643 0.30652 0.0
C1713 C 0.14157 0.39648 0.31954 0.0
N1714 N 0.18775 0.44108 0.3324 0.0
N1715 N 0.06953 0.38906 0.29751 0.0
C1716 C 0.15745 0.42818 0.32541 0.0
C1717 C 0.09952 0.40291 0.30506 0.0
N1718 N 0.15742 0.47734 0.32739 0.0
N1719 N 0.11115 0.36498 0.29317 0.0
H1720 H 0.05655 0.40065 0.2962 0.0
H1721 H 0.05664 0.36527 0.29443 0.0
H1722 H 0.12913 0.36047 0.28931 0.0
H1723 H 0.09326 0.35782 0.28314 0.0
H1724 H 0.17624 0.48721 0.33684 0.0
H1725 H 0.14864 0.49209 0.32393 0.0
H1726 H 0.2022 0.46464 0.33548 0.0
H1727 H 0.19998 0.42872 0.33309 0.0
C1728 C 0.30638 0.40591 0.32199 0.0
C1729 C 0.30709 0.42672 0.3084 0.0
C1730 C 0.24861 0.40123 0.30924 0.0
C1731 C 0.24759 0.37828 0.3216 0.0
N1732 N 0.27588 0.35474 0.33552 0.0
N1733 N 0.27925 0.44294 0.2876 0.0
C1734 C 0.27661 0.37961 0.32691 0.0
C1735 C 0.27831 0.42432 0.30182 0.0
N1736 N 0.3342 0.41116 0.33015 0.0
N1737 N 0.2211 0.40023 0.30374 0.0
H1738 H 0.30049 0.46114 0.28238 0.0
H1739 H 0.2592 0.43932 0.28013 0.0
H1740 H 0.19885 0.38088 0.30554 0.0
H1741 H 0.22034 0.4188 0.29753 0.0
H1742 H 0.33482 0.39858 0.3415 0.0
H1743 H 0.35644 0.42996 0.32664 0.0
H1744 H 0.29623 0.35299 0.33784 0.0
H1745 H 0.25469 0.33479 0.33919 0.0
C1746 C 0.55536 0.83798 0.30833 0.0
C1747 C 0.56393 0.86983 0.30812 0.0
C1748 C 0.61608 0.88399 0.32183 0.0
C1749 C 0.60724 0.85196 0.3226 0.0
N1750 N 0.56524 0.79845 0.32096 0.0
N1751 N 0.59893 0.92229 0.31878 0.0
C1752 C 0.57574 0.82902 0.31731 0.0
C1753 C 0.59315 0.89255 0.31627 0.0
N1754 N 0.52856 0.81636 0.29911 0.0
N1755 N 0.64686 0.90638 0.32543 0.0
H1756 H 0.58274 0.92928 0.31467 0.0
H1757 H 0.6183 0.93909 0.32638 0.0
H1758 H 0.66345 0.9009 0.33071 0.0
H1759 H 0.65594 0.92999 0.32277 0.0
H1760 H 0.5233 0.79351 0.29676 0.0
H1761 H 0.5128 0.82182 0.29245 0.0
H1762 H 0.54169 0.78067 0.31903 0.0
H1763 H 0.5794 0.79166 0.32804 0.0
C1764 C 0.10509 0.68262 0.32504 0.0
C1765 C 0.11614 0.67931 0.30752 0.0
C1766 C 0.15633 0.73484 0.30764 0.0
C1767 C 0.1425 0.73922 0.32374 0.0
N1768 N 0.1056 0.71686 0.34908 0.0
N1769 N 0.15115 0.70213 0.28143 0.0
C1770 C 0.11765 0.71292 0.33296 0.0
C1771 C 0.14136 0.70543 0.29857 0.0
N1772 N 0.0828 0.65666 0.33416 0.0
N1773 N 0.18527 0.75836 0.3019 0.0
H1774 H 0.14229 0.68067 0.27475 0.0
H1775 H 0.1666 0.72096 0.27329 0.0
H1776 H 0.19841 0.7785 0.30983 0.0
H1777 H 0.19804 0.75641 0.29092 0.0
H1778 H 0.07652 0.65657 0.34789 0.0
H1779 H 0.07132 0.63444 0.32822 0.0
H1780 H 0.08454 0.69991 0.35511 0.0
H1781 H 0.11676 0.73744 0.35661 0.0
C1782 C 0.75763 0.98121 0.3531 0.0
C1783 C 0.77414 0.98468 0.36996 0.0
C1784 C 0.75051 0.92801 0.37209 0.0
C1785 C 0.7347 0.92428 0.35479 0.0
N1786 N 0.72792 0.94809 0.32728 0.0
N1787 N 0.79187 0.96248 0.39357 0.0
C1788 C 0.73988 0.95112 0.34476 0.0
C1789 C 0.77209 0.95837 0.37892 0.0
N1790 N 0.75776 0.00653 0.34549 0.0
N1791 N 0.74492 0.90248 0.38214 0.0
H1792 H 0.80814 0.98433 0.399 0.0
H1793 H 0.79431 0.94457 0.39939 0.0
H1794 H 0.73275 0.87995 0.3769 0.0
H1795 H 0.75129 0.90351 0.39599 0.0
H1796 H 0.74326 0.00513 0.33442 0.0
H1797 H 0.77054 0.02889 0.35117 0.0
H1798 H 0.73425 0.96684 0.31847 0.0
H1799 H 0.71345 0.92671 0.32092 0.0
C1800 C 0.03542 0.7739 0.3643 0.0
C1801 C 0.0268 0.79646 0.36897 0.0
C1802 C 0.08066 0.83844 0.36124 0.0
C1803 C 0.09005 0.81608 0.3567 0.0
N1804 N 0.07703 0.76233 0.35683 0.0
N1805 N 0.03829 0.84966 0.36798 0.0
C1806 C 0.06736 0.7837 0.35875 0.0
C1807 C 0.04845 0.8285 0.36604 0.0
N1808 N 0.01264 0.74297 0.36471 0.0
N1809 N 0.10321 0.86923 0.36283 0.0
H1810 H 0.01557 0.84375 0.37265 0.0
H1811 H 0.05143 0.87266 0.36353 0.0
H1812 H 0.12722 0.87756 0.3604 0.0
H1813 H 0.09887 0.88619 0.36835 0.0
H1814 H 0.01593 0.72519 0.35947 0.0
H1815 H 0.98921 0.7351 0.36894 0.0
H1816 H 0.06371 0.73915 0.36087 0.0
H1817 H 0.09924 0.76829 0.3516 0.0
C1818 C 0.22997 0.2417 0.35286 0.0
C1819 C 0.22454 0.23304 0.37172 0.0
C1820 C 0.19196 0.25798 0.37485 0.0
C1821 C 0.19603 0.26561 0.35567 0.0
N1822 N 0.21768 0.26303 0.32617 0.0
N1823 N 0.1973 0.22918 0.40029 0.0
C1824 C 0.21433 0.25659 0.34457 0.0
C1825 C 0.20503 0.2405 0.38267 0.0
N1826 N 0.25183 0.23749 0.3432 0.0
N1827 N 0.17508 0.26714 0.38569 0.0
H1828 H 0.20592 0.21593 0.40659 0.0
H1829 H 0.18044 0.23082 0.40838 0.0
H1830 H 0.15943 0.27354 0.38018 0.0
H1831 H 0.17679 0.26862 0.40004 0.0
H1832 H 0.25953 0.24602 0.32997 0.0
H1833 H 0.26453 0.22764 0.349 0.0
H1834 H 0.22505 0.25203 0.31672 0.0
H1835 H 0.21245 0.27902 0.32027 0.0
C1836 C 0.70207 0.5997 0.70048 0.0
C1837 C 0.69022 0.56715 0.70063 0.0
C1838 C 0.74011 0.57466 0.68732 0.0
C1839 C 0.75292 0.60749 0.68801 0.0
N1840 N 0.74723 0.6517 0.69655 0.0
N1841 N 0.69424 0.52279 0.69058 0.0
C1842 C 0.73397 0.62011 0.69469 0.0
C1843 C 0.70803 0.55438 0.69279 0.0
N1844 N 0.68238 0.6109 0.70552 0.0
N1845 N 0.7594 0.56287 0.68271 0.0
H1846 H 0.67154 0.50699 0.69545 0.0
H1847 H 0.7042 0.51221 0.6827 0.0
H1848 H 0.78258 0.57682 0.67807 0.0
H1849 H 0.75321 0.53965 0.6843 0.0
H1850 H 0.68809 0.63401 0.70408 0.0
H1851 H 0.65892 0.59647 0.70987 0.0
H1852 H 0.73671 0.66248 0.70368 0.0
H1853 H 0.76977 0.66753 0.69158 0.0
C1854 C 0.41964 0.13757 0.721 0.0
C1855 C 0.43469 0.12596 0.70898 0.0
C1856 C 0.41628 0.14403 0.68301 0.0
C1857 C 0.39316 0.14529 0.69388 0.0
N1858 N 0.38538 0.16029 0.72382 0.0
N1859 N 0.44462 0.11666 0.67742 0.0
C1860 C 0.39797 0.14645 0.71329 0.0
C1861 C 0.43176 0.12826 0.68963 0.0
N1862 N 0.42775 0.14216 0.73934 0.0
N1863 N 0.43063 0.16577 0.6698 0.0
H1864 H 0.45479 0.10331 0.68151 0.0
H1865 H 0.44262 0.11857 0.66319 0.0
H1866 H 0.4246 0.18315 0.66823 0.0
H1867 H 0.45112 0.16897 0.66302 0.0
H1868 H 0.41818 0.15082 0.74894 0.0
H1869 H 0.44565 0.13882 0.74503 0.0
H1870 H 0.38479 0.16018 0.73817 0.0
H1871 H 0.37775 0.17431 0.71751 0.0
C1872 C 0.85942 0.30642 0.68777 0.0
C1873 C 0.88775 0.32163 0.69866 0.0
C1874 C 0.88771 0.27306 0.70211 0.0
C1875 C 0.86207 0.25797 0.68915 0.0
N1876 N 0.81572 0.25726 0.67636 0.0
N1877 N 0.93359 0.32136 0.71159 0.0
C1878 C 0.84597 0.27401 0.68339 0.0
C1879 C 0.90375 0.30565 0.70386 0.0
N1880 N 0.84553 0.32297 0.68166 0.0
N1881 N 0.89275 0.2566 0.71544 0.0
H1882 H 0.94604 0.34556 0.71327 0.0
H1883 H 0.94694 0.31055 0.71447 0.0
H1884 H 0.87409 0.23546 0.71991 0.0
H1885 H 0.91107 0.26686 0.72523 0.0
H1886 H 0.82698 0.31449 0.67202 0.0
H1887 H 0.85417 0.34626 0.68522 0.0
H1888 H 0.80105 0.26657 0.67357 0.0
H1889 H 0.80374 0.23302 0.67539 0.0
C1890 C 0.26043 0.03019 0.6305 0.0
C1891 C 0.23381 0.00763 0.64055 0.0
C1892 C 0.23965 0.04884 0.66154 0.0
C1893 C 0.26534 0.07182 0.65113 0.0
N1894 N 0.28727 0.0832 0.6202 0.0
N1895 N 0.21872 0.99695 0.67259 0.0
C1896 C 0.27244 0.06228 0.63406 0.0
C1897 C 0.22865 0.01698 0.6581 0.0
N1898 N 0.27608 0.02101 0.61867 0.0
N1899 N 0.22268 0.05664 0.67306 0.0
H1900 H 0.21904 0.97604 0.67193 0.0
H1901 H 0.21631 0.00384 0.68586 0.0
H1902 H 0.22571 0.07895 0.67313 0.0
H1903 H 0.20229 0.03973 0.67979 0.0
H1904 H 0.2973 0.03684 0.61217 0.0
H1905 H 0.2697 -0.00241 0.6173 0.0
H1906 H 0.29104 0.07657 0.60719 0.0
H1907 H 0.29054 0.10567 0.62063 0.0
C1908 C 0.96112 0.17889 0.65108 0.0
C1909 C 0.97688 0.20615 0.64018 0.0
C1910 C 0.93284 0.21649 0.64591 0.0
C1911 C 0.91488 0.18671 0.6543 0.0
N1912 N 0.91061 0.13734 0.6619 0.0
N1913 N 0.97713 0.25027 0.62606 0.0
C1914 C 0.9288 0.16745 0.65625 0.0
C1915 C 0.96267 0.22494 0.6374 0.0
N1916 N 0.97674 0.16347 0.65626 0.0
N1917 N 0.92116 0.23657 0.64589 0.0
H1918 H 0.9997 0.25812 0.6204 0.0
H1919 H 0.96603 0.26238 0.62136 0.0
H1920 H 0.89944 0.23113 0.6519 0.0
H1921 H 0.93417 0.25958 0.64146 0.0
H1922 H 0.96773 0.14577 0.66607 0.0
H1923 H 0.99984 0.17003 0.65201 0.0
H1924 H 0.91821 0.12102 0.66141 0.0
H1925 H 0.8871 0.12815 0.66606 0.0
C1926 C 0.76159 0.73782 0.64359 0.0
C1927 C 0.78213 0.77021 0.64484 0.0
C1928 C 0.82428 0.76147 0.65747 0.0
C1929 C 0.80432 0.72881 0.6542 0.0
N1930 N 0.76129 0.69191 0.63387 0.0
N1931 N 0.83455 0.81394 0.6509 0.0
C1932 C 0.77483 0.71827 0.6445 0.0
C1933 C 0.81392 0.78248 0.65142 0.0
N1934 N 0.72964 0.72573 0.64039 0.0
N1935 N 0.85392 0.7726 0.66511 0.0
H1936 H 0.82749 0.82979 0.64682 0.0
H1937 H 0.85898 0.82435 0.65348 0.0
H1938 H 0.8642 0.75873 0.66714 0.0
H1939 H 0.86819 0.79549 0.66965 0.0
H1940 H 0.71351 0.70179 0.64061 0.0
H1941 H 0.71914 0.7397 0.63948 0.0
H1942 H 0.7406 0.68494 0.62605 0.0
H1943 H 0.77321 0.68037 0.62984 0.0
C1944 C 0.97301 0.73198 0.65118 0.0
C1945 C 0.9756 0.75905 0.64297 0.0
C1946 C 0.91861 0.73952 0.64772 0.0
C1947 C 0.91531 0.71184 0.65588 0.0
N1948 N 0.93901 0.68073 0.66426 0.0
N1949 N 0.95378 0.79285 0.63828 0.0
C1950 C 0.94263 0.70807 0.65753 0.0
C1951 C 0.94939 0.76427 0.64303 0.0
N1952 N 0.99993 0.72969 0.6533 0.0
N1953 N 0.89231 0.74081 0.64206 0.0
H1954 H 0.97572 0.81123 0.63399 0.0
H1955 H 0.93644 0.79922 0.64028 0.0
H1956 H 0.86923 0.72233 0.64319 0.0
H1957 H 0.89341 0.75884 0.63413 0.0
H1958 H 0.00087 0.71214 0.66063 0.0
H1959 H 0.02233 0.7468 0.64868 0.0
H1960 H 0.95637 0.6742 0.66373 0.0
H1961 H 0.91791 0.66399 0.67037 0.0
C1962 C 0.25848 0.22158 0.64739 0.0
C1963 C 0.22844 0.19957 0.63987 0.0
C1964 C 0.23977 0.1576 0.64703 0.0
C1965 C 0.27161 0.17992 0.6524 0.0
N1966 N 0.31265 0.23422 0.65375 0.0
N1967 N 0.19137 0.14673 0.63061 0.0
C1968 C 0.28127 0.21223 0.65167 0.0
C1969 C 0.21917 0.16755 0.63935 0.0
N1970 N 0.26528 0.25153 0.65048 0.0
N1971 N 0.22917 0.12662 0.64915 0.0
H1972 H 0.17529 0.15288 0.62511 0.0
H1973 H 0.18526 0.12385 0.62754 0.0
H1974 H 0.24401 0.11857 0.65378 0.0
H1975 H 0.20534 0.10924 0.64774 0.0
H1976 H 0.28545 0.26783 0.65776 0.0
H1977 H 0.2492 0.25915 0.64731 0.0
H1978 H 0.32171 0.25784 0.65113 0.0
H1979 H 0.32992 0.22846 0.65705 0.0
C1980 C 0.76597 0.01642 0.65728 0.0
C1981 C 0.78007 0.01193 0.64132 0.0
C1982 C 0.82008 0.06739 0.64086 0.0
C1983 C 0.8066 0.07192 0.65717 0.0
N1984 N 0.77157 0.04958 0.68325 0.0
N1985 N 0.82423 0.03115 0.6201 0.0
C1986 C 0.78107 0.04604 0.66614 0.0
C1987 C 0.80817 0.03687 0.6337 0.0
N1988 N 0.73751 0.99267 0.66355 0.0
N1989 N 0.84426 0.09234 0.63211 0.0
H1990 H 0.81633 0.00907 0.61444 0.0
H1991 H 0.84678 0.04767 0.61543 0.0
H1992 H 0.85624 0.11435 0.63806 0.0
H1993 H 0.85176 0.09145 0.61877 0.0
H1994 H 0.72417 0.99546 0.67386 0.0
H1995 H 0.7258 0.97062 0.65739 0.0
H1996 H 0.75559 0.03104 0.69139 0.0
H1997 H 0.78163 0.071 0.68996 0.0
C1998 C 0.42338 0.31252 0.68895 0.0
C1999 C 0.44228 0.3155 0.70467 0.0
C2000 C 0.42409 0.25955 0.70352 0.0
C2001 C 0.40381 0.25621 0.68842 0.0
N2002 N 0.39185 0.28074 0.66321 0.0
N2003 N 0.45977 0.29243 0.72791 0.0
C2004 C 0.40564 0.28303 0.68006 0.0
C2005 C 0.44242 0.28915 0.71223 0.0
N2006 N 0.42131 0.33769 0.68301 0.0
N2007 N 0.42773 0.23486 0.70841 0.0
H2008 H 0.47497 0.31397 0.73407 0.0
H2009 H 0.45791 0.27378 0.73549 0.0
H2010 H 0.41733 0.21415 0.70081 0.0
H2011 H 0.44358 0.23573 0.71848 0.0
H2012 H 0.40494 0.33633 0.67313 0.0
H2013 H 0.4342 0.35976 0.68905 0.0
H2014 H 0.39499 0.2998 0.65554 0.0
H2015 H 0.38034 0.26012 0.65572 0.0
C2016 C 0.72135 0.1548 0.70601 0.0
C2017 C 0.69313 0.12601 0.70247 0.0
C2018 C 0.72424 0.1069 0.68585 0.0
C2019 C 0.75281 0.13583 0.689 0.0
N2020 N 0.77854 0.18729 0.70284 0.0
N2021 N 0.66621 0.0775 0.68575 0.0
C2022 C 0.75122 0.16 0.69897 0.0
C2023 C 0.69416 0.10303 0.69131 0.0
N2024 N 0.71974 0.17641 0.71712 0.0
N2025 N 0.72598 0.08233 0.67854 0.0
H2026 H 0.64382 0.07365 0.6898 0.0
H2027 H 0.66508 0.06165 0.67587 0.0
H2028 H 0.74707 0.08456 0.67334 0.0
H2029 H 0.7069 0.05952 0.67831 0.0
H2030 H 0.73945 0.19643 0.72228 0.0
H2031 H 0.69821 0.17385 0.72189 0.0
H2032 H 0.77922 0.20766 0.70715 0.0
H2033 H 0.80095 0.18956 0.70195 0.0
C2034 C 0.86217 0.56517 0.7113 0.0
C2035 C 0.88734 0.5639 0.70212 0.0
C2036 C 0.88389 0.59404 0.67636 0.0
C2037 C 0.86088 0.59807 0.68634 0.0
N2038 N 0.82798 0.58759 0.71334 0.0
N2039 N 0.92471 0.57912 0.67705 0.0
C2040 C 0.85008 0.58368 0.70384 0.0
C2041 C 0.8987 0.57862 0.68487 0.0
N2042 N 0.84879 0.54743 0.7267 0.0
N2043 N 0.89174 0.60499 0.65879 0.0
H2044 H 0.93625 0.56816 0.68295 0.0
H2045 H 0.93655 0.59236 0.66555 0.0
H2046 H 0.88382 0.61885 0.65273 0.0
H2047 H 0.90473 0.59908 0.64986 0.0
H2048 H 0.82814 0.54459 0.73294 0.0
H2049 H 0.85684 0.53341 0.73263 0.0
H2050 H 0.82321 0.58275 0.72732 0.0
H2051 H 0.81467 0.59626 0.70716 0.0
C2052 C 0.46148 0.9704 0.16113 0.0
C2053 C 0.47201 0.94864 0.1643 0.0
C2054 C 0.49792 0.96087 0.13399 0.0
C2055 C 0.48658 0.98202 0.13074 0.0
N2056 N 0.44798 -0.00246 0.13825 0.0
N2057 N 0.49158 0.91639 0.1515 0.0
C2058 C 0.4651 0.98359 0.14335 0.0
C2059 C 0.48741 0.94163 0.14996 0.0
N2060 N 0.44996 0.98019 0.1753 0.0
N2061 N 0.51995 0.96023 0.12249 0.0
H2062 H 0.48368 0.90163 0.16291 0.0
H2063 H 0.49984 0.90834 0.14072 0.0
H2064 H 0.52878 0.97425 0.11084 0.0
H2065 H 0.53138 0.94757 0.12533 0.0
H2066 H 0.44503 -0.00168 0.17393 0.0
H2067 H 0.44842 0.9726 0.18886 0.0
H2068 H 0.42978 0.99677 0.14632 0.0
H2069 H 0.44959 0.00675 0.12509 0.0
C2070 C 0.04888 0.50182 0.15512 0.0
C2071 C 0.04058 0.51993 0.16665 0.0
C2072 C 0.01187 0.52678 0.14078 0.0
C2073 C 0.01434 0.50349 0.13085 0.0
N2074 N 0.03616 0.46939 0.12763 0.0
N2075 N 0.01182 0.54793 0.17085 0.0
C2076 C 0.03355 0.49145 0.13763 0.0
C2077 C 0.02199 0.53255 0.1595 0.0
N2078 N 0.0716 0.49489 0.16089 0.0
N2079 N 0.99942 0.54305 0.13234 0.0
H2080 H 0.01743 0.55173 0.18486 0.0
H2081 H 0.99538 0.55454 0.16674 0.0
H2082 H 0.99158 0.53903 0.11863 0.0
H2083 H 0.99997 0.56251 0.13827 0.0
H2084 H 0.08064 0.48394 0.15257 0.0
H2085 H 0.08357 0.5027 0.17351 0.0
H2086 H 0.04668 0.45695 0.13271 0.0
H2087 H 0.02647 0.46256 0.11439 0.0
C2088 C 0.48213 0.53182 0.15166 0.0
C2089 C 0.46765 0.50818 0.16525 0.0
C2090 C 0.46442 0.46971 0.14272 0.0
C2091 C 0.48466 0.49403 0.13068 0.0
N2092 N 0.51441 0.54916 0.12397 0.0
N2093 N 0.44964 0.45495 0.1744 0.0
C2094 C 0.49367 0.5254 0.13507 0.0
C2095 C 0.45966 0.47709 0.16092 0.0
N2096 N 0.48443 0.56017 0.15451 0.0
N2097 N 0.44964 0.43948 0.1367 0.0
H2098 H 0.44741 0.45947 0.18821 0.0
H2099 H 0.44675 0.43287 0.17219 0.0
H2100 H 0.45219 0.43341 0.12325 0.0
H2101 H 0.43227 0.42103 0.14436 0.0
H2102 H 0.49202 0.57734 0.14442 0.0
H2103 H 0.47575 0.56535 0.16638 0.0
H2104 H 0.52444 0.57262 0.12754 0.0
H2105 H 0.52347 0.54551 0.11177 0.0
C2106 C 0.95 0.46332 0.85791 0.0
C2107 C 0.96209 0.48633 0.84388 0.0
C2108 C 0.99687 0.52521 0.86665 0.0
C2109 C 0.98999 0.50113 0.87944 0.0
N2110 N 0.96036 0.4465 0.88728 0.0
N2111 N 0.00097 0.5387 0.83446 0.0
C2112 C 0.96626 0.46994 0.87523 0.0
C2113 C 0.98632 0.51731 0.84815 0.0
N2114 N 0.92287 0.43539 0.85473 0.0
N2115 N 0.01367 0.55567 0.87223 0.0
H2116 H 0.99537 0.53371 0.82049 0.0
H2117 H 0.02102 0.56054 0.8368 0.0
H2118 H 0.02124 0.56211 0.88588 0.0
H2119 H 0.01693 0.57411 0.86385 0.0
H2120 H 0.91124 0.4188 0.86496 0.0
H2121 H 0.91029 0.43009 0.84225 0.0
H2122 H 0.94585 0.42296 0.88404 0.0
H2123 H 0.97166 0.45045 0.9001 0.0
C2124 C 0.55226 0.49778 0.85548 0.0
C2125 C 0.52658 0.47646 0.84404 0.0
C2126 C 0.48939 0.46531 0.86959 0.0
C2127 C 0.51375 0.49094 0.87945 0.0
N2128 N 0.56859 0.53199 0.88227 0.0
N2129 N 0.46974 0.44172 0.83963 0.0
C2130 C 0.54541 0.50711 0.87264 0.0
C2131 C 0.4949 0.46021 0.85102 0.0
N2132 N 0.58309 0.50865 0.85001 0.0
N2133 N 0.46087 0.44608 0.87794 0.0
H2134 H 0.47229 0.43818 0.8257 0.0
H2135 H 0.44594 0.43208 0.84356 0.0
H2136 H 0.456 0.44952 0.8915 0.0
H2137 H 0.44342 0.42513 0.87211 0.0
H2138 H 0.60287 0.52216 0.85841 0.0
H2139 H 0.5888 0.50164 0.83768 0.0
H2140 H 0.59117 0.54709 0.87698 0.0
H2141 H 0.56461 0.53847 0.89528 0.0
C2142 C 0.50266 0.01339 0.84706 0.0
C2143 C 0.52391 0.04594 0.84531 0.0
C2144 C 0.53603 0.04971 0.87855 0.0
C2145 C 0.51504 0.01702 0.88012 0.0
N2146 N 0.47083 0.97028 0.86754 0.0
N2147 N 0.5542 0.09631 0.85987 0.0
C2148 C 0.49577 -0.00021 0.86488 0.0
C2149 C 0.5384 0.06455 0.86127 0.0
N2150 N 0.49044 0.99509 0.83164 0.0
N2151 N 0.5548 0.06626 0.89323 0.0
H2152 H 0.55645 0.10767 0.84737 0.0
H2153 H 0.5626 0.1113 0.87123 0.0
H2154 H 0.55327 0.05633 0.90612 0.0
H2155 H 0.57305 0.08939 0.89239 0.0
H2156 H 0.47793 0.97081 0.83204 0.0
H2157 H 0.49497 0.00393 0.81826 0.0
H2158 H 0.45407 0.95746 0.85732 0.0
H2159 H 0.46505 0.95998 0.88057 0.0
C2160 C 0.12492 0.26519 0.48281 0.0
C2161 C 0.14448 0.28245 0.49804 0.0
C2162 C 0.17475 0.32731 0.47773 0.0
C2163 C 0.15153 0.31229 0.4636 0.0
N2164 N 0.10381 0.26662 0.45256 0.0
N2165 N 0.18678 0.33109 0.51042 0.0
C2166 C 0.12667 0.28089 0.46596 0.0
C2167 C 0.16938 0.3137 0.49556 0.0
N2168 N 0.10487 0.23378 0.48449 0.0
N2169 N 0.20211 0.35462 0.47398 0.0
H2170 H 0.18369 0.3222 0.52376 0.0
H2171 H 0.20255 0.35502 0.5098 0.0
H2172 H 0.20687 0.36485 0.46093 0.0
H2173 H 0.22136 0.3653 0.48314 0.0
H2174 H 0.09224 0.21922 0.47345 0.0
H2175 H 0.10311 0.22181 0.49667 0.0
H2176 H 0.0832 0.24509 0.45427 0.0
H2177 H 0.10442 0.27716 0.44001 0.0
C2178 C 0.69105 0.86587 0.49184 0.0
C2179 C 0.70824 0.85234 0.49976 0.0
C2180 C 0.70006 0.82156 0.47163 0.0
C2181 C 0.68214 0.83445 0.46407 0.0
N2182 N 0.6698 0.87587 0.46393 0.0
N2183 N 0.7371 0.82474 0.49546 0.0
C2184 C 0.68099 0.85918 0.47314 0.0
C2185 C 0.71544 0.83261 0.48902 0.0
N2186 N 0.68208 0.88305 0.50246 0.0
N2187 N 0.70132 0.79802 0.46249 0.0
H2188 H 0.74913 0.83303 0.50803 0.0
H2189 H 0.74535 0.8125 0.48768 0.0
H2190 H 0.6916 0.79057 0.4493 0.0
H2191 H 0.71068 0.78501 0.46825 0.0
H2192 H 0.66656 0.89049 0.49782 0.0
H2193 H 0.68777 0.8877 0.51642 0.0
H2194 H 0.67139 0.89621 0.4692 0.0
H2195 H 0.66192 0.87115 0.45024 0.0
C2196 C 0.15664 0.86742 0.48623 0.0
C2197 C 0.1344 0.84358 0.49806 0.0
C2198 C 0.12153 0.80537 0.47322 0.0
C2199 C 0.14811 0.82762 0.46311 0.0
N2200 N 0.19192 0.88022 0.45987 0.0
N2201 N 0.09928 0.78842 0.50351 0.0
C2202 C 0.16579 0.85894 0.46946 0.0
C2203 C 0.11742 0.81218 0.49167 0.0
N2204 N 0.1685 0.89804 0.49089 0.0
N2205 N 0.10027 0.77759 0.46516 0.0
H2206 H 0.09714 0.79177 0.51753 0.0
H2207 H 0.08911 0.76498 0.49983 0.0
H2208 H 0.10259 0.7721 0.45153 0.0
H2209 H 0.07874 0.76168 0.4713 0.0
H2210 H 0.18263 0.91644 0.48211 0.0
H2211 H 0.16163 0.90494 0.50284 0.0
H2212 H 0.20786 0.90246 0.46489 0.0
H2213 H 0.19871 0.87495 0.44732 0.0
C2214 C 0.61829 0.79566 0.19115 0.0
C2215 C 0.62842 0.81935 0.1776 0.0
C2216 C 0.66278 0.85796 0.20062 0.0
C2217 C 0.65835 0.8336 0.21257 0.0
N2218 N 0.63211 0.77843 0.2192 0.0
N2219 N 0.66391 0.87312 0.16894 0.0
C2220 C 0.63573 0.80215 0.20802 0.0
C2221 C 0.65127 0.85067 0.18224 0.0
N2222 N 0.59201 0.76712 0.18786 0.0
N2223 N 0.67806 0.88807 0.20687 0.0
H2224 H 0.65765 0.86881 0.15502 0.0
H2225 H 0.68305 0.89546 0.17146 0.0
H2226 H 0.68629 0.89398 0.22046 0.0
H2227 H 0.67932 0.90645 0.19922 0.0
H2228 H 0.58174 0.7498 0.19785 0.0
H2229 H 0.57861 0.76194 0.17569 0.0
H2230 H 0.61849 0.75498 0.21553 0.0
H2231 H 0.6445 0.78212 0.23162 0.0
C2232 C 0.15841 0.7936 0.18433 0.0
C2233 C 0.1906 0.80814 0.17819 0.0
C2234 C 0.20889 0.83765 0.20722 0.0
C2235 C 0.17665 0.82357 0.21301 0.0
N2236 N 0.12263 0.78106 0.21032 0.0
N2237 N 0.24684 0.83681 0.18564 0.0
C2238 C 0.15207 0.799 0.20265 0.0
C2239 C 0.21603 0.82785 0.19029 0.0
N2240 N 0.1337 0.77657 0.17234 0.0
N2241 N 0.23243 0.86102 0.21758 0.0
H2242 H 0.25262 0.82946 0.17346 0.0
H2243 H 0.26627 0.84903 0.1945 0.0
H2244 H 0.22806 0.86763 0.23046 0.0
H2245 H 0.25587 0.87476 0.2131 0.0
H2246 H 0.10984 0.76837 0.17563 0.0
H2247 H 0.13692 0.77289 0.15853 0.0
H2248 H 0.10468 0.76075 0.20414 0.0
H2249 H 0.11733 0.78471 0.22374 0.0
C2250 C 0.16089 0.36074 0.18363 0.0
C2251 C 0.19244 0.38382 0.17869 0.0
C2252 C 0.21259 0.37749 0.2086 0.0
C2253 C 0.18106 0.35438 0.21335 0.0
N2254 N 0.12449 0.33154 0.20832 0.0
N2255 N 0.24652 0.42013 0.1882 0.0
C2256 C 0.15496 0.34869 0.20184 0.0
C2257 C 0.21777 0.39417 0.19179 0.0
N2258 N 0.13701 0.34857 0.17065 0.0
N2259 N 0.23763 0.3826 0.21978 0.0
H2260 H 0.25077 0.43303 0.17611 0.0
H2261 H 0.26506 0.43049 0.19782 0.0
H2262 H 0.23446 0.37161 0.2325 0.0
H2263 H 0.26149 0.39643 0.21605 0.0
H2264 H 0.11453 0.32936 0.1731 0.0
H2265 H 0.14032 0.35565 0.15692 0.0
H2266 H 0.10457 0.32919 0.20124 0.0
H2267 H 0.11953 0.3224 0.22165 0.0
C2268 C 0.81313 0.60483 0.81691 0.0
C2269 C 0.80109 0.61503 0.83161 0.0
C2270 C 0.7986 0.65259 0.81066 0.0
C2271 C 0.81671 0.64706 0.79739 0.0
N2272 N 0.84336 0.61872 0.78846 0.0
N2273 N 0.78735 0.65281 0.84306 0.0
C2274 C 0.82425 0.62308 0.80053 0.0
C2275 C 0.79482 0.63984 0.82861 0.0
N2276 N 0.81349 0.57752 0.81851 0.0
N2277 N 0.7848 0.66994 0.80605 0.0
H2278 H 0.78603 0.64557 0.85669 0.0
H2279 H 0.7858 0.67297 0.84176 0.0
H2280 H 0.78647 0.67895 0.79282 0.0
H2281 H 0.76891 0.67232 0.81468 0.0
H2282 H 0.81909 0.56735 0.8076 0.0
H2283 H 0.80507 0.56346 0.8302 0.0
H2284 H 0.85232 0.60384 0.79109 0.0
H2285 H 0.85237 0.63174 0.77646 0.0
C2286 C 0.38725 0.17863 0.819 0.0
C2287 C 0.37193 0.18785 0.83224 0.0
C2288 C 0.33458 0.18555 0.80859 0.0
C2289 C 0.34558 0.17041 0.79662 0.0
N2290 N 0.38297 0.1531 0.78957 0.0
N2291 N 0.32902 0.19755 0.8402 0.0
C2292 C 0.3725 0.16755 0.80144 0.0
C2293 C 0.3454 0.19122 0.82713 0.0
N2294 N 0.4158 0.1806 0.8233 0.0
N2295 N 0.31348 0.19416 0.80218 0.0
H2296 H 0.33542 0.20109 0.85412 0.0
H2297 H 0.30736 0.19664 0.83752 0.0
H2298 H 0.30522 0.19022 0.78854 0.0
H2299 H 0.30686 0.20794 0.80975 0.0
H2300 H 0.42958 0.17672 0.8138 0.0
H2301 H 0.42708 0.18877 0.83607 0.0
H2302 H 0.40018 0.14714 0.79304 0.0
H2303 H 0.37332 0.14577 0.77637 0.0
C2304 C 0.81558 0.20137 0.81914 0.0
C2305 C 0.8006 0.17692 0.83217 0.0
C2306 C 0.79851 0.13992 0.80899 0.0
C2307 C 0.81945 0.16507 0.79764 0.0
N2308 N 0.84999 0.22071 0.79244 0.0
N2309 N 0.78209 0.12311 0.84023 0.0
C2310 C 0.82824 0.19613 0.80268 0.0
C2311 C 0.79278 0.1461 0.82725 0.0
N2312 N 0.81754 0.22945 0.82249 0.0
N2313 N 0.78409 0.1101 0.80229 0.0
H2314 H 0.77903 0.12669 0.85408 0.0
H2315 H 0.77936 0.1012 0.83761 0.0
H2316 H 0.78736 0.10492 0.78876 0.0
H2317 H 0.76635 0.09114 0.80946 0.0
H2318 H 0.82558 0.2472 0.81275 0.0
H2319 H 0.80807 0.23376 0.83433 0.0
H2320 H 0.85973 0.24386 0.79663 0.0
H2321 H 0.8603 0.21804 0.78047 0.0
C2322 C 0.3331 0.15947 0.51557 0.0
C2323 C 0.29976 0.14427 0.51189 0.0
C2324 C 0.28929 0.1499 0.54438 0.0
C2325 C 0.32276 0.16641 0.54774 0.0
N2326 N 0.37509 0.17714 0.53873 0.0
N2327 N 0.24579 0.11756 0.5232 0.0
C2328 C 0.34414 0.16774 0.53402 0.0
C2329 C 0.27768 0.13688 0.52651 0.0
N2330 N 0.35432 0.16776 0.50135 0.0
N2331 N 0.26884 0.1481 0.55794 0.0
H2332 H 0.23683 0.10801 0.51018 0.0
H2333 H 0.22859 0.10894 0.53352 0.0
H2334 H 0.27656 0.15652 0.57129 0.0
H2335 H 0.24451 0.13946 0.55583 0.0
H2336 H 0.37888 0.18225 0.50303 0.0
H2337 H 0.34731 0.16206 0.48758 0.0
H2338 H 0.39124 0.17599 0.52972 0.0
H2339 H 0.38352 0.18303 0.55228 0.0
C2340 C 0.87391 0.18267 0.51569 0.0
C2341 C 0.86475 0.15134 0.51113 0.0
C2342 C 0.83891 0.13431 0.54135 0.0
C2343 C 0.84897 0.16583 0.54594 0.0
N2344 N 0.88533 0.2202 0.54019 0.0
N2345 N 0.84646 0.09887 0.52152 0.0
C2346 C 0.86968 0.19006 0.534 0.0
C2347 C 0.8498 0.1276 0.52461 0.0
N2348 N 0.88452 0.20507 0.50235 0.0
N2349 N 0.81784 0.11074 0.55243 0.0
H2350 H 0.85471 0.09349 0.50955 0.0
H2351 H 0.83843 0.08151 0.53151 0.0
H2352 H 0.80944 0.11468 0.5648 0.0
H2353 H 0.80699 0.08727 0.54871 0.0
H2354 H 0.88833 0.22745 0.50476 0.0
H2355 H 0.88633 0.20061 0.48847 0.0
H2356 H 0.90306 0.23849 0.5326 0.0
H2357 H 0.88307 0.22625 0.5537 0.0
C2358 C 0.82688 0.69085 0.51454 0.0
C2359 C 0.85767 0.71632 0.5104 0.0
C2360 C 0.87706 0.71186 0.54105 0.0
C2361 C 0.84613 0.68676 0.54514 0.0
N2362 N 0.78982 0.65876 0.53827 0.0
N2363 N 0.90955 0.75602 0.52127 0.0
C2364 C 0.82044 0.6785 0.53269 0.0
C2365 C 0.88201 0.72843 0.52419 0.0
N2366 N 0.8044 0.677 0.50089 0.0
N2367 N 0.90191 0.71905 0.55291 0.0
H2368 H 0.91364 0.76887 0.50918 0.0
H2369 H 0.92697 0.76756 0.5314 0.0
H2370 H 0.89891 0.70802 0.56561 0.0
H2371 H 0.9257 0.7346 0.54973 0.0
H2372 H 0.7829 0.6563 0.50275 0.0
H2373 H 0.80826 0.68442 0.48721 0.0
H2374 H 0.7698 0.6543 0.53045 0.0
H2375 H 0.78441 0.64937 0.55153 0.0
loop_
_geom_bond_atom_site_label_1
_geom_bond_atom_site_label_2
_geom_bond_distance
_geom_bond_site_symmetry_2
_ccdc_geom_bond_type
C0 C1 1.384 . S
C0 H13 0.947 . S
C0 C35 1.382 . S
C1 C0 1.384 . S
C1 C2 1.378 . S
C2 C1 1.378 . S
C2 C3 1.378 . S
C2 H14 0.952 . S
C3 C2 1.378 . S
C3 H15 0.950 . S
C3 C34 1.383 . S
H4 C23 0.947 . S
H5 C24 0.946 . S
H6 C26 0.953 . S
H7 C27 0.945 . S
H8 C29 0.952 . S
H9 C30 0.949 . S
H10 C32 0.950 . S
H11 C33 0.948 . S
H12 C35 0.951 . S
H13 C0 0.947 . S
H14 C2 0.952 . S
H15 C3 0.950 . S
N16 C19 1.382 . S
N16 C21 1.363 . S
N17 C19 1.371 . S
N17 C20 1.372 . S
N18 C20 1.361 . S
N18 C21 1.377 . S
C19 N16 1.382 . S
C19 N17 1.371 . S
C19 C22 1.480 . S
C20 N17 1.372 . S
C20 N18 1.361 . S
C20 C28 1.457 . S
C21 N16 1.363 . S
C21 N18 1.377 . S
C21 C34 1.479 . S
C22 C19 1.480 . S
C22 C23 1.383 . S
C22 C27 1.385 . S
C23 H4 0.947 . S
C23 C22 1.383 . S
C23 C24 1.388 . S
C24 H5 0.946 . S
C24 C23 1.388 . S
C24 C25 1.384 . S
C25 C24 1.384 . S
C25 C26 1.377 . S
C26 H6 0.953 . S
C26 C25 1.377 . S
C26 C27 1.369 . S
C27 H7 0.945 . S
C27 C22 1.385 . S
C27 C26 1.369 . S
C28 C20 1.457 . S
C28 C29 1.372 . S
C28 C33 1.364 . S
C29 H8 0.952 . S
C29 C28 1.372 . S
C29 C30 1.389 . S
C30 H9 0.949 . S
C30 C29 1.389 . S
C30 C31 1.387 . S
C31 C30 1.387 . S
C31 C32 1.372 . S
C32 H10 0.950 . S
C32 C31 1.372 . S
C32 C33 1.379 . S
C33 H11 0.948 . S
C33 C28 1.364 . S
C33 C32 1.379 . S
C34 C3 1.383 . S
C34 C21 1.479 . S
C34 C35 1.398 . S
C35 C0 1.382 . S
C35 H12 0.951 . S
C35 C34 1.398 . S
C36 C37 1.384 . S
C36 H49 0.947 1_655 S
C36 C71 1.382 . S
C37 C36 1.384 . S
C37 C38 1.378 . S
C38 C37 1.378 . S
C38 C39 1.378 . S
C38 H50 0.952 . S
C39 C38 1.378 . S
C39 H51 0.950 . S
C39 C70 1.383 . S
H40 C59 0.947 . S
H41 C60 0.946 . S
H42 C62 0.953 . S
H43 C63 0.945 . S
H44 C65 0.952 . S
H45 C66 0.949 . S
H46 C68 0.950 . S
H47 C69 0.948 . S
H48 C71 0.951 . S
H49 C36 0.947 1_455 S
H50 C38 0.952 . S
H51 C39 0.950 . S
N52 C55 1.382 . S
N52 C57 1.363 . S
N53 C55 1.371 . S
N53 C56 1.372 . S
N54 C56 1.361 . S
N54 C57 1.377 . S
C55 N52 1.382 . S
C55 N53 1.371 . S
C55 C58 1.480 . S
C56 N53 1.372 . S
C56 N54 1.361 . S
C56 C64 1.457 . S
C57 N52 1.363 . S
C57 N54 1.377 . S
C57 C70 1.479 . S
C58 C55 1.480 . S
C58 C59 1.383 . S
C58 C63 1.385 . S
C59 H40 0.947 . S
C59 C58 1.383 . S
C59 C60 1.388 . S
C60 H41 0.946 . S
C60 C59 1.388 . S
C60 C61 1.384 . S
C61 C60 1.384 . S
C61 C62 1.377 . S
C62 H42 0.953 . S
C62 C61 1.377 . S
C62 C63 1.369 . S
C63 H43 0.945 . S
C63 C58 1.385 . S
C63 C62 1.369 . S
C64 C56 1.457 . S
C64 C65 1.372 . S
C64 C69 1.364 . S
C65 H44 0.952 . S
C65 C64 1.372 . S
C65 C66 1.389 . S
C66 H45 0.949 . S
C66 C65 1.389 . S
C66 C67 1.387 . S
C67 C66 1.387 . S
C67 C68 1.372 . S
C68 H46 0.950 . S
C68 C67 1.372 . S
C68 C69 1.379 . S
C69 H47 0.948 . S
C69 C64 1.364 . S
C69 C68 1.379 . S
C70 C39 1.383 . S
C70 C57 1.479 . S
C70 C71 1.398 . S
C71 C36 1.382 . S
C71 H48 0.951 . S
C71 C70 1.398 . S
C72 C73 1.384 . S
C72 H85 0.947 . S
C72 C107 1.382 . S
C73 C72 1.384 . S
C73 C74 1.378 . S
C74 C73 1.378 . S
C74 C75 1.378 . S
C74 H86 0.952 . S
C75 C74 1.378 . S
C75 H87 0.950 . S
C75 C106 1.383 . S
H76 C95 0.947 . S
H77 C96 0.946 . S
H78 C98 0.953 1_455 S
H79 C99 0.945 . S
H80 C101 0.952 . S
H81 C102 0.949 . S
H82 C104 0.950 . S
H83 C105 0.948 . S
H84 C107 0.951 . S
H85 C72 0.947 . S
H86 C74 0.952 . S
H87 C75 0.950 . S
N88 C91 1.382 . S
N88 C93 1.363 . S
N89 C91 1.371 . S
N89 C92 1.372 . S
N90 C92 1.361 . S
N90 C93 1.377 . S
C91 N88 1.382 . S
C91 N89 1.371 . S
C91 C94 1.480 . S
C92 N89 1.372 . S
C92 N90 1.361 . S
C92 C100 1.457 . S
C93 N88 1.363 . S
C93 N90 1.377 . S
C93 C106 1.479 . S
C94 C91 1.480 . S
C94 C95 1.383 . S
C94 C99 1.385 . S
C95 H76 0.947 . S
C95 C94 1.383 . S
C95 C96 1.388 . S
C96 H77 0.946 . S
C96 C95 1.388 . S
C96 C97 1.384 . S
C97 C96 1.384 . S
C97 C98 1.377 . S
C98 H78 0.953 1_655 S
C98 C97 1.377 . S
C98 C99 1.369 . S
C99 H79 0.945 . S
C99 C94 1.385 . S
C99 C98 1.369 . S
C100 C92 1.457 . S
C100 C101 1.372 . S
C100 C105 1.364 . S
C101 H80 0.952 . S
C101 C100 1.372 . S
C101 C102 1.389 . S
C102 H81 0.949 . S
C102 C101 1.389 . S
C102 C103 1.387 . S
C103 C102 1.387 . S
C103 C104 1.372 . S
C104 H82 0.950 . S
C104 C103 1.372 . S
C104 C105 1.379 . S
C105 H83 0.948 . S
C105 C100 1.364 . S
C105 C104 1.379 . S
C106 C75 1.383 . S
C106 C93 1.479 . S
C106 C107 1.398 . S
C107 C72 1.382 . S
C107 H84 0.951 . S
C107 C106 1.398 . S
C108 C109 1.384 . S
C108 H121 0.947 1_455 S
C108 C143 1.382 . S
C109 C108 1.384 . S
C109 C110 1.378 . S
C110 C109 1.378 . S
C110 C111 1.378 . S
C110 H122 0.952 . S
C111 C110 1.378 . S
C111 H123 0.950 . S
C111 C142 1.383 . S
H112 C131 0.947 . S
H113 C132 0.946 . S
H114 C134 0.953 . S
H115 C135 0.945 . S
H116 C137 0.952 . S
H117 C138 0.949 . S
H118 C140 0.950 . S
H119 C141 0.948 . S
H120 C143 0.951 . S
H121 C108 0.947 1_655 S
H122 C110 0.952 . S
H123 C111 0.950 . S
N124 C127 1.382 . S
N124 C129 1.363 . S
N125 C127 1.371 . S
N125 C128 1.372 . S
N126 C128 1.361 . S
N126 C129 1.377 . S
C127 N124 1.382 . S
C127 N125 1.371 . S
C127 C130 1.480 . S
C128 N125 1.372 . S
C128 N126 1.361 . S
C128 C136 1.457 . S
C129 N124 1.363 . S
C129 N126 1.377 . S
C129 C142 1.479 . S
C130 C127 1.480 . S
C130 C131 1.383 . S
C130 C135 1.385 . S
C131 H112 0.947 . S
C131 C130 1.383 . S
C131 C132 1.388 . S
C132 H113 0.946 . S
C132 C131 1.388 . S
C132 C133 1.384 . S
C133 C132 1.384 . S
C133 C134 1.377 . S
C134 H114 0.953 . S
C134 C133 1.377 . S
C134 C135 1.369 . S
C135 H115 0.945 . S
C135 C130 1.385 . S
C135 C134 1.369 . S
C136 C128 1.457 . S
C136 C137 1.372 . S
C136 C141 1.364 . S
C137 H116 0.952 . S
C137 C136 1.372 . S
C137 C138 1.389 . S
C138 H117 0.949 . S
C138 C137 1.389 . S
C138 C139 1.387 . S
C139 C138 1.387 . S
C139 C140 1.372 . S
C140 H118 0.950 . S
C140 C139 1.372 . S
C140 C141 1.379 . S
C141 H119 0.948 . S
C141 C136 1.364 . S
C141 C140 1.379 . S
C142 C111 1.383 . S
C142 C129 1.479 . S
C142 C143 1.398 . S
C143 C108 1.382 . S
C143 H120 0.951 . S
C143 C142 1.398 . S
C144 C145 1.384 . S
C144 H157 0.947 . S
C144 C179 1.382 . S
C145 C144 1.384 . S
C145 C146 1.378 . S
C146 C145 1.378 . S
C146 C147 1.378 . S
C146 H158 0.952 . S
C147 C146 1.378 . S
C147 H159 0.950 . S
C147 C178 1.383 . S
H148 C167 0.947 . S
H149 C168 0.946 . S
H150 C170 0.953 . S
H151 C171 0.945 . S
H152 C173 0.952 . S
H153 C174 0.949 . S
H154 C176 0.950 . S
H155 C177 0.948 . S
H156 C179 0.951 . S
H157 C144 0.947 . S
H158 C146 0.952 . S
H159 C147 0.950 . S
N160 C163 1.382 . S
N160 C165 1.363 . S
N161 C163 1.371 . S
N161 C164 1.372 . S
N162 C164 1.361 . S
N162 C165 1.377 . S
C163 N160 1.382 . S
C163 N161 1.371 . S
C163 C166 1.480 . S
C164 N161 1.372 . S
C164 N162 1.361 . S
C164 C172 1.457 . S
C165 N160 1.363 . S
C165 N162 1.377 . S
C165 C178 1.479 . S
C166 C163 1.480 . S
C166 C167 1.383 . S
C166 C171 1.385 . S
C167 H148 0.947 . S
C167 C166 1.383 . S
C167 C168 1.388 . S
C168 H149 0.946 . S
C168 C167 1.388 . S
C168 C169 1.384 . S
C169 C168 1.384 . S
C169 C170 1.377 . S
C170 H150 0.953 . S
C170 C169 1.377 . S
C170 C171 1.369 . S
C171 H151 0.945 . S
C171 C166 1.385 . S
C171 C170 1.369 . S
C172 C164 1.457 . S
C172 C173 1.372 . S
C172 C177 1.364 . S
C173 H152 0.952 . S
C173 C172 1.372 . S
C173 C174 1.389 . S
C174 H153 0.949 . S
C174 C173 1.389 . S
C174 C175 1.387 . S
C175 C174 1.387 . S
C175 C176 1.372 . S
C176 H154 0.950 . S
C176 C175 1.372 . S
C176 C177 1.379 . S
C177 H155 0.948 . S
C177 C172 1.364 . S
C177 C176 1.379 . S
C178 C147 1.383 . S
C178 C165 1.479 . S
C178 C179 1.398 . S
C179 C144 1.382 . S
C179 H156 0.951 . S
C179 C178 1.398 . S
C180 C181 1.384 . S
C180 H193 0.947 . S
C180 C215 1.382 . S
C181 C180 1.384 . S
C181 C182 1.378 . S
C182 C181 1.378 . S
C182 C183 1.378 . S
C182 H194 0.952 . S
C183 C182 1.378 . S
C183 H195 0.950 . S
C183 C214 1.383 . S
H184 C203 0.947 . S
H185 C204 0.946 . S
H186 C206 0.953 . S
H187 C207 0.945 . S
H188 C209 0.952 . S
H189 C210 0.949 . S
H190 C212 0.950 . S
H191 C213 0.948 . S
H192 C215 0.951 . S
H193 C180 0.947 . S
H194 C182 0.952 . S
H195 C183 0.950 . S
N196 C199 1.382 . S
N196 C201 1.363 . S
N197 C199 1.371 . S
N197 C200 1.372 . S
N198 C200 1.361 . S
N198 C201 1.377 . S
C199 N196 1.382 . S
C199 N197 1.371 . S
C199 C202 1.480 . S
C200 N197 1.372 . S
C200 N198 1.361 . S
C200 C208 1.457 . S
C201 N196 1.363 . S
C201 N198 1.377 . S
C201 C214 1.479 . S
C202 C199 1.480 . S
C202 C203 1.383 . S
C202 C207 1.385 . S
C203 H184 0.947 . S
C203 C202 1.383 . S
C203 C204 1.388 . S
C204 H185 0.946 . S
C204 C203 1.388 . S
C204 C205 1.384 . S
C205 C204 1.384 . S
C205 C206 1.377 . S
C206 H186 0.953 . S
C206 C205 1.377 . S
C206 C207 1.369 . S
C207 H187 0.945 . S
C207 C202 1.385 . S
C207 C206 1.369 . S
C208 C200 1.457 . S
C208 C209 1.372 . S
C208 C213 1.364 . S
C209 H188 0.952 . S
C209 C208 1.372 . S
C209 C210 1.389 . S
C210 H189 0.949 . S
C210 C209 1.389 . S
C210 C211 1.387 . S
C211 C210 1.387 . S
C211 C212 1.372 . S
C212 H190 0.950 . S
C212 C211 1.372 . S
C212 C213 1.379 . S
C213 H191 0.948 . S
C213 C208 1.364 . S
C213 C212 1.379 . S
C214 C183 1.383 . S
C214 C201 1.479 . S
C214 C215 1.398 . S
C215 C180 1.382 . S
C215 H192 0.951 . S
C215 C214 1.398 . S
C216 C217 1.384 . S
C216 H229 0.947 . S
C216 C251 1.382 . S
C217 C216 1.384 . S
C217 C218 1.378 . S
C218 C217 1.378 . S
C218 C219 1.378 . S
C218 H230 0.952 . S
C219 C218 1.378 . S
C219 H231 0.950 . S
C219 C250 1.383 . S
H220 C239 0.947 . S
H221 C240 0.946 . S
H222 C242 0.953 . S
H223 C243 0.945 . S
H224 C245 0.952 . S
H225 C246 0.949 . S
H226 C248 0.950 . S
H227 C249 0.948 . S
H228 C251 0.951 . S
H229 C216 0.947 . S
H230 C218 0.952 . S
H231 C219 0.950 . S
N232 C235 1.382 . S
N232 C237 1.363 . S
N233 C235 1.371 . S
N233 C236 1.372 . S
N234 C236 1.361 . S
N234 C237 1.377 . S
C235 N232 1.382 . S
C235 N233 1.371 . S
C235 C238 1.480 . S
C236 N233 1.372 . S
C236 N234 1.361 . S
C236 C244 1.457 . S
C237 N232 1.363 . S
C237 N234 1.377 . S
C237 C250 1.479 . S
C238 C235 1.480 . S
C238 C239 1.383 . S
C238 C243 1.385 . S
C239 H220 0.947 . S
C239 C238 1.383 . S
C239 C240 1.388 . S
C240 H221 0.946 . S
C240 C239 1.388 . S
C240 C241 1.384 . S
C241 C240 1.384 . S
C241 C242 1.377 . S
C242 H222 0.953 . S
C242 C241 1.377 . S
C242 C243 1.369 . S
C243 H223 0.945 . S
C243 C238 1.385 . S
C243 C242 1.369 . S
C244 C236 1.457 . S
C244 C245 1.372 . S
C244 C249 1.364 . S
C245 H224 0.952 . S
C245 C244 1.372 . S
C245 C246 1.389 . S
C246 H225 0.949 . S
C246 C245 1.389 . S
C246 C247 1.387 . S
C247 C246 1.387 . S
C247 C248 1.372 . S
C248 H226 0.950 . S
C248 C247 1.372 . S
C248 C249 1.379 . S
C249 H227 0.948 . S
C249 C244 1.364 . S
C249 C248 1.379 . S
C250 C219 1.383 . S
C250 C237 1.479 . S
C250 C251 1.398 . S
C251 C216 1.382 . S
C251 H228 0.951 . S
C251 C250 1.398 . S
C252 C253 1.384 . S
C252 H265 0.947 . S
C252 C287 1.382 . S
C253 C252 1.384 . S
C253 C254 1.378 . S
C254 C253 1.378 . S
C254 C255 1.378 . S
C254 H266 0.952 . S
C255 C254 1.378 . S
C255 H267 0.950 . S
C255 C286 1.383 . S
H256 C275 0.947 . S
H257 C276 0.946 . S
H258 C278 0.953 . S
H259 C279 0.945 . S
H260 C281 0.952 . S
H261 C282 0.949 . S
H262 C284 0.950 . S
H263 C285 0.948 . S
H264 C287 0.951 . S
H265 C252 0.947 . S
H266 C254 0.952 . S
H267 C255 0.950 . S
N268 C271 1.382 . S
N268 C273 1.363 . S
N269 C271 1.371 . S
N269 C272 1.372 . S
N270 C272 1.361 . S
N270 C273 1.377 . S
C271 N268 1.382 . S
C271 N269 1.371 . S
C271 C274 1.480 . S
C272 N269 1.372 . S
C272 N270 1.361 . S
C272 C280 1.457 . S
C273 N268 1.363 . S
C273 N270 1.377 . S
C273 C286 1.479 . S
C274 C271 1.480 . S
C274 C275 1.383 . S
C274 C279 1.385 . S
C275 H256 0.947 . S
C275 C274 1.383 . S
C275 C276 1.388 . S
C276 H257 0.946 . S
C276 C275 1.388 . S
C276 C277 1.384 . S
C277 C276 1.384 . S
C277 C278 1.377 . S
C278 H258 0.953 . S
C278 C277 1.377 . S
C278 C279 1.369 . S
C279 H259 0.945 . S
C279 C274 1.385 . S
C279 C278 1.369 . S
C280 C272 1.457 . S
C280 C281 1.372 . S
C280 C285 1.364 . S
C281 H260 0.952 . S
C281 C280 1.372 . S
C281 C282 1.389 . S
C282 H261 0.949 . S
C282 C281 1.389 . S
C282 C283 1.387 . S
C283 C282 1.387 . S
C283 C284 1.372 . S
C284 H262 0.950 . S
C284 C283 1.372 . S
C284 C285 1.379 . S
C285 H263 0.948 . S
C285 C280 1.364 . S
C285 C284 1.379 . S
C286 C255 1.383 . S
C286 C273 1.479 . S
C286 C287 1.398 . S
C287 C252 1.382 . S
C287 H264 0.951 . S
C287 C286 1.398 . S
C288 C289 1.384 . S
C288 H301 0.947 . S
C288 C323 1.382 . S
C289 C288 1.384 . S
C289 C290 1.378 . S
C290 C289 1.378 . S
C290 C291 1.378 . S
C290 H302 0.952 . S
C291 C290 1.378 . S
C291 H303 0.950 . S
C291 C322 1.383 . S
H292 C311 0.947 . S
H293 C312 0.946 . S
H294 C314 0.953 . S
H295 C315 0.945 . S
H296 C317 0.952 . S
H297 C318 0.949 . S
H298 C320 0.950 . S
H299 C321 0.948 . S
H300 C323 0.951 . S
H301 C288 0.947 . S
H302 C290 0.952 . S
H303 C291 0.950 . S
N304 C307 1.382 . S
N304 C309 1.363 . S
N305 C307 1.371 . S
N305 C308 1.372 . S
N306 C308 1.361 . S
N306 C309 1.377 . S
C307 N304 1.382 . S
C307 N305 1.371 . S
C307 C310 1.480 . S
C308 N305 1.372 . S
C308 N306 1.361 . S
C308 C316 1.457 . S
C309 N304 1.363 . S
C309 N306 1.377 . S
C309 C322 1.479 . S
C310 C307 1.480 . S
C310 C311 1.383 . S
C310 C315 1.385 . S
C311 H292 0.947 . S
C311 C310 1.383 . S
C311 C312 1.388 . S
C312 H293 0.946 . S
C312 C311 1.388 . S
C312 C313 1.384 . S
C313 C312 1.384 . S
C313 C314 1.377 . S
C314 H294 0.953 . S
C314 C313 1.377 . S
C314 C315 1.369 . S
C315 H295 0.945 . S
C315 C310 1.385 . S
C315 C314 1.369 . S
C316 C308 1.457 . S
C316 C317 1.372 . S
C316 C321 1.364 . S
C317 H296 0.952 . S
C317 C316 1.372 . S
C317 C318 1.389 . S
C318 H297 0.949 . S
C318 C317 1.389 . S
C318 C319 1.387 . S
C319 C318 1.387 . S
C319 C320 1.372 . S
C320 H298 0.950 . S
C320 C319 1.372 . S
C320 C321 1.379 . S
C321 H299 0.948 . S
C321 C316 1.364 . S
C321 C320 1.379 . S
C322 C291 1.383 . S
C322 C309 1.479 . S
C322 C323 1.398 . S
C323 C288 1.382 . S
C323 H300 0.951 . S
C323 C322 1.398 . S
C324 C325 1.384 . S
C324 H337 0.947 . S
C324 C359 1.382 . S
C325 C324 1.384 . S
C325 C326 1.378 . S
C326 C325 1.378 . S
C326 C327 1.378 . S
C326 H338 0.952 . S
C327 C326 1.378 . S
C327 H339 0.950 . S
C327 C358 1.383 . S
H328 C347 0.947 . S
H329 C348 0.946 . S
H330 C350 0.953 . S
H331 C351 0.945 . S
H332 C353 0.952 . S
H333 C354 0.949 . S
H334 C356 0.950 . S
H335 C357 0.948 . S
H336 C359 0.951 . S
H337 C324 0.947 . S
H338 C326 0.952 . S
H339 C327 0.950 . S
N340 C343 1.382 . S
N340 C345 1.363 . S
N341 C343 1.371 . S
N341 C344 1.372 . S
N342 C344 1.361 . S
N342 C345 1.377 . S
C343 N340 1.382 . S
C343 N341 1.371 . S
C343 C346 1.480 . S
C344 N341 1.372 . S
C344 N342 1.361 . S
C344 C352 1.457 . S
C345 N340 1.363 . S
C345 N342 1.377 . S
C345 C358 1.479 . S
C346 C343 1.480 . S
C346 C347 1.383 . S
C346 C351 1.385 . S
C347 H328 0.947 . S
C347 C346 1.383 . S
C347 C348 1.388 . S
C348 H329 0.946 . S
C348 C347 1.388 . S
C348 C349 1.384 . S
C349 C348 1.384 . S
C349 C350 1.377 . S
C350 H330 0.953 . S
C350 C349 1.377 . S
C350 C351 1.369 . S
C351 H331 0.945 . S
C351 C346 1.385 . S
C351 C350 1.369 . S
C352 C344 1.457 . S
C352 C353 1.372 . S
C352 C357 1.364 . S
C353 H332 0.952 . S
C353 C352 1.372 . S
C353 C354 1.389 . S
C354 H333 0.949 . S
C354 C353 1.389 . S
C354 C355 1.387 . S
C355 C354 1.387 . S
C355 C356 1.372 . S
C356 H334 0.950 . S
C356 C355 1.372 . S
C356 C357 1.379 . S
C357 H335 0.948 . S
C357 C352 1.364 . S
C357 C356 1.379 . S
C358 C327 1.383 . S
C358 C345 1.479 . S
C358 C359 1.398 . S
C359 C324 1.382 . S
C359 H336 0.951 . S
C359 C358 1.398 . S
C360 C361 1.384 . S
C360 H373 0.947 . S
C360 C395 1.382 . S
C361 C360 1.384 . S
C361 C362 1.378 . S
C362 C361 1.378 . S
C362 C363 1.378 . S
C362 H374 0.952 . S
C363 C362 1.378 . S
C363 H375 0.950 . S
C363 C394 1.383 . S
H364 C383 0.947 . S
H365 C384 0.946 . S
H366 C386 0.953 . S
H367 C387 0.945 . S
H368 C389 0.952 . S
H369 C390 0.949 . S
H370 C392 0.950 . S
H371 C393 0.948 . S
H372 C395 0.951 . S
H373 C360 0.947 . S
H374 C362 0.952 . S
H375 C363 0.950 . S
N376 C379 1.382 . S
N376 C381 1.363 . S
N377 C379 1.371 . S
N377 C380 1.372 . S
N378 C380 1.361 . S
N378 C381 1.377 . S
C379 N376 1.382 . S
C379 N377 1.371 . S
C379 C382 1.480 . S
C380 N377 1.372 . S
C380 N378 1.361 . S
C380 C388 1.457 . S
C381 N376 1.363 . S
C381 N378 1.377 . S
C381 C394 1.479 . S
C382 C379 1.480 . S
C382 C383 1.383 . S
C382 C387 1.385 . S
C383 H364 0.947 . S
C383 C382 1.383 . S
C383 C384 1.388 . S
C384 H365 0.946 . S
C384 C383 1.388 . S
C384 C385 1.384 . S
C385 C384 1.384 . S
C385 C386 1.377 . S
C386 H366 0.953 . S
C386 C385 1.377 . S
C386 C387 1.369 . S
C387 H367 0.945 . S
C387 C382 1.385 . S
C387 C386 1.369 . S
C388 C380 1.457 . S
C388 C389 1.372 . S
C388 C393 1.364 . S
C389 H368 0.952 . S
C389 C388 1.372 . S
C389 C390 1.389 . S
C390 H369 0.949 . S
C390 C389 1.389 . S
C390 C391 1.387 . S
C391 C390 1.387 . S
C391 C392 1.372 . S
C392 H370 0.950 . S
C392 C391 1.372 . S
C392 C393 1.379 . S
C393 H371 0.948 . S
C393 C388 1.364 . S
C393 C392 1.379 . S
C394 C363 1.383 . S
C394 C381 1.479 . S
C394 C395 1.398 . S
C395 C360 1.382 . S
C395 H372 0.951 . S
C395 C394 1.398 . S
C396 C397 1.384 . S
C396 H409 0.947 . S
C396 C431 1.382 . S
C397 C396 1.384 . S
C397 C398 1.378 . S
C398 C397 1.378 . S
C398 C399 1.378 . S
C398 H410 0.952 . S
C399 C398 1.378 . S
C399 H411 0.950 . S
C399 C430 1.383 . S
H400 C419 0.947 . S
H401 C420 0.946 . S
H402 C422 0.953 . S
H403 C423 0.945 . S
H404 C425 0.952 . S
H405 C426 0.949 . S
H406 C428 0.950 . S
H407 C429 0.948 . S
H408 C431 0.951 . S
H409 C396 0.947 . S
H410 C398 0.952 . S
H411 C399 0.950 . S
N412 C415 1.382 . S
N412 C417 1.363 . S
N413 C415 1.371 . S
N413 C416 1.372 . S
N414 C416 1.361 . S
N414 C417 1.377 . S
C415 N412 1.382 . S
C415 N413 1.371 . S
C415 C418 1.480 . S
C416 N413 1.372 . S
C416 N414 1.361 . S
C416 C424 1.457 . S
C417 N412 1.363 . S
C417 N414 1.377 . S
C417 C430 1.479 . S
C418 C415 1.480 . S
C418 C419 1.383 . S
C418 C423 1.385 . S
C419 H400 0.947 . S
C419 C418 1.383 . S
C419 C420 1.388 . S
C420 H401 0.946 . S
C420 C419 1.388 . S
C420 C421 1.384 . S
C421 C420 1.384 . S
C421 C422 1.377 . S
C422 H402 0.953 . S
C422 C421 1.377 . S
C422 C423 1.369 . S
C423 H403 0.945 . S
C423 C418 1.385 . S
C423 C422 1.369 . S
C424 C416 1.457 . S
C424 C425 1.372 . S
C424 C429 1.364 . S
C425 H404 0.952 . S
C425 C424 1.372 . S
C425 C426 1.389 . S
C426 H405 0.949 . S
C426 C425 1.389 . S
C426 C427 1.387 . S
C427 C426 1.387 . S
C427 C428 1.372 . S
C428 H406 0.950 . S
C428 C427 1.372 . S
C428 C429 1.379 . S
C429 H407 0.948 . S
C429 C424 1.364 . S
C429 C428 1.379 . S
C430 C399 1.383 . S
C430 C417 1.479 . S
C430 C431 1.398 . S
C431 C396 1.382 . S
C431 H408 0.951 . S
C431 C430 1.398 . S
C432 C433 1.384 . S
C432 H445 0.947 . S
C432 C467 1.382 . S
C433 C432 1.384 . S
C433 C434 1.378 . S
C434 C433 1.378 . S
C434 C435 1.378 . S
C434 H446 0.952 . S
C435 C434 1.378 . S
C435 H447 0.950 . S
C435 C466 1.383 . S
H436 C455 0.947 . S
H437 C456 0.946 . S
H438 C458 0.953 . S
H439 C459 0.945 . S
H440 C461 0.952 . S
H441 C462 0.949 . S
H442 C464 0.950 . S
H443 C465 0.948 . S
H444 C467 0.951 . S
H445 C432 0.947 . S
H446 C434 0.952 . S
H447 C435 0.950 . S
N448 C451 1.382 . S
N448 C453 1.363 . S
N449 C451 1.371 . S
N449 C452 1.372 . S
N450 C452 1.361 . S
N450 C453 1.377 . S
C451 N448 1.382 . S
C451 N449 1.371 . S
C451 C454 1.480 . S
C452 N449 1.372 . S
C452 N450 1.361 . S
C452 C460 1.457 . S
C453 N448 1.363 . S
C453 N450 1.377 . S
C453 C466 1.479 . S
C454 C451 1.480 . S
C454 C455 1.383 . S
C454 C459 1.385 . S
C455 H436 0.947 . S
C455 C454 1.383 . S
C455 C456 1.388 . S
C456 H437 0.946 . S
C456 C455 1.388 . S
C456 C457 1.384 . S
C457 C456 1.384 . S
C457 C458 1.377 . S
C458 H438 0.953 . S
C458 C457 1.377 . S
C458 C459 1.369 . S
C459 H439 0.945 . S
C459 C454 1.385 . S
C459 C458 1.369 . S
C460 C452 1.457 . S
C460 C461 1.372 . S
C460 C465 1.364 . S
C461 H440 0.952 . S
C461 C460 1.372 . S
C461 C462 1.389 . S
C462 H441 0.949 . S
C462 C461 1.389 . S
C462 C463 1.387 . S
C463 C462 1.387 . S
C463 C464 1.372 . S
C464 H442 0.950 . S
C464 C463 1.372 . S
C464 C465 1.379 . S
C465 H443 0.948 . S
C465 C460 1.364 . S
C465 C464 1.379 . S
C466 C435 1.383 . S
C466 C453 1.479 . S
C466 C467 1.398 . S
C467 C432 1.382 . S
C467 H444 0.951 . S
C467 C466 1.398 . S
C468 C469 1.384 . S
C468 H481 0.947 . S
C468 C503 1.382 . S
C469 C468 1.384 . S
C469 C470 1.378 . S
C470 C469 1.378 . S
C470 C471 1.378 . S
C470 H482 0.952 . S
C471 C470 1.378 . S
C471 H483 0.950 . S
C471 C502 1.383 . S
H472 C491 0.947 . S
H473 C492 0.946 . S
H474 C494 0.953 . S
H475 C495 0.945 . S
H476 C497 0.952 . S
H477 C498 0.949 . S
H478 C500 0.950 . S
H479 C501 0.948 . S
H480 C503 0.951 . S
H481 C468 0.947 . S
H482 C470 0.952 . S
H483 C471 0.950 . S
N484 C487 1.382 . S
N484 C489 1.363 . S
N485 C487 1.371 . S
N485 C488 1.372 . S
N486 C488 1.361 . S
N486 C489 1.377 . S
C487 N484 1.382 . S
C487 N485 1.371 . S
C487 C490 1.480 . S
C488 N485 1.372 . S
C488 N486 1.361 . S
C488 C496 1.457 . S
C489 N484 1.363 . S
C489 N486 1.377 . S
C489 C502 1.479 . S
C490 C487 1.480 . S
C490 C491 1.383 . S
C490 C495 1.385 . S
C491 H472 0.947 . S
C491 C490 1.383 . S
C491 C492 1.388 . S
C492 H473 0.946 . S
C492 C491 1.388 . S
C492 C493 1.384 . S
C493 C492 1.384 . S
C493 C494 1.377 . S
C494 H474 0.953 . S
C494 C493 1.377 . S
C494 C495 1.369 . S
C495 H475 0.945 . S
C495 C490 1.385 . S
C495 C494 1.369 . S
C496 C488 1.457 . S
C496 C497 1.372 . S
C496 C501 1.364 . S
C497 H476 0.952 . S
C497 C496 1.372 . S
C497 C498 1.389 . S
C498 H477 0.949 . S
C498 C497 1.389 . S
C498 C499 1.387 . S
C499 C498 1.387 . S
C499 C500 1.372 . S
C500 H478 0.950 . S
C500 C499 1.372 . S
C500 C501 1.379 . S
C501 H479 0.948 . S
C501 C496 1.364 . S
C501 C500 1.379 . S
C502 C471 1.383 . S
C502 C489 1.479 . S
C502 C503 1.398 . S
C503 C468 1.382 . S
C503 H480 0.951 . S
C503 C502 1.398 . S
C504 C505 1.384 . S
C504 H517 0.947 . S
C504 C539 1.382 . S
C505 C504 1.384 . S
C505 C506 1.378 . S
C506 C505 1.378 . S
C506 C507 1.378 . S
C506 H518 0.952 . S
C507 C506 1.378 . S
C507 H519 0.950 . S
C507 C538 1.383 . S
H508 C527 0.947 . S
H509 C528 0.946 . S
H510 C530 0.953 . S
H511 C531 0.945 . S
H512 C533 0.952 . S
H513 C534 0.949 . S
H514 C536 0.950 . S
H515 C537 0.948 . S
H516 C539 0.951 . S
H517 C504 0.947 . S
H518 C506 0.952 . S
H519 C507 0.950 . S
N520 C523 1.382 . S
N520 C525 1.363 . S
N521 C523 1.371 . S
N521 C524 1.372 . S
N522 C524 1.361 . S
N522 C525 1.377 . S
C523 N520 1.382 . S
C523 N521 1.371 . S
C523 C526 1.480 . S
C524 N521 1.372 . S
C524 N522 1.361 . S
C524 C532 1.457 . S
C525 N520 1.363 . S
C525 N522 1.377 . S
C525 C538 1.479 . S
C526 C523 1.480 . S
C526 C527 1.383 . S
C526 C531 1.385 . S
C527 H508 0.947 . S
C527 C526 1.383 . S
C527 C528 1.388 . S
C528 H509 0.946 . S
C528 C527 1.388 . S
C528 C529 1.384 . S
C529 C528 1.384 . S
C529 C530 1.377 . S
C530 H510 0.953 . S
C530 C529 1.377 . S
C530 C531 1.369 . S
C531 H511 0.945 . S
C531 C526 1.385 . S
C531 C530 1.369 . S
C532 C524 1.457 . S
C532 C533 1.372 . S
C532 C537 1.364 . S
C533 H512 0.952 . S
C533 C532 1.372 . S
C533 C534 1.389 . S
C534 H513 0.949 . S
C534 C533 1.389 . S
C534 C535 1.387 . S
C535 C534 1.387 . S
C535 C536 1.372 . S
C536 H514 0.950 . S
C536 C535 1.372 . S
C536 C537 1.379 . S
C537 H515 0.948 . S
C537 C532 1.364 . S
C537 C536 1.379 . S
C538 C507 1.383 . S
C538 C525 1.479 . S
C538 C539 1.398 . S
C539 C504 1.382 . S
C539 H516 0.951 . S
C539 C538 1.398 . S
C540 C541 1.384 . S
C540 H553 0.947 . S
C540 C575 1.382 . S
C541 C540 1.384 . S
C541 C542 1.378 . S
C542 C541 1.378 . S
C542 C543 1.378 . S
C542 H554 0.952 . S
C543 C542 1.378 . S
C543 H555 0.950 . S
C543 C574 1.383 . S
H544 C563 0.947 . S
H545 C564 0.946 . S
H546 C566 0.953 . S
H547 C567 0.945 . S
H548 C569 0.952 . S
H549 C570 0.949 . S
H550 C572 0.950 . S
H551 C573 0.948 . S
H552 C575 0.951 . S
H553 C540 0.947 . S
H554 C542 0.952 . S
H555 C543 0.950 . S
N556 C559 1.382 . S
N556 C561 1.363 . S
N557 C559 1.371 . S
N557 C560 1.372 . S
N558 C560 1.361 . S
N558 C561 1.377 . S
C559 N556 1.382 . S
C559 N557 1.371 . S
C559 C562 1.480 . S
C560 N557 1.372 . S
C560 N558 1.361 . S
C560 C568 1.457 . S
C561 N556 1.363 . S
C561 N558 1.377 . S
C561 C574 1.479 . S
C562 C559 1.480 . S
C562 C563 1.383 . S
C562 C567 1.385 . S
C563 H544 0.947 . S
C563 C562 1.383 . S
C563 C564 1.388 . S
C564 H545 0.946 . S
C564 C563 1.388 . S
C564 C565 1.384 . S
C565 C564 1.384 . S
C565 C566 1.377 . S
C566 H546 0.953 . S
C566 C565 1.377 . S
C566 C567 1.369 . S
C567 H547 0.945 . S
C567 C562 1.385 . S
C567 C566 1.369 . S
C568 C560 1.457 . S
C568 C569 1.372 . S
C568 C573 1.364 . S
C569 H548 0.952 . S
C569 C568 1.372 . S
C569 C570 1.389 . S
C570 H549 0.949 . S
C570 C569 1.389 . S
C570 C571 1.387 . S
C571 C570 1.387 . S
C571 C572 1.372 . S
C572 H550 0.950 . S
C572 C571 1.372 . S
C572 C573 1.379 . S
C573 H551 0.948 . S
C573 C568 1.364 . S
C573 C572 1.379 . S
C574 C543 1.383 . S
C574 C561 1.479 . S
C574 C575 1.398 . S
C575 C540 1.382 . S
C575 H552 0.951 . S
C575 C574 1.398 . S
C576 C577 1.384 . S
C576 H589 0.947 . S
C576 C611 1.382 . S
C577 C576 1.384 . S
C577 C578 1.378 . S
C578 C577 1.378 . S
C578 C579 1.378 . S
C578 H590 0.952 . S
C579 C578 1.378 . S
C579 H591 0.950 . S
C579 C610 1.383 . S
H580 C599 0.947 . S
H581 C600 0.946 . S
H582 C602 0.953 . S
H583 C603 0.945 . S
H584 C605 0.952 . S
H585 C606 0.949 . S
H586 C608 0.950 . S
H587 C609 0.948 . S
H588 C611 0.951 . S
H589 C576 0.947 . S
H590 C578 0.952 . S
H591 C579 0.950 . S
N592 C595 1.382 . S
N592 C597 1.363 . S
N593 C595 1.371 . S
N593 C596 1.372 . S
N594 C596 1.361 . S
N594 C597 1.377 . S
C595 N592 1.382 . S
C595 N593 1.371 . S
C595 C598 1.480 . S
C596 N593 1.372 . S
C596 N594 1.361 . S
C596 C604 1.457 . S
C597 N592 1.363 . S
C597 N594 1.377 . S
C597 C610 1.479 . S
C598 C595 1.480 . S
C598 C599 1.383 . S
C598 C603 1.385 . S
C599 H580 0.947 . S
C599 C598 1.383 . S
C599 C600 1.388 . S
C600 H581 0.946 . S
C600 C599 1.388 . S
C600 C601 1.384 . S
C601 C600 1.384 . S
C601 C602 1.377 . S
C602 H582 0.953 . S
C602 C601 1.377 . S
C602 C603 1.369 . S
C603 H583 0.945 . S
C603 C598 1.385 . S
C603 C602 1.369 . S
C604 C596 1.457 . S
C604 C605 1.372 . S
C604 C609 1.364 . S
C605 H584 0.952 . S
C605 C604 1.372 . S
C605 C606 1.389 . S
C606 H585 0.949 . S
C606 C605 1.389 . S
C606 C607 1.387 . S
C607 C606 1.387 . S
C607 C608 1.372 . S
C608 H586 0.950 . S
C608 C607 1.372 . S
C608 C609 1.379 . S
C609 H587 0.948 . S
C609 C604 1.364 . S
C609 C608 1.379 . S
C610 C579 1.383 . S
C610 C597 1.479 . S
C610 C611 1.398 . S
C611 C576 1.382 . S
C611 H588 0.951 . S
C611 C610 1.398 . S
C612 C613 1.384 . S
C612 H625 0.947 . S
C612 C647 1.382 . S
C613 C612 1.384 . S
C613 C614 1.378 . S
C614 C613 1.378 . S
C614 C615 1.378 . S
C614 H626 0.952 . S
C615 C614 1.378 . S
C615 H627 0.950 . S
C615 C646 1.383 . S
H616 C635 0.947 . S
H617 C636 0.946 . S
H618 C638 0.953 . S
H619 C639 0.945 . S
H620 C641 0.952 . S
H621 C642 0.949 . S
H622 C644 0.950 . S
H623 C645 0.948 . S
H624 C647 0.951 . S
H625 C612 0.947 . S
H626 C614 0.952 . S
H627 C615 0.950 . S
N628 C631 1.382 . S
N628 C633 1.363 . S
N629 C631 1.371 . S
N629 C632 1.372 . S
N630 C632 1.361 . S
N630 C633 1.377 . S
C631 N628 1.382 . S
C631 N629 1.371 . S
C631 C634 1.480 . S
C632 N629 1.372 . S
C632 N630 1.361 . S
C632 C640 1.457 . S
C633 N628 1.363 . S
C633 N630 1.377 . S
C633 C646 1.479 . S
C634 C631 1.480 . S
C634 C635 1.383 . S
C634 C639 1.385 . S
C635 H616 0.947 . S
C635 C634 1.383 . S
C635 C636 1.388 . S
C636 H617 0.946 . S
C636 C635 1.388 . S
C636 C637 1.384 . S
C637 C636 1.384 . S
C637 C638 1.377 . S
C638 H618 0.953 . S
C638 C637 1.377 . S
C638 C639 1.369 . S
C639 H619 0.945 . S
C639 C634 1.385 . S
C639 C638 1.369 . S
C640 C632 1.457 . S
C640 C641 1.372 . S
C640 C645 1.364 . S
C641 H620 0.952 . S
C641 C640 1.372 . S
C641 C642 1.389 . S
C642 H621 0.949 . S
C642 C641 1.389 . S
C642 C643 1.387 . S
C643 C642 1.387 . S
C643 C644 1.372 . S
C644 H622 0.950 . S
C644 C643 1.372 . S
C644 C645 1.379 . S
C645 H623 0.948 . S
C645 C640 1.364 . S
C645 C644 1.379 . S
C646 C615 1.383 . S
C646 C633 1.479 . S
C646 C647 1.398 . S
C647 C612 1.382 . S
C647 H624 0.951 . S
C647 C646 1.398 . S
Eu648 N679 2.657 . S
Eu648 N686 2.609 . S
Eu648 O692 2.558 . S
Eu648 O693 2.612 1_565 S
Eu648 O695 2.339 1_565 S
Eu648 O696 2.563 1_565 S
Eu648 O697 2.419 . S
Eu648 O699 2.380 1_556 S
Eu648 O700 2.432 . S
Eu648 C712 2.848 . S
C649 C652 1.429 . S
C649 C653 1.411 . S
C649 N656 1.377 . S
C650 C652 1.420 . S
C650 C654 1.423 . S
C650 C662 1.392 . S
C651 C653 1.420 . S
C651 C654 1.351 . S
C651 H674 0.931 . S
C652 C649 1.429 . S
C652 C650 1.420 . S
C652 N660 1.362 . S
C653 C649 1.411 . S
C653 C651 1.420 . S
C653 C658 1.395 . S
C654 C650 1.423 . S
C654 C651 1.351 . S
C654 H666 0.930 . S
C655 C657 1.400 . S
C655 C658 1.386 . S
C655 H667 0.930 . S
N656 C649 1.377 . S
N656 C657 1.321 . S
N656 Eu659 2.609 . S
C657 C655 1.400 . S
C657 N656 1.321 . S
C657 H664 0.930 . S
C658 C653 1.395 . S
C658 C655 1.386 . S
C658 H677 0.930 . S
Eu659 N656 2.609 . S
Eu659 N660 2.657 . S
Eu659 O693 2.380 1_554 S
Eu659 O694 2.432 . S
Eu659 O698 2.558 . S
Eu659 O699 2.612 1_545 S
Eu659 O701 2.339 1_545 S
Eu659 O702 2.563 1_545 S
Eu659 O703 2.419 . S
Eu659 C723 2.848 . S
N660 C652 1.362 . S
N660 Eu659 2.657 . S
N660 C661 1.334 . S
C661 N660 1.334 . S
C661 C663 1.413 . S
C661 H668 0.929 . S
C662 C650 1.392 . S
C662 C663 1.367 . S
C662 H670 0.930 . S
C663 C661 1.413 . S
C663 C662 1.367 . S
C663 H665 0.930 . S
H664 C657 0.930 . S
H665 C663 0.930 . S
H666 C654 0.930 . S
H667 C655 0.930 . S
H668 C661 0.929 . S
H669 C683 0.930 . S
H670 C662 0.930 . S
H671 C689 0.930 . S
H672 C680 0.929 . S
H673 C687 0.930 . S
H674 C651 0.931 . S
H675 C681 0.930 . S
H676 C714 0.930 . S
H677 C658 0.930 . S
H678 C713 0.931 . S
N679 Eu648 2.657 . S
N679 C680 1.334 . S
N679 C684 1.362 . S
C680 H672 0.929 . S
C680 N679 1.334 . S
C680 C683 1.413 . S
C681 H675 0.930 . S
C681 C682 1.392 . S
C681 C683 1.367 . S
C682 C681 1.392 . S
C682 C684 1.420 . S
C682 C714 1.423 . S
C683 H669 0.930 . S
C683 C680 1.413 . S
C683 C681 1.367 . S
C684 N679 1.362 . S
C684 C682 1.420 . S
C684 C688 1.429 . S
H685 C690 0.930 . S
N686 Eu648 2.609 . S
N686 C688 1.377 . S
N686 C689 1.321 . S
C687 H673 0.930 . S
C687 C689 1.400 . S
C687 C690 1.386 . S
C688 C684 1.429 . S
C688 N686 1.377 . S
C688 C691 1.411 . S
C689 H671 0.930 . S
C689 N686 1.321 . S
C689 C687 1.400 . S
C690 H685 0.930 . S
C690 C687 1.386 . S
C690 C691 1.395 . S
C691 C688 1.411 . S
C691 C690 1.395 . S
C691 C713 1.420 . S
O692 Eu648 2.558 . S
O692 C712 1.257 . S
O693 Eu648 2.612 1_545 S
O693 Eu659 2.380 1_556 S
O693 C704 1.276 . S
O694 Eu659 2.432 . S
O694 C711 1.264 1_554 S
O695 Eu648 2.339 1_545 S
O695 C711 1.254 . S
O696 Eu648 2.563 1_545 S
O696 C704 1.235 . S
O697 Eu648 2.419 . S
O697 C712 1.249 . S
O698 Eu659 2.558 . S
O698 C723 1.257 . S
O699 Eu648 2.380 1_554 S
O699 Eu659 2.612 1_565 S
O699 C715 1.276 . S
O700 Eu648 2.432 . S
O700 C722 1.264 1_556 S
O701 Eu659 2.339 1_565 S
O701 C722 1.254 . S
O702 Eu659 2.563 1_565 S
O702 C715 1.235 . S
O703 Eu659 2.419 . S
O703 C723 1.249 . S
C704 O693 1.276 . S
C704 O696 1.235 . S
C705 C707 1.393 1_565 S
C705 C709 1.395 . S
C705 C712 1.492 . S
C706 C707 1.392 . S
C706 C708 1.386 1_545 S
C707 C705 1.393 1_545 S
C707 C706 1.392 . S
C707 H724 0.930 . S
C708 C706 1.386 1_565 S
C708 C710 1.395 . S
C708 H725 0.930 . S
C709 C705 1.395 . S
C709 C710 1.379 . S
C709 H726 0.930 . S
C710 C708 1.395 . S
C710 C709 1.379 . S
C710 H727 0.930 . S
C711 O694 1.264 1_556 S
C711 O695 1.254 . S
C712 Eu648 2.848 . S
C712 O692 1.257 . S
C712 O697 1.249 . S
C712 C705 1.492 . S
C713 H678 0.931 . S
C713 C691 1.420 . S
C713 C714 1.351 . S
C714 H676 0.930 . S
C714 C682 1.423 . S
C714 C713 1.351 . S
C715 O699 1.276 . S
C715 O702 1.235 . S
C716 C717 1.393 1_545 S
C716 C720 1.395 . S
C716 C723 1.492 . S
C717 C716 1.393 1_565 S
C717 C718 1.392 . S
C717 H728 0.930 . S
C718 C717 1.392 . S
C718 C719 1.386 1_565 S
C719 C718 1.386 1_545 S
C719 C721 1.395 . S
C719 H729 0.930 . S
C720 C716 1.395 . S
C720 C721 1.379 . S
C720 H730 0.930 . S
C721 C719 1.395 . S
C721 C720 1.379 . S
C721 H731 0.930 . S
C722 O700 1.264 1_554 S
C722 O701 1.254 . S
C723 Eu659 2.848 . S
C723 O698 1.257 . S
C723 O703 1.249 . S
C723 C716 1.492 . S
H724 C707 0.930 . S
H725 C708 0.930 . S
H726 C709 0.930 . S
H727 C710 0.930 . S
H728 C717 0.930 . S
H729 C719 0.930 . S
H730 C720 0.930 . S
H731 C721 0.930 . S
Eu732 N763 2.657 . S
Eu732 N770 2.609 . S
Eu732 O776 2.558 . S
Eu732 O777 2.612 1_455 S
Eu732 O779 2.339 1_455 S
Eu732 O780 2.563 1_455 S
Eu732 O781 2.419 . S
Eu732 O783 2.380 1_556 S
Eu732 O784 2.432 . S
Eu732 C796 2.848 . S
C733 C736 1.429 . S
C733 C737 1.411 . S
C733 N740 1.377 . S
C734 C736 1.420 . S
C734 C738 1.423 . S
C734 C746 1.392 . S
C735 C737 1.420 . S
C735 C738 1.351 . S
C735 H758 0.931 . S
C736 C733 1.429 . S
C736 C734 1.420 . S
C736 N744 1.362 . S
C737 C733 1.411 . S
C737 C735 1.420 . S
C737 C742 1.395 . S
C738 C734 1.423 . S
C738 C735 1.351 . S
C738 H750 0.930 . S
C739 C741 1.400 . S
C739 C742 1.386 . S
C739 H751 0.930 . S
N740 C733 1.377 . S
N740 C741 1.321 . S
N740 Eu743 2.609 . S
C741 C739 1.400 . S
C741 N740 1.321 . S
C741 H748 0.930 . S
C742 C737 1.395 . S
C742 C739 1.386 . S
C742 H761 0.930 . S
Eu743 N740 2.609 . S
Eu743 N744 2.657 . S
Eu743 O777 2.380 1_554 S
Eu743 O778 2.432 . S
Eu743 O782 2.558 . S
Eu743 O783 2.612 1_655 S
Eu743 O785 2.339 1_655 S
Eu743 O786 2.563 1_655 S
Eu743 O787 2.419 . S
Eu743 C807 2.848 . S
N744 C736 1.362 . S
N744 Eu743 2.657 . S
N744 C745 1.334 . S
C745 N744 1.334 . S
C745 C747 1.413 . S
C745 H752 0.929 . S
C746 C734 1.392 . S
C746 C747 1.367 . S
C746 H754 0.930 . S
C747 C745 1.413 . S
C747 C746 1.367 . S
C747 H749 0.930 . S
H748 C741 0.930 . S
H749 C747 0.930 . S
H750 C738 0.930 . S
H751 C739 0.930 . S
H752 C745 0.929 . S
H753 C767 0.930 . S
H754 C746 0.930 . S
H755 C773 0.930 . S
H756 C764 0.929 . S
H757 C771 0.930 . S
H758 C735 0.931 . S
H759 C765 0.930 . S
H760 C798 0.930 . S
H761 C742 0.930 . S
H762 C797 0.931 . S
N763 Eu732 2.657 . S
N763 C764 1.334 . S
N763 C768 1.362 . S
C764 H756 0.929 . S
C764 N763 1.334 . S
C764 C767 1.413 . S
C765 H759 0.930 . S
C765 C766 1.392 . S
C765 C767 1.367 . S
C766 C765 1.392 . S
C766 C768 1.420 . S
C766 C798 1.423 . S
C767 H753 0.930 . S
C767 C764 1.413 . S
C767 C765 1.367 . S
C768 N763 1.362 . S
C768 C766 1.420 . S
C768 C772 1.429 . S
H769 C774 0.930 . S
N770 Eu732 2.609 . S
N770 C772 1.377 . S
N770 C773 1.321 . S
C771 H757 0.930 . S
C771 C773 1.400 . S
C771 C774 1.386 . S
C772 C768 1.429 . S
C772 N770 1.377 . S
C772 C775 1.411 . S
C773 H755 0.930 . S
C773 N770 1.321 . S
C773 C771 1.400 . S
C774 H769 0.930 . S
C774 C771 1.386 . S
C774 C775 1.395 . S
C775 C772 1.411 . S
C775 C774 1.395 . S
C775 C797 1.420 . S
O776 Eu732 2.558 . S
O776 C796 1.257 . S
O777 Eu732 2.612 1_655 S
O777 Eu743 2.380 1_556 S
O777 C788 1.276 . S
O778 Eu743 2.432 . S
O778 C795 1.264 1_554 S
O779 Eu732 2.339 1_655 S
O779 C795 1.254 . S
O780 Eu732 2.563 1_655 S
O780 C788 1.235 . S
O781 Eu732 2.419 . S
O781 C796 1.249 . S
O782 Eu743 2.558 . S
O782 C807 1.257 . S
O783 Eu732 2.380 1_554 S
O783 Eu743 2.612 1_455 S
O783 C799 1.276 . S
O784 Eu732 2.432 . S
O784 C806 1.264 1_556 S
O785 Eu743 2.339 1_455 S
O785 C806 1.254 . S
O786 Eu743 2.563 1_455 S
O786 C799 1.235 . S
O787 Eu743 2.419 . S
O787 C807 1.249 . S
C788 O777 1.276 . S
C788 O780 1.235 . S
C789 C791 1.393 1_455 S
C789 C793 1.395 . S
C789 C796 1.492 . S
C790 C791 1.392 . S
C790 C792 1.386 1_655 S
C791 C789 1.393 1_655 S
C791 C790 1.392 . S
C791 H808 0.930 . S
C792 C790 1.386 1_455 S
C792 C794 1.395 . S
C792 H809 0.930 . S
C793 C789 1.395 . S
C793 C794 1.379 . S
C793 H810 0.930 . S
C794 C792 1.395 . S
C794 C793 1.379 . S
C794 H811 0.930 . S
C795 O778 1.264 1_556 S
C795 O779 1.254 . S
C796 Eu732 2.848 . S
C796 O776 1.257 . S
C796 O781 1.249 . S
C796 C789 1.492 . S
C797 H762 0.931 . S
C797 C775 1.420 . S
C797 C798 1.351 . S
C798 H760 0.930 . S
C798 C766 1.423 . S
C798 C797 1.351 . S
C799 O783 1.276 . S
C799 O786 1.235 . S
C800 C801 1.393 1_655 S
C800 C804 1.395 . S
C800 C807 1.492 . S
C801 C800 1.393 1_455 S
C801 C802 1.392 . S
C801 H812 0.930 . S
C802 C801 1.392 . S
C802 C803 1.386 1_455 S
C803 C802 1.386 1_655 S
C803 C805 1.395 . S
C803 H813 0.930 . S
C804 C800 1.395 . S
C804 C805 1.379 . S
C804 H814 0.930 . S
C805 C803 1.395 . S
C805 C804 1.379 . S
C805 H815 0.930 . S
C806 O784 1.264 1_554 S
C806 O785 1.254 . S
C807 Eu743 2.848 . S
C807 O782 1.257 . S
C807 O787 1.249 . S
C807 C800 1.492 . S
H808 C791 0.930 . S
H809 C792 0.930 . S
H810 C793 0.930 . S
H811 C794 0.930 . S
H812 C801 0.930 . S
H813 C803 0.930 . S
H814 C804 0.930 . S
H815 C805 0.930 . S
Eu816 N847 2.657 . S
Eu816 N854 2.609 . S
Eu816 O860 2.558 . S
Eu816 O861 2.612 . S
Eu816 O863 2.339 . S
Eu816 O864 2.563 . S
Eu816 O865 2.419 . S
Eu816 O867 2.380 1_554 S
Eu816 O868 2.432 . S
Eu816 C880 2.848 . S
C817 C820 1.429 . S
C817 C821 1.411 . S
C817 N824 1.377 . S
C818 C820 1.420 . S
C818 C822 1.423 . S
C818 C830 1.392 . S
C819 C821 1.420 . S
C819 C822 1.351 . S
C819 H842 0.931 . S
C820 C817 1.429 . S
C820 C818 1.420 . S
C820 N828 1.362 . S
C821 C817 1.411 . S
C821 C819 1.420 . S
C821 C826 1.395 . S
C822 C818 1.423 . S
C822 C819 1.351 . S
C822 H834 0.930 . S
C823 C825 1.400 . S
C823 C826 1.386 . S
C823 H835 0.930 . S
N824 C817 1.377 . S
N824 C825 1.321 . S
N824 Eu827 2.609 . S
C825 C823 1.400 . S
C825 N824 1.321 . S
C825 H832 0.930 . S
C826 C821 1.395 . S
C826 C823 1.386 . S
C826 H845 0.930 . S
Eu827 N824 2.609 . S
Eu827 N828 2.657 . S
Eu827 O861 2.380 1_556 S
Eu827 O862 2.432 . S
Eu827 O866 2.558 . S
Eu827 O867 2.612 . S
Eu827 O869 2.339 . S
Eu827 O870 2.563 . S
Eu827 O871 2.419 . S
Eu827 C891 2.848 . S
N828 C820 1.362 . S
N828 Eu827 2.657 . S
N828 C829 1.334 . S
C829 N828 1.334 . S
C829 C831 1.413 . S
C829 H836 0.929 . S
C830 C818 1.392 . S
C830 C831 1.367 . S
C830 H838 0.930 . S
C831 C829 1.413 . S
C831 C830 1.367 . S
C831 H833 0.930 . S
H832 C825 0.930 . S
H833 C831 0.930 . S
H834 C822 0.930 . S
H835 C823 0.930 . S
H836 C829 0.929 . S
H837 C851 0.930 . S
H838 C830 0.930 . S
H839 C857 0.930 . S
H840 C848 0.929 . S
H841 C855 0.930 . S
H842 C819 0.931 . S
H843 C849 0.930 . S
H844 C882 0.930 . S
H845 C826 0.930 . S
H846 C881 0.931 . S
N847 Eu816 2.657 . S
N847 C848 1.334 . S
N847 C852 1.362 . S
C848 H840 0.929 . S
C848 N847 1.334 . S
C848 C851 1.413 . S
C849 H843 0.930 . S
C849 C850 1.392 . S
C849 C851 1.367 . S
C850 C849 1.392 . S
C850 C852 1.420 . S
C850 C882 1.423 . S
C851 H837 0.930 . S
C851 C848 1.413 . S
C851 C849 1.367 . S
C852 N847 1.362 . S
C852 C850 1.420 . S
C852 C856 1.429 . S
H853 C858 0.930 . S
N854 Eu816 2.609 . S
N854 C856 1.377 . S
N854 C857 1.321 . S
C855 H841 0.930 . S
C855 C857 1.400 . S
C855 C858 1.386 . S
C856 C852 1.429 . S
C856 N854 1.377 . S
C856 C859 1.411 . S
C857 H839 0.930 . S
C857 N854 1.321 . S
C857 C855 1.400 . S
C858 H853 0.930 . S
C858 C855 1.386 . S
C858 C859 1.395 . S
C859 C856 1.411 . S
C859 C858 1.395 . S
C859 C881 1.420 . S
O860 Eu816 2.558 . S
O860 C880 1.257 . S
O861 Eu816 2.612 . S
O861 Eu827 2.380 1_554 S
O861 C872 1.276 . S
O862 Eu827 2.432 . S
O862 C879 1.264 1_556 S
O863 Eu816 2.339 . S
O863 C879 1.254 . S
O864 Eu816 2.563 . S
O864 C872 1.235 . S
O865 Eu816 2.419 . S
O865 C880 1.249 . S
O866 Eu827 2.558 . S
O866 C891 1.257 . S
O867 Eu816 2.380 1_556 S
O867 Eu827 2.612 . S
O867 C883 1.276 . S
O868 Eu816 2.432 . S
O868 C890 1.264 1_554 S
O869 Eu827 2.339 . S
O869 C890 1.254 . S
O870 Eu827 2.563 . S
O870 C883 1.235 . S
O871 Eu827 2.419 . S
O871 C891 1.249 . S
C872 O861 1.276 . S
C872 O864 1.235 . S
C873 C875 1.393 . S
C873 C877 1.395 . S
C873 C880 1.492 . S
C874 C875 1.392 . S
C874 C876 1.386 . S
C875 C873 1.393 . S
C875 C874 1.392 . S
C875 H892 0.930 . S
C876 C874 1.386 . S
C876 C878 1.395 . S
C876 H893 0.930 . S
C877 C873 1.395 . S
C877 C878 1.379 . S
C877 H894 0.930 . S
C878 C876 1.395 . S
C878 C877 1.379 . S
C878 H895 0.930 . S
C879 O862 1.264 1_554 S
C879 O863 1.254 . S
C880 Eu816 2.848 . S
C880 O860 1.257 . S
C880 O865 1.249 . S
C880 C873 1.492 . S
C881 H846 0.931 . S
C881 C859 1.420 . S
C881 C882 1.351 . S
C882 H844 0.930 . S
C882 C850 1.423 . S
C882 C881 1.351 . S
C883 O867 1.276 . S
C883 O870 1.235 . S
C884 C885 1.393 . S
C884 C888 1.395 . S
C884 C891 1.492 . S
C885 C884 1.393 . S
C885 C886 1.392 . S
C885 H896 0.930 . S
C886 C885 1.392 . S
C886 C887 1.386 . S
C887 C886 1.386 . S
C887 C889 1.395 . S
C887 H897 0.930 . S
C888 C884 1.395 . S
C888 C889 1.379 . S
C888 H898 0.930 . S
C889 C887 1.395 . S
C889 C888 1.379 . S
C889 H899 0.930 . S
C890 O868 1.264 1_556 S
C890 O869 1.254 . S
C891 Eu827 2.848 . S
C891 O866 1.257 . S
C891 O871 1.249 . S
C891 C884 1.492 . S
H892 C875 0.930 . S
H893 C876 0.930 . S
H894 C877 0.930 . S
H895 C878 0.930 . S
H896 C885 0.930 . S
H897 C887 0.930 . S
H898 C888 0.930 . S
H899 C889 0.930 . S
Eu900 N931 2.657 . S
Eu900 N938 2.609 . S
Eu900 O944 2.558 . S
Eu900 O945 2.612 . S
Eu900 O947 2.339 . S
Eu900 O948 2.563 . S
Eu900 O949 2.419 . S
Eu900 O951 2.380 . S
Eu900 O952 2.432 . S
Eu900 C964 2.848 . S
C901 C904 1.429 . S
C901 C905 1.411 . S
C901 N908 1.377 . S
C902 C904 1.420 . S
C902 C906 1.423 . S
C902 C914 1.392 . S
C903 C905 1.420 . S
C903 C906 1.351 . S
C903 H926 0.931 . S
C904 C901 1.429 . S
C904 C902 1.420 . S
C904 N912 1.362 . S
C905 C901 1.411 . S
C905 C903 1.420 . S
C905 C910 1.395 . S
C906 C902 1.423 . S
C906 C903 1.351 . S
C906 H918 0.930 . S
C907 C909 1.400 . S
C907 C910 1.386 . S
C907 H919 0.930 . S
N908 C901 1.377 . S
N908 C909 1.321 . S
N908 Eu911 2.609 . S
C909 C907 1.400 . S
C909 N908 1.321 . S
C909 H916 0.930 . S
C910 C905 1.395 . S
C910 C907 1.386 . S
C910 H929 0.930 . S
Eu911 N908 2.609 . S
Eu911 N912 2.657 . S
Eu911 O945 2.380 . S
Eu911 O946 2.432 . S
Eu911 O950 2.558 . S
Eu911 O951 2.612 . S
Eu911 O953 2.339 . S
Eu911 O954 2.563 . S
Eu911 O955 2.419 . S
Eu911 C975 2.848 . S
N912 C904 1.362 . S
N912 Eu911 2.657 . S
N912 C913 1.334 . S
C913 N912 1.334 . S
C913 C915 1.413 . S
C913 H920 0.929 . S
C914 C902 1.392 . S
C914 C915 1.367 . S
C914 H922 0.930 . S
C915 C913 1.413 . S
C915 C914 1.367 . S
C915 H917 0.930 . S
H916 C909 0.930 . S
H917 C915 0.930 . S
H918 C906 0.930 . S
H919 C907 0.930 . S
H920 C913 0.929 . S
H921 C935 0.930 . S
H922 C914 0.930 . S
H923 C941 0.930 . S
H924 C932 0.929 . S
H925 C939 0.930 . S
H926 C903 0.931 . S
H927 C933 0.930 . S
H928 C966 0.930 . S
H929 C910 0.930 . S
H930 C965 0.931 . S
N931 Eu900 2.657 . S
N931 C932 1.334 . S
N931 C936 1.362 . S
C932 H924 0.929 . S
C932 N931 1.334 . S
C932 C935 1.413 . S
C933 H927 0.930 . S
C933 C934 1.392 . S
C933 C935 1.367 . S
C934 C933 1.392 . S
C934 C936 1.420 . S
C934 C966 1.423 . S
C935 H921 0.930 . S
C935 C932 1.413 . S
C935 C933 1.367 . S
C936 N931 1.362 . S
C936 C934 1.420 . S
C936 C940 1.429 . S
H937 C942 0.930 . S
N938 Eu900 2.609 . S
N938 C940 1.377 . S
N938 C941 1.321 . S
C939 H925 0.930 . S
C939 C941 1.400 . S
C939 C942 1.386 . S
C940 C936 1.429 . S
C940 N938 1.377 . S
C940 C943 1.411 . S
C941 H923 0.930 . S
C941 N938 1.321 . S
C941 C939 1.400 . S
C942 H937 0.930 . S
C942 C939 1.386 . S
C942 C943 1.395 . S
C943 C940 1.411 . S
C943 C942 1.395 . S
C943 C965 1.420 . S
O944 Eu900 2.558 . S
O944 C964 1.257 . S
O945 Eu900 2.612 . S
O945 Eu911 2.380 . S
O945 C956 1.276 . S
O946 Eu911 2.432 . S
O946 C963 1.264 . S
O947 Eu900 2.339 . S
O947 C963 1.254 . S
O948 Eu900 2.563 . S
O948 C956 1.235 . S
O949 Eu900 2.419 . S
O949 C964 1.249 . S
O950 Eu911 2.558 . S
O950 C975 1.257 . S
O951 Eu900 2.380 . S
O951 Eu911 2.612 . S
O951 C967 1.276 . S
O952 Eu900 2.432 . S
O952 C974 1.264 . S
O953 Eu911 2.339 . S
O953 C974 1.254 . S
O954 Eu911 2.563 . S
O954 C967 1.235 . S
O955 Eu911 2.419 . S
O955 C975 1.249 . S
C956 O945 1.276 . S
C956 O948 1.235 . S
C957 C959 1.393 . S
C957 C961 1.395 . S
C957 C964 1.492 . S
C958 C959 1.392 . S
C958 C960 1.386 . S
C959 C957 1.393 . S
C959 C958 1.392 . S
C959 H976 0.930 . S
C960 C958 1.386 . S
C960 C962 1.395 . S
C960 H977 0.930 . S
C961 C957 1.395 . S
C961 C962 1.379 . S
C961 H978 0.930 . S
C962 C960 1.395 . S
C962 C961 1.379 . S
C962 H979 0.930 . S
C963 O946 1.264 . S
C963 O947 1.254 . S
C964 Eu900 2.848 . S
C964 O944 1.257 . S
C964 O949 1.249 . S
C964 C957 1.492 . S
C965 H930 0.931 . S
C965 C943 1.420 . S
C965 C966 1.351 . S
C966 H928 0.930 . S
C966 C934 1.423 . S
C966 C965 1.351 . S
C967 O951 1.276 . S
C967 O954 1.235 . S
C968 C969 1.393 . S
C968 C972 1.395 . S
C968 C975 1.492 . S
C969 C968 1.393 . S
C969 C970 1.392 . S
C969 H980 0.930 . S
C970 C969 1.392 . S
C970 C971 1.386 . S
C971 C970 1.386 . S
C971 C973 1.395 . S
C971 H981 0.930 . S
C972 C968 1.395 . S
C972 C973 1.379 . S
C972 H982 0.930 . S
C973 C971 1.395 . S
C973 C972 1.379 . S
C973 H983 0.930 . S
C974 O952 1.264 . S
C974 O953 1.254 . S
C975 Eu911 2.848 . S
C975 O950 1.257 . S
C975 O955 1.249 . S
C975 C968 1.492 . S
H976 C959 0.930 . S
H977 C960 0.930 . S
H978 C961 0.930 . S
H979 C962 0.930 . S
H980 C969 0.930 . S
H981 C971 0.930 . S
H982 C972 0.930 . S
H983 C973 0.930 . S
Eu984 N1015 2.657 . S
Eu984 N1022 2.609 . S
Eu984 O1028 2.558 . S
Eu984 O1029 2.612 . S
Eu984 O1031 2.339 . S
Eu984 O1032 2.563 . S
Eu984 O1033 2.419 . S
Eu984 O1035 2.380 . S
Eu984 O1036 2.432 . S
Eu984 C1048 2.848 . S
C985 C988 1.429 . S
C985 C989 1.411 . S
C985 N992 1.377 . S
C986 C988 1.420 . S
C986 C990 1.423 . S
C986 C998 1.392 . S
C987 C989 1.420 . S
C987 C990 1.351 . S
C987 H1010 0.931 . S
C988 C985 1.429 . S
C988 C986 1.420 . S
C988 N996 1.362 . S
C989 C985 1.411 . S
C989 C987 1.420 . S
C989 C994 1.395 . S
C990 C986 1.423 . S
C990 C987 1.351 . S
C990 H1002 0.930 . S
C991 C993 1.400 . S
C991 C994 1.386 . S
C991 H1003 0.930 . S
N992 C985 1.377 . S
N992 C993 1.321 . S
N992 Eu995 2.609 . S
C993 C991 1.400 . S
C993 N992 1.321 . S
C993 H1000 0.930 . S
C994 C989 1.395 . S
C994 C991 1.386 . S
C994 H1013 0.930 . S
Eu995 N992 2.609 . S
Eu995 N996 2.657 . S
Eu995 O1029 2.380 . S
Eu995 O1030 2.432 . S
Eu995 O1034 2.558 . S
Eu995 O1035 2.612 . S
Eu995 O1037 2.339 . S
Eu995 O1038 2.563 . S
Eu995 O1039 2.419 . S
Eu995 C1059 2.848 . S
N996 C988 1.362 . S
N996 Eu995 2.657 . S
N996 C997 1.334 . S
C997 N996 1.334 . S
C997 C999 1.413 . S
C997 H1004 0.929 . S
C998 C986 1.392 . S
C998 C999 1.367 . S
C998 H1006 0.930 . S
C999 C997 1.413 . S
C999 C998 1.367 . S
C999 H1001 0.930 . S
H1000 C993 0.930 . S
H1001 C999 0.930 . S
H1002 C990 0.930 . S
H1003 C991 0.930 . S
H1004 C997 0.929 . S
H1005 C1019 0.930 . S
H1006 C998 0.930 . S
H1007 C1025 0.930 . S
H1008 C1016 0.929 . S
H1009 C1023 0.930 . S
H1010 C987 0.931 . S
H1011 C1017 0.930 . S
H1012 C1050 0.930 . S
H1013 C994 0.930 . S
H1014 C1049 0.931 . S
N1015 Eu984 2.657 . S
N1015 C1016 1.334 . S
N1015 C1020 1.362 . S
C1016 H1008 0.929 . S
C1016 N1015 1.334 . S
C1016 C1019 1.413 . S
C1017 H1011 0.930 . S
C1017 C1018 1.392 . S
C1017 C1019 1.367 . S
C1018 C1017 1.392 . S
C1018 C1020 1.420 . S
C1018 C1050 1.423 . S
C1019 H1005 0.930 . S
C1019 C1016 1.413 . S
C1019 C1017 1.367 . S
C1020 N1015 1.362 . S
C1020 C1018 1.420 . S
C1020 C1024 1.429 . S
H1021 C1026 0.930 . S
N1022 Eu984 2.609 . S
N1022 C1024 1.377 . S
N1022 C1025 1.321 . S
C1023 H1009 0.930 . S
C1023 C1025 1.400 . S
C1023 C1026 1.386 . S
C1024 C1020 1.429 . S
C1024 N1022 1.377 . S
C1024 C1027 1.411 . S
C1025 H1007 0.930 . S
C1025 N1022 1.321 . S
C1025 C1023 1.400 . S
C1026 H1021 0.930 . S
C1026 C1023 1.386 . S
C1026 C1027 1.395 . S
C1027 C1024 1.411 . S
C1027 C1026 1.395 . S
C1027 C1049 1.420 . S
O1028 Eu984 2.558 . S
O1028 C1048 1.257 . S
O1029 Eu984 2.612 . S
O1029 Eu995 2.380 . S
O1029 C1040 1.276 . S
O1030 Eu995 2.432 . S
O1030 C1047 1.264 . S
O1031 Eu984 2.339 . S
O1031 C1047 1.254 . S
O1032 Eu984 2.563 . S
O1032 C1040 1.235 . S
O1033 Eu984 2.419 . S
O1033 C1048 1.249 . S
O1034 Eu995 2.558 . S
O1034 C1059 1.257 . S
O1035 Eu984 2.380 . S
O1035 Eu995 2.612 . S
O1035 C1051 1.276 . S
O1036 Eu984 2.432 . S
O1036 C1058 1.264 . S
O1037 Eu995 2.339 . S
O1037 C1058 1.254 . S
O1038 Eu995 2.563 . S
O1038 C1051 1.235 . S
O1039 Eu995 2.419 . S
O1039 C1059 1.249 . S
C1040 O1029 1.276 . S
C1040 O1032 1.235 . S
C1041 C1043 1.393 . S
C1041 C1045 1.395 . S
C1041 C1048 1.492 . S
C1042 C1043 1.392 . S
C1042 C1044 1.386 . S
C1043 C1041 1.393 . S
C1043 C1042 1.392 . S
C1043 H1060 0.930 . S
C1044 C1042 1.386 . S
C1044 C1046 1.395 . S
C1044 H1061 0.930 . S
C1045 C1041 1.395 . S
C1045 C1046 1.379 . S
C1045 H1062 0.930 . S
C1046 C1044 1.395 . S
C1046 C1045 1.379 . S
C1046 H1063 0.930 . S
C1047 O1030 1.264 . S
C1047 O1031 1.254 . S
C1048 Eu984 2.848 . S
C1048 O1028 1.257 . S
C1048 O1033 1.249 . S
C1048 C1041 1.492 . S
C1049 H1014 0.931 . S
C1049 C1027 1.420 . S
C1049 C1050 1.351 . S
C1050 H1012 0.930 . S
C1050 C1018 1.423 . S
C1050 C1049 1.351 . S
C1051 O1035 1.276 . S
C1051 O1038 1.235 . S
C1052 C1053 1.393 . S
C1052 C1056 1.395 . S
C1052 C1059 1.492 . S
C1053 C1052 1.393 . S
C1053 C1054 1.392 . S
C1053 H1064 0.930 . S
C1054 C1053 1.392 . S
C1054 C1055 1.386 . S
C1055 C1054 1.386 . S
C1055 C1057 1.395 . S
C1055 H1065 0.930 . S
C1056 C1052 1.395 . S
C1056 C1057 1.379 . S
C1056 H1066 0.930 . S
C1057 C1055 1.395 . S
C1057 C1056 1.379 . S
C1057 H1067 0.930 . S
C1058 O1036 1.264 . S
C1058 O1037 1.254 . S
C1059 Eu995 2.848 . S
C1059 O1034 1.257 . S
C1059 O1039 1.249 . S
C1059 C1052 1.492 . S
H1060 C1043 0.930 . S
H1061 C1044 0.930 . S
H1062 C1045 0.930 . S
H1063 C1046 0.930 . S
H1064 C1053 0.930 . S
H1065 C1055 0.930 . S
H1066 C1056 0.930 . S
H1067 C1057 0.930 . S
Eu1068 N1099 2.657 . S
Eu1068 N1106 2.609 . S
Eu1068 O1112 2.558 . S
Eu1068 O1113 2.612 . S
Eu1068 O1115 2.339 . S
Eu1068 O1116 2.563 . S
Eu1068 O1117 2.419 . S
Eu1068 O1119 2.380 . S
Eu1068 O1120 2.432 . S
Eu1068 C1132 2.848 . S
C1069 C1072 1.429 . S
C1069 C1073 1.411 . S
C1069 N1076 1.377 . S
C1070 C1072 1.420 . S
C1070 C1074 1.423 . S
C1070 C1082 1.392 . S
C1071 C1073 1.420 . S
C1071 C1074 1.351 . S
C1071 H1094 0.931 . S
C1072 C1069 1.429 . S
C1072 C1070 1.420 . S
C1072 N1080 1.362 . S
C1073 C1069 1.411 . S
C1073 C1071 1.420 . S
C1073 C1078 1.395 . S
C1074 C1070 1.423 . S
C1074 C1071 1.351 . S
C1074 H1086 0.930 . S
C1075 C1077 1.400 . S
C1075 C1078 1.386 . S
C1075 H1087 0.930 . S
N1076 C1069 1.377 . S
N1076 C1077 1.321 . S
N1076 Eu1079 2.609 . S
C1077 C1075 1.400 . S
C1077 N1076 1.321 . S
C1077 H1084 0.930 . S
C1078 C1073 1.395 . S
C1078 C1075 1.386 . S
C1078 H1097 0.930 . S
Eu1079 N1076 2.609 . S
Eu1079 N1080 2.657 . S
Eu1079 O1113 2.380 . S
Eu1079 O1114 2.432 . S
Eu1079 O1118 2.558 . S
Eu1079 O1119 2.612 . S
Eu1079 O1121 2.339 . S
Eu1079 O1122 2.563 . S
Eu1079 O1123 2.419 . S
Eu1079 C1143 2.848 . S
N1080 C1072 1.362 . S
N1080 Eu1079 2.657 . S
N1080 C1081 1.334 . S
C1081 N1080 1.334 . S
C1081 C1083 1.413 . S
C1081 H1088 0.929 . S
C1082 C1070 1.392 . S
C1082 C1083 1.367 . S
C1082 H1090 0.930 . S
C1083 C1081 1.413 . S
C1083 C1082 1.367 . S
C1083 H1085 0.930 . S
H1084 C1077 0.930 . S
H1085 C1083 0.930 . S
H1086 C1074 0.930 . S
H1087 C1075 0.930 . S
H1088 C1081 0.929 . S
H1089 C1103 0.930 . S
H1090 C1082 0.930 . S
H1091 C1109 0.930 . S
H1092 C1100 0.929 . S
H1093 C1107 0.930 . S
H1094 C1071 0.931 . S
H1095 C1101 0.930 . S
H1096 C1134 0.930 . S
H1097 C1078 0.930 . S
H1098 C1133 0.931 . S
N1099 Eu1068 2.657 . S
N1099 C1100 1.334 . S
N1099 C1104 1.362 . S
C1100 H1092 0.929 . S
C1100 N1099 1.334 . S
C1100 C1103 1.413 . S
C1101 H1095 0.930 . S
C1101 C1102 1.392 . S
C1101 C1103 1.367 . S
C1102 C1101 1.392 . S
C1102 C1104 1.420 . S
C1102 C1134 1.423 . S
C1103 H1089 0.930 . S
C1103 C1100 1.413 . S
C1103 C1101 1.367 . S
C1104 N1099 1.362 . S
C1104 C1102 1.420 . S
C1104 C1108 1.429 . S
H1105 C1110 0.930 . S
N1106 Eu1068 2.609 . S
N1106 C1108 1.377 . S
N1106 C1109 1.321 . S
C1107 H1093 0.930 . S
C1107 C1109 1.400 . S
C1107 C1110 1.386 . S
C1108 C1104 1.429 . S
C1108 N1106 1.377 . S
C1108 C1111 1.411 . S
C1109 H1091 0.930 . S
C1109 N1106 1.321 . S
C1109 C1107 1.400 . S
C1110 H1105 0.930 . S
C1110 C1107 1.386 . S
C1110 C1111 1.395 . S
C1111 C1108 1.411 . S
C1111 C1110 1.395 . S
C1111 C1133 1.420 . S
O1112 Eu1068 2.558 . S
O1112 C1132 1.257 . S
O1113 Eu1068 2.612 . S
O1113 Eu1079 2.380 . S
O1113 C1124 1.276 . S
O1114 Eu1079 2.432 . S
O1114 C1131 1.264 . S
O1115 Eu1068 2.339 . S
O1115 C1131 1.254 . S
O1116 Eu1068 2.563 . S
O1116 C1124 1.235 . S
O1117 Eu1068 2.419 . S
O1117 C1132 1.249 . S
O1118 Eu1079 2.558 . S
O1118 C1143 1.257 . S
O1119 Eu1068 2.380 . S
O1119 Eu1079 2.612 . S
O1119 C1135 1.276 . S
O1120 Eu1068 2.432 . S
O1120 C1142 1.264 . S
O1121 Eu1079 2.339 . S
O1121 C1142 1.254 . S
O1122 Eu1079 2.563 . S
O1122 C1135 1.235 . S
O1123 Eu1079 2.419 . S
O1123 C1143 1.249 . S
C1124 O1113 1.276 . S
C1124 O1116 1.235 . S
C1125 C1127 1.393 . S
C1125 C1129 1.395 . S
C1125 C1132 1.492 . S
C1126 C1127 1.392 . S
C1126 C1128 1.386 . S
C1127 C1125 1.393 . S
C1127 C1126 1.392 . S
C1127 H1144 0.930 . S
C1128 C1126 1.386 . S
C1128 C1130 1.395 . S
C1128 H1145 0.930 . S
C1129 C1125 1.395 . S
C1129 C1130 1.379 . S
C1129 H1146 0.930 . S
C1130 C1128 1.395 . S
C1130 C1129 1.379 . S
C1130 H1147 0.930 . S
C1131 O1114 1.264 . S
C1131 O1115 1.254 . S
C1132 Eu1068 2.848 . S
C1132 O1112 1.257 . S
C1132 O1117 1.249 . S
C1132 C1125 1.492 . S
C1133 H1098 0.931 . S
C1133 C1111 1.420 . S
C1133 C1134 1.351 . S
C1134 H1096 0.930 . S
C1134 C1102 1.423 . S
C1134 C1133 1.351 . S
C1135 O1119 1.276 . S
C1135 O1122 1.235 . S
C1136 C1137 1.393 . S
C1136 C1140 1.395 . S
C1136 C1143 1.492 . S
C1137 C1136 1.393 . S
C1137 C1138 1.392 . S
C1137 H1148 0.930 . S
C1138 C1137 1.392 . S
C1138 C1139 1.386 . S
C1139 C1138 1.386 . S
C1139 C1141 1.395 . S
C1139 H1149 0.930 . S
C1140 C1136 1.395 . S
C1140 C1141 1.379 . S
C1140 H1150 0.930 . S
C1141 C1139 1.395 . S
C1141 C1140 1.379 . S
C1141 H1151 0.930 . S
C1142 O1120 1.264 . S
C1142 O1121 1.254 . S
C1143 Eu1079 2.848 . S
C1143 O1118 1.257 . S
C1143 O1123 1.249 . S
C1143 C1136 1.492 . S
H1144 C1127 0.930 . S
H1145 C1128 0.930 . S
H1146 C1129 0.930 . S
H1147 C1130 0.930 . S
H1148 C1137 0.930 . S
H1149 C1139 0.930 . S
H1150 C1140 0.930 . S
H1151 C1141 0.930 . S
Eu1152 N1183 2.657 . S
Eu1152 N1190 2.609 . S
Eu1152 O1196 2.558 . S
Eu1152 O1197 2.612 . S
Eu1152 O1199 2.339 . S
Eu1152 O1200 2.563 . S
Eu1152 O1201 2.419 . S
Eu1152 O1203 2.380 . S
Eu1152 O1204 2.432 . S
Eu1152 C1216 2.848 . S
C1153 C1156 1.429 . S
C1153 C1157 1.411 . S
C1153 N1160 1.377 . S
C1154 C1156 1.420 . S
C1154 C1158 1.423 . S
C1154 C1166 1.392 . S
C1155 C1157 1.420 . S
C1155 C1158 1.351 . S
C1155 H1178 0.931 . S
C1156 C1153 1.429 . S
C1156 C1154 1.420 . S
C1156 N1164 1.362 . S
C1157 C1153 1.411 . S
C1157 C1155 1.420 . S
C1157 C1162 1.395 . S
C1158 C1154 1.423 . S
C1158 C1155 1.351 . S
C1158 H1170 0.930 . S
C1159 C1161 1.400 . S
C1159 C1162 1.386 . S
C1159 H1171 0.930 . S
N1160 C1153 1.377 . S
N1160 C1161 1.321 . S
N1160 Eu1163 2.609 . S
C1161 C1159 1.400 . S
C1161 N1160 1.321 . S
C1161 H1168 0.930 . S
C1162 C1157 1.395 . S
C1162 C1159 1.386 . S
C1162 H1181 0.930 . S
Eu1163 N1160 2.609 . S
Eu1163 N1164 2.657 . S
Eu1163 O1197 2.380 . S
Eu1163 O1198 2.432 . S
Eu1163 O1202 2.558 . S
Eu1163 O1203 2.612 . S
Eu1163 O1205 2.339 . S
Eu1163 O1206 2.563 . S
Eu1163 O1207 2.419 . S
Eu1163 C1227 2.848 . S
N1164 C1156 1.362 . S
N1164 Eu1163 2.657 . S
N1164 C1165 1.334 . S
C1165 N1164 1.334 . S
C1165 C1167 1.413 . S
C1165 H1172 0.929 . S
C1166 C1154 1.392 . S
C1166 C1167 1.367 . S
C1166 H1174 0.930 . S
C1167 C1165 1.413 . S
C1167 C1166 1.367 . S
C1167 H1169 0.930 . S
H1168 C1161 0.930 . S
H1169 C1167 0.930 . S
H1170 C1158 0.930 . S
H1171 C1159 0.930 . S
H1172 C1165 0.929 . S
H1173 C1187 0.930 . S
H1174 C1166 0.930 . S
H1175 C1193 0.930 . S
H1176 C1184 0.929 . S
H1177 C1191 0.930 . S
H1178 C1155 0.931 . S
H1179 C1185 0.930 . S
H1180 C1218 0.930 . S
H1181 C1162 0.930 . S
H1182 C1217 0.931 . S
N1183 Eu1152 2.657 . S
N1183 C1184 1.334 . S
N1183 C1188 1.362 . S
C1184 H1176 0.929 . S
C1184 N1183 1.334 . S
C1184 C1187 1.413 . S
C1185 H1179 0.930 . S
C1185 C1186 1.392 . S
C1185 C1187 1.367 . S
C1186 C1185 1.392 . S
C1186 C1188 1.420 . S
C1186 C1218 1.423 . S
C1187 H1173 0.930 . S
C1187 C1184 1.413 . S
C1187 C1185 1.367 . S
C1188 N1183 1.362 . S
C1188 C1186 1.420 . S
C1188 C1192 1.429 . S
H1189 C1194 0.930 . S
N1190 Eu1152 2.609 . S
N1190 C1192 1.377 . S
N1190 C1193 1.321 . S
C1191 H1177 0.930 . S
C1191 C1193 1.400 . S
C1191 C1194 1.386 . S
C1192 C1188 1.429 . S
C1192 N1190 1.377 . S
C1192 C1195 1.411 . S
C1193 H1175 0.930 . S
C1193 N1190 1.321 . S
C1193 C1191 1.400 . S
C1194 H1189 0.930 . S
C1194 C1191 1.386 . S
C1194 C1195 1.395 . S
C1195 C1192 1.411 . S
C1195 C1194 1.395 . S
C1195 C1217 1.420 . S
O1196 Eu1152 2.558 . S
O1196 C1216 1.257 . S
O1197 Eu1152 2.612 . S
O1197 Eu1163 2.380 . S
O1197 C1208 1.276 . S
O1198 Eu1163 2.432 . S
O1198 C1215 1.264 . S
O1199 Eu1152 2.339 . S
O1199 C1215 1.254 . S
O1200 Eu1152 2.563 . S
O1200 C1208 1.235 . S
O1201 Eu1152 2.419 . S
O1201 C1216 1.249 . S
O1202 Eu1163 2.558 . S
O1202 C1227 1.257 . S
O1203 Eu1152 2.380 . S
O1203 Eu1163 2.612 . S
O1203 C1219 1.276 . S
O1204 Eu1152 2.432 . S
O1204 C1226 1.264 . S
O1205 Eu1163 2.339 . S
O1205 C1226 1.254 . S
O1206 Eu1163 2.563 . S
O1206 C1219 1.235 . S
O1207 Eu1163 2.419 . S
O1207 C1227 1.249 . S
C1208 O1197 1.276 . S
C1208 O1200 1.235 . S
C1209 C1211 1.393 . S
C1209 C1213 1.395 . S
C1209 C1216 1.492 . S
C1210 C1211 1.392 . S
C1210 C1212 1.386 . S
C1211 C1209 1.393 . S
C1211 C1210 1.392 . S
C1211 H1228 0.930 . S
C1212 C1210 1.386 . S
C1212 C1214 1.395 . S
C1212 H1229 0.930 . S
C1213 C1209 1.395 . S
C1213 C1214 1.379 . S
C1213 H1230 0.930 . S
C1214 C1212 1.395 . S
C1214 C1213 1.379 . S
C1214 H1231 0.930 . S
C1215 O1198 1.264 . S
C1215 O1199 1.254 . S
C1216 Eu1152 2.848 . S
C1216 O1196 1.257 . S
C1216 O1201 1.249 . S
C1216 C1209 1.492 . S
C1217 H1182 0.931 . S
C1217 C1195 1.420 . S
C1217 C1218 1.351 . S
C1218 H1180 0.930 . S
C1218 C1186 1.423 . S
C1218 C1217 1.351 . S
C1219 O1203 1.276 . S
C1219 O1206 1.235 . S
C1220 C1221 1.393 . S
C1220 C1224 1.395 . S
C1220 C1227 1.492 . S
C1221 C1220 1.393 . S
C1221 C1222 1.392 . S
C1221 H1232 0.930 . S
C1222 C1221 1.392 . S
C1222 C1223 1.386 . S
C1223 C1222 1.386 . S
C1223 C1225 1.395 . S
C1223 H1233 0.930 . S
C1224 C1220 1.395 . S
C1224 C1225 1.379 . S
C1224 H1234 0.930 . S
C1225 C1223 1.395 . S
C1225 C1224 1.379 . S
C1225 H1235 0.930 . S
C1226 O1204 1.264 . S
C1226 O1205 1.254 . S
C1227 Eu1163 2.848 . S
C1227 O1202 1.257 . S
C1227 O1207 1.249 . S
C1227 C1220 1.492 . S
H1228 C1211 0.930 . S
H1229 C1212 0.930 . S
H1230 C1213 0.930 . S
H1231 C1214 0.930 . S
H1232 C1221 0.930 . S
H1233 C1223 0.930 . S
H1234 C1224 0.930 . S
H1235 C1225 0.930 . S
Eu1236 N1267 2.657 . S
Eu1236 N1274 2.609 . S
Eu1236 O1280 2.558 . S
Eu1236 O1281 2.612 . S
Eu1236 O1283 2.339 . S
Eu1236 O1284 2.563 . S
Eu1236 O1285 2.419 . S
Eu1236 O1287 2.380 . S
Eu1236 O1288 2.432 . S
Eu1236 C1300 2.848 . S
C1237 C1240 1.429 . S
C1237 C1241 1.411 . S
C1237 N1244 1.377 . S
C1238 C1240 1.420 . S
C1238 C1242 1.423 . S
C1238 C1250 1.392 . S
C1239 C1241 1.420 . S
C1239 C1242 1.351 . S
C1239 H1262 0.931 . S
C1240 C1237 1.429 . S
C1240 C1238 1.420 . S
C1240 N1248 1.362 . S
C1241 C1237 1.411 . S
C1241 C1239 1.420 . S
C1241 C1246 1.395 . S
C1242 C1238 1.423 . S
C1242 C1239 1.351 . S
C1242 H1254 0.930 . S
C1243 C1245 1.400 . S
C1243 C1246 1.386 . S
C1243 H1255 0.930 . S
N1244 C1237 1.377 . S
N1244 C1245 1.321 . S
N1244 Eu1247 2.609 . S
C1245 C1243 1.400 . S
C1245 N1244 1.321 . S
C1245 H1252 0.930 . S
C1246 C1241 1.395 . S
C1246 C1243 1.386 . S
C1246 H1265 0.930 . S
Eu1247 N1244 2.609 . S
Eu1247 N1248 2.657 . S
Eu1247 O1281 2.380 . S
Eu1247 O1282 2.432 . S
Eu1247 O1286 2.558 . S
Eu1247 O1287 2.612 . S
Eu1247 O1289 2.339 . S
Eu1247 O1290 2.563 . S
Eu1247 O1291 2.419 . S
Eu1247 C1311 2.848 . S
N1248 C1240 1.362 . S
N1248 Eu1247 2.657 . S
N1248 C1249 1.334 . S
C1249 N1248 1.334 . S
C1249 C1251 1.413 . S
C1249 H1256 0.929 . S
C1250 C1238 1.392 . S
C1250 C1251 1.367 . S
C1250 H1258 0.930 . S
C1251 C1249 1.413 . S
C1251 C1250 1.367 . S
C1251 H1253 0.930 . S
H1252 C1245 0.930 . S
H1253 C1251 0.930 . S
H1254 C1242 0.930 . S
H1255 C1243 0.930 . S
H1256 C1249 0.929 . S
H1257 C1271 0.930 . S
H1258 C1250 0.930 . S
H1259 C1277 0.930 . S
H1260 C1268 0.929 . S
H1261 C1275 0.930 . S
H1262 C1239 0.931 . S
H1263 C1269 0.930 . S
H1264 C1302 0.930 . S
H1265 C1246 0.930 . S
H1266 C1301 0.931 . S
N1267 Eu1236 2.657 . S
N1267 C1268 1.334 . S
N1267 C1272 1.362 . S
C1268 H1260 0.929 . S
C1268 N1267 1.334 . S
C1268 C1271 1.413 . S
C1269 H1263 0.930 . S
C1269 C1270 1.392 . S
C1269 C1271 1.367 . S
C1270 C1269 1.392 . S
C1270 C1272 1.420 . S
C1270 C1302 1.423 . S
C1271 H1257 0.930 . S
C1271 C1268 1.413 . S
C1271 C1269 1.367 . S
C1272 N1267 1.362 . S
C1272 C1270 1.420 . S
C1272 C1276 1.429 . S
H1273 C1278 0.930 . S
N1274 Eu1236 2.609 . S
N1274 C1276 1.377 . S
N1274 C1277 1.321 . S
C1275 H1261 0.930 . S
C1275 C1277 1.400 . S
C1275 C1278 1.386 . S
C1276 C1272 1.429 . S
C1276 N1274 1.377 . S
C1276 C1279 1.411 . S
C1277 H1259 0.930 . S
C1277 N1274 1.321 . S
C1277 C1275 1.400 . S
C1278 H1273 0.930 . S
C1278 C1275 1.386 . S
C1278 C1279 1.395 . S
C1279 C1276 1.411 . S
C1279 C1278 1.395 . S
C1279 C1301 1.420 . S
O1280 Eu1236 2.558 . S
O1280 C1300 1.257 . S
O1281 Eu1236 2.612 . S
O1281 Eu1247 2.380 . S
O1281 C1292 1.276 . S
O1282 Eu1247 2.432 . S
O1282 C1299 1.264 . S
O1283 Eu1236 2.339 . S
O1283 C1299 1.254 . S
O1284 Eu1236 2.563 . S
O1284 C1292 1.235 . S
O1285 Eu1236 2.419 . S
O1285 C1300 1.249 . S
O1286 Eu1247 2.558 . S
O1286 C1311 1.257 . S
O1287 Eu1236 2.380 . S
O1287 Eu1247 2.612 . S
O1287 C1303 1.276 . S
O1288 Eu1236 2.432 . S
O1288 C1310 1.264 . S
O1289 Eu1247 2.339 . S
O1289 C1310 1.254 . S
O1290 Eu1247 2.563 . S
O1290 C1303 1.235 . S
O1291 Eu1247 2.419 . S
O1291 C1311 1.249 . S
C1292 O1281 1.276 . S
C1292 O1284 1.235 . S
C1293 C1295 1.393 . S
C1293 C1297 1.395 . S
C1293 C1300 1.492 . S
C1294 C1295 1.392 . S
C1294 C1296 1.386 . S
C1295 C1293 1.393 . S
C1295 C1294 1.392 . S
C1295 H1312 0.930 . S
C1296 C1294 1.386 . S
C1296 C1298 1.395 . S
C1296 H1313 0.930 . S
C1297 C1293 1.395 . S
C1297 C1298 1.379 . S
C1297 H1314 0.930 . S
C1298 C1296 1.395 . S
C1298 C1297 1.379 . S
C1298 H1315 0.930 . S
C1299 O1282 1.264 . S
C1299 O1283 1.254 . S
C1300 Eu1236 2.848 . S
C1300 O1280 1.257 . S
C1300 O1285 1.249 . S
C1300 C1293 1.492 . S
C1301 H1266 0.931 . S
C1301 C1279 1.420 . S
C1301 C1302 1.351 . S
C1302 H1264 0.930 . S
C1302 C1270 1.423 . S
C1302 C1301 1.351 . S
C1303 O1287 1.276 . S
C1303 O1290 1.235 . S
C1304 C1305 1.393 . S
C1304 C1308 1.395 . S
C1304 C1311 1.492 . S
C1305 C1304 1.393 . S
C1305 C1306 1.392 . S
C1305 H1316 0.930 . S
C1306 C1305 1.392 . S
C1306 C1307 1.386 . S
C1307 C1306 1.386 . S
C1307 C1309 1.395 . S
C1307 H1317 0.930 . S
C1308 C1304 1.395 . S
C1308 C1309 1.379 . S
C1308 H1318 0.930 . S
C1309 C1307 1.395 . S
C1309 C1308 1.379 . S
C1309 H1319 0.930 . S
C1310 O1288 1.264 . S
C1310 O1289 1.254 . S
C1311 Eu1247 2.848 . S
C1311 O1286 1.257 . S
C1311 O1291 1.249 . S
C1311 C1304 1.492 . S
H1312 C1295 0.930 . S
H1313 C1296 0.930 . S
H1314 C1297 0.930 . S
H1315 C1298 0.930 . S
H1316 C1305 0.930 . S
H1317 C1307 0.930 . S
H1318 C1308 0.930 . S
H1319 C1309 0.930 . S
Eu1320 N1351 2.657 . S
Eu1320 N1358 2.609 . S
Eu1320 O1364 2.558 . S
Eu1320 O1365 2.612 . S
Eu1320 O1367 2.339 . S
Eu1320 O1368 2.563 . S
Eu1320 O1369 2.419 . S
Eu1320 O1371 2.380 . S
Eu1320 O1372 2.432 . S
Eu1320 C1384 2.848 . S
C1321 C1324 1.429 . S
C1321 C1325 1.411 . S
C1321 N1328 1.377 . S
C1322 C1324 1.420 . S
C1322 C1326 1.423 . S
C1322 C1334 1.392 . S
C1323 C1325 1.420 . S
C1323 C1326 1.351 . S
C1323 H1346 0.931 . S
C1324 C1321 1.429 . S
C1324 C1322 1.420 . S
C1324 N1332 1.362 . S
C1325 C1321 1.411 . S
C1325 C1323 1.420 . S
C1325 C1330 1.395 . S
C1326 C1322 1.423 . S
C1326 C1323 1.351 . S
C1326 H1338 0.930 . S
C1327 C1329 1.400 . S
C1327 C1330 1.386 . S
C1327 H1339 0.930 . S
N1328 C1321 1.377 . S
N1328 C1329 1.321 . S
N1328 Eu1331 2.609 . S
C1329 C1327 1.400 . S
C1329 N1328 1.321 . S
C1329 H1336 0.930 . S
C1330 C1325 1.395 . S
C1330 C1327 1.386 . S
C1330 H1349 0.930 . S
Eu1331 N1328 2.609 . S
Eu1331 N1332 2.657 . S
Eu1331 O1365 2.380 . S
Eu1331 O1366 2.432 . S
Eu1331 O1370 2.558 . S
Eu1331 O1371 2.612 . S
Eu1331 O1373 2.339 . S
Eu1331 O1374 2.563 . S
Eu1331 O1375 2.419 . S
Eu1331 C1395 2.848 . S
N1332 C1324 1.362 . S
N1332 Eu1331 2.657 . S
N1332 C1333 1.334 . S
C1333 N1332 1.334 . S
C1333 C1335 1.413 . S
C1333 H1340 0.929 . S
C1334 C1322 1.392 . S
C1334 C1335 1.367 . S
C1334 H1342 0.930 . S
C1335 C1333 1.413 . S
C1335 C1334 1.367 . S
C1335 H1337 0.930 . S
H1336 C1329 0.930 . S
H1337 C1335 0.930 . S
H1338 C1326 0.930 . S
H1339 C1327 0.930 . S
H1340 C1333 0.929 . S
H1341 C1355 0.930 . S
H1342 C1334 0.930 . S
H1343 C1361 0.930 . S
H1344 C1352 0.929 . S
H1345 C1359 0.930 . S
H1346 C1323 0.931 . S
H1347 C1353 0.930 . S
H1348 C1386 0.930 . S
H1349 C1330 0.930 . S
H1350 C1385 0.931 . S
N1351 Eu1320 2.657 . S
N1351 C1352 1.334 . S
N1351 C1356 1.362 . S
C1352 H1344 0.929 . S
C1352 N1351 1.334 . S
C1352 C1355 1.413 . S
C1353 H1347 0.930 . S
C1353 C1354 1.392 . S
C1353 C1355 1.367 . S
C1354 C1353 1.392 . S
C1354 C1356 1.420 . S
C1354 C1386 1.423 . S
C1355 H1341 0.930 . S
C1355 C1352 1.413 . S
C1355 C1353 1.367 . S
C1356 N1351 1.362 . S
C1356 C1354 1.420 . S
C1356 C1360 1.429 . S
H1357 C1362 0.930 . S
N1358 Eu1320 2.609 . S
N1358 C1360 1.377 . S
N1358 C1361 1.321 . S
C1359 H1345 0.930 . S
C1359 C1361 1.400 . S
C1359 C1362 1.386 . S
C1360 C1356 1.429 . S
C1360 N1358 1.377 . S
C1360 C1363 1.411 . S
C1361 H1343 0.930 . S
C1361 N1358 1.321 . S
C1361 C1359 1.400 . S
C1362 H1357 0.930 . S
C1362 C1359 1.386 . S
C1362 C1363 1.395 . S
C1363 C1360 1.411 . S
C1363 C1362 1.395 . S
C1363 C1385 1.420 . S
O1364 Eu1320 2.558 . S
O1364 C1384 1.257 . S
O1365 Eu1320 2.612 . S
O1365 Eu1331 2.380 . S
O1365 C1376 1.276 . S
O1366 Eu1331 2.432 . S
O1366 C1383 1.264 . S
O1367 Eu1320 2.339 . S
O1367 C1383 1.254 . S
O1368 Eu1320 2.563 . S
O1368 C1376 1.235 . S
O1369 Eu1320 2.419 . S
O1369 C1384 1.249 . S
O1370 Eu1331 2.558 . S
O1370 C1395 1.257 . S
O1371 Eu1320 2.380 . S
O1371 Eu1331 2.612 . S
O1371 C1387 1.276 . S
O1372 Eu1320 2.432 . S
O1372 C1394 1.264 . S
O1373 Eu1331 2.339 . S
O1373 C1394 1.254 . S
O1374 Eu1331 2.563 . S
O1374 C1387 1.235 . S
O1375 Eu1331 2.419 . S
O1375 C1395 1.249 . S
C1376 O1365 1.276 . S
C1376 O1368 1.235 . S
C1377 C1379 1.393 . S
C1377 C1381 1.395 . S
C1377 C1384 1.492 . S
C1378 C1379 1.392 . S
C1378 C1380 1.386 . S
C1379 C1377 1.393 . S
C1379 C1378 1.392 . S
C1379 H1396 0.930 . S
C1380 C1378 1.386 . S
C1380 C1382 1.395 . S
C1380 H1397 0.930 . S
C1381 C1377 1.395 . S
C1381 C1382 1.379 . S
C1381 H1398 0.930 . S
C1382 C1380 1.395 . S
C1382 C1381 1.379 . S
C1382 H1399 0.930 . S
C1383 O1366 1.264 . S
C1383 O1367 1.254 . S
C1384 Eu1320 2.848 . S
C1384 O1364 1.257 . S
C1384 O1369 1.249 . S
C1384 C1377 1.492 . S
C1385 H1350 0.931 . S
C1385 C1363 1.420 . S
C1385 C1386 1.351 . S
C1386 H1348 0.930 . S
C1386 C1354 1.423 . S
C1386 C1385 1.351 . S
C1387 O1371 1.276 . S
C1387 O1374 1.235 . S
C1388 C1389 1.393 . S
C1388 C1392 1.395 . S
C1388 C1395 1.492 . S
C1389 C1388 1.393 . S
C1389 C1390 1.392 . S
C1389 H1400 0.930 . S
C1390 C1389 1.392 . S
C1390 C1391 1.386 . S
C1391 C1390 1.386 . S
C1391 C1393 1.395 . S
C1391 H1401 0.930 . S
C1392 C1388 1.395 . S
C1392 C1393 1.379 . S
C1392 H1402 0.930 . S
C1393 C1391 1.395 . S
C1393 C1392 1.379 . S
C1393 H1403 0.930 . S
C1394 O1372 1.264 . S
C1394 O1373 1.254 . S
C1395 Eu1331 2.848 . S
C1395 O1370 1.257 . S
C1395 O1375 1.249 . S
C1395 C1388 1.492 . S
H1396 C1379 0.930 . S
H1397 C1380 0.930 . S
H1398 C1381 0.930 . S
H1399 C1382 0.930 . S
H1400 C1389 0.930 . S
H1401 C1391 0.930 . S
H1402 C1392 0.930 . S
H1403 C1393 0.930 . S
C1404 C1405 1.363 . S
C1404 C1410 1.379 . S
C1404 N1412 1.356 . S
C1405 C1404 1.363 . S
C1405 C1411 1.363 . S
C1406 C1407 1.363 . S
C1406 C1411 1.379 . S
C1406 N1413 1.356 . S
C1407 C1406 1.363 . S
C1407 C1410 1.363 . S
N1408 C1410 1.356 . S
N1408 H1420 0.984 . S
N1408 H1421 0.985 . S
N1409 C1411 1.356 . S
N1409 H1414 0.984 . S
N1409 H1415 0.985 . S
C1410 C1404 1.379 . S
C1410 C1407 1.363 . S
C1410 N1408 1.356 . S
C1411 C1405 1.363 . S
C1411 C1406 1.379 . S
C1411 N1409 1.356 . S
N1412 C1404 1.356 . S
N1412 H1418 0.984 . S
N1412 H1419 0.984 . S
N1413 C1406 1.356 . S
N1413 H1416 0.984 . S
N1413 H1417 0.985 1_554 S
H1414 N1409 0.984 . S
H1415 N1409 0.985 . S
H1416 N1413 0.984 . S
H1417 N1413 0.985 1_556 S
H1418 N1412 0.984 . S
H1419 N1412 0.984 . S
H1420 N1408 0.984 . S
H1421 N1408 0.985 . S
C1422 C1423 1.363 . S
C1422 C1428 1.379 . S
C1422 N1430 1.356 . S
C1423 C1422 1.363 . S
C1423 C1429 1.363 . S
C1424 C1425 1.363 . S
C1424 C1429 1.379 . S
C1424 N1431 1.356 . S
C1425 C1424 1.363 . S
C1425 C1428 1.363 . S
N1426 C1428 1.356 1_556 S
N1426 H1438 0.984 . S
N1426 H1439 0.985 . S
N1427 C1429 1.356 . S
N1427 H1432 0.984 . S
N1427 H1433 0.985 . S
C1428 C1422 1.379 . S
C1428 C1425 1.363 . S
C1428 N1426 1.356 1_554 S
C1429 C1423 1.363 . S
C1429 C1424 1.379 . S
C1429 N1427 1.356 . S
N1430 C1422 1.356 . S
N1430 H1436 0.984 1_554 S
N1430 H1437 0.984 . S
N1431 C1424 1.356 . S
N1431 H1434 0.984 . S
N1431 H1435 0.985 . S
H1432 N1427 0.984 . S
H1433 N1427 0.985 . S
H1434 N1431 0.984 . S
H1435 N1431 0.985 . S
H1436 N1430 0.984 1_556 S
H1437 N1430 0.984 . S
H1438 N1426 0.984 . S
H1439 N1426 0.985 . S
C1440 C1441 1.363 . S
C1440 C1446 1.379 . S
C1440 N1448 1.356 . S
C1441 C1440 1.363 . S
C1441 C1447 1.363 . S
C1442 C1443 1.363 . S
C1442 C1447 1.379 . S
C1442 N1449 1.356 . S
C1443 C1442 1.363 . S
C1443 C1446 1.363 . S
N1444 C1446 1.356 . S
N1444 H1456 1.009 . S
N1444 H1457 0.985 . S
N1445 C1447 1.356 . S
N1445 H1450 0.984 . S
N1445 H1451 0.985 . S
C1446 C1440 1.379 . S
C1446 C1443 1.363 . S
C1446 N1444 1.356 . S
C1447 C1441 1.363 . S
C1447 C1442 1.379 . S
C1447 N1445 1.356 . S
N1448 C1440 1.356 . S
N1448 H1454 0.984 . S
N1448 H1455 0.984 . S
N1449 C1442 1.356 . S
N1449 H1452 0.984 . S
N1449 H1453 0.985 . S
H1450 N1445 0.984 . S
H1451 N1445 0.985 . S
H1452 N1449 0.984 . S
H1453 N1449 0.985 . S
H1454 N1448 0.984 . S
H1455 N1448 0.984 . S
H1456 N1444 1.009 . S
H1457 N1444 0.985 . S
C1458 C1459 1.363 . S
C1458 C1464 1.379 . S
C1458 N1466 1.356 . S
C1459 C1458 1.363 . S
C1459 C1465 1.363 . S
C1460 C1461 1.363 . S
C1460 C1465 1.379 . S
C1460 N1467 1.356 . S
C1461 C1460 1.363 . S
C1461 C1464 1.363 . S
N1462 C1464 1.356 . S
N1462 H1474 0.980 1_556 S
N1462 H1475 0.985 . S
N1463 C1465 1.356 . S
N1463 H1468 0.984 . S
N1463 H1469 0.985 . S
C1464 C1458 1.379 . S
C1464 C1461 1.363 . S
C1464 N1462 1.356 . S
C1465 C1459 1.363 . S
C1465 C1460 1.379 . S
C1465 N1463 1.356 . S
N1466 C1458 1.356 . S
N1466 H1472 0.984 . S
N1466 H1473 0.984 . S
N1467 C1460 1.356 . S
N1467 H1470 0.984 . S
N1467 H1471 0.985 . S
H1468 N1463 0.984 . S
H1469 N1463 0.985 . S
H1470 N1467 0.984 . S
H1471 N1467 0.985 . S
H1472 N1466 0.984 . S
H1473 N1466 0.984 . S
H1474 N1462 0.980 1_554 S
H1475 N1462 0.985 . S
C1476 C1477 1.363 . S
C1476 C1482 1.379 . S
C1476 N1484 1.356 . S
C1477 C1476 1.363 . S
C1477 C1483 1.363 . S
C1478 C1479 1.363 . S
C1478 C1483 1.379 . S
C1478 N1485 1.356 . S
C1479 C1478 1.363 . S
C1479 C1482 1.363 . S
N1480 C1482 1.356 1_554 S
N1480 H1492 0.984 . S
N1480 H1493 0.985 . S
N1481 C1483 1.356 . S
N1481 H1486 0.984 . S
N1481 H1487 0.985 . S
C1482 C1476 1.379 . S
C1482 C1479 1.363 . S
C1482 N1480 1.356 1_556 S
C1483 C1477 1.363 . S
C1483 C1478 1.379 . S
C1483 N1481 1.356 . S
N1484 C1476 1.356 . S
N1484 H1490 0.984 . S
N1484 H1491 0.984 . S
N1485 C1478 1.356 . S
N1485 H1488 0.984 . S
N1485 H1489 0.985 . S
H1486 N1481 0.984 . S
H1487 N1481 0.985 . S
H1488 N1485 0.984 . S
H1489 N1485 0.985 . S
H1490 N1484 0.984 . S
H1491 N1484 0.984 . S
H1492 N1480 0.984 . S
H1493 N1480 0.985 . S
C1494 C1495 1.363 . S
C1494 C1500 1.379 . S
C1494 N1502 1.356 . S
C1495 C1494 1.363 . S
C1495 C1501 1.363 . S
C1496 C1497 1.363 . S
C1496 C1501 1.379 . S
C1496 N1503 1.356 1_556 S
C1497 C1496 1.363 . S
C1497 C1500 1.363 . S
N1498 C1500 1.356 . S
N1498 H1510 0.984 . S
N1498 H1511 0.985 . S
N1499 C1501 1.356 . S
N1499 H1504 0.984 . S
N1499 H1505 0.985 1_556 S
C1500 C1494 1.379 . S
C1500 C1497 1.363 . S
C1500 N1498 1.356 . S
C1501 C1495 1.363 . S
C1501 C1496 1.379 . S
C1501 N1499 1.356 . S
N1502 C1494 1.356 . S
N1502 H1508 0.984 . S
N1502 H1509 0.984 . S
N1503 C1496 1.356 1_554 S
N1503 H1506 0.984 . S
N1503 H1507 0.985 . S
H1504 N1499 0.984 . S
H1505 N1499 0.985 1_554 S
H1506 N1503 0.984 . S
H1507 N1503 0.985 . S
H1508 N1502 0.984 . S
H1509 N1502 0.984 . S
H1510 N1498 0.984 . S
H1511 N1498 0.985 . S
C1512 C1513 1.363 . S
C1512 C1518 1.379 . S
C1512 N1520 1.356 . S
C1513 C1512 1.363 . S
C1513 C1519 1.363 . S
C1514 C1515 1.363 . S
C1514 C1519 1.379 . S
C1514 N1521 1.356 . S
C1515 C1514 1.363 . S
C1515 C1518 1.363 . S
N1516 C1518 1.356 . S
N1516 H1528 0.984 . S
N1516 H1529 0.985 . S
N1517 C1519 1.356 . S
N1517 H1522 0.984 . S
N1517 H1523 0.985 . S
C1518 C1512 1.379 . S
C1518 C1515 1.363 . S
C1518 N1516 1.356 . S
C1519 C1513 1.363 . S
C1519 C1514 1.379 . S
C1519 N1517 1.356 . S
N1520 C1512 1.356 . S
N1520 H1526 0.984 . S
N1520 H1527 0.984 . S
N1521 C1514 1.356 . S
N1521 H1524 0.984 . S
N1521 H1525 0.985 . S
H1522 N1517 0.984 . S
H1523 N1517 0.985 . S
H1524 N1521 0.984 . S
H1525 N1521 0.985 . S
H1526 N1520 0.984 . S
H1527 N1520 0.984 . S
H1528 N1516 0.984 . S
H1529 N1516 0.985 . S
C1530 C1531 1.363 . S
C1530 C1536 1.379 . S
C1530 N1538 1.356 . S
C1531 C1530 1.363 . S
C1531 C1537 1.363 . S
C1532 C1533 1.363 . S
C1532 C1537 1.379 . S
C1532 N1539 1.356 . S
C1533 C1532 1.363 . S
C1533 C1536 1.363 . S
N1534 C1536 1.356 . S
N1534 H1546 0.984 . S
N1534 H1547 0.985 . S
N1535 C1537 1.356 . S
N1535 H1540 0.984 . S
N1535 H1541 0.985 . S
C1536 C1530 1.379 . S
C1536 C1533 1.363 . S
C1536 N1534 1.356 . S
C1537 C1531 1.363 . S
C1537 C1532 1.379 . S
C1537 N1535 1.356 . S
N1538 C1530 1.356 . S
N1538 H1544 0.984 . S
N1538 H1545 0.984 . S
N1539 C1532 1.356 . S
N1539 H1542 0.984 . S
N1539 H1543 0.985 . S
H1540 N1535 0.984 . S
H1541 N1535 0.985 . S
H1542 N1539 0.984 . S
H1543 N1539 0.985 . S
H1544 N1538 0.984 . S
H1545 N1538 0.984 . S
H1546 N1534 0.984 . S
H1547 N1534 0.985 . S
C1548 C1549 1.363 . S
C1548 C1554 1.379 . S
C1548 N1556 1.356 . S
C1549 C1548 1.363 . S
C1549 C1555 1.363 . S
C1550 C1551 1.363 . S
C1550 C1555 1.379 . S
C1550 N1557 1.356 . S
C1551 C1550 1.363 . S
C1551 C1554 1.363 . S
N1552 C1554 1.356 1_554 S
N1552 H1564 0.984 . S
N1552 H1565 0.985 . S
N1553 C1555 1.356 . S
N1553 H1558 0.984 . S
N1553 H1559 0.985 . S
C1554 C1548 1.379 . S
C1554 C1551 1.363 . S
C1554 N1552 1.356 1_556 S
C1555 C1549 1.363 . S
C1555 C1550 1.379 . S
C1555 N1553 1.356 . S
N1556 C1548 1.356 . S
N1556 H1562 0.984 1_556 S
N1556 H1563 0.984 . S
N1557 C1550 1.356 . S
N1557 H1560 0.984 . S
N1557 H1561 0.985 . S
H1558 N1553 0.984 . S
H1559 N1553 0.985 . S
H1560 N1557 0.984 . S
H1561 N1557 0.985 . S
H1562 N1556 0.984 1_554 S
H1563 N1556 0.984 . S
H1564 N1552 0.984 . S
H1565 N1552 0.985 . S
C1566 C1567 1.363 . S
C1566 C1572 1.379 . S
C1566 N1574 1.356 . S
C1567 C1566 1.363 . S
C1567 C1573 1.363 . S
C1568 C1569 1.363 . S
C1568 C1573 1.379 . S
C1568 N1575 1.354 . S
C1569 C1568 1.363 . S
C1569 C1572 1.363 . S
N1570 C1572 1.356 . S
N1570 H1582 0.984 . S
N1570 H1583 0.985 . S
N1571 C1573 1.356 . S
N1571 H1576 0.984 . S
N1571 H1577 0.985 . S
C1572 C1566 1.379 . S
C1572 C1569 1.363 . S
C1572 N1570 1.356 . S
C1573 C1567 1.363 . S
C1573 C1568 1.379 . S
C1573 N1571 1.356 . S
N1574 C1566 1.356 . S
N1574 H1580 0.984 . S
N1574 H1581 0.984 . S
N1575 C1568 1.354 . S
N1575 H1578 0.982 1_554 S
N1575 H1579 0.987 1_554 S
H1576 N1571 0.984 . S
H1577 N1571 0.985 . S
H1578 N1575 0.982 1_556 S
H1579 N1575 0.987 1_556 S
H1580 N1574 0.984 . S
H1581 N1574 0.984 . S
H1582 N1570 0.984 . S
H1583 N1570 0.985 . S
C1584 C1585 1.363 . S
C1584 C1590 1.379 . S
C1584 N1592 1.356 . S
C1585 C1584 1.363 . S
C1585 C1591 1.363 . S
C1586 C1587 1.363 . S
C1586 C1591 1.379 . S
C1586 N1593 1.356 . S
C1587 C1586 1.363 . S
C1587 C1590 1.363 . S
N1588 C1590 1.356 . S
N1588 H1600 0.984 . S
N1588 H1601 0.985 . S
N1589 C1591 1.356 . S
N1589 H1594 0.984 . S
N1589 H1595 0.985 . S
C1590 C1584 1.379 . S
C1590 C1587 1.363 . S
C1590 N1588 1.356 . S
C1591 C1585 1.363 . S
C1591 C1586 1.379 . S
C1591 N1589 1.356 . S
N1592 C1584 1.356 . S
N1592 H1598 0.984 . S
N1592 H1599 0.984 . S
N1593 C1586 1.356 . S
N1593 H1596 0.984 . S
N1593 H1597 0.985 . S
H1594 N1589 0.984 . S
H1595 N1589 0.985 . S
H1596 N1593 0.984 . S
H1597 N1593 0.985 . S
H1598 N1592 0.984 . S
H1599 N1592 0.984 . S
H1600 N1588 0.984 . S
H1601 N1588 0.985 . S
C1602 C1603 1.363 . S
C1602 C1608 1.379 . S
C1602 N1610 1.356 . S
C1603 C1602 1.363 . S
C1603 C1609 1.363 . S
C1604 C1605 1.363 . S
C1604 C1609 1.379 . S
C1604 N1611 1.356 . S
C1605 C1604 1.363 . S
C1605 C1608 1.363 . S
N1606 C1608 1.356 . S
N1606 H1618 0.984 . S
N1606 H1619 0.985 . S
N1607 C1609 1.356 . S
N1607 H1612 0.984 . S
N1607 H1613 0.985 . S
C1608 C1602 1.379 . S
C1608 C1605 1.363 . S
C1608 N1606 1.356 . S
C1609 C1603 1.363 . S
C1609 C1604 1.379 . S
C1609 N1607 1.356 . S
N1610 C1602 1.356 . S
N1610 H1616 0.984 . S
N1610 H1617 0.984 . S
N1611 C1604 1.356 . S
N1611 H1614 0.984 . S
N1611 H1615 0.985 . S
H1612 N1607 0.984 . S
H1613 N1607 0.985 . S
H1614 N1611 0.984 . S
H1615 N1611 0.985 . S
H1616 N1610 0.984 . S
H1617 N1610 0.984 . S
H1618 N1606 0.984 . S
H1619 N1606 0.985 . S
C1620 C1621 1.363 . S
C1620 C1626 1.379 . S
C1620 N1628 1.356 . S
C1621 C1620 1.363 . S
C1621 C1627 1.363 . S
C1622 C1623 1.363 . S
C1622 C1627 1.379 . S
C1622 N1629 1.356 . S
C1623 C1622 1.363 . S
C1623 C1626 1.363 . S
N1624 C1626 1.356 . S
N1624 H1636 0.984 . S
N1624 H1637 0.985 . S
N1625 C1627 1.356 . S
N1625 H1630 0.984 1_455 S
N1625 H1631 0.985 . S
C1626 C1620 1.379 . S
C1626 C1623 1.363 . S
C1626 N1624 1.356 . S
C1627 C1621 1.363 . S
C1627 C1622 1.379 . S
C1627 N1625 1.356 . S
N1628 C1620 1.356 . S
N1628 H1634 0.984 . S
N1628 H1635 0.984 1_455 S
N1629 C1622 1.356 . S
N1629 H1632 0.984 . S
N1629 H1633 0.985 . S
H1630 N1625 0.984 1_655 S
H1631 N1625 0.985 . S
H1632 N1629 0.984 . S
H1633 N1629 0.985 . S
H1634 N1628 0.984 . S
H1635 N1628 0.984 1_655 S
H1636 N1624 0.984 . S
H1637 N1624 0.985 . S
C1638 C1639 1.363 . S
C1638 C1644 1.379 . S
C1638 N1646 1.356 . S
C1639 C1638 1.363 . S
C1639 C1645 1.363 . S
C1640 C1641 1.363 . S
C1640 C1645 1.379 . S
C1640 N1647 1.356 . S
C1641 C1640 1.363 . S
C1641 C1644 1.363 . S
N1642 C1644 1.356 . S
N1642 H1654 0.984 . S
N1642 H1655 0.985 . S
N1643 C1645 1.356 . S
N1643 H1648 0.984 . S
N1643 H1649 0.985 . S
C1644 C1638 1.379 . S
C1644 C1641 1.363 . S
C1644 N1642 1.356 . S
C1645 C1639 1.363 . S
C1645 C1640 1.379 . S
C1645 N1643 1.356 . S
N1646 C1638 1.356 . S
N1646 H1652 0.984 . S
N1646 H1653 0.984 . S
N1647 C1640 1.356 . S
N1647 H1650 0.984 . S
N1647 H1651 0.985 . S
H1648 N1643 0.984 . S
H1649 N1643 0.985 . S
H1650 N1647 0.984 . S
H1651 N1647 0.985 . S
H1652 N1646 0.984 . S
H1653 N1646 0.984 . S
H1654 N1642 0.984 . S
H1655 N1642 0.985 . S
C1656 C1657 1.363 . S
C1656 C1662 1.379 . S
C1656 N1664 1.356 . S
C1657 C1656 1.363 . S
C1657 C1663 1.363 . S
C1658 C1659 1.363 . S
C1658 C1663 1.379 . S
C1658 N1665 1.356 . S
C1659 C1658 1.363 . S
C1659 C1662 1.363 . S
N1660 C1662 1.356 . S
N1660 H1672 0.984 . S
N1660 H1673 0.985 . S
N1661 C1663 1.356 1_545 S
N1661 H1666 0.984 . S
N1661 H1667 0.985 . S
C1662 C1656 1.379 . S
C1662 C1659 1.363 . S
C1662 N1660 1.356 . S
C1663 C1657 1.363 . S
C1663 C1658 1.379 . S
C1663 N1661 1.356 1_565 S
N1664 C1656 1.356 . S
N1664 H1670 0.984 . S
N1664 H1671 0.984 1_565 S
N1665 C1658 1.356 . S
N1665 H1668 0.984 . S
N1665 H1669 0.985 . S
H1666 N1661 0.984 . S
H1667 N1661 0.985 . S
H1668 N1665 0.984 . S
H1669 N1665 0.985 . S
H1670 N1664 0.984 . S
H1671 N1664 0.984 1_545 S
H1672 N1660 0.984 . S
H1673 N1660 0.985 . S
C1674 C1675 1.363 . S
C1674 C1680 1.379 . S
C1674 N1682 1.356 . S
C1675 C1674 1.363 . S
C1675 C1681 1.363 . S
C1676 C1677 1.363 . S
C1676 C1681 1.379 . S
C1676 N1683 1.356 . S
C1677 C1676 1.363 . S
C1677 C1680 1.363 . S
N1678 C1680 1.356 . S
N1678 H1690 0.984 . S
N1678 H1691 0.985 . S
N1679 C1681 1.356 . S
N1679 H1684 0.984 . S
N1679 H1685 0.985 . S
C1680 C1674 1.379 . S
C1680 C1677 1.363 . S
C1680 N1678 1.356 . S
C1681 C1675 1.363 . S
C1681 C1676 1.379 . S
C1681 N1679 1.356 . S
N1682 C1674 1.356 . S
N1682 H1688 0.984 . S
N1682 H1689 0.984 . S
N1683 C1676 1.356 . S
N1683 H1686 0.984 . S
N1683 H1687 0.985 . S
H1684 N1679 0.984 . S
H1685 N1679 0.985 . S
H1686 N1683 0.984 . S
H1687 N1683 0.985 . S
H1688 N1682 0.984 . S
H1689 N1682 0.984 . S
H1690 N1678 0.984 . S
H1691 N1678 0.985 . S
C1692 C1693 1.363 . S
C1692 C1698 1.379 . S
C1692 N1700 1.356 . S
C1693 C1692 1.363 . S
C1693 C1699 1.363 . S
C1694 C1695 1.363 . S
C1694 C1699 1.379 . S
C1694 N1701 1.356 . S
C1695 C1694 1.363 . S
C1695 C1698 1.363 . S
N1696 C1698 1.356 . S
N1696 H1708 0.984 . S
N1696 H1709 0.985 . S
N1697 C1699 1.356 . S
N1697 H1702 0.984 . S
N1697 H1703 0.985 . S
C1698 C1692 1.379 . S
C1698 C1695 1.363 . S
C1698 N1696 1.356 . S
C1699 C1693 1.363 . S
C1699 C1694 1.379 . S
C1699 N1697 1.356 . S
N1700 C1692 1.356 . S
N1700 H1706 0.984 . S
N1700 H1707 0.984 . S
N1701 C1694 1.356 . S
N1701 H1704 0.984 . S
N1701 H1705 0.985 . S
H1702 N1697 0.984 . S
H1703 N1697 0.985 . S
H1704 N1701 0.984 . S
H1705 N1701 0.985 . S
H1706 N1700 0.984 . S
H1707 N1700 0.984 . S
H1708 N1696 0.984 . S
H1709 N1696 0.985 . S
C1710 C1711 1.363 . S
C1710 C1716 1.379 . S
C1710 N1718 1.356 . S
C1711 C1710 1.363 . S
C1711 C1717 1.363 . S
C1712 C1713 1.363 . S
C1712 C1717 1.379 . S
C1712 N1719 1.356 . S
C1713 C1712 1.363 . S
C1713 C1716 1.363 . S
N1714 C1716 1.356 . S
N1714 H1726 0.984 . S
N1714 H1727 0.985 . S
N1715 C1717 1.356 . S
N1715 H1720 0.984 . S
N1715 H1721 0.985 . S
C1716 C1710 1.379 . S
C1716 C1713 1.363 . S
C1716 N1714 1.356 . S
C1717 C1711 1.363 . S
C1717 C1712 1.379 . S
C1717 N1715 1.356 . S
N1718 C1710 1.356 . S
N1718 H1724 0.984 . S
N1718 H1725 0.984 . S
N1719 C1712 1.356 . S
N1719 H1722 0.984 . S
N1719 H1723 0.985 . S
H1720 N1715 0.984 . S
H1721 N1715 0.985 . S
H1722 N1719 0.984 . S
H1723 N1719 0.985 . S
H1724 N1718 0.984 . S
H1725 N1718 0.984 . S
H1726 N1714 0.984 . S
H1727 N1714 0.985 . S
C1728 C1729 1.363 . S
C1728 C1734 1.379 . S
C1728 N1736 1.356 . S
C1729 C1728 1.363 . S
C1729 C1735 1.363 . S
C1730 C1731 1.363 . S
C1730 C1735 1.379 . S
C1730 N1737 1.356 . S
C1731 C1730 1.363 . S
C1731 C1734 1.363 . S
N1732 C1734 1.356 . S
N1732 H1744 0.984 . S
N1732 H1745 0.985 . S
N1733 C1735 1.356 . S
N1733 H1738 0.984 . S
N1733 H1739 0.985 . S
C1734 C1728 1.379 . S
C1734 C1731 1.363 . S
C1734 N1732 1.356 . S
C1735 C1729 1.363 . S
C1735 C1730 1.379 . S
C1735 N1733 1.356 . S
N1736 C1728 1.356 . S
N1736 H1742 0.984 . S
N1736 H1743 0.984 . S
N1737 C1730 1.356 . S
N1737 H1740 0.984 . S
N1737 H1741 0.985 . S
H1738 N1733 0.984 . S
H1739 N1733 0.985 . S
H1740 N1737 0.984 . S
H1741 N1737 0.985 . S
H1742 N1736 0.984 . S
H1743 N1736 0.984 . S
H1744 N1732 0.984 . S
H1745 N1732 0.985 . S
C1746 C1747 1.363 . S
C1746 C1752 1.379 . S
C1746 N1754 1.356 . S
C1747 C1746 1.363 . S
C1747 C1753 1.363 . S
C1748 C1749 1.363 . S
C1748 C1753 1.379 . S
C1748 N1755 1.356 . S
C1749 C1748 1.363 . S
C1749 C1752 1.363 . S
N1750 C1752 1.356 . S
N1750 H1762 0.984 . S
N1750 H1763 0.985 . S
N1751 C1753 1.356 . S
N1751 H1756 0.984 . S
N1751 H1757 0.985 . S
C1752 C1746 1.379 . S
C1752 C1749 1.363 . S
C1752 N1750 1.356 . S
C1753 C1747 1.363 . S
C1753 C1748 1.379 . S
C1753 N1751 1.356 . S
N1754 C1746 1.356 . S
N1754 H1760 0.984 . S
N1754 H1761 0.984 . S
N1755 C1748 1.356 . S
N1755 H1758 0.984 . S
N1755 H1759 0.985 . S
H1756 N1751 0.984 . S
H1757 N1751 0.985 . S
H1758 N1755 0.984 . S
H1759 N1755 0.985 . S
H1760 N1754 0.984 . S
H1761 N1754 0.984 . S
H1762 N1750 0.984 . S
H1763 N1750 0.985 . S
C1764 C1765 1.363 . S
C1764 C1770 1.379 . S
C1764 N1772 1.356 . S
C1765 C1764 1.363 . S
C1765 C1771 1.363 . S
C1766 C1767 1.363 . S
C1766 C1771 1.379 . S
C1766 N1773 1.356 . S
C1767 C1766 1.363 . S
C1767 C1770 1.363 . S
N1768 C1770 1.356 . S
N1768 H1780 0.984 . S
N1768 H1781 0.985 . S
N1769 C1771 1.356 . S
N1769 H1774 0.984 . S
N1769 H1775 0.985 . S
C1770 C1764 1.379 . S
C1770 C1767 1.363 . S
C1770 N1768 1.356 . S
C1771 C1765 1.363 . S
C1771 C1766 1.379 . S
C1771 N1769 1.356 . S
N1772 C1764 1.356 . S
N1772 H1778 0.984 . S
N1772 H1779 0.984 . S
N1773 C1766 1.356 . S
N1773 H1776 0.984 . S
N1773 H1777 0.985 . S
H1774 N1769 0.984 . S
H1775 N1769 0.985 . S
H1776 N1773 0.984 . S
H1777 N1773 0.985 . S
H1778 N1772 0.984 . S
H1779 N1772 0.984 . S
H1780 N1768 0.984 . S
H1781 N1768 0.985 . S
C1782 C1783 1.363 . S
C1782 C1788 1.379 . S
C1782 N1790 1.356 1_565 S
C1783 C1782 1.363 . S
C1783 C1789 1.363 . S
C1784 C1785 1.363 . S
C1784 C1789 1.379 . S
C1784 N1791 1.356 . S
C1785 C1784 1.363 . S
C1785 C1788 1.363 . S
N1786 C1788 1.356 . S
N1786 H1798 0.984 . S
N1786 H1799 0.985 . S
N1787 C1789 1.356 . S
N1787 H1792 0.984 . S
N1787 H1793 0.985 . S
C1788 C1782 1.379 . S
C1788 C1785 1.363 . S
C1788 N1786 1.356 . S
C1789 C1783 1.363 . S
C1789 C1784 1.379 . S
C1789 N1787 1.356 . S
N1790 C1782 1.356 1_545 S
N1790 H1796 0.984 . S
N1790 H1797 0.984 . S
N1791 C1784 1.356 . S
N1791 H1794 0.984 . S
N1791 H1795 0.985 . S
H1792 N1787 0.984 . S
H1793 N1787 0.985 . S
H1794 N1791 0.984 . S
H1795 N1791 0.985 . S
H1796 N1790 0.984 . S
H1797 N1790 0.984 . S
H1798 N1786 0.984 . S
H1799 N1786 0.985 . S
C1800 C1801 1.363 . S
C1800 C1806 1.379 . S
C1800 N1808 1.356 . S
C1801 C1800 1.363 . S
C1801 C1807 1.363 . S
C1802 C1803 1.363 . S
C1802 C1807 1.379 . S
C1802 N1809 1.356 . S
C1803 C1802 1.363 . S
C1803 C1806 1.363 . S
N1804 C1806 1.356 . S
N1804 H1816 0.984 . S
N1804 H1817 0.985 . S
N1805 C1807 1.356 . S
N1805 H1810 0.984 . S
N1805 H1811 0.985 . S
C1806 C1800 1.379 . S
C1806 C1803 1.363 . S
C1806 N1804 1.356 . S
C1807 C1801 1.363 . S
C1807 C1802 1.379 . S
C1807 N1805 1.356 . S
N1808 C1800 1.356 . S
N1808 H1814 0.984 . S
N1808 H1815 0.984 1_455 S
N1809 C1802 1.356 . S
N1809 H1812 0.984 . S
N1809 H1813 0.985 . S
H1810 N1805 0.984 . S
H1811 N1805 0.985 . S
H1812 N1809 0.984 . S
H1813 N1809 0.985 . S
H1814 N1808 0.984 . S
H1815 N1808 0.984 1_655 S
H1816 N1804 0.984 . S
H1817 N1804 0.985 . S
C1818 C1819 1.363 . S
C1818 C1824 1.379 . S
C1818 N1826 1.356 . S
C1819 C1818 1.363 . S
C1819 C1825 1.363 . S
C1820 C1821 1.363 . S
C1820 C1825 1.379 . S
C1820 N1827 1.356 . S
C1821 C1820 1.363 . S
C1821 C1824 1.363 . S
N1822 C1824 1.356 . S
N1822 H1834 0.984 . S
N1822 H1835 0.985 . S
N1823 C1825 1.356 . S
N1823 H1828 0.984 . S
N1823 H1829 0.985 . S
C1824 C1818 1.379 . S
C1824 C1821 1.363 . S
C1824 N1822 1.356 . S
C1825 C1819 1.363 . S
C1825 C1820 1.379 . S
C1825 N1823 1.356 . S
N1826 C1818 1.356 . S
N1826 H1832 0.984 . S
N1826 H1833 0.984 . S
N1827 C1820 1.356 . S
N1827 H1830 0.984 . S
N1827 H1831 0.985 . S
H1828 N1823 0.984 . S
H1829 N1823 0.985 . S
H1830 N1827 0.984 . S
H1831 N1827 0.985 . S
H1832 N1826 0.984 . S
H1833 N1826 0.984 . S
H1834 N1822 0.984 . S
H1835 N1822 0.985 . S
C1836 C1837 1.363 . S
C1836 C1842 1.379 . S
C1836 N1844 1.356 . S
C1837 C1836 1.363 . S
C1837 C1843 1.363 . S
C1838 C1839 1.363 . S
C1838 C1843 1.379 . S
C1838 N1845 1.356 . S
C1839 C1838 1.363 . S
C1839 C1842 1.363 . S
N1840 C1842 1.356 . S
N1840 H1852 0.984 . S
N1840 H1853 0.985 . S
N1841 C1843 1.356 . S
N1841 H1846 0.984 . S
N1841 H1847 0.985 . S
C1842 C1836 1.379 . S
C1842 C1839 1.363 . S
C1842 N1840 1.356 . S
C1843 C1837 1.363 . S
C1843 C1838 1.379 . S
C1843 N1841 1.356 . S
N1844 C1836 1.356 . S
N1844 H1850 0.984 . S
N1844 H1851 0.984 . S
N1845 C1838 1.356 . S
N1845 H1848 0.984 . S
N1845 H1849 0.985 . S
H1846 N1841 0.984 . S
H1847 N1841 0.985 . S
H1848 N1845 0.984 . S
H1849 N1845 0.985 . S
H1850 N1844 0.984 . S
H1851 N1844 0.984 . S
H1852 N1840 0.984 . S
H1853 N1840 0.985 . S
C1854 C1855 1.363 . S
C1854 C1860 1.379 . S
C1854 N1862 1.356 . S
C1855 C1854 1.363 . S
C1855 C1861 1.363 . S
C1856 C1857 1.363 . S
C1856 C1861 1.379 . S
C1856 N1863 1.356 . S
C1857 C1856 1.363 . S
C1857 C1860 1.363 . S
N1858 C1860 1.356 . S
N1858 H1870 0.984 . S
N1858 H1871 0.985 . S
N1859 C1861 1.356 . S
N1859 H1864 0.984 . S
N1859 H1865 0.985 . S
C1860 C1854 1.379 . S
C1860 C1857 1.363 . S
C1860 N1858 1.356 . S
C1861 C1855 1.363 . S
C1861 C1856 1.379 . S
C1861 N1859 1.356 . S
N1862 C1854 1.356 . S
N1862 H1868 0.984 . S
N1862 H1869 0.984 . S
N1863 C1856 1.356 . S
N1863 H1866 0.984 . S
N1863 H1867 0.985 . S
H1864 N1859 0.984 . S
H1865 N1859 0.985 . S
H1866 N1863 0.984 . S
H1867 N1863 0.985 . S
H1868 N1862 0.984 . S
H1869 N1862 0.984 . S
H1870 N1858 0.984 . S
H1871 N1858 0.985 . S
C1872 C1873 1.363 . S
C1872 C1878 1.379 . S
C1872 N1880 1.356 . S
C1873 C1872 1.363 . S
C1873 C1879 1.363 . S
C1874 C1875 1.363 . S
C1874 C1879 1.379 . S
C1874 N1881 1.356 . S
C1875 C1874 1.363 . S
C1875 C1878 1.363 . S
N1876 C1878 1.356 . S
N1876 H1888 0.984 . S
N1876 H1889 0.985 . S
N1877 C1879 1.356 . S
N1877 H1882 0.984 . S
N1877 H1883 0.985 . S
C1878 C1872 1.379 . S
C1878 C1875 1.363 . S
C1878 N1876 1.356 . S
C1879 C1873 1.363 . S
C1879 C1874 1.379 . S
C1879 N1877 1.356 . S
N1880 C1872 1.356 . S
N1880 H1886 0.984 . S
N1880 H1887 0.984 . S
N1881 C1874 1.356 . S
N1881 H1884 0.984 . S
N1881 H1885 0.985 . S
H1882 N1877 0.984 . S
H1883 N1877 0.985 . S
H1884 N1881 0.984 . S
H1885 N1881 0.985 . S
H1886 N1880 0.984 . S
H1887 N1880 0.984 . S
H1888 N1876 0.984 . S
H1889 N1876 0.985 . S
C1890 C1891 1.363 . S
C1890 C1896 1.379 . S
C1890 N1898 1.356 . S
C1891 C1890 1.363 . S
C1891 C1897 1.363 . S
C1892 C1893 1.363 . S
C1892 C1897 1.379 . S
C1892 N1899 1.356 . S
C1893 C1892 1.363 . S
C1893 C1896 1.363 . S
N1894 C1896 1.356 . S
N1894 H1906 0.984 . S
N1894 H1907 0.985 . S
N1895 C1897 1.341 1_565 S
N1895 H1900 1.004 . S
N1895 H1901 0.981 . S
C1896 C1890 1.379 . S
C1896 C1893 1.363 . S
C1896 N1894 1.356 . S
C1897 C1891 1.363 . S
C1897 C1892 1.379 . S
C1897 N1895 1.341 1_545 S
N1898 C1890 1.356 . S
N1898 H1904 0.984 . S
N1898 H1905 1.010 . S
N1899 C1892 1.356 . S
N1899 H1902 0.984 . S
N1899 H1903 0.985 . S
H1900 N1895 1.004 . S
H1901 N1895 0.981 . S
H1902 N1899 0.984 . S
H1903 N1899 0.985 . S
H1904 N1898 0.984 . S
H1905 N1898 1.010 . S
H1906 N1894 0.984 . S
H1907 N1894 0.985 . S
C1908 C1909 1.363 . S
C1908 C1914 1.379 . S
C1908 N1916 1.356 . S
C1909 C1908 1.363 . S
C1909 C1915 1.363 . S
C1910 C1911 1.363 . S
C1910 C1915 1.379 . S
C1910 N1917 1.356 . S
C1911 C1910 1.363 . S
C1911 C1914 1.363 . S
N1912 C1914 1.356 . S
N1912 H1924 0.984 . S
N1912 H1925 0.985 . S
N1913 C1915 1.356 . S
N1913 H1918 0.984 . S
N1913 H1919 0.985 . S
C1914 C1908 1.379 . S
C1914 C1911 1.363 . S
C1914 N1912 1.356 . S
C1915 C1909 1.363 . S
C1915 C1910 1.379 . S
C1915 N1913 1.356 . S
N1916 C1908 1.356 . S
N1916 H1922 0.984 . S
N1916 H1923 0.984 1_655 S
N1917 C1910 1.356 . S
N1917 H1920 0.984 . S
N1917 H1921 0.985 . S
H1918 N1913 0.984 . S
H1919 N1913 0.985 . S
H1920 N1917 0.984 . S
H1921 N1917 0.985 . S
H1922 N1916 0.984 . S
H1923 N1916 0.984 1_455 S
H1924 N1912 0.984 . S
H1925 N1912 0.985 . S
C1926 C1927 1.363 . S
C1926 C1932 1.379 . S
C1926 N1934 1.356 . S
C1927 C1926 1.363 . S
C1927 C1933 1.363 . S
C1928 C1929 1.363 . S
C1928 C1933 1.379 . S
C1928 N1935 1.356 . S
C1929 C1928 1.363 . S
C1929 C1932 1.363 . S
N1930 C1932 1.356 . S
N1930 H1942 0.984 . S
N1930 H1943 0.985 . S
N1931 C1933 1.356 . S
N1931 H1936 0.984 . S
N1931 H1937 0.985 . S
C1932 C1926 1.379 . S
C1932 C1929 1.363 . S
C1932 N1930 1.356 . S
C1933 C1927 1.363 . S
C1933 C1928 1.379 . S
C1933 N1931 1.356 . S
N1934 C1926 1.356 . S
N1934 H1940 0.984 . S
N1934 H1941 0.984 . S
N1935 C1928 1.356 . S
N1935 H1938 0.984 . S
N1935 H1939 0.985 . S
H1936 N1931 0.984 . S
H1937 N1931 0.985 . S
H1938 N1935 0.984 . S
H1939 N1935 0.985 . S
H1940 N1934 0.984 . S
H1941 N1934 0.984 . S
H1942 N1930 0.984 . S
H1943 N1930 0.985 . S
C1944 C1945 1.363 . S
C1944 C1950 1.379 . S
C1944 N1952 1.356 . S
C1945 C1944 1.363 . S
C1945 C1951 1.363 . S
C1946 C1947 1.363 . S
C1946 C1951 1.379 . S
C1946 N1953 1.356 . S
C1947 C1946 1.363 . S
C1947 C1950 1.363 . S
N1948 C1950 1.356 . S
N1948 H1960 0.984 . S
N1948 H1961 0.985 . S
N1949 C1951 1.356 . S
N1949 H1954 0.984 . S
N1949 H1955 0.985 . S
C1950 C1944 1.379 . S
C1950 C1947 1.363 . S
C1950 N1948 1.356 . S
C1951 C1945 1.363 . S
C1951 C1946 1.379 . S
C1951 N1949 1.356 . S
N1952 C1944 1.356 . S
N1952 H1958 0.984 . S
N1952 H1959 0.984 1_655 S
N1953 C1946 1.356 . S
N1953 H1956 0.984 . S
N1953 H1957 0.985 . S
H1954 N1949 0.984 . S
H1955 N1949 0.985 . S
H1956 N1953 0.984 . S
H1957 N1953 0.985 . S
H1958 N1952 0.984 . S
H1959 N1952 0.984 1_455 S
H1960 N1948 0.984 . S
H1961 N1948 0.985 . S
C1962 C1963 1.363 . S
C1962 C1968 1.379 . S
C1962 N1970 1.356 . S
C1963 C1962 1.363 . S
C1963 C1969 1.363 . S
C1964 C1965 1.363 . S
C1964 C1969 1.379 . S
C1964 N1971 1.356 . S
C1965 C1964 1.363 . S
C1965 C1968 1.363 . S
N1966 C1968 1.356 . S
N1966 H1978 0.984 . S
N1966 H1979 0.985 . S
N1967 C1969 1.356 . S
N1967 H1972 0.984 . S
N1967 H1973 0.985 . S
C1968 C1962 1.379 . S
C1968 C1965 1.363 . S
C1968 N1966 1.356 . S
C1969 C1963 1.363 . S
C1969 C1964 1.379 . S
C1969 N1967 1.356 . S
N1970 C1962 1.356 . S
N1970 H1976 0.984 . S
N1970 H1977 0.984 . S
N1971 C1964 1.356 . S
N1971 H1974 0.984 . S
N1971 H1975 0.985 . S
H1972 N1967 0.984 . S
H1973 N1967 0.985 . S
H1974 N1971 0.984 . S
H1975 N1971 0.985 . S
H1976 N1970 0.984 . S
H1977 N1970 0.984 . S
H1978 N1966 0.984 . S
H1979 N1966 0.985 . S
C1980 C1981 1.363 . S
C1980 C1986 1.379 . S
C1980 N1988 1.356 1_545 S
C1981 C1980 1.363 . S
C1981 C1987 1.363 . S
C1982 C1983 1.363 . S
C1982 C1987 1.379 . S
C1982 N1989 1.356 . S
C1983 C1982 1.363 . S
C1983 C1986 1.363 . S
N1984 C1986 1.356 . S
N1984 H1996 0.984 . S
N1984 H1997 0.985 . S
N1985 C1987 1.356 . S
N1985 H1990 0.984 1_545 S
N1985 H1991 0.985 . S
C1986 C1980 1.379 . S
C1986 C1983 1.363 . S
C1986 N1984 1.356 . S
C1987 C1981 1.363 . S
C1987 C1982 1.379 . S
C1987 N1985 1.356 . S
N1988 C1980 1.356 1_565 S
N1988 H1994 0.984 . S
N1988 H1995 0.984 . S
N1989 C1982 1.356 . S
N1989 H1992 0.984 . S
N1989 H1993 0.985 . S
H1990 N1985 0.984 1_565 S
H1991 N1985 0.985 . S
H1992 N1989 0.984 . S
H1993 N1989 0.985 . S
H1994 N1988 0.984 . S
H1995 N1988 0.984 . S
H1996 N1984 0.984 . S
H1997 N1984 0.985 . S
C1998 C1999 1.363 . S
C1998 C2004 1.379 . S
C1998 N2006 1.356 . S
C1999 C1998 1.363 . S
C1999 C2005 1.363 . S
C2000 C2001 1.363 . S
C2000 C2005 1.379 . S
C2000 N2007 1.356 . S
C2001 C2000 1.363 . S
C2001 C2004 1.363 . S
N2002 C2004 1.356 . S
N2002 H2014 0.984 . S
N2002 H2015 0.985 . S
N2003 C2005 1.356 . S
N2003 H2008 0.984 . S
N2003 H2009 0.985 . S
C2004 C1998 1.379 . S
C2004 C2001 1.363 . S
C2004 N2002 1.356 . S
C2005 C1999 1.363 . S
C2005 C2000 1.379 . S
C2005 N2003 1.356 . S
N2006 C1998 1.356 . S
N2006 H2012 0.984 . S
N2006 H2013 0.984 . S
N2007 C2000 1.356 . S
N2007 H2010 0.984 . S
N2007 H2011 0.985 . S
H2008 N2003 0.984 . S
H2009 N2003 0.985 . S
H2010 N2007 0.984 . S
H2011 N2007 0.985 . S
H2012 N2006 0.984 . S
H2013 N2006 0.984 . S
H2014 N2002 0.984 . S
H2015 N2002 0.985 . S
C2016 C2017 1.363 . S
C2016 C2022 1.379 . S
C2016 N2024 1.356 . S
C2017 C2016 1.363 . S
C2017 C2023 1.363 . S
C2018 C2019 1.363 . S
C2018 C2023 1.379 . S
C2018 N2025 1.356 . S
C2019 C2018 1.363 . S
C2019 C2022 1.363 . S
N2020 C2022 1.356 . S
N2020 H2032 0.984 . S
N2020 H2033 0.985 . S
N2021 C2023 1.356 . S
N2021 H2026 0.984 . S
N2021 H2027 0.985 . S
C2022 C2016 1.379 . S
C2022 C2019 1.363 . S
C2022 N2020 1.356 . S
C2023 C2017 1.363 . S
C2023 C2018 1.379 . S
C2023 N2021 1.356 . S
N2024 C2016 1.356 . S
N2024 H2030 0.984 . S
N2024 H2031 0.984 . S
N2025 C2018 1.356 . S
N2025 H2028 0.984 . S
N2025 H2029 0.985 . S
H2026 N2021 0.984 . S
H2027 N2021 0.985 . S
H2028 N2025 0.984 . S
H2029 N2025 0.985 . S
H2030 N2024 0.984 . S
H2031 N2024 0.984 . S
H2032 N2020 0.984 . S
H2033 N2020 0.985 . S
C2034 C2035 1.363 . S
C2034 C2040 1.379 . S
C2034 N2042 1.356 . S
C2035 C2034 1.363 . S
C2035 C2041 1.363 . S
C2036 C2037 1.363 . S
C2036 C2041 1.379 . S
C2036 N2043 1.356 . S
C2037 C2036 1.363 . S
C2037 C2040 1.363 . S
N2038 C2040 1.356 . S
N2038 H2050 0.984 . S
N2038 H2051 0.985 . S
N2039 C2041 1.356 . S
N2039 H2044 0.984 . S
N2039 H2045 0.985 . S
C2040 C2034 1.379 . S
C2040 C2037 1.363 . S
C2040 N2038 1.356 . S
C2041 C2035 1.363 . S
C2041 C2036 1.379 . S
C2041 N2039 1.356 . S
N2042 C2034 1.356 . S
N2042 H2048 0.984 . S
N2042 H2049 0.984 . S
N2043 C2036 1.356 . S
N2043 H2046 0.984 . S
N2043 H2047 0.985 . S
H2044 N2039 0.984 . S
H2045 N2039 0.985 . S
H2046 N2043 0.984 . S
H2047 N2043 0.985 . S
H2048 N2042 0.984 . S
H2049 N2042 0.984 . S
H2050 N2038 0.984 . S
H2051 N2038 0.985 . S
C2052 C2053 1.363 . S
C2052 C2058 1.379 . S
C2052 N2060 1.356 . S
C2053 C2052 1.363 . S
C2053 C2059 1.363 . S
C2054 C2055 1.363 . S
C2054 C2059 1.379 . S
C2054 N2061 1.356 . S
C2055 C2054 1.363 . S
C2055 C2058 1.363 . S
N2056 C2058 1.356 . S
N2056 H2068 0.984 1_565 S
N2056 H2069 0.985 1_565 S
N2057 C2059 1.356 . S
N2057 H2062 0.984 . S
N2057 H2063 0.985 . S
C2058 C2052 1.379 . S
C2058 C2055 1.363 . S
C2058 N2056 1.356 . S
C2059 C2053 1.363 . S
C2059 C2054 1.379 . S
C2059 N2057 1.356 . S
N2060 C2052 1.356 . S
N2060 H2066 0.984 . S
N2060 H2067 0.984 . S
N2061 C2054 1.356 . S
N2061 H2064 0.984 . S
N2061 H2065 0.985 . S
H2062 N2057 0.984 . S
H2063 N2057 0.985 . S
H2064 N2061 0.984 . S
H2065 N2061 0.985 . S
H2066 N2060 0.984 . S
H2067 N2060 0.984 . S
H2068 N2056 0.984 1_545 S
H2069 N2056 0.985 1_545 S
C2070 C2071 1.363 . S
C2070 C2076 1.379 . S
C2070 N2078 1.356 . S
C2071 C2070 1.363 . S
C2071 C2077 1.363 . S
C2072 C2073 1.363 . S
C2072 C2077 1.379 . S
C2072 N2079 1.356 . S
C2073 C2072 1.363 . S
C2073 C2076 1.363 . S
N2074 C2076 1.356 . S
N2074 H2086 0.984 . S
N2074 H2087 0.985 . S
N2075 C2077 1.356 . S
N2075 H2080 0.984 . S
N2075 H2081 0.985 . S
C2076 C2070 1.379 . S
C2076 C2073 1.363 . S
C2076 N2074 1.356 . S
C2077 C2071 1.363 . S
C2077 C2072 1.379 . S
C2077 N2075 1.356 . S
N2078 C2070 1.356 . S
N2078 H2084 0.984 . S
N2078 H2085 0.984 . S
N2079 C2072 1.356 . S
N2079 H2082 0.984 . S
N2079 H2083 0.985 . S
H2080 N2075 0.984 . S
H2081 N2075 0.985 . S
H2082 N2079 0.984 . S
H2083 N2079 0.985 . S
H2084 N2078 0.984 . S
H2085 N2078 0.984 . S
H2086 N2074 0.984 . S
H2087 N2074 0.985 . S
C2088 C2089 1.363 . S
C2088 C2094 1.379 . S
C2088 N2096 1.356 . S
C2089 C2088 1.363 . S
C2089 C2095 1.363 . S
C2090 C2091 1.363 . S
C2090 C2095 1.379 . S
C2090 N2097 1.356 . S
C2091 C2090 1.363 . S
C2091 C2094 1.363 . S
N2092 C2094 1.356 . S
N2092 H2104 0.984 . S
N2092 H2105 0.985 . S
N2093 C2095 1.356 . S
N2093 H2098 0.984 . S
N2093 H2099 0.985 . S
C2094 C2088 1.379 . S
C2094 C2091 1.363 . S
C2094 N2092 1.356 . S
C2095 C2089 1.363 . S
C2095 C2090 1.379 . S
C2095 N2093 1.356 . S
N2096 C2088 1.356 . S
N2096 H2102 0.984 . S
N2096 H2103 0.984 . S
N2097 C2090 1.356 . S
N2097 H2100 0.984 . S
N2097 H2101 0.985 . S
H2098 N2093 0.984 . S
H2099 N2093 0.985 . S
H2100 N2097 0.984 . S
H2101 N2097 0.985 . S
H2102 N2096 0.984 . S
H2103 N2096 0.984 . S
H2104 N2092 0.984 . S
H2105 N2092 0.985 . S
C2106 C2107 1.363 . S
C2106 C2112 1.379 . S
C2106 N2114 1.356 . S
C2107 C2106 1.363 . S
C2107 C2113 1.363 . S
C2108 C2109 1.363 . S
C2108 C2113 1.379 . S
C2108 N2115 1.356 1_655 S
C2109 C2108 1.363 . S
C2109 C2112 1.363 . S
N2110 C2112 1.356 . S
N2110 H2122 0.984 . S
N2110 H2123 0.985 . S
N2111 C2113 1.356 . S
N2111 H2116 0.984 . S
N2111 H2117 0.985 1_655 S
C2112 C2106 1.379 . S
C2112 C2109 1.363 . S
C2112 N2110 1.356 . S
C2113 C2107 1.363 . S
C2113 C2108 1.379 . S
C2113 N2111 1.356 . S
N2114 C2106 1.356 . S
N2114 H2120 0.984 . S
N2114 H2121 0.984 . S
N2115 C2108 1.356 1_455 S
N2115 H2118 0.984 . S
N2115 H2119 0.985 . S
H2116 N2111 0.984 . S
H2117 N2111 0.985 1_455 S
H2118 N2115 0.984 . S
H2119 N2115 0.985 . S
H2120 N2114 0.984 . S
H2121 N2114 0.984 . S
H2122 N2110 0.984 . S
H2123 N2110 0.985 . S
C2124 C2125 1.363 . S
C2124 C2130 1.379 . S
C2124 N2132 1.356 . S
C2125 C2124 1.363 . S
C2125 C2131 1.363 . S
C2126 C2127 1.363 . S
C2126 C2131 1.379 . S
C2126 N2133 1.356 . S
C2127 C2126 1.363 . S
C2127 C2130 1.363 . S
N2128 C2130 1.356 . S
N2128 H2140 0.984 . S
N2128 H2141 0.985 . S
N2129 C2131 1.356 . S
N2129 H2134 0.984 . S
N2129 H2135 0.985 . S
C2130 C2124 1.379 . S
C2130 C2127 1.363 . S
C2130 N2128 1.356 . S
C2131 C2125 1.363 . S
C2131 C2126 1.379 . S
C2131 N2129 1.356 . S
N2132 C2124 1.356 . S
N2132 H2138 0.984 . S
N2132 H2139 0.984 . S
N2133 C2126 1.356 . S
N2133 H2136 0.984 . S
N2133 H2137 0.985 . S
H2134 N2129 0.984 . S
H2135 N2129 0.985 . S
H2136 N2133 0.984 . S
H2137 N2133 0.985 . S
H2138 N2132 0.984 . S
H2139 N2132 0.984 . S
H2140 N2128 0.984 . S
H2141 N2128 0.985 . S
C2142 C2143 1.363 . S
C2142 C2148 1.379 . S
C2142 N2150 1.356 . S
C2143 C2142 1.363 . S
C2143 C2149 1.363 . S
C2144 C2145 1.363 . S
C2144 C2149 1.379 . S
C2144 N2151 1.356 . S
C2145 C2144 1.363 . S
C2145 C2148 1.363 . S
N2146 C2148 1.356 1_565 S
N2146 H2158 0.984 . S
N2146 H2159 0.985 . S
N2147 C2149 1.356 . S
N2147 H2152 0.984 . S
N2147 H2153 0.985 . S
C2148 C2142 1.379 . S
C2148 C2145 1.363 . S
C2148 N2146 1.356 1_545 S
C2149 C2143 1.363 . S
C2149 C2144 1.379 . S
C2149 N2147 1.356 . S
N2150 C2142 1.356 . S
N2150 H2156 0.984 1_545 S
N2150 H2157 0.984 . S
N2151 C2144 1.356 . S
N2151 H2154 0.984 . S
N2151 H2155 0.985 . S
H2152 N2147 0.984 . S
H2153 N2147 0.985 . S
H2154 N2151 0.984 . S
H2155 N2151 0.985 . S
H2156 N2150 0.984 1_565 S
H2157 N2150 0.984 . S
H2158 N2146 0.984 . S
H2159 N2146 0.985 . S
C2160 C2161 1.363 . S
C2160 C2166 1.379 . S
C2160 N2168 1.356 . S
C2161 C2160 1.363 . S
C2161 C2167 1.363 . S
C2162 C2163 1.363 . S
C2162 C2167 1.379 . S
C2162 N2169 1.356 . S
C2163 C2162 1.363 . S
C2163 C2166 1.363 . S
N2164 C2166 1.356 . S
N2164 H2176 0.984 . S
N2164 H2177 0.985 . S
N2165 C2167 1.356 . S
N2165 H2170 0.984 . S
N2165 H2171 0.985 . S
C2166 C2160 1.379 . S
C2166 C2163 1.363 . S
C2166 N2164 1.356 . S
C2167 C2161 1.363 . S
C2167 C2162 1.379 . S
C2167 N2165 1.356 . S
N2168 C2160 1.356 . S
N2168 H2174 0.984 . S
N2168 H2175 0.984 . S
N2169 C2162 1.356 . S
N2169 H2172 0.984 . S
N2169 H2173 0.985 . S
H2170 N2165 0.984 . S
H2171 N2165 0.985 . S
H2172 N2169 0.984 . S
H2173 N2169 0.985 . S
H2174 N2168 0.984 . S
H2175 N2168 0.984 . S
H2176 N2164 0.984 . S
H2177 N2164 0.985 . S
C2178 C2179 1.363 . S
C2178 C2184 1.379 . S
C2178 N2186 1.356 . S
C2179 C2178 1.363 . S
C2179 C2185 1.363 . S
C2180 C2181 1.363 . S
C2180 C2185 1.379 . S
C2180 N2187 1.356 . S
C2181 C2180 1.363 . S
C2181 C2184 1.363 . S
N2182 C2184 1.356 . S
N2182 H2194 0.984 . S
N2182 H2195 0.985 . S
N2183 C2185 1.356 . S
N2183 H2188 0.984 . S
N2183 H2189 0.985 . S
C2184 C2178 1.379 . S
C2184 C2181 1.363 . S
C2184 N2182 1.356 . S
C2185 C2179 1.363 . S
C2185 C2180 1.379 . S
C2185 N2183 1.356 . S
N2186 C2178 1.356 . S
N2186 H2192 0.984 . S
N2186 H2193 0.984 . S
N2187 C2180 1.356 . S
N2187 H2190 0.984 . S
N2187 H2191 0.985 . S
H2188 N2183 0.984 . S
H2189 N2183 0.985 . S
H2190 N2187 0.984 . S
H2191 N2187 0.985 . S
H2192 N2186 0.984 . S
H2193 N2186 0.984 . S
H2194 N2182 0.984 . S
H2195 N2182 0.985 . S
C2196 C2197 1.363 . S
C2196 C2202 1.379 . S
C2196 N2204 1.356 . S
C2197 C2196 1.363 . S
C2197 C2203 1.363 . S
C2198 C2199 1.363 . S
C2198 C2203 1.379 . S
C2198 N2205 1.356 . S
C2199 C2198 1.363 . S
C2199 C2202 1.363 . S
N2200 C2202 1.356 . S
N2200 H2212 0.984 . S
N2200 H2213 0.985 . S
N2201 C2203 1.356 . S
N2201 H2206 0.984 . S
N2201 H2207 0.985 . S
C2202 C2196 1.379 . S
C2202 C2199 1.363 . S
C2202 N2200 1.356 . S
C2203 C2197 1.363 . S
C2203 C2198 1.379 . S
C2203 N2201 1.356 . S
N2204 C2196 1.356 . S
N2204 H2210 0.984 . S
N2204 H2211 0.984 . S
N2205 C2198 1.356 . S
N2205 H2208 0.984 . S
N2205 H2209 0.985 . S
H2206 N2201 0.984 . S
H2207 N2201 0.985 . S
H2208 N2205 0.984 . S
H2209 N2205 0.985 . S
H2210 N2204 0.984 . S
H2211 N2204 0.984 . S
H2212 N2200 0.984 . S
H2213 N2200 0.985 . S
C2214 C2215 1.363 . S
C2214 C2220 1.379 . S
C2214 N2222 1.356 . S
C2215 C2214 1.363 . S
C2215 C2221 1.363 . S
C2216 C2217 1.363 . S
C2216 C2221 1.379 . S
C2216 N2223 1.356 . S
C2217 C2216 1.363 . S
C2217 C2220 1.363 . S
N2218 C2220 1.356 . S
N2218 H2230 0.984 . S
N2218 H2231 0.985 . S
N2219 C2221 1.356 . S
N2219 H2224 0.984 . S
N2219 H2225 0.985 . S
C2220 C2214 1.379 . S
C2220 C2217 1.363 . S
C2220 N2218 1.356 . S
C2221 C2215 1.363 . S
C2221 C2216 1.379 . S
C2221 N2219 1.356 . S
N2222 C2214 1.356 . S
N2222 H2228 0.984 . S
N2222 H2229 0.984 . S
N2223 C2216 1.356 . S
N2223 H2226 0.984 . S
N2223 H2227 0.985 . S
H2224 N2219 0.984 . S
H2225 N2219 0.985 . S
H2226 N2223 0.984 . S
H2227 N2223 0.985 . S
H2228 N2222 0.984 . S
H2229 N2222 0.984 . S
H2230 N2218 0.984 . S
H2231 N2218 0.985 . S
C2232 C2233 1.363 . S
C2232 C2238 1.379 . S
C2232 N2240 1.356 . S
C2233 C2232 1.363 . S
C2233 C2239 1.363 . S
C2234 C2235 1.363 . S
C2234 C2239 1.379 . S
C2234 N2241 1.356 . S
C2235 C2234 1.363 . S
C2235 C2238 1.363 . S
N2236 C2238 1.356 . S
N2236 H2248 0.984 . S
N2236 H2249 0.985 . S
N2237 C2239 1.356 . S
N2237 H2242 0.984 . S
N2237 H2243 0.985 . S
C2238 C2232 1.379 . S
C2238 C2235 1.363 . S
C2238 N2236 1.356 . S
C2239 C2233 1.363 . S
C2239 C2234 1.379 . S
C2239 N2237 1.356 . S
N2240 C2232 1.356 . S
N2240 H2246 0.984 . S
N2240 H2247 0.984 . S
N2241 C2234 1.356 . S
N2241 H2244 0.984 . S
N2241 H2245 0.985 . S
H2242 N2237 0.984 . S
H2243 N2237 0.985 . S
H2244 N2241 0.984 . S
H2245 N2241 0.985 . S
H2246 N2240 0.984 . S
H2247 N2240 0.984 . S
H2248 N2236 0.984 . S
H2249 N2236 0.985 . S
C2250 C2251 1.363 . S
C2250 C2256 1.379 . S
C2250 N2258 1.356 . S
C2251 C2250 1.363 . S
C2251 C2257 1.363 . S
C2252 C2253 1.363 . S
C2252 C2257 1.379 . S
C2252 N2259 1.356 . S
C2253 C2252 1.363 . S
C2253 C2256 1.363 . S
N2254 C2256 1.356 . S
N2254 H2266 0.984 . S
N2254 H2267 0.985 . S
N2255 C2257 1.356 . S
N2255 H2260 0.984 . S
N2255 H2261 0.985 . S
C2256 C2250 1.379 . S
C2256 C2253 1.363 . S
C2256 N2254 1.356 . S
C2257 C2251 1.363 . S
C2257 C2252 1.379 . S
C2257 N2255 1.356 . S
N2258 C2250 1.356 . S
N2258 H2264 0.984 . S
N2258 H2265 0.984 . S
N2259 C2252 1.356 . S
N2259 H2262 0.984 . S
N2259 H2263 0.985 . S
H2260 N2255 0.984 . S
H2261 N2255 0.985 . S
H2262 N2259 0.984 . S
H2263 N2259 0.985 . S
H2264 N2258 0.984 . S
H2265 N2258 0.984 . S
H2266 N2254 0.984 . S
H2267 N2254 0.985 . S
C2268 C2269 1.363 . S
C2268 C2274 1.379 . S
C2268 N2276 1.356 . S
C2269 C2268 1.363 . S
C2269 C2275 1.363 . S
C2270 C2271 1.363 . S
C2270 C2275 1.379 . S
C2270 N2277 1.356 . S
C2271 C2270 1.363 . S
C2271 C2274 1.363 . S
N2272 C2274 1.356 . S
N2272 H2284 0.984 . S
N2272 H2285 0.985 . S
N2273 C2275 1.356 . S
N2273 H2278 0.984 . S
N2273 H2279 0.985 . S
C2274 C2268 1.379 . S
C2274 C2271 1.363 . S
C2274 N2272 1.356 . S
C2275 C2269 1.363 . S
C2275 C2270 1.379 . S
C2275 N2273 1.356 . S
N2276 C2268 1.356 . S
N2276 H2282 0.984 . S
N2276 H2283 0.984 . S
N2277 C2270 1.356 . S
N2277 H2280 0.984 . S
N2277 H2281 0.985 . S
H2278 N2273 0.984 . S
H2279 N2273 0.985 . S
H2280 N2277 0.984 . S
H2281 N2277 0.985 . S
H2282 N2276 0.984 . S
H2283 N2276 0.984 . S
H2284 N2272 0.984 . S
H2285 N2272 0.985 . S
C2286 C2287 1.363 . S
C2286 C2292 1.379 . S
C2286 N2294 1.356 . S
C2287 C2286 1.363 . S
C2287 C2293 1.363 . S
C2288 C2289 1.363 . S
C2288 C2293 1.379 . S
C2288 N2295 1.356 . S
C2289 C2288 1.363 . S
C2289 C2292 1.363 . S
N2290 C2292 1.356 . S
N2290 H2302 0.984 . S
N2290 H2303 0.985 . S
N2291 C2293 1.356 . S
N2291 H2296 0.984 . S
N2291 H2297 0.985 . S
C2292 C2286 1.379 . S
C2292 C2289 1.363 . S
C2292 N2290 1.356 . S
C2293 C2287 1.363 . S
C2293 C2288 1.379 . S
C2293 N2291 1.356 . S
N2294 C2286 1.356 . S
N2294 H2300 0.984 . S
N2294 H2301 0.984 . S
N2295 C2288 1.356 . S
N2295 H2298 0.984 . S
N2295 H2299 0.985 . S
H2296 N2291 0.984 . S
H2297 N2291 0.985 . S
H2298 N2295 0.984 . S
H2299 N2295 0.985 . S
H2300 N2294 0.984 . S
H2301 N2294 0.984 . S
H2302 N2290 0.984 . S
H2303 N2290 0.985 . S
C2304 C2305 1.363 . S
C2304 C2310 1.379 . S
C2304 N2312 1.356 . S
C2305 C2304 1.363 . S
C2305 C2311 1.363 . S
C2306 C2307 1.363 . S
C2306 C2311 1.379 . S
C2306 N2313 1.356 . S
C2307 C2306 1.363 . S
C2307 C2310 1.363 . S
N2308 C2310 1.356 . S
N2308 H2320 0.984 . S
N2308 H2321 0.985 . S
N2309 C2311 1.356 . S
N2309 H2314 0.984 . S
N2309 H2315 0.985 . S
C2310 C2304 1.379 . S
C2310 C2307 1.363 . S
C2310 N2308 1.356 . S
C2311 C2305 1.363 . S
C2311 C2306 1.379 . S
C2311 N2309 1.356 . S
N2312 C2304 1.356 . S
N2312 H2318 0.984 . S
N2312 H2319 0.984 . S
N2313 C2306 1.356 . S
N2313 H2316 0.984 . S
N2313 H2317 0.985 . S
H2314 N2309 0.984 . S
H2315 N2309 0.985 . S
H2316 N2313 0.984 . S
H2317 N2313 0.985 . S
H2318 N2312 0.984 . S
H2319 N2312 0.984 . S
H2320 N2308 0.984 . S
H2321 N2308 0.985 . S
C2322 C2323 1.363 . S
C2322 C2328 1.379 . S
C2322 N2330 1.356 . S
C2323 C2322 1.363 . S
C2323 C2329 1.363 . S
C2324 C2325 1.363 . S
C2324 C2329 1.379 . S
C2324 N2331 1.356 . S
C2325 C2324 1.363 . S
C2325 C2328 1.363 . S
N2326 C2328 1.356 . S
N2326 H2338 0.984 . S
N2326 H2339 0.985 . S
N2327 C2329 1.356 . S
N2327 H2332 0.984 . S
N2327 H2333 0.985 . S
C2328 C2322 1.379 . S
C2328 C2325 1.363 . S
C2328 N2326 1.356 . S
C2329 C2323 1.363 . S
C2329 C2324 1.379 . S
C2329 N2327 1.356 . S
N2330 C2322 1.356 . S
N2330 H2336 0.984 . S
N2330 H2337 0.984 . S
N2331 C2324 1.356 . S
N2331 H2334 0.984 . S
N2331 H2335 0.985 . S
H2332 N2327 0.984 . S
H2333 N2327 0.985 . S
H2334 N2331 0.984 . S
H2335 N2331 0.985 . S
H2336 N2330 0.984 . S
H2337 N2330 0.984 . S
H2338 N2326 0.984 . S
H2339 N2326 0.985 . S
C2340 C2341 1.363 . S
C2340 C2346 1.379 . S
C2340 N2348 1.356 . S
C2341 C2340 1.363 . S
C2341 C2347 1.363 . S
C2342 C2343 1.363 . S
C2342 C2347 1.379 . S
C2342 N2349 1.356 . S
C2343 C2342 1.363 . S
C2343 C2346 1.363 . S
N2344 C2346 1.356 . S
N2344 H2356 0.984 . S
N2344 H2357 0.985 . S
N2345 C2347 1.356 . S
N2345 H2350 0.984 . S
N2345 H2351 0.985 . S
C2346 C2340 1.379 . S
C2346 C2343 1.363 . S
C2346 N2344 1.356 . S
C2347 C2341 1.363 . S
C2347 C2342 1.379 . S
C2347 N2345 1.356 . S
N2348 C2340 1.356 . S
N2348 H2354 0.984 . S
N2348 H2355 0.984 . S
N2349 C2342 1.356 . S
N2349 H2352 0.984 . S
N2349 H2353 0.985 . S
H2350 N2345 0.984 . S
H2351 N2345 0.985 . S
H2352 N2349 0.984 . S
H2353 N2349 0.985 . S
H2354 N2348 0.984 . S
H2355 N2348 0.984 . S
H2356 N2344 0.984 . S
H2357 N2344 0.985 . S
C2358 C2359 1.363 . S
C2358 C2364 1.379 . S
C2358 N2366 1.356 . S
C2359 C2358 1.363 . S
C2359 C2365 1.363 . S
C2360 C2361 1.363 . S
C2360 C2365 1.379 . S
C2360 N2367 1.356 . S
C2361 C2360 1.363 . S
C2361 C2364 1.363 . S
N2362 C2364 1.356 . S
N2362 H2374 0.984 . S
N2362 H2375 0.985 . S
N2363 C2365 1.356 . S
N2363 H2368 0.984 . S
N2363 H2369 0.985 . S
C2364 C2358 1.379 . S
C2364 C2361 1.363 . S
C2364 N2362 1.356 . S
C2365 C2359 1.363 . S
C2365 C2360 1.379 . S
C2365 N2363 1.356 . S
N2366 C2358 1.356 . S
N2366 H2372 0.984 . S
N2366 H2373 0.984 . S
N2367 C2360 1.356 . S
N2367 H2370 0.984 . S
N2367 H2371 0.985 . S
H2368 N2363 0.984 . S
H2369 N2363 0.985 . S
H2370 N2367 0.984 . S
H2371 N2367 0.985 . S
H2372 N2366 0.984 . S
H2373 N2366 0.984 . S
H2374 N2362 0.984 . S
H2375 N2362 0.985 . S
C1405 C469 1.487 . S
C1407 C715 1.405 . S
C1423 C505 1.497 . S
C1425 C799 1.423 . S
C1441 C433 1.526 . S
C1443 C879 1.458 . S
C1459 C397 1.476 . S
C1461 C795 1.417 . S
C1479 C883 1.364 . S
C1477 C325 1.444 . S
C1495 C361 1.475 . S
C1497 C711 1.407 . S
C1515 C704 1.406 . S
C1513 C421 1.488 . S
C1533 C788 1.424 . S
C1531 C349 1.496 . S
C1549 C385 1.526 . S
C1551 C890 1.459 . S
C1567 C493 1.476 . S
C1569 C806 1.418 . S
C1585 C529 1.444 . S
C1587 C872 1.365 . S
C1605 C722 1.408 . S
C1603 C457 1.476 . S
C1623 C967 1.405 . S
C1621 C37 1.487 1_455 S
C1639 C73 1.497 . S
C1641 C1051 1.423 . S
C1657 C1 1.526 1_565 S
C1659 C1131 1.458 . S
C1675 C613 1.477 . S
C1677 C1047 1.417 . S
C1693 C541 1.443 . S
C1695 C1135 1.363 . S
C1711 C577 1.475 . S
C1713 C963 1.407 . S
C1729 C637 1.488 . S
C1731 C956 1.406 . S
C1747 C565 1.496 . S
C1749 C1040 1.425 . S
C1767 C1142 1.458 . S
C1765 C601 1.525 . S
C1783 C61 1.476 1_565 S
C1785 C1058 1.418 . S
C1803 C1124 1.365 . S
C1801 C97 1.444 1_455 S
C1819 C25 1.476 . S
C1821 C974 1.408 . S
C1839 C1219 1.405 . S
C1837 C253 1.488 . S
C1855 C289 1.498 . S
C1857 C1303 1.424 . S
C1875 C1383 1.458 . S
C1873 C217 1.526 . S
C1893 C1299 1.417 . S
C1891 C181 1.477 1_545 S
C1911 C1387 1.363 . S
C1909 C109 1.443 1_655 S
C1927 C145 1.475 . S
C1929 C1215 1.407 . S
C1945 C205 1.488 1_655 S
C1947 C1208 1.406 . S
C1963 C133 1.496 . S
C1965 C1292 1.424 . S
C1983 C1394 1.459 . S
C1981 C169 1.525 1_545 S
C1999 C277 1.476 . S
C2001 C1310 1.418 . S
C2017 C313 1.444 . S
C2019 C1376 1.364 . S
C2035 C241 1.476 . S
C2037 C1226 1.408 . S
C2053 C571 1.475 . S
C2055 C718 1.379 . S
C2073 C802 1.371 . S
C2071 C607 1.519 . S
C2089 C643 1.492 . S
C2091 C874 1.365 . S
C2107 C247 1.520 . S
C2109 C790 1.371 . S
C2125 C283 1.492 . S
C2127 C886 1.366 . S
C2145 C706 1.378 . S
C2143 C319 1.475 . S
C2161 C139 1.475 . S
C2163 C970 1.379 . S
C2179 C175 1.519 . S
C2181 C1054 1.371 . S
C2197 C211 1.492 . S
C2199 C1126 1.365 . S
C2215 C463 1.520 . S
C2217 C1042 1.371 . S
C2235 C1138 1.365 . S
C2233 C499 1.492 . S
C2251 C535 1.475 . S
C2253 C958 1.378 . S
C2269 C355 1.474 . S
C2271 C1222 1.379 . S
C2287 C391 1.520 . S
C2289 C1306 1.371 . S
C2307 C1378 1.365 . S
C2305 C427 1.492 . S
C2323 C31 1.520 . S
C2325 C1294 1.371 . S
C2341 C67 1.492 . S
C2343 C1390 1.365 . S
C2359 C103 1.475 . S
C2361 C1210 1.379 . S
