# Generated by pormake.
# Topology bwt, (3,3)-cn, num edge types: 1
# Building blocks:
#     Node 0, Type 0, BuildingBlock: WUSLED_clean_sbu_0, # of connection points: 3
#     Node 1, Type 0, BuildingBlock: WUSLED_clean_sbu_0, # of connection points: 3
#     Node 2, Type 0, BuildingBlock: WUSLED_clean_sbu_0, # of connection points: 3
#     Node 3, Type 0, BuildingBlock: WUSLED_clean_sbu_0, # of connection points: 3
#     Node 4, Type 0, BuildingBlock: WUSLED_clean_sbu_0, # of connection points: 3
#     Node 5, Type 0, BuildingBlock: WUSLED_clean_sbu_0, # of connection points: 3
#     Node 6, Type 0, BuildingBlock: WUSLED_clean_sbu_0, # of connection points: 3
#     Node 7, Type 0, BuildingBlock: WUSLED_clean_sbu_0, # of connection points: 3
#     Node 8, Type 0, BuildingBlock: WUSLED_clean_sbu_0, # of connection points: 3
#     Node 9, Type 0, BuildingBlock: WUSLED_clean_sbu_0, # of connection points: 3
#     Node 10, Type 0, BuildingBlock: WUSLED_clean_sbu_0, # of connection points: 3
#     Node 11, Type 0, BuildingBlock: WUSLED_clean_sbu_0, # of connection points: 3
#     Node 12, Type 0, BuildingBlock: WUSLED_clean_sbu_0, # of connection points: 3
#     Node 13, Type 0, BuildingBlock: WUSLED_clean_sbu_0, # of connection points: 3
#     Node 14, Type 0, BuildingBlock: WUSLED_clean_sbu_0, # of connection points: 3
#     Node 15, Type 0, BuildingBlock: WUSLED_clean_sbu_0, # of connection points: 3
#     Node 16, Type 0, BuildingBlock: WUSLED_clean_sbu_0, # of connection points: 3
#     Node 17, Type 0, BuildingBlock: WUSLED_clean_sbu_0, # of connection points: 3
#     Node 18, Type 0, BuildingBlock: WUSLED_clean_sbu_0, # of connection points: 3
#     Node 19, Type 0, BuildingBlock: WUSLED_clean_sbu_0, # of connection points: 3
#     Node 20, Type 0, BuildingBlock: WUSLED_clean_sbu_0, # of connection points: 3
#     Node 21, Type 0, BuildingBlock: WUSLED_clean_sbu_0, # of connection points: 3
#     Node 22, Type 0, BuildingBlock: WUSLED_clean_sbu_0, # of connection points: 3
#     Node 23, Type 0, BuildingBlock: WUSLED_clean_sbu_0, # of connection points: 3
#     Node 24, Type 1, BuildingBlock: QEWDON_clean_linker_0, # of connection points: 3
#     Node 25, Type 1, BuildingBlock: QEWDON_clean_linker_0, # of connection points: 3
#     Node 26, Type 1, BuildingBlock: QEWDON_clean_linker_0, # of connection points: 3
#     Node 27, Type 1, BuildingBlock: QEWDON_clean_linker_0, # of connection points: 3
#     Node 28, Type 1, BuildingBlock: QEWDON_clean_linker_0, # of connection points: 3
#     Node 29, Type 1, BuildingBlock: QEWDON_clean_linker_0, # of connection points: 3
#     Node 30, Type 1, BuildingBlock: QEWDON_clean_linker_0, # of connection points: 3
#     Node 31, Type 1, BuildingBlock: QEWDON_clean_linker_0, # of connection points: 3
#     Node 32, Type 1, BuildingBlock: QEWDON_clean_linker_0, # of connection points: 3
#     Node 33, Type 1, BuildingBlock: QEWDON_clean_linker_0, # of connection points: 3
#     Node 34, Type 1, BuildingBlock: QEWDON_clean_linker_0, # of connection points: 3
#     Node 35, Type 1, BuildingBlock: QEWDON_clean_linker_0, # of connection points: 3
#     Node 36, Type 1, BuildingBlock: QEWDON_clean_linker_0, # of connection points: 3
#     Node 37, Type 1, BuildingBlock: QEWDON_clean_linker_0, # of connection points: 3
#     Node 38, Type 1, BuildingBlock: QEWDON_clean_linker_0, # of connection points: 3
#     Node 39, Type 1, BuildingBlock: QEWDON_clean_linker_0, # of connection points: 3
#     Node 40, Type 1, BuildingBlock: QEWDON_clean_linker_0, # of connection points: 3
#     Node 41, Type 1, BuildingBlock: QEWDON_clean_linker_0, # of connection points: 3
#     Node 42, Type 1, BuildingBlock: QEWDON_clean_linker_0, # of connection points: 3
#     Node 43, Type 1, BuildingBlock: QEWDON_clean_linker_0, # of connection points: 3
#     Node 44, Type 1, BuildingBlock: QEWDON_clean_linker_0, # of connection points: 3
#     Node 45, Type 1, BuildingBlock: QEWDON_clean_linker_0, # of connection points: 3
#     Node 46, Type 1, BuildingBlock: QEWDON_clean_linker_0, # of connection points: 3
#     Node 47, Type 1, BuildingBlock: QEWDON_clean_linker_0, # of connection points: 3
#     Edge 48, Type (0, 1), BuildingBlock: CIFDUS_clean_linker_0, # of connection points: 2
#     Edge 49, Type (0, 1), BuildingBlock: CIFDUS_clean_linker_0, # of connection points: 2
#     Edge 50, Type (0, 1), BuildingBlock: CIFDUS_clean_linker_0, # of connection points: 2
#     Edge 51, Type (0, 1), BuildingBlock: CIFDUS_clean_linker_0, # of connection points: 2
#     Edge 52, Type (0, 1), BuildingBlock: CIFDUS_clean_linker_0, # of connection points: 2
#     Edge 53, Type (0, 1), BuildingBlock: CIFDUS_clean_linker_0, # of connection points: 2
#     Edge 54, Type (0, 1), BuildingBlock: CIFDUS_clean_linker_0, # of connection points: 2
#     Edge 55, Type (0, 1), BuildingBlock: CIFDUS_clean_linker_0, # of connection points: 2
#     Edge 56, Type (0, 1), BuildingBlock: CIFDUS_clean_linker_0, # of connection points: 2
#     Edge 57, Type (0, 1), BuildingBlock: CIFDUS_clean_linker_0, # of connection points: 2
#     Edge 58, Type (0, 1), BuildingBlock: CIFDUS_clean_linker_0, # of connection points: 2
#     Edge 59, Type (0, 1), BuildingBlock: CIFDUS_clean_linker_0, # of connection points: 2
#     Edge 60, Type (0, 1), BuildingBlock: CIFDUS_clean_linker_0, # of connection points: 2
#     Edge 61, Type (0, 1), BuildingBlock: CIFDUS_clean_linker_0, # of connection points: 2
#     Edge 62, Type (0, 1), BuildingBlock: CIFDUS_clean_linker_0, # of connection points: 2
#     Edge 63, Type (0, 1), BuildingBlock: CIFDUS_clean_linker_0, # of connection points: 2
#     Edge 64, Type (0, 1), BuildingBlock: CIFDUS_clean_linker_0, # of connection points: 2
#     Edge 65, Type (0, 1), BuildingBlock: CIFDUS_clean_linker_0, # of connection points: 2
#     Edge 66, Type (0, 1), BuildingBlock: CIFDUS_clean_linker_0, # of connection points: 2
#     Edge 67, Type (0, 1), BuildingBlock: CIFDUS_clean_linker_0, # of connection points: 2
#     Edge 68, Type (0, 1), BuildingBlock: CIFDUS_clean_linker_0, # of connection points: 2
#     Edge 69, Type (0, 1), BuildingBlock: CIFDUS_clean_linker_0, # of connection points: 2
#     Edge 70, Type (0, 1), BuildingBlock: CIFDUS_clean_linker_0, # of connection points: 2
#     Edge 71, Type (0, 1), BuildingBlock: CIFDUS_clean_linker_0, # of connection points: 2
#     Edge 72, Type (0, 1), BuildingBlock: CIFDUS_clean_linker_0, # of connection points: 2
#     Edge 73, Type (0, 1), BuildingBlock: CIFDUS_clean_linker_0, # of connection points: 2
#     Edge 74, Type (0, 1), BuildingBlock: CIFDUS_clean_linker_0, # of connection points: 2
#     Edge 75, Type (0, 1), BuildingBlock: CIFDUS_clean_linker_0, # of connection points: 2
#     Edge 76, Type (0, 1), BuildingBlock: CIFDUS_clean_linker_0, # of connection points: 2
#     Edge 77, Type (0, 1), BuildingBlock: CIFDUS_clean_linker_0, # of connection points: 2
#     Edge 78, Type (0, 1), BuildingBlock: CIFDUS_clean_linker_0, # of connection points: 2
#     Edge 79, Type (0, 1), BuildingBlock: CIFDUS_clean_linker_0, # of connection points: 2
#     Edge 80, Type (0, 1), BuildingBlock: CIFDUS_clean_linker_0, # of connection points: 2
#     Edge 81, Type (0, 1), BuildingBlock: CIFDUS_clean_linker_0, # of connection points: 2
#     Edge 82, Type (0, 1), BuildingBlock: CIFDUS_clean_linker_0, # of connection points: 2
#     Edge 83, Type (0, 1), BuildingBlock: CIFDUS_clean_linker_0, # of connection points: 2
#     Edge 84, Type (0, 1), BuildingBlock: CIFDUS_clean_linker_0, # of connection points: 2
#     Edge 85, Type (0, 1), BuildingBlock: CIFDUS_clean_linker_0, # of connection points: 2
#     Edge 86, Type (0, 1), BuildingBlock: CIFDUS_clean_linker_0, # of connection points: 2
#     Edge 87, Type (0, 1), BuildingBlock: CIFDUS_clean_linker_0, # of connection points: 2
#     Edge 88, Type (0, 1), BuildingBlock: CIFDUS_clean_linker_0, # of connection points: 2
#     Edge 89, Type (0, 1), BuildingBlock: CIFDUS_clean_linker_0, # of connection points: 2
#     Edge 90, Type (0, 1), BuildingBlock: CIFDUS_clean_linker_0, # of connection points: 2
#     Edge 91, Type (0, 1), BuildingBlock: CIFDUS_clean_linker_0, # of connection points: 2
#     Edge 92, Type (0, 1), BuildingBlock: CIFDUS_clean_linker_0, # of connection points: 2
#     Edge 93, Type (0, 1), BuildingBlock: CIFDUS_clean_linker_0, # of connection points: 2
#     Edge 94, Type (0, 1), BuildingBlock: CIFDUS_clean_linker_0, # of connection points: 2
#     Edge 95, Type (0, 1), BuildingBlock: CIFDUS_clean_linker_0, # of connection points: 2
#     Edge 96, Type (0, 1), BuildingBlock: CIFDUS_clean_linker_0, # of connection points: 2
#     Edge 97, Type (0, 1), BuildingBlock: CIFDUS_clean_linker_0, # of connection points: 2
#     Edge 98, Type (0, 1), BuildingBlock: CIFDUS_clean_linker_0, # of connection points: 2
#     Edge 99, Type (0, 1), BuildingBlock: CIFDUS_clean_linker_0, # of connection points: 2
#     Edge 100, Type (0, 1), BuildingBlock: CIFDUS_clean_linker_0, # of connection points: 2
#     Edge 101, Type (0, 1), BuildingBlock: CIFDUS_clean_linker_0, # of connection points: 2
#     Edge 102, Type (0, 1), BuildingBlock: CIFDUS_clean_linker_0, # of connection points: 2
#     Edge 103, Type (0, 1), BuildingBlock: CIFDUS_clean_linker_0, # of connection points: 2
#     Edge 104, Type (0, 1), BuildingBlock: CIFDUS_clean_linker_0, # of connection points: 2
#     Edge 105, Type (0, 1), BuildingBlock: CIFDUS_clean_linker_0, # of connection points: 2
#     Edge 106, Type (0, 1), BuildingBlock: CIFDUS_clean_linker_0, # of connection points: 2
#     Edge 107, Type (0, 1), BuildingBlock: CIFDUS_clean_linker_0, # of connection points: 2
#     Edge 108, Type (0, 1), BuildingBlock: CIFDUS_clean_linker_0, # of connection points: 2
#     Edge 109, Type (0, 1), BuildingBlock: CIFDUS_clean_linker_0, # of connection points: 2
#     Edge 110, Type (0, 1), BuildingBlock: CIFDUS_clean_linker_0, # of connection points: 2
#     Edge 111, Type (0, 1), BuildingBlock: CIFDUS_clean_linker_0, # of connection points: 2
#     Edge 112, Type (0, 1), BuildingBlock: CIFDUS_clean_linker_0, # of connection points: 2
#     Edge 113, Type (0, 1), BuildingBlock: CIFDUS_clean_linker_0, # of connection points: 2
#     Edge 114, Type (0, 1), BuildingBlock: CIFDUS_clean_linker_0, # of connection points: 2
#     Edge 115, Type (0, 1), BuildingBlock: CIFDUS_clean_linker_0, # of connection points: 2
#     Edge 116, Type (0, 1), BuildingBlock: CIFDUS_clean_linker_0, # of connection points: 2
#     Edge 117, Type (0, 1), BuildingBlock: CIFDUS_clean_linker_0, # of connection points: 2
#     Edge 118, Type (0, 1), BuildingBlock: CIFDUS_clean_linker_0, # of connection points: 2
#     Edge 119, Type (0, 1), BuildingBlock: CIFDUS_clean_linker_0, # of connection points: 2
# Relax obj value: 0.071
# Max RMSD: 0.185
# Mean RMSD: 0.076
data_MOF--net-bwt--node1-WUSLED_clean_sbu_0--node2-QEWDON_clean_linker_0--edge1-CIFDUS_clean_linker_0
_symmetry_space_group_name_H-M    P1
_symmetry_Int_Tables_number       1
_symmetry_cell_setting            triclinic
loop_
_symmetry_equiv_pos_as_xyz
'x, y, z'
_cell_length_a     64.078146
_cell_length_b     64.091525
_cell_length_c     64.071954
_cell_angle_alpha  95.523984
_cell_angle_beta   95.523833
_cell_angle_gamma 95.520759
loop_
_atom_site_label
_atom_site_type_symbol
_atom_site_fract_x
_atom_site_fract_y
_atom_site_fract_z
_atom_type_partial_charge
C0 C 0.26097 0.58309 0.30745 0.0
C1 C 0.27773 0.57224 0.31485 0.0
C2 C 0.29827 0.58392 0.28721 0.0
C3 C 0.29621 0.57264 0.30483 0.0
C4 C 0.28142 0.59488 0.27998 0.0
C5 C 0.26295 0.59445 0.29002 0.0
U6 U 0.23076 0.56575 0.35157 0.0
O7 O 0.21025 0.58239 0.37165 0.0
O8 O 0.19779 0.55286 0.35235 0.0
C9 C 0.19362 0.56885 0.36514 0.0
C10 C 0.24153 0.58263 0.31795 0.0
C11 C 0.17387 0.57784 0.35921 0.0
C12 C 0.15272 0.59844 0.33711 0.0
C13 C 0.17209 0.59097 0.34297 0.0
C14 C 0.13692 0.57991 0.36386 0.0
C15 C 0.13481 0.59283 0.34738 0.0
C16 C 0.15624 0.57254 0.36971 0.0
C17 C 0.25969 0.5338 0.39071 0.0
C18 C 0.24373 0.51901 0.41965 0.0
C19 C 0.28123 0.51863 0.41736 0.0
C20 C 0.27931 0.52839 0.3988 0.0
C21 C 0.26352 0.51407 0.42816 0.0
C22 C 0.24184 0.52887 0.40109 0.0
C23 C 0.25839 0.54517 0.37188 0.0
O24 O 0.23084 0.56395 0.31711 0.0
O25 O 0.24344 0.59318 0.33679 0.0
O26 O 0.25778 0.56563 0.37547 0.0
O27 O 0.24496 0.53636 0.35595 0.0
H28 H 0.27647 0.56337 0.32833 0.0
H29 H 0.30874 0.56384 0.31067 0.0
H30 H 0.28258 0.60398 0.26667 0.0
H31 H 0.25021 0.60301 0.28418 0.0
H32 H 0.15174 0.60848 0.32447 0.0
H33 H 0.18557 0.59523 0.33468 0.0
H34 H 0.12348 0.57487 0.37186 0.0
H35 H 0.1573 0.56233 0.38222 0.0
H36 H 0.22986 0.51596 0.42776 0.0
H37 H 0.29664 0.51488 0.42343 0.0
H38 H 0.29323 0.53205 0.39093 0.0
H39 H 0.22658 0.53303 0.39507 0.0
C40 C 0.24238 0.39234 0.79797 0.0
C41 C 0.22758 0.40183 0.80948 0.0
C42 C 0.19884 0.38175 0.78623 0.0
C43 C 0.20601 0.39649 0.80373 0.0
C44 C 0.21373 0.37218 0.77481 0.0
C45 C 0.23535 0.37742 0.78068 0.0
U46 U 0.28503 0.43376 0.82328 0.0
O47 O 0.31469 0.43175 0.8431 0.0
O48 O 0.31522 0.44621 0.81341 0.0
C49 C 0.32634 0.44007 0.82958 0.0
C50 C 0.26504 0.3989 0.8033 0.0
C51 C 0.34468 0.42925 0.82448 0.0
C52 C 0.36031 0.40124 0.80523 0.0
C53 C 0.34244 0.40995 0.81173 0.0
C54 C 0.38266 0.4307 0.82485 0.0
C55 C 0.38064 0.41177 0.81135 0.0
C56 C 0.36486 0.43931 0.83134 0.0
C57 C 0.26871 0.4849 0.84803 0.0
C58 C 0.29547 0.51297 0.8633 0.0
C59 C 0.25859 0.5165 0.86674 0.0
C60 C 0.25305 0.4967 0.85528 0.0
C61 C 0.27989 0.52476 0.87105 0.0
C62 C 0.28992 0.49321 0.85191 0.0
C63 C 0.26298 0.46375 0.83687 0.0
O64 O 0.27248 0.41466 0.79352 0.0
O65 O 0.27164 0.40091 0.82355 0.0
O66 O 0.26753 0.44815 0.84783 0.0
O67 O 0.26829 0.46137 0.81756 0.0
H68 H 0.23271 0.41362 0.82272 0.0
H69 H 0.19494 0.40434 0.81264 0.0
H70 H 0.20865 0.36066 0.76134 0.0
H71 H 0.24656 0.37005 0.77155 0.0
H72 H 0.35818 0.38656 0.79501 0.0
H73 H 0.32691 0.40197 0.80631 0.0
H74 H 0.39793 0.43952 0.82956 0.0
H75 H 0.36683 0.45428 0.84112 0.0
H76 H 0.31204 0.51866 0.86669 0.0
H77 H 0.24624 0.52523 0.87241 0.0
H78 H 0.23659 0.49048 0.85235 0.0
H79 H 0.30221 0.48423 0.84647 0.0
C80 C 0.67795 0.00295 0.65744 0.0
C81 C 0.69408 0.00419 0.64414 0.0
C82 C 0.72012 0.99968 0.67325 0.0
C83 C 0.71492 0.0025 0.65192 0.0
C84 C 0.70389 0.99891 0.68663 0.0
C85 C 0.68299 1.00048 0.67876 0.0
U86 U 0.63946 0.01384 0.61265 0.0
O87 O 0.61016 0.99558 0.59714 0.0
O88 O 0.60978 0.02832 0.61098 0.0
C89 C 0.59882 0.01128 0.60095 0.0
C90 C 0.65589 0.00362 0.64886 0.0
C91 C 0.57736 0.00619 0.60663 0.0
C92 C 0.55091 0.00898 0.63123 0.0
C93 C 0.57212 0.01026 0.62731 0.0
C94 C 0.54017 0.9986 0.59409 0.0
C95 C 0.53474 0.00385 0.6145 0.0
C96 C 0.56128 0.99972 0.59022 0.0
C97 C 0.65922 0.03295 0.56372 0.0
C98 C 0.64004 0.02576 0.52877 0.0
C99 C 0.66432 0.05744 0.53747 0.0
C100 C 0.66895 0.05172 0.55782 0.0
C101 C 0.64997 0.04439 0.52258 0.0
C102 C 0.64446 0.02021 0.54911 0.0
C103 C 0.66402 0.02706 0.58522 0.0
O104 O 0.65031 0.02253 0.64636 0.0
O105 O 0.64932 0.98972 0.63253 0.0
O106 O 0.65962 0.007 0.58755 0.0
O107 O 0.65816 0.03976 0.6004 0.0
H108 H 0.69049 0.0061 0.6276 0.0
H109 H 0.72685 0.00285 0.64106 0.0
H110 H 0.70732 0.99708 0.7032 0.0
H111 H 0.67074 0.99959 0.68928 0.0
H112 H 0.54714 0.01323 0.6471 0.0
H113 H 0.58432 0.01537 0.64019 0.0
H114 H 0.52804 0.99444 0.58096 0.0
H115 H 0.56503 0.99657 0.57415 0.0
H116 H 0.62924 0.01503 0.51772 0.0
H117 H 0.67207 0.07204 0.53339 0.0
H118 H 0.68017 0.06193 0.56895 0.0
H119 H 0.63646 0.00577 0.55327 0.0
C120 C 0.82577 0.00108 0.27973 0.0
C121 C 0.8066 0.99303 0.26794 0.0
C122 C 0.78778 0.99975 0.29867 0.0
C123 C 0.78779 0.99243 0.27728 0.0
C124 C 0.80704 0.00788 0.31045 0.0
C125 C 0.82591 0.00855 0.30102 0.0
U126 U 0.85206 0.98115 0.23365 0.0
O127 O 0.8745 0.99643 0.21441 0.0
O128 O 0.88247 0.96879 0.23007 0.0
C129 C 0.8889 0.98375 0.21877 0.0
C130 C 0.84548 0.00088 0.26973 0.0
C131 C 0.91049 0.99377 0.22495 0.0
C132 C 0.93742 0.01352 0.2506 0.0
C133 C 0.9163 0.00558 0.2446 0.0
C134 C 0.94684 0.99834 0.21713 0.0
C135 C 0.95302 0.00972 0.23703 0.0
C136 C 0.92581 0.9905 0.21118 0.0
C137 C 0.81458 0.94463 0.19207 0.0
C138 C 0.82474 0.92829 0.15932 0.0
C139 C 0.78797 0.92565 0.16581 0.0
C140 C 0.79351 0.93717 0.18549 0.0
C141 C 0.80346 0.92132 0.15232 0.0
C142 C 0.83025 0.93992 0.17906 0.0
C143 C 0.81958 0.95799 0.21217 0.0
O144 O 0.8531 0.98253 0.26822 0.0
O145 O 0.84539 0.00998 0.25219 0.0
O146 O 0.82388 0.97822 0.21069 0.0
O147 O 0.8323 0.95082 0.22648 0.0
H148 H 0.80622 0.98698 0.25151 0.0
H149 H 0.77331 0.98578 0.26786 0.0
H150 H 0.80751 0.01378 0.32692 0.0
H151 H 0.84058 0.01475 0.31036 0.0
H152 H 0.94157 0.02233 0.26596 0.0
H153 H 0.90461 0.00827 0.25543 0.0
H154 H 0.95838 0.99468 0.20642 0.0
H155 H 0.9216 0.98133 0.19598 0.0
H156 H 0.83706 0.92509 0.1494 0.0
H157 H 0.77142 0.92093 0.16083 0.0
H158 H 0.78123 0.94075 0.19536 0.0
H159 H 0.84664 0.94557 0.18399 0.0
C160 C 0.30691 0.26199 0.58252 0.0
C161 C 0.31448 0.2759 0.56865 0.0
C162 C 0.29064 0.30123 0.57985 0.0
C163 C 0.3064 0.29532 0.56729 0.0
C164 C 0.28308 0.28714 0.59366 0.0
C165 C 0.29115 0.26772 0.59498 0.0
U166 U 0.34638 0.22478 0.56696 0.0
O167 O 0.36647 0.20592 0.58591 0.0
O168 O 0.34397 0.19037 0.55969 0.0
C169 C 0.35801 0.18799 0.57542 0.0
C170 C 0.31574 0.24178 0.58436 0.0
C171 C 0.3531 0.17029 0.58788 0.0
C172 C 0.32822 0.14618 0.60268 0.0
C173 C 0.33265 0.16464 0.59304 0.0
C174 C 0.36473 0.13936 0.60277 0.0
C175 C 0.34414 0.13305 0.60728 0.0
C176 C 0.36913 0.15775 0.59321 0.0
C177 C 0.38424 0.24264 0.5279 0.0
C178 C 0.41617 0.22645 0.52191 0.0
C179 C 0.40534 0.25349 0.50052 0.0
C180 C 0.38762 0.25511 0.51149 0.0
C181 C 0.42004 0.2394 0.50583 0.0
C182 C 0.39841 0.22802 0.53281 0.0
C183 C 0.36643 0.24571 0.5403 0.0
O184 O 0.31256 0.2283 0.56726 0.0
O185 O 0.33517 0.2434 0.59349 0.0
O186 O 0.37127 0.24875 0.56085 0.0
O187 O 0.34927 0.23271 0.53457 0.0
H188 H 0.32675 0.27177 0.55898 0.0
H189 H 0.31275 0.30584 0.55667 0.0
H190 H 0.27074 0.29102 0.60332 0.0
H191 H 0.28512 0.25718 0.60577 0.0
H192 H 0.31224 0.14199 0.60615 0.0
H193 H 0.32004 0.17415 0.58911 0.0
H194 H 0.37735 0.12958 0.60568 0.0
H195 H 0.38498 0.16177 0.58926 0.0
H196 H 0.42728 0.21563 0.52664 0.0
H197 H 0.40766 0.26348 0.48805 0.0
H198 H 0.37676 0.2664 0.50743 0.0
H199 H 0.39601 0.21823 0.54543 0.0
C200 C 0.28084 0.82915 0.98268 0.0
C201 C 0.27685 0.81331 0.96564 0.0
C202 C 0.30076 0.79176 0.98335 0.0
C203 C 0.28678 0.7949 0.96591 0.0
C204 C 0.30505 0.80784 1.00027 0.0
C205 C 0.2951 0.82638 0.99995 0.0
U206 U 0.23124 0.84979 0.96344 0.0
O207 O 0.20924 0.86889 0.97897 0.0
O208 O 0.22339 0.8793 0.95129 0.0
C209 C 0.21124 0.88365 0.96618 0.0
C210 C 0.26853 0.8474 0.98303 0.0
C211 C 0.21388 0.90557 0.9759 0.0
C212 C 0.23389 0.93524 0.99792 0.0
C213 C 0.23159 0.91388 0.98989 0.0
C214 C 0.20074 0.93985 0.97821 0.0
C215 C 0.21853 0.94853 0.99204 0.0
C216 C 0.19846 0.91863 0.9703 0.0
C217 C 0.193 0.80919 0.92724 0.0
C218 C 0.15956 0.81726 0.91043 0.0
C219 C 0.16672 0.7809 0.91147 0.0
C220 C 0.18665 0.78766 0.92205 0.0
C221 C 0.15276 0.79559 0.90585 0.0
C222 C 0.17951 0.82401 0.92113 0.0
C223 C 0.21317 0.81572 0.94012 0.0
O224 O 0.26579 0.85554 0.965 0.0
O225 O 0.25109 0.84477 0.99216 0.0
O226 O 0.2119 0.81921 0.96047 0.0
O227 O 0.22589 0.83005 0.93297 0.0
H228 H 0.2657 0.81498 0.95224 0.0
H229 H 0.28339 0.78305 0.95246 0.0
H230 H 0.31559 0.80584 0.01402 0.0
H231 H 0.29814 0.8383 0.01336 0.0
H232 H 0.24772 0.94135 0.00862 0.0
H233 H 0.24368 0.90396 0.99435 0.0
H234 H 0.18883 0.9496 0.97288 0.0
H235 H 0.18476 0.91249 0.95941 0.0
H236 H 0.1493 0.82899 0.90615 0.0
H237 H 0.16192 0.76412 0.9086 0.0
H238 H 0.19686 0.77603 0.92677 0.0
H239 H 0.1842 0.84073 0.92507 0.0
C240 C 0.78069 0.24404 0.38102 0.0
C241 C 0.79373 0.22766 0.37922 0.0
C242 C 0.76324 0.20252 0.36634 0.0
C243 C 0.78508 0.20711 0.37181 0.0
C244 C 0.75027 0.21897 0.36801 0.0
C245 C 0.75894 0.23955 0.3752 0.0
U246 U 0.81526 0.28215 0.42236 0.0
O247 O 0.8356 0.31119 0.419 0.0
O248 O 0.80954 0.31232 0.43885 0.0
C249 C 0.82426 0.32314 0.43016 0.0
C250 C 0.78929 0.2657 0.38953 0.0
C251 C 0.81818 0.34228 0.4211 0.0
C252 C 0.79142 0.36448 0.40986 0.0
C253 C 0.79694 0.34516 0.41584 0.0
C254 C 0.82834 0.3779 0.41298 0.0
C255 C 0.80702 0.38129 0.40884 0.0
C256 C 0.83384 0.35862 0.41914 0.0
C257 C 0.84601 0.26125 0.46793 0.0
C258 C 0.86485 0.28549 0.49649 0.0
C259 C 0.86899 0.2482 0.495 0.0
C260 C 0.85497 0.24447 0.47656 0.0
C261 C 0.87419 0.26879 0.50509 0.0
C262 C 0.85093 0.28176 0.47806 0.0
C263 C 0.83181 0.25738 0.44825 0.0
O264 O 0.78287 0.27253 0.40759 0.0
O265 O 0.80957 0.27067 0.38865 0.0
O266 O 0.84028 0.26241 0.43127 0.0
O267 O 0.81306 0.2638 0.44946 0.0
H268 H 0.81055 0.23064 0.38379 0.0
H269 H 0.7954 0.19469 0.37089 0.0
H270 H 0.7334 0.21591 0.36373 0.0
H271 H 0.74861 0.25194 0.37646 0.0
H272 H 0.77484 0.36651 0.40705 0.0
H273 H 0.78451 0.33277 0.41708 0.0
H274 H 0.8408 0.39033 0.41198 0.0
H275 H 0.85033 0.3567 0.423 0.0
H276 H 0.86884 0.30158 0.50362 0.0
H277 H 0.87587 0.23501 0.50127 0.0
H278 H 0.85128 0.22853 0.46893 0.0
H279 H 0.84421 0.29491 0.47153 0.0
C280 C 0.64017 0.6869 0.01566 0.0
C281 C 0.64901 0.70324 0.03103 0.0
C282 C 0.66685 0.72101 0.00474 0.0
C283 C 0.66225 0.72007 0.02567 0.0
C284 C 0.65858 0.70422 0.98947 0.0
C285 C 0.64535 0.68733 0.99487 0.0
U286 U 0.61491 0.62998 0.02029 0.0
O287 O 0.62455 0.61138 0.99287 0.0
O288 O 0.64206 0.61158 0.02405 0.0
C289 C 0.6384 0.60247 0.00458 0.0
C290 C 0.62413 0.67092 0.02142 0.0
C291 C 0.63504 0.57932 0.00282 0.0
C292 C 0.64858 0.54523 0.99885 0.0
C293 C 0.65146 0.56715 0.9986 0.0
C294 C 0.61265 0.54749 0.00698 0.0
C295 C 0.62925 0.5352 0.00343 0.0
C296 C 0.61554 0.56933 0.00673 0.0
C297 C 0.56245 0.62446 0.04379 0.0
C298 C 0.52512 0.62122 0.04797 0.0
C299 C 0.54614 0.65495 0.05717 0.0
C300 C 0.56405 0.64584 0.05156 0.0
C301 C 0.52633 0.64288 0.05483 0.0
C302 C 0.54305 0.61212 0.04252 0.0
C303 C 0.58023 0.61529 0.035 0.0
O304 O 0.62995 0.66013 0.03704 0.0
O305 O 0.61199 0.65947 0.00591 0.0
O306 O 0.58147 0.61755 0.01499 0.0
O307 O 0.59855 0.61906 0.04656 0.0
H308 H 0.6452 0.7033 0.04715 0.0
H309 H 0.66864 0.73252 0.0379 0.0
H310 H 0.66165 0.70451 0.97317 0.0
H311 H 0.63873 0.67497 0.98264 0.0
H312 H 0.66177 0.53625 0.99633 0.0
H313 H 0.66664 0.57462 0.99569 0.0
H314 H 0.59753 0.54025 0.01032 0.0
H315 H 0.60268 0.5785 0.01008 0.0
H316 H 0.51013 0.6115 0.04561 0.0
H317 H 0.54766 0.6716 0.06263 0.0
H318 H 0.57894 0.65562 0.05256 0.0
H319 H 0.54156 0.59562 0.0364 0.0
C320 C 0.58951 0.31238 0.26088 0.0
C321 C 0.57603 0.31826 0.27593 0.0
C322 C 0.58942 0.29313 0.29875 0.0
C323 C 0.57598 0.30873 0.29469 0.0
C324 C 0.60298 0.28741 0.28359 0.0
C325 C 0.603 0.29696 0.26484 0.0
U326 U 0.57008 0.35339 0.22747 0.0
O327 O 0.58657 0.37478 0.20801 0.0
O328 O 0.55978 0.35241 0.1936 0.0
C329 C 0.5747 0.36702 0.19059 0.0
C330 C 0.58965 0.32245 0.24118 0.0
C331 C 0.58546 0.3631 0.17153 0.0
C332 C 0.61004 0.34519 0.15136 0.0
C333 C 0.60091 0.34905 0.17024 0.0
C334 C 0.58852 0.36956 0.13518 0.0
C335 C 0.60382 0.3553 0.13351 0.0
C336 C 0.57952 0.37342 0.15397 0.0
C337 C 0.53137 0.38885 0.24961 0.0
C338 C 0.51953 0.41737 0.23075 0.0
C339 C 0.50741 0.41178 0.26467 0.0
C340 C 0.51919 0.39457 0.26583 0.0
C341 C 0.50765 0.42355 0.24723 0.0
C342 C 0.53129 0.40017 0.23194 0.0
C343 C 0.54459 0.37152 0.25151 0.0
O344 O 0.5718 0.31941 0.22879 0.0
O345 O 0.59819 0.34212 0.24336 0.0
O346 O 0.56501 0.37709 0.25313 0.0
O347 O 0.53862 0.35452 0.23835 0.0
H348 H 0.56551 0.3302 0.27313 0.0
H349 H 0.56518 0.31335 0.30586 0.0
H350 H 0.61376 0.27571 0.28632 0.0
H351 H 0.6136 0.29232 0.25345 0.0
H352 H 0.62185 0.33421 0.15071 0.0
H353 H 0.60569 0.34094 0.18369 0.0
H354 H 0.58291 0.37728 0.12174 0.0
H355 H 0.56754 0.38424 0.15465 0.0
H356 H 0.52035 0.42626 0.21726 0.0
H357 H 0.49828 0.416 0.27752 0.0
H358 H 0.51905 0.38593 0.27955 0.0
H359 H 0.54066 0.39595 0.21927 0.0
C360 C 0.98592 0.28046 0.81893 0.0
C361 C 0.97687 0.26832 0.80028 0.0
C362 C 0.98381 0.29812 0.7802 0.0
C363 C 0.97585 0.27704 0.78109 0.0
C364 C 0.99303 0.31018 0.79896 0.0
C365 C 0.99407 0.3014 0.81817 0.0
U366 U 0.9719 0.23358 0.84712 0.0
O367 O 0.98964 0.21819 0.8714 0.0
O368 O 0.95924 0.22953 0.87729 0.0
C369 C 0.97579 0.22101 0.88499 0.0
C370 C 0.98664 0.27115 0.83904 0.0
C371 C 0.98429 0.2291 0.90669 0.0
C372 C 0.99767 0.25794 0.93353 0.0
C373 C 0.99142 0.25047 0.91234 0.0
C374 C 0.99026 0.22263 0.94338 0.0
C375 C 0.99684 0.24414 0.94936 0.0
C376 C 0.98407 0.21522 0.92227 0.0
C377 C 0.94245 0.18597 0.8124 0.0
C378 C 0.93331 0.15254 0.82588 0.0
C379 C 0.92686 0.1557 0.78846 0.0
C380 C 0.93485 0.17692 0.79201 0.0
C381 C 0.92634 0.14315 0.80529 0.0
C382 C 0.94134 0.17381 0.8294 0.0
C383 C 0.95246 0.20772 0.81545 0.0
O384 O 0.9682 0.26726 0.84608 0.0
O385 O 0.9983 0.25542 0.84008 0.0
O386 O 0.973 0.20977 0.82031 0.0
O387 O 0.94285 0.22124 0.82679 0.0
H388 H 0.97046 0.25209 0.80061 0.0
H389 H 0.96845 0.2674 0.76703 0.0
H390 H 0.99957 0.32638 0.79876 0.0
H391 H 0.00117 0.31097 0.8324 0.0
H392 H 0.00285 0.27455 0.93754 0.0
H393 H 0.99171 0.2614 0.90046 0.0
H394 H 0.98902 0.2116 0.95509 0.0
H395 H 0.97851 0.19869 0.91818 0.0
H396 H 0.93295 0.14335 0.83919 0.0
H397 H 0.92198 0.14892 0.77239 0.0
H398 H 0.93568 0.18613 0.77873 0.0
H399 H 0.94713 0.18063 0.84528 0.0
C400 C 0.39032 0.78327 0.2516 0.0
C401 C 0.40411 0.78243 0.23588 0.0
C402 C 0.37529 0.76662 0.20997 0.0
C403 C 0.39668 0.7741 0.21527 0.0
C404 C 0.36142 0.76791 0.22567 0.0
C405 C 0.36892 0.77613 0.24637 0.0
U406 U 0.43371 0.81371 0.28947 0.0
O407 O 0.43293 0.8362 0.31758 0.0
O408 O 0.44843 0.80731 0.32026 0.0
C409 C 0.44268 0.82437 0.33019 0.0
C410 C 0.39833 0.79157 0.27337 0.0
C411 C 0.434 0.82158 0.35024 0.0
C412 C 0.40745 0.80653 0.37078 0.0
C413 C 0.41434 0.81017 0.35118 0.0
C414 C 0.43964 0.82597 0.38842 0.0
C415 C 0.42016 0.8142 0.38967 0.0
C416 C 0.44641 0.82964 0.36894 0.0
C417 C 0.48283 0.83732 0.26875 0.0
C418 C 0.51247 0.85283 0.29365 0.0
C419 C 0.51183 0.85872 0.2568 0.0
C420 C 0.49239 0.8463 0.25247 0.0
C421 C 0.52201 0.86225 0.27749 0.0
C422 C 0.49306 0.84055 0.28933 0.0
C423 C 0.46185 0.8254 0.26455 0.0
O424 O 0.4148 0.78306 0.28127 0.0
O425 O 0.40022 0.81222 0.27722 0.0
O426 O 0.44612 0.8363 0.26872 0.0
O427 O 0.4603 0.80678 0.27162 0.0
H428 H 0.42066 0.7881 0.23959 0.0
H429 H 0.40768 0.77359 0.20345 0.0
H430 H 0.34489 0.76215 0.22206 0.0
H431 H 0.35805 0.77675 0.25832 0.0
H432 H 0.39232 0.79753 0.37113 0.0
H433 H 0.40458 0.80379 0.33681 0.0
H434 H 0.45014 0.83172 0.40249 0.0
H435 H 0.4617 0.83835 0.36849 0.0
H436 H 0.51961 0.85559 0.30983 0.0
H437 H 0.5188 0.86573 0.24403 0.0
H438 H 0.48466 0.844 0.2365 0.0
H439 H 0.4858 0.83391 0.30215 0.0
C440 C 0.00658 0.64482 0.67859 0.0
C441 C 0.00726 0.63243 0.69549 0.0
C442 C 0.00331 0.66301 0.71999 0.0
C443 C 0.00557 0.64139 0.71595 0.0
C444 C 0.00288 0.6754 0.70297 0.0
C445 C 0.00448 0.66637 0.68246 0.0
U446 U 0.0202 0.59934 0.64214 0.0
O447 O 0.00399 0.58337 0.6122 0.0
O448 O 0.03657 0.59804 0.61348 0.0
C449 C 0.02001 0.58824 0.60156 0.0
C450 C 0.00811 0.63532 0.65699 0.0
C451 C 0.01501 0.59663 0.58134 0.0
C452 C 0.99967 0.62209 0.56044 0.0
C453 C 0.00319 0.61383 0.57978 0.0
C454 C 0.01945 0.59579 0.54409 0.0
C455 C 0.00804 0.61335 0.54241 0.0
C456 C 0.02286 0.58752 0.56336 0.0
C457 C 0.04104 0.55269 0.66681 0.0
C458 C 0.05355 0.52361 0.64596 0.0
C459 C 0.04943 0.52143 0.68292 0.0
C460 C 0.04258 0.54149 0.68446 0.0
C461 C 0.05497 0.51219 0.66365 0.0
C462 C 0.04661 0.54372 0.64753 0.0
C463 C 0.03321 0.5735 0.66872 0.0
O464 O 0.02737 0.63334 0.65222 0.0
O465 O 0.99492 0.61838 0.65066 0.0
O466 O 0.01326 0.57377 0.66182 0.0
O467 O 0.0456 0.58895 0.66291 0.0
H468 H 0.00894 0.61574 0.69281 0.0
H469 H 0.00565 0.63128 0.72855 0.0
H470 H 0.00147 0.69214 0.7055 0.0
H471 H 0.00407 0.67621 0.66963 0.0
H472 H 0.99064 0.63548 0.55968 0.0
H473 H 0.99698 0.62103 0.59355 0.0
H474 H 0.02646 0.58888 0.5307 0.0
H475 H 0.03207 0.57426 0.56432 0.0
H476 H 0.05776 0.51702 0.63093 0.0
H477 H 0.04981 0.51295 0.69675 0.0
H478 H 0.03821 0.54814 0.69942 0.0
H479 H 0.04545 0.5522 0.6337 0.0
C480 C 0.72624 0.42204 0.6851 0.0
C481 C 0.71072 0.42955 0.67168 0.0
C482 C 0.68347 0.4161 0.69231 0.0
C483 C 0.68954 0.42655 0.6752 0.0
C484 C 0.69914 0.40923 0.70619 0.0
C485 C 0.7204 0.4121 0.70254 0.0
U486 U 0.76571 0.4438 0.65138 0.0
O487 O 0.79909 0.45678 0.6575 0.0
O488 O 0.78956 0.42921 0.63419 0.0
C489 C 0.80517 0.44246 0.64395 0.0
C490 C 0.74824 0.42389 0.68018 0.0
C491 C 0.82477 0.43348 0.65022 0.0
C492 C 0.84455 0.40865 0.66815 0.0
C493 C 0.8256 0.41749 0.66371 0.0
C494 C 0.86175 0.43188 0.64583 0.0
C495 C 0.86274 0.41557 0.65897 0.0
C496 C 0.84298 0.4407 0.64152 0.0
C497 C 0.74703 0.47744 0.60962 0.0
C498 C 0.7692 0.48515 0.58212 0.0
C499 C 0.73654 0.50108 0.58403 0.0
C500 C 0.73272 0.49073 0.60179 0.0
C501 C 0.75471 0.49818 0.57381 0.0
C502 C 0.76544 0.47497 0.59989 0.0
C503 C 0.74254 0.46564 0.62749 0.0
O504 O 0.75094 0.41465 0.66155 0.0
O505 O 0.75839 0.44291 0.68422 0.0
O506 O 0.75261 0.47356 0.64579 0.0
O507 O 0.74286 0.44515 0.62384 0.0
H508 H 0.71496 0.43738 0.6582 0.0
H509 H 0.67785 0.43223 0.6644 0.0
H510 H 0.69489 0.40102 0.71943 0.0
H511 H 0.7322 0.40621 0.71305 0.0
H512 H 0.84485 0.3961 0.67831 0.0
H513 H 0.81162 0.41171 0.67052 0.0
H514 H 0.87556 0.43787 0.63887 0.0
H515 H 0.84261 0.45306 0.63111 0.0
H516 H 0.78315 0.48219 0.5745 0.0
H517 H 0.72518 0.51118 0.57822 0.0
H518 H 0.71848 0.49288 0.60922 0.0
H519 H 0.77668 0.46476 0.60577 0.0
C520 C 0.76726 0.59876 0.24009 0.0
C521 C 0.78068 0.58745 0.22838 0.0
C522 C 0.81125 0.61 0.24607 0.0
C523 C 0.80243 0.59302 0.23131 0.0
C524 C 0.79778 0.62108 0.25809 0.0
C525 C 0.77591 0.61552 0.25505 0.0
U526 U 0.72243 0.56196 0.21157 0.0
O527 O 0.69269 0.54767 0.22094 0.0
O528 O 0.69209 0.56767 0.19492 0.0
C529 C 0.68103 0.55678 0.20721 0.0
C530 C 0.74433 0.5931 0.23621 0.0
C531 C 0.6628 0.56625 0.21496 0.0
C532 C 0.64538 0.58321 0.24307 0.0
C533 C 0.66374 0.57681 0.23532 0.0
C534 C 0.62524 0.56947 0.20983 0.0
C535 C 0.6258 0.57916 0.23057 0.0
C536 C 0.64355 0.5631 0.20214 0.0
C537 C 0.73757 0.51635 0.17509 0.0
C538 C 0.71151 0.49229 0.15236 0.0
C539 C 0.74867 0.48806 0.15213 0.0
C540 C 0.7536 0.50536 0.16744 0.0
C541 C 0.72757 0.48147 0.1442 0.0
C542 C 0.71647 0.50959 0.16768 0.0
C543 C 0.74313 0.53516 0.19032 0.0
O544 O 0.73619 0.59504 0.21695 0.0
O545 O 0.73742 0.57527 0.24304 0.0
O546 O 0.73849 0.5331 0.20959 0.0
O547 O 0.73818 0.55296 0.18357 0.0
H548 H 0.77428 0.57437 0.21683 0.0
H549 H 0.81238 0.58394 0.22207 0.0
H550 H 0.80411 0.63429 0.26949 0.0
H551 H 0.76575 0.62441 0.26422 0.0
H552 H 0.64641 0.59084 0.25902 0.0
H553 H 0.6785 0.5795 0.24544 0.0
H554 H 0.61047 0.56577 0.19985 0.0
H555 H 0.6425 0.55492 0.1864 0.0
H556 H 0.69513 0.48786 0.14638 0.0
H557 H 0.76138 0.47996 0.14635 0.0
H558 H 0.76998 0.51035 0.17309 0.0
H559 H 0.7039 0.51795 0.17343 0.0
C560 C 0.3272 0.99741 0.32933 0.0
C561 C 0.31378 0.98028 0.33417 0.0
C562 C 0.28298 0.996 0.32017 0.0
C563 C 0.29197 0.97952 0.32952 0.0
C564 C 0.29647 0.0126 0.31432 0.0
C565 C 0.31839 0.01331 0.31891 0.0
U566 U 0.36657 0.99412 0.37524 0.0
O567 O 0.39757 0.98243 0.37977 0.0
O568 O 0.39411 0.01546 0.39036 0.0
C569 C 0.40704 0.00085 0.38819 0.0
C570 C 0.34972 1.00017 0.33777 0.0
C571 C 0.42775 0.00724 0.38128 0.0
C572 C 0.45295 0.00552 0.35534 0.0
C573 C 0.43228 0.00198 0.36056 0.0
C574 C 0.46455 0.02052 0.39121 0.0
C575 C 0.46943 0.01438 0.37074 0.0
C576 C 0.44391 0.01696 0.39641 0.0
C577 C 0.34312 0.97654 0.4238 0.0
C578 C 0.36511 0.97558 0.45665 0.0
C579 C 0.32703 0.97046 0.45567 0.0
C580 C 0.32512 0.97253 0.43411 0.0
C581 C 0.34704 0.97237 0.46729 0.0
C582 C 0.36316 0.97769 0.43505 0.0
C583 C 0.34075 0.981 0.40175 0.0
O584 O 0.35467 0.01554 0.35308 0.0
O585 O 0.35817 0.98281 0.34164 0.0
O586 O 0.34899 0.96814 0.38839 0.0
O587 O 0.34492 0.00094 0.39896 0.0
H588 H 0.32004 0.96786 0.34239 0.0
H589 H 0.28207 0.96633 0.33391 0.0
H590 H 0.29006 0.02563 0.30726 0.0
H591 H 0.3284 0.02678 0.31524 0.0
H592 H 0.45616 1.00039 0.33947 0.0
H593 H 0.42004 0.99441 0.34865 0.0
H594 H 0.47678 0.02764 0.40335 0.0
H595 H 0.4407 0.02112 0.4125 0.0
H596 H 0.38073 0.97694 0.4651 0.0
H597 H 0.31279 0.96836 0.46341 0.0
H598 H 0.30954 0.97172 0.42562 0.0
H599 H 0.37724 0.98081 0.42725 0.0
C600 C 0.18321 0.03055 0.70781 0.0
C601 C 0.19956 0.04294 0.72086 0.0
C602 C 0.2254 0.03015 0.69878 0.0
C603 C 0.22041 0.04277 0.71638 0.0
C604 C 0.20893 0.01846 0.68514 0.0
C605 C 0.18795 0.01857 0.68972 0.0
U606 U 0.15178 0.03846 0.75276 0.0
O607 O 0.12149 0.05058 0.75745 0.0
O608 O 0.12664 0.01857 0.76491 0.0
C609 C 0.11321 0.03275 0.7633 0.0
C610 C 0.16193 0.02852 0.71476 0.0
C611 C 0.09167 0.02504 0.75375 0.0
C612 C 0.06342 0.02278 0.72515 0.0
C613 C 0.0847 0.02787 0.73286 0.0
C614 C 0.05613 0.01095 0.75875 0.0
C615 C 0.04878 0.01472 0.73819 0.0
C616 C 0.07735 0.01609 0.76643 0.0
C617 C 0.18853 0.06246 0.80305 0.0
C618 C 0.17996 0.07951 0.83625 0.0
C619 C 0.21542 0.07046 0.83279 0.0
C620 C 0.20927 0.06209 0.81199 0.0
C621 C 0.20094 0.07947 0.84514 0.0
C622 C 0.1738 0.07109 0.81529 0.0
C623 C 0.1833 0.0544 0.78075 0.0
O624 O 0.15934 0.01462 0.72834 0.0
O625 O 0.15457 0.04645 0.7204 0.0
O626 O 0.17221 0.06591 0.76893 0.0
O627 O 0.17761 0.03405 0.77666 0.0
H628 H 0.19629 0.05219 0.735 0.0
H629 H 0.23273 0.05208 0.72704 0.0
H630 H 0.21236 0.00847 0.67155 0.0
H631 H 0.17556 0.00873 0.67959 0.0
H632 H 0.05832 0.02566 0.70917 0.0
H633 H 0.09554 0.03463 0.72273 0.0
H634 H 0.0453 0.00505 0.76932 0.0
H635 H 0.08242 0.01381 0.7826 0.0
H636 H 0.16845 0.08633 0.84537 0.0
H637 H 0.23154 0.06968 0.83926 0.0
H638 H 0.22083 0.05543 0.80278 0.0
H639 H 0.15767 0.07149 0.8086 0.0
C640 C 0.67665 0.7226 0.40964 0.0
C641 C 0.66336 0.70662 0.41663 0.0
C642 C 0.68582 0.68038 0.40463 0.0
C643 C 0.66786 0.6857 0.41409 0.0
C644 C 0.69944 0.69654 0.3982 0.0
C645 C 0.69482 0.71751 0.40062 0.0
U646 U 0.64158 0.76208 0.42979 0.0
O647 O 0.6474 0.79544 0.44238 0.0
O648 O 0.62533 0.78593 0.41385 0.0
C649 C 0.6353 0.80162 0.42688 0.0
C650 C 0.67103 0.74435 0.4111 0.0
C651 C 0.64372 0.82027 0.41731 0.0
C652 C 0.67262 0.84623 0.41243 0.0
C653 C 0.66543 0.82687 0.41904 0.0
C654 C 0.63666 0.85204 0.40119 0.0
C655 C 0.65827 0.85927 0.40391 0.0
C656 C 0.62948 0.83277 0.40789 0.0
C657 C 0.59922 0.74389 0.46352 0.0
C658 C 0.56978 0.76398 0.4697 0.0
C659 C 0.57639 0.735 0.49022 0.0
C660 C 0.59383 0.73135 0.47934 0.0
C661 C 0.56399 0.75123 0.48537 0.0
C662 C 0.58727 0.76042 0.45898 0.0
C663 C 0.61716 0.73956 0.45171 0.0
O664 O 0.65245 0.74651 0.4014 0.0
O665 O 0.67451 0.75479 0.43002 0.0
O666 O 0.63542 0.74964 0.45974 0.0
O667 O 0.61369 0.73967 0.43116 0.0
H668 H 0.6493 0.71031 0.42375 0.0
H669 H 0.65724 0.67365 0.41946 0.0
H670 H 0.7133 0.69289 0.39074 0.0
H671 H 0.70523 0.72967 0.39514 0.0
H672 H 0.68939 0.85125 0.41449 0.0
H673 H 0.67677 0.81745 0.42613 0.0
H674 H 0.62517 0.86178 0.39491 0.0
H675 H 0.61267 0.82801 0.40647 0.0
H676 H 0.56045 0.77638 0.46525 0.0
H677 H 0.57258 0.72507 0.50237 0.0
H678 H 0.60302 0.71863 0.48317 0.0
H679 H 0.59127 0.77035 0.44687 0.0
C680 C 0.72159 0.17982 0.02612 0.0
C681 C 0.7357 0.19778 0.03322 0.0
C682 C 0.70793 0.22029 0.02661 0.0
C683 C 0.72896 0.21783 0.03336 0.0
C684 C 0.69354 0.20225 0.02047 0.0
C685 C 0.70038 0.1821 0.0201 0.0
U686 U 0.76772 0.1495 0.03458 0.0
O687 O 0.77211 0.11788 0.04361 0.0
O688 O 0.78176 0.12691 0.01341 0.0
C689 C 0.77954 0.11184 0.02581 0.0
C690 C 0.72968 0.15913 0.02373 0.0
C691 C 0.77121 0.09081 0.01546 0.0
C692 C 0.74305 0.06215 0.00674 0.0
C693 C 0.74987 0.08308 0.01475 0.0
C694 C 0.77864 0.0569 0.99925 0.0
C695 C 0.75748 0.04867 0.99929 0.0
C696 C 0.78539 0.07773 0.00724 0.0
C697 C 0.81773 0.18244 0.06253 0.0
C698 C 0.85456 0.17941 0.05799 0.0
C699 C 0.84524 0.19847 0.08968 0.0
C700 C 0.82389 0.19399 0.08223 0.0
C701 C 0.86087 0.19162 0.07745 0.0
C702 C 0.83321 0.17478 0.05065 0.0
C703 C 0.79528 0.17965 0.05422 0.0
O704 O 0.74413 0.15796 0.01055 0.0
O705 O 0.73482 0.15117 0.04145 0.0
O706 O 0.78274 0.16752 0.06414 0.0
O707 O 0.79114 0.17661 0.03359 0.0
H708 H 0.75213 0.19631 0.038 0.0
H709 H 0.74032 0.23148 0.03828 0.0
H710 H 0.67727 0.20379 0.01506 0.0
H711 H 0.6893 0.16839 0.01455 0.0
H712 H 0.72661 0.05638 0.0068 0.0
H713 H 0.73864 0.09301 0.02091 0.0
H714 H 0.79028 0.04696 0.99401 0.0
H715 H 0.80193 0.08343 0.00768 0.0
H716 H 0.86611 0.17409 0.04799 0.0
H717 H 0.84949 0.20759 0.10488 0.0
H718 H 0.81217 0.19994 0.09168 0.0
H719 H 0.82888 0.16574 0.03542 0.0
C720 C 0.2474 0.75936 0.60471 0.0
C721 C 0.24739 0.77489 0.59067 0.0
C722 C 0.26242 0.8017 0.61914 0.0
C723 C 0.25493 0.79582 0.59779 0.0
C724 C 0.26213 0.78606 0.63316 0.0
C725 C 0.25472 0.7651 0.62599 0.0
U726 U 0.21176 0.71958 0.56635 0.0
O727 O 0.21681 0.68896 0.55028 0.0
O728 O 0.19215 0.69076 0.57173 0.0
C729 C 0.20254 0.67849 0.55981 0.0
C730 C 0.23931 0.73731 0.59743 0.0
C731 C 0.20895 0.65937 0.56854 0.0
C732 C 0.23538 0.6403 0.58601 0.0
C733 C 0.22863 0.65929 0.58022 0.0
C734 C 0.20245 0.62152 0.56941 0.0
C735 C 0.22256 0.6211 0.58023 0.0
C736 C 0.19575 0.64046 0.56362 0.0
C737 C 0.17698 0.73997 0.5228 0.0
C738 C 0.15499 0.71609 0.49596 0.0
C739 C 0.15042 0.75333 0.49951 0.0
C740 C 0.16671 0.75683 0.51601 0.0
C741 C 0.14417 0.73287 0.4895 0.0
C742 C 0.17122 0.71961 0.51253 0.0
C743 C 0.19293 0.74365 0.54119 0.0
O744 O 0.21935 0.73222 0.59971 0.0
O745 O 0.24462 0.7299 0.57904 0.0
O746 O 0.21128 0.7369 0.53832 0.0
O747 O 0.18611 0.73908 0.55908 0.0
H748 H 0.24162 0.77081 0.57419 0.0
H749 H 0.25515 0.80733 0.58648 0.0
H750 H 0.26742 0.79003 0.64976 0.0
H751 H 0.25462 0.75337 0.63709 0.0
H752 H 0.25086 0.64057 0.59454 0.0
H753 H 0.23902 0.67378 0.58426 0.0
H754 H 0.19227 0.60706 0.56442 0.0
H755 H 0.18053 0.64022 0.55456 0.0
H756 H 0.15032 0.70011 0.48882 0.0
H757 H 0.14245 0.76656 0.49482 0.0
H758 H 0.17099 0.77265 0.52378 0.0
H759 H 0.17891 0.70637 0.51768 0.0
C760 C 0.3302 0.32718 0.00624 0.0
C761 C 0.34618 0.3137 0.00593 0.0
C762 C 0.32012 0.28296 0.0016 0.0
C763 C 0.34123 0.29191 0.00377 0.0
C764 C 0.30405 0.29649 0.00228 0.0
C765 C 0.30907 0.31849 0.00451 0.0
U766 U 0.37258 0.369 0.00085 0.0
O767 O 0.3745 0.39861 0.98601 0.0
O768 O 0.38545 0.39877 0.01969 0.0
C769 C 0.3826 0.40992 0.00365 0.0
C770 C 0.3361 0.35009 0.00738 0.0
C771 C 0.37568 0.43107 0.0077 0.0
C772 C 0.36082 0.45806 0.02931 0.0
C773 C 0.36517 0.43709 0.02522 0.0
C774 C 0.37732 0.46698 0.99842 0.0
C775 C 0.36712 0.47329 0.01607 0.0
C776 C 0.38156 0.44615 0.99433 0.0
C777 C 0.42351 0.34886 0.98518 0.0
C778 C 0.45917 0.36611 0.99357 0.0
C779 C 0.45091 0.33998 0.96323 0.0
C780 C 0.42995 0.33732 0.96766 0.0
C781 C 0.46589 0.35411 0.97638 0.0
C782 C 0.43818 0.36361 0.99785 0.0
C783 C 0.40158 0.34508 0.99013 0.0
O784 O 0.35075 0.35765 0.02278 0.0
O785 O 0.3397 0.35698 0.98924 0.0
O786 O 0.3872 0.35071 0.97637 0.0
O787 O 0.39827 0.35022 0.00981 0.0
H788 H 0.36259 0.32005 0.00719 0.0
H789 H 0.35403 0.28204 0.00378 0.0
H790 H 0.28763 0.29008 1.00059 0.0
H791 H 0.29651 0.32866 0.0046 0.0
H792 H 0.35289 0.46244 0.04301 0.0
H793 H 0.36061 0.42573 0.03586 0.0
H794 H 0.38192 0.47815 0.9876 0.0
H795 H 0.38978 0.44188 0.98079 0.0
H796 H 0.47027 0.37691 0.00424 0.0
H797 H 0.45543 0.33075 0.94966 0.0
H798 H 0.4188 0.32603 0.95756 0.0
H799 H 0.43357 0.37289 0.01135 0.0
C800 C 0.40663 0.68583 0.73292 0.0
C801 C 0.41579 0.67604 0.71606 0.0
C802 C 0.40066 0.69948 0.69237 0.0
C803 C 0.41285 0.68279 0.69598 0.0
C804 C 0.39204 0.70966 0.70953 0.0
C805 C 0.39498 0.70284 0.72962 0.0
U806 U 0.42359 0.64348 0.76545 0.0
O807 O 0.43625 0.64352 0.79867 0.0
O808 O 0.40645 0.62447 0.78637 0.0
C809 C 0.4203 0.63064 0.80282 0.0
C810 C 0.40784 0.67717 0.75338 0.0
C811 C 0.41189 0.63519 0.82312 0.0
C812 C 0.38936 0.65308 0.84588 0.0
C813 C 0.39763 0.65021 0.82639 0.0
C814 C 0.40969 0.62609 0.85876 0.0
C815 C 0.39511 0.64079 0.86217 0.0
C816 C 0.41794 0.62334 0.83947 0.0
C817 C 0.4513 0.5998 0.74015 0.0
C818 C 0.45152 0.56643 0.75504 0.0
C819 C 0.47229 0.57309 0.72622 0.0
C820 C 0.46537 0.59317 0.72601 0.0
C821 C 0.46497 0.55939 0.7404 0.0
C822 C 0.44486 0.5865 0.75501 0.0
C823 C 0.44251 0.62005 0.73884 0.0
O824 O 0.39652 0.65893 0.75322 0.0
O825 O 0.42691 0.67772 0.76323 0.0
O826 O 0.45249 0.63607 0.75142 0.0
O827 O 0.42192 0.61896 0.73878 0.0
H828 H 0.42468 0.66273 0.71829 0.0
H829 H 0.41945 0.67438 0.68314 0.0
H830 H 0.38279 0.72271 0.70736 0.0
H831 H 0.38775 0.71054 0.74246 0.0
H832 H 0.37818 0.66454 0.84806 0.0
H833 H 0.39277 0.65949 0.81387 0.0
H834 H 0.41485 0.61672 0.87109 0.0
H835 H 0.42898 0.61172 0.83724 0.0
H836 H 0.44582 0.55619 0.76624 0.0
H837 H 0.48262 0.56793 0.71478 0.0
H838 H 0.47056 0.6033 0.7145 0.0
H839 H 0.43417 0.59142 0.76619 0.0
C840 C 0.01844 0.71522 0.182 0.0
C841 C 0.01366 0.73073 0.1973 0.0
C842 C 0.01149 0.70518 0.22284 0.0
C843 C 0.01009 0.72574 0.21743 0.0
C844 C 0.01693 0.68974 0.20775 0.0
C845 C 0.0203 0.69472 0.18739 0.0
U846 U 0.03215 0.7586 0.15001 0.0
O847 O 0.05098 0.76247 0.12334 0.0
O848 O 0.01759 0.76821 0.12048 0.0
C849 C 0.0347 0.76664 0.11087 0.0
C850 C 0.02179 0.72095 0.16075 0.0
C851 C 0.03199 0.75593 0.0891 0.0
C852 C 0.0466 0.74951 0.05572 0.0
C853 C 0.04909 0.7573 0.07702 0.0
C854 C 0.00979 0.7384 0.05809 0.0
C855 C 0.02687 0.7402 0.04589 0.0
C856 C 0.01232 0.74616 0.07951 0.0
C857 C 0.04411 0.81175 0.18606 0.0
C858 C 0.06218 0.84549 0.18018 0.0
C859 C 0.04025 0.84325 0.20884 0.0
C860 C 0.03564 0.82166 0.20325 0.0
C861 C 0.05344 0.85546 0.19733 0.0
C862 C 0.05747 0.82373 0.17451 0.0
C863 C 0.03899 0.78885 0.18127 0.0
O864 O 0.00788 0.73269 0.15289 0.0
O865 O 0.04131 0.72787 0.15833 0.0
O866 O 0.05389 0.77803 0.17456 0.0
O867 O 0.02019 0.78249 0.17142 0.0
H868 H 0.0125 0.74675 0.19362 0.0
H869 H 0.00619 0.73799 0.22882 0.0
H870 H 0.01804 0.67375 0.21155 0.0
H871 H 0.02418 0.6826 0.17586 0.0
H872 H 0.06001 0.75154 0.04676 0.0
H873 H 0.06432 0.76502 0.08392 0.0
H874 H 0.99444 0.73118 0.05105 0.0
H875 H 0.99877 0.74493 0.08836 0.0
H876 H 0.07231 0.85456 0.17099 0.0
H877 H 0.03356 0.8504 0.22233 0.0
H878 H 0.02547 0.81262 0.21245 0.0
H879 H 0.06419 0.81631 0.16118 0.0
C880 C 0.60609 0.25138 0.76569 0.0
C881 C 0.59379 0.24089 0.77922 0.0
C882 C 0.61663 0.25825 0.80977 0.0
C883 C 0.59902 0.24426 0.80102 0.0
C884 C 0.62863 0.26917 0.79618 0.0
C885 C 0.62343 0.26568 0.77426 0.0
U886 U 0.56919 0.22339 0.72051 0.0
O887 O 0.55746 0.23206 0.68953 0.0
O888 O 0.57496 0.2043 0.69153 0.0
C889 C 0.56572 0.2167 0.67919 0.0
C890 C 0.60103 0.24676 0.74273 0.0
C891 C 0.57616 0.2218 0.66052 0.0
C892 C 0.59199 0.24711 0.63911 0.0
C893 C 0.58523 0.24224 0.65841 0.0
C894 C 0.58168 0.21098 0.62426 0.0
C895 C 0.58974 0.23166 0.6216 0.0
C896 C 0.57498 0.20615 0.64349 0.0
C897 C 0.52038 0.19086 0.73405 0.0
C898 C 0.49942 0.16475 0.70854 0.0
C899 C 0.48762 0.17323 0.74287 0.0
C900 C 0.50539 0.18791 0.74832 0.0
C901 C 0.4846 0.16118 0.72304 0.0
C902 C 0.5171 0.1795 0.71398 0.0
C903 C 0.53969 0.20524 0.74048 0.0
O904 O 0.6018 0.22696 0.73556 0.0
O905 O 0.58414 0.25457 0.73476 0.0
O906 O 0.53932 0.22437 0.73481 0.0
O907 O 0.55737 0.19718 0.73738 0.0
H908 H 0.58026 0.22987 0.77288 0.0
H909 H 0.58926 0.23587 0.81107 0.0
H910 H 0.64233 0.27996 0.80245 0.0
H911 H 0.6331 0.2739 0.76403 0.0
H912 H 0.59838 0.26312 0.63771 0.0
H913 H 0.58639 0.25458 0.6714 0.0
H914 H 0.57936 0.19873 0.61113 0.0
H915 H 0.56794 0.19031 0.64475 0.0
H916 H 0.49783 0.15556 0.69327 0.0
H917 H 0.47641 0.1711 0.7543 0.0
H918 H 0.50763 0.19667 0.76384 0.0
H919 H 0.52851 0.18164 0.70272 0.0
C920 C 0.00783 0.32029 0.32678 0.0
C921 C 0.9924 0.3253 0.31152 0.0
C922 C 0.00831 0.30587 0.28372 0.0
C923 C 0.99257 0.3181 0.29027 0.0
C924 C 0.02346 0.3004 0.29911 0.0
C925 C 0.0232 0.30756 0.32046 0.0
U926 U 0.99879 0.36758 0.36168 0.0
O927 O 0.98605 0.37326 0.39204 0.0
O928 O 0.0182 0.38685 0.38834 0.0
C929 C 0.0034 0.38451 0.40105 0.0
C930 C 0.00931 0.33049 0.3486 0.0
C931 C 0.01 0.38165 0.42317 0.0
C932 C 0.00751 0.36193 0.45355 0.0
C933 C 0.00472 0.36271 0.4317 0.0
C934 C 0.02193 0.39862 0.45845 0.0
C935 C 0.0155 0.38009 0.46721 0.0
C936 C 0.01921 0.39936 0.43665 0.0
C937 C 0.97653 0.41146 0.33413 0.0
C938 C 0.96629 0.44224 0.3542 0.0
C939 C 0.97457 0.44411 0.31825 0.0
C940 C 0.97831 0.42296 0.3168 0.0
C941 C 0.96887 0.45413 0.3371 0.0
C942 C 0.97022 0.4211 0.35277 0.0
C943 C 0.9832 0.39016 0.33318 0.0
O944 O 0.02302 0.34737 0.35252 0.0
O945 O 0.99119 0.33313 0.35607 0.0
O946 O 0.97154 0.37623 0.34204 0.0
O947 O 0.00352 0.3896 0.3379 0.0
H948 H 0.98062 0.33548 0.3159 0.0
H949 H 0.98091 0.32296 0.27886 0.0
H950 H 0.03572 0.29092 0.29459 0.0
H951 H 0.0354 0.30372 0.33194 0.0
H952 H 0.00224 0.34746 0.45981 0.0
H953 H 0.99751 0.34885 0.42161 0.0
H954 H 0.02835 0.41279 0.46852 0.0
H955 H 0.02333 0.41415 0.43038 0.0
H956 H 0.96172 0.44938 0.36885 0.0
H957 H 0.97714 0.45283 0.30491 0.0
H958 H 0.98338 0.4158 0.30238 0.0
H959 H 0.96892 0.41247 0.3664 0.0
H960 H 0.24303 0.44461 0.54201 0.0
C961 C 0.24265 0.46009 0.55034 0.0
C962 C 0.24754 0.47815 0.54019 0.0
C963 C 0.23641 0.46203 0.57088 0.0
H964 H 0.24901 0.51197 0.54247 0.0
C965 C 0.2463 0.49812 0.55074 0.0
C966 C 0.23981 0.50044 0.571 0.0
C967 C 0.23499 0.48234 0.58105 0.0
C968 C 0.22989 0.44299 0.58125 0.0
H969 H 0.22993 0.48407 0.59673 0.0
C970 C 0.2419 0.42561 0.58121 0.0
C971 C 0.23588 0.40818 0.592 0.0
C972 C 0.21145 0.4423 0.59155 0.0
H973 H 0.20166 0.45517 0.59149 0.0
C974 C 0.20529 0.42494 0.6019 0.0
H975 H 0.25624 0.42596 0.5735 0.0
C976 C 0.21744 0.40806 0.60225 0.0
H977 H 0.21232 0.39477 0.61043 0.0
H978 H 0.19105 0.4246 0.60974 0.0
H979 H 0.32992 0.63116 0.96195 0.0
C980 C 0.33494 0.61997 0.97256 0.0
C981 C 0.32399 0.59979 0.97091 0.0
C982 C 0.35347 0.625 0.98641 0.0
H983 H 0.32312 0.56918 0.98188 0.0
C984 C 0.33103 0.5851 0.98406 0.0
C985 C 0.34964 0.58971 0.99785 0.0
C986 C 0.36095 0.60979 0.99883 0.0
C987 C 0.36617 0.64529 0.98588 0.0
H988 H 0.37568 0.61346 0.00894 0.0
C989 C 0.35379 0.66898 0.98623 0.0
C990 C 0.36946 0.69409 0.98671 0.0
C991 C 0.39408 0.64602 0.98356 0.0
H992 H 0.40153 0.63154 0.98257 0.0
C993 C 0.40955 0.67094 0.98264 0.0
H994 H 0.33698 0.66828 0.98718 0.0
C995 C 0.39758 0.69479 0.98536 0.0
H996 H 0.40718 0.70962 0.98535 0.0
H997 H 0.42625 0.6714 0.98107 0.0
H998 H 0.66919 0.06903 0.3901 0.0
C999 C 0.66794 0.05199 0.38725 0.0
C1000 C 0.66056 0.04023 0.40224 0.0
C1001 C 0.67355 0.04196 0.36888 0.0
H1002 H 0.64938 0.01235 0.41105 0.0
C1003 C 0.65748 0.01819 0.3984 0.0
C1004 C 0.66547 0.00419 0.38127 0.0
C1005 C 0.67275 0.01969 0.36641 0.0
C1006 C 0.6814 0.05499 0.35243 0.0
H1007 H 0.6794 0.01514 0.35212 0.0
C1008 C 0.69323 0.07476 0.35832 0.0
C1009 C 0.69935 0.08783 0.34309 0.0
C1010 C 0.67655 0.04818 0.33079 0.0
H1011 H 0.66709 0.03335 0.32552 0.0
C1012 C 0.68347 0.06069 0.31559 0.0
H1013 H 0.69773 0.08016 0.37482 0.0
C1014 C 0.69471 0.08045 0.32165 0.0
H1015 H 0.69919 0.09021 0.30958 0.0
H1016 H 0.67963 0.05525 0.29901 0.0
H1017 H 0.75933 0.87298 0.02261 0.0
C1018 C 0.75481 0.88808 0.01858 0.0
C1019 C 0.76242 0.90642 0.03194 0.0
C1020 C 0.74201 0.88936 0.99965 0.0
H1021 H 0.76199 0.94005 0.03732 0.0
C1022 C 0.75651 0.92589 0.02677 0.0
C1023 C 0.7435 0.92743 0.0083 0.0
C1024 C 0.73656 0.90922 0.99452 0.0
C1025 C 0.73451 0.87002 0.98518 0.0
H1026 H 0.72653 0.91046 0.98016 0.0
C1027 C 0.72579 0.85167 0.99297 0.0
C1028 C 0.71849 0.83336 0.97921 0.0
C1029 C 0.73602 0.86985 0.96344 0.0
H1030 H 0.74281 0.88368 0.95704 0.0
C1031 C 0.72904 0.85171 0.94976 0.0
H1032 H 0.72455 0.85171 0.00973 0.0
C1033 C 0.72031 0.8336 0.95753 0.0
H1034 H 0.71458 0.81993 0.94648 0.0
H1035 H 0.73028 0.85174 0.93304 0.0
H1036 H 0.54148 0.2532 0.44827 0.0
C1037 C 0.54932 0.25601 0.46419 0.0
C1038 C 0.53737 0.25994 0.48109 0.0
C1039 C 0.57123 0.25495 0.46799 0.0
H1040 H 0.53771 0.26536 0.51469 0.0
C1041 C 0.54724 0.26298 0.50172 0.0
C1042 C 0.56889 0.26165 0.50594 0.0
C1043 C 0.58085 0.25761 0.48902 0.0
C1044 C 0.5839 0.25006 0.45017 0.0
H1045 H 0.59762 0.25663 0.49227 0.0
C1046 C 0.58093 0.25955 0.43125 0.0
C1047 C 0.593 0.25478 0.41444 0.0
C1048 C 0.59904 0.23567 0.452 0.0
H1049 H 0.60147 0.22785 0.46615 0.0
C1050 C 0.61101 0.23093 0.43547 0.0
H1051 H 0.56929 0.27063 0.42964 0.0
C1052 C 0.60809 0.2404 0.41686 0.0
H1053 H 0.6179 0.23666 0.40445 0.0
H1054 H 0.62266 0.21986 0.4371 0.0
H1055 H 0.02033 0.75166 0.86549 0.0
C1056 C 0.01754 0.74737 0.88101 0.0
C1057 C 0.03257 0.75464 0.89818 0.0
C1058 C 0.99854 0.73559 0.88412 0.0
H1059 H 0.04062 0.75537 0.93161 0.0
C1060 C 0.02895 0.74962 0.91838 0.0
C1061 C 0.01038 0.73774 0.92186 0.0
C1062 C 0.99511 0.73087 0.90473 0.0
C1063 C 0.98186 0.72916 0.86613 0.0
H1064 H 0.98073 0.7217 0.90749 0.0
C1065 C 0.98705 0.72246 0.84578 0.0
C1066 C 0.97117 0.71709 0.82874 0.0
C1067 C 0.96052 0.73027 0.86916 0.0
H1068 H 0.95596 0.73577 0.88441 0.0
C1069 C 0.94477 0.72474 0.85244 0.0
H1070 H 0.0034 0.72156 0.84315 0.0
C1071 C 0.94999 0.7182 0.83241 0.0
H1072 H 0.93738 0.71382 0.81978 0.0
H1073 H 0.92841 0.72562 0.85501 0.0
H1074 H 0.95291 0.33608 0.62062 0.0
C1075 C 0.9638 0.33994 0.60929 0.0
C1076 C 0.96075 0.329 0.58898 0.0
C1077 C 0.97992 0.35672 0.6145 0.0
H1078 H 0.97232 0.32607 0.55847 0.0
C1079 C 0.97476 0.33413 0.57434 0.0
C1080 C 0.99057 0.35098 0.57901 0.0
C1081 C 0.9926 0.36285 0.59882 0.0
C1082 C 0.98215 0.36846 0.6359 0.0
H1083 H 0.00407 0.37657 0.60178 0.0
C1084 C 0.97689 0.35451 0.65793 0.0
C1085 C 0.97755 0.3682 0.6836 0.0
C1086 C 0.98791 0.39724 0.63967 0.0
H1087 H 0.99067 0.40596 0.62637 0.0
C1088 C 0.9889 0.41089 0.66527 0.0
H1089 H 0.97316 0.33759 0.65558 0.0
C1090 C 0.98405 0.3969 0.68726 0.0
H1091 H 0.98529 0.40557 0.70274 0.0
H1092 H 0.9926 0.42783 0.66751 0.0
H1093 H 0.39666 0.67489 0.07272 0.0
C1094 C 0.39361 0.67446 0.05574 0.0
C1095 C 0.40833 0.66773 0.04329 0.0
C1096 C 0.37529 0.68089 0.04642 0.0
H1097 H 0.417 0.6581 0.01493 0.0
C1098 C 0.40414 0.66551 0.0213 0.0
C1099 C 0.38557 0.6719 0.00802 0.0
C1100 C 0.37203 0.68051 0.02421 0.0
C1101 C 0.35927 0.68814 0.06021 0.0
H1102 H 0.35775 0.68758 0.02019 0.0
C1103 C 0.36567 0.69999 0.07985 0.0
C1104 C 0.35099 0.70481 0.09411 0.0
C1105 C 0.33762 0.68214 0.05448 0.0
H1106 H 0.33211 0.67272 0.03968 0.0
C1107 C 0.32286 0.68765 0.06814 0.0
H1108 H 0.38222 0.70532 0.08416 0.0
C1109 C 0.32945 0.69872 0.08791 0.0
H1110 H 0.31771 0.70193 0.09852 0.0
H1111 H 0.30626 0.68281 0.06363 0.0
H1112 H 0.44986 0.54318 0.25149 0.0
C1113 C 0.46535 0.55167 0.25168 0.0
C1114 C 0.48328 0.54144 0.25665 0.0
C1115 C 0.46749 0.57251 0.2462 0.0
H1116 H 0.51701 0.54338 0.25882 0.0
C1117 C 0.50334 0.55189 0.25599 0.0
C1118 C 0.50593 0.57235 0.25 0.0
C1119 C 0.48793 0.58269 0.24537 0.0
C1120 C 0.44845 0.58316 0.24012 0.0
H1121 H 0.4899 0.59861 0.24097 0.0
C1122 C 0.43031 0.58088 0.25095 0.0
C1123 C 0.41225 0.59076 0.24485 0.0
C1124 C 0.44823 0.59548 0.22309 0.0
H1125 H 0.46165 0.59723 0.21411 0.0
C1126 C 0.43051 0.60543 0.21713 0.0
H1127 H 0.43021 0.57138 0.26404 0.0
C1128 C 0.41268 0.60315 0.2279 0.0
H1129 H 0.39927 0.61129 0.22306 0.0
H1130 H 0.43059 0.61492 0.20405 0.0
H1131 H 0.86888 0.0148 0.74937 0.0
C1132 C 0.88421 0.01138 0.745 0.0
C1133 C 0.90154 0.02663 0.75073 0.0
C1134 C 0.88685 0.99152 0.73463 0.0
H1135 H 0.93494 0.03397 0.75024 0.0
C1136 C 0.92154 0.02217 0.74574 0.0
C1137 C 0.92464 0.00264 0.73542 0.0
C1138 C 0.90727 0.98733 0.72991 0.0
C1139 C 0.86853 0.97493 0.72951 0.0
H1140 H 0.90973 0.97231 0.72175 0.0
C1141 C 0.84803 0.98023 0.72358 0.0
C1142 C 0.83069 0.96455 0.7195 0.0
C1143 C 0.87137 0.95362 0.7311 0.0
H1144 H 0.88669 0.94892 0.73612 0.0
C1145 C 0.85437 0.93802 0.72668 0.0
H1146 H 0.8455 0.99654 0.72233 0.0
C1147 C 0.83421 0.94338 0.72091 0.0
H1148 H 0.82137 0.93087 0.71743 0.0
H1149 H 0.85682 0.92168 0.72788 0.0
H1150 H 0.62597 0.95638 0.326 0.0
C1151 C 0.61458 0.9654 0.33303 0.0
C1152 C 0.59397 0.96349 0.32294 0.0
C1153 C 0.61978 0.97767 0.35262 0.0
H1154 H 0.56299 0.97339 0.32411 0.0
C1155 C 0.57911 0.97548 0.33151 0.0
C1156 C 0.58403 0.98827 0.35068 0.0
C1157 C 0.60433 0.98897 0.36142 0.0
C1158 C 0.64077 0.978 0.36461 0.0
H1159 H 0.6081 0.99838 0.37654 0.0
C1160 C 0.66446 0.98037 0.35153 0.0
C1161 C 0.69009 0.98401 0.36672 0.0
C1162 C 0.64223 0.97799 0.39255 0.0
H1163 H 0.65434 0.97986 0.40362 0.0
C1164 C 0.66866 0.98261 0.40845 0.0
H1165 H 0.6632 0.97979 0.33451 0.0
C1166 C 0.69198 0.98623 0.39482 0.0
H1167 H 0.7072 0.98932 0.40403 0.0
H1168 H 0.67339 0.9838 0.42672 0.0
H1169 H 0.06958 0.38381 0.67717 0.0
C1170 C 0.05257 0.38202 0.6743 0.0
C1171 C 0.04309 0.3899 0.65698 0.0
C1172 C 0.03987 0.37368 0.68847 0.0
H1173 H 0.0189 0.38161 0.634 0.0
C1174 C 0.02198 0.38231 0.65077 0.0
C1175 C 0.00527 0.38022 0.66552 0.0
C1176 C 0.01797 0.3758 0.68552 0.0
C1177 C 0.04936 0.36421 0.70722 0.0
H1178 H 0.0117 0.3747 0.70043 0.0
C1179 C 0.07028 0.37053 0.71616 0.0
C1180 C 0.07988 0.35982 0.73205 0.0
C1181 C 0.03788 0.34757 0.71538 0.0
H1182 H 0.02206 0.34178 0.7086 0.0
C1183 C 0.04694 0.33762 0.73191 0.0
H1184 H 0.07932 0.38374 0.7108 0.0
C1185 C 0.06787 0.34354 0.7401 0.0
H1186 H 0.07482 0.33491 0.75223 0.0
H1187 H 0.03788 0.32481 0.73794 0.0
H1188 H 0.73603 0.53777 0.44341 0.0
C1189 C 0.74692 0.52672 0.4387 0.0
C1190 C 0.75737 0.51617 0.4541 0.0
C1191 C 0.75 0.52254 0.41727 0.0
H1192 H 0.77817 0.49246 0.4598 0.0
C1193 C 0.77088 0.50132 0.44801 0.0
C1194 C 0.77373 0.49645 0.42675 0.0
C1195 C 0.76336 0.5072 0.41144 0.0
C1196 C 0.73849 0.53347 0.40096 0.0
H1197 H 0.76572 0.50355 0.39502 0.0
C1198 C 0.73567 0.55501 0.4048 0.0
C1199 C 0.72409 0.56514 0.38971 0.0
C1200 C 0.72978 0.52229 0.38163 0.0
H1201 H 0.73132 0.50565 0.37828 0.0
C1202 C 0.71851 0.53233 0.36653 0.0
H1203 H 0.74229 0.56385 0.41961 0.0
C1204 C 0.7156 0.55358 0.37052 0.0
H1205 H 0.70681 0.56101 0.35853 0.0
H1206 H 0.71184 0.52356 0.35173 0.0
H1207 H 0.68605 0.3784 0.04105 0.0
C1208 C 0.6749 0.38849 0.03484 0.0
C1209 C 0.67073 0.4061 0.04793 0.0
C1210 C 0.66566 0.3848 0.01368 0.0
H1211 H 0.65653 0.43502 0.04961 0.0
C1212 C 0.65808 0.4206 0.03979 0.0
C1213 C 0.64948 0.41791 0.01868 0.0
C1214 C 0.65234 0.39944 0.00611 0.0
C1215 C 0.67134 0.36703 0.99894 0.0
H1216 H 0.64466 0.3971 0.99016 0.0
C1217 C 0.67848 0.3486 0.00643 0.0
C1218 C 0.68476 0.33262 0.99244 0.0
C1219 C 0.6705 0.36878 0.97705 0.0
H1220 H 0.6662 0.38283 0.97041 0.0
C1221 C 0.67581 0.35257 0.96315 0.0
H1222 H 0.67929 0.34656 0.02304 0.0
C1223 C 0.68291 0.33464 0.97073 0.0
H1224 H 0.68702 0.3223 0.95956 0.0
H1225 H 0.67478 0.35408 0.94641 0.0
H1226 H 0.32111 0.95142 0.59819 0.0
C1227 C 0.31941 0.96802 0.60161 0.0
C1228 C 0.32382 0.98172 0.58643 0.0
C1229 C 0.31332 0.9757 0.62124 0.0
H1230 H 0.32529 0.01399 0.57924 0.0
C1231 C 0.32227 0.0033 0.59101 0.0
C1232 C 0.31638 0.01131 0.61039 0.0
C1233 C 0.31182 0.99753 0.62547 0.0
C1234 C 0.30874 0.96091 0.63722 0.0
H1235 H 0.3066 0.00372 0.64014 0.0
C1236 C 0.29876 0.94034 0.63102 0.0
C1237 C 0.29553 0.92594 0.64596 0.0
C1238 C 0.315 0.96698 0.65876 0.0
H1239 H 0.32322 0.98239 0.66401 0.0
C1240 C 0.31131 0.95297 0.6737 0.0
H1241 H 0.29381 0.93536 0.6145 0.0
C1242 C 0.30177 0.93255 0.66739 0.0
H1243 H 0.29924 0.92192 0.67928 0.0
H1244 H 0.31611 0.95785 0.69024 0.0
H1245 H 0.25166 0.12442 0.97016 0.0
C1246 C 0.24945 0.10996 0.97751 0.0
C1247 C 0.23408 0.0938 0.96803 0.0
C1248 C 0.26288 0.10697 0.99549 0.0
H1249 H 0.22096 0.06173 0.96916 0.0
C1250 C 0.23188 0.07471 0.97705 0.0
C1251 C 0.24521 0.07128 0.99474 0.0
C1252 C 0.26046 0.08752 0.00407 0.0
C1253 C 0.2809 0.12314 0.00371 0.0
H1254 H 0.27077 0.08468 0.01769 0.0
C1255 C 0.27908 0.14494 0.00352 0.0
C1256 C 0.29682 0.15982 0.00935 0.0
C1257 C 0.30063 0.11671 0.0105 0.0
H1258 H 0.30288 0.10017 0.01037 0.0
C1259 C 0.31803 0.1315 0.01682 0.0
H1260 H 0.26412 0.15035 0.99837 0.0
C1261 C 0.31622 0.1529 0.0161 0.0
H1262 H 0.33004 0.16411 0.02074 0.0
H1263 H 0.33311 0.12631 0.0219 0.0
H1264 H 0.43958 0.728 0.53745 0.0
C1265 C 0.43291 0.73691 0.52539 0.0
C1266 C 0.44639 0.74727 0.51273 0.0
C1267 C 0.41088 0.73743 0.52201 0.0
H1268 H 0.448 0.76553 0.4863 0.0
C1269 C 0.43776 0.75824 0.4967 0.0
C1270 C 0.41595 0.75839 0.49264 0.0
C1271 C 0.40252 0.74807 0.50531 0.0
C1272 C 0.39664 0.72608 0.53524 0.0
H1273 H 0.38565 0.74837 0.50209 0.0
C1274 C 0.40228 0.72589 0.55707 0.0
C1275 C 0.38896 0.71486 0.56951 0.0
C1276 C 0.37739 0.71506 0.52606 0.0
H1277 H 0.37273 0.71445 0.50929 0.0
C1278 C 0.36408 0.70424 0.53832 0.0
H1279 H 0.41686 0.73462 0.56445 0.0
C1280 C 0.36979 0.70409 0.55986 0.0
H1281 H 0.35935 0.69515 0.56887 0.0
H1282 H 0.34938 0.69571 0.53103 0.0
H1283 H 0.982 0.26857 0.12813 0.0
C1284 C 0.98829 0.26524 0.1132 0.0
C1285 C 0.97616 0.25143 0.09722 0.0
C1286 C 0.0081 0.27516 0.10972 0.0
H1287 H 0.97416 0.23783 0.06486 0.0
C1288 C 0.98379 0.24777 0.07758 0.0
C1289 C 0.00312 0.2578 0.07365 0.0
C1290 C 0.01539 0.27122 0.08973 0.0
C1291 C 0.02061 0.29043 0.12648 0.0
H1292 H 0.03046 0.27867 0.08647 0.0
C1293 C 0.02068 0.28744 0.14807 0.0
C1294 C 0.03227 0.30213 0.16376 0.0
C1295 C 0.0323 0.30844 0.12095 0.0
H1296 H 0.03218 0.31169 0.10467 0.0
C1297 C 0.04396 0.32287 0.13641 0.0
H1298 H 0.01202 0.27358 0.15271 0.0
C1299 C 0.04398 0.31979 0.15763 0.0
H1300 H 0.05278 0.33153 0.16931 0.0
H1301 H 0.0528 0.33668 0.13192 0.0
H1302 H 0.03989 0.68397 0.38562 0.0
C1303 C 0.03469 0.67405 0.39725 0.0
C1304 C 0.04673 0.67584 0.41693 0.0
C1305 C 0.01571 0.66033 0.39324 0.0
H1306 H 0.04903 0.66614 0.44815 0.0
C1307 C 0.03975 0.66443 0.43287 0.0
C1308 C 0.02109 0.65088 0.42948 0.0
C1309 C 0.0096 0.64816 0.40946 0.0
C1310 C 0.00158 0.6597 0.37296 0.0
H1311 H 0.99563 0.63697 0.40696 0.0
C1312 C 0.0094 0.66567 0.3542 0.0
C1313 C 0.99564 0.66641 0.33575 0.0
C1314 C 0.97968 0.65403 0.37251 0.0
H1315 H 0.97253 0.65027 0.38647 0.0
C1316 C 0.96625 0.65366 0.35405 0.0
H1317 H 0.02606 0.67013 0.35392 0.0
C1318 C 0.97408 0.65977 0.33585 0.0
H1319 H 0.96312 0.65937 0.32183 0.0
H1320 H 0.94954 0.64898 0.35396 0.0
H1321 H 0.59263 0.31553 0.95499 0.0
C1322 C 0.59884 0.32302 0.97052 0.0
C1323 C 0.58622 0.33567 0.98189 0.0
C1324 C 0.61878 0.319 0.97954 0.0
H1325 H 0.58393 0.35402 0.01142 0.0
C1326 C 0.59395 0.34493 0.00222 0.0
C1327 C 0.61348 0.34073 0.01174 0.0
C1328 C 0.62577 0.32767 1.00041 0.0
C1329 C 0.6314 0.30451 0.96764 0.0
H1330 H 0.6406 0.32414 0.00802 0.0
C1331 C 0.63163 0.30441 0.94563 0.0
C1332 C 0.64221 0.28963 0.93415 0.0
C1333 C 0.64229 0.2898 0.97802 0.0
H1334 H 0.64159 0.28871 0.99468 0.0
C1335 C 0.6537 0.27585 0.96689 0.0
H1336 H 0.62298 0.31535 0.93731 0.0
C1337 C 0.65365 0.27569 0.9451 0.0
H1338 H 0.66224 0.26439 0.93676 0.0
H1339 H 0.66219 0.26474 0.97512 0.0
H1340 H 0.5288 0.44119 0.73288 0.0
C1341 C 0.51877 0.43473 0.74388 0.0
C1342 C 0.50454 0.44725 0.75308 0.0
C1343 C 0.51886 0.41337 0.74765 0.0
H1344 H 0.48024 0.44816 0.77412 0.0
C1345 C 0.49124 0.43861 0.76688 0.0
C1346 C 0.49096 0.41749 0.77057 0.0
C1347 C 0.50471 0.40485 0.76099 0.0
C1348 C 0.53236 0.39949 0.73632 0.0
H1349 H 0.50416 0.38838 0.76369 0.0
C1350 C 0.5536 0.4063 0.73435 0.0
C1351 C 0.56607 0.39312 0.72319 0.0
C1352 C 0.52379 0.37933 0.72702 0.0
H1353 H 0.50743 0.37377 0.72794 0.0
C1354 C 0.5361 0.36623 0.71605 0.0
H1355 H 0.56038 0.42182 0.7414 0.0
C1356 C 0.55708 0.37303 0.71411 0.0
H1357 H 0.56635 0.36246 0.70566 0.0
H1358 H 0.52934 0.35074 0.70896 0.0
H1359 H 0.1196 0.97345 0.25874 0.0
C1360 C 0.10776 0.98366 0.25434 0.0
C1361 C 0.09131 0.97612 0.23846 0.0
C1362 C 0.10788 0.00358 0.26587 0.0
H1363 H 0.06294 0.98368 0.22114 0.0
C1364 C 0.07569 0.98925 0.23339 0.0
C1365 C 0.07489 0.00851 0.24536 0.0
C1366 C 0.09107 0.01576 0.26144 0.0
C1367 C 0.12431 0.0107 0.28391 0.0
H1368 H 0.09025 0.03066 0.2707 0.0
C1369 C 0.14563 0.00725 0.2827 0.0
C1370 C 0.16088 0.01345 0.30014 0.0
C1371 C 0.11855 0.02053 0.3028 0.0
H1372 H 0.10229 0.02297 0.30451 0.0
C1373 C 0.13363 0.02695 0.31994 0.0
H1374 H 0.15032 0.99959 0.26832 0.0
C1375 C 0.15461 0.02346 0.31867 0.0
H1376 H 0.166 0.02873 0.33221 0.0
H1377 H 0.12899 0.03454 0.33435 0.0
H1378 H 0.38854 0.05455 0.69204 0.0
C1379 C 0.39836 0.0464 0.68182 0.0
C1380 C 0.41451 0.05811 0.6733 0.0
C1381 C 0.39586 0.0242 0.67834 0.0
H1382 H 0.4414 0.05661 0.65579 0.0
C1383 C 0.42813 0.04759 0.66118 0.0
C1384 C 0.42642 0.02553 0.65817 0.0
C1385 C 0.40997 0.01394 0.66634 0.0
C1386 C 0.38017 0.01169 0.68916 0.0
H1387 H 0.40863 0.99688 0.66386 0.0
C1388 C 0.35996 0.01812 0.69143 0.0
C1389 C 0.34578 0.00673 0.70276 0.0
C1390 C 0.38578 0.99353 0.69813 0.0
H1391 H 0.4013 0.98839 0.69719 0.0
C1392 C 0.37165 0.98204 0.70899 0.0
H1393 H 0.35538 0.03206 0.68464 0.0
C1394 C 0.35185 0.98859 0.71138 0.0
H1395 H 0.34118 0.9793 0.71987 0.0
H1396 H 0.37615 0.9681 0.71579 0.0
H1397 H 0.95492 0.58317 0.30211 0.0
C1398 C 0.9708 0.58852 0.30916 0.0
C1399 C 0.98172 0.57514 0.32134 0.0
C1400 C 0.98057 0.60816 0.30514 0.0
H1401 H 0.01141 0.5715 0.33898 0.0
C1402 C 0.00246 0.58191 0.33018 0.0
C1403 C 0.01255 0.60125 0.32623 0.0
C1404 C 0.00167 0.61418 0.31357 0.0
C1405 C 0.96909 0.62157 0.2911 0.0
H1406 H 0.0098 0.62878 0.31024 0.0
C1407 C 0.94709 0.62208 0.29089 0.0
C1408 C 0.93589 0.63333 0.27652 0.0
C1409 C 0.97979 0.63311 0.27703 0.0
H1410 H 0.99656 0.63278 0.27628 0.0
C1411 C 0.96886 0.64479 0.26318 0.0
H1412 H 0.93854 0.61325 0.30153 0.0
C1413 C 0.94709 0.64495 0.2629 0.0
H1414 H 0.93898 0.65398 0.25185 0.0
H1415 H 0.97727 0.6535 0.25236 0.0
H1416 H 0.10409 0.6047 0.37152 0.0
H1417 H 0.11771 0.59483 0.30682 0.0
H1418 H 0.08161 0.60028 0.29466 0.0
H1419 H 0.04491 0.60298 0.30223 0.0
H1420 H 0.0306 0.6098 0.36668 0.0
H1421 H 0.06809 0.61052 0.37914 0.0
C1422 C 0.09921 0.60381 0.35475 0.0
C1423 C 0.11365 0.59909 0.34015 0.0
C1424 C 0.07819 0.60633 0.34781 0.0
C1425 C 0.1071 0.59855 0.31848 0.0
C1426 C 0.08634 0.6015 0.31147 0.0
C1427 C 0.05017 0.60519 0.31898 0.0
C1428 C 0.03521 0.60638 0.33358 0.0
C1429 C 0.0716 0.60477 0.32596 0.0
C1430 C 0.04198 0.60891 0.35524 0.0
C1431 C 0.06335 0.60917 0.36233 0.0
H1432 H 0.42075 0.41248 0.83058 0.0
H1433 H 0.38303 0.39533 0.77074 0.0
H1434 H 0.41474 0.39075 0.75348 0.0
H1435 H 0.45315 0.39835 0.75417 0.0
H1436 H 0.49083 0.41924 0.81307 0.0
H1437 H 0.4594 0.41556 0.83197 0.0
C1438 C 0.41945 0.4075 0.8138 0.0
C1439 C 0.39948 0.40463 0.80197 0.0
C1440 C 0.43785 0.40572 0.80378 0.0
C1441 C 0.39809 0.39762 0.78033 0.0
C1442 C 0.41628 0.39518 0.77036 0.0
C1443 C 0.45448 0.40123 0.77124 0.0
C1444 C 0.47413 0.40876 0.78236 0.0
C1445 C 0.43624 0.40008 0.78175 0.0
C1446 C 0.47582 0.41307 0.80436 0.0
C1447 C 0.45783 0.41122 0.81507 0.0
H1448 H 0.512 0.98849 0.64467 0.0
H1449 H 0.50775 0.02529 0.5918 0.0
H1450 H 0.47245 0.03309 0.59896 0.0
H1451 H 0.44432 0.03248 0.62239 0.0
H1452 H 0.44832 0.99588 0.67539 0.0
H1453 H 0.48182 0.98456 0.66581 0.0
C1454 C 0.5032 0.99802 0.63464 0.0
C1455 C 0.51249 0.0064 0.61783 0.0
C1456 C 0.48284 0.00245 0.63884 0.0
C1457 C 0.50088 0.01855 0.60477 0.0
C1458 C 0.48074 0.02311 0.6089 0.0
C1459 C 0.45236 0.0217 0.63157 0.0
C1460 C 0.44394 0.01511 0.6496 0.0
C1461 C 0.47175 0.01554 0.62617 0.0
C1462 C 0.4544 0.00102 0.66132 0.0
C1463 C 0.47368 0.99474 0.65599 0.0
H1464 H 0.98374 0.02472 0.21387 0.0
H1465 H 0.97386 0.00787 0.27608 0.0
H1466 H 0.01184 0.01103 0.28572 0.0
H1467 H 0.04748 0.01203 0.27439 0.0
H1468 H 0.05709 0.02492 0.21109 0.0
H1469 H 0.01979 0.03006 0.20397 0.0
C1470 C 0.98988 0.02193 0.22961 0.0
C1471 C 0.97586 0.0157 0.24407 0.0
C1472 C 0.01179 0.02297 0.23481 0.0
C1473 C 0.98415 0.01273 0.26459 0.0
C1474 C 0.00594 0.01435 0.27009 0.0
C1475 C 0.04151 0.0168 0.25934 0.0
C1476 C 0.05491 0.01829 0.24332 0.0
C1477 C 0.01987 0.01861 0.25506 0.0
C1478 C 0.04702 0.02395 0.22368 0.0
C1479 C 0.02567 0.02662 0.21956 0.0
H1480 H 0.30923 0.10498 0.59562 0.0
H1481 H 0.36807 0.1134 0.6359 0.0
H1482 H 0.36301 0.07666 0.64319 0.0
H1483 H 0.34414 0.04087 0.63416 0.0
H1484 H 0.28593 0.0327 0.59324 0.0
H1485 H 0.28801 0.07069 0.59079 0.0
C1486 C 0.32068 0.09904 0.6065 0.0
C1487 C 0.33918 0.11198 0.61488 0.0
C1488 C 0.31774 0.07783 0.61053 0.0
C1489 C 0.3539 0.10374 0.62878 0.0
C1490 C 0.35099 0.08271 0.63305 0.0
C1491 C 0.33161 0.04761 0.62533 0.0
C1492 C 0.31483 0.0342 0.614 0.0
C1493 C 0.33331 0.06941 0.62345 0.0
C1494 C 0.29884 0.04288 0.60224 0.0
C1495 C 0.30015 0.06454 0.60068 0.0
H1496 H 0.25491 0.9754 0.99644 0.0
H1497 H 0.1884 0.97375 0.00324 0.0
H1498 H 0.19134 0.01214 0.00743 0.0
H1499 H 0.21178 0.04598 0.00421 0.0
H1500 H 0.27829 0.0478 0.99814 0.0
H1501 H 0.27654 0.00965 0.99938 0.0
C1502 C 0.24116 0.98338 0.99944 0.0
C1503 C 0.22135 0.97161 0.99894 0.0
C1504 C 0.24295 0.00555 0.00192 0.0
C1505 C 0.20373 0.98236 0.00286 0.0
C1506 C 0.2054 0.00435 0.00538 0.0
C1507 C 0.22596 0.03803 0.00372 0.0
C1508 C 0.24508 0.04958 0.00095 0.0
C1509 C 0.22476 0.01608 0.00413 0.0
C1510 C 0.26341 0.03923 1.00041 0.0
C1511 C 0.26236 0.01738 0.00089 0.0
H1512 H 0.82571 0.41899 0.42836 0.0
H1513 H 0.77435 0.39187 0.38219 0.0
H1514 H 0.76096 0.42624 0.3815 0.0
H1515 H 0.76142 0.46291 0.39745 0.0
H1516 H 0.81276 0.48958 0.44369 0.0
H1517 H 0.82897 0.45662 0.44037 0.0
C1518 C 0.81194 0.42062 0.41765 0.0
C1519 C 0.80092 0.40271 0.40558 0.0
C1520 C 0.80427 0.4404 0.41739 0.0
C1521 C 0.78291 0.40525 0.39203 0.0
C1522 C 0.77528 0.42494 0.39155 0.0
C1523 C 0.77648 0.46167 0.40629 0.0
C1524 C 0.78581 0.47855 0.42093 0.0
C1525 C 0.78546 0.44248 0.40466 0.0
C1526 C 0.80521 0.4767 0.43247 0.0
C1527 C 0.81443 0.45784 0.43064 0.0
H1528 H 0.6427 0.50284 0.97904 0.0
H1529 H 0.6108 0.51625 0.03436 0.0
H1530 H 0.6106 0.47965 0.04172 0.0
H1531 H 0.62353 0.4451 0.03513 0.0
H1532 H 0.65763 0.43231 0.98125 0.0
H1533 H 0.65229 0.46697 0.97032 0.0
C1534 C 0.63558 0.49769 0.99262 0.0
C1535 C 0.62698 0.51235 0.00622 0.0
C1536 C 0.63583 0.47664 0.99701 0.0
C1537 C 0.61743 0.50533 0.02353 0.0
C1538 C 0.61741 0.48439 0.02785 0.0
C1539 C 0.62949 0.44978 0.0208 0.0
C1540 C 0.6412 0.43619 0.00922 0.0
C1541 C 0.62712 0.47008 0.01506 0.0
C1542 C 0.64844 0.44233 0.99044 0.0
C1543 C 0.64567 0.46232 0.98432 0.0
H1544 H 0.61351 0.38197 0.10414 0.0
H1545 H 0.61208 0.31664 0.11582 0.0
H1546 H 0.61936 0.30701 0.0797 0.0
H1547 H 0.62026 0.31624 0.0433 0.0
H1548 H 0.6178 0.38088 0.03089 0.0
H1549 H 0.61785 0.39169 0.06856 0.0
C1550 C 0.61487 0.36562 0.09884 0.0
C1551 C 0.61186 0.35004 0.11271 0.0
C1552 C 0.61824 0.36004 0.07777 0.0
C1553 C 0.61436 0.32903 0.10565 0.0
C1554 C 0.61835 0.32345 0.08487 0.0
C1555 C 0.62045 0.33276 0.049 0.0
C1556 C 0.6191 0.34779 0.03446 0.0
C1557 C 0.61955 0.33869 0.07059 0.0
C1558 C 0.61895 0.36911 0.04189 0.0
C1559 C 0.61881 0.37523 0.06339 0.0
H1560 H 0.01726 0.22578 0.98113 0.0
H1561 H 0.98553 0.28053 0.969 0.0
H1562 H 0.98775 0.2913 0.00675 0.0
H1563 H 0.99445 0.28273 0.04329 0.0
H1564 H 0.02364 0.22678 0.05553 0.0
H1565 H 0.02666 0.21881 0.01776 0.0
C1566 C 0.01093 0.24013 0.98673 0.0
C1567 C 0.00106 0.25219 0.97215 0.0
C1568 C 0.01171 0.24594 0.00853 0.0
C1569 C 0.99337 0.271 0.97974 0.0
C1570 C 0.99445 0.27709 0.00138 0.0
C1571 C 0.00199 0.26914 0.03763 0.0
C1572 C 0.00907 0.25546 0.05195 0.0
C1573 C 0.00303 0.26438 0.01591 0.0
C1574 C 0.01839 0.23762 0.04465 0.0
C1575 C 0.01994 0.23301 0.0231 0.0
H1576 H 0.40077 0.77693 0.39935 0.0
H1577 H 0.42633 0.83925 0.42735 0.0
H1578 H 0.42435 0.8281 0.46246 0.0
H1579 H 0.42072 0.79917 0.48493 0.0
H1580 H 0.39433 0.73725 0.45725 0.0
H1581 H 0.39057 0.74987 0.42232 0.0
C1582 C 0.40529 0.7883 0.41307 0.0
C1583 C 0.4143 0.80874 0.41061 0.0
C1584 C 0.40402 0.78182 0.43331 0.0
C1585 C 0.42003 0.8232 0.42871 0.0
C1586 C 0.41881 0.81688 0.44884 0.0
C1587 C 0.41346 0.7887 0.4713 0.0
C1588 C 0.40781 0.76738 0.47349 0.0
C1589 C 0.41167 0.79601 0.45131 0.0
C1590 C 0.39857 0.75379 0.45584 0.0
C1591 C 0.39667 0.76096 0.43587 0.0
H1592 H 0.00154 0.59422 0.50181 0.0
H1593 H 0.01159 0.65543 0.53804 0.0
H1594 H 0.01378 0.67233 0.50581 0.0
H1595 H 0.01675 0.66974 0.46795 0.0
H1596 H 0.0088 0.60892 0.4314 0.0
H1597 H 0.00176 0.59183 0.46308 0.0
C1598 C 0.00413 0.61127 0.50265 0.0
C1599 C 0.00655 0.62348 0.52243 0.0
C1600 C 0.00589 0.62094 0.484 0.0
C1601 C 0.00945 0.64558 0.52313 0.0
C1602 C 0.0109 0.6553 0.50468 0.0
C1603 C 0.01329 0.65274 0.46691 0.0
C1604 C 0.01358 0.64054 0.44752 0.0
C1605 C 0.00972 0.64312 0.48515 0.0
C1606 C 0.00868 0.6186 0.44621 0.0
C1607 C 0.00481 0.60886 0.46433 0.0
H1608 H 0.8886 0.40371 0.62999 0.0
H1609 H 0.88206 0.4058 0.69643 0.0
H1610 H 0.91697 0.39382 0.70265 0.0
H1611 H 0.94782 0.38617 0.69003 0.0
H1612 H 0.95364 0.38548 0.62166 0.0
H1613 H 0.92052 0.3928 0.61726 0.0
C1614 C 0.89482 0.4016 0.64592 0.0
C1615 C 0.88284 0.40603 0.66274 0.0
C1616 C 0.91502 0.39509 0.6496 0.0
C1617 C 0.8909 0.40256 0.68312 0.0
C1618 C 0.91099 0.39583 0.68664 0.0
C1619 C 0.94441 0.38738 0.67344 0.0
C1620 C 0.9605 0.38514 0.65774 0.0
C1621 C 0.92349 0.39257 0.66984 0.0
C1622 C 0.94776 0.38679 0.63695 0.0
C1623 C 0.92702 0.39146 0.63331 0.0
H1624 H 0.59078 0.59393 0.21168 0.0
H1625 H 0.61542 0.57205 0.26983 0.0
H1626 H 0.58081 0.57174 0.28259 0.0
H1627 H 0.54266 0.57254 0.27517 0.0
H1628 H 0.51736 0.59181 0.21606 0.0
H1629 H 0.55301 0.59865 0.20596 0.0
C1630 C 0.58862 0.58929 0.22723 0.0
C1631 C 0.6057 0.58276 0.23963 0.0
C1632 C 0.56847 0.58857 0.23428 0.0
C1633 C 0.60269 0.57727 0.25995 0.0
C1634 C 0.58281 0.5769 0.26721 0.0
C1635 C 0.54499 0.57857 0.26022 0.0
C1636 C 0.52736 0.58138 0.24627 0.0
C1637 C 0.56546 0.58177 0.25421 0.0
C1638 C 0.53063 0.58958 0.22713 0.0
C1639 C 0.55102 0.59326 0.22124 0.0
H1640 H 0.50374 0.00504 0.39531 0.0
H1641 H 0.48529 0.02628 0.33499 0.0
H1642 H 0.52072 0.0233 0.32479 0.0
H1643 H 0.55541 0.01059 0.33136 0.0
H1644 H 0.5734 0.98791 0.39101 0.0
H1645 H 0.54005 0.99651 0.40353 0.0
C1646 C 0.50758 0.00954 0.38014 0.0
C1647 C 0.49174 0.0156 0.36582 0.0
C1648 C 0.52795 0.00759 0.37429 0.0
C1649 C 0.49702 0.02116 0.34614 0.0
C1650 C 0.51731 0.01955 0.34034 0.0
C1651 C 0.55217 0.00791 0.34726 0.0
C1652 C 0.56673 0.99839 0.36014 0.0
C1653 C 0.53268 0.01215 0.35403 0.0
C1654 C 0.56251 0.99529 0.3808 0.0
C1655 C 0.54332 0.99996 0.38787 0.0
H1656 H 0.019 0.98296 0.74454 0.0
H1657 H 0.02657 0.0417 0.71691 0.0
H1658 H 0.98844 0.04134 0.71064 0.0
H1659 H 0.95313 0.02694 0.71724 0.0
H1660 H 0.94513 0.96914 0.74618 0.0
H1661 H 0.98311 0.96634 0.74744 0.0
C1662 C 0.01229 0.99556 0.73695 0.0
C1663 C 0.0257 0.01243 0.73139 0.0
C1664 C 0.99024 0.99548 0.73373 0.0
C1665 C 0.01672 0.02844 0.72122 0.0
C1666 C 0.99486 0.02835 0.71778 0.0
C1667 C 0.9597 0.01353 0.72347 0.0
C1668 C 0.94645 0.99838 0.73181 0.0
C1669 C 0.98151 0.01232 0.72456 0.0
C1670 C 0.95503 0.98095 0.7396 0.0
C1671 C 0.97676 0.97947 0.74051 0.0
H1672 H 0.64595 0.88018 0.37024 0.0
H1673 H 0.6867 0.88777 0.4287 0.0
H1674 H 0.69534 0.9248 0.42469 0.0
H1675 H 0.68966 0.95321 0.4071 0.0
H1676 H 0.65001 0.94501 0.34635 0.0
H1677 H 0.64426 0.91053 0.34978 0.0
C1678 C 0.65673 0.88996 0.38216 0.0
C1679 C 0.66542 0.88115 0.39988 0.0
C1680 C 0.66158 0.91151 0.38007 0.0
C1681 C 0.67982 0.89396 0.41478 0.0
C1682 C 0.68463 0.91528 0.41254 0.0
C1683 C 0.6784 0.94623 0.39402 0.0
C1684 C 0.66727 0.9589 0.37846 0.0
C1685 C 0.675 0.92435 0.39539 0.0
C1686 C 0.65707 0.94213 0.36154 0.0
C1687 C 0.65356 0.92043 0.36276 0.0
H1688 H 0.73179 0.02276 0.01927 0.0
H1689 H 0.76963 0.02265 0.96708 0.0
H1690 H 0.76563 0.98414 0.96287 0.0
H1691 H 0.75597 0.95074 0.97772 0.0
H1692 H 0.71921 0.9514 0.03056 0.0
H1693 H 0.71754 0.98934 0.0304 0.0
C1694 C 0.73862 0.01438 0.00653 0.0
C1695 C 0.7513 0.02564 0.99376 0.0
C1696 C 0.73648 0.99224 0.00437 0.0
C1697 C 0.76017 0.01439 0.97746 0.0
C1698 C 0.75785 0.99235 0.975 0.0
C1699 C 0.74699 0.95916 0.98865 0.0
C1700 C 0.73766 0.94847 0.00409 0.0
C1701 C 0.74673 0.98111 0.98889 0.0
C1702 C 0.72637 0.95944 0.01848 0.0
C1703 C 0.72559 0.98112 0.0185 0.0
H1704 H 0.20178 0.58559 0.59231 0.0
H1705 H 0.26192 0.61017 0.5746 0.0
H1706 H 0.27387 0.57519 0.57372 0.0
H1707 H 0.26556 0.53696 0.57302 0.0
H1708 H 0.20486 0.51182 0.58865 0.0
H1709 H 0.19497 0.54756 0.59565 0.0
C1710 C 0.21757 0.58332 0.58847 0.0
C1711 C 0.23081 0.60052 0.58331 0.0
C1712 C 0.22423 0.56299 0.58751 0.0
C1713 C 0.2514 0.59734 0.57878 0.0
C1714 C 0.25822 0.57726 0.57809 0.0
C1715 C 0.25031 0.53935 0.57834 0.0
C1716 C 0.23588 0.52177 0.58008 0.0
C1717 C 0.24453 0.55988 0.58172 0.0
C1718 C 0.21629 0.52507 0.58727 0.0
C1719 C 0.21055 0.54551 0.59105 0.0
H1720 H 0.39323 0.50877 0.01321 0.0
H1721 H 0.33059 0.48787 0.02731 0.0
H1722 H 0.32098 0.52385 0.02733 0.0
H1723 H 0.32864 0.55976 0.01768 0.0
H1724 H 0.39029 0.57971 1.00038 0.0
H1725 H 0.4022 0.5459 0.00788 0.0
C1726 C 0.37752 0.51214 0.01648 0.0
C1727 C 0.36251 0.49557 0.01984 0.0
C1728 C 0.37194 0.53274 0.01587 0.0
C1729 C 0.34243 0.50028 0.02464 0.0
C1730 C 0.33689 0.52085 0.02451 0.0
C1731 C 0.34481 0.55683 0.01594 0.0
C1732 C 0.35843 0.57212 0.00813 0.0
C1733 C 0.35125 0.537 0.01932 0.0
C1734 C 0.37946 0.5683 0.0064 0.0
C1735 C 0.38621 0.54882 0.01041 0.0
H1736 H 0.38943 0.6771 0.88642 0.0
H1737 H 0.38059 0.60934 0.88444 0.0
H1738 H 0.37209 0.61235 0.92067 0.0
H1739 H 0.37152 0.63274 0.95154 0.0
H1740 H 0.3779 0.70212 0.95301 0.0
H1741 H 0.38157 0.69813 0.91839 0.0
C1742 C 0.38536 0.66295 0.89383 0.0
C1743 C 0.38637 0.64302 0.88287 0.0
C1744 C 0.38058 0.6646 0.91492 0.0
C1745 C 0.38063 0.62494 0.89266 0.0
C1746 C 0.3757 0.62669 0.91343 0.0
C1747 C 0.37441 0.64839 0.94681 0.0
C1748 C 0.37795 0.66817 0.96212 0.0
C1749 C 0.37658 0.64663 0.92504 0.0
C1750 C 0.37776 0.68553 0.94782 0.0
C1751 C 0.37991 0.68386 0.92621 0.0
H1752 H 0.99408 0.74599 0.01711 0.0
H1753 H 0.05365 0.71967 0.02257 0.0
H1754 H 0.05236 0.71408 0.98427 0.0
H1755 H 0.0365 0.72056 0.94942 0.0
H1756 H 0.97717 0.74701 0.94352 0.0
H1757 H 0.97578 0.74802 0.98172 0.0
C1758 C 0.00652 0.73855 0.00994 0.0
C1759 C 0.02414 0.73363 0.02275 0.0
C1760 C 0.00573 0.73545 0.98781 0.0
C1761 C 0.04016 0.72409 0.01312 0.0
C1762 C 0.0394 0.7208 0.9912 0.0
C1763 C 0.02306 0.72612 0.95651 0.0
C1764 C 0.00704 0.73385 0.9438 0.0
C1765 C 0.02262 0.72703 0.97842 0.0
C1766 C 0.98963 0.74089 0.95302 0.0
C1767 C 0.98895 0.74166 0.97487 0.0
H1768 H 0.58018 0.2671 0.60413 0.0
H1769 H 0.60705 0.20873 0.59041 0.0
H1770 H 0.60588 0.21452 0.55321 0.0
H1771 H 0.59227 0.23357 0.52394 0.0
H1772 H 0.5651 0.29162 0.538 0.0
H1773 H 0.57196 0.28887 0.57575 0.0
C1774 C 0.58643 0.25593 0.59319 0.0
C1775 C 0.59334 0.23731 0.60009 0.0
C1776 C 0.58552 0.25925 0.57178 0.0
C1777 C 0.60117 0.22297 0.5855 0.0
C1778 C 0.60056 0.22629 0.5642 0.0
C1779 C 0.5885 0.24594 0.53531 0.0
C1780 C 0.578 0.26265 0.52824 0.0
C1781 C 0.59202 0.24398 0.55703 0.0
C1782 C 0.57302 0.2785 0.54312 0.0
C1783 C 0.57684 0.27689 0.56468 0.0
H1784 H 0.02726 0.35033 0.4924 0.0
H1785 H 0.00188 0.41034 0.49399 0.0
H1786 H 0.99558 0.40855 0.53074 0.0
H1787 H 0.99223 0.38737 0.56063 0.0
H1788 H 0.01596 0.32666 0.55837 0.0
H1789 H 0.02827 0.33137 0.524 0.0
C1790 C 0.02059 0.36312 0.50089 0.0
C1791 C 0.01486 0.38031 0.49038 0.0
C1792 C 0.01667 0.36183 0.52197 0.0
C1793 C 0.00655 0.39695 0.5017 0.0
C1794 C 0.0028 0.39589 0.52271 0.0
C1795 C 0.00078 0.37558 0.5529 0.0
C1796 C 0.00324 0.35673 0.5619 0.0
C1797 C 0.00716 0.3781 0.5328 0.0
C1798 C 0.01402 0.34133 0.55167 0.0
C1799 C 0.02085 0.34393 0.53195 0.0
H1800 H 0.23862 0.48274 0.44272 0.0
H1801 H 0.29392 0.52717 0.46063 0.0
H1802 H 0.29606 0.51693 0.49636 0.0
H1803 H 0.27965 0.49885 0.52356 0.0
H1804 H 0.22355 0.45554 0.50652 0.0
H1805 H 0.22457 0.46135 0.46938 0.0
C1806 C 0.25123 0.49001 0.45443 0.0
C1807 C 0.26597 0.50583 0.44906 0.0
C1808 C 0.25225 0.4842 0.47509 0.0
C1809 C 0.28244 0.51488 0.46429 0.0
C1810 C 0.28362 0.50912 0.48478 0.0
C1811 C 0.26797 0.4903 0.5116 0.0
C1812 C 0.25149 0.47691 0.51771 0.0
C1813 C 0.2683 0.49424 0.49048 0.0
C1814 C 0.23648 0.4658 0.50214 0.0
C1815 C 0.23691 0.46936 0.48096 0.0
H1816 H 0.26403 0.5374 0.90746 0.0
H1817 H 0.31021 0.55661 0.86637 0.0
H1818 H 0.3254 0.58536 0.89291 0.0
H1819 H 0.32932 0.60069 0.92985 0.0
H1820 H 0.28446 0.58003 0.97151 0.0
H1821 H 0.2644 0.55676 0.94242 0.0
C1822 C 0.27699 0.54827 0.90402 0.0
C1823 C 0.28621 0.54463 0.88512 0.0
C1824 C 0.28588 0.56451 0.91949 0.0
C1825 C 0.30312 0.55879 0.881 0.0
C1826 C 0.31177 0.57527 0.89613 0.0
C1827 C 0.31466 0.59175 0.9323 0.0
C1828 C 0.30832 0.59197 0.95271 0.0
C1829 C 0.30383 0.57771 0.91576 0.0
C1830 C 0.28953 0.58007 0.95586 0.0
C1831 C 0.27823 0.56662 0.9393 0.0
H1832 H 0.6788 0.06176 0.49879 0.0
H1833 H 0.6132 0.03752 0.49588 0.0
H1834 H 0.6095 0.03757 0.45766 0.0
H1835 H 0.62656 0.03887 0.42485 0.0
H1836 H 0.69196 0.0633 0.42809 0.0
H1837 H 0.69377 0.06985 0.46643 0.0
C1838 C 0.66348 0.05715 0.48998 0.0
C1839 C 0.6465 0.04902 0.50023 0.0
C1840 C 0.66141 0.05728 0.46798 0.0
C1841 C 0.62679 0.04312 0.48836 0.0
C1842 C 0.62459 0.04327 0.46649 0.0
C1843 C 0.64096 0.04628 0.43398 0.0
C1844 C 0.65916 0.05038 0.42381 0.0
C1845 C 0.64204 0.04943 0.45606 0.0
C1846 C 0.67774 0.06008 0.43564 0.0
C1847 C 0.67886 0.06356 0.45758 0.0
H1848 H 0.81935 0.93203 0.11655 0.0
H1849 H 0.77271 0.8887 0.13864 0.0
H1850 H 0.75752 0.87767 0.10236 0.0
H1851 H 0.75443 0.88427 0.06487 0.0
H1852 H 0.80078 0.92822 0.04339 0.0
H1853 H 0.81958 0.93455 0.0788 0.0
C1854 C 0.80628 0.91969 0.11346 0.0
C1855 C 0.79699 0.91149 0.13036 0.0
C1856 C 0.7975 0.9136 0.0926 0.0
C1857 C 0.77989 0.89565 0.12596 0.0
C1858 C 0.77122 0.88928 0.1052 0.0
C1859 C 0.76901 0.89471 0.06789 0.0
C1860 C 0.77618 0.90591 0.05172 0.0
C1861 C 0.77941 0.89872 0.08845 0.0
C1862 C 0.79496 0.91955 0.05574 0.0
C1863 C 0.80563 0.92325 0.07597 0.0
H1864 H 0.44488 0.2731 0.49578 0.0
H1865 H 0.44043 0.20527 0.49357 0.0
H1866 H 0.47568 0.20548 0.48205 0.0
H1867 H 0.50943 0.22536 0.4771 0.0
H1868 H 0.51419 0.29308 0.48067 0.0
H1869 H 0.47688 0.29253 0.48638 0.0
C1870 C 0.45134 0.25829 0.49224 0.0
C1871 C 0.44008 0.23922 0.49582 0.0
C1872 C 0.47168 0.25854 0.48576 0.0
C1873 C 0.4489 0.22023 0.49139 0.0
C1874 C 0.46903 0.22031 0.48469 0.0
C1875 C 0.50198 0.23987 0.47835 0.0
C1876 C 0.51423 0.25921 0.47815 0.0
C1877 C 0.4808 0.23942 0.48243 0.0
C1878 C 0.5048 0.27804 0.48039 0.0
C1879 C 0.4836 0.27771 0.48391 0.0
H1880 H 0.11734 0.81247 0.91607 0.0
H1881 H 0.13823 0.7617 0.87679 0.0
H1882 H 0.1018 0.74585 0.8682 0.0
H1883 H 0.06463 0.74398 0.87597 0.0
H1884 H 0.04448 0.79443 0.91603 0.0
H1885 H 0.07987 0.81326 0.91963 0.0
C1886 C 0.11395 0.7983 0.90511 0.0
C1887 C 0.13058 0.78815 0.89735 0.0
C1888 C 0.09303 0.78917 0.90042 0.0
C1889 C 0.12578 0.76961 0.88336 0.0
C1890 C 0.10494 0.76056 0.87838 0.0
C1891 C 0.06794 0.75939 0.88491 0.0
C1892 C 0.05217 0.76787 0.89578 0.0
C1893 C 0.08851 0.76982 0.88742 0.0
C1894 C 0.05652 0.7877 0.90757 0.0
C1895 C 0.07674 0.79837 0.90973 0.0
H1896 H 0.87338 0.29527 0.54091 0.0
H1897 H 0.91189 0.25247 0.51044 0.0
H1898 H 0.94129 0.26425 0.53737 0.0
H1899 H 0.95774 0.29089 0.56571 0.0
H1900 H 0.92016 0.33571 0.59438 0.0
H1901 H 0.88864 0.31858 0.5726 0.0
C1902 C 0.88814 0.28836 0.54033 0.0
C1903 C 0.89053 0.27327 0.52349 0.0
C1904 C 0.90518 0.29559 0.55559 0.0
C1905 C 0.90958 0.26408 0.52322 0.0
C1906 C 0.92647 0.27092 0.53855 0.0
C1907 C 0.94252 0.29653 0.56755 0.0
C1908 C 0.94133 0.31471 0.58138 0.0
C1909 C 0.92469 0.28724 0.55429 0.0
C1910 C 0.92151 0.3217 0.5839 0.0
C1911 C 0.90352 0.31211 0.5712 0.0
H1912 H 0.49071 0.62802 0.07152 0.0
H1913 H 0.51753 0.6807 0.04201 0.0
H1914 H 0.48362 0.69478 0.03915 0.0
H1915 H 0.44542 0.68939 0.03996 0.0
H1916 H 0.41758 0.6359 0.0671 0.0
H1917 H 0.45272 0.62479 0.07598 0.0
C1918 C 0.48917 0.64269 0.06466 0.0
C1919 C 0.50667 0.65314 0.05681 0.0
C1920 C 0.46937 0.65042 0.06244 0.0
C1921 C 0.50448 0.67238 0.04837 0.0
C1922 C 0.485 0.68037 0.04651 0.0
C1923 C 0.4472 0.67559 0.04829 0.0
C1924 C 0.42919 0.66338 0.05287 0.0
C1925 C 0.46724 0.66914 0.05279 0.0
C1926 C 0.43139 0.64552 0.06358 0.0
C1927 C 0.45141 0.63912 0.06847 0.0
H1928 H 0.50648 0.45391 0.27966 0.0
H1929 H 0.48485 0.43722 0.21375 0.0
H1930 H 0.47178 0.47165 0.21183 0.0
H1931 H 0.47087 0.50809 0.22779 0.0
H1932 H 0.49426 0.52511 0.29307 0.0
H1933 H 0.50158 0.48875 0.29664 0.0
C1934 C 0.49841 0.45755 0.26501 0.0
C1935 C 0.49688 0.44308 0.24682 0.0
C1936 C 0.49118 0.47746 0.26396 0.0
C1937 C 0.4866 0.44823 0.22789 0.0
C1938 C 0.47903 0.46788 0.2268 0.0
C1939 C 0.47684 0.50355 0.24294 0.0
C1940 C 0.48181 0.519 0.26023 0.0
C1941 C 0.48182 0.48285 0.24457 0.0
C1942 C 0.49007 0.51327 0.27969 0.0
C1943 C 0.49446 0.49258 0.28164 0.0
H1944 H 0.89421 0.12212 0.77777 0.0
H1945 H 0.94591 0.11214 0.82286 0.0
H1946 H 0.94045 0.07441 0.81195 0.0
H1947 H 0.92432 0.04505 0.78647 0.0
H1948 H 0.87403 0.05481 0.73992 0.0
H1949 H 0.87542 0.09175 0.75462 0.0
C1950 C 0.90415 0.11165 0.78532 0.0
C1951 C 0.92059 0.12002 0.80096 0.0
C1952 C 0.90128 0.08995 0.7786 0.0
C1953 C 0.93305 0.10618 0.81091 0.0
C1954 C 0.93007 0.08458 0.80455 0.0
C1955 C 0.91347 0.05524 0.77977 0.0
C1956 C 0.89931 0.04743 0.76199 0.0
C1957 C 0.91472 0.07643 0.78796 0.0
C1958 C 0.88506 0.06055 0.75361 0.0
C1959 C 0.88598 0.08168 0.76191 0.0
H1960 H 0.53079 0.90049 0.26335 0.0
H1961 H 0.55696 0.85743 0.30391 0.0
H1962 H 0.58525 0.88466 0.31854 0.0
H1963 H 0.5983 0.92224 0.32437 0.0
H1964 H 0.57098 0.9657 0.28517 0.0
H1965 H 0.54794 0.93663 0.26482 0.0
C1966 C 0.54305 0.89684 0.27489 0.0
C1967 C 0.54152 0.87709 0.28283 0.0
C1968 C 0.55906 0.91271 0.28352 0.0
C1969 C 0.55751 0.87268 0.29789 0.0
C1970 C 0.57373 0.88822 0.30622 0.0
C1971 C 0.58794 0.9252 0.3108 0.0
C1972 C 0.58619 0.94604 0.30632 0.0
C1973 C 0.5741 0.90856 0.29983 0.0
C1974 C 0.57252 0.94974 0.28888 0.0
C1975 C 0.55919 0.93316 0.27742 0.0
H1976 H 0.04367 0.4808 0.63132 0.0
H1977 H 0.07986 0.49414 0.69238 0.0
H1978 H 0.08341 0.45675 0.69346 0.0
H1979 H 0.07071 0.42062 0.68024 0.0
H1980 H 0.03507 0.40678 0.61874 0.0
H1981 H 0.03761 0.44415 0.61451 0.0
C1982 C 0.05287 0.47564 0.64459 0.0
C1983 C 0.06092 0.49024 0.66205 0.0
C1984 C 0.05481 0.45402 0.64518 0.0
C1985 C 0.07287 0.48319 0.67905 0.0
C1986 C 0.07503 0.4618 0.67963 0.0
C1987 C 0.06406 0.4254 0.66548 0.0
C1988 C 0.0518 0.41055 0.65033 0.0
C1989 C 0.06522 0.44702 0.66322 0.0
C1990 C 0.04377 0.41762 0.63127 0.0
C1991 C 0.0452 0.43913 0.62876 0.0
H1992 H 0.72516 0.50229 0.54121 0.0
H1993 H 0.79186 0.51491 0.56127 0.0
H1994 H 0.79828 0.52424 0.52627 0.0
H1995 H 0.78547 0.52453 0.48892 0.0
H1996 H 0.7189 0.51226 0.46888 0.0
H1997 H 0.71179 0.50788 0.50515 0.0
C1998 C 0.74104 0.50763 0.53817 0.0
C1999 C 0.75804 0.50743 0.55379 0.0
C2000 C 0.74464 0.51304 0.51798 0.0
C2001 C 0.77853 0.51432 0.5494 0.0
C2002 C 0.78222 0.51978 0.52941 0.0
C2003 C 0.76938 0.52137 0.49265 0.0
C2004 C 0.75274 0.51855 0.47634 0.0
C2005 C 0.76549 0.51851 0.51341 0.0
C2006 C 0.73193 0.5146 0.48125 0.0
C2007 C 0.7279 0.51189 0.50193 0.0
H2008 H 0.69518 0.44981 0.13904 0.0
H2009 H 0.74826 0.4751 0.10921 0.0
H2010 H 0.73744 0.45028 0.07792 0.0
H2011 H 0.71004 0.42524 0.05706 0.0
H2012 H 0.65561 0.40191 0.08564 0.0
H2013 H 0.66982 0.42175 0.11942 0.0
C2014 C 0.70446 0.44976 0.12575 0.0
C2015 C 0.72238 0.46446 0.12643 0.0
C2016 C 0.69788 0.43573 0.10756 0.0
C2017 C 0.73447 0.46391 0.10922 0.0
C2018 C 0.72822 0.44979 0.09122 0.0
C2019 C 0.70178 0.42391 0.07096 0.0
C2020 C 0.68203 0.41199 0.06912 0.0
C2021 C 0.70963 0.43608 0.08998 0.0
C2022 C 0.67102 0.41075 0.08693 0.0
C2023 C 0.67903 0.42231 0.10612 0.0
H2024 H 0.32416 0.94775 0.49125 0.0
H2025 H 0.3737 0.99916 0.49583 0.0
H2026 H 0.3729 0.00452 0.53388 0.0
H2027 H 0.35507 0.99771 0.56505 0.0
H2028 H 0.304 0.94793 0.56037 0.0
H2029 H 0.30859 0.93866 0.52328 0.0
C2030 C 0.33489 0.96001 0.50061 0.0
C2031 C 0.34879 0.97317 0.49064 0.0
C2032 C 0.33397 0.9634 0.52246 0.0
C2033 C 0.36293 0.98869 0.50305 0.0
C2034 C 0.36236 0.99191 0.52483 0.0
C2035 C 0.3451 0.9847 0.55593 0.0
C2036 C 0.32903 0.97372 0.56529 0.0
C2037 C 0.34748 0.97983 0.53456 0.0
C2038 C 0.3165 0.9566 0.5535 0.0
C2039 C 0.31901 0.95142 0.53226 0.0
H2040 H 0.18014 0.07489 0.87995 0.0
H2041 H 0.23758 0.10378 0.86014 0.0
H2042 H 0.25192 0.11327 0.89682 0.0
H2043 H 0.24999 0.1092 0.93415 0.0
H2044 H 0.19261 0.08069 0.95436 0.0
H2045 H 0.17628 0.07555 0.9179 0.0
C2046 C 0.19558 0.0837 0.88366 0.0
C2047 C 0.20794 0.08821 0.86732 0.0
C2048 C 0.20382 0.08905 0.90485 0.0
C2049 C 0.22795 0.09962 0.87242 0.0
C2050 C 0.23615 0.10515 0.8934 0.0
C2051 C 0.23368 0.1025 0.93072 0.0
C2052 C 0.22263 0.09515 0.94696 0.0
C2053 C 0.2245 0.09934 0.90973 0.0
C2054 C 0.20158 0.08622 0.9421 0.0
C2055 C 0.19224 0.08324 0.92126 0.0
H2056 H 0.53514 0.7209 0.49598 0.0
H2057 H 0.54878 0.78842 0.49792 0.0
H2058 H 0.51423 0.79328 0.50942 0.0
H2059 H 0.4787 0.77818 0.51479 0.0
H2060 H 0.46501 0.71081 0.51291 0.0
H2061 H 0.50137 0.70611 0.50645 0.0
C2062 C 0.53084 0.73672 0.49944 0.0
C2063 C 0.54444 0.75424 0.49563 0.0
C2064 C 0.51093 0.73944 0.50613 0.0
C2065 C 0.53843 0.77461 0.50011 0.0
C2066 C 0.51871 0.77743 0.50683 0.0
C2067 C 0.48386 0.76252 0.51342 0.0
C2068 C 0.46923 0.74486 0.51414 0.0
C2069 C 0.5046 0.75993 0.50923 0.0
C2070 C 0.47605 0.72464 0.51253 0.0
C2071 C 0.49677 0.72195 0.5086 0.0
H2072 H 0.87867 0.22984 0.09678 0.0
H2073 H 0.8944 0.16859 0.07301 0.0
H2074 H 0.93184 0.18124 0.07916 0.0
H2075 H 0.95984 0.21063 0.08799 0.0
H2076 H 0.94415 0.27171 0.11191 0.0
H2077 H 0.90697 0.25793 0.10982 0.0
C2078 C 0.89024 0.21905 0.09344 0.0
C2079 C 0.88363 0.19836 0.08411 0.0
C2080 C 0.91177 0.22639 0.09708 0.0
C2081 C 0.89897 0.18473 0.0797 0.0
C2082 C 0.92041 0.19191 0.08333 0.0
C2083 C 0.94828 0.2208 0.09305 0.0
C2084 C 0.95463 0.24216 0.09992 0.0
C2085 C 0.92694 0.21286 0.09145 0.0
C2086 C 0.93963 0.25518 0.10668 0.0
C2087 C 0.91835 0.24735 0.10529 0.0
H2088 H 0.13909 0.70751 0.45215 0.0
H2089 H 0.10638 0.74847 0.49208 0.0
H2090 H 0.07341 0.73742 0.46983 0.0
H2091 H 0.05297 0.71188 0.44273 0.0
H2092 H 0.08488 0.66959 0.40373 0.0
H2093 H 0.1191 0.68559 0.42152 0.0
C2094 C 0.12478 0.71421 0.45578 0.0
C2095 C 0.12515 0.7286 0.47389 0.0
C2096 C 0.10573 0.70752 0.44306 0.0
C2097 C 0.10658 0.73744 0.47821 0.0
C2098 C 0.08766 0.73103 0.46556 0.0
C2099 C 0.06752 0.70682 0.43763 0.0
C2100 C 0.06661 0.68979 0.42195 0.0
C2101 C 0.08693 0.71557 0.44841 0.0
C2102 C 0.08537 0.68294 0.41558 0.0
C2103 C 0.10486 0.69187 0.42596 0.0
H2104 H 0.48804 0.32165 0.96437 0.0
H2105 H 0.49516 0.38895 0.98174 0.0
H2106 H 0.53338 0.38959 0.98255 0.0
H2107 H 0.56482 0.37035 0.98225 0.0
H2108 H 0.55731 0.30311 0.96496 0.0
H2109 H 0.51916 0.30332 0.95925 0.0
C2110 C 0.49782 0.33659 0.96775 0.0
C2111 C 0.48868 0.35516 0.97335 0.0
C2112 C 0.51977 0.33687 0.96816 0.0
C2113 C 0.50177 0.37431 0.9779 0.0
C2114 C 0.52364 0.37472 0.97826 0.0
C2115 C 0.5548 0.35583 0.97688 0.0
C2116 C 0.56383 0.33674 0.97419 0.0
C2117 C 0.53283 0.35599 0.97408 0.0
C2118 C 0.55077 0.31804 0.96698 0.0
C2119 C 0.52892 0.31811 0.96394 0.0
H2120 H 0.50363 0.5444 0.74304 0.0
H2121 H 0.43679 0.52484 0.73483 0.0
H2122 H 0.44347 0.48809 0.73554 0.0
H2123 H 0.46788 0.46196 0.74115 0.0
H2124 H 0.53479 0.48059 0.75181 0.0
H2125 H 0.52868 0.5172 0.74688 0.0
C2126 C 0.49064 0.53199 0.74117 0.0
C2127 C 0.46975 0.53722 0.73909 0.0
C2128 C 0.49462 0.51082 0.74203 0.0
C2129 C 0.45296 0.52112 0.73671 0.0
C2130 C 0.45677 0.50014 0.73706 0.0
C2131 C 0.48116 0.47403 0.74237 0.0
C2132 C 0.50171 0.46873 0.74722 0.0
C2133 C 0.47747 0.49489 0.74017 0.0
C2134 C 0.51882 0.48436 0.74816 0.0
C2135 C 0.51529 0.50527 0.74549 0.0
H2136 H 0.09115 0.88046 0.2016 0.0
H2137 H 0.02457 0.88225 0.20633 0.0
H2138 H 0.03068 0.91945 0.21945 0.0
H2139 H 0.05468 0.95065 0.23134 0.0
H2140 H 0.12125 0.9507 0.22567 0.0
H2141 H 0.11546 0.91335 0.21157 0.0
C2142 C 0.078 0.88912 0.20523 0.0
C2143 C 0.05746 0.87855 0.20324 0.0
C2144 C 0.08163 0.91067 0.21282 0.0
C2145 C 0.04056 0.88992 0.20809 0.0
C2146 C 0.04402 0.9112 0.21555 0.0
C2147 C 0.06796 0.94277 0.22653 0.0
C2148 C 0.08835 0.95364 0.22926 0.0
C2149 C 0.06447 0.92162 0.21823 0.0
C2150 C 0.10539 0.94274 0.22376 0.0
C2151 C 0.10205 0.92143 0.2156 0.0
H2152 H 0.46033 0.14944 0.68548 0.0
H2153 H 0.46978 0.13349 0.74943 0.0
H2154 H 0.44498 0.10197 0.7403 0.0
H2155 H 0.42513 0.07613 0.71305 0.0
H2156 H 0.4182 0.09024 0.64853 0.0
H2157 H 0.43726 0.12528 0.65891 0.0
C2158 C 0.45686 0.13914 0.69746 0.0
C2159 C 0.46715 0.14378 0.71806 0.0
C2160 C 0.44304 0.12062 0.69195 0.0
C2161 C 0.46205 0.13048 0.73348 0.0
C2162 C 0.44796 0.1123 0.72824 0.0
C2163 C 0.42716 0.08721 0.70143 0.0
C2164 C 0.42026 0.08079 0.68011 0.0
C2165 C 0.43892 0.10687 0.70739 0.0
C2166 C 0.42333 0.09501 0.66506 0.0
C2167 C 0.43438 0.11491 0.67097 0.0
H2168 H 0.9526 0.47802 0.30781 0.0
H2169 H 0.9828 0.48244 0.37154 0.0
H2170 H 0.98614 0.52076 0.37341 0.0
H2171 H 0.98492 0.55274 0.3554 0.0
H2172 H 0.95848 0.54785 0.2903 0.0
H2173 H 0.94899 0.51021 0.29068 0.0
C2174 C 0.95984 0.48735 0.32215 0.0
C2175 C 0.96768 0.47728 0.33937 0.0
C2176 C 0.96249 0.50939 0.32286 0.0
C2177 C 0.97648 0.48968 0.35804 0.0
C2178 C 0.9786 0.51164 0.35908 0.0
C2179 C 0.97697 0.54346 0.34133 0.0
C2180 C 0.97267 0.55315 0.32281 0.0
C2181 C 0.97235 0.52163 0.34133 0.0
C2182 C 0.96186 0.54095 0.30487 0.0
C2183 C 0.95662 0.51933 0.30498 0.0
H2184 H 0.33924 0.58724 0.30486 0.0
H2185 H 0.30116 0.58078 0.24478 0.0
H2186 H 0.33288 0.58178 0.22655 0.0
H2187 H 0.37136 0.58474 0.22754 0.0
H2188 H 0.40972 0.5915 0.28744 0.0
H2189 H 0.37796 0.58942 0.30579 0.0
C2190 C 0.33786 0.58583 0.28777 0.0
C2191 C 0.31777 0.58408 0.27625 0.0
C2192 C 0.35622 0.58632 0.27733 0.0
C2193 C 0.31636 0.58252 0.2541 0.0
C2194 C 0.33451 0.58294 0.24363 0.0
C2195 C 0.37281 0.5859 0.24463 0.0
C2196 C 0.39296 0.5884 0.25606 0.0
C2197 C 0.35451 0.58497 0.25508 0.0
C2198 C 0.39446 0.58939 0.27819 0.0
C2199 C 0.37629 0.58835 0.28872 0.0
H2200 H 0.17908 0.37915 0.74652 0.0
H2201 H 0.16717 0.37395 0.81104 0.0
H2202 H 0.12929 0.36713 0.80014 0.0
H2203 H 0.09952 0.36276 0.7722 0.0
H2204 H 0.11177 0.36755 0.70766 0.0
H2205 H 0.14947 0.37458 0.71867 0.0
C2206 C 0.1682 0.37629 0.75816 0.0
C2207 C 0.17592 0.37696 0.77953 0.0
C2208 C 0.14647 0.37249 0.7518 0.0
C2209 C 0.1616 0.37364 0.79449 0.0
C2210 C 0.13995 0.3697 0.78827 0.0
C2211 C 0.11045 0.36524 0.76055 0.0
C2212 C 0.10277 0.36473 0.73915 0.0
C2213 C 0.1322 0.36912 0.76696 0.0
C2214 C 0.11717 0.36822 0.72428 0.0
C2215 C 0.13878 0.37207 0.73053 0.0
H2216 H 0.73329 0.97297 0.7013 0.0
H2217 H 0.75688 0.01999 0.66304 0.0
H2218 H 0.79302 0.01358 0.67411 0.0
H2219 H 0.81796 0.99365 0.69365 0.0
H2220 H 0.79418 0.94785 0.73311 0.0
H2221 H 0.75819 0.95492 0.72267 0.0
C2222 C 0.7463 0.98211 0.69564 0.0
C2223 C 0.74223 0.99685 0.68122 0.0
C2224 C 0.76709 0.97848 0.70219 0.0
C2225 C 0.75942 0.00826 0.67385 0.0
C2226 C 0.78015 0.00469 0.68026 0.0
C2227 C 0.80495 0.98542 0.70021 0.0
C2228 C 0.80887 0.97004 0.71398 0.0
C2229 C 0.78418 0.98968 0.69427 0.0
C2230 C 0.79169 0.95943 0.72213 0.0
C2231 C 0.77106 0.96355 0.71627 0.0
H2232 H 0.78135 0.98679 0.33694 0.0
H2233 H 0.74913 0.00932 0.28264 0.0
H2234 H 0.71587 0.0056 0.29836 0.0
H2235 H 0.69603 0.99597 0.32751 0.0
H2236 H 0.72856 0.97371 0.38191 0.0
H2237 H 0.76152 0.97734 0.36613 0.0
C2238 C 0.76711 0.99113 0.32865 0.0
C2239 C 0.76775 0.99834 0.30866 0.0
C2240 C 0.74805 0.98897 0.33778 0.0
C2241 C 0.74904 0.00353 0.29797 0.0
C2242 C 0.73002 0.00146 0.30697 0.0
C2243 C 0.71026 0.99193 0.33601 0.0
C2244 C 0.70977 0.98515 0.35622 0.0
C2245 C 0.72932 0.99411 0.32684 0.0
C2246 C 0.72846 0.97972 0.3667 0.0
C2247 C 0.74738 0.98161 0.3576 0.0
H2248 H 0.2813 0.32832 0.61222 0.0
H2249 H 0.28079 0.32089 0.54453 0.0
H2250 H 0.26558 0.35426 0.54235 0.0
H2251 H 0.25029 0.38466 0.5596 0.0
H2252 H 0.24982 0.39101 0.62715 0.0
H2253 H 0.2674 0.35904 0.62945 0.0
C2254 C 0.27776 0.33392 0.59696 0.0
C2255 C 0.28207 0.32197 0.57857 0.0
C2256 C 0.26877 0.35298 0.59579 0.0
C2257 C 0.27779 0.32978 0.55898 0.0
C2258 C 0.26898 0.34884 0.5577 0.0
C2259 C 0.25435 0.37916 0.57481 0.0
C2260 C 0.24868 0.39011 0.59317 0.0
C2261 C 0.26418 0.36049 0.57599 0.0
C2262 C 0.25386 0.38274 0.61278 0.0
C2263 C 0.2639 0.36446 0.61411 0.0
H2264 H 0.34127 0.786 0.99722 0.0
H2265 H 0.28174 0.75198 0.97069 0.0
H2266 H 0.29764 0.7189 0.96947 0.0
H2267 H 0.32865 0.69974 0.97481 0.0
H2268 H 0.38784 0.73334 0.0028 0.0
H2269 H 0.3719 0.7664 0.00449 0.0
C2270 C 0.33171 0.77133 0.99142 0.0
C2271 C 0.31039 0.77157 0.98384 0.0
C2272 C 0.34093 0.75226 0.99086 0.0
C2273 C 0.2983 0.75236 0.97621 0.0
C2274 C 0.30734 0.73339 0.97562 0.0
C2275 C 0.33802 0.7142 0.98157 0.0
C2276 C 0.35947 0.71403 0.98847 0.0
C2277 C 0.32868 0.73316 0.98272 0.0
C2278 C 0.37141 0.73302 0.99688 0.0
C2279 C 0.36226 0.75197 0.99804 0.0
H2280 H 0.72935 0.18186 0.38035 0.0
H2281 H 0.7764 0.17392 0.33729 0.0
H2282 H 0.76089 0.13764 0.32619 0.0
H2283 H 0.7337 0.10818 0.32871 0.0
H2284 H 0.68711 0.11643 0.3723 0.0
H2285 H 0.70267 0.15254 0.38321 0.0
C2286 C 0.7361 0.17222 0.36841 0.0
C2287 C 0.75388 0.18056 0.35954 0.0
C2288 C 0.72721 0.15141 0.36226 0.0
C2289 C 0.76274 0.16779 0.3444 0.0
C2290 C 0.75384 0.14709 0.33801 0.0
C2291 C 0.72696 0.11795 0.34054 0.0
C2292 C 0.70933 0.10963 0.34973 0.0
C2293 C 0.73605 0.13874 0.34682 0.0
C2294 C 0.70085 0.12238 0.36519 0.0
C2295 C 0.70965 0.14306 0.37136 0.0
H2296 H 0.66433 0.76219 0.01823 0.0
H2297 H 0.69729 0.72239 0.97742 0.0
H2298 H 0.71652 0.75354 0.96635 0.0
H2299 H 0.72354 0.79213 0.96784 0.0
H2300 H 0.69026 0.83174 0.00855 0.0
H2301 H 0.67211 0.80059 0.02056 0.0
C2302 C 0.67595 0.76028 0.00717 0.0
C2303 C 0.67933 0.73992 0.99869 0.0
C2304 C 0.68698 0.77824 0.00091 0.0
C2305 C 0.69418 0.73783 0.98403 0.0
C2306 C 0.70526 0.75565 0.97776 0.0
C2307 C 0.71226 0.79395 0.97929 0.0
C2308 C 0.70828 0.81429 0.98725 0.0
C2309 C 0.70167 0.77594 0.98597 0.0
C2310 C 0.69386 0.81632 0.00234 0.0
C2311 C 0.68333 0.7985 0.00911 0.0
H2312 H 0.58667 0.31131 0.33871 0.0
H2313 H 0.59166 0.25143 0.30344 0.0
H2314 H 0.59252 0.23434 0.33587 0.0
H2315 H 0.59236 0.23634 0.37424 0.0
H2316 H 0.58765 0.2961 0.40977 0.0
H2317 H 0.58544 0.31309 0.37717 0.0
C2318 C 0.5877 0.29448 0.33806 0.0
C2319 C 0.58926 0.28274 0.3186 0.0
C2320 C 0.58809 0.28467 0.35682 0.0
C2321 C 0.59083 0.26097 0.31819 0.0
C2322 C 0.59118 0.25112 0.33672 0.0
C2323 C 0.59095 0.25312 0.37489 0.0
C2324 C 0.59029 0.26492 0.39449 0.0
C2325 C 0.58998 0.26284 0.35613 0.0
C2326 C 0.588 0.28656 0.39493 0.0
C2327 C 0.5869 0.29633 0.37629 0.0
H2328 H 0.97285 0.33698 0.77354 0.0
H2329 H 0.99087 0.28043 0.74112 0.0
H2330 H 0.98823 0.29621 0.70782 0.0
H2331 H 0.98269 0.32688 0.68838 0.0
H2332 H 0.96653 0.38387 0.7219 0.0
H2333 H 0.96653 0.36707 0.75407 0.0
C2334 C 0.97634 0.32813 0.75922 0.0
C2335 C 0.98213 0.3076 0.75988 0.0
C2336 C 0.975 0.33734 0.74021 0.0
C2337 C 0.9862 0.29622 0.74106 0.0
C2338 C 0.98475 0.30526 0.72201 0.0
C2339 C 0.97861 0.33549 0.70252 0.0
C2340 C 0.97447 0.35666 0.7024 0.0
C2341 C 0.97924 0.32588 0.7214 0.0
C2342 C 0.96987 0.36764 0.72122 0.0
C2343 C 0.96991 0.35804 0.73983 0.0
H2344 H 0.39361 0.73802 0.1859 0.0
H2345 H 0.33984 0.77364 0.18535 0.0
H2346 H 0.32764 0.75797 0.14934 0.0
H2347 H 0.33261 0.73442 0.11787 0.0
H2348 H 0.38585 0.69782 0.11948 0.0
H2349 H 0.39816 0.71407 0.15496 0.0
C2350 C 0.37931 0.74248 0.17783 0.0
C2351 C 0.3677 0.75704 0.18821 0.0
C2352 C 0.37238 0.73337 0.15724 0.0
C2353 C 0.34898 0.76236 0.17772 0.0
C2354 C 0.34206 0.75349 0.15711 0.0
C2355 C 0.34681 0.72986 0.12602 0.0
C2356 C 0.35836 0.71504 0.1158 0.0
C2357 C 0.35365 0.73896 0.1467 0.0
C2358 C 0.37686 0.70953 0.12664 0.0
C2359 C 0.38385 0.71867 0.14706 0.0
H2360 H 0.97748 0.6925 0.73182 0.0
H2361 H 0.02388 0.6546 0.75734 0.0
H2362 H 0.01859 0.66837 0.79309 0.0
H2363 H 0.99977 0.69022 0.81726 0.0
H2364 H 0.95421 0.72883 0.79148 0.0
H2365 H 0.96041 0.71593 0.75579 0.0
C2366 C 0.98671 0.68747 0.74515 0.0
C2367 C 0.00096 0.67239 0.74178 0.0
C2368 C 0.98369 0.69555 0.76571 0.0
C2369 C 0.01251 0.66589 0.75938 0.0
C2370 C 0.0096 0.67386 0.77988 0.0
C2371 C 0.99143 0.69604 0.80384 0.0
C2372 C 0.97638 0.71033 0.80711 0.0
C2373 C 0.99507 0.68855 0.78326 0.0
C2374 C 0.96558 0.71754 0.78947 0.0
C2375 C 0.96918 0.71024 0.76902 0.0
H2376 H 0.66395 0.42191 0.7282 0.0
H2377 H 0.65209 0.39971 0.66198 0.0
H2378 H 0.61473 0.39143 0.66556 0.0
H2379 H 0.58553 0.38979 0.68751 0.0
H2380 H 0.59677 0.41199 0.75371 0.0
H2381 H 0.63417 0.42122 0.75013 0.0
C2382 C 0.65315 0.41521 0.71461 0.0
C2383 C 0.66076 0.41143 0.69486 0.0
C2384 C 0.63158 0.41057 0.71675 0.0
C2385 C 0.64658 0.40296 0.6773 0.0
C2386 C 0.62523 0.39814 0.67935 0.0
C2387 C 0.59619 0.39661 0.70116 0.0
C2388 C 0.58845 0.40006 0.72086 0.0
C2389 C 0.61758 0.4018 0.69899 0.0
C2390 C 0.60234 0.40928 0.73834 0.0
C2391 C 0.62374 0.41443 0.73633 0.0
H2392 H 0.83751 0.62016 0.28263 0.0
H2393 H 0.83704 0.61355 0.21492 0.0
H2394 H 0.87531 0.6211 0.21843 0.0
H2395 H 0.90901 0.62772 0.24058 0.0
H2396 H 0.91003 0.63462 0.30832 0.0
H2397 H 0.87148 0.62885 0.30496 0.0
C2398 C 0.84578 0.62065 0.26867 0.0
C2399 C 0.83442 0.61609 0.24854 0.0
C2400 C 0.86789 0.62494 0.2708 0.0
C2401 C 0.84541 0.61663 0.23059 0.0
C2402 C 0.8673 0.62104 0.23258 0.0
C2403 C 0.90082 0.62837 0.25463 0.0
C2404 C 0.91243 0.6316 0.27467 0.0
C2405 C 0.87872 0.62495 0.25258 0.0
C2406 C 0.9015 0.63194 0.2927 0.0
C2407 C 0.87945 0.62871 0.29079 0.0
H2408 H 0.25711 0.00744 0.2874 0.0
H2409 H 0.25652 0.98658 0.34946 0.0
H2410 H 0.21876 0.98889 0.34807 0.0
H2411 H 0.1861 0.99809 0.33008 0.0
H2412 H 0.18604 0.01988 0.26848 0.0
H2413 H 0.2237 0.01576 0.26874 0.0
C2414 C 0.24869 0.00341 0.3006 0.0
C2415 C 0.2597 0.99673 0.31846 0.0
C2416 C 0.22684 0.00494 0.2998 0.0
C2417 C 0.24847 0.9914 0.33536 0.0
C2418 C 0.22686 0.99287 0.33466 0.0
C2419 C 0.19433 0.002 0.31672 0.0
C2420 C 0.18332 0.00948 0.29939 0.0
C2421 C 0.21593 0.99978 0.31708 0.0
C2422 C 0.19412 0.01401 0.28199 0.0
C2423 C 0.21569 0.01179 0.2822 0.0
H2424 H 0.25579 0.02274 0.72843 0.0
H2425 H 0.24515 0.03207 0.66268 0.0
H2426 H 0.28221 0.02769 0.65847 0.0
H2427 H 0.31744 0.02006 0.67358 0.0
H2428 H 0.32665 0.00869 0.7389 0.0
H2429 H 0.29055 0.01567 0.7434 0.0
C2430 C 0.26164 0.02405 0.71322 0.0
C2431 C 0.24783 0.02787 0.69593 0.0
C2432 C 0.28273 0.02119 0.71089 0.0
C2433 C 0.2555 0.02907 0.67621 0.0
C2434 C 0.27668 0.02664 0.67383 0.0
C2435 C 0.31148 0.01911 0.68874 0.0
C2436 C 0.32457 0.01338 0.70572 0.0
C2437 C 0.29041 0.02252 0.69105 0.0
C2438 C 0.31678 0.01262 0.72545 0.0
C2439 C 0.29614 0.01662 0.72805 0.0
H2440 H 0.72296 0.66342 0.41203 0.0
H2441 H 0.65747 0.64701 0.38854 0.0
H2442 H 0.66351 0.61004 0.38204 0.0
H2443 H 0.68731 0.58235 0.3829 0.0
H2444 H 0.75282 0.59836 0.40641 0.0
H2445 H 0.74687 0.63546 0.41312 0.0
C2446 C 0.71007 0.65174 0.40539 0.0
C2447 C 0.68979 0.65795 0.40081 0.0
C2448 C 0.71364 0.63045 0.40174 0.0
C2449 C 0.67316 0.64261 0.39244 0.0
C2450 C 0.67662 0.62148 0.38862 0.0
C2451 C 0.70032 0.59399 0.38935 0.0
C2452 C 0.72049 0.58764 0.39405 0.0
C2453 C 0.69678 0.61522 0.39319 0.0
C2454 C 0.73711 0.60284 0.40279 0.0
C2455 C 0.73374 0.62406 0.40653 0.0
H2456 H 0.7271 0.24969 0.00563 0.0
H2457 H 0.6746 0.23842 0.04179 0.0
H2458 H 0.66424 0.27366 0.03673 0.0
H2459 H 0.6695 0.30704 0.02063 0.0
H2460 H 0.72004 0.31607 0.98145 0.0
H2461 H 0.73234 0.2827 0.98976 0.0
C2462 C 0.71353 0.25507 0.0126 0.0
C2463 C 0.70169 0.24165 0.02418 0.0
C2464 C 0.70745 0.27499 0.00919 0.0
C2465 C 0.6839 0.24856 0.03279 0.0
C2466 C 0.67806 0.26869 0.02997 0.0
C2467 C 0.68323 0.30172 0.01399 0.0
C2468 C 0.69354 0.31379 1.00006 0.0
C2469 C 0.68963 0.28198 0.01803 0.0
C2470 C 0.71156 0.30685 0.99186 0.0
C2471 C 0.71859 0.28777 0.99657 0.0
H2472 H 0.24736 0.83782 0.60734 0.0
H2473 H 0.29645 0.81575 0.64794 0.0
H2474 H 0.31036 0.85203 0.6603 0.0
H2475 H 0.30934 0.89006 0.65891 0.0
H2476 H 0.2611 0.91229 0.61755 0.0
H2477 H 0.24646 0.87592 0.60579 0.0
C2478 C 0.26123 0.8409 0.61874 0.0
C2479 C 0.27076 0.82396 0.62669 0.0
C2480 C 0.2694 0.86187 0.62557 0.0
C2481 C 0.28852 0.82838 0.64175 0.0
C2482 C 0.29662 0.84917 0.64874 0.0
C2483 C 0.29548 0.88695 0.64748 0.0
C2484 C 0.2863 0.90387 0.63916 0.0
C2485 C 0.28722 0.86602 0.64073 0.0
C2486 C 0.26857 0.89955 0.62408 0.0
C2487 C 0.26015 0.87876 0.61741 0.0
H2488 H 0.29094 0.25802 0.01947 0.0
H2489 H 0.33853 0.25529 0.97622 0.0
H2490 H 0.3346 0.21698 0.97401 0.0
H2491 H 0.31978 0.18434 0.98635 0.0
H2492 H 0.27153 0.18608 0.02864 0.0
H2493 H 0.27323 0.22459 0.02896 0.0
C2494 C 0.30017 0.24902 0.00929 0.0
C2495 C 0.31535 0.25959 0.9984 0.0
C2496 C 0.29777 0.22681 0.00798 0.0
C2497 C 0.32715 0.24763 0.98524 0.0
C2498 C 0.32486 0.22568 0.98386 0.0
C2499 C 0.30951 0.19319 0.99546 0.0
C2500 C 0.29572 0.18258 0.00762 0.0
C2501 C 0.31061 0.21515 0.99554 0.0
C2502 C 0.28226 0.19404 0.01917 0.0
C2503 C 0.28333 0.21602 0.01942 0.0
H2504 H 0.42729 0.70241 0.66164 0.0
H2505 H 0.36309 0.70928 0.67393 0.0
H2506 H 0.35427 0.71608 0.63752 0.0
H2507 H 0.36414 0.71806 0.60165 0.0
H2508 H 0.42784 0.70957 0.5888 0.0
H2509 H 0.43747 0.70554 0.62591 0.0
C2510 C 0.41136 0.70536 0.65636 0.0
C2511 C 0.39589 0.70526 0.67057 0.0
C2512 C 0.40626 0.70893 0.63524 0.0
C2513 C 0.37542 0.70951 0.66349 0.0
C2514 C 0.37028 0.71323 0.64258 0.0
C2515 C 0.38013 0.71527 0.60695 0.0
C2516 C 0.39519 0.71398 0.59239 0.0
C2517 C 0.38549 0.71267 0.62825 0.0
C2518 C 0.41595 0.71081 0.59965 0.0
C2519 C 0.42144 0.70835 0.62087 0.0
H2520 H 0.03454 0.68494 0.25121 0.0
H2521 H 0.97682 0.71392 0.24168 0.0
H2522 H 0.9678 0.70602 0.2764 0.0
H2523 H 0.9757 0.69021 0.30887 0.0
H2524 H 0.03325 0.66096 0.31907 0.0
H2525 H 0.04325 0.67024 0.28503 0.0
C2526 C 0.01999 0.68943 0.25678 0.0
C2527 C 0.00632 0.69993 0.24391 0.0
C2528 C 0.01497 0.68502 0.27694 0.0
C2529 C 0.98763 0.70593 0.25137 0.0
C2530 C 0.98248 0.70145 0.27122 0.0
C2531 C 0.99039 0.68567 0.30366 0.0
C2532 C 0.0033 0.67422 0.31632 0.0
C2533 C 0.99597 0.69092 0.28406 0.0
C2534 C 0.02279 0.66953 0.30965 0.0
C2535 C 0.02848 0.6747 0.29007 0.0
H2536 H 0.62823 0.29489 0.8356 0.0
H2537 H 0.6184 0.22737 0.83598 0.0
H2538 H 0.62627 0.23117 0.87424 0.0
H2539 H 0.63442 0.25356 0.90767 0.0
H2540 H 0.64425 0.32111 0.90795 0.0
H2541 H 0.63792 0.31743 0.86938 0.0
C2542 C 0.62805 0.28102 0.84407 0.0
C2543 C 0.62257 0.26089 0.83296 0.0
C2544 C 0.6325 0.28332 0.86618 0.0
C2545 C 0.62223 0.24307 0.84417 0.0
C2546 C 0.62682 0.24521 0.86604 0.0
C2547 C 0.63555 0.26748 0.8993 0.0
C2548 C 0.63987 0.28757 0.91068 0.0
C2549 C 0.63177 0.26525 0.87722 0.0
C2550 C 0.6408 0.30546 0.89957 0.0
C2551 C 0.63724 0.30336 0.87752 0.0
H2552 H 0.04351 0.30783 0.26304 0.0
H2553 H 0.97608 0.29204 0.25275 0.0
H2554 H 0.97773 0.28777 0.21466 0.0
H2555 H 0.99797 0.29162 0.18419 0.0
H2556 H 0.06536 0.30763 0.19467 0.0
H2557 H 0.0641 0.30843 0.2327 0.0
C2558 C 0.02923 0.30298 0.25251 0.0
C2559 C 0.00969 0.30041 0.26079 0.0
C2560 C 0.03026 0.30076 0.2306 0.0
C2561 C 0.9913 0.29442 0.24682 0.0
C2562 C 0.99223 0.29193 0.22501 0.0
C2563 C 0.01242 0.29486 0.19478 0.0
C2564 C 0.0317 0.29976 0.18659 0.0
C2565 C 0.01156 0.29553 0.2167 0.0
C2566 C 0.05027 0.30413 0.20057 0.0
C2567 C 0.04958 0.30455 0.22232 0.0
loop_
_geom_bond_atom_site_label_1
_geom_bond_atom_site_label_2
_geom_bond_distance
_geom_bond_site_symmetry_2
_ccdc_geom_bond_type
C0 C1 1.264 . S
C0 C5 1.479 . S
C0 C10 1.465 . S
C1 C0 1.264 . S
C1 C3 1.339 . S
C1 H28 0.931 . S
C2 C3 1.395 . S
C2 C4 1.320 . S
C3 C1 1.339 . S
C3 C2 1.395 . S
C3 H29 0.929 . S
C4 C2 1.320 . S
C4 C5 1.405 . S
C4 H30 0.930 . S
C5 C0 1.479 . S
C5 C4 1.405 . S
C5 H31 0.931 . S
U6 O7 2.454 . S
U6 O8 2.458 . S
U6 C9 2.984 . S
U6 C10 2.847 . S
U6 C23 2.882 . S
U6 O24 2.441 . S
U6 O25 2.420 . S
U6 O26 2.455 . S
U6 O27 2.449 . S
O7 U6 2.454 . S
O7 C9 1.353 . S
O8 U6 2.458 . S
O8 C9 1.286 . S
C9 U6 2.984 . S
C9 O7 1.353 . S
C9 O8 1.286 . S
C9 C11 1.363 . S
C10 C0 1.465 . S
C10 U6 2.847 . S
C10 O24 1.249 . S
C10 O25 1.202 . S
C11 C9 1.363 . S
C11 C13 1.408 . S
C11 C16 1.342 . S
C12 C13 1.310 . S
C12 C15 1.461 . S
C12 H32 0.932 . S
C13 C11 1.408 . S
C13 C12 1.310 . S
C13 H33 0.930 . S
C14 C15 1.474 . S
C14 C16 1.285 . S
C14 H34 0.929 . S
C15 C12 1.461 . S
C15 C14 1.474 . S
C16 C11 1.342 . S
C16 C14 1.285 . S
C16 H35 0.930 . S
C17 C20 1.424 . S
C17 C22 1.245 . S
C17 C23 1.428 . S
C18 C21 1.260 . S
C18 C22 1.477 . S
C18 H36 0.932 . S
C19 C20 1.384 . S
C19 C21 1.479 . S
C19 H37 0.929 . S
C20 C17 1.424 . S
C20 C19 1.384 . S
C20 H38 0.928 . S
C21 C18 1.260 . S
C21 C19 1.479 . S
C22 C17 1.245 . S
C22 C18 1.477 . S
C22 H39 0.932 . S
C23 U6 2.882 . S
C23 C17 1.428 . S
C23 O26 1.301 . S
C23 O27 1.282 . S
O24 U6 2.441 . S
O24 C10 1.249 . S
O25 U6 2.420 . S
O25 C10 1.202 . S
O26 U6 2.455 . S
O26 C23 1.301 . S
O27 U6 2.449 . S
O27 C23 1.282 . S
H28 C1 0.931 . S
H29 C3 0.929 . S
H30 C4 0.930 . S
H31 C5 0.931 . S
H32 C12 0.932 . S
H33 C13 0.930 . S
H34 C14 0.929 . S
H35 C16 0.930 . S
H36 C18 0.932 . S
H37 C19 0.929 . S
H38 C20 0.928 . S
H39 C22 0.932 . S
C40 C41 1.264 . S
C40 C45 1.479 . S
C40 C50 1.465 . S
C41 C40 1.264 . S
C41 C43 1.339 . S
C41 H68 0.931 . S
C42 C43 1.395 . S
C42 C44 1.320 . S
C43 C41 1.339 . S
C43 C42 1.395 . S
C43 H69 0.929 . S
C44 C42 1.320 . S
C44 C45 1.405 . S
C44 H70 0.930 . S
C45 C40 1.479 . S
C45 C44 1.405 . S
C45 H71 0.931 . S
U46 O47 2.454 . S
U46 O48 2.458 . S
U46 C49 2.984 . S
U46 C50 2.847 . S
U46 C63 2.882 . S
U46 O64 2.441 . S
U46 O65 2.420 . S
U46 O66 2.455 . S
U46 O67 2.449 . S
O47 U46 2.454 . S
O47 C49 1.353 . S
O48 U46 2.458 . S
O48 C49 1.286 . S
C49 U46 2.984 . S
C49 O47 1.353 . S
C49 O48 1.286 . S
C49 C51 1.363 . S
C50 C40 1.465 . S
C50 U46 2.847 . S
C50 O64 1.249 . S
C50 O65 1.202 . S
C51 C49 1.363 . S
C51 C53 1.408 . S
C51 C56 1.342 . S
C52 C53 1.310 . S
C52 C55 1.461 . S
C52 H72 0.932 . S
C53 C51 1.408 . S
C53 C52 1.310 . S
C53 H73 0.930 . S
C54 C55 1.474 . S
C54 C56 1.285 . S
C54 H74 0.929 . S
C55 C52 1.461 . S
C55 C54 1.474 . S
C56 C51 1.342 . S
C56 C54 1.285 . S
C56 H75 0.930 . S
C57 C60 1.424 . S
C57 C62 1.245 . S
C57 C63 1.428 . S
C58 C61 1.260 . S
C58 C62 1.477 . S
C58 H76 0.932 . S
C59 C60 1.384 . S
C59 C61 1.479 . S
C59 H77 0.929 . S
C60 C57 1.424 . S
C60 C59 1.384 . S
C60 H78 0.928 . S
C61 C58 1.260 . S
C61 C59 1.479 . S
C62 C57 1.245 . S
C62 C58 1.477 . S
C62 H79 0.932 . S
C63 U46 2.882 . S
C63 C57 1.428 . S
C63 O66 1.301 . S
C63 O67 1.282 . S
O64 U46 2.441 . S
O64 C50 1.249 . S
O65 U46 2.420 . S
O65 C50 1.202 . S
O66 U46 2.455 . S
O66 C63 1.301 . S
O67 U46 2.449 . S
O67 C63 1.282 . S
H68 C41 0.931 . S
H69 C43 0.929 . S
H70 C44 0.930 . S
H71 C45 0.931 . S
H72 C52 0.932 . S
H73 C53 0.930 . S
H74 C54 0.929 . S
H75 C56 0.930 . S
H76 C58 0.932 . S
H77 C59 0.929 . S
H78 C60 0.928 . S
H79 C62 0.932 . S
C80 C81 1.264 . S
C80 C85 1.479 . S
C80 C90 1.465 . S
C81 C80 1.264 . S
C81 C83 1.339 . S
C81 H108 0.931 . S
C82 C83 1.395 . S
C82 C84 1.320 . S
C83 C81 1.339 . S
C83 C82 1.395 . S
C83 H109 0.929 . S
C84 C82 1.320 . S
C84 C85 1.405 . S
C84 H110 0.930 . S
C85 C80 1.479 . S
C85 C84 1.405 . S
C85 H111 0.931 . S
U86 O87 2.454 . S
U86 O88 2.458 . S
U86 C89 2.984 . S
U86 C90 2.847 . S
U86 C103 2.882 . S
U86 O104 2.441 . S
U86 O105 2.420 . S
U86 O106 2.455 . S
U86 O107 2.449 . S
O87 U86 2.454 . S
O87 C89 1.353 . S
O88 U86 2.458 . S
O88 C89 1.286 . S
C89 U86 2.984 . S
C89 O87 1.353 . S
C89 O88 1.286 . S
C89 C91 1.363 . S
C90 C80 1.465 . S
C90 U86 2.847 . S
C90 O104 1.249 . S
C90 O105 1.202 . S
C91 C89 1.363 . S
C91 C93 1.408 . S
C91 C96 1.342 . S
C92 C93 1.310 . S
C92 C95 1.461 . S
C92 H112 0.932 . S
C93 C91 1.408 . S
C93 C92 1.310 . S
C93 H113 0.930 . S
C94 C95 1.474 . S
C94 C96 1.285 . S
C94 H114 0.929 . S
C95 C92 1.461 . S
C95 C94 1.474 . S
C96 C91 1.342 . S
C96 C94 1.285 . S
C96 H115 0.930 . S
C97 C100 1.424 1_565 S
C97 C102 1.245 1_565 S
C97 C103 1.428 . S
C98 C101 1.260 . S
C98 C102 1.477 . S
C98 H116 0.932 . S
C99 C100 1.384 . S
C99 C101 1.479 . S
C99 H117 0.929 . S
C100 C97 1.424 1_545 S
C100 C99 1.384 . S
C100 H118 0.928 . S
C101 C98 1.260 . S
C101 C99 1.479 . S
C102 C97 1.245 1_545 S
C102 C98 1.477 . S
C102 H119 0.932 . S
C103 U86 2.882 . S
C103 C97 1.428 . S
C103 O106 1.301 . S
C103 O107 1.282 . S
O104 U86 2.441 . S
O104 C90 1.249 . S
O105 U86 2.420 . S
O105 C90 1.202 . S
O106 U86 2.455 . S
O106 C103 1.301 . S
O107 U86 2.449 . S
O107 C103 1.282 . S
H108 C81 0.931 . S
H109 C83 0.929 . S
H110 C84 0.930 . S
H111 C85 0.931 . S
H112 C92 0.932 . S
H113 C93 0.930 . S
H114 C94 0.929 . S
H115 C96 0.930 . S
H116 C98 0.932 . S
H117 C99 0.929 . S
H118 C100 0.928 . S
H119 C102 0.932 . S
C120 C121 1.264 . S
C120 C125 1.479 . S
C120 C130 1.465 . S
C121 C120 1.264 . S
C121 C123 1.339 . S
C121 H148 0.931 . S
C122 C123 1.395 . S
C122 C124 1.320 . S
C123 C121 1.339 . S
C123 C122 1.395 . S
C123 H149 0.929 . S
C124 C122 1.320 . S
C124 C125 1.405 . S
C124 H150 0.930 . S
C125 C120 1.479 . S
C125 C124 1.405 . S
C125 H151 0.931 . S
U126 O127 2.454 . S
U126 O128 2.458 . S
U126 C129 2.984 . S
U126 C130 2.847 . S
U126 C143 2.882 1_545 S
U126 O144 2.441 . S
U126 O145 2.420 . S
U126 O146 2.452 1_545 S
U126 O147 2.449 . S
O127 U126 2.454 . S
O127 C129 1.353 . S
O128 U126 2.458 . S
O128 C129 1.286 . S
C129 U126 2.984 . S
C129 O127 1.353 . S
C129 O128 1.286 . S
C129 C131 1.363 . S
C130 C120 1.465 . S
C130 U126 2.847 . S
C130 O144 1.249 . S
C130 O145 1.202 . S
C131 C129 1.363 . S
C131 C133 1.408 . S
C131 C136 1.342 . S
C132 C133 1.310 . S
C132 C135 1.461 . S
C132 H152 0.932 . S
C133 C131 1.408 . S
C133 C132 1.310 . S
C133 H153 0.930 . S
C134 C135 1.474 . S
C134 C136 1.285 . S
C134 H154 0.929 . S
C135 C132 1.461 . S
C135 C134 1.474 . S
C136 C131 1.342 . S
C136 C134 1.285 . S
C136 H155 0.930 . S
C137 C140 1.424 . S
C137 C142 1.245 . S
C137 C143 1.428 . S
C138 C141 1.260 . S
C138 C142 1.477 . S
C138 H156 0.932 . S
C139 C140 1.384 . S
C139 C141 1.479 . S
C139 H157 0.929 . S
C140 C137 1.424 . S
C140 C139 1.384 . S
C140 H158 0.928 . S
C141 C138 1.260 . S
C141 C139 1.479 . S
C142 C137 1.245 . S
C142 C138 1.477 . S
C142 H159 0.932 . S
C143 U126 2.882 1_565 S
C143 C137 1.428 . S
C143 O146 1.302 . S
C143 O147 1.282 1_565 S
O144 U126 2.441 . S
O144 C130 1.249 . S
O145 U126 2.420 . S
O145 C130 1.202 . S
O146 U126 2.452 1_565 S
O146 C143 1.302 . S
O147 U126 2.449 . S
O147 C143 1.282 1_545 S
H148 C121 0.931 . S
H149 C123 0.929 . S
H150 C124 0.930 . S
H151 C125 0.931 . S
H152 C132 0.932 . S
H153 C133 0.930 . S
H154 C134 0.929 . S
H155 C136 0.930 . S
H156 C138 0.932 . S
H157 C139 0.929 . S
H158 C140 0.928 . S
H159 C142 0.932 . S
C160 C161 1.264 . S
C160 C165 1.479 . S
C160 C170 1.465 . S
C161 C160 1.264 . S
C161 C163 1.339 . S
C161 H188 0.931 . S
C162 C163 1.395 . S
C162 C164 1.320 . S
C163 C161 1.339 . S
C163 C162 1.395 . S
C163 H189 0.929 . S
C164 C162 1.320 . S
C164 C165 1.405 . S
C164 H190 0.930 . S
C165 C160 1.479 . S
C165 C164 1.405 . S
C165 H191 0.931 . S
U166 O167 2.454 . S
U166 O168 2.458 . S
U166 C169 2.984 . S
U166 C170 2.847 . S
U166 C183 2.882 . S
U166 O184 2.441 . S
U166 O185 2.420 . S
U166 O186 2.455 . S
U166 O187 2.449 . S
O167 U166 2.454 . S
O167 C169 1.353 . S
O168 U166 2.458 . S
O168 C169 1.286 . S
C169 U166 2.984 . S
C169 O167 1.353 . S
C169 O168 1.286 . S
C169 C171 1.363 . S
C170 C160 1.465 . S
C170 U166 2.847 . S
C170 O184 1.249 . S
C170 O185 1.202 . S
C171 C169 1.363 . S
C171 C173 1.408 . S
C171 C176 1.342 . S
C172 C173 1.310 . S
C172 C175 1.461 . S
C172 H192 0.932 . S
C173 C171 1.408 . S
C173 C172 1.310 . S
C173 H193 0.930 . S
C174 C175 1.474 . S
C174 C176 1.285 . S
C174 H194 0.929 . S
C175 C172 1.461 . S
C175 C174 1.474 . S
C176 C171 1.342 . S
C176 C174 1.285 . S
C176 H195 0.930 . S
C177 C180 1.424 . S
C177 C182 1.245 . S
C177 C183 1.428 . S
C178 C181 1.260 . S
C178 C182 1.477 . S
C178 H196 0.932 . S
C179 C180 1.384 . S
C179 C181 1.479 . S
C179 H197 0.929 . S
C180 C177 1.424 . S
C180 C179 1.384 . S
C180 H198 0.928 . S
C181 C178 1.260 . S
C181 C179 1.479 . S
C182 C177 1.245 . S
C182 C178 1.477 . S
C182 H199 0.932 . S
C183 U166 2.882 . S
C183 C177 1.428 . S
C183 O186 1.301 . S
C183 O187 1.282 . S
O184 U166 2.441 . S
O184 C170 1.249 . S
O185 U166 2.420 . S
O185 C170 1.202 . S
O186 U166 2.455 . S
O186 C183 1.301 . S
O187 U166 2.449 . S
O187 C183 1.282 . S
H188 C161 0.931 . S
H189 C163 0.929 . S
H190 C164 0.930 . S
H191 C165 0.931 . S
H192 C172 0.932 . S
H193 C173 0.930 . S
H194 C174 0.929 . S
H195 C176 0.930 . S
H196 C178 0.932 . S
H197 C179 0.929 . S
H198 C180 0.928 . S
H199 C182 0.932 . S
C200 C201 1.264 . S
C200 C205 1.479 . S
C200 C210 1.465 . S
C201 C200 1.264 . S
C201 C203 1.339 . S
C201 H228 0.931 . S
C202 C203 1.395 . S
C202 C204 1.320 . S
C203 C201 1.339 . S
C203 C202 1.395 . S
C203 H229 0.929 . S
C204 C202 1.320 . S
C204 C205 1.405 . S
C204 H230 0.930 . S
C205 C200 1.479 . S
C205 C204 1.405 . S
C205 H231 0.931 . S
U206 O207 2.454 . S
U206 O208 2.458 . S
U206 C209 2.984 . S
U206 C210 2.847 . S
U206 C223 2.882 1_554 S
U206 O224 2.441 . S
U206 O225 2.420 . S
U206 O226 2.452 1_554 S
U206 O227 2.449 . S
O207 U206 2.454 . S
O207 C209 1.353 . S
O208 U206 2.458 . S
O208 C209 1.286 . S
C209 U206 2.984 . S
C209 O207 1.353 . S
C209 O208 1.286 . S
C209 C211 1.363 . S
C210 C200 1.465 . S
C210 U206 2.847 . S
C210 O224 1.249 . S
C210 O225 1.202 . S
C211 C209 1.363 . S
C211 C213 1.408 . S
C211 C216 1.342 . S
C212 C213 1.310 . S
C212 C215 1.461 . S
C212 H232 0.932 . S
C213 C211 1.408 . S
C213 C212 1.310 . S
C213 H233 0.930 . S
C214 C215 1.474 . S
C214 C216 1.285 . S
C214 H234 0.929 . S
C215 C212 1.461 . S
C215 C214 1.474 . S
C216 C211 1.342 . S
C216 C214 1.285 . S
C216 H235 0.930 . S
C217 C220 1.424 . S
C217 C222 1.245 . S
C217 C223 1.428 . S
C218 C221 1.260 . S
C218 C222 1.477 . S
C218 H236 0.932 . S
C219 C220 1.384 . S
C219 C221 1.479 . S
C219 H237 0.929 . S
C220 C217 1.424 . S
C220 C219 1.384 . S
C220 H238 0.928 . S
C221 C218 1.260 . S
C221 C219 1.479 . S
C222 C217 1.245 . S
C222 C218 1.477 . S
C222 H239 0.932 . S
C223 U206 2.882 1_556 S
C223 C217 1.428 . S
C223 O226 1.302 . S
C223 O227 1.282 1_556 S
O224 U206 2.441 . S
O224 C210 1.249 . S
O225 U206 2.420 . S
O225 C210 1.202 . S
O226 U206 2.452 1_556 S
O226 C223 1.302 . S
O227 U206 2.449 . S
O227 C223 1.282 1_554 S
H228 C201 0.931 . S
H229 C203 0.929 . S
H230 C204 0.930 . S
H231 C205 0.931 . S
H232 C212 0.932 . S
H233 C213 0.930 . S
H234 C214 0.929 . S
H235 C216 0.930 . S
H236 C218 0.932 . S
H237 C219 0.929 . S
H238 C220 0.928 . S
H239 C222 0.932 . S
C240 C241 1.264 . S
C240 C245 1.479 . S
C240 C250 1.465 . S
C241 C240 1.264 . S
C241 C243 1.339 . S
C241 H268 0.931 . S
C242 C243 1.395 . S
C242 C244 1.320 . S
C243 C241 1.339 . S
C243 C242 1.395 . S
C243 H269 0.929 . S
C244 C242 1.320 . S
C244 C245 1.405 . S
C244 H270 0.930 . S
C245 C240 1.479 . S
C245 C244 1.405 . S
C245 H271 0.931 . S
U246 O247 2.454 . S
U246 O248 2.458 . S
U246 C249 2.984 . S
U246 C250 2.847 . S
U246 C263 2.882 . S
U246 O264 2.441 . S
U246 O265 2.420 . S
U246 O266 2.455 . S
U246 O267 2.449 . S
O247 U246 2.454 . S
O247 C249 1.353 . S
O248 U246 2.458 . S
O248 C249 1.286 . S
C249 U246 2.984 . S
C249 O247 1.353 . S
C249 O248 1.286 . S
C249 C251 1.363 . S
C250 C240 1.465 . S
C250 U246 2.847 . S
C250 O264 1.249 . S
C250 O265 1.202 . S
C251 C249 1.363 . S
C251 C253 1.408 . S
C251 C256 1.342 . S
C252 C253 1.310 . S
C252 C255 1.461 . S
C252 H272 0.932 . S
C253 C251 1.408 . S
C253 C252 1.310 . S
C253 H273 0.930 . S
C254 C255 1.474 . S
C254 C256 1.285 . S
C254 H274 0.929 . S
C255 C252 1.461 . S
C255 C254 1.474 . S
C256 C251 1.342 . S
C256 C254 1.285 . S
C256 H275 0.930 . S
C257 C260 1.424 . S
C257 C262 1.245 . S
C257 C263 1.428 . S
C258 C261 1.260 . S
C258 C262 1.477 . S
C258 H276 0.932 . S
C259 C260 1.384 . S
C259 C261 1.479 . S
C259 H277 0.929 . S
C260 C257 1.424 . S
C260 C259 1.384 . S
C260 H278 0.928 . S
C261 C258 1.260 . S
C261 C259 1.479 . S
C262 C257 1.245 . S
C262 C258 1.477 . S
C262 H279 0.932 . S
C263 U246 2.882 . S
C263 C257 1.428 . S
C263 O266 1.301 . S
C263 O267 1.282 . S
O264 U246 2.441 . S
O264 C250 1.249 . S
O265 U246 2.420 . S
O265 C250 1.202 . S
O266 U246 2.455 . S
O266 C263 1.301 . S
O267 U246 2.449 . S
O267 C263 1.282 . S
H268 C241 0.931 . S
H269 C243 0.929 . S
H270 C244 0.930 . S
H271 C245 0.931 . S
H272 C252 0.932 . S
H273 C253 0.930 . S
H274 C254 0.929 . S
H275 C256 0.930 . S
H276 C258 0.932 . S
H277 C259 0.929 . S
H278 C260 0.928 . S
H279 C262 0.932 . S
C280 C281 1.264 . S
C280 C285 1.479 . S
C280 C290 1.465 . S
C281 C280 1.264 . S
C281 C283 1.339 . S
C281 H308 0.931 . S
C282 C283 1.395 . S
C282 C284 1.320 . S
C283 C281 1.339 . S
C283 C282 1.395 . S
C283 H309 0.929 . S
C284 C282 1.320 . S
C284 C285 1.405 . S
C284 H310 0.930 . S
C285 C280 1.479 . S
C285 C284 1.405 . S
C285 H311 0.931 . S
U286 O287 2.454 . S
U286 O288 2.458 . S
U286 C289 2.984 . S
U286 C290 2.847 . S
U286 C303 2.882 . S
U286 O304 2.441 . S
U286 O305 2.420 . S
U286 O306 2.455 . S
U286 O307 2.449 . S
O287 U286 2.454 . S
O287 C289 1.353 . S
O288 U286 2.458 . S
O288 C289 1.286 . S
C289 U286 2.984 . S
C289 O287 1.353 . S
C289 O288 1.286 . S
C289 C291 1.363 . S
C290 C280 1.465 . S
C290 U286 2.847 . S
C290 O304 1.249 . S
C290 O305 1.202 . S
C291 C289 1.363 . S
C291 C293 1.408 . S
C291 C296 1.342 . S
C292 C293 1.310 . S
C292 C295 1.461 . S
C292 H312 0.932 . S
C293 C291 1.408 . S
C293 C292 1.310 . S
C293 H313 0.930 . S
C294 C295 1.474 . S
C294 C296 1.285 . S
C294 H314 0.929 . S
C295 C292 1.461 . S
C295 C294 1.474 . S
C296 C291 1.342 . S
C296 C294 1.285 . S
C296 H315 0.930 . S
C297 C300 1.424 1_556 S
C297 C302 1.245 1_556 S
C297 C303 1.428 . S
C298 C301 1.260 . S
C298 C302 1.477 . S
C298 H316 0.932 . S
C299 C300 1.384 . S
C299 C301 1.479 . S
C299 H317 0.929 . S
C300 C297 1.424 1_554 S
C300 C299 1.384 . S
C300 H318 0.928 . S
C301 C298 1.260 . S
C301 C299 1.479 . S
C302 C297 1.245 1_554 S
C302 C298 1.477 . S
C302 H319 0.932 . S
C303 U286 2.882 . S
C303 C297 1.428 . S
C303 O306 1.301 . S
C303 O307 1.282 . S
O304 U286 2.441 . S
O304 C290 1.249 . S
O305 U286 2.420 . S
O305 C290 1.202 . S
O306 U286 2.455 . S
O306 C303 1.301 . S
O307 U286 2.449 . S
O307 C303 1.282 . S
H308 C281 0.931 . S
H309 C283 0.929 . S
H310 C284 0.930 . S
H311 C285 0.931 . S
H312 C292 0.932 . S
H313 C293 0.930 . S
H314 C294 0.929 . S
H315 C296 0.930 . S
H316 C298 0.932 . S
H317 C299 0.929 . S
H318 C300 0.928 . S
H319 C302 0.932 . S
C320 C321 1.264 . S
C320 C325 1.479 . S
C320 C330 1.465 . S
C321 C320 1.264 . S
C321 C323 1.339 . S
C321 H348 0.931 . S
C322 C323 1.395 . S
C322 C324 1.320 . S
C323 C321 1.339 . S
C323 C322 1.395 . S
C323 H349 0.929 . S
C324 C322 1.320 . S
C324 C325 1.405 . S
C324 H350 0.930 . S
C325 C320 1.479 . S
C325 C324 1.405 . S
C325 H351 0.931 . S
U326 O327 2.454 . S
U326 O328 2.458 . S
U326 C329 2.984 . S
U326 C330 2.847 . S
U326 C343 2.882 . S
U326 O344 2.441 . S
U326 O345 2.420 . S
U326 O346 2.455 . S
U326 O347 2.449 . S
O327 U326 2.454 . S
O327 C329 1.353 . S
O328 U326 2.458 . S
O328 C329 1.286 . S
C329 U326 2.984 . S
C329 O327 1.353 . S
C329 O328 1.286 . S
C329 C331 1.363 . S
C330 C320 1.465 . S
C330 U326 2.847 . S
C330 O344 1.249 . S
C330 O345 1.202 . S
C331 C329 1.363 . S
C331 C333 1.408 . S
C331 C336 1.342 . S
C332 C333 1.310 . S
C332 C335 1.461 . S
C332 H352 0.932 . S
C333 C331 1.408 . S
C333 C332 1.310 . S
C333 H353 0.930 . S
C334 C335 1.474 . S
C334 C336 1.285 . S
C334 H354 0.929 . S
C335 C332 1.461 . S
C335 C334 1.474 . S
C336 C331 1.342 . S
C336 C334 1.285 . S
C336 H355 0.930 . S
C337 C340 1.424 . S
C337 C342 1.245 . S
C337 C343 1.428 . S
C338 C341 1.260 . S
C338 C342 1.477 . S
C338 H356 0.932 . S
C339 C340 1.384 . S
C339 C341 1.479 . S
C339 H357 0.929 . S
C340 C337 1.424 . S
C340 C339 1.384 . S
C340 H358 0.928 . S
C341 C338 1.260 . S
C341 C339 1.479 . S
C342 C337 1.245 . S
C342 C338 1.477 . S
C342 H359 0.932 . S
C343 U326 2.882 . S
C343 C337 1.428 . S
C343 O346 1.301 . S
C343 O347 1.282 . S
O344 U326 2.441 . S
O344 C330 1.249 . S
O345 U326 2.420 . S
O345 C330 1.202 . S
O346 U326 2.455 . S
O346 C343 1.301 . S
O347 U326 2.449 . S
O347 C343 1.282 . S
H348 C321 0.931 . S
H349 C323 0.929 . S
H350 C324 0.930 . S
H351 C325 0.931 . S
H352 C332 0.932 . S
H353 C333 0.930 . S
H354 C334 0.929 . S
H355 C336 0.930 . S
H356 C338 0.932 . S
H357 C339 0.929 . S
H358 C340 0.928 . S
H359 C342 0.932 . S
C360 C361 1.264 . S
C360 C365 1.479 . S
C360 C370 1.465 . S
C361 C360 1.264 . S
C361 C363 1.339 . S
C361 H388 0.931 . S
C362 C363 1.395 . S
C362 C364 1.320 . S
C363 C361 1.339 . S
C363 C362 1.395 . S
C363 H389 0.929 . S
C364 C362 1.320 . S
C364 C365 1.405 . S
C364 H390 0.930 . S
C365 C360 1.479 . S
C365 C364 1.405 . S
C365 H391 0.931 . S
U366 O367 2.454 . S
U366 O368 2.458 . S
U366 C369 2.984 . S
U366 C370 2.847 . S
U366 C383 2.882 1_455 S
U366 O384 2.441 . S
U366 O385 2.420 . S
U366 O386 2.452 1_455 S
U366 O387 2.449 . S
O367 U366 2.454 . S
O367 C369 1.353 . S
O368 U366 2.458 . S
O368 C369 1.286 . S
C369 U366 2.984 . S
C369 O367 1.353 . S
C369 O368 1.286 . S
C369 C371 1.363 . S
C370 C360 1.465 . S
C370 U366 2.847 . S
C370 O384 1.249 . S
C370 O385 1.202 . S
C371 C369 1.363 . S
C371 C373 1.408 . S
C371 C376 1.342 . S
C372 C373 1.310 . S
C372 C375 1.461 . S
C372 H392 0.932 . S
C373 C371 1.408 . S
C373 C372 1.310 . S
C373 H393 0.930 . S
C374 C375 1.474 . S
C374 C376 1.285 . S
C374 H394 0.929 . S
C375 C372 1.461 . S
C375 C374 1.474 . S
C376 C371 1.342 . S
C376 C374 1.285 . S
C376 H395 0.930 . S
C377 C380 1.424 . S
C377 C382 1.245 . S
C377 C383 1.428 . S
C378 C381 1.260 . S
C378 C382 1.477 . S
C378 H396 0.932 . S
C379 C380 1.384 . S
C379 C381 1.479 . S
C379 H397 0.929 . S
C380 C377 1.424 . S
C380 C379 1.384 . S
C380 H398 0.928 . S
C381 C378 1.260 . S
C381 C379 1.479 . S
C382 C377 1.245 . S
C382 C378 1.477 . S
C382 H399 0.932 . S
C383 U366 2.882 1_655 S
C383 C377 1.428 . S
C383 O386 1.302 . S
C383 O387 1.282 1_655 S
O384 U366 2.441 . S
O384 C370 1.249 . S
O385 U366 2.420 . S
O385 C370 1.202 . S
O386 U366 2.452 1_655 S
O386 C383 1.302 . S
O387 U366 2.449 . S
O387 C383 1.282 1_455 S
H388 C361 0.931 . S
H389 C363 0.929 . S
H390 C364 0.930 . S
H391 C365 0.931 . S
H392 C372 0.932 . S
H393 C373 0.930 . S
H394 C374 0.929 . S
H395 C376 0.930 . S
H396 C378 0.932 . S
H397 C379 0.929 . S
H398 C380 0.928 . S
H399 C382 0.932 . S
C400 C401 1.264 . S
C400 C405 1.479 . S
C400 C410 1.465 . S
C401 C400 1.264 . S
C401 C403 1.339 . S
C401 H428 0.931 . S
C402 C403 1.395 . S
C402 C404 1.320 . S
C403 C401 1.339 . S
C403 C402 1.395 . S
C403 H429 0.929 . S
C404 C402 1.320 . S
C404 C405 1.405 . S
C404 H430 0.930 . S
C405 C400 1.479 . S
C405 C404 1.405 . S
C405 H431 0.931 . S
U406 O407 2.454 . S
U406 O408 2.458 . S
U406 C409 2.984 . S
U406 C410 2.847 . S
U406 C423 2.882 . S
U406 O424 2.441 . S
U406 O425 2.420 . S
U406 O426 2.455 . S
U406 O427 2.449 . S
O407 U406 2.454 . S
O407 C409 1.353 . S
O408 U406 2.458 . S
O408 C409 1.286 . S
C409 U406 2.984 . S
C409 O407 1.353 . S
C409 O408 1.286 . S
C409 C411 1.363 . S
C410 C400 1.465 . S
C410 U406 2.847 . S
C410 O424 1.249 . S
C410 O425 1.202 . S
C411 C409 1.363 . S
C411 C413 1.408 . S
C411 C416 1.342 . S
C412 C413 1.310 . S
C412 C415 1.461 . S
C412 H432 0.932 . S
C413 C411 1.408 . S
C413 C412 1.310 . S
C413 H433 0.930 . S
C414 C415 1.474 . S
C414 C416 1.285 . S
C414 H434 0.929 . S
C415 C412 1.461 . S
C415 C414 1.474 . S
C416 C411 1.342 . S
C416 C414 1.285 . S
C416 H435 0.930 . S
C417 C420 1.424 . S
C417 C422 1.245 . S
C417 C423 1.428 . S
C418 C421 1.260 . S
C418 C422 1.477 . S
C418 H436 0.932 . S
C419 C420 1.384 . S
C419 C421 1.479 . S
C419 H437 0.929 . S
C420 C417 1.424 . S
C420 C419 1.384 . S
C420 H438 0.928 . S
C421 C418 1.260 . S
C421 C419 1.479 . S
C422 C417 1.245 . S
C422 C418 1.477 . S
C422 H439 0.932 . S
C423 U406 2.882 . S
C423 C417 1.428 . S
C423 O426 1.301 . S
C423 O427 1.282 . S
O424 U406 2.441 . S
O424 C410 1.249 . S
O425 U406 2.420 . S
O425 C410 1.202 . S
O426 U406 2.455 . S
O426 C423 1.301 . S
O427 U406 2.449 . S
O427 C423 1.282 . S
H428 C401 0.931 . S
H429 C403 0.929 . S
H430 C404 0.930 . S
H431 C405 0.931 . S
H432 C412 0.932 . S
H433 C413 0.930 . S
H434 C414 0.929 . S
H435 C416 0.930 . S
H436 C418 0.932 . S
H437 C419 0.929 . S
H438 C420 0.928 . S
H439 C422 0.932 . S
C440 C441 1.264 . S
C440 C445 1.479 . S
C440 C450 1.465 . S
C441 C440 1.264 . S
C441 C443 1.339 . S
C441 H468 0.931 . S
C442 C443 1.395 . S
C442 C444 1.320 . S
C443 C441 1.339 . S
C443 C442 1.395 . S
C443 H469 0.929 . S
C444 C442 1.320 . S
C444 C445 1.405 . S
C444 H470 0.930 . S
C445 C440 1.479 . S
C445 C444 1.405 . S
C445 H471 0.931 . S
U446 O447 2.454 . S
U446 O448 2.458 . S
U446 C449 2.984 . S
U446 C450 2.847 . S
U446 C463 2.882 . S
U446 O464 2.441 . S
U446 O465 2.420 . S
U446 O466 2.455 . S
U446 O467 2.449 . S
O447 U446 2.454 . S
O447 C449 1.353 . S
O448 U446 2.458 . S
O448 C449 1.286 . S
C449 U446 2.984 . S
C449 O447 1.353 . S
C449 O448 1.286 . S
C449 C451 1.363 . S
C450 C440 1.465 . S
C450 U446 2.847 . S
C450 O464 1.249 . S
C450 O465 1.202 . S
C451 C449 1.363 . S
C451 C453 1.408 . S
C451 C456 1.342 . S
C452 C453 1.310 . S
C452 C455 1.461 . S
C452 H472 0.932 . S
C453 C451 1.408 . S
C453 C452 1.310 . S
C453 H473 0.930 . S
C454 C455 1.474 . S
C454 C456 1.285 . S
C454 H474 0.929 . S
C455 C452 1.461 . S
C455 C454 1.474 . S
C456 C451 1.342 . S
C456 C454 1.285 . S
C456 H475 0.930 . S
C457 C460 1.424 1_655 S
C457 C462 1.245 1_655 S
C457 C463 1.428 . S
C458 C461 1.260 . S
C458 C462 1.477 . S
C458 H476 0.932 . S
C459 C460 1.384 . S
C459 C461 1.479 . S
C459 H477 0.929 . S
C460 C457 1.424 1_455 S
C460 C459 1.384 . S
C460 H478 0.928 . S
C461 C458 1.260 . S
C461 C459 1.479 . S
C462 C457 1.245 1_455 S
C462 C458 1.477 . S
C462 H479 0.932 . S
C463 U446 2.882 . S
C463 C457 1.428 . S
C463 O466 1.301 . S
C463 O467 1.282 . S
O464 U446 2.441 . S
O464 C450 1.249 . S
O465 U446 2.420 . S
O465 C450 1.202 . S
O466 U446 2.455 . S
O466 C463 1.301 . S
O467 U446 2.449 . S
O467 C463 1.282 . S
H468 C441 0.931 . S
H469 C443 0.929 . S
H470 C444 0.930 . S
H471 C445 0.931 . S
H472 C452 0.932 . S
H473 C453 0.930 . S
H474 C454 0.929 . S
H475 C456 0.930 . S
H476 C458 0.932 . S
H477 C459 0.929 . S
H478 C460 0.928 . S
H479 C462 0.932 . S
C480 C481 1.264 . S
C480 C485 1.479 . S
C480 C490 1.465 . S
C481 C480 1.264 . S
C481 C483 1.339 . S
C481 H508 0.931 . S
C482 C483 1.395 . S
C482 C484 1.320 . S
C483 C481 1.339 . S
C483 C482 1.395 . S
C483 H509 0.929 . S
C484 C482 1.320 . S
C484 C485 1.405 . S
C484 H510 0.930 . S
C485 C480 1.479 . S
C485 C484 1.405 . S
C485 H511 0.931 . S
U486 O487 2.454 . S
U486 O488 2.458 . S
U486 C489 2.984 . S
U486 C490 2.847 . S
U486 C503 2.882 . S
U486 O504 2.441 . S
U486 O505 2.420 . S
U486 O506 2.455 . S
U486 O507 2.449 . S
O487 U486 2.454 . S
O487 C489 1.353 . S
O488 U486 2.458 . S
O488 C489 1.286 . S
C489 U486 2.984 . S
C489 O487 1.353 . S
C489 O488 1.286 . S
C489 C491 1.363 . S
C490 C480 1.465 . S
C490 U486 2.847 . S
C490 O504 1.249 . S
C490 O505 1.202 . S
C491 C489 1.363 . S
C491 C493 1.408 . S
C491 C496 1.342 . S
C492 C493 1.310 . S
C492 C495 1.461 . S
C492 H512 0.932 . S
C493 C491 1.408 . S
C493 C492 1.310 . S
C493 H513 0.930 . S
C494 C495 1.474 . S
C494 C496 1.285 . S
C494 H514 0.929 . S
C495 C492 1.461 . S
C495 C494 1.474 . S
C496 C491 1.342 . S
C496 C494 1.285 . S
C496 H515 0.930 . S
C497 C500 1.424 . S
C497 C502 1.245 . S
C497 C503 1.428 . S
C498 C501 1.260 . S
C498 C502 1.477 . S
C498 H516 0.932 . S
C499 C500 1.384 . S
C499 C501 1.479 . S
C499 H517 0.929 . S
C500 C497 1.424 . S
C500 C499 1.384 . S
C500 H518 0.928 . S
C501 C498 1.260 . S
C501 C499 1.479 . S
C502 C497 1.245 . S
C502 C498 1.477 . S
C502 H519 0.932 . S
C503 U486 2.882 . S
C503 C497 1.428 . S
C503 O506 1.301 . S
C503 O507 1.282 . S
O504 U486 2.441 . S
O504 C490 1.249 . S
O505 U486 2.420 . S
O505 C490 1.202 . S
O506 U486 2.455 . S
O506 C503 1.301 . S
O507 U486 2.449 . S
O507 C503 1.282 . S
H508 C481 0.931 . S
H509 C483 0.929 . S
H510 C484 0.930 . S
H511 C485 0.931 . S
H512 C492 0.932 . S
H513 C493 0.930 . S
H514 C494 0.929 . S
H515 C496 0.930 . S
H516 C498 0.932 . S
H517 C499 0.929 . S
H518 C500 0.928 . S
H519 C502 0.932 . S
C520 C521 1.264 . S
C520 C525 1.479 . S
C520 C530 1.465 . S
C521 C520 1.264 . S
C521 C523 1.339 . S
C521 H548 0.931 . S
C522 C523 1.395 . S
C522 C524 1.320 . S
C523 C521 1.339 . S
C523 C522 1.395 . S
C523 H549 0.929 . S
C524 C522 1.320 . S
C524 C525 1.405 . S
C524 H550 0.930 . S
C525 C520 1.479 . S
C525 C524 1.405 . S
C525 H551 0.931 . S
U526 O527 2.454 . S
U526 O528 2.458 . S
U526 C529 2.984 . S
U526 C530 2.847 . S
U526 C543 2.882 . S
U526 O544 2.441 . S
U526 O545 2.420 . S
U526 O546 2.455 . S
U526 O547 2.449 . S
O527 U526 2.454 . S
O527 C529 1.353 . S
O528 U526 2.458 . S
O528 C529 1.286 . S
C529 U526 2.984 . S
C529 O527 1.353 . S
C529 O528 1.286 . S
C529 C531 1.363 . S
C530 C520 1.465 . S
C530 U526 2.847 . S
C530 O544 1.249 . S
C530 O545 1.202 . S
C531 C529 1.363 . S
C531 C533 1.408 . S
C531 C536 1.342 . S
C532 C533 1.310 . S
C532 C535 1.461 . S
C532 H552 0.932 . S
C533 C531 1.408 . S
C533 C532 1.310 . S
C533 H553 0.930 . S
C534 C535 1.474 . S
C534 C536 1.285 . S
C534 H554 0.929 . S
C535 C532 1.461 . S
C535 C534 1.474 . S
C536 C531 1.342 . S
C536 C534 1.285 . S
C536 H555 0.930 . S
C537 C540 1.424 . S
C537 C542 1.245 . S
C537 C543 1.428 . S
C538 C541 1.260 . S
C538 C542 1.477 . S
C538 H556 0.932 . S
C539 C540 1.384 . S
C539 C541 1.479 . S
C539 H557 0.929 . S
C540 C537 1.424 . S
C540 C539 1.384 . S
C540 H558 0.928 . S
C541 C538 1.260 . S
C541 C539 1.479 . S
C542 C537 1.245 . S
C542 C538 1.477 . S
C542 H559 0.932 . S
C543 U526 2.882 . S
C543 C537 1.428 . S
C543 O546 1.301 . S
C543 O547 1.282 . S
O544 U526 2.441 . S
O544 C530 1.249 . S
O545 U526 2.420 . S
O545 C530 1.202 . S
O546 U526 2.455 . S
O546 C543 1.301 . S
O547 U526 2.449 . S
O547 C543 1.282 . S
H548 C521 0.931 . S
H549 C523 0.929 . S
H550 C524 0.930 . S
H551 C525 0.931 . S
H552 C532 0.932 . S
H553 C533 0.930 . S
H554 C534 0.929 . S
H555 C536 0.930 . S
H556 C538 0.932 . S
H557 C539 0.929 . S
H558 C540 0.928 . S
H559 C542 0.932 . S
C560 C561 1.264 . S
C560 C565 1.479 1_565 S
C560 C570 1.465 . S
C561 C560 1.264 . S
C561 C563 1.339 . S
C561 H588 0.931 . S
C562 C563 1.395 1_545 S
C562 C564 1.320 . S
C563 C561 1.339 . S
C563 C562 1.395 1_565 S
C563 H589 0.929 . S
C564 C562 1.320 . S
C564 C565 1.405 . S
C564 H590 0.930 . S
C565 C560 1.479 1_545 S
C565 C564 1.405 . S
C565 H591 0.931 . S
U566 O567 2.454 . S
U566 O568 2.458 . S
U566 C569 2.984 . S
U566 C570 2.847 . S
U566 C583 2.882 . S
U566 O584 2.441 . S
U566 O585 2.420 . S
U566 O586 2.455 . S
U566 O587 2.449 . S
O567 U566 2.454 . S
O567 C569 1.353 . S
O568 U566 2.458 . S
O568 C569 1.286 . S
C569 U566 2.984 . S
C569 O567 1.353 . S
C569 O568 1.286 . S
C569 C571 1.363 1_565 S
C570 C560 1.465 . S
C570 U566 2.847 . S
C570 O584 1.249 . S
C570 O585 1.202 . S
C571 C569 1.363 1_545 S
C571 C573 1.408 . S
C571 C576 1.342 . S
C572 C573 1.310 . S
C572 C575 1.461 . S
C572 H592 0.932 . S
C573 C571 1.408 . S
C573 C572 1.310 . S
C573 H593 0.930 . S
C574 C575 1.474 . S
C574 C576 1.285 . S
C574 H594 0.929 . S
C575 C572 1.461 . S
C575 C574 1.474 . S
C576 C571 1.342 . S
C576 C574 1.285 . S
C576 H595 0.932 . S
C577 C580 1.424 . S
C577 C582 1.245 . S
C577 C583 1.428 . S
C578 C581 1.260 . S
C578 C582 1.477 . S
C578 H596 0.932 . S
C579 C580 1.384 . S
C579 C581 1.479 . S
C579 H597 0.929 . S
C580 C577 1.424 . S
C580 C579 1.384 . S
C580 H598 0.928 . S
C581 C578 1.260 . S
C581 C579 1.479 . S
C582 C577 1.245 . S
C582 C578 1.477 . S
C582 H599 0.932 . S
C583 U566 2.882 . S
C583 C577 1.428 . S
C583 O586 1.301 . S
C583 O587 1.282 . S
O584 U566 2.441 . S
O584 C570 1.249 . S
O585 U566 2.420 . S
O585 C570 1.202 . S
O586 U566 2.455 . S
O586 C583 1.301 . S
O587 U566 2.449 . S
O587 C583 1.282 . S
H588 C561 0.931 . S
H589 C563 0.929 . S
H590 C564 0.930 . S
H591 C565 0.931 . S
H592 C572 0.932 . S
H593 C573 0.930 . S
H594 C574 0.929 . S
H595 C576 0.932 . S
H596 C578 0.932 . S
H597 C579 0.929 . S
H598 C580 0.928 . S
H599 C582 0.932 . S
C600 C601 1.264 . S
C600 C605 1.479 . S
C600 C610 1.450 1_565 S
C601 C600 1.264 . S
C601 C603 1.339 . S
C601 H628 0.931 1_565 S
C602 C603 1.395 . S
C602 C604 1.320 . S
C603 C601 1.339 . S
C603 C602 1.395 . S
C603 H629 0.929 . S
C604 C602 1.320 . S
C604 C605 1.405 . S
C604 H630 0.930 . S
C605 C600 1.479 . S
C605 C604 1.405 . S
C605 H631 0.931 . S
U606 O607 2.454 1_545 S
U606 O608 2.458 . S
U606 C609 2.984 1_545 S
U606 C610 2.857 . S
U606 C623 2.882 . S
U606 O624 2.441 1_545 S
U606 O625 2.420 . S
U606 O626 2.455 . S
U606 O627 2.449 . S
O607 U606 2.454 1_565 S
O607 C609 1.353 . S
O608 U606 2.458 . S
O608 C609 1.286 1_545 S
C609 U606 2.984 1_565 S
C609 O607 1.353 . S
C609 O608 1.286 1_565 S
C609 C611 1.363 . S
C610 C600 1.450 1_545 S
C610 U606 2.857 . S
C610 O624 1.242 1_545 S
C610 O625 1.226 . S
C611 C609 1.363 . S
C611 C613 1.408 . S
C611 C616 1.342 . S
C612 C613 1.310 . S
C612 C615 1.461 . S
C612 H632 0.932 . S
C613 C611 1.408 . S
C613 C612 1.310 . S
C613 H633 0.930 . S
C614 C615 1.474 . S
C614 C616 1.285 . S
C614 H634 0.929 . S
C615 C612 1.461 . S
C615 C614 1.474 . S
C616 C611 1.342 . S
C616 C614 1.285 . S
C616 H635 0.930 . S
C617 C620 1.424 . S
C617 C622 1.245 . S
C617 C623 1.428 . S
C618 C621 1.260 . S
C618 C622 1.477 . S
C618 H636 0.932 . S
C619 C620 1.384 . S
C619 C621 1.479 . S
C619 H637 0.929 . S
C620 C617 1.424 . S
C620 C619 1.384 . S
C620 H638 0.928 . S
C621 C618 1.260 . S
C621 C619 1.479 . S
C622 C617 1.245 . S
C622 C618 1.477 . S
C622 H639 0.932 . S
C623 U606 2.882 . S
C623 C617 1.428 . S
C623 O626 1.301 . S
C623 O627 1.282 . S
O624 U606 2.441 1_565 S
O624 C610 1.242 1_565 S
O625 U606 2.420 . S
O625 C610 1.226 . S
O626 U606 2.455 . S
O626 C623 1.301 . S
O627 U606 2.449 . S
O627 C623 1.282 . S
H628 C601 0.931 1_545 S
H629 C603 0.929 . S
H630 C604 0.930 . S
H631 C605 0.931 . S
H632 C612 0.932 . S
H633 C613 0.930 . S
H634 C614 0.929 . S
H635 C616 0.930 . S
H636 C618 0.932 . S
H637 C619 0.929 . S
H638 C620 0.928 . S
H639 C622 0.932 . S
C640 C641 1.264 . S
C640 C645 1.479 . S
C640 C650 1.465 . S
C641 C640 1.264 . S
C641 C643 1.339 . S
C641 H668 0.931 . S
C642 C643 1.395 . S
C642 C644 1.320 . S
C643 C641 1.339 . S
C643 C642 1.395 . S
C643 H669 0.929 . S
C644 C642 1.320 . S
C644 C645 1.405 . S
C644 H670 0.930 . S
C645 C640 1.479 . S
C645 C644 1.405 . S
C645 H671 0.931 . S
U646 O647 2.454 . S
U646 O648 2.458 . S
U646 C649 2.984 . S
U646 C650 2.847 . S
U646 C663 2.882 . S
U646 O664 2.441 . S
U646 O665 2.420 . S
U646 O666 2.455 . S
U646 O667 2.449 . S
O647 U646 2.454 . S
O647 C649 1.353 . S
O648 U646 2.458 . S
O648 C649 1.286 . S
C649 U646 2.984 . S
C649 O647 1.353 . S
C649 O648 1.286 . S
C649 C651 1.363 . S
C650 C640 1.465 . S
C650 U646 2.847 . S
C650 O664 1.249 . S
C650 O665 1.202 . S
C651 C649 1.363 . S
C651 C653 1.408 . S
C651 C656 1.342 . S
C652 C653 1.310 . S
C652 C655 1.461 . S
C652 H672 0.932 . S
C653 C651 1.408 . S
C653 C652 1.310 . S
C653 H673 0.930 . S
C654 C655 1.474 . S
C654 C656 1.285 . S
C654 H674 0.929 . S
C655 C652 1.461 . S
C655 C654 1.474 . S
C656 C651 1.342 . S
C656 C654 1.285 . S
C656 H675 0.930 . S
C657 C660 1.424 . S
C657 C662 1.245 . S
C657 C663 1.428 . S
C658 C661 1.260 . S
C658 C662 1.477 . S
C658 H676 0.932 . S
C659 C660 1.384 . S
C659 C661 1.479 . S
C659 H677 0.929 . S
C660 C657 1.424 . S
C660 C659 1.384 . S
C660 H678 0.928 . S
C661 C658 1.260 . S
C661 C659 1.479 . S
C662 C657 1.245 . S
C662 C658 1.477 . S
C662 H679 0.932 . S
C663 U646 2.882 . S
C663 C657 1.428 . S
C663 O666 1.301 . S
C663 O667 1.282 . S
O664 U646 2.441 . S
O664 C650 1.249 . S
O665 U646 2.420 . S
O665 C650 1.202 . S
O666 U646 2.455 . S
O666 C663 1.301 . S
O667 U646 2.449 . S
O667 C663 1.282 . S
H668 C641 0.931 . S
H669 C643 0.929 . S
H670 C644 0.930 . S
H671 C645 0.931 . S
H672 C652 0.932 . S
H673 C653 0.930 . S
H674 C654 0.929 . S
H675 C656 0.930 . S
H676 C658 0.932 . S
H677 C659 0.929 . S
H678 C660 0.928 . S
H679 C662 0.932 . S
C680 C681 1.264 . S
C680 C685 1.479 . S
C680 C690 1.450 1_556 S
C681 C680 1.264 . S
C681 C683 1.339 . S
C681 H708 0.931 1_556 S
C682 C683 1.395 . S
C682 C684 1.320 . S
C683 C681 1.339 . S
C683 C682 1.395 . S
C683 H709 0.929 . S
C684 C682 1.320 . S
C684 C685 1.405 . S
C684 H710 0.930 . S
C685 C680 1.479 . S
C685 C684 1.405 . S
C685 H711 0.931 . S
U686 O687 2.454 1_554 S
U686 O688 2.458 . S
U686 C689 2.984 1_554 S
U686 C690 2.857 . S
U686 C703 2.882 . S
U686 O704 2.441 1_554 S
U686 O705 2.420 . S
U686 O706 2.455 . S
U686 O707 2.449 . S
O687 U686 2.454 1_556 S
O687 C689 1.353 . S
O688 U686 2.458 . S
O688 C689 1.286 1_554 S
C689 U686 2.984 1_556 S
C689 O687 1.353 . S
C689 O688 1.286 1_556 S
C689 C691 1.363 . S
C690 C680 1.450 1_554 S
C690 U686 2.857 . S
C690 O704 1.242 1_554 S
C690 O705 1.226 . S
C691 C689 1.363 . S
C691 C693 1.408 . S
C691 C696 1.342 . S
C692 C693 1.310 . S
C692 C695 1.461 . S
C692 H712 0.932 . S
C693 C691 1.408 . S
C693 C692 1.310 . S
C693 H713 0.930 . S
C694 C695 1.474 . S
C694 C696 1.285 . S
C694 H714 0.929 . S
C695 C692 1.461 . S
C695 C694 1.474 . S
C696 C691 1.342 . S
C696 C694 1.285 . S
C696 H715 0.930 . S
C697 C700 1.424 . S
C697 C702 1.245 . S
C697 C703 1.428 . S
C698 C701 1.260 . S
C698 C702 1.477 . S
C698 H716 0.932 . S
C699 C700 1.384 . S
C699 C701 1.479 . S
C699 H717 0.929 . S
C700 C697 1.424 . S
C700 C699 1.384 . S
C700 H718 0.928 . S
C701 C698 1.260 . S
C701 C699 1.479 . S
C702 C697 1.245 . S
C702 C698 1.477 . S
C702 H719 0.932 . S
C703 U686 2.882 . S
C703 C697 1.428 . S
C703 O706 1.301 . S
C703 O707 1.282 . S
O704 U686 2.441 1_556 S
O704 C690 1.242 1_556 S
O705 U686 2.420 . S
O705 C690 1.226 . S
O706 U686 2.455 . S
O706 C703 1.301 . S
O707 U686 2.449 . S
O707 C703 1.282 . S
H708 C681 0.931 1_554 S
H709 C683 0.929 . S
H710 C684 0.930 . S
H711 C685 0.931 . S
H712 C692 0.932 . S
H713 C693 0.930 . S
H714 C694 0.929 . S
H715 C696 0.930 . S
H716 C698 0.932 . S
H717 C699 0.929 . S
H718 C700 0.928 . S
H719 C702 0.932 . S
C720 C721 1.264 . S
C720 C725 1.479 . S
C720 C730 1.465 . S
C721 C720 1.264 . S
C721 C723 1.339 . S
C721 H748 0.931 . S
C722 C723 1.395 . S
C722 C724 1.320 . S
C723 C721 1.339 . S
C723 C722 1.395 . S
C723 H749 0.929 . S
C724 C722 1.320 . S
C724 C725 1.405 . S
C724 H750 0.930 . S
C725 C720 1.479 . S
C725 C724 1.405 . S
C725 H751 0.931 . S
U726 O727 2.454 . S
U726 O728 2.458 . S
U726 C729 2.984 . S
U726 C730 2.847 . S
U726 C743 2.882 . S
U726 O744 2.441 . S
U726 O745 2.420 . S
U726 O746 2.455 . S
U726 O747 2.449 . S
O727 U726 2.454 . S
O727 C729 1.353 . S
O728 U726 2.458 . S
O728 C729 1.286 . S
C729 U726 2.984 . S
C729 O727 1.353 . S
C729 O728 1.286 . S
C729 C731 1.363 . S
C730 C720 1.465 . S
C730 U726 2.847 . S
C730 O744 1.249 . S
C730 O745 1.202 . S
C731 C729 1.363 . S
C731 C733 1.408 . S
C731 C736 1.342 . S
C732 C733 1.310 . S
C732 C735 1.461 . S
C732 H752 0.932 . S
C733 C731 1.408 . S
C733 C732 1.310 . S
C733 H753 0.930 . S
C734 C735 1.474 . S
C734 C736 1.285 . S
C734 H754 0.929 . S
C735 C732 1.461 . S
C735 C734 1.474 . S
C736 C731 1.342 . S
C736 C734 1.285 . S
C736 H755 0.930 . S
C737 C740 1.424 . S
C737 C742 1.245 . S
C737 C743 1.428 . S
C738 C741 1.260 . S
C738 C742 1.477 . S
C738 H756 0.932 . S
C739 C740 1.384 . S
C739 C741 1.479 . S
C739 H757 0.929 . S
C740 C737 1.424 . S
C740 C739 1.384 . S
C740 H758 0.928 . S
C741 C738 1.260 . S
C741 C739 1.479 . S
C742 C737 1.245 . S
C742 C738 1.477 . S
C742 H759 0.932 . S
C743 U726 2.882 . S
C743 C737 1.428 . S
C743 O746 1.301 . S
C743 O747 1.282 . S
O744 U726 2.441 . S
O744 C730 1.249 . S
O745 U726 2.420 . S
O745 C730 1.202 . S
O746 U726 2.455 . S
O746 C743 1.301 . S
O747 U726 2.449 . S
O747 C743 1.282 . S
H748 C721 0.931 . S
H749 C723 0.929 . S
H750 C724 0.930 . S
H751 C725 0.931 . S
H752 C732 0.932 . S
H753 C733 0.930 . S
H754 C734 0.929 . S
H755 C736 0.930 . S
H756 C738 0.932 . S
H757 C739 0.929 . S
H758 C740 0.928 . S
H759 C742 0.932 . S
C760 C761 1.264 . S
C760 C765 1.479 1_556 S
C760 C770 1.465 . S
C761 C760 1.264 . S
C761 C763 1.339 . S
C761 H788 0.931 . S
C762 C763 1.395 1_554 S
C762 C764 1.320 . S
C763 C761 1.339 . S
C763 C762 1.395 1_556 S
C763 H789 0.929 . S
C764 C762 1.320 . S
C764 C765 1.405 . S
C764 H790 0.930 . S
C765 C760 1.479 1_554 S
C765 C764 1.405 . S
C765 H791 0.931 . S
U766 O767 2.454 . S
U766 O768 2.458 . S
U766 C769 2.984 . S
U766 C770 2.847 . S
U766 C783 2.882 . S
U766 O784 2.441 . S
U766 O785 2.420 . S
U766 O786 2.455 . S
U766 O787 2.449 . S
O767 U766 2.454 . S
O767 C769 1.353 . S
O768 U766 2.458 . S
O768 C769 1.286 . S
C769 U766 2.984 . S
C769 O767 1.353 . S
C769 O768 1.286 . S
C769 C771 1.363 1_556 S
C770 C760 1.465 . S
C770 U766 2.847 . S
C770 O784 1.249 . S
C770 O785 1.202 . S
C771 C769 1.363 1_554 S
C771 C773 1.408 . S
C771 C776 1.342 . S
C772 C773 1.310 . S
C772 C775 1.461 . S
C772 H792 0.932 . S
C773 C771 1.408 . S
C773 C772 1.310 . S
C773 H793 0.930 . S
C774 C775 1.474 . S
C774 C776 1.285 . S
C774 H794 0.929 . S
C775 C772 1.461 . S
C775 C774 1.474 . S
C776 C771 1.342 . S
C776 C774 1.285 . S
C776 H795 0.932 . S
C777 C780 1.424 . S
C777 C782 1.245 . S
C777 C783 1.428 . S
C778 C781 1.260 . S
C778 C782 1.477 . S
C778 H796 0.932 . S
C779 C780 1.384 . S
C779 C781 1.479 . S
C779 H797 0.929 . S
C780 C777 1.424 . S
C780 C779 1.384 . S
C780 H798 0.928 . S
C781 C778 1.260 . S
C781 C779 1.479 . S
C782 C777 1.245 . S
C782 C778 1.477 . S
C782 H799 0.932 . S
C783 U766 2.882 . S
C783 C777 1.428 . S
C783 O786 1.301 . S
C783 O787 1.282 . S
O784 U766 2.441 . S
O784 C770 1.249 . S
O785 U766 2.420 . S
O785 C770 1.202 . S
O786 U766 2.455 . S
O786 C783 1.301 . S
O787 U766 2.449 . S
O787 C783 1.282 . S
H788 C761 0.931 . S
H789 C763 0.929 . S
H790 C764 0.930 . S
H791 C765 0.931 . S
H792 C772 0.932 . S
H793 C773 0.930 . S
H794 C774 0.929 . S
H795 C776 0.932 . S
H796 C778 0.932 . S
H797 C779 0.929 . S
H798 C780 0.928 . S
H799 C782 0.932 . S
C800 C801 1.264 . S
C800 C805 1.479 . S
C800 C810 1.465 . S
C801 C800 1.264 . S
C801 C803 1.339 . S
C801 H828 0.931 . S
C802 C803 1.395 . S
C802 C804 1.320 . S
C803 C801 1.339 . S
C803 C802 1.395 . S
C803 H829 0.929 . S
C804 C802 1.320 . S
C804 C805 1.405 . S
C804 H830 0.930 . S
C805 C800 1.479 . S
C805 C804 1.405 . S
C805 H831 0.931 . S
U806 O807 2.454 . S
U806 O808 2.458 . S
U806 C809 2.984 . S
U806 C810 2.847 . S
U806 C823 2.882 . S
U806 O824 2.441 . S
U806 O825 2.420 . S
U806 O826 2.455 . S
U806 O827 2.449 . S
O807 U806 2.454 . S
O807 C809 1.353 . S
O808 U806 2.458 . S
O808 C809 1.286 . S
C809 U806 2.984 . S
C809 O807 1.353 . S
C809 O808 1.286 . S
C809 C811 1.363 . S
C810 C800 1.465 . S
C810 U806 2.847 . S
C810 O824 1.249 . S
C810 O825 1.202 . S
C811 C809 1.363 . S
C811 C813 1.408 . S
C811 C816 1.342 . S
C812 C813 1.310 . S
C812 C815 1.461 . S
C812 H832 0.932 . S
C813 C811 1.408 . S
C813 C812 1.310 . S
C813 H833 0.930 . S
C814 C815 1.474 . S
C814 C816 1.285 . S
C814 H834 0.929 . S
C815 C812 1.461 . S
C815 C814 1.474 . S
C816 C811 1.342 . S
C816 C814 1.285 . S
C816 H835 0.930 . S
C817 C820 1.424 . S
C817 C822 1.245 . S
C817 C823 1.428 . S
C818 C821 1.260 . S
C818 C822 1.477 . S
C818 H836 0.932 . S
C819 C820 1.384 . S
C819 C821 1.479 . S
C819 H837 0.929 . S
C820 C817 1.424 . S
C820 C819 1.384 . S
C820 H838 0.928 . S
C821 C818 1.260 . S
C821 C819 1.479 . S
C822 C817 1.245 . S
C822 C818 1.477 . S
C822 H839 0.932 . S
C823 U806 2.882 . S
C823 C817 1.428 . S
C823 O826 1.301 . S
C823 O827 1.282 . S
O824 U806 2.441 . S
O824 C810 1.249 . S
O825 U806 2.420 . S
O825 C810 1.202 . S
O826 U806 2.455 . S
O826 C823 1.301 . S
O827 U806 2.449 . S
O827 C823 1.282 . S
H828 C801 0.931 . S
H829 C803 0.929 . S
H830 C804 0.930 . S
H831 C805 0.931 . S
H832 C812 0.932 . S
H833 C813 0.930 . S
H834 C814 0.929 . S
H835 C816 0.930 . S
H836 C818 0.932 . S
H837 C819 0.929 . S
H838 C820 0.928 . S
H839 C822 0.932 . S
C840 C841 1.264 . S
C840 C845 1.479 . S
C840 C850 1.450 1_655 S
C841 C840 1.264 . S
C841 C843 1.339 . S
C841 H868 0.931 1_655 S
C842 C843 1.395 . S
C842 C844 1.320 . S
C843 C841 1.339 . S
C843 C842 1.395 . S
C843 H869 0.929 . S
C844 C842 1.320 . S
C844 C845 1.405 . S
C844 H870 0.930 . S
C845 C840 1.479 . S
C845 C844 1.405 . S
C845 H871 0.931 . S
U846 O847 2.454 1_455 S
U846 O848 2.458 . S
U846 C849 2.984 1_455 S
U846 C850 2.857 . S
U846 C863 2.882 . S
U846 O864 2.441 1_455 S
U846 O865 2.420 . S
U846 O866 2.455 . S
U846 O867 2.449 . S
O847 U846 2.454 1_655 S
O847 C849 1.353 . S
O848 U846 2.458 . S
O848 C849 1.286 1_455 S
C849 U846 2.984 1_655 S
C849 O847 1.353 . S
C849 O848 1.286 1_655 S
C849 C851 1.363 . S
C850 C840 1.450 1_455 S
C850 U846 2.857 . S
C850 O864 1.242 1_455 S
C850 O865 1.226 . S
C851 C849 1.363 . S
C851 C853 1.408 . S
C851 C856 1.342 . S
C852 C853 1.310 . S
C852 C855 1.461 . S
C852 H872 0.932 . S
C853 C851 1.408 . S
C853 C852 1.310 . S
C853 H873 0.930 . S
C854 C855 1.474 . S
C854 C856 1.285 . S
C854 H874 0.929 . S
C855 C852 1.461 . S
C855 C854 1.474 . S
C856 C851 1.342 . S
C856 C854 1.285 . S
C856 H875 0.930 . S
C857 C860 1.424 . S
C857 C862 1.245 . S
C857 C863 1.428 . S
C858 C861 1.260 . S
C858 C862 1.477 . S
C858 H876 0.932 . S
C859 C860 1.384 . S
C859 C861 1.479 . S
C859 H877 0.929 . S
C860 C857 1.424 . S
C860 C859 1.384 . S
C860 H878 0.928 . S
C861 C858 1.260 . S
C861 C859 1.479 . S
C862 C857 1.245 . S
C862 C858 1.477 . S
C862 H879 0.932 . S
C863 U846 2.882 . S
C863 C857 1.428 . S
C863 O866 1.301 . S
C863 O867 1.282 . S
O864 U846 2.441 1_655 S
O864 C850 1.242 1_655 S
O865 U846 2.420 . S
O865 C850 1.226 . S
O866 U846 2.455 . S
O866 C863 1.301 . S
O867 U846 2.449 . S
O867 C863 1.282 . S
H868 C841 0.931 1_455 S
H869 C843 0.929 . S
H870 C844 0.930 . S
H871 C845 0.931 . S
H872 C852 0.932 . S
H873 C853 0.930 . S
H874 C854 0.929 . S
H875 C856 0.930 . S
H876 C858 0.932 . S
H877 C859 0.929 . S
H878 C860 0.928 . S
H879 C862 0.932 . S
C880 C881 1.264 . S
C880 C885 1.479 . S
C880 C890 1.465 . S
C881 C880 1.264 . S
C881 C883 1.339 . S
C881 H908 0.931 . S
C882 C883 1.395 . S
C882 C884 1.320 . S
C883 C881 1.339 . S
C883 C882 1.395 . S
C883 H909 0.929 . S
C884 C882 1.320 . S
C884 C885 1.405 . S
C884 H910 0.930 . S
C885 C880 1.479 . S
C885 C884 1.405 . S
C885 H911 0.931 . S
U886 O887 2.454 . S
U886 O888 2.458 . S
U886 C889 2.984 . S
U886 C890 2.847 . S
U886 C903 2.882 . S
U886 O904 2.441 . S
U886 O905 2.420 . S
U886 O906 2.455 . S
U886 O907 2.449 . S
O887 U886 2.454 . S
O887 C889 1.353 . S
O888 U886 2.458 . S
O888 C889 1.286 . S
C889 U886 2.984 . S
C889 O887 1.353 . S
C889 O888 1.286 . S
C889 C891 1.363 . S
C890 C880 1.465 . S
C890 U886 2.847 . S
C890 O904 1.249 . S
C890 O905 1.202 . S
C891 C889 1.363 . S
C891 C893 1.408 . S
C891 C896 1.342 . S
C892 C893 1.310 . S
C892 C895 1.461 . S
C892 H912 0.932 . S
C893 C891 1.408 . S
C893 C892 1.310 . S
C893 H913 0.930 . S
C894 C895 1.474 . S
C894 C896 1.285 . S
C894 H914 0.929 . S
C895 C892 1.461 . S
C895 C894 1.474 . S
C896 C891 1.342 . S
C896 C894 1.285 . S
C896 H915 0.930 . S
C897 C900 1.424 . S
C897 C902 1.245 . S
C897 C903 1.428 . S
C898 C901 1.260 . S
C898 C902 1.477 . S
C898 H916 0.932 . S
C899 C900 1.384 . S
C899 C901 1.479 . S
C899 H917 0.929 . S
C900 C897 1.424 . S
C900 C899 1.384 . S
C900 H918 0.928 . S
C901 C898 1.260 . S
C901 C899 1.479 . S
C902 C897 1.245 . S
C902 C898 1.477 . S
C902 H919 0.932 . S
C903 U886 2.882 . S
C903 C897 1.428 . S
C903 O906 1.301 . S
C903 O907 1.282 . S
O904 U886 2.441 . S
O904 C890 1.249 . S
O905 U886 2.420 . S
O905 C890 1.202 . S
O906 U886 2.455 . S
O906 C903 1.301 . S
O907 U886 2.449 . S
O907 C903 1.282 . S
H908 C881 0.931 . S
H909 C883 0.929 . S
H910 C884 0.930 . S
H911 C885 0.931 . S
H912 C892 0.932 . S
H913 C893 0.930 . S
H914 C894 0.929 . S
H915 C896 0.930 . S
H916 C898 0.932 . S
H917 C899 0.929 . S
H918 C900 0.928 . S
H919 C902 0.932 . S
C920 C921 1.264 . S
C920 C925 1.479 1_655 S
C920 C930 1.465 . S
C921 C920 1.264 . S
C921 C923 1.339 . S
C921 H948 0.931 . S
C922 C923 1.395 1_455 S
C922 C924 1.320 . S
C923 C921 1.339 . S
C923 C922 1.395 1_655 S
C923 H949 0.929 . S
C924 C922 1.320 . S
C924 C925 1.405 . S
C924 H950 0.930 . S
C925 C920 1.479 1_455 S
C925 C924 1.405 . S
C925 H951 0.931 . S
U926 O927 2.454 . S
U926 O928 2.458 . S
U926 C929 2.984 . S
U926 C930 2.847 . S
U926 C943 2.882 . S
U926 O944 2.441 . S
U926 O945 2.420 . S
U926 O946 2.455 . S
U926 O947 2.449 . S
O927 U926 2.454 . S
O927 C929 1.353 . S
O928 U926 2.458 . S
O928 C929 1.286 . S
C929 U926 2.984 . S
C929 O927 1.353 . S
C929 O928 1.286 . S
C929 C931 1.363 1_655 S
C930 C920 1.465 . S
C930 U926 2.847 . S
C930 O944 1.249 . S
C930 O945 1.202 . S
C931 C929 1.363 1_455 S
C931 C933 1.408 . S
C931 C936 1.342 . S
C932 C933 1.310 . S
C932 C935 1.461 . S
C932 H952 0.932 . S
C933 C931 1.408 . S
C933 C932 1.310 . S
C933 H953 0.930 . S
C934 C935 1.474 . S
C934 C936 1.285 . S
C934 H954 0.929 . S
C935 C932 1.461 . S
C935 C934 1.474 . S
C936 C931 1.342 . S
C936 C934 1.285 . S
C936 H955 0.932 . S
C937 C940 1.424 . S
C937 C942 1.245 . S
C937 C943 1.428 . S
C938 C941 1.260 . S
C938 C942 1.477 . S
C938 H956 0.932 . S
C939 C940 1.384 . S
C939 C941 1.479 . S
C939 H957 0.929 . S
C940 C937 1.424 . S
C940 C939 1.384 . S
C940 H958 0.928 . S
C941 C938 1.260 . S
C941 C939 1.479 . S
C942 C937 1.245 . S
C942 C938 1.477 . S
C942 H959 0.932 . S
C943 U926 2.882 . S
C943 C937 1.428 . S
C943 O946 1.301 . S
C943 O947 1.282 . S
O944 U926 2.441 . S
O944 C930 1.249 . S
O945 U926 2.420 . S
O945 C930 1.202 . S
O946 U926 2.455 . S
O946 C943 1.301 . S
O947 U926 2.449 . S
O947 C943 1.282 . S
H948 C921 0.931 . S
H949 C923 0.929 . S
H950 C924 0.930 . S
H951 C925 0.931 . S
H952 C932 0.932 . S
H953 C933 0.930 . S
H954 C934 0.929 . S
H955 C936 0.932 . S
H956 C938 0.932 . S
H957 C939 0.929 . S
H958 C940 0.928 . S
H959 C942 0.932 . S
H960 C961 0.949 . S
C961 H960 0.949 . S
C961 C962 1.395 . S
C961 C963 1.391 . S
C962 C961 1.395 . S
C962 C965 1.390 . S
C963 C961 1.391 . S
C963 C967 1.387 . S
C963 C968 1.491 . S
H964 C965 0.950 . S
C965 C962 1.390 . S
C965 H964 0.950 . S
C965 C966 1.378 . S
C966 C965 1.378 . S
C966 C967 1.409 . S
C967 C963 1.387 . S
C967 C966 1.409 . S
C967 H969 0.951 . S
C968 C963 1.491 . S
C968 C970 1.382 . S
C968 C972 1.404 . S
H969 C967 0.951 . S
C970 C968 1.382 . S
C970 C971 1.390 . S
C970 H975 0.949 . S
C971 C970 1.390 . S
C971 C976 1.399 . S
C972 C968 1.404 . S
C972 H973 0.950 . S
C972 C974 1.375 . S
H973 C972 0.950 . S
C974 C972 1.375 . S
C974 C976 1.382 . S
C974 H978 0.950 . S
H975 C970 0.949 . S
C976 C971 1.399 . S
C976 C974 1.382 . S
C976 H977 0.952 . S
H977 C976 0.952 . S
H978 C974 0.950 . S
H979 C980 0.949 . S
C980 H979 0.949 . S
C980 C981 1.395 . S
C980 C982 1.391 1_556 S
C981 C980 1.395 . S
C981 C984 1.390 . S
C982 C980 1.391 1_554 S
C982 C986 1.387 . S
C982 C987 1.491 . S
H983 C984 0.950 . S
C984 C981 1.390 . S
C984 H983 0.950 . S
C984 C985 1.378 1_556 S
C985 C984 1.378 1_554 S
C985 C986 1.409 . S
C986 C982 1.387 . S
C986 C985 1.409 . S
C986 H988 0.951 . S
C987 C982 1.491 . S
C987 C989 1.382 . S
C987 C991 1.404 . S
H988 C986 0.951 . S
C989 C987 1.382 . S
C989 C990 1.390 . S
C989 H994 0.942 1_554 S
C990 C989 1.390 . S
C990 C995 1.399 . S
C991 C987 1.404 . S
C991 H992 0.950 . S
C991 C993 1.375 . S
H992 C991 0.950 . S
C993 C991 1.375 . S
C993 C995 1.382 . S
C993 H997 0.950 . S
H994 C989 0.942 1_556 S
C995 C990 1.399 . S
C995 C993 1.382 . S
C995 H996 0.952 . S
H996 C995 0.952 . S
H997 C993 0.950 . S
H998 C999 0.949 . S
C999 H998 0.949 . S
C999 C1000 1.395 . S
C999 C1001 1.391 . S
C1000 C999 1.395 . S
C1000 C1003 1.390 . S
C1001 C999 1.391 . S
C1001 C1005 1.387 . S
C1001 C1006 1.491 . S
H1002 C1003 0.950 . S
C1003 C1000 1.390 . S
C1003 H1002 0.950 . S
C1003 C1004 1.378 . S
C1004 C1003 1.378 . S
C1004 C1005 1.409 . S
C1005 C1001 1.387 . S
C1005 C1004 1.409 . S
C1005 H1007 0.951 . S
C1006 C1001 1.491 . S
C1006 C1008 1.382 . S
C1006 C1010 1.404 . S
H1007 C1005 0.951 . S
C1008 C1006 1.382 . S
C1008 C1009 1.390 . S
C1008 H1013 0.949 . S
C1009 C1008 1.390 . S
C1009 C1014 1.399 . S
C1010 C1006 1.404 . S
C1010 H1011 0.950 . S
C1010 C1012 1.375 . S
H1011 C1010 0.950 . S
C1012 C1010 1.375 . S
C1012 C1014 1.382 . S
C1012 H1016 0.950 . S
H1013 C1008 0.949 . S
C1014 C1009 1.399 . S
C1014 C1012 1.382 . S
C1014 H1015 0.952 . S
H1015 C1014 0.952 . S
H1016 C1012 0.950 . S
H1017 C1018 0.949 . S
C1018 H1017 0.949 . S
C1018 C1019 1.395 . S
C1018 C1020 1.391 1_554 S
C1019 C1018 1.395 . S
C1019 C1022 1.390 . S
C1020 C1018 1.391 1_556 S
C1020 C1024 1.387 . S
C1020 C1025 1.491 . S
H1021 C1022 0.950 . S
C1022 C1019 1.390 . S
C1022 H1021 0.950 . S
C1022 C1023 1.378 1_554 S
C1023 C1022 1.378 1_556 S
C1023 C1024 1.409 . S
C1024 C1020 1.387 . S
C1024 C1023 1.409 . S
C1024 H1026 0.951 . S
C1025 C1020 1.491 . S
C1025 C1027 1.382 . S
C1025 C1029 1.404 . S
H1026 C1024 0.951 . S
C1027 C1025 1.382 . S
C1027 C1028 1.390 . S
C1027 H1032 0.949 1_556 S
C1028 C1027 1.390 . S
C1028 C1033 1.399 . S
C1029 C1025 1.404 . S
C1029 H1030 0.950 . S
C1029 C1031 1.375 . S
H1030 C1029 0.950 . S
C1031 C1029 1.375 . S
C1031 C1033 1.382 . S
C1031 H1035 0.950 . S
H1032 C1027 0.949 1_554 S
C1033 C1028 1.399 . S
C1033 C1031 1.382 . S
C1033 H1034 0.952 . S
H1034 C1033 0.952 . S
H1035 C1031 0.950 . S
H1036 C1037 0.949 . S
C1037 H1036 0.949 . S
C1037 C1038 1.395 . S
C1037 C1039 1.391 . S
C1038 C1037 1.395 . S
C1038 C1041 1.390 . S
C1039 C1037 1.391 . S
C1039 C1043 1.387 . S
C1039 C1044 1.491 . S
H1040 C1041 0.950 . S
C1041 C1038 1.390 . S
C1041 H1040 0.950 . S
C1041 C1042 1.378 . S
C1042 C1041 1.378 . S
C1042 C1043 1.409 . S
C1043 C1039 1.387 . S
C1043 C1042 1.409 . S
C1043 H1045 0.951 . S
C1044 C1039 1.491 . S
C1044 C1046 1.382 . S
C1044 C1048 1.404 . S
H1045 C1043 0.951 . S
C1046 C1044 1.382 . S
C1046 C1047 1.390 . S
C1046 H1051 0.949 . S
C1047 C1046 1.390 . S
C1047 C1052 1.399 . S
C1048 C1044 1.404 . S
C1048 H1049 0.950 . S
C1048 C1050 1.375 . S
H1049 C1048 0.950 . S
C1050 C1048 1.375 . S
C1050 C1052 1.382 . S
C1050 H1054 0.950 . S
H1051 C1046 0.949 . S
C1052 C1047 1.399 . S
C1052 C1050 1.382 . S
C1052 H1053 0.952 . S
H1053 C1052 0.952 . S
H1054 C1050 0.950 . S
H1055 C1056 0.949 . S
C1056 H1055 0.949 . S
C1056 C1057 1.395 . S
C1056 C1058 1.391 1_455 S
C1057 C1056 1.395 . S
C1057 C1060 1.390 . S
C1058 C1056 1.391 1_655 S
C1058 C1062 1.387 . S
C1058 C1063 1.491 . S
H1059 C1060 0.950 . S
C1060 C1057 1.390 . S
C1060 H1059 0.950 . S
C1060 C1061 1.378 1_455 S
C1061 C1060 1.378 1_655 S
C1061 C1062 1.409 . S
C1062 C1058 1.387 . S
C1062 C1061 1.409 . S
C1062 H1064 0.951 . S
C1063 C1058 1.491 . S
C1063 C1065 1.382 . S
C1063 C1067 1.404 . S
H1064 C1062 0.951 . S
C1065 C1063 1.382 . S
C1065 C1066 1.390 . S
C1065 H1070 0.949 1_655 S
C1066 C1065 1.390 . S
C1066 C1071 1.399 . S
C1067 C1063 1.404 . S
C1067 H1068 0.950 . S
C1067 C1069 1.375 . S
H1068 C1067 0.950 . S
C1069 C1067 1.375 . S
C1069 C1071 1.382 . S
C1069 H1073 0.950 . S
H1070 C1065 0.949 1_455 S
C1071 C1066 1.399 . S
C1071 C1069 1.382 . S
C1071 H1072 0.952 . S
H1072 C1071 0.952 . S
H1073 C1069 0.950 . S
H1074 C1075 0.949 . S
C1075 H1074 0.949 . S
C1075 C1076 1.395 . S
C1075 C1077 1.391 1_655 S
C1076 C1075 1.395 . S
C1076 C1079 1.390 . S
C1077 C1075 1.391 1_455 S
C1077 C1081 1.387 . S
C1077 C1082 1.491 . S
H1078 C1079 0.950 . S
C1079 C1076 1.390 . S
C1079 H1078 0.950 . S
C1079 C1080 1.378 1_655 S
C1080 C1079 1.378 1_455 S
C1080 C1081 1.409 . S
C1081 C1077 1.387 . S
C1081 C1080 1.409 . S
C1081 H1083 0.951 . S
C1082 C1077 1.491 . S
C1082 C1084 1.382 . S
C1082 C1086 1.404 . S
H1083 C1081 0.951 . S
C1084 C1082 1.382 . S
C1084 C1085 1.390 . S
C1084 H1089 0.942 1_455 S
C1085 C1084 1.390 . S
C1085 C1090 1.399 . S
C1086 C1082 1.404 . S
C1086 H1087 0.950 . S
C1086 C1088 1.375 . S
H1087 C1086 0.950 . S
C1088 C1086 1.375 . S
C1088 C1090 1.382 . S
C1088 H1092 0.950 . S
H1089 C1084 0.942 1_655 S
C1090 C1085 1.399 . S
C1090 C1088 1.382 . S
C1090 H1091 0.952 . S
H1091 C1090 0.952 . S
H1092 C1088 0.950 . S
H1093 C1094 0.949 . S
C1094 H1093 0.949 . S
C1094 C1095 1.395 . S
C1094 C1096 1.391 . S
C1095 C1094 1.395 . S
C1095 C1098 1.390 . S
C1096 C1094 1.391 . S
C1096 C1100 1.387 . S
C1096 C1101 1.491 . S
H1097 C1098 0.950 . S
C1098 C1095 1.390 . S
C1098 H1097 0.950 . S
C1098 C1099 1.378 . S
C1099 C1098 1.378 . S
C1099 C1100 1.409 . S
C1100 C1096 1.387 . S
C1100 C1099 1.409 . S
C1100 H1102 0.951 . S
C1101 C1096 1.491 . S
C1101 C1103 1.382 . S
C1101 C1105 1.404 . S
H1102 C1100 0.951 . S
C1103 C1101 1.382 . S
C1103 C1104 1.390 . S
C1103 H1108 0.949 . S
C1104 C1103 1.390 . S
C1104 C1109 1.399 . S
C1105 C1101 1.404 . S
C1105 H1106 0.950 . S
C1105 C1107 1.375 . S
H1106 C1105 0.950 . S
C1107 C1105 1.375 . S
C1107 C1109 1.382 . S
C1107 H1111 0.950 . S
H1108 C1103 0.949 . S
C1109 C1104 1.399 . S
C1109 C1107 1.382 . S
C1109 H1110 0.952 . S
H1110 C1109 0.952 . S
H1111 C1107 0.950 . S
H1112 C1113 0.949 . S
C1113 H1112 0.949 . S
C1113 C1114 1.395 . S
C1113 C1115 1.391 . S
C1114 C1113 1.395 . S
C1114 C1117 1.390 . S
C1115 C1113 1.391 . S
C1115 C1119 1.387 . S
C1115 C1120 1.491 . S
H1116 C1117 0.950 . S
C1117 C1114 1.390 . S
C1117 H1116 0.950 . S
C1117 C1118 1.378 . S
C1118 C1117 1.378 . S
C1118 C1119 1.409 . S
C1119 C1115 1.387 . S
C1119 C1118 1.409 . S
C1119 H1121 0.951 . S
C1120 C1115 1.491 . S
C1120 C1122 1.382 . S
C1120 C1124 1.404 . S
H1121 C1119 0.951 . S
C1122 C1120 1.382 . S
C1122 C1123 1.390 . S
C1122 H1127 0.949 . S
C1123 C1122 1.390 . S
C1123 C1128 1.399 . S
C1124 C1120 1.404 . S
C1124 H1125 0.950 . S
C1124 C1126 1.375 . S
H1125 C1124 0.950 . S
C1126 C1124 1.375 . S
C1126 C1128 1.382 . S
C1126 H1130 0.950 . S
H1127 C1122 0.949 . S
C1128 C1123 1.399 . S
C1128 C1126 1.382 . S
C1128 H1129 0.952 . S
H1129 C1128 0.952 . S
H1130 C1126 0.950 . S
H1131 C1132 0.949 . S
C1132 H1131 0.949 . S
C1132 C1133 1.395 . S
C1132 C1134 1.391 1_545 S
C1133 C1132 1.395 . S
C1133 C1136 1.390 . S
C1134 C1132 1.391 1_565 S
C1134 C1138 1.387 . S
C1134 C1139 1.491 . S
H1135 C1136 0.950 . S
C1136 C1133 1.390 . S
C1136 H1135 0.950 . S
C1136 C1137 1.378 1_545 S
C1137 C1136 1.378 1_565 S
C1137 C1138 1.409 . S
C1138 C1134 1.387 . S
C1138 C1137 1.409 . S
C1138 H1140 0.951 . S
C1139 C1134 1.491 . S
C1139 C1141 1.382 . S
C1139 C1143 1.404 . S
H1140 C1138 0.951 . S
C1141 C1139 1.382 . S
C1141 C1142 1.390 . S
C1141 H1146 0.949 1_565 S
C1142 C1141 1.390 . S
C1142 C1147 1.399 . S
C1143 C1139 1.404 . S
C1143 H1144 0.950 . S
C1143 C1145 1.375 . S
H1144 C1143 0.950 . S
C1145 C1143 1.375 . S
C1145 C1147 1.382 . S
C1145 H1149 0.950 . S
H1146 C1141 0.949 1_545 S
C1147 C1142 1.399 . S
C1147 C1145 1.382 . S
C1147 H1148 0.952 . S
H1148 C1147 0.952 . S
H1149 C1145 0.950 . S
H1150 C1151 0.949 . S
C1151 H1150 0.949 . S
C1151 C1152 1.395 . S
C1151 C1153 1.391 1_565 S
C1152 C1151 1.395 . S
C1152 C1155 1.390 . S
C1153 C1151 1.391 1_545 S
C1153 C1157 1.387 . S
C1153 C1158 1.491 . S
H1154 C1155 0.950 . S
C1155 C1152 1.390 . S
C1155 H1154 0.950 . S
C1155 C1156 1.378 1_565 S
C1156 C1155 1.378 1_545 S
C1156 C1157 1.409 . S
C1157 C1153 1.387 . S
C1157 C1156 1.409 . S
C1157 H1159 0.951 . S
C1158 C1153 1.491 . S
C1158 C1160 1.382 . S
C1158 C1162 1.404 . S
H1159 C1157 0.951 . S
C1160 C1158 1.382 . S
C1160 C1161 1.390 . S
C1160 H1165 0.942 1_545 S
C1161 C1160 1.390 . S
C1161 C1166 1.399 . S
C1162 C1158 1.404 . S
C1162 H1163 0.950 . S
C1162 C1164 1.375 . S
H1163 C1162 0.950 . S
C1164 C1162 1.375 . S
C1164 C1166 1.382 . S
C1164 H1168 0.950 . S
H1165 C1160 0.942 1_565 S
C1166 C1161 1.399 . S
C1166 C1164 1.382 . S
C1166 H1167 0.952 . S
H1167 C1166 0.952 . S
H1168 C1164 0.950 . S
H1169 C1170 0.949 . S
C1170 H1169 0.949 . S
C1170 C1171 1.395 . S
C1170 C1172 1.391 . S
C1171 C1170 1.395 . S
C1171 C1174 1.390 . S
C1172 C1170 1.391 . S
C1172 C1176 1.387 . S
C1172 C1177 1.491 . S
H1173 C1174 0.950 . S
C1174 C1171 1.390 . S
C1174 H1173 0.950 . S
C1174 C1175 1.378 . S
C1175 C1174 1.378 . S
C1175 C1176 1.409 . S
C1176 C1172 1.387 . S
C1176 C1175 1.409 . S
C1176 H1178 0.951 . S
C1177 C1172 1.491 . S
C1177 C1179 1.382 . S
C1177 C1181 1.404 . S
H1178 C1176 0.951 . S
C1179 C1177 1.382 . S
C1179 C1180 1.390 . S
C1179 H1184 0.949 . S
C1180 C1179 1.390 . S
C1180 C1185 1.399 . S
C1181 C1177 1.404 . S
C1181 H1182 0.950 . S
C1181 C1183 1.375 . S
H1182 C1181 0.950 . S
C1183 C1181 1.375 . S
C1183 C1185 1.382 . S
C1183 H1187 0.950 . S
H1184 C1179 0.949 . S
C1185 C1180 1.399 . S
C1185 C1183 1.382 . S
C1185 H1186 0.952 . S
H1186 C1185 0.952 . S
H1187 C1183 0.950 . S
H1188 C1189 0.949 . S
C1189 H1188 0.949 . S
C1189 C1190 1.395 . S
C1189 C1191 1.391 . S
C1190 C1189 1.395 . S
C1190 C1193 1.390 . S
C1191 C1189 1.391 . S
C1191 C1195 1.387 . S
C1191 C1196 1.491 . S
H1192 C1193 0.950 . S
C1193 C1190 1.390 . S
C1193 H1192 0.950 . S
C1193 C1194 1.378 . S
C1194 C1193 1.378 . S
C1194 C1195 1.409 . S
C1195 C1191 1.387 . S
C1195 C1194 1.409 . S
C1195 H1197 0.951 . S
C1196 C1191 1.491 . S
C1196 C1198 1.382 . S
C1196 C1200 1.404 . S
H1197 C1195 0.951 . S
C1198 C1196 1.382 . S
C1198 C1199 1.390 . S
C1198 H1203 0.949 . S
C1199 C1198 1.390 . S
C1199 C1204 1.399 . S
C1200 C1196 1.404 . S
C1200 H1201 0.950 . S
C1200 C1202 1.375 . S
H1201 C1200 0.950 . S
C1202 C1200 1.375 . S
C1202 C1204 1.382 . S
C1202 H1206 0.950 . S
H1203 C1198 0.949 . S
C1204 C1199 1.399 . S
C1204 C1202 1.382 . S
C1204 H1205 0.952 . S
H1205 C1204 0.952 . S
H1206 C1202 0.950 . S
H1207 C1208 0.949 . S
C1208 H1207 0.949 . S
C1208 C1209 1.395 . S
C1208 C1210 1.391 1_554 S
C1209 C1208 1.395 . S
C1209 C1212 1.390 . S
C1210 C1208 1.391 1_556 S
C1210 C1214 1.387 . S
C1210 C1215 1.491 . S
H1211 C1212 0.950 . S
C1212 C1209 1.390 . S
C1212 H1211 0.950 . S
C1212 C1213 1.378 1_554 S
C1213 C1212 1.378 1_556 S
C1213 C1214 1.409 . S
C1214 C1210 1.387 . S
C1214 C1213 1.409 . S
C1214 H1216 0.951 . S
C1215 C1210 1.491 . S
C1215 C1217 1.382 . S
C1215 C1219 1.404 . S
H1216 C1214 0.951 . S
C1217 C1215 1.382 . S
C1217 C1218 1.390 . S
C1217 H1222 0.949 1_556 S
C1218 C1217 1.390 . S
C1218 C1223 1.399 . S
C1219 C1215 1.404 . S
C1219 H1220 0.950 . S
C1219 C1221 1.375 . S
H1220 C1219 0.950 . S
C1221 C1219 1.375 . S
C1221 C1223 1.382 . S
C1221 H1225 0.950 . S
H1222 C1217 0.949 1_554 S
C1223 C1218 1.399 . S
C1223 C1221 1.382 . S
C1223 H1224 0.952 . S
H1224 C1223 0.952 . S
H1225 C1221 0.950 . S
H1226 C1227 0.949 . S
C1227 H1226 0.949 . S
C1227 C1228 1.395 . S
C1227 C1229 1.391 . S
C1228 C1227 1.395 . S
C1228 C1231 1.390 . S
C1229 C1227 1.391 . S
C1229 C1233 1.387 . S
C1229 C1234 1.491 . S
H1230 C1231 0.950 . S
C1231 C1228 1.390 . S
C1231 H1230 0.950 . S
C1231 C1232 1.378 . S
C1232 C1231 1.378 . S
C1232 C1233 1.409 . S
C1233 C1229 1.387 . S
C1233 C1232 1.409 . S
C1233 H1235 0.951 . S
C1234 C1229 1.491 . S
C1234 C1236 1.382 . S
C1234 C1238 1.404 . S
H1235 C1233 0.951 . S
C1236 C1234 1.382 . S
C1236 C1237 1.390 . S
C1236 H1241 0.949 . S
C1237 C1236 1.390 . S
C1237 C1242 1.399 . S
C1238 C1234 1.404 . S
C1238 H1239 0.950 . S
C1238 C1240 1.375 . S
H1239 C1238 0.950 . S
C1240 C1238 1.375 . S
C1240 C1242 1.382 . S
C1240 H1244 0.950 . S
H1241 C1236 0.949 . S
C1242 C1237 1.399 . S
C1242 C1240 1.382 . S
C1242 H1243 0.952 . S
H1243 C1242 0.952 . S
H1244 C1240 0.950 . S
H1245 C1246 0.949 . S
C1246 H1245 0.949 . S
C1246 C1247 1.395 . S
C1246 C1248 1.391 1_556 S
C1247 C1246 1.395 . S
C1247 C1250 1.390 . S
C1248 C1246 1.391 1_554 S
C1248 C1252 1.387 . S
C1248 C1253 1.491 . S
H1249 C1250 0.950 . S
C1250 C1247 1.390 . S
C1250 H1249 0.950 . S
C1250 C1251 1.378 1_556 S
C1251 C1250 1.378 1_554 S
C1251 C1252 1.409 . S
C1252 C1248 1.387 . S
C1252 C1251 1.409 . S
C1252 H1254 0.951 . S
C1253 C1248 1.491 . S
C1253 C1255 1.382 . S
C1253 C1257 1.404 . S
H1254 C1252 0.951 . S
C1255 C1253 1.382 . S
C1255 C1256 1.390 . S
C1255 H1260 0.949 . S
C1256 C1255 1.390 . S
C1256 C1261 1.399 . S
C1257 C1253 1.404 . S
C1257 H1258 0.950 . S
C1257 C1259 1.375 . S
H1258 C1257 0.950 . S
C1259 C1257 1.375 . S
C1259 C1261 1.382 . S
C1259 H1263 0.950 . S
H1260 C1255 0.949 . S
C1261 C1256 1.399 . S
C1261 C1259 1.382 . S
C1261 H1262 0.952 . S
H1262 C1261 0.952 . S
H1263 C1259 0.950 . S
H1264 C1265 0.949 . S
C1265 H1264 0.949 . S
C1265 C1266 1.395 . S
C1265 C1267 1.391 . S
C1266 C1265 1.395 . S
C1266 C1269 1.390 . S
C1267 C1265 1.391 . S
C1267 C1271 1.387 . S
C1267 C1272 1.491 . S
H1268 C1269 0.950 . S
C1269 C1266 1.390 . S
C1269 H1268 0.950 . S
C1269 C1270 1.378 . S
C1270 C1269 1.378 . S
C1270 C1271 1.409 . S
C1271 C1267 1.387 . S
C1271 C1270 1.409 . S
C1271 H1273 0.951 . S
C1272 C1267 1.491 . S
C1272 C1274 1.382 . S
C1272 C1276 1.404 . S
H1273 C1271 0.951 . S
C1274 C1272 1.382 . S
C1274 C1275 1.390 . S
C1274 H1279 0.949 . S
C1275 C1274 1.390 . S
C1275 C1280 1.399 . S
C1276 C1272 1.404 . S
C1276 H1277 0.950 . S
C1276 C1278 1.375 . S
H1277 C1276 0.950 . S
C1278 C1276 1.375 . S
C1278 C1280 1.382 . S
C1278 H1282 0.950 . S
H1279 C1274 0.949 . S
C1280 C1275 1.399 . S
C1280 C1278 1.382 . S
C1280 H1281 0.952 . S
H1281 C1280 0.952 . S
H1282 C1278 0.950 . S
H1283 C1284 0.949 . S
C1284 H1283 0.949 . S
C1284 C1285 1.395 . S
C1284 C1286 1.391 1_655 S
C1285 C1284 1.395 . S
C1285 C1288 1.390 . S
C1286 C1284 1.391 1_455 S
C1286 C1290 1.387 . S
C1286 C1291 1.491 . S
H1287 C1288 0.950 . S
C1288 C1285 1.390 . S
C1288 H1287 0.950 . S
C1288 C1289 1.378 1_655 S
C1289 C1288 1.378 1_455 S
C1289 C1290 1.409 . S
C1290 C1286 1.387 . S
C1290 C1289 1.409 . S
C1290 H1292 0.951 . S
C1291 C1286 1.491 . S
C1291 C1293 1.382 . S
C1291 C1295 1.404 . S
H1292 C1290 0.951 . S
C1293 C1291 1.382 . S
C1293 C1294 1.390 . S
C1293 H1298 0.949 . S
C1294 C1293 1.390 . S
C1294 C1299 1.399 . S
C1295 C1291 1.404 . S
C1295 H1296 0.950 . S
C1295 C1297 1.375 . S
H1296 C1295 0.950 . S
C1297 C1295 1.375 . S
C1297 C1299 1.382 . S
C1297 H1301 0.950 . S
H1298 C1293 0.949 . S
C1299 C1294 1.399 . S
C1299 C1297 1.382 . S
C1299 H1300 0.952 . S
H1300 C1299 0.952 . S
H1301 C1297 0.950 . S
H1302 C1303 0.949 . S
C1303 H1302 0.949 . S
C1303 C1304 1.395 . S
C1303 C1305 1.391 1_455 S
C1304 C1303 1.395 . S
C1304 C1307 1.390 . S
C1305 C1303 1.391 1_655 S
C1305 C1309 1.387 . S
C1305 C1310 1.491 . S
H1306 C1307 0.950 . S
C1307 C1304 1.390 . S
C1307 H1306 0.950 . S
C1307 C1308 1.378 1_455 S
C1308 C1307 1.378 1_655 S
C1308 C1309 1.409 . S
C1309 C1305 1.387 . S
C1309 C1308 1.409 . S
C1309 H1311 0.951 . S
C1310 C1305 1.491 . S
C1310 C1312 1.382 . S
C1310 C1314 1.404 . S
H1311 C1309 0.951 . S
C1312 C1310 1.382 . S
C1312 C1313 1.390 . S
C1312 H1317 0.949 1_655 S
C1313 C1312 1.390 . S
C1313 C1318 1.399 . S
C1314 C1310 1.404 . S
C1314 H1315 0.950 . S
C1314 C1316 1.375 . S
H1315 C1314 0.950 . S
C1316 C1314 1.375 . S
C1316 C1318 1.382 . S
C1316 H1320 0.950 . S
H1317 C1312 0.949 1_455 S
C1318 C1313 1.399 . S
C1318 C1316 1.382 . S
C1318 H1319 0.952 . S
H1319 C1318 0.952 . S
H1320 C1316 0.950 . S
H1321 C1322 0.949 . S
C1322 H1321 0.949 . S
C1322 C1323 1.395 . S
C1322 C1324 1.391 . S
C1323 C1322 1.395 . S
C1323 C1326 1.390 . S
C1324 C1322 1.391 . S
C1324 C1328 1.387 . S
C1324 C1329 1.491 . S
H1325 C1326 0.950 . S
C1326 C1323 1.390 . S
C1326 H1325 0.950 . S
C1326 C1327 1.378 . S
C1327 C1326 1.378 . S
C1327 C1328 1.409 . S
C1328 C1324 1.387 . S
C1328 C1327 1.409 . S
C1328 H1330 0.951 . S
C1329 C1324 1.491 . S
C1329 C1331 1.382 . S
C1329 C1333 1.404 . S
H1330 C1328 0.951 . S
C1331 C1329 1.382 . S
C1331 C1332 1.390 . S
C1331 H1336 0.949 . S
C1332 C1331 1.390 . S
C1332 C1337 1.399 . S
C1333 C1329 1.404 . S
C1333 H1334 0.950 . S
C1333 C1335 1.375 . S
H1334 C1333 0.950 . S
C1335 C1333 1.375 . S
C1335 C1337 1.382 . S
C1335 H1339 0.950 . S
H1336 C1331 0.949 . S
C1337 C1332 1.399 . S
C1337 C1335 1.382 . S
C1337 H1338 0.952 . S
H1338 C1337 0.952 . S
H1339 C1335 0.950 . S
H1340 C1341 0.949 . S
C1341 H1340 0.949 . S
C1341 C1342 1.395 . S
C1341 C1343 1.391 . S
C1342 C1341 1.395 . S
C1342 C1345 1.390 . S
C1343 C1341 1.391 . S
C1343 C1347 1.387 . S
C1343 C1348 1.491 . S
H1344 C1345 0.950 . S
C1345 C1342 1.390 . S
C1345 H1344 0.950 . S
C1345 C1346 1.378 . S
C1346 C1345 1.378 . S
C1346 C1347 1.409 . S
C1347 C1343 1.387 . S
C1347 C1346 1.409 . S
C1347 H1349 0.951 . S
C1348 C1343 1.491 . S
C1348 C1350 1.382 . S
C1348 C1352 1.404 . S
H1349 C1347 0.951 . S
C1350 C1348 1.382 . S
C1350 C1351 1.390 . S
C1350 H1355 0.949 . S
C1351 C1350 1.390 . S
C1351 C1356 1.399 . S
C1352 C1348 1.404 . S
C1352 H1353 0.950 . S
C1352 C1354 1.375 . S
H1353 C1352 0.950 . S
C1354 C1352 1.375 . S
C1354 C1356 1.382 . S
C1354 H1358 0.950 . S
H1355 C1350 0.949 . S
C1356 C1351 1.399 . S
C1356 C1354 1.382 . S
C1356 H1357 0.952 . S
H1357 C1356 0.952 . S
H1358 C1354 0.950 . S
H1359 C1360 0.949 . S
C1360 H1359 0.949 . S
C1360 C1361 1.395 . S
C1360 C1362 1.391 1_565 S
C1361 C1360 1.395 . S
C1361 C1364 1.390 . S
C1362 C1360 1.391 1_545 S
C1362 C1366 1.387 . S
C1362 C1367 1.491 . S
H1363 C1364 0.950 . S
C1364 C1361 1.390 . S
C1364 H1363 0.950 . S
C1364 C1365 1.378 1_565 S
C1365 C1364 1.378 1_545 S
C1365 C1366 1.409 . S
C1366 C1362 1.387 . S
C1366 C1365 1.409 . S
C1366 H1368 0.951 . S
C1367 C1362 1.491 . S
C1367 C1369 1.382 . S
C1367 C1371 1.404 . S
H1368 C1366 0.951 . S
C1369 C1367 1.382 . S
C1369 C1370 1.390 . S
C1369 H1374 0.949 . S
C1370 C1369 1.390 . S
C1370 C1375 1.399 . S
C1371 C1367 1.404 . S
C1371 H1372 0.950 . S
C1371 C1373 1.375 . S
H1372 C1371 0.950 . S
C1373 C1371 1.375 . S
C1373 C1375 1.382 . S
C1373 H1377 0.950 . S
H1374 C1369 0.949 . S
C1375 C1370 1.399 . S
C1375 C1373 1.382 . S
C1375 H1376 0.952 . S
H1376 C1375 0.952 . S
H1377 C1373 0.950 . S
H1378 C1379 0.949 . S
C1379 H1378 0.949 . S
C1379 C1380 1.395 . S
C1379 C1381 1.391 1_545 S
C1380 C1379 1.395 . S
C1380 C1383 1.390 . S
C1381 C1379 1.391 1_565 S
C1381 C1385 1.387 . S
C1381 C1386 1.491 . S
H1382 C1383 0.950 . S
C1383 C1380 1.390 . S
C1383 H1382 0.950 . S
C1383 C1384 1.378 1_545 S
C1384 C1383 1.378 1_565 S
C1384 C1385 1.409 . S
C1385 C1381 1.387 . S
C1385 C1384 1.409 . S
C1385 H1387 0.951 . S
C1386 C1381 1.491 . S
C1386 C1388 1.382 . S
C1386 C1390 1.404 . S
H1387 C1385 0.951 . S
C1388 C1386 1.382 . S
C1388 C1389 1.390 . S
C1388 H1393 0.949 1_565 S
C1389 C1388 1.390 . S
C1389 C1394 1.399 . S
C1390 C1386 1.404 . S
C1390 H1391 0.950 . S
C1390 C1392 1.375 . S
H1391 C1390 0.950 . S
C1392 C1390 1.375 . S
C1392 C1394 1.382 . S
C1392 H1396 0.950 . S
H1393 C1388 0.949 1_545 S
C1394 C1389 1.399 . S
C1394 C1392 1.382 . S
C1394 H1395 0.952 . S
H1395 C1394 0.952 . S
H1396 C1392 0.950 . S
H1397 C1398 0.949 . S
C1398 H1397 0.949 . S
C1398 C1399 1.395 . S
C1398 C1400 1.391 . S
C1399 C1398 1.395 . S
C1399 C1402 1.390 . S
C1400 C1398 1.391 . S
C1400 C1404 1.387 . S
C1400 C1405 1.491 . S
H1401 C1402 0.950 . S
C1402 C1399 1.390 . S
C1402 H1401 0.950 . S
C1402 C1403 1.378 . S
C1403 C1402 1.378 . S
C1403 C1404 1.409 . S
C1404 C1400 1.387 . S
C1404 C1403 1.409 . S
C1404 H1406 0.951 . S
C1405 C1400 1.491 . S
C1405 C1407 1.382 . S
C1405 C1409 1.404 . S
H1406 C1404 0.951 . S
C1407 C1405 1.382 . S
C1407 C1408 1.390 . S
C1407 H1412 0.949 . S
C1408 C1407 1.390 . S
C1408 C1413 1.399 . S
C1409 C1405 1.404 . S
C1409 H1410 0.950 . S
C1409 C1411 1.375 . S
H1410 C1409 0.950 . S
C1411 C1409 1.375 . S
C1411 C1413 1.382 . S
C1411 H1415 0.950 . S
H1412 C1407 0.949 . S
C1413 C1408 1.399 . S
C1413 C1411 1.382 . S
C1413 H1414 0.952 . S
H1414 C1413 0.952 . S
H1415 C1411 0.950 . S
H1416 C1422 0.930 . S
H1417 C1425 0.930 . S
H1418 C1426 0.930 . S
H1419 C1427 0.930 . S
H1420 C1430 0.951 . S
H1421 C1431 0.930 . S
C1422 H1416 0.930 . S
C1422 C1423 1.355 . S
C1422 C1424 1.415 . S
C1423 C1422 1.355 . S
C1423 C1425 1.419 . S
C1424 C1422 1.415 . S
C1424 C1429 1.425 . S
C1424 C1431 1.409 . S
C1425 H1417 0.930 . S
C1425 C1423 1.419 . S
C1425 C1426 1.362 . S
C1426 H1418 0.930 . S
C1426 C1425 1.362 . S
C1426 C1429 1.409 . S
C1427 H1419 0.930 . S
C1427 C1428 1.355 . S
C1427 C1429 1.415 . S
C1428 C1427 1.355 . S
C1428 C1430 1.419 . S
C1429 C1424 1.425 . S
C1429 C1426 1.409 . S
C1429 C1427 1.415 . S
C1430 H1420 0.951 . S
C1430 C1428 1.419 . S
C1430 C1431 1.362 . S
C1431 H1421 0.930 . S
C1431 C1424 1.409 . S
C1431 C1430 1.362 . S
H1432 C1438 0.930 . S
H1433 C1441 0.930 . S
H1434 C1442 0.930 . S
H1435 C1443 0.930 . S
H1436 C1446 0.930 . S
H1437 C1447 0.930 . S
C1438 H1432 0.930 . S
C1438 C1439 1.355 . S
C1438 C1440 1.415 . S
C1439 C1438 1.355 . S
C1439 C1441 1.419 . S
C1440 C1438 1.415 . S
C1440 C1445 1.425 . S
C1440 C1447 1.409 . S
C1441 H1433 0.930 . S
C1441 C1439 1.419 . S
C1441 C1442 1.362 . S
C1442 H1434 0.930 . S
C1442 C1441 1.362 . S
C1442 C1445 1.409 . S
C1443 H1435 0.930 . S
C1443 C1444 1.355 . S
C1443 C1445 1.415 . S
C1444 C1443 1.355 . S
C1444 C1446 1.419 . S
C1445 C1440 1.425 . S
C1445 C1442 1.409 . S
C1445 C1443 1.415 . S
C1446 H1436 0.930 . S
C1446 C1444 1.419 . S
C1446 C1447 1.362 . S
C1447 H1437 0.930 . S
C1447 C1440 1.409 . S
C1447 C1446 1.362 . S
H1448 C1454 0.930 . S
H1449 C1457 0.930 . S
H1450 C1458 0.930 . S
H1451 C1459 0.930 1_545 S
H1452 C1462 0.930 . S
H1453 C1463 0.930 . S
C1454 H1448 0.930 . S
C1454 C1455 1.355 . S
C1454 C1456 1.415 . S
C1455 C1454 1.355 . S
C1455 C1457 1.419 1_565 S
C1456 C1454 1.415 . S
C1456 C1461 1.425 . S
C1456 C1463 1.409 . S
C1457 H1449 0.930 . S
C1457 C1455 1.419 1_545 S
C1457 C1458 1.362 . S
C1458 H1450 0.930 . S
C1458 C1457 1.362 . S
C1458 C1461 1.409 1_545 S
C1459 H1451 0.930 1_565 S
C1459 C1460 1.355 . S
C1459 C1461 1.415 . S
C1460 C1459 1.355 . S
C1460 C1462 1.419 . S
C1461 C1456 1.425 . S
C1461 C1458 1.409 1_565 S
C1461 C1459 1.415 . S
C1462 H1452 0.930 . S
C1462 C1460 1.419 . S
C1462 C1463 1.362 . S
C1463 H1453 0.930 . S
C1463 C1456 1.409 . S
C1463 C1462 1.362 . S
H1464 C1470 0.930 . S
H1465 C1473 0.898 1_655 S
H1466 C1474 0.930 1_565 S
H1467 C1475 0.930 . S
H1468 C1478 0.930 . S
H1469 C1479 0.930 . S
C1470 H1464 0.930 . S
C1470 C1471 1.365 . S
C1470 C1472 1.415 . S
C1471 C1470 1.365 . S
C1471 C1473 1.424 . S
C1472 C1470 1.415 . S
C1472 C1477 1.425 . S
C1472 C1479 1.409 . S
C1473 H1465 0.898 1_455 S
C1473 C1471 1.424 . S
C1473 C1474 1.362 . S
C1474 H1466 0.930 1_545 S
C1474 C1473 1.362 . S
C1474 C1477 1.409 . S
C1475 H1467 0.930 . S
C1475 C1476 1.355 . S
C1475 C1477 1.415 . S
C1476 C1475 1.355 . S
C1476 C1478 1.419 . S
C1477 C1472 1.425 . S
C1477 C1474 1.409 . S
C1477 C1475 1.415 . S
C1478 H1468 0.930 . S
C1478 C1476 1.419 . S
C1478 C1479 1.362 . S
C1479 H1469 0.930 . S
C1479 C1472 1.409 . S
C1479 C1478 1.362 . S
H1480 C1486 0.930 . S
H1481 C1489 0.930 . S
H1482 C1490 0.930 . S
H1483 C1491 0.930 . S
H1484 C1494 0.930 . S
H1485 C1495 0.930 . S
C1486 H1480 0.930 . S
C1486 C1487 1.355 . S
C1486 C1488 1.415 . S
C1487 C1486 1.355 . S
C1487 C1489 1.419 . S
C1488 C1486 1.415 . S
C1488 C1493 1.425 . S
C1488 C1495 1.409 . S
C1489 H1481 0.930 . S
C1489 C1487 1.419 . S
C1489 C1490 1.362 . S
C1490 H1482 0.930 . S
C1490 C1489 1.362 . S
C1490 C1493 1.409 . S
C1491 H1483 0.930 . S
C1491 C1492 1.355 . S
C1491 C1493 1.415 . S
C1492 C1491 1.355 . S
C1492 C1494 1.419 . S
C1493 C1488 1.425 . S
C1493 C1490 1.409 . S
C1493 C1491 1.415 . S
C1494 H1484 0.930 . S
C1494 C1492 1.419 . S
C1494 C1495 1.362 . S
C1495 H1485 0.930 . S
C1495 C1488 1.409 . S
C1495 C1494 1.362 . S
H1496 C1502 0.930 . S
H1497 C1505 0.930 1_565 S
H1498 C1506 0.930 . S
H1499 C1507 0.930 . S
H1500 C1510 0.930 1_556 S
H1501 C1511 0.930 1_556 S
C1502 H1496 0.930 . S
C1502 C1503 1.377 . S
C1502 C1504 1.415 . S
C1503 C1502 1.377 . S
C1503 C1505 1.430 . S
C1504 C1502 1.415 . S
C1504 C1509 1.425 . S
C1504 C1511 1.409 . S
C1505 H1497 0.930 1_545 S
C1505 C1503 1.430 . S
C1505 C1506 1.362 . S
C1506 H1498 0.930 . S
C1506 C1505 1.362 . S
C1506 C1509 1.409 . S
C1507 H1499 0.930 . S
C1507 C1508 1.355 . S
C1507 C1509 1.415 . S
C1508 C1507 1.355 . S
C1508 C1510 1.419 . S
C1509 C1504 1.425 . S
C1509 C1506 1.409 . S
C1509 C1507 1.415 . S
C1510 H1500 0.930 1_554 S
C1510 C1508 1.419 . S
C1510 C1511 1.362 . S
C1511 H1501 0.930 1_554 S
C1511 C1504 1.409 . S
C1511 C1510 1.362 . S
H1512 C1518 0.930 . S
H1513 C1521 0.930 . S
H1514 C1522 0.930 . S
H1515 C1523 0.930 . S
H1516 C1526 0.930 . S
H1517 C1527 0.930 . S
C1518 H1512 0.930 . S
C1518 C1519 1.355 . S
C1518 C1520 1.415 . S
C1519 C1518 1.355 . S
C1519 C1521 1.419 . S
C1520 C1518 1.415 . S
C1520 C1525 1.425 . S
C1520 C1527 1.409 . S
C1521 H1513 0.930 . S
C1521 C1519 1.419 . S
C1521 C1522 1.362 . S
C1522 H1514 0.930 . S
C1522 C1521 1.362 . S
C1522 C1525 1.409 . S
C1523 H1515 0.930 . S
C1523 C1524 1.355 . S
C1523 C1525 1.415 . S
C1524 C1523 1.355 . S
C1524 C1526 1.419 . S
C1525 C1520 1.425 . S
C1525 C1522 1.409 . S
C1525 C1523 1.415 . S
C1526 H1516 0.930 . S
C1526 C1524 1.419 . S
C1526 C1527 1.362 . S
C1527 H1517 0.930 . S
C1527 C1520 1.409 . S
C1527 C1526 1.362 . S
H1528 C1534 0.930 . S
H1529 C1537 0.927 1_554 S
H1530 C1538 0.902 1_554 S
H1531 C1539 0.930 . S
H1532 C1542 0.930 . S
H1533 C1543 0.930 . S
C1534 H1528 0.930 . S
C1534 C1535 1.355 . S
C1534 C1536 1.415 . S
C1535 C1534 1.355 . S
C1535 C1537 1.423 . S
C1536 C1534 1.415 . S
C1536 C1541 1.425 . S
C1536 C1543 1.409 . S
C1537 H1529 0.927 1_556 S
C1537 C1535 1.423 . S
C1537 C1538 1.367 . S
C1538 H1530 0.902 1_556 S
C1538 C1537 1.367 . S
C1538 C1541 1.435 . S
C1539 H1531 0.930 . S
C1539 C1540 1.355 . S
C1539 C1541 1.415 . S
C1540 C1539 1.355 . S
C1540 C1542 1.419 . S
C1541 C1536 1.425 . S
C1541 C1538 1.435 . S
C1541 C1539 1.415 . S
C1542 H1532 0.930 . S
C1542 C1540 1.419 . S
C1542 C1543 1.362 . S
C1543 H1533 0.930 . S
C1543 C1536 1.409 . S
C1543 C1542 1.362 . S
H1544 C1550 0.930 . S
H1545 C1553 0.930 . S
H1546 C1554 0.930 . S
H1547 C1555 0.930 . S
H1548 C1558 0.930 . S
H1549 C1559 0.930 . S
C1550 H1544 0.930 . S
C1550 C1551 1.355 . S
C1550 C1552 1.415 . S
C1551 C1550 1.355 . S
C1551 C1553 1.419 . S
C1552 C1550 1.415 . S
C1552 C1557 1.425 . S
C1552 C1559 1.409 . S
C1553 H1545 0.930 . S
C1553 C1551 1.419 . S
C1553 C1554 1.362 . S
C1554 H1546 0.930 . S
C1554 C1553 1.362 . S
C1554 C1557 1.409 . S
C1555 H1547 0.930 . S
C1555 C1556 1.355 . S
C1555 C1557 1.415 . S
C1556 C1555 1.355 . S
C1556 C1558 1.419 . S
C1557 C1552 1.425 . S
C1557 C1554 1.409 . S
C1557 C1555 1.415 . S
C1558 H1548 0.930 . S
C1558 C1556 1.419 . S
C1558 C1559 1.362 . S
C1559 H1549 0.930 . S
C1559 C1552 1.409 . S
C1559 C1558 1.362 . S
H1560 C1566 0.930 . S
H1561 C1569 0.927 1_656 S
H1562 C1570 0.930 . S
H1563 C1571 0.930 1_655 S
H1564 C1574 0.930 . S
H1565 C1575 0.930 . S
C1566 H1560 0.930 . S
C1566 C1567 1.352 . S
C1566 C1568 1.415 . S
C1567 C1566 1.352 . S
C1567 C1569 1.422 . S
C1568 C1566 1.415 . S
C1568 C1573 1.425 . S
C1568 C1575 1.409 . S
C1569 H1561 0.927 1_454 S
C1569 C1567 1.422 . S
C1569 C1570 1.361 1_455 S
C1570 H1562 0.930 . S
C1570 C1569 1.361 1_655 S
C1570 C1573 1.409 1_655 S
C1571 H1563 0.930 1_455 S
C1571 C1572 1.355 . S
C1571 C1573 1.415 . S
C1572 C1571 1.355 . S
C1572 C1574 1.419 . S
C1573 C1568 1.425 . S
C1573 C1570 1.409 1_455 S
C1573 C1571 1.415 . S
C1574 H1564 0.930 . S
C1574 C1572 1.419 . S
C1574 C1575 1.362 . S
C1575 H1565 0.930 . S
C1575 C1568 1.409 . S
C1575 C1574 1.362 . S
H1576 C1582 0.930 . S
H1577 C1585 0.930 . S
H1578 C1586 0.930 . S
H1579 C1587 0.930 . S
H1580 C1590 0.930 . S
H1581 C1591 0.930 . S
C1582 H1576 0.930 . S
C1582 C1583 1.355 . S
C1582 C1584 1.415 . S
C1583 C1582 1.355 . S
C1583 C1585 1.419 . S
C1584 C1582 1.415 . S
C1584 C1589 1.425 . S
C1584 C1591 1.409 . S
C1585 H1577 0.930 . S
C1585 C1583 1.419 . S
C1585 C1586 1.362 . S
C1586 H1578 0.930 . S
C1586 C1585 1.362 . S
C1586 C1589 1.409 . S
C1587 H1579 0.930 . S
C1587 C1588 1.355 . S
C1587 C1589 1.415 . S
C1588 C1587 1.355 . S
C1588 C1590 1.419 . S
C1589 C1584 1.425 . S
C1589 C1586 1.409 . S
C1589 C1587 1.415 . S
C1590 H1580 0.930 . S
C1590 C1588 1.419 . S
C1590 C1591 1.362 . S
C1591 H1581 0.930 . S
C1591 C1584 1.409 . S
C1591 C1590 1.362 . S
H1592 C1598 0.930 . S
H1593 C1601 0.930 . S
H1594 C1602 0.930 . S
H1595 C1603 0.930 . S
H1596 C1606 0.930 . S
H1597 C1607 0.930 . S
C1598 H1592 0.930 . S
C1598 C1599 1.355 . S
C1598 C1600 1.415 . S
C1599 C1598 1.355 . S
C1599 C1601 1.419 . S
C1600 C1598 1.415 . S
C1600 C1605 1.425 . S
C1600 C1607 1.409 . S
C1601 H1593 0.930 . S
C1601 C1599 1.419 . S
C1601 C1602 1.362 . S
C1602 H1594 0.930 . S
C1602 C1601 1.362 . S
C1602 C1605 1.409 . S
C1603 H1595 0.930 . S
C1603 C1604 1.355 . S
C1603 C1605 1.415 . S
C1604 C1603 1.355 . S
C1604 C1606 1.419 . S
C1605 C1600 1.425 . S
C1605 C1602 1.409 . S
C1605 C1603 1.415 . S
C1606 H1596 0.930 . S
C1606 C1604 1.419 . S
C1606 C1607 1.362 . S
C1607 H1597 0.930 . S
C1607 C1600 1.409 . S
C1607 C1606 1.362 . S
H1608 C1614 0.930 . S
H1609 C1617 0.930 . S
H1610 C1618 0.930 . S
H1611 C1619 0.930 . S
H1612 C1622 0.927 . S
H1613 C1623 0.930 . S
C1614 H1608 0.930 . S
C1614 C1615 1.355 . S
C1614 C1616 1.415 . S
C1615 C1614 1.355 . S
C1615 C1617 1.419 . S
C1616 C1614 1.415 . S
C1616 C1621 1.425 . S
C1616 C1623 1.409 . S
C1617 H1609 0.930 . S
C1617 C1615 1.419 . S
C1617 C1618 1.362 . S
C1618 H1610 0.930 . S
C1618 C1617 1.362 . S
C1618 C1621 1.409 . S
C1619 H1611 0.930 . S
C1619 C1620 1.355 . S
C1619 C1621 1.415 . S
C1620 C1619 1.355 . S
C1620 C1622 1.419 . S
C1621 C1616 1.425 . S
C1621 C1618 1.409 . S
C1621 C1619 1.415 . S
C1622 H1612 0.927 . S
C1622 C1620 1.419 . S
C1622 C1623 1.362 . S
C1623 H1613 0.930 . S
C1623 C1616 1.409 . S
C1623 C1622 1.362 . S
H1624 C1630 0.930 . S
H1625 C1633 0.930 . S
H1626 C1634 0.930 . S
H1627 C1635 0.930 . S
H1628 C1638 0.930 . S
H1629 C1639 0.930 . S
C1630 H1624 0.930 . S
C1630 C1631 1.355 . S
C1630 C1632 1.415 . S
C1631 C1630 1.355 . S
C1631 C1633 1.419 . S
C1632 C1630 1.415 . S
C1632 C1637 1.425 . S
C1632 C1639 1.409 . S
C1633 H1625 0.930 . S
C1633 C1631 1.419 . S
C1633 C1634 1.362 . S
C1634 H1626 0.930 . S
C1634 C1633 1.362 . S
C1634 C1637 1.409 . S
C1635 H1627 0.930 . S
C1635 C1636 1.355 . S
C1635 C1637 1.415 . S
C1636 C1635 1.355 . S
C1636 C1638 1.419 . S
C1637 C1632 1.425 . S
C1637 C1634 1.409 . S
C1637 C1635 1.415 . S
C1638 H1628 0.930 . S
C1638 C1636 1.419 . S
C1638 C1639 1.362 . S
C1639 H1629 0.930 . S
C1639 C1632 1.409 . S
C1639 C1638 1.362 . S
H1640 C1646 0.929 . S
H1641 C1649 0.930 . S
H1642 C1650 0.930 . S
H1643 C1651 0.930 . S
H1644 C1654 0.962 . S
H1645 C1655 0.930 . S
C1646 H1640 0.929 . S
C1646 C1647 1.355 1_565 S
C1646 C1648 1.415 1_565 S
C1647 C1646 1.355 1_545 S
C1647 C1649 1.419 . S
C1648 C1646 1.415 1_545 S
C1648 C1653 1.425 . S
C1648 C1655 1.409 1_545 S
C1649 H1641 0.930 . S
C1649 C1647 1.419 . S
C1649 C1650 1.362 . S
C1650 H1642 0.930 . S
C1650 C1649 1.362 . S
C1650 C1653 1.409 . S
C1651 H1643 0.930 . S
C1651 C1652 1.355 . S
C1651 C1653 1.415 . S
C1652 C1651 1.355 . S
C1652 C1654 1.379 1_545 S
C1653 C1648 1.425 . S
C1653 C1650 1.409 . S
C1653 C1651 1.415 . S
C1654 H1644 0.962 . S
C1654 C1652 1.379 1_565 S
C1654 C1655 1.373 . S
C1655 H1645 0.930 . S
C1655 C1648 1.409 1_565 S
C1655 C1654 1.373 . S
H1656 C1662 0.930 . S
H1657 C1665 0.940 1_455 S
H1658 C1666 0.930 . S
H1659 C1667 0.930 1_545 S
H1660 C1670 0.930 . S
H1661 C1671 0.930 . S
C1662 H1656 0.930 . S
C1662 C1663 1.358 . S
C1662 C1664 1.415 . S
C1663 C1662 1.358 . S
C1663 C1665 1.405 1_565 S
C1664 C1662 1.415 . S
C1664 C1669 1.425 . S
C1664 C1671 1.409 . S
C1665 H1657 0.940 1_655 S
C1665 C1663 1.405 1_545 S
C1665 C1666 1.368 . S
C1666 H1658 0.930 . S
C1666 C1665 1.368 . S
C1666 C1669 1.409 1_545 S
C1667 H1659 0.930 1_565 S
C1667 C1668 1.355 . S
C1667 C1669 1.415 . S
C1668 C1667 1.355 . S
C1668 C1670 1.419 . S
C1669 C1664 1.425 . S
C1669 C1666 1.409 1_565 S
C1669 C1667 1.415 . S
C1670 H1660 0.930 . S
C1670 C1668 1.419 . S
C1670 C1671 1.362 . S
C1671 H1661 0.930 . S
C1671 C1664 1.409 . S
C1671 C1670 1.362 . S
H1672 C1678 0.930 . S
H1673 C1681 0.930 . S
H1674 C1682 0.930 . S
H1675 C1683 0.930 . S
H1676 C1686 0.930 . S
H1677 C1687 0.930 . S
C1678 H1672 0.930 . S
C1678 C1679 1.355 . S
C1678 C1680 1.415 . S
C1679 C1678 1.355 . S
C1679 C1681 1.419 . S
C1680 C1678 1.415 . S
C1680 C1685 1.425 . S
C1680 C1687 1.409 . S
C1681 H1673 0.930 . S
C1681 C1679 1.419 . S
C1681 C1682 1.362 . S
C1682 H1674 0.930 . S
C1682 C1681 1.362 . S
C1682 C1685 1.409 . S
C1683 H1675 0.930 . S
C1683 C1684 1.355 . S
C1683 C1685 1.415 . S
C1684 C1683 1.355 . S
C1684 C1686 1.419 . S
C1685 C1680 1.425 . S
C1685 C1682 1.409 . S
C1685 C1683 1.415 . S
C1686 H1676 0.930 . S
C1686 C1684 1.419 . S
C1686 C1687 1.362 . S
C1687 H1677 0.930 . S
C1687 C1680 1.409 . S
C1687 C1686 1.362 . S
H1688 C1694 0.930 . S
H1689 C1697 0.930 1_545 S
H1690 C1698 0.930 . S
H1691 C1699 0.930 . S
H1692 C1702 0.930 . S
H1693 C1703 0.930 . S
C1694 H1688 0.930 . S
C1694 C1695 1.352 . S
C1694 C1696 1.415 . S
C1695 C1694 1.352 . S
C1695 C1697 1.418 . S
C1696 C1694 1.415 . S
C1696 C1701 1.425 . S
C1696 C1703 1.409 . S
C1697 H1689 0.930 1_565 S
C1697 C1695 1.418 . S
C1697 C1698 1.362 . S
C1698 H1690 0.930 . S
C1698 C1697 1.362 . S
C1698 C1701 1.409 . S
C1699 H1691 0.930 . S
C1699 C1700 1.355 . S
C1699 C1701 1.415 . S
C1700 C1699 1.355 . S
C1700 C1702 1.419 . S
C1701 C1696 1.425 . S
C1701 C1698 1.409 . S
C1701 C1699 1.415 . S
C1702 H1692 0.930 . S
C1702 C1700 1.419 . S
C1702 C1703 1.362 . S
C1703 H1693 0.930 . S
C1703 C1696 1.409 . S
C1703 C1702 1.362 . S
H1704 C1710 0.930 . S
H1705 C1713 0.930 . S
H1706 C1714 0.930 . S
H1707 C1715 0.930 . S
H1708 C1718 0.930 . S
H1709 C1719 0.930 . S
C1710 H1704 0.930 . S
C1710 C1711 1.355 . S
C1710 C1712 1.415 . S
C1711 C1710 1.355 . S
C1711 C1713 1.419 . S
C1712 C1710 1.415 . S
C1712 C1717 1.425 . S
C1712 C1719 1.409 . S
C1713 H1705 0.930 . S
C1713 C1711 1.419 . S
C1713 C1714 1.362 . S
C1714 H1706 0.930 . S
C1714 C1713 1.362 . S
C1714 C1717 1.409 . S
C1715 H1707 0.930 . S
C1715 C1716 1.355 . S
C1715 C1717 1.415 . S
C1716 C1715 1.355 . S
C1716 C1718 1.419 . S
C1717 C1712 1.425 . S
C1717 C1714 1.409 . S
C1717 C1715 1.415 . S
C1718 H1708 0.930 . S
C1718 C1716 1.419 . S
C1718 C1719 1.362 . S
C1719 H1709 0.930 . S
C1719 C1712 1.409 . S
C1719 C1718 1.362 . S
H1720 C1726 0.930 . S
H1721 C1729 0.922 1_556 S
H1722 C1730 0.930 1_556 S
H1723 C1731 0.930 . S
H1724 C1734 0.930 . S
H1725 C1735 0.930 . S
C1726 H1720 0.930 . S
C1726 C1727 1.355 . S
C1726 C1728 1.415 . S
C1727 C1726 1.355 . S
C1727 C1729 1.429 . S
C1728 C1726 1.415 . S
C1728 C1733 1.425 . S
C1728 C1735 1.409 . S
C1729 H1721 0.922 1_554 S
C1729 C1727 1.429 . S
C1729 C1730 1.362 . S
C1730 H1722 0.930 1_554 S
C1730 C1729 1.362 . S
C1730 C1733 1.409 . S
C1731 H1723 0.930 . S
C1731 C1732 1.355 . S
C1731 C1733 1.415 . S
C1732 C1731 1.355 . S
C1732 C1734 1.419 . S
C1733 C1728 1.425 . S
C1733 C1730 1.409 . S
C1733 C1731 1.415 . S
C1734 H1724 0.930 . S
C1734 C1732 1.419 . S
C1734 C1735 1.362 . S
C1735 H1725 0.930 . S
C1735 C1728 1.409 . S
C1735 C1734 1.362 . S
H1736 C1742 0.930 . S
H1737 C1745 0.930 . S
H1738 C1746 0.930 . S
H1739 C1747 0.930 . S
H1740 C1750 0.930 . S
H1741 C1751 0.930 . S
C1742 H1736 0.930 . S
C1742 C1743 1.355 . S
C1742 C1744 1.415 . S
C1743 C1742 1.355 . S
C1743 C1745 1.419 . S
C1744 C1742 1.415 . S
C1744 C1749 1.425 . S
C1744 C1751 1.409 . S
C1745 H1737 0.930 . S
C1745 C1743 1.419 . S
C1745 C1746 1.362 . S
C1746 H1738 0.930 . S
C1746 C1745 1.362 . S
C1746 C1749 1.409 . S
C1747 H1739 0.930 . S
C1747 C1748 1.355 . S
C1747 C1749 1.415 . S
C1748 C1747 1.355 . S
C1748 C1750 1.419 . S
C1749 C1744 1.425 . S
C1749 C1746 1.409 . S
C1749 C1747 1.415 . S
C1750 H1740 0.930 . S
C1750 C1748 1.419 . S
C1750 C1751 1.362 . S
C1751 H1741 0.930 . S
C1751 C1744 1.409 . S
C1751 C1750 1.362 . S
H1752 C1758 0.930 . S
H1753 C1761 0.930 . S
H1754 C1762 0.930 . S
H1755 C1763 0.930 . S
H1756 C1766 0.930 . S
H1757 C1767 0.930 . S
C1758 H1752 0.930 . S
C1758 C1759 1.355 . S
C1758 C1760 1.415 . S
C1759 C1758 1.355 . S
C1759 C1761 1.419 . S
C1760 C1758 1.415 . S
C1760 C1765 1.425 . S
C1760 C1767 1.409 . S
C1761 H1753 0.930 . S
C1761 C1759 1.419 . S
C1761 C1762 1.362 . S
C1762 H1754 0.930 . S
C1762 C1761 1.362 . S
C1762 C1765 1.409 . S
C1763 H1755 0.930 . S
C1763 C1764 1.355 . S
C1763 C1765 1.415 . S
C1764 C1763 1.355 . S
C1764 C1766 1.419 . S
C1765 C1760 1.425 . S
C1765 C1762 1.409 . S
C1765 C1763 1.415 . S
C1766 H1756 0.930 . S
C1766 C1764 1.419 . S
C1766 C1767 1.362 . S
C1767 H1757 0.930 . S
C1767 C1760 1.409 . S
C1767 C1766 1.362 . S
H1768 C1774 0.930 . S
H1769 C1777 0.930 . S
H1770 C1778 0.930 . S
H1771 C1779 0.930 . S
H1772 C1782 0.930 . S
H1773 C1783 0.930 . S
C1774 H1768 0.930 . S
C1774 C1775 1.355 . S
C1774 C1776 1.415 . S
C1775 C1774 1.355 . S
C1775 C1777 1.419 . S
C1776 C1774 1.415 . S
C1776 C1781 1.425 . S
C1776 C1783 1.409 . S
C1777 H1769 0.930 . S
C1777 C1775 1.419 . S
C1777 C1778 1.362 . S
C1778 H1770 0.930 . S
C1778 C1777 1.362 . S
C1778 C1781 1.409 . S
C1779 H1771 0.930 . S
C1779 C1780 1.355 . S
C1779 C1781 1.415 . S
C1780 C1779 1.355 . S
C1780 C1782 1.419 . S
C1781 C1776 1.425 . S
C1781 C1778 1.409 . S
C1781 C1779 1.415 . S
C1782 H1772 0.930 . S
C1782 C1780 1.419 . S
C1782 C1783 1.362 . S
C1783 H1773 0.930 . S
C1783 C1776 1.409 . S
C1783 C1782 1.362 . S
H1784 C1790 0.930 . S
H1785 C1793 0.930 . S
H1786 C1794 0.930 . S
H1787 C1795 0.930 1_655 S
H1788 C1798 0.930 . S
H1789 C1799 0.930 . S
C1790 H1784 0.930 . S
C1790 C1791 1.355 . S
C1790 C1792 1.415 . S
C1791 C1790 1.355 . S
C1791 C1793 1.419 1_455 S
C1792 C1790 1.415 . S
C1792 C1797 1.425 . S
C1792 C1799 1.409 . S
C1793 H1785 0.930 . S
C1793 C1791 1.419 1_655 S
C1793 C1794 1.362 . S
C1794 H1786 0.930 . S
C1794 C1793 1.362 . S
C1794 C1797 1.409 1_655 S
C1795 H1787 0.930 1_455 S
C1795 C1796 1.355 . S
C1795 C1797 1.415 . S
C1796 C1795 1.355 . S
C1796 C1798 1.419 . S
C1797 C1792 1.425 . S
C1797 C1794 1.409 1_455 S
C1797 C1795 1.415 . S
C1798 H1788 0.930 . S
C1798 C1796 1.419 . S
C1798 C1799 1.362 . S
C1799 H1789 0.930 . S
C1799 C1792 1.409 . S
C1799 C1798 1.362 . S
H1800 C1806 0.930 . S
H1801 C1809 0.930 . S
H1802 C1810 0.930 . S
H1803 C1811 0.930 . S
H1804 C1814 0.930 . S
H1805 C1815 0.930 . S
C1806 H1800 0.930 . S
C1806 C1807 1.355 . S
C1806 C1808 1.415 . S
C1807 C1806 1.355 . S
C1807 C1809 1.419 . S
C1808 C1806 1.415 . S
C1808 C1813 1.425 . S
C1808 C1815 1.409 . S
C1809 H1801 0.930 . S
C1809 C1807 1.419 . S
C1809 C1810 1.362 . S
C1810 H1802 0.930 . S
C1810 C1809 1.362 . S
C1810 C1813 1.409 . S
C1811 H1803 0.930 . S
C1811 C1812 1.355 . S
C1811 C1813 1.415 . S
C1812 C1811 1.355 . S
C1812 C1814 1.419 . S
C1813 C1808 1.425 . S
C1813 C1810 1.409 . S
C1813 C1811 1.415 . S
C1814 H1804 0.930 . S
C1814 C1812 1.419 . S
C1814 C1815 1.362 . S
C1815 H1805 0.930 . S
C1815 C1808 1.409 . S
C1815 C1814 1.362 . S
H1816 C1822 0.930 . S
H1817 C1825 0.930 . S
H1818 C1826 0.930 . S
H1819 C1827 0.930 . S
H1820 C1830 0.930 . S
H1821 C1831 0.930 . S
C1822 H1816 0.930 . S
C1822 C1823 1.355 . S
C1822 C1824 1.415 . S
C1823 C1822 1.355 . S
C1823 C1825 1.419 . S
C1824 C1822 1.415 . S
C1824 C1829 1.425 . S
C1824 C1831 1.409 . S
C1825 H1817 0.930 . S
C1825 C1823 1.419 . S
C1825 C1826 1.362 . S
C1826 H1818 0.930 . S
C1826 C1825 1.362 . S
C1826 C1829 1.409 . S
C1827 H1819 0.930 . S
C1827 C1828 1.355 . S
C1827 C1829 1.415 . S
C1828 C1827 1.355 . S
C1828 C1830 1.419 . S
C1829 C1824 1.425 . S
C1829 C1826 1.409 . S
C1829 C1827 1.415 . S
C1830 H1820 0.930 . S
C1830 C1828 1.419 . S
C1830 C1831 1.362 . S
C1831 H1821 0.930 . S
C1831 C1824 1.409 . S
C1831 C1830 1.362 . S
H1832 C1838 0.932 . S
H1833 C1841 0.930 . S
H1834 C1842 0.930 . S
H1835 C1843 0.930 . S
H1836 C1846 0.930 . S
H1837 C1847 0.913 1_565 S
C1838 H1832 0.932 . S
C1838 C1839 1.355 . S
C1838 C1840 1.415 . S
C1839 C1838 1.355 . S
C1839 C1841 1.419 . S
C1840 C1838 1.415 . S
C1840 C1845 1.425 . S
C1840 C1847 1.409 . S
C1841 H1833 0.930 . S
C1841 C1839 1.419 . S
C1841 C1842 1.362 . S
C1842 H1834 0.930 . S
C1842 C1841 1.362 . S
C1842 C1845 1.409 . S
C1843 H1835 0.930 . S
C1843 C1844 1.355 . S
C1843 C1845 1.415 . S
C1844 C1843 1.355 . S
C1844 C1846 1.419 . S
C1845 C1840 1.425 . S
C1845 C1842 1.409 . S
C1845 C1843 1.415 . S
C1846 H1836 0.930 . S
C1846 C1844 1.419 . S
C1846 C1847 1.362 . S
C1847 H1837 0.913 1_545 S
C1847 C1840 1.409 . S
C1847 C1846 1.362 . S
H1848 C1854 0.930 . S
H1849 C1857 0.930 . S
H1850 C1858 0.930 . S
H1851 C1859 0.930 . S
H1852 C1862 0.930 . S
H1853 C1863 0.930 . S
C1854 H1848 0.930 . S
C1854 C1855 1.355 . S
C1854 C1856 1.415 . S
C1855 C1854 1.355 . S
C1855 C1857 1.419 . S
C1856 C1854 1.415 . S
C1856 C1861 1.425 . S
C1856 C1863 1.409 . S
C1857 H1849 0.930 . S
C1857 C1855 1.419 . S
C1857 C1858 1.362 . S
C1858 H1850 0.930 . S
C1858 C1857 1.362 . S
C1858 C1861 1.409 . S
C1859 H1851 0.930 . S
C1859 C1860 1.355 . S
C1859 C1861 1.415 . S
C1860 C1859 1.355 . S
C1860 C1862 1.419 . S
C1861 C1856 1.425 . S
C1861 C1858 1.409 . S
C1861 C1859 1.415 . S
C1862 H1852 0.930 . S
C1862 C1860 1.419 . S
C1862 C1863 1.362 . S
C1863 H1853 0.930 . S
C1863 C1856 1.409 . S
C1863 C1862 1.362 . S
H1864 C1870 0.930 . S
H1865 C1873 0.930 . S
H1866 C1874 0.930 . S
H1867 C1875 0.930 . S
H1868 C1878 0.930 . S
H1869 C1879 0.930 . S
C1870 H1864 0.930 . S
C1870 C1871 1.355 . S
C1870 C1872 1.415 . S
C1871 C1870 1.355 . S
C1871 C1873 1.419 . S
C1872 C1870 1.415 . S
C1872 C1877 1.425 . S
C1872 C1879 1.409 . S
C1873 H1865 0.930 . S
C1873 C1871 1.419 . S
C1873 C1874 1.362 . S
C1874 H1866 0.930 . S
C1874 C1873 1.362 . S
C1874 C1877 1.409 . S
C1875 H1867 0.930 . S
C1875 C1876 1.355 . S
C1875 C1877 1.415 . S
C1876 C1875 1.355 . S
C1876 C1878 1.419 . S
C1877 C1872 1.425 . S
C1877 C1874 1.409 . S
C1877 C1875 1.415 . S
C1878 H1868 0.930 . S
C1878 C1876 1.419 . S
C1878 C1879 1.362 . S
C1879 H1869 0.930 . S
C1879 C1872 1.409 . S
C1879 C1878 1.362 . S
H1880 C1886 0.930 . S
H1881 C1889 0.930 . S
H1882 C1890 0.930 . S
H1883 C1891 0.930 . S
H1884 C1894 0.930 . S
H1885 C1895 0.930 . S
C1886 H1880 0.930 . S
C1886 C1887 1.355 . S
C1886 C1888 1.415 . S
C1887 C1886 1.355 . S
C1887 C1889 1.419 . S
C1888 C1886 1.415 . S
C1888 C1893 1.425 . S
C1888 C1895 1.409 . S
C1889 H1881 0.930 . S
C1889 C1887 1.419 . S
C1889 C1890 1.362 . S
C1890 H1882 0.930 . S
C1890 C1889 1.362 . S
C1890 C1893 1.409 . S
C1891 H1883 0.930 . S
C1891 C1892 1.355 . S
C1891 C1893 1.415 . S
C1892 C1891 1.355 . S
C1892 C1894 1.419 . S
C1893 C1888 1.425 . S
C1893 C1890 1.409 . S
C1893 C1891 1.415 . S
C1894 H1884 0.930 . S
C1894 C1892 1.419 . S
C1894 C1895 1.362 . S
C1895 H1885 0.930 . S
C1895 C1888 1.409 . S
C1895 C1894 1.362 . S
H1896 C1902 0.930 . S
H1897 C1905 0.930 . S
H1898 C1906 0.930 . S
H1899 C1907 0.930 . S
H1900 C1910 0.930 . S
H1901 C1911 0.930 . S
C1902 H1896 0.930 . S
C1902 C1903 1.355 . S
C1902 C1904 1.415 . S
C1903 C1902 1.355 . S
C1903 C1905 1.419 . S
C1904 C1902 1.415 . S
C1904 C1909 1.425 . S
C1904 C1911 1.409 . S
C1905 H1897 0.930 . S
C1905 C1903 1.419 . S
C1905 C1906 1.362 . S
C1906 H1898 0.930 . S
C1906 C1905 1.362 . S
C1906 C1909 1.409 . S
C1907 H1899 0.930 . S
C1907 C1908 1.355 . S
C1907 C1909 1.415 . S
C1908 C1907 1.355 . S
C1908 C1910 1.419 . S
C1909 C1904 1.425 . S
C1909 C1906 1.409 . S
C1909 C1907 1.415 . S
C1910 H1900 0.930 . S
C1910 C1908 1.419 . S
C1910 C1911 1.362 . S
C1911 H1901 0.930 . S
C1911 C1904 1.409 . S
C1911 C1910 1.362 . S
H1912 C1918 0.930 . S
H1913 C1921 0.930 . S
H1914 C1922 0.930 . S
H1915 C1923 0.930 . S
H1916 C1926 0.930 . S
H1917 C1927 0.930 . S
C1918 H1912 0.930 . S
C1918 C1919 1.355 . S
C1918 C1920 1.415 . S
C1919 C1918 1.355 . S
C1919 C1921 1.419 . S
C1920 C1918 1.415 . S
C1920 C1925 1.425 . S
C1920 C1927 1.409 . S
C1921 H1913 0.930 . S
C1921 C1919 1.419 . S
C1921 C1922 1.362 . S
C1922 H1914 0.930 . S
C1922 C1921 1.362 . S
C1922 C1925 1.409 . S
C1923 H1915 0.930 . S
C1923 C1924 1.355 . S
C1923 C1925 1.415 . S
C1924 C1923 1.355 . S
C1924 C1926 1.419 . S
C1925 C1920 1.425 . S
C1925 C1922 1.409 . S
C1925 C1923 1.415 . S
C1926 H1916 0.930 . S
C1926 C1924 1.419 . S
C1926 C1927 1.362 . S
C1927 H1917 0.930 . S
C1927 C1920 1.409 . S
C1927 C1926 1.362 . S
H1928 C1934 0.930 . S
H1929 C1937 0.930 . S
H1930 C1938 0.930 . S
H1931 C1939 0.930 . S
H1932 C1942 0.930 . S
H1933 C1943 0.930 . S
C1934 H1928 0.930 . S
C1934 C1935 1.355 . S
C1934 C1936 1.415 . S
C1935 C1934 1.355 . S
C1935 C1937 1.419 . S
C1936 C1934 1.415 . S
C1936 C1941 1.425 . S
C1936 C1943 1.409 . S
C1937 H1929 0.930 . S
C1937 C1935 1.419 . S
C1937 C1938 1.362 . S
C1938 H1930 0.930 . S
C1938 C1937 1.362 . S
C1938 C1941 1.409 . S
C1939 H1931 0.930 . S
C1939 C1940 1.355 . S
C1939 C1941 1.415 . S
C1940 C1939 1.355 . S
C1940 C1942 1.419 . S
C1941 C1936 1.425 . S
C1941 C1938 1.409 . S
C1941 C1939 1.415 . S
C1942 H1932 0.930 . S
C1942 C1940 1.419 . S
C1942 C1943 1.362 . S
C1943 H1933 0.930 . S
C1943 C1936 1.409 . S
C1943 C1942 1.362 . S
H1944 C1950 0.930 . S
H1945 C1953 0.930 . S
H1946 C1954 0.930 . S
H1947 C1955 0.930 . S
H1948 C1958 0.930 . S
H1949 C1959 0.930 . S
C1950 H1944 0.930 . S
C1950 C1951 1.355 . S
C1950 C1952 1.415 . S
C1951 C1950 1.355 . S
C1951 C1953 1.419 . S
C1952 C1950 1.415 . S
C1952 C1957 1.425 . S
C1952 C1959 1.409 . S
C1953 H1945 0.930 . S
C1953 C1951 1.419 . S
C1953 C1954 1.362 . S
C1954 H1946 0.930 . S
C1954 C1953 1.362 . S
C1954 C1957 1.409 . S
C1955 H1947 0.930 . S
C1955 C1956 1.355 . S
C1955 C1957 1.415 . S
C1956 C1955 1.355 . S
C1956 C1958 1.419 . S
C1957 C1952 1.425 . S
C1957 C1954 1.409 . S
C1957 C1955 1.415 . S
C1958 H1948 0.930 . S
C1958 C1956 1.419 . S
C1958 C1959 1.362 . S
C1959 H1949 0.930 . S
C1959 C1952 1.409 . S
C1959 C1958 1.362 . S
H1960 C1966 0.930 . S
H1961 C1969 0.930 . S
H1962 C1970 0.930 . S
H1963 C1971 0.930 . S
H1964 C1974 0.898 1_545 S
H1965 C1975 0.935 1_545 S
C1966 H1960 0.930 . S
C1966 C1967 1.355 . S
C1966 C1968 1.415 . S
C1967 C1966 1.355 . S
C1967 C1969 1.419 . S
C1968 C1966 1.415 . S
C1968 C1973 1.425 . S
C1968 C1975 1.409 . S
C1969 H1961 0.930 . S
C1969 C1967 1.419 . S
C1969 C1970 1.362 . S
C1970 H1962 0.930 . S
C1970 C1969 1.362 . S
C1970 C1973 1.409 . S
C1971 H1963 0.930 . S
C1971 C1972 1.355 . S
C1971 C1973 1.415 . S
C1972 C1971 1.355 . S
C1972 C1974 1.419 . S
C1973 C1968 1.425 . S
C1973 C1970 1.409 . S
C1973 C1971 1.415 . S
C1974 H1964 0.898 1_565 S
C1974 C1972 1.419 . S
C1974 C1975 1.362 . S
C1975 H1965 0.935 1_565 S
C1975 C1968 1.409 . S
C1975 C1974 1.362 . S
H1976 C1982 0.930 . S
H1977 C1985 0.930 . S
H1978 C1986 0.930 . S
H1979 C1987 0.930 . S
H1980 C1990 0.930 . S
H1981 C1991 0.930 . S
C1982 H1976 0.930 . S
C1982 C1983 1.355 . S
C1982 C1984 1.415 . S
C1983 C1982 1.355 . S
C1983 C1985 1.419 . S
C1984 C1982 1.415 . S
C1984 C1989 1.425 . S
C1984 C1991 1.409 . S
C1985 H1977 0.930 . S
C1985 C1983 1.419 . S
C1985 C1986 1.362 . S
C1986 H1978 0.930 . S
C1986 C1985 1.362 . S
C1986 C1989 1.409 . S
C1987 H1979 0.930 . S
C1987 C1988 1.355 . S
C1987 C1989 1.415 . S
C1988 C1987 1.355 . S
C1988 C1990 1.419 . S
C1989 C1984 1.425 . S
C1989 C1986 1.409 . S
C1989 C1987 1.415 . S
C1990 H1980 0.930 . S
C1990 C1988 1.419 . S
C1990 C1991 1.362 . S
C1991 H1981 0.930 . S
C1991 C1984 1.409 . S
C1991 C1990 1.362 . S
H1992 C1998 0.930 . S
H1993 C2001 0.930 . S
H1994 C2002 0.930 . S
H1995 C2003 0.930 . S
H1996 C2006 0.930 . S
H1997 C2007 0.930 . S
C1998 H1992 0.930 . S
C1998 C1999 1.355 . S
C1998 C2000 1.415 . S
C1999 C1998 1.355 . S
C1999 C2001 1.419 . S
C2000 C1998 1.415 . S
C2000 C2005 1.425 . S
C2000 C2007 1.409 . S
C2001 H1993 0.930 . S
C2001 C1999 1.419 . S
C2001 C2002 1.362 . S
C2002 H1994 0.930 . S
C2002 C2001 1.362 . S
C2002 C2005 1.409 . S
C2003 H1995 0.930 . S
C2003 C2004 1.355 . S
C2003 C2005 1.415 . S
C2004 C2003 1.355 . S
C2004 C2006 1.419 . S
C2005 C2000 1.425 . S
C2005 C2002 1.409 . S
C2005 C2003 1.415 . S
C2006 H1996 0.930 . S
C2006 C2004 1.419 . S
C2006 C2007 1.362 . S
C2007 H1997 0.930 . S
C2007 C2000 1.409 . S
C2007 C2006 1.362 . S
H2008 C2014 0.930 . S
H2009 C2017 0.930 . S
H2010 C2018 0.930 . S
H2011 C2019 0.930 . S
H2012 C2022 0.930 . S
H2013 C2023 0.930 . S
C2014 H2008 0.930 . S
C2014 C2015 1.355 . S
C2014 C2016 1.415 . S
C2015 C2014 1.355 . S
C2015 C2017 1.419 . S
C2016 C2014 1.415 . S
C2016 C2021 1.425 . S
C2016 C2023 1.409 . S
C2017 H2009 0.930 . S
C2017 C2015 1.419 . S
C2017 C2018 1.362 . S
C2018 H2010 0.930 . S
C2018 C2017 1.362 . S
C2018 C2021 1.409 . S
C2019 H2011 0.930 . S
C2019 C2020 1.355 . S
C2019 C2021 1.415 . S
C2020 C2019 1.355 . S
C2020 C2022 1.419 . S
C2021 C2016 1.425 . S
C2021 C2018 1.409 . S
C2021 C2019 1.415 . S
C2022 H2012 0.930 . S
C2022 C2020 1.419 . S
C2022 C2023 1.362 . S
C2023 H2013 0.930 . S
C2023 C2016 1.409 . S
C2023 C2022 1.362 . S
H2024 C2030 0.930 . S
H2025 C2033 0.930 . S
H2026 C2034 0.930 . S
H2027 C2035 0.930 . S
H2028 C2038 0.930 . S
H2029 C2039 0.930 . S
C2030 H2024 0.930 . S
C2030 C2031 1.355 . S
C2030 C2032 1.415 . S
C2031 C2030 1.355 . S
C2031 C2033 1.419 . S
C2032 C2030 1.415 . S
C2032 C2037 1.425 . S
C2032 C2039 1.409 . S
C2033 H2025 0.930 . S
C2033 C2031 1.419 . S
C2033 C2034 1.362 . S
C2034 H2026 0.930 . S
C2034 C2033 1.362 . S
C2034 C2037 1.409 . S
C2035 H2027 0.930 . S
C2035 C2036 1.355 . S
C2035 C2037 1.415 . S
C2036 C2035 1.355 . S
C2036 C2038 1.419 . S
C2037 C2032 1.425 . S
C2037 C2034 1.409 . S
C2037 C2035 1.415 . S
C2038 H2028 0.930 . S
C2038 C2036 1.419 . S
C2038 C2039 1.362 . S
C2039 H2029 0.930 . S
C2039 C2032 1.409 . S
C2039 C2038 1.362 . S
H2040 C2046 0.930 . S
H2041 C2049 0.930 . S
H2042 C2050 0.930 . S
H2043 C2051 0.930 . S
H2044 C2054 0.930 . S
H2045 C2055 0.930 . S
C2046 H2040 0.930 . S
C2046 C2047 1.355 . S
C2046 C2048 1.415 . S
C2047 C2046 1.355 . S
C2047 C2049 1.419 . S
C2048 C2046 1.415 . S
C2048 C2053 1.425 . S
C2048 C2055 1.409 . S
C2049 H2041 0.930 . S
C2049 C2047 1.419 . S
C2049 C2050 1.362 . S
C2050 H2042 0.930 . S
C2050 C2049 1.362 . S
C2050 C2053 1.409 . S
C2051 H2043 0.930 . S
C2051 C2052 1.355 . S
C2051 C2053 1.415 . S
C2052 C2051 1.355 . S
C2052 C2054 1.419 . S
C2053 C2048 1.425 . S
C2053 C2050 1.409 . S
C2053 C2051 1.415 . S
C2054 H2044 0.930 . S
C2054 C2052 1.419 . S
C2054 C2055 1.362 . S
C2055 H2045 0.930 . S
C2055 C2048 1.409 . S
C2055 C2054 1.362 . S
H2056 C2062 0.930 . S
H2057 C2065 0.930 . S
H2058 C2066 0.930 . S
H2059 C2067 0.930 . S
H2060 C2070 0.930 . S
H2061 C2071 0.930 . S
C2062 H2056 0.930 . S
C2062 C2063 1.355 . S
C2062 C2064 1.415 . S
C2063 C2062 1.355 . S
C2063 C2065 1.419 . S
C2064 C2062 1.415 . S
C2064 C2069 1.425 . S
C2064 C2071 1.409 . S
C2065 H2057 0.930 . S
C2065 C2063 1.419 . S
C2065 C2066 1.362 . S
C2066 H2058 0.930 . S
C2066 C2065 1.362 . S
C2066 C2069 1.409 . S
C2067 H2059 0.930 . S
C2067 C2068 1.355 . S
C2067 C2069 1.415 . S
C2068 C2067 1.355 . S
C2068 C2070 1.419 . S
C2069 C2064 1.425 . S
C2069 C2066 1.409 . S
C2069 C2067 1.415 . S
C2070 H2060 0.930 . S
C2070 C2068 1.419 . S
C2070 C2071 1.362 . S
C2071 H2061 0.930 . S
C2071 C2064 1.409 . S
C2071 C2070 1.362 . S
H2072 C2078 0.930 . S
H2073 C2081 0.930 . S
H2074 C2082 0.930 . S
H2075 C2083 0.930 . S
H2076 C2086 0.930 . S
H2077 C2087 0.930 . S
C2078 H2072 0.930 . S
C2078 C2079 1.355 . S
C2078 C2080 1.415 . S
C2079 C2078 1.355 . S
C2079 C2081 1.419 . S
C2080 C2078 1.415 . S
C2080 C2085 1.425 . S
C2080 C2087 1.409 . S
C2081 H2073 0.930 . S
C2081 C2079 1.419 . S
C2081 C2082 1.362 . S
C2082 H2074 0.930 . S
C2082 C2081 1.362 . S
C2082 C2085 1.409 . S
C2083 H2075 0.930 . S
C2083 C2084 1.355 . S
C2083 C2085 1.415 . S
C2084 C2083 1.355 . S
C2084 C2086 1.419 . S
C2085 C2080 1.425 . S
C2085 C2082 1.409 . S
C2085 C2083 1.415 . S
C2086 H2076 0.930 . S
C2086 C2084 1.419 . S
C2086 C2087 1.362 . S
C2087 H2077 0.930 . S
C2087 C2080 1.409 . S
C2087 C2086 1.362 . S
H2088 C2094 0.930 . S
H2089 C2097 0.930 . S
H2090 C2098 0.930 . S
H2091 C2099 0.930 . S
H2092 C2102 0.930 . S
H2093 C2103 0.930 . S
C2094 H2088 0.930 . S
C2094 C2095 1.355 . S
C2094 C2096 1.415 . S
C2095 C2094 1.355 . S
C2095 C2097 1.419 . S
C2096 C2094 1.415 . S
C2096 C2101 1.425 . S
C2096 C2103 1.409 . S
C2097 H2089 0.930 . S
C2097 C2095 1.419 . S
C2097 C2098 1.362 . S
C2098 H2090 0.930 . S
C2098 C2097 1.362 . S
C2098 C2101 1.409 . S
C2099 H2091 0.930 . S
C2099 C2100 1.355 . S
C2099 C2101 1.415 . S
C2100 C2099 1.355 . S
C2100 C2102 1.419 . S
C2101 C2096 1.425 . S
C2101 C2098 1.409 . S
C2101 C2099 1.415 . S
C2102 H2092 0.930 . S
C2102 C2100 1.419 . S
C2102 C2103 1.362 . S
C2103 H2093 0.930 . S
C2103 C2096 1.409 . S
C2103 C2102 1.362 . S
H2104 C2110 0.930 1_554 S
H2105 C2113 0.930 . S
H2106 C2114 0.930 . S
H2107 C2115 0.930 . S
H2108 C2118 0.930 . S
H2109 C2119 0.930 1_554 S
C2110 H2104 0.930 1_556 S
C2110 C2111 1.355 . S
C2110 C2112 1.415 . S
C2111 C2110 1.355 . S
C2111 C2113 1.419 . S
C2112 C2110 1.415 . S
C2112 C2117 1.425 . S
C2112 C2119 1.409 . S
C2113 H2105 0.930 . S
C2113 C2111 1.419 . S
C2113 C2114 1.362 . S
C2114 H2106 0.930 . S
C2114 C2113 1.362 . S
C2114 C2117 1.409 . S
C2115 H2107 0.930 . S
C2115 C2116 1.355 . S
C2115 C2117 1.415 . S
C2116 C2115 1.355 . S
C2116 C2118 1.419 . S
C2117 C2112 1.425 . S
C2117 C2114 1.409 . S
C2117 C2115 1.415 . S
C2118 H2108 0.930 . S
C2118 C2116 1.419 . S
C2118 C2119 1.362 . S
C2119 H2109 0.930 1_556 S
C2119 C2112 1.409 . S
C2119 C2118 1.362 . S
H2120 C2126 0.930 . S
H2121 C2129 0.930 . S
H2122 C2130 0.930 . S
H2123 C2131 0.930 . S
H2124 C2134 0.930 . S
H2125 C2135 0.930 . S
C2126 H2120 0.930 . S
C2126 C2127 1.355 . S
C2126 C2128 1.415 . S
C2127 C2126 1.355 . S
C2127 C2129 1.419 . S
C2128 C2126 1.415 . S
C2128 C2133 1.425 . S
C2128 C2135 1.409 . S
C2129 H2121 0.930 . S
C2129 C2127 1.419 . S
C2129 C2130 1.362 . S
C2130 H2122 0.930 . S
C2130 C2129 1.362 . S
C2130 C2133 1.409 . S
C2131 H2123 0.930 . S
C2131 C2132 1.355 . S
C2131 C2133 1.415 . S
C2132 C2131 1.355 . S
C2132 C2134 1.419 . S
C2133 C2128 1.425 . S
C2133 C2130 1.409 . S
C2133 C2131 1.415 . S
C2134 H2124 0.930 . S
C2134 C2132 1.419 . S
C2134 C2135 1.362 . S
C2135 H2125 0.930 . S
C2135 C2128 1.409 . S
C2135 C2134 1.362 . S
H2136 C2142 0.930 . S
H2137 C2145 0.930 . S
H2138 C2146 0.930 . S
H2139 C2147 0.930 . S
H2140 C2150 0.930 . S
H2141 C2151 0.930 . S
C2142 H2136 0.930 . S
C2142 C2143 1.355 . S
C2142 C2144 1.415 . S
C2143 C2142 1.355 . S
C2143 C2145 1.419 . S
C2144 C2142 1.415 . S
C2144 C2149 1.425 . S
C2144 C2151 1.409 . S
C2145 H2137 0.930 . S
C2145 C2143 1.419 . S
C2145 C2146 1.362 . S
C2146 H2138 0.930 . S
C2146 C2145 1.362 . S
C2146 C2149 1.409 . S
C2147 H2139 0.930 . S
C2147 C2148 1.355 . S
C2147 C2149 1.415 . S
C2148 C2147 1.355 . S
C2148 C2150 1.419 . S
C2149 C2144 1.425 . S
C2149 C2146 1.409 . S
C2149 C2147 1.415 . S
C2150 H2140 0.930 . S
C2150 C2148 1.419 . S
C2150 C2151 1.362 . S
C2151 H2141 0.930 . S
C2151 C2144 1.409 . S
C2151 C2150 1.362 . S
H2152 C2158 0.930 . S
H2153 C2161 0.930 . S
H2154 C2162 0.930 . S
H2155 C2163 0.930 . S
H2156 C2166 0.930 . S
H2157 C2167 0.930 . S
C2158 H2152 0.930 . S
C2158 C2159 1.355 . S
C2158 C2160 1.415 . S
C2159 C2158 1.355 . S
C2159 C2161 1.419 . S
C2160 C2158 1.415 . S
C2160 C2165 1.425 . S
C2160 C2167 1.409 . S
C2161 H2153 0.930 . S
C2161 C2159 1.419 . S
C2161 C2162 1.362 . S
C2162 H2154 0.930 . S
C2162 C2161 1.362 . S
C2162 C2165 1.409 . S
C2163 H2155 0.930 . S
C2163 C2164 1.355 . S
C2163 C2165 1.415 . S
C2164 C2163 1.355 . S
C2164 C2166 1.419 . S
C2165 C2160 1.425 . S
C2165 C2162 1.409 . S
C2165 C2163 1.415 . S
C2166 H2156 0.930 . S
C2166 C2164 1.419 . S
C2166 C2167 1.362 . S
C2167 H2157 0.930 . S
C2167 C2160 1.409 . S
C2167 C2166 1.362 . S
H2168 C2174 0.930 . S
H2169 C2177 0.905 1_455 S
H2170 C2178 0.930 1_455 S
H2171 C2179 0.930 . S
H2172 C2182 0.930 . S
H2173 C2183 0.930 . S
C2174 H2168 0.930 . S
C2174 C2175 1.355 . S
C2174 C2176 1.415 . S
C2175 C2174 1.355 . S
C2175 C2177 1.438 . S
C2176 C2174 1.415 . S
C2176 C2181 1.425 . S
C2176 C2183 1.409 . S
C2177 H2169 0.905 1_655 S
C2177 C2175 1.438 . S
C2177 C2178 1.368 . S
C2178 H2170 0.930 1_655 S
C2178 C2177 1.368 . S
C2178 C2181 1.409 . S
C2179 H2171 0.930 . S
C2179 C2180 1.355 . S
C2179 C2181 1.415 . S
C2180 C2179 1.355 . S
C2180 C2182 1.419 . S
C2181 C2176 1.425 . S
C2181 C2178 1.409 . S
C2181 C2179 1.415 . S
C2182 H2172 0.930 . S
C2182 C2180 1.419 . S
C2182 C2183 1.362 . S
C2183 H2173 0.930 . S
C2183 C2176 1.409 . S
C2183 C2182 1.362 . S
H2184 C2190 0.930 . S
H2185 C2193 0.930 . S
H2186 C2194 0.930 . S
H2187 C2195 0.930 . S
H2188 C2198 0.930 . S
H2189 C2199 0.930 . S
C2190 H2184 0.930 . S
C2190 C2191 1.355 . S
C2190 C2192 1.415 . S
C2191 C2190 1.355 . S
C2191 C2193 1.419 . S
C2192 C2190 1.415 . S
C2192 C2197 1.425 . S
C2192 C2199 1.409 . S
C2193 H2185 0.930 . S
C2193 C2191 1.419 . S
C2193 C2194 1.362 . S
C2194 H2186 0.930 . S
C2194 C2193 1.362 . S
C2194 C2197 1.409 . S
C2195 H2187 0.930 . S
C2195 C2196 1.355 . S
C2195 C2197 1.415 . S
C2196 C2195 1.355 . S
C2196 C2198 1.419 . S
C2197 C2192 1.425 . S
C2197 C2194 1.409 . S
C2197 C2195 1.415 . S
C2198 H2188 0.930 . S
C2198 C2196 1.419 . S
C2198 C2199 1.362 . S
C2199 H2189 0.930 . S
C2199 C2192 1.409 . S
C2199 C2198 1.362 . S
H2200 C2206 0.930 . S
H2201 C2209 0.930 . S
H2202 C2210 0.930 . S
H2203 C2211 0.930 . S
H2204 C2214 0.930 . S
H2205 C2215 0.930 . S
C2206 H2200 0.930 . S
C2206 C2207 1.355 . S
C2206 C2208 1.415 . S
C2207 C2206 1.355 . S
C2207 C2209 1.419 . S
C2208 C2206 1.415 . S
C2208 C2213 1.425 . S
C2208 C2215 1.409 . S
C2209 H2201 0.930 . S
C2209 C2207 1.419 . S
C2209 C2210 1.362 . S
C2210 H2202 0.930 . S
C2210 C2209 1.362 . S
C2210 C2213 1.409 . S
C2211 H2203 0.930 . S
C2211 C2212 1.355 . S
C2211 C2213 1.415 . S
C2212 C2211 1.355 . S
C2212 C2214 1.419 . S
C2213 C2208 1.425 . S
C2213 C2210 1.409 . S
C2213 C2211 1.415 . S
C2214 H2204 0.930 . S
C2214 C2212 1.419 . S
C2214 C2215 1.362 . S
C2215 H2205 0.930 . S
C2215 C2208 1.409 . S
C2215 C2214 1.362 . S
H2216 C2222 0.930 . S
H2217 C2225 0.930 1_545 S
H2218 C2226 0.930 1_545 S
H2219 C2227 0.930 . S
H2220 C2230 0.930 . S
H2221 C2231 0.930 . S
C2222 H2216 0.930 . S
C2222 C2223 1.355 . S
C2222 C2224 1.415 . S
C2223 C2222 1.355 . S
C2223 C2225 1.419 . S
C2224 C2222 1.415 . S
C2224 C2229 1.425 . S
C2224 C2231 1.409 . S
C2225 H2217 0.930 1_565 S
C2225 C2223 1.419 . S
C2225 C2226 1.362 . S
C2226 H2218 0.930 1_565 S
C2226 C2225 1.362 . S
C2226 C2229 1.409 . S
C2227 H2219 0.930 . S
C2227 C2228 1.355 . S
C2227 C2229 1.415 . S
C2228 C2227 1.355 . S
C2228 C2230 1.419 . S
C2229 C2224 1.425 . S
C2229 C2226 1.409 . S
C2229 C2227 1.415 . S
C2230 H2220 0.930 . S
C2230 C2228 1.419 . S
C2230 C2231 1.362 . S
C2231 H2221 0.930 . S
C2231 C2224 1.409 . S
C2231 C2230 1.362 . S
H2232 C2238 0.930 . S
H2233 C2241 0.930 . S
H2234 C2242 0.930 . S
H2235 C2243 0.930 . S
H2236 C2246 0.930 . S
H2237 C2247 0.930 . S
C2238 H2232 0.930 . S
C2238 C2239 1.355 . S
C2238 C2240 1.415 . S
C2239 C2238 1.355 . S
C2239 C2241 1.419 . S
C2240 C2238 1.415 . S
C2240 C2245 1.425 . S
C2240 C2247 1.409 . S
C2241 H2233 0.930 . S
C2241 C2239 1.419 . S
C2241 C2242 1.362 . S
C2242 H2234 0.930 . S
C2242 C2241 1.362 . S
C2242 C2245 1.409 . S
C2243 H2235 0.930 . S
C2243 C2244 1.355 . S
C2243 C2245 1.415 . S
C2244 C2243 1.355 . S
C2244 C2246 1.419 . S
C2245 C2240 1.425 . S
C2245 C2242 1.409 . S
C2245 C2243 1.415 . S
C2246 H2236 0.930 . S
C2246 C2244 1.419 . S
C2246 C2247 1.362 . S
C2247 H2237 0.930 . S
C2247 C2240 1.409 . S
C2247 C2246 1.362 . S
H2248 C2254 0.930 . S
H2249 C2257 0.930 . S
H2250 C2258 0.930 . S
H2251 C2259 0.930 . S
H2252 C2262 0.930 . S
H2253 C2263 0.930 . S
C2254 H2248 0.930 . S
C2254 C2255 1.355 . S
C2254 C2256 1.415 . S
C2255 C2254 1.355 . S
C2255 C2257 1.419 . S
C2256 C2254 1.415 . S
C2256 C2261 1.425 . S
C2256 C2263 1.409 . S
C2257 H2249 0.930 . S
C2257 C2255 1.419 . S
C2257 C2258 1.362 . S
C2258 H2250 0.930 . S
C2258 C2257 1.362 . S
C2258 C2261 1.409 . S
C2259 H2251 0.930 . S
C2259 C2260 1.355 . S
C2259 C2261 1.415 . S
C2260 C2259 1.355 . S
C2260 C2262 1.419 . S
C2261 C2256 1.425 . S
C2261 C2258 1.409 . S
C2261 C2259 1.415 . S
C2262 H2252 0.930 . S
C2262 C2260 1.419 . S
C2262 C2263 1.362 . S
C2263 H2253 0.930 . S
C2263 C2256 1.409 . S
C2263 C2262 1.362 . S
H2264 C2270 0.930 . S
H2265 C2273 0.930 . S
H2266 C2274 0.930 . S
H2267 C2275 0.930 . S
H2268 C2278 0.930 . S
H2269 C2279 0.930 . S
C2270 H2264 0.930 . S
C2270 C2271 1.355 . S
C2270 C2272 1.415 . S
C2271 C2270 1.355 . S
C2271 C2273 1.419 . S
C2272 C2270 1.415 . S
C2272 C2277 1.425 . S
C2272 C2279 1.409 . S
C2273 H2265 0.930 . S
C2273 C2271 1.419 . S
C2273 C2274 1.362 . S
C2274 H2266 0.930 . S
C2274 C2273 1.362 . S
C2274 C2277 1.409 . S
C2275 H2267 0.930 . S
C2275 C2276 1.355 . S
C2275 C2277 1.415 . S
C2276 C2275 1.355 . S
C2276 C2278 1.419 . S
C2277 C2272 1.425 . S
C2277 C2274 1.409 . S
C2277 C2275 1.415 . S
C2278 H2268 0.930 . S
C2278 C2276 1.419 . S
C2278 C2279 1.362 . S
C2279 H2269 0.930 . S
C2279 C2272 1.409 . S
C2279 C2278 1.362 . S
H2280 C2286 0.930 . S
H2281 C2289 0.930 . S
H2282 C2290 0.930 . S
H2283 C2291 0.930 . S
H2284 C2294 0.930 . S
H2285 C2295 0.930 . S
C2286 H2280 0.930 . S
C2286 C2287 1.355 . S
C2286 C2288 1.415 . S
C2287 C2286 1.355 . S
C2287 C2289 1.419 . S
C2288 C2286 1.415 . S
C2288 C2293 1.425 . S
C2288 C2295 1.409 . S
C2289 H2281 0.930 . S
C2289 C2287 1.419 . S
C2289 C2290 1.362 . S
C2290 H2282 0.930 . S
C2290 C2289 1.362 . S
C2290 C2293 1.409 . S
C2291 H2283 0.930 . S
C2291 C2292 1.355 . S
C2291 C2293 1.415 . S
C2292 C2291 1.355 . S
C2292 C2294 1.419 . S
C2293 C2288 1.425 . S
C2293 C2290 1.409 . S
C2293 C2291 1.415 . S
C2294 H2284 0.930 . S
C2294 C2292 1.419 . S
C2294 C2295 1.362 . S
C2295 H2285 0.930 . S
C2295 C2288 1.409 . S
C2295 C2294 1.362 . S
H2296 C2302 0.930 . S
H2297 C2305 0.930 . S
H2298 C2306 0.930 . S
H2299 C2307 0.930 . S
H2300 C2310 0.930 . S
H2301 C2311 0.930 . S
C2302 H2296 0.930 . S
C2302 C2303 1.355 . S
C2302 C2304 1.415 . S
C2303 C2302 1.355 . S
C2303 C2305 1.419 . S
C2304 C2302 1.415 . S
C2304 C2309 1.425 . S
C2304 C2311 1.409 . S
C2305 H2297 0.930 . S
C2305 C2303 1.419 . S
C2305 C2306 1.362 . S
C2306 H2298 0.930 . S
C2306 C2305 1.362 . S
C2306 C2309 1.409 . S
C2307 H2299 0.930 . S
C2307 C2308 1.355 . S
C2307 C2309 1.415 . S
C2308 C2307 1.355 . S
C2308 C2310 1.419 . S
C2309 C2304 1.425 . S
C2309 C2306 1.409 . S
C2309 C2307 1.415 . S
C2310 H2300 0.930 . S
C2310 C2308 1.419 . S
C2310 C2311 1.362 . S
C2311 H2301 0.930 . S
C2311 C2304 1.409 . S
C2311 C2310 1.362 . S
H2312 C2318 0.930 . S
H2313 C2321 0.930 . S
H2314 C2322 0.930 . S
H2315 C2323 0.930 . S
H2316 C2326 0.930 . S
H2317 C2327 0.930 . S
C2318 H2312 0.930 . S
C2318 C2319 1.355 . S
C2318 C2320 1.415 . S
C2319 C2318 1.355 . S
C2319 C2321 1.419 . S
C2320 C2318 1.415 . S
C2320 C2325 1.425 . S
C2320 C2327 1.409 . S
C2321 H2313 0.930 . S
C2321 C2319 1.419 . S
C2321 C2322 1.362 . S
C2322 H2314 0.930 . S
C2322 C2321 1.362 . S
C2322 C2325 1.409 . S
C2323 H2315 0.930 . S
C2323 C2324 1.355 . S
C2323 C2325 1.415 . S
C2324 C2323 1.355 . S
C2324 C2326 1.419 . S
C2325 C2320 1.425 . S
C2325 C2322 1.409 . S
C2325 C2323 1.415 . S
C2326 H2316 0.930 . S
C2326 C2324 1.419 . S
C2326 C2327 1.362 . S
C2327 H2317 0.930 . S
C2327 C2320 1.409 . S
C2327 C2326 1.362 . S
H2328 C2334 0.930 1_655 S
H2329 C2337 0.930 . S
H2330 C2338 0.930 . S
H2331 C2339 0.930 . S
H2332 C2342 0.930 . S
H2333 C2343 0.930 . S
C2334 H2328 0.930 1_455 S
C2334 C2335 1.355 . S
C2334 C2336 1.415 . S
C2335 C2334 1.355 . S
C2335 C2337 1.419 . S
C2336 C2334 1.415 . S
C2336 C2341 1.425 . S
C2336 C2343 1.409 1_455 S
C2337 H2329 0.930 . S
C2337 C2335 1.419 . S
C2337 C2338 1.362 . S
C2338 H2330 0.930 . S
C2338 C2337 1.362 . S
C2338 C2341 1.409 . S
C2339 H2331 0.930 . S
C2339 C2340 1.355 . S
C2339 C2341 1.415 . S
C2340 C2339 1.355 . S
C2340 C2342 1.419 1_455 S
C2341 C2336 1.425 . S
C2341 C2338 1.409 . S
C2341 C2339 1.415 . S
C2342 H2332 0.930 . S
C2342 C2340 1.419 1_655 S
C2342 C2343 1.362 . S
C2343 H2333 0.930 . S
C2343 C2336 1.409 1_655 S
C2343 C2342 1.362 . S
H2344 C2350 0.930 . S
H2345 C2353 0.930 . S
H2346 C2354 0.930 . S
H2347 C2355 0.930 . S
H2348 C2358 0.930 . S
H2349 C2359 0.930 . S
C2350 H2344 0.930 . S
C2350 C2351 1.355 . S
C2350 C2352 1.415 . S
C2351 C2350 1.355 . S
C2351 C2353 1.419 . S
C2352 C2350 1.415 . S
C2352 C2357 1.425 . S
C2352 C2359 1.409 . S
C2353 H2345 0.930 . S
C2353 C2351 1.419 . S
C2353 C2354 1.362 . S
C2354 H2346 0.930 . S
C2354 C2353 1.362 . S
C2354 C2357 1.409 . S
C2355 H2347 0.930 . S
C2355 C2356 1.355 . S
C2355 C2357 1.415 . S
C2356 C2355 1.355 . S
C2356 C2358 1.419 . S
C2357 C2352 1.425 . S
C2357 C2354 1.409 . S
C2357 C2355 1.415 . S
C2358 H2348 0.930 . S
C2358 C2356 1.419 . S
C2358 C2359 1.362 . S
C2359 H2349 0.930 . S
C2359 C2352 1.409 . S
C2359 C2358 1.362 . S
H2360 C2366 0.930 . S
H2361 C2369 0.930 . S
H2362 C2370 0.930 . S
H2363 C2371 0.930 1_455 S
H2364 C2374 0.930 . S
H2365 C2375 0.930 . S
C2366 H2360 0.930 . S
C2366 C2367 1.355 . S
C2366 C2368 1.415 . S
C2367 C2366 1.355 . S
C2367 C2369 1.419 1_655 S
C2368 C2366 1.415 . S
C2368 C2373 1.425 . S
C2368 C2375 1.409 . S
C2369 H2361 0.930 . S
C2369 C2367 1.419 1_455 S
C2369 C2370 1.362 . S
C2370 H2362 0.930 . S
C2370 C2369 1.362 . S
C2370 C2373 1.409 1_455 S
C2371 H2363 0.930 1_655 S
C2371 C2372 1.355 . S
C2371 C2373 1.415 . S
C2372 C2371 1.355 . S
C2372 C2374 1.419 . S
C2373 C2368 1.425 . S
C2373 C2370 1.409 1_655 S
C2373 C2371 1.415 . S
C2374 H2364 0.930 . S
C2374 C2372 1.419 . S
C2374 C2375 1.362 . S
C2375 H2365 0.930 . S
C2375 C2368 1.409 . S
C2375 C2374 1.362 . S
H2376 C2382 0.930 . S
H2377 C2385 0.930 . S
H2378 C2386 0.930 . S
H2379 C2387 0.930 . S
H2380 C2390 0.930 . S
H2381 C2391 0.930 . S
C2382 H2376 0.930 . S
C2382 C2383 1.355 . S
C2382 C2384 1.415 . S
C2383 C2382 1.355 . S
C2383 C2385 1.419 . S
C2384 C2382 1.415 . S
C2384 C2389 1.425 . S
C2384 C2391 1.409 . S
C2385 H2377 0.930 . S
C2385 C2383 1.419 . S
C2385 C2386 1.362 . S
C2386 H2378 0.930 . S
C2386 C2385 1.362 . S
C2386 C2389 1.409 . S
C2387 H2379 0.930 . S
C2387 C2388 1.355 . S
C2387 C2389 1.415 . S
C2388 C2387 1.355 . S
C2388 C2390 1.419 . S
C2389 C2384 1.425 . S
C2389 C2386 1.409 . S
C2389 C2387 1.415 . S
C2390 H2380 0.930 . S
C2390 C2388 1.419 . S
C2390 C2391 1.362 . S
C2391 H2381 0.930 . S
C2391 C2384 1.409 . S
C2391 C2390 1.362 . S
H2392 C2398 0.930 . S
H2393 C2401 0.930 . S
H2394 C2402 0.930 . S
H2395 C2403 0.930 . S
H2396 C2406 0.930 . S
H2397 C2407 0.930 . S
C2398 H2392 0.930 . S
C2398 C2399 1.355 . S
C2398 C2400 1.415 . S
C2399 C2398 1.355 . S
C2399 C2401 1.419 . S
C2400 C2398 1.415 . S
C2400 C2405 1.425 . S
C2400 C2407 1.409 . S
C2401 H2393 0.930 . S
C2401 C2399 1.419 . S
C2401 C2402 1.362 . S
C2402 H2394 0.930 . S
C2402 C2401 1.362 . S
C2402 C2405 1.409 . S
C2403 H2395 0.930 . S
C2403 C2404 1.355 . S
C2403 C2405 1.415 . S
C2404 C2403 1.355 . S
C2404 C2406 1.419 . S
C2405 C2400 1.425 . S
C2405 C2402 1.409 . S
C2405 C2403 1.415 . S
C2406 H2396 0.930 . S
C2406 C2404 1.419 . S
C2406 C2407 1.362 . S
C2407 H2397 0.930 . S
C2407 C2400 1.409 . S
C2407 C2406 1.362 . S
H2408 C2414 0.930 . S
H2409 C2417 0.930 . S
H2410 C2418 0.930 . S
H2411 C2419 0.930 . S
H2412 C2422 0.930 . S
H2413 C2423 0.930 . S
C2414 H2408 0.930 . S
C2414 C2415 1.355 . S
C2414 C2416 1.415 . S
C2415 C2414 1.355 . S
C2415 C2417 1.419 . S
C2416 C2414 1.415 . S
C2416 C2421 1.425 . S
C2416 C2423 1.409 . S
C2417 H2409 0.930 . S
C2417 C2415 1.419 . S
C2417 C2418 1.362 . S
C2418 H2410 0.930 . S
C2418 C2417 1.362 . S
C2418 C2421 1.409 . S
C2419 H2411 0.930 . S
C2419 C2420 1.355 . S
C2419 C2421 1.415 . S
C2420 C2419 1.355 . S
C2420 C2422 1.419 . S
C2421 C2416 1.425 . S
C2421 C2418 1.409 . S
C2421 C2419 1.415 . S
C2422 H2412 0.930 . S
C2422 C2420 1.419 . S
C2422 C2423 1.362 . S
C2423 H2413 0.930 . S
C2423 C2416 1.409 . S
C2423 C2422 1.362 . S
H2424 C2430 0.930 . S
H2425 C2433 0.930 . S
H2426 C2434 0.933 1_545 S
H2427 C2435 0.930 . S
H2428 C2438 0.930 . S
H2429 C2439 0.930 . S
C2430 H2424 0.930 . S
C2430 C2431 1.355 . S
C2430 C2432 1.415 . S
C2431 C2430 1.355 . S
C2431 C2433 1.419 . S
C2432 C2430 1.415 . S
C2432 C2437 1.425 . S
C2432 C2439 1.409 . S
C2433 H2425 0.930 . S
C2433 C2431 1.419 . S
C2433 C2434 1.362 . S
C2434 H2426 0.933 1_565 S
C2434 C2433 1.362 . S
C2434 C2437 1.409 . S
C2435 H2427 0.930 . S
C2435 C2436 1.355 . S
C2435 C2437 1.415 . S
C2436 C2435 1.355 . S
C2436 C2438 1.419 . S
C2437 C2432 1.425 . S
C2437 C2434 1.409 . S
C2437 C2435 1.415 . S
C2438 H2428 0.930 . S
C2438 C2436 1.419 . S
C2438 C2439 1.362 . S
C2439 H2429 0.930 . S
C2439 C2432 1.409 . S
C2439 C2438 1.362 . S
H2440 C2446 0.930 . S
H2441 C2449 0.930 . S
H2442 C2450 0.930 . S
H2443 C2451 0.930 . S
H2444 C2454 0.930 . S
H2445 C2455 0.930 . S
C2446 H2440 0.930 . S
C2446 C2447 1.355 . S
C2446 C2448 1.415 . S
C2447 C2446 1.355 . S
C2447 C2449 1.419 . S
C2448 C2446 1.415 . S
C2448 C2453 1.425 . S
C2448 C2455 1.409 . S
C2449 H2441 0.930 . S
C2449 C2447 1.419 . S
C2449 C2450 1.362 . S
C2450 H2442 0.930 . S
C2450 C2449 1.362 . S
C2450 C2453 1.409 . S
C2451 H2443 0.930 . S
C2451 C2452 1.355 . S
C2451 C2453 1.415 . S
C2452 C2451 1.355 . S
C2452 C2454 1.419 . S
C2453 C2448 1.425 . S
C2453 C2450 1.409 . S
C2453 C2451 1.415 . S
C2454 H2444 0.930 . S
C2454 C2452 1.419 . S
C2454 C2455 1.362 . S
C2455 H2445 0.930 . S
C2455 C2448 1.409 . S
C2455 C2454 1.362 . S
H2456 C2462 0.930 . S
H2457 C2465 0.930 . S
H2458 C2466 0.930 . S
H2459 C2467 0.930 . S
H2460 C2470 0.930 . S
H2461 C2471 0.930 . S
C2462 H2456 0.930 . S
C2462 C2463 1.355 . S
C2462 C2464 1.415 . S
C2463 C2462 1.355 . S
C2463 C2465 1.419 . S
C2464 C2462 1.415 . S
C2464 C2469 1.425 . S
C2464 C2471 1.409 . S
C2465 H2457 0.930 . S
C2465 C2463 1.419 . S
C2465 C2466 1.362 . S
C2466 H2458 0.930 . S
C2466 C2465 1.362 . S
C2466 C2469 1.409 . S
C2467 H2459 0.930 . S
C2467 C2468 1.355 . S
C2467 C2469 1.415 . S
C2468 C2467 1.355 . S
C2468 C2470 1.419 . S
C2469 C2464 1.425 . S
C2469 C2466 1.409 . S
C2469 C2467 1.415 . S
C2470 H2460 0.930 . S
C2470 C2468 1.419 . S
C2470 C2471 1.362 . S
C2471 H2461 0.930 . S
C2471 C2464 1.409 . S
C2471 C2470 1.362 . S
H2472 C2478 0.930 . S
H2473 C2481 0.930 . S
H2474 C2482 0.930 . S
H2475 C2483 0.930 . S
H2476 C2486 0.930 . S
H2477 C2487 0.930 . S
C2478 H2472 0.930 . S
C2478 C2479 1.355 . S
C2478 C2480 1.415 . S
C2479 C2478 1.355 . S
C2479 C2481 1.419 . S
C2480 C2478 1.415 . S
C2480 C2485 1.425 . S
C2480 C2487 1.409 . S
C2481 H2473 0.930 . S
C2481 C2479 1.419 . S
C2481 C2482 1.362 . S
C2482 H2474 0.930 . S
C2482 C2481 1.362 . S
C2482 C2485 1.409 . S
C2483 H2475 0.930 . S
C2483 C2484 1.355 . S
C2483 C2485 1.415 . S
C2484 C2483 1.355 . S
C2484 C2486 1.419 . S
C2485 C2480 1.425 . S
C2485 C2482 1.409 . S
C2485 C2483 1.415 . S
C2486 H2476 0.930 . S
C2486 C2484 1.419 . S
C2486 C2487 1.362 . S
C2487 H2477 0.930 . S
C2487 C2480 1.409 . S
C2487 C2486 1.362 . S
H2488 C2494 0.930 . S
H2489 C2497 0.930 . S
H2490 C2498 0.930 . S
H2491 C2499 0.930 1_556 S
H2492 C2502 0.930 . S
H2493 C2503 0.930 . S
C2494 H2488 0.930 . S
C2494 C2495 1.355 . S
C2494 C2496 1.415 . S
C2495 C2494 1.355 . S
C2495 C2497 1.419 1_554 S
C2496 C2494 1.415 . S
C2496 C2501 1.425 . S
C2496 C2503 1.409 . S
C2497 H2489 0.930 . S
C2497 C2495 1.419 1_556 S
C2497 C2498 1.362 . S
C2498 H2490 0.930 . S
C2498 C2497 1.362 . S
C2498 C2501 1.409 1_556 S
C2499 H2491 0.930 1_554 S
C2499 C2500 1.355 . S
C2499 C2501 1.415 . S
C2500 C2499 1.355 . S
C2500 C2502 1.419 . S
C2501 C2496 1.425 . S
C2501 C2498 1.409 1_554 S
C2501 C2499 1.415 . S
C2502 H2492 0.930 . S
C2502 C2500 1.419 . S
C2502 C2503 1.362 . S
C2503 H2493 0.930 . S
C2503 C2496 1.409 . S
C2503 C2502 1.362 . S
H2504 C2510 0.930 . S
H2505 C2513 0.930 . S
H2506 C2514 0.930 . S
H2507 C2515 0.930 . S
H2508 C2518 0.930 . S
H2509 C2519 0.930 . S
C2510 H2504 0.930 . S
C2510 C2511 1.355 . S
C2510 C2512 1.415 . S
C2511 C2510 1.355 . S
C2511 C2513 1.419 . S
C2512 C2510 1.415 . S
C2512 C2517 1.425 . S
C2512 C2519 1.409 . S
C2513 H2505 0.930 . S
C2513 C2511 1.419 . S
C2513 C2514 1.362 . S
C2514 H2506 0.930 . S
C2514 C2513 1.362 . S
C2514 C2517 1.409 . S
C2515 H2507 0.930 . S
C2515 C2516 1.355 . S
C2515 C2517 1.415 . S
C2516 C2515 1.355 . S
C2516 C2518 1.419 . S
C2517 C2512 1.425 . S
C2517 C2514 1.409 . S
C2517 C2515 1.415 . S
C2518 H2508 0.930 . S
C2518 C2516 1.419 . S
C2518 C2519 1.362 . S
C2519 H2509 0.930 . S
C2519 C2512 1.409 . S
C2519 C2518 1.362 . S
H2520 C2526 0.930 . S
H2521 C2529 0.930 . S
H2522 C2530 0.930 1_455 S
H2523 C2531 0.930 1_455 S
H2524 C2534 0.930 . S
H2525 C2535 0.930 . S
C2526 H2520 0.930 . S
C2526 C2527 1.355 . S
C2526 C2528 1.415 . S
C2527 C2526 1.355 . S
C2527 C2529 1.419 . S
C2528 C2526 1.415 . S
C2528 C2533 1.425 . S
C2528 C2535 1.409 . S
C2529 H2521 0.930 . S
C2529 C2527 1.419 . S
C2529 C2530 1.362 . S
C2530 H2522 0.930 1_655 S
C2530 C2529 1.362 . S
C2530 C2533 1.409 . S
C2531 H2523 0.930 1_655 S
C2531 C2532 1.355 . S
C2531 C2533 1.415 . S
C2532 C2531 1.355 . S
C2532 C2534 1.419 . S
C2533 C2528 1.425 . S
C2533 C2530 1.409 . S
C2533 C2531 1.415 . S
C2534 H2524 0.930 . S
C2534 C2532 1.419 . S
C2534 C2535 1.362 . S
C2535 H2525 0.930 . S
C2535 C2528 1.409 . S
C2535 C2534 1.362 . S
H2536 C2542 0.930 . S
H2537 C2545 0.930 . S
H2538 C2546 0.930 . S
H2539 C2547 0.930 . S
H2540 C2550 0.930 . S
H2541 C2551 0.930 . S
C2542 H2536 0.930 . S
C2542 C2543 1.355 . S
C2542 C2544 1.415 . S
C2543 C2542 1.355 . S
C2543 C2545 1.419 . S
C2544 C2542 1.415 . S
C2544 C2549 1.425 . S
C2544 C2551 1.409 . S
C2545 H2537 0.930 . S
C2545 C2543 1.419 . S
C2545 C2546 1.362 . S
C2546 H2538 0.930 . S
C2546 C2545 1.362 . S
C2546 C2549 1.409 . S
C2547 H2539 0.930 . S
C2547 C2548 1.355 . S
C2547 C2549 1.415 . S
C2548 C2547 1.355 . S
C2548 C2550 1.419 . S
C2549 C2544 1.425 . S
C2549 C2546 1.409 . S
C2549 C2547 1.415 . S
C2550 H2540 0.930 . S
C2550 C2548 1.419 . S
C2550 C2551 1.362 . S
C2551 H2541 0.930 . S
C2551 C2544 1.409 . S
C2551 C2550 1.362 . S
H2552 C2558 0.930 . S
H2553 C2561 0.922 1_655 S
H2554 C2562 0.931 1_655 S
H2555 C2563 0.930 . S
H2556 C2566 0.930 . S
H2557 C2567 0.930 . S
C2558 H2552 0.930 . S
C2558 C2559 1.355 . S
C2558 C2560 1.415 . S
C2559 C2558 1.355 . S
C2559 C2561 1.419 . S
C2560 C2558 1.415 . S
C2560 C2565 1.425 . S
C2560 C2567 1.409 . S
C2561 H2553 0.922 1_455 S
C2561 C2559 1.419 . S
C2561 C2562 1.362 . S
C2562 H2554 0.931 1_455 S
C2562 C2561 1.362 . S
C2562 C2565 1.409 . S
C2563 H2555 0.930 . S
C2563 C2564 1.355 . S
C2563 C2565 1.415 . S
C2564 C2563 1.355 . S
C2564 C2566 1.419 . S
C2565 C2560 1.425 . S
C2565 C2562 1.409 . S
C2565 C2563 1.415 . S
C2566 H2556 0.930 . S
C2566 C2564 1.419 . S
C2566 C2567 1.362 . S
C2567 H2557 0.930 . S
C2567 C2560 1.409 . S
C2567 C2566 1.362 . S
C1428 C1403 1.642 1_455 S
C1423 C15 1.739 . S
C1444 C1346 1.481 . S
C1439 C55 1.427 . S
C1460 C1384 1.118 . S
C1455 C95 1.200 . S
C1476 C1365 1.600 . S
C1471 C135 1.564 1_455 S
C1492 C1232 1.623 1_545 S
C1487 C175 1.733 . S
C1503 C215 1.553 1_545 S
C1508 C1251 1.543 . S
C1524 C1194 1.441 . S
C1519 C255 1.470 . S
C1535 C295 1.181 . S
C1540 C1213 1.029 . S
C1556 C1327 1.647 1_554 S
C1551 C335 1.738 . S
C1567 C375 1.568 1_554 S
C1572 C1289 1.598 . S
C1583 C415 1.480 . S
C1588 C1270 1.422 . S
C1604 C1308 1.134 . S
C1599 C455 1.217 . S
C1620 C1175 1.621 1_655 S
C1615 C495 1.740 . S
C1631 C535 1.439 . S
C1636 C1118 1.462 . S
C1652 C1156 1.018 . S
C1647 C575 1.200 . S
C1663 C615 1.562 1_655 S
C1668 C1137 1.606 . S
C1684 C1004 1.641 1_565 S
C1679 C655 1.737 . S
C1700 C1023 1.575 . S
C1695 C695 1.562 1_565 S
C1711 C735 1.461 . S
C1716 C966 1.441 . S
C1727 C775 1.217 . S
C1732 C985 1.126 . S
C1743 C815 1.729 . S
C1748 C1099 1.662 1_556 S
C1759 C855 1.606 1_556 S
C1764 C1061 1.568 . S
C1780 C1042 1.469 . S
C1775 C895 1.427 . S
C1791 C935 1.213 . S
C1796 C1080 1.149 . S
C1812 C962 1.558 . S
C1807 C21 1.620 . S
C1828 C981 1.616 . S
C1823 C61 1.788 . S
C1839 C101 1.060 . S
C1844 C1000 0.969 . S
C1855 C141 1.181 . S
C1860 C1019 1.073 . S
C1876 C1038 1.495 . S
C1871 C181 1.617 . S
C1887 C221 1.181 . S
C1892 C1057 1.076 . S
C1908 C1076 1.693 . S
C1903 C261 1.822 . S
C1924 C1095 1.056 . S
C1919 C301 1.026 . S
C1940 C1114 1.499 . S
C1935 C341 1.620 . S
C1951 C381 1.207 . S
C1956 C1133 1.143 . S
C1967 C421 1.791 . S
C1972 C1152 1.598 . S
C1983 C461 1.033 . S
C1988 C1171 1.018 . S
C1999 C501 1.549 . S
C2004 C1190 1.521 . S
C2015 C541 1.661 . S
C2020 C1209 1.624 . S
C2031 C581 1.066 . S
C2036 C1228 1.042 . S
C2047 C621 1.091 . S
C2052 C1247 1.048 . S
C2063 C661 1.538 . S
C2068 C1266 1.503 . S
C2084 C1285 1.051 . S
C2079 C701 1.105 . S
C2100 C1304 1.663 . S
C2095 C741 1.691 . S
C2116 C1323 0.969 . S
C2111 C781 0.999 . S
C2132 C1342 1.574 . S
C2127 C821 1.600 . S
C2143 C861 1.181 . S
C2148 C1361 1.164 . S
C2159 C901 1.684 . S
C2164 C1380 1.648 . S
C2175 C941 1.069 . S
C2180 C1399 1.072 . S
C2191 C2 1.651 . S
C2196 C1123 1.627 . S
C2212 C1180 1.882 . S
C2207 C42 1.925 . S
C2223 C82 1.621 . S
C2228 C1142 1.559 . S
C2244 C1161 1.498 . S
C2239 C122 1.607 . S
C2255 C162 1.660 . S
C2260 C971 1.578 . S
C2271 C202 1.607 . S
C2276 C990 1.498 . S
C2287 C242 1.923 . S
C2292 C1009 1.898 . S
C2303 C282 1.610 . S
C2308 C1028 1.593 . S
C2324 C1047 1.623 . S
C2319 C322 1.653 . S
C2340 C1085 1.534 . S
C2335 C362 1.618 . S
C2351 C402 1.921 . S
C2356 C1104 1.902 . S
C2367 C442 1.626 . S
C2372 C1066 1.552 . S
C2388 C1351 1.600 . S
C2383 C482 1.652 . S
C2404 C1408 1.797 . S
C2399 C522 1.869 . S
C2415 C562 1.620 . S
C2420 C1370 1.538 . S
C2436 C1389 1.440 . S
C2431 C602 1.554 . S
C2447 C642 1.651 . S
C2452 C1199 1.597 . S
C2463 C682 1.570 . S
C2468 C1218 1.458 . S
C2479 C722 1.805 . S
C2484 C1237 1.721 . S
C2500 C1256 1.527 . S
C2495 C762 1.607 . S
C2516 C1275 1.587 . S
C2511 C802 1.647 . S
C2532 C1313 1.499 . S
C2527 C842 1.567 . S
C2543 C882 1.867 . S
C2548 C1332 1.801 . S
C2564 C1294 1.540 . S
C2559 C922 1.616 . S
