# Generated by pormake.
# Topology zzz, (3,6)-cn, num edge types: 1
# Building blocks:
#     Node 0, Type 0, BuildingBlock: PAMTOO_clean_linker_0, # of connection points: 3
#     Node 1, Type 0, BuildingBlock: PAMTOO_clean_linker_0, # of connection points: 3
#     Node 2, Type 0, BuildingBlock: PAMTOO_clean_linker_0, # of connection points: 3
#     Node 3, Type 0, BuildingBlock: PAMTOO_clean_linker_0, # of connection points: 3
#     Node 4, Type 0, BuildingBlock: PAMTOO_clean_linker_0, # of connection points: 3
#     Node 5, Type 0, BuildingBlock: PAMTOO_clean_linker_0, # of connection points: 3
#     Node 6, Type 0, BuildingBlock: PAMTOO_clean_linker_0, # of connection points: 3
#     Node 7, Type 0, BuildingBlock: PAMTOO_clean_linker_0, # of connection points: 3
#     Node 8, Type 1, BuildingBlock: HISSIN_clean_sbu_0, # of connection points: 6
#     Node 9, Type 1, BuildingBlock: HISSIN_clean_sbu_0, # of connection points: 6
#     Node 10, Type 1, BuildingBlock: HISSIN_clean_sbu_0, # of connection points: 6
#     Node 11, Type 1, BuildingBlock: HISSIN_clean_sbu_0, # of connection points: 6
#     Edge 12, Type (0, 1), BuildingBlock: ZUJKAS_clean_linker_0, # of connection points: 2
#     Edge 13, Type (0, 1), BuildingBlock: ZUJKAS_clean_linker_0, # of connection points: 2
#     Edge 14, Type (0, 1), BuildingBlock: ZUJKAS_clean_linker_0, # of connection points: 2
#     Edge 15, Type (0, 1), BuildingBlock: ZUJKAS_clean_linker_0, # of connection points: 2
#     Edge 16, Type (0, 1), BuildingBlock: ZUJKAS_clean_linker_0, # of connection points: 2
#     Edge 17, Type (0, 1), BuildingBlock: ZUJKAS_clean_linker_0, # of connection points: 2
#     Edge 18, Type (0, 1), BuildingBlock: ZUJKAS_clean_linker_0, # of connection points: 2
#     Edge 19, Type (0, 1), BuildingBlock: ZUJKAS_clean_linker_0, # of connection points: 2
#     Edge 20, Type (0, 1), BuildingBlock: ZUJKAS_clean_linker_0, # of connection points: 2
#     Edge 21, Type (0, 1), BuildingBlock: ZUJKAS_clean_linker_0, # of connection points: 2
#     Edge 22, Type (0, 1), BuildingBlock: ZUJKAS_clean_linker_0, # of connection points: 2
#     Edge 23, Type (0, 1), BuildingBlock: ZUJKAS_clean_linker_0, # of connection points: 2
#     Edge 24, Type (0, 1), BuildingBlock: ZUJKAS_clean_linker_0, # of connection points: 2
#     Edge 25, Type (0, 1), BuildingBlock: ZUJKAS_clean_linker_0, # of connection points: 2
#     Edge 26, Type (0, 1), BuildingBlock: ZUJKAS_clean_linker_0, # of connection points: 2
#     Edge 27, Type (0, 1), BuildingBlock: ZUJKAS_clean_linker_0, # of connection points: 2
#     Edge 28, Type (0, 1), BuildingBlock: ZUJKAS_clean_linker_0, # of connection points: 2
#     Edge 29, Type (0, 1), BuildingBlock: ZUJKAS_clean_linker_0, # of connection points: 2
#     Edge 30, Type (0, 1), BuildingBlock: ZUJKAS_clean_linker_0, # of connection points: 2
#     Edge 31, Type (0, 1), BuildingBlock: ZUJKAS_clean_linker_0, # of connection points: 2
#     Edge 32, Type (0, 1), BuildingBlock: ZUJKAS_clean_linker_0, # of connection points: 2
#     Edge 33, Type (0, 1), BuildingBlock: ZUJKAS_clean_linker_0, # of connection points: 2
#     Edge 34, Type (0, 1), BuildingBlock: ZUJKAS_clean_linker_0, # of connection points: 2
#     Edge 35, Type (0, 1), BuildingBlock: ZUJKAS_clean_linker_0, # of connection points: 2
# Relax obj value: 0.216
# Max RMSD: 0.169
# Mean RMSD: 0.090
data_MOF--net-zzz--node1-HISSIN_clean_sbu_0--node2-PAMTOO_clean_linker_0--edge1-ZUJKAS_clean_linker_0
_symmetry_space_group_name_H-M    P1
_symmetry_Int_Tables_number       1
_symmetry_cell_setting            triclinic
loop_
_symmetry_equiv_pos_as_xyz
'x, y, z'
_cell_length_a     65.042574
_cell_length_b     65.182204
_cell_length_c     21.157532
_cell_angle_alpha  89.834728
_cell_angle_beta   92.035405
_cell_angle_gamma 90.440944
loop_
_atom_site_label
_atom_site_type_symbol
_atom_site_fract_x
_atom_site_fract_y
_atom_site_fract_z
_atom_type_partial_charge
H0 H 0.80116 0.55979 0.23596 0.0
H1 H 0.74063 0.55206 0.15127 0.0
H2 H 0.75391 0.52963 0.34003 0.0
H3 H 0.71164 0.50601 0.25847 0.0
C4 C 0.71751 0.51612 0.22067 0.0
O5 O 0.72484 0.53416 0.24819 0.0
H6 H 0.73013 0.5075 0.19865 0.0
C7 C 0.78523 0.55501 0.23993 0.0
C8 C 0.77929 0.5451 0.2953 0.0
C9 C 0.77157 0.55732 0.18768 0.0
C10 C 0.75126 0.55039 0.19153 0.0
C11 C 0.74476 0.54051 0.24619 0.0
C12 C 0.75887 0.5375 0.29802 0.0
H13 H 0.97313 0.80955 0.21709 0.0
H14 H 0.97937 0.75372 0.11229 0.0
H15 H 0.01968 0.76599 0.27408 0.0
H16 H 0.03922 0.73701 0.15857 0.0
C17 C 0.02362 0.73589 0.1356 0.0
O18 O 1.00927 0.73885 0.18193 0.0
H19 H 0.02248 0.74822 0.09914 0.0
C20 C 0.98027 0.7947 0.21175 0.0
C21 C 0.99657 0.78925 0.2534 0.0
C22 C 0.97423 0.78225 0.1603 0.0
C23 C 0.98391 0.76338 0.15206 0.0
C24 C 1.00026 0.75732 0.19253 0.0
C25 C 1.0069 0.77047 0.24301 0.0
H26 H 0.72915 0.9753 0.22397 0.0
H27 H 0.78457 0.97772 0.11975 0.0
H28 H 0.77099 0.02637 0.24964 0.0
H29 H 0.80352 0.03981 0.13021 0.0
C30 C 0.80192 0.02356 0.1151 0.0
O31 O 0.79899 0.01149 0.16881 0.0
H32 H 0.78796 0.02276 0.08311 0.0
C33 C 0.74366 0.98282 0.21437 0.0
C34 C 0.74817 1.00171 0.2431 0.0
C35 C 0.75645 0.97423 0.16968 0.0
C36 C 0.77485 0.98415 0.15513 0.0
C37 C 0.78052 1.00278 0.18395 0.0
C38 C 0.76702 0.01175 0.22819 0.0
H39 H 0.49703 0.72289 0.16712 0.0
H40 H 0.49941 0.78435 0.09201 0.0
H41 H 0.53772 0.76786 0.25352 0.0
H42 H 0.54847 0.78982 0.10119 0.0
C43 C 0.54398 0.80295 0.13126 0.0
O44 O 0.52791 0.79746 0.1696 0.0
H45 H 0.55771 0.8066 0.16204 0.0
C46 C 0.50302 0.73843 0.16908 0.0
C47 C 0.51774 0.74349 0.2168 0.0
C48 C 0.49612 0.75294 0.12382 0.0
C49 C 0.5045 0.77283 0.12597 0.0
C50 C 0.51974 0.77818 0.17131 0.0
C51 C 0.52614 0.76362 0.21777 0.0
H52 H 0.23615 0.48018 0.0946 0.0
H53 H 0.29584 0.49599 0.1736 0.0
H54 H 0.28112 0.50901 0.97788 0.0
H55 H 0.33593 0.50708 0.02253 0.0
C56 C 0.32788 0.50058 0.06352 0.0
O57 O 0.30989 0.51149 0.07087 0.0
H58 H 0.3243 0.48422 0.05203 0.0
C59 C 0.25168 0.48575 0.08783 0.0
C60 C 0.25682 0.49392 0.02885 0.0
C61 C 0.26557 0.48648 0.14006 0.0
C62 C 0.28518 0.49491 0.13313 0.0
C63 C 0.29104 0.50259 0.07471 0.0
C64 C 0.27679 0.50236 0.02248 0.0
H65 H 0.06837 0.23387 0.06551 0.0
H66 H 0.06369 0.28889 0.17491 0.0
H67 H 0.02181 0.27817 0.01552 0.0
H68 H 0.02012 0.29554 0.18973 0.0
C69 C 0.01941 0.30807 0.15384 0.0
O70 O 0.03367 0.30485 0.10745 0.0
H71 H 1.00376 0.30745 0.13106 0.0
C72 C 0.06145 0.24877 0.07239 0.0
C73 C 0.04476 0.25453 0.03293 0.0
C74 C 0.06814 0.26081 0.124 0.0
C75 C 0.05869 0.27964 0.13471 0.0
C76 C 0.04213 0.28619 0.09575 0.0
C77 C 0.03482 0.27339 0.04516 0.0
H78 H 0.31421 0.06807 0.09515 0.0
H79 H 0.26194 0.0602 0.2115 0.0
H80 H 0.27232 0.01743 0.06106 0.0
H81 H 0.2217 0.02675 0.09763 0.0
C82 C 0.22711 0.03436 0.14219 0.0
O83 O 0.24717 0.0278 0.15612 0.0
H84 H 0.22696 0.05119 0.13304 0.0
C85 C 0.30002 0.06002 0.1051 0.0
C86 C 0.29481 0.04232 0.07037 0.0
C87 C 0.28844 0.06647 0.15599 0.0
C88 C 0.27072 0.05549 0.17149 0.0
C89 C 0.26434 0.03815 0.13702 0.0
C90 C 0.27666 0.03126 0.08657 0.0
H91 H 0.53727 0.31802 0.16465 0.0
H92 H 0.53414 0.25654 0.23515 0.0
H93 H 0.5057 0.27109 0.05384 0.0
H94 H 0.48241 0.23092 0.13479 0.0
C95 C 0.49448 0.23447 0.17168 0.0
O96 O 0.51182 0.24175 0.14188 0.0
H97 H 0.48796 0.24651 0.20225 0.0
C98 C 0.53219 0.30228 0.15779 0.0
C99 C 0.52169 0.29655 0.10115 0.0
C100 C 0.5368 0.28799 0.20567 0.0
C101 C 0.53034 0.26765 0.19854 0.0
C102 C 0.51842 0.26162 0.14543 0.0
C103 C 0.51417 0.27603 0.09612 0.0
Eu104 Eu 1.00666 0.02923 0.59262 0.0
Eu105 Eu 0.03468 0.01141 0.70987 0.0
C106 C 0.02709 0.06044 0.7027 0.0
C107 C 1.00266 0.06335 0.45912 0.0
C108 C 0.02067 0.07131 0.48855 0.0
C109 C 1.0097 0.08325 0.36521 0.0
C110 C 0.0331 0.08502 0.45686 0.0
C111 C 0.99719 0.06932 0.39719 0.0
C112 C 0.02787 0.09108 0.39478 0.0
C113 C 0.99123 0.04754 0.4929 0.0
O114 O 1.00166 0.01103 0.7449 0.0
O115 O 0.9813 0.02149 0.66001 0.0
C116 C 0.98338 0.01536 0.7193 0.0
O117 O 1.00113 0.99509 0.58144 0.0
O118 O 0.04094 1.0086 0.81156 0.0
O119 O 0.05759 0.98982 0.7473 0.0
O120 O 0.02823 0.98415 0.64446 0.0
C121 C 0.01363 0.98047 0.60117 0.0
O122 O 0.03934 0.02705 0.55654 0.0
O123 O 0.05986 0.02229 0.64541 0.0
O124 O 0.03804 0.04548 0.72818 0.0
O125 O 0.99943 0.02941 0.491 0.0
O126 O 0.98643 0.0525 0.55017 0.0
O127 O 0.01428 0.05717 0.65408 0.0
C128 C 0.0433 0.97346 0.83579 0.0
C129 C 0.04255 0.95463 0.80338 0.0
C130 C 0.01958 0.9595 0.91139 0.0
C131 C 0.02982 0.93875 0.82331 0.0
C132 C 0.03238 0.9754 0.89157 0.0
C133 C 0.01763 0.94131 0.87614 0.0
C134 C 0.05171 0.99199 0.80519 0.0
C135 C 0.05776 0.02566 0.58413 0.0
H136 H 0.02529 0.06673 0.53614 0.0
H137 H 1.00535 0.08766 0.31722 0.0
H138 H 0.04673 0.09107 0.48141 0.0
H139 H 0.98352 0.06306 0.3735 0.0
H140 H 0.05076 0.95254 0.76023 0.0
H141 H 1.01071 0.9617 0.9532 0.0
H142 H 0.02867 0.92491 0.79516 0.0
H143 H 0.03271 0.98968 0.91768 0.0
Eu144 Eu 0.53195 0.03236 0.71153 0.0
Eu145 Eu 0.50988 1.00691 0.59783 0.0
C146 C 0.52742 0.98224 0.7193 0.0
C147 C 0.56423 0.03685 0.85601 0.0
C148 C 0.55678 0.01873 0.88367 0.0
C149 C 0.59881 0.02763 0.89175 0.0
C150 C 0.57031 1.00474 0.91228 0.0
C151 C 0.58526 0.04157 0.86264 0.0
C152 C 0.59157 1.00863 0.91427 0.0
C153 C 0.55119 0.04822 0.80969 0.0
O154 O 0.48522 0.00986 0.67132 0.0
O155 O 0.49766 0.03784 0.72528 0.0
C156 C 0.48259 0.02467 0.71236 0.0
O157 O 0.52791 0.05633 0.63443 0.0
O158 O 0.48681 0.98511 0.56057 0.0
O159 O 0.50624 1.00136 0.49643 0.0
O160 O 0.50188 0.04024 0.57823 0.0
C161 C 0.51349 0.05652 0.58931 0.0
O162 O 0.55897 0.01925 0.65821 0.0
O163 O 0.54237 0.01214 0.56385 0.0
O164 O 0.52418 0.9814 0.65758 0.0
O165 O 0.5583 0.04921 0.75294 0.0
O166 O 0.53162 0.04374 0.80846 0.0
O167 O 0.52815 0.99996 0.74889 0.0
C168 C 0.47087 1.00149 0.47171 0.0
C169 C 0.47318 0.01206 0.41436 0.0
C170 C 0.43854 0.01914 0.48548 0.0
C171 C 0.45881 0.02673 0.39436 0.0
C172 C 0.45294 1.00457 0.50566 0.0
C173 C 0.44173 0.03091 0.43095 0.0
C174 C 0.48892 0.99151 0.50263 0.0
C175 C 0.55957 0.01516 0.59729 0.0
H176 H 0.54062 0.01463 0.87955 0.0
H177 H 0.61506 0.03138 0.8943 0.0
H178 H 0.56418 0.99032 0.92917 0.0
H179 H 0.59138 0.05543 0.84176 0.0
H180 H 0.48683 0.01002 0.38726 0.0
H181 H 0.42552 0.02199 0.51465 0.0
H182 H 0.46138 0.03526 0.3513 0.0
H183 H 0.45064 0.9968 0.5502 0.0
Eu184 Eu 0.5023 0.5298 0.70456 0.0
Eu185 Eu 0.53443 0.51019 0.6059 0.0
C186 C 0.54996 0.52384 0.74761 0.0
C187 C 0.46276 0.56508 0.77189 0.0
C188 C 0.46907 0.58196 0.73602 0.0
C189 C 0.4335 0.58455 0.80584 0.0
C190 C 0.45821 0.6003 0.73725 0.0
C191 C 0.44458 0.56625 0.80518 0.0
C192 C 0.44062 0.60206 0.77379 0.0
C193 C 0.47557 0.54667 0.7769 0.0
O194 O 0.52906 0.48412 0.6745 0.0
O195 O 0.50052 0.49554 0.72479 0.0
C196 C 0.51387 0.48106 0.71295 0.0
O197 O 0.48505 0.52898 0.60974 0.0
O198 O 0.56532 0.50971 0.56839 0.0
O199 O 0.54183 0.48915 0.53043 0.0
O200 O 0.50285 0.50379 0.56108 0.0
C201 C 0.48652 0.51543 0.56438 0.0
O202 O 0.51673 0.55736 0.6559 0.0
O203 O 0.52756 0.54181 0.56602 0.0
O204 O 0.55421 0.52288 0.68743 0.0
O205 O 0.47089 0.53189 0.73741 0.0
O206 O 0.49538 0.54998 0.78246 0.0
O207 O 0.53084 0.52355 0.76559 0.0
C208 C 0.57505 0.47621 0.54208 0.0
C209 C 0.57505 0.46518 0.59916 0.0
C210 C 0.5961 0.44995 0.49662 0.0
C211 C 0.58478 0.4462 0.60403 0.0
C212 C 0.5862 0.46887 0.49161 0.0
C213 C 0.59475 0.43806 0.55198 0.0
C214 C 0.56135 0.49379 0.53284 0.0
C215 C 0.52294 0.55848 0.5973 0.0
H216 H 0.48295 0.58126 0.70925 0.0
H217 H 0.41982 0.58521 0.83345 0.0
H218 H 0.46441 0.61341 0.7126 0.0
H219 H 0.43932 0.55323 0.83232 0.0
H220 H 0.56655 0.4707 0.63871 0.0
H221 H 0.60343 0.44393 0.45546 0.0
H222 H 0.58354 0.43736 0.6472 0.0
H223 H 0.58627 0.47719 0.44721 0.0
Eu224 Eu 0.02843 0.53547 0.59536 0.0
Eu225 Eu 0.01153 0.50589 0.7045 0.0
C226 C 0.05997 0.51303 0.69533 0.0
C227 C 0.06814 0.55625 0.49376 0.0
C228 C 0.08381 0.55504 0.54119 0.0
C229 C 0.09243 0.54537 0.41646 0.0
C230 C 0.10337 0.54832 0.52677 0.0
C231 C 0.07281 0.55209 0.43095 0.0
C232 C 0.10764 0.54269 0.4647 0.0
C233 C 0.0465 0.55771 0.51134 0.0
O234 O 0.01759 0.53683 0.75151 0.0
O235 O 0.01466 0.55758 0.66478 0.0
C236 C 0.01526 0.5552 0.72656 0.0
O237 O 0.99484 0.53096 0.56652 0.0
O238 O 0.01262 0.49492 0.80215 0.0
O239 O 0.98938 0.48309 0.73605 0.0
O240 O 0.9833 0.52222 0.66388 0.0
C241 C 0.97962 0.52766 0.60464 0.0
O242 O 0.03548 0.5031 0.56197 0.0
O243 O 0.01207 0.48517 0.61875 0.0
O244 O 0.04567 0.49915 0.70534 0.0
O245 O 0.03517 0.54171 0.49667 0.0
O246 O 0.04337 0.56412 0.56849 0.0
O247 O 0.05546 0.52991 0.66387 0.0
C248 C 0.97863 0.49294 0.83484 0.0
C249 C 0.97547 0.51417 0.8378 0.0
C250 C 0.9469 0.48729 0.88931 0.0
C251 C 0.95811 0.52192 0.8653 0.0
C252 C 0.96441 0.4795 0.8614 0.0
C253 C 0.94343 0.5086 0.89045 0.0
C254 C 0.99497 0.48537 0.79537 0.0
C255 C 0.02457 0.48633 0.57138 0.0
H256 H 0.0807 0.55809 0.59019 0.0
H257 H 0.09525 0.54102 0.36819 0.0
H258 H 0.1149 0.54673 0.56467 0.0
H259 H 0.06092 0.5527 0.3938 0.0
H260 H 0.98597 0.52481 0.81614 0.0
H261 H 0.93592 0.47666 0.90882 0.0
H262 H 0.95575 0.53835 0.86404 0.0
H263 H 0.96646 0.46305 0.85855 0.0
H264 H 0.23184 0.03829 0.27425 0.0
H265 H 0.20513 0.03558 0.35388 0.0
H266 H 0.16003 0.02106 0.20638 0.0
H267 H 0.1866 0.02304 0.12807 0.0
H268 H 0.17145 0.0563 0.37479 0.0
H269 H 0.14481 0.97731 0.32528 0.0
H270 H 0.16794 0.98758 0.29249 0.0
H271 H 0.14315 0.99258 0.25484 0.0
C272 C 0.21635 0.03387 0.25917 0.0
C273 C 0.21171 0.03005 0.1946 0.0
C274 C 0.20093 0.03253 0.30481 0.0
C275 C 0.1803 0.02752 0.28736 0.0
C276 C 0.17572 0.02411 0.22262 0.0
H277 H 0.05897 0.02808 0.45414 0.0
H278 H 0.08885 0.02868 0.38704 0.0
C279 C 0.19107 0.02528 0.17739 0.0
C280 C 0.16338 0.02677 0.33543 0.0
H281 H 0.12178 0.99835 0.3825 0.0
C282 C 0.16082 0.04345 0.37679 0.0
C283 C 0.1492 0.01009 0.33933 0.0
C284 C 0.15154 0.99081 0.30109 0.0
C285 C 0.1444 0.04421 0.41928 0.0
C286 C 0.1299 0.02785 0.42144 0.0
C287 C 0.13262 0.01105 0.381 0.0
C288 C 0.11159 0.02803 0.46402 0.0
C289 C 0.14226 0.06287 0.46034 0.0
C290 C 0.114 0.02739 0.53055 0.0
C291 C 0.09675 0.02683 0.56956 0.0
C292 C 0.07647 0.02704 0.54338 0.0
C293 C 0.07417 0.02792 0.47674 0.0
C294 C 0.09137 0.02824 0.43791 0.0
H295 H 0.15234 0.07572 0.4455 0.0
H296 H 0.12607 0.06818 0.459 0.0
H297 H 0.14655 0.05883 0.51003 0.0
H298 H 0.12929 0.02697 0.55249 0.0
H299 H 0.09934 0.0261 0.62035 0.0
H300 H 0.48428 0.19398 0.14711 0.0
H301 H 0.48765 0.16425 0.21795 0.0
H302 H 0.5187 0.20224 0.35849 0.0
H303 H 0.51438 0.23213 0.28897 0.0
H304 H 0.51799 0.14338 0.27116 0.0
H305 H 0.4755 0.17834 0.46496 0.0
H306 H 0.47673 0.19013 0.38801 0.0
H307 H 0.49766 0.19324 0.4454 0.0
C308 C 0.49194 0.19596 0.193 0.0
C309 C 0.49905 0.21551 0.21225 0.0
C310 C 0.49384 0.17891 0.23368 0.0
C311 C 0.50296 0.18089 0.29477 0.0
C312 C 0.51099 0.20024 0.31273 0.0
H313 H 0.53205 0.09449 0.60282 0.0
H314 H 0.52918 0.12417 0.53169 0.0
C315 C 0.50887 0.21733 0.27234 0.0
C316 C 0.50396 0.1628 0.33934 0.0
H317 H 0.4926 0.14697 0.48909 0.0
C318 C 0.5123 0.14421 0.31863 0.0
C319 C 0.49646 0.16357 0.40158 0.0
C320 C 0.48589 0.18231 0.42612 0.0
C321 C 0.51373 0.12677 0.35832 0.0
C322 C 0.50658 0.12771 0.42072 0.0
C323 C 0.49821 0.14621 0.44151 0.0
C324 C 0.50772 0.10969 0.46506 0.0
C325 C 0.52327 0.10751 0.33355 0.0
C326 C 0.49628 0.09167 0.45241 0.0
C327 C 0.49773 0.07467 0.49342 0.0
C328 C 0.51075 0.07519 0.5482 0.0
C329 C 0.52189 0.09342 0.56128 0.0
C330 C 0.52028 0.11046 0.52051 0.0
H331 H 0.53184 0.11045 0.28989 0.0
H332 H 0.53394 0.10066 0.3698 0.0
H333 H 0.51095 0.09609 0.32228 0.0
H334 H 0.48623 0.09071 0.41058 0.0
H335 H 0.48889 0.06099 0.48147 0.0
H336 H 0.33349 0.5322 0.15111 0.0
H337 H 0.35947 0.53468 0.23816 0.0
H338 H 0.38199 0.47483 0.19117 0.0
H339 H 0.35606 0.47224 0.10462 0.0
H340 H 0.36784 0.50667 0.34647 0.0
H341 H 0.43348 0.51325 0.18664 0.0
H342 H 0.40721 0.51782 0.16005 0.0
H343 H 0.41624 0.49204 0.17097 0.0
C344 C 0.34375 0.51943 0.16001 0.0
C345 C 0.34238 0.50181 0.12163 0.0
C346 C 0.35867 0.5209 0.20967 0.0
C347 C 0.37285 0.50501 0.22109 0.0
C348 C 0.37139 0.48738 0.18313 0.0
H349 H 0.48155 0.4868 0.46936 0.0
H350 H 0.45365 0.48421 0.38884 0.0
C351 C 0.35643 0.48585 0.13392 0.0
C352 C 0.38941 0.5069 0.27179 0.0
H353 H 0.44169 0.50952 0.29579 0.0
C354 C 0.38399 0.50741 0.33544 0.0
C355 C 0.41052 0.50773 0.25758 0.0
C356 C 0.41731 0.50785 0.19014 0.0
C357 C 0.39905 0.50825 0.38511 0.0
C358 C 0.42022 0.50918 0.37094 0.0
C359 C 0.42557 0.50877 0.30711 0.0
C360 C 0.43705 0.51062 0.42126 0.0
C361 C 0.39208 0.50743 0.45234 0.0
C362 C 0.43736 0.52645 0.46635 0.0
C363 C 0.45324 0.52786 0.51286 0.0
C364 C 0.46949 0.51366 0.51513 0.0
C365 C 0.46934 0.49799 0.4694 0.0
C366 C 0.45334 0.49651 0.42313 0.0
H367 H 0.37653 0.50038 0.45515 0.0
H368 H 0.40297 0.49857 0.48321 0.0
H369 H 0.39125 0.52328 0.47106 0.0
H370 H 0.42542 0.53793 0.46517 0.0
H371 H 0.45288 0.54029 0.54668 0.0
H372 H 0.05304 0.32099 0.22773 0.0
H373 H 0.0564 0.35169 0.29461 0.0
H374 H 0.99617 0.37125 0.22897 0.0
H375 H 0.99304 0.34089 0.16122 0.0
H376 H 0.02169 0.40377 0.23864 0.0
H377 H 0.02917 0.35883 0.46081 0.0
H378 H 0.0487 0.35325 0.40572 0.0
H379 H 0.02223 0.34713 0.38586 0.0
C380 C 0.04069 0.33203 0.22675 0.0
C381 C 0.02284 0.32846 0.1886 0.0
C382 C 0.04248 0.3495 0.26578 0.0
C383 C 0.02635 0.36379 0.26842 0.0
C384 C 1.00885 0.36058 0.22849 0.0
H385 H 1.00277 0.44998 0.57248 0.0
H386 H 1.00399 0.42125 0.4988 0.0
C387 C 1.00709 0.34317 0.18944 0.0
C388 C 0.0274 0.38181 0.3132 0.0
H389 H 0.0332 0.39482 0.46992 0.0
C390 C 0.02427 0.40176 0.28919 0.0
C391 C 0.03041 0.37942 0.37963 0.0
C392 C 0.03261 0.35851 0.40977 0.0
C393 C 0.02417 0.41915 0.32907 0.0
C394 C 0.02768 0.41681 0.39533 0.0
C395 C 0.03072 0.39685 0.41934 0.0
C396 C 0.02735 0.43463 0.44081 0.0
C397 C 0.01959 0.43982 0.29976 0.0
C398 C 0.04028 0.45191 0.43425 0.0
C399 C 0.03955 0.46856 0.47654 0.0
C400 C 0.02601 0.46836 0.52716 0.0
C401 C 0.01341 0.45086 0.53433 0.0
C402 C 0.0141 0.43429 0.49199 0.0
H403 H 0.01169 0.43831 0.25255 0.0
H404 H 1.0098 0.44911 0.33049 0.0
H405 H 0.03425 0.44826 0.29338 0.0
H406 H 0.05108 0.45253 0.39651 0.0
H407 H 0.04961 0.48162 0.4694 0.0
H408 H 0.80479 0.01825 0.98663 0.0
H409 H 0.83543 0.01512 0.92355 0.0
H410 H 0.87365 0.01506 0.09398 0.0
H411 H 0.8428 0.01826 0.15754 0.0
H412 H 0.86803 0.04251 0.91601 0.0
H413 H 0.89801 0.96714 0.99708 0.0
H414 H 0.87211 0.97526 0.01142 0.0
H415 H 0.89334 0.98513 0.05904 0.0
C416 C 0.81965 0.01704 0.01106 0.0
C417 C 0.82107 0.01797 0.07775 0.0
C418 C 0.8373 0.01542 0.97462 0.0
C419 C 0.85716 0.01458 1.00324 0.0
C420 C 0.85867 0.0152 0.07003 0.0
H421 H 0.98178 1.00841 0.84819 0.0
H422 H 0.95186 1.00846 0.91522 0.0
C423 C 0.84093 0.01698 0.10665 0.0
C424 C 0.87604 0.01421 0.9628 0.0
H425 H 0.9189 0.98631 0.92883 0.0
C426 C 0.87908 0.03014 0.91886 0.0
C427 C 0.89081 0.99828 0.96607 0.0
C428 C 0.88842 0.98036 0.01049 0.0
C429 C 0.8963 0.03078 0.87951 0.0
C430 C 0.91092 0.01462 0.88171 0.0
C431 C 0.90792 0.99874 0.92606 0.0
C432 C 0.9294 0.01406 0.8393 0.0
C433 C 0.8989 0.0493 0.83752 0.0
C434 C 0.92727 0.01667 0.77308 0.0
C435 C 0.94455 0.01688 0.73434 0.0
C436 C 0.96466 0.01406 0.76006 0.0
C437 C 0.96671 0.0107 0.82601 0.0
C438 C 0.94944 0.01071 0.86477 0.0
H439 H 0.89084 0.06287 0.85609 0.0
H440 H 0.91538 0.05338 0.83285 0.0
H441 H 0.89209 0.04594 0.78982 0.0
H442 H 0.91216 0.01854 0.75089 0.0
H443 H 0.9421 0.0193 0.684 0.0
H444 H 0.53051 0.80361 0.00605 0.0
H445 H 0.52705 0.83333 0.93485 0.0
H446 H 0.54198 0.87378 0.09095 0.0
H447 H 0.5459 0.84403 0.16176 0.0
H448 H 0.50327 0.86741 0.92877 0.0
H449 H 0.58453 0.89159 0.96773 0.0
H450 H 0.57496 0.86721 0.99514 0.0
H451 H 0.57072 0.89023 0.03951 0.0
C452 C 0.53289 0.81887 0.02521 0.0
C453 C 0.53879 0.82144 0.0894 0.0
C454 C 0.53094 0.83589 0.98441 0.0
C455 C 0.53484 0.85593 0.00671 0.0
C456 C 0.53953 0.85855 0.07174 0.0
H457 H 0.53559 0.97886 0.84678 0.0
H458 H 0.53731 0.94809 0.91227 0.0
C459 C 0.54154 0.84153 0.11248 0.0
C460 C 0.53428 0.87395 0.96199 0.0
H461 H 0.56286 0.91469 0.91013 0.0
C462 C 0.51637 0.87765 0.92448 0.0
C463 C 0.55136 0.88741 0.95563 0.0
C464 C 0.57155 0.88384 0.99112 0.0
C465 C 0.51486 0.89459 0.88273 0.0
C466 C 0.53184 0.90819 0.87713 0.0
C467 C 0.5498 0.90438 0.91414 0.0
C468 C 0.53106 0.92692 0.83536 0.0
C469 C 0.49482 0.89815 0.84643 0.0
C470 C 0.52735 0.92554 0.76944 0.0
C471 C 0.5265 0.94333 0.73131 0.0
C472 C 0.52935 0.96296 0.75814 0.0
C473 C 0.53337 0.96416 0.82397 0.0
C474 C 0.53433 0.94646 0.86182 0.0
H475 H 0.48191 0.88943 0.86696 0.0
H476 H 0.49089 0.9147 0.84559 0.0
H477 H 0.49633 0.89301 0.79688 0.0
H478 H 0.5252 0.91069 0.74731 0.0
H479 H 0.5234 0.94169 0.68095 0.0
H480 H 0.67596 0.52003 0.23813 0.0
H481 H 0.64802 0.52318 0.15744 0.0
H482 H 0.69264 0.52512 0.01157 0.0
H483 H 0.72053 0.52166 0.09215 0.0
H484 H 0.63839 0.55223 0.06515 0.0
H485 H 0.65557 0.47785 0.95258 0.0
H486 H 0.66677 0.48529 0.02841 0.0
H487 H 0.67697 0.49541 0.95673 0.0
C488 C 0.67977 0.52124 0.18883 0.0
C489 C 0.70041 0.52025 0.1714 0.0
C490 C 0.6638 0.52304 0.14268 0.0
C491 C 0.66808 0.52388 0.078 0.0
C492 C 0.6888 0.52393 0.06084 0.0
H493 H 0.5916 0.5247 0.72886 0.0
H494 H 0.61981 0.52572 0.80848 0.0
C495 C 0.70477 0.52212 0.10697 0.0
C496 C 0.65091 0.52438 0.02874 0.0
H497 H 0.63014 0.4983 0.90112 0.0
C498 C 0.63657 0.5404 0.0294 0.0
C499 C 0.64842 0.50897 0.98183 0.0
C500 C 0.66261 0.49079 0.97994 0.0
C501 C 0.62014 0.54164 0.98413 0.0
C502 C 0.61761 0.52619 0.93735 0.0
C503 C 0.63199 0.5102 0.93666 0.0
C504 C 0.60018 0.52621 0.88888 0.0
C505 C 0.60593 0.55979 0.98601 0.0
C506 C 0.57957 0.52596 0.907 0.0
C507 C 0.56332 0.52543 0.86139 0.0
C508 C 0.56723 0.52498 0.79631 0.0
C509 C 0.58789 0.52513 0.77834 0.0
C510 C 0.60411 0.52568 0.82397 0.0
H511 H 0.61322 0.57293 0.01181 0.0
H512 H 0.60126 0.56493 0.93756 0.0
H513 H 0.59186 0.55533 0.01104 0.0
H514 H 0.576 0.52584 0.95659 0.0
H515 H 0.54768 0.52516 0.8773 0.0
H516 H 0.98788 0.71375 0.10175 0.0
H517 H 0.98477 0.68245 0.03712 0.0
H518 H 0.0506 0.68188 0.02003 0.0
H519 H 0.05372 0.71254 0.08588 0.0
H520 H 0.99338 0.67439 0.91885 0.0
H521 H 0.04238 0.62347 0.06739 0.0
H522 H 0.03401 0.64808 0.0949 0.0
H523 H 0.05609 0.64626 0.04612 0.0
C524 C 1.00171 0.7066 0.08564 0.0
C525 C 0.02113 0.71529 0.10131 0.0
C526 C 0.99993 0.68875 0.04805 0.0
C527 C 0.01749 0.67921 0.02449 0.0
C528 C 0.03681 0.68822 0.0391 0.0
H529 H 0.0189 0.59627 0.69634 0.0
H530 H 0.01869 0.62584 0.76737 0.0
C531 C 0.03858 0.70589 0.07687 0.0
C532 C 0.01571 0.66045 0.98267 0.0
H533 H 0.03541 0.6124 0.961 0.0
C534 C 1.00248 0.6608 0.92852 0.0
C535 C 0.02723 0.64235 0.995 0.0
C536 C 0.04054 0.6399 0.05437 0.0
C537 C 1.00086 0.64404 0.88614 0.0
C538 C 0.01324 0.62639 0.89665 0.0
C539 C 0.02607 0.62586 0.9517 0.0
C540 C 0.01302 0.60825 0.85211 0.0
C541 C 0.98548 0.64535 0.83125 0.0
C542 C 1.01058 0.58812 0.87525 0.0
C543 C 1.0111 0.57106 0.83465 0.0
C544 C 0.014 0.57353 0.76932 0.0
C545 C 0.01637 0.59367 0.74605 0.0
C546 C 0.01609 0.61072 0.78685 0.0
H547 H 0.97286 0.65613 0.84131 0.0
H548 H 0.99332 0.6512 0.78903 0.0
H549 H 0.97861 0.6301 0.81983 0.0
H550 H 1.00825 0.58553 0.92509 0.0
H551 H 1.00924 0.55589 0.85469 0.0
H552 H 0.10604 0.24369 0.10998 0.0
H553 H 0.11742 0.21343 0.16997 0.0
H554 H 0.07055 0.22433 0.30481 0.0
H555 H 0.05975 0.25478 0.24665 0.0
H556 H 0.10171 0.19917 0.35358 0.0
H557 H 0.07191 0.17316 0.11587 0.0
H558 H 0.09541 0.18778 0.11916 0.0
H559 H 0.07159 0.19975 0.1382 0.0
C560 C 0.09912 0.24034 0.15472 0.0
C561 C 0.08161 0.25107 0.17281 0.0
C562 C 0.10551 0.22296 0.18867 0.0
C563 C 0.09411 0.21613 0.23984 0.0
C564 C 0.07933 0.22914 0.26469 0.0
H565 H 0.01562 0.12443 0.3257 0.0
H566 H 0.03737 0.15181 0.28504 0.0
C567 C 0.07317 0.24665 0.23143 0.0
C568 C 0.09293 0.19406 0.25589 0.0
H569 H 0.07029 0.1501 0.19877 0.0
C570 C 0.09548 0.18816 0.31952 0.0
C571 C 0.08452 0.17982 0.21115 0.0
C572 C 0.08056 0.18535 0.14235 0.0
C573 C 0.08826 0.16905 0.34053 0.0
C574 C 0.07857 0.15553 0.29641 0.0
C575 C 0.07774 0.16063 0.23214 0.0
C576 C 0.06605 0.1379 0.31683 0.0
C577 C 0.0894 0.16418 0.41032 0.0
C578 C 0.07508 0.12077 0.34633 0.0
C579 C 0.06266 0.10504 0.36927 0.0
C580 C 0.04106 0.10624 0.36294 0.0
C581 C 0.03217 0.12299 0.33076 0.0
C582 C 0.04458 0.13868 0.30792 0.0
H583 H 0.09577 0.17716 0.43893 0.0
H584 H 0.07387 0.16026 0.42708 0.0
H585 H 0.09938 0.15064 0.41882 0.0
H586 H 0.09164 0.11975 0.3525 0.0
H587 H 0.06994 0.09211 0.39302 0.0
H588 H 0.29356 0.064 0.28331 0.0
H589 H 0.31946 0.08219 0.34582 0.0
H590 H 0.32989 0.12319 0.18926 0.0
H591 H 0.30409 0.10428 0.12529 0.0
H592 H 0.36167 0.10256 0.20896 0.0
H593 H 0.34321 0.12772 0.44467 0.0
H594 H 0.32954 0.104 0.43477 0.0
H595 H 0.32336 0.12542 0.38301 0.0
C596 C 0.3005 0.07757 0.26318 0.0
C597 C 0.29725 0.08239 0.19899 0.0
C598 C 0.31532 0.08823 0.29942 0.0
C599 C 0.32695 0.10405 0.27231 0.0
C600 C 0.32129 0.11095 0.21117 0.0
H601 H 0.45182 0.06968 0.3918 0.0
H602 H 0.42819 0.09742 0.36061 0.0
C603 C 0.30661 0.10008 0.17453 0.0
C604 C 0.34805 0.108 0.29894 0.0
H605 H 0.37315 0.10184 0.44161 0.0
C606 C 0.36442 0.10348 0.25971 0.0
C607 C 0.35205 0.10977 0.36482 0.0
C608 C 0.33602 0.11724 0.40879 0.0
C609 C 0.38334 0.09674 0.2853 0.0
C610 C 0.38589 0.0948 0.35161 0.0
C611 C 0.3709 0.10279 0.39064 0.0
C612 C 0.40067 0.07988 0.37903 0.0
C613 C 0.39935 0.08912 0.24121 0.0
C614 C 0.39297 0.06105 0.4006 0.0
C615 C 0.40631 0.04522 0.41779 0.0
C616 C 0.42765 0.04793 0.41374 0.0
C617 C 0.43541 0.06705 0.39406 0.0
C618 C 0.42199 0.08296 0.37691 0.0
H619 H 0.3948 0.09157 0.19066 0.0
H620 H 0.41416 0.09725 0.25113 0.0
H621 H 0.40194 0.07247 0.24903 0.0
H622 H 0.37653 0.0583 0.40174 0.0
H623 H 0.39988 0.03066 0.43245 0.0
H624 H 0.52703 0.3183 0.28597 0.0
H625 H 0.54904 0.33333 0.37008 0.0
H626 H 0.59568 0.28838 0.3365 0.0
H627 H 0.57342 0.27299 0.25232 0.0
H628 H 0.5796 0.30833 0.48543 0.0
H629 H 0.61186 0.35555 0.29247 0.0
H630 H 0.58522 0.34793 0.28357 0.0
H631 H 0.60492 0.32884 0.28206 0.0
C632 C 0.54176 0.31134 0.29762 0.0
C633 C 0.54867 0.29465 0.26276 0.0
C634 C 0.55424 0.31982 0.34572 0.0
C635 C 0.57387 0.31188 0.35927 0.0
C636 C 0.58045 0.29451 0.32691 0.0
H637 H 0.63016 0.42046 0.51139 0.0
H638 H 0.63435 0.38434 0.48298 0.0
C639 C 0.5678 0.28582 0.27901 0.0
C640 C 0.5881 0.32395 0.40036 0.0
H641 H 0.61277 0.36997 0.39491 0.0
C642 C 0.58754 0.32149 0.46607 0.0
C643 C 0.59888 0.34071 0.37485 0.0
C644 C 0.60046 0.34348 0.30434 0.0
C645 C 0.59569 0.33668 0.50695 0.0
C646 C 0.60369 0.35502 0.48096 0.0
C647 C 0.60646 0.35613 0.41543 0.0
C648 C 0.60478 0.37459 0.51695 0.0
C649 C 0.59468 0.3333 0.57728 0.0
C650 C 0.58735 0.38098 0.54877 0.0
C651 C 0.58516 0.40143 0.56604 0.0
C652 C 0.60012 0.41605 0.5505 0.0
C653 C 0.61835 0.40946 0.52354 0.0
C654 C 0.62075 0.38883 0.50745 0.0
H655 H 0.59854 0.31715 0.58935 0.0
H656 H 0.60536 0.34366 0.60437 0.0
H657 H 0.57873 0.33593 0.59222 0.0
H658 H 0.57443 0.37069 0.55497 0.0
H659 H 0.57081 0.40609 0.58594 0.0
H660 H 0.26673 0.51133 0.24207 0.0
H661 H 0.24443 0.50888 0.33118 0.0
H662 H 0.22469 0.44842 0.27063 0.0
H663 H 0.24645 0.4514 0.17891 0.0
H664 H 0.19404 0.47144 0.26821 0.0
H665 H 0.23214 0.48648 0.49817 0.0
H666 H 0.2417 0.50535 0.44495 0.0
H667 H 0.24656 0.47848 0.4312 0.0
C668 C 0.25838 0.49712 0.24941 0.0
C669 C 0.25802 0.48168 0.20339 0.0
C670 C 0.24571 0.49561 0.30096 0.0
C671 C 0.23279 0.47843 0.30798 0.0
C672 C 0.23445 0.46184 0.26618 0.0
H673 H 0.12678 0.51251 0.53416 0.0
H674 H 0.15703 0.49278 0.50613 0.0
C675 C 0.24684 0.46354 0.2138 0.0
C676 C 0.21433 0.48045 0.34661 0.0
H677 H 0.19838 0.5046 0.47892 0.0
C678 C 0.19504 0.47797 0.31532 0.0
C679 C 0.21529 0.48865 0.40854 0.0
C680 C 0.2351 0.48963 0.44765 0.0
C681 C 0.17718 0.48565 0.34098 0.0
C682 C 0.17871 0.49651 0.39858 0.0
C683 C 0.19743 0.49687 0.43356 0.0
C684 C 0.16159 0.50931 0.41897 0.0
C685 C 0.15699 0.48312 0.30432 0.0
C686 C 0.1547 0.52555 0.38018 0.0
C687 C 0.13755 0.53687 0.39601 0.0
C688 C 0.12712 0.53225 0.45125 0.0
C689 C 0.13464 0.51655 0.49154 0.0
C690 C 0.15181 0.50519 0.47554 0.0
H691 H 0.15703 0.46925 0.27393 0.0
H692 H 0.1439 0.48195 0.33647 0.0
H693 H 0.15452 0.49664 0.27302 0.0
H694 H 0.16239 0.52921 0.33693 0.0
H695 H 0.13229 0.54906 0.36465 0.0
H696 H 0.93703 0.8012 0.17126 0.0
H697 H 0.92349 0.82731 0.09809 0.0
H698 H 0.96912 0.81069 0.96441 0.0
H699 H 0.98196 0.78439 0.03577 0.0
H700 H 0.94854 0.85669 0.08794 0.0
H701 H 0.92924 0.83528 0.84379 0.0
H702 H 0.92821 0.81665 0.90708 0.0
H703 H 0.95174 0.82101 0.86583 0.0
C704 C 0.94332 0.80242 0.12466 0.0
C705 C 0.96081 0.79114 0.10957 0.0
C706 C 0.93557 0.81732 0.08279 0.0
C707 C 0.94541 0.82127 0.02588 0.0
C708 C 0.96092 0.80789 0.00725 0.0
H709 H 0.02257 0.89977 0.87779 0.0
H710 H 0.99733 0.87362 0.90542 0.0
C711 C 0.96844 0.79282 0.04858 0.0
C712 C 0.94447 0.84203 0.99689 0.0
H713 H 0.95439 0.86524 0.8565 0.0
C714 C 0.94885 0.85877 0.03712 0.0
C715 C 0.94468 0.84503 0.93069 0.0
C716 C 0.93796 0.82848 0.88469 0.0
C717 C 0.95639 0.87733 0.01352 0.0
C718 C 0.95938 0.87922 0.94799 0.0
C719 C 0.95247 0.86354 0.90697 0.0
C720 C 0.97319 0.89525 0.92372 0.0
C721 C 0.96325 0.89392 0.05948 0.0
C722 C 0.96785 0.91603 0.92452 0.0
C723 C 0.98231 0.93104 0.90909 0.0
C724 C 1.00227 0.92544 0.89247 0.0
C725 C 1.00731 0.90455 0.89011 0.0
C726 C 0.99289 0.88961 0.90557 0.0
H727 H 0.96093 0.88946 0.10947 0.0
H728 H 0.9798 0.89755 0.05393 0.0
H729 H 0.9544 0.90811 0.04933 0.0
H730 H 0.95267 0.92063 0.93816 0.0
H731 H 0.97786 0.94701 0.90997 0.0
H732 H 0.74994 0.97491 0.04302 0.0
H733 H 0.71979 0.95911 0.99201 0.0
H734 H 0.71203 0.92037 0.15506 0.0
H735 H 0.74204 0.93669 0.20729 0.0
H736 H 0.69419 0.92338 0.96707 0.0
H737 H 0.67182 0.96802 0.17906 0.0
H738 H 0.69793 0.9681 0.15389 0.0
H739 H 0.68745 0.94568 0.19113 0.0
C740 C 0.74267 0.9621 0.06642 0.0
C741 C 0.74777 0.9575 0.12983 0.0
C742 C 0.72533 0.95305 0.03719 0.0
C743 C 0.71319 0.93927 0.0711 0.0
C744 C 0.72093 0.93141 0.1289 0.0
H745 H 0.58787 0.98112 0.01219 0.0
H746 H 0.61275 0.95528 0.04804 0.0
C747 C 0.73815 0.94066 0.15858 0.0
C748 C 0.69083 0.93892 0.05576 0.0
H749 H 0.64819 0.96528 0.096 0.0
C750 C 0.68384 0.93193 0.99606 0.0
C751 C 0.67726 0.95001 0.09388 0.0
C752 C 0.68388 0.95848 0.15797 0.0
C753 C 0.66432 0.93736 0.97118 0.0
C754 C 0.6518 0.95042 0.00647 0.0
C755 C 0.65785 0.95537 0.06881 0.0
C756 C 0.6348 0.96249 0.97682 0.0
C757 C 0.65776 0.92992 0.9061 0.0
C758 C 0.63881 0.97503 0.92459 0.0
C759 C 0.62461 0.98968 0.9038 0.0
C760 C 0.6062 0.99243 0.9355 0.0
C761 C 0.60187 0.9794 0.98658 0.0
C762 C 0.61604 0.96457 0.00701 0.0
H763 H 0.66352 0.91416 0.89814 0.0
H764 H 0.64076 0.92989 0.89894 0.0
H765 H 0.66458 0.94007 0.87008 0.0
H766 H 0.6534 0.97425 0.90164 0.0
H767 H 0.62824 0.99908 0.86333 0.0
H768 H 0.46341 0.72627 0.13162 0.0
H769 H 0.44368 0.71078 0.04436 0.0
H770 H 0.47253 0.75181 0.91333 0.0
H771 H 0.49403 0.76592 0.99953 0.0
H772 H 0.41727 0.71997 0.95084 0.0
H773 H 0.49213 0.69874 0.84883 0.0
H774 H 0.49091 0.71073 0.925 0.0
H775 H 0.48714 0.72567 0.85385 0.0
C776 C 0.46578 0.73193 0.08424 0.0
C777 C 0.481 0.74678 0.07262 0.0
C778 C 0.45415 0.72329 0.03437 0.0
C779 C 0.45712 0.72964 0.9719 0.0
C780 C 0.47051 0.74615 0.96087 0.0
H781 H 0.43606 0.63469 0.69124 0.0
H782 H 0.43258 0.67066 0.72135 0.0
C783 C 0.48263 0.75441 0.01059 0.0
C784 C 0.44827 0.71699 0.91928 0.0
H785 H 0.46285 0.68252 0.80883 0.0
C786 C 0.42716 0.71212 0.9187 0.0
C787 C 0.46112 0.70682 0.87679 0.0
C788 C 0.48408 0.71058 0.87615 0.0
C789 C 0.41898 0.69611 0.88109 0.0
C790 C 0.43221 0.68489 0.84289 0.0
C791 C 0.45274 0.69122 0.83821 0.0
C792 C 0.42693 0.66408 0.81947 0.0
C793 C 0.39655 0.69051 0.88537 0.0
C794 C 0.42397 0.64846 0.86401 0.0
C795 C 0.42647 0.62796 0.84745 0.0
C796 C 0.43193 0.6227 0.78585 0.0
C797 C 0.43242 0.63824 0.73952 0.0
C798 C 0.43016 0.65881 0.75638 0.0
H799 H 0.38725 0.70421 0.89621 0.0
H800 H 0.39042 0.68349 0.84072 0.0
H801 H 0.39472 0.67927 0.92431 0.0
H802 H 0.4219 0.65215 0.91326 0.0
H803 H 0.42611 0.61656 0.8847 0.0
H804 H 0.79433 0.5915 0.16256 0.0
H805 H 0.82058 0.59271 0.08288 0.0
H806 H 0.79527 0.53748 0.99844 0.0
H807 H 0.76896 0.53636 0.07737 0.0
H808 H 0.84326 0.55703 0.10531 0.0
H809 H 0.8239 0.56505 0.84909 0.0
H810 H 0.80842 0.5761 0.9095 0.0
H811 H 0.80622 0.54924 0.89124 0.0
C812 C 0.79365 0.58036 0.12461 0.0
C813 C 0.78003 0.56357 0.12673 0.0
C814 C 0.80861 0.58108 0.07904 0.0
C815 C 0.81003 0.56502 0.03541 0.0
C816 C 0.79435 0.55013 0.03128 0.0
H817 H 0.9043 0.49344 0.87232 0.0
H818 H 0.87228 0.50881 0.90594 0.0
C819 C 0.77931 0.54946 0.07666 0.0
C820 C 0.8303 0.56005 0.01057 0.0
H821 H 0.85499 0.54689 0.8773 0.0
C822 C 0.846 0.55527 0.05532 0.0
C823 C 0.83355 0.55722 0.94562 0.0
C824 C 0.81718 0.56232 0.89596 0.0
C825 C 0.86464 0.54703 0.03716 0.0
C826 C 0.86791 0.54405 0.97218 0.0
C827 C 0.8524 0.54925 0.9271 0.0
C828 C 0.8872 0.53506 0.95071 0.0
C829 C 0.8802 0.54063 0.08806 0.0
C830 C 0.90611 0.5447 0.96511 0.0
C831 C 0.92439 0.53572 0.94754 0.0
C832 C 0.92409 0.51712 0.91398 0.0
C833 C 0.90508 0.50755 0.89919 0.0
C834 C 0.88677 0.51647 0.91745 0.0
H835 H 0.87307 0.53872 0.13469 0.0
H836 H 0.88766 0.52598 0.07574 0.0
H837 H 0.89231 0.55264 0.0932 0.0
H838 H 0.90672 0.55919 0.99008 0.0
H839 H 0.93878 0.54341 0.96003 0.0
H840 H 0.06664 0.24153 0.93371 0.0
H841 H 0.06115 0.21022 0.87195 0.0
H842 H 1.0033 0.20018 0.96083 0.0
H843 H 1.00908 0.23154 0.02387 0.0
H844 H 0.02566 0.16589 0.96571 0.0
H845 H 0.0266 0.19422 0.71974 0.0
H846 H 0.04904 0.20245 0.76465 0.0
H847 H 0.02404 0.21124 0.78605 0.0
C848 C 0.05233 0.23312 0.93821 0.0
C849 C 0.03804 0.23944 0.98264 0.0
C850 C 0.04921 0.21506 0.90289 0.0
C851 C 0.03165 0.20267 0.91058 0.0
C852 C 0.01694 0.20938 0.95329 0.0
H853 H 1.00447 0.09471 0.66991 0.0
H854 H 1.00496 0.12844 0.72041 0.0
C855 C 0.02006 0.22754 0.98872 0.0
C856 C 0.02964 0.18208 0.87814 0.0
H857 H 0.03244 0.1582 0.73436 0.0
C858 C 0.02697 0.1643 0.91501 0.0
C859 C 0.03111 0.17967 0.81176 0.0
C860 C 0.03263 0.19793 0.76819 0.0
C861 C 0.02625 0.14445 0.88803 0.0
C862 C 0.02875 0.14197 0.82204 0.0
C863 C 0.03085 0.1598 0.78495 0.0
C864 C 0.02885 0.12117 0.79049 0.0
C865 C 0.0224 0.12635 0.93075 0.0
C866 C 0.0424 0.10558 0.81148 0.0
C867 C 0.04207 0.08609 0.7827 0.0
C868 C 0.02837 0.08159 0.73135 0.0
C869 C 0.01525 0.0974 0.70925 0.0
C870 C 0.01551 0.11684 0.73826 0.0
H871 H 0.01457 0.13105 0.97417 0.0
H872 H 0.01284 0.11444 0.90617 0.0
H873 H 0.03735 0.11945 0.94567 0.0
H874 H 0.05334 0.10847 0.85023 0.0
H875 H 0.05254 0.0745 0.80105 0.0
H876 H 0.31914 1.00763 0.06686 0.0
H877 H 0.34971 1.00256 1.00335 0.0
H878 H 0.33681 0.05895 0.90343 0.0
H879 H 0.30627 0.0638 0.96599 0.0
H880 H 0.35131 0.03152 0.82246 0.0
H881 H 0.40361 0.03241 0.0348 0.0
H882 H 0.3846 0.01232 0.03564 0.0
H883 H 0.37671 0.03869 0.0382 0.0
C884 C 0.32242 0.01857 0.02987 0.0
C885 C 0.30985 0.03595 0.0211 0.0
C886 C 0.34026 0.01591 0.99424 0.0
C887 C 0.34621 0.03061 0.94896 0.0
C888 C 0.33295 0.04733 0.93784 0.0
H889 H 0.4711 0.05153 0.80646 0.0
H890 H 0.4385 0.05277 0.86149 0.0
C891 C 0.31525 0.05002 0.97346 0.0
C892 C 0.36632 0.02914 0.91439 0.0
H893 H 0.41889 0.02618 0.93692 0.0
C894 C 0.36604 0.03026 0.84778 0.0
C895 C 0.38589 0.02795 0.94644 0.0
C896 C 0.38785 0.02798 0.01769 0.0
C897 C 0.38432 0.02998 0.813 0.0
C898 C 0.40385 0.02821 0.84495 0.0
C899 C 0.40416 0.02734 0.9116 0.0
C900 C 0.42401 0.0275 0.81039 0.0
C901 C 0.38246 0.03223 0.74205 0.0
C902 C 0.42733 0.01281 0.76307 0.0
C903 C 0.44604 0.01212 0.73122 0.0
C904 C 0.46232 0.02601 0.74561 0.0
C905 C 0.45907 0.04062 0.79332 0.0
C906 C 0.44031 0.04129 0.82525 0.0
H907 H 0.36771 0.03954 0.72681 0.0
H908 H 0.39533 0.04154 0.72379 0.0
H909 H 0.38283 0.01681 0.72008 0.0
H910 H 0.4155 1.00157 0.75112 0.0
H911 H 0.44777 1.00049 0.69541 0.0
H912 H 0.5501 0.3254 0.06705 0.0
H913 H 0.54582 0.35436 0.9964 0.0
H914 H 0.48548 0.33209 0.9382 0.0
H915 H 0.48897 0.30372 0.01468 0.0
H916 H 0.54294 0.36057 0.88239 0.0
H917 H 0.46913 0.38866 0.97054 0.0
H918 H 0.48305 0.36805 0.00884 0.0
H919 H 0.46714 0.36322 0.93889 0.0
C920 C 0.53564 0.32673 0.04044 0.0
C921 C 0.51959 0.31237 0.04893 0.0
C922 C 0.53331 0.34336 0.99891 0.0
C923 C 0.51506 0.34615 0.96246 0.0
C924 C 0.49945 0.33104 0.96726 0.0
H925 H 0.52391 0.44314 0.66806 0.0
H926 H 0.52237 0.41002 0.72233 0.0
C927 C 0.50161 0.31448 0.01035 0.0
C928 C 0.51296 0.36485 0.92013 0.0
H929 H 0.48234 0.40608 0.88269 0.0
C930 C 0.52964 0.37049 0.88288 0.0
C931 C 0.49581 0.37823 0.92042 0.0
C932 C 0.47786 0.37439 0.96226 0.0
C933 C 0.53003 0.38902 0.84816 0.0
C934 C 0.51262 0.40209 0.84679 0.0
C935 C 0.4957 0.39624 0.88283 0.0
C936 C 0.51197 0.42221 0.81084 0.0
C937 C 0.5497 0.39473 0.81635 0.0
C938 C 0.50527 0.44031 0.8399 0.0
C939 C 0.50525 0.45923 0.80759 0.0
C940 C 0.51232 0.46073 0.74564 0.0
C941 C 0.51864 0.44264 0.71604 0.0
C942 C 0.51801 0.42362 0.74759 0.0
H943 H 0.56322 0.38708 0.8394 0.0
H944 H 0.54871 0.38958 0.76639 0.0
H945 H 0.55251 0.41154 0.81744 0.0
H946 H 0.5004 0.43995 0.88832 0.0
H947 H 0.50033 0.47284 0.83195 0.0
H948 H 0.23001 0.46349 0.99073 0.0
H949 H 0.19846 0.4668 0.92542 0.0
H950 H 0.21358 0.53001 0.88734 0.0
H951 H 0.24527 0.52682 0.95348 0.0
H952 H 0.16698 0.49449 0.95398 0.0
H953 H 0.19418 0.50807 0.71138 0.0
H954 H 0.21041 0.49701 0.77344 0.0
H955 H 0.20559 0.5241 0.77236 0.0
C956 C 0.22687 0.47802 0.96749 0.0
C957 C 0.24024 0.49491 0.97768 0.0
C958 C 0.20875 0.4799 0.93016 0.0
C959 C 0.2035 0.49864 0.90121 0.0
C960 C 0.21733 0.51528 0.90836 0.0
H961 H 0.09248 0.54019 0.69316 0.0
H962 H 0.1269 0.53656 0.74183 0.0
C963 C 0.23554 0.51342 0.94604 0.0
C964 C 0.18279 0.50103 0.86856 0.0
H965 H 0.15841 0.51107 0.72577 0.0
C966 C 0.16513 0.49804 0.90399 0.0
C967 C 0.18026 0.50586 0.80347 0.0
C968 C 0.19857 0.50882 0.76257 0.0
C969 C 0.14515 0.49994 0.87664 0.0
C970 C 0.14254 0.50437 0.81116 0.0
C971 C 0.16024 0.50754 0.77576 0.0
C972 C 0.12162 0.50609 0.77902 0.0
C973 C 0.12705 0.49778 0.91893 0.0
C974 C 0.10707 0.49002 0.78197 0.0
C975 C 0.0872 0.49213 0.75441 0.0
C976 C 0.0814 0.51025 0.72232 0.0
C977 C 0.09623 0.52602 0.71755 0.0
C978 C 0.11604 0.52395 0.74543 0.0
H979 H 0.13157 0.50068 0.96927 0.0
H980 H 0.11456 0.50853 0.90471 0.0
H981 H 0.1209 0.48188 0.91556 0.0
H982 H 0.11104 0.47582 0.80584 0.0
H983 H 0.07634 0.47954 0.7586 0.0
H984 H 0.03252 0.81165 0.26946 0.0
H985 H 0.03794 0.84246 0.33543 0.0
H986 H 0.97815 0.83348 0.41298 0.0
H987 H 0.9729 0.8028 0.34796 0.0
H988 H 0.01568 0.87769 0.32965 0.0
H989 H 0.01147 0.84661 0.57211 0.0
H990 H 0.01495 0.83038 0.50439 0.0
H991 H 0.98968 0.83912 0.52295 0.0
C992 C 0.02093 0.8158 0.30252 0.0
C993 C 1.00248 0.8044 0.30444 0.0
C994 C 0.02389 0.83362 0.33969 0.0
C995 C 1.00857 0.84042 0.38021 0.0
C996 C 0.99049 0.82854 0.38369 0.0
H997 H 0.98763 0.96705 0.50335 0.0
H998 H 0.98683 0.93354 0.45116 0.0
C999 C 0.9875 0.81087 0.34645 0.0
C1000 C 1.01063 0.86061 0.41495 0.0
H1001 H 1.00696 0.88289 0.5609 0.0
C1002 C 0.01393 0.87874 0.38032 0.0
C1003 C 1.00856 0.86228 0.48133 0.0
C1004 C 1.00618 0.84354 0.52249 0.0
C1005 C 0.01466 0.89826 0.40948 0.0
C1006 C 0.01165 0.90002 0.47541 0.0
C1007 C 1.00896 0.88183 0.51035 0.0
C1008 C 0.01156 0.92046 0.50899 0.0
C1009 C 0.01898 0.91683 0.36919 0.0
C1010 C 0.02512 0.92439 0.56098 0.0
C1011 C 0.02549 0.94359 0.59146 0.0
C1012 C 0.01218 0.95951 0.57129 0.0
C1013 C 0.9982 0.95535 0.52035 0.0
C1014 C 0.99786 0.93614 0.48987 0.0
H1015 H 0.02678 0.91257 0.32528 0.0
H1016 H 1.00422 0.92427 0.35514 0.0
H1017 H 0.02875 0.92819 0.39553 0.0
H1018 H 0.03578 0.91268 0.5774 0.0
H1019 H 0.03645 0.94601 0.6305 0.0
H1020 H 0.70949 0.01299 0.20509 0.0
H1021 H 0.67932 0.01696 0.26968 0.0
H1022 H 0.71779 0.01132 0.43865 0.0
H1023 H 0.74817 1.00718 0.37344 0.0
H1024 H 0.66453 0.9874 0.35165 0.0
H1025 H 0.68034 0.05921 0.48534 0.0
H1026 H 0.69381 0.05278 0.41495 0.0
H1027 H 0.70059 0.04058 0.48891 0.0
C1028 C 0.71172 0.0134 0.25607 0.0
C1029 C 0.73156 0.01032 0.28365 0.0
C1030 C 0.69429 0.01541 0.29323 0.0
C1031 C 0.69592 0.01459 0.35971 0.0
C1032 C 0.71586 0.01242 0.38773 0.0
H1033 H 0.59951 0.0171 0.64918 0.0
H1034 H 0.6322 0.01636 0.59434 0.0
C1035 C 0.7334 0.01024 0.35028 0.0
C1036 C 0.6766 0.01439 0.39832 0.0
H1037 H 0.65085 0.04017 0.51265 0.0
C1038 C 0.66161 0.99901 0.38676 0.0
C1039 C 0.67252 0.02929 0.44504 0.0
C1040 C 0.68754 0.04653 0.45924 0.0
C1041 C 0.64309 0.99799 0.42012 0.0
C1042 C 0.63866 0.01321 0.4657 0.0
C1043 C 0.65382 0.02847 0.47794 0.0
C1044 C 0.61841 0.01371 0.50003 0.0
C1045 C 0.62874 0.98007 0.4071 0.0
C1046 C 0.59928 0.01279 0.46646 0.0
C1047 C 0.58051 0.01295 0.49796 0.0
C1048 C 0.57996 0.01441 0.56447 0.0
C1049 C 0.59907 0.01579 0.59815 0.0
C1050 C 0.61792 0.01545 0.56652 0.0
H1051 H 0.63717 0.96661 0.38936 0.0
H1052 H 0.62064 0.97535 0.45017 0.0
H1053 H 0.61712 0.98447 0.36997 0.0
H1054 H 0.59878 0.01217 0.41533 0.0
H1055 H 0.56631 0.0122 0.46968 0.0
H1056 H 0.51586 0.74431 0.34689 0.0
H1057 H 0.51942 0.71503 0.42041 0.0
H1058 H 0.53524 0.67605 0.26556 0.0
H1059 H 0.53186 0.70511 0.19274 0.0
H1060 H 0.49645 0.67852 0.41581 0.0
H1061 H 0.57897 0.66041 0.39847 0.0
H1062 H 0.56831 0.68458 0.37199 0.0
H1063 H 0.56589 0.6622 0.32259 0.0
C1064 C 0.52071 0.72963 0.32901 0.0
C1065 C 0.52379 0.72715 0.26395 0.0
C1066 C 0.52254 0.71281 0.37096 0.0
C1067 C 0.52781 0.69319 0.34902 0.0
C1068 C 0.53156 0.69096 0.28438 0.0
H1069 H 0.5342 0.56665 0.47567 0.0
H1070 H 0.53528 0.59964 0.42078 0.0
C1071 C 0.52958 0.70765 0.24258 0.0
C1072 C 0.52807 0.67474 0.39205 0.0
H1073 H 0.55773 0.63409 0.44142 0.0
C1074 C 0.50995 0.66897 0.42211 0.0
C1075 C 0.54559 0.66206 0.40035 0.0
C1076 C 0.56585 0.6677 0.37216 0.0
C1077 C 0.50861 0.65063 0.4577 0.0
C1078 C 0.52603 0.63772 0.46495 0.0
C1079 C 0.54429 0.64377 0.43604 0.0
C1080 C 0.52548 0.61756 0.50003 0.0
C1081 C 0.48822 0.64484 0.48483 0.0
C1082 C 0.51989 0.61633 0.56369 0.0
C1083 C 0.51919 0.5973 0.59543 0.0
C1084 C 0.52423 0.57895 0.56464 0.0
C1085 C 0.53017 0.58031 0.50128 0.0
C1086 C 0.53083 0.59929 0.46964 0.0
H1087 H 0.47527 0.65325 0.46125 0.0
H1088 H 0.48518 0.62812 0.48018 0.0
H1089 H 0.4885 0.64879 0.53583 0.0
H1090 H 0.51616 0.63011 0.58914 0.0
H1091 H 0.51464 0.59701 0.64419 0.0
H1092 H 0.8032 0.57456 0.35237 0.0
H1093 H 0.83522 0.56987 0.4145 0.0
H1094 H 0.82495 0.50445 0.41483 0.0
H1095 H 0.7929 0.50915 0.35109 0.0
H1096 H 0.84716 0.55349 0.52759 0.0
H1097 H 0.8805 0.50864 0.33404 0.0
H1098 H 0.85648 0.52212 0.3241 0.0
H1099 H 0.85738 0.49783 0.36459 0.0
C1100 C 0.8075 0.55919 0.36695 0.0
C1101 C 0.79545 0.54223 0.34671 0.0
C1102 C 0.82592 0.55651 0.40234 0.0
C1103 C 0.83294 0.53677 0.41831 0.0
C1104 C 0.82022 0.51984 0.40196 0.0
H1105 H 0.94395 0.51864 0.66573 0.0
H1106 H 0.90848 0.5202 0.62357 0.0
C1107 C 0.80168 0.52253 0.36641 0.0
C1108 C 0.85399 0.53418 0.44885 0.0
H1109 H 0.90144 0.51352 0.42601 0.0
C1110 C 0.85898 0.54462 0.50554 0.0
C1111 C 0.86968 0.52298 0.41971 0.0
C1112 C 0.86589 0.5124 0.35698 0.0
C1113 C 0.87901 0.54421 0.53359 0.0
C1114 C 0.89461 0.53272 0.50501 0.0
C1115 C 0.88959 0.52224 0.44843 0.0
C1116 C 0.91635 0.53189 0.53158 0.0
C1117 C 0.88341 0.55677 0.59241 0.0
C1118 C 0.93292 0.53744 0.49392 0.0
C1119 C 0.95334 0.53636 0.51776 0.0
C1120 C 0.95781 0.52965 0.58007 0.0
C1121 C 0.9412 0.52409 0.61777 0.0
C1122 C 0.92079 0.52509 0.59375 0.0
H1123 H 0.87182 0.56902 0.59785 0.0
H1124 H 0.88284 0.54661 0.63449 0.0
H1125 H 0.89891 0.564 0.59171 0.0
H1126 H 0.93007 0.54268 0.44579 0.0
H1127 H 0.96562 0.54069 0.48707 0.0
loop_
_geom_bond_atom_site_label_1
_geom_bond_atom_site_label_2
_geom_bond_distance
_geom_bond_site_symmetry_2
_ccdc_geom_bond_type
H0 C7 0.929 . S
H1 C10 0.930 . S
H2 C12 0.929 . S
H3 C4 0.969 . S
C4 H3 0.969 . S
C4 O5 1.550 . S
C4 H6 0.973 . S
O5 C4 1.550 . S
O5 C11 1.412 . S
H6 C4 0.973 . S
C7 H0 0.929 . S
C7 C8 1.400 . S
C7 C9 1.364 . S
C8 C7 1.400 . S
C8 C12 1.377 . S
C9 C7 1.364 . S
C9 C10 1.374 . S
C10 H1 0.930 . S
C10 C9 1.374 . S
C10 C11 1.383 . S
C11 O5 1.412 . S
C11 C10 1.383 . S
C11 C12 1.394 . S
C12 H2 0.929 . S
C12 C8 1.377 . S
C12 C11 1.394 . S
H13 C20 0.929 . S
H14 C23 0.930 . S
H15 C25 0.929 . S
H16 C17 0.969 . S
C17 H16 0.969 . S
C17 O18 1.550 . S
C17 H19 0.973 . S
O18 C17 1.550 . S
O18 C24 1.412 . S
H19 C17 0.973 . S
C20 H13 0.929 . S
C20 C21 1.400 . S
C20 C22 1.364 . S
C21 C20 1.400 . S
C21 C25 1.377 . S
C22 C20 1.364 . S
C22 C23 1.374 . S
C23 H14 0.930 . S
C23 C22 1.374 . S
C23 C24 1.383 . S
C24 O18 1.412 . S
C24 C23 1.383 . S
C24 C25 1.394 . S
C25 H15 0.929 . S
C25 C21 1.377 . S
C25 C24 1.394 . S
H26 C33 0.929 . S
H27 C36 0.930 . S
H28 C38 0.929 . S
H29 C30 0.969 . S
C30 H29 0.969 . S
C30 O31 1.550 . S
C30 H32 0.973 . S
O31 C30 1.550 . S
O31 C37 1.412 . S
H32 C30 0.973 . S
C33 H26 0.929 . S
C33 C34 1.400 . S
C33 C35 1.364 . S
C34 C33 1.400 . S
C34 C38 1.377 . S
C35 C33 1.364 . S
C35 C36 1.374 . S
C36 H27 0.930 . S
C36 C35 1.374 . S
C36 C37 1.383 . S
C37 O31 1.412 . S
C37 C36 1.383 . S
C37 C38 1.394 . S
C38 H28 0.929 . S
C38 C34 1.377 . S
C38 C37 1.394 . S
H39 C46 0.929 . S
H40 C49 0.930 . S
H41 C51 0.929 . S
H42 C43 0.969 . S
C43 H42 0.969 . S
C43 O44 1.550 . S
C43 H45 0.973 . S
O44 C43 1.550 . S
O44 C50 1.412 . S
H45 C43 0.973 . S
C46 H39 0.929 . S
C46 C47 1.400 . S
C46 C48 1.364 . S
C47 C46 1.400 . S
C47 C51 1.377 . S
C48 C46 1.364 . S
C48 C49 1.374 . S
C49 H40 0.930 . S
C49 C48 1.374 . S
C49 C50 1.383 . S
C50 O44 1.412 . S
C50 C49 1.383 . S
C50 C51 1.394 . S
C51 H41 0.929 . S
C51 C47 1.377 . S
C51 C50 1.394 . S
H52 C59 0.929 . S
H53 C62 0.930 . S
H54 C64 0.929 1_556 S
H55 C56 0.969 . S
C56 H55 0.969 . S
C56 O57 1.550 . S
C56 H58 0.973 . S
O57 C56 1.550 . S
O57 C63 1.412 . S
H58 C56 0.973 . S
C59 H52 0.929 . S
C59 C60 1.400 . S
C59 C61 1.364 . S
C60 C59 1.400 . S
C60 C64 1.377 . S
C61 C59 1.364 . S
C61 C62 1.374 . S
C62 H53 0.930 . S
C62 C61 1.374 . S
C62 C63 1.383 . S
C63 O57 1.412 . S
C63 C62 1.383 . S
C63 C64 1.394 . S
C64 H54 0.929 1_554 S
C64 C60 1.377 . S
C64 C63 1.394 . S
H65 C72 0.929 . S
H66 C75 0.930 . S
H67 C77 0.929 . S
H68 C69 0.969 . S
C69 H68 0.969 . S
C69 O70 1.550 . S
C69 H71 0.973 . S
O70 C69 1.550 . S
O70 C76 1.412 . S
H71 C69 0.973 . S
C72 H65 0.929 . S
C72 C73 1.400 1_554 S
C72 C74 1.364 . S
C73 C72 1.400 1_556 S
C73 C77 1.377 . S
C74 C72 1.364 . S
C74 C75 1.374 . S
C75 H66 0.930 . S
C75 C74 1.374 . S
C75 C76 1.383 . S
C76 O70 1.412 . S
C76 C75 1.383 . S
C76 C77 1.394 1_554 S
C77 H67 0.929 . S
C77 C73 1.377 . S
C77 C76 1.394 1_556 S
H78 C85 0.929 . S
H79 C88 0.930 . S
H80 C90 0.929 . S
H81 C82 0.969 . S
C82 H81 0.969 . S
C82 O83 1.550 . S
C82 H84 0.973 . S
O83 C82 1.550 . S
O83 C89 1.412 . S
H84 C82 0.973 . S
C85 H78 0.929 . S
C85 C86 1.400 . S
C85 C87 1.364 1_556 S
C86 C85 1.400 . S
C86 C90 1.377 . S
C87 C85 1.364 1_554 S
C87 C88 1.374 . S
C88 H79 0.930 . S
C88 C87 1.374 . S
C88 C89 1.383 . S
C89 O83 1.412 . S
C89 C88 1.383 . S
C89 C90 1.394 1_554 S
C90 H80 0.929 . S
C90 C86 1.377 . S
C90 C89 1.394 1_556 S
H91 C98 0.929 . S
H92 C101 0.930 . S
H93 C103 0.929 1_556 S
H94 C95 0.969 . S
C95 H94 0.969 . S
C95 O96 1.550 . S
C95 H97 0.973 . S
O96 C95 1.550 . S
O96 C102 1.412 . S
H97 C95 0.973 . S
C98 H91 0.929 . S
C98 C99 1.400 1_554 S
C98 C100 1.364 . S
C99 C98 1.400 1_556 S
C99 C103 1.377 1_556 S
C100 C98 1.364 . S
C100 C101 1.374 . S
C101 H92 0.930 . S
C101 C100 1.374 . S
C101 C102 1.383 . S
C102 O96 1.412 . S
C102 C101 1.383 . S
C102 C103 1.394 . S
C103 H93 0.929 1_554 S
C103 C99 1.377 1_554 S
C103 C102 1.394 . S
Eu104 C113 2.828 . S
Eu104 O115 2.392 . S
Eu104 O117 2.418 1_545 S
Eu104 O122 2.373 1_655 S
Eu104 O125 2.488 . S
Eu104 O126 2.471 1_655 S
Eu104 O127 2.349 1_655 S
Eu105 O114 2.371 1_465 S
Eu105 O118 2.488 . S
Eu105 O119 2.471 . S
Eu105 O120 2.349 . S
Eu105 O123 2.392 1_565 S
Eu105 O124 2.418 1_565 S
Eu105 C134 2.828 . S
C106 O124 1.244 . S
C106 O127 1.265 . S
C107 C108 1.379 . S
C107 C111 1.373 1_455 S
C107 C113 1.505 1_455 S
C108 C107 1.379 . S
C108 C110 1.369 . S
C108 H136 0.930 . S
C109 C111 1.383 . S
C109 C112 1.382 1_655 S
C109 H137 0.930 . S
C110 C108 1.369 . S
C110 C112 1.392 . S
C110 H138 0.930 . S
C111 C107 1.373 1_655 S
C111 C109 1.383 . S
C111 H139 0.931 . S
C112 C109 1.382 1_455 S
C112 C110 1.392 . S
C113 Eu104 2.828 . S
C113 C107 1.505 1_655 S
C113 O125 1.249 . S
C113 O126 1.244 1_655 S
O114 Eu105 2.371 1_645 S
O114 C116 1.261 . S
O115 Eu104 2.392 . S
O115 C116 1.242 . S
C116 O114 1.261 . S
C116 O115 1.242 . S
O117 Eu104 2.418 1_565 S
O117 C121 1.244 . S
O118 Eu105 2.488 . S
O118 C134 1.249 . S
O119 Eu105 2.471 . S
O119 C134 1.244 . S
O120 Eu105 2.349 . S
O120 C121 1.265 1_455 S
C121 O117 1.244 . S
C121 O120 1.265 1_655 S
O122 Eu104 2.373 1_455 S
O122 C135 1.258 . S
O123 Eu105 2.392 1_545 S
O123 C135 1.242 . S
O124 Eu105 2.418 1_545 S
O124 C106 1.244 . S
O125 Eu104 2.488 . S
O125 C113 1.249 . S
O126 Eu104 2.471 1_455 S
O126 C113 1.244 1_455 S
O127 Eu104 2.349 1_455 S
O127 C106 1.265 . S
C128 C129 1.379 . S
C128 C132 1.373 . S
C128 C134 1.505 . S
C129 C128 1.379 . S
C129 C131 1.369 1_455 S
C129 H140 0.930 1_455 S
C130 C132 1.383 . S
C130 C133 1.382 . S
C130 H141 0.930 1_556 S
C131 C129 1.369 1_655 S
C131 C133 1.392 1_655 S
C131 H142 0.930 . S
C132 C128 1.373 . S
C132 C130 1.383 . S
C132 H143 0.931 . S
C133 C130 1.382 . S
C133 C131 1.392 1_455 S
C134 Eu105 2.828 . S
C134 O118 1.249 . S
C134 O119 1.244 . S
C134 C128 1.505 . S
C135 O122 1.258 . S
C135 O123 1.242 . S
H136 C108 0.930 . S
H137 C109 0.930 . S
H138 C110 0.930 . S
H139 C111 0.931 . S
H140 C129 0.930 1_655 S
H141 C130 0.930 1_554 S
H142 C131 0.930 . S
H143 C132 0.931 . S
Eu144 C153 2.828 . S
Eu144 O155 2.392 . S
Eu144 O157 2.418 . S
Eu144 O162 2.373 . S
Eu144 O165 2.488 . S
Eu144 O166 2.471 . S
Eu144 O167 2.349 1_545 S
Eu145 O154 2.373 1_565 S
Eu145 O158 2.488 . S
Eu145 O159 2.471 1_565 S
Eu145 O160 2.349 1_565 S
Eu145 O163 2.392 . S
Eu145 O164 2.418 . S
Eu145 C174 2.828 . S
C146 O164 1.244 . S
C146 O167 1.265 . S
C147 C148 1.379 . S
C147 C151 1.373 . S
C147 C153 1.505 . S
C148 C147 1.379 . S
C148 C150 1.369 . S
C148 H176 0.930 1_545 S
C149 C151 1.383 . S
C149 C152 1.382 . S
C149 H177 0.930 . S
C150 C148 1.369 . S
C150 C152 1.392 . S
C150 H178 0.930 1_545 S
C151 C147 1.373 . S
C151 C149 1.383 . S
C151 H179 0.931 . S
C152 C149 1.382 . S
C152 C150 1.392 . S
C153 Eu144 2.828 . S
C153 C147 1.505 . S
C153 O165 1.249 . S
C153 O166 1.244 . S
O154 Eu145 2.373 1_545 S
O154 C156 1.258 . S
O155 Eu144 2.392 . S
O155 C156 1.242 . S
C156 O154 1.258 . S
C156 O155 1.242 . S
O157 Eu144 2.418 . S
O157 C161 1.244 . S
O158 Eu145 2.488 . S
O158 C174 1.249 . S
O159 Eu145 2.471 1_545 S
O159 C174 1.244 1_545 S
O160 Eu145 2.349 1_545 S
O160 C161 1.265 . S
C161 O157 1.244 . S
C161 O160 1.265 . S
O162 Eu144 2.373 . S
O162 C175 1.230 1_545 S
O163 Eu145 2.392 . S
O163 C175 1.260 . S
O164 Eu145 2.418 . S
O164 C146 1.244 . S
O165 Eu144 2.488 . S
O165 C153 1.249 . S
O166 Eu144 2.471 . S
O166 C153 1.244 . S
O167 Eu144 2.349 1_565 S
O167 C146 1.265 . S
C168 C169 1.381 1_565 S
C168 C172 1.371 . S
C168 C174 1.505 . S
C169 C168 1.381 1_545 S
C169 C171 1.369 . S
C169 H180 0.930 . S
C170 C172 1.383 . S
C170 C173 1.382 1_565 S
C170 H181 0.930 . S
C171 C169 1.369 . S
C171 C173 1.392 . S
C171 H182 0.930 . S
C172 C168 1.371 . S
C172 C170 1.383 . S
C172 H183 0.931 . S
C173 C170 1.382 1_545 S
C173 C171 1.392 . S
C174 Eu145 2.828 . S
C174 O158 1.249 . S
C174 O159 1.244 1_565 S
C174 C168 1.505 . S
C175 O162 1.230 1_565 S
C175 O163 1.260 . S
H176 C148 0.930 1_565 S
H177 C149 0.930 . S
H178 C150 0.930 1_565 S
H179 C151 0.931 . S
H180 C169 0.930 . S
H181 C170 0.930 . S
H182 C171 0.930 . S
H183 C172 0.931 . S
Eu184 C193 2.828 . S
Eu184 O195 2.392 . S
Eu184 O197 2.418 . S
Eu184 O202 2.373 . S
Eu184 O205 2.488 . S
Eu184 O206 2.471 . S
Eu184 O207 2.349 . S
Eu185 O194 2.373 . S
Eu185 O198 2.488 . S
Eu185 O199 2.471 . S
Eu185 O200 2.349 . S
Eu185 O203 2.392 . S
Eu185 O204 2.418 . S
Eu185 C214 2.828 . S
C186 O204 1.244 . S
C186 O207 1.265 . S
C187 C188 1.379 . S
C187 C191 1.373 . S
C187 C193 1.505 . S
C188 C187 1.379 . S
C188 C190 1.369 . S
C188 H216 0.930 . S
C189 C191 1.383 . S
C189 C192 1.382 . S
C189 H217 0.930 . S
C190 C188 1.369 . S
C190 C192 1.392 . S
C190 H218 0.930 . S
C191 C187 1.373 . S
C191 C189 1.383 . S
C191 H219 0.931 . S
C192 C189 1.382 . S
C192 C190 1.392 . S
C193 Eu184 2.828 . S
C193 C187 1.505 . S
C193 O205 1.249 . S
C193 O206 1.244 . S
O194 Eu185 2.373 . S
O194 C196 1.258 . S
O195 Eu184 2.392 . S
O195 C196 1.242 . S
C196 O194 1.258 . S
C196 O195 1.242 . S
O197 Eu184 2.418 . S
O197 C201 1.244 . S
O198 Eu185 2.488 . S
O198 C214 1.249 . S
O199 Eu185 2.471 . S
O199 C214 1.244 . S
O200 Eu185 2.349 . S
O200 C201 1.265 . S
C201 O197 1.244 . S
C201 O200 1.265 . S
O202 Eu184 2.373 . S
O202 C215 1.258 . S
O203 Eu185 2.392 . S
O203 C215 1.242 . S
O204 Eu185 2.418 . S
O204 C186 1.244 . S
O205 Eu184 2.488 . S
O205 C193 1.249 . S
O206 Eu184 2.471 . S
O206 C193 1.244 . S
O207 Eu184 2.349 . S
O207 C186 1.265 . S
C208 C209 1.379 . S
C208 C212 1.373 . S
C208 C214 1.505 . S
C209 C208 1.379 . S
C209 C211 1.369 . S
C209 H220 0.930 . S
C210 C212 1.383 . S
C210 C213 1.382 . S
C210 H221 0.930 . S
C211 C209 1.369 . S
C211 C213 1.392 . S
C211 H222 0.930 . S
C212 C208 1.373 . S
C212 C210 1.383 . S
C212 H223 0.931 . S
C213 C210 1.382 . S
C213 C211 1.392 . S
C214 Eu185 2.828 . S
C214 O198 1.249 . S
C214 O199 1.244 . S
C214 C208 1.505 . S
C215 O202 1.258 . S
C215 O203 1.242 . S
H216 C188 0.930 . S
H217 C189 0.930 . S
H218 C190 0.930 . S
H219 C191 0.931 . S
H220 C209 0.930 . S
H221 C210 0.930 . S
H222 C211 0.930 . S
H223 C212 0.931 . S
Eu224 C233 2.828 . S
Eu224 O235 2.392 . S
Eu224 O237 2.418 1_455 S
Eu224 O242 2.373 . S
Eu224 O245 2.488 . S
Eu224 O246 2.471 . S
Eu224 O247 2.349 . S
Eu225 O234 2.373 . S
Eu225 O238 2.488 . S
Eu225 O239 2.471 . S
Eu225 O240 2.349 . S
Eu225 O243 2.392 1_655 S
Eu225 O244 2.418 1_655 S
Eu225 C254 2.828 . S
C226 O244 1.244 . S
C226 O247 1.265 . S
C227 C228 1.379 . S
C227 C231 1.373 . S
C227 C233 1.505 . S
C228 C227 1.379 . S
C228 C230 1.369 . S
C228 H256 0.930 . S
C229 C231 1.383 . S
C229 C232 1.382 . S
C229 H257 0.930 . S
C230 C228 1.369 . S
C230 C232 1.392 . S
C230 H258 0.930 . S
C231 C227 1.373 . S
C231 C229 1.383 . S
C231 H259 0.931 . S
C232 C229 1.382 . S
C232 C230 1.392 . S
C233 Eu224 2.828 . S
C233 C227 1.505 . S
C233 O245 1.249 . S
C233 O246 1.244 . S
O234 Eu225 2.373 . S
O234 C236 1.258 1_655 S
O235 Eu224 2.392 . S
O235 C236 1.242 . S
C236 O234 1.258 1_455 S
C236 O235 1.242 . S
O237 Eu224 2.418 1_655 S
O237 C241 1.244 . S
O238 Eu225 2.488 . S
O238 C254 1.249 . S
O239 Eu225 2.471 . S
O239 C254 1.244 . S
O240 Eu225 2.349 . S
O240 C241 1.265 . S
C241 O237 1.244 . S
C241 O240 1.265 . S
O242 Eu224 2.373 . S
O242 C255 1.258 . S
O243 Eu225 2.392 1_455 S
O243 C255 1.242 . S
O244 Eu225 2.418 1_455 S
O244 C226 1.244 . S
O245 Eu224 2.488 . S
O245 C233 1.249 . S
O246 Eu224 2.471 . S
O246 C233 1.244 . S
O247 Eu224 2.349 . S
O247 C226 1.265 . S
C248 C249 1.379 . S
C248 C252 1.373 . S
C248 C254 1.505 . S
C249 C248 1.379 . S
C249 C251 1.369 . S
C249 H260 0.930 . S
C250 C252 1.383 . S
C250 C253 1.382 . S
C250 H261 0.930 . S
C251 C249 1.369 . S
C251 C253 1.392 . S
C251 H262 0.930 . S
C252 C248 1.373 . S
C252 C250 1.383 . S
C252 H263 0.931 . S
C253 C250 1.382 . S
C253 C251 1.392 . S
C254 Eu225 2.828 . S
C254 O238 1.249 . S
C254 O239 1.244 . S
C254 C248 1.505 . S
C255 O242 1.258 . S
C255 O243 1.242 . S
H256 C228 0.930 . S
H257 C229 0.930 . S
H258 C230 0.930 . S
H259 C231 0.931 . S
H260 C249 0.930 . S
H261 C250 0.930 . S
H262 C251 0.930 . S
H263 C252 0.931 . S
H264 C272 0.929 . S
H265 C274 0.930 . S
H266 C276 0.930 . S
H267 C279 0.929 . S
H268 C282 0.930 . S
H269 C284 0.957 1_565 S
H270 C284 0.959 1_565 S
H271 C284 0.961 . S
C272 H264 0.929 . S
C272 C273 1.377 . S
C272 C274 1.384 . S
C273 C272 1.377 . S
C273 C279 1.390 . S
C274 H265 0.930 . S
C274 C272 1.384 . S
C274 C275 1.372 . S
C275 C274 1.372 . S
C275 C276 1.400 . S
C275 C280 1.490 . S
C276 H266 0.930 . S
C276 C275 1.400 . S
C276 C279 1.386 . S
H277 C293 0.930 . S
H278 C294 0.931 . S
C279 H267 0.929 . S
C279 C273 1.390 . S
C279 C276 1.386 . S
C280 C275 1.490 . S
C280 C282 1.395 . S
C280 C283 1.403 . S
H281 C287 0.930 . S
C282 H268 0.930 . S
C282 C280 1.395 . S
C282 C285 1.403 . S
C283 C280 1.403 . S
C283 C284 1.527 . S
C283 C287 1.400 . S
C284 H269 0.957 1_545 S
C284 H270 0.959 1_545 S
C284 H271 0.961 . S
C284 C283 1.527 . S
C285 C282 1.403 . S
C285 C286 1.392 . S
C285 C289 1.495 . S
C286 C285 1.392 . S
C286 C287 1.385 . S
C286 C288 1.478 . S
C287 H281 0.930 . S
C287 C283 1.400 . S
C287 C286 1.385 . S
C288 C286 1.478 . S
C288 C290 1.381 . S
C288 C294 1.383 . S
C289 C285 1.495 . S
C289 H295 0.959 . S
C289 H296 0.961 . S
C289 H297 0.960 . S
C290 C288 1.381 . S
C290 C291 1.394 . S
C290 H298 0.930 . S
C291 C290 1.394 . S
C291 C292 1.383 . S
C291 H299 0.929 . S
C292 C291 1.383 . S
C292 C293 1.377 . S
C293 H277 0.930 . S
C293 C292 1.377 . S
C293 C294 1.379 . S
C294 H278 0.931 . S
C294 C288 1.383 . S
C294 C293 1.379 . S
H295 C289 0.959 . S
H296 C289 0.961 . S
H297 C289 0.960 . S
H298 C290 0.930 . S
H299 C291 0.929 . S
H300 C308 0.929 . S
H301 C310 0.930 . S
H302 C312 0.930 . S
H303 C315 0.929 . S
H304 C318 0.930 . S
H305 C320 0.960 . S
H306 C320 0.960 . S
H307 C320 0.960 . S
C308 H300 0.929 . S
C308 C309 1.377 . S
C308 C310 1.384 . S
C309 C308 1.377 . S
C309 C315 1.390 . S
C310 H301 0.930 . S
C310 C308 1.384 . S
C310 C311 1.372 . S
C311 C310 1.372 . S
C311 C312 1.400 . S
C311 C316 1.490 . S
C312 H302 0.930 . S
C312 C311 1.400 . S
C312 C315 1.386 . S
H313 C329 0.930 . S
H314 C330 0.931 . S
C315 H303 0.929 . S
C315 C309 1.390 . S
C315 C312 1.386 . S
C316 C311 1.490 . S
C316 C318 1.395 . S
C316 C319 1.403 . S
H317 C323 0.930 . S
C318 H304 0.930 . S
C318 C316 1.395 . S
C318 C321 1.403 . S
C319 C316 1.403 . S
C319 C320 1.524 . S
C319 C323 1.400 . S
C320 H305 0.960 . S
C320 H306 0.960 . S
C320 H307 0.960 . S
C320 C319 1.524 . S
C321 C318 1.403 . S
C321 C322 1.392 . S
C321 C325 1.495 . S
C322 C321 1.392 . S
C322 C323 1.385 . S
C322 C324 1.478 . S
C323 H317 0.930 . S
C323 C319 1.400 . S
C323 C322 1.385 . S
C324 C322 1.478 . S
C324 C326 1.381 . S
C324 C330 1.383 . S
C325 C321 1.495 . S
C325 H331 0.959 . S
C325 H332 0.961 . S
C325 H333 0.960 . S
C326 C324 1.381 . S
C326 C327 1.394 . S
C326 H334 0.930 . S
C327 C326 1.394 . S
C327 C328 1.383 . S
C327 H335 0.929 . S
C328 C327 1.383 . S
C328 C329 1.377 . S
C329 H313 0.930 . S
C329 C328 1.377 . S
C329 C330 1.379 . S
C330 H314 0.931 . S
C330 C324 1.383 . S
C330 C329 1.379 . S
H331 C325 0.959 . S
H332 C325 0.961 . S
H333 C325 0.960 . S
H334 C326 0.930 . S
H335 C327 0.929 . S
H336 C344 0.929 . S
H337 C346 0.930 . S
H338 C348 0.930 . S
H339 C351 0.929 . S
H340 C354 0.930 . S
H341 C356 0.960 . S
H342 C356 0.960 . S
H343 C356 0.960 . S
C344 H336 0.929 . S
C344 C345 1.377 . S
C344 C346 1.384 . S
C345 C344 1.377 . S
C345 C351 1.390 . S
C346 H337 0.930 . S
C346 C344 1.384 . S
C346 C347 1.372 . S
C347 C346 1.372 . S
C347 C348 1.400 . S
C347 C352 1.490 . S
C348 H338 0.930 . S
C348 C347 1.400 . S
C348 C351 1.386 . S
H349 C365 0.930 . S
H350 C366 0.931 . S
C351 H339 0.929 . S
C351 C345 1.390 . S
C351 C348 1.386 . S
C352 C347 1.490 . S
C352 C354 1.395 . S
C352 C355 1.403 . S
H353 C359 0.930 . S
C354 H340 0.930 . S
C354 C352 1.395 . S
C354 C357 1.403 . S
C355 C352 1.403 . S
C355 C356 1.524 . S
C355 C359 1.400 . S
C356 H341 0.960 . S
C356 H342 0.960 . S
C356 H343 0.960 . S
C356 C355 1.524 . S
C357 C354 1.403 . S
C357 C358 1.392 . S
C357 C361 1.495 . S
C358 C357 1.392 . S
C358 C359 1.385 . S
C358 C360 1.478 . S
C359 H353 0.930 . S
C359 C355 1.400 . S
C359 C358 1.385 . S
C360 C358 1.478 . S
C360 C362 1.381 . S
C360 C366 1.383 . S
C361 C357 1.495 . S
C361 H367 0.959 . S
C361 H368 0.961 . S
C361 H369 0.960 . S
C362 C360 1.381 . S
C362 C363 1.394 . S
C362 H370 0.930 . S
C363 C362 1.394 . S
C363 C364 1.383 . S
C363 H371 0.929 . S
C364 C363 1.383 . S
C364 C365 1.377 . S
C365 H349 0.930 . S
C365 C364 1.377 . S
C365 C366 1.379 . S
C366 H350 0.931 . S
C366 C360 1.383 . S
C366 C365 1.379 . S
H367 C361 0.959 . S
H368 C361 0.961 . S
H369 C361 0.960 . S
H370 C362 0.930 . S
H371 C363 0.929 . S
H372 C380 0.929 . S
H373 C382 0.930 . S
H374 C384 0.930 . S
H375 C387 0.929 . S
H376 C390 0.930 . S
H377 C392 0.960 1_655 S
H378 C392 0.960 . S
H379 C392 0.980 . S
C380 H372 0.929 . S
C380 C381 1.377 . S
C380 C382 1.384 . S
C381 C380 1.377 . S
C381 C387 1.390 . S
C382 H373 0.930 . S
C382 C380 1.384 . S
C382 C383 1.372 . S
C383 C382 1.372 . S
C383 C384 1.400 . S
C383 C388 1.490 . S
C384 H374 0.930 . S
C384 C383 1.400 . S
C384 C387 1.386 . S
H385 C401 0.937 . S
H386 C402 0.931 . S
C387 H375 0.929 . S
C387 C381 1.390 . S
C387 C384 1.386 . S
C388 C383 1.490 . S
C388 C390 1.395 . S
C388 C391 1.403 . S
H389 C395 0.930 . S
C390 H376 0.930 . S
C390 C388 1.395 . S
C390 C393 1.403 . S
C391 C388 1.403 . S
C391 C392 1.524 . S
C391 C395 1.400 . S
C392 H377 0.960 1_455 S
C392 H378 0.960 . S
C392 H379 0.980 . S
C392 C391 1.524 . S
C393 C390 1.403 . S
C393 C394 1.392 . S
C393 C397 1.495 . S
C394 C393 1.392 . S
C394 C395 1.385 . S
C394 C396 1.478 . S
C395 H389 0.930 . S
C395 C391 1.400 . S
C395 C394 1.385 . S
C396 C394 1.478 . S
C396 C398 1.381 . S
C396 C402 1.383 . S
C397 C393 1.495 . S
C397 H403 0.959 . S
C397 H404 0.961 . S
C397 H405 0.960 . S
C398 C396 1.381 . S
C398 C399 1.394 . S
C398 H406 0.930 . S
C399 C398 1.394 . S
C399 C400 1.383 . S
C399 H407 0.929 . S
C400 C399 1.383 . S
C400 C401 1.377 . S
C401 H385 0.937 . S
C401 C400 1.377 . S
C401 C402 1.379 . S
C402 H386 0.931 . S
C402 C396 1.383 . S
C402 C401 1.379 . S
H403 C397 0.959 . S
H404 C397 0.961 . S
H405 C397 0.960 . S
H406 C398 0.930 . S
H407 C399 0.929 . S
H408 C416 0.929 . S
H409 C418 0.930 . S
H410 C420 0.930 1_545 S
H411 C423 0.929 1_545 S
H412 C426 0.930 . S
H413 C428 0.960 . S
H414 C428 0.960 . S
H415 C428 0.960 . S
C416 H408 0.929 . S
C416 C417 1.377 . S
C416 C418 1.384 . S
C417 C416 1.377 . S
C417 C423 1.390 . S
C418 H409 0.930 . S
C418 C416 1.384 . S
C418 C419 1.372 . S
C419 C418 1.372 . S
C419 C420 1.400 . S
C419 C424 1.490 . S
C420 H410 0.930 1_565 S
C420 C419 1.400 . S
C420 C423 1.386 . S
H421 C437 0.930 . S
H422 C438 0.931 . S
C423 H411 0.929 1_565 S
C423 C417 1.390 . S
C423 C420 1.386 . S
C424 C419 1.490 . S
C424 C426 1.395 1_554 S
C424 C427 1.403 . S
H425 C431 0.930 . S
C426 H412 0.930 . S
C426 C424 1.395 1_556 S
C426 C429 1.403 . S
C427 C424 1.403 . S
C427 C428 1.524 . S
C427 C431 1.400 1_554 S
C428 H413 0.960 . S
C428 H414 0.960 . S
C428 H415 0.960 . S
C428 C427 1.524 . S
C429 C426 1.403 . S
C429 C430 1.392 . S
C429 C433 1.495 . S
C430 C429 1.392 . S
C430 C431 1.385 . S
C430 C432 1.478 . S
C431 H425 0.930 . S
C431 C427 1.400 1_556 S
C431 C430 1.385 . S
C432 C430 1.478 . S
C432 C434 1.381 . S
C432 C438 1.383 1_565 S
C433 C429 1.495 . S
C433 H439 0.959 . S
C433 H440 0.961 1_565 S
C433 H441 0.960 . S
C434 C432 1.381 . S
C434 C435 1.394 . S
C434 H442 0.930 . S
C435 C434 1.394 . S
C435 C436 1.414 . S
C435 H443 0.929 . S
C436 C435 1.414 . S
C436 C437 1.351 1_565 S
C437 H421 0.930 . S
C437 C436 1.351 1_545 S
C437 C438 1.379 . S
C438 H422 0.931 . S
C438 C432 1.383 1_545 S
C438 C437 1.379 . S
H439 C433 0.959 . S
H440 C433 0.961 1_545 S
H441 C433 0.960 . S
H442 C434 0.930 . S
H443 C435 0.929 . S
H444 C452 0.929 . S
H445 C454 0.930 . S
H446 C456 0.930 . S
H447 C459 0.929 . S
H448 C462 0.930 . S
H449 C464 0.960 1_556 S
H450 C464 0.962 . S
H451 C464 0.960 . S
C452 H444 0.929 . S
C452 C453 1.377 . S
C452 C454 1.384 . S
C453 C452 1.377 . S
C453 C459 1.390 . S
C454 H445 0.930 . S
C454 C452 1.384 . S
C454 C455 1.372 . S
C455 C454 1.372 . S
C455 C456 1.400 . S
C455 C460 1.479 1_554 S
C456 H446 0.930 . S
C456 C455 1.400 . S
C456 C459 1.386 . S
H457 C473 0.930 . S
H458 C474 0.931 . S
C459 H447 0.929 . S
C459 C453 1.390 . S
C459 C456 1.386 . S
C460 C455 1.479 1_556 S
C460 C462 1.400 . S
C460 C463 1.408 . S
H461 C467 0.930 . S
C462 H448 0.930 . S
C462 C460 1.400 . S
C462 C465 1.403 . S
C463 C460 1.408 . S
C463 C464 1.524 1_556 S
C463 C467 1.400 . S
C464 H449 0.960 1_554 S
C464 H450 0.962 . S
C464 H451 0.960 . S
C464 C463 1.524 1_554 S
C465 C462 1.403 . S
C465 C466 1.392 . S
C465 C469 1.495 . S
C466 C465 1.392 . S
C466 C467 1.385 . S
C466 C468 1.478 . S
C467 H461 0.930 . S
C467 C463 1.400 . S
C467 C466 1.385 . S
C468 C466 1.478 . S
C468 C470 1.381 . S
C468 C474 1.383 . S
C469 C465 1.495 . S
C469 H475 0.959 . S
C469 H476 0.961 . S
C469 H477 0.960 . S
C470 C468 1.381 . S
C470 C471 1.394 . S
C470 H478 0.930 . S
C471 C470 1.394 . S
C471 C472 1.383 . S
C471 H479 0.929 . S
C472 C471 1.383 . S
C472 C473 1.377 . S
C473 H457 0.930 . S
C473 C472 1.377 . S
C473 C474 1.379 . S
C474 H458 0.931 . S
C474 C468 1.383 . S
C474 C473 1.379 . S
H475 C469 0.959 . S
H476 C469 0.961 . S
H477 C469 0.960 . S
H478 C470 0.930 . S
H479 C471 0.929 . S
H480 C488 0.929 . S
H481 C490 0.930 . S
H482 C492 0.930 1_556 S
H483 C495 0.929 . S
H484 C498 0.930 . S
H485 C500 0.960 . S
H486 C500 0.960 1_554 S
H487 C500 0.960 . S
C488 H480 0.929 . S
C488 C489 1.377 . S
C488 C490 1.384 . S
C489 C488 1.377 . S
C489 C495 1.390 . S
C490 H481 0.930 . S
C490 C488 1.384 . S
C490 C491 1.372 . S
C491 C490 1.372 . S
C491 C492 1.400 . S
C491 C496 1.490 1_554 S
C492 H482 0.930 1_554 S
C492 C491 1.400 . S
C492 C495 1.386 . S
H493 C509 0.930 . S
H494 C510 0.931 . S
C495 H483 0.929 . S
C495 C489 1.390 . S
C495 C492 1.386 . S
C496 C491 1.490 1_556 S
C496 C498 1.395 . S
C496 C499 1.403 . S
H497 C503 0.930 . S
C498 H484 0.930 . S
C498 C496 1.395 . S
C498 C501 1.403 . S
C499 C496 1.403 . S
C499 C500 1.524 . S
C499 C503 1.400 . S
C500 H485 0.960 . S
C500 H486 0.960 1_556 S
C500 H487 0.960 . S
C500 C499 1.524 . S
C501 C498 1.403 . S
C501 C502 1.392 . S
C501 C505 1.495 . S
C502 C501 1.392 . S
C502 C503 1.385 . S
C502 C504 1.478 . S
C503 H497 0.930 . S
C503 C499 1.400 . S
C503 C502 1.385 . S
C504 C502 1.478 . S
C504 C506 1.381 . S
C504 C510 1.383 . S
C505 C501 1.495 . S
C505 H511 0.959 . S
C505 H512 0.961 . S
C505 H513 0.960 . S
C506 C504 1.381 . S
C506 C507 1.394 . S
C506 H514 0.930 . S
C507 C506 1.394 . S
C507 C508 1.383 . S
C507 H515 0.929 . S
C508 C507 1.383 . S
C508 C509 1.377 . S
C509 H493 0.930 . S
C509 C508 1.377 . S
C509 C510 1.379 . S
C510 H494 0.931 . S
C510 C504 1.383 . S
C510 C509 1.379 . S
H511 C505 0.959 . S
H512 C505 0.961 . S
H513 C505 0.960 . S
H514 C506 0.930 . S
H515 C507 0.929 . S
H516 C524 0.929 . S
H517 C526 0.930 . S
H518 C528 0.930 1_455 S
H519 C531 0.929 . S
H520 C534 0.930 . S
H521 C536 0.960 . S
H522 C536 0.960 1_655 S
H523 C536 0.960 . S
C524 H516 0.929 . S
C524 C525 1.377 . S
C524 C526 1.384 . S
C525 C524 1.377 . S
C525 C531 1.390 . S
C526 H517 0.930 . S
C526 C524 1.384 . S
C526 C527 1.372 . S
C527 C526 1.372 . S
C527 C528 1.400 . S
C527 C532 1.490 . S
C528 H518 0.930 1_655 S
C528 C527 1.400 . S
C528 C531 1.386 . S
H529 C545 0.930 . S
H530 C546 0.931 . S
C531 H519 0.929 . S
C531 C525 1.390 . S
C531 C528 1.386 . S
C532 C527 1.490 . S
C532 C534 1.395 1_554 S
C532 C535 1.403 . S
H533 C539 0.930 1_455 S
C534 H520 0.930 . S
C534 C532 1.395 1_556 S
C534 C537 1.403 . S
C535 C532 1.403 . S
C535 C536 1.524 1_655 S
C535 C539 1.400 1_554 S
C536 H521 0.960 . S
C536 H522 0.960 1_455 S
C536 H523 0.960 . S
C536 C535 1.524 1_455 S
C537 C534 1.403 . S
C537 C538 1.392 . S
C537 C541 1.495 . S
C538 C537 1.392 . S
C538 C539 1.385 . S
C538 C540 1.478 . S
C539 H533 0.930 1_655 S
C539 C535 1.400 1_556 S
C539 C538 1.385 . S
C540 C538 1.478 . S
C540 C542 1.381 . S
C540 C546 1.383 1_655 S
C541 C537 1.495 . S
C541 H547 0.959 . S
C541 H548 0.961 . S
C541 H549 0.960 . S
C542 C540 1.381 . S
C542 C543 1.394 . S
C542 H550 0.930 . S
C543 C542 1.394 . S
C543 C544 1.383 . S
C543 H551 0.929 . S
C544 C543 1.383 . S
C544 C545 1.377 1_655 S
C545 H529 0.930 . S
C545 C544 1.377 1_455 S
C545 C546 1.379 . S
C546 H530 0.931 . S
C546 C540 1.383 1_455 S
C546 C545 1.379 . S
H547 C541 0.959 . S
H548 C541 0.961 . S
H549 C541 0.960 . S
H550 C542 0.930 . S
H551 C543 0.929 . S
H552 C560 0.929 . S
H553 C562 0.930 . S
H554 C564 0.930 . S
H555 C567 0.929 . S
H556 C570 0.930 . S
H557 C572 0.919 1_655 S
H558 C572 0.960 . S
H559 C572 0.960 . S
C560 H552 0.929 . S
C560 C561 1.377 . S
C560 C562 1.384 . S
C561 C560 1.377 . S
C561 C567 1.390 . S
C562 H553 0.930 . S
C562 C560 1.384 . S
C562 C563 1.372 . S
C563 C562 1.372 . S
C563 C564 1.400 . S
C563 C568 1.490 . S
C564 H554 0.930 . S
C564 C563 1.400 . S
C564 C567 1.386 . S
H565 C581 0.966 . S
H566 C582 0.931 1_655 S
C567 H555 0.929 . S
C567 C561 1.390 . S
C567 C564 1.386 . S
C568 C563 1.490 . S
C568 C570 1.395 . S
C568 C571 1.403 . S
H569 C575 0.930 . S
C570 H556 0.930 . S
C570 C568 1.395 . S
C570 C573 1.403 . S
C571 C568 1.403 . S
C571 C572 1.524 . S
C571 C575 1.400 . S
C572 H557 0.919 1_455 S
C572 H558 0.960 . S
C572 H559 0.960 . S
C572 C571 1.524 . S
C573 C570 1.403 . S
C573 C574 1.392 . S
C573 C577 1.495 . S
C574 C573 1.392 . S
C574 C575 1.385 . S
C574 C576 1.478 . S
C575 H569 0.930 . S
C575 C571 1.400 . S
C575 C574 1.385 . S
C576 C574 1.478 . S
C576 C578 1.381 . S
C576 C582 1.383 . S
C577 C573 1.495 . S
C577 H583 0.959 . S
C577 H584 0.961 . S
C577 H585 0.960 . S
C578 C576 1.381 . S
C578 C579 1.394 . S
C578 H586 0.930 . S
C579 C578 1.394 . S
C579 C580 1.383 . S
C579 H587 0.929 . S
C580 C579 1.383 . S
C580 C581 1.355 1_455 S
C581 H565 0.966 . S
C581 C580 1.355 1_655 S
C581 C582 1.367 1_655 S
C582 H566 0.931 1_455 S
C582 C576 1.383 . S
C582 C581 1.367 1_455 S
H583 C577 0.959 . S
H584 C577 0.961 . S
H585 C577 0.960 . S
H586 C578 0.930 . S
H587 C579 0.929 . S
H588 C596 0.929 . S
H589 C598 0.930 . S
H590 C600 0.930 . S
H591 C603 0.929 . S
H592 C606 0.930 . S
H593 C608 0.960 . S
H594 C608 0.960 . S
H595 C608 0.960 . S
C596 H588 0.929 . S
C596 C597 1.377 . S
C596 C598 1.384 . S
C597 C596 1.377 . S
C597 C603 1.390 . S
C598 H589 0.930 . S
C598 C596 1.384 . S
C598 C599 1.372 . S
C599 C598 1.372 . S
C599 C600 1.400 . S
C599 C604 1.490 . S
C600 H590 0.930 . S
C600 C599 1.400 . S
C600 C603 1.386 . S
H601 C617 0.930 . S
H602 C618 0.931 . S
C603 H591 0.929 . S
C603 C597 1.390 . S
C603 C600 1.386 . S
C604 C599 1.490 . S
C604 C606 1.395 . S
C604 C607 1.403 . S
H605 C611 0.930 . S
C606 H592 0.930 . S
C606 C604 1.395 . S
C606 C609 1.403 . S
C607 C604 1.403 . S
C607 C608 1.524 . S
C607 C611 1.400 . S
C608 H593 0.960 . S
C608 H594 0.960 . S
C608 H595 0.960 . S
C608 C607 1.524 . S
C609 C606 1.403 . S
C609 C610 1.392 . S
C609 C613 1.495 . S
C610 C609 1.392 . S
C610 C611 1.385 . S
C610 C612 1.478 . S
C611 H605 0.930 . S
C611 C607 1.400 . S
C611 C610 1.385 . S
C612 C610 1.478 . S
C612 C614 1.381 1_545 S
C612 C618 1.383 . S
C613 C609 1.495 . S
C613 H619 0.959 . S
C613 H620 0.961 . S
C613 H621 0.960 . S
C614 C612 1.381 1_565 S
C614 C615 1.394 . S
C614 H622 0.930 . S
C615 C614 1.394 . S
C615 C616 1.383 1_565 S
C615 H623 0.929 . S
C616 C615 1.383 1_545 S
C616 C617 1.377 . S
C617 H601 0.930 . S
C617 C616 1.377 . S
C617 C618 1.379 . S
C618 H602 0.931 . S
C618 C612 1.383 . S
C618 C617 1.379 . S
H619 C613 0.959 . S
H620 C613 0.961 . S
H621 C613 0.960 . S
H622 C614 0.930 . S
H623 C615 0.929 . S
H624 C632 0.929 . S
H625 C634 0.930 . S
H626 C636 0.930 . S
H627 C639 0.929 . S
H628 C642 0.930 . S
H629 C644 0.960 . S
H630 C644 0.960 . S
H631 C644 0.960 . S
C632 H624 0.929 . S
C632 C633 1.377 . S
C632 C634 1.384 . S
C633 C632 1.377 . S
C633 C639 1.390 . S
C634 H625 0.930 . S
C634 C632 1.384 . S
C634 C635 1.372 . S
C635 C634 1.372 . S
C635 C636 1.400 . S
C635 C640 1.490 . S
C636 H626 0.930 . S
C636 C635 1.400 . S
C636 C639 1.386 . S
H637 C653 0.930 . S
H638 C654 0.931 . S
C639 H627 0.929 . S
C639 C633 1.390 . S
C639 C636 1.386 . S
C640 C635 1.490 . S
C640 C642 1.395 . S
C640 C643 1.403 . S
H641 C647 0.930 . S
C642 H628 0.930 . S
C642 C640 1.395 . S
C642 C645 1.403 . S
C643 C640 1.403 . S
C643 C644 1.524 . S
C643 C647 1.400 . S
C644 H629 0.960 . S
C644 H630 0.960 . S
C644 H631 0.960 . S
C644 C643 1.524 . S
C645 C642 1.403 . S
C645 C646 1.392 . S
C645 C649 1.495 . S
C646 C645 1.392 . S
C646 C647 1.385 . S
C646 C648 1.478 . S
C647 H641 0.930 . S
C647 C643 1.400 . S
C647 C646 1.385 . S
C648 C646 1.478 . S
C648 C650 1.381 . S
C648 C654 1.383 . S
C649 C645 1.495 . S
C649 H655 0.959 . S
C649 H656 0.961 . S
C649 H657 0.960 . S
C650 C648 1.381 . S
C650 C651 1.394 . S
C650 H658 0.930 . S
C651 C650 1.394 . S
C651 C652 1.383 . S
C651 H659 0.929 . S
C652 C651 1.383 . S
C652 C653 1.377 . S
C653 H637 0.930 . S
C653 C652 1.377 . S
C653 C654 1.379 . S
C654 H638 0.931 . S
C654 C648 1.383 . S
C654 C653 1.379 . S
H655 C649 0.959 . S
H656 C649 0.961 . S
H657 C649 0.960 . S
H658 C650 0.930 . S
H659 C651 0.929 . S
H660 C668 0.929 . S
H661 C670 0.930 . S
H662 C672 0.930 . S
H663 C675 0.929 . S
H664 C678 0.930 . S
H665 C680 0.960 . S
H666 C680 0.960 . S
H667 C680 0.960 . S
C668 H660 0.929 . S
C668 C669 1.377 . S
C668 C670 1.384 . S
C669 C668 1.377 . S
C669 C675 1.390 . S
C670 H661 0.930 . S
C670 C668 1.384 . S
C670 C671 1.372 . S
C671 C670 1.372 . S
C671 C672 1.400 . S
C671 C676 1.490 . S
C672 H662 0.930 . S
C672 C671 1.400 . S
C672 C675 1.386 . S
H673 C689 0.930 . S
H674 C690 0.931 . S
C675 H663 0.929 . S
C675 C669 1.390 . S
C675 C672 1.386 . S
C676 C671 1.490 . S
C676 C678 1.395 . S
C676 C679 1.403 . S
H677 C683 0.930 . S
C678 H664 0.930 . S
C678 C676 1.395 . S
C678 C681 1.403 . S
C679 C676 1.403 . S
C679 C680 1.524 . S
C679 C683 1.400 . S
C680 H665 0.960 . S
C680 H666 0.960 . S
C680 H667 0.960 . S
C680 C679 1.524 . S
C681 C678 1.403 . S
C681 C682 1.392 . S
C681 C685 1.495 . S
C682 C681 1.392 . S
C682 C683 1.385 . S
C682 C684 1.478 . S
C683 H677 0.930 . S
C683 C679 1.400 . S
C683 C682 1.385 . S
C684 C682 1.478 . S
C684 C686 1.381 . S
C684 C690 1.383 . S
C685 C681 1.495 . S
C685 H691 0.959 . S
C685 H692 0.961 . S
C685 H693 0.960 . S
C686 C684 1.381 . S
C686 C687 1.394 . S
C686 H694 0.930 . S
C687 C686 1.394 . S
C687 C688 1.383 . S
C687 H695 0.929 . S
C688 C687 1.383 . S
C688 C689 1.377 . S
C689 H673 0.930 . S
C689 C688 1.377 . S
C689 C690 1.379 . S
C690 H674 0.931 . S
C690 C684 1.383 . S
C690 C689 1.379 . S
H691 C685 0.959 . S
H692 C685 0.961 . S
H693 C685 0.960 . S
H694 C686 0.930 . S
H695 C687 0.929 . S
H696 C704 0.929 . S
H697 C706 0.930 . S
H698 C708 0.930 . S
H699 C711 0.929 . S
H700 C714 0.930 . S
H701 C716 0.960 1_556 S
H702 C716 0.960 . S
H703 C716 0.960 . S
C704 H696 0.929 . S
C704 C705 1.377 . S
C704 C706 1.384 . S
C705 C704 1.377 . S
C705 C711 1.390 . S
C706 H697 0.930 . S
C706 C704 1.384 . S
C706 C707 1.372 . S
C707 C706 1.372 . S
C707 C708 1.400 . S
C707 C712 1.490 . S
C708 H698 0.930 . S
C708 C707 1.400 . S
C708 C711 1.386 . S
H709 C725 0.930 . S
H710 C726 0.931 . S
C711 H699 0.929 . S
C711 C705 1.390 . S
C711 C708 1.386 . S
C712 C707 1.490 . S
C712 C714 1.395 . S
C712 C715 1.403 . S
H713 C719 0.930 1_556 S
C714 H700 0.930 . S
C714 C712 1.395 . S
C714 C717 1.405 . S
C715 C712 1.403 . S
C715 C716 1.524 . S
C715 C719 1.400 . S
C716 H701 0.960 1_554 S
C716 H702 0.960 . S
C716 H703 0.960 . S
C716 C715 1.524 . S
C717 C714 1.405 . S
C717 C718 1.394 . S
C717 C721 1.492 1_655 S
C718 C717 1.394 . S
C718 C719 1.385 . S
C718 C720 1.495 . S
C719 H713 0.930 1_554 S
C719 C715 1.400 . S
C719 C718 1.385 . S
C720 C718 1.495 . S
C720 C722 1.399 . S
C720 C726 1.352 1_654 S
C721 C717 1.492 1_455 S
C721 H727 0.959 . S
C721 H728 0.961 . S
C721 H729 0.960 . S
C722 C720 1.399 . S
C722 C723 1.394 . S
C722 H730 0.930 . S
C723 C722 1.394 . S
C723 C724 1.383 1_654 S
C723 H731 0.929 . S
C724 C723 1.383 1_456 S
C724 C725 1.377 . S
C725 H709 0.930 . S
C725 C724 1.377 . S
C725 C726 1.379 . S
C726 H710 0.931 . S
C726 C720 1.352 1_456 S
C726 C725 1.379 . S
H727 C721 0.959 . S
H728 C721 0.961 . S
H729 C721 0.960 . S
H730 C722 0.930 . S
H731 C723 0.929 . S
H732 C740 0.927 . S
H733 C742 0.930 1_545 S
H734 C744 0.930 . S
H735 C747 0.929 . S
H736 C750 0.930 . S
H737 C752 0.960 . S
H738 C752 0.961 . S
H739 C752 0.960 . S
C740 H732 0.927 . S
C740 C741 1.377 . S
C740 C742 1.384 . S
C741 C740 1.377 . S
C741 C747 1.390 . S
C742 H733 0.930 1_565 S
C742 C740 1.384 . S
C742 C743 1.372 . S
C743 C742 1.372 . S
C743 C744 1.400 . S
C743 C748 1.490 . S
C744 H734 0.930 . S
C744 C743 1.400 . S
C744 C747 1.386 . S
H745 C761 0.960 . S
H746 C762 0.931 . S
C747 H735 0.929 . S
C747 C741 1.390 . S
C747 C744 1.386 . S
C748 C743 1.490 . S
C748 C750 1.395 . S
C748 C751 1.403 . S
H749 C755 0.933 . S
C750 H736 0.930 . S
C750 C748 1.395 . S
C750 C753 1.400 1_564 S
C751 C748 1.403 . S
C751 C752 1.524 . S
C751 C755 1.400 . S
C752 H737 0.960 . S
C752 H738 0.961 . S
C752 H739 0.960 . S
C752 C751 1.524 . S
C753 C750 1.400 1_546 S
C753 C754 1.393 1_556 S
C753 C757 1.497 . S
C754 C753 1.393 1_554 S
C754 C755 1.385 1_545 S
C754 C756 1.478 1_554 S
C755 H749 0.933 . S
C755 C751 1.400 . S
C755 C754 1.385 1_565 S
C756 C754 1.478 1_556 S
C756 C758 1.381 . S
C756 C762 1.383 1_545 S
C757 C753 1.497 . S
C757 H763 0.959 . S
C757 H764 0.961 1_545 S
C757 H765 0.960 . S
C758 C756 1.381 . S
C758 C759 1.394 . S
C758 H766 0.930 . S
C759 C758 1.394 . S
C759 C760 1.383 . S
C759 H767 0.929 . S
C760 C759 1.383 . S
C760 C761 1.336 1_545 S
C761 H745 0.960 . S
C761 C760 1.336 1_565 S
C761 C762 1.392 . S
C762 H746 0.931 . S
C762 C756 1.383 1_565 S
C762 C761 1.392 . S
H763 C757 0.959 . S
H764 C757 0.961 1_565 S
H765 C757 0.960 . S
H766 C758 0.930 . S
H767 C759 0.929 . S
H768 C776 0.929 . S
H769 C778 0.930 . S
H770 C780 0.930 . S
H771 C783 0.929 . S
H772 C786 0.930 . S
H773 C788 0.960 . S
H774 C788 0.960 . S
H775 C788 0.960 . S
C776 H768 0.929 . S
C776 C777 1.377 . S
C776 C778 1.384 . S
C777 C776 1.377 . S
C777 C783 1.390 . S
C778 H769 0.930 . S
C778 C776 1.384 . S
C778 C779 1.372 . S
C779 C778 1.372 . S
C779 C780 1.400 . S
C779 C784 1.490 . S
C780 H770 0.930 . S
C780 C779 1.400 . S
C780 C783 1.386 . S
H781 C797 0.930 . S
H782 C798 0.931 . S
C783 H771 0.929 . S
C783 C777 1.390 . S
C783 C780 1.386 . S
C784 C779 1.490 . S
C784 C786 1.395 1_554 S
C784 C787 1.403 . S
H785 C791 0.930 . S
C786 H772 0.930 . S
C786 C784 1.395 1_556 S
C786 C789 1.403 . S
C787 C784 1.403 . S
C787 C788 1.524 . S
C787 C791 1.400 . S
C788 H773 0.960 . S
C788 H774 0.960 . S
C788 H775 0.960 . S
C788 C787 1.524 . S
C789 C786 1.403 . S
C789 C790 1.392 . S
C789 C793 1.495 . S
C790 C789 1.392 . S
C790 C791 1.385 1_556 S
C790 C792 1.478 . S
C791 H785 0.930 . S
C791 C787 1.400 . S
C791 C790 1.385 1_554 S
C792 C790 1.478 . S
C792 C794 1.381 . S
C792 C798 1.383 . S
C793 C789 1.495 . S
C793 H799 0.959 . S
C793 H800 0.961 . S
C793 H801 0.960 . S
C794 C792 1.381 . S
C794 C795 1.394 . S
C794 H802 0.930 . S
C795 C794 1.394 . S
C795 C796 1.383 . S
C795 H803 0.929 . S
C796 C795 1.383 . S
C796 C797 1.377 . S
C797 H781 0.930 . S
C797 C796 1.377 . S
C797 C798 1.379 . S
C798 H782 0.931 . S
C798 C792 1.383 . S
C798 C797 1.379 . S
H799 C793 0.959 . S
H800 C793 0.961 . S
H801 C793 0.960 . S
H802 C794 0.930 . S
H803 C795 0.929 . S
H804 C812 0.929 . S
H805 C814 0.930 . S
H806 C816 0.930 . S
H807 C819 0.929 . S
H808 C822 0.930 . S
H809 C824 0.960 . S
H810 C824 0.960 . S
H811 C824 0.960 . S
C812 H804 0.929 . S
C812 C813 1.377 . S
C812 C814 1.384 . S
C813 C812 1.377 . S
C813 C819 1.390 . S
C814 H805 0.930 . S
C814 C812 1.384 . S
C814 C815 1.372 . S
C815 C814 1.372 . S
C815 C816 1.400 . S
C815 C820 1.490 . S
C816 H806 0.930 . S
C816 C815 1.400 . S
C816 C819 1.386 . S
H817 C833 0.930 . S
H818 C834 0.931 . S
C819 H807 0.929 . S
C819 C813 1.390 . S
C819 C816 1.386 . S
C820 C815 1.490 . S
C820 C822 1.395 . S
C820 C823 1.403 . S
H821 C827 0.930 . S
C822 H808 0.930 . S
C822 C820 1.395 . S
C822 C825 1.403 . S
C823 C820 1.403 . S
C823 C824 1.524 1_554 S
C823 C827 1.400 1_554 S
C824 H809 0.960 . S
C824 H810 0.960 . S
C824 H811 0.960 . S
C824 C823 1.524 1_556 S
C825 C822 1.403 . S
C825 C826 1.392 . S
C825 C829 1.495 . S
C826 C825 1.392 . S
C826 C827 1.385 1_554 S
C826 C828 1.478 . S
C827 H821 0.930 . S
C827 C823 1.400 1_556 S
C827 C826 1.385 1_556 S
C828 C826 1.478 . S
C828 C830 1.381 . S
C828 C834 1.383 1_554 S
C829 C825 1.495 . S
C829 H835 0.959 . S
C829 H836 0.961 . S
C829 H837 0.960 . S
C830 C828 1.381 . S
C830 C831 1.394 1_554 S
C830 H838 0.930 . S
C831 C830 1.394 1_556 S
C831 C832 1.383 . S
C831 H839 0.929 . S
C832 C831 1.383 . S
C832 C833 1.377 . S
C833 H817 0.930 . S
C833 C832 1.377 . S
C833 C834 1.379 . S
C834 H818 0.931 . S
C834 C828 1.383 1_556 S
C834 C833 1.379 . S
H835 C829 0.959 . S
H836 C829 0.961 . S
H837 C829 0.960 . S
H838 C830 0.930 . S
H839 C831 0.929 . S
H840 C848 0.929 . S
H841 C850 0.930 . S
H842 C852 0.930 . S
H843 C855 0.929 . S
H844 C858 0.930 . S
H845 C860 0.960 . S
H846 C860 0.960 . S
H847 C860 0.960 . S
C848 H840 0.929 . S
C848 C849 1.377 . S
C848 C850 1.384 . S
C849 C848 1.377 . S
C849 C855 1.390 . S
C850 H841 0.930 . S
C850 C848 1.384 . S
C850 C851 1.372 . S
C851 C850 1.372 . S
C851 C852 1.400 . S
C851 C856 1.490 . S
C852 H842 0.930 . S
C852 C851 1.400 . S
C852 C855 1.386 . S
H853 C869 0.930 1_655 S
H854 C870 0.931 . S
C855 H843 0.929 . S
C855 C849 1.390 . S
C855 C852 1.386 . S
C856 C851 1.490 . S
C856 C858 1.395 . S
C856 C859 1.403 . S
H857 C863 0.930 . S
C858 H844 0.930 . S
C858 C856 1.395 . S
C858 C861 1.403 . S
C859 C856 1.403 . S
C859 C860 1.524 . S
C859 C863 1.400 . S
C860 H845 0.960 . S
C860 H846 0.960 . S
C860 H847 0.960 . S
C860 C859 1.524 . S
C861 C858 1.403 . S
C861 C862 1.392 . S
C861 C865 1.495 . S
C862 C861 1.392 . S
C862 C863 1.385 . S
C862 C864 1.478 . S
C863 H857 0.930 . S
C863 C859 1.400 . S
C863 C862 1.385 . S
C864 C862 1.478 . S
C864 C866 1.381 . S
C864 C870 1.383 . S
C865 C861 1.495 . S
C865 H871 0.959 . S
C865 H872 0.961 . S
C865 H873 0.960 . S
C866 C864 1.381 . S
C866 C867 1.394 . S
C866 H874 0.930 . S
C867 C866 1.394 . S
C867 C868 1.383 . S
C867 H875 0.929 . S
C868 C867 1.383 . S
C868 C869 1.377 . S
C869 H853 0.930 1_455 S
C869 C868 1.377 . S
C869 C870 1.379 . S
C870 H854 0.931 . S
C870 C864 1.383 . S
C870 C869 1.379 . S
H871 C865 0.959 . S
H872 C865 0.961 . S
H873 C865 0.960 . S
H874 C866 0.930 . S
H875 C867 0.929 . S
H876 C884 0.929 . S
H877 C886 0.930 . S
H878 C888 0.930 . S
H879 C891 0.929 . S
H880 C894 0.930 . S
H881 C896 0.960 . S
H882 C896 0.960 . S
H883 C896 0.960 . S
C884 H876 0.929 . S
C884 C885 1.377 . S
C884 C886 1.384 . S
C885 C884 1.377 . S
C885 C891 1.390 . S
C886 H877 0.930 . S
C886 C884 1.384 . S
C886 C887 1.372 . S
C887 C886 1.372 . S
C887 C888 1.400 . S
C887 C892 1.490 . S
C888 H878 0.930 . S
C888 C887 1.400 . S
C888 C891 1.386 . S
H889 C905 0.930 . S
H890 C906 0.931 . S
C891 H879 0.929 . S
C891 C885 1.390 . S
C891 C888 1.386 . S
C892 C887 1.490 . S
C892 C894 1.395 . S
C892 C895 1.403 . S
H893 C899 0.930 . S
C894 H880 0.930 . S
C894 C892 1.395 . S
C894 C897 1.403 . S
C895 C892 1.403 . S
C895 C896 1.524 . S
C895 C899 1.400 . S
C896 H881 0.960 . S
C896 H882 0.960 . S
C896 H883 0.960 . S
C896 C895 1.524 . S
C897 C894 1.403 . S
C897 C898 1.392 . S
C897 C901 1.495 . S
C898 C897 1.392 . S
C898 C899 1.385 . S
C898 C900 1.478 . S
C899 H893 0.930 . S
C899 C895 1.400 . S
C899 C898 1.385 . S
C900 C898 1.478 . S
C900 C902 1.381 . S
C900 C906 1.383 . S
C901 C897 1.495 . S
C901 H907 0.959 . S
C901 H908 0.961 . S
C901 H909 0.960 . S
C902 C900 1.381 . S
C902 C903 1.394 . S
C902 H910 0.971 . S
C903 C902 1.394 . S
C903 C904 1.383 . S
C903 H911 0.929 1_545 S
C904 C903 1.383 . S
C904 C905 1.377 . S
C905 H889 0.930 . S
C905 C904 1.377 . S
C905 C906 1.379 . S
C906 H890 0.931 . S
C906 C900 1.383 . S
C906 C905 1.379 . S
H907 C901 0.959 . S
H908 C901 0.961 . S
H909 C901 0.960 . S
H910 C902 0.971 . S
H911 C903 0.929 1_565 S
H912 C920 0.929 1_554 S
H913 C922 0.930 . S
H914 C924 0.930 . S
H915 C927 0.929 . S
H916 C930 0.930 . S
H917 C932 0.960 . S
H918 C932 0.960 . S
H919 C932 0.960 . S
C920 H912 0.929 1_556 S
C920 C921 1.377 . S
C920 C922 1.384 . S
C921 C920 1.377 . S
C921 C927 1.390 . S
C922 H913 0.930 . S
C922 C920 1.384 . S
C922 C923 1.372 . S
C923 C922 1.372 . S
C923 C924 1.400 . S
C923 C928 1.490 . S
C924 H914 0.930 . S
C924 C923 1.400 . S
C924 C927 1.386 . S
H925 C941 0.930 . S
H926 C942 0.931 . S
C927 H915 0.929 . S
C927 C921 1.390 . S
C927 C924 1.386 . S
C928 C923 1.490 . S
C928 C930 1.395 . S
C928 C931 1.403 . S
H929 C935 0.930 . S
C930 H916 0.930 . S
C930 C928 1.395 . S
C930 C933 1.403 . S
C931 C928 1.403 . S
C931 C932 1.524 . S
C931 C935 1.400 . S
C932 H917 0.960 . S
C932 H918 0.960 . S
C932 H919 0.960 . S
C932 C931 1.524 . S
C933 C930 1.403 . S
C933 C934 1.392 . S
C933 C937 1.495 . S
C934 C933 1.392 . S
C934 C935 1.385 . S
C934 C936 1.478 . S
C935 H929 0.930 . S
C935 C931 1.400 . S
C935 C934 1.385 . S
C936 C934 1.478 . S
C936 C938 1.381 . S
C936 C942 1.383 . S
C937 C933 1.495 . S
C937 H943 0.959 . S
C937 H944 0.961 . S
C937 H945 0.960 . S
C938 C936 1.381 . S
C938 C939 1.394 . S
C938 H946 0.930 . S
C939 C938 1.394 . S
C939 C940 1.383 . S
C939 H947 0.929 . S
C940 C939 1.383 . S
C940 C941 1.377 . S
C941 H925 0.930 . S
C941 C940 1.377 . S
C941 C942 1.379 . S
C942 H926 0.931 . S
C942 C936 1.383 . S
C942 C941 1.379 . S
H943 C937 0.959 . S
H944 C937 0.961 . S
H945 C937 0.960 . S
H946 C938 0.930 . S
H947 C939 0.929 . S
H948 C956 0.929 . S
H949 C958 0.930 . S
H950 C960 0.930 . S
H951 C963 0.929 . S
H952 C966 0.930 . S
H953 C968 0.960 . S
H954 C968 0.960 . S
H955 C968 0.960 . S
C956 H948 0.929 . S
C956 C957 1.377 . S
C956 C958 1.384 . S
C957 C956 1.377 . S
C957 C963 1.390 . S
C958 H949 0.930 . S
C958 C956 1.384 . S
C958 C959 1.372 . S
C959 C958 1.372 . S
C959 C960 1.400 . S
C959 C964 1.490 . S
C960 H950 0.930 . S
C960 C959 1.400 . S
C960 C963 1.386 . S
H961 C977 0.930 . S
H962 C978 0.931 . S
C963 H951 0.929 . S
C963 C957 1.390 . S
C963 C960 1.386 . S
C964 C959 1.490 . S
C964 C966 1.395 . S
C964 C967 1.403 . S
H965 C971 0.930 . S
C966 H952 0.930 . S
C966 C964 1.395 . S
C966 C969 1.403 . S
C967 C964 1.403 . S
C967 C968 1.524 . S
C967 C971 1.400 . S
C968 H953 0.960 . S
C968 H954 0.960 . S
C968 H955 0.960 . S
C968 C967 1.524 . S
C969 C966 1.403 . S
C969 C970 1.392 . S
C969 C973 1.495 . S
C970 C969 1.392 . S
C970 C971 1.385 . S
C970 C972 1.478 . S
C971 H965 0.930 . S
C971 C967 1.400 . S
C971 C970 1.385 . S
C972 C970 1.478 . S
C972 C974 1.381 . S
C972 C978 1.383 . S
C973 C969 1.495 . S
C973 H979 0.959 . S
C973 H980 0.961 . S
C973 H981 0.960 . S
C974 C972 1.381 . S
C974 C975 1.394 . S
C974 H982 0.930 . S
C975 C974 1.394 . S
C975 C976 1.383 . S
C975 H983 0.929 . S
C976 C975 1.383 . S
C976 C977 1.377 . S
C977 H961 0.930 . S
C977 C976 1.377 . S
C977 C978 1.379 . S
C978 H962 0.931 . S
C978 C972 1.383 . S
C978 C977 1.379 . S
H979 C973 0.959 . S
H980 C973 0.961 . S
H981 C973 0.960 . S
H982 C974 0.930 . S
H983 C975 0.929 . S
H984 C992 0.929 . S
H985 C994 0.930 1_455 S
H986 C996 0.930 . S
H987 C999 0.929 . S
H988 C1002 0.930 1_455 S
H989 C1004 0.960 . S
H990 C1004 0.960 . S
H991 C1004 0.960 . S
C992 H984 0.929 . S
C992 C993 1.377 . S
C992 C994 1.384 . S
C993 C992 1.377 . S
C993 C999 1.390 . S
C994 H985 0.930 1_655 S
C994 C992 1.384 . S
C994 C995 1.372 . S
C995 C994 1.372 . S
C995 C996 1.400 . S
C995 C1000 1.490 . S
C996 H986 0.930 . S
C996 C995 1.400 . S
C996 C999 1.386 . S
H997 C1013 0.930 . S
H998 C1014 0.931 . S
C999 H987 0.929 . S
C999 C993 1.390 . S
C999 C996 1.386 . S
C1000 C995 1.490 . S
C1000 C1002 1.395 . S
C1000 C1003 1.403 . S
H1001 C1007 0.930 . S
C1002 H988 0.930 1_655 S
C1002 C1000 1.395 . S
C1002 C1005 1.412 . S
C1003 C1000 1.403 . S
C1003 C1004 1.524 . S
C1003 C1007 1.400 . S
C1004 H989 0.960 . S
C1004 H990 0.960 . S
C1004 H991 0.960 . S
C1004 C1003 1.524 . S
C1005 C1002 1.412 . S
C1005 C1006 1.419 . S
C1005 C1009 1.462 1_655 S
C1006 C1005 1.419 . S
C1006 C1007 1.385 . S
C1006 C1008 1.478 . S
C1007 H1001 0.930 . S
C1007 C1003 1.400 . S
C1007 C1006 1.385 . S
C1008 C1006 1.478 . S
C1008 C1010 1.381 1_655 S
C1008 C1014 1.383 . S
C1009 C1005 1.462 1_455 S
C1009 H1015 0.959 . S
C1009 H1016 0.961 . S
C1009 H1017 0.960 . S
C1010 C1008 1.381 1_455 S
C1010 C1011 1.394 . S
C1010 H1018 0.930 . S
C1011 C1010 1.394 . S
C1011 C1012 1.383 1_455 S
C1011 H1019 0.929 . S
C1012 C1011 1.383 1_655 S
C1012 C1013 1.377 . S
C1013 H997 0.930 . S
C1013 C1012 1.377 . S
C1013 C1014 1.379 . S
C1014 H998 0.931 . S
C1014 C1008 1.383 . S
C1014 C1013 1.379 . S
H1015 C1009 0.959 . S
H1016 C1009 0.961 . S
H1017 C1009 0.960 . S
H1018 C1010 0.930 . S
H1019 C1011 0.929 . S
H1020 C1028 0.911 1_545 S
H1021 C1030 0.930 1_545 S
H1022 C1032 0.930 . S
H1023 C1035 0.929 . S
H1024 C1038 0.930 . S
H1025 C1040 0.960 . S
H1026 C1040 0.960 1_545 S
H1027 C1040 0.960 . S
C1028 H1020 0.911 1_565 S
C1028 C1029 1.377 . S
C1028 C1030 1.384 . S
C1029 C1028 1.377 . S
C1029 C1035 1.390 . S
C1030 H1021 0.930 1_565 S
C1030 C1028 1.384 . S
C1030 C1031 1.372 . S
C1031 C1030 1.372 . S
C1031 C1032 1.400 . S
C1031 C1036 1.490 . S
C1032 H1022 0.930 . S
C1032 C1031 1.400 . S
C1032 C1035 1.386 . S
H1033 C1049 0.930 . S
H1034 C1050 0.931 . S
C1035 H1023 0.929 . S
C1035 C1029 1.390 . S
C1035 C1032 1.386 . S
C1036 C1031 1.490 . S
C1036 C1038 1.395 . S
C1036 C1039 1.403 . S
H1037 C1043 0.930 . S
C1038 H1024 0.930 . S
C1038 C1036 1.395 . S
C1038 C1041 1.403 . S
C1039 C1036 1.403 . S
C1039 C1040 1.524 . S
C1039 C1043 1.400 . S
C1040 H1025 0.960 . S
C1040 H1026 0.960 1_565 S
C1040 H1027 0.960 . S
C1040 C1039 1.524 . S
C1041 C1038 1.403 . S
C1041 C1042 1.392 . S
C1041 C1045 1.495 . S
C1042 C1041 1.392 . S
C1042 C1043 1.385 . S
C1042 C1044 1.478 . S
C1043 H1037 0.930 . S
C1043 C1039 1.400 . S
C1043 C1042 1.385 . S
C1044 C1042 1.478 . S
C1044 C1046 1.381 1_565 S
C1044 C1050 1.383 . S
C1045 C1041 1.495 . S
C1045 H1051 0.959 . S
C1045 H1052 0.961 . S
C1045 H1053 0.960 . S
C1046 C1044 1.381 1_545 S
C1046 C1047 1.394 . S
C1046 H1054 0.930 . S
C1047 C1046 1.394 . S
C1047 C1048 1.383 1_545 S
C1047 H1055 0.929 . S
C1048 C1047 1.383 1_565 S
C1048 C1049 1.377 . S
C1049 H1033 0.930 . S
C1049 C1048 1.377 . S
C1049 C1050 1.379 . S
C1050 H1034 0.931 . S
C1050 C1044 1.383 . S
C1050 C1049 1.379 . S
H1051 C1045 0.959 . S
H1052 C1045 0.961 . S
H1053 C1045 0.960 . S
H1054 C1046 0.930 . S
H1055 C1047 0.929 . S
H1056 C1064 0.929 . S
H1057 C1066 0.930 . S
H1058 C1068 0.930 . S
H1059 C1071 0.929 . S
H1060 C1074 0.930 . S
H1061 C1076 0.960 . S
H1062 C1076 0.960 . S
H1063 C1076 0.960 . S
C1064 H1056 0.929 . S
C1064 C1065 1.377 . S
C1064 C1066 1.384 . S
C1065 C1064 1.377 . S
C1065 C1071 1.390 . S
C1066 H1057 0.930 . S
C1066 C1064 1.384 . S
C1066 C1067 1.372 . S
C1067 C1066 1.372 . S
C1067 C1068 1.400 . S
C1067 C1072 1.490 . S
C1068 H1058 0.930 . S
C1068 C1067 1.400 . S
C1068 C1071 1.386 . S
H1069 C1085 0.930 . S
H1070 C1086 0.931 . S
C1071 H1059 0.929 . S
C1071 C1065 1.390 . S
C1071 C1068 1.386 . S
C1072 C1067 1.490 . S
C1072 C1074 1.395 . S
C1072 C1075 1.403 . S
H1073 C1079 0.930 . S
C1074 H1060 0.930 . S
C1074 C1072 1.395 . S
C1074 C1077 1.403 . S
C1075 C1072 1.403 . S
C1075 C1076 1.524 . S
C1075 C1079 1.400 . S
C1076 H1061 0.960 . S
C1076 H1062 0.960 . S
C1076 H1063 0.960 . S
C1076 C1075 1.524 . S
C1077 C1074 1.403 . S
C1077 C1078 1.392 . S
C1077 C1081 1.495 . S
C1078 C1077 1.392 . S
C1078 C1079 1.385 . S
C1078 C1080 1.478 . S
C1079 H1073 0.930 . S
C1079 C1075 1.400 . S
C1079 C1078 1.385 . S
C1080 C1078 1.478 . S
C1080 C1082 1.381 . S
C1080 C1086 1.383 . S
C1081 C1077 1.495 . S
C1081 H1087 0.959 . S
C1081 H1088 0.961 . S
C1081 H1089 0.960 . S
C1082 C1080 1.381 . S
C1082 C1083 1.394 . S
C1082 H1090 0.930 . S
C1083 C1082 1.394 . S
C1083 C1084 1.383 . S
C1083 H1091 0.929 . S
C1084 C1083 1.383 . S
C1084 C1085 1.377 . S
C1085 H1069 0.930 . S
C1085 C1084 1.377 . S
C1085 C1086 1.379 . S
C1086 H1070 0.931 . S
C1086 C1080 1.383 . S
C1086 C1085 1.379 . S
H1087 C1081 0.959 . S
H1088 C1081 0.961 . S
H1089 C1081 0.960 . S
H1090 C1082 0.930 . S
H1091 C1083 0.929 . S
H1092 C1100 0.929 . S
H1093 C1102 0.930 . S
H1094 C1104 0.930 . S
H1095 C1107 0.929 . S
H1096 C1110 0.930 . S
H1097 C1112 0.960 . S
H1098 C1112 0.960 . S
H1099 C1112 0.960 . S
C1100 H1092 0.929 . S
C1100 C1101 1.377 . S
C1100 C1102 1.384 . S
C1101 C1100 1.377 . S
C1101 C1107 1.390 . S
C1102 H1093 0.930 . S
C1102 C1100 1.384 . S
C1102 C1103 1.372 . S
C1103 C1102 1.372 . S
C1103 C1104 1.400 . S
C1103 C1108 1.490 . S
C1104 H1094 0.930 . S
C1104 C1103 1.400 . S
C1104 C1107 1.386 . S
H1105 C1121 0.930 . S
H1106 C1122 0.931 . S
C1107 H1095 0.929 . S
C1107 C1101 1.390 . S
C1107 C1104 1.386 . S
C1108 C1103 1.490 . S
C1108 C1110 1.395 . S
C1108 C1111 1.403 . S
H1109 C1115 0.930 . S
C1110 H1096 0.930 . S
C1110 C1108 1.395 . S
C1110 C1113 1.403 . S
C1111 C1108 1.403 . S
C1111 C1112 1.524 . S
C1111 C1115 1.400 . S
C1112 H1097 0.960 . S
C1112 H1098 0.960 . S
C1112 H1099 0.960 . S
C1112 C1111 1.524 . S
C1113 C1110 1.403 . S
C1113 C1114 1.392 . S
C1113 C1117 1.495 . S
C1114 C1113 1.392 . S
C1114 C1115 1.385 . S
C1114 C1116 1.478 . S
C1115 H1109 0.930 . S
C1115 C1111 1.400 . S
C1115 C1114 1.385 . S
C1116 C1114 1.478 . S
C1116 C1118 1.381 . S
C1116 C1122 1.383 . S
C1117 C1113 1.495 . S
C1117 H1123 0.959 . S
C1117 H1124 0.961 . S
C1117 H1125 0.960 . S
C1118 C1116 1.381 . S
C1118 C1119 1.394 . S
C1118 H1126 0.930 . S
C1119 C1118 1.394 . S
C1119 C1120 1.383 . S
C1119 H1127 0.929 . S
C1120 C1119 1.383 . S
C1120 C1121 1.377 . S
C1121 H1105 0.930 . S
C1121 C1120 1.377 . S
C1121 C1122 1.379 . S
C1122 H1106 0.931 . S
C1122 C1116 1.383 . S
C1122 C1121 1.379 . S
H1123 C1117 0.959 . S
H1124 C1117 0.961 . S
H1125 C1117 0.960 . S
H1126 C1118 0.930 . S
H1127 C1119 0.929 . S
C273 C82 1.997 . S
C292 C135 2.267 . S
C328 C161 1.677 . S
C309 C95 1.421 . S
C364 C201 1.809 . S
C345 C56 1.636 . S
C400 C255 2.352 . S
C381 C69 2.114 . S
C436 C116 2.265 1_565 S
C417 C30 1.964 . S
C453 C43 1.451 . S
C472 C146 1.656 . S
C489 C4 1.596 . S
C508 C186 1.822 . S
C525 C17 2.078 . S
C544 C236 2.359 1_655 S
C580 C112 0.243 . S
C561 C74 0.358 . S
C616 C173 0.507 . S
C597 C87 0.543 . S
C652 C213 0.475 . S
C633 C100 0.427 . S
C669 C61 0.363 . S
C688 C232 0.317 . S
C705 C22 0.387 . S
C724 C133 0.365 . S
C760 C152 0.587 . S
C741 C35 0.541 . S
C796 C192 0.485 . S
C777 C48 0.424 . S
C813 C9 0.372 . S
C832 C253 0.314 . S
C849 C73 1.765 . S
C868 C106 1.916 . S
C885 C86 2.371 . S
C904 C156 2.545 . S
C940 C196 2.286 . S
C921 C99 2.134 . S
C976 C226 1.657 . S
C957 C60 1.549 1_556 S
C993 C21 1.764 . S
C1012 C121 1.919 . S
C1048 C175 2.554 . S
C1029 C34 2.371 . S
C1084 C215 2.286 . S
C1065 C47 2.147 . S
C1101 C8 1.534 . S
C1120 C241 1.654 . S
