# Generated by pormake.
# Topology zzz, (3,6)-cn, num edge types: 1
# Building blocks:
#     Node 0, Type 0, BuildingBlock: MIDCAF_clean_linker_0, # of connection points: 3
#     Node 1, Type 0, BuildingBlock: MIDCAF_clean_linker_0, # of connection points: 3
#     Node 2, Type 0, BuildingBlock: MIDCAF_clean_linker_0, # of connection points: 3
#     Node 3, Type 0, BuildingBlock: MIDCAF_clean_linker_0, # of connection points: 3
#     Node 4, Type 0, BuildingBlock: MIDCAF_clean_linker_0, # of connection points: 3
#     Node 5, Type 0, BuildingBlock: MIDCAF_clean_linker_0, # of connection points: 3
#     Node 6, Type 0, BuildingBlock: MIDCAF_clean_linker_0, # of connection points: 3
#     Node 7, Type 0, BuildingBlock: MIDCAF_clean_linker_0, # of connection points: 3
#     Node 8, Type 1, BuildingBlock: BETDAH_clean_sbu_0, # of connection points: 6
#     Node 9, Type 1, BuildingBlock: BETDAH_clean_sbu_0, # of connection points: 6
#     Node 10, Type 1, BuildingBlock: BETDAH_clean_sbu_0, # of connection points: 6
#     Node 11, Type 1, BuildingBlock: BETDAH_clean_sbu_0, # of connection points: 6
#     Edge 12, Type (0, 1), BuildingBlock: MIFKUJ_clean_linker_0, # of connection points: 2
#     Edge 13, Type (0, 1), BuildingBlock: MIFKUJ_clean_linker_0, # of connection points: 2
#     Edge 14, Type (0, 1), BuildingBlock: MIFKUJ_clean_linker_0, # of connection points: 2
#     Edge 15, Type (0, 1), BuildingBlock: MIFKUJ_clean_linker_0, # of connection points: 2
#     Edge 16, Type (0, 1), BuildingBlock: MIFKUJ_clean_linker_0, # of connection points: 2
#     Edge 17, Type (0, 1), BuildingBlock: MIFKUJ_clean_linker_0, # of connection points: 2
#     Edge 18, Type (0, 1), BuildingBlock: MIFKUJ_clean_linker_0, # of connection points: 2
#     Edge 19, Type (0, 1), BuildingBlock: MIFKUJ_clean_linker_0, # of connection points: 2
#     Edge 20, Type (0, 1), BuildingBlock: MIFKUJ_clean_linker_0, # of connection points: 2
#     Edge 21, Type (0, 1), BuildingBlock: MIFKUJ_clean_linker_0, # of connection points: 2
#     Edge 22, Type (0, 1), BuildingBlock: MIFKUJ_clean_linker_0, # of connection points: 2
#     Edge 23, Type (0, 1), BuildingBlock: MIFKUJ_clean_linker_0, # of connection points: 2
#     Edge 24, Type (0, 1), BuildingBlock: MIFKUJ_clean_linker_0, # of connection points: 2
#     Edge 25, Type (0, 1), BuildingBlock: MIFKUJ_clean_linker_0, # of connection points: 2
#     Edge 26, Type (0, 1), BuildingBlock: MIFKUJ_clean_linker_0, # of connection points: 2
#     Edge 27, Type (0, 1), BuildingBlock: MIFKUJ_clean_linker_0, # of connection points: 2
#     Edge 28, Type (0, 1), BuildingBlock: MIFKUJ_clean_linker_0, # of connection points: 2
#     Edge 29, Type (0, 1), BuildingBlock: MIFKUJ_clean_linker_0, # of connection points: 2
#     Edge 30, Type (0, 1), BuildingBlock: MIFKUJ_clean_linker_0, # of connection points: 2
#     Edge 31, Type (0, 1), BuildingBlock: MIFKUJ_clean_linker_0, # of connection points: 2
#     Edge 32, Type (0, 1), BuildingBlock: MIFKUJ_clean_linker_0, # of connection points: 2
#     Edge 33, Type (0, 1), BuildingBlock: MIFKUJ_clean_linker_0, # of connection points: 2
#     Edge 34, Type (0, 1), BuildingBlock: MIFKUJ_clean_linker_0, # of connection points: 2
#     Edge 35, Type (0, 1), BuildingBlock: MIFKUJ_clean_linker_0, # of connection points: 2
# Relax obj value: 0.414
# Max RMSD: 0.277
# Mean RMSD: 0.254
data_MOF--net-zzz--node1-BETDAH_clean_sbu_0--node2-MIDCAF_clean_linker_0--edge1-MIFKUJ_clean_linker_0
_symmetry_space_group_name_H-M    P1
_symmetry_Int_Tables_number       1
_symmetry_cell_setting            triclinic
loop_
_symmetry_equiv_pos_as_xyz
'x, y, z'
_cell_length_a     74.800857
_cell_length_b     74.808902
_cell_length_c     22.589887
_cell_angle_alpha  89.882472
_cell_angle_beta   89.973873
_cell_angle_gamma 90.236391
loop_
_atom_site_label
_atom_site_type_symbol
_atom_site_fract_x
_atom_site_fract_y
_atom_site_fract_z
_atom_type_partial_charge
C0 C 0.77249 0.50641 0.40773 0.0
C1 C 0.78388 0.52148 0.40978 0.0
C2 C 0.77862 0.53697 0.37885 0.0
C3 C 0.76343 0.53686 0.34272 0.0
H4 H 0.69556 0.48336 0.2239 0.0
H5 H 0.66573 0.4802 0.18113 0.0
H6 H 0.65598 0.53622 0.21221 0.0
H7 H 0.68586 0.53924 0.25546 0.0
H8 H 0.72285 0.50705 0.07881 0.0
H9 H 0.73792 0.5027 0.98415 0.0
H10 H 0.78627 0.52543 0.05706 0.0
H11 H 0.77136 0.52977 0.15151 0.0
H12 H 0.74933 0.49422 0.36779 0.0
H13 H 0.77608 0.49419 0.4305 0.0
H14 H 0.78668 0.54901 0.3804 0.0
H15 H 0.76053 0.54856 0.31613 0.0
N16 N 0.72258 0.51662 0.29245 0.0
N17 N 0.72 0.51575 0.18855 0.0
N18 N 0.74785 0.52102 0.23157 0.0
C19 C 0.7123 0.51477 0.24273 0.0
C20 C 0.7377 0.51889 0.18243 0.0
C21 C 0.74053 0.51986 0.28648 0.0
C22 C 0.69287 0.51145 0.24407 0.0
C23 C 0.68664 0.49474 0.22468 0.0
C24 C 0.66967 0.49302 0.19921 0.0
C25 C 0.65859 0.50803 0.19222 0.0
C26 C 0.66412 0.52437 0.21718 0.0
C27 C 0.68117 0.52608 0.24259 0.0
C28 C 0.74599 0.51856 0.12302 0.0
C29 C 0.7366 0.51145 0.07438 0.0
C30 C 0.74518 0.50894 0.02012 0.0
C31 C 0.76321 0.51374 0.01326 0.0
C32 C 0.77227 0.52182 0.06078 0.0
C33 C 0.76378 0.52414 0.11516 0.0
C34 C 0.75278 0.52146 0.33765 0.0
C35 C 0.75707 0.50641 0.37204 0.0
C36 C 0.98789 0.78369 0.3917 0.0
C37 C 1.00165 0.79667 0.38987 0.0
C38 C 0.01572 0.79416 0.34935 0.0
C39 C 0.01535 0.78007 0.30884 0.0
H40 H 0.96493 0.70799 0.20805 0.0
H41 H 0.96215 0.67736 0.17142 0.0
H42 H 0.01954 0.67163 0.18028 0.0
H43 H 0.02207 0.70208 0.21814 0.0
H44 H 0.00745 0.73436 0.04961 0.0
H45 H 0.0107 0.74728 0.95063 0.0
H46 H 1.00053 0.79973 0.02218 0.0
H47 H 0.99733 0.78697 0.12083 0.0
H48 H 0.97648 0.7601 0.35163 0.0
H49 H 0.97678 0.78514 0.42204 0.0
H50 H 0.02688 0.80342 0.34758 0.0
H51 H 0.02597 0.77914 0.27634 0.0
N52 N 0.99663 0.73742 0.26385 0.0
N53 N 0.99773 0.73416 0.16017 0.0
N54 N 1.00126 0.76244 0.20202 0.0
C55 C 0.99587 0.72679 0.21466 0.0
C56 C 1.00032 0.75193 0.15329 0.0
C57 C 0.99943 0.75541 0.25726 0.0
C58 C 0.99367 0.70722 0.21726 0.0
C59 C 0.97681 0.6998 0.20516 0.0
C60 C 0.9753 0.68237 0.183 0.0
C61 C 0.99065 0.67207 0.17167 0.0
C62 C 0.0074 0.67903 0.18872 0.0
C63 C 0.00888 0.69645 0.211 0.0
C64 C 1.00216 0.75966 0.09321 0.0
C65 C 0.00581 0.74865 0.04419 0.0
C66 C 0.0077 0.756 0.98753 0.0
C67 C 0.00567 0.77444 0.9787 0.0
C68 C 1.00185 0.78541 0.02755 0.0
C69 C 1.0002 0.77812 0.08419 0.0
C70 C 1.00117 0.76774 0.3084 0.0
C71 C 0.9877 0.76931 0.35146 0.0
C72 C 0.71624 0.97522 0.38222 0.0
C73 C 0.71647 0.98942 0.42291 0.0
C74 C 0.7316 1.0008 0.42357 0.0
C75 C 0.74571 0.99839 0.38292 0.0
H76 H 0.81237 0.96356 0.26179 0.0
H77 H 0.84274 0.96658 0.22273 0.0
H78 H 0.83208 0.02157 0.177 0.0
H79 H 0.80169 0.01841 0.21623 0.0
H80 H 0.77664 0.97535 0.07802 0.0
H81 H 0.76178 0.9702 0.98328 0.0
H82 H 0.71193 0.96089 0.07565 0.0
H83 H 0.7267 0.96536 0.1691 0.0
H84 H 0.72905 0.96208 0.31034 0.0
H85 H 0.70484 0.96632 0.37906 0.0
H86 H 0.73237 0.01178 0.45462 0.0
H87 H 0.75677 0.00777 0.3827 0.0
N88 N 0.77506 0.98832 0.29277 0.0
N89 N 0.77839 0.98105 0.19167 0.0
N90 N 0.75065 0.97772 0.23729 0.0
C91 C 0.78557 0.98689 0.24333 0.0
C92 C 0.76093 0.97645 0.18825 0.0
C93 C 0.75739 0.98357 0.28955 0.0
C94 C 0.80487 0.99087 0.24324 0.0
C95 C 0.81687 0.97653 0.2462 0.0
C96 C 0.83414 0.9782 0.2229 0.0
C97 C 0.83975 0.99424 0.19595 0.0
C98 C 0.82825 0.00907 0.19779 0.0
C99 C 0.81089 0.00734 0.22076 0.0
C100 C 0.75281 0.97106 0.13122 0.0
C101 C 0.76259 0.97182 0.07801 0.0
C102 C 0.75407 0.96889 0.02367 0.0
C103 C 0.73565 0.96513 0.02156 0.0
C104 C 0.7262 0.96338 0.07515 0.0
C105 C 0.73467 0.96622 0.12914 0.0
C106 C 0.74485 0.98466 0.34059 0.0
C107 C 0.73017 0.97287 0.34207 0.0
C108 C 0.55865 0.7381 0.08457 0.0
C109 C 0.55722 0.74736 0.03048 0.0
C110 C 0.5536 0.76577 0.03154 0.0
C111 C 0.54986 0.77433 0.08502 0.0
H112 H 0.49896 0.80379 0.16145 0.0
H113 H 0.49363 0.83329 0.11884 0.0
H114 H 0.52902 0.85682 0.24802 0.0
H115 H 0.53439 0.82704 0.29074 0.0
H116 H 0.55666 0.74923 0.34336 0.0
H117 H 0.5525 0.72337 0.40745 0.0
H118 H 0.49567 0.73332 0.41202 0.0
H119 H 0.50007 0.75978 0.34904 0.0
H120 H 0.55518 0.73881 0.1783 0.0
H121 H 0.56125 0.72388 0.08563 0.0
H122 H 0.55271 0.77334 0.99075 0.0
H123 H 0.54614 0.7883 0.08383 0.0
N124 N 0.53427 0.78886 0.19068 0.0
N125 N 0.52324 0.78537 0.28775 0.0
N126 N 0.54024 0.76267 0.24284 0.0
C127 C 0.52516 0.79548 0.2376 0.0
C128 C 0.53104 0.76887 0.29038 0.0
C129 C 0.5419 0.77254 0.1928 0.0
C130 C 0.51689 0.81319 0.22982 0.0
C131 C 0.50491 0.81537 0.18256 0.0
C132 C 0.50205 0.83222 0.15771 0.0
C133 C 0.51114 0.84729 0.1795 0.0
C134 C 0.52179 0.84543 0.2305 0.0
C135 C 0.52473 0.82843 0.25533 0.0
C136 C 0.5287 0.75653 0.34128 0.0
C137 C 0.54334 0.74621 0.35957 0.0
C138 C 0.5409 0.73122 0.3957 0.0
C139 C 0.52368 0.72589 0.41374 0.0
C140 C 0.50913 0.73699 0.39905 0.0
C141 C 0.51163 0.75222 0.36322 0.0
C142 C 0.54968 0.76465 0.13852 0.0
C143 C 0.55498 0.74666 0.13797 0.0
C144 C 0.22071 0.50493 0.97721 0.0
C145 C 0.21809 0.49499 0.92501 0.0
C146 C 0.23096 0.48205 0.90988 0.0
C147 C 0.24534 0.47835 0.94787 0.0
H148 H 0.31059 0.45228 0.12843 0.0
H149 H 0.33838 0.45793 0.18141 0.0
H150 H 0.32931 0.51475 0.16827 0.0
H151 H 0.30139 0.50897 0.11399 0.0
H152 H 0.26917 0.45518 0.24995 0.0
H153 H 0.24982 0.44758 0.33324 0.0
H154 H 0.20543 0.44093 0.2127 0.0
H155 H 0.22467 0.4482 0.13005 0.0
H156 H 0.23589 0.50808 0.05717 0.0
H157 H 0.21103 0.51481 0.99094 0.0
H158 H 0.22952 0.47426 0.8698 0.0
H159 H 0.25428 0.46746 0.93719 0.0
N160 N 0.27588 0.48367 0.05713 0.0
N161 N 0.276 0.46561 0.14277 0.0
N162 N 0.24957 0.46922 0.08943 0.0
C163 C 0.28489 0.47623 0.10375 0.0
C164 C 0.25838 0.46206 0.13609 0.0
C165 C 0.25812 0.47983 0.04965 0.0
C166 C 0.30386 0.48019 0.11701 0.0
C167 C 0.31487 0.466 0.13489 0.0
C168 C 0.33068 0.46924 0.16587 0.0
C169 C 0.33585 0.48677 0.18035 0.0
C170 C 0.3257 0.50108 0.15782 0.0
C171 C 0.30978 0.49781 0.12636 0.0
C172 C 0.2483 0.45283 0.18354 0.0
C173 C 0.25542 0.45149 0.24104 0.0
C174 C 0.24434 0.44715 0.28888 0.0
C175 C 0.22602 0.44396 0.2799 0.0
C176 C 0.21948 0.44322 0.22153 0.0
C177 C 0.23049 0.44763 0.17391 0.0
C178 C 0.24725 0.48758 1.00154 0.0
C179 C 0.23504 0.50117 0.01514 0.0
C180 C 1.00209 0.23733 0.9333 0.0
C181 C 0.01755 0.22984 0.9078 0.0
C182 C 0.0338 0.23932 0.91333 0.0
C183 C 0.0348 0.25505 0.94699 0.0
H184 H 0.0467 0.32772 0.05756 0.0
H185 H 0.04583 0.3577 0.10045 0.0
H186 H 0.98957 0.35085 0.13733 0.0
H187 H 0.99055 0.321 0.09373 0.0
H188 H 0.01944 0.29109 0.23709 0.0
H189 H 0.02002 0.27547 0.33217 0.0
H190 H 0.04154 0.22876 0.246 0.0
H191 H 0.04085 0.24418 0.15136 0.0
H192 H 0.99129 0.25774 0.98964 0.0
H193 H 0.98938 0.23041 0.93091 0.0
H194 H 0.04594 0.23422 0.89364 0.0
H195 H 0.04773 0.26127 0.9541 0.0
N196 N 0.01927 0.2923 0.02121 0.0
N197 N 0.02458 0.29491 0.12368 0.0
N198 N 0.02554 0.26683 0.07906 0.0
C199 C 0.02088 0.30265 0.07088 0.0
C200 C 0.02699 0.27708 0.12818 0.0
C201 C 0.0217 0.27421 0.02569 0.0
C202 C 0.0186 0.32222 0.071 0.0
C203 C 0.03396 0.33306 0.07179 0.0
C204 C 0.03351 0.3501 0.09747 0.0
C205 C 0.01769 0.35661 0.12336 0.0
C206 C 1.00195 0.34638 0.11751 0.0
C207 C 1.00244 0.32932 0.09194 0.0
C208 C 0.02985 0.26874 0.18662 0.0
C209 C 0.02466 0.27762 0.2387 0.0
C210 C 0.02499 0.26872 0.29313 0.0
C211 C 0.03082 0.25095 0.29643 0.0
C212 C 0.03717 0.24255 0.24498 0.0
C213 C 0.03659 0.25131 0.19058 0.0
C214 C 0.01956 0.26187 0.97512 0.0
C215 C 0.00312 0.25311 0.96674 0.0
C216 C 0.28164 0.04646 0.98172 0.0
C217 C 0.28363 0.03226 0.94158 0.0
C218 C 0.26953 0.01975 0.93656 0.0
C219 C 0.2543 0.02094 0.97305 0.0
H220 H 0.19345 0.99746 0.1135 0.0
H221 H 0.1635 0.99405 0.15539 0.0
H222 H 0.1563 0.05124 0.14642 0.0
H223 H 0.18613 0.05444 0.10355 0.0
H224 H 0.22273 0.01572 0.26726 0.0
H225 H 0.23832 0.00972 0.36019 0.0
H226 H 0.2835 0.04068 0.29854 0.0
H227 H 0.26811 0.04654 0.20559 0.0
H228 H 0.26612 0.05799 0.05136 0.0
H229 H 0.29222 0.05623 0.98756 0.0
H230 H 0.27052 0.00872 0.90577 0.0
H231 H 0.24418 0.01057 0.97073 0.0
N232 N 0.22221 0.03036 0.05804 0.0
N233 N 0.21871 0.02952 0.16175 0.0
N234 N 0.24699 0.03425 0.12114 0.0
C235 C 0.21146 0.02877 0.1069 0.0
C236 C 0.23641 0.03228 0.16929 0.0
C237 C 0.24017 0.03326 0.06557 0.0
C238 C 0.19195 0.02617 0.10404 0.0
C239 C 0.18503 0.00916 0.11726 0.0
C240 C 0.168 0.00728 0.14249 0.0
C241 C 0.1576 0.02241 0.15563 0.0
C242 C 0.16385 0.03927 0.13679 0.0
C243 C 0.18089 0.04112 0.11151 0.0
C244 C 0.24434 0.0314 0.2289 0.0
C245 C 0.23581 0.02162 0.27414 0.0
C246 C 0.24469 0.01816 0.32727 0.0
C247 C 0.26206 0.02473 0.33632 0.0
C248 C 0.27002 0.03563 0.29289 0.0
C249 C 0.26129 0.03883 0.23947 0.0
C250 C 0.25302 0.03452 0.01568 0.0
C251 C 0.26663 0.04749 0.01839 0.0
C252 C 0.44234 0.2795 0.20668 0.0
C253 C 0.44547 0.27263 0.2637 0.0
C254 C 0.44907 0.25431 0.27011 0.0
C255 C 0.45205 0.24371 0.22024 0.0
H256 H 0.51034 0.2149 0.1449 0.0
H257 H 0.51773 0.18782 0.20064 0.0
H258 H 0.47536 0.15937 0.11124 0.0
H259 H 0.4679 0.18662 0.05607 0.0
H260 H 0.45651 0.26237 0.94412 0.0
H261 H 0.46299 0.29001 0.89066 0.0
H262 H 0.51745 0.28847 0.95366 0.0
H263 H 0.51086 0.26054 0.00687 0.0
H264 H 0.4443 0.27512 0.11366 0.0
H265 H 0.43952 0.29355 0.19994 0.0
H266 H 0.45115 0.24855 0.31359 0.0
H267 H 0.45645 0.23008 0.22683 0.0
N268 N 0.46842 0.22635 0.12075 0.0
N269 N 0.48546 0.23022 0.03384 0.0
N270 N 0.46554 0.25251 0.06543 0.0
C271 C 0.48034 0.2199 0.08099 0.0
C272 C 0.47759 0.24649 0.02542 0.0
C273 C 0.46097 0.24266 0.11347 0.0
C274 C 0.48883 0.2027 0.09532 0.0
C275 C 0.50322 0.20262 0.13512 0.0
C276 C 0.50726 0.18719 0.16759 0.0
C277 C 0.497 0.17153 0.16075 0.0
C278 C 0.48358 0.17119 0.11715 0.0
C279 C 0.4794 0.18672 0.08519 0.0
C280 C 0.48326 0.25916 0.97872 0.0
C281 C 0.47007 0.26752 0.9443 0.0
C282 C 0.47378 0.28343 0.91395 0.0
C283 C 0.4907 0.29158 0.91831 0.0
C284 C 0.50424 0.28261 0.9498 0.0
C285 C 0.50058 0.26647 0.97945 0.0
C286 C 0.45151 0.25133 0.16327 0.0
C287 C 0.44526 0.26892 0.15692 0.0
Ho288 Ho 0.01517 0.00437 0.73385 0.0
Ho289 Ho 0.98866 0.0132 0.63976 0.0
C290 C 0.99783 0.97231 0.65125 0.0
C291 C 0.03099 0.98824 0.81946 0.0
C292 C 0.03137 0.96878 0.82967 0.0
C293 C 0.01538 0.95888 0.828 0.0
C294 C 0.01575 0.94039 0.82172 0.0
C295 C 0.03211 0.9313 0.81712 0.0
C296 C 0.04812 0.94109 0.82333 0.0
C297 C 0.04774 0.95969 0.82938 0.0
C298 C 0.03007 0.01502 0.63065 0.0
C299 C 0.00669 0.04511 0.72074 0.0
C300 C 0.97325 0.02909 0.5527 0.0
C301 C 0.97671 0.04741 0.53207 0.0
C302 C 0.99383 0.05482 0.53947 0.0
C303 C 0.99691 0.07282 0.52792 0.0
C304 C 0.98301 0.08382 0.5076 0.0
C305 C 0.9659 0.07631 0.49911 0.0
C306 C 0.96276 0.05822 0.5116 0.0
C307 C 0.97382 1.00244 0.74288 0.0
O308 O 0.00615 0.97703 0.70066 0.0
O309 O 0.99069 0.98436 0.61578 0.0
O310 O 0.03938 0.99351 0.77173 0.0
O311 O 0.01542 0.99598 0.82554 0.0
O312 O 0.03634 0.01919 0.68244 0.0
O313 O 0.01668 0.00483 0.63638 0.0
O314 O 0.99914 0.04032 0.67011 0.0
O315 O 0.01275 0.03309 0.75838 0.0
O316 O 0.96608 0.02798 0.60536 0.0
O317 O 0.98648 0.0179 0.54563 0.0
O318 O 0.96762 0.9982 0.69106 0.0
O319 O 0.98709 0.01279 0.73714 0.0
H320 H 1.00251 0.96545 0.82735 0.0
H321 H 0.00313 0.93346 0.81631 0.0
H322 H 0.06096 0.93448 0.82172 0.0
H323 H 0.06023 0.96706 0.83042 0.0
H324 H 0.00481 0.04681 0.55589 0.0
H325 H 0.01014 0.07817 0.53631 0.0
H326 H 0.95496 0.08439 0.4829 0.0
H327 H 0.94942 0.05277 0.50634 0.0
Ho328 Ho 0.50677 0.02597 0.73462 0.0
Ho329 Ho 0.49663 1.00055 0.63959 0.0
C330 C 0.53759 0.00973 0.64693 0.0
C331 C 0.52341 0.04048 0.82207 0.0
C332 C 0.54282 0.04104 0.83286 0.0
C333 C 0.54968 0.03321 0.88445 0.0
C334 C 0.56778 0.02886 0.88807 0.0
C335 C 0.5793 0.03222 0.83998 0.0
C336 C 0.57271 0.0416 0.79076 0.0
C337 C 0.55463 0.04595 0.78718 0.0
C338 C 0.49684 0.04203 0.63265 0.0
C339 C 0.46553 0.01721 0.72682 0.0
C340 C 0.48099 0.98382 0.55425 0.0
C341 C 0.46272 0.97682 0.55104 0.0
C342 C 0.45405 0.97536 0.49633 0.0
C343 C 0.43564 0.97208 0.49432 0.0
C344 C 0.42581 0.97045 0.54708 0.0
C345 C 0.43473 0.97079 0.60159 0.0
C346 C 0.45309 0.97387 0.60356 0.0
C347 C 0.50691 0.98469 0.7416 0.0
O348 O 0.53366 0.01672 0.69912 0.0
O349 O 0.52495 0.00425 0.61051 0.0
O350 O 0.5175 0.04967 0.77684 0.0
O351 O 0.51646 0.02444 0.82455 0.0
O352 O 0.49286 0.0479 0.68509 0.0
O353 O 0.50643 0.02821 0.6369 0.0
O354 O 0.46957 0.00914 0.67631 0.0
O355 O 0.47813 0.02376 0.76151 0.0
O356 O 0.49139 0.97595 0.59261 0.0
O357 O 0.4821 1.00126 0.55688 0.0
O358 O 0.51091 0.97888 0.68933 0.0
O359 O 0.49703 0.99826 0.73711 0.0
H360 H 0.54082 0.02932 0.92023 0.0
H361 H 0.57256 0.0221 0.92739 0.0
H362 H 0.58121 0.04446 0.75309 0.0
H363 H 0.54973 0.05199 0.74674 0.0
H364 H 0.46128 0.97775 0.45549 0.0
H365 H 0.42891 0.97213 0.45185 0.0
H366 H 0.42734 0.96967 0.64271 0.0
H367 H 0.45957 0.975 0.64629 0.0
Ho368 Ho 0.48629 0.51778 0.73976 0.0
Ho369 Ho 0.50724 0.50429 0.62495 0.0
C370 C 0.50513 0.54631 0.64614 0.0
C371 C 0.47716 0.53721 0.82774 0.0
C372 C 0.48474 0.55497 0.84051 0.0
C373 C 0.5031 0.55802 0.83157 0.0
C374 C 0.5099 0.57535 0.82962 0.0
C375 C 0.49852 0.59006 0.83656 0.0
C376 C 0.48025 0.58702 0.84789 0.0
C377 C 0.47341 0.56959 0.84973 0.0
C378 C 0.46644 0.50783 0.6458 0.0
C379 C 0.4936 0.47619 0.72796 0.0
C380 C 0.51205 0.48848 0.52521 0.0
C381 C 0.51516 0.46953 0.5126 0.0
C382 C 0.5179 0.45755 0.55961 0.0
C383 C 0.51689 0.43915 0.55011 0.0
C384 C 0.51354 0.43246 0.49318 0.0
C385 C 0.51197 0.44449 0.4455 0.0
C386 C 0.51262 0.46294 0.45529 0.0
C387 C 0.52956 0.50729 0.72003 0.0
O388 O 0.49876 0.54278 0.69985 0.0
O389 O 0.50835 0.53367 0.60654 0.0
O390 O 0.4678 0.53652 0.77884 0.0
O391 O 0.48809 0.52365 0.83334 0.0
O392 O 0.46162 0.5051 0.70044 0.0
O393 O 0.48107 0.51627 0.6443 0.0
O394 O 0.49746 0.47919 0.67135 0.0
O395 O 0.49052 0.48925 0.7662 0.0
O396 O 0.52489 0.49701 0.55297 0.0
O397 O 0.49622 0.49169 0.54745 0.0
O398 O 0.53481 0.50226 0.66785 0.0
O399 O 0.51313 0.51041 0.71633 0.0
H400 H 0.51212 0.54708 0.82264 0.0
H401 H 0.52397 0.57722 0.82001 0.0
H402 H 0.4712 0.59812 0.85428 0.0
H403 H 0.45917 0.56756 0.8556 0.0
H404 H 0.51994 0.46241 0.60419 0.0
H405 H 0.51813 0.4302 0.58758 0.0
H406 H 0.50918 0.43968 0.40125 0.0
H407 H 0.51026 0.47201 0.41868 0.0
Ho408 Ho 0.99866 0.49717 0.70477 0.0
Ho409 Ho 0.00672 0.52467 0.61408 0.0
C410 C 0.96606 0.51392 0.62537 0.0
C411 C 0.98425 0.47899 0.78931 0.0
C412 C 0.96524 0.477 0.8047 0.0
C413 C 0.95398 0.49197 0.80436 0.0
C414 C 0.93555 0.48983 0.80933 0.0
C415 C 0.92796 0.47268 0.81423 0.0
C416 C 0.93926 0.45774 0.81691 0.0
C417 C 0.95779 0.45989 0.81202 0.0
C418 C 0.01018 0.48355 0.60061 0.0
C419 C 0.03918 0.50692 0.69118 0.0
C420 C 0.02083 0.54145 0.52603 0.0
C421 C 0.03679 0.53634 0.4924 0.0
C422 C 0.04025 0.51816 0.48238 0.0
C423 C 0.05651 0.51281 0.45877 0.0
C424 C 0.06973 0.52551 0.44479 0.0
C425 C 0.06613 0.54376 0.4533 0.0
C426 C 0.04972 0.54915 0.47696 0.0
C427 C 0.99543 0.53856 0.71812 0.0
O428 O 0.97093 0.50554 0.67442 0.0
O429 O 0.97798 0.52146 0.59029 0.0
O430 O 0.98874 0.47195 0.73862 0.0
O431 O 0.99125 0.49489 0.79701 0.0
O432 O 0.01465 0.47733 0.65212 0.0
O433 O 0.99938 0.49632 0.60693 0.0
O434 O 0.03419 0.51426 0.64035 0.0
O435 O 0.0273 0.50071 0.72916 0.0
O436 O 0.02381 0.54593 0.58103 0.0
O437 O 0.00711 0.5307 0.52058 0.0
O438 O 0.99142 0.54502 0.66653 0.0
O439 O 0.00605 0.52562 0.71187 0.0
H440 H 0.95931 0.50533 0.79821 0.0
H441 H 0.92721 0.50163 0.80845 0.0
H442 H 0.93376 0.44437 0.82066 0.0
H443 H 0.96625 0.44817 0.8117 0.0
H444 H 0.03067 0.50795 0.49508 0.0
H445 H 0.05901 0.49863 0.45398 0.0
H446 H 0.07613 0.5538 0.44285 0.0
H447 H 0.04737 0.56321 0.48517 0.0
H448 H 0.15413 1.00183 0.25504 0.0
H449 H 0.12955 1.00098 0.3256 0.0
H450 H 0.10051 0.03911 0.21975 0.0
H451 H 0.12534 0.04016 0.14875 0.0
H452 H 0.09797 0.04824 0.3307 0.0
H453 H 0.0881 0.99395 0.22708 0.0
H454 H 0.09564 0.96488 0.18248 0.0
H455 H 0.10968 0.94422 0.35364 0.0
H456 H 0.10248 0.97324 0.3992 0.0
H457 H 0.02226 1.00152 0.52096 0.0
H458 H 0.04059 0.00345 0.43102 0.0
H459 H 0.07975 0.03482 0.52552 0.0
H460 H 0.06138 0.03317 0.61488 0.0
H461 H 0.07288 0.99129 0.40797 0.0
H462 H 0.10035 0.06398 0.43386 0.0
H463 H 0.08983 0.09282 0.47343 0.0
H464 H 0.03538 0.07665 0.44483 0.0
H465 H 0.04553 0.04799 0.40402 0.0
C466 C 0.14238 0.00976 0.24583 0.0
C467 C 0.14169 0.0209 0.19555 0.0
C468 C 0.12829 0.0093 0.28653 0.0
C469 C 0.11296 0.01978 0.27788 0.0
C470 C 0.11214 0.03087 0.22757 0.0
C471 C 0.12635 0.03143 0.18689 0.0
C472 C 0.0982 0.01954 0.32263 0.0
C473 C 0.09245 0.03578 0.34732 0.0
C474 C 0.09055 0.00334 0.34365 0.0
C475 C 0.09487 0.98583 0.31649 0.0
C476 C 0.09292 0.98325 0.25517 0.0
C477 C 0.09711 0.96677 0.22972 0.0
C478 C 0.10317 0.95272 0.26519 0.0
C479 C 0.105 0.95511 0.32621 0.0
C480 C 0.10084 0.97157 0.35189 0.0
C481 C 0.03469 0.009 0.52226 0.0
C482 C 0.04038 0.0172 0.57498 0.0
C483 C 0.0452 0.01001 0.47092 0.0
C484 C 0.06156 0.01936 0.47115 0.0
C485 C 0.0671 0.02774 0.52372 0.0
C486 C 0.0566 0.02674 0.57494 0.0
C487 C 0.07315 0.01992 0.41728 0.0
C488 C 0.07831 0.00375 0.39097 0.0
C489 C 0.07989 0.03619 0.39378 0.0
C490 C 0.07373 0.05375 0.41631 0.0
C491 C 0.08614 0.06665 0.43555 0.0
C492 C 0.08023 0.08298 0.45827 0.0
C493 C 0.06194 0.08658 0.46174 0.0
C494 C 0.04953 0.0739 0.44222 0.0
C495 C 0.05536 0.0576 0.41929 0.0
H496 H 0.05738 0.0992 0.47945 0.0
H497 H 0.10641 0.93998 0.2454 0.0
H498 H 0.49711 0.1741 0.28052 0.0
H499 H 0.49787 0.15013 0.3535 0.0
H500 H 0.50126 0.11116 0.21334 0.0
H501 H 0.49963 0.13535 0.13962 0.0
H502 H 0.48032 0.09843 0.29228 0.0
H503 H 0.53845 0.12318 0.30489 0.0
H504 H 0.56177 0.14644 0.31281 0.0
H505 H 0.54167 0.16158 0.48349 0.0
H506 H 0.51806 0.13857 0.47627 0.0
H507 H 0.50585 0.03312 0.51877 0.0
H508 H 0.50645 0.05292 0.43168 0.0
H509 H 0.48697 0.09635 0.53863 0.0
H510 H 0.48599 0.07665 0.62511 0.0
H511 H 0.51899 0.10388 0.46974 0.0
H512 H 0.45931 0.07804 0.44753 0.0
H513 H 0.43865 0.05247 0.43648 0.0
H514 H 0.46596 0.03645 0.27814 0.0
H515 H 0.48693 0.0618 0.28866 0.0
C516 C 0.49827 0.16044 0.26518 0.0
C517 C 0.49862 0.15664 0.2043 0.0
C518 C 0.49874 0.14669 0.30705 0.0
C519 C 0.50009 0.12873 0.28938 0.0
C520 C 0.50033 0.12486 0.2284 0.0
C521 C 0.49948 0.13868 0.18626 0.0
C522 C 0.50082 0.11419 0.33494 0.0
C523 C 0.48904 0.09953 0.33048 0.0
C524 C 0.51218 0.11538 0.38509 0.0
C525 C 0.5264 0.12922 0.38982 0.0
C526 C 0.53892 0.13155 0.34395 0.0
C527 C 0.55221 0.14468 0.34834 0.0
C528 C 0.55318 0.1555 0.39857 0.0
C529 C 0.54089 0.15319 0.44459 0.0
C530 C 0.52757 0.14009 0.44041 0.0
C531 C 0.50149 0.04683 0.52342 0.0
C532 C 0.49591 0.05334 0.57879 0.0
C533 C 0.50185 0.05812 0.4737 0.0
C534 C 0.49681 0.07613 0.47875 0.0
C535 C 0.49097 0.08252 0.53379 0.0
C536 C 0.49036 0.07122 0.58314 0.0
C537 C 0.49819 0.08862 0.42762 0.0
C538 C 0.51044 0.10282 0.43111 0.0
C539 C 0.48764 0.0867 0.37605 0.0
C540 C 0.4748 0.0717 0.36923 0.0
C541 C 0.46099 0.06899 0.41059 0.0
C542 C 0.4492 0.05456 0.40438 0.0
C543 C 0.45104 0.04281 0.35678 0.0
C544 C 0.46458 0.04554 0.31506 0.0
C545 C 0.4764 0.05995 0.32108 0.0
H546 H 0.44198 0.03159 0.35214 0.0
H547 H 0.56347 0.16566 0.40188 0.0
H548 H 0.36344 0.51145 0.17721 0.0
H549 H 0.38691 0.51607 0.25217 0.0
H550 H 0.36425 0.47365 0.3581 0.0
H551 H 0.34095 0.46905 0.28419 0.0
H552 H 0.37159 0.50395 0.42334 0.0
H553 H 0.40131 0.46638 0.27968 0.0
H554 H 0.41258 0.45876 0.18031 0.0
H555 H 0.44508 0.50621 0.17925 0.0
H556 H 0.43381 0.51423 0.27835 0.0
H557 H 0.43667 0.48684 0.63942 0.0
H558 H 0.41585 0.48388 0.55651 0.0
H559 H 0.44811 0.52041 0.45338 0.0
H560 H 0.46938 0.52275 0.53554 0.0
H561 H 0.43626 0.4958 0.38346 0.0
H562 H 0.40817 0.53343 0.52584 0.0
H563 H 0.39698 0.54237 0.62408 0.0
H564 H 0.36127 0.49729 0.62604 0.0
H565 H 0.37242 0.48794 0.52813 0.0
C566 C 0.36352 0.50312 0.21648 0.0
C567 C 0.35044 0.48975 0.22435 0.0
C568 C 0.37696 0.50571 0.25913 0.0
C569 C 0.37741 0.49512 0.31067 0.0
C570 C 0.36424 0.48195 0.31872 0.0
C571 C 0.351 0.47924 0.27608 0.0
C572 C 0.3913 0.49778 0.35715 0.0
C573 C 0.38573 0.50203 0.41474 0.0
C574 C 0.4098 0.49584 0.34563 0.0
C575 C 0.41655 0.49102 0.2861 0.0
C576 C 0.41073 0.47528 0.25802 0.0
C577 C 0.41715 0.47086 0.2018 0.0
C578 C 0.42949 0.48202 0.1734 0.0
C579 C 0.43549 0.4976 0.20124 0.0
C580 C 0.4291 0.50208 0.25744 0.0
C581 C 0.43938 0.49412 0.59887 0.0
C582 C 0.45457 0.50511 0.59408 0.0
C583 C 0.4274 0.49254 0.55156 0.0
C584 C 0.43008 0.50229 0.49891 0.0
C585 C 0.44561 0.51282 0.49345 0.0
C586 C 0.45776 0.51418 0.54049 0.0
C587 C 0.41655 0.50168 0.45021 0.0
C588 C 0.42216 0.49787 0.39217 0.0
C589 C 0.39806 0.50427 0.46109 0.0
C590 C 0.39124 0.5099 0.51986 0.0
C591 C 0.39801 0.52536 0.54739 0.0
C592 C 0.39167 0.53051 0.60299 0.0
C593 C 0.37845 0.52038 0.63134 0.0
C594 C 0.37152 0.50511 0.60406 0.0
C595 C 0.37783 0.49989 0.54848 0.0
H596 H 0.37356 0.52439 0.67439 0.0
H597 H 0.43445 0.47858 0.12989 0.0
H598 H 0.04315 0.3653 0.20525 0.0
H599 H 0.04249 0.38919 0.27855 0.0
H600 H 0.99238 0.40774 0.20776 0.0
H601 H 0.99299 0.3838 0.13344 0.0
H602 H 0.01723 0.43613 0.2406 0.0
H603 H 0.99013 0.3832 0.3232 0.0
H604 H 0.98876 0.35115 0.34857 0.0
H605 H 0.03594 0.35667 0.45531 0.0
H606 H 0.03775 0.38872 0.4298 0.0
H607 H 0.99159 0.48675 0.49652 0.0
H608 H 0.99359 0.46745 0.4093 0.0
H609 H 0.03671 0.43834 0.49144 0.0
H610 H 0.0342 0.45715 0.57944 0.0
H611 H 0.01448 0.41568 0.44947 0.0
H612 H 0.04218 0.46837 0.36833 0.0
H613 H 0.04439 0.50032 0.34198 0.0
H614 H 0.99755 0.49566 0.23344 0.0
H615 H 0.99493 0.4637 0.2594 0.0
C616 C 0.03217 0.37468 0.2041 0.0
C617 C 0.01813 0.37259 0.16312 0.0
C618 C 0.03175 0.38829 0.24648 0.0
C619 C 0.01733 0.40021 0.24902 0.0
C620 C 0.00365 0.39871 0.20666 0.0
C621 C 0.00397 0.38495 0.16442 0.0
C622 C 0.01603 0.4133 0.29855 0.0
C623 C 0.01642 0.43171 0.28629 0.0
C624 C 0.01533 0.40755 0.35824 0.0
C625 C 0.01417 0.38832 0.37412 0.0
C626 C 1.00029 0.37755 0.3517 0.0
C627 C 0.99942 0.35939 0.36616 0.0
C628 C 0.01228 0.35187 0.40341 0.0
C629 C 0.026 0.36251 0.4264 0.0
C630 C 0.02695 0.38067 0.41199 0.0
C631 C 1.00162 0.47635 0.49559 0.0
C632 C 0.01267 0.47338 0.54494 0.0
C633 C 0.00283 0.46535 0.44551 0.0
C634 C 0.01539 0.45139 0.44322 0.0
C635 C 0.02683 0.44889 0.49192 0.0
C636 C 0.02544 0.4597 0.54221 0.0
C637 C 0.01597 0.4387 0.39205 0.0
C638 C 0.01537 0.42025 0.40395 0.0
C639 C 0.01662 0.44448 0.33219 0.0
C640 C 0.01826 0.46367 0.31623 0.0
C641 C 0.03228 0.47418 0.33914 0.0
C642 C 0.03362 0.49228 0.32426 0.0
C643 C 0.02109 0.50002 0.28631 0.0
C644 C 0.00723 0.48965 0.26291 0.0
C645 C 0.00583 0.47153 0.2776 0.0
H646 H 0.02216 0.51404 0.2749 0.0
H647 H 0.01158 0.3378 0.41456 0.0
H648 H 0.85076 0.96961 0.1154 0.0
H649 H 0.87632 0.97115 0.04888 0.0
H650 H 0.89199 0.0216 0.12573 0.0
H651 H 0.86585 0.02036 0.19146 0.0
H652 H 0.89533 0.02431 0.01368 0.0
H653 H 0.91577 0.98078 0.15014 0.0
H654 H 0.91476 0.95371 0.21251 0.0
H655 H 0.90928 0.921 0.05757 0.0
H656 H 0.91 0.94789 0.99426 0.0
H657 H 0.97705 0.02138 0.8461 0.0
H658 H 0.95724 0.02003 0.93281 0.0
H659 H 0.927 0.97762 0.8507 0.0
H660 H 0.94653 0.97913 0.76366 0.0
H661 H 0.93434 0.97216 0.9746 0.0
H662 H 0.91132 0.01777 0.84129 0.0
H663 H 0.91396 0.04546 0.78245 0.0
H664 H 0.92685 0.07503 0.93959 0.0
H665 H 0.92453 0.04743 0.99925 0.0
C666 C 0.85982 0.98089 0.11904 0.0
C667 C 0.85637 0.99475 0.15938 0.0
C668 C 0.87452 0.98175 0.08088 0.0
C669 C 0.88644 0.99631 0.08277 0.0
C670 C 0.8831 0.01016 0.12335 0.0
C671 C 0.86817 0.00944 0.16106 0.0
C672 C 0.90177 0.99738 0.04023 0.0
C673 C 0.90406 0.01299 0.00623 0.0
C674 C 0.91322 0.98263 0.02961 0.0
C675 C 0.91281 0.96639 0.06747 0.0
C676 C 0.91423 0.96783 0.12937 0.0
C677 C 0.91372 0.95251 0.1649 0.0
C678 C 0.91192 0.93565 0.13903 0.0
C679 C 0.91066 0.93407 0.07755 0.0
C680 C 0.91114 0.94935 0.04181 0.0
C681 C 0.9663 0.01164 0.84689 0.0
C682 C 0.96324 1.00043 0.79799 0.0
C683 C 0.95497 0.01092 0.89634 0.0
C684 C 0.94056 0.99881 0.89805 0.0
C685 C 0.93802 0.98707 0.85035 0.0
C686 C 0.94915 0.98798 0.8006 0.0
C687 C 0.92754 0.99888 0.94796 0.0
C688 C 0.92571 0.98349 0.98305 0.0
C689 C 0.91676 0.01392 0.96035 0.0
C690 C 0.91795 0.03052 0.92459 0.0
C691 C 0.91486 0.03015 0.86321 0.0
C692 C 0.91627 0.04583 0.82973 0.0
C693 C 0.92062 0.06199 0.85723 0.0
C694 C 0.92351 0.0625 0.91833 0.0
C695 C 0.92214 0.04685 0.95199 0.0
H696 H 0.92172 0.07411 0.83124 0.0
H697 H 0.91154 0.92381 0.16661 0.0
H698 H 0.50447 0.88189 0.21536 0.0
H699 H 0.50503 0.90911 0.15342 0.0
H700 H 0.51988 0.87744 0.00207 0.0
H701 H 0.51903 0.85043 0.06295 0.0
H702 H 0.54082 0.90966 0.01831 0.0
H703 H 0.47875 0.88896 0.01339 0.0
H704 H 0.44993 0.8811 0.0599 0.0
H705 H 0.44635 0.93381 0.13382 0.0
H706 H 0.4753 0.94189 0.08836 0.0
H707 H 0.52331 0.95257 0.75102 0.0
H708 H 0.52537 0.93326 0.83757 0.0
H709 H 0.49795 0.97277 0.94243 0.0
H710 H 0.49532 0.99203 0.85453 0.0
H711 H 0.48474 0.94125 0.96667 0.0
H712 H 0.5435 0.96424 0.96154 0.0
H713 H 0.57228 0.97341 0.91781 0.0
H714 H 0.58316 0.91902 0.87005 0.0
H715 H 0.5543 0.9095 0.91294 0.0
C716 C 0.50784 0.88082 0.16888 0.0
C717 C 0.51149 0.86403 0.14379 0.0
C718 C 0.50816 0.89633 0.1336 0.0
C719 C 0.5125 0.89528 0.0731 0.0
C720 C 0.51653 0.87857 0.04857 0.0
C721 C 0.51589 0.86313 0.08334 0.0
C722 C 0.51251 0.91134 0.03413 0.0
C723 C 0.52858 0.91659 0.00691 0.0
C724 C 0.49667 0.92082 0.02099 0.0
C725 C 0.47929 0.91594 0.04819 0.0
C726 C 0.4719 0.89881 0.04006 0.0
C727 C 0.45552 0.89433 0.06611 0.0
C728 C 0.44634 0.90692 0.09998 0.0
C729 C 0.4535 0.92405 0.10771 0.0
C730 C 0.46988 0.92859 0.0818 0.0
C731 C 0.51783 0.95725 0.79258 0.0
C732 C 0.50917 0.97383 0.79597 0.0
C733 C 0.51913 0.94621 0.84231 0.0
C734 C 0.5121 0.95161 0.89711 0.0
C735 C 0.50356 0.9683 0.90082 0.0
C736 C 0.50213 0.97934 0.85068 0.0
C737 C 0.513 0.93929 0.94914 0.0
C738 C 0.49711 0.93469 0.97885 0.0
C739 C 0.52911 0.93062 0.96539 0.0
C740 C 0.54665 0.93617 0.94023 0.0
C741 C 0.55197 0.95423 0.94145 0.0
C742 C 0.56832 0.95949 0.91682 0.0
C743 C 0.57954 0.94682 0.89102 0.0
C744 C 0.57445 0.92882 0.89005 0.0
C745 C 0.55811 0.92348 0.91465 0.0
H746 H 0.59218 0.95094 0.87188 0.0
H747 H 0.43366 0.90343 0.12009 0.0
H748 H 0.65713 0.49278 0.08306 0.0
H749 H 0.63282 0.49376 0.01112 0.0
H750 H 0.60029 0.52289 0.13502 0.0
H751 H 0.62482 0.52211 0.20777 0.0
H752 H 0.58257 0.49222 0.06414 0.0
H753 H 0.61598 0.54716 0.04252 0.0
H754 H 0.6436 0.56501 0.03246 0.0
H755 H 0.65658 0.53723 0.87204 0.0
H756 H 0.62916 0.519 0.88168 0.0
H757 H 0.52016 0.51489 0.83498 0.0
H758 H 0.53984 0.51653 0.9216 0.0
H759 H 0.58486 0.50285 0.81137 0.0
H760 H 0.56532 0.50191 0.72491 0.0
H761 H 0.59443 0.52819 0.88338 0.0
H762 H 0.56328 0.47225 0.90458 0.0
H763 H 0.53655 0.45294 0.91186 0.0
H764 H 0.52029 0.48038 0.06962 0.0
H765 H 0.54676 0.50008 0.06265 0.0
C766 C 0.6447 0.49909 0.0957 0.0
C767 C 0.64289 0.50726 0.15146 0.0
C768 C 0.63084 0.49971 0.0543 0.0
C769 C 0.61475 0.50839 0.06766 0.0
C770 C 0.61258 0.51606 0.12393 0.0
C771 C 0.62661 0.51567 0.16529 0.0
C772 C 0.60086 0.5103 0.02095 0.0
C773 C 0.58495 0.50035 0.02508 0.0
C774 C 0.60419 0.52054 0.96938 0.0
C775 C 0.62059 0.5316 0.96313 0.0
C776 C 0.6248 0.54475 0.00538 0.0
C777 C 0.6404 0.55495 0.9997 0.0
C778 C 0.65186 0.55223 0.95171 0.0
C779 C 0.6477 0.53932 0.90922 0.0
C780 C 0.63212 0.52905 0.91474 0.0
C781 C 0.53425 0.51248 0.82928 0.0
C782 C 0.54116 0.50845 0.77311 0.0
C783 C 0.54551 0.51323 0.87891 0.0
C784 C 0.5639 0.50966 0.87338 0.0
C785 C 0.57078 0.50572 0.81704 0.0
C786 C 0.55956 0.50512 0.76758 0.0
C787 C 0.5761 0.50991 0.92578 0.0
C788 C 0.59181 0.52023 0.92266 0.0
C789 C 0.57264 0.49981 0.97783 0.0
C790 C 0.55689 0.48777 0.98272 0.0
C791 C 0.55394 0.47425 0.94061 0.0
C792 C 0.53884 0.46323 0.94468 0.0
C793 C 0.52671 0.46546 0.99108 0.0
C794 C 0.52968 0.47868 0.03363 0.0
C795 C 0.54473 0.48978 0.02965 0.0
H796 H 0.51502 0.45693 0.99414 0.0
H797 H 0.66393 0.56015 0.94739 0.0
H798 H 0.96944 0.66566 0.07531 0.0
H799 H 0.96931 0.63975 0.01043 0.0
H800 H 0.0095 0.61464 0.11883 0.0
H801 H 0.00972 0.64073 0.18443 0.0
H802 H 0.01828 0.61158 0.00643 0.0
H803 H 0.96549 0.59916 0.11606 0.0
H804 H 0.93624 0.60515 0.16214 0.0
H805 H 0.91353 0.6156 0.99108 0.0
H806 H 0.94271 0.60993 0.94399 0.0
H807 H 0.01157 0.5331 0.82591 0.0
H808 H 0.00984 0.55233 0.91379 0.0
H809 H 0.97268 0.5867 0.82279 0.0
H810 H 0.97432 0.56756 0.73537 0.0
H811 H 0.96281 0.5816 0.9375 0.0
H812 H 0.01707 0.59715 0.83108 0.0
H813 H 0.04639 0.59063 0.78625 0.0
H814 H 0.06629 0.57326 0.95502 0.0
H815 H 0.03698 0.57945 1.0007 0.0
C816 C 0.97796 0.65448 0.08647 0.0
C817 C 0.98947 0.65531 0.13572 0.0
C818 C 0.9779 0.63962 0.049 0.0
C819 C 0.98922 0.62503 0.05988 0.0
C820 C 1.00061 0.62568 0.10937 0.0
C821 C 1.00072 0.64062 0.1469 0.0
C822 C 0.98972 0.60965 0.01769 0.0
C823 C 0.00617 0.60478 0.99238 0.0
C824 C 0.97395 0.60083 0.99846 0.0
C825 C 0.95634 0.60424 0.02654 0.0
C826 C 0.95429 0.60286 0.08829 0.0
C827 C 0.93772 0.60618 0.11459 0.0
C828 C 0.92304 0.61078 0.07957 0.0
C829 C 0.92491 0.61204 0.01815 0.0
C830 C 0.94146 0.60875 0.99163 0.0
C831 C 0.00289 0.54465 0.82499 0.0
C832 C 0.99319 0.54891 0.77358 0.0
C833 C 1.00197 0.55568 0.87512 0.0
C834 C 0.9913 0.57113 0.87476 0.0
C835 C 0.98104 0.57491 0.82425 0.0
C836 C 0.98202 0.56397 0.77419 0.0
C837 C 0.99127 0.58386 0.9256 0.0
C838 C 0.97492 0.58824 0.95237 0.0
C839 C 0.00713 0.59213 0.94646 0.0
C840 C 0.02478 0.58857 0.91914 0.0
C841 C 0.02766 0.59181 0.85853 0.0
C842 C 0.04428 0.5882 0.83298 0.0
C843 C 0.05818 0.58148 0.86772 0.0
C844 C 0.0555 0.57843 0.92814 0.0
C845 C 0.03889 0.582 0.95388 0.0
H846 H 0.07103 0.57868 0.84786 0.0
H847 H 0.91022 0.61334 0.10002 0.0
H848 H 0.05376 0.22758 0.3494 0.0
H849 H 0.04466 0.20225 0.41099 0.0
H850 H 0.9915 0.22391 0.42439 0.0
H851 H 1.00044 0.24921 0.36252 0.0
H852 H 0.00407 0.19979 0.52539 0.0
H853 H 0.99463 0.20264 0.3125 0.0
H854 H 0.00455 0.20947 0.21076 0.0
H855 H 0.04751 0.17193 0.22836 0.0
H856 H 0.038 0.16513 0.3307 0.0
H857 H 0.96128 0.11272 0.52949 0.0
H858 H 0.96798 0.14432 0.51032 0.0
H859 H 0.01994 0.12974 0.4432 0.0
H860 H 0.01289 0.09842 0.45797 0.0
H861 H 0.00481 0.15226 0.37233 0.0
H862 H 0.01047 0.1465 0.58525 0.0
H863 H 0.99897 0.14035 0.68521 0.0
H864 H 0.96248 0.18415 0.67053 0.0
H865 H 0.97286 0.18993 0.56864 0.0
C866 C 0.04037 0.22734 0.36767 0.0
C867 C 0.02768 0.24006 0.35008 0.0
C868 C 0.03522 0.21295 0.40313 0.0
C869 C 0.01735 0.21115 0.42102 0.0
C870 C 0.00535 0.22515 0.4109 0.0
C871 C 0.0105 0.23958 0.37542 0.0
C872 C 0.01037 0.19321 0.43521 0.0
C873 C 0.00405 0.18934 0.49218 0.0
C874 C 0.01024 0.1798 0.39129 0.0
C875 C 0.01571 0.18352 0.32933 0.0
C876 C 0.00626 0.19594 0.29477 0.0
C877 C 0.01178 0.19978 0.237 0.0
C878 C 0.02666 0.19116 0.21313 0.0
C879 C 0.036 0.17862 0.24694 0.0
C880 C 0.03054 0.17475 0.3048 0.0
C881 C 0.97402 0.11627 0.50984 0.0
C882 C 0.9866 0.10301 0.49554 0.0
C883 C 0.97792 0.13434 0.49973 0.0
C884 C 0.99456 0.1394 0.47613 0.0
C885 C 0.00704 0.12617 0.46173 0.0
C886 C 0.00305 0.10822 0.47079 0.0
C887 C 0.99906 0.15832 0.46371 0.0
C888 C 0.00475 0.16254 0.40618 0.0
C889 C 0.9984 0.17196 0.50727 0.0
C890 C 0.99229 0.1685 0.56879 0.0
C891 C 0.99983 0.1547 0.60287 0.0
C892 C 0.99353 0.15129 0.66002 0.0
C893 C 0.98014 0.16191 0.68448 0.0
C894 C 0.97286 0.17591 0.65154 0.0
C895 C 0.97885 0.17919 0.59388 0.0
H896 H 0.9754 0.15929 0.72887 0.0
H897 H 0.03095 0.19418 0.16844 0.0
H898 H 0.26693 0.99022 0.36909 0.0
H899 H 0.29136 0.97872 0.42933 0.0
H900 H 0.30685 0.03267 0.47409 0.0
H901 H 0.28262 0.04424 0.41239 0.0
H902 H 0.33274 0.01619 0.42028 0.0
H903 H 0.29391 1.00155 0.58111 0.0
H904 H 0.26745 0.98844 0.63003 0.0
H905 H 0.28359 0.936 0.57526 0.0
H906 H 0.31004 0.94881 0.52528 0.0
H907 H 0.40576 0.99559 0.59966 0.0
H908 H 0.37405 1.00153 0.58341 0.0
H909 H 0.37002 0.95468 0.47353 0.0
H910 H 0.40207 0.9488 0.48875 0.0
H911 H 0.33812 0.96653 0.56506 0.0
H912 H 0.37684 0.9829 0.39995 0.0
H913 H 0.4037 0.99702 0.35719 0.0
H914 H 0.38672 0.04815 0.42169 0.0
H915 H 0.35986 0.03426 0.46556 0.0
C916 C 0.27509 0.9996 0.39376 0.0
C917 C 0.27307 0.01811 0.38578 0.0
C918 C 0.28905 0.993 0.42828 0.0
C919 C 0.30099 0.00484 0.45593 0.0
C920 C 0.29783 0.02332 0.45279 0.0
C921 C 0.28402 0.02992 0.41768 0.0
C922 C 0.31834 0.99825 0.47821 0.0
C923 C 0.33386 0.00556 0.45279 0.0
C924 C 0.31978 0.98393 0.51901 0.0
C925 C 0.30388 0.97617 0.54899 0.0
C926 C 0.29174 0.98723 0.57904 0.0
C927 C 0.27676 0.97985 0.60707 0.0
C928 C 0.27382 0.9614 0.60564 0.0
C929 C 0.28588 0.95029 0.57629 0.0
C930 C 0.30088 0.95761 0.54818 0.0
C931 C 0.39797 0.98623 0.57371 0.0
C932 C 0.4062 0.97173 0.54553 0.0
C933 C 0.37993 0.98966 0.56443 0.0
C934 C 0.36987 0.97857 0.52731 0.0
C935 C 0.37767 0.96327 0.50265 0.0
C936 C 0.3959 0.96001 0.51098 0.0
C937 C 0.35222 0.98466 0.50737 0.0
C938 C 0.3368 0.97723 0.53286 0.0
C939 C 0.35077 0.99896 0.46668 0.0
C940 C 0.36669 0.00738 0.43841 0.0
C941 C 0.37902 0.99707 0.40632 0.0
C942 C 0.39419 0.00506 0.38138 0.0
C943 C 0.39703 0.02344 0.38731 0.0
C944 C 0.3846 0.03388 0.41762 0.0
C945 C 0.36942 0.02594 0.44263 0.0
H946 H 0.40875 0.02963 0.3679 0.0
H947 H 0.26221 0.95571 0.62736 0.0
H948 H 0.42694 0.30295 0.29373 0.0
H949 H 0.43892 0.32798 0.35111 0.0
H950 H 0.48452 0.29615 0.40025 0.0
H951 H 0.47281 0.27125 0.34307 0.0
H952 H 0.47716 0.31967 0.48556 0.0
H953 H 0.48721 0.31937 0.27976 0.0
H954 H 0.47949 0.31713 0.174 0.0
H955 H 0.44809 0.36488 0.18688 0.0
H956 H 0.45529 0.36717 0.29333 0.0
H957 H 0.52701 0.41068 0.40736 0.0
H958 H 0.51763 0.38008 0.38456 0.0
H959 H 0.48193 0.38055 0.53478 0.0
H960 H 0.49148 0.41099 0.55808 0.0
H961 H 0.48675 0.37098 0.34954 0.0
H962 H 0.47296 0.33776 0.58186 0.0
H963 H 0.48776 0.33365 0.67818 0.0
H964 H 0.53834 0.34763 0.6008 0.0
H965 H 0.5239 0.35152 0.50358 0.0
C966 C 0.43922 0.30111 0.31834 0.0
C967 C 0.44906 0.28523 0.31294 0.0
C968 C 0.44605 0.3154 0.35106 0.0
C969 C 0.46282 0.31401 0.37857 0.0
C970 C 0.47159 0.29751 0.37913 0.0
C971 C 0.46479 0.28322 0.34651 0.0
C972 C 0.47244 0.33024 0.39842 0.0
C973 C 0.4791 0.33104 0.45632 0.0
C974 C 0.47595 0.34449 0.35877 0.0
C975 C 0.47158 0.3433 0.29474 0.0
C976 C 0.4785 0.32929 0.26023 0.0
C977 C 0.47424 0.32802 0.20017 0.0
C978 C 0.46326 0.34082 0.17382 0.0
C979 C 0.45655 0.35494 0.20747 0.0
C980 C 0.4607 0.35622 0.26771 0.0
C981 C 0.51739 0.4041 0.43598 0.0
C982 C 0.50989 0.4132 0.48419 0.0
C983 C 0.51205 0.38664 0.42305 0.0
C984 C 0.49903 0.378 0.45785 0.0
C985 C 0.49216 0.3868 0.50771 0.0
C986 C 0.49758 0.40423 0.52087 0.0
C987 C 0.49105 0.36085 0.43793 0.0
C988 C 0.4847 0.35981 0.37952 0.0
C989 C 0.48874 0.34602 0.47628 0.0
C990 C 0.49728 0.34513 0.5355 0.0
C991 C 0.48722 0.34006 0.58543 0.0
C992 C 0.49557 0.33771 0.6402 0.0
C993 C 0.51399 0.34037 0.64571 0.0
C994 C 0.52408 0.34555 0.59648 0.0
C995 C 0.5158 0.34792 0.54155 0.0
H996 H 0.52043 0.33846 0.68812 0.0
H997 H 0.46001 0.33979 0.1273 0.0
H998 H 0.22699 0.46754 0.37187 0.0
H999 H 0.20082 0.47861 0.42379 0.0
H1000 H 0.169 0.43611 0.34939 0.0
H1001 H 0.19531 0.4245 0.29855 0.0
H1002 H 0.16493 0.47247 0.30157 0.0
H1003 H 0.16533 0.44015 0.48388 0.0
H1004 H 0.1756 0.42878 0.5804 0.0
H1005 H 0.18025 0.48247 0.64555 0.0
H1006 H 0.17038 0.49421 0.54902 0.0
H1007 H 0.07748 0.49947 0.36478 0.0
H1008 H 0.10631 0.48535 0.34839 0.0
H1009 H 0.13135 0.52334 0.46603 0.0
H1010 H 0.10224 0.53709 0.48465 0.0
H1011 H 0.14058 0.49113 0.49548 0.0
H1012 H 0.14039 0.5234 0.31646 0.0
H1013 H 0.12962 0.53569 0.22172 0.0
H1014 H 0.12437 0.48264 0.15156 0.0
H1015 H 0.13484 0.46998 0.24622 0.0
C1016 C 0.21473 0.45982 0.36933 0.0
C1017 C 0.21307 0.44546 0.32945 0.0
C1018 C 0.19973 0.46623 0.39919 0.0
C1019 C 0.18298 0.45836 0.38939 0.0
C1020 C 0.18186 0.44239 0.35715 0.0
C1021 C 0.19688 0.43586 0.32778 0.0
C1022 C 0.16685 0.46941 0.39624 0.0
C1023 C 0.15924 0.47617 0.34401 0.0
C1024 C 0.16031 0.47507 0.45171 0.0
C1025 C 0.16742 0.46808 0.50859 0.0
C1026 C 0.16891 0.44957 0.51826 0.0
C1027 C 0.17456 0.44305 0.57318 0.0
C1028 C 0.17866 0.4549 0.61899 0.0
C1029 C 0.17715 0.4733 0.60995 0.0
C1030 C 0.17155 0.47989 0.5551 0.0
C1031 C 0.08916 0.50497 0.38651 0.0
C1032 C 0.08761 0.51931 0.42619 0.0
C1033 C 0.10568 0.497 0.3767 0.0
C1034 C 0.12101 0.50338 0.40567 0.0
C1035 C 0.11967 0.51826 0.44311 0.0
C1036 C 0.10308 0.5262 0.45324 0.0
C1037 C 0.13794 0.49334 0.40091 0.0
C1038 C 0.14599 0.48712 0.45315 0.0
C1039 C 0.14498 0.48819 0.34551 0.0
C1040 C 0.13827 0.49572 0.28878 0.0
C1041 C 0.13675 0.51433 0.28111 0.0
C1042 C 0.13074 0.52137 0.22733 0.0
C1043 C 0.12628 0.50996 0.18069 0.0
C1044 C 0.12782 0.49147 0.18775 0.0
C1045 C 0.1338 0.48435 0.24146 0.0
H1046 H 0.12168 0.51544 0.13904 0.0
H1047 H 0.18293 0.44981 0.66157 0.0
H1048 H 0.98449 0.79876 0.92353 0.0
H1049 H 0.99271 0.81781 0.84071 0.0
H1050 H 0.04138 0.7878 0.81691 0.0
H1051 H 0.03326 0.76887 0.90145 0.0
H1052 H 0.04952 0.82002 0.83847 0.0
H1053 H 0.01366 0.79706 0.68967 0.0
H1054 H 0.98821 0.78313 0.63771 0.0
H1055 H 0.95493 0.82759 0.68369 0.0
H1056 H 0.98014 0.84189 0.73547 0.0
H1057 H 0.05615 0.91294 0.74763 0.0
H1058 H 0.05618 0.8809 0.7254 0.0
H1059 H 0.00783 0.87414 0.82692 0.0
H1060 H 0.00838 0.90555 0.85343 0.0
H1061 H 0.00902 0.85527 0.71009 0.0
H1062 H 0.0445 0.86628 0.89716 0.0
H1063 H 0.07059 0.88023 0.94583 0.0
H1064 H 0.10548 0.8567 0.81683 0.0
H1065 H 0.07951 0.84276 0.7672 0.0
C1066 C 0.99669 0.7959 0.89952 0.0
C1067 C 0.00843 0.78265 0.91966 0.0
C1068 C 1.00128 0.80662 0.85131 0.0
C1069 C 0.01772 0.8043 0.82216 0.0
C1070 C 0.02861 0.78984 0.83849 0.0
C1071 C 0.02398 0.77905 0.88686 0.0
C1072 C 0.02509 0.81949 0.7873 0.0
C1073 C 0.041 0.82733 0.80811 0.0
C1074 C 0.01432 0.82911 0.7468 0.0
C1075 C 0.99887 0.82056 0.71653 0.0
C1076 C 1.0009 0.80386 0.68892 0.0
C1077 C 0.98652 0.79593 0.65923 0.0
C1078 C 0.96998 0.80451 0.65717 0.0
C1079 C 0.96779 0.82104 0.68483 0.0
C1080 C 0.98215 0.82911 0.71411 0.0
C1081 C 0.04564 0.90461 0.76594 0.0
C1082 C 0.0323 0.91191 0.80274 0.0
C1083 C 0.0455 0.8864 0.75201 0.0
C1084 C 0.03177 0.87535 0.77331 0.0
C1085 C 0.01829 0.88261 0.80882 0.0
C1086 C 0.01866 0.90061 0.82402 0.0
C1087 C 0.03224 0.85578 0.76607 0.0
C1088 C 0.01795 0.84733 0.73722 0.0
C1089 C 0.04461 0.84544 0.79825 0.0
C1090 C 0.06014 0.85364 0.82834 0.0
C1091 C 0.05774 0.86417 0.87915 0.0
C1092 C 0.07249 0.87206 0.90687 0.0
C1093 C 0.08968 0.86939 0.88435 0.0
C1094 C 0.09215 0.85878 0.83415 0.0
C1095 C 0.07744 0.85089 0.80622 0.0
H1096 H 0.10108 0.87551 0.90587 0.0
H1097 H 0.95886 0.79835 0.63422 0.0
H1098 H 0.74112 0.98734 0.92624 0.0
H1099 H 0.71849 0.99568 0.854 0.0
H1100 H 0.68385 0.95388 0.91979 0.0
H1101 H 0.70701 0.94443 0.98835 0.0
H1102 H 0.67333 0.96248 0.81425 0.0
H1103 H 0.68857 0.99501 0.99287 0.0
H1104 H 0.70882 0.0119 0.05857 0.0
H1105 H 0.71641 0.05159 0.92312 0.0
H1106 H 0.69639 0.03477 0.85634 0.0
H1107 H 0.58959 0.99942 0.87999 0.0
H1108 H 0.61925 0.98628 0.87733 0.0
H1109 H 0.63973 0.03343 0.78974 0.0
H1110 H 0.61015 0.04712 0.79509 0.0
H1111 H 0.65996 0.02427 0.87981 0.0
H1112 H 0.63401 0.9928 0.71861 0.0
H1113 H 0.6112 0.97478 0.6668 0.0
H1114 H 0.62004 0.93145 0.78808 0.0
H1115 H 0.64284 0.9493 0.84039 0.0
C1116 C 0.72914 0.97924 0.92319 0.0
C1117 C 0.72551 0.96572 0.96503 0.0
C1118 C 0.7161 0.98415 0.88203 0.0
C1119 C 0.69915 0.97603 0.88376 0.0
C1120 C 0.69667 0.96067 0.91858 0.0
C1121 C 0.70987 0.95542 0.95847 0.0
C1122 C 0.68318 0.98552 0.86111 0.0
C1123 C 0.6704 0.97602 0.8282 0.0
C1124 C 0.67938 0.00326 0.87912 0.0
C1125 C 0.69126 0.01349 0.91932 0.0
C1126 C 0.69465 0.00729 0.97703 0.0
C1127 C 0.70608 0.01684 0.01444 0.0
C1128 C 0.71395 0.03277 0.99494 0.0
C1129 C 0.71036 0.03921 0.93806 0.0
C1130 C 0.699 0.02966 0.90036 0.0
C1131 C 0.60042 0.00712 0.86083 0.0
C1132 C 0.59752 0.02444 0.83853 0.0
C1133 C 0.61732 0.99942 0.85815 0.0
C1134 C 0.63163 0.00871 0.83213 0.0
C1135 C 0.6288 0.02593 0.80931 0.0
C1136 C 0.61189 0.03373 0.81242 0.0
C1137 C 0.64985 1.00108 0.83429 0.0
C1138 C 0.66303 0.01095 0.86387 0.0
C1139 C 0.65364 0.98346 0.81517 0.0
C1140 C 0.6402 0.97244 0.78309 0.0
C1141 C 0.63111 0.97943 0.73389 0.0
C1142 C 0.61817 0.96925 0.70455 0.0
C1143 C 0.61419 0.95196 0.72407 0.0
C1144 C 0.62319 0.94482 0.77284 0.0
C1145 C 0.63617 0.95497 0.8022 0.0
H1146 H 0.60412 0.9441 0.70148 0.0
H1147 H 0.72279 0.04016 0.02397 0.0
H1148 H 0.57779 0.71881 0.99684 0.0
H1149 H 0.56964 0.69662 0.92292 0.0
H1150 H 0.52695 0.73056 0.86154 0.0
H1151 H 0.5344 0.75236 0.93747 0.0
H1152 H 0.51388 0.701 0.89936 0.0
H1153 H 0.55976 0.71493 0.76605 0.0
H1154 H 0.58977 0.72257 0.72878 0.0
H1155 H 0.60962 0.67192 0.78883 0.0
H1156 H 0.57978 0.66402 0.82727 0.0
H1157 H 0.48351 0.61862 0.77923 0.0
H1158 H 0.49499 0.6493 0.77442 0.0
H1159 H 0.54154 0.63345 0.87383 0.0
H1160 H 0.53002 0.60299 0.8801 0.0
H1161 H 0.54981 0.65775 0.784 0.0
H1162 H 0.50596 0.64968 0.94284 0.0
H1163 H 0.47598 0.64217 0.98121 0.0
H1164 H 0.4529 0.68311 0.87221 0.0
H1165 H 0.48274 0.69073 0.83274 0.0
C1166 C 0.56697 0.72177 0.96658 0.0
C1167 C 0.55646 0.73713 0.97421 0.0
C1168 C 0.56246 0.70916 0.92363 0.0
C1169 C 0.54754 0.71183 0.88694 0.0
C1170 C 0.53844 0.72817 0.8896 0.0
C1171 C 0.54283 0.74071 0.93296 0.0
C1172 C 0.53927 0.69628 0.85671 0.0
C1173 C 0.52162 0.69186 0.87241 0.0
C1174 C 0.54936 0.68419 0.82227 0.0
C1175 C 0.56746 0.68889 0.79973 0.0
C1176 C 0.57053 0.70545 0.77178 0.0
C1177 C 0.58752 0.70982 0.75031 0.0
C1178 C 0.60159 0.69774 0.75645 0.0
C1179 C 0.59869 0.68126 0.78403 0.0
C1180 C 0.58172 0.6768 0.80553 0.0
C1181 C 0.49618 0.62171 0.80009 0.0
C1182 C 0.50574 0.60846 0.83081 0.0
C1183 C 0.50283 0.63915 0.79651 0.0
C1184 C 0.51913 0.6436 0.82363 0.0
C1185 C 0.52904 0.63023 0.85204 0.0
C1186 C 0.52238 0.61285 0.85584 0.0
C1187 C 0.52497 0.6624 0.82934 0.0
C1188 C 0.54206 0.66731 0.80919 0.0
C1189 C 0.51444 0.67501 0.8599 0.0
C1190 C 0.49652 0.67053 0.884 0.0
C1191 C 0.49447 0.65696 0.92665 0.0
C1192 C 0.47751 0.65271 0.94869 0.0
C1193 C 0.46253 0.66209 0.92892 0.0
C1194 C 0.4645 0.6758 0.88727 0.0
C1195 C 0.48143 0.68008 0.86501 0.0
H1196 H 0.44941 0.65879 0.94605 0.0
H1197 H 0.61475 0.70116 0.73981 0.0
H1198 H 0.76285 0.48107 0.96024 0.0
H1199 H 0.78655 0.46902 0.89771 0.0
H1200 H 0.81079 0.52128 0.88656 0.0
H1201 H 0.78711 0.53348 0.94897 0.0
H1202 H 0.8099 0.478 0.78676 0.0
H1203 H 0.84769 0.51537 0.96632 0.0
H1204 H 0.84224 0.52789 0.06575 0.0
H1205 H 0.80401 0.48626 0.10143 0.0
H1206 H 0.80952 0.47333 0.00273 0.0
H1207 H 0.90344 0.48991 0.74614 0.0
H1208 H 0.87104 0.48992 0.75797 0.0
H1209 H 0.8755 0.45097 0.89821 0.0
H1210 H 0.90806 0.45103 0.88681 0.0
H1211 H 0.85936 0.48114 0.93302 0.0
H1212 H 0.85493 0.4409 0.77474 0.0
H1213 H 0.86007 0.42835 0.67564 0.0
H1214 H 0.83141 0.47192 0.597 0.0
H1215 H 0.82623 0.4849 0.69547 0.0
C1216 C 0.7727 0.49019 0.94195 0.0
C1217 C 0.77344 0.50813 0.9605 0.0
C1218 C 0.78619 0.48327 0.90599 0.0
C1219 C 0.80047 0.49424 0.88851 0.0
C1220 C 0.79984 0.51265 0.9 0.0
C1221 C 0.78643 0.51955 0.93605 0.0
C1222 C 0.81782 0.4861 0.87412 0.0
C1223 C 0.82083 0.4786 0.81822 0.0
C1224 C 0.83167 0.48633 0.9166 0.0
C1225 C 0.82891 0.4935 0.97707 0.0
C1226 C 0.83824 0.50883 0.99563 0.0
C1227 C 0.83513 0.51599 0.05181 0.0
C1228 C 0.82277 0.50789 0.08984 0.0
C1229 C 0.81357 0.49253 0.07193 0.0
C1230 C 0.81668 0.48529 0.01588 0.0
C1231 C 0.89749 0.48109 0.77867 0.0
C1232 C 0.90827 0.47064 0.81599 0.0
C1233 C 0.87896 0.48096 0.78491 0.0
C1234 C 0.87089 0.47038 0.82869 0.0
C1235 C 0.88152 0.45914 0.86385 0.0
C1236 C 0.90009 0.45919 0.85733 0.0
C1237 C 0.85197 0.47346 0.8443 0.0
C1238 C 0.84857 0.48014 0.90107 0.0
C1239 C 0.83786 0.47217 0.80253 0.0
C1240 C 0.8406 0.46419 0.74286 0.0
C1241 C 0.84994 0.44801 0.73638 0.0
C1242 C 0.85279 0.44075 0.68021 0.0
C1243 C 0.8462 0.44942 0.63001 0.0
C1244 C 0.83661 0.46529 0.63591 0.0
C1245 C 0.83371 0.4726 0.69198 0.0
H1246 H 0.84843 0.44378 0.58655 0.0
H1247 H 0.82031 0.51351 0.13319 0.0
H1248 H 0.99095 0.21452 0.8394 0.0
H1249 H 0.98923 0.1838 0.80264 0.0
H1250 H 0.04106 0.17279 0.87728 0.0
H1251 H 0.0428 0.20329 0.91486 0.0
H1252 H 0.03808 0.15757 0.76965 0.0
H1253 H 0.00285 0.16029 0.94644 0.0
H1254 H 0.97913 0.17137 0.01246 0.0
H1255 H 0.93925 0.15606 0.88545 0.0
H1256 H 0.96274 0.14508 0.81831 0.0
H1257 H 0.0295 0.06119 0.79949 0.0
H1258 H 0.03156 0.09304 0.8245 0.0
H1259 H 0.98903 0.10463 0.70191 0.0
H1260 H 0.98725 0.0729 0.67512 0.0
H1261 H 0.98688 0.11937 0.83065 0.0
H1262 H 0.02184 0.11768 0.65297 0.0
H1263 H 0.04526 0.10621 0.5868 0.0
H1264 H 0.0853 0.11884 0.71652 0.0
H1265 H 0.062 0.13017 0.78403 0.0
C1266 C 1.002 0.20559 0.84811 0.0
C1267 C 0.017 0.21154 0.88043 0.0
C1268 C 1.00101 0.18798 0.82687 0.0
C1269 C 0.01493 0.17581 0.83765 0.0
C1270 C 0.03015 0.18186 0.86814 0.0
C1271 C 0.03115 0.19943 0.88943 0.0
C1272 C 0.01345 0.15664 0.81916 0.0
C1273 C 0.02697 0.14921 0.78367 0.0
C1274 C 0.9988 0.14567 0.83631 0.0
C1275 C 0.98461 0.15218 0.87678 0.0
C1276 C 0.98904 0.15947 0.93225 0.0
C1277 C 0.97563 0.16569 0.96998 0.0
C1278 C 0.9577 0.16451 0.95302 0.0
C1279 C 0.95315 0.15704 0.89841 0.0
C1280 C 0.96652 0.15082 0.86049 0.0
C1281 C 0.02062 0.07051 0.77768 0.0
C1282 C 0.00819 0.06446 0.73537 0.0
C1283 C 0.02183 0.08871 0.79201 0.0
C1284 C 0.01041 0.10119 0.76526 0.0
C1285 C 0.99792 0.09522 0.72324 0.0
C1286 C 0.99699 0.07708 0.70784 0.0
C1287 C 0.01148 0.12045 0.78157 0.0
C1288 C 0.99794 0.12781 0.81677 0.0
C1289 C 0.02609 0.13133 0.76432 0.0
C1290 C 0.04015 0.12456 0.72393 0.0
C1291 C 0.0356 0.11785 0.66774 0.0
C1292 C 0.04887 0.11141 0.62987 0.0
C1293 C 0.06677 0.11174 0.6475 0.0
C1294 C 0.07143 0.11856 0.70298 0.0
C1295 C 0.05819 0.125 0.74106 0.0
H1296 H 0.07702 0.10675 0.6181 0.0
H1297 H 0.94733 0.16933 0.98231 0.0
H1298 H 0.30228 1.00121 0.92214 0.0
H1299 H 0.33232 0.99798 0.88061 0.0
H1300 H 0.33484 0.05481 0.84923 0.0
H1301 H 0.30463 0.05805 0.88903 0.0
H1302 H 0.35001 0.03773 0.7598 0.0
H1303 H 0.35456 0.03572 0.97145 0.0
H1304 H 0.34772 0.02461 0.07183 0.0
H1305 H 0.367 0.97257 0.02449 0.0
H1306 H 0.37372 0.98332 0.92351 0.0
H1307 H 0.4522 0.03159 0.8293 0.0
H1308 H 0.42104 0.0336 0.86083 0.0
H1309 H 0.40427 0.0073 0.70053 0.0
H1310 H 0.43544 0.0056 0.66782 0.0
H1311 H 0.39624 0.00946 0.88606 0.0
H1312 H 0.36201 0.02371 0.66092 0.0
H1313 H 0.36925 0.03706 0.56429 0.0
H1314 H 0.41046 0.06897 0.6442 0.0
H1315 H 0.40314 0.05614 0.74194 0.0
C1316 C 0.30904 0.01298 0.90523 0.0
C1317 C 0.30099 0.02992 0.9094 0.0
C1318 C 0.32635 0.01114 0.88207 0.0
C1319 C 0.33608 0.02619 0.86267 0.0
C1320 C 0.32774 0.04298 0.86416 0.0
C1321 C 0.31045 0.04483 0.88733 0.0
C1322 C 0.35512 0.02462 0.84293 0.0
C1323 C 0.36009 0.03145 0.7873 0.0
C1324 C 0.36845 0.01675 0.87907 0.0
C1325 C 0.36447 0.01027 0.93977 0.0
C1326 C 0.35721 0.02187 0.98232 0.0
C1327 C 0.35338 0.01564 0.03934 0.0
C1328 C 0.35688 0.99788 0.05448 0.0
C1329 C 0.36426 0.98632 0.01266 0.0
C1330 C 0.3681 0.99247 0.95554 0.0
C1331 C 0.44192 0.02626 0.80046 0.0
C1332 C 0.44644 0.01846 0.7458 0.0
C1333 C 0.42405 0.02735 0.8188 0.0
C1334 C 0.41019 0.02073 0.78296 0.0
C1335 C 0.41465 0.01274 0.72865 0.0
C1336 C 0.43254 0.0117 0.71013 0.0
C1337 C 0.39112 0.02234 0.80244 0.0
C1338 C 0.38615 0.01557 0.85819 0.0
C1339 C 0.37787 0.03056 0.7668 0.0
C1340 C 0.3822 0.03872 0.70861 0.0
C1341 C 0.37258 0.03362 0.65796 0.0
C1342 C 0.3767 0.04111 0.60292 0.0
C1343 C 0.39041 0.05375 0.59783 0.0
C1344 C 0.39991 0.05908 0.64806 0.0
C1345 C 0.39578 0.0517 0.70335 0.0
H1346 H 0.39361 0.05946 0.55503 0.0
H1347 H 0.3539 0.99309 0.09865 0.0
H1348 H 0.50673 0.31978 0.97451 0.0
H1349 H 0.50816 0.35104 0.94202 0.0
H1350 H 0.48153 0.33696 0.77963 0.0
H1351 H 0.48022 0.3056 0.81133 0.0
H1352 H 0.51282 0.36133 0.76787 0.0
H1353 H 0.45709 0.35433 0.87461 0.0
H1354 H 0.43836 0.34602 0.96029 0.0
H1355 H 0.4676 0.38269 0.07001 0.0
H1356 H 0.48667 0.39107 0.98502 0.0
H1357 H 0.4883 0.44619 0.66145 0.0
H1358 H 0.48863 0.41511 0.69393 0.0
H1359 H 0.49908 0.43214 0.87314 0.0
H1360 H 0.49797 0.46342 0.84106 0.0
H1361 H 0.47709 0.406 0.87816 0.0
H1362 H 0.53332 0.41279 0.78028 0.0
H1363 H 0.55419 0.4212 0.70023 0.0
H1364 H 0.52712 0.38563 0.58112 0.0
H1365 H 0.50566 0.37749 0.66 0.0
C1366 C 0.50155 0.32324 0.93123 0.0
C1367 C 0.49344 0.31013 0.89539 0.0
C1368 C 0.50225 0.34115 0.91296 0.0
C1369 C 0.49499 0.34632 0.85825 0.0
C1370 C 0.48741 0.33321 0.82157 0.0
C1371 C 0.48655 0.31533 0.84001 0.0
C1372 C 0.49466 0.36549 0.84035 0.0
C1373 C 0.50484 0.37107 0.79145 0.0
C1374 C 0.48474 0.37832 0.87236 0.0
C1375 C 0.47341 0.3732 0.9236 0.0
C1376 C 0.45964 0.36049 0.91713 0.0
C1377 C 0.44894 0.35581 0.96552 0.0
C1378 C 0.45179 0.36383 0.02053 0.0
C1379 C 0.4654 0.3765 0.02733 0.0
C1380 C 0.47615 0.38124 0.97906 0.0
C1381 C 0.49061 0.44335 0.70786 0.0
C1382 C 0.49311 0.45732 0.74865 0.0
C1383 C 0.49096 0.4255 0.72638 0.0
C1384 C 0.49428 0.4211 0.78593 0.0
C1385 C 0.49651 0.43508 0.82695 0.0
C1386 C 0.49586 0.45299 0.80858 0.0
C1387 C 0.49524 0.40198 0.80524 0.0
C1388 C 0.48515 0.39635 0.85445 0.0
C1389 C 0.50553 0.38915 0.77422 0.0
C1390 C 0.518 0.3944 0.72611 0.0
C1391 C 0.53176 0.40684 0.73689 0.0
C1392 C 0.54366 0.41159 0.69173 0.0
C1393 C 0.54202 0.40387 0.63571 0.0
C1394 C 0.52839 0.39151 0.62462 0.0
C1395 C 0.51636 0.38683 0.6695 0.0
H1396 H 0.55125 0.40754 0.60079 0.0
H1397 H 0.44341 0.36026 0.05783 0.0
H1398 H 0.19988 0.52586 0.8974 0.0
H1399 H 0.17076 0.52862 0.84901 0.0
H1400 H 0.16861 0.47146 0.82561 0.0
H1401 H 0.19767 0.46861 0.87385 0.0
H1402 H 0.15531 0.48667 0.7312 0.0
H1403 H 0.14559 0.4925 0.93888 0.0
H1404 H 0.14944 0.5045 0.03972 0.0
H1405 H 0.1331 0.55641 0.97955 0.0
H1406 H 0.12931 0.54474 0.87817 0.0
H1407 H 0.05589 0.48116 0.75664 0.0
H1408 H 0.0876 0.47973 0.78441 0.0
H1409 H 0.09754 0.52902 0.6909 0.0
H1410 H 0.06604 0.53003 0.6602 0.0
H1411 H 0.10715 0.51855 0.83834 0.0
H1412 H 0.11394 0.50784 0.62564 0.0
H1413 H 0.10709 0.49115 0.53471 0.0
H1414 H 0.12881 0.44347 0.61172 0.0
H1415 H 0.13445 0.45952 0.70507 0.0
C1416 C 0.19325 0.51387 0.88184 0.0
C1417 C 0.20119 0.497 0.88996 0.0
C1418 C 0.17655 0.51546 0.85413 0.0
C1419 C 0.16724 0.50023 0.83435 0.0
C1420 C 0.17544 0.48345 0.84033 0.0
C1421 C 0.19217 0.48185 0.86783 0.0
C1422 C 0.14873 0.50166 0.80953 0.0
C1423 C 0.1448 0.49364 0.75473 0.0
C1424 C 0.13486 0.51066 0.8401 0.0
C1425 C 0.13739 0.5178 0.90078 0.0
C1426 C 0.14299 0.50652 0.94703 0.0
C1427 C 0.14512 0.51324 0.00431 0.0
C1428 C 0.14158 0.53122 0.01598 0.0
C1429 C 0.13588 0.54249 0.97041 0.0
C1430 C 0.13372 0.53583 0.91304 0.0
C1431 C 0.06489 0.49156 0.74126 0.0
C1432 C 0.05849 0.50566 0.70593 0.0
C1433 C 0.083 0.49069 0.75703 0.0
C1434 C 0.095 0.50409 0.73887 0.0
C1435 C 0.0886 0.51834 0.70434 0.0
C1436 C 0.0706 0.51891 0.68691 0.0
C1437 C 0.11388 0.50383 0.75984 0.0
C1438 C 0.11778 0.51189 0.81436 0.0
C1439 C 0.12755 0.49446 0.72966 0.0
C1440 C 0.12409 0.48482 0.6733 0.0
C1441 C 0.11668 0.49367 0.62415 0.0
C1442 C 0.11303 0.48431 0.57204 0.0
C1443 C 0.11741 0.46623 0.56753 0.0
C1444 C 0.12529 0.45744 0.61539 0.0
C1445 C 0.12855 0.46663 0.66815 0.0
H1446 H 0.11484 0.45909 0.52676 0.0
H1447 H 0.14321 0.53639 0.06037 0.0
H1448 H 0.98941 0.8013 0.50513 0.0
H1449 H 0.98825 0.82923 0.5622 0.0
H1450 H 0.01109 0.85786 0.41453 0.0
H1451 H 0.01186 0.83047 0.3571 0.0
H1452 H 0.02719 0.86723 0.51892 0.0
H1453 H 0.96698 0.85916 0.44192 0.0
H1454 H 0.93846 0.84287 0.43072 0.0
H1455 H 0.93028 0.84463 0.61876 0.0
H1456 H 0.95892 0.86069 0.63115 0.0
H1457 H 0.97771 0.95646 0.56403 0.0
H1458 H 0.97781 0.92511 0.53329 0.0
H1459 H 0.01594 0.91291 0.67054 0.0
H1460 H 0.01648 0.94438 0.69962 0.0
H1461 H 0.96966 0.89345 0.584 0.0
H1462 H 0.04414 0.87997 0.61894 0.0
H1463 H 0.07254 0.89662 0.62905 0.0
H1464 H 0.05202 0.93854 0.51848 0.0
H1465 H 0.02357 0.92208 0.50748 0.0
C1466 C 0.9941 0.81355 0.48465 0.0
C1467 C 1.00092 0.81343 0.42639 0.0
C1468 C 0.99349 0.82951 0.51751 0.0
C1469 C 0.99965 0.8457 0.4928 0.0
C1470 C 0.00646 0.84556 0.43496 0.0
C1471 C 0.00698 0.82976 0.40216 0.0
C1472 C 0.99877 0.86301 0.52565 0.0
C1473 C 0.01461 0.87286 0.53373 0.0
C1474 C 0.98242 0.87046 0.54508 0.0
C1475 C 0.96518 0.86091 0.53752 0.0
C1476 C 0.95917 0.85593 0.48092 0.0
C1477 C 0.94298 0.84676 0.47435 0.0
C1478 C 0.93259 0.84265 0.52403 0.0
C1479 C 0.93836 0.84777 0.58035 0.0
C1480 C 0.95457 0.85691 0.58716 0.0
C1481 C 0.98608 0.94712 0.58786 0.0
C1482 C 0.99702 0.95301 0.63466 0.0
C1483 C 0.98603 0.92912 0.57048 0.0
C1484 C 0.99696 0.91655 0.5992 0.0
C1485 C 0.00749 0.92229 0.64716 0.0
C1486 C 0.00764 0.94031 0.66426 0.0
C1487 C 0.99806 0.8978 0.57645 0.0
C1488 C 0.98228 0.88769 0.57028 0.0
C1489 C 0.01448 0.89009 0.55856 0.0
C1490 C 0.03167 0.89992 0.5632 0.0
C1491 C 0.04573 0.89273 0.59676 0.0
C1492 C 0.06182 0.90213 0.60264 0.0
C1493 C 0.06406 0.91867 0.57464 0.0
C1494 C 0.05024 0.92578 0.54039 0.0
C1495 C 0.03413 0.91642 0.53438 0.0
H1496 H 0.07651 0.92594 0.57933 0.0
H1497 H 0.92006 0.83555 0.51886 0.0
H1498 H 0.70176 0.02171 0.45635 0.0
H1499 H 0.67277 0.02666 0.50434 0.0
H1500 H 0.66485 0.96979 0.51935 0.0
H1501 H 0.69411 0.96464 0.47497 0.0
H1502 H 0.63733 0.99409 0.45021 0.0
H1503 H 0.66827 0.98346 0.63406 0.0
H1504 H 0.6914 0.98858 0.70985 0.0
H1505 H 0.67316 0.04245 0.73269 0.0
H1506 H 0.6501 0.03776 0.65602 0.0
H1507 H 0.55378 0.98264 0.58699 0.0
H1508 H 0.58512 0.98065 0.55669 0.0
H1509 H 0.59533 0.03268 0.63213 0.0
H1510 H 0.56411 0.03422 0.66452 0.0
H1511 H 0.62244 0.01415 0.65334 0.0
H1512 H 0.5906 0.02451 0.47571 0.0
H1513 H 0.56743 0.02021 0.39937 0.0
H1514 H 0.58729 0.96752 0.36409 0.0
H1515 H 0.61043 0.9714 0.44082 0.0
C1516 C 0.69417 0.01023 0.47153 0.0
C1517 C 0.7003 0.99274 0.46069 0.0
C1518 C 0.67751 0.01311 0.49862 0.0
C1519 C 0.66661 0.99859 0.51496 0.0
C1520 C 0.673 0.98119 0.50676 0.0
C1521 C 0.68973 0.97829 0.48085 0.0
C1522 C 0.64792 1.00137 0.5353 0.0
C1523 C 0.63403 0.99818 0.49495 0.0
C1524 C 0.6437 0.00738 0.59291 0.0
C1525 C 0.65778 0.01041 0.63807 0.0
C1526 C 0.66944 0.99653 0.65422 0.0
C1527 C 0.68248 0.99932 0.69756 0.0
C1528 C 0.68389 0.0159 0.72551 0.0
C1529 C 0.67216 0.02967 0.71053 0.0
C1530 C 0.65911 0.02695 0.66711 0.0
C1531 C 0.56275 0.99363 0.59704 0.0
C1532 C 0.55656 0.00856 0.62836 0.0
C1533 C 0.58067 0.99257 0.57936 0.0
C1534 C 0.59268 0.00671 0.59063 0.0
C1535 C 0.58647 0.02157 0.62261 0.0
C1536 C 0.56863 0.02244 0.6414 0.0
C1537 C 0.61164 0.00592 0.56922 0.0
C1538 C 0.62565 0.00984 0.60881 0.0
C1539 C 0.61602 1.00058 0.51076 0.0
C1540 C 0.60216 0.9982 0.46438 0.0
C1541 C 0.58995 0.01196 0.45194 0.0
C1542 C 0.57684 0.0096 0.40857 0.0
C1543 C 0.57587 0.99358 0.37699 0.0
C1544 C 0.58805 0.97991 0.38863 0.0
C1545 C 0.60118 0.98219 0.43201 0.0
H1546 H 0.5657 0.99178 0.34343 0.0
H1547 H 0.69398 0.01801 0.75909 0.0
H1548 H 0.50036 0.71661 0.50412 0.0
H1549 H 0.49587 0.68698 0.54876 0.0
H1550 H 0.53646 0.66528 0.43427 0.0
H1551 H 0.54054 0.69446 0.38832 0.0
H1552 H 0.5074 0.644 0.43724 0.0
H1553 H 0.54522 0.67344 0.58793 0.0
H1554 H 0.55051 0.699 0.65478 0.0
H1555 H 0.49987 0.6895 0.7389 0.0
H1556 H 0.49432 0.66388 0.67264 0.0
H1557 H 0.52537 0.55977 0.55507 0.0
H1558 H 0.52811 0.59085 0.52313 0.0
H1559 H 0.49308 0.60715 0.66478 0.0
H1560 H 0.49107 0.57616 0.69879 0.0
H1561 H 0.51596 0.63206 0.6515 0.0
H1562 H 0.47858 0.60157 0.51499 0.0
H1563 H 0.46933 0.57788 0.44558 0.0
H1564 H 0.51352 0.59087 0.33174 0.0
H1565 H 0.52319 0.61448 0.40091 0.0
C1566 C 0.5083 0.70552 0.48837 0.0
C1567 C 0.52098 0.70808 0.44298 0.0
C1568 C 0.50583 0.68859 0.51433 0.0
C1569 C 0.516 0.67386 0.49551 0.0
C1570 C 0.52851 0.67639 0.44992 0.0
C1571 C 0.53097 0.69321 0.42406 0.0
C1572 C 0.51356 0.65566 0.52182 0.0
C1573 C 0.50949 0.64135 0.48397 0.0
C1574 C 0.51546 0.65223 0.58317 0.0
C1575 C 0.51935 0.66682 0.62542 0.0
C1576 C 0.53527 0.67677 0.62096 0.0
C1577 C 0.53829 0.69128 0.65864 0.0
C1578 C 0.52548 0.69593 0.70086 0.0
C1579 C 0.50976 0.6859 0.70613 0.0
C1580 C 0.50671 0.67134 0.66878 0.0
C1581 C 0.51834 0.56997 0.5797 0.0
C1582 C 0.50783 0.56538 0.62905 0.0
C1583 C 0.51981 0.58779 0.56115 0.0
C1584 C 0.51034 0.60144 0.59022 0.0
C1585 C 0.50042 0.59697 0.64106 0.0
C1586 C 0.49924 0.57917 0.66042 0.0
C1587 C 0.51043 0.62017 0.56638 0.0
C1588 C 0.5139 0.6346 0.6047 0.0
C1589 C 0.50753 0.6238 0.50542 0.0
C1590 C 0.50169 0.6097 0.46341 0.0
C1591 C 0.48639 0.59931 0.47533 0.0
C1592 C 0.48107 0.5859 0.43602 0.0
C1593 C 0.49085 0.58284 0.38435 0.0
C1594 C 0.50596 0.59323 0.37181 0.0
C1595 C 0.51136 0.60664 0.41103 0.0
H1596 H 0.48671 0.57245 0.35397 0.0
H1597 H 0.52775 0.70725 0.72966 0.0
H1598 H 0.7938 0.5041 0.51329 0.0
H1599 H 0.82382 0.5018 0.55617 0.0
H1600 H 0.84478 0.53485 0.41559 0.0
H1601 H 0.81526 0.53659 0.37143 0.0
H1602 H 0.86554 0.50775 0.42938 0.0
H1603 H 0.83656 0.54858 0.56347 0.0
H1604 H 0.81441 0.55844 0.63719 0.0
H1605 H 0.83144 0.5171 0.75642 0.0
H1606 H 0.85349 0.50683 0.68296 0.0
H1607 H 0.95064 0.533 0.53535 0.0
H1608 H 0.91931 0.53322 0.5051 0.0
H1609 H 0.90636 0.49609 0.64473 0.0
H1610 H 0.93772 0.49606 0.67651 0.0
H1611 H 0.88134 0.5225 0.63677 0.0
H1612 H 0.90952 0.48149 0.50534 0.0
H1613 H 0.93234 0.47133 0.4343 0.0
H1614 H 0.91715 0.51289 0.31319 0.0
H1615 H 0.89441 0.52348 0.38392 0.0
C1616 C 0.8048 0.51085 0.4914 0.0
C1617 C 0.80191 0.52067 0.43893 0.0
C1618 C 0.82199 0.50963 0.51632 0.0
C1619 C 0.83669 0.51824 0.4895 0.0
C1620 C 0.83377 0.52809 0.43743 0.0
C1621 C 0.8167 0.52926 0.4125 0.0
C1622 C 0.85529 0.51662 0.51352 0.0
C1623 C 0.86893 0.51121 0.47463 0.0
C1624 C 0.85983 0.52045 0.57324 0.0
C1625 C 0.84642 0.52665 0.61708 0.0
C1626 C 0.83542 0.54142 0.60501 0.0
C1627 C 0.82291 0.54713 0.64687 0.0
C1628 C 0.82143 0.53834 0.70131 0.0
C1629 C 0.83253 0.52387 0.71414 0.0
C1630 C 0.84502 0.51808 0.67237 0.0
C1631 C 0.94116 0.52493 0.56004 0.0
C1632 C 0.9468 0.51451 0.60849 0.0
C1633 C 0.92321 0.52503 0.54249 0.0
C1634 C 0.91043 0.51458 0.57249 0.0
C1635 C 0.91593 0.50438 0.6214 0.0
C1636 C 0.9339 0.50434 0.63929 0.0
C1637 C 0.89143 0.51417 0.55211 0.0
C1638 C 0.8778 0.51904 0.59164 0.0
C1639 C 0.88682 0.50981 0.49311 0.0
C1640 C 0.90036 0.50337 0.45017 0.0
C1641 C 0.91112 0.48854 0.46373 0.0
C1642 C 0.92404 0.4827 0.4235 0.0
C1643 C 0.92622 0.49148 0.36932 0.0
C1644 C 0.91545 0.50611 0.3552 0.0
C1645 C 0.90254 0.51203 0.39533 0.0
H1646 H 0.93623 0.48694 0.33824 0.0
H1647 H 0.81176 0.54279 0.73366 0.0
loop_
_geom_bond_atom_site_label_1
_geom_bond_atom_site_label_2
_geom_bond_distance
_geom_bond_site_symmetry_2
_ccdc_geom_bond_type
C0 C1 1.384 . S
C0 H13 0.947 . S
C0 C35 1.382 . S
C1 C0 1.384 . S
C1 C2 1.378 . S
C2 C1 1.378 . S
C2 C3 1.378 . S
C2 H14 0.952 . S
C3 C2 1.378 . S
C3 H15 0.950 . S
C3 C34 1.383 . S
H4 C23 0.947 . S
H5 C24 0.946 . S
H6 C26 0.953 . S
H7 C27 0.945 . S
H8 C29 0.952 . S
H9 C30 0.949 . S
H10 C32 0.950 . S
H11 C33 0.948 . S
H12 C35 0.951 . S
H13 C0 0.947 . S
H14 C2 0.952 . S
H15 C3 0.950 . S
N16 C19 1.382 . S
N16 C21 1.363 . S
N17 C19 1.371 . S
N17 C20 1.372 . S
N18 C20 1.361 . S
N18 C21 1.377 . S
C19 N16 1.382 . S
C19 N17 1.371 . S
C19 C22 1.480 . S
C20 N17 1.372 . S
C20 N18 1.361 . S
C20 C28 1.457 . S
C21 N16 1.363 . S
C21 N18 1.377 . S
C21 C34 1.479 . S
C22 C19 1.480 . S
C22 C23 1.383 . S
C22 C27 1.385 . S
C23 H4 0.947 . S
C23 C22 1.383 . S
C23 C24 1.388 . S
C24 H5 0.946 . S
C24 C23 1.388 . S
C24 C25 1.384 . S
C25 C24 1.384 . S
C25 C26 1.377 . S
C26 H6 0.953 . S
C26 C25 1.377 . S
C26 C27 1.369 . S
C27 H7 0.945 . S
C27 C22 1.385 . S
C27 C26 1.369 . S
C28 C20 1.457 . S
C28 C29 1.372 . S
C28 C33 1.364 . S
C29 H8 0.952 . S
C29 C28 1.372 . S
C29 C30 1.389 . S
C30 H9 0.949 . S
C30 C29 1.389 . S
C30 C31 1.387 . S
C31 C30 1.387 . S
C31 C32 1.372 . S
C32 H10 0.950 . S
C32 C31 1.372 . S
C32 C33 1.379 . S
C33 H11 0.948 . S
C33 C28 1.364 . S
C33 C32 1.379 . S
C34 C3 1.383 . S
C34 C21 1.479 . S
C34 C35 1.398 . S
C35 C0 1.382 . S
C35 H12 0.951 . S
C35 C34 1.398 . S
C36 C37 1.381 1_655 S
C36 H49 0.948 . S
C36 C71 1.382 1_655 S
C37 C36 1.381 1_455 S
C37 C38 1.388 . S
C38 C37 1.388 . S
C38 C39 1.378 . S
C38 H50 0.952 . S
C39 C38 1.378 . S
C39 H51 0.950 . S
C39 C70 1.383 . S
H40 C59 0.947 . S
H41 C60 0.952 . S
H42 C62 0.953 . S
H43 C63 0.945 . S
H44 C65 0.949 1_655 S
H45 C66 0.956 . S
H46 C68 0.950 . S
H47 C69 0.948 . S
H48 C71 0.952 1_655 S
H49 C36 0.948 . S
H50 C38 0.952 . S
H51 C39 0.950 . S
N52 C55 1.382 . S
N52 C57 1.363 . S
N53 C55 1.371 . S
N53 C56 1.372 . S
N54 C56 1.361 . S
N54 C57 1.377 . S
C55 N52 1.382 . S
C55 N53 1.371 . S
C55 C58 1.480 . S
C56 N53 1.372 . S
C56 N54 1.361 . S
C56 C64 1.457 . S
C57 N52 1.363 . S
C57 N54 1.377 . S
C57 C70 1.479 . S
C58 C55 1.480 . S
C58 C59 1.383 . S
C58 C63 1.385 . S
C59 H40 0.947 . S
C59 C58 1.383 . S
C59 C60 1.386 1_455 S
C60 H41 0.952 . S
C60 C59 1.386 1_655 S
C60 C61 1.381 1_655 S
C61 C60 1.381 1_455 S
C61 C62 1.377 . S
C62 H42 0.953 . S
C62 C61 1.377 . S
C62 C63 1.369 . S
C63 H43 0.945 . S
C63 C58 1.385 . S
C63 C62 1.369 . S
C64 C56 1.457 . S
C64 C65 1.375 . S
C64 C69 1.364 . S
C65 H44 0.949 1_455 S
C65 C64 1.375 . S
C65 C66 1.386 1_455 S
C66 H45 0.956 . S
C66 C65 1.386 1_655 S
C66 C67 1.383 1_655 S
C67 C66 1.383 1_455 S
C67 C68 1.372 . S
C68 H46 0.950 . S
C68 C67 1.372 . S
C68 C69 1.379 . S
C69 H47 0.948 . S
C69 C64 1.364 . S
C69 C68 1.379 . S
C70 C39 1.383 . S
C70 C57 1.479 . S
C70 C71 1.397 . S
C71 C36 1.382 1_455 S
C71 H48 0.952 1_455 S
C71 C70 1.397 . S
C72 C73 1.384 . S
C72 H85 0.947 . S
C72 C107 1.382 . S
C73 C72 1.384 . S
C73 C74 1.378 . S
C74 C73 1.378 . S
C74 C75 1.382 . S
C74 H86 0.952 . S
C75 C74 1.382 . S
C75 H87 0.942 1_565 S
C75 C106 1.389 . S
H76 C95 0.947 . S
H77 C96 0.946 . S
H78 C98 0.953 . S
H79 C99 0.941 1_545 S
H80 C101 0.952 . S
H81 C102 0.949 . S
H82 C104 0.945 1_545 S
H83 C105 0.949 . S
H84 C107 0.951 . S
H85 C72 0.947 . S
H86 C74 0.952 . S
H87 C75 0.942 1_545 S
N88 C91 1.382 . S
N88 C93 1.363 . S
N89 C91 1.371 . S
N89 C92 1.378 . S
N90 C92 1.364 . S
N90 C93 1.377 . S
C91 N88 1.382 . S
C91 N89 1.371 . S
C91 C94 1.480 . S
C92 N89 1.378 . S
C92 N90 1.364 . S
C92 C100 1.459 . S
C93 N88 1.363 . S
C93 N90 1.377 . S
C93 C106 1.479 . S
C94 C91 1.480 . S
C94 C95 1.383 . S
C94 C99 1.387 . S
C95 H76 0.947 . S
C95 C94 1.383 . S
C95 C96 1.388 . S
C96 H77 0.946 . S
C96 C95 1.388 . S
C96 C97 1.384 . S
C97 C96 1.384 . S
C97 C98 1.377 . S
C98 H78 0.953 . S
C98 C97 1.377 . S
C98 C99 1.371 . S
C99 H79 0.941 1_565 S
C99 C94 1.387 . S
C99 C98 1.371 . S
C100 C92 1.459 . S
C100 C101 1.372 . S
C100 C105 1.364 1_565 S
C101 H80 0.952 . S
C101 C100 1.372 . S
C101 C102 1.389 . S
C102 H81 0.949 . S
C102 C101 1.389 . S
C102 C103 1.387 . S
C103 C102 1.387 . S
C103 C104 1.385 . S
C104 H82 0.945 1_565 S
C104 C103 1.385 . S
C104 C105 1.376 1_565 S
C105 H83 0.949 . S
C105 C100 1.364 1_545 S
C105 C104 1.376 1_545 S
C106 C75 1.389 . S
C106 C93 1.479 . S
C106 C107 1.398 . S
C107 C72 1.382 . S
C107 H84 0.951 . S
C107 C106 1.398 . S
C108 C109 1.384 . S
C108 H121 0.947 . S
C108 C143 1.382 . S
C109 C108 1.384 . S
C109 C110 1.378 . S
C110 C109 1.378 . S
C110 C111 1.378 . S
C110 H122 0.952 . S
C111 C110 1.378 . S
C111 H123 0.950 . S
C111 C142 1.383 . S
H112 C131 0.947 . S
H113 C132 0.946 . S
H114 C134 0.953 . S
H115 C135 0.945 . S
H116 C137 0.952 . S
H117 C138 0.949 . S
H118 C140 0.950 . S
H119 C141 0.948 . S
H120 C143 0.951 . S
H121 C108 0.947 . S
H122 C110 0.952 . S
H123 C111 0.950 . S
N124 C127 1.382 . S
N124 C129 1.363 . S
N125 C127 1.371 . S
N125 C128 1.372 . S
N126 C128 1.361 . S
N126 C129 1.377 . S
C127 N124 1.382 . S
C127 N125 1.371 . S
C127 C130 1.480 . S
C128 N125 1.372 . S
C128 N126 1.361 . S
C128 C136 1.457 . S
C129 N124 1.363 . S
C129 N126 1.377 . S
C129 C142 1.479 . S
C130 C127 1.480 . S
C130 C131 1.383 . S
C130 C135 1.385 . S
C131 H112 0.947 . S
C131 C130 1.383 . S
C131 C132 1.388 . S
C132 H113 0.946 . S
C132 C131 1.388 . S
C132 C133 1.384 . S
C133 C132 1.384 . S
C133 C134 1.377 . S
C134 H114 0.953 . S
C134 C133 1.377 . S
C134 C135 1.369 . S
C135 H115 0.945 . S
C135 C130 1.385 . S
C135 C134 1.369 . S
C136 C128 1.457 . S
C136 C137 1.372 . S
C136 C141 1.364 . S
C137 H116 0.952 . S
C137 C136 1.372 . S
C137 C138 1.389 . S
C138 H117 0.949 . S
C138 C137 1.389 . S
C138 C139 1.387 . S
C139 C138 1.387 . S
C139 C140 1.372 . S
C140 H118 0.950 . S
C140 C139 1.372 . S
C140 C141 1.379 . S
C141 H119 0.948 . S
C141 C136 1.364 . S
C141 C140 1.379 . S
C142 C111 1.383 . S
C142 C129 1.479 . S
C142 C143 1.398 . S
C143 C108 1.382 . S
C143 H120 0.951 . S
C143 C142 1.398 . S
C144 C145 1.384 . S
C144 H157 0.947 . S
C144 C179 1.382 . S
C145 C144 1.384 . S
C145 C146 1.378 . S
C146 C145 1.378 . S
C146 C147 1.378 . S
C146 H158 0.952 . S
C147 C146 1.378 . S
C147 H159 0.950 . S
C147 C178 1.383 . S
H148 C167 0.947 1_556 S
H149 C168 0.946 . S
H150 C170 0.953 . S
H151 C171 0.945 . S
H152 C173 0.952 . S
H153 C174 0.949 . S
H154 C176 0.950 . S
H155 C177 0.948 . S
H156 C179 0.951 . S
H157 C144 0.947 . S
H158 C146 0.952 . S
H159 C147 0.950 . S
N160 C163 1.382 1_556 S
N160 C165 1.363 . S
N161 C163 1.371 . S
N161 C164 1.372 . S
N162 C164 1.361 . S
N162 C165 1.377 1_554 S
C163 N160 1.382 1_554 S
C163 N161 1.371 . S
C163 C166 1.480 . S
C164 N161 1.372 . S
C164 N162 1.361 . S
C164 C172 1.457 . S
C165 N160 1.363 . S
C165 N162 1.377 1_556 S
C165 C178 1.479 . S
C166 C163 1.480 . S
C166 C167 1.383 . S
C166 C171 1.385 . S
C167 H148 0.947 1_554 S
C167 C166 1.383 . S
C167 C168 1.388 . S
C168 H149 0.946 . S
C168 C167 1.388 . S
C168 C169 1.384 . S
C169 C168 1.384 . S
C169 C170 1.377 . S
C170 H150 0.953 . S
C170 C169 1.377 . S
C170 C171 1.369 . S
C171 H151 0.945 . S
C171 C166 1.385 . S
C171 C170 1.369 . S
C172 C164 1.457 . S
C172 C173 1.372 . S
C172 C177 1.364 . S
C173 H152 0.952 . S
C173 C172 1.372 . S
C173 C174 1.389 . S
C174 H153 0.949 . S
C174 C173 1.389 . S
C174 C175 1.387 . S
C175 C174 1.387 . S
C175 C176 1.372 . S
C176 H154 0.950 . S
C176 C175 1.372 . S
C176 C177 1.379 . S
C177 H155 0.948 . S
C177 C172 1.364 . S
C177 C176 1.379 . S
C178 C147 1.383 . S
C178 C165 1.479 . S
C178 C179 1.398 . S
C179 C144 1.382 . S
C179 H156 0.951 . S
C179 C178 1.398 . S
C180 C181 1.384 . S
C180 H193 0.948 1_455 S
C180 C215 1.382 . S
C181 C180 1.384 . S
C181 C182 1.378 . S
C182 C181 1.378 . S
C182 C183 1.378 . S
C182 H194 0.952 . S
C183 C182 1.378 . S
C183 H195 0.950 . S
C183 C214 1.383 . S
H184 C203 0.947 1_556 S
H185 C204 0.948 . S
H186 C206 0.953 . S
H187 C207 0.945 . S
H188 C209 0.947 1_655 S
H189 C210 0.953 . S
H190 C212 0.950 . S
H191 C213 0.948 . S
H192 C215 0.950 1_655 S
H193 C180 0.948 1_655 S
H194 C182 0.952 . S
H195 C183 0.950 . S
N196 C199 1.382 1_556 S
N196 C201 1.363 . S
N197 C199 1.371 . S
N197 C200 1.372 . S
N198 C200 1.361 . S
N198 C201 1.377 1_554 S
C199 N196 1.382 1_554 S
C199 N197 1.371 . S
C199 C202 1.480 . S
C200 N197 1.372 . S
C200 N198 1.361 . S
C200 C208 1.457 . S
C201 N196 1.363 . S
C201 N198 1.377 1_556 S
C201 C214 1.479 . S
C202 C199 1.480 . S
C202 C203 1.383 . S
C202 C207 1.385 . S
C203 H184 0.947 1_554 S
C203 C202 1.383 . S
C203 C204 1.387 1_455 S
C204 H185 0.948 . S
C204 C203 1.387 1_655 S
C204 C205 1.383 1_655 S
C205 C204 1.383 1_455 S
C205 C206 1.377 . S
C206 H186 0.953 . S
C206 C205 1.377 . S
C206 C207 1.369 . S
C207 H187 0.945 . S
C207 C202 1.385 . S
C207 C206 1.369 . S
C208 C200 1.457 . S
C208 C209 1.379 . S
C208 C213 1.364 . S
C209 H188 0.947 1_455 S
C209 C208 1.379 . S
C209 C210 1.387 1_455 S
C210 H189 0.953 . S
C210 C209 1.387 1_655 S
C210 C211 1.384 1_655 S
C211 C210 1.384 1_455 S
C211 C212 1.372 . S
C212 H190 0.950 . S
C212 C211 1.372 . S
C212 C213 1.379 . S
C213 H191 0.948 . S
C213 C208 1.364 . S
C213 C212 1.379 . S
C214 C183 1.383 . S
C214 C201 1.479 . S
C214 C215 1.399 . S
C215 C180 1.382 . S
C215 H192 0.950 1_455 S
C215 C214 1.399 . S
C216 C217 1.384 . S
C216 H229 0.947 . S
C216 C251 1.382 . S
C217 C216 1.384 . S
C217 C218 1.378 . S
C218 C217 1.378 . S
C218 C219 1.378 . S
C218 H230 0.952 . S
C219 C218 1.378 . S
C219 H231 0.950 . S
C219 C250 1.383 . S
H220 C239 0.947 1_556 S
H221 C240 0.946 . S
H222 C242 0.953 . S
H223 C243 0.945 . S
H224 C245 0.952 . S
H225 C246 0.949 . S
H226 C248 0.950 . S
H227 C249 0.948 . S
H228 C251 0.951 . S
H229 C216 0.947 . S
H230 C218 0.952 . S
H231 C219 0.950 . S
N232 C235 1.382 1_556 S
N232 C237 1.363 . S
N233 C235 1.371 . S
N233 C236 1.372 . S
N234 C236 1.361 . S
N234 C237 1.377 1_554 S
C235 N232 1.382 1_554 S
C235 N233 1.371 . S
C235 C238 1.480 . S
C236 N233 1.372 . S
C236 N234 1.361 . S
C236 C244 1.457 . S
C237 N232 1.363 . S
C237 N234 1.377 1_556 S
C237 C250 1.479 . S
C238 C235 1.480 . S
C238 C239 1.383 . S
C238 C243 1.385 . S
C239 H220 0.947 1_554 S
C239 C238 1.383 . S
C239 C240 1.388 . S
C240 H221 0.946 . S
C240 C239 1.388 . S
C240 C241 1.384 . S
C241 C240 1.384 . S
C241 C242 1.377 . S
C242 H222 0.953 . S
C242 C241 1.377 . S
C242 C243 1.369 . S
C243 H223 0.945 . S
C243 C238 1.385 . S
C243 C242 1.369 . S
C244 C236 1.457 . S
C244 C245 1.372 . S
C244 C249 1.364 . S
C245 H224 0.952 . S
C245 C244 1.372 . S
C245 C246 1.389 . S
C246 H225 0.949 . S
C246 C245 1.389 . S
C246 C247 1.387 . S
C247 C246 1.387 . S
C247 C248 1.372 . S
C248 H226 0.950 . S
C248 C247 1.372 . S
C248 C249 1.379 . S
C249 H227 0.948 . S
C249 C244 1.364 . S
C249 C248 1.379 . S
C250 C219 1.383 . S
C250 C237 1.479 . S
C250 C251 1.398 . S
C251 C216 1.382 . S
C251 H228 0.951 . S
C251 C250 1.398 . S
C252 C253 1.384 . S
C252 H265 0.947 . S
C252 C287 1.382 . S
C253 C252 1.384 . S
C253 C254 1.378 . S
C254 C253 1.378 . S
C254 C255 1.378 . S
C254 H266 0.952 . S
C255 C254 1.378 . S
C255 H267 0.950 . S
C255 C286 1.383 . S
H256 C275 0.947 . S
H257 C276 0.946 . S
H258 C278 0.953 1_556 S
H259 C279 0.945 1_556 S
H260 C281 0.952 . S
H261 C282 0.949 . S
H262 C284 0.950 . S
H263 C285 0.948 . S
H264 C287 0.951 . S
H265 C252 0.947 . S
H266 C254 0.952 . S
H267 C255 0.950 . S
N268 C271 1.382 . S
N268 C273 1.363 . S
N269 C271 1.371 1_556 S
N269 C272 1.372 . S
N270 C272 1.361 1_554 S
N270 C273 1.377 . S
C271 N268 1.382 . S
C271 N269 1.371 1_554 S
C271 C274 1.480 . S
C272 N269 1.372 . S
C272 N270 1.361 1_556 S
C272 C280 1.457 . S
C273 N268 1.363 . S
C273 N270 1.377 . S
C273 C286 1.479 . S
C274 C271 1.480 . S
C274 C275 1.383 . S
C274 C279 1.385 . S
C275 H256 0.947 . S
C275 C274 1.383 . S
C275 C276 1.388 . S
C276 H257 0.946 . S
C276 C275 1.388 . S
C276 C277 1.384 . S
C277 C276 1.384 . S
C277 C278 1.377 . S
C278 H258 0.953 1_554 S
C278 C277 1.377 . S
C278 C279 1.369 . S
C279 H259 0.945 1_554 S
C279 C274 1.385 . S
C279 C278 1.369 . S
C280 C272 1.457 . S
C280 C281 1.372 . S
C280 C285 1.364 . S
C281 H260 0.952 . S
C281 C280 1.372 . S
C281 C282 1.389 . S
C282 H261 0.949 . S
C282 C281 1.389 . S
C282 C283 1.387 . S
C283 C282 1.387 . S
C283 C284 1.372 . S
C284 H262 0.950 . S
C284 C283 1.372 . S
C284 C285 1.379 . S
C285 H263 0.948 . S
C285 C280 1.364 . S
C285 C284 1.379 . S
C286 C255 1.383 . S
C286 C273 1.479 . S
C286 C287 1.398 . S
C287 C252 1.382 . S
C287 H264 0.951 . S
C287 C286 1.398 . S
Ho288 C291 2.811 . S
Ho288 O308 2.322 . S
Ho288 O310 2.378 . S
Ho288 O311 2.541 . S
Ho288 O312 2.381 . S
Ho288 O313 2.669 1_565 S
Ho288 O315 2.346 1_565 S
Ho288 O319 2.317 1_455 S
Ho289 C300 2.811 . S
Ho289 O309 2.346 1_545 S
Ho289 O313 2.305 1_655 S
Ho289 O314 2.322 . S
Ho289 O316 2.378 . S
Ho289 O317 2.535 . S
Ho289 O318 2.381 . S
Ho289 O319 2.644 1_545 S
C290 O308 1.259 1_655 S
C290 O309 1.268 . S
C291 Ho288 2.811 . S
C291 C292 1.488 . S
C291 O310 1.215 . S
C291 O311 1.329 . S
C292 C291 1.488 . S
C292 C293 1.348 . S
C292 C297 1.413 . S
C293 C292 1.348 . S
C293 C294 1.442 . S
C293 H320 0.930 1_455 S
C294 C293 1.442 . S
C294 C295 1.381 . S
C294 H321 0.931 1_455 S
C295 C294 1.381 . S
C295 C296 1.321 . S
C296 C295 1.321 . S
C296 C297 1.403 . S
C296 H322 0.934 . S
C297 C292 1.413 . S
C297 C296 1.403 . S
C297 H323 0.930 . S
C298 O312 1.275 1_545 S
C298 O313 1.256 . S
C299 O314 1.259 1_455 S
C299 O315 1.268 . S
C300 Ho289 2.811 . S
C300 C301 1.488 . S
C300 O316 1.215 . S
C300 O317 1.315 . S
C301 C300 1.488 . S
C301 C302 1.348 . S
C301 C306 1.413 . S
C302 C301 1.348 . S
C302 C303 1.442 . S
C302 H324 0.930 1_655 S
C303 C302 1.442 . S
C303 C304 1.381 . S
C303 H325 0.931 1_655 S
C304 C303 1.381 . S
C304 C305 1.321 . S
C305 C304 1.321 . S
C305 C306 1.403 . S
C305 H326 0.934 . S
C306 C301 1.413 . S
C306 C305 1.403 . S
C306 H327 0.930 . S
C307 O318 1.275 . S
C307 O319 1.240 1_545 S
O308 Ho288 2.322 . S
O308 C290 1.259 1_455 S
O309 Ho289 2.346 1_565 S
O309 C290 1.268 . S
O310 Ho288 2.378 . S
O310 C291 1.215 . S
O311 Ho288 2.541 . S
O311 C291 1.329 . S
O312 Ho288 2.381 . S
O312 C298 1.275 1_565 S
O313 Ho288 2.669 1_545 S
O313 Ho289 2.305 1_455 S
O313 C298 1.256 . S
O314 Ho289 2.322 . S
O314 C299 1.259 1_655 S
O315 Ho288 2.346 1_545 S
O315 C299 1.268 . S
O316 Ho289 2.378 . S
O316 C300 1.215 . S
O317 Ho289 2.535 . S
O317 C300 1.315 . S
O318 Ho289 2.381 . S
O318 C307 1.275 . S
O319 Ho288 2.317 1_655 S
O319 Ho289 2.644 1_565 S
O319 C307 1.240 1_565 S
H320 C293 0.930 1_655 S
H321 C294 0.931 1_655 S
H322 C296 0.934 . S
H323 C297 0.930 . S
H324 C302 0.930 1_455 S
H325 C303 0.931 1_455 S
H326 C305 0.934 . S
H327 C306 0.930 . S
Ho328 C331 2.811 . S
Ho328 O348 2.322 . S
Ho328 O350 2.378 . S
Ho328 O351 2.524 . S
Ho328 O352 2.381 . S
Ho328 O353 2.669 . S
Ho328 O355 2.346 . S
Ho328 O359 2.305 1_545 S
Ho329 C340 2.811 . S
Ho329 O349 2.346 . S
Ho329 O353 2.305 1_565 S
Ho329 O354 2.322 . S
Ho329 O356 2.378 . S
Ho329 O357 2.524 1_565 S
Ho329 O358 2.381 . S
Ho329 O359 2.669 . S
C330 O348 1.259 1_565 S
C330 O349 1.268 . S
C331 Ho328 2.811 . S
C331 C332 1.488 . S
C331 O350 1.215 . S
C331 O351 1.289 . S
C332 C331 1.488 . S
C332 C333 1.348 . S
C332 C337 1.413 . S
C333 C332 1.348 . S
C333 C334 1.442 . S
C333 H360 0.930 1_545 S
C334 C333 1.442 . S
C334 C335 1.381 . S
C334 H361 0.931 1_545 S
C335 C334 1.381 . S
C335 C336 1.321 . S
C336 C335 1.321 . S
C336 C337 1.403 . S
C336 H362 0.934 . S
C337 C332 1.413 . S
C337 C336 1.403 . S
C337 H363 0.930 . S
C338 O352 1.275 . S
C338 O353 1.256 . S
C339 O354 1.259 1_545 S
C339 O355 1.268 . S
C340 Ho329 2.811 . S
C340 C341 1.488 . S
C340 O356 1.215 . S
C340 O357 1.289 1_565 S
C341 C340 1.488 . S
C341 C342 1.348 1_565 S
C341 C346 1.413 . S
C342 C341 1.348 1_545 S
C342 C343 1.442 1_545 S
C342 H364 0.930 . S
C343 C342 1.442 1_565 S
C343 C344 1.380 . S
C343 H365 0.932 1_565 S
C344 C343 1.380 . S
C344 C345 1.321 . S
C345 C344 1.321 . S
C345 C346 1.403 . S
C345 H366 0.934 . S
C346 C341 1.413 . S
C346 C345 1.403 . S
C346 H367 0.930 . S
C347 O358 1.275 . S
C347 O359 1.256 . S
O348 Ho328 2.322 . S
O348 C330 1.259 1_545 S
O349 Ho329 2.346 . S
O349 C330 1.268 . S
O350 Ho328 2.378 . S
O350 C331 1.215 . S
O351 Ho328 2.524 . S
O351 C331 1.289 . S
O352 Ho328 2.381 . S
O352 C338 1.275 . S
O353 Ho328 2.669 . S
O353 Ho329 2.305 1_545 S
O353 C338 1.256 . S
O354 Ho329 2.322 . S
O354 C339 1.259 1_565 S
O355 Ho328 2.346 . S
O355 C339 1.268 . S
O356 Ho329 2.378 . S
O356 C340 1.215 . S
O357 Ho329 2.524 1_545 S
O357 C340 1.289 1_545 S
O358 Ho329 2.381 . S
O358 C347 1.275 . S
O359 Ho328 2.305 1_565 S
O359 Ho329 2.669 . S
O359 C347 1.256 . S
H360 C333 0.930 1_565 S
H361 C334 0.931 1_565 S
H362 C336 0.934 . S
H363 C337 0.930 . S
H364 C342 0.930 . S
H365 C343 0.932 1_545 S
H366 C345 0.934 . S
H367 C346 0.930 . S
Ho368 C371 2.811 . S
Ho368 O388 2.322 . S
Ho368 O390 2.378 . S
Ho368 O391 2.524 . S
Ho368 O392 2.381 . S
Ho368 O393 2.669 . S
Ho368 O395 2.346 . S
Ho368 O399 2.305 . S
Ho369 C380 2.811 . S
Ho369 O389 2.346 . S
Ho369 O393 2.305 . S
Ho369 O394 2.322 . S
Ho369 O396 2.378 . S
Ho369 O397 2.524 . S
Ho369 O398 2.381 . S
Ho369 O399 2.669 . S
C370 O388 1.259 . S
C370 O389 1.268 . S
C371 Ho368 2.811 . S
C371 C372 1.488 . S
C371 O390 1.215 . S
C371 O391 1.289 . S
C372 C371 1.488 . S
C372 C373 1.348 . S
C372 C377 1.413 . S
C373 C372 1.348 . S
C373 C374 1.442 . S
C373 H400 0.930 . S
C374 C373 1.442 . S
C374 C375 1.381 . S
C374 H401 0.931 . S
C375 C374 1.381 . S
C375 C376 1.321 . S
C376 C375 1.321 . S
C376 C377 1.403 . S
C376 H402 0.934 . S
C377 C372 1.413 . S
C377 C376 1.403 . S
C377 H403 0.930 . S
C378 O392 1.275 . S
C378 O393 1.256 . S
C379 O394 1.259 . S
C379 O395 1.268 . S
C380 Ho369 2.811 . S
C380 C381 1.488 . S
C380 O396 1.215 . S
C380 O397 1.289 . S
C381 C380 1.488 . S
C381 C382 1.348 . S
C381 C386 1.413 . S
C382 C381 1.348 . S
C382 C383 1.442 . S
C382 H404 0.930 . S
C383 C382 1.442 . S
C383 C384 1.381 . S
C383 H405 0.931 . S
C384 C383 1.381 . S
C384 C385 1.321 . S
C385 C384 1.321 . S
C385 C386 1.403 . S
C385 H406 0.934 . S
C386 C381 1.413 . S
C386 C385 1.403 . S
C386 H407 0.930 . S
C387 O398 1.275 . S
C387 O399 1.256 . S
O388 Ho368 2.322 . S
O388 C370 1.259 . S
O389 Ho369 2.346 . S
O389 C370 1.268 . S
O390 Ho368 2.378 . S
O390 C371 1.215 . S
O391 Ho368 2.524 . S
O391 C371 1.289 . S
O392 Ho368 2.381 . S
O392 C378 1.275 . S
O393 Ho368 2.669 . S
O393 Ho369 2.305 . S
O393 C378 1.256 . S
O394 Ho369 2.322 . S
O394 C379 1.259 . S
O395 Ho368 2.346 . S
O395 C379 1.268 . S
O396 Ho369 2.378 . S
O396 C380 1.215 . S
O397 Ho369 2.524 . S
O397 C380 1.289 . S
O398 Ho369 2.381 . S
O398 C387 1.275 . S
O399 Ho368 2.305 . S
O399 Ho369 2.669 . S
O399 C387 1.256 . S
H400 C373 0.930 . S
H401 C374 0.931 . S
H402 C376 0.934 . S
H403 C377 0.930 . S
H404 C382 0.930 . S
H405 C383 0.931 . S
H406 C385 0.934 . S
H407 C386 0.930 . S
Ho408 C411 2.811 . S
Ho408 O428 2.322 . S
Ho408 O430 2.378 . S
Ho408 O431 2.524 . S
Ho408 O432 2.381 . S
Ho408 O433 2.669 1_655 S
Ho408 O435 2.346 1_655 S
Ho408 O439 2.305 . S
Ho409 C420 2.811 . S
Ho409 O429 2.346 1_455 S
Ho409 O433 2.305 . S
Ho409 O434 2.322 . S
Ho409 O436 2.378 . S
Ho409 O437 2.524 . S
Ho409 O438 2.381 . S
Ho409 O439 2.669 1_455 S
C410 O428 1.259 . S
C410 O429 1.268 . S
C411 Ho408 2.811 . S
C411 C412 1.488 . S
C411 O430 1.215 . S
C411 O431 1.289 . S
C412 C411 1.488 . S
C412 C413 1.348 . S
C412 C417 1.413 . S
C413 C412 1.348 . S
C413 C414 1.442 . S
C413 H440 0.930 . S
C414 C413 1.442 . S
C414 C415 1.381 . S
C414 H441 0.931 . S
C415 C414 1.381 . S
C415 C416 1.321 . S
C416 C415 1.321 . S
C416 C417 1.403 . S
C416 H442 0.934 . S
C417 C412 1.413 . S
C417 C416 1.403 . S
C417 H443 0.930 . S
C418 O432 1.275 . S
C418 O433 1.256 1_655 S
C419 O434 1.259 . S
C419 O435 1.268 . S
C420 Ho409 2.811 . S
C420 C421 1.488 . S
C420 O436 1.215 . S
C420 O437 1.289 . S
C421 C420 1.488 . S
C421 C422 1.348 . S
C421 C426 1.413 . S
C422 C421 1.348 . S
C422 C423 1.442 . S
C422 H444 0.930 . S
C423 C422 1.442 . S
C423 C424 1.381 . S
C423 H445 0.931 . S
C424 C423 1.381 . S
C424 C425 1.321 . S
C425 C424 1.321 . S
C425 C426 1.403 . S
C425 H446 0.934 . S
C426 C421 1.413 . S
C426 C425 1.403 . S
C426 H447 0.930 . S
C427 O438 1.275 . S
C427 O439 1.256 1_455 S
O428 Ho408 2.322 . S
O428 C410 1.259 . S
O429 Ho409 2.346 1_655 S
O429 C410 1.268 . S
O430 Ho408 2.378 . S
O430 C411 1.215 . S
O431 Ho408 2.524 . S
O431 C411 1.289 . S
O432 Ho408 2.381 . S
O432 C418 1.275 . S
O433 Ho408 2.669 1_455 S
O433 Ho409 2.305 . S
O433 C418 1.256 1_455 S
O434 Ho409 2.322 . S
O434 C419 1.259 . S
O435 Ho408 2.346 1_455 S
O435 C419 1.268 . S
O436 Ho409 2.378 . S
O436 C420 1.215 . S
O437 Ho409 2.524 . S
O437 C420 1.289 . S
O438 Ho409 2.381 . S
O438 C427 1.275 . S
O439 Ho408 2.305 . S
O439 Ho409 2.669 1_655 S
O439 C427 1.256 1_655 S
H440 C413 0.930 . S
H441 C414 0.931 . S
H442 C416 0.934 . S
H443 C417 0.930 . S
H444 C422 0.930 . S
H445 C423 0.931 . S
H446 C425 0.934 . S
H447 C426 0.930 . S
H448 C466 0.951 . S
H449 C468 0.951 . S
H450 C470 0.950 . S
H451 C471 0.950 . S
H452 C473 0.950 . S
H453 C476 0.950 . S
H454 C477 0.950 . S
H455 C479 0.950 . S
H456 C480 0.950 . S
H457 C481 0.951 . S
H458 C483 0.951 . S
H459 C485 0.950 . S
H460 C486 0.950 . S
H461 C488 0.950 . S
H462 C491 0.950 . S
H463 C492 0.950 . S
H464 C494 0.950 . S
H465 C495 0.950 . S
C466 H448 0.951 . S
C466 C467 1.366 . S
C466 C468 1.388 . S
C467 C466 1.366 . S
C467 C471 1.385 . S
C468 H449 0.951 . S
C468 C466 1.388 . S
C468 C469 1.366 . S
C469 C468 1.366 . S
C469 C470 1.414 . S
C469 C472 1.499 . S
C470 H450 0.950 . S
C470 C469 1.414 . S
C470 C471 1.374 . S
C471 H451 0.950 . S
C471 C467 1.385 . S
C471 C470 1.374 . S
C472 C469 1.499 . S
C472 C473 1.373 . S
C472 C474 1.389 1_545 S
C473 H452 0.950 . S
C473 C472 1.373 . S
C473 C489 1.377 . S
C474 C472 1.389 1_565 S
C474 C475 1.524 . S
C474 C488 1.377 . S
C475 C474 1.524 . S
C475 C476 1.397 . S
C475 C480 1.363 . S
C476 H453 0.950 . S
C476 C475 1.397 . S
C476 C477 1.334 . S
C477 H454 0.950 . S
C477 C476 1.334 . S
C477 C478 1.287 . S
C478 C477 1.287 . S
C478 C479 1.524 . S
C478 H497 0.913 . S
C479 H455 0.950 . S
C479 C478 1.524 . S
C479 C480 1.415 . S
C480 H456 0.950 . S
C480 C475 1.363 . S
C480 C479 1.415 . S
C481 H457 0.951 . S
C481 C482 1.366 . S
C481 C483 1.388 . S
C482 C481 1.366 . S
C482 C486 1.385 . S
C483 H458 0.951 . S
C483 C481 1.388 . S
C483 C484 1.366 . S
C484 C483 1.366 . S
C484 C485 1.414 . S
C484 C487 1.499 . S
C485 H459 0.950 . S
C485 C484 1.414 . S
C485 C486 1.374 . S
C486 H460 0.950 . S
C486 C482 1.385 . S
C486 C485 1.374 . S
C487 C484 1.499 . S
C487 C488 1.373 1_545 S
C487 C489 1.389 . S
C488 H461 0.950 . S
C488 C474 1.377 . S
C488 C487 1.373 1_565 S
C489 C473 1.377 . S
C489 C487 1.389 . S
C489 C490 1.524 . S
C490 C489 1.524 . S
C490 C491 1.397 . S
C490 C495 1.363 . S
C491 H462 0.950 . S
C491 C490 1.397 . S
C491 C492 1.334 . S
C492 H463 0.950 . S
C492 C491 1.334 . S
C492 C493 1.287 . S
C493 C492 1.287 . S
C493 C494 1.524 . S
C493 H496 0.999 . S
C494 H464 0.950 . S
C494 C493 1.524 . S
C494 C495 1.415 . S
C495 H465 0.950 . S
C495 C490 1.363 . S
C495 C494 1.415 . S
H496 C493 0.999 . S
H497 C478 0.913 . S
H498 C516 0.951 . S
H499 C518 0.951 . S
H500 C520 0.950 . S
H501 C521 0.950 . S
H502 C523 0.950 . S
H503 C526 0.950 . S
H504 C527 0.950 . S
H505 C529 0.950 . S
H506 C530 0.950 . S
H507 C531 0.951 . S
H508 C533 0.951 . S
H509 C535 0.950 . S
H510 C536 0.950 . S
H511 C538 0.950 . S
H512 C541 0.950 . S
H513 C542 0.950 . S
H514 C544 0.950 . S
H515 C545 0.950 . S
C516 H498 0.951 . S
C516 C517 1.366 . S
C516 C518 1.388 . S
C517 C516 1.366 . S
C517 C521 1.385 . S
C518 H499 0.951 . S
C518 C516 1.388 . S
C518 C519 1.366 . S
C519 C518 1.366 . S
C519 C520 1.414 . S
C519 C522 1.499 . S
C520 H500 0.950 . S
C520 C519 1.414 . S
C520 C521 1.374 . S
C521 H501 0.950 . S
C521 C517 1.385 . S
C521 C520 1.374 . S
C522 C519 1.499 . S
C522 C523 1.373 . S
C522 C524 1.389 . S
C523 H502 0.950 . S
C523 C522 1.373 . S
C523 C539 1.377 . S
C524 C522 1.389 . S
C524 C525 1.524 . S
C524 C538 1.377 . S
C525 C524 1.524 . S
C525 C526 1.397 . S
C525 C530 1.363 . S
C526 H503 0.950 . S
C526 C525 1.397 . S
C526 C527 1.334 . S
C527 H504 0.950 . S
C527 C526 1.334 . S
C527 C528 1.287 . S
C528 C527 1.287 . S
C528 C529 1.524 . S
C528 H547 0.913 . S
C529 H505 0.950 . S
C529 C528 1.524 . S
C529 C530 1.415 . S
C530 H506 0.950 . S
C530 C525 1.363 . S
C530 C529 1.415 . S
C531 H507 0.951 . S
C531 C532 1.366 . S
C531 C533 1.388 . S
C532 C531 1.366 . S
C532 C536 1.385 . S
C533 H508 0.951 . S
C533 C531 1.388 . S
C533 C534 1.366 . S
C534 C533 1.366 . S
C534 C535 1.414 . S
C534 C537 1.499 . S
C535 H509 0.950 . S
C535 C534 1.414 . S
C535 C536 1.374 . S
C536 H510 0.950 . S
C536 C532 1.385 . S
C536 C535 1.374 . S
C537 C534 1.499 . S
C537 C538 1.373 . S
C537 C539 1.389 . S
C538 H511 0.950 . S
C538 C524 1.377 . S
C538 C537 1.373 . S
C539 C523 1.377 . S
C539 C537 1.389 . S
C539 C540 1.524 . S
C540 C539 1.524 . S
C540 C541 1.397 . S
C540 C545 1.363 . S
C541 H512 0.950 . S
C541 C540 1.397 . S
C541 C542 1.334 . S
C542 H513 0.950 . S
C542 C541 1.334 . S
C542 C543 1.287 . S
C543 C542 1.287 . S
C543 C544 1.524 . S
C543 H546 0.999 . S
C544 H514 0.950 . S
C544 C543 1.524 . S
C544 C545 1.415 . S
C545 H515 0.950 . S
C545 C540 1.363 . S
C545 C544 1.415 . S
H546 C543 0.999 . S
H547 C528 0.913 . S
H548 C566 0.951 . S
H549 C568 0.951 . S
H550 C570 0.950 . S
H551 C571 0.950 . S
H552 C573 0.950 . S
H553 C576 0.950 . S
H554 C577 0.950 . S
H555 C579 0.950 . S
H556 C580 0.950 . S
H557 C581 0.951 . S
H558 C583 0.951 . S
H559 C585 0.950 . S
H560 C586 0.950 . S
H561 C588 0.950 . S
H562 C591 0.950 . S
H563 C592 0.950 . S
H564 C594 0.950 . S
H565 C595 0.950 . S
C566 H548 0.951 . S
C566 C567 1.366 . S
C566 C568 1.388 . S
C567 C566 1.366 . S
C567 C571 1.385 . S
C568 H549 0.951 . S
C568 C566 1.388 . S
C568 C569 1.366 . S
C569 C568 1.366 . S
C569 C570 1.414 . S
C569 C572 1.499 . S
C570 H550 0.950 . S
C570 C569 1.414 . S
C570 C571 1.374 . S
C571 H551 0.950 . S
C571 C567 1.385 . S
C571 C570 1.374 . S
C572 C569 1.499 . S
C572 C573 1.373 . S
C572 C574 1.389 . S
C573 H552 0.950 . S
C573 C572 1.373 . S
C573 C589 1.377 . S
C574 C572 1.389 . S
C574 C575 1.524 . S
C574 C588 1.377 . S
C575 C574 1.524 . S
C575 C576 1.397 . S
C575 C580 1.363 . S
C576 H553 0.950 . S
C576 C575 1.397 . S
C576 C577 1.334 . S
C577 H554 0.950 . S
C577 C576 1.334 . S
C577 C578 1.287 . S
C578 C577 1.287 . S
C578 C579 1.524 . S
C578 H597 0.913 . S
C579 H555 0.950 . S
C579 C578 1.524 . S
C579 C580 1.415 . S
C580 H556 0.950 . S
C580 C575 1.363 . S
C580 C579 1.415 . S
C581 H557 0.951 . S
C581 C582 1.366 . S
C581 C583 1.388 . S
C582 C581 1.366 . S
C582 C586 1.385 . S
C583 H558 0.951 . S
C583 C581 1.388 . S
C583 C584 1.366 . S
C584 C583 1.366 . S
C584 C585 1.414 . S
C584 C587 1.499 . S
C585 H559 0.950 . S
C585 C584 1.414 . S
C585 C586 1.374 . S
C586 H560 0.950 . S
C586 C582 1.385 . S
C586 C585 1.374 . S
C587 C584 1.499 . S
C587 C588 1.373 . S
C587 C589 1.389 . S
C588 H561 0.950 . S
C588 C574 1.377 . S
C588 C587 1.373 . S
C589 C573 1.377 . S
C589 C587 1.389 . S
C589 C590 1.524 . S
C590 C589 1.524 . S
C590 C591 1.397 . S
C590 C595 1.363 . S
C591 H562 0.950 . S
C591 C590 1.397 . S
C591 C592 1.334 . S
C592 H563 0.950 . S
C592 C591 1.334 . S
C592 C593 1.287 . S
C593 C592 1.287 . S
C593 C594 1.524 . S
C593 H596 0.999 . S
C594 H564 0.950 . S
C594 C593 1.524 . S
C594 C595 1.415 . S
C595 H565 0.950 . S
C595 C590 1.363 . S
C595 C594 1.415 . S
H596 C593 0.999 . S
H597 C578 0.913 . S
H598 C616 0.951 . S
H599 C618 0.951 . S
H600 C620 0.950 . S
H601 C621 0.950 . S
H602 C623 0.950 . S
H603 C626 0.950 . S
H604 C627 0.950 . S
H605 C629 0.950 1_455 S
H606 C630 0.950 . S
H607 C631 0.951 . S
H608 C633 0.951 . S
H609 C635 0.950 . S
H610 C636 0.950 . S
H611 C638 0.950 . S
H612 C641 0.950 . S
H613 C642 0.950 . S
H614 C644 0.950 1_655 S
H615 C645 0.950 . S
C616 H598 0.951 . S
C616 C617 1.369 . S
C616 C618 1.388 . S
C617 C616 1.369 . S
C617 C621 1.381 1_455 S
C618 H599 0.951 . S
C618 C616 1.388 . S
C618 C619 1.351 1_455 S
C619 C618 1.351 1_655 S
C619 C620 1.428 . S
C619 C622 1.498 . S
C620 H600 0.950 . S
C620 C619 1.428 . S
C620 C621 1.374 . S
C621 H601 0.950 . S
C621 C617 1.381 1_655 S
C621 C620 1.374 . S
C622 C619 1.498 . S
C622 C623 1.367 1_655 S
C622 C624 1.395 . S
C623 H602 0.950 . S
C623 C622 1.367 1_455 S
C623 C639 1.377 . S
C624 C622 1.395 . S
C624 C625 1.524 . S
C624 C638 1.377 . S
C625 C624 1.524 . S
C625 C626 1.397 . S
C625 C630 1.363 1_655 S
C626 H603 0.950 . S
C626 C625 1.397 . S
C626 C627 1.334 . S
C627 H604 0.950 . S
C627 C626 1.334 . S
C627 C628 1.287 . S
C628 C627 1.287 . S
C628 C629 1.524 . S
C628 H647 0.913 . S
C629 H605 0.950 1_655 S
C629 C628 1.524 . S
C629 C630 1.415 1_655 S
C630 H606 0.950 . S
C630 C625 1.363 1_455 S
C630 C629 1.415 1_455 S
C631 H607 0.951 . S
C631 C632 1.338 1_655 S
C631 C633 1.388 . S
C632 C631 1.338 1_455 S
C632 C636 1.414 . S
C633 H608 0.951 . S
C633 C631 1.388 . S
C633 C634 1.366 1_655 S
C634 C633 1.366 1_455 S
C634 C635 1.414 . S
C634 C637 1.499 . S
C635 H609 0.950 . S
C635 C634 1.414 . S
C635 C636 1.374 . S
C636 H610 0.950 . S
C636 C632 1.414 . S
C636 C635 1.374 . S
C637 C634 1.499 . S
C637 C638 1.373 1_455 S
C637 C639 1.389 . S
C638 H611 0.950 . S
C638 C624 1.377 . S
C638 C637 1.373 1_655 S
C639 C623 1.377 . S
C639 C637 1.389 . S
C639 C640 1.524 . S
C640 C639 1.524 . S
C640 C641 1.397 . S
C640 C645 1.363 1_455 S
C641 H612 0.950 . S
C641 C640 1.397 . S
C641 C642 1.334 . S
C642 H613 0.950 . S
C642 C641 1.334 . S
C642 C643 1.287 . S
C643 C642 1.287 . S
C643 C644 1.524 . S
C643 H646 0.999 . S
C644 H614 0.950 1_455 S
C644 C643 1.524 . S
C644 C645 1.415 1_455 S
C645 H615 0.950 . S
C645 C640 1.363 1_655 S
C645 C644 1.415 1_655 S
H646 C643 0.999 . S
H647 C628 0.913 . S
H648 C666 0.951 . S
H649 C668 0.951 . S
H650 C670 0.950 . S
H651 C671 0.950 . S
H652 C673 0.950 . S
H653 C676 0.950 . S
H654 C677 0.950 . S
H655 C679 0.950 1_556 S
H656 C680 0.950 . S
H657 C681 0.951 . S
H658 C683 0.951 . S
H659 C685 0.950 . S
H660 C686 0.950 . S
H661 C688 0.950 . S
H662 C691 0.950 . S
H663 C692 0.950 . S
H664 C694 0.950 . S
H665 C695 0.950 1_554 S
C666 H648 0.951 . S
C666 C667 1.366 . S
C666 C668 1.388 . S
C667 C666 1.366 . S
C667 C671 1.385 1_565 S
C668 H649 0.951 . S
C668 C666 1.388 . S
C668 C669 1.366 . S
C669 C668 1.366 . S
C669 C670 1.414 1_565 S
C669 C672 1.499 . S
C670 H650 0.950 . S
C670 C669 1.414 1_545 S
C670 C671 1.374 . S
C671 H651 0.950 . S
C671 C667 1.385 1_545 S
C671 C670 1.374 . S
C672 C669 1.499 . S
C672 C673 1.373 1_565 S
C672 C674 1.389 . S
C673 H652 0.950 . S
C673 C672 1.373 1_545 S
C673 C689 1.377 1_554 S
C674 C672 1.389 . S
C674 C675 1.524 . S
C674 C688 1.377 1_554 S
C675 C674 1.524 . S
C675 C676 1.397 . S
C675 C680 1.363 1_554 S
C676 H653 0.950 . S
C676 C675 1.397 . S
C676 C677 1.334 . S
C677 H654 0.950 . S
C677 C676 1.334 . S
C677 C678 1.287 . S
C678 C677 1.287 . S
C678 C679 1.524 . S
C678 H697 0.913 . S
C679 H655 0.950 1_554 S
C679 C678 1.524 . S
C679 C680 1.415 1_554 S
C680 H656 0.950 . S
C680 C675 1.363 1_556 S
C680 C679 1.415 1_556 S
C681 H657 0.951 . S
C681 C682 1.397 . S
C681 C683 1.388 . S
C682 C681 1.397 . S
C682 C686 1.354 1_545 S
C683 H658 0.951 . S
C683 C681 1.388 . S
C683 C684 1.370 . S
C684 C683 1.370 . S
C684 C685 1.409 1_545 S
C684 C687 1.497 1_545 S
C685 H659 0.950 . S
C685 C684 1.409 1_565 S
C685 C686 1.374 . S
C686 H660 0.950 . S
C686 C682 1.354 1_565 S
C686 C685 1.374 . S
C687 C684 1.497 1_565 S
C687 C688 1.421 . S
C687 C689 1.346 1_565 S
C688 H661 0.950 . S
C688 C674 1.377 1_556 S
C688 C687 1.421 . S
C689 C673 1.377 1_556 S
C689 C687 1.346 1_545 S
C689 C690 1.524 . S
C690 C689 1.524 . S
C690 C691 1.397 . S
C690 C695 1.363 . S
C691 H662 0.950 . S
C691 C690 1.397 . S
C691 C692 1.334 . S
C692 H663 0.950 . S
C692 C691 1.334 . S
C692 C693 1.287 . S
C693 C692 1.287 . S
C693 C694 1.524 . S
C693 H696 0.999 . S
C694 H664 0.950 . S
C694 C693 1.524 . S
C694 C695 1.415 . S
C695 H665 0.950 1_556 S
C695 C690 1.363 . S
C695 C694 1.415 . S
H696 C693 0.999 . S
H697 C678 0.913 . S
H698 C716 0.951 . S
H699 C718 0.951 . S
H700 C720 0.950 . S
H701 C721 0.950 . S
H702 C723 0.950 . S
H703 C726 0.950 . S
H704 C727 0.950 . S
H705 C729 0.950 . S
H706 C730 0.950 . S
H707 C731 0.951 . S
H708 C733 0.951 . S
H709 C735 0.950 . S
H710 C736 0.950 . S
H711 C738 0.950 . S
H712 C741 0.950 . S
H713 C742 0.950 . S
H714 C744 0.950 . S
H715 C745 0.950 . S
C716 H698 0.951 . S
C716 C717 1.366 . S
C716 C718 1.388 . S
C717 C716 1.366 . S
C717 C721 1.385 . S
C718 H699 0.951 . S
C718 C716 1.388 . S
C718 C719 1.366 . S
C719 C718 1.366 . S
C719 C720 1.414 . S
C719 C722 1.499 . S
C720 H700 0.950 . S
C720 C719 1.414 . S
C720 C721 1.374 . S
C721 H701 0.950 . S
C721 C717 1.385 . S
C721 C720 1.374 . S
C722 C719 1.499 . S
C722 C723 1.373 1_554 S
C722 C724 1.389 . S
C723 H702 0.950 . S
C723 C722 1.373 1_556 S
C723 C739 1.377 . S
C724 C722 1.389 . S
C724 C725 1.524 . S
C724 C738 1.377 1_554 S
C725 C724 1.524 . S
C725 C726 1.397 . S
C725 C730 1.363 . S
C726 H703 0.950 . S
C726 C725 1.397 . S
C726 C727 1.334 . S
C727 H704 0.950 . S
C727 C726 1.334 . S
C727 C728 1.287 . S
C728 C727 1.287 . S
C728 C729 1.524 . S
C728 H747 0.913 . S
C729 H705 0.950 . S
C729 C728 1.524 . S
C729 C730 1.415 . S
C730 H706 0.950 . S
C730 C725 1.363 . S
C730 C729 1.415 . S
C731 H707 0.951 . S
C731 C732 1.366 . S
C731 C733 1.388 . S
C732 C731 1.366 . S
C732 C736 1.385 . S
C733 H708 0.951 . S
C733 C731 1.388 . S
C733 C734 1.366 . S
C734 C733 1.366 . S
C734 C735 1.414 . S
C734 C737 1.499 . S
C735 H709 0.950 . S
C735 C734 1.414 . S
C735 C736 1.374 . S
C736 H710 0.950 . S
C736 C732 1.385 . S
C736 C735 1.374 . S
C737 C734 1.499 . S
C737 C738 1.373 . S
C737 C739 1.389 . S
C738 H711 0.950 . S
C738 C724 1.377 1_556 S
C738 C737 1.373 . S
C739 C723 1.377 . S
C739 C737 1.389 . S
C739 C740 1.524 . S
C740 C739 1.524 . S
C740 C741 1.397 . S
C740 C745 1.363 . S
C741 H712 0.950 . S
C741 C740 1.397 . S
C741 C742 1.334 . S
C742 H713 0.950 . S
C742 C741 1.334 . S
C742 C743 1.287 . S
C743 C742 1.287 . S
C743 C744 1.524 . S
C743 H746 0.999 . S
C744 H714 0.950 . S
C744 C743 1.524 . S
C744 C745 1.415 . S
C745 H715 0.950 . S
C745 C740 1.363 . S
C745 C744 1.415 . S
H746 C743 0.999 . S
H747 C728 0.913 . S
H748 C766 0.951 . S
H749 C768 0.951 . S
H750 C770 0.950 . S
H751 C771 0.950 . S
H752 C773 0.950 . S
H753 C776 0.950 1_554 S
H754 C777 0.950 1_554 S
H755 C779 0.950 . S
H756 C780 0.950 . S
H757 C781 0.951 . S
H758 C783 0.951 . S
H759 C785 0.950 . S
H760 C786 0.950 . S
H761 C788 0.950 . S
H762 C791 0.950 . S
H763 C792 0.950 . S
H764 C794 0.950 . S
H765 C795 0.950 . S
C766 H748 0.951 . S
C766 C767 1.366 . S
C766 C768 1.388 . S
C767 C766 1.366 . S
C767 C771 1.385 . S
C768 H749 0.951 . S
C768 C766 1.388 . S
C768 C769 1.366 . S
C769 C768 1.366 . S
C769 C770 1.414 . S
C769 C772 1.499 . S
C770 H750 0.950 . S
C770 C769 1.414 . S
C770 C771 1.374 . S
C771 H751 0.950 . S
C771 C767 1.385 . S
C771 C770 1.374 . S
C772 C769 1.499 . S
C772 C773 1.373 . S
C772 C774 1.389 1_554 S
C773 H752 0.950 . S
C773 C772 1.373 . S
C773 C789 1.377 1_554 S
C774 C772 1.389 1_556 S
C774 C775 1.524 . S
C774 C788 1.377 . S
C775 C774 1.524 . S
C775 C776 1.397 . S
C775 C780 1.363 . S
C776 H753 0.950 1_556 S
C776 C775 1.397 . S
C776 C777 1.334 . S
C777 H754 0.950 1_556 S
C777 C776 1.334 . S
C777 C778 1.287 . S
C778 C777 1.287 . S
C778 C779 1.524 . S
C778 H797 0.913 . S
C779 H755 0.950 . S
C779 C778 1.524 . S
C779 C780 1.415 . S
C780 H756 0.950 . S
C780 C775 1.363 . S
C780 C779 1.415 . S
C781 H757 0.951 . S
C781 C782 1.366 . S
C781 C783 1.388 . S
C782 C781 1.366 . S
C782 C786 1.385 . S
C783 H758 0.951 . S
C783 C781 1.388 . S
C783 C784 1.366 . S
C784 C783 1.366 . S
C784 C785 1.414 . S
C784 C787 1.499 . S
C785 H759 0.950 . S
C785 C784 1.414 . S
C785 C786 1.374 . S
C786 H760 0.950 . S
C786 C782 1.385 . S
C786 C785 1.374 . S
C787 C784 1.499 . S
C787 C788 1.373 . S
C787 C789 1.389 . S
C788 H761 0.950 . S
C788 C774 1.377 . S
C788 C787 1.373 . S
C789 C773 1.377 1_556 S
C789 C787 1.389 . S
C789 C790 1.524 . S
C790 C789 1.524 . S
C790 C791 1.397 . S
C790 C795 1.363 1_556 S
C791 H762 0.950 . S
C791 C790 1.397 . S
C791 C792 1.334 . S
C792 H763 0.950 . S
C792 C791 1.334 . S
C792 C793 1.287 1_556 S
C793 C792 1.287 1_554 S
C793 C794 1.524 . S
C793 H796 0.999 . S
C794 H764 0.950 . S
C794 C793 1.524 . S
C794 C795 1.415 . S
C795 H765 0.950 . S
C795 C790 1.363 1_554 S
C795 C794 1.415 . S
H796 C793 0.999 . S
H797 C778 0.913 . S
H798 C816 0.951 . S
H799 C818 0.951 . S
H800 C820 0.950 . S
H801 C821 0.950 . S
H802 C823 0.950 . S
H803 C826 0.950 . S
H804 C827 0.950 . S
H805 C829 0.950 . S
H806 C830 0.950 . S
H807 C831 0.951 . S
H808 C833 0.951 . S
H809 C835 0.950 . S
H810 C836 0.950 . S
H811 C838 0.950 . S
H812 C841 0.950 . S
H813 C842 0.950 . S
H814 C844 0.950 . S
H815 C845 0.950 1_554 S
C816 H798 0.951 . S
C816 C817 1.368 . S
C816 C818 1.388 . S
C817 C816 1.368 . S
C817 C821 1.383 1_655 S
C818 H799 0.951 . S
C818 C816 1.388 . S
C818 C819 1.366 . S
C819 C818 1.366 . S
C819 C820 1.414 1_655 S
C819 C822 1.500 . S
C820 H800 0.950 . S
C820 C819 1.414 1_455 S
C820 C821 1.374 . S
C821 H801 0.950 . S
C821 C817 1.383 1_455 S
C821 C820 1.374 . S
C822 C819 1.500 . S
C822 C823 1.328 1_655 S
C822 C824 1.433 . S
C823 H802 0.950 . S
C823 C822 1.328 1_455 S
C823 C839 1.377 1_554 S
C824 C822 1.433 . S
C824 C825 1.524 . S
C824 C838 1.377 1_554 S
C825 C824 1.524 . S
C825 C826 1.397 . S
C825 C830 1.363 1_554 S
C826 H803 0.950 . S
C826 C825 1.397 . S
C826 C827 1.334 . S
C827 H804 0.950 . S
C827 C826 1.334 . S
C827 C828 1.287 . S
C828 C827 1.287 . S
C828 C829 1.524 . S
C828 H847 0.913 . S
C829 H805 0.950 . S
C829 C828 1.524 . S
C829 C830 1.415 1_554 S
C830 H806 0.950 . S
C830 C825 1.363 1_556 S
C830 C829 1.415 1_556 S
C831 H807 0.951 . S
C831 C832 1.336 1_455 S
C831 C833 1.388 . S
C832 C831 1.336 1_655 S
C832 C836 1.415 . S
C833 H808 0.951 . S
C833 C831 1.388 . S
C833 C834 1.364 . S
C834 C833 1.364 . S
C834 C835 1.416 1_455 S
C834 C837 1.499 1_455 S
C835 H809 0.950 . S
C835 C834 1.416 1_655 S
C835 C836 1.374 . S
C836 H810 0.950 . S
C836 C832 1.415 . S
C836 C835 1.374 . S
C837 C834 1.499 1_655 S
C837 C838 1.377 . S
C837 C839 1.386 1_655 S
C838 H811 0.950 . S
C838 C824 1.377 1_556 S
C838 C837 1.377 . S
C839 C823 1.377 1_556 S
C839 C837 1.386 1_455 S
C839 C840 1.524 . S
C840 C839 1.524 . S
C840 C841 1.397 . S
C840 C845 1.363 . S
C841 H812 0.950 . S
C841 C840 1.397 . S
C841 C842 1.334 . S
C842 H813 0.950 . S
C842 C841 1.334 . S
C842 C843 1.287 . S
C843 C842 1.287 . S
C843 C844 1.524 . S
C843 H846 0.999 . S
C844 H814 0.950 . S
C844 C843 1.524 . S
C844 C845 1.415 . S
C845 H815 0.950 1_556 S
C845 C840 1.363 . S
C845 C844 1.415 . S
H846 C843 0.999 . S
H847 C828 0.913 . S
H848 C866 0.951 . S
H849 C868 0.951 . S
H850 C870 0.950 . S
H851 C871 0.950 . S
H852 C873 0.950 . S
H853 C876 0.950 . S
H854 C877 0.950 . S
H855 C879 0.950 . S
H856 C880 0.950 . S
H857 C881 0.951 . S
H858 C883 0.951 . S
H859 C885 0.950 1_455 S
H860 C886 0.950 . S
H861 C888 0.950 . S
H862 C891 0.950 1_455 S
H863 C892 0.951 1_455 S
H864 C894 0.950 . S
H865 C895 0.950 . S
C866 H848 0.951 . S
C866 C867 1.366 . S
C866 C868 1.388 . S
C867 C866 1.366 . S
C867 C871 1.385 1_455 S
C868 H849 0.951 . S
C868 C866 1.388 . S
C868 C869 1.366 1_455 S
C869 C868 1.366 1_655 S
C869 C870 1.414 . S
C869 C872 1.499 . S
C870 H850 0.950 . S
C870 C869 1.414 . S
C870 C871 1.374 . S
C871 H851 0.950 . S
C871 C867 1.385 1_655 S
C871 C870 1.374 . S
C872 C869 1.499 . S
C872 C873 1.373 . S
C872 C874 1.389 . S
C873 H852 0.950 . S
C873 C872 1.373 . S
C873 C889 1.377 . S
C874 C872 1.389 . S
C874 C875 1.524 . S
C874 C888 1.377 . S
C875 C874 1.524 . S
C875 C876 1.397 . S
C875 C880 1.363 1_655 S
C876 H853 0.950 . S
C876 C875 1.397 . S
C876 C877 1.334 . S
C877 H854 0.950 . S
C877 C876 1.334 . S
C877 C878 1.287 . S
C878 C877 1.287 . S
C878 C879 1.524 1_655 S
C878 H897 0.913 . S
C879 H855 0.950 . S
C879 C878 1.524 1_455 S
C879 C880 1.415 . S
C880 H856 0.950 . S
C880 C875 1.363 1_455 S
C880 C879 1.415 . S
C881 H857 0.951 . S
C881 C882 1.366 . S
C881 C883 1.388 . S
C882 C881 1.366 . S
C882 C886 1.385 . S
C883 H858 0.951 . S
C883 C881 1.388 . S
C883 C884 1.366 . S
C884 C883 1.366 . S
C884 C885 1.414 . S
C884 C887 1.499 . S
C885 H859 0.950 1_655 S
C885 C884 1.414 . S
C885 C886 1.374 . S
C886 H860 0.950 . S
C886 C882 1.385 . S
C886 C885 1.374 . S
C887 C884 1.499 . S
C887 C888 1.373 . S
C887 C889 1.389 . S
C888 H861 0.950 . S
C888 C874 1.377 . S
C888 C887 1.373 . S
C889 C873 1.377 . S
C889 C887 1.389 . S
C889 C890 1.524 . S
C890 C889 1.524 . S
C890 C891 1.397 . S
C890 C895 1.363 . S
C891 H862 0.950 1_655 S
C891 C890 1.397 . S
C891 C892 1.334 . S
C892 H863 0.951 1_655 S
C892 C891 1.334 . S
C892 C893 1.287 . S
C893 C892 1.287 . S
C893 C894 1.524 . S
C893 H896 0.999 . S
C894 H864 0.950 . S
C894 C893 1.524 . S
C894 C895 1.415 . S
C895 H865 0.950 . S
C895 C890 1.363 . S
C895 C894 1.415 . S
H896 C893 0.999 . S
H897 C878 0.913 . S
H898 C916 0.951 1_565 S
H899 C918 0.951 . S
H900 C920 0.950 . S
H901 C921 0.950 . S
H902 C923 0.950 . S
H903 C926 0.950 . S
H904 C927 0.950 . S
H905 C929 0.950 . S
H906 C930 0.950 . S
H907 C931 0.951 . S
H908 C933 0.951 1_545 S
H909 C935 0.950 . S
H910 C936 0.950 . S
H911 C938 0.950 . S
H912 C941 0.950 . S
H913 C942 0.950 . S
H914 C944 0.950 . S
H915 C945 0.950 . S
C916 H898 0.951 1_545 S
C916 C917 1.366 . S
C916 C918 1.388 1_545 S
C917 C916 1.366 . S
C917 C921 1.385 . S
C918 H899 0.951 . S
C918 C916 1.388 1_565 S
C918 C919 1.366 1_565 S
C919 C918 1.366 1_545 S
C919 C920 1.414 . S
C919 C922 1.499 . S
C920 H900 0.950 . S
C920 C919 1.414 . S
C920 C921 1.374 . S
C921 H901 0.950 . S
C921 C917 1.385 . S
C921 C920 1.374 . S
C922 C919 1.499 . S
C922 C923 1.373 . S
C922 C924 1.389 1_545 S
C923 H902 0.950 . S
C923 C922 1.373 . S
C923 C939 1.377 . S
C924 C922 1.389 1_565 S
C924 C925 1.524 . S
C924 C938 1.377 . S
C925 C924 1.524 . S
C925 C926 1.397 . S
C925 C930 1.363 . S
C926 H903 0.950 . S
C926 C925 1.397 . S
C926 C927 1.334 . S
C927 H904 0.950 . S
C927 C926 1.334 . S
C927 C928 1.287 . S
C928 C927 1.287 . S
C928 C929 1.524 . S
C928 H947 0.913 . S
C929 H905 0.950 . S
C929 C928 1.524 . S
C929 C930 1.415 . S
C930 H906 0.950 . S
C930 C925 1.363 . S
C930 C929 1.415 . S
C931 H907 0.951 . S
C931 C932 1.366 . S
C931 C933 1.388 . S
C932 C931 1.366 . S
C932 C936 1.385 . S
C933 H908 0.951 1_565 S
C933 C931 1.388 . S
C933 C934 1.366 . S
C934 C933 1.366 . S
C934 C935 1.414 . S
C934 C937 1.499 . S
C935 H909 0.950 . S
C935 C934 1.414 . S
C935 C936 1.374 . S
C936 H910 0.950 . S
C936 C932 1.385 . S
C936 C935 1.374 . S
C937 C934 1.499 . S
C937 C938 1.373 . S
C937 C939 1.389 1_565 S
C938 H911 0.950 . S
C938 C924 1.377 . S
C938 C937 1.373 . S
C939 C923 1.377 . S
C939 C937 1.389 1_545 S
C939 C940 1.524 . S
C940 C939 1.524 . S
C940 C941 1.397 . S
C940 C945 1.363 . S
C941 H912 0.950 . S
C941 C940 1.397 . S
C941 C942 1.334 . S
C942 H913 0.950 . S
C942 C941 1.334 . S
C942 C943 1.287 . S
C943 C942 1.287 . S
C943 C944 1.524 . S
C943 H946 0.999 . S
C944 H914 0.950 . S
C944 C943 1.524 . S
C944 C945 1.415 . S
C945 H915 0.950 . S
C945 C940 1.363 . S
C945 C944 1.415 . S
H946 C943 0.999 . S
H947 C928 0.913 . S
H948 C966 0.951 . S
H949 C968 0.951 . S
H950 C970 0.950 . S
H951 C971 0.950 . S
H952 C973 0.950 . S
H953 C976 0.950 . S
H954 C977 0.950 . S
H955 C979 0.950 . S
H956 C980 0.950 . S
H957 C981 0.951 . S
H958 C983 0.951 . S
H959 C985 0.950 . S
H960 C986 0.950 . S
H961 C988 0.950 . S
H962 C991 0.950 . S
H963 C992 0.950 . S
H964 C994 0.950 . S
H965 C995 0.950 . S
C966 H948 0.951 . S
C966 C967 1.366 . S
C966 C968 1.388 . S
C967 C966 1.366 . S
C967 C971 1.385 . S
C968 H949 0.951 . S
C968 C966 1.388 . S
C968 C969 1.366 . S
C969 C968 1.366 . S
C969 C970 1.414 . S
C969 C972 1.499 . S
C970 H950 0.950 . S
C970 C969 1.414 . S
C970 C971 1.374 . S
C971 H951 0.950 . S
C971 C967 1.385 . S
C971 C970 1.374 . S
C972 C969 1.499 . S
C972 C973 1.373 . S
C972 C974 1.389 . S
C973 H952 0.950 . S
C973 C972 1.373 . S
C973 C989 1.377 . S
C974 C972 1.389 . S
C974 C975 1.524 . S
C974 C988 1.377 . S
C975 C974 1.524 . S
C975 C976 1.397 . S
C975 C980 1.363 . S
C976 H953 0.950 . S
C976 C975 1.397 . S
C976 C977 1.334 . S
C977 H954 0.950 . S
C977 C976 1.334 . S
C977 C978 1.287 . S
C978 C977 1.287 . S
C978 C979 1.524 . S
C978 H997 0.913 . S
C979 H955 0.950 . S
C979 C978 1.524 . S
C979 C980 1.415 . S
C980 H956 0.950 . S
C980 C975 1.363 . S
C980 C979 1.415 . S
C981 H957 0.951 . S
C981 C982 1.366 . S
C981 C983 1.388 . S
C982 C981 1.366 . S
C982 C986 1.385 . S
C983 H958 0.951 . S
C983 C981 1.388 . S
C983 C984 1.366 . S
C984 C983 1.366 . S
C984 C985 1.414 . S
C984 C987 1.499 . S
C985 H959 0.950 . S
C985 C984 1.414 . S
C985 C986 1.374 . S
C986 H960 0.950 . S
C986 C982 1.385 . S
C986 C985 1.374 . S
C987 C984 1.499 . S
C987 C988 1.373 . S
C987 C989 1.389 . S
C988 H961 0.950 . S
C988 C974 1.377 . S
C988 C987 1.373 . S
C989 C973 1.377 . S
C989 C987 1.389 . S
C989 C990 1.524 . S
C990 C989 1.524 . S
C990 C991 1.397 . S
C990 C995 1.363 . S
C991 H962 0.950 . S
C991 C990 1.397 . S
C991 C992 1.334 . S
C992 H963 0.950 . S
C992 C991 1.334 . S
C992 C993 1.287 . S
C993 C992 1.287 . S
C993 C994 1.524 . S
C993 H996 0.999 . S
C994 H964 0.950 . S
C994 C993 1.524 . S
C994 C995 1.415 . S
C995 H965 0.950 . S
C995 C990 1.363 . S
C995 C994 1.415 . S
H996 C993 0.999 . S
H997 C978 0.913 . S
H998 C1016 0.951 . S
H999 C1018 0.951 . S
H1000 C1020 0.950 . S
H1001 C1021 0.950 . S
H1002 C1023 0.950 . S
H1003 C1026 0.950 . S
H1004 C1027 0.950 . S
H1005 C1029 0.950 . S
H1006 C1030 0.950 . S
H1007 C1031 0.951 . S
H1008 C1033 0.951 . S
H1009 C1035 0.950 . S
H1010 C1036 0.950 . S
H1011 C1038 0.950 . S
H1012 C1041 0.950 . S
H1013 C1042 0.950 . S
H1014 C1044 0.950 . S
H1015 C1045 0.950 . S
C1016 H998 0.951 . S
C1016 C1017 1.366 . S
C1016 C1018 1.388 . S
C1017 C1016 1.366 . S
C1017 C1021 1.385 . S
C1018 H999 0.951 . S
C1018 C1016 1.388 . S
C1018 C1019 1.366 . S
C1019 C1018 1.366 . S
C1019 C1020 1.414 . S
C1019 C1022 1.499 . S
C1020 H1000 0.950 . S
C1020 C1019 1.414 . S
C1020 C1021 1.374 . S
C1021 H1001 0.950 . S
C1021 C1017 1.385 . S
C1021 C1020 1.374 . S
C1022 C1019 1.499 . S
C1022 C1023 1.373 . S
C1022 C1024 1.389 . S
C1023 H1002 0.950 . S
C1023 C1022 1.373 . S
C1023 C1039 1.377 . S
C1024 C1022 1.389 . S
C1024 C1025 1.524 . S
C1024 C1038 1.377 . S
C1025 C1024 1.524 . S
C1025 C1026 1.397 . S
C1025 C1030 1.363 . S
C1026 H1003 0.950 . S
C1026 C1025 1.397 . S
C1026 C1027 1.334 . S
C1027 H1004 0.950 . S
C1027 C1026 1.334 . S
C1027 C1028 1.287 . S
C1028 C1027 1.287 . S
C1028 C1029 1.524 . S
C1028 H1047 0.913 . S
C1029 H1005 0.950 . S
C1029 C1028 1.524 . S
C1029 C1030 1.415 . S
C1030 H1006 0.950 . S
C1030 C1025 1.363 . S
C1030 C1029 1.415 . S
C1031 H1007 0.951 . S
C1031 C1032 1.366 . S
C1031 C1033 1.388 . S
C1032 C1031 1.366 . S
C1032 C1036 1.385 . S
C1033 H1008 0.951 . S
C1033 C1031 1.388 . S
C1033 C1034 1.366 . S
C1034 C1033 1.366 . S
C1034 C1035 1.414 . S
C1034 C1037 1.499 . S
C1035 H1009 0.950 . S
C1035 C1034 1.414 . S
C1035 C1036 1.374 . S
C1036 H1010 0.950 . S
C1036 C1032 1.385 . S
C1036 C1035 1.374 . S
C1037 C1034 1.499 . S
C1037 C1038 1.373 . S
C1037 C1039 1.389 . S
C1038 H1011 0.950 . S
C1038 C1024 1.377 . S
C1038 C1037 1.373 . S
C1039 C1023 1.377 . S
C1039 C1037 1.389 . S
C1039 C1040 1.524 . S
C1040 C1039 1.524 . S
C1040 C1041 1.397 . S
C1040 C1045 1.363 . S
C1041 H1012 0.950 . S
C1041 C1040 1.397 . S
C1041 C1042 1.334 . S
C1042 H1013 0.950 . S
C1042 C1041 1.334 . S
C1042 C1043 1.287 . S
C1043 C1042 1.287 . S
C1043 C1044 1.524 . S
C1043 H1046 0.999 . S
C1044 H1014 0.950 . S
C1044 C1043 1.524 . S
C1044 C1045 1.415 . S
C1045 H1015 0.950 . S
C1045 C1040 1.363 . S
C1045 C1044 1.415 . S
H1046 C1043 0.999 . S
H1047 C1028 0.913 . S
H1048 C1066 0.951 . S
H1049 C1068 0.951 . S
H1050 C1070 0.950 . S
H1051 C1071 0.950 . S
H1052 C1073 0.950 . S
H1053 C1076 0.950 . S
H1054 C1077 0.950 . S
H1055 C1079 0.950 . S
H1056 C1080 0.950 . S
H1057 C1081 0.951 . S
H1058 C1083 0.951 . S
H1059 C1085 0.950 1_655 S
H1060 C1086 0.950 . S
H1061 C1088 0.949 . S
H1062 C1091 0.950 . S
H1063 C1092 0.950 . S
H1064 C1094 0.950 . S
H1065 C1095 0.950 . S
C1066 H1048 0.951 . S
C1066 C1067 1.366 . S
C1066 C1068 1.388 . S
C1067 C1066 1.366 . S
C1067 C1071 1.385 1_655 S
C1068 H1049 0.951 . S
C1068 C1066 1.388 . S
C1068 C1069 1.366 1_655 S
C1069 C1068 1.366 1_455 S
C1069 C1070 1.414 . S
C1069 C1072 1.499 . S
C1070 H1050 0.950 . S
C1070 C1069 1.414 . S
C1070 C1071 1.374 . S
C1071 H1051 0.950 . S
C1071 C1067 1.385 1_455 S
C1071 C1070 1.374 . S
C1072 C1069 1.499 . S
C1072 C1073 1.373 . S
C1072 C1074 1.389 1_454 S
C1073 H1052 0.950 . S
C1073 C1072 1.373 . S
C1073 C1089 1.377 1_554 S
C1074 C1072 1.389 1_656 S
C1074 C1075 1.524 . S
C1074 C1088 1.376 . S
C1075 C1074 1.524 . S
C1075 C1076 1.397 . S
C1075 C1080 1.363 . S
C1076 H1053 0.950 . S
C1076 C1075 1.397 . S
C1076 C1077 1.334 . S
C1077 H1054 0.950 . S
C1077 C1076 1.334 . S
C1077 C1078 1.287 . S
C1078 C1077 1.287 . S
C1078 C1079 1.524 . S
C1078 H1097 0.913 . S
C1079 H1055 0.950 . S
C1079 C1078 1.524 . S
C1079 C1080 1.415 . S
C1080 H1056 0.950 . S
C1080 C1075 1.363 . S
C1080 C1079 1.415 . S
C1081 H1057 0.951 . S
C1081 C1082 1.366 . S
C1081 C1083 1.388 . S
C1082 C1081 1.366 . S
C1082 C1086 1.385 . S
C1083 H1058 0.951 . S
C1083 C1081 1.388 . S
C1083 C1084 1.366 . S
C1084 C1083 1.366 . S
C1084 C1085 1.414 . S
C1084 C1087 1.499 . S
C1085 H1059 0.950 1_455 S
C1085 C1084 1.414 . S
C1085 C1086 1.374 . S
C1086 H1060 0.950 . S
C1086 C1082 1.385 . S
C1086 C1085 1.374 . S
C1087 C1084 1.499 . S
C1087 C1088 1.375 1_455 S
C1087 C1089 1.389 . S
C1088 H1061 0.949 . S
C1088 C1074 1.376 . S
C1088 C1087 1.375 1_655 S
C1089 C1073 1.377 1_556 S
C1089 C1087 1.389 . S
C1089 C1090 1.524 . S
C1090 C1089 1.524 . S
C1090 C1091 1.397 1_556 S
C1090 C1095 1.363 . S
C1091 H1062 0.950 . S
C1091 C1090 1.397 1_554 S
C1091 C1092 1.334 . S
C1092 H1063 0.950 . S
C1092 C1091 1.334 . S
C1092 C1093 1.287 . S
C1093 C1092 1.287 . S
C1093 C1094 1.524 . S
C1093 H1096 0.999 . S
C1094 H1064 0.950 . S
C1094 C1093 1.524 . S
C1094 C1095 1.415 1_554 S
C1095 H1065 0.950 . S
C1095 C1090 1.363 . S
C1095 C1094 1.415 1_556 S
H1096 C1093 0.999 . S
H1097 C1078 0.913 . S
H1098 C1116 0.951 . S
H1099 C1118 0.951 . S
H1100 C1120 0.950 . S
H1101 C1121 0.950 . S
H1102 C1123 0.950 1_565 S
H1103 C1126 0.950 . S
H1104 C1127 0.950 . S
H1105 C1129 0.950 . S
H1106 C1130 0.950 . S
H1107 C1131 0.951 . S
H1108 C1133 0.951 1_565 S
H1109 C1135 0.950 . S
H1110 C1136 0.950 . S
H1111 C1138 0.950 . S
H1112 C1141 0.950 . S
H1113 C1142 0.950 . S
H1114 C1144 0.950 . S
H1115 C1145 0.950 . S
C1116 H1098 0.951 . S
C1116 C1117 1.366 1_545 S
C1116 C1118 1.388 . S
C1117 C1116 1.366 1_565 S
C1117 C1121 1.385 . S
C1118 H1099 0.951 . S
C1118 C1116 1.388 . S
C1118 C1119 1.404 . S
C1119 C1118 1.404 . S
C1119 C1120 1.364 1_545 S
C1119 C1122 1.512 . S
C1120 H1100 0.950 . S
C1120 C1119 1.364 1_565 S
C1120 C1121 1.374 . S
C1121 H1101 0.950 . S
C1121 C1117 1.385 . S
C1121 C1120 1.374 . S
C1122 C1119 1.512 . S
C1122 C1123 1.373 1_554 S
C1122 C1124 1.389 . S
C1123 H1102 0.950 1_545 S
C1123 C1122 1.373 1_556 S
C1123 C1139 1.377 . S
C1124 C1122 1.389 . S
C1124 C1125 1.524 . S
C1124 C1138 1.377 . S
C1125 C1124 1.524 . S
C1125 C1126 1.397 1_545 S
C1125 C1130 1.363 . S
C1126 H1103 0.950 . S
C1126 C1125 1.397 1_565 S
C1126 C1127 1.334 . S
C1127 H1104 0.950 . S
C1127 C1126 1.334 . S
C1127 C1128 1.287 1_565 S
C1128 C1127 1.287 1_545 S
C1128 C1129 1.524 . S
C1128 H1147 0.913 . S
C1129 H1105 0.950 . S
C1129 C1128 1.524 . S
C1129 C1130 1.415 . S
C1130 H1106 0.950 . S
C1130 C1125 1.363 . S
C1130 C1129 1.415 . S
C1131 H1107 0.951 . S
C1131 C1132 1.366 . S
C1131 C1133 1.388 . S
C1132 C1131 1.366 . S
C1132 C1136 1.385 . S
C1133 H1108 0.951 1_545 S
C1133 C1131 1.388 . S
C1133 C1134 1.366 . S
C1134 C1133 1.366 . S
C1134 C1135 1.414 . S
C1134 C1137 1.499 . S
C1135 H1109 0.950 . S
C1135 C1134 1.414 . S
C1135 C1136 1.374 . S
C1136 H1110 0.950 . S
C1136 C1132 1.385 . S
C1136 C1135 1.374 . S
C1137 C1134 1.499 . S
C1137 C1138 1.373 1_556 S
C1137 C1139 1.389 . S
C1138 H1111 0.950 . S
C1138 C1124 1.377 . S
C1138 C1137 1.373 1_554 S
C1139 C1123 1.377 . S
C1139 C1137 1.389 . S
C1139 C1140 1.524 . S
C1140 C1139 1.524 . S
C1140 C1141 1.397 . S
C1140 C1145 1.363 1_545 S
C1141 H1112 0.950 . S
C1141 C1140 1.397 . S
C1141 C1142 1.334 . S
C1142 H1113 0.950 . S
C1142 C1141 1.334 . S
C1142 C1143 1.287 . S
C1143 C1142 1.287 . S
C1143 C1144 1.524 1_545 S
C1143 H1146 0.999 . S
C1144 H1114 0.950 . S
C1144 C1143 1.524 1_565 S
C1144 C1145 1.415 . S
C1145 H1115 0.950 . S
C1145 C1140 1.363 1_565 S
C1145 C1144 1.415 . S
H1146 C1143 0.999 . S
H1147 C1128 0.913 . S
H1148 C1166 0.951 . S
H1149 C1168 0.951 . S
H1150 C1170 0.950 . S
H1151 C1171 0.950 . S
H1152 C1173 0.950 . S
H1153 C1176 0.950 . S
H1154 C1177 0.950 . S
H1155 C1179 0.950 . S
H1156 C1180 0.950 . S
H1157 C1181 0.951 . S
H1158 C1183 0.951 . S
H1159 C1185 0.950 . S
H1160 C1186 0.950 . S
H1161 C1188 0.950 . S
H1162 C1191 0.950 . S
H1163 C1192 0.950 . S
H1164 C1194 0.950 . S
H1165 C1195 0.950 . S
C1166 H1148 0.951 . S
C1166 C1167 1.366 . S
C1166 C1168 1.388 . S
C1167 C1166 1.366 . S
C1167 C1171 1.385 . S
C1168 H1149 0.951 . S
C1168 C1166 1.388 . S
C1168 C1169 1.366 . S
C1169 C1168 1.366 . S
C1169 C1170 1.414 . S
C1169 C1172 1.499 . S
C1170 H1150 0.950 . S
C1170 C1169 1.414 . S
C1170 C1171 1.374 . S
C1171 H1151 0.950 . S
C1171 C1167 1.385 . S
C1171 C1170 1.374 . S
C1172 C1169 1.499 . S
C1172 C1173 1.373 . S
C1172 C1174 1.389 1_554 S
C1173 H1152 0.950 . S
C1173 C1172 1.373 . S
C1173 C1189 1.377 1_554 S
C1174 C1172 1.389 1_556 S
C1174 C1175 1.524 . S
C1174 C1188 1.377 . S
C1175 C1174 1.524 . S
C1175 C1176 1.397 . S
C1175 C1180 1.363 . S
C1176 H1153 0.950 . S
C1176 C1175 1.397 . S
C1176 C1177 1.334 . S
C1177 H1154 0.950 . S
C1177 C1176 1.334 . S
C1177 C1178 1.287 . S
C1178 C1177 1.287 . S
C1178 C1179 1.524 . S
C1178 H1197 0.913 . S
C1179 H1155 0.950 . S
C1179 C1178 1.524 . S
C1179 C1180 1.415 . S
C1180 H1156 0.950 . S
C1180 C1175 1.363 . S
C1180 C1179 1.415 . S
C1181 H1157 0.951 . S
C1181 C1182 1.366 . S
C1181 C1183 1.388 . S
C1182 C1181 1.366 . S
C1182 C1186 1.385 . S
C1183 H1158 0.951 . S
C1183 C1181 1.388 . S
C1183 C1184 1.366 . S
C1184 C1183 1.366 . S
C1184 C1185 1.414 . S
C1184 C1187 1.499 . S
C1185 H1159 0.950 . S
C1185 C1184 1.414 . S
C1185 C1186 1.374 . S
C1186 H1160 0.950 . S
C1186 C1182 1.385 . S
C1186 C1185 1.374 . S
C1187 C1184 1.499 . S
C1187 C1188 1.373 . S
C1187 C1189 1.389 . S
C1188 H1161 0.950 . S
C1188 C1174 1.377 . S
C1188 C1187 1.373 . S
C1189 C1173 1.377 1_556 S
C1189 C1187 1.389 . S
C1189 C1190 1.524 1_556 S
C1190 C1189 1.524 1_554 S
C1190 C1191 1.397 . S
C1190 C1195 1.363 . S
C1191 H1162 0.950 . S
C1191 C1190 1.397 . S
C1191 C1192 1.334 . S
C1192 H1163 0.950 . S
C1192 C1191 1.334 . S
C1192 C1193 1.287 . S
C1193 C1192 1.287 . S
C1193 C1194 1.524 . S
C1193 H1196 0.999 . S
C1194 H1164 0.950 . S
C1194 C1193 1.524 . S
C1194 C1195 1.415 . S
C1195 H1165 0.950 . S
C1195 C1190 1.363 . S
C1195 C1194 1.415 . S
H1196 C1193 0.999 . S
H1197 C1178 0.913 . S
H1198 C1216 0.951 . S
H1199 C1218 0.951 . S
H1200 C1220 0.950 1_556 S
H1201 C1221 0.950 . S
H1202 C1223 0.950 . S
H1203 C1226 0.950 . S
H1204 C1227 0.950 . S
H1205 C1229 0.950 . S
H1206 C1230 0.950 . S
H1207 C1231 0.951 . S
H1208 C1233 0.951 . S
H1209 C1235 0.950 . S
H1210 C1236 0.950 . S
H1211 C1238 0.950 . S
H1212 C1241 0.950 . S
H1213 C1242 0.950 . S
H1214 C1244 0.950 . S
H1215 C1245 0.950 . S
C1216 H1198 0.951 . S
C1216 C1217 1.366 . S
C1216 C1218 1.388 . S
C1217 C1216 1.366 . S
C1217 C1221 1.385 . S
C1218 H1199 0.951 . S
C1218 C1216 1.388 . S
C1218 C1219 1.366 . S
C1219 C1218 1.366 . S
C1219 C1220 1.414 . S
C1219 C1222 1.499 . S
C1220 H1200 0.950 1_554 S
C1220 C1219 1.414 . S
C1220 C1221 1.374 . S
C1221 H1201 0.950 . S
C1221 C1217 1.385 . S
C1221 C1220 1.374 . S
C1222 C1219 1.499 . S
C1222 C1223 1.373 1_554 S
C1222 C1224 1.389 . S
C1223 H1202 0.950 . S
C1223 C1222 1.373 1_556 S
C1223 C1239 1.377 . S
C1224 C1222 1.389 . S
C1224 C1225 1.524 . S
C1224 C1238 1.377 . S
C1225 C1224 1.524 . S
C1225 C1226 1.397 . S
C1225 C1230 1.363 . S
C1226 H1203 0.950 . S
C1226 C1225 1.397 . S
C1226 C1227 1.334 . S
C1227 H1204 0.950 . S
C1227 C1226 1.334 . S
C1227 C1228 1.287 . S
C1228 C1227 1.287 . S
C1228 C1229 1.524 . S
C1228 H1247 0.913 . S
C1229 H1205 0.950 . S
C1229 C1228 1.524 . S
C1229 C1230 1.415 . S
C1230 H1206 0.950 . S
C1230 C1225 1.363 . S
C1230 C1229 1.415 . S
C1231 H1207 0.951 . S
C1231 C1232 1.366 . S
C1231 C1233 1.388 . S
C1232 C1231 1.366 . S
C1232 C1236 1.385 . S
C1233 H1208 0.951 . S
C1233 C1231 1.388 . S
C1233 C1234 1.366 . S
C1234 C1233 1.366 . S
C1234 C1235 1.414 . S
C1234 C1237 1.499 . S
C1235 H1209 0.950 . S
C1235 C1234 1.414 . S
C1235 C1236 1.374 . S
C1236 H1210 0.950 . S
C1236 C1232 1.385 . S
C1236 C1235 1.374 . S
C1237 C1234 1.499 . S
C1237 C1238 1.373 1_556 S
C1237 C1239 1.389 . S
C1238 H1211 0.950 . S
C1238 C1224 1.377 . S
C1238 C1237 1.373 1_554 S
C1239 C1223 1.377 . S
C1239 C1237 1.389 . S
C1239 C1240 1.524 . S
C1240 C1239 1.524 . S
C1240 C1241 1.397 . S
C1240 C1245 1.363 . S
C1241 H1212 0.950 . S
C1241 C1240 1.397 . S
C1241 C1242 1.334 . S
C1242 H1213 0.950 . S
C1242 C1241 1.334 . S
C1242 C1243 1.287 . S
C1243 C1242 1.287 . S
C1243 C1244 1.524 . S
C1243 H1246 0.999 . S
C1244 H1214 0.950 . S
C1244 C1243 1.524 . S
C1244 C1245 1.415 . S
C1245 H1215 0.950 . S
C1245 C1240 1.363 . S
C1245 C1244 1.415 . S
H1246 C1243 0.999 . S
H1247 C1228 0.913 . S
H1248 C1266 0.951 . S
H1249 C1268 0.951 . S
H1250 C1270 0.950 . S
H1251 C1271 0.950 . S
H1252 C1273 0.950 . S
H1253 C1276 0.950 . S
H1254 C1277 0.950 . S
H1255 C1279 0.950 . S
H1256 C1280 0.950 . S
H1257 C1281 0.951 . S
H1258 C1283 0.951 . S
H1259 C1285 0.950 . S
H1260 C1286 0.950 . S
H1261 C1288 0.950 . S
H1262 C1291 0.950 . S
H1263 C1292 0.950 . S
H1264 C1294 0.950 . S
H1265 C1295 0.950 . S
C1266 H1248 0.951 . S
C1266 C1267 1.366 1_655 S
C1266 C1268 1.388 . S
C1267 C1266 1.366 1_455 S
C1267 C1271 1.385 . S
C1268 H1249 0.951 . S
C1268 C1266 1.388 . S
C1268 C1269 1.366 1_655 S
C1269 C1268 1.366 1_455 S
C1269 C1270 1.414 . S
C1269 C1272 1.499 . S
C1270 H1250 0.950 . S
C1270 C1269 1.414 . S
C1270 C1271 1.374 . S
C1271 H1251 0.950 . S
C1271 C1267 1.385 . S
C1271 C1270 1.374 . S
C1272 C1269 1.499 . S
C1272 C1273 1.373 . S
C1272 C1274 1.389 1_455 S
C1273 H1252 0.950 . S
C1273 C1272 1.373 . S
C1273 C1289 1.377 . S
C1274 C1272 1.389 1_655 S
C1274 C1275 1.524 . S
C1274 C1288 1.377 . S
C1275 C1274 1.524 . S
C1275 C1276 1.397 . S
C1275 C1280 1.363 . S
C1276 H1253 0.950 . S
C1276 C1275 1.397 . S
C1276 C1277 1.334 . S
C1277 H1254 0.950 . S
C1277 C1276 1.334 . S
C1277 C1278 1.287 . S
C1278 C1277 1.287 . S
C1278 C1279 1.524 . S
C1278 H1297 0.913 . S
C1279 H1255 0.950 . S
C1279 C1278 1.524 . S
C1279 C1280 1.415 . S
C1280 H1256 0.950 . S
C1280 C1275 1.363 . S
C1280 C1279 1.415 . S
C1281 H1257 0.951 . S
C1281 C1282 1.366 . S
C1281 C1283 1.388 . S
C1282 C1281 1.366 . S
C1282 C1286 1.385 1_455 S
C1283 H1258 0.951 . S
C1283 C1281 1.388 . S
C1283 C1284 1.366 . S
C1284 C1283 1.366 . S
C1284 C1285 1.414 1_455 S
C1284 C1287 1.499 . S
C1285 H1259 0.950 . S
C1285 C1284 1.414 1_655 S
C1285 C1286 1.374 . S
C1286 H1260 0.950 . S
C1286 C1282 1.385 1_655 S
C1286 C1285 1.374 . S
C1287 C1284 1.499 . S
C1287 C1288 1.373 1_455 S
C1287 C1289 1.389 . S
C1288 H1261 0.950 . S
C1288 C1274 1.377 . S
C1288 C1287 1.373 1_655 S
C1289 C1273 1.377 . S
C1289 C1287 1.389 . S
C1289 C1290 1.524 . S
C1290 C1289 1.524 . S
C1290 C1291 1.397 . S
C1290 C1295 1.363 . S
C1291 H1262 0.950 . S
C1291 C1290 1.397 . S
C1291 C1292 1.334 . S
C1292 H1263 0.950 . S
C1292 C1291 1.334 . S
C1292 C1293 1.287 . S
C1293 C1292 1.287 . S
C1293 C1294 1.524 . S
C1293 H1296 0.999 . S
C1294 H1264 0.950 . S
C1294 C1293 1.524 . S
C1294 C1295 1.415 . S
C1295 H1265 0.950 . S
C1295 C1290 1.363 . S
C1295 C1294 1.415 . S
H1296 C1293 0.999 . S
H1297 C1278 0.913 . S
H1298 C1316 0.951 1_565 S
H1299 C1318 0.951 1_565 S
H1300 C1320 0.950 . S
H1301 C1321 0.950 . S
H1302 C1323 0.950 . S
H1303 C1326 0.950 . S
H1304 C1327 0.950 . S
H1305 C1329 0.950 . S
H1306 C1330 0.950 1_565 S
H1307 C1331 0.951 . S
H1308 C1333 0.951 . S
H1309 C1335 0.950 1_565 S
H1310 C1336 0.950 1_565 S
H1311 C1338 0.950 . S
H1312 C1341 0.950 . S
H1313 C1342 0.950 . S
H1314 C1344 0.950 . S
H1315 C1345 0.950 . S
C1316 H1298 0.951 1_545 S
C1316 C1317 1.366 . S
C1316 C1318 1.388 . S
C1317 C1316 1.366 . S
C1317 C1321 1.385 . S
C1318 H1299 0.951 1_545 S
C1318 C1316 1.388 . S
C1318 C1319 1.366 . S
C1319 C1318 1.366 . S
C1319 C1320 1.414 . S
C1319 C1322 1.499 . S
C1320 H1300 0.950 . S
C1320 C1319 1.414 . S
C1320 C1321 1.374 . S
C1321 H1301 0.950 . S
C1321 C1317 1.385 . S
C1321 C1320 1.374 . S
C1322 C1319 1.499 . S
C1322 C1323 1.373 . S
C1322 C1324 1.389 . S
C1323 H1302 0.950 . S
C1323 C1322 1.373 . S
C1323 C1339 1.377 . S
C1324 C1322 1.389 . S
C1324 C1325 1.524 . S
C1324 C1338 1.377 . S
C1325 C1324 1.524 . S
C1325 C1326 1.397 . S
C1325 C1330 1.363 . S
C1326 H1303 0.950 . S
C1326 C1325 1.397 . S
C1326 C1327 1.334 . S
C1327 H1304 0.950 . S
C1327 C1326 1.334 . S
C1327 C1328 1.287 . S
C1328 C1327 1.287 . S
C1328 C1329 1.524 . S
C1328 H1347 0.915 1_556 S
C1329 H1305 0.950 . S
C1329 C1328 1.524 . S
C1329 C1330 1.415 . S
C1330 H1306 0.950 1_545 S
C1330 C1325 1.363 . S
C1330 C1329 1.415 . S
C1331 H1307 0.951 . S
C1331 C1332 1.366 . S
C1331 C1333 1.388 . S
C1332 C1331 1.366 . S
C1332 C1336 1.385 . S
C1333 H1308 0.951 . S
C1333 C1331 1.388 . S
C1333 C1334 1.366 . S
C1334 C1333 1.366 . S
C1334 C1335 1.414 . S
C1334 C1337 1.499 . S
C1335 H1309 0.950 1_545 S
C1335 C1334 1.414 . S
C1335 C1336 1.374 . S
C1336 H1310 0.950 1_545 S
C1336 C1332 1.385 . S
C1336 C1335 1.374 . S
C1337 C1334 1.499 . S
C1337 C1338 1.373 . S
C1337 C1339 1.389 . S
C1338 H1311 0.950 . S
C1338 C1324 1.377 . S
C1338 C1337 1.373 . S
C1339 C1323 1.377 . S
C1339 C1337 1.389 . S
C1339 C1340 1.524 . S
C1340 C1339 1.524 . S
C1340 C1341 1.397 1_545 S
C1340 C1345 1.363 . S
C1341 H1312 0.950 . S
C1341 C1340 1.397 1_565 S
C1341 C1342 1.334 . S
C1342 H1313 0.950 . S
C1342 C1341 1.334 . S
C1342 C1343 1.297 . S
C1343 C1342 1.297 . S
C1343 C1344 1.508 1_565 S
C1343 H1346 1.002 . S
C1344 H1314 0.950 . S
C1344 C1343 1.508 1_545 S
C1344 C1345 1.415 . S
C1345 H1315 0.950 . S
C1345 C1340 1.363 . S
C1345 C1344 1.415 . S
H1346 C1343 1.002 . S
H1347 C1328 0.915 1_554 S
H1348 C1366 0.951 . S
H1349 C1368 0.951 . S
H1350 C1370 0.950 . S
H1351 C1371 0.950 . S
H1352 C1373 0.950 . S
H1353 C1376 0.950 . S
H1354 C1377 0.950 . S
H1355 C1379 0.950 . S
H1356 C1380 0.950 . S
H1357 C1381 0.951 . S
H1358 C1383 0.951 . S
H1359 C1385 0.950 . S
H1360 C1386 0.950 . S
H1361 C1388 0.950 . S
H1362 C1391 0.950 . S
H1363 C1392 0.950 . S
H1364 C1394 0.950 . S
H1365 C1395 0.950 . S
C1366 H1348 0.951 . S
C1366 C1367 1.366 . S
C1366 C1368 1.388 . S
C1367 C1366 1.366 . S
C1367 C1371 1.385 . S
C1368 H1349 0.951 . S
C1368 C1366 1.388 . S
C1368 C1369 1.366 . S
C1369 C1368 1.366 . S
C1369 C1370 1.414 . S
C1369 C1372 1.499 . S
C1370 H1350 0.950 . S
C1370 C1369 1.414 . S
C1370 C1371 1.374 . S
C1371 H1351 0.950 . S
C1371 C1367 1.385 . S
C1371 C1370 1.374 . S
C1372 C1369 1.499 . S
C1372 C1373 1.373 . S
C1372 C1374 1.389 . S
C1373 H1352 0.950 . S
C1373 C1372 1.373 . S
C1373 C1389 1.377 . S
C1374 C1372 1.389 . S
C1374 C1375 1.524 . S
C1374 C1388 1.377 . S
C1375 C1374 1.524 . S
C1375 C1376 1.397 . S
C1375 C1380 1.363 . S
C1376 H1353 0.950 . S
C1376 C1375 1.397 . S
C1376 C1377 1.334 . S
C1377 H1354 0.950 . S
C1377 C1376 1.334 . S
C1377 C1378 1.287 . S
C1378 C1377 1.287 . S
C1378 C1379 1.524 . S
C1378 H1397 0.913 . S
C1379 H1355 0.950 . S
C1379 C1378 1.524 . S
C1379 C1380 1.415 . S
C1380 H1356 0.950 . S
C1380 C1375 1.363 . S
C1380 C1379 1.415 . S
C1381 H1357 0.951 . S
C1381 C1382 1.366 . S
C1381 C1383 1.388 . S
C1382 C1381 1.366 . S
C1382 C1386 1.385 . S
C1383 H1358 0.951 . S
C1383 C1381 1.388 . S
C1383 C1384 1.366 . S
C1384 C1383 1.366 . S
C1384 C1385 1.414 . S
C1384 C1387 1.499 . S
C1385 H1359 0.950 . S
C1385 C1384 1.414 . S
C1385 C1386 1.374 . S
C1386 H1360 0.950 . S
C1386 C1382 1.385 . S
C1386 C1385 1.374 . S
C1387 C1384 1.499 . S
C1387 C1388 1.373 . S
C1387 C1389 1.389 . S
C1388 H1361 0.950 . S
C1388 C1374 1.377 . S
C1388 C1387 1.373 . S
C1389 C1373 1.377 . S
C1389 C1387 1.389 . S
C1389 C1390 1.524 . S
C1390 C1389 1.524 . S
C1390 C1391 1.397 . S
C1390 C1395 1.363 . S
C1391 H1362 0.950 . S
C1391 C1390 1.397 . S
C1391 C1392 1.334 . S
C1392 H1363 0.950 . S
C1392 C1391 1.334 . S
C1392 C1393 1.287 . S
C1393 C1392 1.287 . S
C1393 C1394 1.524 . S
C1393 H1396 0.999 . S
C1394 H1364 0.950 . S
C1394 C1393 1.524 . S
C1394 C1395 1.415 . S
C1395 H1365 0.950 . S
C1395 C1390 1.363 . S
C1395 C1394 1.415 . S
H1396 C1393 0.999 . S
H1397 C1378 0.913 . S
H1398 C1416 0.951 . S
H1399 C1418 0.951 . S
H1400 C1420 0.950 . S
H1401 C1421 0.950 . S
H1402 C1423 0.950 . S
H1403 C1426 0.950 . S
H1404 C1427 0.950 . S
H1405 C1429 0.950 . S
H1406 C1430 0.950 . S
H1407 C1431 0.951 . S
H1408 C1433 0.951 . S
H1409 C1435 0.950 . S
H1410 C1436 0.950 . S
H1411 C1438 0.950 . S
H1412 C1441 0.950 . S
H1413 C1442 0.950 . S
H1414 C1444 0.950 . S
H1415 C1445 0.950 . S
C1416 H1398 0.951 . S
C1416 C1417 1.366 . S
C1416 C1418 1.388 . S
C1417 C1416 1.366 . S
C1417 C1421 1.385 . S
C1418 H1399 0.951 . S
C1418 C1416 1.388 . S
C1418 C1419 1.366 . S
C1419 C1418 1.366 . S
C1419 C1420 1.414 . S
C1419 C1422 1.499 . S
C1420 H1400 0.950 . S
C1420 C1419 1.414 . S
C1420 C1421 1.374 . S
C1421 H1401 0.950 . S
C1421 C1417 1.385 . S
C1421 C1420 1.374 . S
C1422 C1419 1.499 . S
C1422 C1423 1.373 . S
C1422 C1424 1.389 . S
C1423 H1402 0.950 . S
C1423 C1422 1.373 . S
C1423 C1439 1.377 . S
C1424 C1422 1.389 . S
C1424 C1425 1.524 . S
C1424 C1438 1.377 . S
C1425 C1424 1.524 . S
C1425 C1426 1.397 . S
C1425 C1430 1.363 . S
C1426 H1403 0.950 . S
C1426 C1425 1.397 . S
C1426 C1427 1.334 . S
C1427 H1404 0.950 . S
C1427 C1426 1.334 . S
C1427 C1428 1.287 . S
C1428 C1427 1.287 . S
C1428 C1429 1.524 . S
C1428 H1447 0.913 1_556 S
C1429 H1405 0.950 . S
C1429 C1428 1.524 . S
C1429 C1430 1.415 . S
C1430 H1406 0.950 . S
C1430 C1425 1.363 . S
C1430 C1429 1.415 . S
C1431 H1407 0.951 . S
C1431 C1432 1.366 . S
C1431 C1433 1.388 . S
C1432 C1431 1.366 . S
C1432 C1436 1.385 . S
C1433 H1408 0.951 . S
C1433 C1431 1.388 . S
C1433 C1434 1.366 . S
C1434 C1433 1.366 . S
C1434 C1435 1.414 . S
C1434 C1437 1.499 . S
C1435 H1409 0.950 . S
C1435 C1434 1.414 . S
C1435 C1436 1.374 . S
C1436 H1410 0.950 . S
C1436 C1432 1.385 . S
C1436 C1435 1.374 . S
C1437 C1434 1.499 . S
C1437 C1438 1.373 . S
C1437 C1439 1.389 . S
C1438 H1411 0.950 . S
C1438 C1424 1.377 . S
C1438 C1437 1.373 . S
C1439 C1423 1.377 . S
C1439 C1437 1.389 . S
C1439 C1440 1.524 . S
C1440 C1439 1.524 . S
C1440 C1441 1.397 . S
C1440 C1445 1.363 . S
C1441 H1412 0.950 . S
C1441 C1440 1.397 . S
C1441 C1442 1.334 . S
C1442 H1413 0.950 . S
C1442 C1441 1.334 . S
C1442 C1443 1.287 . S
C1443 C1442 1.287 . S
C1443 C1444 1.524 . S
C1443 H1446 0.999 . S
C1444 H1414 0.950 . S
C1444 C1443 1.524 . S
C1444 C1445 1.415 . S
C1445 H1415 0.950 . S
C1445 C1440 1.363 . S
C1445 C1444 1.415 . S
H1446 C1443 0.999 . S
H1447 C1428 0.913 1_554 S
H1448 C1466 0.951 . S
H1449 C1468 0.951 . S
H1450 C1470 0.950 . S
H1451 C1471 0.950 . S
H1452 C1473 0.950 . S
H1453 C1476 0.950 . S
H1454 C1477 0.950 . S
H1455 C1479 0.950 . S
H1456 C1480 0.950 . S
H1457 C1481 0.948 1_455 S
H1458 C1483 0.980 . S
H1459 C1485 0.950 . S
H1460 C1486 0.950 . S
H1461 C1488 0.950 . S
H1462 C1491 0.950 . S
H1463 C1492 0.950 . S
H1464 C1494 0.950 . S
H1465 C1495 0.950 . S
C1466 H1448 0.951 . S
C1466 C1467 1.366 . S
C1466 C1468 1.388 . S
C1467 C1466 1.366 . S
C1467 C1471 1.385 1_655 S
C1468 H1449 0.951 . S
C1468 C1466 1.388 . S
C1468 C1469 1.366 . S
C1469 C1468 1.366 . S
C1469 C1470 1.414 1_655 S
C1469 C1472 1.499 . S
C1470 H1450 0.950 . S
C1470 C1469 1.414 1_455 S
C1470 C1471 1.374 . S
C1471 H1451 0.950 . S
C1471 C1467 1.385 1_455 S
C1471 C1470 1.374 . S
C1472 C1469 1.499 . S
C1472 C1473 1.373 1_655 S
C1472 C1474 1.389 . S
C1473 H1452 0.950 . S
C1473 C1472 1.373 1_455 S
C1473 C1489 1.377 . S
C1474 C1472 1.389 . S
C1474 C1475 1.524 . S
C1474 C1488 1.377 . S
C1475 C1474 1.524 . S
C1475 C1476 1.397 . S
C1475 C1480 1.363 . S
C1476 H1453 0.950 . S
C1476 C1475 1.397 . S
C1476 C1477 1.334 . S
C1477 H1454 0.950 . S
C1477 C1476 1.334 . S
C1477 C1478 1.287 . S
C1478 C1477 1.287 . S
C1478 C1479 1.524 . S
C1478 H1497 0.913 . S
C1479 H1455 0.950 . S
C1479 C1478 1.524 . S
C1479 C1480 1.415 . S
C1480 H1456 0.950 . S
C1480 C1475 1.363 . S
C1480 C1479 1.415 . S
C1481 H1457 0.948 1_655 S
C1481 C1482 1.370 . S
C1481 C1483 1.385 1_655 S
C1482 C1481 1.370 . S
C1482 C1486 1.385 . S
C1483 H1458 0.980 . S
C1483 C1481 1.385 1_455 S
C1483 C1484 1.344 1_455 S
C1484 C1483 1.344 1_655 S
C1484 C1485 1.414 . S
C1484 C1487 1.499 . S
C1485 H1459 0.950 . S
C1485 C1484 1.414 . S
C1485 C1486 1.374 . S
C1486 H1460 0.950 . S
C1486 C1482 1.385 . S
C1486 C1485 1.374 . S
C1487 C1484 1.499 . S
C1487 C1488 1.373 . S
C1487 C1489 1.389 1_655 S
C1488 H1461 0.950 . S
C1488 C1474 1.377 . S
C1488 C1487 1.373 . S
C1489 C1473 1.377 . S
C1489 C1487 1.389 1_455 S
C1489 C1490 1.524 . S
C1490 C1489 1.524 . S
C1490 C1491 1.397 . S
C1490 C1495 1.363 . S
C1491 H1462 0.950 . S
C1491 C1490 1.397 . S
C1491 C1492 1.334 . S
C1492 H1463 0.950 . S
C1492 C1491 1.334 . S
C1492 C1493 1.287 . S
C1493 C1492 1.287 . S
C1493 C1494 1.524 . S
C1493 H1496 0.999 . S
C1494 H1464 0.950 . S
C1494 C1493 1.524 . S
C1494 C1495 1.415 . S
C1495 H1465 0.950 . S
C1495 C1490 1.363 . S
C1495 C1494 1.415 . S
H1496 C1493 0.999 . S
H1497 C1478 0.913 . S
H1498 C1516 0.951 . S
H1499 C1518 0.951 . S
H1500 C1520 0.950 . S
H1501 C1521 0.950 . S
H1502 C1523 0.950 . S
H1503 C1526 0.950 . S
H1504 C1527 0.950 . S
H1505 C1529 0.950 . S
H1506 C1530 0.950 . S
H1507 C1531 0.951 . S
H1508 C1533 0.951 . S
H1509 C1535 0.950 . S
H1510 C1536 0.950 . S
H1511 C1538 0.950 . S
H1512 C1541 0.950 1_545 S
H1513 C1542 0.950 . S
H1514 C1544 0.950 . S
H1515 C1545 0.950 . S
C1516 H1498 0.951 . S
C1516 C1517 1.366 1_545 S
C1516 C1518 1.388 . S
C1517 C1516 1.366 1_565 S
C1517 C1521 1.385 . S
C1518 H1499 0.951 . S
C1518 C1516 1.388 . S
C1518 C1519 1.366 1_545 S
C1519 C1518 1.366 1_565 S
C1519 C1520 1.414 . S
C1519 C1522 1.499 . S
C1520 H1500 0.950 . S
C1520 C1519 1.414 . S
C1520 C1521 1.374 . S
C1521 H1501 0.950 . S
C1521 C1517 1.385 . S
C1521 C1520 1.374 . S
C1522 C1519 1.499 . S
C1522 C1523 1.373 . S
C1522 C1524 1.387 1_565 S
C1523 H1502 0.950 . S
C1523 C1522 1.373 . S
C1523 C1539 1.377 . S
C1524 C1522 1.387 1_545 S
C1524 C1525 1.526 . S
C1524 C1538 1.377 . S
C1525 C1524 1.526 . S
C1525 C1526 1.397 1_545 S
C1525 C1530 1.363 . S
C1526 H1503 0.950 . S
C1526 C1525 1.397 1_565 S
C1526 C1527 1.334 . S
C1527 H1504 0.950 . S
C1527 C1526 1.334 . S
C1527 C1528 1.287 1_565 S
C1528 C1527 1.287 1_545 S
C1528 C1529 1.524 . S
C1528 H1547 0.913 . S
C1529 H1505 0.950 . S
C1529 C1528 1.524 . S
C1529 C1530 1.415 . S
C1530 H1506 0.950 . S
C1530 C1525 1.363 . S
C1530 C1529 1.415 . S
C1531 H1507 0.951 . S
C1531 C1532 1.366 . S
C1531 C1533 1.388 . S
C1532 C1531 1.366 . S
C1532 C1536 1.385 1_565 S
C1533 H1508 0.951 . S
C1533 C1531 1.388 . S
C1533 C1534 1.366 . S
C1534 C1533 1.366 . S
C1534 C1535 1.414 1_565 S
C1534 C1537 1.499 . S
C1535 H1509 0.950 . S
C1535 C1534 1.414 1_545 S
C1535 C1536 1.374 . S
C1536 H1510 0.950 . S
C1536 C1532 1.385 1_545 S
C1536 C1535 1.374 . S
C1537 C1534 1.499 . S
C1537 C1538 1.373 1_565 S
C1537 C1539 1.389 . S
C1538 H1511 0.950 . S
C1538 C1524 1.377 . S
C1538 C1537 1.373 1_545 S
C1539 C1523 1.377 . S
C1539 C1537 1.389 . S
C1539 C1540 1.524 . S
C1540 C1539 1.524 . S
C1540 C1541 1.397 . S
C1540 C1545 1.363 . S
C1541 H1512 0.950 1_565 S
C1541 C1540 1.397 . S
C1541 C1542 1.334 . S
C1542 H1513 0.950 . S
C1542 C1541 1.334 . S
C1542 C1543 1.287 . S
C1543 C1542 1.287 . S
C1543 C1544 1.524 . S
C1543 H1546 0.999 . S
C1544 H1514 0.950 . S
C1544 C1543 1.524 . S
C1544 C1545 1.415 . S
C1545 H1515 0.950 . S
C1545 C1540 1.363 . S
C1545 C1544 1.415 . S
H1546 C1543 0.999 . S
H1547 C1528 0.913 . S
H1548 C1566 0.951 . S
H1549 C1568 0.951 . S
H1550 C1570 0.950 . S
H1551 C1571 0.950 . S
H1552 C1573 0.950 . S
H1553 C1576 0.950 . S
H1554 C1577 0.950 . S
H1555 C1579 0.950 . S
H1556 C1580 0.950 . S
H1557 C1581 0.951 . S
H1558 C1583 0.951 . S
H1559 C1585 0.950 . S
H1560 C1586 0.950 . S
H1561 C1588 0.950 . S
H1562 C1591 0.950 . S
H1563 C1592 0.950 . S
H1564 C1594 0.950 . S
H1565 C1595 0.950 . S
C1566 H1548 0.951 . S
C1566 C1567 1.366 . S
C1566 C1568 1.388 . S
C1567 C1566 1.366 . S
C1567 C1571 1.385 . S
C1568 H1549 0.951 . S
C1568 C1566 1.388 . S
C1568 C1569 1.366 . S
C1569 C1568 1.366 . S
C1569 C1570 1.414 . S
C1569 C1572 1.499 . S
C1570 H1550 0.950 . S
C1570 C1569 1.414 . S
C1570 C1571 1.374 . S
C1571 H1551 0.950 . S
C1571 C1567 1.385 . S
C1571 C1570 1.374 . S
C1572 C1569 1.499 . S
C1572 C1573 1.373 . S
C1572 C1574 1.389 . S
C1573 H1552 0.950 . S
C1573 C1572 1.373 . S
C1573 C1589 1.377 . S
C1574 C1572 1.389 . S
C1574 C1575 1.524 . S
C1574 C1588 1.377 . S
C1575 C1574 1.524 . S
C1575 C1576 1.397 . S
C1575 C1580 1.363 . S
C1576 H1553 0.950 . S
C1576 C1575 1.397 . S
C1576 C1577 1.334 . S
C1577 H1554 0.950 . S
C1577 C1576 1.334 . S
C1577 C1578 1.287 . S
C1578 C1577 1.287 . S
C1578 C1579 1.524 . S
C1578 H1597 0.913 . S
C1579 H1555 0.950 . S
C1579 C1578 1.524 . S
C1579 C1580 1.415 . S
C1580 H1556 0.950 . S
C1580 C1575 1.363 . S
C1580 C1579 1.415 . S
C1581 H1557 0.951 . S
C1581 C1582 1.366 . S
C1581 C1583 1.388 . S
C1582 C1581 1.366 . S
C1582 C1586 1.385 . S
C1583 H1558 0.951 . S
C1583 C1581 1.388 . S
C1583 C1584 1.366 . S
C1584 C1583 1.366 . S
C1584 C1585 1.414 . S
C1584 C1587 1.499 . S
C1585 H1559 0.950 . S
C1585 C1584 1.414 . S
C1585 C1586 1.374 . S
C1586 H1560 0.950 . S
C1586 C1582 1.385 . S
C1586 C1585 1.374 . S
C1587 C1584 1.499 . S
C1587 C1588 1.373 . S
C1587 C1589 1.389 . S
C1588 H1561 0.950 . S
C1588 C1574 1.377 . S
C1588 C1587 1.373 . S
C1589 C1573 1.377 . S
C1589 C1587 1.389 . S
C1589 C1590 1.524 . S
C1590 C1589 1.524 . S
C1590 C1591 1.397 . S
C1590 C1595 1.363 . S
C1591 H1562 0.950 . S
C1591 C1590 1.397 . S
C1591 C1592 1.334 . S
C1592 H1563 0.950 . S
C1592 C1591 1.334 . S
C1592 C1593 1.287 . S
C1593 C1592 1.287 . S
C1593 C1594 1.524 . S
C1593 H1596 0.999 . S
C1594 H1564 0.950 . S
C1594 C1593 1.524 . S
C1594 C1595 1.415 . S
C1595 H1565 0.950 . S
C1595 C1590 1.363 . S
C1595 C1594 1.415 . S
H1596 C1593 0.999 . S
H1597 C1578 0.913 . S
H1598 C1616 0.951 . S
H1599 C1618 0.951 . S
H1600 C1620 0.950 . S
H1601 C1621 0.950 . S
H1602 C1623 0.950 . S
H1603 C1626 0.950 . S
H1604 C1627 0.950 . S
H1605 C1629 0.950 . S
H1606 C1630 0.950 . S
H1607 C1631 0.951 . S
H1608 C1633 0.951 . S
H1609 C1635 0.950 . S
H1610 C1636 0.950 . S
H1611 C1638 0.950 . S
H1612 C1641 0.950 . S
H1613 C1642 0.950 . S
H1614 C1644 0.950 . S
H1615 C1645 0.950 . S
C1616 H1598 0.951 . S
C1616 C1617 1.366 . S
C1616 C1618 1.388 . S
C1617 C1616 1.366 . S
C1617 C1621 1.385 . S
C1618 H1599 0.951 . S
C1618 C1616 1.388 . S
C1618 C1619 1.366 . S
C1619 C1618 1.366 . S
C1619 C1620 1.414 . S
C1619 C1622 1.499 . S
C1620 H1600 0.950 . S
C1620 C1619 1.414 . S
C1620 C1621 1.374 . S
C1621 H1601 0.950 . S
C1621 C1617 1.385 . S
C1621 C1620 1.374 . S
C1622 C1619 1.499 . S
C1622 C1623 1.373 . S
C1622 C1624 1.389 . S
C1623 H1602 0.950 . S
C1623 C1622 1.373 . S
C1623 C1639 1.377 . S
C1624 C1622 1.389 . S
C1624 C1625 1.524 . S
C1624 C1638 1.377 . S
C1625 C1624 1.524 . S
C1625 C1626 1.397 . S
C1625 C1630 1.363 . S
C1626 H1603 0.950 . S
C1626 C1625 1.397 . S
C1626 C1627 1.334 . S
C1627 H1604 0.950 . S
C1627 C1626 1.334 . S
C1627 C1628 1.287 . S
C1628 C1627 1.287 . S
C1628 C1629 1.524 . S
C1628 H1647 0.913 . S
C1629 H1605 0.950 . S
C1629 C1628 1.524 . S
C1629 C1630 1.415 . S
C1630 H1606 0.950 . S
C1630 C1625 1.363 . S
C1630 C1629 1.415 . S
C1631 H1607 0.951 . S
C1631 C1632 1.366 . S
C1631 C1633 1.388 . S
C1632 C1631 1.366 . S
C1632 C1636 1.385 . S
C1633 H1608 0.951 . S
C1633 C1631 1.388 . S
C1633 C1634 1.366 . S
C1634 C1633 1.366 . S
C1634 C1635 1.414 . S
C1634 C1637 1.499 . S
C1635 H1609 0.950 . S
C1635 C1634 1.414 . S
C1635 C1636 1.374 . S
C1636 H1610 0.950 . S
C1636 C1632 1.385 . S
C1636 C1635 1.374 . S
C1637 C1634 1.499 . S
C1637 C1638 1.373 . S
C1637 C1639 1.389 . S
C1638 H1611 0.950 . S
C1638 C1624 1.377 . S
C1638 C1637 1.373 . S
C1639 C1623 1.377 . S
C1639 C1637 1.389 . S
C1639 C1640 1.524 . S
C1640 C1639 1.524 . S
C1640 C1641 1.397 . S
C1640 C1645 1.363 . S
C1641 H1612 0.950 . S
C1641 C1640 1.397 . S
C1641 C1642 1.334 . S
C1642 H1613 0.950 . S
C1642 C1641 1.334 . S
C1642 C1643 1.287 . S
C1643 C1642 1.287 . S
C1643 C1644 1.524 . S
C1643 H1646 0.999 . S
C1644 H1614 0.950 . S
C1644 C1643 1.524 . S
C1644 C1645 1.415 . S
C1645 H1615 0.950 . S
C1645 C1640 1.363 . S
C1645 C1644 1.415 . S
H1646 C1643 0.999 . S
H1647 C1628 0.913 . S
C467 C241 1.856 . S
C482 C298 1.997 . S
C532 C338 2.011 . S
C517 C277 1.912 . S
C582 C378 2.003 . S
C567 C169 1.857 . S
C632 C418 2.004 1_455 S
C617 C205 1.861 . S
C682 C307 2.009 . S
C667 C97 1.856 . S
C717 C133 1.909 . S
C732 C347 2.011 . S
C767 C25 1.853 . S
C782 C387 2.003 . S
C817 C61 1.861 1_655 S
C832 C427 2.005 1_655 S
C882 C304 0.266 . S
C867 C211 0.273 . S
C932 C344 0.279 . S
C917 C247 0.278 . S
C982 C384 0.261 . S
C967 C253 0.279 . S
C1017 C175 0.275 . S
C1032 C424 0.275 . S
C1067 C67 0.350 1_655 S
C1082 C295 0.250 . S
C1132 C335 0.277 . S
C1117 C103 0.371 . S
C1182 C375 0.260 . S
C1167 C109 0.196 . S
C1217 C31 0.369 . S
C1232 C415 0.280 . S
C1267 C181 2.539 . S
C1282 C299 2.819 . S
C1317 C217 2.524 . S
C1332 C339 2.802 . S
C1382 C379 2.811 . S
C1367 C283 2.469 . S
C1432 C419 2.810 . S
C1417 C145 2.526 . S
C1467 C37 2.540 1_655 S
C1482 C290 2.820 . S
C1532 C330 2.801 . S
C1517 C73 2.524 . S
C1582 C370 2.811 . S
C1567 C139 2.459 . S
C1617 C1 2.533 . S
C1632 C410 2.818 . S
