# Generated by pormake.
# Topology csq, (4,8)-cn, num edge types: 1
# Building blocks:
#     Node 0, Type 0, BuildingBlock: NAWXER_clean_linker_0, # of connection points: 4
#     Node 1, Type 0, BuildingBlock: NAWXER_clean_linker_0, # of connection points: 4
#     Node 2, Type 0, BuildingBlock: NAWXER_clean_linker_0, # of connection points: 4
#     Node 3, Type 0, BuildingBlock: NAWXER_clean_linker_0, # of connection points: 4
#     Node 4, Type 0, BuildingBlock: NAWXER_clean_linker_0, # of connection points: 4
#     Node 5, Type 0, BuildingBlock: NAWXER_clean_linker_0, # of connection points: 4
#     Node 6, Type 1, BuildingBlock: TAGTUT_clean_sbu_3, # of connection points: 8
#     Node 7, Type 1, BuildingBlock: TAGTUT_clean_sbu_3, # of connection points: 8
#     Node 8, Type 1, BuildingBlock: TAGTUT_clean_sbu_3, # of connection points: 8
#     Edge 9, Type (0, 1), BuildingBlock: MIFKUJ_clean_linker_0, # of connection points: 2
#     Edge 10, Type (0, 1), BuildingBlock: MIFKUJ_clean_linker_0, # of connection points: 2
#     Edge 11, Type (0, 1), BuildingBlock: MIFKUJ_clean_linker_0, # of connection points: 2
#     Edge 12, Type (0, 1), BuildingBlock: MIFKUJ_clean_linker_0, # of connection points: 2
#     Edge 13, Type (0, 1), BuildingBlock: MIFKUJ_clean_linker_0, # of connection points: 2
#     Edge 14, Type (0, 1), BuildingBlock: MIFKUJ_clean_linker_0, # of connection points: 2
#     Edge 15, Type (0, 1), BuildingBlock: MIFKUJ_clean_linker_0, # of connection points: 2
#     Edge 16, Type (0, 1), BuildingBlock: MIFKUJ_clean_linker_0, # of connection points: 2
#     Edge 17, Type (0, 1), BuildingBlock: MIFKUJ_clean_linker_0, # of connection points: 2
#     Edge 18, Type (0, 1), BuildingBlock: MIFKUJ_clean_linker_0, # of connection points: 2
#     Edge 19, Type (0, 1), BuildingBlock: MIFKUJ_clean_linker_0, # of connection points: 2
#     Edge 20, Type (0, 1), BuildingBlock: MIFKUJ_clean_linker_0, # of connection points: 2
#     Edge 21, Type (0, 1), BuildingBlock: MIFKUJ_clean_linker_0, # of connection points: 2
#     Edge 22, Type (0, 1), BuildingBlock: MIFKUJ_clean_linker_0, # of connection points: 2
#     Edge 23, Type (0, 1), BuildingBlock: MIFKUJ_clean_linker_0, # of connection points: 2
#     Edge 24, Type (0, 1), BuildingBlock: MIFKUJ_clean_linker_0, # of connection points: 2
#     Edge 25, Type (0, 1), BuildingBlock: MIFKUJ_clean_linker_0, # of connection points: 2
#     Edge 26, Type (0, 1), BuildingBlock: MIFKUJ_clean_linker_0, # of connection points: 2
#     Edge 27, Type (0, 1), BuildingBlock: MIFKUJ_clean_linker_0, # of connection points: 2
#     Edge 28, Type (0, 1), BuildingBlock: MIFKUJ_clean_linker_0, # of connection points: 2
#     Edge 29, Type (0, 1), BuildingBlock: MIFKUJ_clean_linker_0, # of connection points: 2
#     Edge 30, Type (0, 1), BuildingBlock: MIFKUJ_clean_linker_0, # of connection points: 2
#     Edge 31, Type (0, 1), BuildingBlock: MIFKUJ_clean_linker_0, # of connection points: 2
#     Edge 32, Type (0, 1), BuildingBlock: MIFKUJ_clean_linker_0, # of connection points: 2
# Relax obj value: 0.028
# Max RMSD: 0.113
# Mean RMSD: 0.043
data_MOF--net-csq--node1-TAGTUT_clean_sbu_3--node2-NAWXER_clean_linker_0--edge1-MIFKUJ_clean_linker_0
_symmetry_space_group_name_H-M    P1
_symmetry_Int_Tables_number       1
_symmetry_cell_setting            triclinic
loop_
_symmetry_equiv_pos_as_xyz
'x, y, z'
_cell_length_a     76.24452
_cell_length_b     75.418222
_cell_length_c     27.002941
_cell_angle_alpha  92.130062
_cell_angle_beta   92.341065
_cell_angle_gamma 119.94334
loop_
_atom_site_label
_atom_site_type_symbol
_atom_site_fract_x
_atom_site_fract_y
_atom_site_fract_z
_atom_type_partial_charge
C0 C 0.3051 0.49192 0.06137 0.0
C1 C 0.30284 0.47415 0.03641 0.0
C2 C 0.28885 0.49149 0.08435 0.0
C3 C 0.2701 0.47321 0.08338 0.0
C4 C 0.28373 0.45611 0.03337 0.0
C5 C 0.26746 0.45569 0.05654 0.0
C6 C 0.2538 0.47218 0.11308 0.0
C7 C 0.30342 0.47599 0.20987 0.0
C8 C 0.31459 0.49482 0.23766 0.0
C9 C 0.2842 0.47003 0.1884 0.0
C10 C 0.27611 0.48311 0.19291 0.0
C11 C 0.30599 0.50731 0.24508 0.0
C12 C 0.28685 0.50151 0.22263 0.0
C13 C 0.25705 0.47808 0.16435 0.0
C14 C 0.17434 0.46355 0.21714 0.0
C15 C 0.18098 0.48121 0.24883 0.0
C16 C 0.18825 0.46072 0.1907 0.0
C17 C 0.20891 0.47591 0.19404 0.0
C18 C 0.20169 0.49594 0.25389 0.0
C19 C 0.21551 0.49335 0.2266 0.0
C20 C 0.22392 0.47384 0.16475 0.0
C21 C 0.17741 0.47142 0.05192 0.0
C22 C 0.16663 0.45253 0.0239 0.0
C23 C 0.19486 0.47621 0.08139 0.0
C24 C 0.20169 0.46207 0.08387 0.0
C25 C 0.17354 0.43843 0.02637 0.0
C26 C 0.19102 0.44324 0.05587 0.0
C27 C 0.22044 0.46718 0.1137 0.0
H28 H 0.31947 0.50616 0.06336 0.0
H29 H 0.29107 0.50531 0.10405 0.0
H30 H 0.28154 0.44216 0.0145 0.0
H31 H 0.25308 0.44147 0.05527 0.0
H32 H 0.30957 0.46588 0.20481 0.0
H33 H 0.27587 0.45541 0.1671 0.0
H34 H 0.31431 0.52179 0.26697 0.0
H35 H 0.28078 0.51171 0.22702 0.0
H36 H 0.15846 0.45181 0.21347 0.0
H37 H 0.18281 0.44668 0.16769 0.0
H38 H 0.20713 0.50965 0.2783 0.0
H39 H 0.23136 0.50518 0.23038 0.0
H40 H 0.17238 0.48254 0.05098 0.0
H41 H 0.20311 0.491 0.10196 0.0
H42 H 0.16573 0.4239 0.00462 0.0
H43 H 0.19622 0.43225 0.05688 0.0
N44 N 0.23552 0.46662 0.0898 0.0
N45 N 0.24215 0.47901 0.18812 0.0
C46 C 0.70958 0.18641 0.15827 0.0
C47 C 0.71431 0.17648 0.19525 0.0
C48 C 0.7249 0.20218 0.13394 0.0
C49 C 0.7453 0.20786 0.14431 0.0
C50 C 0.73489 0.18309 0.20761 0.0
C51 C 0.75021 0.19859 0.1823 0.0
C52 C 0.76144 0.22334 0.11541 0.0
C53 C 0.71837 0.16981 0.01548 0.0
C54 C 0.70758 0.17464 0.9804 0.0
C55 C 0.73614 0.18538 0.04049 0.0
C56 C 0.74291 0.20602 0.03204 0.0
C57 C 0.71514 0.19515 0.96948 0.0
C58 C 0.73267 0.21074 0.99518 0.0
C59 C 0.75995 0.22285 0.063 0.0
C60 C 0.83898 0.29766 0.01599 0.0
C61 C 0.83099 0.30344 0.97606 0.0
C62 C 0.82604 0.28179 0.04476 0.0
C63 C 0.80486 0.27204 0.03523 0.0
C64 C 0.80993 0.29327 0.96547 0.0
C65 C 0.79701 0.27781 0.99488 0.0
C66 C 0.79053 0.25523 0.06498 0.0
C67 C 0.82747 0.30868 0.17706 0.0
C68 C 0.83816 0.30461 0.21439 0.0
C69 C 0.81263 0.29277 0.14514 0.0
C70 C 0.80851 0.27257 0.14935 0.0
C71 C 0.83374 0.2843 0.21889 0.0
C72 C 0.81902 0.26845 0.18677 0.0
C73 C 0.79233 0.2554 0.11745 0.0
H74 H 0.694 0.18177 0.14712 0.0
H75 H 0.72072 0.20961 0.10603 0.0
H76 H 0.73924 0.1763 0.2368 0.0
H77 H 0.76589 0.20303 0.1917 0.0
H78 H 0.71298 0.15403 0.02372 0.0
H79 H 0.7442 0.18133 0.0676 0.0
H80 H 0.70706 0.19918 0.94237 0.0
H81 H 0.73774 0.22653 0.98769 0.0
H82 H 0.85523 0.30515 0.02427 0.0
H83 H 0.83264 0.27712 0.07411 0.0
H84 H 0.80347 0.29751 0.93481 0.0
H85 H 0.78078 0.27044 0.98623 0.0
H86 H 0.83059 0.32417 0.17238 0.0
H87 H 0.80429 0.29623 0.11745 0.0
H88 H 0.84139 0.28058 0.24784 0.0
H89 H 0.81579 0.2529 0.19121 0.0
N90 N 0.77775 0.23943 0.14051 0.0
N91 N 0.77437 0.23889 0.04 0.0
C92 C 0.56882 0.72625 0.96389 0.0
C93 C 0.55886 0.71952 0.91626 0.0
C94 C 0.5632 0.73675 0.99753 0.0
C95 C 0.54728 0.74034 0.98436 0.0
C96 C 0.54298 0.72317 0.90319 0.0
C97 C 0.53729 0.73352 0.93687 0.0
C98 C 0.54244 0.7532 0.01715 0.0
C99 C 0.52716 0.69823 0.10638 0.0
C100 C 0.53641 0.70244 0.1549 0.0
C101 C 0.5291 0.71414 0.07769 0.0
C102 C 0.54068 0.7347 0.09641 0.0
C103 C 0.54806 0.72305 0.17335 0.0
C104 C 0.55015 0.73892 0.14451 0.0
C105 C 0.54117 0.75172 0.06907 0.0
C106 C 0.51588 0.81175 0.13508 0.0
C107 C 0.52836 0.8196 0.17937 0.0
C108 C 0.51918 0.79988 0.09977 0.0
C109 C 0.53518 0.79592 0.10801 0.0
C110 C 0.54456 0.81591 0.18694 0.0
C111 C 0.54787 0.80412 0.15171 0.0
C112 C 0.53764 0.78152 0.07456 0.0
C113 C 0.54805 0.83354 0.97713 0.0
C114 C 0.53442 0.82717 0.93478 0.0
C115 C 0.54889 0.81909 0.00681 0.0
C116 C 0.53611 0.798 0.99461 0.0
C117 C 0.52158 0.80606 0.92302 0.0
C118 C 0.52253 0.79167 0.95239 0.0
C119 C 0.53788 0.78234 0.02247 0.0
H120 H 0.58123 0.72377 0.97471 0.0
H121 H 0.57166 0.7425 0.03324 0.0
H122 H 0.53482 0.71787 0.86703 0.0
H123 H 0.52512 0.73631 0.92568 0.0
H124 H 0.51822 0.6826 0.09062 0.0
H125 H 0.521 0.71024 0.04149 0.0
H126 H 0.5551 0.72699 0.21078 0.0
H127 H 0.55892 0.75458 0.16032 0.0
H128 H 0.50315 0.81418 0.12854 0.0
H129 H 0.50881 0.79321 0.06703 0.0
H130 H 0.55462 0.82203 0.22034 0.0
H131 H 0.56023 0.80116 0.15894 0.0
H132 H 0.55809 0.84971 0.98727 0.0
H133 H 0.55984 0.82438 0.03851 0.0
H134 H 0.51112 0.80063 0.89031 0.0
H135 H 0.51271 0.77549 0.94185 0.0
N136 N 0.5404 0.76821 0.99603 0.0
N137 N 0.53913 0.76618 0.09558 0.0
C138 C 0.83442 0.54698 0.95627 0.0
C139 C 0.82733 0.52785 0.93078 0.0
C140 C 0.82157 0.55054 0.98501 0.0
C141 C 0.80159 0.53478 0.99023 0.0
C142 C 0.80693 0.51257 0.93279 0.0
C143 C 0.79413 0.51599 0.96254 0.0
C144 C 0.78913 0.53747 0.02724 0.0
C145 C 0.83902 0.53386 0.1055 0.0
C146 C 0.85517 0.55349 0.12119 0.0
C147 C 0.81978 0.53088 0.09313 0.0
C148 C 0.81628 0.54744 0.09615 0.0
C149 C 0.85142 0.56994 0.12576 0.0
C150 C 0.83205 0.56689 0.11361 0.0
C151 C 0.79662 0.54461 0.07698 0.0
C152 C 0.72193 0.53294 0.17254 0.0
C153 C 0.72908 0.55202 0.19871 0.0
C154 C 0.73406 0.53 0.13975 0.0
C155 C 0.75354 0.54614 0.132 0.0
C156 C 0.74895 0.56789 0.19261 0.0
C157 C 0.7611 0.56494 0.15962 0.0
C158 C 0.76582 0.54352 0.09447 0.0
C159 C 0.71363 0.54345 0.01286 0.0
C160 C 0.69951 0.52423 0.98955 0.0
C161 C 0.73275 0.54736 0.03055 0.0
C162 C 0.73805 0.53207 0.02562 0.0
C163 C 0.70488 0.50896 0.98444 0.0
C164 C 0.72408 0.51293 0.00201 0.0
C165 C 0.75818 0.53608 0.04486 0.0
H166 H 0.85001 0.55912 0.95441 0.0
H167 H 0.82747 0.56541 0.00459 0.0
H168 H 0.80115 0.49774 0.91305 0.0
H169 H 0.77872 0.5037 0.96563 0.0
H170 H 0.84121 0.52073 0.10294 0.0
H171 H 0.80769 0.51569 0.08017 0.0
H172 H 0.86352 0.58525 0.13764 0.0
H173 H 0.82959 0.57985 0.11592 0.0
H174 H 0.70689 0.52025 0.17735 0.0
H175 H 0.72813 0.51516 0.11995 0.0
H176 H 0.75488 0.58277 0.21218 0.0
H177 H 0.77616 0.57753 0.15448 0.0
H178 H 0.70987 0.55547 0.01746 0.0
H179 H 0.74343 0.56236 0.04797 0.0
H180 H 0.69439 0.49412 0.96598 0.0
H181 H 0.72797 0.50099 0.99761 0.0
N182 N 0.77007 0.53323 0.01304 0.0
N183 N 0.78483 0.54758 0.10876 0.0
C184 C 0.27115 0.8634 0.01913 0.0
C185 C 0.27415 0.8582 0.97092 0.0
C186 C 0.25827 0.84817 0.04928 0.0
C187 C 0.24845 0.82738 0.0322 0.0
C188 C 0.26384 0.83746 0.95336 0.0
C189 C 0.2511 0.82223 0.98365 0.0
C190 C 0.23487 0.81096 0.06379 0.0
C191 C 0.29654 0.83898 0.14103 0.0
C192 C 0.2987 0.84954 0.18685 0.0
C193 C 0.27733 0.82627 0.11748 0.0
C194 C 0.25995 0.82405 0.13909 0.0
C195 C 0.28124 0.84699 0.20886 0.0
C196 C 0.26201 0.83423 0.1853 0.0
C197 C 0.23961 0.81037 0.11453 0.0
C198 C 0.17422 0.72843 0.17235 0.0
C199 C 0.17109 0.73437 0.21974 0.0
C200 C 0.18561 0.74314 0.13918 0.0
C201 C 0.19377 0.76414 0.15225 0.0
C202 C 0.17934 0.75542 0.23263 0.0
C203 C 0.19055 0.77007 0.19935 0.0
C204 C 0.20736 0.78018 0.11982 0.0
C205 C 0.14868 0.74227 0.02201 0.0
C206 C 0.15176 0.73432 0.9773 0.0
C207 C 0.16528 0.75703 0.05262 0.0
C208 C 0.18514 0.76375 0.03915 0.0
C209 C 0.17167 0.74114 0.96427 0.0
C210 C 0.18812 0.75572 0.99471 0.0
C211 C 0.20315 0.78013 0.06825 0.0
H212 H 0.27861 0.87928 0.03337 0.0
H213 H 0.25593 0.85268 0.08584 0.0
H214 H 0.26597 0.83296 0.91654 0.0
H215 H 0.24357 0.80635 0.96939 0.0
H216 H 0.30971 0.84069 0.12314 0.0
H217 H 0.27606 0.8181 0.08244 0.0
H218 H 0.28244 0.85467 0.24459 0.0
H219 H 0.24876 0.83243 0.20293 0.0
H220 H 0.16801 0.71238 0.16089 0.0
H221 H 0.18842 0.73807 0.10389 0.0
H222 H 0.17766 0.76067 0.26904 0.0
H223 H 0.19698 0.78617 0.21075 0.0
H224 H 0.13347 0.7373 0.03287 0.0
H225 H 0.16263 0.76338 0.08622 0.0
H226 H 0.17458 0.73497 0.93074 0.0
H227 H 0.2033 0.7607 0.98353 0.0
N228 N 0.21699 0.79562 0.04262 0.0
N229 N 0.22554 0.79531 0.14077 0.0
C230 C 0.49036 0.19104 0.07349 0.0
C231 C 0.47953 0.18076 0.02843 0.0
C232 C 0.48428 0.20253 0.10216 0.0
C233 C 0.4671 0.2037 0.08659 0.0
C234 C 0.46214 0.18168 0.01338 0.0
C235 C 0.45607 0.19317 0.04208 0.0
C236 C 0.46193 0.21766 0.11353 0.0
C237 C 0.45105 0.16868 0.21932 0.0
C238 C 0.46563 0.17599 0.25975 0.0
C239 C 0.44956 0.1824 0.18824 0.0
C240 C 0.46244 0.20364 0.19754 0.0
C241 C 0.47843 0.19724 0.26907 0.0
C242 C 0.47667 0.21094 0.23861 0.0
C243 C 0.4609 0.2184 0.1655 0.0
C244 C 0.4355 0.28074 0.20737 0.0
C245 C 0.44814 0.29042 0.25075 0.0
C246 C 0.43849 0.26715 0.17703 0.0
C247 C 0.45414 0.26311 0.18985 0.0
C248 C 0.46373 0.28626 0.26329 0.0
C249 C 0.46664 0.27271 0.23325 0.0
C250 C 0.45672 0.24763 0.1613 0.0
C251 C 0.47334 0.29824 0.05574 0.0
C252 C 0.46211 0.29214 0.00948 0.0
C253 C 0.4714 0.28367 0.08906 0.0
C254 C 0.45805 0.26266 0.0771 0.0
C255 C 0.44855 0.27112 0.99794 0.0
C256 C 0.44665 0.25657 0.03122 0.0
C257 C 0.45764 0.24687 0.10913 0.0
H258 H 0.50398 0.19085 0.08562 0.0
H259 H 0.49347 0.21112 0.13549 0.0
H260 H 0.45334 0.17369 0.97912 0.0
H261 H 0.44289 0.19404 0.0292 0.0
H262 H 0.44105 0.15236 0.2113 0.0
H263 H 0.43827 0.17644 0.15717 0.0
H264 H 0.48969 0.20325 0.30019 0.0
H265 H 0.48666 0.22727 0.24664 0.0
H266 H 0.42339 0.28372 0.19692 0.0
H267 H 0.42836 0.25951 0.14428 0.0
H268 H 0.47348 0.29323 0.29694 0.0
H269 H 0.47864 0.26961 0.24414 0.0
H270 H 0.48383 0.3143 0.066 0.0
H271 H 0.48088 0.28883 0.12342 0.0
H272 H 0.43987 0.26582 0.96242 0.0
H273 H 0.4365 0.24045 0.0207 0.0
N274 N 0.46012 0.23179 0.08736 0.0
N275 N 0.45844 0.23342 0.18733 0.0
C276 C 0.04191 0.5019 0.55083 0.0
C277 C 0.02389 0.46942 0.72477 0.0
C278 C 0.96649 0.46454 0.69053 0.0
Mg279 Mg 0.02317 0.52552 0.48943 0.0
Mg280 Mg 0.0049 0.55183 0.54675 0.0
O281 O 0.00442 0.52684 0.53801 0.0
Mg282 Mg 0.01043 0.51425 0.59536 0.0
O283 O 0.01658 0.49981 0.64837 0.0
Mg284 Mg 0.00346 0.4715 0.61416 0.0
Mg285 Mg 0.00906 0.50076 0.71288 0.0
C286 C 0.97771 0.52742 0.63455 0.0
O287 O 0.02983 0.54469 0.64354 0.0
O288 O 0.00693 0.53507 0.43012 0.0
O289 O 0.02223 0.53372 0.72082 0.0
O290 O 0.04707 0.55969 0.50571 0.0
O291 O 0.99389 0.55168 0.47218 0.0
O292 O 0.03609 0.57645 0.55326 0.0
O293 O 0.99079 0.48327 0.55322 0.0
O294 O 0.99947 0.49165 0.47587 0.0
C295 C 0.98958 0.4783 0.50687 0.0
C296 C 0.99682 0.54454 0.43147 0.0
O297 O 0.98404 0.51447 0.63359 0.0
O298 O 0.01775 0.46285 0.67926 0.0
O299 O 0.98455 0.5429 0.60743 0.0
O300 O 0.97394 0.45888 0.65585 0.0
O301 O 0.02258 0.48431 0.74522 0.0
O302 O 0.97699 0.48177 0.71496 0.0
O303 O 0.03649 0.51548 0.5539 0.0
O304 O 0.03261 0.48507 0.57253 0.0
C305 C 0.05 0.57609 0.5292 0.0
C306 C 0.03019 0.54813 0.69081 0.0
C307 C 0.49998 0.03421 0.52101 0.0
C308 C 0.55551 0.01935 0.45345 0.0
C309 C 0.51815 0.96007 0.51447 0.0
Mg310 Mg 0.47069 0.01441 0.61185 0.0
Mg311 Mg 0.48534 0.99765 0.70683 0.0
O312 O 0.48005 0.99555 0.6379 0.0
Mg313 Mg 0.50309 0.00261 0.59475 0.0
O314 O 0.52474 0.00994 0.54695 0.0
Mg315 Mg 0.50689 0.99667 0.48436 0.0
Mg316 Mg 0.54526 0.00351 0.55905 0.0
C317 C 0.5043 0.97031 0.67293 0.0
O318 O 0.52861 0.02303 0.65447 0.0
O319 O 0.44342 0.99817 0.66273 0.0
O320 O 0.55478 0.01886 0.63273 0.0
O321 O 0.48896 0.03968 0.67398 0.0
O322 O 0.45496 0.98745 0.72649 0.0
O323 O 0.5034 0.02946 0.73081 0.0
O324 O 0.47956 0.98279 0.53299 0.0
O325 O 0.4549 0.98982 0.54762 0.0
C326 C 0.46211 0.98067 0.52151 0.0
C327 C 0.4409 0.98928 0.7038 0.0
O328 O 0.50636 0.97636 0.62844 0.0
O329 O 0.53655 0.01263 0.44271 0.0
O330 O 0.49784 0.97734 0.70742 0.0
O331 O 0.50921 0.96746 0.48856 0.0
O332 O 0.56229 0.01751 0.49603 0.0
O333 O 0.53205 0.97098 0.54817 0.0
O334 O 0.4987 0.02827 0.56531 0.0
O335 O 0.50412 0.02551 0.48532 0.0
C336 C 0.50077 0.0434 0.71274 0.0
C337 C 0.54667 0.02598 0.66241 0.0
C338 C 0.52213 0.54366 0.67351 0.0
C339 C 0.45776 0.48163 0.74567 0.0
C340 C 0.4824 0.44586 0.68527 0.0
Mg341 Mg 0.54672 0.54408 0.57872 0.0
Mg342 Mg 0.52351 0.51136 0.48296 0.0
O343 O 0.53043 0.51463 0.55126 0.0
Mg344 Mg 0.50806 0.50371 0.5981 0.0
O345 O 0.48739 0.49439 0.64922 0.0
Mg346 Mg 0.50503 0.49741 0.71008 0.0
Mg347 Mg 0.46326 0.46908 0.6387 0.0
C348 C 0.49453 0.46579 0.51491 0.0
O349 O 0.48368 0.50258 0.54294 0.0
O350 O 0.57113 0.54759 0.52392 0.0
O351 O 0.45495 0.47504 0.56547 0.0
O352 O 0.53328 0.55655 0.51977 0.0
O353 O 0.55399 0.52409 0.46032 0.0
O354 O 0.51307 0.53197 0.4626 0.0
O355 O 0.53011 0.50344 0.65654 0.0
O356 O 0.55879 0.53136 0.63925 0.0
C357 C 0.5491 0.516 0.66575 0.0
C358 C 0.57058 0.53856 0.48196 0.0
O359 O 0.49677 0.4714 0.56149 0.0
O360 O 0.47709 0.49083 0.75584 0.0
O361 O 0.50222 0.47861 0.48109 0.0
O362 O 0.49505 0.46309 0.70772 0.0
O363 O 0.44955 0.47285 0.70276 0.0
O364 O 0.46889 0.44425 0.65302 0.0
O365 O 0.52029 0.53647 0.62874 0.0
O366 O 0.51603 0.53179 0.70948 0.0
C367 C 0.52086 0.5503 0.4813 0.0
C368 C 0.46461 0.48937 0.53607 0.0
H369 H 0.14741 0.48172 0.21217 0.0
H370 H 0.12362 0.48759 0.25944 0.0
H371 H 0.15776 0.49282 0.39589 0.0
H372 H 0.18187 0.48759 0.34878 0.0
H373 H 0.10965 0.46266 0.38068 0.0
H374 H 0.16651 0.53308 0.37316 0.0
H375 H 0.19029 0.56207 0.32662 0.0
H376 H 0.1402 0.56161 0.24661 0.0
H377 H 0.11612 0.53236 0.29216 0.0
H378 H 0.07054 0.4918 0.57198 0.0
H379 H 0.09453 0.49088 0.51644 0.0
H380 H 0.0733 0.51552 0.40202 0.0
H381 H 0.04986 0.51742 0.45888 0.0
H382 H 0.11231 0.52979 0.39607 0.0
H383 H 0.05536 0.4635 0.40331 0.0
H384 H 0.02913 0.43333 0.44205 0.0
H385 H 0.07506 0.42341 0.51063 0.0
H386 H 0.10161 0.45374 0.47293 0.0
C387 C 0.14976 0.48414 0.25225 0.0
C388 C 0.16639 0.48424 0.27704 0.0
C389 C 0.13628 0.48755 0.27905 0.0
C390 C 0.13909 0.49072 0.33094 0.0
C391 C 0.15548 0.49049 0.35578 0.0
C392 C 0.16919 0.48754 0.32897 0.0
C393 C 0.1247 0.49383 0.35975 0.0
C394 C 0.11029 0.47735 0.38453 0.0
C395 C 0.12505 0.51274 0.3626 0.0
C396 C 0.13953 0.53037 0.33554 0.0
C397 C 0.16057 0.539 0.34523 0.0
C398 C 0.17411 0.55552 0.31913 0.0
C399 C 0.16677 0.56363 0.28354 0.0
C400 C 0.14587 0.55529 0.2741 0.0
C401 C 0.13228 0.53875 0.30005 0.0
C402 C 0.07126 0.49737 0.53527 0.0
C403 C 0.05828 0.50452 0.51947 0.0
C404 C 0.08486 0.4967 0.50342 0.0
C405 C 0.08525 0.50248 0.45447 0.0
C406 C 0.07312 0.51079 0.43947 0.0
C407 C 0.05978 0.51191 0.47194 0.0
C408 C 0.09759 0.49878 0.41883 0.0
C409 C 0.11151 0.51503 0.39227 0.0
C410 C 0.09642 0.47943 0.41319 0.0
C411 C 0.0805 0.461 0.43554 0.0
C412 C 0.05988 0.45496 0.42688 0.0
C413 C 0.04495 0.43782 0.44865 0.0
C414 C 0.05043 0.42648 0.47885 0.0
C415 C 0.07085 0.43222 0.48724 0.0
C416 C 0.08584 0.44938 0.46564 0.0
H417 H 0.03885 0.41322 0.49568 0.0
H418 H 0.17727 0.57642 0.26339 0.0
H419 H 0.67723 0.17137 0.21774 0.0
H420 H 0.64981 0.14258 0.25473 0.0
H421 H 0.68673 0.11431 0.27088 0.0
H422 H 0.71362 0.14215 0.22924 0.0
H423 H 0.65074 0.08597 0.2457 0.0
H424 H 0.67828 0.14082 0.37088 0.0
H425 H 0.69029 0.17571 0.40781 0.0
H426 H 0.63066 0.16747 0.38161 0.0
H427 H 0.61836 0.13262 0.3439 0.0
H428 H 0.59369 0.02537 0.44567 0.0
H429 H 0.61996 0.04983 0.39501 0.0
H430 H 0.57752 0.06616 0.33172 0.0
H431 H 0.55105 0.04146 0.38138 0.0
H432 H 0.61625 0.09959 0.38147 0.0
H433 H 0.58976 0.0423 0.2586 0.0
H434 H 0.57965 0.00677 0.2308 0.0
H435 H 0.6405 0.01938 0.26428 0.0
H436 H 0.6509 0.05491 0.29312 0.0
C437 C 0.67951 0.15892 0.2282 0.0
C438 C 0.69782 0.15926 0.2203 0.0
C439 C 0.66385 0.14254 0.25026 0.0
C440 C 0.66629 0.12641 0.26672 0.0
C441 C 0.68447 0.12661 0.25881 0.0
C442 C 0.7 0.14277 0.23561 0.0
C443 C 0.64987 0.10941 0.29215 0.0
C444 C 0.64341 0.08901 0.27579 0.0
C445 C 0.64013 0.11323 0.33136 0.0
C446 C 0.64745 0.13418 0.35413 0.0
C447 C 0.66777 0.1465 0.37267 0.0
C448 C 0.67462 0.16626 0.39379 0.0
C449 C 0.66126 0.17382 0.39693 0.0
C450 C 0.641 0.16161 0.37909 0.0
C451 C 0.63407 0.14184 0.35788 0.0
C452 C 0.58986 0.03389 0.42023 0.0
C453 C 0.57035 0.03157 0.41758 0.0
C454 C 0.60485 0.04781 0.39134 0.0
C455 C 0.60063 0.05979 0.35991 0.0
C456 C 0.581 0.05699 0.35582 0.0
C457 C 0.56589 0.04281 0.38399 0.0
C458 C 0.61711 0.07642 0.33451 0.0
C459 C 0.62362 0.0967 0.35121 0.0
C460 C 0.62721 0.07245 0.29675 0.0
C461 C 0.62106 0.05122 0.27847 0.0
C462 C 0.60095 0.03745 0.26042 0.0
C463 C 0.59517 0.01732 0.24441 0.0
C464 C 0.60941 0.0108 0.2459 0.0
C465 C 0.62948 0.02444 0.26321 0.0
C466 C 0.63533 0.04459 0.27935 0.0
H467 H 0.6049 0.9952 0.23355 0.0
H468 H 0.6666 0.18912 0.4133 0.0
H469 H 0.56381 0.7017 0.22307 0.0
H470 H 0.55822 0.67506 0.279 0.0
H471 H 0.49706 0.63754 0.21417 0.0
H472 H 0.50208 0.66475 0.16024 0.0
H473 H 0.49623 0.63503 0.30892 0.0
H474 H 0.53663 0.62787 0.18928 0.0
H475 H 0.56534 0.63817 0.13635 0.0
H476 H 0.60656 0.65676 0.266 0.0
H477 H 0.57814 0.64689 0.31975 0.0
H478 H 0.49382 0.54274 0.40188 0.0
H479 H 0.49288 0.56801 0.34898 0.0
H480 H 0.53998 0.617 0.44505 0.0
H481 H 0.54075 0.59201 0.49885 0.0
H482 H 0.54601 0.61143 0.33189 0.0
H483 H 0.50405 0.62227 0.44888 0.0
H484 H 0.47416 0.61126 0.49812 0.0
H485 H 0.43464 0.58163 0.36692 0.0
H486 H 0.46434 0.59277 0.31679 0.0
C487 C 0.54908 0.6879 0.22086 0.0
C488 C 0.53341 0.68551 0.18691 0.0
C489 C 0.54598 0.67248 0.25254 0.0
C490 C 0.5273 0.65406 0.25046 0.0
C491 C 0.51165 0.65155 0.21648 0.0
C492 C 0.51465 0.66707 0.18513 0.0
C493 C 0.52402 0.6377 0.28454 0.0
C494 C 0.50701 0.62971 0.31324 0.0
C495 C 0.53806 0.63069 0.29076 0.0
C496 C 0.55525 0.63682 0.25856 0.0
C497 C 0.55184 0.63433 0.20652 0.0
C498 C 0.56806 0.64007 0.17637 0.0
C499 C 0.58777 0.64816 0.1978 0.0
C500 C 0.59129 0.65052 0.24945 0.0
C501 C 0.57513 0.64485 0.27978 0.0
C502 C 0.50366 0.55889 0.41245 0.0
C503 C 0.51753 0.56531 0.45436 0.0
C504 C 0.50307 0.5733 0.38219 0.0
C505 C 0.51645 0.59432 0.39305 0.0
C506 C 0.52953 0.60082 0.43615 0.0
C507 C 0.52992 0.58647 0.46685 0.0
C508 C 0.51861 0.60932 0.35647 0.0
C509 C 0.53531 0.61684 0.32715 0.0
C510 C 0.50416 0.61559 0.34903 0.0
C511 C 0.48636 0.60824 0.37924 0.0
C512 C 0.48898 0.61331 0.43064 0.0
C513 C 0.47208 0.6072 0.4586 0.0
C514 C 0.45252 0.59586 0.43559 0.0
C515 C 0.4498 0.59054 0.38461 0.0
C516 C 0.46665 0.59682 0.35638 0.0
H517 H 0.43946 0.59109 0.45734 0.0
H518 H 0.6003 0.65257 0.17438 0.0
H519 H 0.88199 0.57743 0.19846 0.0
H520 H 0.91338 0.57864 0.22626 0.0
H521 H 0.90574 0.53685 0.10285 0.0
H522 H 0.87454 0.53607 0.07363 0.0
H523 H 0.90873 0.52313 0.19417 0.0
H524 H 0.94635 0.58274 0.10826 0.0
H525 H 0.95633 0.61688 0.0791 0.0
H526 H 0.97344 0.64314 0.22916 0.0
H527 H 0.96327 0.60911 0.25938 0.0
H528 H 0.98972 0.52364 0.34044 0.0
H529 H 0.97216 0.52661 0.26567 0.0
H530 H 0.96602 0.57413 0.343 0.0
H531 H 0.98353 0.57143 0.41696 0.0
H532 H 0.97541 0.58348 0.24975 0.0
H533 H 0.92791 0.52395 0.33482 0.0
H534 H 0.91271 0.4895 0.36687 0.0
H535 H 0.91144 0.4635 0.22167 0.0
H536 H 0.92683 0.49786 0.18887 0.0
C537 C 0.88727 0.56901 0.17625 0.0
C538 C 0.87559 0.55643 0.13423 0.0
C539 C 0.90526 0.56973 0.19218 0.0
C540 C 0.91189 0.55788 0.16647 0.0
C541 C 0.90085 0.54611 0.12311 0.0
C542 C 0.88294 0.54553 0.10685 0.0
C543 C 0.92851 0.55557 0.18941 0.0
C544 C 0.92361 0.5362 0.20496 0.0
C545 C 0.94771 0.57271 0.20401 0.0
C546 C 0.95399 0.59331 0.18611 0.0
C547 C 0.95212 0.59576 0.13511 0.0
C548 C 0.95783 0.61511 0.11837 0.0
C549 C 0.9655 0.63217 0.15226 0.0
C550 C 0.96751 0.62992 0.20295 0.0
C551 C 0.96181 0.6106 0.21989 0.0
C552 C 0.98485 0.5349 0.34116 0.0
C553 C 0.98782 0.54716 0.38476 0.0
C554 C 0.97479 0.53653 0.29851 0.0
C555 C 0.9677 0.55052 0.29891 0.0
C556 C 0.97142 0.56329 0.34177 0.0
C557 C 0.98131 0.5616 0.38422 0.0
C558 C 0.95516 0.55121 0.25653 0.0
C559 C 0.96087 0.57027 0.23728 0.0
C560 C 0.93651 0.53383 0.23906 0.0
C561 C 0.92879 0.51349 0.25958 0.0
C562 C 0.92469 0.51093 0.30992 0.0
C563 C 0.9159 0.49141 0.32813 0.0
C564 C 0.91098 0.47432 0.29623 0.0
C565 C 0.91516 0.47675 0.24625 0.0
C566 C 0.92395 0.49624 0.22786 0.0
H567 H 0.90403 0.45919 0.3103 0.0
H568 H 0.96991 0.64714 0.13923 0.0
H569 H 0.33031 0.84217 0.19784 0.0
H570 H 0.36367 0.86448 0.24108 0.0
H571 H 0.34626 0.90963 0.27581 0.0
H572 H 0.31315 0.88768 0.23172 0.0
H573 H 0.38501 0.92704 0.24597 0.0
H574 H 0.34323 0.8762 0.35973 0.0
H575 H 0.32236 0.84092 0.38521 0.0
H576 H 0.37231 0.83035 0.37019 0.0
H577 H 0.3934 0.86551 0.34399 0.0
H578 H 0.43166 0.98252 0.47041 0.0
H579 H 0.4105 0.96071 0.39863 0.0
H580 H 0.44454 0.92906 0.39729 0.0
H581 H 0.46599 0.95104 0.46959 0.0
H582 H 0.4036 0.90298 0.39716 0.0
H583 H 0.44758 0.95688 0.30198 0.0
H584 H 0.46827 0.99192 0.27501 0.0
H585 H 0.41494 0.99714 0.25451 0.0
H586 H 0.39393 0.96226 0.28208 0.0
C587 C 0.33372 0.85697 0.21417 0.0
C588 C 0.31909 0.86315 0.21174 0.0
C589 C 0.35271 0.86962 0.23902 0.0
C590 C 0.35734 0.88861 0.26186 0.0
C591 C 0.34296 0.89502 0.25837 0.0
C592 C 0.32399 0.88239 0.23366 0.0
C593 C 0.37674 0.90157 0.29152 0.0
C594 C 0.38912 0.92186 0.27911 0.0
C595 C 0.38246 0.89446 0.33349 0.0
C596 C 0.36979 0.87336 0.34927 0.0
C597 C 0.3497 0.86628 0.36145 0.0
C598 C 0.33784 0.84633 0.3761 0.0
C599 C 0.34598 0.83337 0.37914 0.0
C600 C 0.36601 0.84038 0.36769 0.0
C601 C 0.37792 0.86032 0.35295 0.0
C602 C 0.43481 0.97106 0.45465 0.0
C603 C 0.45036 0.96835 0.4759 0.0
C604 C 0.42283 0.95875 0.41326 0.0
C605 C 0.42609 0.94342 0.39236 0.0
C606 C 0.4419 0.94093 0.41272 0.0
C607 C 0.4541 0.95346 0.45396 0.0
C608 C 0.41145 0.92879 0.35288 0.0
C609 C 0.3999 0.90812 0.36335 0.0
C610 C 0.4065 0.93559 0.30917 0.0
C611 C 0.41916 0.95691 0.29423 0.0
C612 C 0.44027 0.96555 0.29222 0.0
C613 C 0.45205 0.98537 0.27664 0.0
C614 C 0.4429 0.99669 0.2628 0.0
C615 C 0.42198 0.98831 0.26501 0.0
C616 C 0.41013 0.9685 0.28055 0.0
H617 H 0.45201 0.01197 0.25042 0.0
H618 H 0.33678 0.81793 0.39051 0.0
H619 H 0.47738 0.32752 0.29127 0.0
H620 H 0.47375 0.35 0.35175 0.0
H621 H 0.40905 0.30871 0.34503 0.0
H622 H 0.41264 0.2858 0.28414 0.0
H623 H 0.41947 0.34961 0.34498 0.0
H624 H 0.43356 0.3091 0.4468 0.0
H625 H 0.44948 0.2894 0.47505 0.0
H626 H 0.50729 0.34477 0.49587 0.0
H627 H 0.49183 0.3648 0.46696 0.0
H628 H 0.47754 0.43258 0.57238 0.0
H629 H 0.45661 0.39639 0.5437 0.0
H630 H 0.46363 0.4133 0.39173 0.0
H631 H 0.48332 0.44914 0.41988 0.0
H632 H 0.46663 0.3738 0.49623 0.0
H633 H 0.42776 0.38273 0.31246 0.0
H634 H 0.41026 0.40135 0.28781 0.0
H635 H 0.39721 0.40628 0.4392 0.0
H636 H 0.41431 0.38735 0.46477 0.0
C637 C 0.46237 0.32315 0.30274 0.0
C638 C 0.44533 0.3048 0.28358 0.0
C639 C 0.46032 0.33597 0.33736 0.0
C640 C 0.4412 0.3307 0.35375 0.0
C641 C 0.42395 0.31285 0.33319 0.0
C642 C 0.42601 0.29991 0.29832 0.0
C643 C 0.43982 0.34448 0.39171 0.0
C644 C 0.42945 0.35476 0.37858 0.0
C645 C 0.45197 0.35034 0.43686 0.0
C646 C 0.46148 0.33847 0.45472 0.0
C647 C 0.44969 0.31708 0.45718 0.0
C648 C 0.45864 0.30585 0.47332 0.0
C649 C 0.47938 0.31583 0.48728 0.0
C650 C 0.49122 0.33707 0.48515 0.0
C651 C 0.48235 0.34838 0.46899 0.0
C652 C 0.47416 0.42858 0.53297 0.0
C653 C 0.48198 0.44381 0.49858 0.0
C654 C 0.46223 0.40789 0.51659 0.0
C655 C 0.45806 0.4021 0.46554 0.0
C656 C 0.46593 0.41733 0.43132 0.0
C657 C 0.47756 0.4379 0.44758 0.0
C658 C 0.44786 0.38028 0.44693 0.0
C659 C 0.45597 0.36832 0.46385 0.0
C660 C 0.43316 0.3726 0.40613 0.0
C661 C 0.42235 0.38355 0.39057 0.0
C662 C 0.42096 0.38754 0.34048 0.0
C663 C 0.41116 0.39823 0.32635 0.0
C664 C 0.40263 0.405 0.36191 0.0
C665 C 0.40384 0.40105 0.41169 0.0
C666 C 0.4136 0.39035 0.42603 0.0
H667 H 0.39509 0.41331 0.3509 0.0
H668 H 0.48629 0.3071 0.49975 0.0
H669 H 0.56639 0.86155 0.90144 0.0
H670 H 0.56508 0.88587 0.84592 0.0
H671 H 0.49966 0.85136 0.83903 0.0
H672 H 0.5009 0.82692 0.89395 0.0
H673 H 0.51195 0.8622 0.74934 0.0
H674 H 0.52808 0.89656 0.91341 0.0
H675 H 0.54813 0.91087 0.99345 0.0
H676 H 0.60043 0.95108 0.91686 0.0
H677 H 0.58073 0.9368 0.83629 0.0
H678 H 0.48189 0.93733 0.72475 0.0
H679 H 0.49121 0.91282 0.75539 0.0
H680 H 0.54759 0.94357 0.68435 0.0
H681 H 0.53793 0.96789 0.65187 0.0
H682 H 0.54551 0.93628 0.80187 0.0
H683 H 0.52649 0.9045 0.63705 0.0
H684 H 0.50455 0.89082 0.55953 0.0
H685 H 0.45612 0.84625 0.63973 0.0
H686 H 0.47765 0.8599 0.71798 0.0
C687 C 0.55174 0.85925 0.88838 0.0
C688 C 0.53375 0.84234 0.90224 0.0
C689 C 0.551 0.87313 0.8565 0.0
C690 C 0.53226 0.87054 0.83844 0.0
C691 C 0.5143 0.85362 0.85214 0.0
C692 C 0.51503 0.83968 0.88364 0.0
C693 C 0.53118 0.88561 0.80618 0.0
C694 C 0.51931 0.87839 0.7609 0.0
C695 C 0.54117 0.90686 0.82046 0.0
C696 C 0.55302 0.91543 0.86884 0.0
C697 C 0.5439 0.90833 0.91364 0.0
C698 C 0.55519 0.91646 0.95909 0.0
C699 C 0.57556 0.93183 0.96024 0.0
C700 C 0.58466 0.93914 0.91592 0.0
C701 C 0.57345 0.93104 0.87035 0.0
C702 C 0.4961 0.93863 0.71488 0.0
C703 C 0.50918 0.95439 0.68588 0.0
C704 C 0.50139 0.92464 0.73235 0.0
C705 C 0.52004 0.92643 0.72206 0.0
C706 C 0.53307 0.94194 0.69237 0.0
C707 C 0.52752 0.95569 0.67369 0.0
C708 C 0.5261 0.91276 0.7458 0.0
C709 C 0.53869 0.92018 0.78974 0.0
C710 C 0.51666 0.89172 0.73051 0.0
C711 C 0.50365 0.88336 0.68351 0.0
C712 C 0.5111 0.89192 0.63829 0.0
C713 C 0.49875 0.88415 0.59417 0.0
C714 C 0.47895 0.86772 0.59471 0.0
C715 C 0.47147 0.859 0.63937 0.0
C716 C 0.48375 0.86673 0.68362 0.0
H717 H 0.46942 0.86172 0.5605 0.0
H718 H 0.58428 0.93811 0.99547 0.0
H719 H 0.69231 0.54949 0.93402 0.0
H720 H 0.65996 0.54352 0.89766 0.0
H721 H 0.62923 0.48463 0.96091 0.0
H722 H 0.66193 0.49048 0.99706 0.0
H723 H 0.61509 0.48088 0.86904 0.0
H724 H 0.62273 0.52408 0.00657 0.0
H725 H 0.63942 0.55306 0.06971 0.0
H726 H 0.65014 0.59539 0.95705 0.0
H727 H 0.63382 0.56671 0.89305 0.0
H728 H 0.53417 0.48573 0.7318 0.0
H729 H 0.55226 0.48277 0.80521 0.0
H730 H 0.60621 0.5384 0.77295 0.0
H731 H 0.58829 0.54167 0.70052 0.0
H732 H 0.59883 0.53692 0.87277 0.0
H733 H 0.59738 0.48949 0.73608 0.0
H734 H 0.57739 0.45895 0.67831 0.0
H735 H 0.55039 0.42234 0.80125 0.0
H736 H 0.57022 0.4527 0.85962 0.0
C737 C 0.67865 0.53539 0.94084 0.0
C738 C 0.67961 0.52053 0.9687 0.0
C739 C 0.66012 0.53201 0.92018 0.0
C740 C 0.64207 0.51382 0.92752 0.0
C741 C 0.64294 0.49884 0.95513 0.0
C742 C 0.6616 0.50217 0.97558 0.0
C743 C 0.62268 0.51036 0.90346 0.0
C744 C 0.61122 0.4929 0.87088 0.0
C745 C 0.61721 0.52574 0.90663 0.0
C746 C 0.62705 0.54318 0.94491 0.0
C747 C 0.62875 0.53957 0.99516 0.0
C748 C 0.63814 0.55596 0.03114 0.0
C749 C 0.64584 0.57606 0.0174 0.0
C750 C 0.64414 0.57981 0.96765 0.0
C751 C 0.63478 0.56348 0.9315 0.0
C752 C 0.54984 0.49738 0.74052 0.0
C753 C 0.55979 0.5139 0.71012 0.0
C754 C 0.56014 0.49566 0.78248 0.0
C755 C 0.58057 0.51036 0.7944 0.0
C756 C 0.5904 0.52696 0.76455 0.0
C757 C 0.58015 0.52871 0.72286 0.0
C758 C 0.59249 0.50832 0.8361 0.0
C759 C 0.60238 0.52467 0.87228 0.0
C760 C 0.5961 0.49168 0.83718 0.0
C761 C 0.58507 0.47336 0.80208 0.0
C762 C 0.58717 0.47492 0.75071 0.0
C763 C 0.57587 0.45765 0.71788 0.0
C764 C 0.56256 0.43873 0.73608 0.0
C765 C 0.56066 0.43701 0.78718 0.0
C766 C 0.57194 0.45422 0.82014 0.0
H767 H 0.55376 0.42541 0.7106 0.0
H768 H 0.6531 0.58872 0.04531 0.0
H769 H 0.1469 0.73204 0.87609 0.0
H770 H 0.12251 0.70247 0.82217 0.0
H771 H 0.0931 0.67098 0.9506 0.0
H772 H 0.11803 0.70026 0.00493 0.0
H773 H 0.10387 0.6489 0.89574 0.0
H774 H 0.06929 0.686 0.86302 0.0
H775 H 0.06591 0.71544 0.83903 0.0
H776 H 0.08596 0.71154 0.69482 0.0
H777 H 0.08974 0.68225 0.71817 0.0
H778 H 0.02399 0.56054 0.78056 0.0
H779 H 0.04187 0.59471 0.82173 0.0
H780 H 0.07591 0.61843 0.69293 0.0
H781 H 0.05785 0.58386 0.6507 0.0
H782 H 0.06298 0.64499 0.74358 0.0
H783 H 0.09852 0.60865 0.77802 0.0
H784 H 0.10135 0.5789 0.80203 0.0
H785 H 0.07926 0.58177 0.94413 0.0
H786 H 0.076 0.61136 0.92066 0.0
C787 C 0.13506 0.71891 0.8928 0.0
C788 C 0.13456 0.71831 0.94477 0.0
C789 C 0.12098 0.70211 0.86188 0.0
C790 C 0.10599 0.68451 0.88234 0.0
C791 C 0.1046 0.68443 0.93407 0.0
C792 C 0.11875 0.70121 0.96507 0.0
C793 C 0.0936 0.66536 0.85057 0.0
C794 C 0.09466 0.64802 0.86299 0.0
C795 C 0.08224 0.66442 0.80668 0.0
C796 C 0.07999 0.68204 0.79254 0.0
C797 C 0.07316 0.69153 0.82634 0.0
C798 C 0.07113 0.70817 0.81282 0.0
C799 C 0.07577 0.71538 0.76548 0.0
C800 C 0.08239 0.70594 0.7315 0.0
C801 C 0.08446 0.68931 0.74484 0.0
C802 C 0.03519 0.57297 0.76062 0.0
C803 C 0.03984 0.56941 0.71271 0.0
C804 C 0.04529 0.59252 0.78419 0.0
C805 C 0.06036 0.60895 0.76061 0.0
C806 C 0.0643 0.60584 0.71165 0.0
C807 C 0.05406 0.58613 0.68773 0.0
C808 C 0.0731 0.62869 0.78955 0.0
C809 C 0.0722 0.64605 0.77646 0.0
C810 C 0.08469 0.62977 0.83295 0.0
C811 C 0.08685 0.61211 0.8474 0.0
C812 C 0.09412 0.60284 0.81424 0.0
C813 C 0.09582 0.58602 0.82778 0.0
C814 C 0.09045 0.57842 0.87453 0.0
C815 C 0.08341 0.58766 0.90791 0.0
C816 C 0.08164 0.60447 0.89453 0.0
H817 H 0.09177 0.5654 0.88494 0.0
H818 H 0.07418 0.72826 0.75508 0.0
H819 H 0.48189 0.18167 0.92813 0.0
H820 H 0.4924 0.16253 0.87399 0.0
H821 H 0.50454 0.13641 0.00124 0.0
H822 H 0.49384 0.15545 0.05588 0.0
H823 H 0.53413 0.1479 0.93101 0.0
H824 H 0.46173 0.10855 0.9366 0.0
H825 H 0.42682 0.10262 0.931 0.0
H826 H 0.43268 0.11807 0.77879 0.0
H827 H 0.46774 0.12438 0.7837 0.0
H828 H 0.5194 0.0549 0.80679 0.0
H829 H 0.52477 0.08464 0.85864 0.0
H830 H 0.50756 0.10754 0.73265 0.0
H831 H 0.50176 0.07774 0.68089 0.0
H832 H 0.48203 0.09881 0.80348 0.0
H833 H 0.55526 0.14071 0.79938 0.0
H834 H 0.59112 0.14949 0.80745 0.0
H835 H 0.58344 0.1283 0.95467 0.0
H836 H 0.54769 0.11995 0.94798 0.0
C837 C 0.48671 0.17178 0.9446 0.0
C838 C 0.48675 0.16979 0.99613 0.0
C839 C 0.49285 0.161 0.9137 0.0
C840 C 0.49904 0.14795 0.93369 0.0
C841 C 0.49984 0.14647 0.98525 0.0
C842 C 0.4937 0.1573 0.0163 0.0
C843 C 0.50336 0.13489 0.90022 0.0
C844 C 0.52273 0.13699 0.90335 0.0
C845 C 0.48854 0.12097 0.86378 0.0
C846 C 0.46743 0.11714 0.86068 0.0
C847 C 0.45563 0.11085 0.90206 0.0
C848 C 0.43581 0.10739 0.89899 0.0
C849 C 0.42756 0.11003 0.85461 0.0
C850 C 0.4391 0.11607 0.81316 0.0
C851 C 0.45894 0.11957 0.81605 0.0
C852 C 0.51735 0.06657 0.78975 0.0
C853 C 0.50949 0.06364 0.74018 0.0
C854 C 0.52062 0.08369 0.81939 0.0
C855 C 0.51631 0.09816 0.79962 0.0
C856 C 0.51078 0.09643 0.74872 0.0
C857 C 0.50736 0.0793 0.71925 0.0
C858 C 0.51305 0.11207 0.83312 0.0
C859 C 0.49363 0.10988 0.83056 0.0
C860 C 0.5278 0.12579 0.86998 0.0
C861 C 0.54882 0.12957 0.87303 0.0
C862 C 0.5612 0.13779 0.83331 0.0
C863 C 0.58154 0.14287 0.83782 0.0
C864 C 0.58952 0.1394 0.88148 0.0
C865 C 0.57722 0.13095 0.92085 0.0
C866 C 0.55698 0.1262 0.91689 0.0
H867 H 0.60527 0.14338 0.88496 0.0
H868 H 0.4122 0.10733 0.8523 0.0
H869 H 0.30363 0.45688 0.94628 0.0
H870 H 0.33278 0.45774 0.90957 0.0
H871 H 0.37111 0.49302 0.03937 0.0
H872 H 0.34194 0.49208 0.07659 0.0
H873 H 0.38868 0.50906 0.95452 0.0
H874 H 0.35804 0.44357 0.02128 0.0
H875 H 0.33023 0.40932 0.03818 0.0
H876 H 0.31991 0.39142 0.88216 0.0
H877 H 0.34748 0.42567 0.86421 0.0
H878 H 0.46789 0.49885 0.84195 0.0
H879 H 0.44458 0.49739 0.90393 0.0
H880 H 0.3937 0.46145 0.79792 0.0
H881 H 0.41652 0.46257 0.73662 0.0
H882 H 0.38637 0.44576 0.88727 0.0
H883 H 0.41322 0.51318 0.82124 0.0
H884 H 0.44068 0.54765 0.80423 0.0
H885 H 0.45813 0.56174 0.96023 0.0
H886 H 0.43091 0.52724 0.97807 0.0
C887 C 0.3182 0.46461 0.96728 0.0
C888 C 0.32047 0.47442 0.01429 0.0
C889 C 0.33485 0.46511 0.94627 0.0
C890 C 0.35407 0.47527 0.972 0.0
C891 C 0.35642 0.48511 0.01891 0.0
C892 C 0.33976 0.48462 0.03997 0.0
C893 C 0.37172 0.47602 0.94892 0.0
C894 C 0.38839 0.49522 0.94073 0.0
C895 C 0.37129 0.45796 0.93079 0.0
C896 C 0.35477 0.43726 0.94139 0.0
C897 C 0.34976 0.43238 0.99053 0.0
C898 C 0.33405 0.41296 0.0003 0.0
C899 C 0.32329 0.39821 0.96126 0.0
C900 C 0.32826 0.40286 0.91236 0.0
C901 C 0.34395 0.42227 0.90238 0.0
C902 C 0.45174 0.4906 0.83197 0.0
C903 C 0.44413 0.4809 0.78419 0.0
C904 C 0.43845 0.48981 0.86738 0.0
C905 C 0.41741 0.47936 0.85543 0.0
C906 C 0.40986 0.46951 0.80805 0.0
C907 C 0.42302 0.47028 0.77289 0.0
C908 C 0.40292 0.47879 0.89118 0.0
C909 C 0.38685 0.4596 0.90195 0.0
C910 C 0.40392 0.49684 0.91168 0.0
C911 C 0.42022 0.51757 0.90091 0.0
C912 C 0.42302 0.52358 0.85185 0.0
C913 C 0.43852 0.54313 0.84207 0.0
C914 C 0.45119 0.55685 0.88111 0.0
C915 C 0.44834 0.55108 0.93002 0.0
C916 C 0.43288 0.53154 0.93999 0.0
H917 H 0.46317 0.57198 0.87346 0.0
H918 H 0.31112 0.38318 0.9689 0.0
H919 H 0.85755 0.34336 0.0059 0.0
H920 H 0.87823 0.37136 0.95313 0.0
H921 H 0.85553 0.32862 0.82432 0.0
H922 H 0.83435 0.30075 0.87665 0.0
H923 H 0.90307 0.35999 0.84767 0.0
H924 H 0.83548 0.35205 0.82193 0.0
H925 H 0.80458 0.35013 0.85253 0.0
H926 H 0.8404 0.40997 0.92697 0.0
H927 H 0.87157 0.41208 0.89745 0.0
H928 H 0.94162 0.4246 0.65574 0.0
H929 H 0.91555 0.39746 0.70091 0.0
H930 H 0.92139 0.44226 0.81419 0.0
H931 H 0.94737 0.46961 0.76913 0.0
H932 H 0.88226 0.41022 0.80064 0.0
H933 H 0.94847 0.42036 0.8321 0.0
H934 H 0.9816 0.42461 0.81233 0.0
H935 H 0.95183 0.36402 0.74036 0.0
H936 H 0.91848 0.35951 0.75915 0.0
C937 C 0.85711 0.34001 0.96636 0.0
C938 C 0.84444 0.32002 0.94511 0.0
C939 C 0.86881 0.35594 0.93636 0.0
C940 C 0.86827 0.35197 0.88498 0.0
C941 C 0.85606 0.33191 0.86393 0.0
C942 C 0.84402 0.31608 0.89371 0.0
C943 C 0.88035 0.36881 0.85305 0.0
C944 C 0.89839 0.37079 0.83664 0.0
C945 C 0.87458 0.38332 0.84061 0.0
C946 C 0.85586 0.3821 0.85803 0.0
C947 C 0.83679 0.36469 0.84529 0.0
C948 C 0.81922 0.3636 0.86233 0.0
C949 C 0.82053 0.37989 0.89182 0.0
C950 C 0.83941 0.39735 0.9042 0.0
C951 C 0.85703 0.3985 0.88731 0.0
C952 C 0.93699 0.4288 0.68951 0.0
C953 C 0.94698 0.44925 0.70943 0.0
C954 C 0.92214 0.41323 0.71542 0.0
C955 C 0.91701 0.41782 0.76159 0.0
C956 C 0.92534 0.43838 0.77893 0.0
C957 C 0.94022 0.454 0.75306 0.0
C958 C 0.90478 0.40113 0.794 0.0
C959 C 0.88685 0.3993 0.81106 0.0
C960 C 0.91094 0.38705 0.80822 0.0
C961 C 0.93095 0.38969 0.79651 0.0
C962 C 0.94897 0.40802 0.81163 0.0
C963 C 0.96779 0.41046 0.80069 0.0
C964 C 0.96882 0.39462 0.77497 0.0
C965 C 0.95101 0.37629 0.76021 0.0
C966 C 0.93214 0.37378 0.77101 0.0
H967 H 0.98341 0.39654 0.76662 0.0
H968 H 0.80692 0.37902 0.90496 0.0
H969 H 0.86213 0.53052 0.96845 0.0
H970 H 0.88704 0.52613 0.92334 0.0
H971 H 0.84991 0.51274 0.78678 0.0
H972 H 0.82447 0.51612 0.83261 0.0
H973 H 0.86621 0.48968 0.78608 0.0
H974 H 0.89214 0.56193 0.82266 0.0
H975 H 0.90227 0.593 0.87697 0.0
H976 H 0.94644 0.58369 0.95753 0.0
H977 H 0.9364 0.55241 0.904 0.0
H978 H 0.94593 0.5335 0.61562 0.0
H979 H 0.91966 0.52905 0.67149 0.0
H980 H 0.94774 0.51091 0.78521 0.0
H981 H 0.97391 0.51497 0.72903 0.0
H982 H 0.9372 0.54762 0.80262 0.0
H983 H 0.91149 0.47551 0.75885 0.0
H984 H 0.90116 0.44572 0.6996 0.0
H985 H 0.85669 0.45676 0.62711 0.0
H986 H 0.86693 0.4868 0.68544 0.0
C987 C 0.85927 0.52646 0.92886 0.0
C988 C 0.84157 0.52384 0.90372 0.0
C989 C 0.87352 0.52404 0.90307 0.0
C990 C 0.87063 0.51959 0.85139 0.0
C991 C 0.85254 0.51624 0.82658 0.0
C992 C 0.83805 0.51822 0.85263 0.0
C993 C 0.88679 0.51933 0.82289 0.0
C994 C 0.88169 0.5024 0.78967 0.0
C995 C 0.90714 0.53578 0.8279 0.0
C996 C 0.91338 0.55473 0.85966 0.0
C997 C 0.90394 0.56645 0.85212 0.0
C998 C 0.90967 0.58411 0.88274 0.0
C999 C 0.92495 0.59029 0.92076 0.0
C1000 C 0.93459 0.57887 0.92811 0.0
C1001 C 0.9289 0.56119 0.89761 0.0
C1002 C 0.94641 0.52844 0.65243 0.0
C1003 C 0.96179 0.52439 0.668 0.0
C1004 C 0.93139 0.52583 0.68412 0.0
C1005 C 0.93176 0.51952 0.73213 0.0
C1006 C 0.94717 0.51561 0.74803 0.0
C1007 C 0.96198 0.51781 0.71592 0.0
C1008 C 0.9165 0.51808 0.76614 0.0
C1009 C 0.92176 0.53478 0.79994 0.0
C1010 C 0.89632 0.50159 0.76122 0.0
C1011 C 0.89014 0.48354 0.72616 0.0
C1012 C 0.89967 0.47173 0.72994 0.0
C1013 C 0.89379 0.45476 0.69664 0.0
C1014 C 0.87834 0.4494 0.65957 0.0
C1015 C 0.86868 0.46095 0.6558 0.0
C1016 C 0.8745 0.47793 0.689 0.0
H1017 H 0.87381 0.43626 0.63384 0.0
H1018 H 0.92935 0.60394 0.94446 0.0
H1019 H 0.26844 0.86248 0.87223 0.0
H1020 H 0.2928 0.88786 0.81965 0.0
H1021 H 0.33638 0.91527 0.94585 0.0
H1022 H 0.31203 0.89015 0.99858 0.0
H1023 H 0.33752 0.94429 0.89146 0.0
H1024 H 0.33747 0.88072 0.85915 0.0
H1025 H 0.32194 0.84388 0.83434 0.0
H1026 H 0.30282 0.85377 0.6913 0.0
H1027 H 0.31802 0.89066 0.71555 0.0
H1028 H 0.43412 0.98423 0.80136 0.0
H1029 H 0.40166 0.96565 0.83833 0.0
H1030 H 0.37022 0.95461 0.69414 0.0
H1031 H 0.40298 0.97353 0.65657 0.0
H1032 H 0.35843 0.91906 0.74578 0.0
H1033 H 0.36531 0.98478 0.77603 0.0
H1034 H 0.38285 0.02157 0.80281 0.0
H1035 H 0.39109 0.00775 0.95183 0.0
H1036 H 0.37387 0.97089 0.92584 0.0
C1037 C 0.28322 0.87396 0.88871 0.0
C1038 C 0.28838 0.87425 0.93947 0.0
C1039 C 0.2971 0.88846 0.85866 0.0
C1040 C 0.31653 0.90333 0.87863 0.0
C1041 C 0.32147 0.904 0.9296 0.0
C1042 C 0.30755 0.88963 0.95973 0.0
C1043 C 0.33212 0.91764 0.84639 0.0
C1044 C 0.34213 0.93877 0.85967 0.0
C1045 C 0.33775 0.91052 0.804 0.0
C1046 C 0.32864 0.88838 0.78938 0.0
C1047 C 0.32981 0.875 0.82256 0.0
C1048 C 0.32109 0.85413 0.80858 0.0
C1049 C 0.31134 0.84648 0.76134 0.0
C1050 C 0.31034 0.85971 0.72792 0.0
C1051 C 0.319 0.8806 0.74175 0.0
C1052 C 0.42031 0.97813 0.77751 0.0
C1053 C 0.42108 0.98024 0.72602 0.0
C1054 C 0.40176 0.96761 0.79878 0.0
C1055 C 0.38353 0.95885 0.76904 0.0
C1056 C 0.38415 0.96137 0.71772 0.0
C1057 C 0.40282 0.97222 0.69638 0.0
C1058 C 0.36418 0.94561 0.7917 0.0
C1059 C 0.35348 0.92465 0.77676 0.0
C1060 C 0.3581 0.95287 0.83289 0.0
C1061 C 0.36836 0.97504 0.84887 0.0
C1062 C 0.37098 0.98958 0.81445 0.0
C1063 C 0.38085 0.01046 0.8295 0.0
C1064 C 0.3881 0.01699 0.87897 0.0
C1065 C 0.38546 0.00266 0.91352 0.0
C1066 C 0.37561 0.98177 0.89866 0.0
H1067 H 0.39575 0.03316 0.89055 0.0
H1068 H 0.30461 0.83031 0.75057 0.0
H1069 H 0.43318 0.29379 0.94907 0.0
H1070 H 0.43827 0.31844 0.887 0.0
H1071 H 0.50281 0.34983 0.92389 0.0
H1072 H 0.49782 0.32525 0.98603 0.0
H1073 H 0.49047 0.37674 0.91517 0.0
H1074 H 0.48124 0.31836 0.81646 0.0
H1075 H 0.46409 0.28201 0.78572 0.0
H1076 H 0.41194 0.28536 0.73346 0.0
H1077 H 0.42867 0.32168 0.76454 0.0
H1078 H 0.51442 0.44273 0.72278 0.0
H1079 H 0.5129 0.41465 0.76831 0.0
H1080 H 0.44805 0.37969 0.73619 0.0
H1081 H 0.44966 0.40736 0.6884 0.0
H1082 H 0.46248 0.35445 0.74051 0.0
H1083 H 0.47095 0.4121 0.84529 0.0
H1084 H 0.48849 0.4487 0.87417 0.0
H1085 H 0.54239 0.44658 0.91494 0.0
H1086 H 0.52532 0.41006 0.88524 0.0
C1087 C 0.44847 0.30586 0.94376 0.0
C1088 C 0.46508 0.30749 0.97257 0.0
C1089 C 0.45138 0.31994 0.90817 0.0
C1090 C 0.47097 0.33587 0.90015 0.0
C1091 C 0.48755 0.33769 0.9293 0.0
C1092 C 0.48465 0.32366 0.96502 0.0
C1093 C 0.47415 0.35083 0.86207 0.0
C1094 C 0.48462 0.37184 0.87682 0.0
C1095 C 0.46624 0.34452 0.8121 0.0
C1096 C 0.45615 0.3227 0.79324 0.0
C1097 C 0.46606 0.31131 0.79876 0.0
C1098 C 0.45642 0.29071 0.78122 0.0
C1099 C 0.43692 0.28137 0.75776 0.0
C1100 C 0.42703 0.29261 0.75169 0.0
C1101 C 0.4366 0.31321 0.76922 0.0
C1102 C 0.49991 0.42881 0.72427 0.0
C1103 C 0.48211 0.42732 0.70252 0.0
C1104 C 0.49904 0.41282 0.75066 0.0
C1105 C 0.48026 0.39532 0.75725 0.0
C1106 C 0.46269 0.39311 0.73211 0.0
C1107 C 0.46363 0.40893 0.70468 0.0
C1108 C 0.47865 0.38029 0.79376 0.0
C1109 C 0.46844 0.35931 0.7788 0.0
C1110 C 0.4868 0.3866 0.84361 0.0
C1111 C 0.49691 0.4084 0.86271 0.0
C1112 C 0.48657 0.41947 0.86023 0.0
C1113 C 0.49645 0.44021 0.87662 0.0
C1114 C 0.51658 0.44998 0.89613 0.0
C1115 C 0.52684 0.43901 0.89954 0.0
C1116 C 0.51707 0.41829 0.88297 0.0
H1117 H 0.52421 0.46604 0.90874 0.0
H1118 H 0.42948 0.26542 0.7442 0.0
H1119 H 0.13022 0.41653 0.01038 0.0
H1120 H 0.10094 0.40924 0.95409 0.0
H1121 H 0.13341 0.47103 0.90731 0.0
H1122 H 0.16269 0.4782 0.9621 0.0
H1123 H 0.07713 0.4266 0.95108 0.0
H1124 H 0.1242 0.47186 0.78729 0.0
H1125 H 0.15508 0.47789 0.74752 0.0
H1126 H 0.14863 0.42223 0.80147 0.0
H1127 H 0.11753 0.41568 0.84092 0.0
H1128 H 0.03838 0.47864 0.82205 0.0
H1129 H 0.05649 0.46496 0.86844 0.0
H1130 H 0.04874 0.42463 0.74149 0.0
H1131 H 0.03076 0.43846 0.69425 0.0
H1132 H 0.08686 0.4449 0.7757 0.0
H1133 H 0.02502 0.40459 0.84481 0.0
H1134 H 0.99287 0.39618 0.88121 0.0
H1135 H 0.02578 0.43561 0.01074 0.0
H1136 H 0.05817 0.44463 0.97472 0.0
C1137 C 0.13112 0.42846 0.98769 0.0
C1138 C 0.14873 0.44795 0.99063 0.0
C1139 C 0.11438 0.42431 0.95585 0.0
C1140 C 0.11513 0.43951 0.92613 0.0
C1141 C 0.13264 0.45897 0.92936 0.0
C1142 C 0.14928 0.46313 0.96111 0.0
C1143 C 0.09762 0.43557 0.89234 0.0
C1144 C 0.0791 0.43033 0.91256 0.0
C1145 C 0.09997 0.43961 0.84157 0.0
C1146 C 0.11855 0.44333 0.81726 0.0
C1147 C 0.12927 0.46082 0.79038 0.0
C1148 C 0.14685 0.46435 0.76796 0.0
C1149 C 0.15383 0.45047 0.77203 0.0
C1150 C 0.14323 0.433 0.79845 0.0
C1151 C 0.12564 0.42939 0.8209 0.0
C1152 C 0.04029 0.4667 0.80402 0.0
C1153 C 0.0333 0.45982 0.75423 0.0
C1154 C 0.0505 0.45875 0.8308 0.0
C1155 C 0.05379 0.44363 0.80855 0.0
C1156 C 0.04629 0.43625 0.75936 0.0
C1157 C 0.03606 0.4442 0.73245 0.0
C1158 C 0.06689 0.43732 0.83536 0.0
C1159 C 0.0846 0.4406 0.8138 0.0
C1160 C 0.06353 0.43095 0.8844 0.0
C1161 C 0.04409 0.42533 0.90692 0.0
C1162 C 0.02544 0.41157 0.88095 0.0
C1163 C 0.00715 0.4067 0.90152 0.0
C1164 C 0.00729 0.41536 0.94826 0.0
C1165 C 0.02571 0.42889 0.97455 0.0
C1166 C 0.04405 0.43387 0.95409 0.0
H1167 H 0.99311 0.41157 0.96411 0.0
H1168 H 0.16744 0.45324 0.75467 0.0
H1169 H 0.67453 0.14621 0.02457 0.0
H1170 H 0.64184 0.12011 0.98378 0.0
H1171 H 0.66479 0.14042 0.84066 0.0
H1172 H 0.69706 0.16694 0.88148 0.0
H1173 H 0.62837 0.13428 0.84162 0.0
H1174 H 0.66123 0.09617 0.89317 0.0
H1175 H 0.67691 0.08385 0.95441 0.0
H1176 H 0.62216 0.05642 0.03147 0.0
H1177 H 0.60625 0.06878 0.97093 0.0
H1178 H 0.58665 0.05333 0.66437 0.0
H1179 H 0.60826 0.07731 0.733 0.0
H1180 H 0.55764 0.0532 0.8258 0.0
H1181 H 0.53575 0.02889 0.75661 0.0
H1182 H 0.60031 0.06029 0.866 0.0
H1183 H 0.56555 0.0923 0.79641 0.0
H1184 H 0.55141 0.10334 0.72852 0.0
H1185 H 0.61114 0.14201 0.68088 0.0
H1186 H 0.62567 0.13078 0.74753 0.0
C1187 C 0.67251 0.14495 0.98439 0.0
C1188 C 0.68821 0.15842 0.95594 0.0
C1189 C 0.65389 0.13009 0.96117 0.0
C1190 C 0.65091 0.12819 0.90914 0.0
C1191 C 0.66668 0.14167 0.88087 0.0
C1192 C 0.68512 0.15674 0.90407 0.0
C1193 C 0.63157 0.11215 0.88341 0.0
C1194 C 0.62217 0.11811 0.84721 0.0
C1195 C 0.62311 0.09107 0.89172 0.0
C1196 C 0.63266 0.08362 0.92796 0.0
C1197 C 0.6526 0.08764 0.9234 0.0
C1198 C 0.66152 0.08063 0.95793 0.0
C1199 C 0.65056 0.06942 0.99691 0.0
C1200 C 0.63065 0.06514 0.00134 0.0
C1201 C 0.62167 0.07214 0.96693 0.0
C1202 C 0.58013 0.05301 0.69947 0.0
C1203 C 0.55949 0.03954 0.70515 0.0
C1204 C 0.59246 0.06671 0.73849 0.0
C1205 C 0.58442 0.06702 0.78402 0.0
C1206 C 0.56398 0.05315 0.79065 0.0
C1207 C 0.55149 0.03953 0.75112 0.0
C1208 C 0.59774 0.08253 0.82339 0.0
C1209 C 0.60606 0.0765 0.86192 0.0
C1210 C 0.60537 0.10356 0.81691 0.0
C1211 C 0.5967 0.11053 0.77688 0.0
C1212 C 0.57566 0.1029 0.77102 0.0
C1213 C 0.56757 0.10922 0.73279 0.0
C1214 C 0.58033 0.12331 0.70037 0.0
C1215 C 0.60125 0.1311 0.70606 0.0
C1216 C 0.60944 0.12476 0.74409 0.0
H1217 H 0.57402 0.12823 0.67091 0.0
H1218 H 0.65749 0.06401 0.0236 0.0
H1219 H 0.56566 0.68818 0.93477 0.0
H1220 H 0.57036 0.66636 0.8745 0.0
H1221 H 0.56926 0.70305 0.75672 0.0
H1222 H 0.56423 0.72486 0.81725 0.0
H1223 H 0.54382 0.66512 0.73244 0.0
H1224 H 0.61265 0.69982 0.78538 0.0
H1225 H 0.64336 0.717 0.84256 0.0
H1226 H 0.62612 0.66017 0.90876 0.0
H1227 H 0.59514 0.64268 0.85257 0.0
H1228 H 0.53393 0.5742 0.60849 0.0
H1229 H 0.55072 0.61125 0.62937 0.0
H1230 H 0.55098 0.60048 0.78518 0.0
H1231 H 0.53465 0.56382 0.76485 0.0
H1232 H 0.58674 0.63375 0.76187 0.0
H1233 H 0.51235 0.60546 0.72508 0.0
H1234 H 0.48174 0.58934 0.66713 0.0
H1235 H 0.51219 0.63639 0.56606 0.0
H1236 H 0.543 0.65271 0.62338 0.0
C1237 C 0.56696 0.69193 0.89626 0.0
C1238 C 0.56445 0.7081 0.88061 0.0
C1239 C 0.56977 0.67952 0.86176 0.0
C1240 C 0.57044 0.68321 0.81104 0.0
C1241 C 0.56885 0.69995 0.79564 0.0
C1242 C 0.56588 0.7123 0.83016 0.0
C1243 C 0.5699 0.66784 0.77424 0.0
C1244 C 0.55367 0.65871 0.73782 0.0
C1245 C 0.58284 0.65956 0.78061 0.0
C1246 C 0.60152 0.66992 0.81462 0.0
C1247 C 0.61533 0.69099 0.81229 0.0
C1248 C 0.63281 0.70079 0.84454 0.0
C1249 C 0.63669 0.68968 0.87926 0.0
C1250 C 0.62311 0.66875 0.88178 0.0
C1251 C 0.60561 0.65887 0.84963 0.0
C1252 C 0.5378 0.57978 0.64712 0.0
C1253 C 0.53282 0.56606 0.68502 0.0
C1254 C 0.54739 0.60092 0.65894 0.0
C1255 C 0.55206 0.60856 0.7088 0.0
C1256 C 0.54764 0.59491 0.74643 0.0
C1257 C 0.5381 0.57391 0.73472 0.0
C1258 C 0.55989 0.63044 0.72336 0.0
C1259 C 0.57754 0.64081 0.75525 0.0
C1260 C 0.54845 0.64003 0.71243 0.0
C1261 C 0.52997 0.63016 0.67817 0.0
C1262 C 0.51252 0.61228 0.69037 0.0
C1263 C 0.49515 0.60314 0.65769 0.0
C1264 C 0.49505 0.61185 0.61296 0.0
C1265 C 0.51231 0.62968 0.60073 0.0
C1266 C 0.52971 0.63889 0.63329 0.0
H1267 H 0.48156 0.60486 0.58788 0.0
H1268 H 0.65023 0.6973 0.90421 0.0
H1269 H 0.43615 0.14455 0.30758 0.0
H1270 H 0.44011 0.12073 0.36053 0.0
H1271 H 0.50382 0.15081 0.33542 0.0
H1272 H 0.50005 0.17489 0.2836 0.0
H1273 H 0.47923 0.1048 0.31821 0.0
H1274 H 0.49479 0.16145 0.43831 0.0
H1275 H 0.48674 0.18532 0.48304 0.0
H1276 H 0.43438 0.13449 0.53774 0.0
H1277 H 0.44196 0.11029 0.49266 0.0
H1278 H 0.52442 0.0666 0.47046 0.0
H1279 H 0.51691 0.09171 0.43595 0.0
H1280 H 0.46034 0.06486 0.50692 0.0
H1281 H 0.46838 0.04008 0.54362 0.0
H1282 H 0.47642 0.10639 0.50165 0.0
H1283 H 0.461 0.04968 0.39125 0.0
H1284 H 0.46761 0.02431 0.34918 0.0
H1285 H 0.51513 0.07196 0.27295 0.0
H1286 H 0.50938 0.09781 0.31626 0.0
C1287 C 0.45098 0.14605 0.31353 0.0
C1288 C 0.46781 0.16153 0.29165 0.0
C1289 C 0.45323 0.13253 0.34383 0.0
C1290 C 0.47227 0.1341 0.35191 0.0
C1291 C 0.48903 0.14942 0.32969 0.0
C1292 C 0.48687 0.16317 0.30029 0.0
C1293 C 0.47477 0.11948 0.38238 0.0
C1294 C 0.47878 0.10523 0.35833 0.0
C1295 C 0.4733 0.11952 0.43445 0.0
C1296 C 0.46879 0.13406 0.46159 0.0
C1297 C 0.48144 0.15535 0.45943 0.0
C1298 C 0.47699 0.16895 0.48495 0.0
C1299 C 0.46002 0.16142 0.51308 0.0
C1300 C 0.44749 0.14029 0.51586 0.0
C1301 C 0.45187 0.12664 0.49035 0.0
C1302 C 0.51064 0.06641 0.47977 0.0
C1303 C 0.49689 0.0514 0.50928 0.0
C1304 C 0.50631 0.08069 0.4599 0.0
C1305 C 0.4878 0.0798 0.46767 0.0
C1306 C 0.47465 0.06574 0.50018 0.0
C1307 C 0.47923 0.05163 0.52112 0.0
C1308 C 0.48161 0.09215 0.43762 0.0
C1309 C 0.47673 0.10582 0.46151 0.0
C1310 C 0.48181 0.09129 0.38508 0.0
C1311 C 0.48485 0.07573 0.35735 0.0
C1312 C 0.47295 0.05479 0.36575 0.0
C1313 C 0.47657 0.04032 0.34173 0.0
C1314 C 0.49175 0.0465 0.30828 0.0
C1315 C 0.50337 0.0672 0.29887 0.0
C1316 C 0.49997 0.08178 0.32327 0.0
H1317 H 0.49449 0.03525 0.28962 0.0
H1318 H 0.4566 0.17197 0.53283 0.0
H1319 H 0.34657 0.49832 0.18906 0.0
H1320 H 0.37903 0.50409 0.22613 0.0
H1321 H 0.36042 0.50981 0.37199 0.0
H1322 H 0.3284 0.50496 0.33468 0.0
H1323 H 0.39956 0.53435 0.37065 0.0
H1324 H 0.35224 0.46293 0.31688 0.0
H1325 H 0.33033 0.43467 0.25486 0.0
H1326 H 0.38173 0.44896 0.1702 0.0
H1327 H 0.40389 0.47748 0.2315 0.0
H1328 H 0.42571 0.48098 0.53475 0.0
H1329 H 0.40667 0.48685 0.4688 0.0
H1330 H 0.45752 0.50795 0.37726 0.0
H1331 H 0.47681 0.50208 0.44361 0.0
H1332 H 0.40998 0.4752 0.33655 0.0
H1333 H 0.45804 0.54377 0.40687 0.0
H1334 H 0.47717 0.5664 0.48125 0.0
H1335 H 0.42136 0.55366 0.543 0.0
H1336 H 0.40191 0.53058 0.46955 0.0
C1337 C 0.34967 0.50122 0.22896 0.0
C1338 C 0.33505 0.50101 0.25928 0.0
C1339 C 0.36815 0.50448 0.25007 0.0
C1340 C 0.37197 0.50694 0.30191 0.0
C1341 C 0.35781 0.50794 0.33191 0.0
C1342 C 0.33951 0.5051 0.3107 0.0
C1343 C 0.38954 0.50631 0.32552 0.0
C1344 C 0.40198 0.52156 0.36262 0.0
C1345 C 0.39291 0.48972 0.31486 0.0
C1346 C 0.37965 0.47247 0.27836 0.0
C1347 C 0.35883 0.4601 0.28488 0.0
C1348 C 0.34638 0.44404 0.24989 0.0
C1349 C 0.35462 0.44007 0.20853 0.0
C1350 C 0.37536 0.45209 0.20219 0.0
C1351 C 0.38787 0.4682 0.23703 0.0
C1352 C 0.43278 0.48665 0.5004 0.0
C1353 C 0.45284 0.49144 0.49444 0.0
C1354 C 0.42191 0.49001 0.4629 0.0
C1355 C 0.43082 0.49793 0.41863 0.0
C1356 C 0.45053 0.50191 0.41145 0.0
C1357 C 0.46155 0.4988 0.44942 0.0
C1358 C 0.41953 0.50298 0.38171 0.0
C1359 C 0.40814 0.48847 0.34265 0.0
C1360 C 0.41691 0.52003 0.39099 0.0
C1361 C 0.42855 0.53534 0.43291 0.0
C1362 C 0.44988 0.54576 0.43641 0.0
C1363 C 0.46076 0.55856 0.47848 0.0
C1364 C 0.45047 0.56128 0.517 0.0
C1365 C 0.42929 0.55145 0.51321 0.0
C1366 C 0.41833 0.53853 0.47133 0.0
H1367 H 0.45889 0.57109 0.54967 0.0
H1368 H 0.34496 0.42764 0.18146 0.0
H1369 H 0.87484 0.31009 0.24958 0.0
H1370 H 0.90008 0.33749 0.30758 0.0
H1371 H 0.86209 0.36473 0.31476 0.0
H1372 H 0.83653 0.33713 0.25766 0.0
H1373 H 0.90161 0.3928 0.30019 0.0
H1374 H 0.86513 0.33977 0.40984 0.0
H1375 H 0.85002 0.30493 0.43941 0.0
H1376 H 0.90893 0.31059 0.45405 0.0
H1377 H 0.92436 0.34537 0.42385 0.0
H1378 H 0.9555 0.44883 0.54658 0.0
H1379 H 0.92979 0.41604 0.50456 0.0
H1380 H 0.96817 0.42666 0.38304 0.0
H1381 H 0.99359 0.45955 0.42398 0.0
H1382 H 0.92627 0.37965 0.46009 0.0
H1383 H 0.93917 0.41983 0.27657 0.0
H1384 H 0.95575 0.45528 0.25034 0.0
H1385 H 0.94281 0.47576 0.38728 0.0
H1386 H 0.92543 0.44033 0.41346 0.0
C1387 C 0.87172 0.32176 0.26395 0.0
C1388 C 0.85364 0.3214 0.24904 0.0
C1389 C 0.88618 0.33742 0.29699 0.0
C1390 C 0.88283 0.353 0.31569 0.0
C1391 C 0.86493 0.35282 0.30064 0.0
C1392 C 0.85041 0.33711 0.2678 0.0
C1393 C 0.8983 0.36979 0.34997 0.0
C1394 C 0.90693 0.38993 0.3352 0.0
C1395 C 0.9051 0.366 0.39581 0.0
C1396 C 0.89587 0.34511 0.41416 0.0
C1397 C 0.87484 0.33352 0.41897 0.0
C1398 C 0.86622 0.31379 0.43592 0.0
C1399 C 0.8785 0.30553 0.44849 0.0
C1400 C 0.89943 0.317 0.44425 0.0
C1401 C 0.90812 0.33673 0.42727 0.0
C1402 C 0.95862 0.4439 0.51148 0.0
C1403 C 0.97622 0.45689 0.48778 0.0
C1404 C 0.94399 0.42516 0.48768 0.0
C1405 C 0.94697 0.41925 0.4403 0.0
C1406 C 0.9655 0.4312 0.41923 0.0
C1407 C 0.97994 0.44999 0.44253 0.0
C1408 C 0.9298 0.40247 0.40966 0.0
C1409 C 0.92085 0.38245 0.42512 0.0
C1410 C 0.92253 0.40636 0.3646 0.0
C1411 C 0.93123 0.42743 0.34724 0.0
C1412 C 0.93961 0.43184 0.30079 0.0
C1413 C 0.94918 0.45195 0.28596 0.0
C1414 C 0.95052 0.46779 0.31734 0.0
C1415 C 0.94192 0.4635 0.36319 0.0
C1416 C 0.93208 0.44339 0.37788 0.0
H1417 H 0.95804 0.48337 0.30593 0.0
H1418 H 0.8718 0.29025 0.46161 0.0
H1419 H 0.52866 0.81548 0.2793 0.0
H1420 H 0.52357 0.83562 0.34418 0.0
H1421 H 0.51331 0.86955 0.23259 0.0
H1422 H 0.51888 0.84976 0.16746 0.0
H1423 H 0.53989 0.89459 0.30666 0.0
H1424 H 0.47424 0.8339 0.29191 0.0
H1425 H 0.44994 0.79677 0.29003 0.0
H1426 H 0.46998 0.79517 0.43989 0.0
H1427 H 0.49462 0.83226 0.44242 0.0
H1428 H 0.48453 0.92902 0.46345 0.0
H1429 H 0.48268 0.89951 0.41768 0.0
H1430 H 0.54156 0.91533 0.48363 0.0
H1431 H 0.54341 0.94468 0.5303 0.0
H1432 H 0.48942 0.86464 0.43378 0.0
H1433 H 0.56922 0.92205 0.38002 0.0
H1434 H 0.59189 0.95951 0.37941 0.0
H1435 H 0.54023 0.96766 0.35976 0.0
H1436 H 0.51733 0.93025 0.35921 0.0
C1437 C 0.52538 0.82728 0.26861 0.0
C1438 C 0.52429 0.83116 0.21835 0.0
C1439 C 0.52228 0.83862 0.30566 0.0
C1440 C 0.51793 0.85396 0.29312 0.0
C1441 C 0.51661 0.85772 0.24296 0.0
C1442 C 0.51967 0.84635 0.20583 0.0
C1443 C 0.5157 0.86672 0.33245 0.0
C1444 C 0.52885 0.88799 0.33439 0.0
C1445 C 0.50125 0.85811 0.36857 0.0
C1446 C 0.48642 0.83582 0.36716 0.0
C1447 C 0.47359 0.8256 0.32432 0.0
C1448 C 0.45973 0.80456 0.32316 0.0
C1449 C 0.45846 0.7936 0.36477 0.0
C1450 C 0.47101 0.80367 0.40766 0.0
C1451 C 0.48491 0.8247 0.40899 0.0
C1452 C 0.49675 0.92578 0.46961 0.0
C1453 C 0.51433 0.93939 0.49946 0.0
C1454 C 0.4956 0.90885 0.44368 0.0
C1455 C 0.51214 0.90558 0.44676 0.0
C1456 C 0.52872 0.91779 0.4807 0.0
C1457 C 0.52974 0.93454 0.5073 0.0
C1458 C 0.51375 0.89229 0.40799 0.0
C1459 C 0.50053 0.87106 0.40616 0.0
C1460 C 0.52792 0.90091 0.37138 0.0
C1461 C 0.54158 0.92339 0.37027 0.0
C1462 C 0.56273 0.93184 0.37536 0.0
C1463 C 0.57561 0.95306 0.37518 0.0
C1464 C 0.5675 0.96596 0.36974 0.0
C1465 C 0.5465 0.95766 0.36416 0.0
C1466 C 0.53356 0.93646 0.36411 0.0
H1467 H 0.5775 0.98238 0.36972 0.0
H1468 H 0.44771 0.77732 0.3638 0.0
H1469 H 0.73853 0.57211 0.29135 0.0
H1470 H 0.71564 0.5765 0.34515 0.0
H1471 H 0.66629 0.54356 0.23342 0.0
H1472 H 0.68912 0.53967 0.17914 0.0
H1473 H 0.66587 0.57649 0.27357 0.0
H1474 H 0.67276 0.52014 0.33343 0.0
H1475 H 0.69193 0.50435 0.36693 0.0
H1476 H 0.71424 0.54789 0.49333 0.0
H1477 H 0.69538 0.56411 0.4602 0.0
H1478 H 0.57424 0.52865 0.38641 0.0
H1479 H 0.60515 0.53787 0.34522 0.0
H1480 H 0.64113 0.57198 0.47872 0.0
H1481 H 0.61 0.56273 0.52079 0.0
H1482 H 0.65332 0.546 0.43716 0.0
H1483 H 0.64076 0.59804 0.38339 0.0
H1484 H 0.62067 0.61282 0.34981 0.0
H1485 H 0.6085 0.57718 0.21193 0.0
H1486 H 0.62825 0.56192 0.24491 0.0
C1487 C 0.72286 0.56602 0.27809 0.0
C1488 C 0.71558 0.55535 0.23119 0.0
C1489 C 0.70978 0.56843 0.30897 0.0
C1490 C 0.68921 0.56018 0.29349 0.0
C1491 C 0.68209 0.55003 0.24618 0.0
C1492 C 0.69511 0.54762 0.21541 0.0
C1493 C 0.67474 0.56135 0.32674 0.0
C1494 C 0.66309 0.5698 0.3093 0.0
C1495 C 0.6716 0.55325 0.37413 0.0
C1496 C 0.68288 0.54349 0.39405 0.0
C1497 C 0.68189 0.52645 0.36816 0.0
C1498 C 0.69267 0.5174 0.38711 0.0
C1499 C 0.70436 0.52516 0.43214 0.0
C1500 C 0.70523 0.54194 0.45839 0.0
C1501 C 0.69449 0.55105 0.43956 0.0
C1502 C 0.58868 0.53818 0.4072 0.0
C1503 C 0.58961 0.54491 0.45703 0.0
C1504 C 0.60637 0.54356 0.38338 0.0
C1505 C 0.62544 0.55581 0.4087 0.0
C1506 C 0.62654 0.56261 0.45846 0.0
C1507 C 0.60876 0.55735 0.48236 0.0
C1508 C 0.64398 0.56049 0.38317 0.0
C1509 C 0.6564 0.55315 0.402 0.0
C1510 C 0.6478 0.56957 0.33698 0.0
C1511 C 0.63593 0.57875 0.31679 0.0
C1512 C 0.63368 0.59323 0.34603 0.0
C1513 C 0.62237 0.60171 0.32708 0.0
C1514 C 0.61329 0.59592 0.27879 0.0
C1515 C 0.61554 0.58165 0.24933 0.0
C1516 C 0.62683 0.5731 0.26812 0.0
H1517 H 0.60454 0.60251 0.26419 0.0
H1518 H 0.71269 0.51813 0.44677 0.0
H1519 H 0.14493 0.73452 0.28676 0.0
H1520 H 0.12766 0.70974 0.34862 0.0
H1521 H 0.15395 0.67398 0.297 0.0
H1522 H 0.17179 0.69896 0.23599 0.0
H1523 H 0.11286 0.65034 0.30876 0.0
H1524 H 0.17242 0.7027 0.40323 0.0
H1525 H 0.19672 0.73798 0.43632 0.0
H1526 H 0.14931 0.74106 0.50973 0.0
H1527 H 0.12464 0.70587 0.47645 0.0
H1528 H 0.08464 0.58113 0.49069 0.0
H1529 H 0.10886 0.61078 0.44852 0.0
H1530 H 0.08061 0.64481 0.49902 0.0
H1531 H 0.0563 0.61519 0.54178 0.0
H1532 H 0.12303 0.66988 0.48972 0.0
H1533 H 0.06332 0.61929 0.39345 0.0
H1534 H 0.03812 0.58408 0.36164 0.0
H1535 H 0.08463 0.57822 0.29116 0.0
H1536 H 0.11018 0.6133 0.32333 0.0
C1537 C 0.14727 0.72153 0.28883 0.0
C1538 C 0.15986 0.71884 0.25627 0.0
C1539 C 0.13731 0.70734 0.3242 0.0
C1540 C 0.13966 0.69011 0.32775 0.0
C1541 C 0.15192 0.68717 0.29489 0.0
C1542 C 0.162 0.70142 0.25975 0.0
C1543 C 0.12907 0.67496 0.36516 0.0
C1544 C 0.11533 0.65458 0.34833 0.0
C1545 C 0.13183 0.68059 0.41677 0.0
C1546 C 0.14664 0.70172 0.43692 0.0
C1547 C 0.16714 0.71096 0.42607 0.0
C1548 C 0.18098 0.73093 0.44493 0.0
C1549 C 0.17455 0.74178 0.475 0.0
C1550 C 0.15427 0.73265 0.48637 0.0
C1551 C 0.14035 0.71269 0.46755 0.0
C1552 C 0.08396 0.59513 0.49433 0.0
C1553 C 0.06824 0.59562 0.51876 0.0
C1554 C 0.09781 0.61206 0.47004 0.0
C1555 C 0.09617 0.62977 0.46953 0.0
C1556 C 0.08203 0.63121 0.49863 0.0
C1557 C 0.06815 0.61424 0.52317 0.0
C1558 C 0.10708 0.64531 0.43321 0.0
C1559 C 0.1207 0.66569 0.45014 0.0
C1560 C 0.10408 0.63978 0.38155 0.0
C1561 C 0.08869 0.61884 0.3612 0.0
C1562 C 0.06819 0.61044 0.37144 0.0
C1563 C 0.05385 0.59051 0.35333 0.0
C1564 C 0.05978 0.5789 0.32449 0.0
C1565 C 0.08006 0.58723 0.31356 0.0
C1566 C 0.09448 0.60713 0.3317 0.0
H1567 H 0.04866 0.56347 0.31053 0.0
H1568 H 0.1853 0.75723 0.48957 0.0
loop_
_geom_bond_atom_site_label_1
_geom_bond_atom_site_label_2
_geom_bond_distance
_geom_bond_site_symmetry_2
_ccdc_geom_bond_type
C0 C1 1.384 . S
C0 C2 1.384 . S
C0 H28 0.931 . S
C1 C0 1.384 . S
C1 C4 1.382 . S
C2 C0 1.384 . S
C2 C3 1.381 . S
C2 H29 0.930 . S
C3 C2 1.381 . S
C3 C5 1.381 . S
C3 C6 1.487 . S
C4 C1 1.382 . S
C4 C5 1.387 . S
C4 H30 0.930 . S
C5 C3 1.381 . S
C5 C4 1.387 . S
C5 H31 0.931 . S
C6 C3 1.487 . S
C6 C13 1.399 . S
C6 N44 1.343 . S
C7 C8 1.384 . S
C7 C9 1.384 . S
C7 H32 0.931 . S
C8 C7 1.384 . S
C8 C11 1.382 . S
C9 C7 1.384 . S
C9 C10 1.381 . S
C9 H33 0.930 . S
C10 C9 1.381 . S
C10 C12 1.381 . S
C10 C13 1.487 . S
C11 C8 1.382 . S
C11 C12 1.387 . S
C11 H34 0.930 . S
C12 C10 1.381 . S
C12 C11 1.387 . S
C12 H35 0.931 . S
C13 C6 1.399 . S
C13 C10 1.487 . S
C13 N45 1.343 . S
C14 C15 1.384 . S
C14 C16 1.384 . S
C14 H36 0.931 . S
C15 C14 1.384 . S
C15 C18 1.382 . S
C16 C14 1.384 . S
C16 C17 1.381 . S
C16 H37 0.930 . S
C17 C16 1.381 . S
C17 C19 1.381 . S
C17 C20 1.487 . S
C18 C15 1.382 . S
C18 C19 1.387 . S
C18 H38 0.930 . S
C19 C17 1.381 . S
C19 C18 1.387 . S
C19 H39 0.931 . S
C20 C17 1.487 . S
C20 C27 1.399 . S
C20 N45 1.343 . S
C21 C22 1.384 . S
C21 C23 1.384 . S
C21 H40 0.931 . S
C22 C21 1.384 . S
C22 C25 1.382 . S
C23 C21 1.384 . S
C23 C24 1.381 . S
C23 H41 0.930 . S
C24 C23 1.381 . S
C24 C26 1.381 . S
C24 C27 1.487 . S
C25 C22 1.382 . S
C25 C26 1.387 . S
C25 H42 0.930 . S
C26 C24 1.381 . S
C26 C25 1.387 . S
C26 H43 0.931 . S
C27 C20 1.399 . S
C27 C24 1.487 . S
C27 N44 1.343 . S
H28 C0 0.931 . S
H29 C2 0.930 . S
H30 C4 0.930 . S
H31 C5 0.931 . S
H32 C7 0.931 . S
H33 C9 0.930 . S
H34 C11 0.930 . S
H35 C12 0.931 . S
H36 C14 0.931 . S
H37 C16 0.930 . S
H38 C18 0.930 . S
H39 C19 0.931 . S
H40 C21 0.931 . S
H41 C23 0.930 . S
H42 C25 0.930 . S
H43 C26 0.931 . S
N44 C6 1.343 . S
N44 C27 1.343 . S
N45 C13 1.343 . S
N45 C20 1.343 . S
C46 C47 1.384 . S
C46 C48 1.384 . S
C46 H74 0.931 . S
C47 C46 1.384 . S
C47 C50 1.382 . S
C48 C46 1.384 . S
C48 C49 1.381 . S
C48 H75 0.930 . S
C49 C48 1.381 . S
C49 C51 1.381 . S
C49 C52 1.487 . S
C50 C47 1.382 . S
C50 C51 1.387 . S
C50 H76 0.930 . S
C51 C49 1.381 . S
C51 C50 1.387 . S
C51 H77 0.931 . S
C52 C49 1.487 . S
C52 C59 1.399 . S
C52 N90 1.343 . S
C53 C54 1.384 . S
C53 C55 1.385 1_556 S
C53 H78 0.931 1_556 S
C54 C53 1.384 . S
C54 C57 1.382 . S
C55 C53 1.385 1_554 S
C55 C56 1.381 . S
C55 H79 0.930 . S
C56 C55 1.381 . S
C56 C58 1.381 1_554 S
C56 C59 1.487 . S
C57 C54 1.382 . S
C57 C58 1.387 . S
C57 H80 0.930 . S
C58 C56 1.381 1_556 S
C58 C57 1.387 . S
C58 H81 0.931 . S
C59 C52 1.399 . S
C59 C56 1.487 . S
C59 N91 1.343 . S
C60 C61 1.384 1_554 S
C60 C62 1.384 . S
C60 H82 0.931 . S
C61 C60 1.384 1_556 S
C61 C64 1.382 . S
C62 C60 1.384 . S
C62 C63 1.381 . S
C62 H83 0.930 . S
C63 C62 1.381 . S
C63 C65 1.381 1_554 S
C63 C66 1.487 . S
C64 C61 1.382 . S
C64 C65 1.387 . S
C64 H84 0.930 . S
C65 C63 1.381 1_556 S
C65 C64 1.387 . S
C65 H85 0.931 . S
C66 C63 1.487 . S
C66 C73 1.399 . S
C66 N91 1.343 . S
C67 C68 1.384 . S
C67 C69 1.384 . S
C67 H86 0.931 . S
C68 C67 1.384 . S
C68 C71 1.382 . S
C69 C67 1.384 . S
C69 C70 1.381 . S
C69 H87 0.930 . S
C70 C69 1.381 . S
C70 C72 1.381 . S
C70 C73 1.487 . S
C71 C68 1.382 . S
C71 C72 1.387 . S
C71 H88 0.930 . S
C72 C70 1.381 . S
C72 C71 1.387 . S
C72 H89 0.931 . S
C73 C66 1.399 . S
C73 C70 1.487 . S
C73 N90 1.343 . S
H74 C46 0.931 . S
H75 C48 0.930 . S
H76 C50 0.930 . S
H77 C51 0.931 . S
H78 C53 0.931 1_554 S
H79 C55 0.930 . S
H80 C57 0.930 . S
H81 C58 0.931 . S
H82 C60 0.931 . S
H83 C62 0.930 . S
H84 C64 0.930 . S
H85 C65 0.931 . S
H86 C67 0.931 . S
H87 C69 0.930 . S
H88 C71 0.930 . S
H89 C72 0.931 . S
N90 C52 1.343 . S
N90 C73 1.343 . S
N91 C59 1.343 . S
N91 C66 1.343 . S
C92 C93 1.384 . S
C92 C94 1.384 . S
C92 H120 0.931 . S
C93 C92 1.384 . S
C93 C96 1.382 . S
C94 C92 1.384 . S
C94 C95 1.381 . S
C94 H121 0.930 1_556 S
C95 C94 1.381 . S
C95 C97 1.381 . S
C95 C98 1.487 1_556 S
C96 C93 1.382 . S
C96 C97 1.387 . S
C96 H122 0.930 . S
C97 C95 1.381 . S
C97 C96 1.387 . S
C97 H123 0.931 . S
C98 C95 1.487 1_554 S
C98 C105 1.399 . S
C98 N136 1.343 1_554 S
C99 C100 1.384 . S
C99 C101 1.384 . S
C99 H124 0.931 . S
C100 C99 1.384 . S
C100 C103 1.382 . S
C101 C99 1.384 . S
C101 C102 1.381 . S
C101 H125 0.930 . S
C102 C101 1.381 . S
C102 C104 1.381 . S
C102 C105 1.487 . S
C103 C100 1.382 . S
C103 C104 1.387 . S
C103 H126 0.930 . S
C104 C102 1.381 . S
C104 C103 1.387 . S
C104 H127 0.931 . S
C105 C98 1.399 . S
C105 C102 1.487 . S
C105 N137 1.343 . S
C106 C107 1.384 . S
C106 C108 1.384 . S
C106 H128 0.931 . S
C107 C106 1.384 . S
C107 C110 1.382 . S
C108 C106 1.384 . S
C108 C109 1.381 . S
C108 H129 0.930 . S
C109 C108 1.381 . S
C109 C111 1.381 . S
C109 C112 1.487 . S
C110 C107 1.382 . S
C110 C111 1.387 . S
C110 H130 0.930 . S
C111 C109 1.381 . S
C111 C110 1.387 . S
C111 H131 0.931 . S
C112 C109 1.487 . S
C112 C119 1.399 . S
C112 N137 1.343 . S
C113 C114 1.384 . S
C113 C115 1.384 . S
C113 H132 0.931 . S
C114 C113 1.384 . S
C114 C117 1.382 . S
C115 C113 1.384 . S
C115 C116 1.381 . S
C115 H133 0.930 1_556 S
C116 C115 1.381 . S
C116 C118 1.381 . S
C116 C119 1.487 1_556 S
C117 C114 1.382 . S
C117 C118 1.387 . S
C117 H134 0.930 . S
C118 C116 1.381 . S
C118 C117 1.387 . S
C118 H135 0.931 . S
C119 C112 1.399 . S
C119 C116 1.487 1_554 S
C119 N136 1.343 1_554 S
H120 C92 0.931 . S
H121 C94 0.930 1_554 S
H122 C96 0.930 . S
H123 C97 0.931 . S
H124 C99 0.931 . S
H125 C101 0.930 . S
H126 C103 0.930 . S
H127 C104 0.931 . S
H128 C106 0.931 . S
H129 C108 0.930 . S
H130 C110 0.930 . S
H131 C111 0.931 . S
H132 C113 0.931 . S
H133 C115 0.930 1_554 S
H134 C117 0.930 . S
H135 C118 0.931 . S
N136 C98 1.343 1_556 S
N136 C119 1.343 1_556 S
N137 C105 1.343 . S
N137 C112 1.343 . S
C138 C139 1.384 . S
C138 C140 1.384 . S
C138 H166 0.931 . S
C139 C138 1.384 . S
C139 C142 1.382 . S
C140 C138 1.384 . S
C140 C141 1.381 . S
C140 H167 0.928 1_556 S
C141 C140 1.381 . S
C141 C143 1.381 . S
C141 C144 1.487 . S
C142 C139 1.382 . S
C142 C143 1.387 . S
C142 H168 0.930 . S
C143 C141 1.381 . S
C143 C142 1.387 . S
C143 H169 0.931 . S
C144 C141 1.487 . S
C144 C151 1.399 1_556 S
C144 N182 1.343 . S
C145 C146 1.384 . S
C145 C147 1.384 . S
C145 H170 0.931 . S
C146 C145 1.384 . S
C146 C149 1.382 . S
C147 C145 1.384 . S
C147 C148 1.381 . S
C147 H171 0.930 . S
C148 C147 1.381 . S
C148 C150 1.381 . S
C148 C151 1.487 . S
C149 C146 1.382 . S
C149 C150 1.387 . S
C149 H172 0.930 . S
C150 C148 1.381 . S
C150 C149 1.387 . S
C150 H173 0.931 . S
C151 C144 1.399 1_554 S
C151 C148 1.487 . S
C151 N183 1.343 . S
C152 C153 1.384 . S
C152 C154 1.384 . S
C152 H174 0.931 . S
C153 C152 1.384 . S
C153 C156 1.382 . S
C154 C152 1.384 . S
C154 C155 1.381 . S
C154 H175 0.930 . S
C155 C154 1.381 . S
C155 C157 1.381 . S
C155 C158 1.487 . S
C156 C153 1.382 . S
C156 C157 1.387 . S
C156 H176 0.930 . S
C157 C155 1.381 . S
C157 C156 1.387 . S
C157 H177 0.931 . S
C158 C155 1.487 . S
C158 C165 1.399 1_554 S
C158 N183 1.343 . S
C159 C160 1.384 . S
C159 C161 1.384 . S
C159 H178 0.931 . S
C160 C159 1.384 . S
C160 C163 1.382 . S
C161 C159 1.384 . S
C161 C162 1.381 . S
C161 H179 0.930 . S
C162 C161 1.381 . S
C162 C164 1.381 . S
C162 C165 1.487 . S
C163 C160 1.382 . S
C163 C164 1.387 . S
C163 H180 0.930 . S
C164 C162 1.381 . S
C164 C163 1.387 . S
C164 H181 0.931 . S
C165 C158 1.399 1_556 S
C165 C162 1.487 . S
C165 N182 1.343 . S
H166 C138 0.931 . S
H167 C140 0.928 1_554 S
H168 C142 0.930 . S
H169 C143 0.931 . S
H170 C145 0.931 . S
H171 C147 0.930 . S
H172 C149 0.930 . S
H173 C150 0.931 . S
H174 C152 0.931 . S
H175 C154 0.930 . S
H176 C156 0.930 . S
H177 C157 0.931 . S
H178 C159 0.931 . S
H179 C161 0.930 . S
H180 C163 0.930 . S
H181 C164 0.931 . S
N182 C144 1.343 . S
N182 C165 1.343 . S
N183 C151 1.343 . S
N183 C158 1.343 . S
C184 C185 1.384 1_554 S
C184 C186 1.384 . S
C184 H212 0.931 . S
C185 C184 1.384 1_556 S
C185 C188 1.382 . S
C186 C184 1.384 . S
C186 C187 1.381 . S
C186 H213 0.930 . S
C187 C186 1.381 . S
C187 C189 1.381 . S
C187 C190 1.487 . S
C188 C185 1.382 . S
C188 C189 1.387 1_556 S
C188 H214 0.930 . S
C189 C187 1.381 . S
C189 C188 1.387 1_554 S
C189 H215 0.932 . S
C190 C187 1.487 . S
C190 C197 1.399 . S
C190 N228 1.343 . S
C191 C192 1.384 . S
C191 C193 1.384 . S
C191 H216 0.931 . S
C192 C191 1.384 . S
C192 C195 1.382 . S
C193 C191 1.384 . S
C193 C194 1.381 . S
C193 H217 0.930 . S
C194 C193 1.381 . S
C194 C196 1.381 . S
C194 C197 1.487 . S
C195 C192 1.382 . S
C195 C196 1.387 . S
C195 H218 0.930 . S
C196 C194 1.381 . S
C196 C195 1.387 . S
C196 H219 0.931 . S
C197 C190 1.399 . S
C197 C194 1.487 . S
C197 N229 1.343 . S
C198 C199 1.384 . S
C198 C200 1.384 . S
C198 H220 0.931 . S
C199 C198 1.384 . S
C199 C202 1.382 . S
C200 C198 1.384 . S
C200 C201 1.381 . S
C200 H221 0.930 . S
C201 C200 1.381 . S
C201 C203 1.381 . S
C201 C204 1.487 . S
C202 C199 1.382 . S
C202 C203 1.387 . S
C202 H222 0.930 . S
C203 C201 1.381 . S
C203 C202 1.387 . S
C203 H223 0.931 . S
C204 C201 1.487 . S
C204 C211 1.399 . S
C204 N229 1.343 . S
C205 C206 1.384 1_554 S
C205 C207 1.384 . S
C205 H224 0.931 . S
C206 C205 1.384 1_556 S
C206 C209 1.382 . S
C207 C205 1.384 . S
C207 C208 1.381 . S
C207 H225 0.930 . S
C208 C207 1.381 . S
C208 C210 1.390 . S
C208 C211 1.487 . S
C209 C206 1.382 . S
C209 C210 1.381 1_556 S
C209 H226 0.930 . S
C210 C208 1.390 . S
C210 C209 1.381 1_554 S
C210 H227 0.929 1_554 S
C211 C204 1.399 . S
C211 C208 1.487 . S
C211 N228 1.343 . S
H212 C184 0.931 . S
H213 C186 0.930 . S
H214 C188 0.930 . S
H215 C189 0.932 . S
H216 C191 0.931 . S
H217 C193 0.930 . S
H218 C195 0.930 . S
H219 C196 0.931 . S
H220 C198 0.931 . S
H221 C200 0.930 . S
H222 C202 0.930 . S
H223 C203 0.931 . S
H224 C205 0.931 . S
H225 C207 0.930 . S
H226 C209 0.930 . S
H227 C210 0.929 1_556 S
N228 C190 1.343 . S
N228 C211 1.343 . S
N229 C197 1.343 . S
N229 C204 1.343 . S
C230 C231 1.384 . S
C230 C232 1.384 . S
C230 H258 0.931 . S
C231 C230 1.384 . S
C231 C234 1.382 . S
C232 C230 1.384 . S
C232 C233 1.381 . S
C232 H259 0.930 . S
C233 C232 1.381 . S
C233 C235 1.381 . S
C233 C236 1.487 . S
C234 C231 1.382 . S
C234 C235 1.387 . S
C234 H260 0.930 1_554 S
C235 C233 1.381 . S
C235 C234 1.387 . S
C235 H261 0.931 . S
C236 C233 1.487 . S
C236 C243 1.399 . S
C236 N274 1.343 . S
C237 C238 1.384 . S
C237 C239 1.384 . S
C237 H262 0.931 . S
C238 C237 1.384 . S
C238 C241 1.382 . S
C239 C237 1.384 . S
C239 C240 1.381 . S
C239 H263 0.930 . S
C240 C239 1.381 . S
C240 C242 1.381 . S
C240 C243 1.487 . S
C241 C238 1.382 . S
C241 C242 1.387 . S
C241 H264 0.930 . S
C242 C240 1.381 . S
C242 C241 1.387 . S
C242 H265 0.931 . S
C243 C236 1.399 . S
C243 C240 1.487 . S
C243 N275 1.343 . S
C244 C245 1.384 . S
C244 C246 1.384 . S
C244 H266 0.931 . S
C245 C244 1.384 . S
C245 C248 1.382 . S
C246 C244 1.384 . S
C246 C247 1.381 . S
C246 H267 0.930 . S
C247 C246 1.381 . S
C247 C249 1.381 . S
C247 C250 1.487 . S
C248 C245 1.382 . S
C248 C249 1.387 . S
C248 H268 0.930 . S
C249 C247 1.381 . S
C249 C248 1.387 . S
C249 H269 0.931 . S
C250 C247 1.487 . S
C250 C257 1.399 . S
C250 N275 1.343 . S
C251 C252 1.384 . S
C251 C253 1.384 . S
C251 H270 0.931 . S
C252 C251 1.384 . S
C252 C255 1.382 . S
C253 C251 1.384 . S
C253 C254 1.381 . S
C253 H271 0.930 . S
C254 C253 1.381 . S
C254 C256 1.381 . S
C254 C257 1.487 . S
C255 C252 1.382 . S
C255 C256 1.387 . S
C255 H272 0.930 . S
C256 C254 1.381 . S
C256 C255 1.387 . S
C256 H273 0.931 . S
C257 C250 1.399 . S
C257 C254 1.487 . S
C257 N274 1.343 . S
H258 C230 0.931 . S
H259 C232 0.930 . S
H260 C234 0.930 1_556 S
H261 C235 0.931 . S
H262 C237 0.931 . S
H263 C239 0.930 . S
H264 C241 0.930 . S
H265 C242 0.931 . S
H266 C244 0.931 . S
H267 C246 0.930 . S
H268 C248 0.930 . S
H269 C249 0.931 . S
H270 C251 0.931 . S
H271 C253 0.930 . S
H272 C255 0.930 . S
H273 C256 0.931 . S
N274 C236 1.343 . S
N274 C257 1.343 . S
N275 C243 1.343 . S
N275 C250 1.343 . S
C276 O303 1.312 . S
C276 O304 1.208 . S
C277 O298 1.331 . S
C277 O301 1.244 . S
C278 O300 1.264 . S
C278 O302 1.273 . S
Mg279 O281 1.936 1_455 S
Mg279 O288 2.081 1_455 S
Mg279 O290 2.023 . S
Mg279 O294 2.031 1_455 S
Mg279 O303 2.291 . S
Mg280 O281 1.963 . S
Mg280 O291 1.942 . S
Mg280 O292 1.955 1_655 S
Mg280 O299 1.986 . S
O281 Mg279 1.936 1_655 S
O281 Mg280 1.963 . S
O281 Mg282 1.915 1_655 S
Mg282 O281 1.915 1_455 S
Mg282 O283 1.915 . S
Mg282 O287 2.013 . S
Mg282 O293 2.114 1_455 S
Mg282 O297 2.013 1_455 S
Mg282 O303 2.114 . S
O283 Mg282 1.915 . S
O283 Mg284 1.936 . S
O283 Mg285 1.963 . S
Mg284 O283 1.936 . S
Mg284 O293 2.291 1_455 S
Mg284 O298 2.081 . S
Mg284 O300 2.023 1_455 S
Mg284 O304 2.031 . S
Mg285 O283 1.963 . S
Mg285 O289 1.986 . S
Mg285 O301 1.942 . S
Mg285 O302 1.955 1_455 S
C286 O297 1.191 . S
C286 O299 1.307 . S
O287 Mg282 2.013 . S
O287 C306 1.191 . S
O288 Mg279 2.081 1_655 S
O288 C296 1.331 . S
O289 Mg285 1.986 . S
O289 C306 1.307 . S
O290 Mg279 2.023 . S
O290 C305 1.264 . S
O291 Mg280 1.942 . S
O291 C296 1.244 . S
O292 Mg280 1.955 1_455 S
O292 C305 1.273 . S
O293 Mg282 2.114 1_655 S
O293 Mg284 2.291 1_655 S
O293 C295 1.312 . S
O294 Mg279 2.031 1_655 S
O294 C295 1.208 . S
C295 O293 1.312 . S
C295 O294 1.208 . S
C296 O288 1.331 . S
C296 O291 1.244 . S
O297 Mg282 2.013 1_655 S
O297 C286 1.191 . S
O298 C277 1.331 . S
O298 Mg284 2.081 . S
O299 Mg280 1.986 . S
O299 C286 1.307 . S
O300 C278 1.264 . S
O300 Mg284 2.023 1_655 S
O301 C277 1.244 . S
O301 Mg285 1.942 . S
O302 C278 1.273 . S
O302 Mg285 1.955 1_655 S
O303 C276 1.312 . S
O303 Mg279 2.291 . S
O303 Mg282 2.114 . S
O304 C276 1.208 . S
O304 Mg284 2.031 . S
C305 O290 1.264 . S
C305 O292 1.273 . S
C306 O287 1.191 . S
C306 O289 1.307 . S
C307 O334 1.312 . S
C307 O335 1.208 . S
C308 O329 1.331 . S
C308 O332 1.244 . S
C309 O331 1.264 . S
C309 O333 1.273 . S
Mg310 O312 1.910 1_545 S
Mg310 O319 2.081 1_545 S
Mg310 O321 2.023 . S
Mg310 O325 2.031 1_545 S
Mg310 O334 2.291 . S
Mg311 O312 1.971 1_545 S
Mg311 O322 1.941 1_545 S
Mg311 O323 1.962 . S
Mg311 O330 1.979 1_545 S
O312 Mg310 1.910 1_565 S
O312 Mg311 1.971 1_565 S
O312 Mg313 1.918 1_565 S
Mg313 O312 1.918 1_545 S
Mg313 O314 1.915 . S
Mg313 O318 2.013 . S
Mg313 O324 2.114 1_545 S
Mg313 O328 2.013 1_545 S
Mg313 O334 2.114 . S
O314 Mg313 1.915 . S
O314 Mg315 1.936 . S
O314 Mg316 1.963 . S
Mg315 O314 1.936 . S
Mg315 O324 2.291 1_545 S
Mg315 O329 2.081 . S
Mg315 O331 2.023 1_545 S
Mg315 O335 2.031 . S
Mg316 O314 1.963 . S
Mg316 O320 1.986 . S
Mg316 O332 1.942 . S
Mg316 O333 1.955 1_545 S
C317 O328 1.191 . S
C317 O330 1.307 . S
O318 Mg313 2.013 . S
O318 C337 1.191 . S
O319 Mg310 2.081 1_565 S
O319 C327 1.331 . S
O320 Mg316 1.986 . S
O320 C337 1.307 . S
O321 Mg310 2.023 . S
O321 C336 1.264 . S
O322 Mg311 1.941 1_565 S
O322 C327 1.244 . S
O323 Mg311 1.962 . S
O323 C336 1.273 . S
O324 Mg313 2.114 1_565 S
O324 Mg315 2.291 1_565 S
O324 C326 1.312 . S
O325 Mg310 2.031 1_565 S
O325 C326 1.208 . S
C326 O324 1.312 . S
C326 O325 1.208 . S
C327 O319 1.331 . S
C327 O322 1.244 . S
O328 Mg313 2.013 1_565 S
O328 C317 1.191 . S
O329 C308 1.331 . S
O329 Mg315 2.081 . S
O330 Mg311 1.979 1_565 S
O330 C317 1.307 . S
O331 C309 1.264 . S
O331 Mg315 2.023 1_565 S
O332 C308 1.244 . S
O332 Mg316 1.942 . S
O333 C309 1.273 . S
O333 Mg316 1.955 1_565 S
O334 C307 1.312 . S
O334 Mg310 2.291 . S
O334 Mg313 2.114 . S
O335 C307 1.208 . S
O335 Mg315 2.031 . S
C336 O321 1.264 . S
C336 O323 1.273 . S
C337 O318 1.191 . S
C337 O320 1.307 . S
C338 O365 1.312 . S
C338 O366 1.208 . S
C339 O360 1.331 . S
C339 O363 1.244 . S
C340 O362 1.264 . S
C340 O364 1.273 . S
Mg341 O343 1.936 . S
Mg341 O350 2.081 . S
Mg341 O352 2.023 . S
Mg341 O356 2.031 . S
Mg341 O365 2.291 . S
Mg342 O343 1.963 . S
Mg342 O353 1.942 . S
Mg342 O354 1.955 . S
Mg342 O361 1.986 . S
O343 Mg341 1.936 . S
O343 Mg342 1.963 . S
O343 Mg344 1.915 . S
Mg344 O343 1.915 . S
Mg344 O345 1.915 . S
Mg344 O349 2.013 . S
Mg344 O355 2.114 . S
Mg344 O359 2.013 . S
Mg344 O365 2.114 . S
O345 Mg344 1.915 . S
O345 Mg346 1.936 . S
O345 Mg347 1.963 . S
Mg346 O345 1.936 . S
Mg346 O355 2.291 . S
Mg346 O360 2.081 . S
Mg346 O362 2.023 . S
Mg346 O366 2.031 . S
Mg347 O345 1.963 . S
Mg347 O351 1.986 . S
Mg347 O363 1.942 . S
Mg347 O364 1.955 . S
C348 O359 1.191 . S
C348 O361 1.307 . S
O349 Mg344 2.013 . S
O349 C368 1.191 . S
O350 Mg341 2.081 . S
O350 C358 1.331 . S
O351 Mg347 1.986 . S
O351 C368 1.307 . S
O352 Mg341 2.023 . S
O352 C367 1.264 . S
O353 Mg342 1.942 . S
O353 C358 1.244 . S
O354 Mg342 1.955 . S
O354 C367 1.273 . S
O355 Mg344 2.114 . S
O355 Mg346 2.291 . S
O355 C357 1.312 . S
O356 Mg341 2.031 . S
O356 C357 1.208 . S
C357 O355 1.312 . S
C357 O356 1.208 . S
C358 O350 1.331 . S
C358 O353 1.244 . S
O359 Mg344 2.013 . S
O359 C348 1.191 . S
O360 C339 1.331 . S
O360 Mg346 2.081 . S
O361 Mg342 1.986 . S
O361 C348 1.307 . S
O362 C340 1.264 . S
O362 Mg346 2.023 . S
O363 C339 1.244 . S
O363 Mg347 1.942 . S
O364 C340 1.273 . S
O364 Mg347 1.955 . S
O365 C338 1.312 . S
O365 Mg341 2.291 . S
O365 Mg344 2.114 . S
O366 C338 1.208 . S
O366 Mg346 2.031 . S
C367 O352 1.264 . S
C367 O354 1.273 . S
C368 O349 1.191 . S
C368 O351 1.307 . S
H369 C387 0.951 . S
H370 C389 0.951 . S
H371 C391 0.950 . S
H372 C392 0.950 . S
H373 C394 0.950 . S
H374 C397 0.950 . S
H375 C398 0.950 . S
H376 C400 0.950 . S
H377 C401 0.950 . S
H378 C402 0.951 . S
H379 C404 0.951 . S
H380 C406 0.950 . S
H381 C407 0.950 . S
H382 C409 0.950 . S
H383 C412 0.950 . S
H384 C413 0.950 . S
H385 C415 0.950 . S
H386 C416 0.950 . S
C387 H369 0.951 . S
C387 C388 1.366 . S
C387 C389 1.388 . S
C388 C387 1.366 . S
C388 C392 1.385 . S
C389 H370 0.951 . S
C389 C387 1.388 . S
C389 C390 1.366 . S
C390 C389 1.366 . S
C390 C391 1.414 . S
C390 C393 1.499 . S
C391 H371 0.950 . S
C391 C390 1.414 . S
C391 C392 1.374 . S
C392 H372 0.950 . S
C392 C388 1.385 . S
C392 C391 1.374 . S
C393 C390 1.499 . S
C393 C394 1.373 . S
C393 C395 1.389 . S
C394 H373 0.950 . S
C394 C393 1.373 . S
C394 C410 1.377 . S
C395 C393 1.389 . S
C395 C396 1.524 . S
C395 C409 1.377 . S
C396 C395 1.524 . S
C396 C397 1.397 . S
C396 C401 1.363 . S
C397 H374 0.950 . S
C397 C396 1.397 . S
C397 C398 1.334 . S
C398 H375 0.950 . S
C398 C397 1.334 . S
C398 C399 1.287 . S
C399 C398 1.287 . S
C399 C400 1.524 . S
C399 H418 0.913 . S
C400 H376 0.950 . S
C400 C399 1.524 . S
C400 C401 1.415 . S
C401 H377 0.950 . S
C401 C396 1.363 . S
C401 C400 1.415 . S
C402 H378 0.951 . S
C402 C403 1.366 . S
C402 C404 1.388 . S
C403 C402 1.366 . S
C403 C407 1.385 . S
C404 H379 0.951 . S
C404 C402 1.388 . S
C404 C405 1.366 . S
C405 C404 1.366 . S
C405 C406 1.414 . S
C405 C408 1.499 . S
C406 H380 0.950 . S
C406 C405 1.414 . S
C406 C407 1.374 . S
C407 H381 0.950 . S
C407 C403 1.385 . S
C407 C406 1.374 . S
C408 C405 1.499 . S
C408 C409 1.373 . S
C408 C410 1.389 . S
C409 H382 0.950 . S
C409 C395 1.377 . S
C409 C408 1.373 . S
C410 C394 1.377 . S
C410 C408 1.389 . S
C410 C411 1.524 . S
C411 C410 1.524 . S
C411 C412 1.397 . S
C411 C416 1.363 . S
C412 H383 0.950 . S
C412 C411 1.397 . S
C412 C413 1.334 . S
C413 H384 0.950 . S
C413 C412 1.334 . S
C413 C414 1.287 . S
C414 C413 1.287 . S
C414 C415 1.524 . S
C414 H417 0.999 . S
C415 H385 0.950 . S
C415 C414 1.524 . S
C415 C416 1.415 . S
C416 H386 0.950 . S
C416 C411 1.363 . S
C416 C415 1.415 . S
H417 C414 0.999 . S
H418 C399 0.913 . S
H419 C437 0.951 . S
H420 C439 0.951 . S
H421 C441 0.950 . S
H422 C442 0.950 . S
H423 C444 0.950 . S
H424 C447 0.950 . S
H425 C448 0.950 . S
H426 C450 0.950 . S
H427 C451 0.950 . S
H428 C452 0.951 . S
H429 C454 0.951 . S
H430 C456 0.950 . S
H431 C457 0.950 . S
H432 C459 0.950 . S
H433 C462 0.950 . S
H434 C463 0.950 . S
H435 C465 0.950 . S
H436 C466 0.950 . S
C437 H419 0.951 . S
C437 C438 1.366 . S
C437 C439 1.388 . S
C438 C437 1.366 . S
C438 C442 1.385 . S
C439 H420 0.951 . S
C439 C437 1.388 . S
C439 C440 1.366 . S
C440 C439 1.366 . S
C440 C441 1.414 . S
C440 C443 1.499 . S
C441 H421 0.950 . S
C441 C440 1.414 . S
C441 C442 1.374 . S
C442 H422 0.950 . S
C442 C438 1.385 . S
C442 C441 1.374 . S
C443 C440 1.499 . S
C443 C444 1.373 . S
C443 C445 1.389 . S
C444 H423 0.950 . S
C444 C443 1.373 . S
C444 C460 1.377 . S
C445 C443 1.389 . S
C445 C446 1.524 . S
C445 C459 1.377 . S
C446 C445 1.524 . S
C446 C447 1.397 . S
C446 C451 1.363 . S
C447 H424 0.950 . S
C447 C446 1.397 . S
C447 C448 1.334 . S
C448 H425 0.950 . S
C448 C447 1.334 . S
C448 C449 1.287 . S
C449 C448 1.287 . S
C449 C450 1.524 . S
C449 H468 0.913 . S
C450 H426 0.950 . S
C450 C449 1.524 . S
C450 C451 1.415 . S
C451 H427 0.950 . S
C451 C446 1.363 . S
C451 C450 1.415 . S
C452 H428 0.951 . S
C452 C453 1.366 . S
C452 C454 1.388 . S
C453 C452 1.366 . S
C453 C457 1.385 . S
C454 H429 0.951 . S
C454 C452 1.388 . S
C454 C455 1.366 . S
C455 C454 1.366 . S
C455 C456 1.414 . S
C455 C458 1.499 . S
C456 H430 0.950 . S
C456 C455 1.414 . S
C456 C457 1.374 . S
C457 H431 0.950 . S
C457 C453 1.385 . S
C457 C456 1.374 . S
C458 C455 1.499 . S
C458 C459 1.373 . S
C458 C460 1.389 . S
C459 H432 0.950 . S
C459 C445 1.377 . S
C459 C458 1.373 . S
C460 C444 1.377 . S
C460 C458 1.389 . S
C460 C461 1.524 . S
C461 C460 1.524 . S
C461 C462 1.397 . S
C461 C466 1.363 . S
C462 H433 0.950 . S
C462 C461 1.397 . S
C462 C463 1.334 . S
C463 H434 0.950 . S
C463 C462 1.334 . S
C463 C464 1.287 . S
C464 C463 1.287 . S
C464 C465 1.524 . S
C464 H467 0.999 . S
C465 H435 0.950 . S
C465 C464 1.524 . S
C465 C466 1.415 . S
C466 H436 0.950 . S
C466 C461 1.363 . S
C466 C465 1.415 . S
H467 C464 0.999 . S
H468 C449 0.913 . S
H469 C487 0.951 . S
H470 C489 0.951 . S
H471 C491 0.950 . S
H472 C492 0.950 . S
H473 C494 0.950 . S
H474 C497 0.950 . S
H475 C498 0.950 . S
H476 C500 0.950 . S
H477 C501 0.950 . S
H478 C502 0.951 . S
H479 C504 0.951 . S
H480 C506 0.950 . S
H481 C507 0.950 . S
H482 C509 0.950 . S
H483 C512 0.950 . S
H484 C513 0.950 . S
H485 C515 0.950 . S
H486 C516 0.950 . S
C487 H469 0.951 . S
C487 C488 1.366 . S
C487 C489 1.388 . S
C488 C487 1.366 . S
C488 C492 1.385 . S
C489 H470 0.951 . S
C489 C487 1.388 . S
C489 C490 1.366 . S
C490 C489 1.366 . S
C490 C491 1.414 . S
C490 C493 1.499 . S
C491 H471 0.950 . S
C491 C490 1.414 . S
C491 C492 1.374 . S
C492 H472 0.950 . S
C492 C488 1.385 . S
C492 C491 1.374 . S
C493 C490 1.499 . S
C493 C494 1.373 . S
C493 C495 1.389 . S
C494 H473 0.950 . S
C494 C493 1.373 . S
C494 C510 1.377 . S
C495 C493 1.389 . S
C495 C496 1.524 . S
C495 C509 1.377 . S
C496 C495 1.524 . S
C496 C497 1.397 . S
C496 C501 1.363 . S
C497 H474 0.950 . S
C497 C496 1.397 . S
C497 C498 1.334 . S
C498 H475 0.950 . S
C498 C497 1.334 . S
C498 C499 1.287 . S
C499 C498 1.287 . S
C499 C500 1.524 . S
C499 H518 0.913 . S
C500 H476 0.950 . S
C500 C499 1.524 . S
C500 C501 1.415 . S
C501 H477 0.950 . S
C501 C496 1.363 . S
C501 C500 1.415 . S
C502 H478 0.951 . S
C502 C503 1.366 . S
C502 C504 1.388 . S
C503 C502 1.366 . S
C503 C507 1.385 . S
C504 H479 0.951 . S
C504 C502 1.388 . S
C504 C505 1.366 . S
C505 C504 1.366 . S
C505 C506 1.414 . S
C505 C508 1.499 . S
C506 H480 0.950 . S
C506 C505 1.414 . S
C506 C507 1.374 . S
C507 H481 0.950 . S
C507 C503 1.385 . S
C507 C506 1.374 . S
C508 C505 1.499 . S
C508 C509 1.373 . S
C508 C510 1.389 . S
C509 H482 0.950 . S
C509 C495 1.377 . S
C509 C508 1.373 . S
C510 C494 1.377 . S
C510 C508 1.389 . S
C510 C511 1.524 . S
C511 C510 1.524 . S
C511 C512 1.397 . S
C511 C516 1.363 . S
C512 H483 0.950 . S
C512 C511 1.397 . S
C512 C513 1.334 . S
C513 H484 0.950 . S
C513 C512 1.334 . S
C513 C514 1.287 . S
C514 C513 1.287 . S
C514 C515 1.524 . S
C514 H517 0.999 . S
C515 H485 0.950 . S
C515 C514 1.524 . S
C515 C516 1.415 . S
C516 H486 0.950 . S
C516 C511 1.363 . S
C516 C515 1.415 . S
H517 C514 0.999 . S
H518 C499 0.913 . S
H519 C537 0.951 . S
H520 C539 0.951 . S
H521 C541 0.950 . S
H522 C542 0.950 . S
H523 C544 0.950 . S
H524 C547 0.950 . S
H525 C548 0.950 . S
H526 C550 0.950 . S
H527 C551 0.950 . S
H528 C552 0.951 . S
H529 C554 0.951 . S
H530 C556 0.950 . S
H531 C557 0.950 . S
H532 C559 0.950 . S
H533 C562 0.950 . S
H534 C563 0.950 . S
H535 C565 0.950 . S
H536 C566 0.950 . S
C537 H519 0.951 . S
C537 C538 1.366 . S
C537 C539 1.388 . S
C538 C537 1.366 . S
C538 C542 1.385 . S
C539 H520 0.951 . S
C539 C537 1.388 . S
C539 C540 1.366 . S
C540 C539 1.366 . S
C540 C541 1.414 . S
C540 C543 1.499 . S
C541 H521 0.950 . S
C541 C540 1.414 . S
C541 C542 1.374 . S
C542 H522 0.950 . S
C542 C538 1.385 . S
C542 C541 1.374 . S
C543 C540 1.499 . S
C543 C544 1.373 . S
C543 C545 1.389 . S
C544 H523 0.950 . S
C544 C543 1.373 . S
C544 C560 1.377 . S
C545 C543 1.389 . S
C545 C546 1.524 . S
C545 C559 1.377 . S
C546 C545 1.524 . S
C546 C547 1.397 . S
C546 C551 1.363 . S
C547 H524 0.950 . S
C547 C546 1.397 . S
C547 C548 1.334 . S
C548 H525 0.950 . S
C548 C547 1.334 . S
C548 C549 1.287 . S
C549 C548 1.287 . S
C549 C550 1.524 . S
C549 H568 0.913 . S
C550 H526 0.950 . S
C550 C549 1.524 . S
C550 C551 1.415 . S
C551 H527 0.950 . S
C551 C546 1.363 . S
C551 C550 1.415 . S
C552 H528 0.951 . S
C552 C553 1.366 . S
C552 C554 1.388 . S
C553 C552 1.366 . S
C553 C557 1.385 . S
C554 H529 0.951 . S
C554 C552 1.388 . S
C554 C555 1.366 . S
C555 C554 1.366 . S
C555 C556 1.414 . S
C555 C558 1.499 . S
C556 H530 0.950 . S
C556 C555 1.414 . S
C556 C557 1.374 . S
C557 H531 0.950 . S
C557 C553 1.385 . S
C557 C556 1.374 . S
C558 C555 1.499 . S
C558 C559 1.373 . S
C558 C560 1.389 . S
C559 H532 0.950 . S
C559 C545 1.377 . S
C559 C558 1.373 . S
C560 C544 1.377 . S
C560 C558 1.389 . S
C560 C561 1.524 . S
C561 C560 1.524 . S
C561 C562 1.397 . S
C561 C566 1.363 . S
C562 H533 0.950 . S
C562 C561 1.397 . S
C562 C563 1.334 . S
C563 H534 0.950 . S
C563 C562 1.334 . S
C563 C564 1.287 . S
C564 C563 1.287 . S
C564 C565 1.524 . S
C564 H567 0.999 . S
C565 H535 0.950 . S
C565 C564 1.524 . S
C565 C566 1.415 . S
C566 H536 0.950 . S
C566 C561 1.363 . S
C566 C565 1.415 . S
H567 C564 0.999 . S
H568 C549 0.913 . S
H569 C587 0.951 . S
H570 C589 0.951 . S
H571 C591 0.950 . S
H572 C592 0.950 . S
H573 C594 0.950 . S
H574 C597 0.950 . S
H575 C598 0.950 . S
H576 C600 0.950 . S
H577 C601 0.950 . S
H578 C602 0.951 . S
H579 C604 0.951 . S
H580 C606 0.950 . S
H581 C607 0.950 . S
H582 C609 0.950 . S
H583 C612 0.950 . S
H584 C613 0.950 . S
H585 C615 0.950 . S
H586 C616 0.950 . S
C587 H569 0.951 . S
C587 C588 1.366 . S
C587 C589 1.388 . S
C588 C587 1.366 . S
C588 C592 1.385 . S
C589 H570 0.951 . S
C589 C587 1.388 . S
C589 C590 1.366 . S
C590 C589 1.366 . S
C590 C591 1.414 . S
C590 C593 1.499 . S
C591 H571 0.950 . S
C591 C590 1.414 . S
C591 C592 1.374 . S
C592 H572 0.950 . S
C592 C588 1.385 . S
C592 C591 1.374 . S
C593 C590 1.499 . S
C593 C594 1.373 . S
C593 C595 1.389 . S
C594 H573 0.950 . S
C594 C593 1.373 . S
C594 C610 1.377 . S
C595 C593 1.389 . S
C595 C596 1.524 . S
C595 C609 1.377 . S
C596 C595 1.524 . S
C596 C597 1.397 . S
C596 C601 1.363 . S
C597 H574 0.950 . S
C597 C596 1.397 . S
C597 C598 1.334 . S
C598 H575 0.950 . S
C598 C597 1.334 . S
C598 C599 1.287 . S
C599 C598 1.287 . S
C599 C600 1.524 . S
C599 H618 0.913 . S
C600 H576 0.950 . S
C600 C599 1.524 . S
C600 C601 1.415 . S
C601 H577 0.950 . S
C601 C596 1.363 . S
C601 C600 1.415 . S
C602 H578 0.951 . S
C602 C603 1.366 . S
C602 C604 1.388 . S
C603 C602 1.366 . S
C603 C607 1.385 . S
C604 H579 0.951 . S
C604 C602 1.388 . S
C604 C605 1.366 . S
C605 C604 1.366 . S
C605 C606 1.414 . S
C605 C608 1.499 . S
C606 H580 0.950 . S
C606 C605 1.414 . S
C606 C607 1.374 . S
C607 H581 0.950 . S
C607 C603 1.385 . S
C607 C606 1.374 . S
C608 C605 1.499 . S
C608 C609 1.373 . S
C608 C610 1.389 . S
C609 H582 0.950 . S
C609 C595 1.377 . S
C609 C608 1.373 . S
C610 C594 1.377 . S
C610 C608 1.389 . S
C610 C611 1.524 . S
C611 C610 1.524 . S
C611 C612 1.397 . S
C611 C616 1.363 . S
C612 H583 0.950 . S
C612 C611 1.397 . S
C612 C613 1.334 . S
C613 H584 0.950 . S
C613 C612 1.334 . S
C613 C614 1.287 . S
C614 C613 1.287 . S
C614 C615 1.524 . S
C614 H617 0.999 . S
C615 H585 0.950 . S
C615 C614 1.524 . S
C615 C616 1.415 . S
C616 H586 0.950 . S
C616 C611 1.363 . S
C616 C615 1.415 . S
H617 C614 0.999 . S
H618 C599 0.913 . S
H619 C637 0.951 . S
H620 C639 0.951 . S
H621 C641 0.950 . S
H622 C642 0.950 . S
H623 C644 0.950 . S
H624 C647 0.950 . S
H625 C648 0.950 . S
H626 C650 0.950 . S
H627 C651 0.950 . S
H628 C652 0.951 . S
H629 C654 0.951 . S
H630 C656 0.950 . S
H631 C657 0.950 . S
H632 C659 0.950 . S
H633 C662 0.950 . S
H634 C663 0.950 . S
H635 C665 0.950 . S
H636 C666 0.950 . S
C637 H619 0.951 . S
C637 C638 1.366 . S
C637 C639 1.388 . S
C638 C637 1.366 . S
C638 C642 1.385 . S
C639 H620 0.951 . S
C639 C637 1.388 . S
C639 C640 1.366 . S
C640 C639 1.366 . S
C640 C641 1.414 . S
C640 C643 1.499 . S
C641 H621 0.950 . S
C641 C640 1.414 . S
C641 C642 1.374 . S
C642 H622 0.950 . S
C642 C638 1.385 . S
C642 C641 1.374 . S
C643 C640 1.499 . S
C643 C644 1.373 . S
C643 C645 1.389 . S
C644 H623 0.950 . S
C644 C643 1.373 . S
C644 C660 1.377 . S
C645 C643 1.389 . S
C645 C646 1.524 . S
C645 C659 1.377 . S
C646 C645 1.524 . S
C646 C647 1.397 . S
C646 C651 1.363 . S
C647 H624 0.950 . S
C647 C646 1.397 . S
C647 C648 1.334 . S
C648 H625 0.950 . S
C648 C647 1.334 . S
C648 C649 1.287 . S
C649 C648 1.287 . S
C649 C650 1.524 . S
C649 H668 0.913 . S
C650 H626 0.950 . S
C650 C649 1.524 . S
C650 C651 1.415 . S
C651 H627 0.950 . S
C651 C646 1.363 . S
C651 C650 1.415 . S
C652 H628 0.951 . S
C652 C653 1.366 . S
C652 C654 1.388 . S
C653 C652 1.366 . S
C653 C657 1.385 . S
C654 H629 0.951 . S
C654 C652 1.388 . S
C654 C655 1.366 . S
C655 C654 1.366 . S
C655 C656 1.414 . S
C655 C658 1.499 . S
C656 H630 0.950 . S
C656 C655 1.414 . S
C656 C657 1.374 . S
C657 H631 0.950 . S
C657 C653 1.385 . S
C657 C656 1.374 . S
C658 C655 1.499 . S
C658 C659 1.373 . S
C658 C660 1.389 . S
C659 H632 0.950 . S
C659 C645 1.377 . S
C659 C658 1.373 . S
C660 C644 1.377 . S
C660 C658 1.389 . S
C660 C661 1.524 . S
C661 C660 1.524 . S
C661 C662 1.397 . S
C661 C666 1.363 . S
C662 H633 0.950 . S
C662 C661 1.397 . S
C662 C663 1.334 . S
C663 H634 0.950 . S
C663 C662 1.334 . S
C663 C664 1.287 . S
C664 C663 1.287 . S
C664 C665 1.524 . S
C664 H667 0.999 . S
C665 H635 0.950 . S
C665 C664 1.524 . S
C665 C666 1.415 . S
C666 H636 0.950 . S
C666 C661 1.363 . S
C666 C665 1.415 . S
H667 C664 0.999 . S
H668 C649 0.913 . S
H669 C687 0.951 . S
H670 C689 0.951 . S
H671 C691 0.950 . S
H672 C692 0.950 . S
H673 C694 0.950 . S
H674 C697 0.950 . S
H675 C698 0.950 . S
H676 C700 0.950 . S
H677 C701 0.950 . S
H678 C702 0.951 . S
H679 C704 0.951 . S
H680 C706 0.950 . S
H681 C707 0.950 . S
H682 C709 0.950 . S
H683 C712 0.950 . S
H684 C713 0.950 . S
H685 C715 0.950 . S
H686 C716 0.950 . S
C687 H669 0.951 . S
C687 C688 1.366 . S
C687 C689 1.388 . S
C688 C687 1.366 . S
C688 C692 1.385 . S
C689 H670 0.951 . S
C689 C687 1.388 . S
C689 C690 1.366 . S
C690 C689 1.366 . S
C690 C691 1.414 . S
C690 C693 1.499 . S
C691 H671 0.950 . S
C691 C690 1.414 . S
C691 C692 1.374 . S
C692 H672 0.950 . S
C692 C688 1.385 . S
C692 C691 1.374 . S
C693 C690 1.499 . S
C693 C694 1.373 . S
C693 C695 1.389 . S
C694 H673 0.950 . S
C694 C693 1.373 . S
C694 C710 1.377 . S
C695 C693 1.389 . S
C695 C696 1.524 . S
C695 C709 1.377 . S
C696 C695 1.524 . S
C696 C697 1.397 . S
C696 C701 1.363 . S
C697 H674 0.950 . S
C697 C696 1.397 . S
C697 C698 1.334 . S
C698 H675 0.950 . S
C698 C697 1.334 . S
C698 C699 1.287 . S
C699 C698 1.287 . S
C699 C700 1.524 . S
C699 H718 0.913 . S
C700 H676 0.950 . S
C700 C699 1.524 . S
C700 C701 1.415 . S
C701 H677 0.950 . S
C701 C696 1.363 . S
C701 C700 1.415 . S
C702 H678 0.951 . S
C702 C703 1.366 . S
C702 C704 1.388 . S
C703 C702 1.366 . S
C703 C707 1.385 . S
C704 H679 0.951 . S
C704 C702 1.388 . S
C704 C705 1.366 . S
C705 C704 1.366 . S
C705 C706 1.414 . S
C705 C708 1.499 . S
C706 H680 0.950 . S
C706 C705 1.414 . S
C706 C707 1.374 . S
C707 H681 0.950 . S
C707 C703 1.385 . S
C707 C706 1.374 . S
C708 C705 1.499 . S
C708 C709 1.373 . S
C708 C710 1.389 . S
C709 H682 0.950 . S
C709 C695 1.377 . S
C709 C708 1.373 . S
C710 C694 1.377 . S
C710 C708 1.389 . S
C710 C711 1.524 . S
C711 C710 1.524 . S
C711 C712 1.397 . S
C711 C716 1.363 . S
C712 H683 0.950 . S
C712 C711 1.397 . S
C712 C713 1.334 . S
C713 H684 0.950 . S
C713 C712 1.334 . S
C713 C714 1.287 . S
C714 C713 1.287 . S
C714 C715 1.524 . S
C714 H717 0.999 . S
C715 H685 0.950 . S
C715 C714 1.524 . S
C715 C716 1.415 . S
C716 H686 0.950 . S
C716 C711 1.363 . S
C716 C715 1.415 . S
H717 C714 0.999 . S
H718 C699 0.913 . S
H719 C737 0.951 . S
H720 C739 0.951 . S
H721 C741 0.950 . S
H722 C742 0.950 . S
H723 C744 0.950 . S
H724 C747 0.950 . S
H725 C748 0.950 . S
H726 C750 0.950 . S
H727 C751 0.950 . S
H728 C752 0.951 . S
H729 C754 0.951 . S
H730 C756 0.950 . S
H731 C757 0.950 . S
H732 C759 0.950 . S
H733 C762 0.950 . S
H734 C763 0.950 . S
H735 C765 0.950 . S
H736 C766 0.950 . S
C737 H719 0.951 . S
C737 C738 1.366 . S
C737 C739 1.388 . S
C738 C737 1.366 . S
C738 C742 1.385 . S
C739 H720 0.951 . S
C739 C737 1.388 . S
C739 C740 1.366 . S
C740 C739 1.366 . S
C740 C741 1.414 . S
C740 C743 1.499 . S
C741 H721 0.950 . S
C741 C740 1.414 . S
C741 C742 1.374 . S
C742 H722 0.950 . S
C742 C738 1.385 . S
C742 C741 1.374 . S
C743 C740 1.499 . S
C743 C744 1.373 . S
C743 C745 1.389 . S
C744 H723 0.950 . S
C744 C743 1.373 . S
C744 C760 1.377 . S
C745 C743 1.389 . S
C745 C746 1.524 . S
C745 C759 1.377 . S
C746 C745 1.524 . S
C746 C747 1.397 . S
C746 C751 1.363 . S
C747 H724 0.950 . S
C747 C746 1.397 . S
C747 C748 1.334 . S
C748 H725 0.950 . S
C748 C747 1.334 . S
C748 C749 1.287 . S
C749 C748 1.287 . S
C749 C750 1.524 . S
C749 H768 0.913 . S
C750 H726 0.950 . S
C750 C749 1.524 . S
C750 C751 1.415 . S
C751 H727 0.950 . S
C751 C746 1.363 . S
C751 C750 1.415 . S
C752 H728 0.951 . S
C752 C753 1.366 . S
C752 C754 1.388 . S
C753 C752 1.366 . S
C753 C757 1.385 . S
C754 H729 0.951 . S
C754 C752 1.388 . S
C754 C755 1.366 . S
C755 C754 1.366 . S
C755 C756 1.414 . S
C755 C758 1.499 . S
C756 H730 0.950 . S
C756 C755 1.414 . S
C756 C757 1.374 . S
C757 H731 0.950 . S
C757 C753 1.385 . S
C757 C756 1.374 . S
C758 C755 1.499 . S
C758 C759 1.373 . S
C758 C760 1.389 . S
C759 H732 0.950 . S
C759 C745 1.377 . S
C759 C758 1.373 . S
C760 C744 1.377 . S
C760 C758 1.389 . S
C760 C761 1.524 . S
C761 C760 1.524 . S
C761 C762 1.397 . S
C761 C766 1.363 . S
C762 H733 0.950 . S
C762 C761 1.397 . S
C762 C763 1.334 . S
C763 H734 0.950 . S
C763 C762 1.334 . S
C763 C764 1.287 . S
C764 C763 1.287 . S
C764 C765 1.524 . S
C764 H767 0.999 . S
C765 H735 0.950 . S
C765 C764 1.524 . S
C765 C766 1.415 . S
C766 H736 0.950 . S
C766 C761 1.363 . S
C766 C765 1.415 . S
H767 C764 0.999 . S
H768 C749 0.913 . S
H769 C787 0.951 . S
H770 C789 0.951 . S
H771 C791 0.950 . S
H772 C792 0.950 . S
H773 C794 0.950 . S
H774 C797 0.950 . S
H775 C798 0.950 . S
H776 C800 0.950 . S
H777 C801 0.950 . S
H778 C802 0.951 . S
H779 C804 0.951 . S
H780 C806 0.950 . S
H781 C807 0.950 . S
H782 C809 0.950 . S
H783 C812 0.950 . S
H784 C813 0.950 . S
H785 C815 0.950 . S
H786 C816 0.950 . S
C787 H769 0.951 . S
C787 C788 1.366 . S
C787 C789 1.388 . S
C788 C787 1.366 . S
C788 C792 1.385 . S
C789 H770 0.951 . S
C789 C787 1.388 . S
C789 C790 1.366 . S
C790 C789 1.366 . S
C790 C791 1.414 . S
C790 C793 1.499 . S
C791 H771 0.950 . S
C791 C790 1.414 . S
C791 C792 1.374 . S
C792 H772 0.950 . S
C792 C788 1.385 . S
C792 C791 1.374 . S
C793 C790 1.499 . S
C793 C794 1.373 . S
C793 C795 1.389 . S
C794 H773 0.950 . S
C794 C793 1.373 . S
C794 C810 1.377 . S
C795 C793 1.389 . S
C795 C796 1.524 . S
C795 C809 1.377 . S
C796 C795 1.524 . S
C796 C797 1.397 . S
C796 C801 1.363 . S
C797 H774 0.950 . S
C797 C796 1.397 . S
C797 C798 1.334 . S
C798 H775 0.950 . S
C798 C797 1.334 . S
C798 C799 1.287 . S
C799 C798 1.287 . S
C799 C800 1.524 . S
C799 H818 0.913 . S
C800 H776 0.950 . S
C800 C799 1.524 . S
C800 C801 1.415 . S
C801 H777 0.950 . S
C801 C796 1.363 . S
C801 C800 1.415 . S
C802 H778 0.951 . S
C802 C803 1.366 . S
C802 C804 1.388 . S
C803 C802 1.366 . S
C803 C807 1.385 . S
C804 H779 0.951 . S
C804 C802 1.388 . S
C804 C805 1.366 . S
C805 C804 1.366 . S
C805 C806 1.414 . S
C805 C808 1.499 . S
C806 H780 0.950 . S
C806 C805 1.414 . S
C806 C807 1.374 . S
C807 H781 0.950 . S
C807 C803 1.385 . S
C807 C806 1.374 . S
C808 C805 1.499 . S
C808 C809 1.373 . S
C808 C810 1.389 . S
C809 H782 0.950 . S
C809 C795 1.377 . S
C809 C808 1.373 . S
C810 C794 1.377 . S
C810 C808 1.389 . S
C810 C811 1.524 . S
C811 C810 1.524 . S
C811 C812 1.397 . S
C811 C816 1.363 . S
C812 H783 0.950 . S
C812 C811 1.397 . S
C812 C813 1.334 . S
C813 H784 0.950 . S
C813 C812 1.334 . S
C813 C814 1.287 . S
C814 C813 1.287 . S
C814 C815 1.524 . S
C814 H817 0.999 . S
C815 H785 0.950 . S
C815 C814 1.524 . S
C815 C816 1.415 . S
C816 H786 0.950 . S
C816 C811 1.363 . S
C816 C815 1.415 . S
H817 C814 0.999 . S
H818 C799 0.913 . S
H819 C837 0.951 . S
H820 C839 0.951 . S
H821 C841 0.950 . S
H822 C842 0.950 . S
H823 C844 0.950 . S
H824 C847 0.950 . S
H825 C848 0.950 . S
H826 C850 0.950 . S
H827 C851 0.950 . S
H828 C852 0.951 . S
H829 C854 0.951 . S
H830 C856 0.950 . S
H831 C857 0.950 . S
H832 C859 0.950 . S
H833 C862 0.950 . S
H834 C863 0.950 . S
H835 C865 0.950 1_554 S
H836 C866 0.950 . S
C837 H819 0.951 . S
C837 C838 1.366 . S
C837 C839 1.388 . S
C838 C837 1.366 . S
C838 C842 1.385 1_556 S
C839 H820 0.951 . S
C839 C837 1.388 . S
C839 C840 1.366 . S
C840 C839 1.366 . S
C840 C841 1.414 . S
C840 C843 1.499 . S
C841 H821 0.950 . S
C841 C840 1.414 . S
C841 C842 1.374 1_556 S
C842 H822 0.950 . S
C842 C838 1.385 1_554 S
C842 C841 1.374 1_554 S
C843 C840 1.499 . S
C843 C844 1.373 . S
C843 C845 1.389 . S
C844 H823 0.950 . S
C844 C843 1.373 . S
C844 C860 1.377 . S
C845 C843 1.389 . S
C845 C846 1.524 . S
C845 C859 1.377 . S
C846 C845 1.524 . S
C846 C847 1.397 . S
C846 C851 1.363 . S
C847 H824 0.950 . S
C847 C846 1.397 . S
C847 C848 1.334 . S
C848 H825 0.950 . S
C848 C847 1.334 . S
C848 C849 1.287 . S
C849 C848 1.287 . S
C849 C850 1.524 . S
C849 H868 0.913 . S
C850 H826 0.950 . S
C850 C849 1.524 . S
C850 C851 1.415 . S
C851 H827 0.950 . S
C851 C846 1.363 . S
C851 C850 1.415 . S
C852 H828 0.951 . S
C852 C853 1.366 . S
C852 C854 1.388 . S
C853 C852 1.366 . S
C853 C857 1.385 . S
C854 H829 0.951 . S
C854 C852 1.388 . S
C854 C855 1.366 . S
C855 C854 1.366 . S
C855 C856 1.414 . S
C855 C858 1.499 . S
C856 H830 0.950 . S
C856 C855 1.414 . S
C856 C857 1.374 . S
C857 H831 0.950 . S
C857 C853 1.385 . S
C857 C856 1.374 . S
C858 C855 1.499 . S
C858 C859 1.373 . S
C858 C860 1.389 . S
C859 H832 0.950 . S
C859 C845 1.377 . S
C859 C858 1.373 . S
C860 C844 1.377 . S
C860 C858 1.389 . S
C860 C861 1.524 . S
C861 C860 1.524 . S
C861 C862 1.397 . S
C861 C866 1.363 . S
C862 H833 0.950 . S
C862 C861 1.397 . S
C862 C863 1.334 . S
C863 H834 0.950 . S
C863 C862 1.334 . S
C863 C864 1.287 . S
C864 C863 1.287 . S
C864 C865 1.524 . S
C864 H867 0.999 . S
C865 H835 0.950 1_556 S
C865 C864 1.524 . S
C865 C866 1.415 . S
C866 H836 0.950 . S
C866 C861 1.363 . S
C866 C865 1.415 . S
H867 C864 0.999 . S
H868 C849 0.913 . S
H869 C887 0.951 . S
H870 C889 0.951 . S
H871 C891 0.950 . S
H872 C892 0.950 . S
H873 C894 0.950 . S
H874 C897 0.950 . S
H875 C898 0.950 . S
H876 C900 0.950 . S
H877 C901 0.950 . S
H878 C902 0.951 . S
H879 C904 0.951 . S
H880 C906 0.950 . S
H881 C907 0.950 . S
H882 C909 0.950 . S
H883 C912 0.950 . S
H884 C913 0.950 . S
H885 C915 0.950 1_554 S
H886 C916 0.950 . S
C887 H869 0.951 . S
C887 C888 1.366 1_556 S
C887 C889 1.388 . S
C888 C887 1.366 1_554 S
C888 C892 1.385 . S
C889 H870 0.951 . S
C889 C887 1.388 . S
C889 C890 1.366 . S
C890 C889 1.366 . S
C890 C891 1.414 . S
C890 C893 1.499 . S
C891 H871 0.950 . S
C891 C890 1.414 . S
C891 C892 1.374 1_556 S
C892 H872 0.950 . S
C892 C888 1.385 . S
C892 C891 1.374 1_554 S
C893 C890 1.499 . S
C893 C894 1.373 . S
C893 C895 1.389 . S
C894 H873 0.950 . S
C894 C893 1.373 . S
C894 C910 1.377 . S
C895 C893 1.389 . S
C895 C896 1.524 . S
C895 C909 1.377 . S
C896 C895 1.524 . S
C896 C897 1.397 . S
C896 C901 1.363 . S
C897 H874 0.950 . S
C897 C896 1.397 . S
C897 C898 1.334 . S
C898 H875 0.950 . S
C898 C897 1.334 . S
C898 C899 1.287 . S
C899 C898 1.287 . S
C899 C900 1.524 . S
C899 H918 0.913 . S
C900 H876 0.950 . S
C900 C899 1.524 . S
C900 C901 1.415 . S
C901 H877 0.950 . S
C901 C896 1.363 . S
C901 C900 1.415 . S
C902 H878 0.951 . S
C902 C903 1.366 . S
C902 C904 1.388 . S
C903 C902 1.366 . S
C903 C907 1.385 . S
C904 H879 0.951 . S
C904 C902 1.388 . S
C904 C905 1.366 . S
C905 C904 1.366 . S
C905 C906 1.414 . S
C905 C908 1.499 . S
C906 H880 0.950 . S
C906 C905 1.414 . S
C906 C907 1.374 . S
C907 H881 0.950 . S
C907 C903 1.385 . S
C907 C906 1.374 . S
C908 C905 1.499 . S
C908 C909 1.373 . S
C908 C910 1.389 . S
C909 H882 0.950 . S
C909 C895 1.377 . S
C909 C908 1.373 . S
C910 C894 1.377 . S
C910 C908 1.389 . S
C910 C911 1.524 . S
C911 C910 1.524 . S
C911 C912 1.397 . S
C911 C916 1.363 . S
C912 H883 0.950 . S
C912 C911 1.397 . S
C912 C913 1.334 . S
C913 H884 0.950 . S
C913 C912 1.334 . S
C913 C914 1.287 . S
C914 C913 1.287 . S
C914 C915 1.524 . S
C914 H917 0.999 . S
C915 H885 0.950 1_556 S
C915 C914 1.524 . S
C915 C916 1.415 . S
C916 H886 0.950 . S
C916 C911 1.363 . S
C916 C915 1.415 . S
H917 C914 0.999 . S
H918 C899 0.913 . S
H919 C937 0.951 . S
H920 C939 0.951 . S
H921 C941 0.950 . S
H922 C942 0.950 . S
H923 C944 0.950 . S
H924 C947 0.950 . S
H925 C948 0.950 . S
H926 C950 0.950 . S
H927 C951 0.950 . S
H928 C952 0.951 . S
H929 C954 0.951 . S
H930 C956 0.950 . S
H931 C957 0.950 . S
H932 C959 0.950 . S
H933 C962 0.950 . S
H934 C963 0.950 . S
H935 C965 0.950 . S
H936 C966 0.950 . S
C937 H919 0.951 . S
C937 C938 1.366 . S
C937 C939 1.388 . S
C938 C937 1.366 . S
C938 C942 1.385 . S
C939 H920 0.951 . S
C939 C937 1.388 . S
C939 C940 1.366 . S
C940 C939 1.366 . S
C940 C941 1.414 . S
C940 C943 1.499 . S
C941 H921 0.950 . S
C941 C940 1.414 . S
C941 C942 1.374 . S
C942 H922 0.950 . S
C942 C938 1.385 . S
C942 C941 1.374 . S
C943 C940 1.499 . S
C943 C944 1.373 . S
C943 C945 1.389 . S
C944 H923 0.950 . S
C944 C943 1.373 . S
C944 C960 1.377 . S
C945 C943 1.389 . S
C945 C946 1.524 . S
C945 C959 1.377 . S
C946 C945 1.524 . S
C946 C947 1.397 . S
C946 C951 1.363 . S
C947 H924 0.950 . S
C947 C946 1.397 . S
C947 C948 1.334 . S
C948 H925 0.950 . S
C948 C947 1.334 . S
C948 C949 1.287 . S
C949 C948 1.287 . S
C949 C950 1.524 . S
C949 H968 0.913 . S
C950 H926 0.950 . S
C950 C949 1.524 . S
C950 C951 1.415 . S
C951 H927 0.950 . S
C951 C946 1.363 . S
C951 C950 1.415 . S
C952 H928 0.951 . S
C952 C953 1.366 . S
C952 C954 1.388 . S
C953 C952 1.366 . S
C953 C957 1.385 . S
C954 H929 0.951 . S
C954 C952 1.388 . S
C954 C955 1.366 . S
C955 C954 1.366 . S
C955 C956 1.414 . S
C955 C958 1.499 . S
C956 H930 0.950 . S
C956 C955 1.414 . S
C956 C957 1.374 . S
C957 H931 0.950 . S
C957 C953 1.385 . S
C957 C956 1.374 . S
C958 C955 1.499 . S
C958 C959 1.373 . S
C958 C960 1.389 . S
C959 H932 0.950 . S
C959 C945 1.377 . S
C959 C958 1.373 . S
C960 C944 1.377 . S
C960 C958 1.389 . S
C960 C961 1.524 . S
C961 C960 1.524 . S
C961 C962 1.397 . S
C961 C966 1.363 . S
C962 H933 0.950 . S
C962 C961 1.397 . S
C962 C963 1.334 . S
C963 H934 0.950 . S
C963 C962 1.334 . S
C963 C964 1.287 . S
C964 C963 1.287 . S
C964 C965 1.524 . S
C964 H967 1.062 . S
C965 H935 0.950 . S
C965 C964 1.524 . S
C965 C966 1.415 . S
C966 H936 0.950 . S
C966 C961 1.363 . S
C966 C965 1.415 . S
H967 C964 1.062 . S
H968 C949 0.913 . S
H969 C987 0.951 . S
H970 C989 0.951 . S
H971 C991 0.950 . S
H972 C992 0.950 . S
H973 C994 0.950 . S
H974 C997 0.950 . S
H975 C998 0.950 . S
H976 C1000 0.950 . S
H977 C1001 0.950 . S
H978 C1002 0.951 . S
H979 C1004 0.951 . S
H980 C1006 0.950 . S
H981 C1007 0.950 . S
H982 C1009 0.950 . S
H983 C1012 0.950 . S
H984 C1013 0.950 . S
H985 C1015 0.950 . S
H986 C1016 0.950 . S
C987 H969 0.951 . S
C987 C988 1.366 . S
C987 C989 1.388 . S
C988 C987 1.366 . S
C988 C992 1.385 . S
C989 H970 0.951 . S
C989 C987 1.388 . S
C989 C990 1.366 . S
C990 C989 1.366 . S
C990 C991 1.414 . S
C990 C993 1.499 . S
C991 H971 0.950 . S
C991 C990 1.414 . S
C991 C992 1.374 . S
C992 H972 0.950 . S
C992 C988 1.385 . S
C992 C991 1.374 . S
C993 C990 1.499 . S
C993 C994 1.373 . S
C993 C995 1.389 . S
C994 H973 0.950 . S
C994 C993 1.373 . S
C994 C1010 1.377 . S
C995 C993 1.389 . S
C995 C996 1.524 . S
C995 C1009 1.377 . S
C996 C995 1.524 . S
C996 C997 1.397 . S
C996 C1001 1.363 . S
C997 H974 0.950 . S
C997 C996 1.397 . S
C997 C998 1.334 . S
C998 H975 0.950 . S
C998 C997 1.334 . S
C998 C999 1.287 . S
C999 C998 1.287 . S
C999 C1000 1.524 . S
C999 H1018 0.913 . S
C1000 H976 0.950 . S
C1000 C999 1.524 . S
C1000 C1001 1.415 . S
C1001 H977 0.950 . S
C1001 C996 1.363 . S
C1001 C1000 1.415 . S
C1002 H978 0.951 . S
C1002 C1003 1.366 . S
C1002 C1004 1.388 . S
C1003 C1002 1.366 . S
C1003 C1007 1.385 . S
C1004 H979 0.951 . S
C1004 C1002 1.388 . S
C1004 C1005 1.366 . S
C1005 C1004 1.366 . S
C1005 C1006 1.414 . S
C1005 C1008 1.499 . S
C1006 H980 0.950 . S
C1006 C1005 1.414 . S
C1006 C1007 1.374 . S
C1007 H981 0.950 . S
C1007 C1003 1.385 . S
C1007 C1006 1.374 . S
C1008 C1005 1.499 . S
C1008 C1009 1.373 . S
C1008 C1010 1.389 . S
C1009 H982 0.950 . S
C1009 C995 1.377 . S
C1009 C1008 1.373 . S
C1010 C994 1.377 . S
C1010 C1008 1.389 . S
C1010 C1011 1.524 . S
C1011 C1010 1.524 . S
C1011 C1012 1.397 . S
C1011 C1016 1.363 . S
C1012 H983 0.950 . S
C1012 C1011 1.397 . S
C1012 C1013 1.334 . S
C1013 H984 0.950 . S
C1013 C1012 1.334 . S
C1013 C1014 1.287 . S
C1014 C1013 1.287 . S
C1014 C1015 1.524 . S
C1014 H1017 0.999 . S
C1015 H985 0.950 . S
C1015 C1014 1.524 . S
C1015 C1016 1.415 . S
C1016 H986 0.950 . S
C1016 C1011 1.363 . S
C1016 C1015 1.415 . S
H1017 C1014 0.999 . S
H1018 C999 0.913 . S
H1019 C1037 0.951 . S
H1020 C1039 0.951 . S
H1021 C1041 0.950 . S
H1022 C1042 0.950 . S
H1023 C1044 0.950 . S
H1024 C1047 0.950 . S
H1025 C1048 0.950 . S
H1026 C1050 0.950 . S
H1027 C1051 0.950 . S
H1028 C1052 0.951 . S
H1029 C1054 0.951 . S
H1030 C1056 0.950 . S
H1031 C1057 0.950 . S
H1032 C1059 0.950 . S
H1033 C1062 0.950 . S
H1034 C1063 0.950 . S
H1035 C1065 0.950 . S
H1036 C1066 0.950 . S
C1037 H1019 0.951 . S
C1037 C1038 1.366 . S
C1037 C1039 1.388 . S
C1038 C1037 1.366 . S
C1038 C1042 1.385 . S
C1039 H1020 0.951 . S
C1039 C1037 1.388 . S
C1039 C1040 1.366 . S
C1040 C1039 1.366 . S
C1040 C1041 1.414 . S
C1040 C1043 1.499 . S
C1041 H1021 0.950 . S
C1041 C1040 1.414 . S
C1041 C1042 1.374 . S
C1042 H1022 0.950 . S
C1042 C1038 1.385 . S
C1042 C1041 1.374 . S
C1043 C1040 1.499 . S
C1043 C1044 1.373 . S
C1043 C1045 1.389 . S
C1044 H1023 0.950 . S
C1044 C1043 1.373 . S
C1044 C1060 1.377 . S
C1045 C1043 1.389 . S
C1045 C1046 1.524 . S
C1045 C1059 1.377 . S
C1046 C1045 1.524 . S
C1046 C1047 1.397 . S
C1046 C1051 1.363 . S
C1047 H1024 0.950 . S
C1047 C1046 1.397 . S
C1047 C1048 1.334 . S
C1048 H1025 0.950 . S
C1048 C1047 1.334 . S
C1048 C1049 1.287 . S
C1049 C1048 1.287 . S
C1049 C1050 1.524 . S
C1049 H1068 0.913 . S
C1050 H1026 0.950 . S
C1050 C1049 1.524 . S
C1050 C1051 1.415 . S
C1051 H1027 0.950 . S
C1051 C1046 1.363 . S
C1051 C1050 1.415 . S
C1052 H1028 0.951 . S
C1052 C1053 1.366 . S
C1052 C1054 1.388 . S
C1053 C1052 1.366 . S
C1053 C1057 1.385 . S
C1054 H1029 0.951 . S
C1054 C1052 1.388 . S
C1054 C1055 1.366 . S
C1055 C1054 1.366 . S
C1055 C1056 1.414 . S
C1055 C1058 1.499 . S
C1056 H1030 0.950 . S
C1056 C1055 1.414 . S
C1056 C1057 1.374 . S
C1057 H1031 0.950 . S
C1057 C1053 1.385 . S
C1057 C1056 1.374 . S
C1058 C1055 1.499 . S
C1058 C1059 1.373 . S
C1058 C1060 1.389 . S
C1059 H1032 0.950 . S
C1059 C1045 1.377 . S
C1059 C1058 1.373 . S
C1060 C1044 1.377 . S
C1060 C1058 1.389 . S
C1060 C1061 1.524 . S
C1061 C1060 1.524 . S
C1061 C1062 1.397 . S
C1061 C1066 1.363 . S
C1062 H1033 0.950 . S
C1062 C1061 1.397 . S
C1062 C1063 1.334 . S
C1063 H1034 0.950 . S
C1063 C1062 1.334 . S
C1063 C1064 1.287 . S
C1064 C1063 1.287 . S
C1064 C1065 1.524 . S
C1064 H1067 0.999 . S
C1065 H1035 0.950 . S
C1065 C1064 1.524 . S
C1065 C1066 1.415 . S
C1066 H1036 0.950 . S
C1066 C1061 1.363 . S
C1066 C1065 1.415 . S
H1067 C1064 0.999 . S
H1068 C1049 0.913 . S
H1069 C1087 0.951 1_554 S
H1070 C1089 0.951 . S
H1071 C1091 0.950 . S
H1072 C1092 0.950 . S
H1073 C1094 0.950 . S
H1074 C1097 0.950 . S
H1075 C1098 0.950 . S
H1076 C1100 0.950 . S
H1077 C1101 0.950 . S
H1078 C1102 0.951 . S
H1079 C1104 0.951 . S
H1080 C1106 0.950 . S
H1081 C1107 0.950 . S
H1082 C1109 0.950 . S
H1083 C1112 0.950 . S
H1084 C1113 0.950 . S
H1085 C1115 0.950 . S
H1086 C1116 0.950 . S
C1087 H1069 0.951 1_556 S
C1087 C1088 1.366 . S
C1087 C1089 1.388 . S
C1088 C1087 1.366 . S
C1088 C1092 1.385 . S
C1089 H1070 0.951 . S
C1089 C1087 1.388 . S
C1089 C1090 1.366 . S
C1090 C1089 1.366 . S
C1090 C1091 1.414 . S
C1090 C1093 1.499 . S
C1091 H1071 0.950 . S
C1091 C1090 1.414 . S
C1091 C1092 1.374 . S
C1092 H1072 0.950 . S
C1092 C1088 1.385 . S
C1092 C1091 1.374 . S
C1093 C1090 1.499 . S
C1093 C1094 1.373 . S
C1093 C1095 1.389 . S
C1094 H1073 0.950 . S
C1094 C1093 1.373 . S
C1094 C1110 1.377 . S
C1095 C1093 1.389 . S
C1095 C1096 1.524 . S
C1095 C1109 1.377 . S
C1096 C1095 1.524 . S
C1096 C1097 1.397 . S
C1096 C1101 1.363 . S
C1097 H1074 0.950 . S
C1097 C1096 1.397 . S
C1097 C1098 1.334 . S
C1098 H1075 0.950 . S
C1098 C1097 1.334 . S
C1098 C1099 1.287 . S
C1099 C1098 1.287 . S
C1099 C1100 1.524 . S
C1099 H1118 0.913 . S
C1100 H1076 0.950 . S
C1100 C1099 1.524 . S
C1100 C1101 1.415 . S
C1101 H1077 0.950 . S
C1101 C1096 1.363 . S
C1101 C1100 1.415 . S
C1102 H1078 0.951 . S
C1102 C1103 1.366 . S
C1102 C1104 1.388 . S
C1103 C1102 1.366 . S
C1103 C1107 1.385 . S
C1104 H1079 0.951 . S
C1104 C1102 1.388 . S
C1104 C1105 1.366 . S
C1105 C1104 1.366 . S
C1105 C1106 1.414 . S
C1105 C1108 1.499 . S
C1106 H1080 0.950 . S
C1106 C1105 1.414 . S
C1106 C1107 1.374 . S
C1107 H1081 0.950 . S
C1107 C1103 1.385 . S
C1107 C1106 1.374 . S
C1108 C1105 1.499 . S
C1108 C1109 1.373 . S
C1108 C1110 1.389 . S
C1109 H1082 0.950 . S
C1109 C1095 1.377 . S
C1109 C1108 1.373 . S
C1110 C1094 1.377 . S
C1110 C1108 1.389 . S
C1110 C1111 1.524 . S
C1111 C1110 1.524 . S
C1111 C1112 1.397 . S
C1111 C1116 1.363 . S
C1112 H1083 0.950 . S
C1112 C1111 1.397 . S
C1112 C1113 1.334 . S
C1113 H1084 0.950 . S
C1113 C1112 1.334 . S
C1113 C1114 1.287 . S
C1114 C1113 1.287 . S
C1114 C1115 1.524 . S
C1114 H1117 0.999 . S
C1115 H1085 0.950 . S
C1115 C1114 1.524 . S
C1115 C1116 1.415 . S
C1116 H1086 0.950 . S
C1116 C1111 1.363 . S
C1116 C1115 1.415 . S
H1117 C1114 0.999 . S
H1118 C1099 0.913 . S
H1119 C1137 0.951 . S
H1120 C1139 0.951 . S
H1121 C1141 0.950 . S
H1122 C1142 0.950 . S
H1123 C1144 0.950 . S
H1124 C1147 0.950 . S
H1125 C1148 0.950 . S
H1126 C1150 0.950 . S
H1127 C1151 0.950 . S
H1128 C1152 0.951 . S
H1129 C1154 0.951 . S
H1130 C1156 0.950 . S
H1131 C1157 0.950 . S
H1132 C1159 0.950 . S
H1133 C1162 0.950 . S
H1134 C1163 0.950 . S
H1135 C1165 0.950 1_554 S
H1136 C1166 0.950 . S
C1137 H1119 0.951 . S
C1137 C1138 1.366 1_556 S
C1137 C1139 1.388 . S
C1138 C1137 1.366 1_554 S
C1138 C1142 1.385 . S
C1139 H1120 0.951 . S
C1139 C1137 1.388 . S
C1139 C1140 1.366 . S
C1140 C1139 1.366 . S
C1140 C1141 1.414 . S
C1140 C1143 1.499 . S
C1141 H1121 0.950 . S
C1141 C1140 1.414 . S
C1141 C1142 1.374 1_556 S
C1142 H1122 0.950 . S
C1142 C1138 1.385 . S
C1142 C1141 1.374 1_554 S
C1143 C1140 1.499 . S
C1143 C1144 1.373 . S
C1143 C1145 1.389 . S
C1144 H1123 0.950 . S
C1144 C1143 1.373 . S
C1144 C1160 1.377 . S
C1145 C1143 1.389 . S
C1145 C1146 1.524 . S
C1145 C1159 1.377 . S
C1146 C1145 1.524 . S
C1146 C1147 1.397 . S
C1146 C1151 1.363 . S
C1147 H1124 0.950 . S
C1147 C1146 1.397 . S
C1147 C1148 1.334 . S
C1148 H1125 0.950 . S
C1148 C1147 1.334 . S
C1148 C1149 1.287 . S
C1149 C1148 1.287 . S
C1149 C1150 1.524 . S
C1149 H1168 0.913 . S
C1150 H1126 0.950 . S
C1150 C1149 1.524 . S
C1150 C1151 1.415 . S
C1151 H1127 0.950 . S
C1151 C1146 1.363 . S
C1151 C1150 1.415 . S
C1152 H1128 0.951 . S
C1152 C1153 1.366 . S
C1152 C1154 1.388 . S
C1153 C1152 1.366 . S
C1153 C1157 1.385 . S
C1154 H1129 0.951 . S
C1154 C1152 1.388 . S
C1154 C1155 1.366 . S
C1155 C1154 1.366 . S
C1155 C1156 1.414 . S
C1155 C1158 1.499 . S
C1156 H1130 0.950 . S
C1156 C1155 1.414 . S
C1156 C1157 1.374 . S
C1157 H1131 0.950 . S
C1157 C1153 1.385 . S
C1157 C1156 1.374 . S
C1158 C1155 1.499 . S
C1158 C1159 1.373 . S
C1158 C1160 1.389 . S
C1159 H1132 0.950 . S
C1159 C1145 1.377 . S
C1159 C1158 1.373 . S
C1160 C1144 1.377 . S
C1160 C1158 1.389 . S
C1160 C1161 1.524 . S
C1161 C1160 1.524 . S
C1161 C1162 1.397 . S
C1161 C1166 1.363 . S
C1162 H1133 0.950 . S
C1162 C1161 1.397 . S
C1162 C1163 1.334 . S
C1163 H1134 0.950 . S
C1163 C1162 1.334 . S
C1163 C1164 1.287 . S
C1164 C1163 1.287 . S
C1164 C1165 1.524 . S
C1164 H1167 0.999 . S
C1165 H1135 0.950 1_556 S
C1165 C1164 1.524 . S
C1165 C1166 1.415 . S
C1166 H1136 0.950 . S
C1166 C1161 1.363 . S
C1166 C1165 1.415 . S
H1167 C1164 0.999 . S
H1168 C1149 0.913 . S
H1169 C1187 0.951 . S
H1170 C1189 0.951 . S
H1171 C1191 0.950 . S
H1172 C1192 0.950 . S
H1173 C1194 0.950 . S
H1174 C1197 0.950 . S
H1175 C1198 0.950 . S
H1176 C1200 0.950 . S
H1177 C1201 0.950 . S
H1178 C1202 0.951 . S
H1179 C1204 0.951 . S
H1180 C1206 0.950 . S
H1181 C1207 0.950 . S
H1182 C1209 0.950 . S
H1183 C1212 0.950 . S
H1184 C1213 0.950 . S
H1185 C1215 0.950 . S
H1186 C1216 0.950 . S
C1187 H1169 0.951 . S
C1187 C1188 1.366 . S
C1187 C1189 1.388 . S
C1188 C1187 1.366 . S
C1188 C1192 1.385 . S
C1189 H1170 0.951 . S
C1189 C1187 1.388 . S
C1189 C1190 1.366 . S
C1190 C1189 1.366 . S
C1190 C1191 1.414 . S
C1190 C1193 1.499 . S
C1191 H1171 0.950 . S
C1191 C1190 1.414 . S
C1191 C1192 1.374 . S
C1192 H1172 0.950 . S
C1192 C1188 1.385 . S
C1192 C1191 1.374 . S
C1193 C1190 1.499 . S
C1193 C1194 1.373 . S
C1193 C1195 1.389 . S
C1194 H1173 0.950 . S
C1194 C1193 1.373 . S
C1194 C1210 1.377 . S
C1195 C1193 1.389 . S
C1195 C1196 1.524 . S
C1195 C1209 1.377 . S
C1196 C1195 1.524 . S
C1196 C1197 1.397 . S
C1196 C1201 1.363 . S
C1197 H1174 0.950 . S
C1197 C1196 1.397 . S
C1197 C1198 1.334 . S
C1198 H1175 0.950 . S
C1198 C1197 1.334 . S
C1198 C1199 1.287 . S
C1199 C1198 1.287 . S
C1199 C1200 1.524 . S
C1199 H1218 0.913 . S
C1200 H1176 0.950 . S
C1200 C1199 1.524 . S
C1200 C1201 1.415 . S
C1201 H1177 0.950 . S
C1201 C1196 1.363 . S
C1201 C1200 1.415 . S
C1202 H1178 0.951 . S
C1202 C1203 1.366 . S
C1202 C1204 1.388 . S
C1203 C1202 1.366 . S
C1203 C1207 1.385 . S
C1204 H1179 0.951 . S
C1204 C1202 1.388 . S
C1204 C1205 1.366 . S
C1205 C1204 1.366 . S
C1205 C1206 1.414 . S
C1205 C1208 1.499 . S
C1206 H1180 0.950 . S
C1206 C1205 1.414 . S
C1206 C1207 1.374 . S
C1207 H1181 0.950 . S
C1207 C1203 1.385 . S
C1207 C1206 1.374 . S
C1208 C1205 1.499 . S
C1208 C1209 1.373 . S
C1208 C1210 1.389 . S
C1209 H1182 0.950 . S
C1209 C1195 1.377 . S
C1209 C1208 1.373 . S
C1210 C1194 1.377 . S
C1210 C1208 1.389 . S
C1210 C1211 1.524 . S
C1211 C1210 1.524 . S
C1211 C1212 1.397 . S
C1211 C1216 1.363 . S
C1212 H1183 0.950 . S
C1212 C1211 1.397 . S
C1212 C1213 1.334 . S
C1213 H1184 0.950 . S
C1213 C1212 1.334 . S
C1213 C1214 1.287 . S
C1214 C1213 1.287 . S
C1214 C1215 1.524 . S
C1214 H1217 0.999 . S
C1215 H1185 0.950 . S
C1215 C1214 1.524 . S
C1215 C1216 1.415 . S
C1216 H1186 0.950 . S
C1216 C1211 1.363 . S
C1216 C1215 1.415 . S
H1217 C1214 0.999 . S
H1218 C1199 0.913 . S
H1219 C1237 0.951 . S
H1220 C1239 0.951 . S
H1221 C1241 0.950 . S
H1222 C1242 0.950 . S
H1223 C1244 0.950 . S
H1224 C1247 0.950 . S
H1225 C1248 0.950 . S
H1226 C1250 0.950 . S
H1227 C1251 0.950 . S
H1228 C1252 0.951 . S
H1229 C1254 0.951 . S
H1230 C1256 0.950 . S
H1231 C1257 0.950 . S
H1232 C1259 0.950 . S
H1233 C1262 0.950 . S
H1234 C1263 0.950 . S
H1235 C1265 0.950 . S
H1236 C1266 0.950 . S
C1237 H1219 0.951 . S
C1237 C1238 1.366 . S
C1237 C1239 1.388 . S
C1238 C1237 1.366 . S
C1238 C1242 1.385 . S
C1239 H1220 0.951 . S
C1239 C1237 1.388 . S
C1239 C1240 1.366 . S
C1240 C1239 1.366 . S
C1240 C1241 1.414 . S
C1240 C1243 1.499 . S
C1241 H1221 0.950 . S
C1241 C1240 1.414 . S
C1241 C1242 1.374 . S
C1242 H1222 0.950 . S
C1242 C1238 1.385 . S
C1242 C1241 1.374 . S
C1243 C1240 1.499 . S
C1243 C1244 1.373 . S
C1243 C1245 1.389 . S
C1244 H1223 0.950 . S
C1244 C1243 1.373 . S
C1244 C1260 1.377 . S
C1245 C1243 1.389 . S
C1245 C1246 1.524 . S
C1245 C1259 1.377 . S
C1246 C1245 1.524 . S
C1246 C1247 1.397 . S
C1246 C1251 1.363 . S
C1247 H1224 0.950 . S
C1247 C1246 1.397 . S
C1247 C1248 1.334 . S
C1248 H1225 0.950 . S
C1248 C1247 1.334 . S
C1248 C1249 1.287 . S
C1249 C1248 1.287 . S
C1249 C1250 1.524 . S
C1249 H1268 0.913 . S
C1250 H1226 0.950 . S
C1250 C1249 1.524 . S
C1250 C1251 1.415 . S
C1251 H1227 0.950 . S
C1251 C1246 1.363 . S
C1251 C1250 1.415 . S
C1252 H1228 0.951 . S
C1252 C1253 1.366 . S
C1252 C1254 1.388 . S
C1253 C1252 1.366 . S
C1253 C1257 1.385 . S
C1254 H1229 0.951 . S
C1254 C1252 1.388 . S
C1254 C1255 1.366 . S
C1255 C1254 1.366 . S
C1255 C1256 1.414 . S
C1255 C1258 1.499 . S
C1256 H1230 0.950 . S
C1256 C1255 1.414 . S
C1256 C1257 1.374 . S
C1257 H1231 0.950 . S
C1257 C1253 1.385 . S
C1257 C1256 1.374 . S
C1258 C1255 1.499 . S
C1258 C1259 1.373 . S
C1258 C1260 1.389 . S
C1259 H1232 0.950 . S
C1259 C1245 1.377 . S
C1259 C1258 1.373 . S
C1260 C1244 1.377 . S
C1260 C1258 1.389 . S
C1260 C1261 1.524 . S
C1261 C1260 1.524 . S
C1261 C1262 1.397 . S
C1261 C1266 1.363 . S
C1262 H1233 0.950 . S
C1262 C1261 1.397 . S
C1262 C1263 1.334 . S
C1263 H1234 0.950 . S
C1263 C1262 1.334 . S
C1263 C1264 1.287 . S
C1264 C1263 1.287 . S
C1264 C1265 1.524 . S
C1264 H1267 0.999 . S
C1265 H1235 0.950 . S
C1265 C1264 1.524 . S
C1265 C1266 1.415 . S
C1266 H1236 0.950 . S
C1266 C1261 1.363 . S
C1266 C1265 1.415 . S
H1267 C1264 0.999 . S
H1268 C1249 0.913 . S
H1269 C1287 0.951 . S
H1270 C1289 0.951 . S
H1271 C1291 0.950 . S
H1272 C1292 0.950 . S
H1273 C1294 0.950 . S
H1274 C1297 0.950 . S
H1275 C1298 0.950 . S
H1276 C1300 0.950 . S
H1277 C1301 0.950 . S
H1278 C1302 0.951 . S
H1279 C1304 0.951 . S
H1280 C1306 0.950 . S
H1281 C1307 0.950 . S
H1282 C1309 0.950 . S
H1283 C1312 0.950 . S
H1284 C1313 0.950 . S
H1285 C1315 0.950 . S
H1286 C1316 0.950 . S
C1287 H1269 0.951 . S
C1287 C1288 1.366 . S
C1287 C1289 1.388 . S
C1288 C1287 1.366 . S
C1288 C1292 1.385 . S
C1289 H1270 0.951 . S
C1289 C1287 1.388 . S
C1289 C1290 1.366 . S
C1290 C1289 1.366 . S
C1290 C1291 1.414 . S
C1290 C1293 1.499 . S
C1291 H1271 0.950 . S
C1291 C1290 1.414 . S
C1291 C1292 1.374 . S
C1292 H1272 0.950 . S
C1292 C1288 1.385 . S
C1292 C1291 1.374 . S
C1293 C1290 1.499 . S
C1293 C1294 1.373 . S
C1293 C1295 1.389 . S
C1294 H1273 0.950 . S
C1294 C1293 1.373 . S
C1294 C1310 1.377 . S
C1295 C1293 1.389 . S
C1295 C1296 1.524 . S
C1295 C1309 1.377 . S
C1296 C1295 1.524 . S
C1296 C1297 1.397 . S
C1296 C1301 1.363 . S
C1297 H1274 0.950 . S
C1297 C1296 1.397 . S
C1297 C1298 1.334 . S
C1298 H1275 0.950 . S
C1298 C1297 1.334 . S
C1298 C1299 1.287 . S
C1299 C1298 1.287 . S
C1299 C1300 1.524 . S
C1299 H1318 0.913 . S
C1300 H1276 0.950 . S
C1300 C1299 1.524 . S
C1300 C1301 1.415 . S
C1301 H1277 0.950 . S
C1301 C1296 1.363 . S
C1301 C1300 1.415 . S
C1302 H1278 0.951 . S
C1302 C1303 1.366 . S
C1302 C1304 1.388 . S
C1303 C1302 1.366 . S
C1303 C1307 1.385 . S
C1304 H1279 0.951 . S
C1304 C1302 1.388 . S
C1304 C1305 1.366 . S
C1305 C1304 1.366 . S
C1305 C1306 1.414 . S
C1305 C1308 1.499 . S
C1306 H1280 0.950 . S
C1306 C1305 1.414 . S
C1306 C1307 1.374 . S
C1307 H1281 0.950 . S
C1307 C1303 1.385 . S
C1307 C1306 1.374 . S
C1308 C1305 1.499 . S
C1308 C1309 1.373 . S
C1308 C1310 1.389 . S
C1309 H1282 0.950 . S
C1309 C1295 1.377 . S
C1309 C1308 1.373 . S
C1310 C1294 1.377 . S
C1310 C1308 1.389 . S
C1310 C1311 1.524 . S
C1311 C1310 1.524 . S
C1311 C1312 1.397 . S
C1311 C1316 1.363 . S
C1312 H1283 0.950 . S
C1312 C1311 1.397 . S
C1312 C1313 1.334 . S
C1313 H1284 0.950 . S
C1313 C1312 1.334 . S
C1313 C1314 1.287 . S
C1314 C1313 1.287 . S
C1314 C1315 1.524 . S
C1314 H1317 0.999 . S
C1315 H1285 0.950 . S
C1315 C1314 1.524 . S
C1315 C1316 1.415 . S
C1316 H1286 0.950 . S
C1316 C1311 1.363 . S
C1316 C1315 1.415 . S
H1317 C1314 0.999 . S
H1318 C1299 0.913 . S
H1319 C1337 0.951 . S
H1320 C1339 0.951 . S
H1321 C1341 0.950 . S
H1322 C1342 0.950 . S
H1323 C1344 0.950 . S
H1324 C1347 0.950 . S
H1325 C1348 0.950 . S
H1326 C1350 0.950 . S
H1327 C1351 0.950 . S
H1328 C1352 0.951 . S
H1329 C1354 0.951 . S
H1330 C1356 0.950 . S
H1331 C1357 0.950 . S
H1332 C1359 0.950 . S
H1333 C1362 0.950 . S
H1334 C1363 0.950 . S
H1335 C1365 0.950 . S
H1336 C1366 0.950 . S
C1337 H1319 0.951 . S
C1337 C1338 1.366 . S
C1337 C1339 1.388 . S
C1338 C1337 1.366 . S
C1338 C1342 1.385 . S
C1339 H1320 0.951 . S
C1339 C1337 1.388 . S
C1339 C1340 1.366 . S
C1340 C1339 1.366 . S
C1340 C1341 1.414 . S
C1340 C1343 1.499 . S
C1341 H1321 0.950 . S
C1341 C1340 1.414 . S
C1341 C1342 1.374 . S
C1342 H1322 0.950 . S
C1342 C1338 1.385 . S
C1342 C1341 1.374 . S
C1343 C1340 1.499 . S
C1343 C1344 1.373 . S
C1343 C1345 1.389 . S
C1344 H1323 0.950 . S
C1344 C1343 1.373 . S
C1344 C1360 1.377 . S
C1345 C1343 1.389 . S
C1345 C1346 1.524 . S
C1345 C1359 1.377 . S
C1346 C1345 1.524 . S
C1346 C1347 1.397 . S
C1346 C1351 1.363 . S
C1347 H1324 0.950 . S
C1347 C1346 1.397 . S
C1347 C1348 1.334 . S
C1348 H1325 0.950 . S
C1348 C1347 1.334 . S
C1348 C1349 1.287 . S
C1349 C1348 1.287 . S
C1349 C1350 1.524 . S
C1349 H1368 0.913 . S
C1350 H1326 0.950 . S
C1350 C1349 1.524 . S
C1350 C1351 1.415 . S
C1351 H1327 0.950 . S
C1351 C1346 1.363 . S
C1351 C1350 1.415 . S
C1352 H1328 0.951 . S
C1352 C1353 1.366 . S
C1352 C1354 1.388 . S
C1353 C1352 1.366 . S
C1353 C1357 1.385 . S
C1354 H1329 0.951 . S
C1354 C1352 1.388 . S
C1354 C1355 1.366 . S
C1355 C1354 1.366 . S
C1355 C1356 1.414 . S
C1355 C1358 1.499 . S
C1356 H1330 0.950 . S
C1356 C1355 1.414 . S
C1356 C1357 1.374 . S
C1357 H1331 0.950 . S
C1357 C1353 1.385 . S
C1357 C1356 1.374 . S
C1358 C1355 1.499 . S
C1358 C1359 1.373 . S
C1358 C1360 1.389 . S
C1359 H1332 0.950 . S
C1359 C1345 1.377 . S
C1359 C1358 1.373 . S
C1360 C1344 1.377 . S
C1360 C1358 1.389 . S
C1360 C1361 1.524 . S
C1361 C1360 1.524 . S
C1361 C1362 1.397 . S
C1361 C1366 1.363 . S
C1362 H1333 0.950 . S
C1362 C1361 1.397 . S
C1362 C1363 1.334 . S
C1363 H1334 0.950 . S
C1363 C1362 1.334 . S
C1363 C1364 1.287 . S
C1364 C1363 1.287 . S
C1364 C1365 1.524 . S
C1364 H1367 0.999 . S
C1365 H1335 0.950 . S
C1365 C1364 1.524 . S
C1365 C1366 1.415 . S
C1366 H1336 0.950 . S
C1366 C1361 1.363 . S
C1366 C1365 1.415 . S
H1367 C1364 0.999 . S
H1368 C1349 0.913 . S
H1369 C1387 0.951 . S
H1370 C1389 0.951 . S
H1371 C1391 0.950 . S
H1372 C1392 0.950 . S
H1373 C1394 0.950 . S
H1374 C1397 0.950 . S
H1375 C1398 0.950 . S
H1376 C1400 0.950 . S
H1377 C1401 0.950 . S
H1378 C1402 0.951 . S
H1379 C1404 0.951 . S
H1380 C1406 0.950 . S
H1381 C1407 0.950 . S
H1382 C1409 0.950 . S
H1383 C1412 0.950 . S
H1384 C1413 0.950 . S
H1385 C1415 0.950 . S
H1386 C1416 0.950 . S
C1387 H1369 0.951 . S
C1387 C1388 1.366 . S
C1387 C1389 1.388 . S
C1388 C1387 1.366 . S
C1388 C1392 1.385 . S
C1389 H1370 0.951 . S
C1389 C1387 1.388 . S
C1389 C1390 1.366 . S
C1390 C1389 1.366 . S
C1390 C1391 1.414 . S
C1390 C1393 1.499 . S
C1391 H1371 0.950 . S
C1391 C1390 1.414 . S
C1391 C1392 1.374 . S
C1392 H1372 0.950 . S
C1392 C1388 1.385 . S
C1392 C1391 1.374 . S
C1393 C1390 1.499 . S
C1393 C1394 1.373 . S
C1393 C1395 1.389 . S
C1394 H1373 0.950 . S
C1394 C1393 1.373 . S
C1394 C1410 1.377 . S
C1395 C1393 1.389 . S
C1395 C1396 1.524 . S
C1395 C1409 1.377 . S
C1396 C1395 1.524 . S
C1396 C1397 1.397 . S
C1396 C1401 1.363 . S
C1397 H1374 0.950 . S
C1397 C1396 1.397 . S
C1397 C1398 1.334 . S
C1398 H1375 0.950 . S
C1398 C1397 1.334 . S
C1398 C1399 1.287 . S
C1399 C1398 1.287 . S
C1399 C1400 1.524 . S
C1399 H1418 0.913 . S
C1400 H1376 0.950 . S
C1400 C1399 1.524 . S
C1400 C1401 1.415 . S
C1401 H1377 0.950 . S
C1401 C1396 1.363 . S
C1401 C1400 1.415 . S
C1402 H1378 0.951 . S
C1402 C1403 1.366 . S
C1402 C1404 1.388 . S
C1403 C1402 1.366 . S
C1403 C1407 1.385 . S
C1404 H1379 0.951 . S
C1404 C1402 1.388 . S
C1404 C1405 1.366 . S
C1405 C1404 1.366 . S
C1405 C1406 1.414 . S
C1405 C1408 1.499 . S
C1406 H1380 0.950 . S
C1406 C1405 1.414 . S
C1406 C1407 1.374 . S
C1407 H1381 0.950 . S
C1407 C1403 1.385 . S
C1407 C1406 1.374 . S
C1408 C1405 1.499 . S
C1408 C1409 1.373 . S
C1408 C1410 1.389 . S
C1409 H1382 0.950 . S
C1409 C1395 1.377 . S
C1409 C1408 1.373 . S
C1410 C1394 1.377 . S
C1410 C1408 1.389 . S
C1410 C1411 1.524 . S
C1411 C1410 1.524 . S
C1411 C1412 1.397 . S
C1411 C1416 1.363 . S
C1412 H1383 0.950 . S
C1412 C1411 1.397 . S
C1412 C1413 1.334 . S
C1413 H1384 0.950 . S
C1413 C1412 1.334 . S
C1413 C1414 1.287 . S
C1414 C1413 1.287 . S
C1414 C1415 1.524 . S
C1414 H1417 0.999 . S
C1415 H1385 0.950 . S
C1415 C1414 1.524 . S
C1415 C1416 1.415 . S
C1416 H1386 0.950 . S
C1416 C1411 1.363 . S
C1416 C1415 1.415 . S
H1417 C1414 0.999 . S
H1418 C1399 0.913 . S
H1419 C1437 0.951 . S
H1420 C1439 0.951 . S
H1421 C1441 0.950 . S
H1422 C1442 0.950 . S
H1423 C1444 0.950 . S
H1424 C1447 0.950 . S
H1425 C1448 0.950 . S
H1426 C1450 0.950 . S
H1427 C1451 0.950 . S
H1428 C1452 0.951 . S
H1429 C1454 0.951 . S
H1430 C1456 0.950 . S
H1431 C1457 0.950 . S
H1432 C1459 0.950 . S
H1433 C1462 0.950 . S
H1434 C1463 0.950 . S
H1435 C1465 0.950 . S
H1436 C1466 0.950 . S
C1437 H1419 0.951 . S
C1437 C1438 1.366 . S
C1437 C1439 1.388 . S
C1438 C1437 1.366 . S
C1438 C1442 1.385 . S
C1439 H1420 0.951 . S
C1439 C1437 1.388 . S
C1439 C1440 1.366 . S
C1440 C1439 1.366 . S
C1440 C1441 1.414 . S
C1440 C1443 1.499 . S
C1441 H1421 0.950 . S
C1441 C1440 1.414 . S
C1441 C1442 1.374 . S
C1442 H1422 0.950 . S
C1442 C1438 1.385 . S
C1442 C1441 1.374 . S
C1443 C1440 1.499 . S
C1443 C1444 1.373 . S
C1443 C1445 1.389 . S
C1444 H1423 0.950 . S
C1444 C1443 1.373 . S
C1444 C1460 1.377 . S
C1445 C1443 1.389 . S
C1445 C1446 1.524 . S
C1445 C1459 1.377 . S
C1446 C1445 1.524 . S
C1446 C1447 1.397 . S
C1446 C1451 1.363 . S
C1447 H1424 0.950 . S
C1447 C1446 1.397 . S
C1447 C1448 1.334 . S
C1448 H1425 0.950 . S
C1448 C1447 1.334 . S
C1448 C1449 1.287 . S
C1449 C1448 1.287 . S
C1449 C1450 1.524 . S
C1449 H1468 0.913 . S
C1450 H1426 0.950 . S
C1450 C1449 1.524 . S
C1450 C1451 1.415 . S
C1451 H1427 0.950 . S
C1451 C1446 1.363 . S
C1451 C1450 1.415 . S
C1452 H1428 0.951 . S
C1452 C1453 1.366 . S
C1452 C1454 1.388 . S
C1453 C1452 1.366 . S
C1453 C1457 1.385 . S
C1454 H1429 0.951 . S
C1454 C1452 1.388 . S
C1454 C1455 1.366 . S
C1455 C1454 1.366 . S
C1455 C1456 1.414 . S
C1455 C1458 1.499 . S
C1456 H1430 0.950 . S
C1456 C1455 1.414 . S
C1456 C1457 1.374 . S
C1457 H1431 0.950 . S
C1457 C1453 1.385 . S
C1457 C1456 1.374 . S
C1458 C1455 1.499 . S
C1458 C1459 1.373 . S
C1458 C1460 1.389 . S
C1459 H1432 0.950 . S
C1459 C1445 1.377 . S
C1459 C1458 1.373 . S
C1460 C1444 1.377 . S
C1460 C1458 1.389 . S
C1460 C1461 1.524 . S
C1461 C1460 1.524 . S
C1461 C1462 1.397 . S
C1461 C1466 1.363 . S
C1462 H1433 0.950 . S
C1462 C1461 1.397 . S
C1462 C1463 1.334 . S
C1463 H1434 0.950 . S
C1463 C1462 1.334 . S
C1463 C1464 1.287 . S
C1464 C1463 1.287 . S
C1464 C1465 1.524 . S
C1464 H1467 0.999 . S
C1465 H1435 0.950 . S
C1465 C1464 1.524 . S
C1465 C1466 1.415 . S
C1466 H1436 0.950 . S
C1466 C1461 1.363 . S
C1466 C1465 1.415 . S
H1467 C1464 0.999 . S
H1468 C1449 0.913 . S
H1469 C1487 0.951 . S
H1470 C1489 0.951 . S
H1471 C1491 0.950 . S
H1472 C1492 0.950 . S
H1473 C1494 0.950 . S
H1474 C1497 0.950 . S
H1475 C1498 0.950 . S
H1476 C1500 0.950 . S
H1477 C1501 0.950 . S
H1478 C1502 0.951 . S
H1479 C1504 0.951 . S
H1480 C1506 0.950 . S
H1481 C1507 0.950 . S
H1482 C1509 0.950 . S
H1483 C1512 0.950 . S
H1484 C1513 0.950 . S
H1485 C1515 0.950 . S
H1486 C1516 0.950 . S
C1487 H1469 0.951 . S
C1487 C1488 1.366 . S
C1487 C1489 1.388 . S
C1488 C1487 1.366 . S
C1488 C1492 1.385 . S
C1489 H1470 0.951 . S
C1489 C1487 1.388 . S
C1489 C1490 1.366 . S
C1490 C1489 1.366 . S
C1490 C1491 1.414 . S
C1490 C1493 1.499 . S
C1491 H1471 0.950 . S
C1491 C1490 1.414 . S
C1491 C1492 1.374 . S
C1492 H1472 0.950 . S
C1492 C1488 1.385 . S
C1492 C1491 1.374 . S
C1493 C1490 1.499 . S
C1493 C1494 1.373 . S
C1493 C1495 1.389 . S
C1494 H1473 0.950 . S
C1494 C1493 1.373 . S
C1494 C1510 1.377 . S
C1495 C1493 1.389 . S
C1495 C1496 1.524 . S
C1495 C1509 1.377 . S
C1496 C1495 1.524 . S
C1496 C1497 1.397 . S
C1496 C1501 1.363 . S
C1497 H1474 0.950 . S
C1497 C1496 1.397 . S
C1497 C1498 1.334 . S
C1498 H1475 0.950 . S
C1498 C1497 1.334 . S
C1498 C1499 1.287 . S
C1499 C1498 1.287 . S
C1499 C1500 1.524 . S
C1499 H1518 0.913 . S
C1500 H1476 0.950 . S
C1500 C1499 1.524 . S
C1500 C1501 1.415 . S
C1501 H1477 0.950 . S
C1501 C1496 1.363 . S
C1501 C1500 1.415 . S
C1502 H1478 0.951 . S
C1502 C1503 1.366 . S
C1502 C1504 1.388 . S
C1503 C1502 1.366 . S
C1503 C1507 1.385 . S
C1504 H1479 0.951 . S
C1504 C1502 1.388 . S
C1504 C1505 1.366 . S
C1505 C1504 1.366 . S
C1505 C1506 1.414 . S
C1505 C1508 1.499 . S
C1506 H1480 0.950 . S
C1506 C1505 1.414 . S
C1506 C1507 1.374 . S
C1507 H1481 0.950 . S
C1507 C1503 1.385 . S
C1507 C1506 1.374 . S
C1508 C1505 1.499 . S
C1508 C1509 1.373 . S
C1508 C1510 1.389 . S
C1509 H1482 0.950 . S
C1509 C1495 1.377 . S
C1509 C1508 1.373 . S
C1510 C1494 1.377 . S
C1510 C1508 1.389 . S
C1510 C1511 1.524 . S
C1511 C1510 1.524 . S
C1511 C1512 1.397 . S
C1511 C1516 1.363 . S
C1512 H1483 0.950 . S
C1512 C1511 1.397 . S
C1512 C1513 1.334 . S
C1513 H1484 0.950 . S
C1513 C1512 1.334 . S
C1513 C1514 1.287 . S
C1514 C1513 1.287 . S
C1514 C1515 1.524 . S
C1514 H1517 0.999 . S
C1515 H1485 0.950 . S
C1515 C1514 1.524 . S
C1515 C1516 1.415 . S
C1516 H1486 0.950 . S
C1516 C1511 1.363 . S
C1516 C1515 1.415 . S
H1517 C1514 0.999 . S
H1518 C1499 0.913 . S
H1519 C1537 0.951 . S
H1520 C1539 0.951 . S
H1521 C1541 0.950 . S
H1522 C1542 0.950 . S
H1523 C1544 0.950 . S
H1524 C1547 0.950 . S
H1525 C1548 0.950 . S
H1526 C1550 0.950 . S
H1527 C1551 0.950 . S
H1528 C1552 0.951 . S
H1529 C1554 0.951 . S
H1530 C1556 0.950 . S
H1531 C1557 0.950 . S
H1532 C1559 0.950 . S
H1533 C1562 0.950 . S
H1534 C1563 0.950 . S
H1535 C1565 0.950 . S
H1536 C1566 0.950 . S
C1537 H1519 0.951 . S
C1537 C1538 1.366 . S
C1537 C1539 1.388 . S
C1538 C1537 1.366 . S
C1538 C1542 1.385 . S
C1539 H1520 0.951 . S
C1539 C1537 1.388 . S
C1539 C1540 1.366 . S
C1540 C1539 1.366 . S
C1540 C1541 1.414 . S
C1540 C1543 1.499 . S
C1541 H1521 0.950 . S
C1541 C1540 1.414 . S
C1541 C1542 1.374 . S
C1542 H1522 0.950 . S
C1542 C1538 1.385 . S
C1542 C1541 1.374 . S
C1543 C1540 1.499 . S
C1543 C1544 1.373 . S
C1543 C1545 1.389 . S
C1544 H1523 0.950 . S
C1544 C1543 1.373 . S
C1544 C1560 1.377 . S
C1545 C1543 1.389 . S
C1545 C1546 1.524 . S
C1545 C1559 1.377 . S
C1546 C1545 1.524 . S
C1546 C1547 1.397 . S
C1546 C1551 1.363 . S
C1547 H1524 0.950 . S
C1547 C1546 1.397 . S
C1547 C1548 1.334 . S
C1548 H1525 0.950 . S
C1548 C1547 1.334 . S
C1548 C1549 1.287 . S
C1549 C1548 1.287 . S
C1549 C1550 1.524 . S
C1549 H1568 0.913 . S
C1550 H1526 0.950 . S
C1550 C1549 1.524 . S
C1550 C1551 1.415 . S
C1551 H1527 0.950 . S
C1551 C1546 1.363 . S
C1551 C1550 1.415 . S
C1552 H1528 0.951 . S
C1552 C1553 1.366 . S
C1552 C1554 1.388 . S
C1553 C1552 1.366 . S
C1553 C1557 1.385 . S
C1554 H1529 0.951 . S
C1554 C1552 1.388 . S
C1554 C1555 1.366 . S
C1555 C1554 1.366 . S
C1555 C1556 1.414 . S
C1555 C1558 1.499 . S
C1556 H1530 0.950 . S
C1556 C1555 1.414 . S
C1556 C1557 1.374 . S
C1557 H1531 0.950 . S
C1557 C1553 1.385 . S
C1557 C1556 1.374 . S
C1558 C1555 1.499 . S
C1558 C1559 1.373 . S
C1558 C1560 1.389 . S
C1559 H1532 0.950 . S
C1559 C1545 1.377 . S
C1559 C1558 1.373 . S
C1560 C1544 1.377 . S
C1560 C1558 1.389 . S
C1560 C1561 1.524 . S
C1561 C1560 1.524 . S
C1561 C1562 1.397 . S
C1561 C1566 1.363 . S
C1562 H1533 0.950 . S
C1562 C1561 1.397 . S
C1562 C1563 1.334 . S
C1563 H1534 0.950 . S
C1563 C1562 1.334 . S
C1563 C1564 1.287 . S
C1564 C1563 1.287 . S
C1564 C1565 1.524 . S
C1564 H1567 0.999 . S
C1565 H1535 0.950 . S
C1565 C1564 1.524 . S
C1565 C1566 1.415 . S
C1566 H1536 0.950 . S
C1566 C1561 1.363 . S
C1566 C1565 1.415 . S
H1567 C1564 0.999 . S
H1568 C1549 0.913 . S
C388 C15 1.712 . S
C403 C276 1.643 . S
C438 C47 1.617 . S
C453 C308 1.588 . S
C503 C367 1.991 . S
C488 C100 2.041 . S
C553 C296 1.478 . S
C538 C146 1.513 . S
C588 C192 1.622 . S
C603 C326 1.534 . S
C653 C348 1.127 . S
C638 C245 1.132 . S
C703 C317 1.625 . S
C688 C114 1.644 . S
C738 C160 1.207 . S
C753 C357 1.164 . S
C803 C306 1.520 . S
C788 C206 1.544 . S
C838 C231 1.582 1_556 S
C853 C336 1.544 . S
C888 C1 1.966 . S
C903 C339 1.918 . S
C953 C278 1.655 . S
C938 C61 1.676 . S
C1003 C286 1.570 . S
C988 C139 1.605 . S
C1053 C327 1.582 . S
C1038 C185 1.603 . S
C1103 C340 2.014 . S
C1088 C252 2.064 1_556 S
C1153 C277 1.518 . S
C1138 C22 1.553 . S
C1203 C337 1.485 . S
C1188 C54 1.522 . S
C1238 C93 1.156 . S
C1253 C338 1.127 . S
C1303 C307 1.569 . S
C1288 C238 1.621 . S
C1353 C368 1.130 . S
C1338 C8 1.149 . S
C1403 C295 1.494 . S
C1388 C68 1.564 . S
C1453 C309 1.599 . S
C1438 C107 1.637 . S
C1488 C153 1.974 . S
C1503 C358 1.927 . S
C1538 C199 1.708 . S
C1553 C305 1.676 . S
