# Generated by pormake.
# Topology zzz, (3,6)-cn, num edge types: 1
# Building blocks:
#     Node 0, Type 0, BuildingBlock: CUQRIR_clean_linker_1, # of connection points: 3
#     Node 1, Type 0, BuildingBlock: CUQRIR_clean_linker_1, # of connection points: 3
#     Node 2, Type 0, BuildingBlock: CUQRIR_clean_linker_1, # of connection points: 3
#     Node 3, Type 0, BuildingBlock: CUQRIR_clean_linker_1, # of connection points: 3
#     Node 4, Type 0, BuildingBlock: CUQRIR_clean_linker_1, # of connection points: 3
#     Node 5, Type 0, BuildingBlock: CUQRIR_clean_linker_1, # of connection points: 3
#     Node 6, Type 0, BuildingBlock: CUQRIR_clean_linker_1, # of connection points: 3
#     Node 7, Type 0, BuildingBlock: CUQRIR_clean_linker_1, # of connection points: 3
#     Node 8, Type 1, BuildingBlock: PAMTUU_clean_sbu_0, # of connection points: 6
#     Node 9, Type 1, BuildingBlock: PAMTUU_clean_sbu_0, # of connection points: 6
#     Node 10, Type 1, BuildingBlock: PAMTUU_clean_sbu_0, # of connection points: 6
#     Node 11, Type 1, BuildingBlock: PAMTUU_clean_sbu_0, # of connection points: 6
#     Edge 12, Type (0, 1), BuildingBlock: UVAHIK_clean_linker_0, # of connection points: 2
#     Edge 13, Type (0, 1), BuildingBlock: UVAHIK_clean_linker_0, # of connection points: 2
#     Edge 14, Type (0, 1), BuildingBlock: UVAHIK_clean_linker_0, # of connection points: 2
#     Edge 15, Type (0, 1), BuildingBlock: UVAHIK_clean_linker_0, # of connection points: 2
#     Edge 16, Type (0, 1), BuildingBlock: UVAHIK_clean_linker_0, # of connection points: 2
#     Edge 17, Type (0, 1), BuildingBlock: UVAHIK_clean_linker_0, # of connection points: 2
#     Edge 18, Type (0, 1), BuildingBlock: UVAHIK_clean_linker_0, # of connection points: 2
#     Edge 19, Type (0, 1), BuildingBlock: UVAHIK_clean_linker_0, # of connection points: 2
#     Edge 20, Type (0, 1), BuildingBlock: UVAHIK_clean_linker_0, # of connection points: 2
#     Edge 21, Type (0, 1), BuildingBlock: UVAHIK_clean_linker_0, # of connection points: 2
#     Edge 22, Type (0, 1), BuildingBlock: UVAHIK_clean_linker_0, # of connection points: 2
#     Edge 23, Type (0, 1), BuildingBlock: UVAHIK_clean_linker_0, # of connection points: 2
#     Edge 24, Type (0, 1), BuildingBlock: UVAHIK_clean_linker_0, # of connection points: 2
#     Edge 25, Type (0, 1), BuildingBlock: UVAHIK_clean_linker_0, # of connection points: 2
#     Edge 26, Type (0, 1), BuildingBlock: UVAHIK_clean_linker_0, # of connection points: 2
#     Edge 27, Type (0, 1), BuildingBlock: UVAHIK_clean_linker_0, # of connection points: 2
#     Edge 28, Type (0, 1), BuildingBlock: UVAHIK_clean_linker_0, # of connection points: 2
#     Edge 29, Type (0, 1), BuildingBlock: UVAHIK_clean_linker_0, # of connection points: 2
#     Edge 30, Type (0, 1), BuildingBlock: UVAHIK_clean_linker_0, # of connection points: 2
#     Edge 31, Type (0, 1), BuildingBlock: UVAHIK_clean_linker_0, # of connection points: 2
#     Edge 32, Type (0, 1), BuildingBlock: UVAHIK_clean_linker_0, # of connection points: 2
#     Edge 33, Type (0, 1), BuildingBlock: UVAHIK_clean_linker_0, # of connection points: 2
#     Edge 34, Type (0, 1), BuildingBlock: UVAHIK_clean_linker_0, # of connection points: 2
#     Edge 35, Type (0, 1), BuildingBlock: UVAHIK_clean_linker_0, # of connection points: 2
# Relax obj value: 0.198
# Max RMSD: 0.207
# Mean RMSD: 0.122
data_MOF--net-zzz--node1-PAMTUU_clean_sbu_0--node2-CUQRIR_clean_linker_1--edge1-UVAHIK_clean_linker_0
_symmetry_space_group_name_H-M    P1
_symmetry_Int_Tables_number       1
_symmetry_cell_setting            triclinic
loop_
_symmetry_equiv_pos_as_xyz
'x, y, z'
_cell_length_a     63.262139
_cell_length_b     67.614242
_cell_length_c     18.11753
_cell_angle_alpha  99.959657
_cell_angle_beta   90.064423
_cell_angle_gamma 91.690427
loop_
_atom_site_label
_atom_site_type_symbol
_atom_site_fract_x
_atom_site_fract_y
_atom_site_fract_z
_atom_type_partial_charge
C0 C 0.75658 0.49508 0.39631 0.0
N1 N 0.77501 0.48552 0.40255 0.0
N2 N 0.7446 0.48516 0.33789 0.0
C3 C 0.75007 0.51364 0.44794 0.0
C4 C 0.75658 0.46945 0.30867 0.0
N5 N 0.77479 0.46962 0.3479 0.0
C6 C 0.75128 0.4549 0.23784 0.0
H7 H 0.7568 0.51411 0.50484 0.0
H8 H 0.73258 0.51433 0.45088 0.0
H9 H 0.75626 0.52699 0.42596 0.0
H10 H 0.76582 0.44977 0.20706 0.0
H11 H 0.74098 0.46181 0.20034 0.0
H12 H 0.74276 0.44158 0.25274 0.0
C13 C 0.9958 0.72669 0.41971 0.0
N14 N 0.99893 0.74634 0.41487 0.0
N15 N 1.00211 0.71482 0.35573 0.0
C16 C 0.98717 0.71911 0.48701 0.0
C17 C 1.00924 0.72799 0.31229 0.0
N18 N 1.00733 0.74705 0.34826 0.0
C19 C 0.01728 0.72223 0.23363 0.0
H20 H 0.99111 0.72983 0.53913 0.0
H21 H 0.9934 0.70413 0.49051 0.0
H22 H 0.96969 0.71762 0.48171 0.0
H23 H 1.00969 0.70789 0.2055 0.0
H24 H 0.03459 0.7202 0.23581 0.0
H25 H 0.0143 0.73416 0.20017 0.0
C26 C 0.78498 -0.00476 0.39377 0.0
N27 N 0.76678 0.00565 0.40722 0.0
N28 N 0.79803 0.0038 0.34724 0.0
C29 C 0.79038 0.97733 0.42779 0.0
C30 C 0.787 0.01952 0.33242 0.0
N31 N 0.76836 0.02073 0.36898 0.0
C32 C 0.79365 0.0327 0.27683 0.0
H33 H 0.78336 0.97838 0.48439 0.0
H34 H 0.80777 0.97598 0.4313 0.0
H35 H 0.78375 0.96359 0.39178 0.0
H36 H 0.80414 0.02467 0.23331 0.0
H37 H 0.8024 0.04615 0.30705 0.0
H38 H 0.77975 0.03783 0.24879 0.0
C39 C 0.53043 0.7617 0.1867 0.0
N40 N 0.5257 0.74176 0.17973 0.0
N41 N 0.52147 0.76941 0.12999 0.0
C42 C 0.54413 0.77351 0.24745 0.0
C43 C 0.5112 0.75336 0.08832 0.0
N44 N 0.51378 0.73662 0.1186 0.0
C45 C 0.49857 0.75423 0.01858 0.0
H46 H 0.54314 0.76703 0.29957 0.0
H47 H 0.53953 0.78945 0.25926 0.0
H48 H 0.56081 0.77298 0.22847 0.0
H49 H 0.50682 0.76414 0.98428 0.0
H50 H 0.48302 0.76072 0.03496 0.0
H51 H 0.49564 0.73919 0.98424 0.0
C52 C 0.28918 0.48861 0.19281 0.0
N53 N 0.27054 0.49774 0.18558 0.0
N54 N 0.30035 0.49834 0.2536 0.0
C55 C 0.29664 0.47063 0.14016 0.0
C56 C 0.2877 0.51349 0.28316 0.0
N57 N 0.2698 0.51312 0.24213 0.0
C58 C 0.29226 0.52785 0.35499 0.0
H59 H 0.31416 0.47017 0.14066 0.0
H60 H 0.29082 0.47075 0.08243 0.0
H61 H 0.29015 0.45686 0.15853 0.0
H62 H 0.30048 0.54149 0.34152 0.0
H63 H 0.30264 0.52105 0.3926 0.0
H64 H 0.27742 0.53245 0.38484 0.0
C65 C 0.03924 0.2589 0.17314 0.0
N66 N 0.03446 0.23949 0.17781 0.0
N67 N 0.03348 0.27123 0.2369 0.0
C68 C 0.04867 0.26585 0.10578 0.0
C69 C 0.02511 0.25856 0.28021 0.0
N70 N 0.02565 0.23938 0.24418 0.0
C71 C 0.01752 0.2648 0.35924 0.0
H72 H 0.06614 0.26657 0.11182 0.0
H73 H 0.04329 0.28108 0.10138 0.0
H74 H 0.04446 0.25519 0.05378 0.0
H75 H 1.00049 0.26818 0.35786 0.0
H76 H 0.02629 0.27849 0.38747 0.0
H77 H 0.01941 0.25258 0.39224 0.0
C78 C 0.25071 -0.00288 0.19111 0.0
N79 N 0.26871 0.98637 0.17954 0.0
N80 N 0.23687 0.98863 0.23529 0.0
C81 C 0.2464 0.01555 0.15872 0.0
C82 C 0.2472 0.97257 0.25062 0.0
N83 N 0.26624 0.97115 0.2168 0.0
C84 C 0.23942 0.95909 0.30362 0.0
H85 H 0.22913 0.01748 0.15365 0.0
H86 H 0.25396 0.0147 0.10306 0.0
H87 H 0.25319 0.02888 0.19667 0.0
H88 H 0.23295 0.94488 0.2703 0.0
H89 H 0.22685 0.9661 0.34104 0.0
H90 H 0.25262 0.95529 0.33851 0.0
C91 C 0.50706 0.21699 0.39709 0.0
N92 N 0.50945 0.23723 0.40409 0.0
N93 N 0.51112 0.21097 0.46352 0.0
C94 C 0.50202 0.20309 0.32488 0.0
C95 C 0.51595 0.22839 0.51084 0.0
N96 N 0.51497 0.24421 0.47468 0.0
C97 C 0.52041 0.23014 0.59331 0.0
H98 H 0.48466 0.20026 0.32082 0.0
H99 H 0.50973 0.18849 0.3232 0.0
H100 H 0.50714 0.2099 0.27607 0.0
H101 H 0.53769 0.22922 0.60197 0.0
H102 H 0.51225 0.21782 0.61639 0.0
H103 H 0.51528 0.24481 0.62439 0.0
Tb104 Tb 1.00112 -0.00267 0.72298 0.0
Tb105 Tb 0.03372 0.98866 0.85355 0.0
C106 C 0.98392 0.9894 0.8788 0.0
C107 C 0.97525 0.0236 0.58499 0.0
C108 C 0.97469 0.0581 0.51683 0.0
C109 C 0.9632 0.05733 0.58262 0.0
C110 C 0.9634 0.04024 0.61618 0.0
C111 C 0.98605 0.02407 0.51751 0.0
C112 C 0.98581 0.04116 0.48387 0.0
C113 C 0.97677 0.00613 0.62373 0.0
O114 O 1.00637 0.02572 0.79903 0.0
O115 O 0.03853 0.02049 0.84966 0.0
O116 O 0.05253 0.98652 0.75145 0.0
O117 O 0.03269 0.00517 0.68463 0.0
O118 O 0.04367 -0.00599 0.9663 0.0
O119 O 0.05989 0.97334 0.88327 0.0
O120 O 0.01804 0.95981 0.81192 0.0
O121 O 1.00643 0.96525 0.69707 0.0
O122 O 0.98086 0.98629 0.80579 0.0
O123 O 1.00292 -0.00621 0.9079 0.0
C124 C 0.02377 0.0326 0.83546 0.0
O125 O 0.99329 -0.00493 0.60899 0.0
O126 O 0.97259 0.00932 0.69514 0.0
C127 C 0.05053 -0.00346 0.69585 0.0
C128 C 0.05452 0.96374 0.99907 0.0
C129 C 0.05045 0.92937 0.06635 0.0
C130 C 0.06924 0.94122 0.07515 0.0
C131 C 0.07131 0.95826 0.04113 0.0
C132 C 0.03547 0.95244 0.99315 0.0
C133 C 0.03346 0.93538 0.02632 0.0
C134 C 0.05733 0.97977 0.95455 0.0
C135 C 1.01083 0.95311 0.74393 0.0
H136 H 0.95418 0.07002 0.60858 0.0
H137 H 0.95459 0.04025 0.66741 0.0
H138 H 0.99511 0.0114 0.49154 0.0
H139 H 0.99493 0.04134 0.43341 0.0
H140 H 0.08256 0.93683 0.10561 0.0
H141 H 0.08618 0.96677 0.04566 0.0
H142 H 0.02234 0.95645 0.9608 0.0
H143 H 0.01873 0.92666 0.01959 0.0
Tb144 Tb 0.51433 0.97801 0.73129 0.0
Tb145 Tb 0.52806 0.00607 0.88893 0.0
C146 C 0.52615 0.95993 0.87182 0.0
C147 C 0.48642 0.94492 0.57163 0.0
C148 C 0.45055 0.92598 0.49593 0.0
C149 C 0.47049 0.92429 0.46176 0.0
C150 C 0.48833 0.93366 0.49956 0.0
C151 C 0.4666 0.94663 0.60613 0.0
C152 C 0.44878 0.93721 0.56858 0.0
C153 C 0.50536 0.95399 0.61144 0.0
O154 O 0.48476 0.97915 0.7952 0.0
O155 O 0.49342 0.00508 0.89175 0.0
O156 O 0.52976 0.02483 0.80285 0.0
O157 O 0.50448 0.00832 0.72337 0.0
O158 O 0.54469 0.01054 0.99076 0.0
O159 O 0.52456 0.03345 0.96214 0.0
O160 O 0.55834 -0.00286 0.83394 0.0
O161 O 0.5464 0.98883 0.71239 0.0
O162 O 0.53068 0.95999 0.80132 0.0
O163 O 0.5202 0.97647 0.91416 0.0
C164 C 0.47947 0.99219 0.85475 0.0
O165 O 0.50838 0.97328 0.61508 0.0
O166 O 0.50884 0.94853 0.67565 0.0
C167 C 0.51602 0.02461 0.74838 0.0
C168 C 0.55444 0.04426 0.03692 0.0
C169 C 0.58723 0.07083 0.10004 0.0
C170 C 0.5674 0.07088 0.13507 0.0
C171 C 0.55115 0.05763 0.10377 0.0
C172 C 0.57363 0.04509 0.99892 0.0
C173 C 0.58993 0.05825 0.03033 0.0
C174 C 0.53817 0.02885 0.00999 0.0
C175 C 0.562 -0.00671 0.76108 0.0
H176 H 0.47228 0.91573 0.40592 0.0
H177 H 0.50361 0.93209 0.47261 0.0
H178 H 0.46492 0.95525 0.66196 0.0
H179 H 0.43355 0.93912 0.59569 0.0
H180 H 0.56475 0.08055 0.18828 0.0
H181 H 0.53628 0.0573 0.13323 0.0
H182 H 0.57633 0.03496 0.94678 0.0
H183 H 0.60506 0.05759 0.00223 0.0
Tb184 Tb 0.50634 0.48162 0.86483 0.0
Tb185 Tb 0.53507 0.50136 0.74203 0.0
C186 C 0.48656 0.49221 0.71607 0.0
C187 C 0.48853 0.44617 0.99083 0.0
C188 C 0.49271 0.41065 0.0523 0.0
C189 C 0.47471 0.42246 0.06699 0.0
C190 C 0.47264 0.43998 0.03644 0.0
C191 C 0.50671 0.43473 0.97706 0.0
C192 C 0.50879 0.41715 0.00742 0.0
C193 C 0.48525 0.46367 0.95381 0.0
O194 O 0.5277 0.45891 0.81456 0.0
O195 O 0.53282 0.46895 0.70142 0.0
O196 O 0.55807 0.49153 0.81774 0.0
O197 O 0.53659 0.49183 0.92031 0.0
O198 O 0.54103 0.50401 0.6299 0.0
O199 O 0.55969 0.52106 0.71958 0.0
O200 O 0.52751 0.52534 0.83339 0.0
O201 O 0.49679 0.51269 0.87744 0.0
O202 O 0.48751 0.47899 0.76143 0.0
O203 O 0.50205 0.50552 0.71433 0.0
C204 C 0.5325 0.45489 0.7434 0.0
O205 O 0.49727 0.47963 0.97545 0.0
O206 O 0.48359 0.45961 0.88113 0.0
C207 C 0.5556 0.49201 0.89038 0.0
C208 C 0.55324 0.53648 0.61459 0.0
C209 C 0.54973 0.57141 0.54893 0.0
C210 C 0.56851 0.56055 0.5427 0.0
C211 C 0.57021 0.5433 0.57511 0.0
C212 C 0.5345 0.54726 0.62169 0.0
C213 C 0.53275 0.56454 0.58916 0.0
C214 C 0.55543 0.5182 0.64814 0.0
C215 C 0.50984 0.52779 0.87134 0.0
H216 H 0.46216 0.41818 0.10222 0.0
H217 H 0.45846 0.44857 0.0476 0.0
H218 H 0.51912 0.43919 0.94165 0.0
H219 H 0.52277 0.4084 0.99407 0.0
H220 H 0.58204 0.5655 0.51343 0.0
H221 H 0.58485 0.53527 0.56941 0.0
H222 H 0.5212 0.54227 0.6521 0.0
H223 H 0.51797 0.57233 0.59456 0.0
Tb224 Tb 0.02841 0.50913 0.74816 0.0
Tb225 Tb 0.01631 0.47557 0.85035 0.0
C226 C 0.01384 0.52079 0.91549 0.0
C227 C 0.0506 0.5413 0.61494 0.0
C228 C 0.07969 0.55169 0.51007 0.0
C229 C 0.06474 0.56551 0.54221 0.0
C230 C 0.05027 0.56032 0.59426 0.0
C231 C 0.06525 0.52733 0.58242 0.0
C232 C 0.07969 0.53248 0.53025 0.0
C233 C 0.03596 0.53659 0.67214 0.0
O234 O 0.05918 0.49788 0.77663 0.0
O235 O 0.04834 0.48688 0.88384 0.0
O236 O 0.03515 0.46099 0.75761 0.0
O237 O 0.02761 0.48056 0.67092 0.0
O238 O 0.0141 0.46622 0.95492 0.0
O239 O 1.00798 0.44545 0.85206 0.0
O240 O 0.98818 0.47712 0.78059 0.0
O241 O 0.99394 0.50919 0.75949 0.0
O242 O 0.02746 0.52398 0.86415 0.0
O243 O 1.00364 0.50343 0.91125 0.0
C244 C 0.06359 0.49231 0.84125 0.0
O245 O 0.02272 0.52153 0.65174 0.0
O246 O 0.04422 0.53622 0.73767 0.0
C247 C 0.03342 0.46339 0.68766 0.0
C248 C 0.99001 0.43921 0.95865 0.0
C249 C 0.95531 0.42146 0.02181 0.0
C250 C 0.97552 0.41348 0.02379 0.0
C251 C 0.99274 0.4223 0.99231 0.0
C252 C 0.96991 0.44717 0.95582 0.0
C253 C 0.95269 0.43838 0.98731 0.0
C254 C 1.0082 0.44796 0.92492 0.0
C255 C 0.98131 0.49331 0.75806 0.0
H256 H 0.06431 0.58035 0.52742 0.0
H257 H 0.03898 0.57123 0.6191 0.0
H258 H 0.06572 0.51262 0.59831 0.0
H259 H 0.09128 0.52164 0.50742 0.0
H260 H 0.978 0.40041 0.04949 0.0
H261 H 1.0082 0.41592 0.9942 0.0
H262 H 0.9676 0.4602 0.92964 0.0
H263 H 0.9374 0.44513 0.98614 0.0
C264 C 0.21532 0.01055 0.32796 0.0
C265 C 0.21651 -0.00493 0.26563 0.0
C266 C 0.19665 0.01326 0.37043 0.0
C267 C 0.16172 0.00544 0.48045 0.0
H268 H 0.1056 -0.00486 0.39368 0.0
C269 C 0.08878 0.99041 0.6604 0.0
C270 C 0.06909 -0.00191 0.64505 0.0
C271 C 0.10622 0.99162 0.61318 0.0
C272 C 0.1211 -0.00176 0.41914 0.0
H273 H 0.19899 0.97058 0.19814 0.0
H274 H 0.16631 0.97544 0.27041 0.0
H275 H 0.13626 -0.00447 0.31195 0.0
H276 H 0.05262 0.01313 0.56656 0.0
H277 H 0.08299 0.01522 0.48427 0.0
H278 H 0.14663 0.00812 0.58755 0.0
C279 C 0.1796 0.98572 0.28664 0.0
C280 C 0.1388 -0.00172 0.372 0.0
C281 C 0.1983 0.98297 0.24469 0.0
C282 C 0.06745 0.00703 0.58057 0.0
C283 C 0.08491 0.00812 0.53293 0.0
C284 C 0.14406 0.00527 0.5275 0.0
C285 C 0.17862 0.00054 0.35162 0.0
C286 C 0.15946 0.00175 0.4018 0.0
C287 C 0.10463 0.00047 0.54851 0.0
C288 C 0.12343 0.0015 0.49777 0.0
H289 H 0.22926 0.01977 0.34637 0.0
H290 H 0.19655 0.025 0.41932 0.0
H291 H 0.17726 0.00795 0.50602 0.0
H292 H 0.09081 0.98337 0.70917 0.0
H293 H 0.12092 0.98526 0.62691 0.0
C294 C 0.49369 0.17764 0.46545 0.0
C295 C 0.51136 0.19084 0.48054 0.0
C296 C 0.49334 0.15888 0.48905 0.0
C297 C 0.51673 0.134 0.63377 0.0
H298 H 0.49777 0.08392 0.51062 0.0
C299 C 0.52966 0.05861 0.73029 0.0
C300 C 0.51437 0.04295 0.7136 0.0
C301 C 0.52839 0.07606 0.69908 0.0
C302 C 0.50283 0.09779 0.54627 0.0
H303 H 0.54288 0.19434 0.52807 0.0
H304 H 0.54222 0.16191 0.57033 0.0
H305 H 0.49716 0.1152 0.45985 0.0
H306 H 0.48571 0.03343 0.65004 0.0
H307 H 0.48315 0.06421 0.59681 0.0
H308 H 0.52204 0.11701 0.72066 0.0
C309 C 0.52851 0.16606 0.54126 0.0
C310 C 0.50253 0.11573 0.51695 0.0
C311 C 0.52892 0.18462 0.51708 0.0
C312 C 0.49779 0.04518 0.66412 0.0
C313 C 0.49639 0.06282 0.63326 0.0
C314 C 0.51682 0.1162 0.66326 0.0
C315 C 0.51059 0.15307 0.52879 0.0
C316 C 0.50981 0.134 0.56003 0.0
C317 C 0.51163 0.0786 0.65074 0.0
C318 C 0.51022 0.09773 0.6197 0.0
H319 H 0.47991 0.18214 0.43779 0.0
H320 H 0.47928 0.14927 0.47871 0.0
H321 H 0.522 0.14787 0.66912 0.0
H322 H 0.54284 0.0574 0.76733 0.0
H323 H 0.54078 0.08752 0.71258 0.0
C324 C 0.32358 0.47798 0.31963 0.0
C325 C 0.32087 0.49437 0.2827 0.0
C326 C 0.34208 0.47657 0.36174 0.0
C327 C 0.38652 0.50936 0.45795 0.0
H328 H 0.4105 0.45886 0.48298 0.0
C329 C 0.46582 0.50653 0.6188 0.0
C330 C 0.46772 0.49197 0.66523 0.0
C331 C 0.44828 0.50626 0.57076 0.0
C332 C 0.40392 0.47313 0.47732 0.0
H333 H 0.33557 0.52173 0.25879 0.0
H334 H 0.36807 0.51904 0.32896 0.0
H335 H 0.38004 0.45891 0.39997 0.0
H336 H 0.45233 0.46556 0.69635 0.0
H337 H 0.42184 0.46512 0.61312 0.0
H338 H 0.41035 0.52359 0.53506 0.0
C339 C 0.35587 0.50742 0.32758 0.0
C340 C 0.38634 0.47316 0.42945 0.0
C341 C 0.33738 0.50885 0.28613 0.0
C342 C 0.45152 0.47706 0.66171 0.0
C343 C 0.43402 0.47672 0.61334 0.0
C344 C 0.4041 0.50933 0.50543 0.0
C345 C 0.35836 0.49157 0.36801 0.0
C346 C 0.37733 0.4913 0.41869 0.0
C347 C 0.43205 0.49135 0.56711 0.0
C348 C 0.41315 0.49123 0.516 0.0
H349 H 0.3109 0.46684 0.31916 0.0
H350 H 0.34313 0.4642 0.39219 0.0
H351 H 0.3799 0.52367 0.45327 0.0
H352 H 0.47793 0.51823 0.61937 0.0
H353 H 0.44762 0.51764 0.53559 0.0
C354 C 0.01747 0.30395 0.279 0.0
C355 C 0.03537 0.2928 0.25595 0.0
C356 C 0.0195 0.32433 0.30993 0.0
C357 C 0.05841 0.36027 0.41353 0.0
H358 H 0.01453 0.3983 0.39931 0.0
C359 C 0.03348 0.44688 0.55164 0.0
C360 C 0.0376 0.44607 0.62737 0.0
C361 C 0.03574 0.42981 0.4962 0.0
C362 C 0.02713 0.38803 0.40322 0.0
H363 H 0.06928 0.29425 0.24318 0.0
H364 H 0.07301 0.33016 0.29612 0.0
H365 H 0.01367 0.36595 0.31532 0.0
H366 H 0.04796 0.42675 0.70357 0.0
H367 H 0.05167 0.39723 0.60781 0.0
H368 H 0.07181 0.38227 0.50164 0.0
C369 C 0.05737 0.32309 0.29142 0.0
C370 C 0.0265 0.36935 0.35555 0.0
C371 C 0.05528 0.30263 0.26036 0.0
C372 C 0.04464 0.428 0.64591 0.0
C373 C 0.04694 0.41102 0.5907 0.0
C374 C 0.05906 0.37894 0.46107 0.0
C375 C 0.03955 0.33409 0.31848 0.0
C376 C 0.04183 0.355 0.36135 0.0
C377 C 0.04227 0.41159 0.5152 0.0
C378 C 0.04312 0.39287 0.45795 0.0
H379 H 1.00198 0.2966 0.27586 0.0
H380 H 1.00544 0.33214 0.33072 0.0
H381 H 0.07042 0.34961 0.4202 0.0
H382 H 0.02805 0.46055 0.5353 0.0
H383 H 0.03221 0.43086 0.43852 0.0
C384 C 0.83553 0.01246 0.32689 0.0
C385 C 0.81871 -0.00181 0.31715 0.0
C386 C 0.85409 0.0094 0.28455 0.0
C387 C 0.87421 0.97961 0.10541 0.0
H388 H 0.92765 0.00502 0.17868 0.0
C389 C 0.94446 0.98804 0.90319 0.0
C390 C 0.9654 0.98832 0.93002 0.0
C391 C 0.92713 0.98778 0.95177 0.0
C392 C 0.91301 -0.00246 0.15696 0.0
H393 H 0.80856 0.96906 0.25714 0.0
H394 H 0.84131 0.96311 0.18491 0.0
H395 H 0.89775 0.00589 0.26272 0.0
H396 H 0.98423 0.98801 0.02979 0.0
H397 H 0.95428 0.98695 0.11355 0.0
H398 H 0.8897 0.97073 1.00021 0.0
C399 C 0.84005 0.97702 0.22421 0.0
C400 C 0.89557 -0.00168 0.20539 0.0
C401 C 0.82137 0.98019 0.26662 0.0
C402 C 0.96841 0.98798 0.00683 0.0
C403 C 0.95108 0.98752 0.05528 0.0
C404 C 0.89172 0.97869 0.05707 0.0
C405 C 0.85656 0.99182 0.23098 0.0
C406 C 0.87572 0.9896 0.18042 0.0
C407 C 0.93007 0.98759 0.02893 0.0
C408 C 0.91143 0.98784 0.08159 0.0
H409 H 0.83379 0.02658 0.3647 0.0
H410 H 0.86602 0.02138 0.29147 0.0
H411 H 0.85931 0.97285 0.083 0.0
H412 H 0.94141 0.98841 0.84463 0.0
H413 H 0.9114 0.9882 0.92869 0.0
C414 C 0.5047 0.80023 0.10552 0.0
C415 C 0.52303 0.78969 0.11472 0.0
C416 C 0.50603 0.81923 0.08463 0.0
C417 C 0.51276 0.86332 0.07297 0.0
H418 H 0.5549 0.87271 0.92677 0.0
C419 C 0.52347 0.94089 0.97961 0.0
C420 C 0.52754 0.94104 0.90336 0.0
C421 C 0.52399 0.92297 0.00864 0.0
C422 C 0.54292 0.87034 0.96726 0.0
H423 H 0.55717 0.79089 0.11088 0.0
H424 H 0.55971 0.82436 0.0762 0.0
H425 H 0.55348 0.84075 0.97163 0.0
H426 H 0.53547 0.92228 0.79805 0.0
H427 H 0.53607 0.8911 0.84818 0.0
H428 H 0.50174 0.89262 0.06673 0.0
C429 C 0.5442 0.81784 0.08376 0.0
C430 C 0.54229 0.85205 0.99388 0.0
C431 C 0.54281 0.79878 0.10454 0.0
C432 C 0.53235 0.9228 0.85712 0.0
C433 C 0.53282 0.90488 0.88609 0.0
C434 C 0.51337 0.88159 0.04627 0.0
C435 C 0.5258 0.82827 0.07264 0.0
C436 C 0.5271 0.84818 0.04676 0.0
C437 C 0.52852 0.90465 0.96223 0.0
C438 C 0.52836 0.88535 0.9926 0.0
H439 H 0.48928 0.79361 0.11373 0.0
H440 H 0.49149 0.82658 0.07596 0.0
H441 H 0.501 0.86109 0.11435 0.0
H442 H 0.51978 0.95462 0.01706 0.0
H443 H 0.52092 0.92353 0.06773 0.0
C444 C 0.70767 0.47452 0.30339 0.0
C445 C 0.7239 0.48939 0.31067 0.0
C446 C 0.68896 0.47652 0.26394 0.0
C447 C 0.66743 0.50339 0.1173 0.0
H448 H 0.6144 0.47915 0.16845 0.0
C449 C 0.5953 0.49135 0.91082 0.0
C450 C 0.5747 0.49275 0.94038 0.0
C451 C 0.61311 0.49203 0.95804 0.0
C452 C 0.62894 0.48623 0.15332 0.0
H453 H 0.73292 0.51837 0.28401 0.0
H454 H 0.69996 0.52231 0.21661 0.0
H455 H 0.64499 0.47965 0.25003 0.0
H456 H 0.55703 0.49624 0.0441 0.0
H457 H 0.5878 0.4978 0.12584 0.0
H458 H 0.65121 0.51034 0.02133 0.0
C459 C 0.70178 0.50884 0.2404 0.0
C460 C 0.64673 0.48628 0.20002 0.0
C461 C 0.72058 0.50679 0.28011 0.0
C462 C 0.57254 0.49497 0.01876 0.0
C463 C 0.59032 0.49574 0.06595 0.0
C464 C 0.6496 0.50339 0.07063 0.0
C465 C 0.6858 0.49352 0.2303 0.0
C466 C 0.66638 0.49468 0.18261 0.0
C467 C 0.61097 0.49422 0.03658 0.0
C468 C 0.63004 0.49467 0.08743 0.0
H469 H 0.70991 0.46087 0.32571 0.0
H470 H 0.67739 0.46421 0.25712 0.0
H471 H 0.6822 0.50984 0.10097 0.0
H472 H 0.59772 0.48957 0.8509 0.0
H473 H 0.62857 0.49048 0.93255 0.0
C474 C 0.02133 0.6837 0.31919 0.0
C475 C 1.00219 0.69325 0.33688 0.0
C476 C 0.02147 0.66347 0.28608 0.0
C477 C 0.98996 0.6158 0.23881 0.0
H478 H 0.02708 0.60783 0.06681 0.0
C479 C 0.99138 0.54231 0.01094 0.0
C480 C 1.01126 0.53722 0.98001 0.0
C481 C 0.98917 0.56013 0.06315 0.0
C482 C 0.01685 0.60961 0.11525 0.0
H483 H 0.96822 0.68914 0.33811 0.0
H484 H 0.96829 0.65343 0.27969 0.0
H485 H 0.02545 0.64075 0.14404 0.0
H486 H 0.04459 0.54568 0.9839 0.0
H487 H 0.04095 0.57599 0.076 0.0
H488 H 0.98142 0.58438 0.20908 0.0
C489 C 0.98324 0.66157 0.29191 0.0
C490 C 0.01591 0.62858 0.15963 0.0
C491 C 0.98315 0.68192 0.32536 0.0
C492 C 0.029 0.54941 0.00586 0.0
C493 C 0.02688 0.56689 0.05833 0.0
C494 C 0.991 0.59662 0.19425 0.0
C495 C 1.0024 0.65233 0.26941 0.0
C496 C 1.0027 0.63191 0.22255 0.0
C497 C 1.00686 0.57296 0.08552 0.0
C498 C 1.00472 0.59326 0.13248 0.0
H499 H 0.03616 0.69223 0.32791 0.0
H500 H 0.03652 0.65672 0.27091 0.0
H501 H 0.97956 0.61791 0.28678 0.0
H502 H 0.97744 0.53316 0.99171 0.0
H503 H 0.97352 0.56433 0.08305 0.0
C504 C 0.03281 0.20656 0.27765 0.0
C505 C 0.01855 0.22165 0.27168 0.0
C506 C 0.02584 0.18878 0.30008 0.0
C507 C 0.98329 0.16725 0.40192 0.0
H508 H 1.00583 0.11673 0.30398 0.0
C509 C 0.97916 0.0955 0.53242 0.0
C510 C 0.97602 0.07688 0.48496 0.0
C511 C 0.98182 0.1131 0.5027 0.0
C512 C 0.99915 0.13066 0.33129 0.0
H513 H 0.98605 0.23046 0.28453 0.0
H514 H 0.97361 0.19926 0.32472 0.0
H515 H 0.01525 0.14758 0.2579 0.0
H516 H 0.97241 0.0622 0.3692 0.0
H517 H 0.97699 0.09304 0.3171 0.0
H518 H 0.96713 0.1503 0.47519 0.0
C519 C 0.99021 0.20117 0.31234 0.0
C520 C 1.00477 0.14837 0.30548 0.0
C521 C 0.99725 0.21895 0.28959 0.0
C522 C 0.9751 0.0763 0.40711 0.0
C523 C 0.97772 0.09395 0.37733 0.0
C524 C 0.97766 0.14952 0.42776 0.0
C525 C 1.00444 0.18583 0.31728 0.0
C526 C 0.99718 0.16689 0.3413 0.0
C527 C 0.98136 0.11251 0.42479 0.0
C528 C 0.98579 0.13108 0.39345 0.0
H529 H 0.04937 0.2086 0.265 0.0
H530 H 0.03727 0.17744 0.30479 0.0
H531 H 0.97727 0.1813 0.43089 0.0
H532 H 0.9803 0.0964 0.59258 0.0
H533 H 0.98496 0.1271 0.54076 0.0
C534 C 0.28187 0.93809 0.21481 0.0
C535 C 0.28302 0.95907 0.23531 0.0
C536 C 0.2979 0.92646 0.23676 0.0
C537 C 0.33575 0.92666 0.38453 0.0
H538 H 0.37541 0.89917 0.24212 0.0
C539 C 0.41512 0.90827 0.49044 0.0
C540 C 0.4313 0.91751 0.4543 0.0
C541 C 0.39534 0.90402 0.45623 0.0
C542 C 0.36426 0.90645 0.28254 0.0
H543 H 0.30116 0.98456 0.29374 0.0
H544 H 0.3291 0.96432 0.33353 0.0
H545 H 0.34233 0.91109 0.19699 0.0
H546 H 0.44017 0.92786 0.35153 0.0
H547 H 0.40567 0.92082 0.29245 0.0
H548 H 0.35798 0.92357 0.46973 0.0
C549 C 0.31599 0.95684 0.30028 0.0
C550 C 0.34536 0.91314 0.25674 0.0
C551 C 0.30023 0.96838 0.27739 0.0
C552 C 0.428 0.92069 0.38067 0.0
C553 C 0.40821 0.91653 0.34661 0.0
C554 C 0.35447 0.9199 0.41033 0.0
C555 C 0.31485 0.93582 0.28071 0.0
C556 C 0.33155 0.92413 0.3075 0.0
C557 C 0.39139 0.90909 0.38556 0.0
C558 C 0.36942 0.91062 0.35936 0.0
H559 H 0.26855 0.93082 0.1823 0.0
H560 H 0.29686 0.91026 0.22104 0.0
H561 H 0.3252 0.93509 0.42446 0.0
H562 H 0.41743 0.90526 0.54666 0.0
H563 H 0.38276 0.89796 0.48704 0.0
C564 C 0.50302 0.27893 0.50227 0.0
C565 C 0.5189 0.26509 0.50518 0.0
C566 C 0.50736 0.29949 0.52352 0.0
C567 C 0.5454 0.33608 0.63142 0.0
H568 H 0.51784 0.37313 0.52398 0.0
C569 C 0.53677 0.41913 0.75721 0.0
C570 C 0.53643 0.43369 0.71044 0.0
C571 C 0.53802 0.3988 0.72705 0.0
C572 C 0.52598 0.36303 0.55388 0.0
H573 H 0.55162 0.26145 0.53231 0.0
H574 H 0.55949 0.29753 0.56968 0.0
H575 H 0.51335 0.33711 0.48077 0.0
H576 H 0.53813 0.43829 0.59507 0.0
H577 H 0.54074 0.4026 0.5421 0.0
H578 H 0.55833 0.36197 0.70373 0.0
C579 C 0.54356 0.29259 0.55201 0.0
C580 C 0.52311 0.34234 0.52983 0.0
C581 C 0.53913 0.27199 0.53099 0.0
C582 C 0.5383 0.42746 0.63265 0.0
C583 C 0.53963 0.407 0.60231 0.0
C584 C 0.54841 0.35676 0.65508 0.0
C585 C 0.52777 0.30663 0.54781 0.0
C586 C 0.53236 0.3286 0.56942 0.0
C587 C 0.53913 0.3924 0.64918 0.0
C588 C 0.53831 0.37051 0.6178 0.0
H589 H 0.48732 0.27377 0.48243 0.0
H590 H 0.49468 0.30977 0.5211 0.0
H591 H 0.55274 0.32598 0.66343 0.0
H592 H 0.53543 0.42331 0.81742 0.0
H593 H 0.53725 0.38806 0.76498 0.0
C594 C 0.23199 0.51537 0.26918 0.0
C595 C 0.25154 0.52502 0.26127 0.0
C596 C 0.21373 0.52638 0.2799 0.0
C597 C 0.17837 0.55417 0.24799 0.0
H598 H 0.16836 0.5799 0.45261 0.0
C599 C 0.10216 0.54378 0.39614 0.0
C600 C 0.09612 0.55752 0.45914 0.0
C601 C 0.11999 0.54775 0.35549 0.0
C602 C 0.17089 0.57348 0.3944 0.0
H603 H 0.26778 0.55361 0.26126 0.0
H604 H 0.23546 0.57337 0.2849 0.0
H605 H 0.2043 0.57224 0.41186 0.0
H606 H 0.1029 0.58696 0.52531 0.0
H607 H 0.13397 0.59405 0.45336 0.0
H608 H 0.14492 0.55425 0.23131 0.0
C609 C 0.23441 0.55718 0.28009 0.0
C610 C 0.19152 0.56909 0.37128 0.0
C611 C 0.25276 0.54601 0.2675 0.0
C612 C 0.10722 0.57606 0.47699 0.0
C613 C 0.12508 0.58008 0.43611 0.0
C614 C 0.15778 0.55881 0.27067 0.0
C615 C 0.21478 0.5473 0.28485 0.0
C616 C 0.19516 0.55833 0.29945 0.0
C617 C 0.13216 0.5656 0.37681 0.0
C618 C 0.15369 0.56723 0.34564 0.0
H619 H 0.23089 0.49923 0.26586 0.0
H620 H 0.19874 0.51857 0.28518 0.0
H621 H 0.18097 0.54586 0.19218 0.0
H622 H 0.09365 0.52953 0.3803 0.0
H623 H 0.12502 0.53612 0.31071 0.0
C624 C 0.99702 0.77847 0.30974 0.0
C625 C 0.01279 0.76512 0.32016 0.0
C626 C 1.0022 0.79626 0.28398 0.0
C627 C 0.04703 0.83104 0.26011 0.0
H628 H 1.00846 0.84841 0.11935 0.0
C629 C 0.05416 0.90924 0.16962 0.0
C630 C 0.0487 0.91023 0.09525 0.0
C631 C 0.0511 0.89129 0.19729 0.0
C632 C 0.01955 0.84369 0.15797 0.0
H633 H 0.04614 0.75934 0.31142 0.0
H634 H 0.05539 0.7903 0.26364 0.0
H635 H 1.00072 0.81744 0.16572 0.0
H636 H 0.03702 0.89308 0.9902 0.0
H637 H 0.03214 0.86173 0.03761 0.0
H638 H 0.06617 0.85713 0.25039 0.0
C639 C 0.03906 0.78734 0.27715 0.0
C640 C 0.01493 0.82605 0.18548 0.0
C641 C 0.03383 0.76959 0.30362 0.0
C642 C 0.04094 0.89282 0.04826 0.0
C643 C 0.03809 0.87489 0.07554 0.0
C644 C 0.05172 0.8487 0.23217 0.0
C645 C 0.02327 0.80088 0.26692 0.0
C646 C 0.02855 0.81954 0.23712 0.0
C647 C 0.04272 0.87398 0.15077 0.0
C648 C 0.03802 0.85522 0.18072 0.0
H649 H 0.98066 0.77503 0.32104 0.0
H650 H 0.98967 0.80643 0.27773 0.0
H651 H 0.05775 0.82654 0.30038 0.0
H652 H 0.06013 0.9225 0.20694 0.0
H653 H 0.05468 0.89115 0.25566 0.0
C654 C 0.75356 0.05425 0.37431 0.0
C655 C 0.7514 0.03327 0.35536 0.0
C656 C 0.73785 0.06643 0.35379 0.0
C657 C 0.69947 0.06678 0.20829 0.0
H658 H 0.66357 0.09998 0.34909 0.0
C659 C 0.62235 0.08926 0.10215 0.0
C660 C 0.60594 0.08111 0.14085 0.0
C661 C 0.64229 0.09341 0.13544 0.0
C662 C 0.67373 0.09111 0.30901 0.0
H663 H 0.73153 0.00835 0.30222 0.0
H664 H 0.70406 0.02957 0.26516 0.0
H665 H 0.69528 0.08565 0.39453 0.0
H666 H 0.59685 0.07332 0.24802 0.0
H667 H 0.63135 0.08041 0.3054 0.0
H668 H 0.67754 0.07085 0.12342 0.0
C669 C 0.71777 0.03662 0.29601 0.0
C670 C 0.69182 0.08298 0.335 0.0
C671 C 0.73327 0.02452 0.31744 0.0
C672 C 0.60909 0.07961 0.21648 0.0
C673 C 0.62898 0.08375 0.24967 0.0
C674 C 0.68159 0.07499 0.18227 0.0
C675 C 0.72011 0.05763 0.31294 0.0
C676 C 0.70416 0.06999 0.28509 0.0
C677 C 0.64611 0.08941 0.20783 0.0
C678 C 0.66793 0.08641 0.23279 0.0
H679 H 0.76759 0.06111 0.40352 0.0
H680 H 0.73986 0.08262 0.36743 0.0
H681 H 0.70894 0.0569 0.16891 0.0
H682 H 0.62023 0.09106 0.04438 0.0
H683 H 0.65512 0.09817 0.10239 0.0
C684 C 0.49363 0.70614 0.13662 0.0
C685 C 0.506 0.71648 0.09057 0.0
C686 C 0.48926 0.68555 0.11584 0.0
C687 C 0.48742 0.64332 0.95858 0.0
H688 H 0.50703 0.61145 0.10235 0.0
C689 C 0.48458 0.55567 0.90748 0.0
C690 C 0.50509 0.54831 0.90843 0.0
C691 C 0.48096 0.57596 0.93517 0.0
C692 C 0.5012 0.62018 0.06221 0.0
H693 H 0.52319 0.71375 0.98653 0.0
H694 H 0.51478 0.67778 0.94803 0.0
H695 H 0.50666 0.64809 0.13695 0.0
H696 H 0.53763 0.5559 0.94178 0.0
H697 H 0.53114 0.59103 0.99271 0.0
H698 H 0.48236 0.61535 0.88338 0.0
C699 C 0.50844 0.68561 1.00017 0.0
C700 C 0.50094 0.64108 0.08197 0.0
C701 C 0.51315 0.70613 0.02178 0.0
C702 C 0.52168 0.56125 0.94035 0.0
C703 C 0.51797 0.58129 0.9697 0.0
C704 C 0.48727 0.62237 0.93934 0.0
C705 C 0.4969 0.67503 0.0479 0.0
C706 C 0.49453 0.65287 0.02973 0.0
C707 C 0.49769 0.58892 0.96608 0.0
C708 C 0.49464 0.61067 0.99041 0.0
H709 H 0.48812 0.7139 0.19014 0.0
H710 H 0.48034 0.67773 0.15358 0.0
H711 H 0.48239 0.65211 0.91744 0.0
H712 H 0.47159 0.54599 0.88252 0.0
H713 H 0.46519 0.58159 0.93174 0.0
C714 C 0.79015 0.43597 0.3218 0.0
C715 C 0.79241 0.45691 0.32804 0.0
C716 C 0.80755 0.42383 0.30288 0.0
C717 C 0.86568 0.42585 0.29896 0.0
H718 H 0.86124 0.38859 0.11084 0.0
C719 C 0.93961 0.40809 0.13093 0.0
C720 C 0.93719 0.41305 0.05924 0.0
C721 C 0.92189 0.4038 0.17197 0.0
C722 C 0.86272 0.39867 0.16411 0.0
H723 H 0.81402 0.48165 0.31839 0.0
H724 H 0.84452 0.4607 0.2875 0.0
H725 H 0.82913 0.4012 0.17515 0.0
H726 H 0.91463 0.41508 0.97093 0.0
H727 H 0.88376 0.40844 0.04313 0.0
H728 H 0.89906 0.42499 0.28518 0.0
C729 C 0.82952 0.45359 0.29806 0.0
C730 C 0.84434 0.40574 0.20117 0.0
C731 C 0.81214 0.46557 0.31545 0.0
C732 C 0.91693 0.4118 0.02678 0.0
C733 C 0.89924 0.40762 0.06785 0.0
C734 C 0.88399 0.41884 0.26206 0.0
C735 C 0.82741 0.43262 0.29145 0.0
C736 C 0.84578 0.42033 0.26636 0.0
C737 C 0.90145 0.40452 0.14225 0.0
C738 C 0.8827 0.40617 0.19182 0.0
H739 H 0.77496 0.42911 0.3316 0.0
H740 H 0.80556 0.40767 0.29733 0.0
H741 H 0.86711 0.43692 0.34983 0.0
H742 H 0.95503 0.40885 0.15743 0.0
H743 H 0.92412 0.40117 0.22874 0.0
C744 C 0.01696 0.21289 0.08767 0.0
C745 C 0.03568 0.22193 0.12051 0.0
C746 C 0.01678 0.19326 0.04768 0.0
C747 C 0.05096 0.15086 0.96513 0.0
H748 H 1.00178 0.11885 0.00516 0.0
C749 C 0.04551 0.06317 0.89478 0.0
C750 C 0.02637 0.05462 0.86255 0.0
C751 C 0.04756 0.08389 0.92157 0.0
C752 C 0.01554 0.12759 0.99276 0.0
H753 H 0.06903 0.21812 0.13571 0.0
H754 H 0.06895 0.18357 0.0663 0.0
H755 H 1.00385 0.15447 0.05704 0.0
H756 H 0.99447 0.06138 0.83247 0.0
H757 H 0.99802 0.09727 0.87959 0.0
H758 H 0.0628 0.12356 0.90236 0.0
C759 C 0.05438 0.19168 0.06989 0.0
C760 C 0.0167 0.14811 0.0222 0.0
C761 C 0.05454 0.21148 0.10926 0.0
C762 C 1.00944 0.06734 0.85713 0.0
C763 C 1.01142 0.08796 0.88449 0.0
C764 C 0.04987 0.1302 0.93613 0.0
C765 C 0.03532 0.18206 0.04077 0.0
C766 C 0.03432 0.16013 0.00832 0.0
C767 C 0.03044 0.0965 0.91748 0.0
C768 C 0.03205 0.11837 0.94918 0.0
H769 H 1.00223 0.22068 0.09674 0.0
H770 H 1.00191 0.18662 0.02454 0.0
H771 H 0.06473 0.15959 0.95281 0.0
H772 H 0.0589 0.05385 0.89968 0.0
H773 H 0.06238 0.08999 0.94707 0.0
C774 C 0.29584 0.97275 0.08739 0.0
C775 C 0.28732 0.98931 0.1345 0.0
C776 C 0.31562 0.97412 0.05324 0.0
C777 C 0.36534 0.00732 0.06198 0.0
H778 H 0.37957 0.96839 0.88762 0.0
C779 C 0.45259 0.00043 0.95807 0.0
C780 C 0.45707 0.9924 0.8829 0.0
C781 C 0.43178 0.00063 0.98561 0.0
C782 C 0.37607 0.97968 0.93562 0.0
H783 H 0.29294 0.02073 0.18003 0.0
H784 H 0.32677 0.02372 0.11659 0.0
H785 H 0.34397 0.9689 0.93531 0.0
H786 H 0.44264 0.97854 0.77755 0.0
H787 H 0.40643 0.97979 0.82367 0.0
H788 H 0.39709 0.01893 0.05936 0.0
C789 C 0.31857 0.00924 0.10795 0.0
C790 C 0.35539 0.97971 0.96446 0.0
C791 C 0.29882 0.00771 0.14344 0.0
C792 C 0.43993 0.98472 0.83589 0.0
C793 C 0.419 0.98533 0.863 0.0
C794 C 0.38592 0.00756 0.03217 0.0
C795 C 0.32763 0.99233 0.0632 0.0
C796 C 0.34959 -0.0067 0.02912 0.0
C797 C 0.41442 -0.00678 0.93872 0.0
C798 C 0.3919 -0.00645 0.9689 0.0
H799 H 0.28741 0.95836 0.07901 0.0
H800 H 0.32168 0.96051 0.0211 0.0
H801 H 0.36205 0.018 0.112 0.0
H802 H 0.4653 0.0063 0.99651 0.0
H803 H 0.42953 0.00637 0.04448 0.0
C804 C 0.52647 0.26066 0.33148 0.0
C805 C 0.50839 0.24961 0.34691 0.0
C806 C 0.52487 0.2766 0.29207 0.0
C807 C 0.48988 0.30101 0.17201 0.0
H808 H 0.52144 0.34922 0.26207 0.0
C809 C 0.47672 0.37872 0.0862 0.0
C810 C 0.49453 0.39153 0.08278 0.0
C811 C 0.47838 0.36085 0.1149 0.0
C812 C 0.51274 0.33585 0.23537 0.0
H813 H 0.47463 0.2458 0.33065 0.0
H814 H 0.47166 0.27357 0.26004 0.0
H815 H 0.52445 0.31859 0.31425 0.0
H816 H 0.5281 0.39537 0.1075 0.0
H817 H 0.53108 0.36411 0.15587 0.0
H818 H 0.47811 0.31835 0.0932 0.0
C819 C 0.48715 0.26989 0.27821 0.0
C820 C 0.51448 0.31823 0.26538 0.0
C821 C 0.4888 0.25392 0.31802 0.0
C822 C 0.51407 0.38587 0.10854 0.0
C823 C 0.51572 0.368 0.13721 0.0
C824 C 0.48818 0.31866 0.14178 0.0
C825 C 0.50509 0.28187 0.26702 0.0
C826 C 0.50316 0.30053 0.23396 0.0
C827 C 0.49789 0.35525 0.14105 0.0
C828 C 0.49963 0.33634 0.17295 0.0
H829 H 0.54169 0.25764 0.35391 0.0
H830 H 0.53907 0.28521 0.2833 0.0
H831 H 0.48103 0.28764 0.14614 0.0
H832 H 0.46146 0.38238 0.066 0.0
H833 H 0.46425 0.35158 0.11754 0.0
C834 C 0.2474 0.50856 0.09095 0.0
C835 C 0.25418 0.4932 0.12795 0.0
C836 C 0.22814 0.50676 0.05137 0.0
C837 C 0.17611 0.47793 0.03795 0.0
H838 H 0.16567 0.5082 0.87918 0.0
C839 C 0.09032 0.48997 0.9429 0.0
C840 C 0.08608 0.49197 0.8682 0.0
C841 C 0.11113 0.48923 0.96922 0.0
C842 C 0.16817 0.49941 0.92279 0.0
H843 H 0.24643 0.46336 0.14871 0.0
H844 H 0.21329 0.45956 0.07627 0.0
H845 H 0.20131 0.50712 0.92814 0.0
H846 H 0.10094 0.4947 0.76271 0.0
H847 H 0.13721 0.49285 0.80765 0.0
H848 H 0.14315 0.46964 0.03089 0.0
C849 C 0.22254 0.47341 0.07961 0.0
C850 C 0.18879 0.49902 0.952 0.0
C851 C 0.24183 0.47533 0.1199 0.0
C852 C 0.10348 0.49326 0.82064 0.0
C853 C 0.1244 0.49228 0.84683 0.0
C854 C 0.15555 0.47816 0.00827 0.0
C855 C 0.21498 0.48937 0.04647 0.0
C856 C 0.19316 0.4885 0.01093 0.0
C857 C 0.12866 0.49019 0.92174 0.0
C858 C 0.15105 0.48915 0.95079 0.0
H859 H 0.25643 0.52261 0.09701 0.0
H860 H 0.22312 0.51958 0.02819 0.0
H861 H 0.17843 0.4698 0.08363 0.0
H862 H 0.07748 0.48913 0.98182 0.0
H863 H 0.11339 0.48816 0.0276 0.0
C864 C 0.97761 0.77435 0.47537 0.0
C865 C 0.99638 0.76373 0.47198 0.0
C866 C 0.97705 0.79409 0.51463 0.0
C867 C 1.00123 0.83205 0.65942 0.0
H868 H 0.99144 0.86992 0.52594 0.0
C869 C 0.01894 0.9174 0.75206 0.0
C870 C 1.00742 0.93114 0.71937 0.0
C871 C 0.01629 0.89668 0.72677 0.0
C872 C 0.99374 0.8597 0.5649 0.0
H873 H 0.02882 0.76462 0.50956 0.0
H874 H 0.02761 0.79884 0.58219 0.0
H875 H 0.98786 0.83405 0.47886 0.0
H876 H 0.98344 0.93388 0.63662 0.0
H877 H 0.97792 0.89794 0.59537 0.0
H878 H 1.00653 0.85747 0.74622 0.0
C879 C 0.01342 0.79204 0.55383 0.0
C880 C 0.99178 0.83908 0.53748 0.0
C881 C 0.0141 0.7725 0.51298 0.0
C882 C 0.99278 0.92369 0.66227 0.0
C883 C 0.98976 0.90298 0.63819 0.0
C884 C 1.00271 0.85272 0.68748 0.0
C885 C 0.99513 0.80328 0.55269 0.0
C886 C 0.99569 0.82506 0.58423 0.0
C887 C 1.00168 0.88909 0.6692 0.0
C888 C 0.99922 0.86693 0.64045 0.0
H889 H 0.96393 0.7679 0.44298 0.0
H890 H 0.96277 0.80246 0.51292 0.0
H891 H 1.00432 0.82149 0.69656 0.0
H892 H 0.03043 0.92268 0.79596 0.0
H893 H 0.02612 0.88671 0.75148 0.0
C894 C 0.73784 0.98387 0.44844 0.0
C895 C 0.74891 0.00249 0.4553 0.0
C896 C 0.71866 0.98205 0.48713 0.0
C897 C 0.67347 0.01251 0.56314 0.0
H898 H 0.65877 0.96963 0.67257 0.0
C899 C 0.58737 -0.00276 0.65673 0.0
C900 C 0.58413 -0.00564 0.73118 0.0
C901 C 0.6078 -0.00199 0.62679 0.0
C902 C 0.66264 0.98175 0.64244 0.0
H903 H 0.74889 0.03344 0.51136 0.0
H904 H 0.71547 0.03046 0.57664 0.0
H905 H 0.69375 0.97072 0.61374 0.0
H906 H 0.60035 0.98983 0.83202 0.0
H907 H 0.63612 0.99062 0.77888 0.0
H908 H 0.64234 0.02332 0.59003 0.0
C909 C 0.72145 0.01725 0.54133 0.0
C910 C 0.68266 0.98229 0.60818 0.0
C911 C 0.74067 0.01895 0.50397 0.0
C912 C 0.60213 0.99214 0.77465 0.0
C913 C 0.62266 0.99247 0.74398 0.0
C914 C 0.65338 0.01173 0.59587 0.0
C915 C 0.7099 -0.00113 0.53265 0.0
C916 C 0.68844 -0.00224 0.56834 0.0
C917 C 0.62581 -0.00447 0.66959 0.0
C918 C 0.64761 -0.0036 0.63629 0.0
H919 H 0.74351 0.97096 0.4107 0.0
H920 H 0.71022 0.96766 0.47881 0.0
H921 H 0.6772 0.02458 0.53261 0.0
H922 H 0.57403 -0.00092 0.62127 0.0
H923 H 0.60949 0.00027 0.56932 0.0
C924 C 0.52424 0.72806 0.29754 0.0
C925 C 0.53272 0.72779 0.22589 0.0
C926 C 0.52744 0.71204 0.33592 0.0
C927 C 0.53909 0.65784 0.2973 0.0
H928 H 0.54747 0.66436 0.51219 0.0
C929 C 0.55703 0.59042 0.44287 0.0
C930 C 0.54792 0.5897 0.51325 0.0
C931 C 0.55558 0.60755 0.40956 0.0
C932 C 0.54488 0.66223 0.45222 0.0
H933 H 0.55164 0.71112 0.13891 0.0
H934 H 0.55769 0.68329 0.20592 0.0
H935 H 0.5451 0.694 0.45267 0.0
H936 H 0.53017 0.60678 0.60369 0.0
H937 H 0.52721 0.63644 0.54489 0.0
H938 H 0.53865 0.62616 0.2966 0.0
C939 C 0.54834 0.69566 0.23255 0.0
C940 C 0.54357 0.67927 0.41803 0.0
C941 C 0.54517 0.71168 0.19451 0.0
C942 C 0.53722 0.60664 0.54918 0.0
C943 C 0.53575 0.6238 0.5158 0.0
C944 C 0.54035 0.64084 0.33142 0.0
C945 C 0.5391 0.69537 0.30304 0.0
C946 C 0.54074 0.67731 0.34002 0.0
C947 C 0.54491 0.62451 0.44545 0.0
C948 C 0.54333 0.64276 0.40937 0.0
H949 H 0.51417 0.74012 0.32186 0.0
H950 H 0.51991 0.71228 0.38968 0.0
H951 H 0.53646 0.65569 0.23734 0.0
H952 H 0.56517 0.57763 0.41289 0.0
H953 H 0.56306 0.60754 0.35583 0.0
C954 C 0.8052 0.50727 0.4611 0.0
C955 C 0.79194 0.49007 0.45799 0.0
C956 C 0.82473 0.5089 0.49991 0.0
C957 C 0.86495 0.476 0.56548 0.0
H958 H 0.89003 0.5259 0.67089 0.0
C959 C 0.94466 0.47733 0.72903 0.0
C960 C 0.95896 0.49373 0.72955 0.0
C961 C 0.92403 0.47751 0.69965 0.0
C962 C 0.88345 0.51181 0.64101 0.0
H963 H 0.78833 0.46167 0.49632 0.0
H964 H 0.82179 0.4646 0.5653 0.0
H965 H 0.85479 0.52564 0.6153 0.0
H966 H 0.96227 0.52331 0.69918 0.0
H967 H 0.92671 0.52353 0.64751 0.0
H968 H 0.89357 0.46217 0.58999 0.0
C969 C 0.81754 0.47673 0.53672 0.0
C970 C 0.86309 0.51167 0.60903 0.0
C971 C 0.79812 0.47516 0.49822 0.0
C972 C 0.95182 0.51039 0.70033 0.0
C973 C 0.93122 0.51056 0.67085 0.0
C974 C 0.88528 0.47614 0.59719 0.0
C975 C 0.83155 0.49332 0.53643 0.0
C976 C 0.8534 0.49374 0.57095 0.0
C977 C 0.91693 0.49408 0.66947 0.0
C978 C 0.89496 0.49403 0.63581 0.0
H979 H 0.8011 0.5188 0.42935 0.0
H980 H 0.83498 0.5219 0.49785 0.0
H981 H 0.85844 0.46192 0.53524 0.0
H982 H 0.9494 0.46423 0.75114 0.0
H983 H 0.91359 0.46462 0.70119 0.0
loop_
_geom_bond_atom_site_label_1
_geom_bond_atom_site_label_2
_geom_bond_distance
_geom_bond_site_symmetry_2
_ccdc_geom_bond_type
C0 N1 1.317 . S
C0 N2 1.348 . S
C0 C3 1.485 . S
N1 C0 1.317 . S
N1 N5 1.370 . S
N2 C0 1.348 . S
N2 C4 1.346 . S
C3 C0 1.485 . S
C3 H7 0.960 . S
C3 H8 0.961 . S
C3 H9 0.960 . S
C4 N2 1.346 . S
C4 N5 1.307 . S
C4 C6 1.486 . S
N5 N1 1.370 . S
N5 C4 1.307 . S
C6 C4 1.486 . S
C6 H10 0.960 . S
C6 H11 0.960 . S
C6 H12 0.959 . S
H7 C3 0.960 . S
H8 C3 0.961 . S
H9 C3 0.960 . S
H10 C6 0.960 . S
H11 C6 0.960 . S
H12 C6 0.959 . S
C13 N14 1.317 . S
C13 N15 1.348 . S
C13 C16 1.485 . S
N14 C13 1.317 . S
N14 N18 1.370 . S
N15 C13 1.348 . S
N15 C17 1.346 . S
C16 C13 1.485 . S
C16 H20 0.960 1_655 S
C16 H21 0.961 . S
C16 H22 0.960 . S
C17 N15 1.346 . S
C17 N18 1.307 . S
C17 C19 1.486 . S
N18 N14 1.370 . S
N18 C17 1.307 . S
C19 C17 1.486 . S
C19 H23 0.960 . S
C19 H24 0.960 1_655 S
C19 H25 0.959 . S
H20 C16 0.960 1_455 S
H21 C16 0.961 . S
H22 C16 0.960 . S
H23 C19 0.960 . S
H24 C19 0.960 1_455 S
H25 C19 0.959 . S
C26 N27 1.317 . S
C26 N28 1.356 . S
C26 C29 1.485 . S
N27 C26 1.317 . S
N27 N31 1.373 . S
N28 C26 1.356 . S
N28 C30 1.340 1_565 S
C29 C26 1.485 . S
C29 H33 0.960 1_565 S
C29 H34 0.961 . S
C29 H35 0.960 . S
C30 N28 1.340 1_545 S
C30 N31 1.306 1_545 S
C30 C32 1.478 . S
N31 N27 1.373 . S
N31 C30 1.306 1_565 S
C32 C30 1.478 . S
C32 H36 0.927 1_545 S
C32 H37 0.990 . S
C32 H38 0.971 . S
H33 C29 0.960 1_545 S
H34 C29 0.961 . S
H35 C29 0.960 . S
H36 C32 0.927 1_565 S
H37 C32 0.990 . S
H38 C32 0.971 . S
C39 N40 1.317 . S
C39 N41 1.348 1_554 S
C39 C42 1.485 . S
N40 C39 1.317 . S
N40 N44 1.370 1_554 S
N41 C39 1.348 1_556 S
N41 C43 1.346 . S
C42 C39 1.485 . S
C42 H46 0.960 . S
C42 H47 0.961 . S
C42 H48 0.960 . S
C43 N41 1.346 . S
C43 N44 1.307 . S
C43 C45 1.486 . S
N44 N40 1.370 1_556 S
N44 C43 1.307 . S
C45 C43 1.486 . S
C45 H49 0.960 . S
C45 H50 0.960 . S
C45 H51 0.959 . S
H46 C42 0.960 . S
H47 C42 0.961 . S
H48 C42 0.960 . S
H49 C45 0.960 . S
H50 C45 0.960 . S
H51 C45 0.959 . S
C52 N53 1.317 . S
C52 N54 1.348 . S
C52 C55 1.485 . S
N53 C52 1.317 . S
N53 N57 1.370 . S
N54 C52 1.348 . S
N54 C56 1.346 . S
C55 C52 1.485 . S
C55 H59 0.960 . S
C55 H60 0.961 . S
C55 H61 0.960 . S
C56 N54 1.346 . S
C56 N57 1.307 . S
C56 C58 1.486 . S
N57 N53 1.370 . S
N57 C56 1.307 . S
C58 C56 1.486 . S
C58 H62 0.960 . S
C58 H63 0.960 . S
C58 H64 0.959 . S
H59 C55 0.960 . S
H60 C55 0.961 . S
H61 C55 0.960 . S
H62 C58 0.960 . S
H63 C58 0.960 . S
H64 C58 0.959 . S
C65 N66 1.317 . S
C65 N67 1.348 . S
C65 C68 1.485 . S
N66 C65 1.317 . S
N66 N70 1.370 . S
N67 C65 1.348 . S
N67 C69 1.346 . S
C68 C65 1.485 . S
C68 H72 0.960 . S
C68 H73 0.961 . S
C68 H74 0.960 . S
C69 N67 1.346 . S
C69 N70 1.307 . S
C69 C71 1.486 . S
N70 N66 1.370 . S
N70 C69 1.307 . S
C71 C69 1.486 . S
C71 H75 0.960 . S
C71 H76 0.960 . S
C71 H77 0.959 . S
H72 C68 0.960 . S
H73 C68 0.961 . S
H74 C68 0.960 . S
H75 C71 0.960 . S
H76 C71 0.960 . S
H77 C71 0.959 . S
C78 N79 1.317 . S
C78 N80 1.346 . S
C78 C81 1.485 . S
N79 C78 1.317 . S
N79 N83 1.370 . S
N80 C78 1.346 . S
N80 C82 1.351 1_565 S
C81 C78 1.485 . S
C81 H85 0.960 1_565 S
C81 H86 0.961 . S
C81 H87 0.960 . S
C82 N80 1.351 1_545 S
C82 N83 1.307 1_545 S
C82 C84 1.493 . S
N83 N79 1.370 . S
N83 C82 1.307 1_565 S
C84 C82 1.493 . S
C84 H88 0.911 1_545 S
C84 H89 0.998 . S
C84 H90 0.964 . S
H85 C81 0.960 1_545 S
H86 C81 0.961 . S
H87 C81 0.960 . S
H88 C84 0.911 1_565 S
H89 C84 0.998 . S
H90 C84 0.964 . S
C91 N92 1.317 . S
C91 N93 1.348 . S
C91 C94 1.485 . S
N92 C91 1.317 . S
N92 N96 1.370 . S
N93 C91 1.348 . S
N93 C95 1.346 . S
C94 C91 1.485 . S
C94 H98 0.960 . S
C94 H99 0.961 . S
C94 H100 0.960 . S
C95 N93 1.346 . S
C95 N96 1.307 . S
C95 C97 1.486 . S
N96 N92 1.370 . S
N96 C95 1.307 . S
C97 C95 1.486 . S
C97 H101 0.960 . S
C97 H102 0.960 . S
C97 H103 0.959 . S
H98 C94 0.960 . S
H99 C94 0.961 . S
H100 C94 0.960 . S
H101 C97 0.960 . S
H102 C97 0.960 . S
H103 C97 0.959 . S
Tb104 C113 2.764 . S
Tb104 O114 2.325 1_655 S
Tb104 O117 2.303 1_655 S
Tb104 O121 2.322 1_545 S
Tb104 O122 2.349 . S
Tb104 O125 2.415 1_655 S
Tb104 O126 2.399 . S
Tb105 O115 2.322 1_565 S
Tb105 O116 2.349 . S
Tb105 O118 2.415 . S
Tb105 O119 2.399 . S
Tb105 O120 2.325 . S
Tb105 O123 2.303 1_455 S
Tb105 C134 2.764 . S
C106 O122 1.294 . S
C106 O123 1.245 1_545 S
C107 C110 1.358 . S
C107 C111 1.332 1_655 S
C107 C113 1.504 . S
C108 C109 1.373 . S
C108 C112 1.308 1_655 S
C109 C108 1.373 . S
C109 C110 1.429 . S
C109 H136 0.932 . S
C110 C107 1.358 . S
C110 C109 1.429 . S
C110 H137 0.930 . S
C111 C107 1.332 1_455 S
C111 C112 1.394 . S
C111 H138 0.932 . S
C112 C108 1.308 1_455 S
C112 C111 1.394 . S
C112 H139 0.929 . S
C113 Tb104 2.764 . S
C113 C107 1.504 . S
C113 O125 1.239 1_655 S
C113 O126 1.263 . S
O114 Tb104 2.325 1_455 S
O114 C124 1.236 . S
O115 Tb105 2.322 1_545 S
O115 C124 1.257 . S
O116 Tb105 2.349 . S
O116 C127 1.286 . S
O117 Tb104 2.303 1_455 S
O117 C127 1.248 1_545 S
O118 Tb105 2.415 . S
O118 C134 1.239 . S
O119 Tb105 2.399 . S
O119 C134 1.263 . S
O120 Tb105 2.325 . S
O120 C135 1.236 1_455 S
O121 Tb104 2.322 1_565 S
O121 C135 1.257 . S
O122 Tb104 2.349 . S
O122 C106 1.294 . S
O123 Tb105 2.303 1_655 S
O123 C106 1.245 1_565 S
C124 O114 1.236 . S
C124 O115 1.257 . S
O125 Tb104 2.415 1_455 S
O125 C113 1.239 1_455 S
O126 Tb104 2.399 . S
O126 C113 1.263 . S
C127 O116 1.286 . S
C127 O117 1.248 1_565 S
C128 C131 1.358 . S
C128 C132 1.332 . S
C128 C134 1.504 . S
C129 C130 1.373 . S
C129 C133 1.308 . S
C130 C129 1.373 . S
C130 C131 1.429 1_554 S
C130 H140 0.932 . S
C131 C128 1.358 . S
C131 C130 1.429 1_556 S
C131 H141 0.930 . S
C132 C128 1.332 . S
C132 C133 1.394 1_556 S
C132 H142 0.932 1_455 S
C133 C129 1.308 . S
C133 C132 1.394 1_554 S
C133 H143 0.929 1_455 S
C134 Tb105 2.764 . S
C134 O118 1.239 . S
C134 O119 1.263 . S
C134 C128 1.504 . S
C135 O120 1.236 1_655 S
C135 O121 1.257 . S
H136 C109 0.932 . S
H137 C110 0.930 . S
H138 C111 0.932 . S
H139 C112 0.929 . S
H140 C130 0.932 . S
H141 C131 0.930 . S
H142 C132 0.932 1_655 S
H143 C133 0.929 1_655 S
Tb144 C153 2.764 . S
Tb144 O154 2.325 . S
Tb144 O157 2.303 1_565 S
Tb144 O161 2.322 . S
Tb144 O162 2.349 . S
Tb144 O165 2.415 1_565 S
Tb144 O166 2.399 . S
Tb145 O155 2.322 . S
Tb145 O156 2.349 . S
Tb145 O158 2.415 1_545 S
Tb145 O159 2.399 . S
Tb145 O160 2.325 . S
Tb145 O163 2.303 1_545 S
Tb145 C174 2.764 . S
C146 O162 1.261 . S
C146 O163 1.257 . S
C147 C150 1.358 . S
C147 C151 1.332 1_565 S
C147 C153 1.504 . S
C148 C149 1.373 . S
C148 C152 1.308 1_565 S
C149 C148 1.373 . S
C149 C150 1.429 . S
C149 H176 0.932 . S
C150 C147 1.358 . S
C150 C149 1.429 . S
C150 H177 0.930 . S
C151 C147 1.332 1_545 S
C151 C152 1.394 . S
C151 H178 0.932 . S
C152 C148 1.308 1_545 S
C152 C151 1.394 . S
C152 H179 0.929 . S
C153 Tb144 2.764 . S
C153 C147 1.504 . S
C153 O165 1.239 1_565 S
C153 O166 1.263 . S
O154 Tb144 2.325 . S
O154 C164 1.236 1_565 S
O155 Tb145 2.322 . S
O155 C164 1.257 . S
O156 Tb145 2.349 . S
O156 C167 1.261 . S
O157 Tb144 2.303 1_545 S
O157 C167 1.257 . S
O158 Tb145 2.415 1_565 S
O158 C174 1.239 1_565 S
O159 Tb145 2.399 . S
O159 C174 1.263 . S
O160 Tb145 2.325 . S
O160 C175 1.236 1_545 S
O161 Tb144 2.322 . S
O161 C175 1.257 . S
O162 Tb144 2.349 . S
O162 C146 1.261 . S
O163 Tb145 2.303 1_565 S
O163 C146 1.257 . S
C164 O154 1.236 1_545 S
C164 O155 1.257 . S
O165 Tb144 2.415 1_545 S
O165 C153 1.239 1_545 S
O166 Tb144 2.399 . S
O166 C153 1.263 . S
C167 O156 1.261 . S
C167 O157 1.257 . S
C168 C171 1.358 . S
C168 C172 1.332 1_545 S
C168 C174 1.504 1_554 S
C169 C170 1.373 . S
C169 C173 1.308 1_545 S
C170 C169 1.373 . S
C170 C171 1.429 . S
C170 H180 0.932 . S
C171 C168 1.358 . S
C171 C170 1.429 . S
C171 H181 0.930 . S
C172 C168 1.332 1_565 S
C172 C173 1.394 . S
C172 H182 0.932 1_554 S
C173 C169 1.308 1_565 S
C173 C172 1.394 . S
C173 H183 0.929 . S
C174 Tb145 2.764 . S
C174 O158 1.239 1_545 S
C174 O159 1.263 . S
C174 C168 1.504 1_556 S
C175 O160 1.236 1_565 S
C175 O161 1.257 . S
H176 C149 0.932 . S
H177 C150 0.930 . S
H178 C151 0.932 . S
H179 C152 0.929 . S
H180 C170 0.932 . S
H181 C171 0.930 . S
H182 C172 0.932 1_556 S
H183 C173 0.929 . S
Tb184 C193 2.764 . S
Tb184 O194 2.325 . S
Tb184 O197 2.303 . S
Tb184 O201 2.322 . S
Tb184 O202 2.349 . S
Tb184 O205 2.415 . S
Tb184 O206 2.399 . S
Tb185 O195 2.322 . S
Tb185 O196 2.349 . S
Tb185 O198 2.415 . S
Tb185 O199 2.399 . S
Tb185 O200 2.325 . S
Tb185 O203 2.303 . S
Tb185 C214 2.764 . S
C186 O202 1.261 . S
C186 O203 1.257 . S
C187 C190 1.358 . S
C187 C191 1.332 . S
C187 C193 1.504 1_554 S
C188 C189 1.373 . S
C188 C192 1.308 . S
C189 C188 1.373 . S
C189 C190 1.429 . S
C189 H216 0.932 . S
C190 C187 1.358 . S
C190 C189 1.429 . S
C190 H217 0.930 . S
C191 C187 1.332 . S
C191 C192 1.394 . S
C191 H218 0.932 . S
C192 C188 1.308 . S
C192 C191 1.394 . S
C192 H219 0.929 . S
C193 Tb184 2.764 . S
C193 C187 1.504 1_556 S
C193 O205 1.239 . S
C193 O206 1.263 . S
O194 Tb184 2.325 . S
O194 C204 1.236 . S
O195 Tb185 2.322 . S
O195 C204 1.257 . S
O196 Tb185 2.349 . S
O196 C207 1.261 . S
O197 Tb184 2.303 . S
O197 C207 1.257 . S
O198 Tb185 2.415 . S
O198 C214 1.239 . S
O199 Tb185 2.399 . S
O199 C214 1.263 . S
O200 Tb185 2.325 . S
O200 C215 1.236 . S
O201 Tb184 2.322 . S
O201 C215 1.257 . S
O202 Tb184 2.349 . S
O202 C186 1.261 . S
O203 Tb185 2.303 . S
O203 C186 1.257 . S
C204 O194 1.236 . S
C204 O195 1.257 . S
O205 Tb184 2.415 . S
O205 C193 1.239 . S
O206 Tb184 2.399 . S
O206 C193 1.263 . S
C207 O196 1.261 . S
C207 O197 1.257 . S
C208 C211 1.358 . S
C208 C212 1.332 . S
C208 C214 1.504 . S
C209 C210 1.373 . S
C209 C213 1.308 . S
C210 C209 1.373 . S
C210 C211 1.429 . S
C210 H220 0.932 . S
C211 C208 1.358 . S
C211 C210 1.429 . S
C211 H221 0.930 . S
C212 C208 1.332 . S
C212 C213 1.394 . S
C212 H222 0.932 . S
C213 C209 1.308 . S
C213 C212 1.394 . S
C213 H223 0.929 . S
C214 Tb185 2.764 . S
C214 O198 1.239 . S
C214 O199 1.263 . S
C214 C208 1.504 . S
C215 O200 1.236 . S
C215 O201 1.257 . S
H216 C189 0.932 . S
H217 C190 0.930 . S
H218 C191 0.932 . S
H219 C192 0.929 . S
H220 C210 0.932 . S
H221 C211 0.930 . S
H222 C212 0.932 . S
H223 C213 0.929 . S
Tb224 C233 2.764 . S
Tb224 O234 2.325 . S
Tb224 O237 2.303 . S
Tb224 O241 2.322 1_455 S
Tb224 O242 2.349 . S
Tb224 O245 2.415 . S
Tb224 O246 2.399 . S
Tb225 O235 2.322 1_655 S
Tb225 O236 2.349 . S
Tb225 O238 2.415 . S
Tb225 O239 2.399 . S
Tb225 O240 2.325 . S
Tb225 O243 2.303 1_655 S
Tb225 C254 2.764 . S
C226 O242 1.261 . S
C226 O243 1.257 . S
C227 C230 1.358 . S
C227 C231 1.332 . S
C227 C233 1.504 . S
C228 C229 1.373 . S
C228 C232 1.308 . S
C229 C228 1.373 . S
C229 C230 1.429 . S
C229 H256 0.932 . S
C230 C227 1.358 . S
C230 C229 1.429 . S
C230 H257 0.930 . S
C231 C227 1.332 . S
C231 C232 1.394 . S
C231 H258 0.932 . S
C232 C228 1.308 . S
C232 C231 1.394 . S
C232 H259 0.929 . S
C233 Tb224 2.764 . S
C233 C227 1.504 . S
C233 O245 1.239 . S
C233 O246 1.263 . S
O234 Tb224 2.325 . S
O234 C244 1.236 . S
O235 Tb225 2.322 1_455 S
O235 C244 1.257 . S
O236 Tb225 2.349 . S
O236 C247 1.261 1_655 S
O237 Tb224 2.303 . S
O237 C247 1.257 . S
O238 Tb225 2.415 . S
O238 C254 1.239 . S
O239 Tb225 2.399 . S
O239 C254 1.263 . S
O240 Tb225 2.325 . S
O240 C255 1.236 . S
O241 Tb224 2.322 1_655 S
O241 C255 1.257 . S
O242 Tb224 2.349 . S
O242 C226 1.261 . S
O243 Tb225 2.303 1_455 S
O243 C226 1.257 . S
C244 O234 1.236 . S
C244 O235 1.257 . S
O245 Tb224 2.415 . S
O245 C233 1.239 . S
O246 Tb224 2.399 . S
O246 C233 1.263 . S
C247 O236 1.261 1_455 S
C247 O237 1.257 . S
C248 C251 1.358 . S
C248 C252 1.332 1_556 S
C248 C254 1.504 . S
C249 C250 1.373 . S
C249 C253 1.308 . S
C250 C249 1.373 . S
C250 C251 1.429 1_554 S
C250 H260 0.932 . S
C251 C248 1.358 . S
C251 C250 1.429 1_556 S
C251 H261 0.930 . S
C252 C248 1.332 1_554 S
C252 C253 1.394 . S
C252 H262 0.932 1_554 S
C253 C249 1.308 . S
C253 C252 1.394 . S
C253 H263 0.929 . S
C254 Tb225 2.764 . S
C254 O238 1.239 . S
C254 O239 1.263 . S
C254 C248 1.504 . S
C255 O240 1.236 . S
C255 O241 1.257 . S
H256 C229 0.932 . S
H257 C230 0.930 . S
H258 C231 0.932 . S
H259 C232 0.929 . S
H260 C250 0.932 . S
H261 C251 0.930 . S
H262 C252 0.932 1_556 S
H263 C253 0.929 . S
C264 C265 1.357 . S
C264 C266 1.327 . S
C264 H289 0.950 . S
C265 C264 1.357 . S
C265 C281 1.340 1_545 S
C266 C264 1.327 . S
C266 C285 1.458 . S
C266 H290 0.950 . S
C267 C284 1.574 . S
C267 C286 1.368 1_565 S
C267 H291 0.949 . S
H268 C272 0.949 . S
C269 C270 1.349 1_565 S
C269 C271 1.327 . S
C269 H292 0.950 . S
C270 C269 1.349 1_545 S
C270 C282 1.349 . S
C271 C269 1.327 . S
C271 C287 1.429 1_565 S
C271 H293 0.950 . S
C272 H268 0.949 . S
C272 C280 1.574 . S
C272 C288 1.368 . S
H273 C281 0.950 . S
H274 C279 0.950 . S
H275 C280 0.949 . S
H276 C282 0.950 . S
H277 C283 0.950 . S
H278 C284 0.949 . S
C279 H274 0.950 . S
C279 C281 1.327 . S
C279 C285 1.404 1_565 S
C280 C272 1.574 . S
C280 H275 0.949 . S
C280 C286 1.368 . S
C281 C265 1.340 1_565 S
C281 H273 0.950 . S
C281 C279 1.327 . S
C282 C270 1.349 . S
C282 H276 0.950 . S
C282 C283 1.327 . S
C283 H277 0.950 . S
C283 C282 1.327 . S
C283 C287 1.429 . S
C284 C267 1.574 . S
C284 H278 0.949 . S
C284 C288 1.368 1_565 S
C285 C266 1.458 . S
C285 C279 1.404 1_545 S
C285 C286 1.519 . S
C286 C267 1.368 1_545 S
C286 C280 1.368 . S
C286 C285 1.519 . S
C287 C271 1.429 1_545 S
C287 C283 1.429 . S
C287 C288 1.523 . S
C288 C272 1.368 . S
C288 C284 1.368 1_545 S
C288 C287 1.523 . S
H289 C264 0.950 . S
H290 C266 0.950 . S
H291 C267 0.949 . S
H292 C269 0.950 . S
H293 C271 0.950 . S
C294 C295 1.349 . S
C294 C296 1.327 . S
C294 H319 0.950 . S
C295 C294 1.349 . S
C295 C311 1.349 . S
C296 C294 1.327 . S
C296 C315 1.429 . S
C296 H320 0.950 . S
C297 C314 1.574 . S
C297 C316 1.368 . S
C297 H321 0.949 . S
H298 C302 0.949 . S
C299 C300 1.349 . S
C299 C301 1.327 . S
C299 H322 0.950 . S
C300 C299 1.349 . S
C300 C312 1.349 . S
C301 C299 1.327 . S
C301 C317 1.429 . S
C301 H323 0.950 . S
C302 H298 0.949 . S
C302 C310 1.574 . S
C302 C318 1.368 . S
H303 C311 0.950 . S
H304 C309 0.950 . S
H305 C310 0.949 . S
H306 C312 0.950 . S
H307 C313 0.950 . S
H308 C314 0.949 . S
C309 H304 0.950 . S
C309 C311 1.327 . S
C309 C315 1.429 . S
C310 C302 1.574 . S
C310 H305 0.949 . S
C310 C316 1.368 . S
C311 C295 1.349 . S
C311 H303 0.950 . S
C311 C309 1.327 . S
C312 C300 1.349 . S
C312 H306 0.950 . S
C312 C313 1.327 . S
C313 H307 0.950 . S
C313 C312 1.327 . S
C313 C317 1.429 . S
C314 C297 1.574 . S
C314 H308 0.949 . S
C314 C318 1.368 . S
C315 C296 1.429 . S
C315 C309 1.429 . S
C315 C316 1.523 . S
C316 C297 1.368 . S
C316 C310 1.368 . S
C316 C315 1.523 . S
C317 C301 1.429 . S
C317 C313 1.429 . S
C317 C318 1.523 . S
C318 C302 1.368 . S
C318 C314 1.368 . S
C318 C317 1.523 . S
H319 C294 0.950 . S
H320 C296 0.950 . S
H321 C297 0.949 . S
H322 C299 0.950 . S
H323 C301 0.950 . S
C324 C325 1.349 . S
C324 C326 1.327 . S
C324 H349 0.950 . S
C325 C324 1.349 . S
C325 C341 1.349 . S
C326 C324 1.327 . S
C326 C345 1.429 . S
C326 H350 0.950 . S
C327 C344 1.574 . S
C327 C346 1.368 . S
C327 H351 0.949 . S
H328 C332 0.949 . S
C329 C330 1.349 . S
C329 C331 1.327 . S
C329 H352 0.950 . S
C330 C329 1.349 . S
C330 C342 1.349 . S
C331 C329 1.327 . S
C331 C347 1.429 . S
C331 H353 0.950 . S
C332 H328 0.949 . S
C332 C340 1.574 . S
C332 C348 1.368 . S
H333 C341 0.950 . S
H334 C339 0.950 . S
H335 C340 0.949 . S
H336 C342 0.950 . S
H337 C343 0.950 . S
H338 C344 0.949 . S
C339 H334 0.950 . S
C339 C341 1.327 . S
C339 C345 1.429 . S
C340 C332 1.574 . S
C340 H335 0.949 . S
C340 C346 1.368 . S
C341 C325 1.349 . S
C341 H333 0.950 . S
C341 C339 1.327 . S
C342 C330 1.349 . S
C342 H336 0.950 . S
C342 C343 1.327 . S
C343 H337 0.950 . S
C343 C342 1.327 . S
C343 C347 1.429 . S
C344 C327 1.574 . S
C344 H338 0.949 . S
C344 C348 1.368 . S
C345 C326 1.429 . S
C345 C339 1.429 . S
C345 C346 1.523 . S
C346 C327 1.368 . S
C346 C340 1.368 . S
C346 C345 1.523 . S
C347 C331 1.429 . S
C347 C343 1.429 . S
C347 C348 1.523 . S
C348 C332 1.368 . S
C348 C344 1.368 . S
C348 C347 1.523 . S
H349 C324 0.950 . S
H350 C326 0.950 . S
H351 C327 0.949 . S
H352 C329 0.950 . S
H353 C331 0.950 . S
C354 C355 1.349 . S
C354 C356 1.330 . S
C354 H379 0.950 1_455 S
C355 C354 1.349 . S
C355 C371 1.349 . S
C356 C354 1.330 . S
C356 C375 1.447 . S
C356 H380 0.928 1_455 S
C357 C374 1.574 . S
C357 C376 1.368 . S
C357 H381 0.949 . S
H358 C362 0.949 . S
C359 C360 1.349 . S
C359 C361 1.327 . S
C359 H382 0.950 . S
C360 C359 1.349 . S
C360 C372 1.349 1_455 S
C361 C359 1.327 . S
C361 C377 1.429 . S
C361 H383 0.950 . S
C362 H358 0.949 . S
C362 C370 1.574 . S
C362 C378 1.368 1_655 S
H363 C371 0.950 . S
H364 C369 0.950 . S
H365 C370 0.949 . S
H366 C372 0.950 . S
H367 C373 0.950 . S
H368 C374 0.949 . S
C369 H364 0.950 . S
C369 C371 1.327 . S
C369 C375 1.429 . S
C370 C362 1.574 . S
C370 H365 0.949 . S
C370 C376 1.368 1_655 S
C371 C355 1.349 . S
C371 H363 0.950 . S
C371 C369 1.327 . S
C372 C360 1.349 1_655 S
C372 H366 0.950 . S
C372 C373 1.327 . S
C373 H367 0.950 . S
C373 C372 1.327 . S
C373 C377 1.429 1_655 S
C374 C357 1.574 . S
C374 H368 0.949 . S
C374 C378 1.368 . S
C375 C356 1.447 . S
C375 C369 1.429 . S
C375 C376 1.523 . S
C376 C357 1.368 . S
C376 C370 1.368 1_455 S
C376 C375 1.523 . S
C377 C361 1.429 . S
C377 C373 1.429 1_455 S
C377 C378 1.523 . S
C378 C362 1.368 1_455 S
C378 C374 1.368 . S
C378 C377 1.523 . S
H379 C354 0.950 1_655 S
H380 C356 0.928 1_655 S
H381 C357 0.949 . S
H382 C359 0.950 . S
H383 C361 0.950 . S
C384 C385 1.349 1_545 S
C384 C386 1.327 . S
C384 H409 0.950 . S
C385 C384 1.349 1_565 S
C385 C401 1.348 . S
C386 C384 1.327 . S
C386 C405 1.411 1_545 S
C386 H410 0.950 . S
C387 C404 1.574 . S
C387 C406 1.400 . S
C387 H411 0.949 . S
H388 C392 0.949 . S
C389 C390 1.349 . S
C389 C391 1.327 . S
C389 H412 0.950 . S
C390 C389 1.349 . S
C390 C402 1.349 1_565 S
C391 C389 1.327 . S
C391 C407 1.429 1_556 S
C391 H413 0.950 . S
C392 H388 0.949 . S
C392 C400 1.574 . S
C392 C408 1.368 1_545 S
H393 C401 0.950 . S
H394 C399 0.950 . S
H395 C400 0.949 . S
H396 C402 0.950 . S
H397 C403 0.950 . S
H398 C404 0.949 . S
C399 H394 0.950 . S
C399 C401 1.327 . S
C399 C405 1.449 . S
C400 C392 1.574 . S
C400 H395 0.949 . S
C400 C406 1.334 1_545 S
C401 C385 1.348 . S
C401 H393 0.950 . S
C401 C399 1.327 . S
C402 C390 1.349 1_545 S
C402 H396 0.950 . S
C402 C403 1.327 1_556 S
C403 H397 0.950 . S
C403 C402 1.327 1_554 S
C403 C407 1.429 1_545 S
C404 C387 1.574 . S
C404 H398 0.949 . S
C404 C408 1.368 . S
C405 C386 1.411 1_565 S
C405 C399 1.449 . S
C405 C406 1.525 . S
C406 C387 1.400 . S
C406 C400 1.334 1_565 S
C406 C405 1.525 . S
C407 C391 1.429 1_554 S
C407 C403 1.429 1_565 S
C407 C408 1.523 . S
C408 C392 1.368 1_565 S
C408 C404 1.368 . S
C408 C407 1.523 . S
H409 C384 0.950 . S
H410 C386 0.950 . S
H411 C387 0.949 . S
H412 C389 0.950 . S
H413 C391 0.950 . S
C414 C415 1.349 . S
C414 C416 1.327 . S
C414 H439 0.950 . S
C415 C414 1.349 . S
C415 C431 1.349 1_556 S
C416 C414 1.327 . S
C416 C435 1.429 . S
C416 H440 0.950 . S
C417 C434 1.574 . S
C417 C436 1.368 . S
C417 H441 0.949 1_556 S
H418 C422 0.949 . S
C419 C420 1.349 . S
C419 C421 1.327 . S
C419 H442 0.950 . S
C420 C419 1.349 . S
C420 C432 1.349 . S
C421 C419 1.327 . S
C421 C437 1.429 . S
C421 H443 0.950 . S
C422 H418 0.949 . S
C422 C430 1.574 . S
C422 C438 1.368 . S
H423 C431 0.950 . S
H424 C429 0.950 . S
H425 C430 0.949 . S
H426 C432 0.950 . S
H427 C433 0.950 . S
H428 C434 0.949 . S
C429 H424 0.950 . S
C429 C431 1.327 . S
C429 C435 1.429 1_554 S
C430 C422 1.574 . S
C430 H425 0.949 . S
C430 C436 1.368 . S
C431 C415 1.349 1_554 S
C431 H423 0.950 . S
C431 C429 1.327 . S
C432 C420 1.349 . S
C432 H426 0.950 . S
C432 C433 1.327 . S
C433 H427 0.950 . S
C433 C432 1.327 . S
C433 C437 1.429 . S
C434 C417 1.574 . S
C434 H428 0.949 . S
C434 C438 1.368 . S
C435 C416 1.429 . S
C435 C429 1.429 1_556 S
C435 C436 1.523 . S
C436 C417 1.368 . S
C436 C430 1.368 . S
C436 C435 1.523 . S
C437 C421 1.429 . S
C437 C433 1.429 . S
C437 C438 1.523 . S
C438 C422 1.368 . S
C438 C434 1.368 . S
C438 C437 1.523 . S
H439 C414 0.950 . S
H440 C416 0.950 . S
H441 C417 0.949 1_554 S
H442 C419 0.950 . S
H443 C421 0.950 . S
C444 C445 1.349 . S
C444 C446 1.327 . S
C444 H469 0.950 . S
C445 C444 1.349 . S
C445 C461 1.349 . S
C446 C444 1.327 . S
C446 C465 1.429 . S
C446 H470 0.950 . S
C447 C464 1.574 . S
C447 C466 1.368 . S
C447 H471 0.949 . S
H448 C452 0.949 . S
C449 C450 1.349 . S
C449 C451 1.327 . S
C449 H472 0.950 . S
C450 C449 1.349 . S
C450 C462 1.349 . S
C451 C449 1.327 . S
C451 C467 1.429 1_556 S
C451 H473 0.950 . S
C452 H448 0.949 . S
C452 C460 1.574 . S
C452 C468 1.368 . S
H453 C461 0.950 . S
H454 C459 0.950 . S
H455 C460 0.949 . S
H456 C462 0.950 . S
H457 C463 0.950 . S
H458 C464 0.949 . S
C459 H454 0.950 . S
C459 C461 1.327 . S
C459 C465 1.429 . S
C460 C452 1.574 . S
C460 H455 0.949 . S
C460 C466 1.368 . S
C461 C445 1.349 . S
C461 H453 0.950 . S
C461 C459 1.327 . S
C462 C450 1.349 . S
C462 H456 0.950 . S
C462 C463 1.327 1_556 S
C463 H457 0.950 . S
C463 C462 1.327 1_554 S
C463 C467 1.429 . S
C464 C447 1.574 . S
C464 H458 0.949 . S
C464 C468 1.368 . S
C465 C446 1.429 . S
C465 C459 1.429 . S
C465 C466 1.523 . S
C466 C447 1.368 . S
C466 C460 1.368 . S
C466 C465 1.523 . S
C467 C451 1.429 1_554 S
C467 C463 1.429 . S
C467 C468 1.523 . S
C468 C452 1.368 . S
C468 C464 1.368 . S
C468 C467 1.523 . S
H469 C444 0.950 . S
H470 C446 0.950 . S
H471 C447 0.949 . S
H472 C449 0.950 . S
H473 C451 0.950 . S
C474 C475 1.349 1_455 S
C474 C476 1.327 . S
C474 H499 0.950 . S
C475 C474 1.349 1_655 S
C475 C491 1.349 . S
C476 C474 1.327 . S
C476 C495 1.429 1_455 S
C476 H500 0.950 . S
C477 C494 1.574 . S
C477 C496 1.368 . S
C477 H501 0.949 . S
H478 C482 0.949 . S
C479 C480 1.349 1_655 S
C479 C481 1.327 1_556 S
C479 H502 0.950 . S
C480 C479 1.349 1_455 S
C480 C492 1.349 . S
C481 C479 1.327 1_554 S
C481 C497 1.420 1_655 S
C481 H503 0.950 . S
C482 H478 0.949 . S
C482 C490 1.574 . S
C482 C498 1.368 1_455 S
H483 C491 0.950 . S
H484 C489 0.950 . S
H485 C490 0.949 . S
H486 C492 0.950 . S
H487 C493 0.950 . S
H488 C494 0.949 . S
C489 H484 0.950 . S
C489 C491 1.327 . S
C489 C495 1.429 . S
C490 C482 1.574 . S
C490 H485 0.949 . S
C490 C496 1.368 1_455 S
C491 C475 1.349 . S
C491 H483 0.950 . S
C491 C489 1.327 . S
C492 C480 1.349 . S
C492 H486 0.950 . S
C492 C493 1.327 . S
C493 H487 0.950 . S
C493 C492 1.327 . S
C493 C497 1.439 1_556 S
C494 C477 1.574 . S
C494 H488 0.949 . S
C494 C498 1.368 . S
C495 C476 1.429 1_655 S
C495 C489 1.429 . S
C495 C496 1.523 . S
C496 C477 1.368 . S
C496 C490 1.368 1_655 S
C496 C495 1.523 . S
C497 C481 1.420 1_455 S
C497 C493 1.439 1_554 S
C497 C498 1.522 1_455 S
C498 C482 1.368 1_655 S
C498 C494 1.368 . S
C498 C497 1.522 1_655 S
H499 C474 0.950 . S
H500 C476 0.950 . S
H501 C477 0.949 . S
H502 C479 0.950 . S
H503 C481 0.950 . S
C504 C505 1.349 . S
C504 C506 1.327 . S
C504 H529 0.950 . S
C505 C504 1.349 . S
C505 C521 1.349 . S
C506 C504 1.327 . S
C506 C525 1.429 . S
C506 H530 0.950 . S
C507 C524 1.574 . S
C507 C526 1.368 1_655 S
C507 H531 0.949 . S
H508 C512 0.949 . S
C509 C510 1.349 . S
C509 C511 1.327 . S
C509 H532 0.950 . S
C510 C509 1.349 . S
C510 C522 1.349 . S
C511 C509 1.327 . S
C511 C527 1.429 . S
C511 H533 0.950 . S
C512 H508 0.949 . S
C512 C520 1.574 . S
C512 C528 1.368 1_455 S
H513 C521 0.950 1_655 S
H514 C519 0.936 1_655 S
H515 C520 0.949 . S
H516 C522 0.950 1_455 S
H517 C523 0.950 . S
H518 C524 0.949 . S
C519 H514 0.936 1_455 S
C519 C521 1.331 . S
C519 C525 1.438 . S
C520 C512 1.574 . S
C520 H515 0.949 . S
C520 C526 1.368 . S
C521 C505 1.349 . S
C521 H513 0.950 1_455 S
C521 C519 1.331 . S
C522 C510 1.349 . S
C522 H516 0.950 1_655 S
C522 C523 1.327 1_655 S
C523 H517 0.950 . S
C523 C522 1.327 1_455 S
C523 C527 1.429 1_455 S
C524 C507 1.574 . S
C524 H518 0.949 . S
C524 C528 1.368 . S
C525 C506 1.429 . S
C525 C519 1.438 . S
C525 C526 1.523 . S
C526 C507 1.368 1_455 S
C526 C520 1.368 . S
C526 C525 1.523 . S
C527 C511 1.429 . S
C527 C523 1.429 1_655 S
C527 C528 1.523 . S
C528 C512 1.368 1_655 S
C528 C524 1.368 . S
C528 C527 1.523 . S
H529 C504 0.950 . S
H530 C506 0.950 . S
H531 C507 0.949 . S
H532 C509 0.950 . S
H533 C511 0.950 . S
C534 C535 1.349 1_565 S
C534 C536 1.327 . S
C534 H559 0.950 . S
C535 C534 1.349 1_545 S
C535 C551 1.349 . S
C536 C534 1.327 . S
C536 C555 1.429 . S
C536 H560 0.950 . S
C537 C554 1.574 . S
C537 C556 1.368 1_545 S
C537 H561 0.949 . S
H538 C542 0.949 . S
C539 C540 1.349 . S
C539 C541 1.327 . S
C539 H562 0.950 1_565 S
C540 C539 1.349 . S
C540 C552 1.349 . S
C541 C539 1.327 . S
C541 C557 1.429 . S
C541 H563 0.950 1_565 S
C542 H538 0.949 . S
C542 C550 1.574 . S
C542 C558 1.368 . S
H543 C551 0.950 . S
H544 C549 0.950 . S
H545 C550 0.949 . S
H546 C552 0.950 . S
H547 C553 0.950 . S
H548 C554 0.949 . S
C549 H544 0.950 . S
C549 C551 1.327 . S
C549 C555 1.429 1_545 S
C550 C542 1.574 . S
C550 H545 0.949 . S
C550 C556 1.368 . S
C551 C535 1.349 . S
C551 H543 0.950 . S
C551 C549 1.327 . S
C552 C540 1.349 . S
C552 H546 0.950 . S
C552 C553 1.327 . S
C553 H547 0.950 . S
C553 C552 1.327 . S
C553 C557 1.429 . S
C554 C537 1.574 . S
C554 H548 0.949 . S
C554 C558 1.368 1_545 S
C555 C536 1.429 . S
C555 C549 1.429 1_565 S
C555 C556 1.523 . S
C556 C537 1.368 1_565 S
C556 C550 1.368 . S
C556 C555 1.523 . S
C557 C541 1.429 . S
C557 C553 1.429 . S
C557 C558 1.523 . S
C558 C542 1.368 . S
C558 C554 1.368 1_565 S
C558 C557 1.523 . S
H559 C534 0.950 . S
H560 C536 0.950 . S
H561 C537 0.949 . S
H562 C539 0.950 1_545 S
H563 C541 0.950 1_545 S
C564 C565 1.349 . S
C564 C566 1.327 . S
C564 H589 0.950 . S
C565 C564 1.349 . S
C565 C581 1.349 . S
C566 C564 1.327 . S
C566 C585 1.429 . S
C566 H590 0.950 . S
C567 C584 1.574 . S
C567 C586 1.368 . S
C567 H591 0.949 . S
H568 C572 0.949 . S
C569 C570 1.349 . S
C569 C571 1.327 . S
C569 H592 0.950 . S
C570 C569 1.349 . S
C570 C582 1.349 . S
C571 C569 1.327 . S
C571 C587 1.429 . S
C571 H593 0.950 . S
C572 H568 0.949 . S
C572 C580 1.574 . S
C572 C588 1.368 . S
H573 C581 0.950 . S
H574 C579 0.950 . S
H575 C580 0.949 . S
H576 C582 0.950 . S
H577 C583 0.950 . S
H578 C584 0.949 . S
C579 H574 0.950 . S
C579 C581 1.327 . S
C579 C585 1.429 . S
C580 C572 1.574 . S
C580 H575 0.949 . S
C580 C586 1.368 . S
C581 C565 1.349 . S
C581 H573 0.950 . S
C581 C579 1.327 . S
C582 C570 1.349 . S
C582 H576 0.950 . S
C582 C583 1.327 . S
C583 H577 0.950 . S
C583 C582 1.327 . S
C583 C587 1.429 . S
C584 C567 1.574 . S
C584 H578 0.949 . S
C584 C588 1.368 . S
C585 C566 1.429 . S
C585 C579 1.429 . S
C585 C586 1.523 . S
C586 C567 1.368 . S
C586 C580 1.368 . S
C586 C585 1.523 . S
C587 C571 1.429 . S
C587 C583 1.429 . S
C587 C588 1.523 . S
C588 C572 1.368 . S
C588 C584 1.368 . S
C588 C587 1.523 . S
H589 C564 0.950 . S
H590 C566 0.950 . S
H591 C567 0.949 . S
H592 C569 0.950 . S
H593 C571 0.950 . S
C594 C595 1.349 . S
C594 C596 1.327 . S
C594 H619 0.950 . S
C595 C594 1.349 . S
C595 C611 1.349 . S
C596 C594 1.327 . S
C596 C615 1.429 . S
C596 H620 0.950 . S
C597 C614 1.574 . S
C597 C616 1.368 . S
C597 H621 0.949 . S
H598 C602 0.949 . S
C599 C600 1.349 . S
C599 C601 1.327 . S
C599 H622 0.950 . S
C600 C599 1.349 . S
C600 C612 1.349 . S
C601 C599 1.327 . S
C601 C617 1.429 . S
C601 H623 0.950 . S
C602 H598 0.949 . S
C602 C610 1.574 . S
C602 C618 1.368 . S
H603 C611 0.950 . S
H604 C609 0.950 . S
H605 C610 0.949 . S
H606 C612 0.950 . S
H607 C613 0.950 . S
H608 C614 0.949 . S
C609 H604 0.950 . S
C609 C611 1.327 . S
C609 C615 1.429 . S
C610 C602 1.574 . S
C610 H605 0.949 . S
C610 C616 1.368 . S
C611 C595 1.349 . S
C611 H603 0.950 . S
C611 C609 1.327 . S
C612 C600 1.349 . S
C612 H606 0.950 . S
C612 C613 1.327 . S
C613 H607 0.950 . S
C613 C612 1.327 . S
C613 C617 1.429 . S
C614 C597 1.574 . S
C614 H608 0.949 . S
C614 C618 1.368 . S
C615 C596 1.429 . S
C615 C609 1.429 . S
C615 C616 1.523 . S
C616 C597 1.368 . S
C616 C610 1.368 . S
C616 C615 1.523 . S
C617 C601 1.429 . S
C617 C613 1.429 . S
C617 C618 1.523 . S
C618 C602 1.368 . S
C618 C614 1.368 . S
C618 C617 1.523 . S
H619 C594 0.950 . S
H620 C596 0.950 . S
H621 C597 0.949 . S
H622 C599 0.950 . S
H623 C601 0.950 . S
C624 C625 1.349 . S
C624 C626 1.327 . S
C624 H649 0.950 . S
C625 C624 1.349 . S
C625 C641 1.349 1_655 S
C626 C624 1.327 . S
C626 C645 1.429 1_655 S
C626 H650 0.950 . S
C627 C644 1.574 . S
C627 C646 1.368 . S
C627 H651 0.949 . S
H628 C632 0.949 1_655 S
C629 C630 1.349 . S
C629 C631 1.327 . S
C629 H652 0.950 . S
C630 C629 1.349 . S
C630 C642 1.349 . S
C631 C629 1.327 . S
C631 C647 1.429 . S
C631 H653 0.950 . S
C632 H628 0.949 1_455 S
C632 C640 1.574 1_455 S
C632 C648 1.368 . S
H633 C641 0.950 . S
H634 C639 0.950 . S
H635 C640 0.949 . S
H636 C642 0.950 1_556 S
H637 C643 0.950 . S
H638 C644 0.949 . S
C639 H634 0.950 . S
C639 C641 1.327 . S
C639 C645 1.429 . S
C640 C632 1.574 1_655 S
C640 H635 0.949 . S
C640 C646 1.368 1_655 S
C641 C625 1.349 1_455 S
C641 H633 0.950 . S
C641 C639 1.327 . S
C642 C630 1.349 . S
C642 H636 0.950 1_554 S
C642 C643 1.327 . S
C643 H637 0.950 . S
C643 C642 1.327 . S
C643 C647 1.429 . S
C644 C627 1.574 . S
C644 H638 0.949 . S
C644 C648 1.368 . S
C645 C626 1.429 1_455 S
C645 C639 1.429 . S
C645 C646 1.523 . S
C646 C627 1.368 . S
C646 C640 1.368 1_455 S
C646 C645 1.523 . S
C647 C631 1.429 . S
C647 C643 1.429 . S
C647 C648 1.523 . S
C648 C632 1.368 . S
C648 C644 1.368 . S
C648 C647 1.523 . S
H649 C624 0.950 . S
H650 C626 0.950 . S
H651 C627 0.949 . S
H652 C629 0.950 . S
H653 C631 0.950 . S
C654 C655 1.349 1_545 S
C654 C656 1.327 . S
C654 H679 0.950 . S
C655 C654 1.349 1_565 S
C655 C671 1.349 . S
C656 C654 1.327 . S
C656 C675 1.429 . S
C656 H680 0.950 . S
C657 C674 1.571 1_565 S
C657 C676 1.368 1_565 S
C657 H681 0.949 . S
H658 C662 0.949 . S
C659 C660 1.349 . S
C659 C661 1.327 . S
C659 H682 0.951 . S
C660 C659 1.349 . S
C660 C672 1.349 . S
C661 C659 1.327 . S
C661 C677 1.429 . S
C661 H683 0.950 1_545 S
C662 H658 0.949 . S
C662 C670 1.574 . S
C662 C678 1.368 . S
H663 C671 0.950 . S
H664 C669 0.950 . S
H665 C670 0.949 . S
H666 C672 0.950 . S
H667 C673 0.950 . S
H668 C674 0.947 1_565 S
C669 H664 0.950 . S
C669 C671 1.327 . S
C669 C675 1.429 1_565 S
C670 C662 1.574 . S
C670 H665 0.949 . S
C670 C676 1.368 . S
C671 C655 1.349 . S
C671 H663 0.950 . S
C671 C669 1.327 . S
C672 C660 1.349 . S
C672 H666 0.950 . S
C672 C673 1.327 . S
C673 H667 0.950 . S
C673 C672 1.327 . S
C673 C677 1.429 . S
C674 C657 1.571 1_545 S
C674 H668 0.947 1_545 S
C674 C678 1.374 . S
C675 C656 1.429 . S
C675 C669 1.429 1_545 S
C675 C676 1.523 . S
C676 C657 1.368 1_545 S
C676 C670 1.368 . S
C676 C675 1.523 . S
C677 C661 1.429 . S
C677 C673 1.429 . S
C677 C678 1.523 . S
C678 C662 1.368 . S
C678 C674 1.374 . S
C678 C677 1.523 . S
H679 C654 0.950 . S
H680 C656 0.950 . S
H681 C657 0.949 . S
H682 C659 0.951 . S
H683 C661 0.950 1_565 S
C684 C685 1.349 . S
C684 C686 1.327 . S
C684 H709 0.950 1_556 S
C685 C684 1.349 . S
C685 C701 1.349 . S
C686 C684 1.327 . S
C686 C705 1.429 . S
C686 H710 0.950 1_556 S
C687 C704 1.574 . S
C687 C706 1.368 . S
C687 H711 0.949 . S
H688 C692 0.949 . S
C689 C690 1.349 . S
C689 C691 1.327 . S
C689 H712 0.950 . S
C690 C689 1.349 . S
C690 C702 1.349 . S
C691 C689 1.327 . S
C691 C707 1.429 . S
C691 H713 0.950 . S
C692 H688 0.949 . S
C692 C700 1.574 . S
C692 C708 1.368 . S
H693 C701 0.950 . S
H694 C699 0.950 . S
H695 C700 0.949 . S
H696 C702 0.950 . S
H697 C703 0.950 . S
H698 C704 0.949 . S
C699 H694 0.950 . S
C699 C701 1.327 . S
C699 C705 1.429 . S
C700 C692 1.574 . S
C700 H695 0.949 . S
C700 C706 1.368 . S
C701 C685 1.349 . S
C701 H693 0.950 . S
C701 C699 1.327 . S
C702 C690 1.349 . S
C702 H696 0.950 . S
C702 C703 1.327 . S
C703 H697 0.950 . S
C703 C702 1.327 . S
C703 C707 1.429 . S
C704 C687 1.574 . S
C704 H698 0.949 . S
C704 C708 1.368 . S
C705 C686 1.429 . S
C705 C699 1.429 . S
C705 C706 1.523 . S
C706 C687 1.368 . S
C706 C700 1.368 . S
C706 C705 1.523 . S
C707 C691 1.429 . S
C707 C703 1.429 . S
C707 C708 1.523 . S
C708 C692 1.368 . S
C708 C704 1.368 . S
C708 C707 1.523 . S
H709 C684 0.950 1_554 S
H710 C686 0.950 1_554 S
H711 C687 0.949 . S
H712 C689 0.950 . S
H713 C691 0.950 . S
C714 C715 1.349 . S
C714 C716 1.327 . S
C714 H739 0.950 . S
C715 C714 1.349 . S
C715 C731 1.349 . S
C716 C714 1.327 . S
C716 C735 1.429 . S
C716 H740 0.950 . S
C717 C734 1.574 . S
C717 C736 1.368 . S
C717 H741 0.949 . S
H718 C722 0.949 . S
C719 C720 1.349 . S
C719 C721 1.327 . S
C719 H742 0.950 . S
C720 C719 1.349 . S
C720 C732 1.349 . S
C721 C719 1.327 . S
C721 C737 1.429 . S
C721 H743 0.950 . S
C722 H718 0.949 . S
C722 C730 1.574 . S
C722 C738 1.368 . S
H723 C731 0.950 . S
H724 C729 0.950 . S
H725 C730 0.949 . S
H726 C732 0.950 . S
H727 C733 0.950 . S
H728 C734 0.949 . S
C729 H724 0.950 . S
C729 C731 1.327 . S
C729 C735 1.429 . S
C730 C722 1.574 . S
C730 H725 0.949 . S
C730 C736 1.368 . S
C731 C715 1.349 . S
C731 H723 0.950 . S
C731 C729 1.327 . S
C732 C720 1.349 . S
C732 H726 0.950 . S
C732 C733 1.327 . S
C733 H727 0.950 . S
C733 C732 1.327 . S
C733 C737 1.429 . S
C734 C717 1.574 . S
C734 H728 0.949 . S
C734 C738 1.368 . S
C735 C716 1.429 . S
C735 C729 1.429 . S
C735 C736 1.523 . S
C736 C717 1.368 . S
C736 C730 1.368 . S
C736 C735 1.523 . S
C737 C721 1.429 . S
C737 C733 1.429 . S
C737 C738 1.523 . S
C738 C722 1.368 . S
C738 C734 1.368 . S
C738 C737 1.523 . S
H739 C714 0.950 . S
H740 C716 0.950 . S
H741 C717 0.949 . S
H742 C719 0.950 . S
H743 C721 0.950 . S
C744 C745 1.349 . S
C744 C746 1.327 . S
C744 H769 0.950 . S
C745 C744 1.349 . S
C745 C761 1.349 . S
C746 C744 1.327 . S
C746 C765 1.429 . S
C746 H770 0.950 . S
C747 C764 1.574 . S
C747 C766 1.368 1_556 S
C747 H771 0.949 . S
H748 C752 0.949 . S
C749 C750 1.349 . S
C749 C751 1.327 . S
C749 H772 0.950 . S
C750 C749 1.349 . S
C750 C762 1.349 . S
C751 C749 1.327 . S
C751 C767 1.429 . S
C751 H773 0.950 . S
C752 H748 0.949 . S
C752 C760 1.574 . S
C752 C768 1.368 1_554 S
H753 C761 0.950 . S
H754 C759 0.950 1_556 S
H755 C760 0.949 . S
H756 C762 0.950 . S
H757 C763 0.950 1_554 S
H758 C764 0.949 . S
C759 H754 0.950 1_554 S
C759 C761 1.327 . S
C759 C765 1.429 . S
C760 C752 1.574 . S
C760 H755 0.949 . S
C760 C766 1.368 . S
C761 C745 1.349 . S
C761 H753 0.950 . S
C761 C759 1.327 . S
C762 C750 1.349 . S
C762 H756 0.950 . S
C762 C763 1.327 . S
C763 H757 0.950 1_556 S
C763 C762 1.327 . S
C763 C767 1.429 . S
C764 C747 1.574 . S
C764 H758 0.949 . S
C764 C768 1.368 . S
C765 C746 1.429 . S
C765 C759 1.429 . S
C765 C766 1.523 . S
C766 C747 1.368 1_554 S
C766 C760 1.368 . S
C766 C765 1.523 . S
C767 C751 1.429 . S
C767 C763 1.429 . S
C767 C768 1.523 . S
C768 C752 1.368 1_556 S
C768 C764 1.368 . S
C768 C767 1.523 . S
H769 C744 0.950 . S
H770 C746 0.950 . S
H771 C747 0.949 . S
H772 C749 0.950 . S
H773 C751 0.950 . S
C774 C775 1.325 1_565 S
C774 C776 1.327 . S
C774 H799 0.950 . S
C775 C774 1.325 1_545 S
C775 C791 1.376 . S
C776 C774 1.327 . S
C776 C795 1.429 1_565 S
C776 H800 0.950 1_554 S
C777 C794 1.574 . S
C777 C796 1.368 . S
C777 H801 0.949 . S
H778 C782 0.949 . S
C779 C780 1.349 . S
C779 C781 1.327 . S
C779 H802 0.950 . S
C780 C779 1.349 . S
C780 C792 1.349 1_545 S
C781 C779 1.327 . S
C781 C797 1.429 . S
C781 H803 0.950 1_556 S
C782 H778 0.949 . S
C782 C790 1.574 . S
C782 C798 1.368 1_565 S
H783 C791 0.950 . S
H784 C789 0.950 . S
H785 C790 0.949 . S
H786 C792 0.950 . S
H787 C793 0.950 . S
H788 C794 0.949 . S
C789 H784 0.950 . S
C789 C791 1.327 . S
C789 C795 1.429 . S
C790 C782 1.574 . S
C790 H785 0.949 . S
C790 C796 1.368 1_566 S
C791 C775 1.376 . S
C791 H783 0.950 . S
C791 C789 1.327 . S
C792 C780 1.349 1_565 S
C792 H786 0.950 . S
C792 C793 1.327 . S
C793 H787 0.950 . S
C793 C792 1.327 . S
C793 C797 1.429 1_565 S
C794 C777 1.574 . S
C794 H788 0.949 . S
C794 C798 1.368 1_554 S
C795 C776 1.429 1_545 S
C795 C789 1.429 . S
C795 C796 1.523 . S
C796 C777 1.368 . S
C796 C790 1.368 1_544 S
C796 C795 1.523 . S
C797 C781 1.429 . S
C797 C793 1.429 1_545 S
C797 C798 1.523 . S
C798 C782 1.368 1_545 S
C798 C794 1.368 1_556 S
C798 C797 1.523 . S
H799 C774 0.950 . S
H800 C776 0.950 1_556 S
H801 C777 0.949 . S
H802 C779 0.950 . S
H803 C781 0.950 1_554 S
C804 C805 1.349 . S
C804 C806 1.327 . S
C804 H829 0.950 . S
C805 C804 1.349 . S
C805 C821 1.349 . S
C806 C804 1.327 . S
C806 C825 1.429 . S
C806 H830 0.950 . S
C807 C824 1.574 . S
C807 C826 1.368 . S
C807 H831 0.949 . S
H808 C812 0.949 . S
C809 C810 1.349 . S
C809 C811 1.327 . S
C809 H832 0.950 . S
C810 C809 1.349 . S
C810 C822 1.349 . S
C811 C809 1.327 . S
C811 C827 1.429 . S
C811 H833 0.950 . S
C812 H808 0.949 . S
C812 C820 1.574 . S
C812 C828 1.368 . S
H813 C821 0.950 . S
H814 C819 0.950 . S
H815 C820 0.949 . S
H816 C822 0.950 . S
H817 C823 0.950 . S
H818 C824 0.949 . S
C819 H814 0.950 . S
C819 C821 1.327 . S
C819 C825 1.429 . S
C820 C812 1.574 . S
C820 H815 0.949 . S
C820 C826 1.368 . S
C821 C805 1.349 . S
C821 H813 0.950 . S
C821 C819 1.327 . S
C822 C810 1.349 . S
C822 H816 0.950 . S
C822 C823 1.327 . S
C823 H817 0.950 . S
C823 C822 1.327 . S
C823 C827 1.429 . S
C824 C807 1.574 . S
C824 H818 0.949 . S
C824 C828 1.368 . S
C825 C806 1.429 . S
C825 C819 1.429 . S
C825 C826 1.523 . S
C826 C807 1.368 . S
C826 C820 1.368 . S
C826 C825 1.523 . S
C827 C811 1.429 . S
C827 C823 1.429 . S
C827 C828 1.523 . S
C828 C812 1.368 . S
C828 C824 1.368 . S
C828 C827 1.523 . S
H829 C804 0.950 . S
H830 C806 0.950 . S
H831 C807 0.949 . S
H832 C809 0.950 . S
H833 C811 0.950 . S
C834 C835 1.349 . S
C834 C836 1.327 . S
C834 H859 0.950 . S
C835 C834 1.349 . S
C835 C851 1.349 . S
C836 C834 1.327 . S
C836 C855 1.429 . S
C836 H860 0.950 . S
C837 C854 1.572 1_554 S
C837 C856 1.365 1_554 S
C837 H861 0.952 . S
H838 C842 0.949 . S
C839 C840 1.349 . S
C839 C841 1.327 . S
C839 H862 0.950 . S
C840 C839 1.349 . S
C840 C852 1.349 . S
C841 C839 1.327 . S
C841 C857 1.429 . S
C841 H863 0.950 . S
C842 H838 0.949 . S
C842 C850 1.574 . S
C842 C858 1.368 . S
H843 C851 0.950 . S
H844 C849 0.950 . S
H845 C850 0.949 . S
H846 C852 0.950 . S
H847 C853 0.950 . S
H848 C854 0.949 . S
C849 H844 0.950 . S
C849 C851 1.327 . S
C849 C855 1.429 . S
C850 C842 1.574 . S
C850 H845 0.949 . S
C850 C856 1.374 . S
C851 C835 1.349 . S
C851 H843 0.950 . S
C851 C849 1.327 . S
C852 C840 1.349 . S
C852 H846 0.950 . S
C852 C853 1.327 . S
C853 H847 0.950 . S
C853 C852 1.327 . S
C853 C857 1.429 . S
C854 C837 1.572 1_556 S
C854 H848 0.949 . S
C854 C858 1.368 . S
C855 C836 1.429 . S
C855 C849 1.429 . S
C855 C856 1.519 1_554 S
C856 C837 1.365 1_556 S
C856 C850 1.374 . S
C856 C855 1.519 1_556 S
C857 C841 1.429 . S
C857 C853 1.429 . S
C857 C858 1.523 . S
C858 C842 1.368 . S
C858 C854 1.368 . S
C858 C857 1.523 . S
H859 C834 0.950 . S
H860 C836 0.950 . S
H861 C837 0.952 . S
H862 C839 0.950 . S
H863 C841 0.950 . S
C864 C865 1.349 . S
C864 C866 1.327 . S
C864 H889 0.950 . S
C865 C864 1.349 . S
C865 C881 1.340 1_655 S
C866 C864 1.327 . S
C866 C885 1.429 . S
C866 H890 0.950 . S
C867 C884 1.574 . S
C867 C886 1.368 1_455 S
C867 H891 0.949 . S
H868 C872 0.949 . S
C869 C870 1.349 1_455 S
C869 C871 1.327 . S
C869 H892 0.950 . S
C870 C869 1.349 1_655 S
C870 C882 1.349 . S
C871 C869 1.327 . S
C871 C887 1.429 1_455 S
C871 H893 0.950 . S
C872 H868 0.949 . S
C872 C880 1.574 . S
C872 C888 1.368 . S
H873 C881 0.959 . S
H874 C879 0.967 . S
H875 C880 0.949 . S
H876 C882 0.950 . S
H877 C883 0.950 . S
H878 C884 0.949 . S
C879 H874 0.967 . S
C879 C881 1.328 . S
C879 C885 1.412 1_455 S
C880 C872 1.574 . S
C880 H875 0.949 . S
C880 C886 1.368 . S
C881 C865 1.340 1_455 S
C881 H873 0.959 . S
C881 C879 1.328 . S
C882 C870 1.349 . S
C882 H876 0.950 . S
C882 C883 1.327 . S
C883 H877 0.950 . S
C883 C882 1.327 . S
C883 C887 1.429 . S
C884 C867 1.574 . S
C884 H878 0.949 . S
C884 C888 1.368 1_455 S
C885 C866 1.429 . S
C885 C879 1.412 1_655 S
C885 C886 1.523 . S
C886 C867 1.368 1_655 S
C886 C880 1.368 . S
C886 C885 1.523 . S
C887 C871 1.429 1_655 S
C887 C883 1.429 . S
C887 C888 1.523 . S
C888 C872 1.368 . S
C888 C884 1.368 1_655 S
C888 C887 1.523 . S
H889 C864 0.950 . S
H890 C866 0.950 . S
H891 C867 0.949 . S
H892 C869 0.950 . S
H893 C871 0.950 . S
C894 C895 1.372 . S
C894 C896 1.327 . S
C894 H919 0.950 . S
C895 C894 1.372 . S
C895 C911 1.328 1_565 S
C896 C894 1.327 . S
C896 C915 1.429 . S
C896 H920 0.950 . S
C897 C914 1.574 . S
C897 C916 1.368 1_545 S
C897 H921 0.949 . S
H898 C902 0.949 . S
C899 C900 1.349 1_545 S
C899 C901 1.327 . S
C899 H922 0.950 . S
C900 C899 1.349 1_565 S
C900 C912 1.349 . S
C901 C899 1.327 . S
C901 C917 1.429 1_545 S
C901 H923 0.950 . S
C902 H898 0.949 . S
C902 C910 1.574 . S
C902 C918 1.368 . S
H903 C911 0.950 . S
H904 C909 0.950 . S
H905 C910 0.949 . S
H906 C912 0.950 . S
H907 C913 0.950 . S
H908 C914 0.949 . S
C909 H904 0.950 . S
C909 C911 1.327 . S
C909 C915 1.429 1_545 S
C910 C902 1.574 . S
C910 H905 0.949 . S
C910 C916 1.368 . S
C911 C895 1.328 1_545 S
C911 H903 0.950 . S
C911 C909 1.327 . S
C912 C900 1.349 . S
C912 H906 0.950 . S
C912 C913 1.327 . S
C913 H907 0.950 . S
C913 C912 1.327 . S
C913 C917 1.429 . S
C914 C897 1.574 . S
C914 H908 0.949 . S
C914 C918 1.368 1_545 S
C915 C896 1.429 . S
C915 C909 1.429 1_565 S
C915 C916 1.523 . S
C916 C897 1.368 1_565 S
C916 C910 1.368 . S
C916 C915 1.523 . S
C917 C901 1.429 1_565 S
C917 C913 1.429 . S
C917 C918 1.523 . S
C918 C902 1.368 . S
C918 C914 1.368 1_565 S
C918 C917 1.523 . S
H919 C894 0.950 . S
H920 C896 0.950 . S
H921 C897 0.949 . S
H922 C899 0.950 . S
H923 C901 0.950 . S
C924 C925 1.349 . S
C924 C926 1.327 . S
C924 H949 0.950 . S
C925 C924 1.349 . S
C925 C941 1.349 . S
C926 C924 1.327 . S
C926 C945 1.429 . S
C926 H950 0.950 . S
C927 C944 1.574 . S
C927 C946 1.368 . S
C927 H951 0.949 . S
H928 C932 0.949 . S
C929 C930 1.349 . S
C929 C931 1.327 . S
C929 H952 0.950 . S
C930 C929 1.349 . S
C930 C942 1.349 . S
C931 C929 1.327 . S
C931 C947 1.429 . S
C931 H953 0.950 . S
C932 H928 0.949 . S
C932 C940 1.574 . S
C932 C948 1.368 . S
H933 C941 0.950 . S
H934 C939 0.950 . S
H935 C940 0.949 . S
H936 C942 0.950 . S
H937 C943 0.950 . S
H938 C944 0.949 . S
C939 H934 0.950 . S
C939 C941 1.327 . S
C939 C945 1.429 . S
C940 C932 1.574 . S
C940 H935 0.949 . S
C940 C946 1.368 . S
C941 C925 1.349 . S
C941 H933 0.950 . S
C941 C939 1.327 . S
C942 C930 1.349 . S
C942 H936 0.950 . S
C942 C943 1.327 . S
C943 H937 0.950 . S
C943 C942 1.327 . S
C943 C947 1.429 . S
C944 C927 1.574 . S
C944 H938 0.949 . S
C944 C948 1.368 . S
C945 C926 1.429 . S
C945 C939 1.429 . S
C945 C946 1.523 . S
C946 C927 1.368 . S
C946 C940 1.368 . S
C946 C945 1.523 . S
C947 C931 1.429 . S
C947 C943 1.429 . S
C947 C948 1.523 . S
C948 C932 1.368 . S
C948 C944 1.368 . S
C948 C947 1.523 . S
H949 C924 0.950 . S
H950 C926 0.950 . S
H951 C927 0.949 . S
H952 C929 0.950 . S
H953 C931 0.950 . S
C954 C955 1.349 . S
C954 C956 1.327 . S
C954 H979 0.950 . S
C955 C954 1.349 . S
C955 C971 1.349 . S
C956 C954 1.327 . S
C956 C975 1.429 . S
C956 H980 0.950 . S
C957 C974 1.574 . S
C957 C976 1.368 . S
C957 H981 0.949 . S
H958 C962 0.949 . S
C959 C960 1.349 . S
C959 C961 1.327 . S
C959 H982 0.950 . S
C960 C959 1.349 . S
C960 C972 1.349 . S
C961 C959 1.327 . S
C961 C977 1.429 . S
C961 H983 0.950 . S
C962 H958 0.949 . S
C962 C970 1.574 . S
C962 C978 1.368 . S
H963 C971 0.950 . S
H964 C969 0.950 . S
H965 C970 0.949 . S
H966 C972 0.950 . S
H967 C973 0.950 . S
H968 C974 0.949 . S
C969 H964 0.950 . S
C969 C971 1.327 . S
C969 C975 1.429 . S
C970 C962 1.574 . S
C970 H965 0.949 . S
C970 C976 1.368 . S
C971 C955 1.349 . S
C971 H963 0.950 . S
C971 C969 1.327 . S
C972 C960 1.349 . S
C972 H966 0.950 . S
C972 C973 1.327 . S
C973 H967 0.950 . S
C973 C972 1.327 . S
C973 C977 1.429 . S
C974 C957 1.574 . S
C974 H968 0.949 . S
C974 C978 1.368 . S
C975 C956 1.429 . S
C975 C969 1.429 . S
C975 C976 1.523 . S
C976 C957 1.368 . S
C976 C970 1.368 . S
C976 C975 1.523 . S
C977 C961 1.429 . S
C977 C973 1.429 . S
C977 C978 1.523 . S
C978 C962 1.368 . S
C978 C974 1.368 . S
C978 C977 1.523 . S
H979 C954 0.950 . S
H980 C956 0.950 . S
H981 C957 0.949 . S
H982 C959 0.950 . S
H983 C961 0.950 . S
C265 N80 1.838 1_545 S
C270 C127 1.872 1_545 S
C300 C167 1.703 . S
C295 N93 1.711 . S
C330 C186 1.882 . S
C325 N54 1.837 . S
C360 C247 1.342 . S
C355 N67 1.322 . S
C390 C106 1.870 1_565 S
C385 N28 1.833 . S
C415 N41 1.723 . S
C420 C146 1.709 . S
C445 N2 1.841 . S
C450 C207 1.882 . S
C475 N15 1.324 . S
C480 C226 1.343 . S
C510 C108 0.626 . S
C505 N70 0.609 . S
C540 C148 0.229 . S
C535 N83 0.139 1_545 S
C570 C204 0.605 . S
C565 N96 0.604 . S
C595 N57 0.193 . S
C600 C228 0.263 . S
C625 N18 0.614 . S
C630 C129 0.631 . S
C660 C169 0.229 . S
C655 N31 0.124 . S
C690 C215 0.606 . S
C685 N44 0.603 . S
C715 N5 0.178 . S
C720 C249 0.263 . S
C745 N66 1.436 . S
C750 C124 1.457 . S
C775 N79 2.136 1_545 S
C780 C164 2.195 . S
C810 C188 1.459 . S
C805 N92 1.484 . S
C840 C244 2.185 . S
C835 N53 2.130 . S
C865 N14 1.436 . S
C870 C135 1.470 . S
C900 C175 2.196 . S
C895 N27 2.136 . S
C930 C209 1.459 . S
C925 N40 1.480 . S
C955 N1 2.132 . S
C960 C255 2.185 . S
