# Generated by pormake.
# Topology nom, (4,4)-cn, num edge types: 1
# Building blocks:
#     Node 0, Type 0, BuildingBlock: MIFKUJ_clean_linker_1, # of connection points: 4
#     Node 1, Type 0, BuildingBlock: MIFKUJ_clean_linker_1, # of connection points: 4
#     Node 2, Type 0, BuildingBlock: MIFKUJ_clean_linker_1, # of connection points: 4
#     Node 3, Type 0, BuildingBlock: MIFKUJ_clean_linker_1, # of connection points: 4
#     Node 4, Type 0, BuildingBlock: MIFKUJ_clean_linker_1, # of connection points: 4
#     Node 5, Type 0, BuildingBlock: MIFKUJ_clean_linker_1, # of connection points: 4
#     Node 6, Type 1, BuildingBlock: UXUYUI_clean_sbu_0, # of connection points: 4
#     Node 7, Type 1, BuildingBlock: UXUYUI_clean_sbu_0, # of connection points: 4
#     Node 8, Type 1, BuildingBlock: UXUYUI_clean_sbu_0, # of connection points: 4
#     Node 9, Type 1, BuildingBlock: UXUYUI_clean_sbu_0, # of connection points: 4
#     Node 10, Type 1, BuildingBlock: UXUYUI_clean_sbu_0, # of connection points: 4
#     Node 11, Type 1, BuildingBlock: UXUYUI_clean_sbu_0, # of connection points: 4
#     Edge 12, Type (0, 1), BuildingBlock: UVAHIK_clean_linker_0, # of connection points: 2
#     Edge 13, Type (0, 1), BuildingBlock: UVAHIK_clean_linker_0, # of connection points: 2
#     Edge 14, Type (0, 1), BuildingBlock: UVAHIK_clean_linker_0, # of connection points: 2
#     Edge 15, Type (0, 1), BuildingBlock: UVAHIK_clean_linker_0, # of connection points: 2
#     Edge 16, Type (0, 1), BuildingBlock: UVAHIK_clean_linker_0, # of connection points: 2
#     Edge 17, Type (0, 1), BuildingBlock: UVAHIK_clean_linker_0, # of connection points: 2
#     Edge 18, Type (0, 1), BuildingBlock: UVAHIK_clean_linker_0, # of connection points: 2
#     Edge 19, Type (0, 1), BuildingBlock: UVAHIK_clean_linker_0, # of connection points: 2
#     Edge 20, Type (0, 1), BuildingBlock: UVAHIK_clean_linker_0, # of connection points: 2
#     Edge 21, Type (0, 1), BuildingBlock: UVAHIK_clean_linker_0, # of connection points: 2
#     Edge 22, Type (0, 1), BuildingBlock: UVAHIK_clean_linker_0, # of connection points: 2
#     Edge 23, Type (0, 1), BuildingBlock: UVAHIK_clean_linker_0, # of connection points: 2
#     Edge 24, Type (0, 1), BuildingBlock: UVAHIK_clean_linker_0, # of connection points: 2
#     Edge 25, Type (0, 1), BuildingBlock: UVAHIK_clean_linker_0, # of connection points: 2
#     Edge 26, Type (0, 1), BuildingBlock: UVAHIK_clean_linker_0, # of connection points: 2
#     Edge 27, Type (0, 1), BuildingBlock: UVAHIK_clean_linker_0, # of connection points: 2
#     Edge 28, Type (0, 1), BuildingBlock: UVAHIK_clean_linker_0, # of connection points: 2
#     Edge 29, Type (0, 1), BuildingBlock: UVAHIK_clean_linker_0, # of connection points: 2
#     Edge 30, Type (0, 1), BuildingBlock: UVAHIK_clean_linker_0, # of connection points: 2
#     Edge 31, Type (0, 1), BuildingBlock: UVAHIK_clean_linker_0, # of connection points: 2
#     Edge 32, Type (0, 1), BuildingBlock: UVAHIK_clean_linker_0, # of connection points: 2
#     Edge 33, Type (0, 1), BuildingBlock: UVAHIK_clean_linker_0, # of connection points: 2
#     Edge 34, Type (0, 1), BuildingBlock: UVAHIK_clean_linker_0, # of connection points: 2
#     Edge 35, Type (0, 1), BuildingBlock: UVAHIK_clean_linker_0, # of connection points: 2
# Relax obj value: 0.035
# Max RMSD: 0.144
# Mean RMSD: 0.118
data_MOF--net-nom--node1-UXUYUI_clean_sbu_0--node2-MIFKUJ_clean_linker_1--edge1-UVAHIK_clean_linker_0
_symmetry_space_group_name_H-M    P1
_symmetry_Int_Tables_number       1
_symmetry_cell_setting            triclinic
loop_
_symmetry_equiv_pos_as_xyz
'x, y, z'
_cell_length_a     76.197486
_cell_length_b     76.19121
_cell_length_c     81.24167
_cell_angle_alpha  89.996777
_cell_angle_beta   89.993153
_cell_angle_gamma 120.01738
loop_
_atom_site_label
_atom_site_type_symbol
_atom_site_fract_x
_atom_site_fract_y
_atom_site_fract_z
_atom_type_partial_charge
H0 H 0.99243 0.46579 0.29662 0.0
H1 H 0.96831 0.45404 0.27362 0.0
H2 H 0.95746 0.50381 0.28188 0.0
H3 H 0.98138 0.51531 0.30504 0.0
H4 H 0.0286 0.50878 0.29994 0.0
H5 H 0.96331 0.46043 0.32622 0.0
H6 H 0.92811 0.44902 0.33395 0.0
H7 H 0.94738 0.50682 0.35729 0.0
H8 H 0.98236 0.51809 0.34954 0.0
H9 H 0.03493 0.53736 0.36752 0.0
H10 H 0.05848 0.54818 0.39068 0.0
H11 H 0.08554 0.51463 0.37079 0.0
H12 H 0.06186 0.50376 0.34763 0.0
H13 H 0.00642 0.50292 0.35807 0.0
H14 H 0.06533 0.55372 0.3351 0.0
H15 H 0.10052 0.57496 0.32664 0.0
H16 H 0.09538 0.52697 0.29513 0.0
H17 H 0.06016 0.50534 0.30407 0.0
C18 C 0.98856 0.49133 0.30249 0.0
C19 C 0.9848 0.47411 0.29347 0.0
C20 C 0.97099 0.46738 0.28043 0.0
C21 C 0.96107 0.47804 0.27603 0.0
C22 C 0.96502 0.49541 0.285 0.0
C23 C 0.97858 0.50194 0.29821 0.0
C24 C 0.00312 0.49832 0.31629 0.0
C25 C 0.02383 0.50716 0.3127 0.0
C26 C 0.99684 0.49738 0.33278 0.0
C27 C 0.97543 0.49015 0.33723 0.0
C28 C 0.95989 0.47068 0.33288 0.0
C29 C 0.93981 0.46419 0.3373 0.0
C30 C 0.935 0.477 0.34629 0.0
C31 C 0.95063 0.49647 0.35061 0.0
C32 C 0.97062 0.50296 0.34614 0.0
C33 C 0.04664 0.5198 0.35579 0.0
C34 C 0.04586 0.53224 0.36818 0.0
C35 C 0.05931 0.53839 0.38143 0.0
C36 C 0.07384 0.53222 0.38258 0.0
C37 C 0.07467 0.51982 0.37014 0.0
C38 C 0.06114 0.51359 0.35691 0.0
C39 C 0.03209 0.51309 0.34185 0.0
C40 C 0.01136 0.50433 0.34537 0.0
C41 C 0.03848 0.51525 0.32523 0.0
C42 C 0.06016 0.52773 0.3205 0.0
C43 C 0.07186 0.5475 0.3267 0.0
C44 C 0.09196 0.55969 0.3218 0.0
C45 C 0.10067 0.55254 0.31031 0.0
C46 C 0.08898 0.53283 0.30399 0.0
C47 C 0.0689 0.5205 0.30909 0.0
H48 H 0.48249 0.98249 0.51887 0.0
H49 H 0.45998 0.94779 0.52794 0.0
H50 H 0.50068 0.92968 0.50701 0.0
H51 H 0.52309 0.96458 0.49773 0.0
H52 H 0.52202 0.00858 0.52701 0.0
H53 H 0.48343 0.97687 0.47627 0.0
H54 H 0.47149 0.95237 0.45371 0.0
H55 H 0.53347 0.96897 0.44272 0.0
H56 H 0.54521 0.99394 0.46493 0.0
H57 H 0.5714 0.06139 0.47227 0.0
H58 H 0.58227 0.09557 0.46189 0.0
H59 H 0.5348 0.0967 0.49015 0.0
H60 H 0.52376 0.06255 0.50009 0.0
H61 H 0.536 0.02706 0.46799 0.0
H62 H 0.57446 0.06512 0.51343 0.0
H63 H 0.58716 0.09092 0.53495 0.0
H64 H 0.5279 0.06149 0.55768 0.0
H65 H 0.51506 0.03635 0.53566 0.0
C66 C 0.50443 0.9761 0.5076 0.0
C67 C 0.48661 0.97106 0.51629 0.0
C68 C 0.4738 0.95122 0.52153 0.0
C69 C 0.47858 0.93597 0.51829 0.0
C70 C 0.49645 0.94103 0.50955 0.0
C71 C 0.50929 0.96096 0.50427 0.0
C72 C 0.51774 0.99731 0.50219 0.0
C73 C 0.52502 0.01269 0.51411 0.0
C74 C 0.5225 0.00256 0.48545 0.0
C75 C 0.51518 0.98711 0.47227 0.0
C76 C 0.49439 0.97511 0.46903 0.0
C77 C 0.48761 0.96104 0.45617 0.0
C78 C 0.50151 0.95865 0.44635 0.0
C79 C 0.52234 0.97062 0.44981 0.0
C80 C 0.5291 0.98481 0.46257 0.0
C81 C 0.54692 0.05951 0.48709 0.0
C82 C 0.56342 0.06907 0.47625 0.0
C83 C 0.56967 0.08861 0.4704 0.0
C84 C 0.55934 0.09878 0.47517 0.0
C85 C 0.54291 0.08918 0.4861 0.0
C86 C 0.53673 0.06974 0.49195 0.0
C87 C 0.53945 0.03845 0.49277 0.0
C88 C 0.53338 0.02307 0.48093 0.0
C89 C 0.536 0.03322 0.50965 0.0
C90 C 0.54375 0.04885 0.52282 0.0
C91 C 0.56413 0.06437 0.52293 0.0
C92 C 0.57144 0.07899 0.53536 0.0
C93 C 0.55856 0.0783 0.54807 0.0
C94 C 0.53818 0.06267 0.54797 0.0
C95 C 0.53085 0.04813 0.53547 0.0
H96 H 0.54519 0.5691 0.69288 0.0
H97 H 0.5338 0.58172 0.71592 0.0
H98 H 0.47239 0.53309 0.70831 0.0
H99 H 0.48389 0.52057 0.68527 0.0
H100 H 0.53834 0.52692 0.68987 0.0
H101 H 0.52039 0.57399 0.66131 0.0
H102 H 0.49541 0.58434 0.65475 0.0
H103 H 0.45416 0.52391 0.63707 0.0
H104 H 0.47902 0.51366 0.64374 0.0
H105 H 0.51358 0.49552 0.6228 0.0
H106 H 0.52597 0.48404 0.59988 0.0
H107 H 0.58671 0.51728 0.61967 0.0
H108 H 0.57439 0.52955 0.64209 0.0
H109 H 0.51887 0.52951 0.63201 0.0
H110 H 0.52683 0.47978 0.65695 0.0
H111 H 0.54059 0.45847 0.66553 0.0
H112 H 0.58801 0.50883 0.69242 0.0
H113 H 0.57405 0.53022 0.68374 0.0
C114 C 0.51535 0.544 0.68738 0.0
C115 C 0.52928 0.56121 0.69619 0.0
C116 C 0.52275 0.56845 0.70925 0.0
C117 C 0.50222 0.55838 0.71386 0.0
C118 C 0.48831 0.54105 0.70507 0.0
C119 C 0.49482 0.53396 0.69189 0.0
C120 C 0.52236 0.53639 0.67361 0.0
C121 C 0.53453 0.52788 0.67715 0.0
C122 C 0.51611 0.53634 0.65724 0.0
C123 C 0.50149 0.54305 0.65304 0.0
C124 C 0.50594 0.56301 0.65604 0.0
C125 C 0.49173 0.56891 0.65223 0.0
C126 C 0.47282 0.55488 0.64548 0.0
C127 C 0.4685 0.53496 0.64245 0.0
C128 C 0.48273 0.52913 0.64613 0.0
C129 C 0.54301 0.51332 0.63425 0.0
C130 C 0.5296 0.50048 0.62214 0.0
C131 C 0.53668 0.49373 0.60912 0.0
C132 C 0.55734 0.49965 0.60795 0.0
C133 C 0.57075 0.51259 0.62007 0.0
C134 C 0.56368 0.51943 0.63303 0.0
C135 C 0.53546 0.52047 0.64812 0.0
C136 C 0.52312 0.52884 0.64464 0.0
C137 C 0.54047 0.51917 0.66469 0.0
C138 C 0.54959 0.5067 0.66949 0.0
C139 C 0.5404 0.48638 0.66446 0.0
C140 C 0.54829 0.47419 0.66937 0.0
C141 C 0.56548 0.482 0.67956 0.0
C142 C 0.57467 0.50235 0.68465 0.0
C143 C 0.56676 0.51459 0.67967 0.0
H144 H 0.03569 0.56209 0.793 0.0
H145 H 0.05993 0.5743 0.77019 0.0
H146 H 0.08545 0.53843 0.7879 0.0
H147 H 0.06074 0.52567 0.81038 0.0
H148 H 0.00641 0.52428 0.80063 0.0
H149 H 0.07063 0.57515 0.82837 0.0
H150 H 0.10609 0.58672 0.83557 0.0
H151 H 0.0876 0.52872 0.85822 0.0
H152 H 0.05245 0.51721 0.85082 0.0
H153 H 0.9981 0.49659 0.86827 0.0
H154 H 0.97332 0.48537 0.89063 0.0
H155 H 0.94766 0.51966 0.86964 0.0
H156 H 0.97273 0.53113 0.84744 0.0
H157 H 0.02745 0.53226 0.85919 0.0
H158 H 0.96988 0.47999 0.83592 0.0
H159 H 0.9348 0.45808 0.8275 0.0
H160 H 0.93904 0.50503 0.79516 0.0
H161 H 0.9742 0.52732 0.80402 0.0
C162 C 0.04661 0.54324 0.8036 0.0
C163 C 0.04645 0.55678 0.79195 0.0
C164 C 0.06027 0.56373 0.77892 0.0
C165 C 0.07462 0.55739 0.77737 0.0
C166 C 0.07473 0.54377 0.78897 0.0
C167 C 0.06067 0.53655 0.80184 0.0
C168 C 0.03173 0.53592 0.81732 0.0
C169 C 0.01101 0.52644 0.81345 0.0
C170 C 0.03765 0.5375 0.83402 0.0
C171 C 0.05898 0.54528 0.83898 0.0
C172 C 0.07428 0.56499 0.83491 0.0
C173 C 0.09447 0.57159 0.83908 0.0
C174 C 0.0996 0.55854 0.84732 0.0
C175 C 0.08414 0.53899 0.85164 0.0
C176 C 0.06405 0.53246 0.84756 0.0
C177 C 0.98722 0.51463 0.85615 0.0
C178 C 0.98721 0.50178 0.86853 0.0
C179 C 0.97294 0.49524 0.88122 0.0
C180 C 0.9585 0.50158 0.88185 0.0
C181 C 0.95868 0.51464 0.86954 0.0
C182 C 0.9729 0.52109 0.8568 0.0
C183 C 0.00216 0.52124 0.84251 0.0
C184 C 0.02282 0.53049 0.84638 0.0
C185 C 0.99613 0.51846 0.8258 0.0
C186 C 0.97459 0.5055 0.82089 0.0
C187 C 0.96318 0.48582 0.82732 0.0
C188 C 0.94314 0.47325 0.82245 0.0
C189 C 0.93418 0.47993 0.81078 0.0
C190 C 0.94563 0.49953 0.80416 0.0
C191 C 0.96566 0.51224 0.80922 0.0
H192 H 0.55119 0.05229 0.01902 0.0
H193 H 0.5751 0.08722 0.02669 0.0
H194 H 0.53744 0.10698 0.00252 0.0
H195 H 0.51341 0.07179 0.99488 0.0
H196 H 0.51193 0.02805 0.02678 0.0
H197 H 0.55078 0.05665 0.97541 0.0
H198 H 0.56303 0.0805 0.95237 0.0
H199 H 0.50132 0.06449 0.94101 0.0
H200 H 0.48924 0.04023 0.96374 0.0
H201 H 0.46129 0.97392 0.97323 0.0
H202 H 0.44833 0.93877 0.96443 0.0
H203 H 0.49449 0.93626 0.99356 0.0
H204 H 0.50722 0.97115 0.0023 0.0
H205 H 0.49722 0.00673 0.96836 0.0
H206 H 0.45828 0.9715 0.01449 0.0
H207 H 0.44496 0.94682 0.03693 0.0
H208 H 0.50407 0.97593 0.05972 0.0
H209 H 0.51754 0.00025 0.03704 0.0
C210 C 0.53056 0.05943 0.00632 0.0
C211 C 0.54798 0.06411 0.01547 0.0
C212 C 0.56161 0.08409 0.01988 0.0
C213 C 0.55812 0.09985 0.01526 0.0
C214 C 0.54063 0.09517 0.00611 0.0
C215 C 0.5269 0.07509 0.00175 0.0
C216 C 0.51653 0.03807 0.00158 0.0
C217 C 0.50878 0.02331 0.01401 0.0
C218 C 0.51159 0.03203 0.98498 0.0
C219 C 0.51913 0.04679 0.97128 0.0
C220 C 0.53995 0.05837 0.96795 0.0
C221 C 0.54691 0.07207 0.95482 0.0
C222 C 0.53317 0.07446 0.9448 0.0
C223 C 0.51231 0.06282 0.94827 0.0
C224 C 0.50537 0.04903 0.96131 0.0
C225 C 0.48502 0.97506 0.98861 0.0
C226 C 0.46852 0.96572 0.97776 0.0
C227 C 0.46119 0.94568 0.97271 0.0
C228 C 0.47032 0.93469 0.97838 0.0
C229 C 0.48685 0.94414 0.98924 0.0
C230 C 0.49416 0.96411 0.99424 0.0
C231 C 0.49349 0.99654 0.99354 0.0
C232 C 0.50005 0.01135 0.98116 0.0
C233 C 0.49716 0.0026 0.01024 0.0
C234 C 0.48899 0.98767 0.02395 0.0
C235 C 0.46847 0.97244 0.02419 0.0
C236 C 0.46084 0.95836 0.03703 0.0
C237 C 0.47349 0.95948 0.05004 0.0
C238 C 0.49395 0.97484 0.04991 0.0
C239 C 0.50163 0.98875 0.03697 0.0
H240 H 0.4878 0.4673 0.19464 0.0
H241 H 0.49948 0.45513 0.21777 0.0
H242 H 0.5614 0.50046 0.20685 0.0
H243 H 0.54959 0.51264 0.18383 0.0
H244 H 0.49558 0.50859 0.19014 0.0
H245 H 0.51169 0.45999 0.16245 0.0
H246 H 0.53575 0.44866 0.15528 0.0
H247 H 0.57621 0.50761 0.13451 0.0
H248 H 0.55238 0.51889 0.14191 0.0
H249 H 0.51913 0.5384 0.12275 0.0
H250 H 0.50686 0.5501 0.09989 0.0
H251 H 0.44638 0.51831 0.12033 0.0
H252 H 0.45857 0.50583 0.14272 0.0
H253 H 0.51285 0.50399 0.13202 0.0
H254 H 0.50708 0.55525 0.15689 0.0
H255 H 0.49397 0.57715 0.16538 0.0
H256 H 0.44648 0.52765 0.19296 0.0
H257 H 0.4598 0.50568 0.18438 0.0
C258 C 0.51785 0.49075 0.1875 0.0
C259 C 0.50389 0.47456 0.19724 0.0
C260 C 0.51058 0.46757 0.21036 0.0
C261 C 0.53135 0.47684 0.21408 0.0
C262 C 0.5453 0.49313 0.20433 0.0
C263 C 0.5386 0.50001 0.19114 0.0
C264 C 0.51064 0.49819 0.17373 0.0
C265 C 0.49892 0.50719 0.17739 0.0
C266 C 0.51625 0.49763 0.15725 0.0
C267 C 0.53032 0.4903 0.15277 0.0
C268 C 0.52579 0.47045 0.15641 0.0
C269 C 0.53947 0.46398 0.15223 0.0
C270 C 0.5579 0.4773 0.14441 0.0
C271 C 0.56228 0.4971 0.14073 0.0
C272 C 0.5486 0.50351 0.14482 0.0
C273 C 0.48982 0.52131 0.13453 0.0
C274 C 0.5032 0.53382 0.12225 0.0
C275 C 0.49619 0.54069 0.10927 0.0
C276 C 0.47564 0.53524 0.1083 0.0
C277 C 0.46225 0.52264 0.12059 0.0
C278 C 0.46925 0.51567 0.13352 0.0
C279 C 0.49732 0.51403 0.14832 0.0
C280 C 0.5091 0.50509 0.14472 0.0
C281 C 0.49288 0.51584 0.16495 0.0
C282 C 0.48423 0.52872 0.16978 0.0
C283 C 0.49365 0.54898 0.16455 0.0
C284 C 0.48612 0.5615 0.16941 0.0
C285 C 0.46909 0.5541 0.17975 0.0
C286 C 0.4597 0.53382 0.18507 0.0
C287 C 0.46724 0.52124 0.18015 0.0
Li288 Li 0.63952 0.40044 0.42509 0.0
Li289 Li 0.63358 0.36847 0.4133 0.0
Li290 Li 0.66473 0.40151 0.40666 0.0
Li291 Li 0.63186 0.39361 0.39497 0.0
C292 C 0.65982 0.38886 0.4445 0.0
N293 N 0.66679 0.39265 0.47803 0.0
C294 C 0.64938 0.37204 0.45479 0.0
C295 C 0.67397 0.40755 0.45123 0.0
C296 C 0.65309 0.37428 0.47171 0.0
C297 C 0.67722 0.40918 0.46822 0.0
C298 C 0.59436 0.365 0.4131 0.0
C299 C 0.56556 0.34116 0.3971 0.0
N300 N 0.55358 0.33671 0.41066 0.0
C301 C 0.58172 0.36038 0.42682 0.0
C302 C 0.58618 0.35549 0.39808 0.0
C303 C 0.56117 0.34596 0.42536 0.0
C304 C 0.64027 0.4317 0.44467 0.0
N305 N 0.63424 0.41164 0.44407 0.0
C306 C 0.61858 0.40623 0.47047 0.0
C307 C 0.6236 0.39891 0.45658 0.0
C308 C 0.62429 0.42683 0.4714 0.0
C309 C 0.63544 0.43967 0.4583 0.0
H310 H 0.64847 0.44143 0.43443 0.0
H311 H 0.61882 0.38298 0.45569 0.0
C312 C 0.63607 0.33327 0.4119 0.0
N313 N 0.62426 0.34068 0.41755 0.0
C314 C 0.63088 0.31327 0.41516 0.0
C315 C 0.60157 0.30893 0.43016 0.0
C316 C 0.60732 0.32903 0.42659 0.0
C317 C 0.61347 0.30083 0.42448 0.0
H318 H 0.64963 0.343 0.40495 0.0
H319 H 0.59854 0.33544 0.43138 0.0
C320 C 0.66778 0.4372 0.40096 0.0
N321 N 0.69969 0.47367 0.39023 0.0
C322 C 0.66844 0.44336 0.38465 0.0
C323 C 0.68324 0.44966 0.41185 0.0
C324 C 0.68472 0.46185 0.37946 0.0
C325 C 0.69928 0.46801 0.40617 0.0
C326 C 0.64363 0.3676 0.37775 0.0
C327 C 0.65806 0.37449 0.36516 0.0
C328 C 0.62586 0.34885 0.37612 0.0
C329 C 0.65436 0.36266 0.35105 0.0
C330 C 0.62272 0.33746 0.36183 0.0
N331 N 0.6369 0.34454 0.34969 0.0
C332 C 0.70511 0.41151 0.41282 0.0
C333 C 0.69963 0.42166 0.38665 0.0
C334 C 0.7253 0.41811 0.40883 0.0
N335 N 0.69273 0.41322 0.4017 0.0
C336 C 0.71968 0.42846 0.38214 0.0
C337 C 0.73272 0.42643 0.3932 0.0
H338 H 0.69915 0.40442 0.4246 0.0
H339 H 0.6894 0.4226 0.37796 0.0
C340 C 0.61101 0.41065 0.38032 0.0
N341 N 0.61876 0.39839 0.37696 0.0
C342 C 0.60227 0.41632 0.36782 0.0
C343 C 0.60914 0.39619 0.34871 0.0
C344 C 0.6179 0.39105 0.36154 0.0
C345 C 0.60139 0.40918 0.35174 0.0
H346 H 0.61198 0.41632 0.39269 0.0
H347 H 0.62424 0.38148 0.35904 0.0
O348 O 0.6562 0.38703 0.42793 0.0
O349 O 0.6145 0.37917 0.41434 0.0
O350 O 0.65206 0.41908 0.40624 0.0
O351 O 0.64709 0.379 0.39168 0.0
H352 H 0.63844 0.35745 0.44978 0.0
H353 H 0.68226 0.42067 0.44342 0.0
H354 H 0.64504 0.36142 0.47984 0.0
H355 H 0.68804 0.42358 0.47361 0.0
H356 H 0.55906 0.33364 0.38556 0.0
H357 H 0.58771 0.36777 0.4385 0.0
H358 H 0.59558 0.3592 0.38724 0.0
H359 H 0.55124 0.34214 0.4359 0.0
H360 H 0.61024 0.39581 0.48034 0.0
H361 H 0.6399 0.45557 0.45834 0.0
H362 H 0.6404 0.30761 0.41041 0.0
H363 H 0.58825 0.30002 0.43767 0.0
H364 H 0.65663 0.4339 0.37605 0.0
H365 H 0.68291 0.44516 0.42452 0.0
H366 H 0.68549 0.46676 0.36686 0.0
H367 H 0.71141 0.47776 0.41444 0.0
H368 H 0.67196 0.38885 0.36621 0.0
H369 H 0.61463 0.34305 0.38579 0.0
H370 H 0.66538 0.36787 0.34119 0.0
H371 H 0.60902 0.32295 0.36041 0.0
H372 H 0.73474 0.416 0.41765 0.0
H373 H 0.72483 0.43498 0.37003 0.0
H374 H 0.59631 0.42622 0.3707 0.0
H375 H 0.60898 0.39055 0.33644 0.0
Li376 Li 0.256 0.63962 0.59468 0.0
Li377 Li 0.28039 0.63202 0.58221 0.0
Li378 Li 0.28313 0.6651 0.57712 0.0
Li379 Li 0.25642 0.63453 0.56463 0.0
C380 C 0.29127 0.66783 0.6106 0.0
N381 N 0.30284 0.69678 0.63501 0.0
C382 C 0.307 0.67133 0.62134 0.0
C383 C 0.28139 0.67902 0.61227 0.0
C384 C 0.31264 0.68604 0.63361 0.0
C385 C 0.28748 0.6936 0.62469 0.0
C386 C 0.2474 0.59589 0.58572 0.0
C387 C 0.24294 0.56391 0.57624 0.0
N388 N 0.24203 0.55788 0.59212 0.0
C389 C 0.24613 0.58926 0.60195 0.0
C390 C 0.24555 0.58302 0.57275 0.0
C391 C 0.24353 0.57004 0.60494 0.0
C392 C 0.22175 0.6349 0.61193 0.0
N393 N 0.23949 0.63492 0.61353 0.0
C394 C 0.23281 0.62617 0.64198 0.0
C395 C 0.24531 0.63089 0.62819 0.0
C396 C 0.21421 0.6258 0.64073 0.0
C397 C 0.2089 0.63053 0.62544 0.0
H398 H 0.21747 0.63803 0.60009 0.0
H399 H 0.25949 0.63091 0.62907 0.0
C400 C 0.30846 0.61873 0.5751 0.0
N401 N 0.29631 0.61981 0.58683 0.0
C402 C 0.3218 0.61185 0.57915 0.0
C403 C 0.30972 0.60712 0.60722 0.0
C404 C 0.29673 0.61424 0.60265 0.0
C405 C 0.32268 0.60614 0.59543 0.0
H406 H 0.30834 0.62383 0.56274 0.0
H407 H 0.28742 0.61593 0.61185 0.0
C408 C 0.2488 0.66687 0.56571 0.0
N409 N 0.23889 0.68836 0.54384 0.0
C410 C 0.26101 0.6762 0.552 0.0
C411 C 0.23156 0.66853 0.56833 0.0
C412 C 0.25576 0.68698 0.54108 0.0
C413 C 0.2268 0.67944 0.55713 0.0
C414 C 0.28936 0.6442 0.54524 0.0
C415 C 0.29928 0.66076 0.53459 0.0
C416 C 0.28264 0.62464 0.53929 0.0
C417 C 0.30202 0.65742 0.51812 0.0
C418 C 0.28566 0.62192 0.52275 0.0
N419 N 0.29518 0.63823 0.51258 0.0
C420 C 0.32114 0.69694 0.56925 0.0
C421 C 0.29815 0.70805 0.57659 0.0
C422 C 0.33616 0.71675 0.56572 0.0
N423 N 0.3025 0.69296 0.57427 0.0
C424 C 0.31281 0.72816 0.57328 0.0
C425 C 0.332 0.73264 0.56751 0.0
H426 H 0.32418 0.68461 0.56771 0.0
H427 H 0.28322 0.70445 0.58071 0.0
C428 C 0.2212 0.60593 0.54828 0.0
N429 N 0.23901 0.62344 0.54591 0.0
C430 C 0.20753 0.59702 0.5353 0.0
C431 C 0.23068 0.62443 0.51768 0.0
C432 C 0.24386 0.63281 0.53099 0.0
C433 C 0.21221 0.60629 0.51974 0.0
H434 H 0.21757 0.59889 0.5603 0.0
H435 H 0.25788 0.64688 0.52937 0.0
O436 O 0.28563 0.65346 0.59855 0.0
O437 O 0.25017 0.61476 0.58257 0.0
O438 O 0.25368 0.65625 0.5766 0.0
O439 O 0.28634 0.64715 0.56139 0.0
H440 H 0.31477 0.66275 0.62021 0.0
H441 H 0.26914 0.6765 0.60411 0.0
H442 H 0.3248 0.68891 0.64202 0.0
H443 H 0.27998 0.70238 0.62612 0.0
H444 H 0.24157 0.55383 0.56631 0.0
H445 H 0.24737 0.59892 0.61214 0.0
H446 H 0.24596 0.58766 0.56012 0.0
H447 H 0.24273 0.56481 0.61744 0.0
H448 H 0.23747 0.62232 0.65337 0.0
H449 H 0.19493 0.63081 0.62389 0.0
H450 H 0.33154 0.6113 0.5697 0.0
H451 H 0.3102 0.60322 0.61996 0.0
H452 H 0.2744 0.67512 0.54979 0.0
H453 H 0.22195 0.66151 0.57891 0.0
H454 H 0.2651 0.69424 0.5304 0.0
H455 H 0.21349 0.68083 0.55901 0.0
H456 H 0.3047 0.67603 0.53894 0.0
H457 H 0.27519 0.61171 0.54738 0.0
H458 H 0.30956 0.67008 0.50974 0.0
H459 H 0.28043 0.60684 0.51799 0.0
H460 H 0.35087 0.71959 0.56157 0.0
H461 H 0.30898 0.73997 0.57476 0.0
H462 H 0.19352 0.58295 0.53741 0.0
H463 H 0.23474 0.63228 0.50597 0.0
Li464 Li 0.66542 0.2824 0.74966 0.0
Li465 Li 0.63324 0.2572 0.76251 0.0
Li466 Li 0.63925 0.25758 0.73215 0.0
Li467 Li 0.63346 0.28344 0.7443 0.0
C468 C 0.66885 0.24946 0.75502 0.0
N469 N 0.70072 0.2441 0.76435 0.0
C470 C 0.66963 0.24298 0.77096 0.0
C471 C 0.68415 0.25298 0.74377 0.0
C472 C 0.6859 0.24041 0.77546 0.0
C473 C 0.70018 0.25027 0.74874 0.0
C474 C 0.64664 0.29593 0.77939 0.0
C475 C 0.6278 0.30596 0.79714 0.0
N476 N 0.6436 0.31408 0.80788 0.0
C477 C 0.66277 0.30454 0.79054 0.0
C478 C 0.62906 0.29678 0.78266 0.0
C479 C 0.66091 0.31357 0.8049 0.0
C480 C 0.70447 0.31497 0.74304 0.0
N481 N 0.6936 0.29939 0.75359 0.0
C482 C 0.72223 0.31064 0.77134 0.0
C483 C 0.70205 0.29695 0.7675 0.0
C484 C 0.73374 0.32726 0.76093 0.0
C485 C 0.72467 0.32915 0.74647 0.0
H486 H 0.69726 0.3168 0.73223 0.0
H487 H 0.69295 0.28476 0.77591 0.0
C488 C 0.60944 0.21999 0.77823 0.0
N489 N 0.6215 0.24013 0.78118 0.0
C490 C 0.60131 0.20632 0.79131 0.0
C491 C 0.61785 0.23445 0.81021 0.0
C492 C 0.62579 0.24752 0.79678 0.0
C493 C 0.6056 0.21348 0.8076 0.0
H494 H 0.60647 0.21452 0.76568 0.0
H495 H 0.63562 0.26349 0.7989 0.0
C496 C 0.65867 0.2892 0.71225 0.0
N497 N 0.66494 0.29191 0.67864 0.0
C498 C 0.64721 0.29434 0.70199 0.0
C499 C 0.6735 0.28571 0.70546 0.0
C500 C 0.65057 0.29558 0.68501 0.0
C501 C 0.67638 0.28707 0.68842 0.0
C502 C 0.59467 0.24791 0.74615 0.0
C503 C 0.58096 0.23969 0.73309 0.0
C504 C 0.58776 0.24981 0.76161 0.0
C505 C 0.56064 0.23392 0.73564 0.0
C506 C 0.56733 0.24384 0.76369 0.0
N507 N 0.55431 0.23611 0.75076 0.0
C508 C 0.64061 0.22797 0.71176 0.0
C509 C 0.62168 0.24244 0.70126 0.0
C510 C 0.63591 0.21554 0.6979 0.0
N511 N 0.63347 0.24105 0.71315 0.0
C512 C 0.61674 0.23045 0.68717 0.0
C513 C 0.62375 0.21664 0.68537 0.0
H514 H 0.64973 0.22698 0.72151 0.0
H515 H 0.61609 0.25288 0.70276 0.0
C516 C 0.63527 0.32081 0.74624 0.0
N517 N 0.62366 0.3016 0.7405 0.0
C518 C 0.63011 0.33558 0.74276 0.0
C519 C 0.60118 0.31057 0.7274 0.0
C520 C 0.60686 0.29624 0.73126 0.0
C521 C 0.61299 0.3306 0.73306 0.0
H522 H 0.64886 0.32477 0.7532 0.0
H523 H 0.59823 0.28105 0.72642 0.0
O524 O 0.65308 0.25213 0.75041 0.0
O525 O 0.64826 0.28706 0.76526 0.0
O526 O 0.65539 0.2876 0.72887 0.0
O527 O 0.61459 0.25354 0.74383 0.0
H528 H 0.65789 0.24011 0.77982 0.0
H529 H 0.68369 0.25785 0.73136 0.0
H530 H 0.68676 0.23551 0.78778 0.0
H531 H 0.71218 0.25306 0.74019 0.0
H532 H 0.61427 0.3067 0.79981 0.0
H533 H 0.67653 0.30416 0.78819 0.0
H534 H 0.61661 0.29065 0.77403 0.0
H535 H 0.67324 0.32019 0.81367 0.0
H536 H 0.72861 0.30839 0.78251 0.0
H537 H 0.73281 0.34187 0.73821 0.0
H538 H 0.59221 0.19028 0.78866 0.0
H539 H 0.62136 0.24074 0.82252 0.0
H540 H 0.63573 0.29716 0.70706 0.0
H541 H 0.68261 0.28191 0.71325 0.0
H542 H 0.64172 0.2994 0.67691 0.0
H543 H 0.68771 0.28428 0.68298 0.0
H544 H 0.58597 0.23788 0.72108 0.0
H545 H 0.59799 0.25564 0.77196 0.0
H546 H 0.54991 0.22766 0.72562 0.0
H547 H 0.56181 0.24529 0.77559 0.0
H548 H 0.64139 0.20491 0.6972 0.0
H549 H 0.60759 0.23206 0.67775 0.0
H550 H 0.63984 0.35092 0.74711 0.0
H551 H 0.58784 0.30609 0.71992 0.0
Li552 Li 0.39577 0.6361 0.92515 0.0
Li553 Li 0.40231 0.66816 0.91315 0.0
Li554 Li 0.37038 0.63556 0.90724 0.0
Li555 Li 0.40255 0.64227 0.89485 0.0
C556 C 0.3765 0.64869 0.94487 0.0
N557 N 0.36983 0.64524 0.97844 0.0
C558 C 0.3872 0.66556 0.95505 0.0
C559 C 0.36223 0.63013 0.95173 0.0
C560 C 0.38365 0.66349 0.97201 0.0
C561 C 0.35914 0.62867 0.96874 0.0
C562 C 0.44098 0.67047 0.91261 0.0
C563 C 0.47024 0.69317 0.89648 0.0
N564 N 0.48201 0.69786 0.91018 0.0
C565 C 0.45342 0.67529 0.92647 0.0
C566 C 0.4495 0.67929 0.89745 0.0
C567 C 0.4741 0.68926 0.92501 0.0
C568 C 0.39467 0.60466 0.94465 0.0
N569 N 0.40103 0.62479 0.94405 0.0
C570 C 0.41674 0.62995 0.97041 0.0
C571 C 0.41185 0.63743 0.95655 0.0
C572 C 0.41068 0.60926 0.97133 0.0
C573 C 0.39935 0.59652 0.95825 0.0
H574 H 0.38629 0.59499 0.93443 0.0
H575 H 0.41684 0.65341 0.95569 0.0
C576 C 0.40139 0.70418 0.91116 0.0
N577 N 0.41247 0.69614 0.9172 0.0
C578 C 0.40682 0.72417 0.91473 0.0
C579 C 0.43493 0.72724 0.9308 0.0
C580 C 0.429 0.70719 0.92684 0.0
C581 C 0.42367 0.7359 0.92483 0.0
H582 H 0.38801 0.69487 0.90387 0.0
H583 H 0.43719 0.70029 0.93189 0.0
C584 C 0.36608 0.59932 0.90144 0.0
N585 N 0.33331 0.56328 0.89104 0.0
C586 C 0.36493 0.59301 0.88513 0.0
C587 C 0.35068 0.5872 0.91251 0.0
C588 C 0.34821 0.57475 0.8801 0.0
C589 C 0.3342 0.56907 0.90699 0.0
C590 C 0.3915 0.66895 0.87792 0.0
C591 C 0.37636 0.66303 0.86598 0.0
C592 C 0.41007 0.68674 0.87565 0.0
C593 C 0.38019 0.67484 0.85183 0.0
C594 C 0.41331 0.69814 0.86135 0.0
N595 N 0.39844 0.69199 0.84983 0.0
C596 C 0.33064 0.62697 0.91433 0.0
C597 C 0.33467 0.61582 0.8881 0.0
C598 C 0.31039 0.62068 0.9109 0.0
N599 N 0.34231 0.62455 0.90293 0.0
C600 C 0.31447 0.6092 0.88418 0.0
C601 C 0.30213 0.61184 0.89559 0.0
H602 H 0.33718 0.63425 0.92593 0.0
H603 H 0.3444 0.61451 0.87911 0.0
C604 C 0.42574 0.62779 0.88003 0.0
N605 N 0.41482 0.63699 0.87654 0.0
C606 C 0.43445 0.62233 0.86737 0.0
C607 C 0.42085 0.63626 0.84775 0.0
C608 C 0.41221 0.64126 0.86078 0.0
C609 C 0.43199 0.62652 0.85097 0.0
H610 H 0.42744 0.62448 0.89269 0.0
H611 H 0.40317 0.64817 0.85821 0.0
O612 O 0.37995 0.65035 0.92827 0.0
O613 O 0.42072 0.65667 0.91383 0.0
O614 O 0.38223 0.61723 0.90656 0.0
O615 O 0.38795 0.65753 0.89185 0.0
H616 H 0.39822 0.68005 0.94995 0.0
H617 H 0.35373 0.61698 0.944 0.0
H618 H 0.39191 0.67639 0.98005 0.0
H619 H 0.34824 0.61437 0.97422 0.0
H620 H 0.477 0.70015 0.88483 0.0
H621 H 0.44718 0.66843 0.93826 0.0
H622 H 0.44028 0.67535 0.88649 0.0
H623 H 0.48387 0.69325 0.93568 0.0
H624 H 0.42521 0.6403 0.98028 0.0
H625 H 0.39461 0.58054 0.9583 0.0
H626 H 0.3975 0.73013 0.91012 0.0
H627 H 0.44804 0.73578 0.9386 0.0
H628 H 0.37673 0.60218 0.87641 0.0
H629 H 0.35141 0.5918 0.9252 0.0
H630 H 0.34707 0.56973 0.86749 0.0
H631 H 0.32211 0.5596 0.9154 0.0
H632 H 0.36184 0.64943 0.86757 0.0
H633 H 0.42178 0.69186 0.88491 0.0
H634 H 0.36865 0.67037 0.84246 0.0
H635 H 0.42762 0.71192 0.85945 0.0
H636 H 0.30134 0.62286 0.92008 0.0
H637 H 0.3088 0.60275 0.87214 0.0
H638 H 0.44304 0.61494 0.87036 0.0
H639 H 0.41836 0.63948 0.83525 0.0
Li640 Li 0.75138 0.40055 0.08247 0.0
Li641 Li 0.7779 0.396 0.09462 0.0
Li642 Li 0.778 0.40221 0.06467 0.0
Li643 Li 0.75317 0.36988 0.07656 0.0
C644 C 0.78515 0.43558 0.09467 0.0
N645 N 0.79384 0.46536 0.11787 0.0
C646 C 0.77368 0.43099 0.10909 0.0
C647 C 0.80103 0.45533 0.09204 0.0
C648 C 0.7783 0.44624 0.12067 0.0
C649 C 0.80519 0.47017 0.10391 0.0
C650 C 0.74327 0.36967 0.11281 0.0
C651 C 0.74426 0.34622 0.13222 0.0
N652 N 0.73407 0.35115 0.14333 0.0
C653 C 0.73271 0.37442 0.12439 0.0
C654 C 0.74902 0.3554 0.11673 0.0
C655 C 0.72824 0.36492 0.13976 0.0
C656 C 0.71388 0.3954 0.0911 0.0
N657 N 0.73266 0.40967 0.08603 0.0
C658 C 0.7235 0.43538 0.08736 0.0
C659 C 0.73766 0.42934 0.08393 0.0
C660 C 0.70405 0.42103 0.09297 0.0
C661 C 0.69929 0.40076 0.09471 0.0
H662 H 0.71035 0.37986 0.09257 0.0
H663 H 0.75268 0.44035 0.07972 0.0
C664 C 0.81505 0.40735 0.10974 0.0
N665 N 0.79551 0.402 0.11311 0.0
C666 C 0.82917 0.41282 0.12247 0.0
C667 C 0.80278 0.40696 0.14191 0.0
C668 C 0.78927 0.40194 0.12881 0.0
C669 C 0.82303 0.41258 0.13879 0.0
H670 H 0.81968 0.40755 0.09712 0.0
H671 H 0.77394 0.3984 0.13123 0.0
C672 C 0.74289 0.39619 0.04909 0.0
N673 N 0.73167 0.41474 0.02544 0.0
C674 C 0.7268 0.38451 0.03845 0.0
C675 C 0.7533 0.41731 0.0477 0.0
C676 C 0.72135 0.39417 0.02657 0.0
C677 C 0.74739 0.4264 0.03566 0.0
C678 C 0.78806 0.36766 0.07393 0.0
C679 C 0.79032 0.36208 0.05803 0.0
C680 C 0.79131 0.35835 0.08749 0.0
C681 C 0.79518 0.3468 0.05594 0.0
C682 C 0.79618 0.34316 0.0849 0.0
N683 N 0.79796 0.33772 0.06931 0.0
C684 C 0.81207 0.4319 0.04712 0.0
C685 C 0.78836 0.40376 0.03137 0.0
C686 C 0.82464 0.44012 0.03339 0.0
N687 N 0.79441 0.41401 0.04585 0.0
C688 C 0.80048 0.41136 0.01737 0.0
C689 C 0.81898 0.4297 0.01831 0.0
H690 H 0.81654 0.4396 0.05885 0.0
H691 H 0.77421 0.38953 0.03077 0.0
C692 C 0.72206 0.32908 0.08189 0.0
N693 N 0.73682 0.34187 0.07137 0.0
C694 C 0.70878 0.30903 0.07735 0.0
C695 C 0.72583 0.31573 0.05108 0.0
C696 C 0.73879 0.33566 0.05614 0.0
C697 C 0.71047 0.30216 0.06171 0.0
H698 H 0.72002 0.33456 0.09356 0.0
H699 H 0.75005 0.34635 0.04773 0.0
O700 O 0.78099 0.42089 0.08316 0.0
O701 O 0.748 0.37905 0.09779 0.0
O702 O 0.74834 0.38688 0.06077 0.0
O703 O 0.78336 0.38262 0.07621 0.0
H704 H 0.7613 0.41584 0.11132 0.0
H705 H 0.81004 0.45915 0.08093 0.0
H706 H 0.76954 0.44287 0.13188 0.0
H707 H 0.81744 0.48552 0.10204 0.0
H708 H 0.74863 0.33515 0.1354 0.0
H709 H 0.72816 0.38547 0.12161 0.0
H710 H 0.75688 0.3513 0.10783 0.0
H711 H 0.72016 0.36853 0.14886 0.0
H712 H 0.72772 0.4511 0.08561 0.0
H713 H 0.6846 0.38923 0.09918 0.0
H714 H 0.84469 0.41709 0.1196 0.0
H715 H 0.79759 0.40697 0.15432 0.0
H716 H 0.71862 0.36813 0.03938 0.0
H717 H 0.76582 0.42662 0.05579 0.0
H718 H 0.70892 0.38531 0.01825 0.0
H719 H 0.7553 0.44273 0.03445 0.0
H720 H 0.78821 0.36937 0.0474 0.0
H721 H 0.79028 0.36292 0.09988 0.0
H722 H 0.79678 0.3422 0.0437 0.0
H723 H 0.79864 0.33576 0.09528 0.0
H724 H 0.83888 0.45419 0.03468 0.0
H725 H 0.79544 0.40296 0.00595 0.0
H726 H 0.69683 0.29926 0.08576 0.0
H727 H 0.72766 0.31108 0.0389 0.0
Li728 Li 0.40049 0.77828 0.26265 0.0
Li729 Li 0.3684 0.75292 0.24979 0.0
Li730 Li 0.40062 0.7527 0.24387 0.0
Li731 Li 0.39407 0.77842 0.23232 0.0
C732 C 0.38858 0.73976 0.27888 0.0
N733 N 0.39366 0.7221 0.30683 0.0
C734 C 0.37268 0.72991 0.29012 0.0
C735 C 0.40697 0.7404 0.28177 0.0
C736 C 0.37558 0.72115 0.30421 0.0
C737 C 0.40927 0.73144 0.29599 0.0
C738 C 0.3641 0.78509 0.25594 0.0
C739 C 0.33239 0.78366 0.25007 0.0
N740 N 0.33159 0.78905 0.2659 0.0
C741 C 0.36305 0.79076 0.27211 0.0
C742 C 0.34875 0.78166 0.24478 0.0
C743 C 0.34645 0.79264 0.27692 0.0
C744 C 0.42503 0.81505 0.27886 0.0
N745 N 0.41224 0.79496 0.28151 0.0
C746 C 0.41527 0.80002 0.31062 0.0
C747 C 0.40724 0.7873 0.297 0.0
C748 C 0.42832 0.82093 0.30832 0.0
C749 C 0.43327 0.82838 0.29214 0.0
H750 H 0.42854 0.82075 0.26639 0.0
H751 H 0.39675 0.7714 0.29886 0.0
C752 C 0.32957 0.72027 0.24286 0.0
N753 N 0.34034 0.73538 0.25381 0.0
C754 C 0.3095 0.70567 0.24621 0.0
C755 C 0.31182 0.72277 0.27186 0.0
C756 C 0.3319 0.73691 0.26808 0.0
C757 C 0.30042 0.70663 0.261 0.0
H758 H 0.33678 0.71914 0.23177 0.0
H759 H 0.34094 0.74874 0.27679 0.0
C760 C 0.43914 0.78879 0.24489 0.0
N761 N 0.47999 0.8016 0.24723 0.0
C762 C 0.45165 0.79654 0.23107 0.0
C763 C 0.4475 0.78791 0.25996 0.0
C764 C 0.47224 0.80283 0.23248 0.0
C765 C 0.46816 0.79437 0.26088 0.0
C766 C 0.37491 0.74678 0.21213 0.0
C767 C 0.38609 0.74143 0.20173 0.0
C768 C 0.36006 0.75036 0.2055 0.0
C769 C 0.38245 0.74008 0.18479 0.0
C770 C 0.35689 0.74889 0.1885 0.0
N771 N 0.36807 0.74384 0.17858 0.0
C772 C 0.39942 0.71567 0.24553 0.0
C773 C 0.42747 0.74035 0.23029 0.0
C774 C 0.40476 0.70105 0.242 0.0
N775 N 0.41077 0.73487 0.23971 0.0
C776 C 0.43333 0.72617 0.22638 0.0
C777 C 0.42181 0.70617 0.23217 0.0
H778 H 0.3859 0.71159 0.25263 0.0
H779 H 0.43589 0.75552 0.22539 0.0
C780 C 0.3926 0.80902 0.2136 0.0
N781 N 0.39916 0.79539 0.21367 0.0
C782 C 0.3966 0.82184 0.2001 0.0
C783 C 0.41381 0.80618 0.18698 0.0
C784 C 0.40971 0.79386 0.2008 0.0
C785 C 0.40731 0.82046 0.18656 0.0
H786 H 0.38442 0.81006 0.22407 0.0
H787 H 0.41506 0.78314 0.20131 0.0
O788 O 0.38594 0.7484 0.26502 0.0
O789 O 0.38018 0.78308 0.25103 0.0
O790 O 0.41897 0.7827 0.24371 0.0
O791 O 0.37844 0.74844 0.22871 0.0
H792 H 0.35829 0.72913 0.28804 0.0
H793 H 0.41926 0.74748 0.27303 0.0
H794 H 0.36344 0.71358 0.31305 0.0
H795 H 0.42343 0.73183 0.29836 0.0
H796 H 0.32035 0.78094 0.24159 0.0
H797 H 0.37484 0.79356 0.28089 0.0
H798 H 0.34943 0.77743 0.2322 0.0
H799 H 0.34538 0.79691 0.28941 0.0
H800 H 0.41121 0.7935 0.32283 0.0
H801 H 0.44297 0.84439 0.28971 0.0
H802 H 0.30148 0.69333 0.23759 0.0
H803 H 0.30544 0.72431 0.28331 0.0
H804 H 0.4455 0.79757 0.21934 0.0
H805 H 0.43821 0.7825 0.27089 0.0
H806 H 0.48205 0.80871 0.22185 0.0
H807 H 0.4748 0.7937 0.27247 0.0
H808 H 0.39757 0.73852 0.20666 0.0
H809 H 0.35115 0.75432 0.2134 0.0
H810 H 0.39108 0.73609 0.17658 0.0
H811 H 0.34554 0.75175 0.18319 0.0
H812 H 0.39524 0.68572 0.24645 0.0
H813 H 0.4466 0.73075 0.21878 0.0
H814 H 0.39128 0.83263 0.2002 0.0
H815 H 0.42237 0.80486 0.17688 0.0
C816 C 0.12614 0.56861 0.28766 0.0
C817 C 0.12169 0.56604 0.30457 0.0
C818 C 0.14562 0.58265 0.28222 0.0
C819 C 0.19891 0.61147 0.2951 0.0
H820 H 0.20366 0.65032 0.26203 0.0
C821 C 0.27497 0.68349 0.28181 0.0
C822 C 0.27963 0.69032 0.26546 0.0
C823 C 0.25571 0.66773 0.28599 0.0
C824 C 0.20264 0.63941 0.27107 0.0
H825 H 0.13417 0.57548 0.32905 0.0
H826 H 0.16829 0.59988 0.31955 0.0
H827 H 0.17019 0.62307 0.27014 0.0
H828 H 0.26744 0.68602 0.24071 0.0
H829 H 0.23405 0.65805 0.2479 0.0
H830 H 0.23128 0.62757 0.296 0.0
C831 C 0.15672 0.59112 0.31052 0.0
C832 C 0.18346 0.62383 0.27573 0.0
C833 C 0.1372 0.57728 0.31594 0.0
C834 C 0.26447 0.68102 0.25339 0.0
C835 C 0.24523 0.66512 0.25756 0.0
C836 C 0.2181 0.62692 0.29034 0.0
C837 C 0.16105 0.59416 0.2936 0.0
C838 C 0.18141 0.60985 0.28792 0.0
C839 C 0.24063 0.65823 0.27391 0.0
C840 C 0.22021 0.64125 0.27841 0.0
H841 H 0.1144 0.56023 0.27864 0.0
H842 H 0.1486 0.58461 0.26911 0.0
H843 H 0.19776 0.60074 0.30439 0.0
H844 H 0.28632 0.69004 0.29141 0.0
H845 H 0.25264 0.66308 0.29876 0.0
C846 C 0.55041 0.12374 0.46353 0.0
C847 C 0.56532 0.11919 0.46861 0.0
C848 C 0.55582 0.14312 0.45797 0.0
C849 C 0.59873 0.19068 0.44195 0.0
H850 H 0.56636 0.21385 0.45697 0.0
C851 C 0.62317 0.27517 0.43306 0.0
C852 C 0.60806 0.27973 0.42862 0.0
C853 C 0.61807 0.25541 0.43732 0.0
C854 C 0.57541 0.20752 0.4525 0.0
H855 H 0.59762 0.13133 0.47163 0.0
H856 H 0.60713 0.16534 0.46199 0.0
H857 H 0.55743 0.17975 0.4655 0.0
H858 H 0.57577 0.26698 0.42479 0.0
H859 H 0.56685 0.23249 0.43227 0.0
H860 H 0.6168 0.21859 0.42904 0.0
C861 C 0.59124 0.15381 0.46214 0.0
C862 C 0.57029 0.18796 0.45739 0.0
C863 C 0.58582 0.13435 0.46768 0.0
C864 C 0.58774 0.26403 0.4284 0.0
C865 C 0.58263 0.24428 0.43268 0.0
C866 C 0.60388 0.21028 0.43707 0.0
C867 C 0.57628 0.15846 0.45738 0.0
C868 C 0.58186 0.17929 0.45215 0.0
C869 C 0.59774 0.23977 0.43727 0.0
C870 C 0.59225 0.2189 0.44228 0.0
H871 H 0.53451 0.11225 0.46379 0.0
H872 H 0.54395 0.14608 0.45407 0.0
H873 H 0.6078 0.18434 0.43753 0.0
H874 H 0.63894 0.28697 0.43361 0.0
H875 H 0.63003 0.25249 0.44103 0.0
C876 C 0.46326 0.57894 0.63281 0.0
C877 C 0.45761 0.56091 0.64143 0.0
C878 C 0.44866 0.58399 0.62819 0.0
C879 C 0.39335 0.56075 0.62139 0.0
H880 H 0.40529 0.61655 0.62198 0.0
C881 C 0.33246 0.58376 0.61083 0.0
C882 C 0.33783 0.60033 0.60031 0.0
C883 C 0.34698 0.5788 0.61586 0.0
C884 C 0.40181 0.60091 0.62163 0.0
H885 H 0.43244 0.53443 0.65256 0.0
H886 H 0.40701 0.54339 0.64482 0.0
H887 H 0.43088 0.60848 0.63126 0.0
H888 H 0.36264 0.62478 0.58692 0.0
H889 H 0.38798 0.61606 0.59566 0.0
H890 H 0.36417 0.55322 0.61194 0.0
C891 C 0.4226 0.55338 0.6412 0.0
C892 C 0.41647 0.59628 0.62691 0.0
C893 C 0.43717 0.54828 0.6457 0.0
C894 C 0.358 0.61179 0.59488 0.0
C895 C 0.37255 0.60694 0.60003 0.0
C896 C 0.37864 0.56537 0.61623 0.0
C897 C 0.42812 0.57118 0.63222 0.0
C898 C 0.41245 0.57614 0.62682 0.0
C899 C 0.36721 0.59044 0.61061 0.0
C900 C 0.38274 0.5855 0.61624 0.0
H901 H 0.47889 0.58886 0.62921 0.0
H902 H 0.45342 0.59768 0.62109 0.0
H903 H 0.38984 0.54512 0.62086 0.0
H904 H 0.317 0.57461 0.61514 0.0
H905 H 0.34247 0.56608 0.62411 0.0
C906 C 0.8979 0.45483 0.81682 0.0
C907 C 0.91314 0.46609 0.80526 0.0
C908 C 0.87842 0.44055 0.81166 0.0
C909 C 0.8439 0.42345 0.77554 0.0
H910 H 0.81692 0.373 0.8 0.0
C911 C 0.76986 0.35267 0.75357 0.0
C912 C 0.75466 0.34306 0.76557 0.0
C913 C 0.78933 0.36791 0.75801 0.0
C914 C 0.82421 0.38706 0.79312 0.0
H915 H 0.91994 0.47154 0.77924 0.0
H916 H 0.88597 0.4463 0.77015 0.0
H917 H 0.85046 0.39953 0.80848 0.0
H918 H 0.74802 0.34233 0.79165 0.0
H919 H 0.78203 0.36851 0.79937 0.0
H920 H 0.81761 0.41068 0.76003 0.0
C921 C 0.88893 0.44874 0.78322 0.0
C922 C 0.8434 0.40232 0.79801 0.0
C923 C 0.9084 0.46318 0.78841 0.0
C924 C 0.75944 0.34902 0.78211 0.0
C925 C 0.77891 0.36411 0.78655 0.0
C926 C 0.82473 0.40809 0.77057 0.0
C927 C 0.87379 0.43703 0.79479 0.0
C928 C 0.85343 0.42078 0.78937 0.0
C929 C 0.79404 0.37374 0.77455 0.0
C930 C 0.81465 0.38981 0.7794 0.0
H931 H 0.90109 0.457 0.82989 0.0
H932 H 0.86702 0.43218 0.82091 0.0
H933 H 0.85108 0.43755 0.76871 0.0
H934 H 0.76679 0.3483 0.74075 0.0
H935 H 0.80079 0.37495 0.74853 0.0
C936 C 0.46203 0.89893 0.98373 0.0
C937 C 0.46314 0.91366 0.97269 0.0
C938 C 0.45661 0.87952 0.97821 0.0
C939 C 0.4555 0.85192 0.94062 0.0
H940 H 0.42213 0.80446 0.9673 0.0
C941 C 0.42787 0.77001 0.91828 0.0
C942 C 0.42875 0.75667 0.92976 0.0
C943 C 0.43171 0.7892 0.92316 0.0
C944 C 0.43162 0.8176 0.95979 0.0
H945 H 0.45905 0.91941 0.94723 0.0
H946 H 0.44913 0.88534 0.93765 0.0
H947 H 0.42853 0.83763 0.97644 0.0
H948 H 0.43436 0.75301 0.95536 0.0
H949 H 0.44134 0.78661 0.96382 0.0
H950 H 0.45858 0.83183 0.92398 0.0
C951 C 0.45275 0.88892 0.95054 0.0
C952 C 0.43528 0.8366 0.96501 0.0
C953 C 0.45819 0.90837 0.95607 0.0
C954 C 0.43378 0.76302 0.94618 0.0
C955 C 0.43752 0.78216 0.95107 0.0
C956 C 0.45178 0.83289 0.93537 0.0
C957 C 0.45212 0.87434 0.96152 0.0
C958 C 0.4474 0.85401 0.95556 0.0
C959 C 0.4364 0.79541 0.93964 0.0
C960 C 0.43994 0.81556 0.94497 0.0
H961 H 0.4655 0.90246 0.99665 0.0
H962 H 0.45645 0.86873 0.98697 0.0
H963 H 0.46515 0.86506 0.93317 0.0
H964 H 0.42418 0.7656 0.90551 0.0
H965 H 0.43062 0.79903 0.91409 0.0
C966 C 0.56596 0.45182 0.13234 0.0
C967 C 0.57256 0.47067 0.13992 0.0
C968 C 0.57998 0.44617 0.12725 0.0
C969 C 0.63419 0.46832 0.11658 0.0
H970 H 0.62311 0.41307 0.1214 0.0
C971 C 0.69494 0.44538 0.10585 0.0
C972 C 0.68893 0.42714 0.09739 0.0
C973 C 0.68061 0.45069 0.11066 0.0
C974 C 0.62632 0.42851 0.11981 0.0
H975 H 0.59888 0.49802 0.14876 0.0
H976 H 0.6233 0.4881 0.14009 0.0
H977 H 0.59829 0.42205 0.13102 0.0
H978 H 0.66319 0.40048 0.08693 0.0
H979 H 0.63818 0.40972 0.09545 0.0
H980 H 0.66229 0.4748 0.1055 0.0
C981 C 0.60737 0.47787 0.13768 0.0
C982 C 0.61209 0.43366 0.12532 0.0
C983 C 0.59339 0.48354 0.14269 0.0
C984 C 0.66829 0.41447 0.09367 0.0
C985 C 0.65395 0.41975 0.09854 0.0
C986 C 0.64843 0.46318 0.11114 0.0
C987 C 0.60087 0.45923 0.12972 0.0
C988 C 0.61589 0.45364 0.1238 0.0
C989 C 0.65994 0.43786 0.10717 0.0
C990 C 0.64467 0.44324 0.11272 0.0
H991 H 0.55002 0.44168 0.1299 0.0
H992 H 0.57447 0.43181 0.121 0.0
H993 H 0.63743 0.48376 0.11493 0.0
H994 H 0.71066 0.45533 0.10914 0.0
H995 H 0.68566 0.46463 0.11747 0.0
C996 C 0.46052 0.89824 0.51391 0.0
C997 C 0.46483 0.9149 0.52402 0.0
C998 C 0.44682 0.8785 0.51906 0.0
C999 C 0.4036 0.85034 0.54692 0.0
H1000 H 0.41448 0.80628 0.54032 0.0
C1001 C 0.35107 0.77011 0.57296 0.0
C1002 C 0.34748 0.75363 0.56293 0.0
C1003 C 0.36578 0.78984 0.56859 0.0
C1004 C 0.4111 0.81837 0.54209 0.0
H1005 H 0.45875 0.92378 0.54777 0.0
H1006 H 0.43474 0.88941 0.55666 0.0
H1007 H 0.43961 0.84055 0.53189 0.0
H1008 H 0.35613 0.74492 0.54027 0.0
H1009 H 0.38157 0.77928 0.53254 0.0
H1010 H 0.37499 0.8282 0.55689 0.0
C1011 C 0.44171 0.89164 0.54465 0.0
C1012 C 0.42552 0.838 0.53727 0.0
C1013 C 0.45545 0.91133 0.53953 0.0
C1014 C 0.3588 0.75729 0.5484 0.0
C1015 C 0.37341 0.77698 0.54399 0.0
C1016 C 0.38913 0.83071 0.55166 0.0
C1017 C 0.43711 0.87503 0.53442 0.0
C1018 C 0.42192 0.85419 0.53964 0.0
C1019 C 0.37713 0.79351 0.55405 0.0
C1020 C 0.39268 0.81447 0.54927 0.0
H1021 H 0.4673 0.90047 0.50181 0.0
H1022 H 0.44342 0.866 0.51085 0.0
H1023 H 0.40026 0.86247 0.54868 0.0
H1024 H 0.34273 0.76773 0.58432 0.0
H1025 H 0.36845 0.80218 0.57674 0.0
C1026 C 0.57907 0.46898 0.70168 0.0
C1027 C 0.57326 0.46862 0.6852 0.0
C1028 C 0.58489 0.45527 0.70723 0.0
C1029 C 0.60163 0.41982 0.69278 0.0
H1030 H 0.57985 0.39301 0.73454 0.0
C1031 C 0.60261 0.34758 0.71189 0.0
C1032 C 0.60816 0.34648 0.72819 0.0
C1033 C 0.59907 0.36312 0.70704 0.0
C1034 C 0.58624 0.40053 0.72295 0.0
H1035 H 0.56981 0.45416 0.66149 0.0
H1036 H 0.57955 0.43002 0.67123 0.0
H1037 H 0.57324 0.41963 0.72532 0.0
H1038 H 0.6139 0.36056 0.75228 0.0
H1039 H 0.60781 0.38781 0.74377 0.0
H1040 H 0.61438 0.4005 0.69031 0.0
C1041 C 0.57977 0.44097 0.67985 0.0
C1042 C 0.5825 0.41582 0.71768 0.0
C1043 C 0.57396 0.45466 0.67431 0.0
C1044 C 0.60979 0.3611 0.7396 0.0
C1045 C 0.60616 0.3766 0.73476 0.0
C1046 C 0.60532 0.4045 0.69803 0.0
C1047 C 0.58506 0.44094 0.69642 0.0
C1048 C 0.59001 0.42552 0.70246 0.0
C1049 C 0.60093 0.37787 0.7184 0.0
C1050 C 0.59751 0.39457 0.7131 0.0
H1051 H 0.57855 0.47946 0.7104 0.0
H1052 H 0.58912 0.45581 0.72003 0.0
H1053 H 0.60793 0.42722 0.68113 0.0
H1054 H 0.60145 0.33668 0.70277 0.0
H1055 H 0.59482 0.36354 0.69439 0.0
C1056 C 0.1285 0.55182 0.84864 0.0
C1057 C 0.12095 0.56503 0.85138 0.0
C1058 C 0.14823 0.55732 0.85324 0.0
C1059 C 0.19797 0.60126 0.86435 0.0
H1060 H 0.2065 0.55994 0.88447 0.0
C1061 C 0.27367 0.61938 0.89492 0.0
C1062 C 0.28106 0.60623 0.89123 0.0
C1063 C 0.25411 0.61452 0.89023 0.0
C1064 C 0.20439 0.57159 0.87874 0.0
H1065 H 0.12822 0.5945 0.86085 0.0
H1066 H 0.16274 0.60409 0.86909 0.0
H1067 H 0.17258 0.55147 0.87571 0.0
H1068 H 0.27364 0.57752 0.88 0.0
H1069 H 0.23948 0.56906 0.87174 0.0
H1070 H 0.22982 0.6214 0.86753 0.0
C1071 C 0.15346 0.58956 0.86318 0.0
C1072 C 0.18497 0.56674 0.87368 0.0
C1073 C 0.13371 0.58408 0.85848 0.0
C1074 C 0.2684 0.58801 0.88292 0.0
C1075 C 0.2488 0.58309 0.87832 0.0
C1076 C 0.2174 0.60612 0.86948 0.0
C1077 C 0.16087 0.57613 0.86077 0.0
C1078 C 0.18153 0.58148 0.86634 0.0
C1079 C 0.24149 0.59636 0.88184 0.0
C1080 C 0.22082 0.59131 0.87666 0.0
H1081 H 0.11913 0.53719 0.8429 0.0
H1082 H 0.1536 0.54681 0.85086 0.0
H1083 H 0.1959 0.61289 0.85855 0.0
H1084 H 0.28315 0.63364 0.90115 0.0
H1085 H 0.24883 0.62495 0.89325 0.0
C1086 C 0.57893 0.13694 0.00853 0.0
C1087 C 0.57287 0.12107 0.01994 0.0
C1088 C 0.59374 0.15671 0.01272 0.0
C1089 C 0.63615 0.18464 0.04165 0.0
H1090 H 0.63135 0.23111 0.02892 0.0
C1091 C 0.68901 0.26485 0.06721 0.0
C1092 C 0.69564 0.28126 0.05628 0.0
C1093 C 0.67435 0.24535 0.06235 0.0
C1094 C 0.63303 0.2183 0.03239 0.0
H1095 H 0.57693 0.11362 0.04489 0.0
H1096 H 0.60266 0.14804 0.05221 0.0
H1097 H 0.60471 0.19708 0.02134 0.0
H1098 H 0.69205 0.29003 0.03165 0.0
H1099 H 0.66676 0.25591 0.02307 0.0
H1100 H 0.66442 0.20581 0.05274 0.0
C1101 C 0.59632 0.14517 0.03991 0.0
C1102 C 0.61776 0.19881 0.02806 0.0
C1103 C 0.58155 0.12546 0.03573 0.0
C1104 C 0.68745 0.27768 0.04031 0.0
C1105 C 0.67276 0.25818 0.03546 0.0
C1106 C 0.6514 0.2041 0.04598 0.0
C1107 C 0.60277 0.16098 0.0284 0.0
C1108 C 0.6191 0.18175 0.03272 0.0
C1109 C 0.66596 0.24181 0.04646 0.0
C1110 C 0.64998 0.22115 0.04147 0.0
H1111 H 0.57266 0.13399 0.99621 0.0
H1112 H 0.59851 0.16853 0.00353 0.0
H1113 H 0.63782 0.17184 0.04517 0.0
H1114 H 0.69514 0.26708 0.07955 0.0
H1115 H 0.66931 0.2331 0.07117 0.0
C1116 C 0.46102 0.58168 0.17423 0.0
C1117 C 0.46165 0.5678 0.18527 0.0
C1118 C 0.45543 0.59559 0.17962 0.0
C1119 C 0.45309 0.62144 0.21717 0.0
H1120 H 0.421 0.63636 0.1897 0.0
C1121 C 0.42554 0.67601 0.23882 0.0
C1122 C 0.42689 0.69044 0.22734 0.0
C1123 C 0.42934 0.6606 0.23404 0.0
C1124 C 0.43014 0.63248 0.19744 0.0
H1125 H 0.45649 0.55739 0.21059 0.0
H1126 H 0.4463 0.58143 0.21995 0.0
H1127 H 0.42743 0.60956 0.18073 0.0
H1128 H 0.4333 0.70002 0.20185 0.0
H1129 H 0.44024 0.67333 0.19357 0.0
H1130 H 0.45582 0.64443 0.23385 0.0
C1131 C 0.45042 0.58172 0.20715 0.0
C1132 C 0.43381 0.61712 0.19231 0.0
C1133 C 0.45602 0.56779 0.20175 0.0
C1134 C 0.43235 0.68927 0.21103 0.0
C1135 C 0.43607 0.67382 0.20624 0.0
C1136 C 0.44938 0.63678 0.22232 0.0
C1137 C 0.45029 0.59594 0.19619 0.0
C1138 C 0.44547 0.61152 0.20205 0.0
C1139 C 0.43448 0.65924 0.21766 0.0
C1140 C 0.438 0.64259 0.21244 0.0
H1141 H 0.46502 0.58191 0.1614 0.0
H1142 H 0.45566 0.60643 0.17088 0.0
H1143 H 0.4624 0.61771 0.22485 0.0
H1144 H 0.42152 0.67661 0.25151 0.0
H1145 H 0.42788 0.64952 0.24311 0.0
C1146 C 0.89775 0.45986 0.34006 0.0
C1147 C 0.9138 0.47024 0.35121 0.0
C1148 C 0.87793 0.45438 0.34453 0.0
C1149 C 0.84521 0.44639 0.38065 0.0
H1150 H 0.81232 0.45585 0.34944 0.0
C1151 C 0.76987 0.44162 0.39924 0.0
C1152 C 0.7536 0.43196 0.38817 0.0
C1153 C 0.78935 0.44612 0.39463 0.0
C1154 C 0.82123 0.45291 0.35823 0.0
H1155 H 0.92157 0.48239 0.37597 0.0
H1156 H 0.88711 0.47311 0.38368 0.0
H1157 H 0.84623 0.46323 0.34157 0.0
H1158 H 0.74502 0.41925 0.36363 0.0
H1159 H 0.77898 0.42713 0.35559 0.0
H1160 H 0.82024 0.43612 0.39733 0.0
C1161 C 0.88978 0.46911 0.37151 0.0
C1162 C 0.84064 0.45711 0.35371 0.0
C1163 C 0.90956 0.47463 0.36703 0.0
C1164 C 0.75729 0.42704 0.37235 0.0
C1165 C 0.77675 0.43152 0.36775 0.0
C1166 C 0.8258 0.44218 0.38517 0.0
C1167 C 0.87376 0.45908 0.36028 0.0
C1168 C 0.85288 0.45397 0.36489 0.0
C1169 C 0.79299 0.44103 0.37885 0.0
C1170 C 0.81361 0.44546 0.37403 0.0
H1171 H 0.90056 0.45638 0.32775 0.0
H1172 H 0.86587 0.44646 0.33567 0.0
H1173 H 0.85416 0.44353 0.38946 0.0
H1174 H 0.76757 0.44583 0.41145 0.0
H1175 H 0.80161 0.45374 0.40339 0.0
C1176 C 0.10861 0.54518 0.39447 0.0
C1177 C 0.08796 0.53864 0.39679 0.0
C1178 C 0.12195 0.55171 0.40784 0.0
C1179 C 0.12733 0.57136 0.4502 0.0
H1180 H 0.16967 0.55743 0.45366 0.0
C1181 C 0.17691 0.58936 0.50826 0.0
C1182 C 0.1978 0.59735 0.50579 0.0
C1183 C 0.16341 0.58152 0.49505 0.0
C1184 C 0.15803 0.5616 0.45279 0.0
H1185 H 0.065 0.53321 0.41503 0.0
H1186 H 0.08821 0.54449 0.43834 0.0
H1187 H 0.14628 0.54494 0.43039 0.0
H1188 H 0.22084 0.60293 0.48758 0.0
H1189 H 0.19729 0.5895 0.46448 0.0
H1190 H 0.13907 0.58802 0.47256 0.0
C1191 C 0.0942 0.54498 0.42615 0.0
C1192 C 0.14464 0.55446 0.43945 0.0
C1193 C 0.08089 0.5385 0.41279 0.0
C1194 C 0.20485 0.59708 0.48986 0.0
C1195 C 0.19134 0.58918 0.47665 0.0
C1196 C 0.14068 0.57846 0.46353 0.0
C1197 C 0.11491 0.5518 0.42383 0.0
C1198 C 0.12913 0.55926 0.43801 0.0
C1199 C 0.17048 0.58144 0.47909 0.0
C1200 C 0.15619 0.57367 0.46498 0.0
H1201 H 0.11455 0.54568 0.38226 0.0
H1202 H 0.13786 0.55711 0.40559 0.0
H1203 H 0.11579 0.57565 0.44932 0.0
H1204 H 0.171 0.58951 0.52036 0.0
H1205 H 0.14739 0.57546 0.49736 0.0
C1206 C 0.55438 0.10132 0.56784 0.0
C1207 C 0.56637 0.09365 0.56148 0.0
C1208 C 0.5615 0.11536 0.5807 0.0
C1209 C 0.59926 0.13479 0.6144 0.0
H1210 H 0.58657 0.17813 0.61547 0.0
C1211 C 0.63196 0.19851 0.66343 0.0
C1212 C 0.61805 0.2032 0.67069 0.0
C1213 C 0.62645 0.18574 0.64972 0.0
C1214 C 0.59012 0.16603 0.61538 0.0
H1215 H 0.59533 0.09485 0.5637 0.0
H1216 H 0.60799 0.11982 0.58577 0.0
H1217 H 0.57573 0.15501 0.59207 0.0
H1218 H 0.58726 0.19778 0.66932 0.0
H1219 H 0.57783 0.17582 0.64529 0.0
H1220 H 0.61375 0.14596 0.6377 0.0
C1221 C 0.59293 0.11471 0.58099 0.0
C1222 C 0.58387 0.15274 0.602 0.0
C1223 C 0.58577 0.10058 0.56817 0.0
C1224 C 0.59852 0.19485 0.66387 0.0
C1225 C 0.59307 0.18222 0.65011 0.0
C1226 C 0.60563 0.14818 0.62773 0.0
C1227 C 0.58084 0.1222 0.58747 0.0
C1228 C 0.5882 0.13684 0.60141 0.0
C1229 C 0.60696 0.1775 0.6429 0.0
C1230 C 0.60096 0.16382 0.62843 0.0
H1231 H 0.53948 0.09652 0.56284 0.0
H1232 H 0.55167 0.12061 0.58551 0.0
H1233 H 0.6026 0.12255 0.61448 0.0
H1234 H 0.64722 0.20491 0.6682 0.0
H1235 H 0.63754 0.18253 0.6443 0.0
C1236 C 0.48273 0.55223 0.7401 0.0
C1237 C 0.49538 0.56579 0.72795 0.0
C1238 C 0.47654 0.55924 0.75354 0.0
C1239 C 0.46833 0.60043 0.76683 0.0
H1240 H 0.4722 0.58317 0.81092 0.0
C1241 C 0.45067 0.63355 0.82418 0.0
C1242 C 0.44045 0.62023 0.83725 0.0
C1243 C 0.45815 0.6274 0.81103 0.0
C1244 C 0.47075 0.58794 0.79869 0.0
H1245 H 0.51124 0.59721 0.72017 0.0
H1246 H 0.50024 0.60946 0.74364 0.0
H1247 H 0.48333 0.57122 0.78749 0.0
H1248 H 0.42984 0.59 0.84675 0.0
H1249 H 0.44244 0.57905 0.82367 0.0
H1250 H 0.45529 0.61673 0.77787 0.0
C1251 C 0.49519 0.59344 0.74277 0.0
C1252 C 0.4772 0.58113 0.78528 0.0
C1253 C 0.50159 0.58646 0.72943 0.0
C1254 C 0.43791 0.60067 0.83695 0.0
C1255 C 0.4452 0.59444 0.82373 0.0
C1256 C 0.46167 0.60707 0.78022 0.0
C1257 C 0.48269 0.57991 0.75499 0.0
C1258 C 0.47603 0.58729 0.76922 0.0
C1259 C 0.45538 0.6077 0.81057 0.0
C1260 C 0.46278 0.6009 0.79633 0.0
H1261 H 0.47784 0.53624 0.73932 0.0
H1262 H 0.46677 0.54846 0.76273 0.0
H1263 H 0.46705 0.60523 0.75455 0.0
H1264 H 0.45303 0.6488 0.8242 0.0
H1265 H 0.46623 0.63815 0.80129 0.0
C1266 C 0.93326 0.47415 0.9003 0.0
C1267 C 0.94332 0.49456 0.89533 0.0
C1268 C 0.91915 0.46755 0.91311 0.0
C1269 C 0.90466 0.48571 0.94968 0.0
H1270 H 0.85413 0.43474 0.94601 0.0
C1271 C 0.84253 0.45829 0.99979 0.0
C1272 C 0.83254 0.43756 0.00375 0.0
C1273 C 0.85548 0.46563 0.98618 0.0
C1274 C 0.86826 0.4489 0.94731 0.0
H1275 H 0.94653 0.52405 0.89993 0.0
H1276 H 0.92177 0.51248 0.9223 0.0
H1277 H 0.87779 0.44678 0.92296 0.0
H1278 H 0.82858 0.40834 0.99672 0.0
H1279 H 0.85128 0.42113 0.97314 0.0
H1280 H 0.89533 0.4877 0.97412 0.0
C1281 C 0.92488 0.50162 0.91631 0.0
C1282 C 0.88179 0.45581 0.93409 0.0
C1283 C 0.9389 0.5082 0.90341 0.0
C1284 C 0.83578 0.42434 0.99383 0.0
C1285 C 0.84878 0.43168 0.98028 0.0
C1286 C 0.89116 0.47875 0.96295 0.0
C1287 C 0.91486 0.48122 0.9213 0.0
C1288 C 0.90019 0.47423 0.93516 0.0
C1289 C 0.8588 0.45242 0.97628 0.0
C1290 C 0.87285 0.46019 0.96197 0.0
H1291 H 0.93621 0.46324 0.8942 0.0
H1292 H 0.91182 0.45178 0.91677 0.0
H1293 H 0.91883 0.49985 0.95095 0.0
H1294 H 0.84015 0.46881 0.0071 0.0
H1295 H 0.86271 0.48164 0.98332 0.0
C1296 C 0.45337 0.92389 0.06063 0.0
C1297 C 0.46537 0.94475 0.06379 0.0
C1298 C 0.44599 0.90999 0.07362 0.0
C1299 C 0.43355 0.90537 0.11759 0.0
H1300 H 0.44076 0.85849 0.11622 0.0
C1301 C 0.42011 0.85506 0.17459 0.0
C1302 C 0.41217 0.83418 0.17223 0.0
C1303 C 0.42554 0.86815 0.16111 0.0
C1304 C 0.43828 0.87129 0.11671 0.0
H1305 H 0.47872 0.96748 0.08295 0.0
H1306 H 0.46569 0.94319 0.10567 0.0
H1307 H 0.45193 0.88195 0.09304 0.0
H1308 H 0.40308 0.8105 0.15395 0.0
H1309 H 0.41205 0.83322 0.13037 0.0
H1310 H 0.41967 0.89468 0.1411 0.0
C1311 C 0.46205 0.9376 0.09316 0.0
C1312 C 0.44477 0.88477 0.10343 0.0
C1313 C 0.46964 0.95147 0.08018 0.0
C1314 C 0.40941 0.82658 0.15612 0.0
C1315 C 0.41463 0.83963 0.14262 0.0
C1316 C 0.42686 0.89179 0.13078 0.0
C1317 C 0.45023 0.91672 0.09001 0.0
C1318 C 0.44263 0.90203 0.10381 0.0
C1319 C 0.42295 0.86062 0.14494 0.0
C1320 C 0.42931 0.87466 0.13059 0.0
H1321 H 0.44996 0.9183 0.04811 0.0
H1322 H 0.43682 0.89398 0.07086 0.0
H1323 H 0.43148 0.91843 0.11809 0.0
H1324 H 0.42264 0.86137 0.18689 0.0
H1325 H 0.43222 0.88424 0.16341 0.0
C1326 C 0.53069 0.4489 0.23088 0.0
C1327 C 0.5384 0.46971 0.22823 0.0
C1328 C 0.53727 0.4422 0.24428 0.0
C1329 C 0.5789 0.45982 0.27485 0.0
H1330 H 0.54054 0.41143 0.29851 0.0
C1331 C 0.59855 0.43626 0.33652 0.0
C1332 C 0.59313 0.41578 0.33807 0.0
C1333 C 0.59151 0.4427 0.32327 0.0
C1334 C 0.55145 0.42488 0.29193 0.0
H1335 H 0.55875 0.4998 0.23768 0.0
H1336 H 0.56998 0.48816 0.26123 0.0
H1337 H 0.52903 0.42303 0.27507 0.0
H1338 H 0.57572 0.38593 0.32717 0.0
H1339 H 0.56339 0.3972 0.30398 0.0
H1340 H 0.60123 0.46178 0.2919 0.0
C1341 C 0.55922 0.47699 0.25276 0.0
C1342 C 0.54488 0.43151 0.27847 0.0
C1343 C 0.55277 0.48368 0.23929 0.0
C1344 C 0.58026 0.40183 0.32623 0.0
C1345 C 0.57308 0.40824 0.31304 0.0
C1346 C 0.58541 0.45328 0.28838 0.0
C1347 C 0.55158 0.45616 0.25542 0.0
C1348 C 0.55853 0.44906 0.26975 0.0
C1349 C 0.57878 0.42878 0.31135 0.0
C1350 C 0.57176 0.43574 0.29706 0.0
H1351 H 0.51978 0.4378 0.22244 0.0
H1352 H 0.53132 0.42607 0.24578 0.0
H1353 H 0.58992 0.47318 0.26826 0.0
H1354 H 0.6086 0.44739 0.34537 0.0
H1355 H 0.59601 0.45858 0.32236 0.0
C1356 C 0.50544 0.94884 0.41759 0.0
C1357 C 0.49434 0.94405 0.43237 0.0
C1358 C 0.4986 0.93528 0.40438 0.0
C1359 C 0.45257 0.89366 0.38644 0.0
H1360 H 0.48935 0.88117 0.36305 0.0
C1361 C 0.424 0.83158 0.33664 0.0
C1362 C 0.43624 0.8349 0.3227 0.0
C1363 C 0.4313 0.8447 0.3501 0.0
C1364 C 0.47893 0.8847 0.36928 0.0
H1365 H 0.46747 0.92093 0.44486 0.0
H1366 H 0.45533 0.89752 0.42162 0.0
H1367 H 0.50173 0.90451 0.38633 0.0
H1368 H 0.46593 0.85469 0.31217 0.0
H1369 H 0.47836 0.87803 0.33535 0.0
H1370 H 0.42986 0.87432 0.36925 0.0
C1371 C 0.46929 0.91185 0.4203 0.0
C1372 C 0.48603 0.89801 0.38266 0.0
C1373 C 0.47623 0.92531 0.43359 0.0
C1374 C 0.45598 0.85176 0.32259 0.0
C1375 C 0.46322 0.86501 0.33601 0.0
C1376 C 0.44552 0.88053 0.37296 0.0
C1377 C 0.4804 0.91671 0.40557 0.0
C1378 C 0.4729 0.90257 0.3914 0.0
C1379 C 0.45097 0.86166 0.34995 0.0
C1380 C 0.45858 0.8758 0.36423 0.0
H1381 H 0.51924 0.96326 0.41606 0.0
H1382 H 0.50734 0.93952 0.39309 0.0
H1383 H 0.44219 0.89714 0.39281 0.0
H1384 H 0.40862 0.81896 0.3371 0.0
H1385 H 0.42152 0.84144 0.36069 0.0
C1386 C 0.55324 0.47242 0.58825 0.0
C1387 C 0.56484 0.49239 0.59411 0.0
C1388 C 0.56008 0.46569 0.57505 0.0
C1389 C 0.60598 0.47588 0.55239 0.0
H1390 H 0.5681 0.44511 0.51763 0.0
C1391 C 0.6311 0.45403 0.4922 0.0
C1392 C 0.61804 0.43467 0.48567 0.0
C1393 C 0.62497 0.46142 0.50545 0.0
C1394 C 0.57882 0.45345 0.52733 0.0
H1395 H 0.59277 0.52095 0.59059 0.0
H1396 H 0.60482 0.50906 0.5677 0.0
H1397 H 0.55677 0.45713 0.54084 0.0
H1398 H 0.58817 0.40802 0.48793 0.0
H1399 H 0.57781 0.42058 0.51129 0.0
H1400 H 0.62799 0.47197 0.53901 0.0
C1401 C 0.59048 0.49861 0.57343 0.0
C1402 C 0.57232 0.46037 0.54061 0.0
C1403 C 0.58358 0.50539 0.58656 0.0
C1404 C 0.59875 0.42288 0.49277 0.0
C1405 C 0.59268 0.43022 0.50604 0.0
C1406 C 0.61247 0.46883 0.53915 0.0
C1407 C 0.57874 0.47872 0.56748 0.0
C1408 C 0.5858 0.4716 0.55331 0.0
C1409 C 0.60565 0.44962 0.5125 0.0
C1410 C 0.59894 0.45746 0.52648 0.0
H1411 H 0.53894 0.46188 0.59396 0.0
H1412 H 0.55085 0.45018 0.5709 0.0
H1413 H 0.61666 0.48432 0.56209 0.0
H1414 H 0.64613 0.46344 0.48715 0.0
H1415 H 0.63528 0.47651 0.51001 0.0
C1416 C 0.11005 0.57258 0.76652 0.0
C1417 C 0.08931 0.56488 0.76358 0.0
C1418 C 0.12394 0.57994 0.75352 0.0
C1419 C 0.12918 0.59718 0.7099 0.0
H1420 H 0.17546 0.58896 0.71024 0.0
C1421 C 0.17906 0.60862 0.6528 0.0
C1422 C 0.2002 0.61994 0.65509 0.0
C1423 C 0.1659 0.60277 0.66626 0.0
C1424 C 0.16269 0.5915 0.71007 0.0
H1425 H 0.06672 0.55837 0.74479 0.0
H1426 H 0.09075 0.57053 0.72201 0.0
H1427 H 0.15164 0.57661 0.73319 0.0
H1428 H 0.22391 0.63421 0.6735 0.0
H1429 H 0.20086 0.62337 0.69699 0.0
H1430 H 0.14001 0.61149 0.68647 0.0
C1431 C 0.09649 0.57156 0.73437 0.0
C1432 C 0.14905 0.58451 0.72324 0.0
C1433 C 0.08268 0.56447 0.7474 0.0
C1434 C 0.20778 0.62521 0.67124 0.0
C1435 C 0.1946 0.6191 0.68471 0.0
C1436 C 0.14266 0.60391 0.69664 0.0
C1437 C 0.11734 0.5795 0.73725 0.0
C1438 C 0.13208 0.58721 0.72333 0.0
C1439 C 0.17354 0.60783 0.68234 0.0
C1440 C 0.15952 0.60111 0.69658 0.0
H1441 H 0.11557 0.57325 0.77892 0.0
H1442 H 0.13987 0.58625 0.75628 0.0
H1443 H 0.11657 0.59996 0.70966 0.0
H1444 H 0.17261 0.60387 0.64064 0.0
H1445 H 0.14972 0.59387 0.66411 0.0
C1446 C 0.55859 0.10764 0.93192 0.0
C1447 C 0.54052 0.08888 0.9307 0.0
C1448 C 0.56554 0.12107 0.91862 0.0
C1449 C 0.54852 0.13464 0.88097 0.0
H1450 H 0.60493 0.1597 0.86792 0.0
C1451 C 0.5784 0.1819 0.82136 0.0
C1452 C 0.59784 0.19919 0.82178 0.0
C1453 C 0.5713 0.16838 0.83461 0.0
C1454 C 0.5892 0.15308 0.87153 0.0
H1455 H 0.51575 0.06952 0.91436 0.0
H1456 H 0.52768 0.09319 0.89132 0.0
H1457 H 0.5928 0.13654 0.89129 0.0
H1458 H 0.6251 0.21563 0.83651 0.0
H1459 H 0.61244 0.1926 0.8598 0.0
H1460 H 0.54491 0.1514 0.86144 0.0
C1461 C 0.53637 0.09749 0.90263 0.0
C1462 C 0.58226 0.13976 0.8849 0.0
C1463 C 0.52952 0.08397 0.91587 0.0
C1464 C 0.60994 0.20265 0.83582 0.0
C1465 C 0.60279 0.18924 0.84911 0.0
C1466 C 0.55549 0.14811 0.86769 0.0
C1467 C 0.55448 0.11615 0.90386 0.0
C1468 C 0.56185 0.13039 0.88974 0.0
C1469 C 0.58341 0.17188 0.84866 0.0
C1470 C 0.57593 0.15749 0.86278 0.0
H1471 H 0.56728 0.11209 0.94323 0.0
H1472 H 0.57943 0.13547 0.91996 0.0
H1473 H 0.53275 0.1278 0.88455 0.0
H1474 H 0.56857 0.17884 0.81083 0.0
H1475 H 0.55639 0.15505 0.83374 0.0
C1476 C 0.44935 0.52981 0.08707 0.0
C1477 C 0.46824 0.54261 0.09448 0.0
C1478 C 0.4426 0.53667 0.07389 0.0
C1479 C 0.46132 0.57448 0.04072 0.0
H1480 H 0.40607 0.56411 0.03911 0.0
C1481 C 0.43605 0.61273 0.99266 0.0
C1482 C 0.4167 0.60122 0.9856 0.0
C1483 C 0.4419 0.60522 0.00596 0.0
C1484 C 0.42147 0.5669 0.03925 0.0
H1485 H 0.49456 0.57285 0.09406 0.0
H1486 H 0.48289 0.58468 0.07092 0.0
H1487 H 0.41703 0.55159 0.06232 0.0
H1488 H 0.38827 0.57278 0.98716 0.0
H1489 H 0.39871 0.55942 0.01008 0.0
H1490 H 0.4658 0.58957 0.01762 0.0
C1491 C 0.47343 0.56927 0.07521 0.0
C1492 C 0.42774 0.55976 0.05257 0.0
C1493 C 0.48012 0.56246 0.08845 0.0
C1494 C 0.40335 0.58197 0.99218 0.0
C1495 C 0.40925 0.57441 0.00546 0.0
C1496 C 0.45503 0.58149 0.02737 0.0
C1497 C 0.45464 0.55643 0.06775 0.0
C1498 C 0.44778 0.56361 0.05349 0.0
C1499 C 0.42862 0.58594 0.01249 0.0
C1500 C 0.43507 0.57793 0.02652 0.0
H1501 H 0.43993 0.51434 0.09124 0.0
H1502 H 0.42815 0.52637 0.06826 0.0
H1503 H 0.47676 0.57737 0.04095 0.0
H1504 H 0.44684 0.62748 0.98778 0.0
H1505 H 0.45682 0.61464 0.01119 0.0
C1506 C 0.94875 0.4848 0.24953 0.0
C1507 C 0.94679 0.47114 0.26199 0.0
C1508 C 0.93557 0.47818 0.23607 0.0
C1509 C 0.88493 0.43985 0.22322 0.0
H1510 H 0.90671 0.45185 0.17891 0.0
C1511 C 0.83297 0.40648 0.16664 0.0
C1512 C 0.8377 0.41863 0.15251 0.0
C1513 C 0.84654 0.41248 0.17981 0.0
C1514 C 0.90032 0.44861 0.19118 0.0
H1515 H 0.9294 0.44004 0.27035 0.0
H1516 H 0.90602 0.42853 0.24692 0.0
H1517 H 0.92973 0.46358 0.20239 0.0
H1518 H 0.86016 0.4466 0.14107 0.0
H1519 H 0.8836 0.45751 0.16425 0.0
H1520 H 0.85554 0.4255 0.21222 0.0
C1521 C 0.91787 0.44428 0.24753 0.0
C1522 C 0.91354 0.45527 0.20461 0.0
C1523 C 0.93127 0.45082 0.26085 0.0
C1524 C 0.85628 0.43685 0.15176 0.0
C1525 C 0.86972 0.44303 0.16504 0.0
C1526 C 0.87168 0.43347 0.20981 0.0
C1527 C 0.91998 0.45788 0.23497 0.0
C1528 C 0.90597 0.4509 0.22075 0.0
C1529 C 0.86503 0.43095 0.17928 0.0
C1530 C 0.87918 0.4377 0.19358 0.0
H1531 H 0.96068 0.50052 0.25009 0.0
H1532 H 0.93742 0.48898 0.22658 0.0
H1533 H 0.87872 0.43648 0.23557 0.0
H1534 H 0.8188 0.39225 0.16743 0.0
H1535 H 0.84254 0.40253 0.19037 0.0
loop_
_geom_bond_atom_site_label_1
_geom_bond_atom_site_label_2
_geom_bond_distance
_geom_bond_site_symmetry_2
_ccdc_geom_bond_type
H0 C19 0.949 . S
H1 C20 0.950 . S
H2 C22 0.950 . S
H3 C23 0.950 . S
H4 C25 0.950 . S
H5 C28 0.950 . S
H6 C29 0.950 . S
H7 C31 0.951 . S
H8 C32 0.949 . S
H9 C34 0.949 . S
H10 C35 0.950 . S
H11 C37 0.950 . S
H12 C38 0.950 . S
H13 C40 0.950 . S
H14 C43 0.950 . S
H15 C44 0.950 . S
H16 C46 0.951 . S
H17 C47 0.949 . S
C18 C19 1.376 . S
C18 C23 1.386 . S
C18 C24 1.483 1_655 S
C19 H0 0.949 . S
C19 C18 1.376 . S
C19 C20 1.397 . S
C20 H1 0.950 . S
C20 C19 1.397 . S
C20 C21 1.391 . S
C21 C20 1.391 . S
C21 C22 1.405 . S
C22 H2 0.950 . S
C22 C21 1.405 . S
C22 C23 1.367 . S
C23 H3 0.950 . S
C23 C18 1.386 . S
C23 C22 1.367 . S
C24 C18 1.483 1_455 S
C24 C25 1.382 . S
C24 C26 1.403 1_455 S
C25 H4 0.950 . S
C25 C24 1.382 . S
C25 C41 1.411 . S
C26 C24 1.403 1_655 S
C26 C27 1.489 . S
C26 C40 1.411 1_655 S
C27 C26 1.489 . S
C27 C28 1.383 . S
C27 C32 1.382 . S
C28 H5 0.950 . S
C28 C27 1.383 . S
C28 C29 1.395 . S
C29 H6 0.950 . S
C29 C28 1.395 . S
C29 C30 1.288 . S
C30 C29 1.288 . S
C30 C31 1.392 . S
C31 H7 0.951 . S
C31 C30 1.392 . S
C31 C32 1.392 . S
C32 H8 0.949 . S
C32 C27 1.382 . S
C32 C31 1.392 . S
C33 C34 1.376 . S
C33 C38 1.386 . S
C33 C39 1.483 . S
C34 H9 0.949 . S
C34 C33 1.376 . S
C34 C35 1.397 . S
C35 H10 0.950 . S
C35 C34 1.397 . S
C35 C36 1.391 . S
C36 C35 1.391 . S
C36 C37 1.405 . S
C37 H11 0.950 . S
C37 C36 1.405 . S
C37 C38 1.367 . S
C38 H12 0.950 . S
C38 C33 1.386 . S
C38 C37 1.367 . S
C39 C33 1.483 . S
C39 C40 1.382 . S
C39 C41 1.403 . S
C40 H13 0.950 . S
C40 C26 1.411 1_455 S
C40 C39 1.382 . S
C41 C25 1.411 . S
C41 C39 1.403 . S
C41 C42 1.489 . S
C42 C41 1.489 . S
C42 C43 1.383 . S
C42 C47 1.382 . S
C43 H14 0.950 . S
C43 C42 1.383 . S
C43 C44 1.395 . S
C44 H15 0.950 . S
C44 C43 1.395 . S
C44 C45 1.288 . S
C45 C44 1.288 . S
C45 C46 1.392 . S
C46 H16 0.951 . S
C46 C45 1.392 . S
C46 C47 1.392 . S
C47 H17 0.949 . S
C47 C42 1.382 . S
C47 C46 1.392 . S
H48 C67 0.949 . S
H49 C68 0.950 . S
H50 C70 0.950 . S
H51 C71 0.950 . S
H52 C73 0.950 . S
H53 C76 0.950 . S
H54 C77 0.950 . S
H55 C79 0.951 . S
H56 C80 0.949 1_545 S
H57 C82 0.949 . S
H58 C83 0.950 . S
H59 C85 0.950 . S
H60 C86 0.950 . S
H61 C88 0.950 . S
H62 C91 0.950 . S
H63 C92 0.950 . S
H64 C94 0.951 . S
H65 C95 0.949 . S
C66 C67 1.376 . S
C66 C71 1.386 . S
C66 C72 1.483 . S
C67 H48 0.949 . S
C67 C66 1.376 . S
C67 C68 1.397 . S
C68 H49 0.950 . S
C68 C67 1.397 . S
C68 C69 1.391 . S
C69 C68 1.391 . S
C69 C70 1.405 . S
C70 H50 0.950 . S
C70 C69 1.405 . S
C70 C71 1.367 . S
C71 H51 0.950 . S
C71 C66 1.386 . S
C71 C70 1.367 . S
C72 C66 1.483 . S
C72 C73 1.382 1_565 S
C72 C74 1.403 1_565 S
C73 H52 0.950 . S
C73 C72 1.382 1_545 S
C73 C89 1.411 . S
C74 C72 1.403 1_545 S
C74 C75 1.489 1_545 S
C74 C88 1.411 . S
C75 C74 1.489 1_565 S
C75 C76 1.383 . S
C75 C80 1.382 . S
C76 H53 0.950 . S
C76 C75 1.383 . S
C76 C77 1.395 . S
C77 H54 0.950 . S
C77 C76 1.395 . S
C77 C78 1.288 . S
C78 C77 1.288 . S
C78 C79 1.392 . S
C79 H55 0.951 . S
C79 C78 1.392 . S
C79 C80 1.392 . S
C80 H56 0.949 1_565 S
C80 C75 1.382 . S
C80 C79 1.392 . S
C81 C82 1.376 . S
C81 C86 1.386 . S
C81 C87 1.483 . S
C82 H57 0.949 . S
C82 C81 1.376 . S
C82 C83 1.397 . S
C83 H58 0.950 . S
C83 C82 1.397 . S
C83 C84 1.391 . S
C84 C83 1.391 . S
C84 C85 1.405 . S
C85 H59 0.950 . S
C85 C84 1.405 . S
C85 C86 1.367 . S
C86 H60 0.950 . S
C86 C81 1.386 . S
C86 C85 1.367 . S
C87 C81 1.483 . S
C87 C88 1.382 . S
C87 C89 1.403 . S
C88 H61 0.950 . S
C88 C74 1.411 . S
C88 C87 1.382 . S
C89 C73 1.411 . S
C89 C87 1.403 . S
C89 C90 1.489 . S
C90 C89 1.489 . S
C90 C91 1.383 . S
C90 C95 1.382 . S
C91 H62 0.950 . S
C91 C90 1.383 . S
C91 C92 1.395 . S
C92 H63 0.950 . S
C92 C91 1.395 . S
C92 C93 1.288 . S
C93 C92 1.288 . S
C93 C94 1.392 . S
C94 H64 0.951 . S
C94 C93 1.392 . S
C94 C95 1.392 . S
C95 H65 0.949 . S
C95 C90 1.382 . S
C95 C94 1.392 . S
H96 C115 0.949 . S
H97 C116 0.950 . S
H98 C118 0.950 . S
H99 C119 0.950 . S
H100 C121 0.950 . S
H101 C124 0.950 . S
H102 C125 0.950 . S
H103 C127 0.951 . S
H104 C128 0.949 . S
H105 C130 0.949 . S
H106 C131 0.950 . S
H107 C133 0.950 . S
H108 C134 0.950 . S
H109 C136 0.950 . S
H110 C139 0.950 . S
H111 C140 0.950 . S
H112 C142 0.951 . S
H113 C143 0.949 . S
C114 C115 1.376 . S
C114 C119 1.386 . S
C114 C120 1.483 . S
C115 H96 0.949 . S
C115 C114 1.376 . S
C115 C116 1.397 . S
C116 H97 0.950 . S
C116 C115 1.397 . S
C116 C117 1.391 . S
C117 C116 1.391 . S
C117 C118 1.405 . S
C118 H98 0.950 . S
C118 C117 1.405 . S
C118 C119 1.367 . S
C119 H99 0.950 . S
C119 C114 1.386 . S
C119 C118 1.367 . S
C120 C114 1.483 . S
C120 C121 1.382 . S
C120 C122 1.403 . S
C121 H100 0.950 . S
C121 C120 1.382 . S
C121 C137 1.411 . S
C122 C120 1.403 . S
C122 C123 1.489 . S
C122 C136 1.411 . S
C123 C122 1.489 . S
C123 C124 1.383 . S
C123 C128 1.382 . S
C124 H101 0.950 . S
C124 C123 1.383 . S
C124 C125 1.395 . S
C125 H102 0.950 . S
C125 C124 1.395 . S
C125 C126 1.288 . S
C126 C125 1.288 . S
C126 C127 1.392 . S
C127 H103 0.951 . S
C127 C126 1.392 . S
C127 C128 1.392 . S
C128 H104 0.949 . S
C128 C123 1.382 . S
C128 C127 1.392 . S
C129 C130 1.376 . S
C129 C134 1.386 . S
C129 C135 1.483 . S
C130 H105 0.949 . S
C130 C129 1.376 . S
C130 C131 1.397 . S
C131 H106 0.950 . S
C131 C130 1.397 . S
C131 C132 1.391 . S
C132 C131 1.391 . S
C132 C133 1.405 . S
C133 H107 0.950 . S
C133 C132 1.405 . S
C133 C134 1.367 . S
C134 H108 0.950 . S
C134 C129 1.386 . S
C134 C133 1.367 . S
C135 C129 1.483 . S
C135 C136 1.382 . S
C135 C137 1.403 . S
C136 H109 0.950 . S
C136 C122 1.411 . S
C136 C135 1.382 . S
C137 C121 1.411 . S
C137 C135 1.403 . S
C137 C138 1.489 . S
C138 C137 1.489 . S
C138 C139 1.383 . S
C138 C143 1.382 . S
C139 H110 0.950 . S
C139 C138 1.383 . S
C139 C140 1.395 . S
C140 H111 0.950 . S
C140 C139 1.395 . S
C140 C141 1.288 . S
C141 C140 1.288 . S
C141 C142 1.392 . S
C142 H112 0.951 . S
C142 C141 1.392 . S
C142 C143 1.392 . S
C143 H113 0.949 . S
C143 C138 1.382 . S
C143 C142 1.392 . S
H144 C163 0.949 . S
H145 C164 0.950 . S
H146 C166 0.950 . S
H147 C167 0.950 . S
H148 C169 0.950 . S
H149 C172 0.950 . S
H150 C173 0.950 . S
H151 C175 0.951 . S
H152 C176 0.949 . S
H153 C178 0.949 . S
H154 C179 0.950 . S
H155 C181 0.950 . S
H156 C182 0.950 . S
H157 C184 0.950 . S
H158 C187 0.950 . S
H159 C188 0.950 . S
H160 C190 0.951 . S
H161 C191 0.949 . S
C162 C163 1.376 . S
C162 C167 1.386 . S
C162 C168 1.483 . S
C163 H144 0.949 . S
C163 C162 1.376 . S
C163 C164 1.397 . S
C164 H145 0.950 . S
C164 C163 1.397 . S
C164 C165 1.391 . S
C165 C164 1.391 . S
C165 C166 1.405 . S
C166 H146 0.950 . S
C166 C165 1.405 . S
C166 C167 1.367 . S
C167 H147 0.950 . S
C167 C162 1.386 . S
C167 C166 1.367 . S
C168 C162 1.483 . S
C168 C169 1.382 . S
C168 C170 1.403 . S
C169 H148 0.950 . S
C169 C168 1.382 . S
C169 C185 1.411 1_455 S
C170 C168 1.403 . S
C170 C171 1.489 . S
C170 C184 1.411 . S
C171 C170 1.489 . S
C171 C172 1.383 . S
C171 C176 1.382 . S
C172 H149 0.950 . S
C172 C171 1.383 . S
C172 C173 1.395 . S
C173 H150 0.950 . S
C173 C172 1.395 . S
C173 C174 1.288 . S
C174 C173 1.288 . S
C174 C175 1.392 . S
C175 H151 0.951 . S
C175 C174 1.392 . S
C175 C176 1.392 . S
C176 H152 0.949 . S
C176 C171 1.382 . S
C176 C175 1.392 . S
C177 C178 1.376 . S
C177 C182 1.386 . S
C177 C183 1.483 1_655 S
C178 H153 0.949 . S
C178 C177 1.376 . S
C178 C179 1.397 . S
C179 H154 0.950 . S
C179 C178 1.397 . S
C179 C180 1.391 . S
C180 C179 1.391 . S
C180 C181 1.405 . S
C181 H155 0.950 . S
C181 C180 1.405 . S
C181 C182 1.367 . S
C182 H156 0.950 . S
C182 C177 1.386 . S
C182 C181 1.367 . S
C183 C177 1.483 1_455 S
C183 C184 1.382 . S
C183 C185 1.403 1_455 S
C184 H157 0.950 . S
C184 C170 1.411 . S
C184 C183 1.382 . S
C185 C169 1.411 1_655 S
C185 C183 1.403 1_655 S
C185 C186 1.489 . S
C186 C185 1.489 . S
C186 C187 1.383 . S
C186 C191 1.382 . S
C187 H158 0.950 . S
C187 C186 1.383 . S
C187 C188 1.395 . S
C188 H159 0.950 . S
C188 C187 1.395 . S
C188 C189 1.288 . S
C189 C188 1.288 . S
C189 C190 1.392 . S
C190 H160 0.951 . S
C190 C189 1.392 . S
C190 C191 1.392 . S
C191 H161 0.949 . S
C191 C186 1.382 . S
C191 C190 1.392 . S
H192 C211 0.949 . S
H193 C212 0.950 . S
H194 C214 0.950 . S
H195 C215 0.955 . S
H196 C217 0.950 . S
H197 C220 0.950 . S
H198 C221 0.950 . S
H199 C223 0.951 . S
H200 C224 0.949 . S
H201 C226 0.949 . S
H202 C227 0.950 . S
H203 C229 0.950 . S
H204 C230 0.950 . S
H205 C232 0.950 . S
H206 C235 0.950 . S
H207 C236 0.950 . S
H208 C238 0.951 . S
H209 C239 0.949 1_545 S
C210 C211 1.376 . S
C210 C215 1.384 1_554 S
C210 C216 1.483 1_554 S
C211 H192 0.949 . S
C211 C210 1.376 . S
C211 C212 1.397 . S
C212 H193 0.950 . S
C212 C211 1.397 . S
C212 C213 1.391 . S
C213 C212 1.391 . S
C213 C214 1.405 . S
C214 H194 0.950 . S
C214 C213 1.405 . S
C214 C215 1.365 1_554 S
C215 H195 0.955 . S
C215 C210 1.384 1_556 S
C215 C214 1.365 1_556 S
C216 C210 1.483 1_556 S
C216 C217 1.382 1_556 S
C216 C218 1.403 . S
C217 H196 0.950 . S
C217 C216 1.382 1_554 S
C217 C233 1.411 . S
C218 C216 1.403 . S
C218 C219 1.489 . S
C218 C232 1.411 . S
C219 C218 1.489 . S
C219 C220 1.383 . S
C219 C224 1.382 . S
C220 H197 0.950 . S
C220 C219 1.383 . S
C220 C221 1.395 . S
C221 H198 0.950 . S
C221 C220 1.395 . S
C221 C222 1.288 . S
C222 C221 1.288 . S
C222 C223 1.392 . S
C223 H199 0.951 . S
C223 C222 1.392 . S
C223 C224 1.392 . S
C224 H200 0.949 . S
C224 C219 1.382 . S
C224 C223 1.392 . S
C225 C226 1.376 . S
C225 C230 1.386 . S
C225 C231 1.483 . S
C226 H201 0.949 . S
C226 C225 1.376 . S
C226 C227 1.397 . S
C227 H202 0.950 . S
C227 C226 1.397 . S
C227 C228 1.391 . S
C228 C227 1.391 . S
C228 C229 1.405 . S
C229 H203 0.950 . S
C229 C228 1.405 . S
C229 C230 1.367 . S
C230 H204 0.950 . S
C230 C225 1.386 . S
C230 C229 1.367 . S
C231 C225 1.483 . S
C231 C232 1.382 1_565 S
C231 C233 1.403 1_566 S
C232 H205 0.950 . S
C232 C218 1.411 . S
C232 C231 1.382 1_545 S
C233 C217 1.411 . S
C233 C231 1.403 1_544 S
C233 C234 1.489 1_545 S
C234 C233 1.489 1_565 S
C234 C235 1.383 . S
C234 C239 1.382 . S
C235 H206 0.950 . S
C235 C234 1.383 . S
C235 C236 1.395 . S
C236 H207 0.950 . S
C236 C235 1.395 . S
C236 C237 1.288 . S
C237 C236 1.288 . S
C237 C238 1.392 . S
C238 H208 0.951 . S
C238 C237 1.392 . S
C238 C239 1.392 . S
C239 H209 0.949 1_565 S
C239 C234 1.382 . S
C239 C238 1.392 . S
H240 C259 0.949 . S
H241 C260 0.950 . S
H242 C262 0.950 . S
H243 C263 0.950 . S
H244 C265 0.950 . S
H245 C268 0.950 . S
H246 C269 0.950 . S
H247 C271 0.951 . S
H248 C272 0.949 . S
H249 C274 0.949 . S
H250 C275 0.950 . S
H251 C277 0.950 . S
H252 C278 0.950 . S
H253 C280 0.950 . S
H254 C283 0.950 . S
H255 C284 0.950 . S
H256 C286 0.951 . S
H257 C287 0.949 . S
C258 C259 1.376 . S
C258 C263 1.386 . S
C258 C264 1.483 . S
C259 H240 0.949 . S
C259 C258 1.376 . S
C259 C260 1.397 . S
C260 H241 0.950 . S
C260 C259 1.397 . S
C260 C261 1.391 . S
C261 C260 1.391 . S
C261 C262 1.405 . S
C262 H242 0.950 . S
C262 C261 1.405 . S
C262 C263 1.367 . S
C263 H243 0.950 . S
C263 C258 1.386 . S
C263 C262 1.367 . S
C264 C258 1.483 . S
C264 C265 1.382 . S
C264 C266 1.403 . S
C265 H244 0.950 . S
C265 C264 1.382 . S
C265 C281 1.411 . S
C266 C264 1.403 . S
C266 C267 1.489 . S
C266 C280 1.411 . S
C267 C266 1.489 . S
C267 C268 1.383 . S
C267 C272 1.382 . S
C268 H245 0.950 . S
C268 C267 1.383 . S
C268 C269 1.395 . S
C269 H246 0.950 . S
C269 C268 1.395 . S
C269 C270 1.288 . S
C270 C269 1.288 . S
C270 C271 1.392 . S
C271 H247 0.951 . S
C271 C270 1.392 . S
C271 C272 1.392 . S
C272 H248 0.949 . S
C272 C267 1.382 . S
C272 C271 1.392 . S
C273 C274 1.376 . S
C273 C278 1.386 . S
C273 C279 1.483 . S
C274 H249 0.949 . S
C274 C273 1.376 . S
C274 C275 1.397 . S
C275 H250 0.950 . S
C275 C274 1.397 . S
C275 C276 1.391 . S
C276 C275 1.391 . S
C276 C277 1.405 . S
C277 H251 0.950 . S
C277 C276 1.405 . S
C277 C278 1.367 . S
C278 H252 0.950 . S
C278 C273 1.386 . S
C278 C277 1.367 . S
C279 C273 1.483 . S
C279 C280 1.382 . S
C279 C281 1.403 . S
C280 H253 0.950 . S
C280 C266 1.411 . S
C280 C279 1.382 . S
C281 C265 1.411 . S
C281 C279 1.403 . S
C281 C282 1.489 . S
C282 C281 1.489 . S
C282 C283 1.383 . S
C282 C287 1.382 . S
C283 H254 0.950 . S
C283 C282 1.383 . S
C283 C284 1.395 . S
C284 H255 0.950 . S
C284 C283 1.395 . S
C284 C285 1.288 . S
C285 C284 1.288 . S
C285 C286 1.392 . S
C286 H256 0.951 . S
C286 C285 1.392 . S
C286 C287 1.392 . S
C287 H257 0.949 . S
C287 C282 1.382 . S
C287 C286 1.392 . S
Li288 N305 1.990 . S
Li288 O348 1.956 . S
Li288 O349 1.970 . S
Li288 O350 1.961 . S
Li289 N313 1.990 . S
Li289 O348 1.970 . S
Li289 O349 1.956 . S
Li289 O351 1.961 . S
Li290 N335 1.990 . S
Li290 O348 1.961 . S
Li290 O350 1.956 . S
Li290 O351 1.970 . S
Li291 N341 1.990 . S
Li291 O349 1.961 . S
Li291 O350 1.970 . S
Li291 O351 1.956 . S
C292 C294 1.348 . S
C292 C295 1.356 . S
C292 O348 1.325 . S
N293 C296 1.314 . S
N293 C297 1.279 . S
C294 C292 1.348 . S
C294 C296 1.353 . S
C294 H352 0.929 . S
C295 C292 1.356 . S
C295 C297 1.358 . S
C295 H353 0.930 . S
C296 N293 1.314 . S
C296 C294 1.353 . S
C296 H354 0.930 . S
C297 N293 1.279 . S
C297 C295 1.358 . S
C297 H355 0.930 . S
C298 C301 1.348 . S
C298 C302 1.356 . S
C298 O349 1.325 . S
C299 N300 1.279 . S
C299 C302 1.358 . S
C299 H356 0.930 . S
N300 C299 1.279 . S
N300 C303 1.314 . S
C301 C298 1.348 . S
C301 C303 1.353 . S
C301 H357 0.929 . S
C302 C298 1.356 . S
C302 C299 1.358 . S
C302 H358 0.930 . S
C303 N300 1.314 . S
C303 C301 1.353 . S
C303 H359 0.930 . S
C304 N305 1.314 . S
C304 C309 1.353 . S
C304 H310 0.930 . S
N305 Li288 1.990 . S
N305 C304 1.314 . S
N305 C307 1.279 . S
C306 C307 1.358 . S
C306 C308 1.356 . S
C306 H360 0.930 . S
C307 N305 1.279 . S
C307 C306 1.358 . S
C307 H311 0.930 . S
C308 C306 1.356 . S
C308 C309 1.348 . S
C309 C304 1.353 . S
C309 C308 1.348 . S
C309 H361 0.929 . S
H310 C304 0.930 . S
H311 C307 0.930 . S
C312 N313 1.314 . S
C312 C314 1.353 . S
C312 H318 0.930 . S
N313 Li289 1.990 . S
N313 C312 1.314 . S
N313 C316 1.279 . S
C314 C312 1.353 . S
C314 C317 1.348 . S
C314 H362 0.929 . S
C315 C316 1.358 . S
C315 C317 1.356 . S
C315 H363 0.930 . S
C316 N313 1.279 . S
C316 C315 1.358 . S
C316 H319 0.930 . S
C317 C314 1.348 . S
C317 C315 1.356 . S
H318 C312 0.930 . S
H319 C316 0.930 . S
C320 C322 1.348 . S
C320 C323 1.356 . S
C320 O350 1.325 . S
N321 C324 1.314 . S
N321 C325 1.279 . S
C322 C320 1.348 . S
C322 C324 1.353 . S
C322 H364 0.929 . S
C323 C320 1.356 . S
C323 C325 1.358 . S
C323 H365 0.930 . S
C324 N321 1.314 . S
C324 C322 1.353 . S
C324 H366 0.930 . S
C325 N321 1.279 . S
C325 C323 1.358 . S
C325 H367 0.930 . S
C326 C327 1.348 . S
C326 C328 1.356 . S
C326 O351 1.325 . S
C327 C326 1.348 . S
C327 C329 1.353 . S
C327 H368 0.929 . S
C328 C326 1.356 . S
C328 C330 1.358 . S
C328 H369 0.930 . S
C329 C327 1.353 . S
C329 N331 1.314 . S
C329 H370 0.930 . S
C330 C328 1.358 . S
C330 N331 1.279 . S
C330 H371 0.930 . S
N331 C329 1.314 . S
N331 C330 1.279 . S
C332 C334 1.353 . S
C332 N335 1.314 . S
C332 H338 0.930 . S
C333 N335 1.279 . S
C333 C336 1.358 . S
C333 H339 0.930 . S
C334 C332 1.353 . S
C334 C337 1.348 . S
C334 H372 0.929 . S
N335 Li290 1.990 . S
N335 C332 1.314 . S
N335 C333 1.279 . S
C336 C333 1.358 . S
C336 C337 1.356 . S
C336 H373 0.930 . S
C337 C334 1.348 . S
C337 C336 1.356 . S
H338 C332 0.930 . S
H339 C333 0.930 . S
C340 N341 1.314 . S
C340 C342 1.353 . S
C340 H346 0.930 . S
N341 Li291 1.990 . S
N341 C340 1.314 . S
N341 C344 1.279 . S
C342 C340 1.353 . S
C342 C345 1.348 . S
C342 H374 0.929 . S
C343 C344 1.358 . S
C343 C345 1.356 . S
C343 H375 0.930 . S
C344 N341 1.279 . S
C344 C343 1.358 . S
C344 H347 0.930 . S
C345 C342 1.348 . S
C345 C343 1.356 . S
H346 C340 0.930 . S
H347 C344 0.930 . S
O348 Li288 1.956 . S
O348 Li289 1.970 . S
O348 Li290 1.961 . S
O348 C292 1.325 . S
O349 Li288 1.970 . S
O349 Li289 1.956 . S
O349 Li291 1.961 . S
O349 C298 1.325 . S
O350 Li288 1.961 . S
O350 Li290 1.956 . S
O350 Li291 1.970 . S
O350 C320 1.325 . S
O351 Li289 1.961 . S
O351 Li290 1.970 . S
O351 Li291 1.956 . S
O351 C326 1.325 . S
H352 C294 0.929 . S
H353 C295 0.930 . S
H354 C296 0.930 . S
H355 C297 0.930 . S
H356 C299 0.930 . S
H357 C301 0.929 . S
H358 C302 0.930 . S
H359 C303 0.930 . S
H360 C306 0.930 . S
H361 C309 0.929 . S
H362 C314 0.929 . S
H363 C315 0.930 . S
H364 C322 0.929 . S
H365 C323 0.930 . S
H366 C324 0.930 . S
H367 C325 0.930 . S
H368 C327 0.929 . S
H369 C328 0.930 . S
H370 C329 0.930 . S
H371 C330 0.930 . S
H372 C334 0.929 . S
H373 C336 0.930 . S
H374 C342 0.929 . S
H375 C343 0.930 . S
Li376 N393 1.990 . S
Li376 O436 1.956 . S
Li376 O437 1.970 . S
Li376 O438 1.961 . S
Li377 N401 1.990 . S
Li377 O436 1.970 . S
Li377 O437 1.956 . S
Li377 O439 1.961 . S
Li378 N423 1.990 . S
Li378 O436 1.961 . S
Li378 O438 1.956 . S
Li378 O439 1.970 . S
Li379 N429 1.990 . S
Li379 O437 1.961 . S
Li379 O438 1.970 . S
Li379 O439 1.956 . S
C380 C382 1.348 . S
C380 C383 1.356 . S
C380 O436 1.325 . S
N381 C384 1.314 . S
N381 C385 1.279 . S
C382 C380 1.348 . S
C382 C384 1.353 . S
C382 H440 0.929 . S
C383 C380 1.356 . S
C383 C385 1.358 . S
C383 H441 0.930 . S
C384 N381 1.314 . S
C384 C382 1.353 . S
C384 H442 0.930 . S
C385 N381 1.279 . S
C385 C383 1.358 . S
C385 H443 0.930 . S
C386 C389 1.348 . S
C386 C390 1.356 . S
C386 O437 1.325 . S
C387 N388 1.279 . S
C387 C390 1.358 . S
C387 H444 0.930 . S
N388 C387 1.279 . S
N388 C391 1.314 . S
C389 C386 1.348 . S
C389 C391 1.353 . S
C389 H445 0.929 . S
C390 C386 1.356 . S
C390 C387 1.358 . S
C390 H446 0.930 . S
C391 N388 1.314 . S
C391 C389 1.353 . S
C391 H447 0.930 . S
C392 N393 1.314 . S
C392 C397 1.353 . S
C392 H398 0.930 . S
N393 Li376 1.990 . S
N393 C392 1.314 . S
N393 C395 1.279 . S
C394 C395 1.358 . S
C394 C396 1.356 . S
C394 H448 0.930 . S
C395 N393 1.279 . S
C395 C394 1.358 . S
C395 H399 0.930 . S
C396 C394 1.356 . S
C396 C397 1.348 . S
C397 C392 1.353 . S
C397 C396 1.348 . S
C397 H449 0.929 . S
H398 C392 0.930 . S
H399 C395 0.930 . S
C400 N401 1.314 . S
C400 C402 1.353 . S
C400 H406 0.930 . S
N401 Li377 1.990 . S
N401 C400 1.314 . S
N401 C404 1.279 . S
C402 C400 1.353 . S
C402 C405 1.348 . S
C402 H450 0.929 . S
C403 C404 1.358 . S
C403 C405 1.356 . S
C403 H451 0.930 . S
C404 N401 1.279 . S
C404 C403 1.358 . S
C404 H407 0.930 . S
C405 C402 1.348 . S
C405 C403 1.356 . S
H406 C400 0.930 . S
H407 C404 0.930 . S
C408 C410 1.348 . S
C408 C411 1.356 . S
C408 O438 1.325 . S
N409 C412 1.314 . S
N409 C413 1.279 . S
C410 C408 1.348 . S
C410 C412 1.353 . S
C410 H452 0.929 . S
C411 C408 1.356 . S
C411 C413 1.358 . S
C411 H453 0.930 . S
C412 N409 1.314 . S
C412 C410 1.353 . S
C412 H454 0.930 . S
C413 N409 1.279 . S
C413 C411 1.358 . S
C413 H455 0.930 . S
C414 C415 1.348 . S
C414 C416 1.356 . S
C414 O439 1.325 . S
C415 C414 1.348 . S
C415 C417 1.353 . S
C415 H456 0.929 . S
C416 C414 1.356 . S
C416 C418 1.358 . S
C416 H457 0.930 . S
C417 C415 1.353 . S
C417 N419 1.314 . S
C417 H458 0.930 . S
C418 C416 1.358 . S
C418 N419 1.279 . S
C418 H459 0.930 . S
N419 C417 1.314 . S
N419 C418 1.279 . S
C420 C422 1.353 . S
C420 N423 1.314 . S
C420 H426 0.930 . S
C421 N423 1.279 . S
C421 C424 1.358 . S
C421 H427 0.930 . S
C422 C420 1.353 . S
C422 C425 1.348 . S
C422 H460 0.929 . S
N423 Li378 1.990 . S
N423 C420 1.314 . S
N423 C421 1.279 . S
C424 C421 1.358 . S
C424 C425 1.356 . S
C424 H461 0.930 . S
C425 C422 1.348 . S
C425 C424 1.356 . S
H426 C420 0.930 . S
H427 C421 0.930 . S
C428 N429 1.314 . S
C428 C430 1.353 . S
C428 H434 0.930 . S
N429 Li379 1.990 . S
N429 C428 1.314 . S
N429 C432 1.279 . S
C430 C428 1.353 . S
C430 C433 1.348 . S
C430 H462 0.929 . S
C431 C432 1.358 . S
C431 C433 1.356 . S
C431 H463 0.930 . S
C432 N429 1.279 . S
C432 C431 1.358 . S
C432 H435 0.930 . S
C433 C430 1.348 . S
C433 C431 1.356 . S
H434 C428 0.930 . S
H435 C432 0.930 . S
O436 Li376 1.956 . S
O436 Li377 1.970 . S
O436 Li378 1.961 . S
O436 C380 1.325 . S
O437 Li376 1.970 . S
O437 Li377 1.956 . S
O437 Li379 1.961 . S
O437 C386 1.325 . S
O438 Li376 1.961 . S
O438 Li378 1.956 . S
O438 Li379 1.970 . S
O438 C408 1.325 . S
O439 Li377 1.961 . S
O439 Li378 1.970 . S
O439 Li379 1.956 . S
O439 C414 1.325 . S
H440 C382 0.929 . S
H441 C383 0.930 . S
H442 C384 0.930 . S
H443 C385 0.930 . S
H444 C387 0.930 . S
H445 C389 0.929 . S
H446 C390 0.930 . S
H447 C391 0.930 . S
H448 C394 0.930 . S
H449 C397 0.929 . S
H450 C402 0.929 . S
H451 C403 0.930 . S
H452 C410 0.929 . S
H453 C411 0.930 . S
H454 C412 0.930 . S
H455 C413 0.930 . S
H456 C415 0.929 . S
H457 C416 0.930 . S
H458 C417 0.930 . S
H459 C418 0.930 . S
H460 C422 0.929 . S
H461 C424 0.930 . S
H462 C430 0.929 . S
H463 C431 0.930 . S
Li464 N481 1.990 . S
Li464 O524 1.956 . S
Li464 O525 1.970 . S
Li464 O526 1.961 . S
Li465 N489 1.990 . S
Li465 O524 1.970 . S
Li465 O525 1.956 . S
Li465 O527 1.961 . S
Li466 N511 1.990 . S
Li466 O524 1.961 . S
Li466 O526 1.956 . S
Li466 O527 1.970 . S
Li467 N517 1.990 . S
Li467 O525 1.961 . S
Li467 O526 1.970 . S
Li467 O527 1.956 . S
C468 C470 1.348 . S
C468 C471 1.356 . S
C468 O524 1.325 . S
N469 C472 1.314 . S
N469 C473 1.279 . S
C470 C468 1.348 . S
C470 C472 1.353 . S
C470 H528 0.929 . S
C471 C468 1.356 . S
C471 C473 1.358 . S
C471 H529 0.930 . S
C472 N469 1.314 . S
C472 C470 1.353 . S
C472 H530 0.930 . S
C473 N469 1.279 . S
C473 C471 1.358 . S
C473 H531 0.930 . S
C474 C477 1.348 . S
C474 C478 1.356 . S
C474 O525 1.325 . S
C475 N476 1.279 . S
C475 C478 1.358 . S
C475 H532 0.930 . S
N476 C475 1.279 . S
N476 C479 1.314 . S
C477 C474 1.348 . S
C477 C479 1.353 . S
C477 H533 0.929 . S
C478 C474 1.356 . S
C478 C475 1.358 . S
C478 H534 0.930 . S
C479 N476 1.314 . S
C479 C477 1.353 . S
C479 H535 0.930 . S
C480 N481 1.314 . S
C480 C485 1.353 . S
C480 H486 0.930 . S
N481 Li464 1.990 . S
N481 C480 1.314 . S
N481 C483 1.279 . S
C482 C483 1.358 . S
C482 C484 1.356 . S
C482 H536 0.930 . S
C483 N481 1.279 . S
C483 C482 1.358 . S
C483 H487 0.930 . S
C484 C482 1.356 . S
C484 C485 1.348 . S
C485 C480 1.353 . S
C485 C484 1.348 . S
C485 H537 0.929 . S
H486 C480 0.930 . S
H487 C483 0.930 . S
C488 N489 1.314 . S
C488 C490 1.353 . S
C488 H494 0.930 . S
N489 Li465 1.990 . S
N489 C488 1.314 . S
N489 C492 1.279 . S
C490 C488 1.353 . S
C490 C493 1.348 . S
C490 H538 0.929 . S
C491 C492 1.358 . S
C491 C493 1.356 . S
C491 H539 0.930 . S
C492 N489 1.279 . S
C492 C491 1.358 . S
C492 H495 0.930 . S
C493 C490 1.348 . S
C493 C491 1.356 . S
H494 C488 0.930 . S
H495 C492 0.930 . S
C496 C498 1.348 . S
C496 C499 1.356 . S
C496 O526 1.325 . S
N497 C500 1.314 . S
N497 C501 1.279 . S
C498 C496 1.348 . S
C498 C500 1.353 . S
C498 H540 0.929 . S
C499 C496 1.356 . S
C499 C501 1.358 . S
C499 H541 0.930 . S
C500 N497 1.314 . S
C500 C498 1.353 . S
C500 H542 0.930 . S
C501 N497 1.279 . S
C501 C499 1.358 . S
C501 H543 0.930 . S
C502 C503 1.348 . S
C502 C504 1.356 . S
C502 O527 1.325 . S
C503 C502 1.348 . S
C503 C505 1.353 . S
C503 H544 0.929 . S
C504 C502 1.356 . S
C504 C506 1.358 . S
C504 H545 0.930 . S
C505 C503 1.353 . S
C505 N507 1.314 . S
C505 H546 0.930 . S
C506 C504 1.358 . S
C506 N507 1.279 . S
C506 H547 0.930 . S
N507 C505 1.314 . S
N507 C506 1.279 . S
C508 C510 1.353 . S
C508 N511 1.314 . S
C508 H514 0.930 . S
C509 N511 1.279 . S
C509 C512 1.358 . S
C509 H515 0.930 . S
C510 C508 1.353 . S
C510 C513 1.348 . S
C510 H548 0.929 . S
N511 Li466 1.990 . S
N511 C508 1.314 . S
N511 C509 1.279 . S
C512 C509 1.358 . S
C512 C513 1.356 . S
C512 H549 0.930 . S
C513 C510 1.348 . S
C513 C512 1.356 . S
H514 C508 0.930 . S
H515 C509 0.930 . S
C516 N517 1.314 . S
C516 C518 1.353 . S
C516 H522 0.930 . S
N517 Li467 1.990 . S
N517 C516 1.314 . S
N517 C520 1.279 . S
C518 C516 1.353 . S
C518 C521 1.348 . S
C518 H550 0.929 . S
C519 C520 1.358 . S
C519 C521 1.356 . S
C519 H551 0.930 . S
C520 N517 1.279 . S
C520 C519 1.358 . S
C520 H523 0.930 . S
C521 C518 1.348 . S
C521 C519 1.356 . S
H522 C516 0.930 . S
H523 C520 0.930 . S
O524 Li464 1.956 . S
O524 Li465 1.970 . S
O524 Li466 1.961 . S
O524 C468 1.325 . S
O525 Li464 1.970 . S
O525 Li465 1.956 . S
O525 Li467 1.961 . S
O525 C474 1.325 . S
O526 Li464 1.961 . S
O526 Li466 1.956 . S
O526 Li467 1.970 . S
O526 C496 1.325 . S
O527 Li465 1.961 . S
O527 Li466 1.970 . S
O527 Li467 1.956 . S
O527 C502 1.325 . S
H528 C470 0.929 . S
H529 C471 0.930 . S
H530 C472 0.930 . S
H531 C473 0.930 . S
H532 C475 0.930 . S
H533 C477 0.929 . S
H534 C478 0.930 . S
H535 C479 0.930 . S
H536 C482 0.930 . S
H537 C485 0.929 . S
H538 C490 0.929 . S
H539 C491 0.930 . S
H540 C498 0.929 . S
H541 C499 0.930 . S
H542 C500 0.930 . S
H543 C501 0.930 . S
H544 C503 0.929 . S
H545 C504 0.930 . S
H546 C505 0.930 . S
H547 C506 0.930 . S
H548 C510 0.929 . S
H549 C512 0.930 . S
H550 C518 0.929 . S
H551 C519 0.930 . S
Li552 N569 1.990 . S
Li552 O612 1.956 . S
Li552 O613 1.970 . S
Li552 O614 1.961 . S
Li553 N577 1.990 . S
Li553 O612 1.970 . S
Li553 O613 1.956 . S
Li553 O615 1.961 . S
Li554 N599 1.990 . S
Li554 O612 1.961 . S
Li554 O614 1.956 . S
Li554 O615 1.970 . S
Li555 N605 1.990 . S
Li555 O613 1.961 . S
Li555 O614 1.970 . S
Li555 O615 1.956 . S
C556 C558 1.348 . S
C556 C559 1.356 . S
C556 O612 1.325 . S
N557 C560 1.314 . S
N557 C561 1.279 . S
C558 C556 1.348 . S
C558 C560 1.353 . S
C558 H616 0.929 . S
C559 C556 1.356 . S
C559 C561 1.358 . S
C559 H617 0.930 . S
C560 N557 1.314 . S
C560 C558 1.353 . S
C560 H618 0.930 . S
C561 N557 1.279 . S
C561 C559 1.358 . S
C561 H619 0.930 . S
C562 C565 1.348 . S
C562 C566 1.356 . S
C562 O613 1.325 . S
C563 N564 1.279 . S
C563 C566 1.358 . S
C563 H620 0.930 . S
N564 C563 1.279 . S
N564 C567 1.314 . S
C565 C562 1.348 . S
C565 C567 1.353 . S
C565 H621 0.929 . S
C566 C562 1.356 . S
C566 C563 1.358 . S
C566 H622 0.930 . S
C567 N564 1.314 . S
C567 C565 1.353 . S
C567 H623 0.930 . S
C568 N569 1.314 . S
C568 C573 1.353 . S
C568 H574 0.930 . S
N569 Li552 1.990 . S
N569 C568 1.314 . S
N569 C571 1.279 . S
C570 C571 1.358 . S
C570 C572 1.356 . S
C570 H624 0.930 . S
C571 N569 1.279 . S
C571 C570 1.358 . S
C571 H575 0.930 . S
C572 C570 1.356 . S
C572 C573 1.348 . S
C573 C568 1.353 . S
C573 C572 1.348 . S
C573 H625 0.929 . S
H574 C568 0.930 . S
H575 C571 0.930 . S
C576 N577 1.314 . S
C576 C578 1.353 . S
C576 H582 0.930 . S
N577 Li553 1.990 . S
N577 C576 1.314 . S
N577 C580 1.279 . S
C578 C576 1.353 . S
C578 C581 1.348 . S
C578 H626 0.929 . S
C579 C580 1.358 . S
C579 C581 1.356 . S
C579 H627 0.930 . S
C580 N577 1.279 . S
C580 C579 1.358 . S
C580 H583 0.930 . S
C581 C578 1.348 . S
C581 C579 1.356 . S
H582 C576 0.930 . S
H583 C580 0.930 . S
C584 C586 1.348 . S
C584 C587 1.356 . S
C584 O614 1.325 . S
N585 C588 1.314 . S
N585 C589 1.279 . S
C586 C584 1.348 . S
C586 C588 1.353 . S
C586 H628 0.929 . S
C587 C584 1.356 . S
C587 C589 1.358 . S
C587 H629 0.930 . S
C588 N585 1.314 . S
C588 C586 1.353 . S
C588 H630 0.930 . S
C589 N585 1.279 . S
C589 C587 1.358 . S
C589 H631 0.930 . S
C590 C591 1.348 . S
C590 C592 1.356 . S
C590 O615 1.325 . S
C591 C590 1.348 . S
C591 C593 1.353 . S
C591 H632 0.929 . S
C592 C590 1.356 . S
C592 C594 1.358 . S
C592 H633 0.930 . S
C593 C591 1.353 . S
C593 N595 1.314 . S
C593 H634 0.930 . S
C594 C592 1.358 . S
C594 N595 1.279 . S
C594 H635 0.930 . S
N595 C593 1.314 . S
N595 C594 1.279 . S
C596 C598 1.353 . S
C596 N599 1.314 . S
C596 H602 0.930 . S
C597 N599 1.279 . S
C597 C600 1.358 . S
C597 H603 0.930 . S
C598 C596 1.353 . S
C598 C601 1.348 . S
C598 H636 0.929 . S
N599 Li554 1.990 . S
N599 C596 1.314 . S
N599 C597 1.279 . S
C600 C597 1.358 . S
C600 C601 1.356 . S
C600 H637 0.930 . S
C601 C598 1.348 . S
C601 C600 1.356 . S
H602 C596 0.930 . S
H603 C597 0.930 . S
C604 N605 1.314 . S
C604 C606 1.353 . S
C604 H610 0.930 . S
N605 Li555 1.990 . S
N605 C604 1.314 . S
N605 C608 1.279 . S
C606 C604 1.353 . S
C606 C609 1.348 . S
C606 H638 0.929 . S
C607 C608 1.358 . S
C607 C609 1.356 . S
C607 H639 0.930 . S
C608 N605 1.279 . S
C608 C607 1.358 . S
C608 H611 0.930 . S
C609 C606 1.348 . S
C609 C607 1.356 . S
H610 C604 0.930 . S
H611 C608 0.930 . S
O612 Li552 1.956 . S
O612 Li553 1.970 . S
O612 Li554 1.961 . S
O612 C556 1.325 . S
O613 Li552 1.970 . S
O613 Li553 1.956 . S
O613 Li555 1.961 . S
O613 C562 1.325 . S
O614 Li552 1.961 . S
O614 Li554 1.956 . S
O614 Li555 1.970 . S
O614 C584 1.325 . S
O615 Li553 1.961 . S
O615 Li554 1.970 . S
O615 Li555 1.956 . S
O615 C590 1.325 . S
H616 C558 0.929 . S
H617 C559 0.930 . S
H618 C560 0.930 . S
H619 C561 0.930 . S
H620 C563 0.930 . S
H621 C565 0.929 . S
H622 C566 0.930 . S
H623 C567 0.930 . S
H624 C570 0.930 . S
H625 C573 0.929 . S
H626 C578 0.929 . S
H627 C579 0.930 . S
H628 C586 0.929 . S
H629 C587 0.930 . S
H630 C588 0.930 . S
H631 C589 0.930 . S
H632 C591 0.929 . S
H633 C592 0.930 . S
H634 C593 0.930 . S
H635 C594 0.930 . S
H636 C598 0.929 . S
H637 C600 0.930 . S
H638 C606 0.929 . S
H639 C607 0.930 . S
Li640 N657 1.990 . S
Li640 O700 1.956 . S
Li640 O701 1.970 . S
Li640 O702 1.961 . S
Li641 N665 1.990 . S
Li641 O700 1.970 . S
Li641 O701 1.956 . S
Li641 O703 1.961 . S
Li642 N687 1.990 . S
Li642 O700 1.961 . S
Li642 O702 1.956 . S
Li642 O703 1.970 . S
Li643 N693 1.990 . S
Li643 O701 1.961 . S
Li643 O702 1.970 . S
Li643 O703 1.956 . S
C644 C646 1.348 . S
C644 C647 1.356 . S
C644 O700 1.325 . S
N645 C648 1.314 . S
N645 C649 1.279 . S
C646 C644 1.348 . S
C646 C648 1.353 . S
C646 H704 0.929 . S
C647 C644 1.356 . S
C647 C649 1.358 . S
C647 H705 0.930 . S
C648 N645 1.314 . S
C648 C646 1.353 . S
C648 H706 0.930 . S
C649 N645 1.279 . S
C649 C647 1.358 . S
C649 H707 0.930 . S
C650 C653 1.348 . S
C650 C654 1.356 . S
C650 O701 1.325 . S
C651 N652 1.279 . S
C651 C654 1.358 . S
C651 H708 0.930 . S
N652 C651 1.279 . S
N652 C655 1.314 . S
C653 C650 1.348 . S
C653 C655 1.353 . S
C653 H709 0.929 . S
C654 C650 1.356 . S
C654 C651 1.358 . S
C654 H710 0.930 . S
C655 N652 1.314 . S
C655 C653 1.353 . S
C655 H711 0.930 . S
C656 N657 1.314 . S
C656 C661 1.353 . S
C656 H662 0.930 . S
N657 Li640 1.990 . S
N657 C656 1.314 . S
N657 C659 1.279 . S
C658 C659 1.358 . S
C658 C660 1.356 . S
C658 H712 0.930 . S
C659 N657 1.279 . S
C659 C658 1.358 . S
C659 H663 0.930 . S
C660 C658 1.356 . S
C660 C661 1.348 . S
C661 C656 1.353 . S
C661 C660 1.348 . S
C661 H713 0.929 . S
H662 C656 0.930 . S
H663 C659 0.930 . S
C664 N665 1.314 . S
C664 C666 1.353 . S
C664 H670 0.930 . S
N665 Li641 1.990 . S
N665 C664 1.314 . S
N665 C668 1.279 . S
C666 C664 1.353 . S
C666 C669 1.348 . S
C666 H714 0.929 . S
C667 C668 1.358 . S
C667 C669 1.356 . S
C667 H715 0.930 . S
C668 N665 1.279 . S
C668 C667 1.358 . S
C668 H671 0.930 . S
C669 C666 1.348 . S
C669 C667 1.356 . S
H670 C664 0.930 . S
H671 C668 0.930 . S
C672 C674 1.348 . S
C672 C675 1.356 . S
C672 O702 1.325 . S
N673 C676 1.314 . S
N673 C677 1.279 . S
C674 C672 1.348 . S
C674 C676 1.353 . S
C674 H716 0.929 . S
C675 C672 1.356 . S
C675 C677 1.358 . S
C675 H717 0.930 . S
C676 N673 1.314 . S
C676 C674 1.353 . S
C676 H718 0.930 . S
C677 N673 1.279 . S
C677 C675 1.358 . S
C677 H719 0.930 . S
C678 C679 1.348 . S
C678 C680 1.356 . S
C678 O703 1.325 . S
C679 C678 1.348 . S
C679 C681 1.353 . S
C679 H720 0.929 . S
C680 C678 1.356 . S
C680 C682 1.358 . S
C680 H721 0.930 . S
C681 C679 1.353 . S
C681 N683 1.314 . S
C681 H722 0.930 . S
C682 C680 1.358 . S
C682 N683 1.279 . S
C682 H723 0.930 . S
N683 C681 1.314 . S
N683 C682 1.279 . S
C684 C686 1.353 . S
C684 N687 1.314 . S
C684 H690 0.930 . S
C685 N687 1.279 . S
C685 C688 1.358 . S
C685 H691 0.930 . S
C686 C684 1.353 . S
C686 C689 1.348 . S
C686 H724 0.929 . S
N687 Li642 1.990 . S
N687 C684 1.314 . S
N687 C685 1.279 . S
C688 C685 1.358 . S
C688 C689 1.356 . S
C688 H725 0.930 . S
C689 C686 1.348 . S
C689 C688 1.356 . S
H690 C684 0.930 . S
H691 C685 0.930 . S
C692 N693 1.314 . S
C692 C694 1.353 . S
C692 H698 0.930 . S
N693 Li643 1.990 . S
N693 C692 1.314 . S
N693 C696 1.279 . S
C694 C692 1.353 . S
C694 C697 1.348 . S
C694 H726 0.929 . S
C695 C696 1.358 . S
C695 C697 1.356 . S
C695 H727 0.930 . S
C696 N693 1.279 . S
C696 C695 1.358 . S
C696 H699 0.930 . S
C697 C694 1.348 . S
C697 C695 1.356 . S
H698 C692 0.930 . S
H699 C696 0.930 . S
O700 Li640 1.956 . S
O700 Li641 1.970 . S
O700 Li642 1.961 . S
O700 C644 1.325 . S
O701 Li640 1.970 . S
O701 Li641 1.956 . S
O701 Li643 1.961 . S
O701 C650 1.325 . S
O702 Li640 1.961 . S
O702 Li642 1.956 . S
O702 Li643 1.970 . S
O702 C672 1.325 . S
O703 Li641 1.961 . S
O703 Li642 1.970 . S
O703 Li643 1.956 . S
O703 C678 1.325 . S
H704 C646 0.929 . S
H705 C647 0.930 . S
H706 C648 0.930 . S
H707 C649 0.930 . S
H708 C651 0.930 . S
H709 C653 0.929 . S
H710 C654 0.930 . S
H711 C655 0.930 . S
H712 C658 0.930 . S
H713 C661 0.929 . S
H714 C666 0.929 . S
H715 C667 0.930 . S
H716 C674 0.929 . S
H717 C675 0.930 . S
H718 C676 0.930 . S
H719 C677 0.930 . S
H720 C679 0.929 . S
H721 C680 0.930 . S
H722 C681 0.930 . S
H723 C682 0.930 . S
H724 C686 0.929 . S
H725 C688 0.930 . S
H726 C694 0.929 . S
H727 C695 0.930 . S
Li728 N745 1.990 . S
Li728 O788 1.956 . S
Li728 O789 1.970 . S
Li728 O790 1.961 . S
Li729 N753 1.990 . S
Li729 O788 1.970 . S
Li729 O789 1.956 . S
Li729 O791 1.961 . S
Li730 N775 1.990 . S
Li730 O788 1.961 . S
Li730 O790 1.956 . S
Li730 O791 1.970 . S
Li731 N781 1.990 . S
Li731 O789 1.961 . S
Li731 O790 1.970 . S
Li731 O791 1.956 . S
C732 C734 1.348 . S
C732 C735 1.356 . S
C732 O788 1.325 . S
N733 C736 1.314 . S
N733 C737 1.279 . S
C734 C732 1.348 . S
C734 C736 1.353 . S
C734 H792 0.929 . S
C735 C732 1.356 . S
C735 C737 1.358 . S
C735 H793 0.930 . S
C736 N733 1.314 . S
C736 C734 1.353 . S
C736 H794 0.930 . S
C737 N733 1.279 . S
C737 C735 1.358 . S
C737 H795 0.930 . S
C738 C741 1.348 . S
C738 C742 1.356 . S
C738 O789 1.325 . S
C739 N740 1.279 . S
C739 C742 1.358 . S
C739 H796 0.930 . S
N740 C739 1.279 . S
N740 C743 1.314 . S
C741 C738 1.348 . S
C741 C743 1.353 . S
C741 H797 0.929 . S
C742 C738 1.356 . S
C742 C739 1.358 . S
C742 H798 0.930 . S
C743 N740 1.314 . S
C743 C741 1.353 . S
C743 H799 0.930 . S
C744 N745 1.314 . S
C744 C749 1.353 . S
C744 H750 0.930 . S
N745 Li728 1.990 . S
N745 C744 1.314 . S
N745 C747 1.279 . S
C746 C747 1.358 . S
C746 C748 1.356 . S
C746 H800 0.930 . S
C747 N745 1.279 . S
C747 C746 1.358 . S
C747 H751 0.930 . S
C748 C746 1.356 . S
C748 C749 1.348 . S
C749 C744 1.353 . S
C749 C748 1.348 . S
C749 H801 0.929 . S
H750 C744 0.930 . S
H751 C747 0.930 . S
C752 N753 1.314 . S
C752 C754 1.353 . S
C752 H758 0.930 . S
N753 Li729 1.990 . S
N753 C752 1.314 . S
N753 C756 1.279 . S
C754 C752 1.353 . S
C754 C757 1.348 . S
C754 H802 0.929 . S
C755 C756 1.358 . S
C755 C757 1.356 . S
C755 H803 0.930 . S
C756 N753 1.279 . S
C756 C755 1.358 . S
C756 H759 0.930 . S
C757 C754 1.348 . S
C757 C755 1.356 . S
H758 C752 0.930 . S
H759 C756 0.930 . S
C760 C762 1.348 . S
C760 C763 1.356 . S
C760 O790 1.325 . S
N761 C764 1.314 . S
N761 C765 1.279 . S
C762 C760 1.348 . S
C762 C764 1.353 . S
C762 H804 0.929 . S
C763 C760 1.356 . S
C763 C765 1.358 . S
C763 H805 0.930 . S
C764 N761 1.314 . S
C764 C762 1.353 . S
C764 H806 0.930 . S
C765 N761 1.279 . S
C765 C763 1.358 . S
C765 H807 0.930 . S
C766 C767 1.348 . S
C766 C768 1.356 . S
C766 O791 1.325 . S
C767 C766 1.348 . S
C767 C769 1.353 . S
C767 H808 0.929 . S
C768 C766 1.356 . S
C768 C770 1.358 . S
C768 H809 0.930 . S
C769 C767 1.353 . S
C769 N771 1.314 . S
C769 H810 0.930 . S
C770 C768 1.358 . S
C770 N771 1.279 . S
C770 H811 0.930 . S
N771 C769 1.314 . S
N771 C770 1.279 . S
C772 C774 1.353 . S
C772 N775 1.314 . S
C772 H778 0.930 . S
C773 N775 1.279 . S
C773 C776 1.358 . S
C773 H779 0.930 . S
C774 C772 1.353 . S
C774 C777 1.348 . S
C774 H812 0.929 . S
N775 Li730 1.990 . S
N775 C772 1.314 . S
N775 C773 1.279 . S
C776 C773 1.358 . S
C776 C777 1.356 . S
C776 H813 0.930 . S
C777 C774 1.348 . S
C777 C776 1.356 . S
H778 C772 0.930 . S
H779 C773 0.930 . S
C780 N781 1.314 . S
C780 C782 1.353 . S
C780 H786 0.930 . S
N781 Li731 1.990 . S
N781 C780 1.314 . S
N781 C784 1.279 . S
C782 C780 1.353 . S
C782 C785 1.348 . S
C782 H814 0.929 . S
C783 C784 1.358 . S
C783 C785 1.356 . S
C783 H815 0.930 . S
C784 N781 1.279 . S
C784 C783 1.358 . S
C784 H787 0.930 . S
C785 C782 1.348 . S
C785 C783 1.356 . S
H786 C780 0.930 . S
H787 C784 0.930 . S
O788 Li728 1.956 . S
O788 Li729 1.970 . S
O788 Li730 1.961 . S
O788 C732 1.325 . S
O789 Li728 1.970 . S
O789 Li729 1.956 . S
O789 Li731 1.961 . S
O789 C738 1.325 . S
O790 Li728 1.961 . S
O790 Li730 1.956 . S
O790 Li731 1.970 . S
O790 C760 1.325 . S
O791 Li729 1.961 . S
O791 Li730 1.970 . S
O791 Li731 1.956 . S
O791 C766 1.325 . S
H792 C734 0.929 . S
H793 C735 0.930 . S
H794 C736 0.930 . S
H795 C737 0.930 . S
H796 C739 0.930 . S
H797 C741 0.929 . S
H798 C742 0.930 . S
H799 C743 0.930 . S
H800 C746 0.930 . S
H801 C749 0.929 . S
H802 C754 0.929 . S
H803 C755 0.930 . S
H804 C762 0.929 . S
H805 C763 0.930 . S
H806 C764 0.930 . S
H807 C765 0.930 . S
H808 C767 0.929 . S
H809 C768 0.930 . S
H810 C769 0.930 . S
H811 C770 0.930 . S
H812 C774 0.929 . S
H813 C776 0.930 . S
H814 C782 0.929 . S
H815 C783 0.930 . S
C816 C817 1.349 . S
C816 C818 1.327 . S
C816 H841 0.950 . S
C817 C816 1.349 . S
C817 C833 1.349 . S
C818 C816 1.327 . S
C818 C837 1.429 . S
C818 H842 0.950 . S
C819 C836 1.574 . S
C819 C838 1.368 . S
C819 H843 0.949 . S
H820 C824 0.949 . S
C821 C822 1.349 . S
C821 C823 1.327 . S
C821 H844 0.950 . S
C822 C821 1.349 . S
C822 C834 1.349 . S
C823 C821 1.327 . S
C823 C839 1.429 . S
C823 H845 0.950 . S
C824 H820 0.949 . S
C824 C832 1.574 . S
C824 C840 1.368 . S
H825 C833 0.950 . S
H826 C831 0.950 . S
H827 C832 0.949 . S
H828 C834 0.950 . S
H829 C835 0.950 . S
H830 C836 0.949 . S
C831 H826 0.950 . S
C831 C833 1.327 . S
C831 C837 1.429 . S
C832 C824 1.574 . S
C832 H827 0.949 . S
C832 C838 1.368 . S
C833 C817 1.349 . S
C833 H825 0.950 . S
C833 C831 1.327 . S
C834 C822 1.349 . S
C834 H828 0.950 . S
C834 C835 1.327 . S
C835 H829 0.950 . S
C835 C834 1.327 . S
C835 C839 1.429 . S
C836 C819 1.574 . S
C836 H830 0.949 . S
C836 C840 1.368 . S
C837 C818 1.429 . S
C837 C831 1.429 . S
C837 C838 1.523 . S
C838 C819 1.368 . S
C838 C832 1.368 . S
C838 C837 1.523 . S
C839 C823 1.429 . S
C839 C835 1.429 . S
C839 C840 1.523 . S
C840 C824 1.368 . S
C840 C836 1.368 . S
C840 C839 1.523 . S
H841 C816 0.950 . S
H842 C818 0.950 . S
H843 C819 0.949 . S
H844 C821 0.950 . S
H845 C823 0.950 . S
C846 C847 1.349 . S
C846 C848 1.327 . S
C846 H871 0.950 . S
C847 C846 1.349 . S
C847 C863 1.349 . S
C848 C846 1.327 . S
C848 C867 1.429 . S
C848 H872 0.950 . S
C849 C866 1.574 . S
C849 C868 1.368 . S
C849 H873 0.949 . S
H850 C854 0.949 . S
C851 C852 1.349 . S
C851 C853 1.327 . S
C851 H874 0.950 . S
C852 C851 1.349 . S
C852 C864 1.349 . S
C853 C851 1.327 . S
C853 C869 1.429 . S
C853 H875 0.950 . S
C854 H850 0.949 . S
C854 C862 1.574 . S
C854 C870 1.368 . S
H855 C863 0.950 . S
H856 C861 0.950 . S
H857 C862 0.949 . S
H858 C864 0.950 . S
H859 C865 0.950 . S
H860 C866 0.949 . S
C861 H856 0.950 . S
C861 C863 1.327 . S
C861 C867 1.429 . S
C862 C854 1.574 . S
C862 H857 0.949 . S
C862 C868 1.368 . S
C863 C847 1.349 . S
C863 H855 0.950 . S
C863 C861 1.327 . S
C864 C852 1.349 . S
C864 H858 0.950 . S
C864 C865 1.327 . S
C865 H859 0.950 . S
C865 C864 1.327 . S
C865 C869 1.429 . S
C866 C849 1.574 . S
C866 H860 0.949 . S
C866 C870 1.368 . S
C867 C848 1.429 . S
C867 C861 1.429 . S
C867 C868 1.523 . S
C868 C849 1.368 . S
C868 C862 1.368 . S
C868 C867 1.523 . S
C869 C853 1.429 . S
C869 C865 1.429 . S
C869 C870 1.523 . S
C870 C854 1.368 . S
C870 C866 1.368 . S
C870 C869 1.523 . S
H871 C846 0.950 . S
H872 C848 0.950 . S
H873 C849 0.949 . S
H874 C851 0.950 . S
H875 C853 0.950 . S
C876 C877 1.349 . S
C876 C878 1.327 . S
C876 H901 0.950 . S
C877 C876 1.349 . S
C877 C893 1.349 . S
C878 C876 1.327 . S
C878 C897 1.429 . S
C878 H902 0.950 . S
C879 C896 1.574 . S
C879 C898 1.368 . S
C879 H903 0.949 . S
H880 C884 0.949 . S
C881 C882 1.349 . S
C881 C883 1.327 . S
C881 H904 0.950 . S
C882 C881 1.349 . S
C882 C894 1.349 . S
C883 C881 1.327 . S
C883 C899 1.429 . S
C883 H905 0.950 . S
C884 H880 0.949 . S
C884 C892 1.574 . S
C884 C900 1.368 . S
H885 C893 0.950 . S
H886 C891 0.950 . S
H887 C892 0.949 . S
H888 C894 0.950 . S
H889 C895 0.950 . S
H890 C896 0.949 . S
C891 H886 0.950 . S
C891 C893 1.327 . S
C891 C897 1.429 . S
C892 C884 1.574 . S
C892 H887 0.949 . S
C892 C898 1.368 . S
C893 C877 1.349 . S
C893 H885 0.950 . S
C893 C891 1.327 . S
C894 C882 1.349 . S
C894 H888 0.950 . S
C894 C895 1.327 . S
C895 H889 0.950 . S
C895 C894 1.327 . S
C895 C899 1.429 . S
C896 C879 1.574 . S
C896 H890 0.949 . S
C896 C900 1.368 . S
C897 C878 1.429 . S
C897 C891 1.429 . S
C897 C898 1.523 . S
C898 C879 1.368 . S
C898 C892 1.368 . S
C898 C897 1.523 . S
C899 C883 1.429 . S
C899 C895 1.429 . S
C899 C900 1.523 . S
C900 C884 1.368 . S
C900 C896 1.368 . S
C900 C899 1.523 . S
H901 C876 0.950 . S
H902 C878 0.950 . S
H903 C879 0.949 . S
H904 C881 0.950 . S
H905 C883 0.950 . S
C906 C907 1.349 . S
C906 C908 1.327 . S
C906 H931 0.950 . S
C907 C906 1.349 . S
C907 C923 1.349 . S
C908 C906 1.327 . S
C908 C927 1.429 . S
C908 H932 0.950 . S
C909 C926 1.574 . S
C909 C928 1.368 . S
C909 H933 0.949 . S
H910 C914 0.949 . S
C911 C912 1.349 . S
C911 C913 1.327 . S
C911 H934 0.950 . S
C912 C911 1.349 . S
C912 C924 1.349 . S
C913 C911 1.327 . S
C913 C929 1.429 . S
C913 H935 0.950 . S
C914 H910 0.949 . S
C914 C922 1.574 . S
C914 C930 1.368 . S
H915 C923 0.950 . S
H916 C921 0.950 . S
H917 C922 0.949 . S
H918 C924 0.950 . S
H919 C925 0.950 . S
H920 C926 0.949 . S
C921 H916 0.950 . S
C921 C923 1.327 . S
C921 C927 1.429 . S
C922 C914 1.574 . S
C922 H917 0.949 . S
C922 C928 1.368 . S
C923 C907 1.349 . S
C923 H915 0.950 . S
C923 C921 1.327 . S
C924 C912 1.349 . S
C924 H918 0.950 . S
C924 C925 1.327 . S
C925 H919 0.950 . S
C925 C924 1.327 . S
C925 C929 1.429 . S
C926 C909 1.574 . S
C926 H920 0.949 . S
C926 C930 1.368 . S
C927 C908 1.429 . S
C927 C921 1.429 . S
C927 C928 1.523 . S
C928 C909 1.368 . S
C928 C922 1.368 . S
C928 C927 1.523 . S
C929 C913 1.429 . S
C929 C925 1.429 . S
C929 C930 1.523 . S
C930 C914 1.368 . S
C930 C926 1.368 . S
C930 C929 1.523 . S
H931 C906 0.950 . S
H932 C908 0.950 . S
H933 C909 0.949 . S
H934 C911 0.950 . S
H935 C913 0.950 . S
C936 C937 1.349 . S
C936 C938 1.327 . S
C936 H961 0.950 . S
C937 C936 1.349 . S
C937 C953 1.349 . S
C938 C936 1.327 . S
C938 C957 1.429 . S
C938 H962 0.950 . S
C939 C956 1.574 . S
C939 C958 1.368 . S
C939 H963 0.949 . S
H940 C944 0.949 . S
C941 C942 1.349 . S
C941 C943 1.327 . S
C941 H964 0.950 . S
C942 C941 1.349 . S
C942 C954 1.349 . S
C943 C941 1.327 . S
C943 C959 1.429 . S
C943 H965 0.950 . S
C944 H940 0.949 . S
C944 C952 1.574 . S
C944 C960 1.368 . S
H945 C953 0.950 . S
H946 C951 0.950 . S
H947 C952 0.949 . S
H948 C954 0.950 . S
H949 C955 0.950 . S
H950 C956 0.949 . S
C951 H946 0.950 . S
C951 C953 1.327 . S
C951 C957 1.429 . S
C952 C944 1.574 . S
C952 H947 0.949 . S
C952 C958 1.368 . S
C953 C937 1.349 . S
C953 H945 0.950 . S
C953 C951 1.327 . S
C954 C942 1.349 . S
C954 H948 0.950 . S
C954 C955 1.327 . S
C955 H949 0.950 . S
C955 C954 1.327 . S
C955 C959 1.429 . S
C956 C939 1.574 . S
C956 H950 0.949 . S
C956 C960 1.368 . S
C957 C938 1.429 . S
C957 C951 1.429 . S
C957 C958 1.523 . S
C958 C939 1.368 . S
C958 C952 1.368 . S
C958 C957 1.523 . S
C959 C943 1.429 . S
C959 C955 1.429 . S
C959 C960 1.523 . S
C960 C944 1.368 . S
C960 C956 1.368 . S
C960 C959 1.523 . S
H961 C936 0.950 . S
H962 C938 0.950 . S
H963 C939 0.949 . S
H964 C941 0.950 . S
H965 C943 0.950 . S
C966 C967 1.349 . S
C966 C968 1.327 . S
C966 H991 0.950 . S
C967 C966 1.349 . S
C967 C983 1.349 . S
C968 C966 1.327 . S
C968 C987 1.429 . S
C968 H992 0.950 . S
C969 C986 1.574 . S
C969 C988 1.368 . S
C969 H993 0.949 . S
H970 C974 0.949 . S
C971 C972 1.349 . S
C971 C973 1.327 . S
C971 H994 0.950 . S
C972 C971 1.349 . S
C972 C984 1.349 . S
C973 C971 1.327 . S
C973 C989 1.429 . S
C973 H995 0.950 . S
C974 H970 0.949 . S
C974 C982 1.574 . S
C974 C990 1.368 . S
H975 C983 0.950 . S
H976 C981 0.950 . S
H977 C982 0.949 . S
H978 C984 0.950 . S
H979 C985 0.950 . S
H980 C986 0.949 . S
C981 H976 0.950 . S
C981 C983 1.327 . S
C981 C987 1.429 . S
C982 C974 1.574 . S
C982 H977 0.949 . S
C982 C988 1.368 . S
C983 C967 1.349 . S
C983 H975 0.950 . S
C983 C981 1.327 . S
C984 C972 1.349 . S
C984 H978 0.950 . S
C984 C985 1.327 . S
C985 H979 0.950 . S
C985 C984 1.327 . S
C985 C989 1.429 . S
C986 C969 1.574 . S
C986 H980 0.949 . S
C986 C990 1.368 . S
C987 C968 1.429 . S
C987 C981 1.429 . S
C987 C988 1.523 . S
C988 C969 1.368 . S
C988 C982 1.368 . S
C988 C987 1.523 . S
C989 C973 1.429 . S
C989 C985 1.429 . S
C989 C990 1.523 . S
C990 C974 1.368 . S
C990 C986 1.368 . S
C990 C989 1.523 . S
H991 C966 0.950 . S
H992 C968 0.950 . S
H993 C969 0.949 . S
H994 C971 0.950 . S
H995 C973 0.950 . S
C996 C997 1.349 . S
C996 C998 1.327 . S
C996 H1021 0.950 . S
C997 C996 1.349 . S
C997 C1013 1.349 . S
C998 C996 1.327 . S
C998 C1017 1.429 . S
C998 H1022 0.950 . S
C999 C1016 1.574 . S
C999 C1018 1.368 . S
C999 H1023 0.949 . S
H1000 C1004 0.949 . S
C1001 C1002 1.349 . S
C1001 C1003 1.327 . S
C1001 H1024 0.950 . S
C1002 C1001 1.349 . S
C1002 C1014 1.349 . S
C1003 C1001 1.327 . S
C1003 C1019 1.429 . S
C1003 H1025 0.950 . S
C1004 H1000 0.949 . S
C1004 C1012 1.574 . S
C1004 C1020 1.368 . S
H1005 C1013 0.950 . S
H1006 C1011 0.950 . S
H1007 C1012 0.949 . S
H1008 C1014 0.950 . S
H1009 C1015 0.950 . S
H1010 C1016 0.949 . S
C1011 H1006 0.950 . S
C1011 C1013 1.327 . S
C1011 C1017 1.429 . S
C1012 C1004 1.574 . S
C1012 H1007 0.949 . S
C1012 C1018 1.368 . S
C1013 C997 1.349 . S
C1013 H1005 0.950 . S
C1013 C1011 1.327 . S
C1014 C1002 1.349 . S
C1014 H1008 0.950 . S
C1014 C1015 1.327 . S
C1015 H1009 0.950 . S
C1015 C1014 1.327 . S
C1015 C1019 1.429 . S
C1016 C999 1.574 . S
C1016 H1010 0.949 . S
C1016 C1020 1.368 . S
C1017 C998 1.429 . S
C1017 C1011 1.429 . S
C1017 C1018 1.523 . S
C1018 C999 1.368 . S
C1018 C1012 1.368 . S
C1018 C1017 1.523 . S
C1019 C1003 1.429 . S
C1019 C1015 1.429 . S
C1019 C1020 1.523 . S
C1020 C1004 1.368 . S
C1020 C1016 1.368 . S
C1020 C1019 1.523 . S
H1021 C996 0.950 . S
H1022 C998 0.950 . S
H1023 C999 0.949 . S
H1024 C1001 0.950 . S
H1025 C1003 0.950 . S
C1026 C1027 1.349 . S
C1026 C1028 1.327 . S
C1026 H1051 0.950 . S
C1027 C1026 1.349 . S
C1027 C1043 1.349 . S
C1028 C1026 1.327 . S
C1028 C1047 1.429 . S
C1028 H1052 0.950 . S
C1029 C1046 1.574 . S
C1029 C1048 1.368 . S
C1029 H1053 0.949 . S
H1030 C1034 0.949 . S
C1031 C1032 1.349 . S
C1031 C1033 1.327 . S
C1031 H1054 0.950 . S
C1032 C1031 1.349 . S
C1032 C1044 1.349 . S
C1033 C1031 1.327 . S
C1033 C1049 1.429 . S
C1033 H1055 0.950 . S
C1034 H1030 0.949 . S
C1034 C1042 1.574 . S
C1034 C1050 1.368 . S
H1035 C1043 0.950 . S
H1036 C1041 0.950 . S
H1037 C1042 0.949 . S
H1038 C1044 0.950 . S
H1039 C1045 0.950 . S
H1040 C1046 0.949 . S
C1041 H1036 0.950 . S
C1041 C1043 1.327 . S
C1041 C1047 1.429 . S
C1042 C1034 1.574 . S
C1042 H1037 0.949 . S
C1042 C1048 1.368 . S
C1043 C1027 1.349 . S
C1043 H1035 0.950 . S
C1043 C1041 1.327 . S
C1044 C1032 1.349 . S
C1044 H1038 0.950 . S
C1044 C1045 1.327 . S
C1045 H1039 0.950 . S
C1045 C1044 1.327 . S
C1045 C1049 1.429 . S
C1046 C1029 1.574 . S
C1046 H1040 0.949 . S
C1046 C1050 1.368 . S
C1047 C1028 1.429 . S
C1047 C1041 1.429 . S
C1047 C1048 1.523 . S
C1048 C1029 1.368 . S
C1048 C1042 1.368 . S
C1048 C1047 1.523 . S
C1049 C1033 1.429 . S
C1049 C1045 1.429 . S
C1049 C1050 1.523 . S
C1050 C1034 1.368 . S
C1050 C1046 1.368 . S
C1050 C1049 1.523 . S
H1051 C1026 0.950 . S
H1052 C1028 0.950 . S
H1053 C1029 0.949 . S
H1054 C1031 0.950 . S
H1055 C1033 0.950 . S
C1056 C1057 1.349 . S
C1056 C1058 1.327 . S
C1056 H1081 0.950 . S
C1057 C1056 1.349 . S
C1057 C1073 1.349 . S
C1058 C1056 1.327 . S
C1058 C1077 1.429 . S
C1058 H1082 0.950 . S
C1059 C1076 1.574 . S
C1059 C1078 1.368 . S
C1059 H1083 0.949 . S
H1060 C1064 0.949 . S
C1061 C1062 1.349 . S
C1061 C1063 1.327 . S
C1061 H1084 0.950 . S
C1062 C1061 1.349 . S
C1062 C1074 1.349 . S
C1063 C1061 1.327 . S
C1063 C1079 1.429 . S
C1063 H1085 0.950 . S
C1064 H1060 0.949 . S
C1064 C1072 1.574 . S
C1064 C1080 1.368 . S
H1065 C1073 0.950 . S
H1066 C1071 0.950 . S
H1067 C1072 0.949 . S
H1068 C1074 0.950 . S
H1069 C1075 0.950 . S
H1070 C1076 0.949 . S
C1071 H1066 0.950 . S
C1071 C1073 1.327 . S
C1071 C1077 1.429 . S
C1072 C1064 1.574 . S
C1072 H1067 0.949 . S
C1072 C1078 1.368 . S
C1073 C1057 1.349 . S
C1073 H1065 0.950 . S
C1073 C1071 1.327 . S
C1074 C1062 1.349 . S
C1074 H1068 0.950 . S
C1074 C1075 1.327 . S
C1075 H1069 0.950 . S
C1075 C1074 1.327 . S
C1075 C1079 1.429 . S
C1076 C1059 1.574 . S
C1076 H1070 0.949 . S
C1076 C1080 1.368 . S
C1077 C1058 1.429 . S
C1077 C1071 1.429 . S
C1077 C1078 1.523 . S
C1078 C1059 1.368 . S
C1078 C1072 1.368 . S
C1078 C1077 1.523 . S
C1079 C1063 1.429 . S
C1079 C1075 1.429 . S
C1079 C1080 1.523 . S
C1080 C1064 1.368 . S
C1080 C1076 1.368 . S
C1080 C1079 1.523 . S
H1081 C1056 0.950 . S
H1082 C1058 0.950 . S
H1083 C1059 0.949 . S
H1084 C1061 0.950 . S
H1085 C1063 0.950 . S
C1086 C1087 1.349 . S
C1086 C1088 1.327 . S
C1086 H1111 0.950 . S
C1087 C1086 1.349 . S
C1087 C1103 1.349 . S
C1088 C1086 1.327 . S
C1088 C1107 1.429 . S
C1088 H1112 0.950 . S
C1089 C1106 1.574 . S
C1089 C1108 1.368 . S
C1089 H1113 0.949 . S
H1090 C1094 0.949 . S
C1091 C1092 1.349 . S
C1091 C1093 1.327 . S
C1091 H1114 0.950 . S
C1092 C1091 1.349 . S
C1092 C1104 1.349 . S
C1093 C1091 1.327 . S
C1093 C1109 1.429 . S
C1093 H1115 0.950 . S
C1094 H1090 0.949 . S
C1094 C1102 1.574 . S
C1094 C1110 1.368 . S
H1095 C1103 0.950 . S
H1096 C1101 0.950 . S
H1097 C1102 0.949 . S
H1098 C1104 0.950 . S
H1099 C1105 0.950 . S
H1100 C1106 0.949 . S
C1101 H1096 0.950 . S
C1101 C1103 1.327 . S
C1101 C1107 1.429 . S
C1102 C1094 1.574 . S
C1102 H1097 0.949 . S
C1102 C1108 1.368 . S
C1103 C1087 1.349 . S
C1103 H1095 0.950 . S
C1103 C1101 1.327 . S
C1104 C1092 1.349 . S
C1104 H1098 0.950 . S
C1104 C1105 1.327 . S
C1105 H1099 0.950 . S
C1105 C1104 1.327 . S
C1105 C1109 1.429 . S
C1106 C1089 1.574 . S
C1106 H1100 0.949 . S
C1106 C1110 1.368 . S
C1107 C1088 1.429 . S
C1107 C1101 1.429 . S
C1107 C1108 1.523 . S
C1108 C1089 1.368 . S
C1108 C1102 1.368 . S
C1108 C1107 1.523 . S
C1109 C1093 1.429 . S
C1109 C1105 1.429 . S
C1109 C1110 1.523 . S
C1110 C1094 1.368 . S
C1110 C1106 1.368 . S
C1110 C1109 1.523 . S
H1111 C1086 0.950 . S
H1112 C1088 0.950 . S
H1113 C1089 0.949 . S
H1114 C1091 0.950 . S
H1115 C1093 0.950 . S
C1116 C1117 1.349 . S
C1116 C1118 1.327 . S
C1116 H1141 0.950 . S
C1117 C1116 1.349 . S
C1117 C1133 1.349 . S
C1118 C1116 1.327 . S
C1118 C1137 1.429 . S
C1118 H1142 0.950 . S
C1119 C1136 1.574 . S
C1119 C1138 1.368 . S
C1119 H1143 0.949 . S
H1120 C1124 0.949 . S
C1121 C1122 1.349 . S
C1121 C1123 1.327 . S
C1121 H1144 0.950 . S
C1122 C1121 1.349 . S
C1122 C1134 1.349 . S
C1123 C1121 1.327 . S
C1123 C1139 1.429 . S
C1123 H1145 0.950 . S
C1124 H1120 0.949 . S
C1124 C1132 1.574 . S
C1124 C1140 1.368 . S
H1125 C1133 0.950 . S
H1126 C1131 0.950 . S
H1127 C1132 0.949 . S
H1128 C1134 0.950 . S
H1129 C1135 0.950 . S
H1130 C1136 0.949 . S
C1131 H1126 0.950 . S
C1131 C1133 1.327 . S
C1131 C1137 1.429 . S
C1132 C1124 1.574 . S
C1132 H1127 0.949 . S
C1132 C1138 1.368 . S
C1133 C1117 1.349 . S
C1133 H1125 0.950 . S
C1133 C1131 1.327 . S
C1134 C1122 1.349 . S
C1134 H1128 0.950 . S
C1134 C1135 1.327 . S
C1135 H1129 0.950 . S
C1135 C1134 1.327 . S
C1135 C1139 1.429 . S
C1136 C1119 1.574 . S
C1136 H1130 0.949 . S
C1136 C1140 1.368 . S
C1137 C1118 1.429 . S
C1137 C1131 1.429 . S
C1137 C1138 1.523 . S
C1138 C1119 1.368 . S
C1138 C1132 1.368 . S
C1138 C1137 1.523 . S
C1139 C1123 1.429 . S
C1139 C1135 1.429 . S
C1139 C1140 1.523 . S
C1140 C1124 1.368 . S
C1140 C1136 1.368 . S
C1140 C1139 1.523 . S
H1141 C1116 0.950 . S
H1142 C1118 0.950 . S
H1143 C1119 0.949 . S
H1144 C1121 0.950 . S
H1145 C1123 0.950 . S
C1146 C1147 1.349 . S
C1146 C1148 1.327 . S
C1146 H1171 0.950 . S
C1147 C1146 1.349 . S
C1147 C1163 1.349 . S
C1148 C1146 1.327 . S
C1148 C1167 1.429 . S
C1148 H1172 0.950 . S
C1149 C1166 1.574 . S
C1149 C1168 1.368 . S
C1149 H1173 0.949 . S
H1150 C1154 0.949 . S
C1151 C1152 1.349 . S
C1151 C1153 1.327 . S
C1151 H1174 0.950 . S
C1152 C1151 1.349 . S
C1152 C1164 1.349 . S
C1153 C1151 1.327 . S
C1153 C1169 1.429 . S
C1153 H1175 0.950 . S
C1154 H1150 0.949 . S
C1154 C1162 1.574 . S
C1154 C1170 1.368 . S
H1155 C1163 0.950 . S
H1156 C1161 0.950 . S
H1157 C1162 0.949 . S
H1158 C1164 0.950 . S
H1159 C1165 0.950 . S
H1160 C1166 0.949 . S
C1161 H1156 0.950 . S
C1161 C1163 1.327 . S
C1161 C1167 1.429 . S
C1162 C1154 1.574 . S
C1162 H1157 0.949 . S
C1162 C1168 1.368 . S
C1163 C1147 1.349 . S
C1163 H1155 0.950 . S
C1163 C1161 1.327 . S
C1164 C1152 1.349 . S
C1164 H1158 0.950 . S
C1164 C1165 1.327 . S
C1165 H1159 0.950 . S
C1165 C1164 1.327 . S
C1165 C1169 1.429 . S
C1166 C1149 1.574 . S
C1166 H1160 0.949 . S
C1166 C1170 1.368 . S
C1167 C1148 1.429 . S
C1167 C1161 1.429 . S
C1167 C1168 1.523 . S
C1168 C1149 1.368 . S
C1168 C1162 1.368 . S
C1168 C1167 1.523 . S
C1169 C1153 1.429 . S
C1169 C1165 1.429 . S
C1169 C1170 1.523 . S
C1170 C1154 1.368 . S
C1170 C1166 1.368 . S
C1170 C1169 1.523 . S
H1171 C1146 0.950 . S
H1172 C1148 0.950 . S
H1173 C1149 0.949 . S
H1174 C1151 0.950 . S
H1175 C1153 0.950 . S
C1176 C1177 1.349 . S
C1176 C1178 1.327 . S
C1176 H1201 0.950 . S
C1177 C1176 1.349 . S
C1177 C1193 1.349 . S
C1178 C1176 1.327 . S
C1178 C1197 1.429 . S
C1178 H1202 0.950 . S
C1179 C1196 1.574 . S
C1179 C1198 1.368 . S
C1179 H1203 0.949 . S
H1180 C1184 0.949 . S
C1181 C1182 1.349 . S
C1181 C1183 1.327 . S
C1181 H1204 0.950 . S
C1182 C1181 1.349 . S
C1182 C1194 1.349 . S
C1183 C1181 1.327 . S
C1183 C1199 1.429 . S
C1183 H1205 0.950 . S
C1184 H1180 0.949 . S
C1184 C1192 1.574 . S
C1184 C1200 1.368 . S
H1185 C1193 0.950 . S
H1186 C1191 0.950 . S
H1187 C1192 0.949 . S
H1188 C1194 0.950 . S
H1189 C1195 0.950 . S
H1190 C1196 0.949 . S
C1191 H1186 0.950 . S
C1191 C1193 1.327 . S
C1191 C1197 1.429 . S
C1192 C1184 1.574 . S
C1192 H1187 0.949 . S
C1192 C1198 1.368 . S
C1193 C1177 1.349 . S
C1193 H1185 0.950 . S
C1193 C1191 1.327 . S
C1194 C1182 1.349 . S
C1194 H1188 0.950 . S
C1194 C1195 1.327 . S
C1195 H1189 0.950 . S
C1195 C1194 1.327 . S
C1195 C1199 1.429 . S
C1196 C1179 1.574 . S
C1196 H1190 0.949 . S
C1196 C1200 1.368 . S
C1197 C1178 1.429 . S
C1197 C1191 1.429 . S
C1197 C1198 1.523 . S
C1198 C1179 1.368 . S
C1198 C1192 1.368 . S
C1198 C1197 1.523 . S
C1199 C1183 1.429 . S
C1199 C1195 1.429 . S
C1199 C1200 1.523 . S
C1200 C1184 1.368 . S
C1200 C1196 1.368 . S
C1200 C1199 1.523 . S
H1201 C1176 0.950 . S
H1202 C1178 0.950 . S
H1203 C1179 0.949 . S
H1204 C1181 0.950 . S
H1205 C1183 0.950 . S
C1206 C1207 1.349 . S
C1206 C1208 1.327 . S
C1206 H1231 0.950 . S
C1207 C1206 1.349 . S
C1207 C1223 1.349 . S
C1208 C1206 1.327 . S
C1208 C1227 1.429 . S
C1208 H1232 0.950 . S
C1209 C1226 1.574 . S
C1209 C1228 1.368 . S
C1209 H1233 0.949 . S
H1210 C1214 0.949 . S
C1211 C1212 1.349 . S
C1211 C1213 1.327 . S
C1211 H1234 0.950 . S
C1212 C1211 1.349 . S
C1212 C1224 1.349 . S
C1213 C1211 1.327 . S
C1213 C1229 1.429 . S
C1213 H1235 0.950 . S
C1214 H1210 0.949 . S
C1214 C1222 1.574 . S
C1214 C1230 1.368 . S
H1215 C1223 0.950 . S
H1216 C1221 0.950 . S
H1217 C1222 0.949 . S
H1218 C1224 0.950 . S
H1219 C1225 0.950 . S
H1220 C1226 0.949 . S
C1221 H1216 0.950 . S
C1221 C1223 1.327 . S
C1221 C1227 1.429 . S
C1222 C1214 1.574 . S
C1222 H1217 0.949 . S
C1222 C1228 1.368 . S
C1223 C1207 1.349 . S
C1223 H1215 0.950 . S
C1223 C1221 1.327 . S
C1224 C1212 1.349 . S
C1224 H1218 0.950 . S
C1224 C1225 1.327 . S
C1225 H1219 0.950 . S
C1225 C1224 1.327 . S
C1225 C1229 1.429 . S
C1226 C1209 1.574 . S
C1226 H1220 0.949 . S
C1226 C1230 1.368 . S
C1227 C1208 1.429 . S
C1227 C1221 1.429 . S
C1227 C1228 1.523 . S
C1228 C1209 1.368 . S
C1228 C1222 1.368 . S
C1228 C1227 1.523 . S
C1229 C1213 1.429 . S
C1229 C1225 1.429 . S
C1229 C1230 1.523 . S
C1230 C1214 1.368 . S
C1230 C1226 1.368 . S
C1230 C1229 1.523 . S
H1231 C1206 0.950 . S
H1232 C1208 0.950 . S
H1233 C1209 0.949 . S
H1234 C1211 0.950 . S
H1235 C1213 0.950 . S
C1236 C1237 1.349 . S
C1236 C1238 1.327 . S
C1236 H1261 0.950 . S
C1237 C1236 1.349 . S
C1237 C1253 1.349 . S
C1238 C1236 1.327 . S
C1238 C1257 1.429 . S
C1238 H1262 0.950 . S
C1239 C1256 1.574 . S
C1239 C1258 1.368 . S
C1239 H1263 0.949 . S
H1240 C1244 0.949 . S
C1241 C1242 1.349 . S
C1241 C1243 1.327 . S
C1241 H1264 0.950 . S
C1242 C1241 1.349 . S
C1242 C1254 1.349 . S
C1243 C1241 1.327 . S
C1243 C1259 1.429 . S
C1243 H1265 0.950 . S
C1244 H1240 0.949 . S
C1244 C1252 1.574 . S
C1244 C1260 1.368 . S
H1245 C1253 0.950 . S
H1246 C1251 0.950 . S
H1247 C1252 0.949 . S
H1248 C1254 0.950 . S
H1249 C1255 0.950 . S
H1250 C1256 0.949 . S
C1251 H1246 0.950 . S
C1251 C1253 1.327 . S
C1251 C1257 1.429 . S
C1252 C1244 1.574 . S
C1252 H1247 0.949 . S
C1252 C1258 1.368 . S
C1253 C1237 1.349 . S
C1253 H1245 0.950 . S
C1253 C1251 1.327 . S
C1254 C1242 1.349 . S
C1254 H1248 0.950 . S
C1254 C1255 1.327 . S
C1255 H1249 0.950 . S
C1255 C1254 1.327 . S
C1255 C1259 1.429 . S
C1256 C1239 1.574 . S
C1256 H1250 0.949 . S
C1256 C1260 1.368 . S
C1257 C1238 1.429 . S
C1257 C1251 1.429 . S
C1257 C1258 1.523 . S
C1258 C1239 1.368 . S
C1258 C1252 1.368 . S
C1258 C1257 1.523 . S
C1259 C1243 1.429 . S
C1259 C1255 1.429 . S
C1259 C1260 1.523 . S
C1260 C1244 1.368 . S
C1260 C1256 1.368 . S
C1260 C1259 1.523 . S
H1261 C1236 0.950 . S
H1262 C1238 0.950 . S
H1263 C1239 0.949 . S
H1264 C1241 0.950 . S
H1265 C1243 0.950 . S
C1266 C1267 1.349 . S
C1266 C1268 1.327 . S
C1266 H1291 0.950 . S
C1267 C1266 1.349 . S
C1267 C1283 1.349 . S
C1268 C1266 1.327 . S
C1268 C1287 1.429 . S
C1268 H1292 0.950 . S
C1269 C1286 1.574 . S
C1269 C1288 1.368 . S
C1269 H1293 0.949 . S
H1270 C1274 0.949 . S
C1271 C1272 1.349 . S
C1271 C1273 1.327 1_554 S
C1271 H1294 0.950 . S
C1272 C1271 1.349 . S
C1272 C1284 1.349 1_554 S
C1273 C1271 1.327 1_556 S
C1273 C1289 1.429 . S
C1273 H1295 0.950 . S
C1274 H1270 0.949 . S
C1274 C1282 1.574 . S
C1274 C1290 1.368 . S
H1275 C1283 0.950 . S
H1276 C1281 0.950 . S
H1277 C1282 0.949 . S
H1278 C1284 0.950 . S
H1279 C1285 0.950 . S
H1280 C1286 0.949 . S
C1281 H1276 0.950 . S
C1281 C1283 1.327 . S
C1281 C1287 1.429 . S
C1282 C1274 1.574 . S
C1282 H1277 0.949 . S
C1282 C1288 1.368 . S
C1283 C1267 1.349 . S
C1283 H1275 0.950 . S
C1283 C1281 1.327 . S
C1284 C1272 1.349 1_556 S
C1284 H1278 0.950 . S
C1284 C1285 1.327 . S
C1285 H1279 0.950 . S
C1285 C1284 1.327 . S
C1285 C1289 1.429 . S
C1286 C1269 1.574 . S
C1286 H1280 0.949 . S
C1286 C1290 1.368 . S
C1287 C1268 1.429 . S
C1287 C1281 1.429 . S
C1287 C1288 1.523 . S
C1288 C1269 1.368 . S
C1288 C1282 1.368 . S
C1288 C1287 1.523 . S
C1289 C1273 1.429 . S
C1289 C1285 1.429 . S
C1289 C1290 1.523 . S
C1290 C1274 1.368 . S
C1290 C1286 1.368 . S
C1290 C1289 1.523 . S
H1291 C1266 0.950 . S
H1292 C1268 0.950 . S
H1293 C1269 0.949 . S
H1294 C1271 0.950 . S
H1295 C1273 0.950 . S
C1296 C1297 1.349 . S
C1296 C1298 1.327 . S
C1296 H1321 0.950 . S
C1297 C1296 1.349 . S
C1297 C1313 1.349 . S
C1298 C1296 1.327 . S
C1298 C1317 1.429 . S
C1298 H1322 0.950 . S
C1299 C1316 1.574 . S
C1299 C1318 1.368 . S
C1299 H1323 0.949 . S
H1300 C1304 0.949 . S
C1301 C1302 1.349 . S
C1301 C1303 1.327 . S
C1301 H1324 0.950 . S
C1302 C1301 1.349 . S
C1302 C1314 1.349 . S
C1303 C1301 1.327 . S
C1303 C1319 1.429 . S
C1303 H1325 0.950 . S
C1304 H1300 0.949 . S
C1304 C1312 1.574 . S
C1304 C1320 1.368 . S
H1305 C1313 0.950 . S
H1306 C1311 0.950 . S
H1307 C1312 0.949 . S
H1308 C1314 0.950 . S
H1309 C1315 0.950 . S
H1310 C1316 0.949 . S
C1311 H1306 0.950 . S
C1311 C1313 1.327 . S
C1311 C1317 1.429 . S
C1312 C1304 1.574 . S
C1312 H1307 0.949 . S
C1312 C1318 1.368 . S
C1313 C1297 1.349 . S
C1313 H1305 0.950 . S
C1313 C1311 1.327 . S
C1314 C1302 1.349 . S
C1314 H1308 0.950 . S
C1314 C1315 1.327 . S
C1315 H1309 0.950 . S
C1315 C1314 1.327 . S
C1315 C1319 1.429 . S
C1316 C1299 1.574 . S
C1316 H1310 0.949 . S
C1316 C1320 1.368 . S
C1317 C1298 1.429 . S
C1317 C1311 1.429 . S
C1317 C1318 1.523 . S
C1318 C1299 1.368 . S
C1318 C1312 1.368 . S
C1318 C1317 1.523 . S
C1319 C1303 1.429 . S
C1319 C1315 1.429 . S
C1319 C1320 1.523 . S
C1320 C1304 1.368 . S
C1320 C1316 1.368 . S
C1320 C1319 1.523 . S
H1321 C1296 0.950 . S
H1322 C1298 0.950 . S
H1323 C1299 0.949 . S
H1324 C1301 0.950 . S
H1325 C1303 0.950 . S
C1326 C1327 1.349 . S
C1326 C1328 1.327 . S
C1326 H1351 0.950 . S
C1327 C1326 1.349 . S
C1327 C1343 1.349 . S
C1328 C1326 1.327 . S
C1328 C1347 1.429 . S
C1328 H1352 0.950 . S
C1329 C1346 1.574 . S
C1329 C1348 1.368 . S
C1329 H1353 0.949 . S
H1330 C1334 0.949 . S
C1331 C1332 1.349 . S
C1331 C1333 1.327 . S
C1331 H1354 0.950 . S
C1332 C1331 1.349 . S
C1332 C1344 1.349 . S
C1333 C1331 1.327 . S
C1333 C1349 1.429 . S
C1333 H1355 0.950 . S
C1334 H1330 0.949 . S
C1334 C1342 1.574 . S
C1334 C1350 1.368 . S
H1335 C1343 0.950 . S
H1336 C1341 0.950 . S
H1337 C1342 0.949 . S
H1338 C1344 0.950 . S
H1339 C1345 0.950 . S
H1340 C1346 0.949 . S
C1341 H1336 0.950 . S
C1341 C1343 1.327 . S
C1341 C1347 1.429 . S
C1342 C1334 1.574 . S
C1342 H1337 0.949 . S
C1342 C1348 1.368 . S
C1343 C1327 1.349 . S
C1343 H1335 0.950 . S
C1343 C1341 1.327 . S
C1344 C1332 1.349 . S
C1344 H1338 0.950 . S
C1344 C1345 1.327 . S
C1345 H1339 0.950 . S
C1345 C1344 1.327 . S
C1345 C1349 1.429 . S
C1346 C1329 1.574 . S
C1346 H1340 0.949 . S
C1346 C1350 1.368 . S
C1347 C1328 1.429 . S
C1347 C1341 1.429 . S
C1347 C1348 1.523 . S
C1348 C1329 1.368 . S
C1348 C1342 1.368 . S
C1348 C1347 1.523 . S
C1349 C1333 1.429 . S
C1349 C1345 1.429 . S
C1349 C1350 1.523 . S
C1350 C1334 1.368 . S
C1350 C1346 1.368 . S
C1350 C1349 1.523 . S
H1351 C1326 0.950 . S
H1352 C1328 0.950 . S
H1353 C1329 0.949 . S
H1354 C1331 0.950 . S
H1355 C1333 0.950 . S
C1356 C1357 1.349 . S
C1356 C1358 1.327 . S
C1356 H1381 0.950 . S
C1357 C1356 1.349 . S
C1357 C1373 1.349 . S
C1358 C1356 1.327 . S
C1358 C1377 1.429 . S
C1358 H1382 0.950 . S
C1359 C1376 1.574 . S
C1359 C1378 1.368 . S
C1359 H1383 0.949 . S
H1360 C1364 0.949 . S
C1361 C1362 1.349 . S
C1361 C1363 1.327 . S
C1361 H1384 0.950 . S
C1362 C1361 1.349 . S
C1362 C1374 1.349 . S
C1363 C1361 1.327 . S
C1363 C1379 1.429 . S
C1363 H1385 0.950 . S
C1364 H1360 0.949 . S
C1364 C1372 1.574 . S
C1364 C1380 1.368 . S
H1365 C1373 0.950 . S
H1366 C1371 0.950 . S
H1367 C1372 0.949 . S
H1368 C1374 0.950 . S
H1369 C1375 0.950 . S
H1370 C1376 0.949 . S
C1371 H1366 0.950 . S
C1371 C1373 1.327 . S
C1371 C1377 1.429 . S
C1372 C1364 1.574 . S
C1372 H1367 0.949 . S
C1372 C1378 1.368 . S
C1373 C1357 1.349 . S
C1373 H1365 0.950 . S
C1373 C1371 1.327 . S
C1374 C1362 1.349 . S
C1374 H1368 0.950 . S
C1374 C1375 1.327 . S
C1375 H1369 0.950 . S
C1375 C1374 1.327 . S
C1375 C1379 1.429 . S
C1376 C1359 1.574 . S
C1376 H1370 0.949 . S
C1376 C1380 1.368 . S
C1377 C1358 1.429 . S
C1377 C1371 1.429 . S
C1377 C1378 1.523 . S
C1378 C1359 1.368 . S
C1378 C1372 1.368 . S
C1378 C1377 1.523 . S
C1379 C1363 1.429 . S
C1379 C1375 1.429 . S
C1379 C1380 1.523 . S
C1380 C1364 1.368 . S
C1380 C1376 1.368 . S
C1380 C1379 1.523 . S
H1381 C1356 0.950 . S
H1382 C1358 0.950 . S
H1383 C1359 0.949 . S
H1384 C1361 0.950 . S
H1385 C1363 0.950 . S
C1386 C1387 1.349 . S
C1386 C1388 1.327 . S
C1386 H1411 0.950 . S
C1387 C1386 1.349 . S
C1387 C1403 1.349 . S
C1388 C1386 1.327 . S
C1388 C1407 1.429 . S
C1388 H1412 0.950 . S
C1389 C1406 1.574 . S
C1389 C1408 1.368 . S
C1389 H1413 0.949 . S
H1390 C1394 0.949 . S
C1391 C1392 1.349 . S
C1391 C1393 1.327 . S
C1391 H1414 0.950 . S
C1392 C1391 1.349 . S
C1392 C1404 1.349 . S
C1393 C1391 1.327 . S
C1393 C1409 1.429 . S
C1393 H1415 0.950 . S
C1394 H1390 0.949 . S
C1394 C1402 1.574 . S
C1394 C1410 1.368 . S
H1395 C1403 0.950 . S
H1396 C1401 0.950 . S
H1397 C1402 0.949 . S
H1398 C1404 0.950 . S
H1399 C1405 0.950 . S
H1400 C1406 0.949 . S
C1401 H1396 0.950 . S
C1401 C1403 1.327 . S
C1401 C1407 1.429 . S
C1402 C1394 1.574 . S
C1402 H1397 0.949 . S
C1402 C1408 1.368 . S
C1403 C1387 1.349 . S
C1403 H1395 0.950 . S
C1403 C1401 1.327 . S
C1404 C1392 1.349 . S
C1404 H1398 0.950 . S
C1404 C1405 1.327 . S
C1405 H1399 0.950 . S
C1405 C1404 1.327 . S
C1405 C1409 1.429 . S
C1406 C1389 1.574 . S
C1406 H1400 0.949 . S
C1406 C1410 1.368 . S
C1407 C1388 1.429 . S
C1407 C1401 1.429 . S
C1407 C1408 1.523 . S
C1408 C1389 1.368 . S
C1408 C1402 1.368 . S
C1408 C1407 1.523 . S
C1409 C1393 1.429 . S
C1409 C1405 1.429 . S
C1409 C1410 1.523 . S
C1410 C1394 1.368 . S
C1410 C1406 1.368 . S
C1410 C1409 1.523 . S
H1411 C1386 0.950 . S
H1412 C1388 0.950 . S
H1413 C1389 0.949 . S
H1414 C1391 0.950 . S
H1415 C1393 0.950 . S
C1416 C1417 1.349 . S
C1416 C1418 1.327 . S
C1416 H1441 0.950 . S
C1417 C1416 1.349 . S
C1417 C1433 1.349 . S
C1418 C1416 1.327 . S
C1418 C1437 1.429 . S
C1418 H1442 0.950 . S
C1419 C1436 1.574 . S
C1419 C1438 1.368 . S
C1419 H1443 0.949 . S
H1420 C1424 0.949 . S
C1421 C1422 1.349 . S
C1421 C1423 1.327 . S
C1421 H1444 0.950 . S
C1422 C1421 1.349 . S
C1422 C1434 1.349 . S
C1423 C1421 1.327 . S
C1423 C1439 1.429 . S
C1423 H1445 0.950 . S
C1424 H1420 0.949 . S
C1424 C1432 1.574 . S
C1424 C1440 1.368 . S
H1425 C1433 0.950 . S
H1426 C1431 0.950 . S
H1427 C1432 0.949 . S
H1428 C1434 0.950 . S
H1429 C1435 0.950 . S
H1430 C1436 0.949 . S
C1431 H1426 0.950 . S
C1431 C1433 1.327 . S
C1431 C1437 1.429 . S
C1432 C1424 1.574 . S
C1432 H1427 0.949 . S
C1432 C1438 1.368 . S
C1433 C1417 1.349 . S
C1433 H1425 0.950 . S
C1433 C1431 1.327 . S
C1434 C1422 1.349 . S
C1434 H1428 0.950 . S
C1434 C1435 1.327 . S
C1435 H1429 0.950 . S
C1435 C1434 1.327 . S
C1435 C1439 1.429 . S
C1436 C1419 1.574 . S
C1436 H1430 0.949 . S
C1436 C1440 1.368 . S
C1437 C1418 1.429 . S
C1437 C1431 1.429 . S
C1437 C1438 1.523 . S
C1438 C1419 1.368 . S
C1438 C1432 1.368 . S
C1438 C1437 1.523 . S
C1439 C1423 1.429 . S
C1439 C1435 1.429 . S
C1439 C1440 1.523 . S
C1440 C1424 1.368 . S
C1440 C1436 1.368 . S
C1440 C1439 1.523 . S
H1441 C1416 0.950 . S
H1442 C1418 0.950 . S
H1443 C1419 0.949 . S
H1444 C1421 0.950 . S
H1445 C1423 0.950 . S
C1446 C1447 1.349 . S
C1446 C1448 1.327 . S
C1446 H1471 0.950 . S
C1447 C1446 1.349 . S
C1447 C1463 1.349 . S
C1448 C1446 1.327 . S
C1448 C1467 1.429 . S
C1448 H1472 0.950 . S
C1449 C1466 1.574 . S
C1449 C1468 1.368 . S
C1449 H1473 0.949 . S
H1450 C1454 0.949 . S
C1451 C1452 1.349 . S
C1451 C1453 1.327 . S
C1451 H1474 0.950 . S
C1452 C1451 1.349 . S
C1452 C1464 1.349 . S
C1453 C1451 1.327 . S
C1453 C1469 1.429 . S
C1453 H1475 0.950 . S
C1454 H1450 0.949 . S
C1454 C1462 1.574 . S
C1454 C1470 1.368 . S
H1455 C1463 0.950 . S
H1456 C1461 0.950 . S
H1457 C1462 0.949 . S
H1458 C1464 0.950 . S
H1459 C1465 0.950 . S
H1460 C1466 0.949 . S
C1461 H1456 0.950 . S
C1461 C1463 1.327 . S
C1461 C1467 1.429 . S
C1462 C1454 1.574 . S
C1462 H1457 0.949 . S
C1462 C1468 1.368 . S
C1463 C1447 1.349 . S
C1463 H1455 0.950 . S
C1463 C1461 1.327 . S
C1464 C1452 1.349 . S
C1464 H1458 0.950 . S
C1464 C1465 1.327 . S
C1465 H1459 0.950 . S
C1465 C1464 1.327 . S
C1465 C1469 1.429 . S
C1466 C1449 1.574 . S
C1466 H1460 0.949 . S
C1466 C1470 1.368 . S
C1467 C1448 1.429 . S
C1467 C1461 1.429 . S
C1467 C1468 1.523 . S
C1468 C1449 1.368 . S
C1468 C1462 1.368 . S
C1468 C1467 1.523 . S
C1469 C1453 1.429 . S
C1469 C1465 1.429 . S
C1469 C1470 1.523 . S
C1470 C1454 1.368 . S
C1470 C1466 1.368 . S
C1470 C1469 1.523 . S
H1471 C1446 0.950 . S
H1472 C1448 0.950 . S
H1473 C1449 0.949 . S
H1474 C1451 0.950 . S
H1475 C1453 0.950 . S
C1476 C1477 1.349 . S
C1476 C1478 1.327 . S
C1476 H1501 0.950 . S
C1477 C1476 1.349 . S
C1477 C1493 1.349 . S
C1478 C1476 1.327 . S
C1478 C1497 1.429 . S
C1478 H1502 0.950 . S
C1479 C1496 1.574 . S
C1479 C1498 1.368 . S
C1479 H1503 0.949 . S
H1480 C1484 0.949 . S
C1481 C1482 1.349 . S
C1481 C1483 1.327 1_556 S
C1481 H1504 0.950 . S
C1482 C1481 1.349 . S
C1482 C1494 1.349 . S
C1483 C1481 1.327 1_554 S
C1483 C1499 1.429 . S
C1483 H1505 0.950 . S
C1484 H1480 0.949 . S
C1484 C1492 1.574 . S
C1484 C1500 1.368 . S
H1485 C1493 0.950 . S
H1486 C1491 0.950 . S
H1487 C1492 0.949 . S
H1488 C1494 0.950 . S
H1489 C1495 0.950 . S
H1490 C1496 0.949 . S
C1491 H1486 0.950 . S
C1491 C1493 1.327 . S
C1491 C1497 1.429 . S
C1492 C1484 1.574 . S
C1492 H1487 0.949 . S
C1492 C1498 1.368 . S
C1493 C1477 1.349 . S
C1493 H1485 0.950 . S
C1493 C1491 1.327 . S
C1494 C1482 1.349 . S
C1494 H1488 0.950 . S
C1494 C1495 1.327 1_556 S
C1495 H1489 0.950 . S
C1495 C1494 1.327 1_554 S
C1495 C1499 1.429 . S
C1496 C1479 1.574 . S
C1496 H1490 0.949 . S
C1496 C1500 1.368 . S
C1497 C1478 1.429 . S
C1497 C1491 1.429 . S
C1497 C1498 1.523 . S
C1498 C1479 1.368 . S
C1498 C1492 1.368 . S
C1498 C1497 1.523 . S
C1499 C1483 1.429 . S
C1499 C1495 1.429 . S
C1499 C1500 1.523 . S
C1500 C1484 1.368 . S
C1500 C1496 1.368 . S
C1500 C1499 1.523 . S
H1501 C1476 0.950 . S
H1502 C1478 0.950 . S
H1503 C1479 0.949 . S
H1504 C1481 0.950 . S
H1505 C1483 0.950 . S
C1506 C1507 1.349 . S
C1506 C1508 1.327 . S
C1506 H1531 0.950 . S
C1507 C1506 1.349 . S
C1507 C1523 1.349 . S
C1508 C1506 1.327 . S
C1508 C1527 1.429 . S
C1508 H1532 0.950 . S
C1509 C1526 1.574 . S
C1509 C1528 1.368 . S
C1509 H1533 0.949 . S
H1510 C1514 0.949 . S
C1511 C1512 1.349 . S
C1511 C1513 1.327 . S
C1511 H1534 0.950 . S
C1512 C1511 1.349 . S
C1512 C1524 1.349 . S
C1513 C1511 1.327 . S
C1513 C1529 1.429 . S
C1513 H1535 0.950 . S
C1514 H1510 0.949 . S
C1514 C1522 1.574 . S
C1514 C1530 1.368 . S
H1515 C1523 0.950 . S
H1516 C1521 0.950 . S
H1517 C1522 0.949 . S
H1518 C1524 0.950 . S
H1519 C1525 0.950 . S
H1520 C1526 0.949 . S
C1521 H1516 0.950 . S
C1521 C1523 1.327 . S
C1521 C1527 1.429 . S
C1522 C1514 1.574 . S
C1522 H1517 0.949 . S
C1522 C1528 1.368 . S
C1523 C1507 1.349 . S
C1523 H1515 0.950 . S
C1523 C1521 1.327 . S
C1524 C1512 1.349 . S
C1524 H1518 0.950 . S
C1524 C1525 1.327 . S
C1525 H1519 0.950 . S
C1525 C1524 1.327 . S
C1525 C1529 1.429 . S
C1526 C1509 1.574 . S
C1526 H1520 0.949 . S
C1526 C1530 1.368 . S
C1527 C1508 1.429 . S
C1527 C1521 1.429 . S
C1527 C1528 1.523 . S
C1528 C1509 1.368 . S
C1528 C1522 1.368 . S
C1528 C1527 1.523 . S
C1529 C1513 1.429 . S
C1529 C1525 1.429 . S
C1529 C1530 1.523 . S
C1530 C1514 1.368 . S
C1530 C1526 1.368 . S
C1530 C1529 1.523 . S
H1531 C1506 0.950 . S
H1532 C1508 0.950 . S
H1533 C1509 0.949 . S
H1534 C1511 0.950 . S
H1535 C1513 0.950 . S
C822 C757 1.603 . S
C817 C45 1.609 . S
C847 C84 1.601 . S
C852 C317 1.605 . S
C877 C126 1.563 . S
C882 C405 1.605 . S
C907 C189 1.609 . S
C912 C484 1.603 . S
C942 C581 1.605 . S
C937 C228 1.601 . S
C967 C270 1.563 . S
C972 C660 1.605 . S
C997 C69 1.583 . S
C1002 C425 1.605 . S
C1027 C141 1.609 . S
C1032 C521 1.603 . S
C1057 C174 1.562 . S
C1062 C601 1.605 . S
C1092 C697 1.605 . S
C1087 C213 1.584 . S
C1122 C777 1.603 . S
C1117 C285 1.609 . S
C1152 C337 1.605 . S
C1147 C30 1.563 . S
C1177 C36 1.470 . S
C1182 C433 1.467 . S
C1207 C93 1.466 . S
C1212 C513 1.464 . S
C1242 C609 1.467 . S
C1237 C117 1.468 . S
C1267 C180 1.470 . S
C1272 C689 1.467 . S
C1302 C785 1.464 . S
C1297 C237 1.466 . S
C1332 C345 1.466 . S
C1327 C261 1.467 . S
C1362 C748 1.464 . S
C1357 C78 1.462 . S
C1387 C132 1.470 . S
C1392 C308 1.467 . S
C1422 C396 1.466 . S
C1417 C165 1.467 . S
C1447 C222 1.462 . S
C1452 C493 1.464 . S
C1477 C276 1.470 . S
C1482 C572 1.467 . S
C1507 C21 1.467 . S
C1512 C669 1.466 . S
