# Generated by pormake.
# Topology tsx, (6,3)-cn, num edge types: 1
# Building blocks:
#     Node 0, Type 0, BuildingBlock: FUNLAD_clean_sbu_0, # of connection points: 6
#     Node 1, Type 0, BuildingBlock: FUNLAD_clean_sbu_0, # of connection points: 6
#     Node 2, Type 1, BuildingBlock: MIDCAF_clean_linker_0, # of connection points: 3
#     Node 3, Type 1, BuildingBlock: MIDCAF_clean_linker_0, # of connection points: 3
#     Node 4, Type 1, BuildingBlock: MIDCAF_clean_linker_0, # of connection points: 3
#     Node 5, Type 1, BuildingBlock: MIDCAF_clean_linker_0, # of connection points: 3
#     Edge 6, Type (0, 1), BuildingBlock: EZIPEK_clean_linker_0, # of connection points: 2
#     Edge 7, Type (0, 1), BuildingBlock: EZIPEK_clean_linker_0, # of connection points: 2
#     Edge 8, Type (0, 1), BuildingBlock: EZIPEK_clean_linker_0, # of connection points: 2
#     Edge 9, Type (0, 1), BuildingBlock: EZIPEK_clean_linker_0, # of connection points: 2
#     Edge 10, Type (0, 1), BuildingBlock: EZIPEK_clean_linker_0, # of connection points: 2
#     Edge 11, Type (0, 1), BuildingBlock: EZIPEK_clean_linker_0, # of connection points: 2
#     Edge 12, Type (0, 1), BuildingBlock: EZIPEK_clean_linker_0, # of connection points: 2
#     Edge 13, Type (0, 1), BuildingBlock: EZIPEK_clean_linker_0, # of connection points: 2
#     Edge 14, Type (0, 1), BuildingBlock: EZIPEK_clean_linker_0, # of connection points: 2
#     Edge 15, Type (0, 1), BuildingBlock: EZIPEK_clean_linker_0, # of connection points: 2
#     Edge 16, Type (0, 1), BuildingBlock: EZIPEK_clean_linker_0, # of connection points: 2
#     Edge 17, Type (0, 1), BuildingBlock: EZIPEK_clean_linker_0, # of connection points: 2
# Relax obj value: 0.165
# Max RMSD: 0.154
# Mean RMSD: 0.080
data_MOF--net-tsx--node1-FUNLAD_clean_sbu_0--node2-MIDCAF_clean_linker_0--edge1-EZIPEK_clean_linker_0
_symmetry_space_group_name_H-M    P1
_symmetry_Int_Tables_number       1
_symmetry_cell_setting            triclinic
loop_
_symmetry_equiv_pos_as_xyz
'x, y, z'
_cell_length_a     17.965636
_cell_length_b     19.980214
_cell_length_c     40.944905
_cell_angle_alpha  91.021599
_cell_angle_beta   91.848107
_cell_angle_gamma 89.937662
loop_
_atom_site_label
_atom_site_type_symbol
_atom_site_fract_x
_atom_site_fract_y
_atom_site_fract_z
_atom_type_partial_charge
C0 C 0.89739 0.90606 -0.00295 0.0
N1 N 0.00654 0.01027 0.07295 0.0
C2 C 0.94023 0.0137 0.08808 0.0
C3 C 0.93804 0.01106 0.12202 0.0
C4 C 0.00465 0.00431 0.14037 0.0
C5 C 0.0724 0.0019 0.12437 0.0
C6 C 0.0721 0.00525 0.09035 0.0
Zn7 Zn 0.00587 0.0069 0.02327 0.0
C8 C 0.1138 0.90776 -0.002 0.0
N9 N 0.0024 -0.00393 0.91928 0.0
C10 C 0.93682 0.98875 0.902 0.0
C11 C 0.06852 -0.00107 0.90404 0.0
C12 C 0.0704 -0.00537 0.87007 0.0
C13 C 0.00368 0.98681 0.85178 0.0
C14 C 0.93622 0.98368 0.86794 0.0
Zn15 Zn 0.00317 0.00121 0.96898 0.0
O16 O 0.92186 0.93388 0.02332 0.0
C17 C 0.89469 0.09986 -0.00617 0.0
O18 O 0.92268 0.92326 0.96983 0.0
H19 H 0.11999 0.00434 0.91826 0.0
H20 H 0.88878 0.01719 0.07377 0.0
H21 H 0.88497 0.98661 0.91465 0.0
O22 O 0.92357 0.08298 0.02119 0.0
O23 O 0.91726 0.0731 0.96758 0.0
H24 H 0.12409 0.00258 0.07779 0.0
O25 O 0.08395 0.07884 0.96902 0.0
O26 O 0.09021 0.08009 0.02276 0.0
O27 O 0.0888 0.92955 0.97089 0.0
O28 O 0.08797 0.93021 0.02454 0.0
C29 C 0.11239 0.10167 -0.00425 0.0
H30 H 0.88497 0.01303 0.13383 0.0
H31 H 0.12465 -0.00325 0.13805 0.0
H32 H 0.12326 -0.00285 0.85814 0.0
H33 H 0.88389 0.97767 0.85432 0.0
C34 C 0.40388 0.41096 0.49934 0.0
N35 N 0.518 0.51731 0.57333 0.0
C36 C 0.45301 0.52196 0.5894 0.0
C37 C 0.45352 0.52126 0.62343 0.0
C38 C 0.52146 0.51518 0.64087 0.0
C39 C 0.58781 0.5115 0.62388 0.0
C40 C 0.58482 0.51296 0.5898 0.0
Zn41 Zn 0.51384 0.51209 0.5237 0.0
C42 C 0.62014 0.41186 0.49793 0.0
N43 N 0.50469 0.49852 0.41985 0.0
C44 C 0.4381 0.49098 0.40338 0.0
C45 C 0.56977 0.50107 0.4038 0.0
C46 C 0.56951 0.49642 0.36981 0.0
C47 C 0.50171 0.48854 0.35234 0.0
C48 C 0.43536 0.48552 0.36932 0.0
Zn49 Zn 0.50854 0.50501 0.46948 0.0
O50 O 0.42948 0.43943 0.52526 0.0
C51 C 0.40167 0.60477 0.49483 0.0
O52 O 0.42804 0.42742 0.47179 0.0
H53 H 0.62207 0.50663 0.41739 0.0
H54 H 0.40055 0.52495 0.57581 0.0
H55 H 0.38711 0.48912 0.41666 0.0
O56 O 0.43182 0.58853 0.52203 0.0
O57 O 0.42283 0.57714 0.46853 0.0
H58 H 0.63573 0.5094 0.57649 0.0
O59 O 0.58939 0.58246 0.46803 0.0
O60 O 0.59818 0.58478 0.52172 0.0
O61 O 0.59393 0.43301 0.47089 0.0
O62 O 0.59571 0.43511 0.52458 0.0
C63 C 0.61911 0.60578 0.4944 0.0
H64 H 0.40148 0.52407 0.63603 0.0
H65 H 0.64102 0.5067 0.63684 0.0
H66 H 0.62155 0.49882 0.35723 0.0
H67 H 0.38224 0.47941 0.35634 0.0
C68 C 0.8529 0.20907 0.44388 0.0
C69 C 0.84111 0.21074 0.47747 0.0
C70 C 0.8756 0.16301 0.49761 0.0
C71 C 0.91805 0.1116 0.48379 0.0
H72 H 0.11743 0.96005 0.4897 0.0
H73 H 0.20466 0.87642 0.51148 0.0
H74 H 0.10957 0.72785 0.44491 0.0
H75 H 0.02186 0.81105 0.42326 0.0
H76 H 0.06446 0.90338 0.34592 0.0
H77 H 0.06894 0.90429 0.28622 0.0
H78 H 0.90772 0.06416 0.28324 0.0
H79 H 0.90315 0.06441 0.34282 0.0
H80 H 0.90084 0.15738 0.40389 0.0
H81 H 0.8267 0.24577 0.42807 0.0
H82 H 0.86689 0.16384 0.52367 0.0
H83 H 0.94187 0.07408 0.49963 0.0
N84 N -0.00464 -0.0004 0.45169 0.0
N85 N 0.01844 0.93922 0.40322 0.0
N86 N 0.95701 0.04211 0.40082 0.0
C87 C 0.02337 0.94451 0.43633 0.0
C88 C 0.98553 0.98799 0.38529 0.0
C89 C 0.96137 0.04852 0.43389 0.0
C90 C 0.06346 0.8921 0.45466 0.0
C91 C 0.11312 0.90905 0.48067 0.0
C92 C 0.16314 0.86144 0.49302 0.0
C93 C 0.16363 0.79644 0.4795 0.0
C94 C 0.10984 0.77792 0.45553 0.0
C95 C 0.06019 0.8255 0.44311 0.0
C96 C 0.98383 0.98417 0.34917 0.0
C97 C 0.02936 0.93832 0.3326 0.0
C98 C 0.03215 0.93876 0.29854 0.0
C99 C 0.9889 0.98448 0.28058 0.0
C100 C 0.9416 0.02873 0.29687 0.0
C101 C 0.93924 0.02878 0.33088 0.0
C102 C 0.92612 0.10731 0.44973 0.0
C103 C 0.89509 0.15809 0.43014 0.0
C104 C 0.91065 0.77806 0.53054 0.0
C105 C 0.85707 0.79781 0.50703 0.0
C106 C 0.85888 0.86299 0.49486 0.0
C107 C 0.90936 0.90976 0.50845 0.0
H108 H 0.08646 0.07262 0.49539 0.0
H109 H 0.16362 0.16248 0.47457 0.0
H110 H 0.19236 0.24501 0.5721 0.0
H111 H 0.11657 0.15589 0.5932 0.0
H112 H 0.10905 0.06121 0.65253 0.0
H113 H 0.10114 0.0571 0.71193 0.0
H114 H 0.94449 0.8942 0.70209 0.0
H115 H 0.95233 0.89714 0.64256 0.0
H116 H -0.00111 0.80932 0.56363 0.0
H117 H 0.91008 0.72782 0.54007 0.0
H118 H 0.81761 0.87891 0.47675 0.0
H119 H 0.9055 0.9611 0.50075 0.0
N120 N 0.02745 -0.0016 0.54062 0.0
N121 N 0.06199 0.03942 0.59299 0.0
N122 N 0.00032 0.93691 0.58717 0.0
C123 C 0.06023 0.0467 0.56006 0.0
C124 C 0.03203 0.98496 0.60675 0.0
C125 C -0.00206 0.94311 0.5542 0.0
C126 C 0.09675 0.10576 0.5461 0.0
C127 C 0.10845 0.11014 0.51236 0.0
C128 C 0.15208 0.16167 0.50036 0.0
C129 C 0.18375 0.20979 0.52194 0.0
C130 C 0.1683 0.20807 0.55518 0.0
C131 C 0.12521 0.15671 0.56716 0.0
C132 C 0.03105 0.97968 0.64274 0.0
C133 C 0.07323 0.02414 0.6629 0.0
C134 C 0.06896 0.02188 0.69683 0.0
C135 C 0.02213 0.97551 0.71117 0.0
C136 C 0.98097 0.93023 0.6913 0.0
C137 C 0.98567 0.93202 0.65734 0.0
C138 C 0.9585 0.8916 0.53415 0.0
C139 C 0.96097 0.82468 0.54405 0.0
C140 C 0.35797 0.71285 0.94603 0.0
C141 C 0.33937 0.70999 0.97887 0.0
C142 C 0.36923 0.65918 -0.00146 0.0
C143 C 0.41354 0.60911 0.98475 0.0
H144 H 0.61274 0.45553 -0.00792 0.0
H145 H 0.69635 0.36868 0.01338 0.0
H146 H 0.60686 0.22855 0.94114 0.0
H147 H 0.52271 0.31506 0.91992 0.0
H148 H 0.58049 0.41517 0.84678 0.0
H149 H 0.58926 0.4183 0.78728 0.0
H150 H 0.43266 0.58182 0.78376 0.0
H151 H 0.42392 0.57991 0.84316 0.0
H152 H 0.41322 0.66602 0.90654 0.0
H153 H 0.33547 0.75201 0.93062 0.0
H154 H 0.35527 0.65652 0.02402 0.0
H155 H 0.4335 0.5691 7e-05 0.0
N156 N 0.49513 0.5004 0.95224 0.0
N157 N 0.52663 0.446 0.9032 0.0
N158 N 0.46733 0.54999 0.90179 0.0
C159 C 0.52537 0.44702 0.93634 0.0
C160 C 0.4979 0.49743 0.88576 0.0
C161 C 0.4655 0.55211 0.9349 0.0
C162 C 0.56168 0.39206 0.95429 0.0
C163 C 0.60855 0.40558 0.9817 0.0
C164 C 0.65658 0.35613 -0.00622 0.0
C165 C 0.65782 0.2927 0.97857 0.0
C166 C 0.60643 0.27736 0.9531 0.0
C167 C 0.5588 0.32681 0.94095 0.0
C168 C 0.50153 0.49735 0.84974 0.0
C169 C 0.54763 0.45165 0.83339 0.0
C170 C 0.55294 0.45341 0.79946 0.0
C171 C 0.51166 0.50032 0.78137 0.0
C172 C 0.46498 0.54542 0.79747 0.0
C173 C 0.46016 0.54418 0.83139 0.0
C174 C 0.42831 0.60933 0.95119 0.0
C175 C 0.40216 0.66324 0.93233 0.0
C176 C 0.40293 0.27505 0.03338 0.0
C177 C 0.35098 0.29337 0.00892 0.0
C178 C 0.35442 0.3574 -0.00452 0.0
C179 C 0.40497 0.40465 0.00863 0.0
H180 H 0.58035 0.5677 -0.00484 0.0
H181 H 0.65717 0.65655 0.97338 0.0
H182 H 0.68634 0.74293 0.07011 0.0
H183 H 0.61027 0.6549 0.09211 0.0
H184 H 0.59962 0.56338 0.15253 0.0
H185 H 0.59225 0.55998 0.21198 0.0
H186 H 0.43738 0.39559 0.20291 0.0
H187 H 0.4447 0.39779 0.14338 0.0
H188 H 0.48965 0.30802 0.06682 0.0
H189 H 0.40115 0.22569 0.04387 0.0
H190 H 0.31448 0.37217 0.97657 0.0
H191 H 0.40258 0.4552 -0.00025 0.0
N192 N 0.52089 0.49549 0.04086 0.0
N193 N 0.5543 0.53886 0.09295 0.0
N194 N 0.49275 0.43617 0.08793 0.0
C195 C 0.55328 0.54465 0.05993 0.0
C196 C 0.52399 0.48504 0.10714 0.0
C197 C 0.49107 0.44084 0.05489 0.0
C198 C 0.59025 0.60297 0.04548 0.0
C199 C 0.60213 0.60591 0.01173 0.0
C200 C 0.64568 0.65686 -0.00081 0.0
C201 C 0.67742 0.70576 0.02027 0.0
C202 C 0.66213 0.70539 0.05356 0.0
C203 C 0.61889 0.65465 0.06605 0.0
C204 C 0.52258 0.48097 0.14315 0.0
C205 C 0.56424 0.52621 0.16309 0.0
C206 C 0.56026 0.52436 0.19704 0.0
C207 C 0.51423 0.47764 0.2116 0.0
C208 C 0.47326 0.43186 0.19194 0.0
C209 C 0.47768 0.43325 0.15797 0.0
C210 C 0.45223 0.38821 0.03529 0.0
C211 C 0.45312 0.32218 0.04652 0.0
C212 C 0.15819 0.21592 0.01174 0.0
C213 C 0.17083 0.15369 -0.00432 0.0
C214 C 0.29593 0.1906 0.98173 0.0
C215 C 0.28659 0.24875 0.00146 0.0
N216 N 0.21245 0.31372 0.03872 0.0
N217 N 0.25441 0.07762 0.96859 0.0
C218 C 0.21847 0.26094 0.01721 0.0
C219 C 0.24017 0.14004 0.98117 0.0
N220 N 0.08811 0.23264 0.02115 0.0
N221 N 0.35798 0.18406 0.96348 0.0
H222 H 0.21567 0.03878 0.96821 0.0
H223 H 0.30665 0.06248 0.961 0.0
H224 H 0.39989 0.22022 0.96366 0.0
H225 H 0.36485 0.14602 0.94612 0.0
H226 H 0.07376 0.28027 0.02958 0.0
H227 H 0.04246 0.20079 0.01779 0.0
H228 H 0.16758 0.32016 0.05395 0.0
H229 H 0.25479 0.34859 0.04334 0.0
C230 C 0.2448 0.86873 0.00897 0.0
C231 C 0.17048 0.85425 -0.0018 0.0
C232 C 0.20586 0.73903 0.98449 0.0
C233 C 0.28148 0.75619 -0.00915 0.0
N234 N 0.37522 0.83587 0.00858 0.0
N235 N 0.08014 0.77783 0.9734 0.0
C236 C 0.3016 0.82044 0.0034 0.0
C237 C 0.1508 0.78981 0.98557 0.0
N238 N 0.26112 0.92896 0.02391 0.0
N239 N 0.18688 0.67397 0.97741 0.0
H240 H 0.03731 0.81293 0.97441 0.0
H241 H 0.06482 0.73469 0.96024 0.0
H242 H 0.22606 0.63556 0.97591 0.0
H243 H 0.13218 0.65677 0.97594 0.0
H244 H 0.31243 0.94026 0.03517 0.0
H245 H 0.22182 0.96685 0.02683 0.0
H246 H 0.39487 0.88389 0.014 0.0
H247 H 0.41759 0.80058 0.00599 0.0
C248 C 0.76727 0.86277 0.98776 0.0
C249 C 0.84205 0.8518 -0.00124 0.0
C250 C 0.81002 0.73884 0.01569 0.0
C251 C 0.73391 0.75306 0.00882 0.0
N252 N 0.63778 0.82813 0.98974 0.0
N253 N 0.93412 0.78247 0.02617 0.0
C254 C 0.71185 0.81466 -0.00516 0.0
C255 C 0.86342 0.79054 0.01341 0.0
N256 N 0.74921 0.91952 0.97107 0.0
N257 N 0.83118 0.67546 0.02406 0.0
H258 H 0.9759 0.8182 0.02434 0.0
H259 H 0.95026 0.74235 0.04066 0.0
H260 H 0.79335 0.63629 0.0261 0.0
H261 H 0.88649 0.66 0.02599 0.0
H262 H 0.69757 0.92748 0.95955 0.0
H263 H 0.78746 0.95741 0.96692 0.0
H264 H 0.61702 0.87482 0.9832 0.0
H265 H 0.59616 0.79313 -0.0062 0.0
C266 C 0.7664 0.14004 0.00702 0.0
C267 C 0.83574 0.15137 -0.0077 0.0
C268 C 0.7883 0.25562 0.96902 0.0
C269 C 0.72048 0.24624 0.98523 0.0
N270 N 0.64836 0.1867 0.02379 0.0
N271 N 0.91824 0.22551 0.96487 0.0
C272 C 0.71066 0.19065 0.00562 0.0
C273 C 0.84832 0.21085 0.97493 0.0
N274 N 0.75237 0.07963 0.02076 0.0
N275 N 0.79441 0.30583 0.94697 0.0
H276 H 0.96376 0.19378 0.96849 0.0
H277 H 0.93276 0.27165 0.95551 0.0
H278 H 0.75248 0.34082 0.9423 0.0
H279 H 0.83885 0.30992 0.93142 0.0
H280 H 0.70022 0.06565 0.02865 0.0
H281 H 0.79131 0.04093 0.02189 0.0
H282 H 0.64122 0.15104 0.04166 0.0
H283 H 0.60616 0.22264 0.02286 0.0
C284 C 0.74569 0.64529 0.47858 0.0
C285 C 0.67691 0.65827 0.4937 0.0
C286 C 0.72498 0.76481 0.51584 0.0
C287 C 0.79258 0.75333 0.49957 0.0
N288 N 0.86261 0.69036 0.46044 0.0
N289 N 0.59473 0.73652 0.52 0.0
C290 C 0.8013 0.696 0.4792 0.0
C291 C 0.66459 0.72004 0.51021 0.0
N292 N 0.75966 0.58335 0.4654 0.0
N293 N 0.71962 0.81645 0.53804 0.0
H294 H 0.54895 0.70489 0.51644 0.0
H295 H 0.58066 0.78391 0.52885 0.0
H296 H 0.76221 0.85089 0.543 0.0
H297 H 0.67511 0.82211 0.55353 0.0
H298 H 0.81166 0.56865 0.45733 0.0
H299 H 0.721 0.54445 0.4649 0.0
H300 H 0.86891 0.65299 0.44268 0.0
H301 H 0.90437 0.72668 0.46063 0.0
C302 C 0.75183 0.37282 0.50653 0.0
C303 C 0.67633 0.35797 0.49796 0.0
C304 C 0.70916 0.24129 0.48628 0.0
C305 C 0.78545 0.25842 0.49013 0.0
N306 N 0.88157 0.3391 0.50328 0.0
N307 N 0.5828 0.28018 0.47705 0.0
C308 C 0.80748 0.32366 0.50055 0.0
C309 C 0.65474 0.29261 0.48737 0.0
N310 N 0.77025 0.43411 0.51982 0.0
N311 N 0.68898 0.17577 0.48155 0.0
H312 H 0.54072 0.31604 0.47786 0.0
H313 H 0.56562 0.23577 0.46548 0.0
H314 H 0.72769 0.13693 0.48027 0.0
H315 H 0.63415 0.15904 0.48192 0.0
H316 H 0.82298 0.44605 0.52944 0.0
H317 H 0.7314 0.47224 0.52316 0.0
H318 H 0.90194 0.38746 0.50699 0.0
H319 H 0.92332 0.30334 0.50031 0.0
C320 C 0.36941 0.29606 0.51659 0.0
C321 C 0.3482 0.35709 0.50167 0.0
C322 C 0.21822 0.3193 0.49708 0.0
C323 C 0.24029 0.25769 0.51105 0.0
N324 N 0.33769 0.18072 0.52691 0.0
N325 N 0.25552 0.42451 0.47367 0.0
C326 C 0.31629 0.24401 0.51848 0.0
C327 C 0.27357 0.36774 0.49035 0.0
N328 N 0.43969 0.28842 0.52989 0.0
N329 N 0.14419 0.33249 0.49166 0.0
H330 H 0.29343 0.4629 0.46996 0.0
H331 H 0.2042 0.43211 0.46179 0.0
H332 H 0.10263 0.29732 0.49551 0.0
H333 H 0.12334 0.37914 0.48511 0.0
H334 H 0.45546 0.24846 0.54456 0.0
H335 H 0.48136 0.32434 0.52837 0.0
H336 H 0.39309 0.16567 0.52923 0.0
H337 H 0.30012 0.14124 0.52858 0.0
C338 C 0.35417 0.71478 0.47504 0.0
C339 C 0.34281 0.65644 0.49346 0.0
C340 C 0.21882 0.69681 0.50782 0.0
C341 C 0.22707 0.75089 0.48634 0.0
N342 N 0.29818 0.80751 0.44605 0.0
N343 N 0.26134 0.58671 0.52403 0.0
C344 C 0.29371 0.75907 0.46912 0.0
C345 C 0.27455 0.64621 0.50926 0.0
N346 N 0.42335 0.72883 0.46395 0.0
N347 N 0.15798 0.69428 0.52697 0.0
H348 H 0.30015 0.54792 0.52516 0.0
H349 H 0.20975 0.57344 0.5328 0.0
H350 H 0.11585 0.73029 0.52609 0.0
H351 H 0.15221 0.65992 0.54553 0.0
H352 H 0.43707 0.77433 0.45369 0.0
H353 H 0.46918 0.69748 0.4676 0.0
H354 H 0.34159 0.81043 0.42988 0.0
H355 H 0.2558 0.84197 0.44121 0.0
C356 C 0.02834 0.05209 0.19679 0.0
C357 C 0.00302 -0.00174 0.17633 0.0
C358 C 0.96441 0.93671 0.22413 0.0
C359 C -0.00477 0.98814 0.24467 0.0
N360 N 0.06983 0.08819 0.25112 0.0
N361 N 0.96041 0.88404 0.17036 0.0
C362 C 0.03115 0.04399 0.23116 0.0
C363 C 0.97494 0.93892 0.18996 0.0
N364 N 0.04712 0.11178 0.18347 0.0
N365 N 0.92289 0.88706 0.23712 0.0
H366 H 0.96802 0.88357 0.1452 0.0
H367 H 0.94731 0.83724 0.17937 0.0
H368 H 0.91384 0.8838 0.26208 0.0
H369 H 0.89224 0.85242 0.22296 0.0
H370 H 0.05803 0.15505 0.19735 0.0
H371 H 0.04557 0.11981 0.15835 0.0
H372 H 0.10361 0.12579 0.2424 0.0
H373 H 0.07378 0.08362 0.27646 0.0
C374 C 0.03454 0.92434 0.80032 0.0
C375 C 0.00486 0.9823 0.81565 0.0
C376 C 0.97636 0.03049 0.76216 0.0
C377 C 0.01419 0.97639 0.74709 0.0
N378 N 0.08861 0.87622 0.75179 0.0
N379 N 0.95801 0.09526 0.81176 0.0
C380 C 0.04572 0.9243 0.76614 0.0
C381 C 0.9784 0.03669 0.79674 0.0
N382 N 0.05016 0.86875 0.8183 0.0
N383 N 0.93678 0.07493 0.74342 0.0
H384 H 0.95908 0.10206 0.83709 0.0
H385 H 0.94622 0.139 0.79913 0.0
H386 H 0.93341 0.0717 0.71796 0.0
H387 H 0.90172 0.11117 0.75316 0.0
H388 H 0.06459 0.82275 0.80794 0.0
H389 H 0.04216 0.86681 0.84339 0.0
H390 H 0.11973 0.84129 0.76499 0.0
H391 H 0.09818 0.87455 0.7268 0.0
C392 C 0.49453 0.45164 0.69126 0.0
C393 C 0.52248 0.51023 0.67691 0.0
C394 C 0.55353 0.55749 0.73118 0.0
C395 C 0.51731 0.50263 0.74541 0.0
N396 N 0.44292 0.4024 0.73913 0.0
N397 N 0.56881 0.62328 0.68275 0.0
C398 C 0.48505 0.45086 0.7255 0.0
C399 C 0.54955 0.5644 0.69673 0.0
N400 N 0.47901 0.3961 0.67226 0.0
N401 N 0.59342 0.60193 0.75054 0.0
H402 H 0.56648 0.63036 0.65756 0.0
H403 H 0.5811 0.66685 0.69618 0.0
H404 H 0.59809 0.59814 0.7759 0.0
H405 H 0.62734 0.63885 0.7413 0.0
H406 H 0.46594 0.34977 0.68184 0.0
H407 H 0.48596 0.3945 0.64706 0.0
H408 H 0.41132 0.36776 0.72538 0.0
H409 H 0.43418 0.40026 0.76415 0.0
C410 C 0.47298 0.53815 0.29751 0.0
C411 C 0.5007 0.48389 0.31619 0.0
C412 C 0.53995 0.42625 0.26634 0.0
C413 C 0.50738 0.47825 0.24756 0.0
N414 N 0.42895 0.5762 0.2445 0.0
N415 N 0.54656 0.37049 0.31842 0.0
C416 C 0.46963 0.53201 0.26293 0.0
C417 C 0.53001 0.42609 0.3006 0.0
N418 N 0.45275 0.59657 0.31271 0.0
N419 N 0.58273 0.3785 0.25167 0.0
H420 H 0.53939 0.3684 0.34357 0.0
H421 H 0.56083 0.32458 0.30792 0.0
H422 H 0.59152 0.37701 0.22662 0.0
H423 H 0.61454 0.34371 0.26464 0.0
H424 H 0.44006 0.64024 0.30017 0.0
H425 H 0.45479 0.60336 0.33804 0.0
H426 H 0.39394 0.61215 0.25452 0.0
H427 H 0.42464 0.57299 0.21905 0.0
loop_
_geom_bond_atom_site_label_1
_geom_bond_atom_site_label_2
_geom_bond_distance
_geom_bond_site_symmetry_2
_ccdc_geom_bond_type
C0 O16 1.251 . S
C0 O18 1.254 1_554 S
N1 C2 1.333 1_445 S
N1 C6 1.307 . S
N1 Zn7 2.020 . S
C2 N1 1.333 1_665 S
C2 C3 1.379 . S
C2 H20 0.952 . S
C3 C2 1.379 . S
C3 C4 1.390 1_665 S
C3 H30 0.949 . S
C4 C3 1.390 1_445 S
C4 C5 1.357 . S
C5 C4 1.357 . S
C5 C6 1.370 . S
C5 H31 0.950 . S
C6 N1 1.307 . S
C6 C5 1.370 . S
C6 H24 0.948 . S
Zn7 N1 2.020 . S
Zn7 O16 2.039 1_445 S
Zn7 O22 2.034 1_455 S
Zn7 O26 2.025 . S
Zn7 O28 2.024 1_545 S
C8 O27 1.246 1_554 S
C8 O28 1.249 . S
N9 C10 1.307 1_445 S
N9 C11 1.333 . S
N9 Zn15 2.020 . S
C10 N9 1.307 1_665 S
C10 C14 1.370 . S
C10 H21 0.948 . S
C11 N9 1.333 . S
C11 C12 1.379 . S
C11 H19 0.952 . S
C12 C11 1.379 . S
C12 C13 1.390 . S
C12 H32 0.949 . S
C13 C12 1.390 . S
C13 C14 1.357 1_445 S
C14 C10 1.370 . S
C14 C13 1.357 1_665 S
C14 H33 0.950 . S
Zn15 N9 2.020 . S
Zn15 O18 2.025 1_445 S
Zn15 O23 2.024 1_455 S
Zn15 O25 2.039 . S
Zn15 O27 2.034 1_545 S
O16 C0 1.251 . S
O16 Zn7 2.039 1_665 S
C17 O22 1.246 . S
C17 O23 1.249 1_554 S
O18 C0 1.254 1_556 S
O18 Zn15 2.025 1_665 S
H19 C11 0.952 . S
H20 C2 0.952 . S
H21 C10 0.948 . S
O22 Zn7 2.034 1_655 S
O22 C17 1.246 . S
O23 Zn15 2.024 1_655 S
O23 C17 1.249 1_556 S
H24 C6 0.948 . S
O25 Zn15 2.039 . S
O25 C29 1.251 1_556 S
O26 Zn7 2.025 . S
O26 C29 1.254 . S
O27 C8 1.246 1_556 S
O27 Zn15 2.034 1_565 S
O28 Zn7 2.024 1_565 S
O28 C8 1.249 . S
C29 O25 1.251 1_554 S
C29 O26 1.254 . S
H30 C3 0.949 . S
H31 C5 0.950 . S
H32 C12 0.949 . S
H33 C14 0.950 . S
C34 O50 1.251 . S
C34 O52 1.254 . S
N35 C36 1.333 . S
N35 C40 1.307 . S
N35 Zn41 2.020 . S
C36 N35 1.333 . S
C36 C37 1.379 . S
C36 H54 0.952 . S
C37 C36 1.379 . S
C37 C38 1.390 . S
C37 H64 0.949 . S
C38 C37 1.390 . S
C38 C39 1.357 . S
C39 C38 1.357 . S
C39 C40 1.370 . S
C39 H65 0.950 . S
C40 N35 1.307 . S
C40 C39 1.370 . S
C40 H58 0.948 . S
Zn41 N35 2.020 . S
Zn41 O50 2.039 . S
Zn41 O56 2.034 . S
Zn41 O60 2.025 . S
Zn41 O62 2.024 . S
C42 O61 1.246 . S
C42 O62 1.249 . S
N43 C44 1.307 . S
N43 C45 1.333 . S
N43 Zn49 2.020 . S
C44 N43 1.307 . S
C44 C48 1.370 . S
C44 H55 0.948 . S
C45 N43 1.333 . S
C45 C46 1.379 . S
C45 H53 0.952 . S
C46 C45 1.379 . S
C46 C47 1.390 . S
C46 H66 0.949 . S
C47 C46 1.390 . S
C47 C48 1.357 . S
C48 C44 1.370 . S
C48 C47 1.357 . S
C48 H67 0.950 . S
Zn49 N43 2.020 . S
Zn49 O52 2.025 . S
Zn49 O57 2.024 . S
Zn49 O59 2.039 . S
Zn49 O61 2.034 . S
O50 C34 1.251 . S
O50 Zn41 2.039 . S
C51 O56 1.246 . S
C51 O57 1.249 . S
O52 C34 1.254 . S
O52 Zn49 2.025 . S
H53 C45 0.952 . S
H54 C36 0.952 . S
H55 C44 0.948 . S
O56 Zn41 2.034 . S
O56 C51 1.246 . S
O57 Zn49 2.024 . S
O57 C51 1.249 . S
H58 C40 0.948 . S
O59 Zn49 2.039 . S
O59 C63 1.251 . S
O60 Zn41 2.025 . S
O60 C63 1.254 . S
O61 C42 1.246 . S
O61 Zn49 2.034 . S
O62 Zn41 2.024 . S
O62 C42 1.249 . S
C63 O59 1.251 . S
C63 O60 1.254 . S
H64 C37 0.949 . S
H65 C39 0.950 . S
H66 C46 0.949 . S
H67 C48 0.950 . S
C68 C69 1.384 . S
C68 H81 0.947 . S
C68 C103 1.382 . S
C69 C68 1.384 . S
C69 C70 1.378 . S
C70 C69 1.378 . S
C70 C71 1.378 . S
C70 H82 0.952 . S
C71 C70 1.378 . S
C71 H83 0.950 . S
C71 C102 1.383 . S
H72 C91 0.947 . S
H73 C92 0.946 . S
H74 C94 0.953 . S
H75 C95 0.945 . S
H76 C97 0.952 . S
H77 C98 0.949 . S
H78 C100 0.950 . S
H79 C101 0.948 . S
H80 C103 0.951 . S
H81 C68 0.947 . S
H82 C70 0.952 . S
H83 C71 0.950 . S
N84 C87 1.382 1_545 S
N84 C89 1.363 1_455 S
N85 C87 1.371 . S
N85 C88 1.372 1_565 S
N86 C88 1.361 1_655 S
N86 C89 1.377 . S
C87 N84 1.382 1_565 S
C87 N85 1.371 . S
C87 C90 1.480 . S
C88 N85 1.372 1_545 S
C88 N86 1.361 1_455 S
C88 C96 1.457 . S
C89 N84 1.363 1_655 S
C89 N86 1.377 . S
C89 C102 1.479 . S
C90 C87 1.480 . S
C90 C91 1.383 . S
C90 C95 1.385 . S
C91 H72 0.947 . S
C91 C90 1.383 . S
C91 C92 1.388 . S
C92 H73 0.946 . S
C92 C91 1.388 . S
C92 C93 1.384 . S
C93 C92 1.384 . S
C93 C94 1.377 . S
C94 H74 0.953 . S
C94 C93 1.377 . S
C94 C95 1.369 . S
C95 H75 0.945 . S
C95 C90 1.385 . S
C95 C94 1.369 . S
C96 C88 1.457 . S
C96 C97 1.372 1_545 S
C96 C101 1.364 1_455 S
C97 H76 0.952 . S
C97 C96 1.372 1_565 S
C97 C98 1.389 . S
C98 H77 0.949 . S
C98 C97 1.389 . S
C98 C99 1.387 1_565 S
C99 C98 1.387 1_545 S
C99 C100 1.372 1_455 S
C100 H78 0.950 . S
C100 C99 1.372 1_655 S
C100 C101 1.379 . S
C101 H79 0.948 . S
C101 C96 1.364 1_655 S
C101 C100 1.379 . S
C102 C71 1.383 . S
C102 C89 1.479 . S
C102 C103 1.398 . S
C103 C68 1.382 . S
C103 H80 0.951 . S
C103 C102 1.398 . S
C104 C105 1.384 . S
C104 H117 0.947 . S
C104 C139 1.382 . S
C105 C104 1.384 . S
C105 C106 1.378 . S
C106 C105 1.378 . S
C106 C107 1.378 . S
C106 H118 0.952 . S
C107 C106 1.378 . S
C107 H119 0.950 . S
C107 C138 1.383 . S
H108 C127 0.947 . S
H109 C128 0.946 . S
H110 C130 0.953 . S
H111 C131 0.945 . S
H112 C133 0.952 . S
H113 C134 0.949 . S
H114 C136 0.950 . S
H115 C137 0.948 . S
H116 C139 0.951 . S
H117 C104 0.947 . S
H118 C106 0.952 . S
H119 C107 0.950 . S
N120 C123 1.382 1_565 S
N120 C125 1.363 1_455 S
N121 C123 1.371 . S
N121 C124 1.372 1_545 S
N122 C124 1.361 1_655 S
N122 C125 1.377 . S
C123 N120 1.382 1_545 S
C123 N121 1.371 . S
C123 C126 1.480 . S
C124 N121 1.372 1_565 S
C124 N122 1.361 1_455 S
C124 C132 1.457 . S
C125 N120 1.363 1_655 S
C125 N122 1.377 . S
C125 C138 1.479 . S
C126 C123 1.480 . S
C126 C127 1.383 . S
C126 C131 1.385 . S
C127 H108 0.947 . S
C127 C126 1.383 . S
C127 C128 1.388 . S
C128 H109 0.946 . S
C128 C127 1.388 . S
C128 C129 1.384 . S
C129 C128 1.384 . S
C129 C130 1.377 . S
C130 H110 0.953 . S
C130 C129 1.377 . S
C130 C131 1.369 . S
C131 H111 0.945 . S
C131 C126 1.385 . S
C131 C130 1.369 . S
C132 C124 1.457 . S
C132 C133 1.372 1_565 S
C132 C137 1.364 1_455 S
C133 H112 0.952 . S
C133 C132 1.372 1_545 S
C133 C134 1.389 . S
C134 H113 0.949 . S
C134 C133 1.389 . S
C134 C135 1.387 . S
C135 C134 1.387 . S
C135 C136 1.372 1_445 S
C136 H114 0.950 . S
C136 C135 1.372 1_665 S
C136 C137 1.379 . S
C137 H115 0.948 . S
C137 C132 1.364 1_655 S
C137 C136 1.379 . S
C138 C107 1.383 . S
C138 C125 1.479 . S
C138 C139 1.398 . S
C139 C104 1.382 . S
C139 H116 0.951 . S
C139 C138 1.398 . S
C140 C141 1.384 1_556 S
C140 H153 0.947 . S
C140 C175 1.382 . S
C141 C140 1.384 1_554 S
C141 C142 1.378 . S
C142 C141 1.378 . S
C142 C143 1.378 . S
C142 H154 0.952 . S
C143 C142 1.378 . S
C143 H155 0.950 . S
C143 C174 1.383 1_554 S
H144 C163 0.947 . S
H145 C164 0.946 . S
H146 C166 0.953 . S
H147 C167 0.945 . S
H148 C169 0.952 . S
H149 C170 0.949 . S
H150 C172 0.950 . S
H151 C173 0.948 . S
H152 C175 0.951 . S
H153 C140 0.947 . S
H154 C142 0.952 . S
H155 C143 0.950 . S
N156 C159 1.382 . S
N156 C161 1.363 . S
N157 C159 1.371 . S
N157 C160 1.372 . S
N158 C160 1.361 . S
N158 C161 1.377 . S
C159 N156 1.382 . S
C159 N157 1.371 . S
C159 C162 1.480 . S
C160 N157 1.372 . S
C160 N158 1.361 . S
C160 C168 1.457 . S
C161 N156 1.363 . S
C161 N158 1.377 . S
C161 C174 1.479 . S
C162 C159 1.480 . S
C162 C163 1.383 1_556 S
C162 C167 1.385 . S
C163 H144 0.947 . S
C163 C162 1.383 1_554 S
C163 C164 1.388 . S
C164 H145 0.946 . S
C164 C163 1.388 . S
C164 C165 1.384 . S
C165 C164 1.384 . S
C165 C166 1.377 1_554 S
C166 H146 0.953 . S
C166 C165 1.377 1_556 S
C166 C167 1.369 . S
C167 H147 0.945 . S
C167 C162 1.385 . S
C167 C166 1.369 . S
C168 C160 1.457 . S
C168 C169 1.372 . S
C168 C173 1.364 . S
C169 H148 0.952 . S
C169 C168 1.372 . S
C169 C170 1.389 . S
C170 H149 0.949 . S
C170 C169 1.389 . S
C170 C171 1.387 . S
C171 C170 1.387 . S
C171 C172 1.372 . S
C172 H150 0.950 . S
C172 C171 1.372 . S
C172 C173 1.379 . S
C173 H151 0.948 . S
C173 C168 1.364 . S
C173 C172 1.379 . S
C174 C143 1.383 1_556 S
C174 C161 1.479 . S
C174 C175 1.398 . S
C175 C140 1.382 . S
C175 H152 0.951 . S
C175 C174 1.398 . S
C176 C177 1.384 1_554 S
C176 H189 0.947 . S
C176 C211 1.382 . S
C177 C176 1.384 1_556 S
C177 C178 1.378 . S
C178 C177 1.378 . S
C178 C179 1.378 . S
C178 H190 0.952 . S
C179 C178 1.378 . S
C179 H191 0.950 . S
C179 C210 1.383 1_556 S
H180 C199 0.947 1_556 S
H181 C200 0.946 . S
H182 C202 0.953 . S
H183 C203 0.945 . S
H184 C205 0.952 . S
H185 C206 0.949 . S
H186 C208 0.950 . S
H187 C209 0.948 . S
H188 C211 0.951 . S
H189 C176 0.947 . S
H190 C178 0.952 . S
H191 C179 0.950 . S
N192 C195 1.382 . S
N192 C197 1.363 . S
N193 C195 1.371 . S
N193 C196 1.372 . S
N194 C196 1.361 . S
N194 C197 1.377 . S
C195 N192 1.382 . S
C195 N193 1.371 . S
C195 C198 1.480 . S
C196 N193 1.372 . S
C196 N194 1.361 . S
C196 C204 1.457 . S
C197 N192 1.363 . S
C197 N194 1.377 . S
C197 C210 1.479 . S
C198 C195 1.480 . S
C198 C199 1.383 . S
C198 C203 1.385 . S
C199 H180 0.947 1_554 S
C199 C198 1.383 . S
C199 C200 1.388 1_554 S
C200 H181 0.946 . S
C200 C199 1.388 1_556 S
C200 C201 1.384 1_556 S
C201 C200 1.384 1_554 S
C201 C202 1.377 . S
C202 H182 0.953 . S
C202 C201 1.377 . S
C202 C203 1.369 . S
C203 H183 0.945 . S
C203 C198 1.385 . S
C203 C202 1.369 . S
C204 C196 1.457 . S
C204 C205 1.372 . S
C204 C209 1.364 . S
C205 H184 0.952 . S
C205 C204 1.372 . S
C205 C206 1.389 . S
C206 H185 0.949 . S
C206 C205 1.389 . S
C206 C207 1.387 . S
C207 C206 1.387 . S
C207 C208 1.372 . S
C208 H186 0.950 . S
C208 C207 1.372 . S
C208 C209 1.379 . S
C209 H187 0.948 . S
C209 C204 1.364 . S
C209 C208 1.379 . S
C210 C179 1.383 1_554 S
C210 C197 1.479 . S
C210 C211 1.398 . S
C211 C176 1.382 . S
C211 H188 0.951 . S
C211 C210 1.398 . S
C212 C213 1.363 . S
C212 C218 1.379 . S
C212 N220 1.356 . S
C213 C212 1.363 . S
C213 C219 1.363 1_554 S
C214 C215 1.363 . S
C214 C219 1.379 . S
C214 N221 1.356 . S
C215 C214 1.363 . S
C215 C218 1.363 1_556 S
N216 C218 1.356 . S
N216 H228 0.984 . S
N216 H229 0.985 . S
N217 C219 1.356 . S
N217 H222 0.984 . S
N217 H223 0.985 . S
C218 C212 1.379 . S
C218 C215 1.363 1_554 S
C218 N216 1.356 . S
C219 C213 1.363 1_556 S
C219 C214 1.379 . S
C219 N217 1.356 . S
N220 C212 1.356 . S
N220 H226 0.984 . S
N220 H227 0.984 . S
N221 C214 1.356 . S
N221 H224 0.984 . S
N221 H225 0.985 . S
H222 N217 0.984 . S
H223 N217 0.985 . S
H224 N221 0.984 . S
H225 N221 0.985 . S
H226 N220 0.984 . S
H227 N220 0.984 . S
H228 N216 0.984 . S
H229 N216 0.985 . S
C230 C231 1.363 . S
C230 C236 1.379 . S
C230 N238 1.356 . S
C231 C230 1.363 . S
C231 C237 1.363 1_554 S
C232 C233 1.363 1_556 S
C232 C237 1.379 . S
C232 N239 1.356 . S
C233 C232 1.363 1_554 S
C233 C236 1.363 . S
N234 C236 1.356 . S
N234 H246 0.984 . S
N234 H247 0.985 . S
N235 C237 1.356 . S
N235 H240 0.984 . S
N235 H241 0.985 . S
C236 C230 1.379 . S
C236 C233 1.363 . S
C236 N234 1.356 . S
C237 C231 1.363 1_556 S
C237 C232 1.379 . S
C237 N235 1.356 . S
N238 C230 1.356 . S
N238 H244 0.984 . S
N238 H245 0.984 . S
N239 C232 1.356 . S
N239 H242 0.984 . S
N239 H243 0.985 . S
H240 N235 0.984 . S
H241 N235 0.985 . S
H242 N239 0.984 . S
H243 N239 0.985 . S
H244 N238 0.984 . S
H245 N238 0.984 . S
H246 N234 0.984 . S
H247 N234 0.985 . S
C248 C249 1.363 1_556 S
C248 C254 1.379 . S
C248 N256 1.356 . S
C249 C248 1.363 1_554 S
C249 C255 1.363 . S
C250 C251 1.363 1_554 S
C250 C255 1.379 . S
C250 N257 1.356 . S
C251 C250 1.363 1_556 S
C251 C254 1.363 . S
N252 C254 1.356 . S
N252 H264 0.984 . S
N252 H265 0.985 . S
N253 C255 1.356 . S
N253 H258 0.984 . S
N253 H259 0.985 . S
C254 C248 1.379 . S
C254 C251 1.363 . S
C254 N252 1.356 . S
C255 C249 1.363 . S
C255 C250 1.379 . S
C255 N253 1.356 . S
N256 C248 1.356 . S
N256 H262 0.984 . S
N256 H263 0.984 . S
N257 C250 1.356 . S
N257 H260 0.984 . S
N257 H261 0.985 . S
H258 N253 0.984 . S
H259 N253 0.985 . S
H260 N257 0.984 . S
H261 N257 0.985 . S
H262 N256 0.984 . S
H263 N256 0.984 . S
H264 N252 0.984 . S
H265 N252 0.985 . S
C266 C267 1.363 . S
C266 C272 1.379 . S
C266 N274 1.356 . S
C267 C266 1.363 . S
C267 C273 1.363 1_554 S
C268 C269 1.363 1_556 S
C268 C273 1.379 . S
C268 N275 1.356 . S
C269 C268 1.363 1_554 S
C269 C272 1.363 . S
N270 C272 1.356 . S
N270 H282 0.984 . S
N270 H283 0.985 . S
N271 C273 1.356 . S
N271 H276 0.984 . S
N271 H277 0.985 . S
C272 C266 1.379 . S
C272 C269 1.363 . S
C272 N270 1.356 . S
C273 C267 1.363 1_556 S
C273 C268 1.379 . S
C273 N271 1.356 . S
N274 C266 1.356 . S
N274 H280 0.984 . S
N274 H281 0.984 . S
N275 C268 1.356 . S
N275 H278 0.984 . S
N275 H279 0.985 . S
H276 N271 0.984 . S
H277 N271 0.985 . S
H278 N275 0.984 . S
H279 N275 0.985 . S
H280 N274 0.984 . S
H281 N274 0.984 . S
H282 N270 0.984 . S
H283 N270 0.985 . S
C284 C285 1.363 . S
C284 C290 1.379 . S
C284 N292 1.356 . S
C285 C284 1.363 . S
C285 C291 1.363 . S
C286 C287 1.363 . S
C286 C291 1.379 . S
C286 N293 1.356 . S
C287 C286 1.363 . S
C287 C290 1.363 . S
N288 C290 1.356 . S
N288 H300 0.984 . S
N288 H301 0.985 . S
N289 C291 1.356 . S
N289 H294 0.984 . S
N289 H295 0.985 . S
C290 C284 1.379 . S
C290 C287 1.363 . S
C290 N288 1.356 . S
C291 C285 1.363 . S
C291 C286 1.379 . S
C291 N289 1.356 . S
N292 C284 1.356 . S
N292 H298 0.984 . S
N292 H299 0.984 . S
N293 C286 1.356 . S
N293 H296 0.984 . S
N293 H297 0.985 . S
H294 N289 0.984 . S
H295 N289 0.985 . S
H296 N293 0.984 . S
H297 N293 0.985 . S
H298 N292 0.984 . S
H299 N292 0.984 . S
H300 N288 0.984 . S
H301 N288 0.985 . S
C302 C303 1.363 . S
C302 C308 1.379 . S
C302 N310 1.356 . S
C303 C302 1.363 . S
C303 C309 1.363 . S
C304 C305 1.363 . S
C304 C309 1.379 . S
C304 N311 1.356 . S
C305 C304 1.363 . S
C305 C308 1.363 . S
N306 C308 1.356 . S
N306 H318 0.984 . S
N306 H319 0.985 . S
N307 C309 1.356 . S
N307 H312 0.984 . S
N307 H313 0.985 . S
C308 C302 1.379 . S
C308 C305 1.363 . S
C308 N306 1.356 . S
C309 C303 1.363 . S
C309 C304 1.379 . S
C309 N307 1.356 . S
N310 C302 1.356 . S
N310 H316 0.984 . S
N310 H317 0.984 . S
N311 C304 1.356 . S
N311 H314 0.984 . S
N311 H315 0.985 . S
H312 N307 0.984 . S
H313 N307 0.985 . S
H314 N311 0.984 . S
H315 N311 0.985 . S
H316 N310 0.984 . S
H317 N310 0.984 . S
H318 N306 0.984 . S
H319 N306 0.985 . S
C320 C321 1.363 . S
C320 C326 1.379 . S
C320 N328 1.356 . S
C321 C320 1.363 . S
C321 C327 1.363 . S
C322 C323 1.363 . S
C322 C327 1.379 . S
C322 N329 1.356 . S
C323 C322 1.363 . S
C323 C326 1.363 . S
N324 C326 1.356 . S
N324 H336 0.984 . S
N324 H337 0.985 . S
N325 C327 1.356 . S
N325 H330 0.984 . S
N325 H331 0.985 . S
C326 C320 1.379 . S
C326 C323 1.363 . S
C326 N324 1.356 . S
C327 C321 1.363 . S
C327 C322 1.379 . S
C327 N325 1.356 . S
N328 C320 1.356 . S
N328 H334 0.984 . S
N328 H335 0.984 . S
N329 C322 1.356 . S
N329 H332 0.984 . S
N329 H333 0.985 . S
H330 N325 0.984 . S
H331 N325 0.985 . S
H332 N329 0.984 . S
H333 N329 0.985 . S
H334 N328 0.984 . S
H335 N328 0.984 . S
H336 N324 0.984 . S
H337 N324 0.985 . S
C338 C339 1.363 . S
C338 C344 1.379 . S
C338 N346 1.356 . S
C339 C338 1.363 . S
C339 C345 1.363 . S
C340 C341 1.363 . S
C340 C345 1.379 . S
C340 N347 1.356 . S
C341 C340 1.363 . S
C341 C344 1.363 . S
N342 C344 1.356 . S
N342 H354 0.984 . S
N342 H355 0.985 . S
N343 C345 1.356 . S
N343 H348 0.984 . S
N343 H349 0.985 . S
C344 C338 1.379 . S
C344 C341 1.363 . S
C344 N342 1.356 . S
C345 C339 1.363 . S
C345 C340 1.379 . S
C345 N343 1.356 . S
N346 C338 1.356 . S
N346 H352 0.984 . S
N346 H353 0.984 . S
N347 C340 1.356 . S
N347 H350 0.984 . S
N347 H351 0.985 . S
H348 N343 0.984 . S
H349 N343 0.985 . S
H350 N347 0.984 . S
H351 N347 0.985 . S
H352 N346 0.984 . S
H353 N346 0.984 . S
H354 N342 0.984 . S
H355 N342 0.985 . S
C356 C357 1.363 . S
C356 C362 1.379 . S
C356 N364 1.356 . S
C357 C356 1.363 . S
C357 C363 1.363 1_445 S
C358 C359 1.367 1_565 S
C358 C363 1.379 . S
C358 N365 1.356 . S
C359 C358 1.367 1_545 S
C359 C362 1.359 1_655 S
N360 C362 1.356 . S
N360 H372 0.984 . S
N360 H373 0.985 . S
N361 C363 1.356 . S
N361 H366 0.984 . S
N361 H367 0.985 . S
C362 C356 1.379 . S
C362 C359 1.359 1_455 S
C362 N360 1.356 . S
C363 C357 1.363 1_665 S
C363 C358 1.379 . S
C363 N361 1.356 . S
N364 C356 1.356 . S
N364 H370 0.984 . S
N364 H371 0.984 . S
N365 C358 1.356 . S
N365 H368 0.984 . S
N365 H369 0.985 . S
H366 N361 0.984 . S
H367 N361 0.985 . S
H368 N365 0.984 . S
H369 N365 0.985 . S
H370 N364 0.984 . S
H371 N364 0.984 . S
H372 N360 0.984 . S
H373 N360 0.985 . S
C374 C375 1.363 1_565 S
C374 C380 1.379 . S
C374 N382 1.356 . S
C375 C374 1.363 1_545 S
C375 C381 1.363 1_455 S
C376 C377 1.363 1_655 S
C376 C381 1.379 . S
C376 N383 1.356 . S
C377 C376 1.363 1_455 S
C377 C380 1.363 1_545 S
N378 C380 1.356 . S
N378 H390 0.984 . S
N378 H391 0.985 . S
N379 C381 1.356 . S
N379 H384 0.984 . S
N379 H385 0.985 . S
C380 C374 1.379 . S
C380 C377 1.363 1_565 S
C380 N378 1.356 . S
C381 C375 1.363 1_655 S
C381 C376 1.379 . S
C381 N379 1.356 . S
N382 C374 1.356 . S
N382 H388 0.984 . S
N382 H389 0.984 . S
N383 C376 1.356 . S
N383 H386 0.984 . S
N383 H387 0.985 . S
H384 N379 0.984 . S
H385 N379 0.985 . S
H386 N383 0.984 . S
H387 N383 0.985 . S
H388 N382 0.984 . S
H389 N382 0.984 . S
H390 N378 0.984 . S
H391 N378 0.985 . S
C392 C393 1.363 . S
C392 C398 1.379 . S
C392 N400 1.356 . S
C393 C392 1.363 . S
C393 C399 1.363 . S
C394 C395 1.363 . S
C394 C399 1.379 . S
C394 N401 1.356 . S
C395 C394 1.363 . S
C395 C398 1.363 . S
N396 C398 1.356 . S
N396 H408 0.984 . S
N396 H409 0.985 . S
N397 C399 1.356 . S
N397 H402 0.984 . S
N397 H403 0.985 . S
C398 C392 1.379 . S
C398 C395 1.363 . S
C398 N396 1.356 . S
C399 C393 1.363 . S
C399 C394 1.379 . S
C399 N397 1.356 . S
N400 C392 1.356 . S
N400 H406 0.984 . S
N400 H407 0.984 . S
N401 C394 1.356 . S
N401 H404 0.984 . S
N401 H405 0.985 . S
H402 N397 0.984 . S
H403 N397 0.985 . S
H404 N401 0.984 . S
H405 N401 0.985 . S
H406 N400 0.984 . S
H407 N400 0.984 . S
H408 N396 0.984 . S
H409 N396 0.985 . S
C410 C411 1.363 . S
C410 C416 1.379 . S
C410 N418 1.356 . S
C411 C410 1.363 . S
C411 C417 1.363 . S
C412 C413 1.363 . S
C412 C417 1.379 . S
C412 N419 1.356 . S
C413 C412 1.363 . S
C413 C416 1.363 . S
N414 C416 1.356 . S
N414 H426 0.984 . S
N414 H427 0.985 . S
N415 C417 1.356 . S
N415 H420 0.984 . S
N415 H421 0.985 . S
C416 C410 1.379 . S
C416 C413 1.363 . S
C416 N414 1.356 . S
C417 C411 1.363 . S
C417 C412 1.379 . S
C417 N415 1.356 . S
N418 C410 1.356 . S
N418 H424 0.984 . S
N418 H425 0.984 . S
N419 C412 1.356 . S
N419 H422 0.984 . S
N419 H423 0.985 . S
H420 N415 0.984 . S
H421 N415 0.985 . S
H422 N419 0.984 . S
H423 N419 0.985 . S
H424 N418 0.984 . S
H425 N418 0.984 . S
H426 N414 0.984 . S
H427 N414 0.985 . S
C215 C177 1.550 . S
C213 C29 1.623 . S
C231 C8 1.593 . S
C233 C141 1.530 . S
C249 C0 1.579 . S
C251 C201 1.488 1_556 S
C267 C17 1.609 . S
C269 C165 1.501 . S
C285 C63 1.623 . S
C287 C105 1.550 . S
C303 C42 1.593 . S
C305 C69 1.530 . S
C323 C129 1.488 . S
C321 C34 1.579 . S
C341 C93 1.501 . S
C339 C51 1.609 . S
C357 C4 1.491 . S
C359 C99 1.487 1_655 S
C375 C13 1.489 . S
C377 C135 1.487 . S
C395 C171 1.487 . S
C393 C38 1.491 . S
C411 C47 1.489 . S
C413 C207 1.487 . S
