# Generated by pormake.
# Topology zzz, (3,6)-cn, num edge types: 1
# Building blocks:
#     Node 0, Type 0, BuildingBlock: QEWDON_clean_linker_0, # of connection points: 3
#     Node 1, Type 0, BuildingBlock: QEWDON_clean_linker_0, # of connection points: 3
#     Node 2, Type 0, BuildingBlock: QEWDON_clean_linker_0, # of connection points: 3
#     Node 3, Type 0, BuildingBlock: QEWDON_clean_linker_0, # of connection points: 3
#     Node 4, Type 0, BuildingBlock: QEWDON_clean_linker_0, # of connection points: 3
#     Node 5, Type 0, BuildingBlock: QEWDON_clean_linker_0, # of connection points: 3
#     Node 6, Type 0, BuildingBlock: QEWDON_clean_linker_0, # of connection points: 3
#     Node 7, Type 0, BuildingBlock: QEWDON_clean_linker_0, # of connection points: 3
#     Node 8, Type 1, BuildingBlock: VOLQOD_clean_sbu_1, # of connection points: 6
#     Node 9, Type 1, BuildingBlock: VOLQOD_clean_sbu_1, # of connection points: 6
#     Node 10, Type 1, BuildingBlock: VOLQOD_clean_sbu_1, # of connection points: 6
#     Node 11, Type 1, BuildingBlock: VOLQOD_clean_sbu_1, # of connection points: 6
#     Edge 12, Type (0, 1), BuildingBlock: TEMPAE_clean_linker_10, # of connection points: 2
#     Edge 13, Type (0, 1), BuildingBlock: TEMPAE_clean_linker_10, # of connection points: 2
#     Edge 14, Type (0, 1), BuildingBlock: TEMPAE_clean_linker_10, # of connection points: 2
#     Edge 15, Type (0, 1), BuildingBlock: TEMPAE_clean_linker_10, # of connection points: 2
#     Edge 16, Type (0, 1), BuildingBlock: TEMPAE_clean_linker_10, # of connection points: 2
#     Edge 17, Type (0, 1), BuildingBlock: TEMPAE_clean_linker_10, # of connection points: 2
#     Edge 18, Type (0, 1), BuildingBlock: TEMPAE_clean_linker_10, # of connection points: 2
#     Edge 19, Type (0, 1), BuildingBlock: TEMPAE_clean_linker_10, # of connection points: 2
#     Edge 20, Type (0, 1), BuildingBlock: TEMPAE_clean_linker_10, # of connection points: 2
#     Edge 21, Type (0, 1), BuildingBlock: TEMPAE_clean_linker_10, # of connection points: 2
#     Edge 22, Type (0, 1), BuildingBlock: TEMPAE_clean_linker_10, # of connection points: 2
#     Edge 23, Type (0, 1), BuildingBlock: TEMPAE_clean_linker_10, # of connection points: 2
#     Edge 24, Type (0, 1), BuildingBlock: TEMPAE_clean_linker_10, # of connection points: 2
#     Edge 25, Type (0, 1), BuildingBlock: TEMPAE_clean_linker_10, # of connection points: 2
#     Edge 26, Type (0, 1), BuildingBlock: TEMPAE_clean_linker_10, # of connection points: 2
#     Edge 27, Type (0, 1), BuildingBlock: TEMPAE_clean_linker_10, # of connection points: 2
#     Edge 28, Type (0, 1), BuildingBlock: TEMPAE_clean_linker_10, # of connection points: 2
#     Edge 29, Type (0, 1), BuildingBlock: TEMPAE_clean_linker_10, # of connection points: 2
#     Edge 30, Type (0, 1), BuildingBlock: TEMPAE_clean_linker_10, # of connection points: 2
#     Edge 31, Type (0, 1), BuildingBlock: TEMPAE_clean_linker_10, # of connection points: 2
#     Edge 32, Type (0, 1), BuildingBlock: TEMPAE_clean_linker_10, # of connection points: 2
#     Edge 33, Type (0, 1), BuildingBlock: TEMPAE_clean_linker_10, # of connection points: 2
#     Edge 34, Type (0, 1), BuildingBlock: TEMPAE_clean_linker_10, # of connection points: 2
#     Edge 35, Type (0, 1), BuildingBlock: TEMPAE_clean_linker_10, # of connection points: 2
# Relax obj value: 0.147
# Max RMSD: 0.236
# Mean RMSD: 0.099
data_MOF--net-zzz--node1-VOLQOD_clean_sbu_1--node2-QEWDON_clean_linker_0--edge1-TEMPAE_clean_linker_10
_symmetry_space_group_name_H-M    P1
_symmetry_Int_Tables_number       1
_symmetry_cell_setting            triclinic
loop_
_symmetry_equiv_pos_as_xyz
'x, y, z'
_cell_length_a     55.474282
_cell_length_b     55.256913
_cell_length_c     17.243948
_cell_angle_alpha  90.178548
_cell_angle_beta   89.866828
_cell_angle_gamma 90.688176
loop_
_atom_site_label
_atom_site_type_symbol
_atom_site_fract_x
_atom_site_fract_y
_atom_site_fract_z
_atom_type_partial_charge
H0 H 0.7775 0.52263 0.02481 0.0
C1 C 0.78927 0.52632 0.07356 0.0
C2 C 0.81222 0.51598 0.07447 0.0
C3 C 0.78202 0.54197 0.13417 0.0
H4 H 0.84637 0.51459 0.13249 0.0
C5 C 0.82831 0.52196 0.13374 0.0
C6 C 0.82206 0.53819 0.19229 0.0
C7 C 0.79864 0.54748 0.19426 0.0
C8 C 0.75779 0.55361 0.13254 0.0
H9 H 0.79375 0.55941 0.24152 0.0
C10 C 0.73748 0.54163 0.10017 0.0
C11 C 0.71485 0.55296 0.09802 0.0
C12 C 0.75492 0.57721 0.16211 0.0
H13 H 0.77008 0.58746 0.18489 0.0
C14 C 0.73249 0.5883 0.16108 0.0
H15 H 0.73906 0.52341 0.07755 0.0
C16 C 0.71259 0.57631 0.12943 0.0
H17 H 0.69551 0.58559 0.12768 0.0
H18 H 0.73061 0.60645 0.1839 0.0
H19 H 0.00769 0.77424 0.0327 0.0
C20 C 0.00638 0.78248 0.08963 0.0
C21 C 0.0206 0.80307 0.1068 0.0
C22 C 0.98938 0.77359 0.14389 0.0
H23 H 0.02759 0.83124 0.19067 0.0
C24 C 0.0179 0.81446 0.17898 0.0
C25 C 1.00076 0.80635 0.23269 0.0
C26 C 0.98681 0.78573 0.21556 0.0
C27 C 0.97285 0.75304 0.12362 0.0
H28 H 0.9736 0.77954 0.25766 0.0
C29 C 0.98098 0.73287 0.08084 0.0
C30 C 0.96507 0.7136 0.06205 0.0
C31 C 0.94848 0.75373 0.14648 0.0
H32 H 0.94137 0.76918 0.17735 0.0
C33 C 0.9328 0.73464 0.12895 0.0
H34 H 0.99961 0.73221 0.06213 0.0
C35 C 0.94099 0.71468 0.08752 0.0
H36 H 0.92842 0.69997 0.07596 0.0
H37 H 0.91417 0.73532 0.1475 0.0
H38 H 0.72815 0.01278 -0.00062 0.0
C39 C 0.71977 0.01028 0.05569 0.0
C40 C 0.69935 0.02385 0.07556 0.0
C41 C 0.72803 0.99195 0.10528 0.0
H42 H 0.67155 0.02899 0.16139 0.0
C43 C 0.68811 0.01968 0.14734 0.0
C44 C 0.69586 0.00137 0.19687 0.0
C45 C 0.71586 0.98754 0.17573 0.0
C46 C 0.74712 0.97526 0.07874 0.0
H47 H 0.72149 0.9729 0.21301 0.0
C48 C 0.76907 0.98409 0.04795 0.0
C49 C 0.7864 0.9679 0.01941 0.0
C50 C 0.74289 0.95012 0.08133 0.0
H51 H 0.72606 0.94286 0.10382 0.0
C52 C 0.76006 0.9341 0.05301 0.0
H53 H 0.77259 0.00341 0.04576 0.0
C54 C 0.78164 0.9429 0.02188 0.0
H55 H 0.79479 0.93015 0.00045 0.0
H56 H 0.75656 0.9148 0.05485 0.0
H57 H 0.50345 0.72951 0.01961 0.0
C58 C 0.50556 0.72036 0.07462 0.0
C59 C 0.49195 0.69924 0.08971 0.0
C60 C 0.52294 0.72873 0.12836 0.0
H61 H 0.48639 0.66966 0.16923 0.0
C62 C 0.49564 0.68679 0.15931 0.0
C63 C 0.51319 0.69442 0.2122 0.0
C64 C 0.52658 0.71553 0.19716 0.0
C65 C 0.53856 0.75013 0.11071 0.0
H66 H 0.5401 0.72136 0.2387 0.0
C67 C 0.52911 0.77093 0.07521 0.0
C68 C 0.54395 0.79133 0.06152 0.0
C69 C 0.56321 0.74988 0.13004 0.0
H70 H 0.57127 0.73399 0.15528 0.0
C71 C 0.57792 0.77005 0.11625 0.0
H72 H 0.51017 0.77155 0.06017 0.0
C73 C 0.56837 0.79071 0.08266 0.0
H74 H 0.58017 0.80611 0.07197 0.0
H75 H 0.59683 0.76962 0.13145 0.0
H76 H 0.23919 0.53 0.29422 0.0
C77 C 0.22771 0.52025 0.2538 0.0
C78 C 0.20261 0.52061 0.26414 0.0
C79 C 0.23772 0.50809 0.18927 0.0
H80 H 0.16821 0.50858 0.22023 0.0
C81 C 0.18762 0.50824 0.212 0.0
C82 C 0.19709 0.49617 0.14805 0.0
C83 C 0.22209 0.49616 0.13638 0.0
C84 C 0.26427 0.50834 0.1751 0.0
H85 H 0.22925 0.48668 0.08644 0.0
C86 C 0.28088 0.50616 0.23662 0.0
C87 C 0.30581 0.50514 0.22138 0.0
C88 C 0.27317 0.51033 0.09878 0.0
H89 H 0.26106 0.51273 0.05032 0.0
C90 C 0.29785 0.50942 0.08384 0.0
H91 H 0.2745 0.50452 0.29584 0.0
C92 C 0.31408 0.50665 0.14458 0.0
H93 H 0.3332 0.50602 0.13174 0.0
H94 H 0.30443 0.51089 0.02487 0.0
H95 H 0.00897 0.22707 0.30932 0.0
C96 C 0.02031 0.21691 0.27 0.0
C97 C 0.02605 0.19296 0.28782 0.0
C98 C 0.02832 0.2273 0.19982 0.0
H99 H 0.04274 0.16042 0.2484 0.0
C100 C 0.03973 0.17938 0.23577 0.0
C101 C 0.04731 0.189 0.16467 0.0
C102 C 0.04177 0.21314 0.14727 0.0
C103 C 0.02109 0.25224 0.17893 0.0
H104 H 0.04752 0.22071 0.09227 0.0
C105 C 0.02211 0.27114 0.23397 0.0
C106 C 0.01462 0.29466 0.21461 0.0
C107 C 0.01252 0.25713 0.10402 0.0
H108 H 0.01114 0.24291 0.06085 0.0
C109 C 0.00502 0.28032 0.08456 0.0
H110 H 0.02916 0.2676 0.29131 0.0
C111 C 0.00596 0.29893 0.13929 0.0
H112 H 0.99954 0.31661 0.12281 0.0
H113 H 0.99821 0.28382 0.02695 0.0
H114 H 0.27541 0.99779 0.293 0.0
C115 C 0.2869 0.00838 0.25485 0.0
C116 C 0.31179 0.00896 0.26817 0.0
C117 C 0.27713 0.02096 0.19119 0.0
H118 H 0.34634 0.02123 0.22782 0.0
C119 C 0.32702 0.02178 0.21818 0.0
C120 C 0.31794 0.03418 0.15432 0.0
C121 C 0.29296 0.03391 0.14131 0.0
C122 C 0.25066 0.02014 0.17536 0.0
H123 H 0.28598 0.04384 0.09237 0.0
C124 C 0.23365 0.01933 0.23647 0.0
C125 C 0.20876 0.01908 0.22078 0.0
C126 C 0.24215 0.0202 0.0984 0.0
H127 H 0.25451 0.02 0.04976 0.0
C128 C 0.21748 0.02014 0.08291 0.0
H129 H 0.23961 0.01944 0.29625 0.0
C130 C 0.20086 0.01973 0.14359 0.0
H131 H 0.18178 0.01943 0.13025 0.0
H132 H 0.21122 0.02025 0.0235 0.0
H133 H 0.5082 0.27207 0.32067 0.0
C134 C 0.49823 0.28459 0.28514 0.0
C135 C 0.49593 0.30856 0.31024 0.0
C136 C 0.48837 0.27718 0.21324 0.0
H137 H 0.48297 0.34389 0.2833 0.0
C138 C 0.48424 0.32527 0.26351 0.0
C139 C 0.47673 0.31917 0.18865 0.0
C140 C 0.4778 0.29483 0.16496 0.0
C141 C 0.49022 0.25143 0.18715 0.0
H142 H 0.47116 0.28994 0.10802 0.0
C143 C 0.48929 0.23229 0.24125 0.0
C144 C 0.49074 0.20807 0.21661 0.0
C145 C 0.49297 0.24569 0.10792 0.0
H146 H 0.49464 0.25972 0.06456 0.0
C147 C 0.49406 0.22164 0.08338 0.0
H148 H 0.48699 0.23606 0.30249 0.0
C149 C 0.49283 0.2029 0.13722 0.0
H150 H 0.49407 0.18436 0.11707 0.0
H151 H 0.49612 0.21751 0.02233 0.0
O152 O 0.07159 1.00093 0.66645 0.0
Zn153 Zn 0.04701 0.99819 0.7529 0.0
O154 O 0.01381 0.99787 0.71188 0.0
Zn155 Zn 0.99591 0.02526 0.75197 0.0
Zn156 Zn 0.01466 0.99878 0.59826 0.0
Zn157 Zn 0.99656 0.96913 0.74601 0.0
O158 O 0.96344 0.01618 0.79751 0.0
O159 O 0.96491 0.97614 0.7984 0.0
O160 O 0.05221 0.02738 0.82328 0.0
O161 O 0.01545 0.04295 0.83178 0.0
O162 O 0.9904 0.04905 0.66737 0.0
O163 O 1.00022 0.03001 0.5584 0.0
O164 O 0.99937 0.96852 0.55132 0.0
O165 O 0.05359 0.96698 0.81224 0.0
O166 O 0.98992 0.94713 0.65602 0.0
O167 O 0.01686 0.95034 0.81816 0.0
C168 C 0.06964 1.00064 0.59287 0.0
C169 C 0.95395 0.99571 0.81351 0.0
C170 C 0.9924 0.04867 0.59389 0.0
C171 C 0.03759 0.04283 0.85094 0.0
C172 C 0.99141 0.9491 0.58266 0.0
C173 C 0.03908 0.95051 0.83595 0.0
O174 O 0.0491 0.99929 0.5602 0.0
O175 O 0.50105 0.06404 0.63834 0.0
Zn176 Zn 0.50447 0.03924 0.72348 0.0
O177 O 0.50562 0.00609 0.68035 0.0
Zn178 Zn 0.47895 0.98655 0.7207 0.0
Zn179 Zn 0.50442 0.00732 0.56683 0.0
Zn180 Zn 0.53499 0.99022 0.71144 0.0
O181 O 0.48935 0.95536 0.77093 0.0
O182 O 0.52913 0.958 0.76219 0.0
O183 O 0.47558 0.04293 0.79549 0.0
O184 O 0.46038 0.00551 0.79889 0.0
O185 O 0.45569 0.97855 0.63555 0.0
O186 O 0.47365 0.99135 0.52764 0.0
O187 O 0.53457 0.9934 0.51744 0.0
O188 O 0.53549 0.04718 0.7824 0.0
O189 O 0.55665 0.98474 0.62051 0.0
O190 O 0.55345 0.01134 0.7842 0.0
C191 C 0.50144 0.06236 0.56466 0.0
C192 C 0.51012 0.94656 0.78255 0.0
C193 C 0.45579 0.98136 0.56231 0.0
C194 C 0.46022 0.02751 0.82086 0.0
C195 C 0.55423 0.9862 0.54737 0.0
C196 C 0.55254 0.03349 0.80406 0.0
O197 O 0.50325 0.04197 0.53071 0.0
O198 O 0.44695 0.50166 0.6537 0.0
Zn199 Zn 0.47182 0.5038 0.73937 0.0
O200 O 0.50492 0.50504 0.69568 0.0
Zn201 Zn 0.52432 0.47893 0.73681 0.0
Zn202 Zn 0.50363 0.50286 0.58205 0.0
Zn203 Zn 0.52117 0.53479 0.72569 0.0
O204 O 0.55424 0.48995 0.79569 0.0
O205 O 0.55243 0.52966 0.78146 0.0
O206 O 0.46712 0.47397 0.80752 0.0
O207 O 0.50376 0.45803 0.80392 0.0
O208 O 0.53421 0.4565 0.65248 0.0
O209 O 0.51852 0.47138 0.54467 0.0
O210 O 0.51889 0.53251 0.53139 0.0
O211 O 0.46464 0.53459 0.80028 0.0
O212 O 0.52799 0.55539 0.63341 0.0
O213 O 0.49999 0.55406 0.79457 0.0
C214 C 0.44856 0.50182 0.57998 0.0
C215 C 0.56314 0.51104 0.80659 0.0
C216 C 0.53007 0.45492 0.58018 0.0
C217 C 0.48185 0.45738 0.8258 0.0
C218 C 0.52673 0.55236 0.5604 0.0
C219 C 0.47825 0.55255 0.81761 0.0
O220 O 0.46897 0.50254 0.54599 0.0
O221 O 0.98069 0.53628 0.55198 0.0
Zn222 Zn 0.00879 0.53175 0.62704 0.0
O223 O 0.00712 0.49939 0.67576 0.0
Zn224 Zn 0.00381 0.50315 0.7884 0.0
Zn225 Zn 0.9799 0.48083 0.63498 0.0
Zn226 Zn 0.03589 0.48083 0.65203 0.0
O227 O 0.03299 0.48983 0.84423 0.0
O228 O 0.0548 0.47429 0.74843 0.0
O229 O 0.00627 0.55835 0.70722 0.0
O230 O 1.00198 0.53847 0.81802 0.0
O231 O 0.97234 0.48826 0.82597 0.0
O232 O 0.95556 0.47404 0.71805 0.0
O233 O 0.98931 0.44947 0.58401 0.0
O234 O 0.04098 0.53658 0.57194 0.0
O235 O 0.02898 0.44913 0.59732 0.0
O236 O 0.05773 0.50033 0.58383 0.0
C237 C 0.96409 0.52163 0.52997 0.0
C238 C 0.05183 0.47909 0.82002 0.0
C239 C 0.95475 0.47803 0.7907 0.0
C240 C 0.00337 0.55825 0.78051 0.0
C241 C 0.00951 0.43928 0.57339 0.0
C242 C 0.05815 0.52197 0.55891 0.0
O243 O 0.96261 0.50018 0.55614 0.0
C244 C 0.19093 0.99817 0.33615 0.0
C245 C 0.19077 0.01762 0.28424 0.0
C246 C 0.17233 0.99506 0.39086 0.0
C247 C 0.15347 0.01211 0.39459 0.0
C248 C 0.1539 0.03238 0.34447 0.0
C249 C 0.1724 0.03472 0.28926 0.0
C250 C 0.17229 0.97298 0.4422 0.0
C251 C 0.13444 0.05124 0.34765 0.0
C252 C 0.09133 0.99352 0.46779 0.0
C253 C 0.09157 0.00251 0.54392 0.0
C254 C 0.11162 0.99588 0.41953 0.0
C255 C 0.1325 0.00806 0.44738 0.0
C256 C 0.13293 0.01703 0.52439 0.0
C257 C 0.11254 0.0139 0.57208 0.0
C258 C 0.11061 0.98558 0.33834 0.0
C259 C 0.15465 0.03055 0.55566 0.0
H260 H 0.20505 0.98484 0.33167 0.0
H261 H 0.1724 0.04982 0.24924 0.0
H262 H 0.17055 0.97835 0.50396 0.0
H263 H 0.15649 0.96129 0.42803 0.0
H264 H 0.18891 0.96217 0.43513 0.0
H265 H 0.13853 0.06693 0.30948 0.0
H266 H 0.11699 0.04307 0.32936 0.0
H267 H 0.13214 0.0579 0.40796 0.0
H268 H 0.07524 0.98452 0.44592 0.0
H269 H 0.11277 0.02102 0.63072 0.0
H270 H 0.12606 0.97338 0.32837 0.0
H271 H 0.11208 1.00044 0.29541 0.0
H272 H 0.09362 0.97531 0.32727 0.0
H273 H 0.17097 0.01927 0.55028 0.0
H274 H 0.15237 0.03583 0.61743 0.0
H275 H 0.1579 0.04715 0.52094 0.0
C276 C 0.47425 0.16886 0.26702 0.0
C277 C 0.49083 0.18807 0.27355 0.0
C278 C 0.47511 0.14905 0.31768 0.0
C279 C 0.49339 0.14819 0.37482 0.0
C280 C 0.51002 0.16772 0.38208 0.0
C281 C 0.50835 0.18759 0.33185 0.0
C282 C 0.4567 0.12887 0.30922 0.0
C283 C 0.5301 0.16724 0.441 0.0
C284 C 0.48684 0.10455 0.54415 0.0
C285 C 0.49972 0.08452 0.51716 0.0
C286 C 0.48442 0.12534 0.4982 0.0
C287 C 0.49576 0.12636 0.42457 0.0
C288 C 0.50922 0.10636 0.39785 0.0
C289 C 0.51073 0.08555 0.44399 0.0
C290 C 0.4694 0.14603 0.5278 0.0
C291 C 0.52209 0.10695 0.32059 0.0
H292 H 0.46064 0.16935 0.22204 0.0
H293 H 0.5213 0.20239 0.33626 0.0
H294 H 0.46576 0.11199 0.29091 0.0
H295 H 0.44786 0.1252 0.36583 0.0
H296 H 0.4426 0.13315 0.2659 0.0
H297 H 0.54116 0.18413 0.44052 0.0
H298 H 0.5226 0.16463 0.50009 0.0
H299 H 0.54204 0.15171 0.42883 0.0
H300 H 0.47814 0.10372 0.60046 0.0
H301 H 0.52088 0.07017 0.42322 0.0
H302 H 0.4545 0.14958 0.48669 0.0
H303 H 0.48054 0.1628 0.53134 0.0
H304 H 0.46156 0.1423 0.58595 0.0
H305 H 0.50882 0.10886 0.27305 0.0
H306 H 0.53271 0.09034 0.30991 0.0
H307 H 0.53444 0.12287 0.31794 0.0
C308 C 0.33949 0.48316 0.28427 0.0
C309 C 0.32359 0.50266 0.28463 0.0
C310 C 0.35848 0.48199 0.33772 0.0
C311 C 0.362 0.50113 0.39154 0.0
C312 C 0.34549 0.52051 0.39364 0.0
C313 C 0.32629 0.52091 0.34052 0.0
C314 C 0.37532 0.46074 0.33455 0.0
C315 C 0.34884 0.54146 0.4491 0.0
C316 C 0.40459 0.49212 0.56193 0.0
C317 C 0.42628 0.50172 0.53255 0.0
C318 C 0.3835 0.49172 0.51676 0.0
C319 C 0.38398 0.50171 0.44121 0.0
C320 C 0.40574 0.51183 0.41192 0.0
C321 C 0.42666 0.51144 0.45752 0.0
C322 C 0.36082 0.48026 0.54932 0.0
C323 C 0.40694 0.52309 0.33228 0.0
H324 H 0.33731 0.46903 0.24094 0.0
H325 H 0.31409 0.5361 0.3401 0.0
H326 H 0.39333 0.46687 0.31387 0.0
H327 H 0.37772 0.45303 0.39333 0.0
H328 H 0.36864 0.44622 0.29514 0.0
H329 H 0.33354 0.55424 0.44718 0.0
H330 H 0.3508 0.53479 0.50932 0.0
H331 H 0.36566 0.55151 0.43426 0.0
H332 H 0.40422 0.48447 0.61973 0.0
H333 H 0.44329 0.51912 0.43475 0.0
H334 H 0.35496 0.46498 0.51166 0.0
H335 H 0.34602 0.49357 0.54993 0.0
H336 H 0.36338 0.47338 0.60917 0.0
H337 H 0.40288 0.5092 0.28745 0.0
H338 H 0.42492 0.53123 0.31958 0.0
H339 H 0.39314 0.53737 0.32711 0.0
C340 C 0.02222 0.33824 0.24949 0.0
C341 C 0.01555 0.31474 0.27255 0.0
C342 C 0.02177 0.35769 0.30193 0.0
C343 C 0.01483 0.35357 0.37985 0.0
C344 C 0.0088 0.32981 0.40429 0.0
C345 C 0.0091 0.31071 0.35029 0.0
C346 C 0.02827 0.38276 0.27343 0.0
C347 C 1.00153 0.32467 0.48709 0.0
C348 C 0.03196 0.40323 0.52343 0.0
C349 C 0.01045 0.41627 0.52881 0.0
C350 C 0.03345 0.3823 0.47721 0.0
C351 C 0.01302 0.37437 0.43465 0.0
C352 C 0.99112 0.38711 0.44123 0.0
C353 C 0.99006 0.40781 0.48849 0.0
C354 C 0.05703 0.36902 0.47247 0.0
C355 C 0.96898 0.37936 0.39629 0.0
H356 H 0.02772 0.34148 0.19006 0.0
H357 H 0.00368 0.2927 0.36862 0.0
H358 H 0.01263 0.3949 0.28086 0.0
H359 H 0.0433 0.39046 0.3083 0.0
H360 H 0.03368 0.38285 0.21136 0.0
H361 H 0.99896 0.30501 0.49808 0.0
H362 H 0.01542 0.33185 0.52754 0.0
H363 H 0.98443 0.33401 0.50072 0.0
H364 H 0.04778 0.40951 0.55469 0.0
H365 H 0.97337 0.41774 0.49206 0.0
H366 H 0.06439 0.37025 0.41272 0.0
H367 H 0.05413 0.34953 0.48533 0.0
H368 H 0.07069 0.37647 0.51336 0.0
H369 H 0.97267 0.38072 0.33316 0.0
H370 H 0.95307 0.39061 0.41025 0.0
H371 H 0.96442 0.36017 0.40879 0.0
C372 C 0.81661 0.97 0.91243 0.0
C373 C 0.8097 0.97665 0.98761 0.0
C374 C 0.83974 0.97559 0.88423 0.0
C375 C 0.85654 0.98762 0.93313 0.0
C376 C 0.84936 0.99506 0.00837 0.0
C377 C 0.82588 0.98967 0.03451 0.0
C378 C 0.84649 0.96778 0.80311 0.0
C379 C 0.86683 0.00757 0.06267 0.0
C380 C 0.92197 0.97366 0.88844 0.0
C381 C 0.92952 0.99446 0.84836 0.0
C382 C 0.89853 0.97164 0.91874 0.0
C383 C 0.88204 0.99066 0.90734 0.0
C384 C 0.88965 0.01188 0.86795 0.0
C385 C 0.91339 0.01363 0.83958 0.0
C386 C 0.89129 0.94889 0.9617 0.0
C387 C 0.87249 0.03237 0.85349 0.0
H388 H 0.80399 0.96 0.87622 0.0
H389 H 0.82053 0.99459 0.09293 0.0
H390 H 0.85463 0.98318 0.77079 0.0
H391 H 0.86018 0.95335 0.80588 0.0
H392 H 0.83071 0.96076 0.77007 0.0
H393 H 0.85793 0.01388 0.11673 0.0
H394 H 0.88137 0.99489 0.07848 0.0
H395 H 0.8755 0.02333 0.03373 0.0
H396 H 0.9344 0.95888 0.8961 0.0
H397 H 0.91908 0.02971 0.80834 0.0
H398 H 0.87708 0.93902 0.92881 0.0
H399 H 0.88361 0.95358 0.01921 0.0
H400 H 0.90671 0.93656 0.97041 0.0
H401 H 0.85757 0.02596 0.81558 0.0
H402 H 0.88151 0.04812 0.82537 0.0
H403 H 0.86429 0.03845 0.90882 0.0
C404 C 0.53863 0.83608 0.05815 0.0
C405 C 0.53438 0.81334 0.02436 0.0
C406 C 0.53218 0.85738 0.01982 0.0
C407 C 0.52157 0.85589 0.94532 0.0
C408 C 0.5164 0.83291 0.9122 0.0
C409 C 0.52272 0.81185 0.9525 0.0
C410 C 0.53763 0.8815 0.05775 0.0
C411 C 0.50536 0.83058 0.83258 0.0
C412 C 0.49323 0.91287 0.86437 0.0
C413 C 0.51241 0.92277 0.82117 0.0
C414 C 0.49576 0.89089 0.90425 0.0
C415 C 0.51785 0.87838 0.89981 0.0
C416 C 0.53701 0.88796 0.85449 0.0
C417 C 0.53411 0.91009 0.81626 0.0
C418 C 0.47506 0.88141 0.95282 0.0
C419 C 0.56075 0.87502 0.8474 0.0
H420 H 0.54745 0.83719 0.11413 0.0
H421 H 0.51959 0.79425 0.9262 0.0
H422 H 0.55197 0.89111 0.02464 0.0
H423 H 0.52142 0.89306 0.05712 0.0
H424 H 0.54375 0.8795 0.11867 0.0
H425 H 0.50055 0.81153 0.81797 0.0
H426 H 0.48893 0.84174 0.82847 0.0
H427 H 0.51832 0.83745 0.78851 0.0
H428 H 0.47642 0.92259 0.86865 0.0
H429 H 0.54894 0.91749 0.78244 0.0
H430 H 0.48047 0.88098 0.01471 0.0
H431 H 0.47041 0.86257 0.93556 0.0
H432 H 0.45871 0.89269 0.9474 0.0
H433 H 0.56956 0.87415 0.905 0.0
H434 H 0.57332 0.88415 0.80631 0.0
H435 H 0.55768 0.85613 0.82743 0.0
C436 C 0.67094 0.54184 0.09587 0.0
C437 C 0.69366 0.54124 0.06008 0.0
C438 C 0.65012 0.53406 0.05648 0.0
C439 C 0.652 0.52564 0.97909 0.0
C440 C 0.67505 0.52378 0.94407 0.0
C441 C 0.69563 0.53152 0.98513 0.0
C442 C 0.62596 0.53608 0.09637 0.0
C443 C 0.67784 0.51499 0.86161 0.0
C444 C 0.597 0.49484 0.88781 0.0
C445 C 0.58626 0.51426 0.84913 0.0
C446 C 0.61856 0.49812 0.92971 0.0
C447 C 0.62972 0.5213 0.93251 0.0
C448 C 0.61917 0.54083 0.89252 0.0
C449 C 0.5976 0.5371 0.85168 0.0
C450 C 0.6292 0.4769 0.97198 0.0
C451 C 0.63052 0.56582 0.89354 0.0
H452 H 0.66939 0.54905 0.1542 0.0
H453 H 0.71313 0.53117 0.95702 0.0
H454 H 0.61534 0.55052 0.06843 0.0
H455 H 0.61554 0.51892 0.09037 0.0
H456 H 0.62779 0.54047 0.15902 0.0
H457 H 0.69701 0.51203 0.84589 0.0
H458 H 0.66761 0.49785 0.85267 0.0
H459 H 0.67031 0.52857 0.82137 0.0
H460 H 0.58841 0.47713 0.88629 0.0
H461 H 0.58959 0.55221 0.8217 0.0
H462 H 0.62957 0.48069 0.03519 0.0
H463 H 0.6481 0.47416 0.95312 0.0
H464 H 0.61881 0.45987 0.96194 0.0
H465 H 0.63114 0.57284 0.95387 0.0
H466 H 0.6205 0.57887 0.85726 0.0
H467 H 0.64938 0.56501 0.87217 0.0
C468 C 0.95789 0.68153 0.96113 0.0
C469 C 0.97325 0.69221 0.01644 0.0
C470 C 0.96424 0.66022 0.92211 0.0
C471 C 0.98675 0.64948 0.93744 0.0
C472 C 0.0028 0.66064 0.99081 0.0
C473 C 0.99581 0.6818 0.03003 0.0
C474 C 0.94654 0.64887 0.86591 0.0
C475 C 0.0271 0.6499 0.00787 0.0
C476 C 0.99049 0.58197 0.89716 0.0
C477 C 1.00066 0.58154 0.82259 0.0
C478 C 0.98635 0.60393 0.93585 0.0
C479 C 0.99291 0.62604 0.89969 0.0
C480 C 0.00394 0.62571 0.82557 0.0
C481 C 0.0075 0.60349 0.78762 0.0
C482 C 0.97421 0.6035 0.01433 0.0
C483 C 0.01153 0.64887 0.78566 0.0
H484 H 0.94068 0.68972 0.94875 0.0
H485 H 0.00775 0.68977 0.07299 0.0
H486 H 0.95503 0.64682 0.80801 0.0
H487 H 0.94132 0.63049 0.88613 0.0
H488 H 0.92993 0.65973 0.85952 0.0
H489 H 0.03822 0.66174 0.04613 0.0
H490 H 0.02464 0.63209 0.03652 0.0
H491 H 0.03712 0.64672 0.95308 0.0
H492 H 0.98506 0.56513 0.92456 0.0
H493 H 0.01555 0.60333 0.73029 0.0
H494 H 0.95659 0.61273 0.01085 0.0
H495 H 0.98534 0.61353 0.05737 0.0
H496 H 0.97108 0.58479 0.03584 0.0
H497 H 0.99538 0.65969 0.7719 0.0
H498 H 0.02157 0.64545 0.73099 0.0
H499 H 0.02306 0.66 0.82472 0.0
C500 C 0.99113 0.17316 0.35249 0.0
C501 C 0.01548 0.1801 0.35468 0.0
C502 C 0.98257 0.1538 0.39788 0.0
C503 C 0.99886 0.1413 0.44605 0.0
C504 C 0.02286 0.15 0.45423 0.0
C505 C 0.0309 0.16928 0.40805 0.0
C506 C 0.95681 0.1453 0.38833 0.0
C507 C 0.04073 0.13745 0.50584 0.0
C508 C 0.98196 0.09261 0.59096 0.0
C509 C 0.98896 0.0716 0.551 0.0
C510 C 0.9835 0.11545 0.55588 0.0
C511 C 0.99221 0.11732 0.47905 0.0
C512 C 0.99742 0.09604 0.43634 0.0
C513 C 0.9957 0.07342 0.47282 0.0
C514 C 0.97749 0.13766 0.603 0.0
C515 C 0.00649 0.09726 0.35374 0.0
H516 H 0.97933 0.18135 0.3102 0.0
H517 H 0.04979 0.17459 0.40885 0.0
H518 H 0.95632 0.12919 0.34974 0.0
H519 H 0.94887 0.13987 0.44485 0.0
H520 H 0.94543 0.15951 0.36214 0.0
H521 H 0.05764 0.1482 0.51305 0.0
H522 H 0.0328 0.13402 0.56393 0.0
H523 H 0.04536 0.11966 0.48012 0.0
H524 H 0.97645 0.09143 0.6512 0.0
H525 H 1.00096 0.05733 0.44121 0.0
H526 H 0.96692 0.13304 0.65583 0.0
H527 H 0.96715 0.15073 0.56795 0.0
H528 H 0.99445 0.14685 0.62132 0.0
H529 H 0.99461 0.1088 0.31821 0.0
H530 H 0.00746 0.07909 0.32626 0.0
H531 H 0.02479 0.10562 0.35278 0.0
C532 C 0.33113 0.0095 0.39632 0.0
C533 C 0.32323 0.996 0.33239 0.0
C534 C 0.35064 0.00174 0.44088 0.0
C535 C 0.36237 0.97996 0.4206 0.0
C536 C 0.35247 0.96485 0.36206 0.0
C537 C 0.33302 0.97318 0.31799 0.0
C538 C 0.36047 0.01834 0.50325 0.0
C539 C 0.36401 0.94121 0.34009 0.0
C540 C 0.4299 0.98608 0.44504 0.0
C541 C 0.43321 0.97625 0.51903 0.0
C542 C 0.40707 0.98609 0.41035 0.0
C543 C 0.38711 0.97568 0.45016 0.0
C544 C 0.39073 0.96384 0.52165 0.0
C545 C 0.41373 0.96439 0.55555 0.0
C546 C 0.40402 0.99882 0.33358 0.0
C547 C 0.37008 0.95199 0.56487 0.0
H548 H 0.32372 0.02732 0.40632 0.0
H549 H 0.32707 0.96296 0.2676 0.0
H550 H 0.36489 0.00798 0.55619 0.0
H551 H 0.37737 0.0271 0.4823 0.0
H552 H 0.34753 0.03275 0.51897 0.0
H553 H 0.3513 0.92925 0.30766 0.0
H554 H 0.37988 0.94488 0.30247 0.0
H555 H 0.3704 0.93149 0.39221 0.0
H556 H 0.44482 0.99518 0.41615 0.0
H557 H 0.41615 0.95646 0.61238 0.0
H558 H 0.39281 0.01514 0.34186 0.0
H559 H 0.39451 0.98684 0.29165 0.0
H560 H 0.42155 0.00453 0.30779 0.0
H561 H 0.35918 0.96612 0.59369 0.0
H562 H 0.37657 0.93936 0.61007 0.0
H563 H 0.35805 0.94191 0.52452 0.0
C564 C 0.5329 0.32597 0.3667 0.0
C565 C 0.50892 0.31848 0.3777 0.0
C566 C 0.54233 0.34591 0.40767 0.0
C567 C 0.52733 0.35831 0.46063 0.0
C568 C 0.50441 0.34845 0.48002 0.0
C569 C 0.49542 0.32859 0.43795 0.0
C570 C 0.56709 0.35543 0.38679 0.0
C571 C 0.48806 0.36074 0.5377 0.0
C572 C 0.54537 0.41252 0.58316 0.0
C573 C 0.53489 0.43148 0.54124 0.0
C574 C 0.54464 0.38863 0.55534 0.0
C575 C 0.53321 0.38362 0.48387 0.0
C576 C 0.52464 0.40295 0.43795 0.0
C577 C 0.5256 0.42667 0.4672 0.0
C578 C 0.55435 0.36866 0.60548 0.0
C579 C 0.51271 0.39839 0.36043 0.0
H580 H 0.54322 0.31826 0.31938 0.0
H581 H 0.4768 0.32287 0.44571 0.0
H582 H 0.57652 0.36285 0.43848 0.0
H583 H 0.57834 0.34112 0.36019 0.0
H584 H 0.56532 0.37033 0.34423 0.0
H585 H 0.47264 0.3489 0.55492 0.0
H586 H 0.49819 0.3661 0.59052 0.0
H587 H 0.48079 0.37745 0.51145 0.0
H588 H 0.5529 0.41601 0.64012 0.0
H589 H 0.51766 0.44116 0.43403 0.0
H590 H 0.56308 0.35447 0.56992 0.0
H591 H 0.53923 0.35999 0.63766 0.0
H592 H 0.56757 0.37572 0.6485 0.0
H593 H 0.52421 0.38681 0.32335 0.0
H594 H 0.50907 0.41546 0.32885 0.0
H595 H 0.49534 0.38861 0.36934 0.0
C596 C 0.18878 0.52251 0.40037 0.0
C597 C 0.1907 0.53367 0.32795 0.0
C598 C 0.16893 0.52709 0.44868 0.0
C599 C 0.15065 0.54282 0.42266 0.0
C600 C 0.15456 0.55683 0.35517 0.0
C601 C 0.17472 0.55214 0.30863 0.0
C602 C 0.16589 0.51254 0.52197 0.0
C603 C 0.13577 0.57402 0.3257 0.0
C604 C 0.0884 0.51609 0.45552 0.0
C605 C 0.07985 0.53009 0.51707 0.0
C606 C 0.11097 0.52091 0.42224 0.0
C607 C 0.12571 0.53973 0.45321 0.0
C608 C 0.11683 0.55443 0.51408 0.0
C609 C 0.09378 0.54955 0.54495 0.0
C610 C 0.11935 0.50523 0.35562 0.0
C611 C 0.13208 0.57431 0.54968 0.0
H612 H 0.20114 0.50818 0.4151 0.0
H613 H 0.17628 0.56072 0.2523 0.0
H614 H 0.15775 0.52365 0.56866 0.0
H615 H 0.15358 0.49695 0.51057 0.0
H616 H 0.18337 0.50541 0.54258 0.0
H617 H 0.1436 0.58721 0.28385 0.0
H618 H 0.12138 0.5635 0.29563 0.0
H619 H 0.12726 0.58408 0.37408 0.0
H620 H 0.07755 0.50099 0.43449 0.0
H621 H 0.08724 0.56005 0.59372 0.0
H622 H 0.13511 0.49449 0.37387 0.0
H623 H 0.12515 0.51668 0.30607 0.0
H624 H 0.10503 0.49252 0.33517 0.0
H625 H 0.14552 0.56614 0.58898 0.0
H626 H 0.12103 0.58713 0.58403 0.0
H627 H 0.14217 0.58457 0.50466 0.0
C628 C 0.02307 0.82266 0.97731 0.0
C629 C 0.03458 0.81621 0.0463 0.0
C630 C 0.03107 0.84281 0.93474 0.0
C631 C 0.05086 0.85678 0.96249 0.0
C632 C 0.06473 0.84804 0.02486 0.0
C633 C 0.05648 0.82766 0.0659 0.0
C634 C 0.0163 0.851 0.86651 0.0
C635 C 0.08635 0.86193 0.05489 0.0
C636 C 0.06402 0.91354 0.84506 0.0
C637 C 0.0478 0.92959 0.87951 0.0
C638 C 0.06667 0.88998 0.87433 0.0
C639 C 0.05287 0.88266 0.93957 0.0
C640 C 0.03822 0.89972 0.97852 0.0
C641 C 0.03566 0.92289 0.94734 0.0
C642 C 0.08256 0.87249 0.83131 0.0
C643 C 0.02363 0.89296 0.04955 0.0
H644 H 0.00625 0.81379 0.96136 0.0
H645 H 0.06574 0.82235 0.11838 0.0
H646 H 0.00462 0.86617 0.88488 0.0
H647 H 0.02813 0.85767 0.81905 0.0
H648 H 0.00457 0.8362 0.84365 0.0
H649 H 0.09836 0.85015 0.08934 0.0
H650 H 0.09687 0.87012 0.00667 0.0
H651 H 0.08013 0.87683 0.09301 0.0
H652 H 0.07309 0.91868 0.79171 0.0
H653 H 0.02302 0.93536 0.97342 0.0
H654 H 0.07141 0.86192 0.78963 0.0
H655 H 0.09115 0.85952 0.87136 0.0
H656 H 0.09685 0.88217 0.79799 0.0
H657 H 0.00915 0.87991 0.0331 0.0
H658 H 0.01513 0.90895 0.0771 0.0
H659 H 0.03518 0.88405 0.09314 0.0
C660 C 0.67316 0.05865 0.03973 0.0
C661 C 0.68592 0.038 0.01687 0.0
C662 C 0.65256 0.06584 -0.00083 0.0
C663 C 0.64498 0.05227 0.93381 0.0
C664 C 0.66028 0.03428 0.90289 0.0
C665 C 0.68058 0.02724 0.94511 0.0
C666 C 0.63723 0.08569 0.0326 0.0
C667 C 0.6534 0.02004 0.8313 0.0
C668 C 0.58061 0.03062 0.91407 0.0
C669 C 0.57302 0.04322 0.84858 0.0
C670 C 0.60336 0.03504 0.9463 0.0
C671 C 0.61916 0.05208 0.91069 0.0
C672 C 0.61085 0.06618 0.84793 0.0
C673 C 0.58769 0.06163 0.81765 0.0
C674 C 0.61115 0.02 0.01473 0.0
C675 C 0.62696 0.08457 0.80844 0.0
H676 H 0.67767 0.06751 0.0941 0.0
H677 H 0.69044 0.01145 0.92627 0.0
H678 H 0.62843 0.0962 0.98611 0.0
H679 H 0.62283 0.07749 0.06918 0.0
H680 H 0.64807 0.09823 0.06947 0.0
H681 H 0.66902 0.01021 0.8067 0.0
H682 H 0.63917 0.00656 0.8465 0.0
H683 H 0.64602 0.03211 0.78614 0.0
H684 H 0.56919 0.01634 0.93757 0.0
H685 H 0.58186 0.07113 0.76617 0.0
H686 H 0.61902 0.03173 0.06067 0.0
H687 H 0.62527 0.00715 0.99602 0.0
H688 H 0.59594 0.00942 0.04019 0.0
H689 H 0.63937 0.09357 0.85012 0.0
H690 H 0.61621 0.09858 0.77861 0.0
H691 H 0.63807 0.07528 0.7641 0.0
C692 C 0.48887 0.68116 0.95803 0.0
C693 C 0.47768 0.6867 0.02865 0.0
C694 C 0.48133 0.66095 0.91463 0.0
C695 C 0.46236 0.64605 0.94328 0.0
C696 C 0.44848 0.65404 0.00704 0.0
C697 C 0.45624 0.67449 0.04888 0.0
C698 C 0.49596 0.65363 0.8447 0.0
C699 C 0.42761 0.63918 0.03788 0.0
C700 C 0.4517 0.58832 0.82732 0.0
C701 C 0.46889 0.57328 0.86099 0.0
C702 C 0.44796 0.6118 0.85637 0.0
C703 C 0.46169 0.62007 0.92053 0.0
C704 C 0.47747 0.60398 0.95864 0.0
C705 C 0.48108 0.58088 0.92766 0.0
C706 C 0.43091 0.62822 0.81421 0.0
C707 C 0.49206 0.61175 0.02857 0.0
H708 H 0.50529 0.69068 0.94147 0.0
H709 H 0.44719 0.67914 0.10263 0.0
H710 H 0.50857 0.63911 0.86139 0.0
H711 H 0.48411 0.64641 0.79815 0.0
H712 H 0.50671 0.66907 0.82133 0.0
H713 H 0.41526 0.65038 0.07344 0.0
H714 H 0.41724 0.63059 0.99002 0.0
H715 H 0.43465 0.62453 0.07515 0.0
H716 H 0.44259 0.58248 0.77478 0.0
H717 H 0.4945 0.56918 0.95301 0.0
H718 H 0.42216 0.64117 0.85433 0.0
H719 H 0.41672 0.61763 0.7833 0.0
H720 H 0.44117 0.63883 0.77043 0.0
H721 H 0.50565 0.6256 0.0111 0.0
H722 H 0.50165 0.59637 0.05547 0.0
H723 H 0.48024 0.62003 0.07305 0.0
C724 C 0.83022 0.47822 0.02501 0.0
C725 C 0.8218 0.50153 0.0097 0.0
C726 C 0.84899 0.46838 0.98086 0.0
C727 C 0.85963 0.48245 0.92122 0.0
C728 C 0.84887 0.50451 0.89902 0.0
C729 C 0.8299 0.51377 0.9436 0.0
C730 C 0.85933 0.4444 0.00453 0.0
C731 C 0.85942 0.51993 0.83503 0.0
C732 C 0.9276 0.48543 0.90386 0.0
C733 C 0.93143 0.47444 0.83158 0.0
C734 C 0.90435 0.48703 0.93538 0.0
C735 C 0.88447 0.47708 0.89414 0.0
C736 C 0.88845 0.46415 0.82451 0.0
C737 C 0.91188 0.46311 0.79373 0.0
C738 C 0.90093 0.50084 0.01039 0.0
C739 C 0.86788 0.45271 0.77991 0.0
H740 H 0.82396 0.46884 0.07656 0.0
H741 H 0.82349 0.5319 0.93239 0.0
H742 H 0.86535 0.43393 0.95315 0.0
H743 H 0.87527 0.44762 0.04211 0.0
H744 H 0.84599 0.43335 0.0376 0.0
H745 H 0.84694 0.53445 0.81711 0.0
H746 H 0.87644 0.52854 0.8556 0.0
H747 H 0.86382 0.50872 0.7836 0.0
H748 H 0.94253 0.49414 0.93376 0.0
H749 H 0.91467 0.45435 0.73815 0.0
H750 H 0.89078 0.48961 0.05282 0.0
H751 H 0.8902 0.5173 -0.00055 0.0
H752 H 0.91834 0.50647 0.037 0.0
H753 H 0.85447 0.44428 0.81964 0.0
H754 H 0.87433 0.43875 0.73852 0.0
H755 H 0.85852 0.46687 0.74633 0.0
C756 C 0.0729 0.15372 0.12856 0.0
C757 C 0.05722 0.17214 0.10567 0.0
C758 C 0.07555 0.13274 0.08352 0.0
C759 C 0.06265 0.13048 0.01317 0.0
C760 C 0.04967 0.15049 0.98461 0.0
C761 C 0.04695 0.17108 0.03154 0.0
C762 C 0.08977 0.11198 0.1159 0.0
C763 C 0.03634 0.14911 0.9085 0.0
C764 C 0.06777 0.07534 0.88143 0.0
C765 C 0.04652 0.06271 0.90063 0.0
C766 C 0.07387 0.09719 0.91909 0.0
C767 C 0.05856 0.10615 0.97811 0.0
C768 C 0.03796 0.0925 0.00101 0.0
C769 C 0.03202 0.07114 0.96116 0.0
C770 C 0.09575 0.11133 0.89225 0.0
C771 C 0.02151 0.10099 0.06532 0.0
H772 H 0.08137 0.15473 0.18511 0.0
H773 H 0.0349 0.18524 0.0131 0.0
H774 H 0.07713 0.09856 0.14196 0.0
H775 H 0.10001 0.10264 0.06957 0.0
H776 H 0.10256 0.11814 0.16159 0.0
H777 H 0.03103 0.16731 0.88787 0.0
H778 H 0.04755 0.14037 0.86328 0.0
H779 H 0.01974 0.13794 0.91591 0.0
H780 H 0.07881 0.06896 0.83377 0.0
H781 H 0.01562 0.06129 0.97601 0.0
H782 H 0.10593 0.11889 0.94221 0.0
H783 H 0.08985 0.1268 0.85635 0.0
H784 H 0.10804 0.10004 0.85677 0.0
H785 H 0.03211 0.10529 0.11819 0.0
H786 H 0.0075 0.08725 0.0804 0.0
H787 H 0.01235 0.1178 0.04729 0.0
C788 C 0.33405 0.03834 0.01957 0.0
C789 C 0.33538 0.04479 0.09808 0.0
C790 C 0.35412 0.04138 0.9706 0.0
C791 C 0.37596 0.05086 0.00137 0.0
C792 C 0.37639 0.06008 0.07797 0.0
C793 C 0.35599 0.0571 0.12528 0.0
C794 C 0.35272 0.03193 0.88853 0.0
C795 C 0.39917 0.07049 0.11307 0.0
C796 C 0.43103 0.01844 0.92639 0.0
C797 C 0.44067 0.03513 0.87348 0.0
C798 C 0.41053 0.02385 0.97028 0.0
C799 C 0.39903 0.04637 0.9599 0.0
C800 C 0.40913 0.06367 0.90844 0.0
C801 C 0.43004 0.05791 0.86613 0.0
C802 C 0.40075 0.00507 0.02606 0.0
C803 C 0.39728 0.08775 0.89531 0.0
H804 H 0.31816 0.0289 -0.00191 0.0
H805 H 0.35689 0.06256 0.18567 0.0
H806 H 0.36218 0.04437 0.84797 0.0
H807 H 0.36174 0.01413 0.88516 0.0
H808 H 0.33376 0.02949 0.86909 0.0
H809 H 0.39537 0.08124 0.16617 0.0
H810 H 0.41127 0.05546 0.12911 0.0
H811 H 0.40898 0.08214 0.07099 0.0
H812 H 0.43934 1.00089 0.93254 0.0
H813 H 0.43735 0.07075 0.82462 0.0
H814 H 0.38267 0.99878 0.0067 0.0
H815 H 0.39864 0.01308 0.08474 0.0
H816 H 0.41263 0.98909 0.0305 0.0
H817 H 0.38038 0.08488 0.8621 0.0
H818 H 0.4091 0.10043 0.86232 0.0
H819 H 0.39234 0.09631 0.95129 0.0
C820 C 0.48613 0.36 0.13507 0.0
C821 C 0.47153 0.33905 0.13324 0.0
C822 C 0.48265 0.37901 0.08341 0.0
C823 C 0.46451 0.37693 0.02628 0.0
C824 C 0.44941 0.35605 0.02416 0.0
C825 C 0.45311 0.33727 0.07783 0.0
C826 C 0.49928 0.40087 0.08797 0.0
C827 C 0.42995 0.35322 0.96375 0.0
C828 C 0.45599 0.43734 0.92748 0.0
C829 C 0.4736 0.43586 0.86938 0.0
C830 C 0.45102 0.41735 0.97563 0.0
C831 C 0.46378 0.39552 0.96426 0.0
C832 C 0.47986 0.39341 0.90089 0.0
C833 C 0.48469 0.41364 0.85471 0.0
C834 C 0.43367 0.42024 0.0424 0.0
C835 C 0.49366 0.37045 0.88585 0.0
H836 H 0.50094 0.36135 0.1758 0.0
H837 H 0.44173 0.3212 0.07611 0.0
H838 H 0.4887 0.41777 0.08883 0.0
H839 H 0.51091 0.40063 0.14034 0.0
H840 H 0.51109 0.40144 0.03596 0.0
H841 H 0.41759 0.33778 0.97667 0.0
H842 H 0.41926 0.37 0.95944 0.0
H843 H 0.43836 0.35007 0.90621 0.0
H844 H 0.44719 0.45444 0.93828 0.0
H845 H 0.49787 0.41227 0.80837 0.0
H846 H 0.44401 0.42278 0.0969 0.0
H847 H 0.42223 0.40378 0.04931 0.0
H848 H 0.42188 0.43615 0.03458 0.0
H849 H 0.50793 0.36856 0.93037 0.0
H850 H 0.50238 0.37047 0.82777 0.0
H851 H 0.4816 0.35436 0.89012 0.0
C852 C 0.17703 0.49712 0.01971 0.0
C853 C 0.18001 0.48572 0.09125 0.0
C854 C 0.15655 0.49233 0.97422 0.0
C855 C 0.13894 0.47544 0.00068 0.0
C856 C 0.143 0.46239 0.06983 0.0
C857 C 0.16337 0.46793 0.11492 0.0
C858 C 0.15282 0.50683 0.90124 0.0
C859 C 0.12502 0.44382 0.09909 0.0
C860 C 0.07486 0.48935 0.94031 0.0
C861 C 0.07222 0.47501 0.8736 0.0
C862 C 0.09623 0.48903 0.98368 0.0
C863 C 0.11523 0.47363 0.9607 0.0
C864 C 0.11201 0.4579 0.89659 0.0
C865 C 0.09064 0.45896 0.85326 0.0
C866 C 0.099 0.50623 0.05147 0.0
C867 C 0.13153 0.44071 0.87175 0.0
H868 H 0.18973 0.51117 0.00232 0.0
H869 H 0.16565 0.45931 0.17079 0.0
H870 H 0.1481 0.49472 0.85205 0.0
H871 H 0.13754 0.51935 0.90987 0.0
H872 H 0.16907 0.51767 0.88524 0.0
H873 H 0.13276 0.43236 0.1454 0.0
H874 H 0.10905 0.45315 0.12315 0.0
H875 H 0.11868 0.43197 0.05106 0.0
H876 H 0.06078 0.50188 0.95617 0.0
H877 H 0.08865 0.44768 0.80206 0.0
H878 H 0.11369 0.51949 0.03919 0.0
H879 H 0.1041 0.49619 0.10442 0.0
H880 H 0.08221 0.51633 0.06368 0.0
H881 H 0.14694 0.45112 0.84706 0.0
H882 H 0.12507 0.42755 0.82737 0.0
H883 H 0.13838 0.43057 0.92242 0.0
C884 C 0.0143 0.83096 0.34623 0.0
C885 C 0.9954 0.82201 0.30027 0.0
C886 C 0.01074 0.85031 0.39757 0.0
C887 C 0.98772 0.86104 0.40259 0.0
C888 C 0.96816 0.85096 0.36035 0.0
C889 C 0.97223 0.83146 0.30967 0.0
C890 C 0.032 0.86027 0.44248 0.0
C891 C 0.94336 0.86182 0.36435 0.0
C892 C 0.98004 0.90528 0.56925 0.0
C893 C 0.98655 0.92734 0.53413 0.0
C894 C 0.97919 0.88364 0.52644 0.0
C895 C 0.9849 0.88406 0.44652 0.0
C896 C 0.99005 0.90643 0.40971 0.0
C897 C 0.99083 0.92781 0.45395 0.0
C898 C 0.97353 0.86019 0.56774 0.0
C899 C 0.99602 0.90764 0.32427 0.0
H900 H 0.03221 0.82361 0.33889 0.0
H901 H 0.95766 0.82475 0.2734 0.0
H902 H 0.03696 0.87847 0.42004 0.0
H903 H 0.02726 0.86239 0.50464 0.0
H904 H 0.04802 0.84848 0.43783 0.0
H905 H 0.92949 0.84992 0.33696 0.0
H906 H 0.93806 0.8653 0.42541 0.0
H907 H 0.94353 0.87947 0.33385 0.0
H908 H 0.97655 0.90466 0.63109 0.0
H909 H 0.99576 0.94472 0.42612 0.0
H910 H 0.99011 0.84921 0.5714 0.0
H911 H 0.95998 0.8494 0.53488 0.0
H912 H 0.96663 0.86323 0.62747 0.0
H913 H 0.01336 0.89844 0.31316 0.0
H914 H 0.99759 0.92657 0.30314 0.0
H915 H 0.98196 0.89804 0.28991 0.0
C916 C 0.67196 0.01279 0.31356 0.0
C917 C 0.68026 0.9947 0.26347 0.0
C918 C 0.65267 0.00832 0.36436 0.0
C919 C 0.64139 0.98519 0.36479 0.0
C920 C 0.65084 0.96635 0.31837 0.0
C921 C 0.67024 0.97134 0.26815 0.0
C922 C 0.64336 0.02884 0.41367 0.0
C923 C 0.63941 0.94143 0.3176 0.0
C924 C 0.59753 0.9749 0.53082 0.0
C925 C 0.57565 0.98206 0.49749 0.0
C926 C 0.61894 0.9746 0.48732 0.0
C927 C 0.61848 0.98161 0.40858 0.0
C928 C 0.59625 0.98744 0.37333 0.0
C929 C 0.57509 0.98757 0.41819 0.0
C930 C 0.64224 0.96812 0.52686 0.0
C931 C 0.595 0.99484 0.28919 0.0
H932 H 0.67975 0.03085 0.30988 0.0
H933 H 0.67645 0.9574 0.22873 0.0
H934 H 0.62528 0.03416 0.39281 0.0
H935 H 0.64134 0.023 0.47485 0.0
H936 H 0.65546 0.045 0.41183 0.0
H937 H 0.6509 0.92801 0.28741 0.0
H938 H 0.63587 0.93506 0.37754 0.0
H939 H 0.62181 0.94213 0.28733 0.0
H940 H 0.59819 0.97041 0.59192 0.0
H941 H 0.55831 0.99303 0.39175 0.0
H942 H 0.65363 0.98463 0.53366 0.0
H943 H 0.65255 0.95511 0.49106 0.0
H944 H 0.63914 0.96014 0.58514 0.0
H945 H 0.60461 0.01239 0.28116 0.0
H946 H 0.57614 0.99682 0.26884 0.0
H947 H 0.60411 0.98131 0.25199 0.0
C948 C 0.54273 0.66875 0.28185 0.0
C949 C 0.5194 0.67806 0.27666 0.0
C950 C 0.5476 0.64908 0.33053 0.0
C951 C 0.52868 0.63871 0.3751 0.0
C952 C 0.50548 0.64913 0.37373 0.0
C953 C 0.5011 0.66863 0.3242 0.0
C954 C 0.57254 0.63847 0.33043 0.0
C955 C 0.48491 0.63885 0.42131 0.0
C956 C 0.5266 0.57235 0.42996 0.0
C957 C 0.53159 0.5735 0.50959 0.0
C958 C 0.52699 0.59336 0.38433 0.0
C959 C 0.53244 0.61601 0.41926 0.0
C960 C 0.53905 0.61706 0.4983 0.0
C961 C 0.53862 0.5958 0.54245 0.0
C962 C 0.52015 0.59149 0.29978 0.0
C963 C 0.54504 0.64084 0.53757 0.0
H964 H 0.55679 0.67583 0.24417 0.0
H965 H 0.48307 0.67586 0.31993 0.0
H966 H 0.57877 0.63526 0.39057 0.0
H967 H 0.57209 0.62069 0.30031 0.0
H968 H 0.58587 0.65039 0.30058 0.0
H969 H 0.46855 0.65022 0.41832 0.0
H970 H 0.48019 0.62043 0.39996 0.0
H971 H 0.49033 0.63715 0.48291 0.0
H972 H 0.5213 0.55523 0.40387 0.0
H973 H 0.54272 0.59692 0.60379 0.0
H974 H 0.53353 0.60127 0.26325 0.0
H975 H 0.50243 0.60013 0.29064 0.0
H976 H 0.51886 0.5724 0.2796 0.0
H977 H 0.55804 0.65153 0.50222 0.0
H978 H 0.55275 0.63826 0.59633 0.0
H979 H 0.52842 0.65169 0.54326 0.0
C980 C 0.86338 0.55374 0.21924 0.0
C981 C 0.84102 0.5457 0.24801 0.0
C982 C 0.88377 0.55481 0.26691 0.0
C983 C 0.88166 0.54783 0.34549 0.0
C984 C 0.85858 0.54216 0.37672 0.0
C985 C 0.83844 0.54109 0.32733 0.0
C986 C 0.90792 0.56093 0.23094 0.0
C987 C 0.85553 0.53503 0.46057 0.0
C988 C 0.93329 0.51232 0.42971 0.0
C989 C 0.9449 0.52956 0.47673 0.0
C990 C 0.91301 0.51827 0.38593 0.0
C991 C 0.9038 0.54203 0.39004 0.0
C992 C 0.91578 0.55977 0.43586 0.0
C993 C 0.93638 0.55335 0.47838 0.0
C994 C 0.90117 0.49891 0.33635 0.0
C995 C 0.90638 0.58521 0.44198 0.0
H996 H 0.86528 0.55756 0.15784 0.0
H997 H 0.82114 0.5349 0.34954 0.0
H998 H 0.91875 0.5728 0.26977 0.0
H999 H 0.91815 0.54402 0.22185 0.0
H1000 H 0.90596 0.57003 0.17396 0.0
H1001 H 0.83633 0.53539 0.479 0.0
H1002 H 0.86231 0.5164 0.46884 0.0
H1003 H 0.86619 0.54725 0.49885 0.0
H1004 H 0.93991 0.49393 0.42801 0.0
H1005 H 0.94516 0.56664 0.51543 0.0
H1006 H 0.90015 0.50505 0.27525 0.0
H1007 H 0.88245 0.49552 0.3567 0.0
H1008 H 0.91105 0.48155 0.33783 0.0
H1009 H 0.90386 0.59302 0.38341 0.0
H1010 H 0.91864 0.59727 0.47569 0.0
H1011 H 0.88846 0.58488 0.47074 0.0
loop_
_geom_bond_atom_site_label_1
_geom_bond_atom_site_label_2
_geom_bond_distance
_geom_bond_site_symmetry_2
_ccdc_geom_bond_type
H0 C1 0.949 . S
C1 H0 0.949 . S
C1 C2 1.395 . S
C1 C3 1.391 1_556 S
C2 C1 1.395 . S
C2 C5 1.390 1_556 S
C3 C1 1.391 1_554 S
C3 C7 1.387 . S
C3 C8 1.491 . S
H4 C5 0.950 . S
C5 C2 1.390 1_554 S
C5 H4 0.950 . S
C5 C6 1.378 . S
C6 C5 1.378 . S
C6 C7 1.409 . S
C7 C3 1.387 . S
C7 C6 1.409 . S
C7 H9 0.951 . S
C8 C3 1.491 . S
C8 C10 1.382 1_554 S
C8 C12 1.404 . S
H9 C7 0.951 . S
C10 C8 1.382 1_556 S
C10 C11 1.390 . S
C10 H15 0.949 . S
C11 C10 1.390 . S
C11 C16 1.399 1_556 S
C12 C8 1.404 . S
C12 H13 0.950 . S
C12 C14 1.375 . S
H13 C12 0.950 . S
C14 C12 1.375 . S
C14 C16 1.382 . S
C14 H18 0.950 . S
H15 C10 0.949 . S
C16 C11 1.399 1_554 S
C16 C14 1.382 . S
C16 H17 0.952 . S
H17 C16 0.952 . S
H18 C14 0.950 . S
H19 C20 0.949 . S
C20 H19 0.949 . S
C20 C21 1.390 1_655 S
C20 C22 1.391 . S
C21 C20 1.390 1_455 S
C21 C24 1.393 . S
C22 C20 1.391 . S
C22 C26 1.387 . S
C22 C27 1.491 . S
H23 C24 0.950 . S
C24 C21 1.393 . S
C24 H23 0.950 . S
C24 C25 1.379 . S
C25 C24 1.379 . S
C25 C26 1.407 1_455 S
C26 C22 1.387 . S
C26 C25 1.407 1_655 S
C26 H28 0.951 . S
C27 C22 1.491 . S
C27 C29 1.382 . S
C27 C31 1.404 . S
H28 C26 0.951 . S
C29 C27 1.382 . S
C29 C30 1.390 . S
C29 H34 0.949 1_655 S
C30 C29 1.390 . S
C30 C35 1.399 . S
C31 C27 1.404 . S
C31 H32 0.950 . S
C31 C33 1.375 . S
H32 C31 0.950 . S
C33 C31 1.375 . S
C33 C35 1.382 . S
C33 H37 0.950 . S
H34 C29 0.949 1_455 S
C35 C30 1.399 . S
C35 C33 1.382 . S
C35 H36 0.952 . S
H36 C35 0.952 . S
H37 C33 0.950 . S
H38 C39 0.949 1_556 S
C39 H38 0.949 1_554 S
C39 C40 1.393 1_565 S
C39 C41 1.391 . S
C40 C39 1.393 1_545 S
C40 C43 1.391 . S
C41 C39 1.391 . S
C41 C45 1.387 . S
C41 C46 1.491 . S
H42 C43 0.950 . S
C43 C40 1.391 . S
C43 H42 0.950 . S
C43 C44 1.378 1_545 S
C44 C43 1.378 1_565 S
C44 C45 1.408 . S
C45 C41 1.387 . S
C45 C44 1.408 . S
C45 H47 0.951 . S
C46 C41 1.491 . S
C46 C48 1.382 . S
C46 C50 1.404 . S
H47 C45 0.951 . S
C48 C46 1.382 . S
C48 C49 1.390 . S
C48 H53 0.949 1_564 S
C49 C48 1.390 . S
C49 C54 1.399 . S
C50 C46 1.404 . S
C50 H51 0.950 . S
C50 C52 1.375 . S
H51 C50 0.950 . S
C52 C50 1.375 . S
C52 C54 1.382 . S
C52 H56 0.950 . S
H53 C48 0.949 1_546 S
C54 C49 1.399 . S
C54 C52 1.382 . S
C54 H55 0.952 . S
H55 C54 0.952 . S
H56 C52 0.950 . S
H57 C58 0.949 . S
C58 H57 0.949 . S
C58 C59 1.395 . S
C58 C60 1.391 1_556 S
C59 C58 1.395 . S
C59 C62 1.390 1_556 S
C60 C58 1.391 1_554 S
C60 C64 1.387 . S
C60 C65 1.491 . S
H61 C62 0.950 . S
C62 C59 1.390 1_554 S
C62 H61 0.950 . S
C62 C63 1.378 . S
C63 C62 1.378 . S
C63 C64 1.409 . S
C64 C60 1.387 . S
C64 C63 1.409 . S
C64 H66 0.951 . S
C65 C60 1.491 . S
C65 C67 1.382 1_554 S
C65 C69 1.404 . S
H66 C64 0.951 . S
C67 C65 1.382 1_556 S
C67 C68 1.390 . S
C67 H72 0.949 . S
C68 C67 1.390 . S
C68 C73 1.399 1_556 S
C69 C65 1.404 . S
C69 H70 0.950 . S
C69 C71 1.375 . S
H70 C69 0.950 . S
C71 C69 1.375 . S
C71 C73 1.382 . S
C71 H75 0.950 . S
H72 C67 0.949 . S
C73 C68 1.399 1_554 S
C73 C71 1.382 . S
C73 H74 0.952 . S
H74 C73 0.952 . S
H75 C71 0.950 . S
H76 C77 0.949 . S
C77 H76 0.949 . S
C77 C78 1.395 . S
C77 C79 1.391 . S
C78 C77 1.395 . S
C78 C81 1.390 . S
C79 C77 1.391 . S
C79 C83 1.387 . S
C79 C84 1.491 . S
H80 C81 0.950 . S
C81 C78 1.390 . S
C81 H80 0.950 . S
C81 C82 1.378 . S
C82 C81 1.378 . S
C82 C83 1.409 . S
C83 C79 1.387 . S
C83 C82 1.409 . S
C83 H85 0.951 . S
C84 C79 1.491 . S
C84 C86 1.382 . S
C84 C88 1.404 . S
H85 C83 0.951 . S
C86 C84 1.382 . S
C86 C87 1.390 . S
C86 H91 0.949 . S
C87 C86 1.390 . S
C87 C92 1.399 . S
C88 C84 1.404 . S
C88 H89 0.950 . S
C88 C90 1.375 . S
H89 C88 0.950 . S
C90 C88 1.375 . S
C90 C92 1.382 . S
C90 H94 0.950 . S
H91 C86 0.949 . S
C92 C87 1.399 . S
C92 C90 1.382 . S
C92 H93 0.952 . S
H93 C92 0.952 . S
H94 C90 0.950 . S
H95 C96 0.949 . S
C96 H95 0.949 . S
C96 C97 1.395 . S
C96 C98 1.391 . S
C97 C96 1.395 . S
C97 C100 1.390 . S
C98 C96 1.391 . S
C98 C102 1.387 . S
C98 C103 1.491 . S
H99 C100 0.950 . S
C100 C97 1.390 . S
C100 H99 0.950 . S
C100 C101 1.378 . S
C101 C100 1.378 . S
C101 C102 1.409 . S
C102 C98 1.387 . S
C102 C101 1.409 . S
C102 H104 0.951 . S
C103 C98 1.491 . S
C103 C105 1.382 . S
C103 C107 1.404 . S
H104 C102 0.951 . S
C105 C103 1.382 . S
C105 C106 1.390 . S
C105 H110 0.949 . S
C106 C105 1.390 . S
C106 C111 1.399 . S
C107 C103 1.404 . S
C107 H108 0.950 1_455 S
C107 C109 1.375 1_455 S
H108 C107 0.950 1_655 S
C109 C107 1.375 1_655 S
C109 C111 1.383 1_655 S
C109 H113 0.949 . S
H110 C105 0.949 . S
C111 C106 1.399 . S
C111 C109 1.383 1_455 S
C111 H112 0.952 . S
H112 C111 0.952 . S
H113 C109 0.949 . S
H114 C115 0.949 . S
C115 H114 0.949 . S
C115 C116 1.395 . S
C115 C117 1.391 . S
C116 C115 1.395 . S
C116 C119 1.390 . S
C117 C115 1.391 . S
C117 C121 1.387 . S
C117 C122 1.491 1_545 S
H118 C119 0.950 . S
C119 C116 1.390 . S
C119 H118 0.950 . S
C119 C120 1.378 . S
C120 C119 1.378 . S
C120 C121 1.409 . S
C121 C117 1.387 . S
C121 C120 1.409 . S
C121 H123 0.951 . S
C122 C117 1.491 1_565 S
C122 C124 1.382 1_565 S
C122 C126 1.404 . S
H123 C121 0.951 . S
C124 C122 1.382 1_545 S
C124 C125 1.390 . S
C124 H129 0.949 . S
C125 C124 1.390 . S
C125 C130 1.399 1_545 S
C126 C122 1.404 . S
C126 H127 0.950 . S
C126 C128 1.375 . S
H127 C126 0.950 . S
C128 C126 1.375 . S
C128 C130 1.382 . S
C128 H132 0.950 . S
H129 C124 0.949 . S
C130 C125 1.399 1_565 S
C130 C128 1.382 . S
C130 H131 0.952 . S
H131 C130 0.952 . S
H132 C128 0.950 . S
H133 C134 0.949 . S
C134 H133 0.949 . S
C134 C135 1.395 . S
C134 C136 1.391 . S
C135 C134 1.395 . S
C135 C138 1.390 . S
C136 C134 1.391 . S
C136 C140 1.387 . S
C136 C141 1.491 . S
H137 C138 0.950 . S
C138 C135 1.390 . S
C138 H137 0.950 . S
C138 C139 1.378 . S
C139 C138 1.378 . S
C139 C140 1.409 . S
C140 C136 1.387 . S
C140 C139 1.409 . S
C140 H142 0.951 . S
C141 C136 1.491 . S
C141 C143 1.382 . S
C141 C145 1.404 . S
H142 C140 0.951 . S
C143 C141 1.382 . S
C143 C144 1.390 . S
C143 H148 0.949 . S
C144 C143 1.390 . S
C144 C149 1.399 . S
C145 C141 1.404 . S
C145 H146 0.950 . S
C145 C147 1.375 . S
H146 C145 0.950 . S
C147 C145 1.375 . S
C147 C149 1.382 . S
C147 H151 0.950 . S
H148 C143 0.949 . S
C149 C144 1.399 . S
C149 C147 1.382 . S
C149 H150 0.952 . S
H150 C149 0.952 . S
H151 C147 0.950 . S
O152 Zn153 1.956 . S
O152 C168 1.225 1_545 S
Zn153 O152 1.956 . S
Zn153 O154 1.948 1_545 S
Zn153 O160 1.947 . S
Zn153 O165 1.891 1_545 S
O154 Zn153 1.948 1_565 S
O154 Zn155 1.902 1_465 S
O154 Zn156 1.952 . S
O154 Zn157 1.965 1_455 S
Zn155 O154 1.902 1_645 S
Zn155 O158 1.933 . S
Zn155 O161 1.941 1_655 S
Zn155 O162 1.965 . S
Zn156 O154 1.952 . S
Zn156 O163 1.938 1_565 S
Zn156 O164 1.906 . S
Zn156 O174 1.953 . S
Zn157 O154 1.965 1_655 S
Zn157 O159 1.932 . S
Zn157 O166 1.977 . S
Zn157 O167 1.910 1_655 S
O158 Zn155 1.933 . S
O158 C169 1.226 . S
O159 Zn157 1.932 . S
O159 C169 1.307 1_565 S
O160 Zn153 1.947 . S
O160 C171 1.253 . S
O161 Zn155 1.941 1_455 S
O161 C171 1.283 . S
O162 Zn155 1.965 . S
O162 C170 1.303 1_655 S
O163 Zn156 1.938 1_545 S
O163 C170 1.247 . S
O164 Zn156 1.906 . S
O164 C172 1.304 1_455 S
O165 Zn153 1.891 1_565 S
O165 C173 1.311 . S
O166 Zn157 1.977 . S
O166 C172 1.272 . S
O167 Zn157 1.910 1_455 S
O167 C173 1.231 . S
C168 O152 1.225 1_565 S
C168 O174 1.298 . S
C169 O158 1.226 . S
C169 O159 1.307 1_545 S
C170 O162 1.303 1_455 S
C170 O163 1.247 . S
C171 O160 1.253 . S
C171 O161 1.283 . S
C172 O164 1.304 1_655 S
C172 O166 1.272 . S
C173 O165 1.311 . S
C173 O167 1.231 . S
O174 Zn156 1.953 . S
O174 C168 1.298 . S
O175 Zn176 1.953 . S
O175 C191 1.225 . S
Zn176 O175 1.953 . S
Zn176 O177 1.949 . S
Zn176 O183 1.919 . S
Zn176 O188 1.924 . S
O177 Zn176 1.949 . S
O177 Zn178 1.923 1_545 S
O177 Zn179 1.950 . S
O177 Zn180 1.945 1_545 S
Zn178 O177 1.923 1_565 S
Zn178 O181 1.933 . S
Zn178 O184 1.941 . S
Zn178 O185 1.965 . S
Zn179 O177 1.950 . S
Zn179 O186 1.938 . S
Zn179 O187 1.906 . S
Zn179 O197 1.953 . S
Zn180 O177 1.945 1_565 S
Zn180 O182 1.932 . S
Zn180 O189 1.977 . S
Zn180 O190 1.910 1_565 S
O181 Zn178 1.933 . S
O181 C192 1.226 . S
O182 Zn180 1.932 . S
O182 C192 1.307 . S
O183 Zn176 1.919 . S
O183 C194 1.253 . S
O184 Zn178 1.941 . S
O184 C194 1.283 1_565 S
O185 Zn178 1.965 . S
O185 C193 1.303 1_565 S
O186 Zn179 1.938 . S
O186 C193 1.247 . S
O187 Zn179 1.906 . S
O187 C195 1.304 1_545 S
O188 Zn176 1.924 . S
O188 C196 1.311 . S
O189 Zn180 1.977 . S
O189 C195 1.272 . S
O190 Zn180 1.910 1_545 S
O190 C196 1.231 . S
C191 O175 1.225 . S
C191 O197 1.298 . S
C192 O181 1.226 . S
C192 O182 1.307 . S
C193 O185 1.303 1_545 S
C193 O186 1.247 . S
C194 O183 1.253 . S
C194 O184 1.283 1_545 S
C195 O187 1.304 1_565 S
C195 O189 1.272 . S
C196 O188 1.311 . S
C196 O190 1.231 . S
O197 Zn179 1.953 . S
O197 C191 1.298 . S
O198 Zn199 1.953 . S
O198 C214 1.225 . S
Zn199 O198 1.953 . S
Zn199 O200 1.949 . S
Zn199 O206 1.919 . S
Zn199 O211 1.924 . S
O200 Zn199 1.949 . S
O200 Zn201 1.923 . S
O200 Zn202 1.950 . S
O200 Zn203 1.945 . S
Zn201 O200 1.923 . S
Zn201 O204 1.933 . S
Zn201 O207 1.941 . S
Zn201 O208 1.965 . S
Zn202 O200 1.950 . S
Zn202 O209 1.938 . S
Zn202 O210 1.906 . S
Zn202 O220 1.953 . S
Zn203 O200 1.945 . S
Zn203 O205 1.932 . S
Zn203 O212 1.977 . S
Zn203 O213 1.910 . S
O204 Zn201 1.933 . S
O204 C215 1.226 . S
O205 Zn203 1.932 . S
O205 C215 1.307 . S
O206 Zn199 1.919 . S
O206 C217 1.253 . S
O207 Zn201 1.941 . S
O207 C217 1.283 . S
O208 Zn201 1.965 . S
O208 C216 1.303 . S
O209 Zn202 1.938 . S
O209 C216 1.247 . S
O210 Zn202 1.906 . S
O210 C218 1.304 . S
O211 Zn199 1.924 . S
O211 C219 1.311 . S
O212 Zn203 1.977 . S
O212 C218 1.272 . S
O213 Zn203 1.910 . S
O213 C219 1.231 . S
C214 O198 1.225 . S
C214 O220 1.298 . S
C215 O204 1.226 . S
C215 O205 1.307 . S
C216 O208 1.303 . S
C216 O209 1.247 . S
C217 O206 1.253 . S
C217 O207 1.283 . S
C218 O210 1.304 . S
C218 O212 1.272 . S
C219 O211 1.311 . S
C219 O213 1.231 . S
O220 Zn202 1.953 . S
O220 C214 1.298 . S
O221 Zn222 1.953 1_655 S
O221 C237 1.225 . S
Zn222 O221 1.953 1_455 S
Zn222 O223 1.949 . S
Zn222 O229 1.919 . S
Zn222 O234 1.924 . S
O223 Zn222 1.949 . S
O223 Zn224 1.917 1_455 S
O223 Zn225 1.929 1_455 S
O223 Zn226 1.973 . S
Zn224 O223 1.917 1_655 S
Zn224 O227 1.933 1_655 S
Zn224 O230 1.941 . S
Zn224 O231 1.965 . S
Zn225 O223 1.929 1_655 S
Zn225 O232 1.938 . S
Zn225 O233 1.906 . S
Zn225 O243 1.953 . S
Zn226 O223 1.973 . S
Zn226 O228 1.932 . S
Zn226 O235 1.977 . S
Zn226 O236 1.910 . S
O227 Zn224 1.933 1_455 S
O227 C238 1.226 . S
O228 Zn226 1.932 . S
O228 C238 1.307 . S
O229 Zn222 1.919 . S
O229 C240 1.254 . S
O230 Zn224 1.941 . S
O230 C240 1.278 1_655 S
O231 Zn224 1.965 . S
O231 C239 1.303 . S
O232 Zn225 1.938 . S
O232 C239 1.247 . S
O233 Zn225 1.906 . S
O233 C241 1.304 1_655 S
O234 Zn222 1.924 . S
O234 C242 1.311 . S
O235 Zn226 1.977 . S
O235 C241 1.272 . S
O236 Zn226 1.910 . S
O236 C242 1.231 . S
C237 O221 1.225 . S
C237 O243 1.298 . S
C238 O227 1.226 . S
C238 O228 1.307 . S
C239 O231 1.303 . S
C239 O232 1.247 . S
C240 O229 1.254 . S
C240 O230 1.278 1_455 S
C241 O233 1.304 1_455 S
C241 O235 1.272 . S
C242 O234 1.311 . S
C242 O236 1.231 . S
O243 Zn225 1.953 . S
O243 C237 1.298 . S
C244 C245 1.391 1_565 S
C244 C246 1.394 . S
C244 H260 0.931 . S
C245 C244 1.391 1_545 S
C245 C249 1.376 . S
C246 C244 1.394 . S
C246 C247 1.369 1_565 S
C246 C250 1.531 . S
C247 C246 1.369 1_545 S
C247 C248 1.410 . S
C247 C255 1.503 . S
C248 C247 1.410 . S
C248 C249 1.392 . S
C248 C251 1.511 . S
C249 C245 1.376 . S
C249 C248 1.392 . S
C249 H261 0.929 . S
C250 C246 1.531 . S
C250 H262 0.960 . S
C250 H263 0.962 . S
C250 H264 0.960 . S
C251 C248 1.511 . S
C251 H265 0.961 . S
C251 H266 0.961 . S
C251 H267 0.961 . S
C252 C253 1.369 1_565 S
C252 C254 1.363 . S
C252 H268 0.931 . S
C253 C252 1.369 1_545 S
C253 C257 1.410 . S
C254 C252 1.363 . S
C254 C255 1.370 1_565 S
C254 C258 1.524 . S
C255 C247 1.503 . S
C255 C254 1.370 1_545 S
C255 C256 1.403 . S
C256 C255 1.403 . S
C256 C257 1.404 . S
C256 C259 1.539 . S
C257 C253 1.410 . S
C257 C256 1.404 . S
C257 H269 0.930 . S
C258 C254 1.524 . S
C258 H270 0.956 . S
C258 H271 0.961 . S
C258 H272 0.961 . S
C259 C256 1.539 . S
C259 H273 0.958 . S
C259 H274 0.961 . S
C259 H275 0.960 . S
H260 C244 0.931 . S
H261 C249 0.929 . S
H262 C250 0.960 . S
H263 C250 0.962 . S
H264 C250 0.960 . S
H265 C251 0.961 . S
H266 C251 0.961 . S
H267 C251 0.961 . S
H268 C252 0.931 . S
H269 C257 0.930 . S
H270 C258 0.956 . S
H271 C258 0.961 . S
H272 C258 0.961 . S
H273 C259 0.958 . S
H274 C259 0.961 . S
H275 C259 0.960 . S
C276 C277 1.391 . S
C276 C278 1.394 . S
C276 H292 0.931 . S
C277 C276 1.391 . S
C277 C281 1.376 . S
C278 C276 1.394 . S
C278 C279 1.369 . S
C278 C282 1.531 . S
C279 C278 1.369 . S
C279 C280 1.410 . S
C279 C287 1.503 . S
C280 C279 1.410 . S
C280 C281 1.392 . S
C280 C283 1.511 . S
C281 C277 1.376 . S
C281 C280 1.392 . S
C281 H293 0.929 . S
C282 C278 1.531 . S
C282 H294 0.960 . S
C282 H295 0.962 . S
C282 H296 0.960 . S
C283 C280 1.511 . S
C283 H297 0.961 . S
C283 H298 0.961 . S
C283 H299 0.961 . S
C284 C285 1.370 . S
C284 C286 1.363 . S
C284 H300 0.931 . S
C285 C284 1.370 . S
C285 C289 1.408 . S
C286 C284 1.363 . S
C286 C287 1.370 . S
C286 C290 1.524 . S
C287 C279 1.503 . S
C287 C286 1.370 . S
C287 C288 1.403 . S
C288 C287 1.403 . S
C288 C289 1.404 . S
C288 C291 1.539 . S
C289 C285 1.408 . S
C289 C288 1.404 . S
C289 H301 0.930 . S
C290 C286 1.524 . S
C290 H302 0.956 . S
C290 H303 0.961 . S
C290 H304 0.961 . S
C291 C288 1.539 . S
C291 H305 0.958 . S
C291 H306 0.961 . S
C291 H307 0.960 . S
H292 C276 0.931 . S
H293 C281 0.929 . S
H294 C282 0.960 . S
H295 C282 0.962 . S
H296 C282 0.960 . S
H297 C283 0.961 . S
H298 C283 0.961 . S
H299 C283 0.961 . S
H300 C284 0.931 . S
H301 C289 0.930 . S
H302 C290 0.956 . S
H303 C290 0.961 . S
H304 C290 0.961 . S
H305 C291 0.958 . S
H306 C291 0.961 . S
H307 C291 0.960 . S
C308 C309 1.391 . S
C308 C310 1.394 . S
C308 H324 0.931 . S
C309 C308 1.391 . S
C309 C313 1.376 . S
C310 C308 1.394 . S
C310 C311 1.369 . S
C310 C314 1.531 . S
C311 C310 1.369 . S
C311 C312 1.410 . S
C311 C319 1.503 . S
C312 C311 1.410 . S
C312 C313 1.392 . S
C312 C315 1.511 . S
C313 C309 1.376 . S
C313 C312 1.392 . S
C313 H325 0.929 . S
C314 C310 1.531 . S
C314 H326 0.960 . S
C314 H327 0.962 . S
C314 H328 0.960 . S
C315 C312 1.511 . S
C315 H329 0.961 . S
C315 H330 0.961 . S
C315 H331 0.961 . S
C316 C317 1.370 . S
C316 C318 1.363 . S
C316 H332 0.931 . S
C317 C316 1.370 . S
C317 C321 1.408 . S
C318 C316 1.363 . S
C318 C319 1.370 . S
C318 C322 1.524 . S
C319 C311 1.503 . S
C319 C318 1.370 . S
C319 C320 1.403 . S
C320 C319 1.403 . S
C320 C321 1.404 . S
C320 C323 1.539 . S
C321 C317 1.408 . S
C321 C320 1.404 . S
C321 H333 0.930 . S
C322 C318 1.524 . S
C322 H334 0.956 . S
C322 H335 0.961 . S
C322 H336 0.961 . S
C323 C320 1.539 . S
C323 H337 0.958 . S
C323 H338 0.961 . S
C323 H339 0.960 . S
H324 C308 0.931 . S
H325 C313 0.929 . S
H326 C314 0.960 . S
H327 C314 0.962 . S
H328 C314 0.960 . S
H329 C315 0.961 . S
H330 C315 0.961 . S
H331 C315 0.961 . S
H332 C316 0.931 . S
H333 C321 0.930 . S
H334 C322 0.956 . S
H335 C322 0.961 . S
H336 C322 0.961 . S
H337 C323 0.958 . S
H338 C323 0.961 . S
H339 C323 0.960 . S
C340 C341 1.391 . S
C340 C342 1.394 . S
C340 H356 0.931 . S
C341 C340 1.391 . S
C341 C345 1.376 . S
C342 C340 1.394 . S
C342 C343 1.369 . S
C342 C346 1.531 . S
C343 C342 1.369 . S
C343 C344 1.410 . S
C343 C351 1.503 . S
C344 C343 1.410 . S
C344 C345 1.392 . S
C344 C347 1.511 . S
C345 C341 1.376 . S
C345 C344 1.392 . S
C345 H357 0.929 . S
C346 C342 1.531 . S
C346 H358 0.960 . S
C346 H359 0.962 . S
C346 H360 0.960 . S
C347 C344 1.511 . S
C347 H361 0.961 . S
C347 H362 0.961 . S
C347 H363 0.961 1_455 S
C348 C349 1.370 . S
C348 C350 1.363 . S
C348 H364 0.931 . S
C349 C348 1.370 . S
C349 C353 1.408 1_455 S
C350 C348 1.363 . S
C350 C351 1.370 . S
C350 C354 1.524 . S
C351 C343 1.503 . S
C351 C350 1.370 . S
C351 C352 1.403 1_455 S
C352 C351 1.403 1_655 S
C352 C353 1.404 . S
C352 C355 1.539 . S
C353 C349 1.408 1_655 S
C353 C352 1.404 . S
C353 H365 0.930 . S
C354 C350 1.524 . S
C354 H366 0.956 . S
C354 H367 0.961 . S
C354 H368 0.961 . S
C355 C352 1.539 . S
C355 H369 0.958 . S
C355 H370 0.961 . S
C355 H371 0.960 . S
H356 C340 0.931 . S
H357 C345 0.929 . S
H358 C346 0.960 . S
H359 C346 0.962 . S
H360 C346 0.960 . S
H361 C347 0.961 . S
H362 C347 0.961 . S
H363 C347 0.961 1_655 S
H364 C348 0.931 . S
H365 C353 0.930 . S
H366 C354 0.956 . S
H367 C354 0.961 . S
H368 C354 0.961 . S
H369 C355 0.958 . S
H370 C355 0.961 . S
H371 C355 0.960 . S
C372 C373 1.391 1_565 S
C372 C374 1.394 . S
C372 H388 0.931 . S
C373 C372 1.391 1_545 S
C373 C377 1.376 . S
C374 C372 1.394 . S
C374 C375 1.369 1_565 S
C374 C378 1.531 . S
C375 C374 1.369 1_545 S
C375 C376 1.410 . S
C375 C383 1.503 . S
C376 C375 1.410 . S
C376 C377 1.392 . S
C376 C379 1.511 . S
C377 C373 1.376 . S
C377 C376 1.392 . S
C377 H389 0.924 1_556 S
C378 C374 1.531 . S
C378 H390 0.960 . S
C378 H391 0.962 . S
C378 H392 0.960 . S
C379 C376 1.511 . S
C379 H393 0.961 . S
C379 H394 0.961 . S
C379 H395 0.961 . S
C380 C381 1.370 1_565 S
C380 C382 1.363 . S
C380 H396 0.931 . S
C381 C380 1.370 1_545 S
C381 C385 1.408 . S
C382 C380 1.363 . S
C382 C383 1.370 1_565 S
C382 C386 1.524 . S
C383 C375 1.503 . S
C383 C382 1.370 1_545 S
C383 C384 1.403 . S
C384 C383 1.403 . S
C384 C385 1.404 . S
C384 C387 1.539 . S
C385 C381 1.408 . S
C385 C384 1.404 . S
C385 H397 0.930 . S
C386 C382 1.524 . S
C386 H398 0.956 . S
C386 H399 0.961 1_556 S
C386 H400 0.961 1_556 S
C387 C384 1.539 . S
C387 H401 0.958 . S
C387 H402 0.961 . S
C387 H403 0.960 . S
H388 C372 0.931 . S
H389 C377 0.924 1_554 S
H390 C378 0.960 . S
H391 C378 0.962 . S
H392 C378 0.960 . S
H393 C379 0.961 . S
H394 C379 0.961 . S
H395 C379 0.961 . S
H396 C380 0.931 . S
H397 C385 0.930 . S
H398 C386 0.956 . S
H399 C386 0.961 1_554 S
H400 C386 0.961 1_554 S
H401 C387 0.958 . S
H402 C387 0.961 . S
H403 C387 0.960 . S
C404 C405 1.391 . S
C404 C406 1.394 . S
C404 H420 0.931 1_556 S
C405 C404 1.391 . S
C405 C409 1.376 . S
C406 C404 1.394 . S
C406 C407 1.369 . S
C406 C410 1.531 . S
C407 C406 1.369 . S
C407 C408 1.410 . S
C407 C415 1.503 . S
C408 C407 1.410 . S
C408 C409 1.392 . S
C408 C411 1.511 . S
C409 C405 1.376 . S
C409 C408 1.392 . S
C409 H421 0.929 . S
C410 C406 1.531 . S
C410 H422 0.960 . S
C410 H423 0.962 1_556 S
C410 H424 0.960 1_556 S
C411 C408 1.511 . S
C411 H425 0.961 . S
C411 H426 0.961 . S
C411 H427 0.961 . S
C412 C413 1.370 . S
C412 C414 1.363 . S
C412 H428 0.931 . S
C413 C412 1.370 . S
C413 C417 1.408 . S
C414 C412 1.363 . S
C414 C415 1.370 . S
C414 C418 1.524 . S
C415 C407 1.503 . S
C415 C414 1.370 . S
C415 C416 1.403 . S
C416 C415 1.403 . S
C416 C417 1.404 . S
C416 C419 1.539 . S
C417 C413 1.408 . S
C417 C416 1.404 . S
C417 H429 0.930 . S
C418 C414 1.524 . S
C418 H430 0.956 . S
C418 H431 0.961 . S
C418 H432 0.961 . S
C419 C416 1.539 . S
C419 H433 0.958 . S
C419 H434 0.961 . S
C419 H435 0.960 . S
H420 C404 0.931 1_554 S
H421 C409 0.929 . S
H422 C410 0.960 . S
H423 C410 0.962 1_554 S
H424 C410 0.960 1_554 S
H425 C411 0.961 . S
H426 C411 0.961 . S
H427 C411 0.961 . S
H428 C412 0.931 . S
H429 C417 0.930 . S
H430 C418 0.956 . S
H431 C418 0.961 . S
H432 C418 0.961 . S
H433 C419 0.958 . S
H434 C419 0.961 . S
H435 C419 0.960 . S
C436 C437 1.391 . S
C436 C438 1.394 . S
C436 H452 0.931 . S
C437 C436 1.391 . S
C437 C441 1.376 . S
C438 C436 1.394 . S
C438 C439 1.369 . S
C438 C442 1.531 . S
C439 C438 1.369 . S
C439 C440 1.410 . S
C439 C447 1.503 . S
C440 C439 1.410 . S
C440 C441 1.392 . S
C440 C443 1.511 . S
C441 C437 1.376 . S
C441 C440 1.392 . S
C441 H453 0.929 . S
C442 C438 1.531 . S
C442 H454 0.960 . S
C442 H455 0.962 . S
C442 H456 0.960 . S
C443 C440 1.511 . S
C443 H457 0.961 . S
C443 H458 0.961 . S
C443 H459 0.961 . S
C444 C445 1.370 . S
C444 C446 1.363 . S
C444 H460 0.931 . S
C445 C444 1.370 . S
C445 C449 1.408 . S
C446 C444 1.363 . S
C446 C447 1.370 . S
C446 C450 1.524 . S
C447 C439 1.503 . S
C447 C446 1.370 . S
C447 C448 1.403 . S
C448 C447 1.403 . S
C448 C449 1.404 . S
C448 C451 1.539 . S
C449 C445 1.408 . S
C449 C448 1.404 . S
C449 H461 0.930 . S
C450 C446 1.524 . S
C450 H462 0.956 . S
C450 H463 0.961 . S
C450 H464 0.961 . S
C451 C448 1.539 . S
C451 H465 0.958 . S
C451 H466 0.961 . S
C451 H467 0.960 . S
H452 C436 0.931 . S
H453 C441 0.929 . S
H454 C442 0.960 . S
H455 C442 0.962 . S
H456 C442 0.960 . S
H457 C443 0.961 . S
H458 C443 0.961 . S
H459 C443 0.961 . S
H460 C444 0.931 . S
H461 C449 0.930 . S
H462 C450 0.956 . S
H463 C450 0.961 . S
H464 C450 0.961 . S
H465 C451 0.958 . S
H466 C451 0.961 . S
H467 C451 0.960 . S
C468 C469 1.393 . S
C468 C470 1.394 . S
C468 H484 0.931 . S
C469 C468 1.393 . S
C469 C473 1.374 1_656 S
C470 C468 1.394 . S
C470 C471 1.369 1_655 S
C470 C474 1.531 . S
C471 C470 1.369 1_455 S
C471 C472 1.410 . S
C471 C479 1.503 . S
C472 C471 1.410 . S
C472 C473 1.392 1_556 S
C472 C475 1.511 . S
C473 C469 1.374 1_454 S
C473 C472 1.392 1_554 S
C473 H485 0.929 . S
C474 C470 1.531 . S
C474 H486 0.960 . S
C474 H487 0.962 . S
C474 H488 0.960 . S
C475 C472 1.511 . S
C475 H489 0.961 1_556 S
C475 H490 0.961 . S
C475 H491 0.961 . S
C476 C477 1.370 1_655 S
C476 C478 1.363 . S
C476 H492 0.931 . S
C477 C476 1.370 1_455 S
C477 C481 1.408 . S
C478 C476 1.363 . S
C478 C479 1.370 1_655 S
C478 C482 1.524 . S
C479 C471 1.503 . S
C479 C478 1.370 1_455 S
C479 C480 1.403 . S
C480 C479 1.403 . S
C480 C481 1.404 . S
C480 C483 1.539 . S
C481 C477 1.408 . S
C481 C480 1.404 . S
C481 H493 0.930 . S
C482 C478 1.524 . S
C482 H494 0.956 . S
C482 H495 0.961 . S
C482 H496 0.961 . S
C483 C480 1.539 . S
C483 H497 0.958 . S
C483 H498 0.961 . S
C483 H499 0.960 . S
H484 C468 0.931 . S
H485 C473 0.929 . S
H486 C474 0.960 . S
H487 C474 0.962 . S
H488 C474 0.960 . S
H489 C475 0.961 1_554 S
H490 C475 0.961 . S
H491 C475 0.961 . S
H492 C476 0.931 . S
H493 C481 0.930 . S
H494 C482 0.956 . S
H495 C482 0.961 . S
H496 C482 0.961 . S
H497 C483 0.958 . S
H498 C483 0.961 . S
H499 C483 0.960 . S
C500 C501 1.391 . S
C500 C502 1.394 . S
C500 H516 0.931 . S
C501 C500 1.391 . S
C501 C505 1.376 . S
C502 C500 1.394 . S
C502 C503 1.369 . S
C502 C506 1.531 1_455 S
C503 C502 1.369 . S
C503 C504 1.410 . S
C503 C511 1.503 . S
C504 C503 1.410 . S
C504 C505 1.392 . S
C504 C507 1.511 . S
C505 C501 1.376 . S
C505 C504 1.392 . S
C505 H517 0.929 . S
C506 C502 1.531 1_655 S
C506 H518 0.960 . S
C506 H519 0.962 . S
C506 H520 0.960 . S
C507 C504 1.511 . S
C507 H521 0.961 . S
C507 H522 0.961 . S
C507 H523 0.961 . S
C508 C509 1.370 . S
C508 C510 1.363 . S
C508 H524 0.931 . S
C509 C508 1.370 . S
C509 C513 1.408 . S
C510 C508 1.363 . S
C510 C511 1.370 . S
C510 C514 1.524 . S
C511 C503 1.503 . S
C511 C510 1.370 . S
C511 C512 1.403 . S
C512 C511 1.403 . S
C512 C513 1.404 . S
C512 C515 1.539 . S
C513 C509 1.408 . S
C513 C512 1.404 . S
C513 H525 0.930 . S
C514 C510 1.524 . S
C514 H526 0.967 . S
C514 H527 0.961 . S
C514 H528 0.961 . S
C515 C512 1.539 . S
C515 H529 0.958 . S
C515 H530 0.961 . S
C515 H531 0.960 . S
H516 C500 0.931 . S
H517 C505 0.929 . S
H518 C506 0.960 . S
H519 C506 0.962 . S
H520 C506 0.960 . S
H521 C507 0.961 . S
H522 C507 0.961 . S
H523 C507 0.961 . S
H524 C508 0.931 . S
H525 C513 0.930 . S
H526 C514 0.967 . S
H527 C514 0.961 . S
H528 C514 0.961 . S
H529 C515 0.958 . S
H530 C515 0.961 . S
H531 C515 0.960 . S
C532 C533 1.391 . S
C532 C534 1.394 . S
C532 H548 0.931 . S
C533 C532 1.391 . S
C533 C537 1.376 1_545 S
C534 C532 1.394 . S
C534 C535 1.369 . S
C534 C538 1.531 . S
C535 C534 1.369 . S
C535 C536 1.410 1_545 S
C535 C543 1.503 . S
C536 C535 1.410 1_565 S
C536 C537 1.392 . S
C536 C539 1.511 . S
C537 C533 1.376 1_565 S
C537 C536 1.392 . S
C537 H549 0.929 . S
C538 C534 1.531 . S
C538 H550 0.960 . S
C538 H551 0.962 . S
C538 H552 0.960 . S
C539 C536 1.511 . S
C539 H553 0.961 . S
C539 H554 0.961 . S
C539 H555 0.961 . S
C540 C541 1.370 . S
C540 C542 1.363 . S
C540 H556 0.931 . S
C541 C540 1.370 . S
C541 C545 1.408 1_545 S
C542 C540 1.363 . S
C542 C543 1.370 . S
C542 C546 1.524 . S
C543 C535 1.503 . S
C543 C542 1.370 . S
C543 C544 1.403 1_545 S
C544 C543 1.403 1_565 S
C544 C545 1.404 . S
C544 C547 1.539 . S
C545 C541 1.408 1_565 S
C545 C544 1.404 . S
C545 H557 0.930 . S
C546 C542 1.524 . S
C546 H558 0.956 . S
C546 H559 0.961 . S
C546 H560 0.961 . S
C547 C544 1.539 . S
C547 H561 0.958 . S
C547 H562 0.961 . S
C547 H563 0.960 . S
H548 C532 0.931 . S
H549 C537 0.929 . S
H550 C538 0.960 . S
H551 C538 0.962 . S
H552 C538 0.960 . S
H553 C539 0.961 . S
H554 C539 0.961 . S
H555 C539 0.961 . S
H556 C540 0.931 . S
H557 C545 0.930 . S
H558 C546 0.956 . S
H559 C546 0.961 . S
H560 C546 0.961 . S
H561 C547 0.958 . S
H562 C547 0.961 . S
H563 C547 0.960 . S
C564 C565 1.391 . S
C564 C566 1.394 . S
C564 H580 0.931 . S
C565 C564 1.391 . S
C565 C569 1.376 . S
C566 C564 1.394 . S
C566 C567 1.369 . S
C566 C570 1.531 . S
C567 C566 1.369 . S
C567 C568 1.410 . S
C567 C575 1.503 . S
C568 C567 1.410 . S
C568 C569 1.392 . S
C568 C571 1.511 . S
C569 C565 1.376 . S
C569 C568 1.392 . S
C569 H581 0.929 . S
C570 C566 1.531 . S
C570 H582 0.960 . S
C570 H583 0.962 . S
C570 H584 0.960 . S
C571 C568 1.511 . S
C571 H585 0.961 . S
C571 H586 0.961 . S
C571 H587 0.961 . S
C572 C573 1.370 . S
C572 C574 1.363 . S
C572 H588 0.931 . S
C573 C572 1.370 . S
C573 C577 1.408 . S
C574 C572 1.363 . S
C574 C575 1.370 . S
C574 C578 1.524 . S
C575 C567 1.503 . S
C575 C574 1.370 . S
C575 C576 1.403 . S
C576 C575 1.403 . S
C576 C577 1.404 . S
C576 C579 1.539 . S
C577 C573 1.408 . S
C577 C576 1.404 . S
C577 H589 0.930 . S
C578 C574 1.524 . S
C578 H590 0.956 . S
C578 H591 0.961 . S
C578 H592 0.961 . S
C579 C576 1.539 . S
C579 H593 0.958 . S
C579 H594 0.961 . S
C579 H595 0.960 . S
H580 C564 0.931 . S
H581 C569 0.929 . S
H582 C570 0.960 . S
H583 C570 0.962 . S
H584 C570 0.960 . S
H585 C571 0.961 . S
H586 C571 0.961 . S
H587 C571 0.961 . S
H588 C572 0.931 . S
H589 C577 0.930 . S
H590 C578 0.956 . S
H591 C578 0.961 . S
H592 C578 0.961 . S
H593 C579 0.958 . S
H594 C579 0.961 . S
H595 C579 0.960 . S
C596 C597 1.391 . S
C596 C598 1.394 . S
C596 H612 0.931 . S
C597 C596 1.391 . S
C597 C601 1.376 . S
C598 C596 1.394 . S
C598 C599 1.369 . S
C598 C602 1.531 . S
C599 C598 1.369 . S
C599 C600 1.410 . S
C599 C607 1.503 . S
C600 C599 1.410 . S
C600 C601 1.392 . S
C600 C603 1.511 . S
C601 C597 1.376 . S
C601 C600 1.392 . S
C601 H613 0.929 . S
C602 C598 1.531 . S
C602 H614 0.960 . S
C602 H615 0.962 . S
C602 H616 0.960 . S
C603 C600 1.511 . S
C603 H617 0.961 . S
C603 H618 0.961 . S
C603 H619 0.961 . S
C604 C605 1.370 . S
C604 C606 1.363 . S
C604 H620 0.931 . S
C605 C604 1.370 . S
C605 C609 1.408 . S
C606 C604 1.363 . S
C606 C607 1.370 . S
C606 C610 1.524 . S
C607 C599 1.503 . S
C607 C606 1.370 . S
C607 C608 1.403 . S
C608 C607 1.403 . S
C608 C609 1.404 . S
C608 C611 1.539 . S
C609 C605 1.408 . S
C609 C608 1.404 . S
C609 H621 0.930 . S
C610 C606 1.524 . S
C610 H622 0.956 . S
C610 H623 0.961 . S
C610 H624 0.961 . S
C611 C608 1.539 . S
C611 H625 0.958 . S
C611 H626 0.961 . S
C611 H627 0.960 . S
H612 C596 0.931 . S
H613 C601 0.929 . S
H614 C602 0.960 . S
H615 C602 0.962 . S
H616 C602 0.960 . S
H617 C603 0.961 . S
H618 C603 0.961 . S
H619 C603 0.961 . S
H620 C604 0.931 . S
H621 C609 0.930 . S
H622 C610 0.956 . S
H623 C610 0.961 . S
H624 C610 0.961 . S
H625 C611 0.958 . S
H626 C611 0.961 . S
H627 C611 0.960 . S
C628 C629 1.391 1_655 S
C628 C630 1.394 . S
C628 H644 0.931 . S
C629 C628 1.391 1_455 S
C629 C633 1.376 . S
C630 C628 1.394 . S
C630 C631 1.369 1_654 S
C630 C634 1.531 . S
C631 C630 1.369 1_456 S
C631 C632 1.410 . S
C631 C639 1.503 . S
C632 C631 1.410 . S
C632 C633 1.392 1_556 S
C632 C635 1.511 . S
C633 C629 1.376 . S
C633 C632 1.392 1_554 S
C633 H645 0.929 1_554 S
C634 C630 1.531 . S
C634 H646 0.960 . S
C634 H647 0.962 1_554 S
C634 H648 0.960 . S
C635 C632 1.511 . S
C635 H649 0.961 . S
C635 H650 0.961 . S
C635 H651 0.961 . S
C636 C637 1.370 . S
C636 C638 1.363 . S
C636 H652 0.931 . S
C637 C636 1.370 . S
C637 C641 1.408 . S
C638 C636 1.363 . S
C638 C639 1.370 . S
C638 C642 1.524 1_455 S
C639 C631 1.503 . S
C639 C638 1.370 . S
C639 C640 1.403 . S
C640 C639 1.403 . S
C640 C641 1.404 . S
C640 C643 1.539 1_556 S
C641 C637 1.408 . S
C641 C640 1.404 . S
C641 H653 0.930 . S
C642 C638 1.524 1_655 S
C642 H654 0.956 . S
C642 H655 0.961 1_655 S
C642 H656 0.961 . S
C643 C640 1.539 1_554 S
C643 H657 0.958 . S
C643 H658 0.961 . S
C643 H659 0.960 . S
H644 C628 0.931 . S
H645 C633 0.929 1_556 S
H646 C634 0.960 . S
H647 C634 0.962 1_556 S
H648 C634 0.960 . S
H649 C635 0.961 . S
H650 C635 0.961 . S
H651 C635 0.961 . S
H652 C636 0.931 . S
H653 C641 0.930 . S
H654 C642 0.956 . S
H655 C642 0.961 1_455 S
H656 C642 0.961 . S
H657 C643 0.958 . S
H658 C643 0.961 . S
H659 C643 0.960 . S
C660 C661 1.391 1_545 S
C660 C662 1.394 . S
C660 H676 0.931 . S
C661 C660 1.391 1_565 S
C661 C665 1.376 1_556 S
C662 C660 1.394 . S
C662 C663 1.369 . S
C662 C666 1.531 . S
C663 C662 1.369 . S
C663 C664 1.410 1_545 S
C663 C671 1.503 . S
C664 C663 1.410 1_565 S
C664 C665 1.392 1_556 S
C664 C667 1.511 1_556 S
C665 C661 1.376 1_554 S
C665 C664 1.392 1_554 S
C665 H677 0.929 . S
C666 C662 1.531 . S
C666 H678 0.960 . S
C666 H679 0.962 . S
C666 H680 0.960 . S
C667 C664 1.511 1_554 S
C667 H681 0.961 . S
C667 H682 0.961 . S
C667 H683 0.959 1_554 S
C668 C669 1.370 . S
C668 C670 1.363 . S
C668 H684 0.931 . S
C669 C668 1.370 . S
C669 C673 1.408 . S
C670 C668 1.363 . S
C670 C671 1.370 . S
C670 C674 1.524 . S
C671 C663 1.503 . S
C671 C670 1.370 . S
C671 C672 1.405 . S
C672 C671 1.405 . S
C672 C673 1.405 . S
C672 C675 1.536 1_545 S
C673 C669 1.408 . S
C673 C672 1.405 . S
C673 H685 0.930 1_545 S
C674 C670 1.524 . S
C674 H686 0.956 . S
C674 H687 0.961 1_556 S
C674 H688 0.961 . S
C675 C672 1.536 1_565 S
C675 H689 0.958 . S
C675 H690 0.961 . S
C675 H691 0.960 . S
H676 C660 0.931 . S
H677 C665 0.929 . S
H678 C666 0.960 . S
H679 C666 0.962 . S
H680 C666 0.960 . S
H681 C667 0.961 . S
H682 C667 0.961 . S
H683 C667 0.959 1_556 S
H684 C668 0.931 . S
H685 C673 0.930 1_565 S
H686 C674 0.956 . S
H687 C674 0.961 1_554 S
H688 C674 0.961 . S
H689 C675 0.958 . S
H690 C675 0.961 . S
H691 C675 0.960 . S
C692 C693 1.391 . S
C692 C694 1.394 . S
C692 H708 0.931 1_556 S
C693 C692 1.391 . S
C693 C697 1.376 . S
C694 C692 1.394 . S
C694 C695 1.369 . S
C694 C698 1.531 1_556 S
C695 C694 1.369 . S
C695 C696 1.410 . S
C695 C703 1.503 . S
C696 C695 1.410 . S
C696 C697 1.392 . S
C696 C699 1.511 . S
C697 C693 1.376 . S
C697 C696 1.392 . S
C697 H709 0.929 . S
C698 C694 1.531 1_554 S
C698 H710 0.960 1_554 S
C698 H711 0.962 1_554 S
C698 H712 0.960 . S
C699 C696 1.511 . S
C699 H713 0.961 . S
C699 H714 0.961 . S
C699 H715 0.961 . S
C700 C701 1.370 . S
C700 C702 1.363 . S
C700 H716 0.931 . S
C701 C700 1.370 . S
C701 C705 1.408 . S
C702 C700 1.363 . S
C702 C703 1.370 . S
C702 C706 1.524 . S
C703 C695 1.503 . S
C703 C702 1.370 . S
C703 C704 1.403 . S
C704 C703 1.403 . S
C704 C705 1.404 . S
C704 C707 1.539 . S
C705 C701 1.408 . S
C705 C704 1.404 . S
C705 H717 0.930 . S
C706 C702 1.524 . S
C706 H718 0.956 . S
C706 H719 0.961 . S
C706 H720 0.961 . S
C707 C704 1.539 . S
C707 H721 0.958 . S
C707 H722 0.961 . S
C707 H723 0.960 . S
H708 C692 0.931 1_554 S
H709 C697 0.929 . S
H710 C698 0.960 1_556 S
H711 C698 0.962 1_556 S
H712 C698 0.960 . S
H713 C699 0.961 . S
H714 C699 0.961 . S
H715 C699 0.961 . S
H716 C700 0.931 . S
H717 C705 0.930 . S
H718 C706 0.956 . S
H719 C706 0.961 . S
H720 C706 0.961 . S
H721 C707 0.958 . S
H722 C707 0.961 . S
H723 C707 0.960 . S
C724 C725 1.391 . S
C724 C726 1.394 . S
C724 H740 0.931 . S
C725 C724 1.391 . S
C725 C729 1.376 . S
C726 C724 1.394 . S
C726 C727 1.369 . S
C726 C730 1.531 . S
C727 C726 1.369 . S
C727 C728 1.410 . S
C727 C735 1.503 . S
C728 C727 1.410 . S
C728 C729 1.392 . S
C728 C731 1.511 . S
C729 C725 1.376 . S
C729 C728 1.392 . S
C729 H741 0.929 . S
C730 C726 1.531 . S
C730 H742 0.960 . S
C730 H743 0.962 . S
C730 H744 0.960 . S
C731 C728 1.511 . S
C731 H745 0.961 . S
C731 H746 0.961 . S
C731 H747 0.961 . S
C732 C733 1.370 . S
C732 C734 1.363 . S
C732 H748 0.931 . S
C733 C732 1.370 . S
C733 C737 1.408 . S
C734 C732 1.363 . S
C734 C735 1.370 . S
C734 C738 1.524 . S
C735 C727 1.503 . S
C735 C734 1.370 . S
C735 C736 1.403 . S
C736 C735 1.403 . S
C736 C737 1.404 . S
C736 C739 1.539 . S
C737 C733 1.408 . S
C737 C736 1.404 . S
C737 H749 0.930 . S
C738 C734 1.524 . S
C738 H750 0.956 . S
C738 H751 0.961 . S
C738 H752 0.961 . S
C739 C736 1.539 . S
C739 H753 0.958 . S
C739 H754 0.961 . S
C739 H755 0.960 . S
H740 C724 0.931 . S
H741 C729 0.929 . S
H742 C730 0.960 . S
H743 C730 0.962 . S
H744 C730 0.960 . S
H745 C731 0.961 . S
H746 C731 0.961 . S
H747 C731 0.961 . S
H748 C732 0.931 . S
H749 C737 0.930 . S
H750 C738 0.956 . S
H751 C738 0.961 . S
H752 C738 0.961 . S
H753 C739 0.958 . S
H754 C739 0.961 . S
H755 C739 0.960 . S
C756 C757 1.391 . S
C756 C758 1.394 . S
C756 H772 0.931 . S
C757 C756 1.391 . S
C757 C761 1.376 . S
C758 C756 1.394 . S
C758 C759 1.369 . S
C758 C762 1.531 . S
C759 C758 1.369 . S
C759 C760 1.410 . S
C759 C767 1.503 . S
C760 C759 1.410 . S
C760 C761 1.392 . S
C760 C763 1.511 1_455 S
C761 C757 1.376 . S
C761 C760 1.392 . S
C761 H773 0.929 1_455 S
C762 C758 1.531 . S
C762 H774 0.960 . S
C762 H775 0.962 . S
C762 H776 0.960 . S
C763 C760 1.511 1_655 S
C763 H777 0.961 . S
C763 H778 0.961 . S
C763 H779 0.961 . S
C764 C765 1.370 . S
C764 C766 1.363 . S
C764 H780 0.931 . S
C765 C764 1.370 . S
C765 C769 1.408 1_556 S
C766 C764 1.363 . S
C766 C767 1.370 1_556 S
C766 C770 1.524 . S
C767 C759 1.503 . S
C767 C766 1.370 1_554 S
C767 C768 1.403 . S
C768 C767 1.403 . S
C768 C769 1.404 . S
C768 C771 1.539 . S
C769 C765 1.408 1_554 S
C769 C768 1.404 . S
C769 H781 0.930 . S
C770 C766 1.524 . S
C770 H782 0.956 . S
C770 H783 0.961 . S
C770 H784 0.961 . S
C771 C768 1.539 . S
C771 H785 0.958 . S
C771 H786 0.961 . S
C771 H787 0.960 . S
H772 C756 0.931 . S
H773 C761 0.929 1_655 S
H774 C762 0.960 . S
H775 C762 0.962 . S
H776 C762 0.960 . S
H777 C763 0.961 . S
H778 C763 0.961 . S
H779 C763 0.961 . S
H780 C764 0.931 . S
H781 C769 0.930 . S
H782 C770 0.956 . S
H783 C770 0.961 . S
H784 C770 0.961 . S
H785 C771 0.958 . S
H786 C771 0.961 . S
H787 C771 0.960 . S
C788 C789 1.391 1_565 S
C788 C790 1.394 . S
C788 H804 0.931 . S
C789 C788 1.391 1_545 S
C789 C793 1.376 . S
C790 C788 1.394 . S
C790 C791 1.369 1_565 S
C790 C794 1.531 1_554 S
C791 C790 1.369 1_545 S
C791 C792 1.410 . S
C791 C799 1.503 1_554 S
C792 C791 1.410 . S
C792 C793 1.392 . S
C792 C795 1.511 . S
C793 C789 1.376 . S
C793 C792 1.392 . S
C793 H805 0.929 . S
C794 C790 1.531 1_556 S
C794 H806 0.960 . S
C794 H807 0.962 1_556 S
C794 H808 0.960 . S
C795 C792 1.511 . S
C795 H809 0.961 . S
C795 H810 0.961 . S
C795 H811 0.961 . S
C796 C797 1.370 1_565 S
C796 C798 1.363 1_556 S
C796 H812 0.931 . S
C797 C796 1.370 1_545 S
C797 C801 1.408 . S
C798 C796 1.363 1_554 S
C798 C799 1.370 1_564 S
C798 C802 1.524 . S
C799 C791 1.503 1_556 S
C799 C798 1.370 1_546 S
C799 C800 1.403 . S
C800 C799 1.403 . S
C800 C801 1.404 . S
C800 C803 1.539 . S
C801 C797 1.408 . S
C801 C800 1.404 . S
C801 H813 0.930 . S
C802 C798 1.524 . S
C802 H814 0.956 . S
C802 H815 0.961 1_565 S
C802 H816 0.961 . S
C803 C800 1.539 . S
C803 H817 0.958 . S
C803 H818 0.961 . S
C803 H819 0.960 . S
H804 C788 0.931 . S
H805 C793 0.929 . S
H806 C794 0.960 . S
H807 C794 0.962 1_554 S
H808 C794 0.960 . S
H809 C795 0.961 . S
H810 C795 0.961 . S
H811 C795 0.961 . S
H812 C796 0.931 . S
H813 C801 0.930 . S
H814 C802 0.956 . S
H815 C802 0.961 1_545 S
H816 C802 0.961 . S
H817 C803 0.958 . S
H818 C803 0.961 . S
H819 C803 0.960 . S
C820 C821 1.391 . S
C820 C822 1.394 . S
C820 H836 0.931 . S
C821 C820 1.391 . S
C821 C825 1.376 . S
C822 C820 1.394 . S
C822 C823 1.369 . S
C822 C826 1.531 . S
C823 C822 1.369 . S
C823 C824 1.406 1_554 S
C823 C831 1.503 1_554 S
C824 C823 1.406 1_556 S
C824 C825 1.386 1_556 S
C824 C827 1.521 . S
C825 C821 1.376 . S
C825 C824 1.386 1_554 S
C825 H837 0.929 . S
C826 C822 1.531 . S
C826 H838 0.960 . S
C826 H839 0.962 . S
C826 H840 0.960 . S
C827 C824 1.521 . S
C827 H841 0.961 . S
C827 H842 0.961 . S
C827 H843 0.961 . S
C828 C829 1.370 . S
C828 C830 1.363 . S
C828 H844 0.931 . S
C829 C828 1.370 . S
C829 C833 1.408 . S
C830 C828 1.363 . S
C830 C831 1.370 . S
C830 C834 1.524 . S
C831 C823 1.503 1_556 S
C831 C830 1.370 . S
C831 C832 1.403 . S
C832 C831 1.403 . S
C832 C833 1.404 . S
C832 C835 1.539 1_556 S
C833 C829 1.408 . S
C833 C832 1.404 . S
C833 H845 0.930 . S
C834 C830 1.524 . S
C834 H846 0.956 . S
C834 H847 0.961 . S
C834 H848 0.961 . S
C835 C832 1.539 1_554 S
C835 H849 0.958 . S
C835 H850 0.961 1_554 S
C835 H851 0.960 . S
H836 C820 0.931 . S
H837 C825 0.929 . S
H838 C826 0.960 . S
H839 C826 0.962 . S
H840 C826 0.960 . S
H841 C827 0.961 . S
H842 C827 0.961 . S
H843 C827 0.961 . S
H844 C828 0.931 . S
H845 C833 0.930 . S
H846 C834 0.956 . S
H847 C834 0.961 . S
H848 C834 0.961 . S
H849 C835 0.958 . S
H850 C835 0.961 1_556 S
H851 C835 0.960 . S
C852 C853 1.391 . S
C852 C854 1.394 1_554 S
C852 H868 0.931 . S
C853 C852 1.391 . S
C853 C857 1.376 . S
C854 C852 1.394 1_556 S
C854 C855 1.369 1_556 S
C854 C858 1.531 . S
C855 C854 1.369 1_554 S
C855 C856 1.410 . S
C855 C863 1.503 1_554 S
C856 C855 1.410 . S
C856 C857 1.392 . S
C856 C859 1.511 . S
C857 C853 1.376 . S
C857 C856 1.392 . S
C857 H869 0.929 . S
C858 C854 1.531 . S
C858 H870 0.960 . S
C858 H871 0.962 . S
C858 H872 0.960 . S
C859 C856 1.511 . S
C859 H873 0.961 . S
C859 H874 0.961 . S
C859 H875 0.961 . S
C860 C861 1.370 . S
C860 C862 1.363 . S
C860 H876 0.931 . S
C861 C860 1.370 . S
C861 C865 1.408 . S
C862 C860 1.363 . S
C862 C863 1.370 . S
C862 C866 1.524 1_556 S
C863 C855 1.503 1_556 S
C863 C862 1.370 . S
C863 C864 1.403 . S
C864 C863 1.403 . S
C864 C865 1.404 . S
C864 C867 1.539 . S
C865 C861 1.408 . S
C865 C864 1.404 . S
C865 H877 0.930 . S
C866 C862 1.524 1_554 S
C866 H878 0.956 . S
C866 H879 0.961 . S
C866 H880 0.961 . S
C867 C864 1.539 . S
C867 H881 0.958 . S
C867 H882 0.961 . S
C867 H883 0.960 . S
H868 C852 0.931 . S
H869 C857 0.929 . S
H870 C858 0.960 . S
H871 C858 0.962 . S
H872 C858 0.960 . S
H873 C859 0.961 . S
H874 C859 0.961 . S
H875 C859 0.961 . S
H876 C860 0.931 . S
H877 C865 0.930 . S
H878 C866 0.956 . S
H879 C866 0.961 . S
H880 C866 0.961 . S
H881 C867 0.958 . S
H882 C867 0.961 . S
H883 C867 0.960 . S
C884 C885 1.367 1_455 S
C884 C886 1.394 . S
C884 H900 0.931 . S
C885 C884 1.367 1_655 S
C885 C889 1.402 . S
C886 C884 1.394 . S
C886 C887 1.369 1_455 S
C886 C890 1.531 . S
C887 C886 1.369 1_655 S
C887 C888 1.410 . S
C887 C895 1.503 . S
C888 C887 1.410 . S
C888 C889 1.392 . S
C888 C891 1.511 . S
C889 C885 1.402 . S
C889 C888 1.392 . S
C889 H901 0.929 . S
C890 C886 1.531 . S
C890 H902 0.960 . S
C890 H903 0.962 . S
C890 H904 0.960 . S
C891 C888 1.511 . S
C891 H905 0.961 . S
C891 H906 0.961 . S
C891 H907 0.961 . S
C892 C893 1.370 . S
C892 C894 1.363 . S
C892 H908 0.931 . S
C893 C892 1.370 . S
C893 C897 1.408 . S
C894 C892 1.363 . S
C894 C895 1.370 . S
C894 C898 1.524 . S
C895 C887 1.503 . S
C895 C894 1.370 . S
C895 C896 1.403 . S
C896 C895 1.403 . S
C896 C897 1.404 . S
C896 C899 1.539 . S
C897 C893 1.408 . S
C897 C896 1.404 . S
C897 H909 0.930 . S
C898 C894 1.524 . S
C898 H910 0.956 1_655 S
C898 H911 0.961 . S
C898 H912 0.961 . S
C899 C896 1.539 . S
C899 H913 0.958 1_655 S
C899 H914 0.961 . S
C899 H915 0.960 . S
H900 C884 0.931 . S
H901 C889 0.929 . S
H902 C890 0.960 . S
H903 C890 0.962 . S
H904 C890 0.960 . S
H905 C891 0.961 . S
H906 C891 0.961 . S
H907 C891 0.961 . S
H908 C892 0.931 . S
H909 C897 0.930 . S
H910 C898 0.956 1_455 S
H911 C898 0.961 . S
H912 C898 0.961 . S
H913 C899 0.958 1_455 S
H914 C899 0.961 . S
H915 C899 0.960 . S
C916 C917 1.402 . S
C916 C918 1.394 . S
C916 H932 0.931 . S
C917 C916 1.402 . S
C917 C921 1.365 1_545 S
C918 C916 1.394 . S
C918 C919 1.369 1_545 S
C918 C922 1.531 . S
C919 C918 1.369 1_565 S
C919 C920 1.410 . S
C919 C927 1.503 . S
C920 C919 1.410 . S
C920 C921 1.392 . S
C920 C923 1.511 . S
C921 C917 1.365 1_565 S
C921 C920 1.392 . S
C921 H933 0.929 . S
C922 C918 1.531 . S
C922 H934 0.960 . S
C922 H935 0.962 . S
C922 H936 0.960 . S
C923 C920 1.511 . S
C923 H937 0.961 . S
C923 H938 0.961 . S
C923 H939 0.961 . S
C924 C925 1.370 . S
C924 C926 1.363 . S
C924 H940 0.931 . S
C925 C924 1.370 . S
C925 C929 1.408 1_565 S
C926 C924 1.363 . S
C926 C927 1.370 . S
C926 C930 1.524 . S
C927 C919 1.503 . S
C927 C926 1.370 . S
C927 C928 1.403 1_565 S
C928 C927 1.403 1_545 S
C928 C929 1.404 . S
C928 C931 1.539 . S
C929 C925 1.408 1_545 S
C929 C928 1.404 . S
C929 H941 0.930 . S
C930 C926 1.524 . S
C930 H942 0.956 . S
C930 H943 0.961 . S
C930 H944 0.961 . S
C931 C928 1.539 . S
C931 H945 0.958 . S
C931 H946 0.961 . S
C931 H947 0.960 . S
H932 C916 0.931 . S
H933 C921 0.929 . S
H934 C922 0.960 . S
H935 C922 0.962 . S
H936 C922 0.960 . S
H937 C923 0.961 . S
H938 C923 0.961 . S
H939 C923 0.961 . S
H940 C924 0.931 . S
H941 C929 0.930 . S
H942 C930 0.956 . S
H943 C930 0.961 . S
H944 C930 0.961 . S
H945 C931 0.958 . S
H946 C931 0.961 . S
H947 C931 0.960 . S
C948 C949 1.391 . S
C948 C950 1.394 . S
C948 H964 0.931 . S
C949 C948 1.391 . S
C949 C953 1.376 . S
C950 C948 1.394 . S
C950 C951 1.369 . S
C950 C954 1.531 . S
C951 C950 1.369 . S
C951 C952 1.410 . S
C951 C959 1.503 . S
C952 C951 1.410 . S
C952 C953 1.392 . S
C952 C955 1.511 . S
C953 C949 1.376 . S
C953 C952 1.392 . S
C953 H965 0.929 . S
C954 C950 1.531 . S
C954 H966 0.960 . S
C954 H967 0.962 . S
C954 H968 0.960 . S
C955 C952 1.511 . S
C955 H969 0.961 . S
C955 H970 0.961 . S
C955 H971 0.961 . S
C956 C957 1.370 . S
C956 C958 1.363 . S
C956 H972 0.931 . S
C957 C956 1.370 . S
C957 C961 1.408 . S
C958 C956 1.363 . S
C958 C959 1.370 . S
C958 C962 1.524 . S
C959 C951 1.503 . S
C959 C958 1.370 . S
C959 C960 1.403 . S
C960 C959 1.403 . S
C960 C961 1.404 . S
C960 C963 1.539 . S
C961 C957 1.408 . S
C961 C960 1.404 . S
C961 H973 0.930 . S
C962 C958 1.524 . S
C962 H974 0.956 . S
C962 H975 0.961 . S
C962 H976 0.961 . S
C963 C960 1.539 . S
C963 H977 0.958 . S
C963 H978 0.961 . S
C963 H979 0.960 . S
H964 C948 0.931 . S
H965 C953 0.929 . S
H966 C954 0.960 . S
H967 C954 0.962 . S
H968 C954 0.960 . S
H969 C955 0.961 . S
H970 C955 0.961 . S
H971 C955 0.961 . S
H972 C956 0.931 . S
H973 C961 0.930 . S
H974 C962 0.956 . S
H975 C962 0.961 . S
H976 C962 0.961 . S
H977 C963 0.958 . S
H978 C963 0.961 . S
H979 C963 0.960 . S
C980 C981 1.391 . S
C980 C982 1.394 . S
C980 H996 0.931 . S
C981 C980 1.391 . S
C981 C985 1.376 . S
C982 C980 1.394 . S
C982 C983 1.369 . S
C982 C986 1.531 . S
C983 C982 1.369 . S
C983 C984 1.410 . S
C983 C991 1.503 . S
C984 C983 1.410 . S
C984 C985 1.392 . S
C984 C987 1.511 . S
C985 C981 1.376 . S
C985 C984 1.392 . S
C985 H997 0.929 . S
C986 C982 1.531 . S
C986 H998 0.960 . S
C986 H999 0.962 . S
C986 H1000 0.960 . S
C987 C984 1.511 . S
C987 H1001 0.961 . S
C987 H1002 0.961 . S
C987 H1003 0.961 . S
C988 C989 1.370 . S
C988 C990 1.363 . S
C988 H1004 0.931 . S
C989 C988 1.370 . S
C989 C993 1.408 . S
C990 C988 1.363 . S
C990 C991 1.370 . S
C990 C994 1.524 . S
C991 C983 1.503 . S
C991 C990 1.370 . S
C991 C992 1.403 . S
C992 C991 1.403 . S
C992 C993 1.404 . S
C992 C995 1.539 . S
C993 C989 1.408 . S
C993 C992 1.404 . S
C993 H1005 0.930 . S
C994 C990 1.524 . S
C994 H1006 0.956 . S
C994 H1007 0.961 . S
C994 H1008 0.961 . S
C995 C992 1.539 . S
C995 H1009 0.958 . S
C995 H1010 0.961 . S
C995 H1011 0.960 . S
H996 C980 0.931 . S
H997 C985 0.929 . S
H998 C986 0.960 . S
H999 C986 0.962 . S
H1000 C986 0.960 . S
H1001 C987 0.961 . S
H1002 C987 0.961 . S
H1003 C987 0.961 . S
H1004 C988 0.931 . S
H1005 C993 0.930 . S
H1006 C994 0.956 . S
H1007 C994 0.961 . S
H1008 C994 0.961 . S
H1009 C995 0.958 . S
H1010 C995 0.961 . S
H1011 C995 0.960 . S
C245 C125 1.577 . S
C253 C168 1.609 1_545 S
C285 C191 1.636 . S
C277 C144 1.529 . S
C317 C214 1.656 . S
C309 C87 1.564 . S
C349 C241 1.528 . S
C341 C106 1.452 . S
C381 C169 1.589 . S
C373 C49 1.544 1_546 S
C405 C68 1.447 . S
C413 C192 1.526 . S
C437 C11 1.444 . S
C445 C215 1.519 . S
C469 C30 1.613 1_556 S
C477 C240 1.617 . S
C509 C170 0.520 . S
C501 C97 0.496 . S
C541 C193 0.492 . S
C533 C116 0.612 . S
C573 C216 0.555 . S
C565 C135 0.584 . S
C597 C78 0.753 . S
C605 C242 0.646 . S
C629 C21 0.720 . S
C637 C173 0.794 . S
C669 C196 0.725 . S
C661 C40 0.805 1_566 S
C701 C219 0.749 . S
C693 C59 0.652 . S
C725 C2 0.624 . S
C733 C239 0.499 . S
C757 C101 1.569 . S
C765 C171 1.574 . S
C789 C120 1.576 . S
C797 C194 1.528 . S
C829 C217 1.561 . S
C821 C139 1.547 . S
C861 C238 1.399 . S
C853 C82 1.384 . S
C885 C25 1.576 1_655 S
C893 C172 1.556 . S
C925 C195 1.490 . S
C917 C44 1.560 1_545 S
C957 C218 1.465 . S
C949 C63 1.561 . S
C981 C6 1.718 . S
C989 C237 1.749 . S
