# Generated by pormake.
# Topology pyr, (3,6)-cn, num edge types: 1
# Building blocks:
#     Node 0, Type 0, BuildingBlock: QEWDON_clean_linker_0, # of connection points: 3
#     Node 1, Type 0, BuildingBlock: QEWDON_clean_linker_0, # of connection points: 3
#     Node 2, Type 0, BuildingBlock: QEWDON_clean_linker_0, # of connection points: 3
#     Node 3, Type 0, BuildingBlock: QEWDON_clean_linker_0, # of connection points: 3
#     Node 4, Type 0, BuildingBlock: QEWDON_clean_linker_0, # of connection points: 3
#     Node 5, Type 0, BuildingBlock: QEWDON_clean_linker_0, # of connection points: 3
#     Node 6, Type 0, BuildingBlock: QEWDON_clean_linker_0, # of connection points: 3
#     Node 7, Type 0, BuildingBlock: QEWDON_clean_linker_0, # of connection points: 3
#     Node 8, Type 1, BuildingBlock: INOVEN_clean_sbu_0, # of connection points: 6
#     Node 9, Type 1, BuildingBlock: INOVEN_clean_sbu_0, # of connection points: 6
#     Node 10, Type 1, BuildingBlock: INOVEN_clean_sbu_0, # of connection points: 6
#     Node 11, Type 1, BuildingBlock: INOVEN_clean_sbu_0, # of connection points: 6
#     Edge 12, Type (0, 1), BuildingBlock: MIFKUJ_clean_linker_0, # of connection points: 2
#     Edge 13, Type (0, 1), BuildingBlock: MIFKUJ_clean_linker_0, # of connection points: 2
#     Edge 14, Type (0, 1), BuildingBlock: MIFKUJ_clean_linker_0, # of connection points: 2
#     Edge 15, Type (0, 1), BuildingBlock: MIFKUJ_clean_linker_0, # of connection points: 2
#     Edge 16, Type (0, 1), BuildingBlock: MIFKUJ_clean_linker_0, # of connection points: 2
#     Edge 17, Type (0, 1), BuildingBlock: MIFKUJ_clean_linker_0, # of connection points: 2
#     Edge 18, Type (0, 1), BuildingBlock: MIFKUJ_clean_linker_0, # of connection points: 2
#     Edge 19, Type (0, 1), BuildingBlock: MIFKUJ_clean_linker_0, # of connection points: 2
#     Edge 20, Type (0, 1), BuildingBlock: MIFKUJ_clean_linker_0, # of connection points: 2
#     Edge 21, Type (0, 1), BuildingBlock: MIFKUJ_clean_linker_0, # of connection points: 2
#     Edge 22, Type (0, 1), BuildingBlock: MIFKUJ_clean_linker_0, # of connection points: 2
#     Edge 23, Type (0, 1), BuildingBlock: MIFKUJ_clean_linker_0, # of connection points: 2
#     Edge 24, Type (0, 1), BuildingBlock: MIFKUJ_clean_linker_0, # of connection points: 2
#     Edge 25, Type (0, 1), BuildingBlock: MIFKUJ_clean_linker_0, # of connection points: 2
#     Edge 26, Type (0, 1), BuildingBlock: MIFKUJ_clean_linker_0, # of connection points: 2
#     Edge 27, Type (0, 1), BuildingBlock: MIFKUJ_clean_linker_0, # of connection points: 2
#     Edge 28, Type (0, 1), BuildingBlock: MIFKUJ_clean_linker_0, # of connection points: 2
#     Edge 29, Type (0, 1), BuildingBlock: MIFKUJ_clean_linker_0, # of connection points: 2
#     Edge 30, Type (0, 1), BuildingBlock: MIFKUJ_clean_linker_0, # of connection points: 2
#     Edge 31, Type (0, 1), BuildingBlock: MIFKUJ_clean_linker_0, # of connection points: 2
#     Edge 32, Type (0, 1), BuildingBlock: MIFKUJ_clean_linker_0, # of connection points: 2
#     Edge 33, Type (0, 1), BuildingBlock: MIFKUJ_clean_linker_0, # of connection points: 2
#     Edge 34, Type (0, 1), BuildingBlock: MIFKUJ_clean_linker_0, # of connection points: 2
#     Edge 35, Type (0, 1), BuildingBlock: MIFKUJ_clean_linker_0, # of connection points: 2
# Relax obj value: 0.140
# Max RMSD: 0.267
# Mean RMSD: 0.197
data_MOF--net-pyr--node1-INOVEN_clean_sbu_0--node2-QEWDON_clean_linker_0--edge1-MIFKUJ_clean_linker_0
_symmetry_space_group_name_H-M    P1
_symmetry_Int_Tables_number       1
_symmetry_cell_setting            triclinic
loop_
_symmetry_equiv_pos_as_xyz
'x, y, z'
_cell_length_a     49.252977
_cell_length_b     52.597174
_cell_length_c     50.141561
_cell_angle_alpha  91.736185
_cell_angle_beta   89.551122
_cell_angle_gamma 107.64738
loop_
_atom_site_label
_atom_site_type_symbol
_atom_site_fract_x
_atom_site_fract_y
_atom_site_fract_z
_atom_type_partial_charge
H0 H 0.3865 0.3187 0.19561 0.0
C1 C 0.37156 0.31235 0.21185 0.0
C2 C 0.3673 0.28707 0.22265 0.0
C3 C 0.35601 0.32922 0.22129 0.0
H4 H 0.34421 0.25968 0.25215 0.0
C5 C 0.34745 0.27895 0.24336 0.0
C6 C 0.33153 0.29541 0.25278 0.0
C7 C 0.33577 0.32043 0.24157 0.0
C8 C 0.36121 0.35616 0.21025 0.0
H9 H 0.32389 0.33338 0.24922 0.0
C10 C 0.33829 0.36566 0.20392 0.0
C11 C 0.34321 0.39137 0.19387 0.0
C12 C 0.38922 0.37268 0.20631 0.0
H13 H 0.40727 0.366 0.21124 0.0
C14 C 0.39421 0.39821 0.19643 0.0
H15 H 0.31662 0.35304 0.20682 0.0
C16 C 0.37142 0.40756 0.19028 0.0
H17 H 0.37585 0.42732 0.1823 0.0
H18 H 0.41586 0.4108 0.19352 0.0
H19 H 0.24273 0.88917 0.73103 0.0
C20 C 0.25391 0.87696 0.72065 0.0
C21 C 0.28275 0.88058 0.72625 0.0
C22 C 0.23923 0.85732 0.70197 0.0
H23 H 0.31896 0.86695 0.71703 0.0
C24 C 0.29692 0.8648 0.71232 0.0
C25 C 0.28248 0.84524 0.6934 0.0
C26 C 0.25347 0.8414 0.68854 0.0
C27 C 0.20897 0.85358 0.69633 0.0
H28 H 0.24207 0.8264 0.67395 0.0
C29 C 0.2009 0.87398 0.68449 0.0
C30 C 0.17212 0.87067 0.67893 0.0
C31 C 0.18814 0.82969 0.7026 0.0
H32 H 0.1941 0.81371 0.71167 0.0
C33 C 0.15942 0.82648 0.69753 0.0
H34 H 0.21705 0.89238 0.6795 0.0
C35 C 0.15137 0.84689 0.68583 0.0
H36 H 0.12905 0.84392 0.68169 0.0
H37 H 0.14338 0.8081 0.70256 0.0
H38 H 0.69702 0.44598 0.8904 0.0
C39 C 0.68918 0.42553 0.89676 0.0
C40 C 0.70532 0.41595 0.91489 0.0
C41 C 0.6618 0.40954 0.88877 0.0
H42 H 0.70649 0.3823 0.93799 0.0
C43 C 0.69426 0.38969 0.92394 0.0
C44 C 0.66713 0.3733 0.91605 0.0
C45 C 0.65113 0.38345 0.89844 0.0
C46 C 0.64223 0.42113 0.87417 0.0
H47 H 0.62993 0.3712 0.89263 0.0
C48 C 0.64904 0.43336 0.84912 0.0
C49 C 0.62933 0.44381 0.83634 0.0
C50 C 0.61589 0.41987 0.88603 0.0
H51 H 0.61022 0.41089 0.90526 0.0
C52 C 0.59672 0.43039 0.87353 0.0
H53 H 0.66918 0.43448 0.83962 0.0
C54 C 0.60334 0.44225 0.84891 0.0
H55 H 0.58799 0.45017 0.83949 0.0
H56 H 0.57658 0.42932 0.88298 0.0
H57 H 0.89564 0.77889 0.36705 0.0
C58 C 0.87897 0.76475 0.37798 0.0
C59 C 0.8733 0.7706 0.40466 0.0
C60 C 0.86255 0.74125 0.36474 0.0
H61 H 0.84553 0.75699 0.43816 0.0
C62 C 0.85104 0.75211 0.4181 0.0
C63 C 0.83433 0.72836 0.40526 0.0
C64 C 0.84041 0.72306 0.37849 0.0
C65 C 0.86503 0.73872 0.33535 0.0
H66 H 0.82726 0.70536 0.36797 0.0
C67 C 0.87915 0.72181 0.3229 0.0
C68 C 0.88276 0.7219 0.29488 0.0
C69 C 0.85399 0.75489 0.31961 0.0
H70 H 0.84311 0.76799 0.32881 0.0
C71 C 0.85707 0.75457 0.29198 0.0
H72 H 0.88801 0.70945 0.33489 0.0
C73 C 0.8715 0.73836 0.2797 0.0
H74 H 0.8739 0.73865 0.25819 0.0
H75 H 0.8485 0.76715 0.28005 0.0
H76 H 0.72774 0.79633 0.92451 0.0
C77 C 0.73767 0.8091 0.90836 0.0
C78 C 0.7652 0.8099 0.89999 0.0
C79 C 0.72321 0.82532 0.89662 0.0
H80 H 0.79907 0.82746 0.87243 0.0
C81 C 0.77818 0.82718 0.87964 0.0
C82 C 0.7643 0.84371 0.8679 0.0
C83 C 0.73671 0.84257 0.87632 0.0
C84 C 0.6941 0.82419 0.9058 0.0
H85 H 0.72583 0.85514 0.86712 0.0
C86 C 0.68653 0.84774 0.9105 0.0
C87 C 0.65929 0.84664 0.92038 0.0
C88 C 0.67387 0.79942 0.91052 0.0
H89 H 0.67893 0.78097 0.90675 0.0
C90 C 0.64686 0.79814 0.92006 0.0
H91 H 0.702 0.86688 0.90677 0.0
C92 C 0.63964 0.82149 0.92514 0.0
H93 H 0.61877 0.81976 0.93333 0.0
H94 H 0.63152 0.77895 0.9238 0.0
H95 H 0.76783 0.20513 0.52244 0.0
C96 C 0.75832 0.20399 0.50284 0.0
C97 C 0.76846 0.19164 0.48143 0.0
C98 C 0.73656 0.2156 0.49918 0.0
H99 H 0.76389 0.18122 0.43947 0.0
C100 C 0.75677 0.19137 0.45596 0.0
C101 C 0.73533 0.20341 0.45172 0.0
C102 C 0.72526 0.21543 0.4735 0.0
C103 C 0.72592 0.22796 0.52234 0.0
H104 H 0.70863 0.22463 0.47051 0.0
C105 C 0.72188 0.25316 0.52043 0.0
C106 C 0.71261 0.26528 0.54263 0.0
C107 C 0.72044 0.21485 0.54673 0.0
H108 H 0.72314 0.1953 0.54869 0.0
C109 C 0.71117 0.22674 0.56879 0.0
H110 H 0.72669 0.26364 0.50187 0.0
C111 C 0.70729 0.2518 0.56682 0.0
H112 H 0.69969 0.26044 0.58412 0.0
H113 H 0.70689 0.21644 0.58745 0.0
H114 H 0.42775 0.78938 0.24088 0.0
C115 C 0.4062 0.77879 0.23452 0.0
C116 C 0.39115 0.79162 0.21865 0.0
C117 C 0.39422 0.75198 0.24147 0.0
H118 H 0.35175 0.78697 0.19805 0.0
C119 C 0.36338 0.77719 0.21025 0.0
C120 C 0.35106 0.75002 0.21628 0.0
C121 C 0.36671 0.73775 0.23232 0.0
C122 C 0.41286 0.73764 0.25323 0.0
H123 H 0.35844 0.71666 0.23622 0.0
C124 C 0.40898 0.72746 0.27931 0.0
C125 C 0.42739 0.71373 0.28914 0.0
C126 C 0.4352 0.73417 0.23745 0.0
H127 H 0.43857 0.7418 0.21746 0.0
C128 C 0.45326 0.72068 0.24707 0.0
H129 H 0.39188 0.73012 0.29171 0.0
C130 C 0.44941 0.71052 0.27262 0.0
H131 H 0.46401 0.70038 0.27967 0.0
H132 H 0.47038 0.71812 0.23467 0.0
H133 H 0.22576 0.45138 0.75423 0.0
C134 C 0.21474 0.43375 0.74237 0.0
C135 C 0.22339 0.43071 0.71585 0.0
C136 C 0.19273 0.41344 0.75402 0.0
H137 H 0.21645 0.40428 0.68101 0.0
C138 C 0.20951 0.40713 0.70114 0.0
C139 C 0.18744 0.38671 0.71241 0.0
C140 C 0.17904 0.39021 0.73876 0.0
C141 C 0.18653 0.4142 0.78307 0.0
H142 H 0.16266 0.37423 0.74794 0.0
C143 C 0.17643 0.4342 0.79532 0.0
C144 C 0.16861 0.43257 0.82258 0.0
C145 C 0.1897 0.39346 0.79859 0.0
H146 H 0.1976 0.37803 0.78973 0.0
C147 C 0.18264 0.39225 0.82556 0.0
H148 H 0.17361 0.45017 0.78357 0.0
C149 C 0.17196 0.4115 0.83744 0.0
H150 H 0.16622 0.40994 0.85837 0.0
H151 H 0.18514 0.37614 0.83724 0.0
Gd152 Gd 0.04228 0.09021 0.52811 0.0
Gd153 Gd 0.02922 0.06734 0.58387 0.0
C154 C 0.0638 0.12871 0.58077 0.0
C155 C 0.0487 0.11754 0.48526 0.0
C156 C 0.07231 0.13691 0.47167 0.0
C157 C 0.09958 0.13372 0.47061 0.0
C158 C 0.06737 0.15841 0.45886 0.0
C159 C 0.11631 0.17248 0.44267 0.0
C160 C 0.08918 0.1761 0.44456 0.0
C161 C 0.1213 0.15122 0.45614 0.0
C162 C 0.08137 0.06901 0.54803 0.0
C163 C 1.00656 0.02905 0.53119 0.0
C164 C 0.0238 0.03992 0.62661 0.0
C165 C 1.00028 0.02129 0.64084 0.0
C166 C 0.97198 0.02053 0.63624 0.0
C167 C 1.00622 1.00519 0.66028 0.0
C168 C 0.95589 0.98915 0.67201 0.0
C169 C 0.98422 0.98915 0.67566 0.0
C170 C 0.94997 1.00465 0.65175 0.0
C171 C 0.9901 0.08854 0.5646 0.0
O172 O 0.05485 0.12702 0.55574 0.0
O173 O 0.06122 0.10695 0.5944 0.0
O174 O 0.04993 0.09306 0.48572 0.0
O175 O 0.04023 0.12558 0.5079 0.0
O176 O 0.07585 0.06884 0.52283 0.0
O177 O 0.06815 0.08241 0.56063 0.0
O178 O 0.01537 0.0306 0.55626 0.0
O179 O 1.01001 0.05082 0.51734 0.0
O180 O 0.02316 0.06459 0.62646 0.0
O181 O 0.03075 0.03151 0.60349 0.0
O182 O 0.99516 0.08772 0.5898 0.0
O183 O 1.00315 0.07534 0.55142 0.0
H184 H 0.10397 0.11735 0.4805 0.0
H185 H 0.04651 0.1613 0.45963 0.0
H186 H 0.0847 0.1925 0.43485 0.0
H187 H 0.14175 0.14753 0.45486 0.0
H188 H 0.96702 0.03283 0.62121 0.0
H189 H 0.02795 1.0054 0.66389 0.0
H190 H 0.98948 0.97702 0.69067 0.0
H191 H 0.9285 1.00534 0.64851 0.0
Gd192 Gd 0.56421 0.09421 0.08209 0.0
Gd193 Gd 0.50718 0.07184 0.05924 0.0
C194 C 0.51127 0.11039 0.10838 0.0
C195 C 0.61096 0.12454 0.10337 0.0
C196 C 0.61868 0.13528 0.13055 0.0
C197 C 0.60198 0.12348 0.15228 0.0
C198 C 0.64273 0.15741 0.13494 0.0
C199 C 0.63406 0.15526 0.18288 0.0
C200 C 0.65036 0.16738 0.16089 0.0
C201 C 0.60966 0.13328 0.17821 0.0
C202 C 0.53435 0.04647 0.10258 0.0
C203 C 0.56016 0.05529 0.03288 0.0
C204 C 0.45943 0.04202 0.03942 0.0
C205 C 0.44836 0.03142 1.01294 0.0
C206 C 0.45747 0.04629 0.99 0.0
C207 C 0.42808 1.00621 1.01061 0.0
C208 C 0.42496 1.01125 0.96271 0.0
C209 C 0.41653 0.99615 0.98572 0.0
C210 C 0.44578 0.03635 0.96512 0.0
C211 C 0.53674 0.11984 0.03919 0.0
O212 O 0.53876 0.11837 0.10292 0.0
O213 O 0.49457 0.08821 0.09733 0.0
O214 O 0.60513 0.09869 0.10028 0.0
O215 O 0.59287 0.13385 0.09105 0.0
O216 O 0.56142 0.05366 0.09788 0.0
O217 O 0.52454 0.06535 0.09775 0.0
O218 O 0.53246 0.04811 0.03748 0.0
O219 O 0.57737 0.07673 0.04484 0.0
O220 O 0.46544 0.06781 0.04331 0.0
O221 O 0.47853 0.03237 0.04948 0.0
O222 O 0.50971 0.1125 0.0441 0.0
O223 O 0.54675 0.10095 0.04356 0.0
H224 H 0.58317 0.10644 0.14921 0.0
H225 H 0.65567 0.16691 0.11832 0.0
H226 H 0.66899 0.18459 0.16372 0.0
H227 H 0.59683 0.12321 0.19462 0.0
H228 H 0.47331 0.06576 0.99136 0.0
H229 H 0.42102 0.99439 0.02809 0.0
H230 H 0.40099 0.97652 0.98452 0.0
H231 H 0.45259 0.04861 0.94789 0.0
Gd232 Gd 0.52869 0.56221 0.54694 0.0
Gd233 Gd 0.53218 0.60816 0.58423 0.0
C234 C 0.55678 0.56375 0.60631 0.0
C235 C 0.53988 0.52599 0.51689 0.0
C236 C 0.56004 0.51053 0.51839 0.0
C237 C 0.55276 0.48475 0.50699 0.0
C238 C 0.58624 0.52103 0.53166 0.0
C239 C 0.59783 0.47995 0.5219 0.0
C240 C 0.60502 0.50589 0.53335 0.0
C241 C 0.57144 0.46955 0.50877 0.0
C242 C 0.47957 0.5583 0.57328 0.0
C243 C 0.50357 0.60634 0.52516 0.0
C244 C 0.52237 0.64503 0.61446 0.0
C245 C 0.50172 0.66004 0.61481 0.0
C246 C 0.50825 0.68467 0.62861 0.0
C247 C 0.47538 0.64987 0.60173 0.0
C248 C 0.46193 0.68871 0.61693 0.0
C249 C 0.45559 0.66408 0.60285 0.0
C250 C 0.48853 0.69893 0.62966 0.0
C251 C 0.58091 0.61175 0.5571 0.0
O252 O 0.55466 0.55411 0.58142 0.0
O253 O 0.5471 0.58379 0.61317 0.0
O254 O 0.51948 0.52058 0.53464 0.0
O255 O 0.55114 0.55158 0.51337 0.0
O256 O 0.48081 0.55066 0.54856 0.0
O257 O 0.5043 0.56658 0.58318 0.0
O258 O 0.50516 0.61552 0.55021 0.0
O259 O 0.51401 0.58683 0.51809 0.0
O260 O 0.54091 0.65012 0.59502 0.0
O261 O 0.51194 0.61955 0.61897 0.0
O262 O 0.58029 0.6194 0.58188 0.0
O263 O 0.55599 0.60378 0.54783 0.0
H264 H 0.53249 0.47629 0.49692 0.0
H265 H 0.59216 0.54091 0.54075 0.0
H266 H 0.6252 0.51456 0.54346 0.0
H267 H 0.56494 0.44944 0.50026 0.0
H268 H 0.5285 0.69274 0.63881 0.0
H269 H 0.47005 0.63088 0.59086 0.0
H270 H 0.43537 0.65584 0.59266 0.0
H271 H 0.49386 0.71768 0.64095 0.0
Gd272 Gd 0.03209 0.55436 0.0685 0.0
Gd273 Gd 0.03152 0.60804 0.05001 0.0
C274 C 0.08595 0.60758 0.08332 0.0
C275 C 0.04578 0.51137 0.0759 0.0
C276 C 0.06957 0.50341 0.08689 0.0
C277 C 0.08014 0.51119 0.11279 0.0
C278 C 0.08193 0.48756 0.07093 0.0
C279 C 0.11458 0.48656 0.10679 0.0
C280 C 0.10424 0.47929 0.08071 0.0
C281 C 0.10242 0.50279 0.12266 0.0
C282 C 1.00493 0.57982 0.10183 0.0
C283 C 0.97716 0.55552 0.03661 0.0
C284 C 0.01859 0.6507 0.03917 0.0
C285 C 0.99458 0.65769 0.02727 0.0
C286 C 0.9999 0.67495 1.0058 0.0
C287 C 0.96666 0.6479 0.03716 0.0
C288 C 0.9501 0.67385 1.00509 0.0
C289 C 0.94464 0.65596 0.02621 0.0
C290 C 0.97791 0.6828 0.99471 0.0
C291 C 0.05814 0.58169 0.01687 0.0
O292 O 0.07612 0.58116 0.08116 0.0
O293 O 0.07113 0.62285 0.07473 0.0
O294 O 0.02998 0.5203 0.09262 0.0
O295 O 0.05122 0.52467 0.05386 0.0
O296 O 0.99659 0.55413 0.09735 0.0
O297 O 0.02787 0.59048 0.08958 0.0
O298 O 0.98636 0.58174 0.04063 0.0
O299 O 0.99295 0.54031 0.04295 0.0
O300 O 0.03316 0.63987 0.02298 0.0
O301 O 0.01447 0.63984 0.0626 0.0
O302 O 0.06736 0.60725 0.02172 0.0
O303 O 0.03504 0.57174 0.029 0.0
H304 H 0.07112 0.52359 0.12547 0.0
H305 H 0.07429 0.48153 0.0508 0.0
H306 H 0.11349 0.46731 0.06773 0.0
H307 H 0.10975 0.5086 0.14289 0.0
H308 H 0.0212 0.68257 0.9977 0.0
H309 H 0.96189 0.63434 0.05359 0.0
H310 H 0.92356 0.64877 0.0348 0.0
H311 H 0.9828 0.69603 0.97802 0.0
H312 H 0.27596 0.29469 0.25328 0.0
H313 H 0.24034 0.27734 0.28782 0.0
H314 H 0.30411 0.25887 0.33556 0.0
H315 H 0.33946 0.27534 0.30057 0.0
H316 H 0.25875 0.219 0.33554 0.0
H317 H 0.27693 0.31279 0.35077 0.0
H318 H 0.28208 0.3592 0.339 0.0
H319 H 0.19441 0.33625 0.31456 0.0
H320 H 0.18883 0.28961 0.32583 0.0
H321 H 0.17389 0.19113 0.45237 0.0
H322 H 0.21127 0.21549 0.42212 0.0
H323 H 0.14764 0.21831 0.36471 0.0
H324 H 0.11011 0.19311 0.3943 0.0
H325 H 0.1936 0.26736 0.37164 0.0
H326 H 0.17748 0.1728 0.35515 0.0
H327 H 0.17326 0.12699 0.36839 0.0
H328 H 0.25935 0.15316 0.39748 0.0
H329 H 0.26393 0.19924 0.38477 0.0
C330 C 0.28236 0.28715 0.27129 0.0
C331 C 0.31039 0.28632 0.27432 0.0
C332 C 0.26205 0.27735 0.29107 0.0
C333 C 0.26958 0.26711 0.31453 0.0
C334 C 0.29774 0.26663 0.31767 0.0
C335 C 0.31792 0.27603 0.29771 0.0
C336 C 0.24785 0.25574 0.3352 0.0
C337 C 0.2449 0.22985 0.34373 0.0
C338 C 0.22931 0.26959 0.34561 0.0
C339 C 0.23254 0.29765 0.33893 0.0
C340 C 0.2588 0.3176 0.34271 0.0
C341 C 0.26179 0.34395 0.33615 0.0
C342 C 0.23861 0.35066 0.32598 0.0
C343 C 0.21236 0.33103 0.32241 0.0
C344 C 0.20926 0.30463 0.32891 0.0
C345 C 0.16778 0.19685 0.4333 0.0
C346 C 0.13894 0.18986 0.4257 0.0
C347 C 0.18918 0.21094 0.41614 0.0
C348 C 0.18216 0.21849 0.39116 0.0
C349 C 0.15344 0.21272 0.38398 0.0
C350 C 0.13201 0.19839 0.401 0.0
C351 C 0.20479 0.23088 0.37181 0.0
C352 C 0.20775 0.2568 0.36352 0.0
C353 C 0.2236 0.21724 0.36182 0.0
C354 C 0.22094 0.18951 0.36928 0.0
C355 C 0.19542 0.16883 0.36458 0.0
C356 C 0.19298 0.14281 0.37195 0.0
C357 C 0.21599 0.13718 0.38384 0.0
C358 C 0.24153 0.15755 0.38831 0.0
C359 C 0.24406 0.18362 0.38102 0.0
H360 H 0.21406 0.11702 0.38953 0.0
H361 H 0.24097 0.37107 0.32091 0.0
H362 H 0.26267 0.88809 0.77578 0.0
H363 H 0.28875 0.91594 0.81269 0.0
H364 H 0.36299 0.94323 0.76264 0.0
H365 H 0.33692 0.91531 0.72551 0.0
H366 H 0.37655 0.9274 0.80933 0.0
H367 H 0.32484 0.98527 0.78157 0.0
H368 H 0.28261 0.99776 0.7683 0.0
H369 H 0.24487 0.97613 0.84506 0.0
H370 H 0.28671 0.96314 0.85868 0.0
H371 H 0.45059 1.01556 0.91352 0.0
H372 H 0.42824 0.99907 0.87045 0.0
H373 H 0.34724 0.96663 0.90951 0.0
H374 H 0.36904 0.98426 0.95238 0.0
H375 H 0.34064 0.98997 0.86489 0.0
H376 H 0.38997 0.92731 0.89021 0.0
H377 H 0.43226 0.9149 0.90358 0.0
H378 H 0.47455 0.94605 0.83101 0.0
H379 H 0.43259 0.9589 0.81734 0.0
C380 C 0.28434 0.90046 0.77244 0.0
C381 C 0.29774 0.89953 0.74774 0.0
C382 C 0.29925 0.91636 0.79357 0.0
C383 C 0.32776 0.93184 0.79035 0.0
C384 C 0.34102 0.93141 0.76554 0.0
C385 C 0.32612 0.91545 0.7444 0.0
C386 C 0.34411 0.94707 0.81344 0.0
C387 C 0.369 0.9415 0.82118 0.0
C388 C 0.33402 0.96511 0.82913 0.0
C389 C 0.30885 0.97305 0.82107 0.0
C390 C 0.30745 0.98299 0.79556 0.0
C391 C 0.28359 0.9902 0.78798 0.0
C392 C 0.26105 0.9877 0.80581 0.0
C393 C 0.26235 0.97805 0.83127 0.0
C394 C 0.28615 0.9708 0.83894 0.0
C395 C 0.42795 1.00521 0.91291 0.0
C396 C 0.41165 1.00109 0.93646 0.0
C397 C 0.41526 0.99558 0.8883 0.0
C398 C 0.38614 0.98132 0.88681 0.0
C399 C 0.36976 0.97752 0.9102 0.0
C400 C 0.38235 0.98732 0.93475 0.0
C401 C 0.37265 0.96983 0.86106 0.0
C402 C 0.34834 0.97613 0.85282 0.0
C403 C 0.38326 0.95245 0.8449 0.0
C404 C 0.40827 0.94429 0.85289 0.0
C405 C 0.40835 0.93163 0.87718 0.0
C406 C 0.43225 0.92451 0.8848 0.0
C407 C 0.45611 0.92975 0.86819 0.0
C408 C 0.45607 0.94203 0.84387 0.0
C409 C 0.43223 0.94921 0.83616 0.0
H410 H 0.4746 0.92425 0.87414 0.0
H411 H 0.24259 0.99328 0.7999 0.0
H412 H 0.6458 0.49668 0.82625 0.0
H413 H 0.64009 0.51698 0.78412 0.0
H414 H 0.6151 0.43924 0.74496 0.0
H415 H 0.62129 0.41899 0.78717 0.0
H416 H 0.64538 0.47927 0.7105 0.0
H417 H 0.56529 0.46319 0.77006 0.0
H418 H 0.5419 0.46613 0.81321 0.0
H419 H 0.56907 0.55165 0.81009 0.0
H420 H 0.59307 0.54923 0.76712 0.0
H421 H 0.5655 0.51437 0.60551 0.0
H422 H 0.58308 0.49346 0.64187 0.0
H423 H 0.59578 0.56505 0.6908 0.0
H424 H 0.57708 0.58542 0.6551 0.0
H425 H 0.572 0.52602 0.71951 0.0
H426 H 0.65217 0.54269 0.65974 0.0
H427 H 0.67636 0.53998 0.61696 0.0
H428 H 0.64981 0.45446 0.62001 0.0
H429 H 0.62514 0.45665 0.66264 0.0
C430 C 0.64028 0.4841 0.80837 0.0
C431 C 0.63446 0.45634 0.80985 0.0
C432 C 0.63671 0.49566 0.78434 0.0
C433 C 0.62669 0.47964 0.76134 0.0
C434 C 0.62288 0.45207 0.76232 0.0
C435 C 0.62658 0.4405 0.78641 0.0
C436 C 0.61707 0.49121 0.73756 0.0
C437 C 0.62917 0.48931 0.71237 0.0
C438 C 0.59607 0.50455 0.73991 0.0
C439 C 0.58118 0.50603 0.76549 0.0
C440 C 0.56641 0.48262 0.77865 0.0
C441 C 0.55305 0.4842 0.80308 0.0
C442 C 0.55405 0.50906 0.81441 0.0
C443 C 0.56835 0.53241 0.8013 0.0
C444 C 0.58182 0.53094 0.7769 0.0
C445 C 0.57226 0.52572 0.62395 0.0
C446 C 0.56972 0.55158 0.62736 0.0
C447 C 0.58251 0.51377 0.64477 0.0
C448 C 0.59113 0.52764 0.66927 0.0
C449 C 0.5892 0.55371 0.67231 0.0
C450 C 0.57853 0.56543 0.65176 0.0
C451 C 0.6008 0.51485 0.69228 0.0
C452 C 0.58841 0.51623 0.71745 0.0
C453 C 0.62159 0.50117 0.68981 0.0
C454 C 0.6366 0.49983 0.66428 0.0
C455 C 0.65134 0.5233 0.65121 0.0
C456 C 0.66517 0.52186 0.627 0.0
C457 C 0.66461 0.49707 0.61577 0.0
C458 C 0.65023 0.47366 0.62873 0.0
C459 C 0.63635 0.47499 0.65293 0.0
H460 H 0.67535 0.49601 0.59704 0.0
H461 H 0.5437 0.51024 0.83333 0.0
H462 H 0.86906 0.66744 0.2899 0.0
H463 H 0.89049 0.64181 0.25903 0.0
H464 H 0.9535 0.71477 0.23641 0.0
H465 H 0.93145 0.74027 0.26646 0.0
H466 H 0.9324 0.68807 0.19371 0.0
H467 H 0.9686 0.66466 0.27529 0.0
H468 H 0.96545 0.64723 0.3207 0.0
H469 H 0.91187 0.57099 0.2918 0.0
H470 H 0.91441 0.58807 0.24626 0.0
H471 H 0.02386 0.63241 0.11783 0.0
H472 H 1.00374 0.65515 0.15248 0.0
H473 H 0.93776 0.58154 0.16724 0.0
H474 H 0.95795 0.55867 0.13266 0.0
H475 H 0.9593 0.60713 0.21377 0.0
H476 H 0.92241 0.63035 0.13289 0.0
H477 H 0.9254 0.64713 0.08726 0.0
H478 H 0.9804 0.72328 0.11486 0.0
H479 H 0.97781 0.70688 0.16071 0.0
C480 C 0.88792 0.67781 0.2788 0.0
C481 C 0.89877 0.70577 0.28069 0.0
C482 C 0.90018 0.6632 0.2611 0.0
C483 C 0.9238 0.67626 0.24529 0.0
C484 C 0.93527 0.70413 0.24816 0.0
C485 C 0.92283 0.7187 0.26552 0.0
C486 C 0.93554 0.66138 0.22455 0.0
C487 C 0.93867 0.67062 0.19831 0.0
C488 C 0.94295 0.63804 0.23007 0.0
C489 C 0.94147 0.62773 0.25742 0.0
C490 C 0.95597 0.64424 0.27866 0.0
C491 C 0.95433 0.63441 0.30441 0.0
C492 C 0.93841 0.60804 0.30914 0.0
C493 C 0.92416 0.59142 0.28811 0.0
C494 C 0.92572 0.60115 0.26232 0.0
C495 C 1.00498 0.62111 0.12835 0.0
C496 C 0.9924 0.59378 0.12241 0.0
C497 C 0.99346 0.63413 0.14817 0.0
C498 C 0.96904 0.62015 0.1624 0.0
C499 C 0.9566 0.59278 0.1566 0.0
C500 C 0.96808 0.57976 0.13674 0.0
C501 C 0.95648 0.63413 0.18322 0.0
C502 C 0.95308 0.62465 0.20933 0.0
C503 C 0.94879 0.65725 0.17764 0.0
C504 C 0.95011 0.66732 0.15018 0.0
C505 C 0.93527 0.65063 0.1292 0.0
C506 C 0.93687 0.66008 0.1033 0.0
C507 C 0.95319 0.68622 0.09812 0.0
C508 C 0.9678 0.70302 0.11889 0.0
C509 C 0.96621 0.69368 0.14486 0.0
H510 H 0.95445 0.69348 0.07804 0.0
H511 H 0.93716 0.60047 0.32909 0.0
H512 H 0.34717 0.23299 0.21351 0.0
H513 H 0.3735 0.20317 0.19704 0.0
H514 H 0.44954 0.27018 0.19075 0.0
H515 H 0.42352 0.30018 0.20783 0.0
H516 H 0.43956 0.23642 0.14588 0.0
H517 H 0.44342 0.22931 0.24106 0.0
H518 H 0.4232 0.22167 0.28632 0.0
H519 H 0.37389 0.14209 0.26236 0.0
H520 H 0.39351 0.14939 0.21683 0.0
H521 H 0.53617 0.16229 0.12442 0.0
H522 H 0.51319 0.19224 0.14685 0.0
H523 H 0.43516 0.12731 0.15262 0.0
H524 H 0.45789 0.09723 0.13003 0.0
H525 H 0.4471 0.16045 0.19856 0.0
H526 H 0.44355 0.16643 0.10406 0.0
H527 H 0.46273 0.17336 0.05845 0.0
H528 H 0.50802 0.25483 0.07938 0.0
H529 H 0.49065 0.24798 0.12561 0.0
C530 C 0.36959 0.2414 0.20897 0.0
C531 C 0.38327 0.26899 0.21218 0.0
C532 C 0.38457 0.22432 0.19945 0.0
C533 C 0.41353 0.23444 0.19293 0.0
C534 C 0.42719 0.26199 0.19568 0.0
C535 C 0.41225 0.2791 0.20533 0.0
C536 C 0.42946 0.21626 0.18305 0.0
C537 C 0.44168 0.22009 0.15754 0.0
C538 C 0.43141 0.1945 0.19804 0.0
C539 C 0.41974 0.18999 0.22547 0.0
C540 C 0.4281 0.21025 0.24538 0.0
C541 C 0.41677 0.20597 0.2711 0.0
C542 C 0.39722 0.18143 0.27719 0.0
C543 C 0.38901 0.1611 0.2576 0.0
C544 C 0.40025 0.16529 0.23185 0.0
C545 C 0.51427 0.15425 0.13086 0.0
C546 C 0.49875 0.12744 0.12525 0.0
C547 C 0.50117 0.17142 0.1436 0.0
C548 C 0.47241 0.16202 0.15108 0.0
C549 C 0.45736 0.13493 0.14693 0.0
C550 C 0.47035 0.11781 0.13394 0.0
C551 C 0.45745 0.18078 0.16148 0.0
C552 C 0.44526 0.17695 0.18698 0.0
C553 C 0.45535 0.20243 0.14637 0.0
C554 C 0.4662 0.20652 0.11856 0.0
C555 C 0.45814 0.18567 0.09916 0.0
C556 C 0.46877 0.18957 0.07317 0.0
C557 C 0.48696 0.21443 0.06611 0.0
C558 C 0.49444 0.23545 0.08501 0.0
C559 C 0.48429 0.23153 0.11115 0.0
H560 H 0.49507 0.21747 0.04595 0.0
H561 H 0.38847 0.17815 0.29711 0.0
H562 H 0.19429 0.89497 0.63317 0.0
H563 H 0.18094 0.92992 0.61049 0.0
H564 H 0.11896 0.92953 0.672 0.0
H565 H 0.13157 0.89375 0.69413 0.0
H566 H 0.0966 0.93215 0.62674 0.0
H567 H 0.18517 0.97994 0.66773 0.0
H568 H 0.23602 0.99013 0.67921 0.0
H569 H 0.25848 1.00118 0.59651 0.0
H570 H 0.20771 0.99067 0.58449 0.0
H571 H 0.08753 0.06336 0.60104 0.0
H572 H 0.10504 0.03007 0.62229 0.0
H573 H 0.12482 1.00199 0.54508 0.0
H574 H 0.10623 0.03466 0.5235 0.0
H575 H 0.16889 1.01487 0.59767 0.0
H576 H 0.07694 0.96193 0.55853 0.0
H577 H 0.02555 0.95239 0.55014 0.0
H578 H 1.00998 0.95427 0.63446 0.0
H579 H 0.06146 0.96418 0.64331 0.0
C580 C 0.17789 0.90247 0.64184 0.0
C581 C 0.164 0.89184 0.6654 0.0
C582 C 0.17037 0.92251 0.62897 0.0
C583 C 0.14931 0.93275 0.63979 0.0
C584 C 0.1353 0.92199 0.66329 0.0
C585 C 0.14248 0.9016 0.67592 0.0
C586 C 0.14138 0.95418 0.62623 0.0
C587 C 0.11249 0.95031 0.62069 0.0
C588 C 0.16203 0.97786 0.61802 0.0
C589 C 0.1926 0.98426 0.62518 0.0
C590 C 0.20093 0.98434 0.65197 0.0
C591 C 0.22975 0.9902 0.65857 0.0
C592 C 0.25046 0.99623 0.63859 0.0
C593 C 0.24241 0.99647 0.61197 0.0
C594 C 0.21362 0.99058 0.60524 0.0
C595 C 0.09573 0.05018 0.58858 0.0
C596 C 0.09523 0.05128 0.56064 0.0
C597 C 0.10575 0.03128 0.60074 0.0
C598 C 0.11599 1.01363 0.58516 0.0
C599 C 0.1169 1.01552 0.55732 0.0
C600 C 0.10633 0.03412 0.54508 0.0
C601 C 0.12443 0.99244 0.59812 0.0
C602 C 0.15327 0.99654 0.6037 0.0
C603 C 0.10379 0.9692 0.60681 0.0
C604 C 0.07302 0.96409 0.60155 0.0
C605 C 0.0626 0.96071 0.57526 0.0
C606 C 0.03345 0.95517 0.57043 0.0
C607 C 0.0145 0.9529 0.59177 0.0
C608 C 0.0247 0.9562 0.61797 0.0
C609 C 0.05385 0.96173 0.6229 0.0
H610 H 0.9919 0.94839 0.58804 0.0
H611 H 0.27275 1.00077 0.64375 0.0
H612 H 0.75118 0.44925 0.88858 0.0
H613 H 0.79733 0.47552 0.9078 0.0
H614 H 0.7667 0.4497 0.9863 0.0
H615 H 0.7211 0.42324 0.96724 0.0
H616 H 0.8167 0.51593 0.94379 0.0
H617 H 0.81788 0.43781 0.0225 0.0
H618 H 0.79875 0.38919 0.02823 0.0
H619 H 0.79583 0.37622 0.9432 0.0
H620 H 0.81533 0.4247 0.93697 0.0
H621 H 0.93066 0.57399 0.03562 0.0
H622 H 0.88449 0.55265 1.0142 0.0
H623 H 0.91514 0.48835 0.98481 0.0
H624 H 0.96045 0.50877 1.00753 0.0
H625 H 0.8658 0.46739 1.00005 0.0
H626 H 0.90608 0.54295 0.94501 0.0
H627 H 0.92763 0.59072 0.93604 0.0
H628 H 0.85294 0.60745 0.9665 0.0
H629 H 0.83108 0.5598 0.97598 0.0
C630 C 0.7543 0.44937 0.90995 0.0
C631 C 0.73267 0.43372 0.92631 0.0
C632 C 0.78065 0.46443 0.92094 0.0
C633 C 0.78581 0.46423 0.94849 0.0
C634 C 0.76363 0.44972 0.96493 0.0
C635 C 0.73753 0.43453 0.95398 0.0
C636 C 0.81461 0.47797 0.96008 0.0
C637 C 0.8275 0.50533 0.95605 0.0
C638 C 0.82907 0.46416 0.97575 0.0
C639 C 0.81781 0.43491 0.9793 0.0
C640 C 0.81328 0.42457 1.00504 0.0
C641 C 0.80236 0.39704 1.00837 0.0
C642 C 0.796 0.37964 0.9861 0.0
C643 C 0.80067 0.38972 0.96044 0.0
C644 C 0.81164 0.41723 0.957 0.0
C645 C 0.92746 0.55528 0.02461 0.0
C646 C 0.94918 0.54301 0.02339 0.0
C647 C 0.90109 0.54315 1.01212 0.0
C648 C 0.89618 0.51895 0.99737 0.0
C649 C 0.91808 0.5069 0.99606 0.0
C650 C 0.9441 0.51863 1.00908 0.0
C651 C 0.86814 0.50556 0.98397 0.0
C652 C 0.85523 0.47815 0.98774 0.0
C653 C 0.85414 0.51925 0.96753 0.0
C654 C 0.86704 0.54783 0.9614 0.0
C655 C 0.8943 0.55683 0.9499 0.0
C656 C 0.90657 0.58389 0.94473 0.0
C657 C 0.89169 0.60212 0.95075 0.0
C658 C 0.86445 0.5933 0.96187 0.0
C659 C 0.8521 0.56627 0.96712 0.0
H660 H 0.90124 0.62306 0.94676 0.0
H661 H 0.7875 0.35834 0.98872 0.0
H662 H 0.7808 0.70387 0.38496 0.0
H663 H 0.73818 0.67898 0.40907 0.0
H664 H 0.78716 0.68892 0.48164 0.0
H665 H 0.83015 0.71309 0.45744 0.0
H666 H 0.74836 0.6397 0.47854 0.0
H667 H 0.7479 0.73014 0.46881 0.0
H668 H 0.75013 0.77066 0.4443 0.0
H669 H 0.67578 0.72738 0.39933 0.0
H670 H 0.67335 0.68647 0.42333 0.0
H671 H 0.63625 0.62847 0.57392 0.0
H672 H 0.67925 0.64302 0.54634 0.0
H673 H 0.62739 0.62555 0.47525 0.0
H674 H 0.58438 0.61067 0.50271 0.0
H675 H 0.66682 0.67652 0.47632 0.0
H676 H 0.66588 0.58646 0.48818 0.0
H677 H 0.6632 0.54658 0.51391 0.0
H678 H 0.7395 0.58964 0.55626 0.0
H679 H 0.7425 0.62991 0.53092 0.0
C680 C 0.78272 0.70026 0.4059 0.0
C681 C 0.80898 0.71068 0.41925 0.0
C682 C 0.75821 0.68622 0.41975 0.0
C683 C 0.75929 0.68242 0.44732 0.0
C684 C 0.7857 0.69167 0.46043 0.0
C685 C 0.81024 0.70569 0.44659 0.0
C686 C 0.73269 0.67024 0.46272 0.0
C687 C 0.73064 0.6479 0.47823 0.0
C688 C 0.70928 0.6806 0.46206 0.0
C689 C 0.71063 0.70518 0.44766 0.0
C690 C 0.73216 0.72921 0.45355 0.0
C691 C 0.73344 0.75226 0.43977 0.0
C692 C 0.71315 0.75158 0.42021 0.0
C693 C 0.6915 0.72786 0.41445 0.0
C694 C 0.69016 0.70475 0.42814 0.0
C695 C 0.63407 0.62747 0.5524 0.0
C696 C 0.60698 0.61855 0.54047 0.0
C697 C 0.65864 0.63572 0.53666 0.0
C698 C 0.65656 0.63536 0.50871 0.0
C699 C 0.62951 0.62602 0.49676 0.0
C700 C 0.60497 0.61746 0.51248 0.0
C701 C 0.68248 0.64599 0.49206 0.0
C702 C 0.68444 0.66816 0.47643 0.0
C703 C 0.70577 0.63553 0.49274 0.0
C704 C 0.70427 0.61129 0.50782 0.0
C705 C 0.68198 0.5875 0.50312 0.0
C706 C 0.68041 0.5648 0.51761 0.0
C707 C 0.70109 0.5656 0.5368 0.0
C708 C 0.72347 0.58907 0.54142 0.0
C709 C 0.72515 0.61182 0.52696 0.0
H710 H 0.69981 0.54802 0.54803 0.0
H711 H 0.71417 0.76944 0.40957 0.0
H712 H 0.2948 0.36435 0.16647 0.0
H713 H 0.25572 0.38103 0.15336 0.0
H714 H 0.29803 0.45726 0.19149 0.0
H715 H 0.33699 0.44053 0.2051 0.0
H716 H 0.24038 0.44034 0.20199 0.0
H717 H 0.30173 0.45077 0.1258 0.0
H718 H 0.32981 0.43629 0.09088 0.0
H719 H 0.2539 0.37858 0.06051 0.0
H720 H 0.22541 0.39245 0.09552 0.0
H721 H 0.16025 0.51414 0.13793 0.0
H722 H 0.19855 0.49812 0.15453 0.0
H723 H 0.1598 0.4214 0.11584 0.0
H724 H 0.12127 0.43705 0.09956 0.0
H725 H 0.21644 0.43967 0.10597 0.0
H726 H 0.15509 0.42894 0.18236 0.0
H727 H 0.12698 0.44332 0.21732 0.0
H728 H 0.20271 0.5016 0.24727 0.0
H729 H 0.23123 0.48782 0.21222 0.0
C730 C 0.29562 0.38456 0.17233 0.0
C731 C 0.31902 0.40117 0.18672 0.0
C732 C 0.2734 0.39412 0.16466 0.0
C733 C 0.27415 0.42047 0.17121 0.0
C734 C 0.2971 0.43689 0.18616 0.0
C735 C 0.31942 0.42738 0.19373 0.0
C736 C 0.25125 0.43102 0.16197 0.0
C737 C 0.23536 0.44054 0.18099 0.0
C738 C 0.24442 0.43081 0.13458 0.0
C739 C 0.26148 0.42247 0.11346 0.0
C740 C 0.29106 0.43483 0.11182 0.0
C741 C 0.30704 0.42677 0.09198 0.0
C742 C 0.29366 0.40648 0.07353 0.0
C743 C 0.26425 0.39426 0.07484 0.0
C744 C 0.24816 0.40223 0.09467 0.0
C745 C 0.15969 0.49375 0.13323 0.0
C746 C 0.13771 0.47691 0.11735 0.0
C747 C 0.18163 0.48465 0.14268 0.0
C748 C 0.18194 0.45852 0.13651 0.0
C749 C 0.16004 0.44167 0.12073 0.0
C750 C 0.13809 0.45071 0.11135 0.0
C751 C 0.20537 0.44881 0.146 0.0
C752 C 0.22143 0.4395 0.12699 0.0
C753 C 0.21233 0.44923 0.17338 0.0
C754 C 0.19524 0.45754 0.19448 0.0
C755 C 0.16571 0.44499 0.19625 0.0
C756 C 0.14971 0.45299 0.21611 0.0
C757 C 0.16303 0.47341 0.23446 0.0
C758 C 0.19241 0.48582 0.23302 0.0
C759 C 0.20851 0.4779 0.21317 0.0
H760 H 0.15061 0.47957 0.24983 0.0
H761 H 0.30607 0.40027 0.05818 0.0
H762 H 0.69296 0.33432 0.92277 0.0
H763 H 0.67329 0.29113 0.94392 0.0
H764 H 0.59405 0.30833 0.95757 0.0
H765 H 0.61359 0.35152 0.93655 0.0
H766 H 0.61352 0.28908 1.00255 0.0
H767 H 0.59864 0.26511 0.90873 0.0
H768 H 0.61387 0.2629 0.86198 0.0
H769 H 0.67086 0.2198 0.88518 0.0
H770 H 0.65623 0.22208 0.93216 0.0
H771 H 0.51784 0.16282 0.03302 0.0
H772 H 0.54276 0.20542 1.01308 0.0
H773 H 0.61605 0.17833 0.99853 0.0
H774 H 0.59106 0.13547 0.01867 0.0
H775 H 0.60374 0.20261 0.95516 0.0
H776 H 0.6154 0.22123 0.04752 0.0
H777 H 0.60286 0.22402 0.0949 0.0
H778 H 0.55747 0.27933 0.07683 0.0
H779 H 0.56805 0.27555 0.02907 0.0
C780 C 0.67132 0.32888 0.93023 0.0
C781 C 0.65482 0.34638 0.9278 0.0
C782 C 0.66006 0.30411 0.94223 0.0
C783 C 0.6321 0.29634 0.95228 0.0
C784 C 0.61564 0.31381 0.94996 0.0
C785 C 0.62677 0.33843 0.93771 0.0
C786 C 0.62003 0.27019 0.96548 0.0
C787 C 0.61097 0.27014 0.99211 0.0
C788 C 0.61785 0.24548 0.95222 0.0
C789 C 0.62657 0.24402 0.92399 0.0
C790 C 0.61459 0.25536 0.9039 0.0
C791 C 0.62308 0.25406 0.87735 0.0
C792 C 0.64338 0.24129 0.87062 0.0
C793 C 0.65517 0.22973 0.89043 0.0
C794 C 0.64678 0.231 0.91701 0.0
C795 C 0.53928 0.16591 0.0256 0.0
C796 C 0.55246 0.14574 0.02736 0.0
C797 C 0.55357 0.19036 1.01428 0.0
C798 C 0.58142 0.19528 1.00438 0.0
C799 C 0.5946 0.17507 1.00599 0.0
C800 C 0.58035 0.15062 0.01757 0.0
C801 C 0.59644 0.2214 0.99215 0.0
C802 C 0.60622 0.22149 0.96572 0.0
C803 C 0.59957 0.24618 1.00576 0.0
C804 C 0.59218 0.24775 0.03448 0.0
C805 C 0.60214 0.2335 0.05348 0.0
C806 C 0.59531 0.2352 0.08045 0.0
C807 C 0.57905 0.25158 0.08884 0.0
C808 C 0.56962 0.26628 0.07026 0.0
C809 C 0.57591 0.26425 0.04319 0.0
H810 H 0.57395 0.25303 0.10975 0.0
H811 H 0.64993 0.24029 0.85006 0.0
H812 H 0.89062 0.78099 0.45703 0.0
H813 H 0.9134 0.82435 0.47898 0.0
H814 H 0.9147 0.86315 0.40429 0.0
H815 H 0.89124 0.8201 0.38232 0.0
H816 H 0.96572 0.88274 0.43201 0.0
H817 H 0.86536 0.86442 0.44955 0.0
H818 H 0.81827 0.83751 0.46562 0.0
H819 H 0.85227 0.83945 0.54451 0.0
H820 H 0.8997 0.86604 0.52881 0.0
H821 H 0.99367 1.01663 0.47834 0.0
H822 H 0.97144 0.97253 0.45772 0.0
H823 H 0.96452 0.93706 0.53491 0.0
H824 H 0.98605 0.98127 0.5557 0.0
H825 H 0.91712 0.91498 0.50685 0.0
H826 H 0.01667 0.93328 0.49089 0.0
H827 H 0.06452 0.95938 0.47592 0.0
H828 H 0.03356 0.9564 0.3957 0.0
H829 H 0.98537 0.93062 0.41028 0.0
C830 C 0.89558 0.79872 0.44524 0.0
C831 C 0.88895 0.79686 0.41783 0.0
C832 C 0.90872 0.82353 0.45784 0.0
C833 C 0.91559 0.84707 0.44334 0.0
C834 C 0.90971 0.84527 0.41588 0.0
C835 C 0.8964 0.82052 0.40331 0.0
C836 C 0.92835 0.87365 0.45684 0.0
C837 C 0.95494 0.88993 0.44816 0.0
C838 C 0.9147 0.88277 0.47842 0.0
C839 C 0.88614 0.86698 0.48794 0.0
C840 C 0.86285 0.85893 0.47028 0.0
C841 C 0.83609 0.84376 0.47933 0.0
C842 C 0.8323 0.83671 0.50605 0.0
C843 C 0.85525 0.84489 0.52381 0.0
C844 C 0.88207 0.86002 0.51485 0.0
C845 C 0.9873 0.99948 0.49097 0.0
C846 C 0.99202 1.00244 0.51868 0.0
C847 C 0.97473 0.97421 0.47911 0.0
C848 C 0.96671 0.9513 0.49465 0.0
C849 C 0.97064 0.95434 0.52242 0.0
C850 C 0.98317 0.97961 0.53428 0.0
C851 C 0.95446 0.92423 0.48191 0.0
C852 C 0.92797 0.90782 0.49074 0.0
C853 C 0.96835 0.91488 0.46063 0.0
C854 C 0.99734 0.93023 0.45173 0.0
C855 C 0.02 0.93836 0.47009 0.0
C856 C 0.0472 0.95307 0.46167 0.0
C857 C 0.05206 0.9596 0.43489 0.0
C858 C 0.02975 0.95136 0.41645 0.0
C859 C 1.00249 0.93668 0.42478 0.0
H860 H 0.07314 0.97099 0.4284 0.0
H861 H 0.81156 0.82497 0.51302 0.0
H862 H 0.26385 0.79117 0.68498 0.0
H863 H 0.29074 0.76281 0.66586 0.0
H864 H 0.36231 0.83252 0.65224 0.0
H865 H 0.33533 0.86104 0.67083 0.0
H866 H 0.35408 0.79506 0.61071 0.0
H867 H 0.36162 0.79886 0.70645 0.0
H868 H 0.34316 0.79474 0.75249 0.0
H869 H 0.29962 0.71161 0.73723 0.0
H870 H 0.31749 0.71535 0.69093 0.0
H871 H 0.47085 0.74223 0.6121 0.0
H872 H 0.43641 0.76682 0.61942 0.0
H873 H 0.3705 0.69299 0.63367 0.0
H874 H 0.405 0.66835 0.62703 0.0
H875 H 0.37264 0.73019 0.67244 0.0
H876 H 0.37011 0.72619 0.57704 0.0
H877 H 0.39034 0.73138 0.53168 0.0
H878 H 0.42641 0.81571 0.54667 0.0
H879 H 0.40675 0.81098 0.59228 0.0
C880 C 0.2851 0.80047 0.67741 0.0
C881 C 0.29762 0.82827 0.6796 0.0
C882 C 0.30046 0.78426 0.66664 0.0
C883 C 0.32859 0.7956 0.65794 0.0
C884 C 0.34064 0.82342 0.65889 0.0
C885 C 0.32532 0.83963 0.66973 0.0
C886 C 0.34619 0.77842 0.64976 0.0
C887 C 0.35832 0.78096 0.6242 0.0
C888 C 0.35127 0.75979 0.6673 0.0
C889 C 0.3406 0.75746 0.69515 0.0
C890 C 0.3479 0.77976 0.71285 0.0
C891 C 0.33759 0.77748 0.73899 0.0
C892 C 0.32015 0.75295 0.74776 0.0
C893 C 0.31307 0.73062 0.7304 0.0
C894 C 0.32329 0.7328 0.70421 0.0
C895 C 0.449 0.73124 0.61671 0.0
C896 C 0.44063 0.70338 0.6191 0.0
C897 C 0.42929 0.74527 0.62061 0.0
C898 C 0.40087 0.73167 0.62686 0.0
C899 C 0.39232 0.70381 0.62874 0.0
C900 C 0.412 0.68976 0.62479 0.0
C901 C 0.38062 0.74674 0.63332 0.0
C902 C 0.36811 0.74395 0.65872 0.0
C903 C 0.3754 0.76523 0.61567 0.0
C904 C 0.38713 0.76819 0.58817 0.0
C905 C 0.38254 0.74582 0.57074 0.0
C906 C 0.39387 0.74868 0.54497 0.0
C907 C 0.40969 0.77385 0.53631 0.0
C908 C 0.41416 0.79622 0.5534 0.0
C909 C 0.40289 0.79346 0.57921 0.0
H910 H 0.41845 0.77602 0.51635 0.0
H911 H 0.3122 0.75122 0.76801 0.0
H912 H 0.81824 0.8777 0.86953 0.0
H913 H 0.84471 0.90473 0.83363 0.0
H914 H 0.77061 0.87818 0.78277 0.0
H915 H 0.74394 0.85072 0.81882 0.0
H916 H 0.81924 0.87343 0.7582 0.0
H917 H 0.79132 0.94131 0.80523 0.0
H918 H 0.78407 0.96794 0.84443 0.0
H919 H 0.87421 0.99471 0.85916 0.0
H920 H 0.88198 0.96792 0.82028 0.0
H921 H 0.90031 0.96111 0.65965 0.0
H922 H 0.86235 0.93873 0.6904 0.0
H923 H 0.92173 0.96061 0.75611 0.0
H924 H 0.9593 0.98401 0.72584 0.0
H925 H 0.87327 0.96946 0.7694 0.0
H926 H 0.9002 0.89672 0.7269 0.0
H927 H 0.90799 0.86928 0.68855 0.0
H928 H 0.82011 0.85129 0.66599 0.0
H929 H 0.81189 0.87892 0.70405 0.0
C930 C 0.80751 0.87779 0.85076 0.0
C931 C 0.77909 0.86207 0.84689 0.0
C932 C 0.82259 0.89336 0.83033 0.0
C933 C 0.80957 0.89361 0.80559 0.0
C934 C 0.78099 0.87832 0.80176 0.0
C935 C 0.76576 0.86282 0.82236 0.0
C936 C 0.82662 0.90872 0.78349 0.0
C937 C 0.83057 0.89458 0.76035 0.0
C938 C 0.84174 0.93618 0.78654 0.0
C939 C 0.8372 0.95246 0.8099 0.0
C940 C 0.80958 0.95272 0.81693 0.0
C941 C 0.80538 0.96787 0.83908 0.0
C942 C 0.82866 0.98298 0.8543 0.0
C943 C 0.85619 0.983 0.84736 0.0
C944 C 0.86051 0.96787 0.82523 0.0
C945 C 0.90524 0.9613 0.68067 0.0
C946 C 0.93294 0.97427 0.69023 0.0
C947 C 0.88356 0.9483 0.69819 0.0
C948 C 0.88923 0.9478 0.72555 0.0
C949 C 0.91683 0.96071 0.73509 0.0
C950 C 0.93842 0.97381 0.71767 0.0
C951 C 0.86661 0.934 0.74449 0.0
C952 C 0.86158 0.94842 0.76703 0.0
C953 C 0.8506 0.90679 0.74093 0.0
C954 C 0.85552 0.89014 0.71811 0.0
C955 C 0.8826 0.88709 0.71364 0.0
C956 C 0.88708 0.87147 0.69198 0.0
C957 C 0.86458 0.85863 0.67479 0.0
C958 C 0.83753 0.8613 0.67928 0.0
C959 C 0.83294 0.87692 0.7009 0.0
H960 H 0.86809 0.84654 0.65804 0.0
H961 H 0.82536 0.99469 0.87144 0.0
H962 H 0.67935 0.19365 0.43756 0.0
H963 H 0.65964 0.19037 0.3925 0.0
H964 H 0.74427 0.20788 0.35951 0.0
H965 H 0.76419 0.2122 0.40446 0.0
H966 H 0.71357 0.23299 0.33297 0.0
H967 H 0.70051 0.14381 0.36271 0.0
H968 H 0.68376 0.10627 0.39314 0.0
H969 H 0.59733 0.10606 0.38205 0.0
H970 H 0.61362 0.14387 0.35182 0.0
H971 H 0.68817 0.17253 0.20337 0.0
H972 H 0.70249 0.18577 0.24946 0.0
H973 H 0.61455 0.17196 0.27167 0.0
H974 H 0.6 0.15936 0.22539 0.0
H975 H 0.64302 0.14729 0.30448 0.0
H976 H 0.65688 0.23412 0.27034 0.0
H977 H 0.67478 0.27071 0.23904 0.0
H978 H 0.76093 0.27445 0.25738 0.0
H979 H 0.74355 0.2376 0.28853 0.0
C980 C 0.6938 0.19725 0.42073 0.0
C981 C 0.72332 0.20294 0.42457 0.0
C982 C 0.68248 0.19516 0.39499 0.0
C983 C 0.70046 0.19849 0.37264 0.0
C984 C 0.72999 0.20512 0.37646 0.0
C985 C 0.74132 0.20731 0.40215 0.0
C986 C 0.68856 0.19396 0.34521 0.0
C987 C 0.69828 0.2142 0.32667 0.0
C988 C 0.66816 0.16963 0.33717 0.0
C989 C 0.65831 0.14686 0.35526 0.0
C990 C 0.67795 0.1359 0.36694 0.0
C991 C 0.66854 0.11455 0.38411 0.0
C992 C 0.63951 0.10384 0.38959 0.0
C993 C 0.61981 0.11441 0.37783 0.0
C994 C 0.62912 0.13579 0.36067 0.0
C995 C 0.67187 0.17285 0.21788 0.0
C996 C 0.64291 0.16484 0.21062 0.0
C997 C 0.68011 0.18034 0.24426 0.0
C998 C 0.65958 0.17997 0.26392 0.0
C999 C 0.6307 0.17233 0.25677 0.0
C1000 C 0.62244 0.165 0.23034 0.0
C1001 C 0.66828 0.1862 0.29217 0.0
C1002 C 0.658 0.16623 0.31085 0.0
C1003 C 0.68833 0.21068 0.30025 0.0
C1004 C 0.69889 0.23294 0.28162 0.0
C1005 C 0.67964 0.2426 0.26755 0.0
C1006 C 0.6897 0.26342 0.24986 0.0
C1007 C 0.71897 0.27486 0.24618 0.0
C1008 C 0.73826 0.26555 0.26024 0.0
C1009 C 0.72832 0.24472 0.27794 0.0
H1010 H 0.72672 0.29098 0.23248 0.0
H1011 H 0.63226 0.08731 0.40289 0.0
H1012 H 0.42694 0.73997 0.33741 0.0
H1013 H 0.43298 0.72384 0.3819 0.0
H1014 H 0.43007 0.64721 0.34671 0.0
H1015 H 0.42374 0.66312 0.30262 0.0
H1016 H 0.40348 0.64039 0.3936 0.0
H1017 H 0.4936 0.69625 0.36026 0.0
H1018 H 0.52669 0.7379 0.34356 0.0
H1019 H 0.51662 0.77955 0.41616 0.0
H1020 H 0.48313 0.73817 0.43314 0.0
H1021 H 0.48749 0.58657 0.47474 0.0
H1022 H 0.46791 0.60677 0.43946 0.0
H1023 H 0.47025 0.67376 0.49206 0.0
H1024 H 0.4898 0.65346 0.52782 0.0
H1025 H 0.49267 0.68924 0.44149 0.0
H1026 H 0.40764 0.63077 0.4772 0.0
H1027 H 0.37592 0.58834 0.49361 0.0
H1028 H 0.37714 0.55096 0.41647 0.0
H1029 H 0.40926 0.59308 0.39969 0.0
C1030 C 0.42679 0.71947 0.33935 0.0
C1031 C 0.42493 0.70283 0.31651 0.0
C1032 C 0.43057 0.71033 0.36474 0.0
C1033 C 0.43251 0.68437 0.36774 0.0
C1034 C 0.42876 0.66729 0.34509 0.0
C1035 C 0.42515 0.67642 0.31983 0.0
C1036 C 0.4403 0.67527 0.39386 0.0
C1037 C 0.42302 0.65108 0.404 0.0
C1038 C 0.46547 0.68939 0.40797 0.0
C1039 C 0.48559 0.71423 0.39781 0.0
C1040 C 0.49826 0.71435 0.37256 0.0
C1041 C 0.51712 0.73789 0.36307 0.0
C1042 C 0.52368 0.76138 0.37875 0.0
C1043 C 0.51146 0.76135 0.404 0.0
C1044 C 0.49254 0.73787 0.41357 0.0
C1045 C 0.48373 0.60553 0.47899 0.0
C1046 C 0.49027 0.61834 0.50423 0.0
C1047 C 0.47239 0.61704 0.45873 0.0
C1048 C 0.46738 0.64175 0.46304 0.0
C1049 C 0.47386 0.65466 0.48822 0.0
C1050 C 0.48493 0.64297 0.50869 0.0
C1051 C 0.45614 0.65413 0.44086 0.0
C1052 C 0.47283 0.67884 0.4314 0.0
C1053 C 0.43049 0.64043 0.42731 0.0
C1054 C 0.41104 0.61507 0.43724 0.0
C1055 C 0.40133 0.61346 0.46378 0.0
C1056 C 0.38324 0.58947 0.47314 0.0
C1057 C 0.37456 0.56696 0.4561 0.0
C1058 C 0.3839 0.56842 0.42965 0.0
C1059 C 0.40202 0.59236 0.42019 0.0
H1060 H 0.36056 0.5484 0.46339 0.0
H1061 H 0.5383 0.77959 0.37137 0.0
H1062 H 0.1153 0.42202 0.84271 0.0
H1063 H 0.0969 0.4505 0.87269 0.0
H1064 H 0.17567 0.51424 0.86507 0.0
H1065 H 0.19409 0.48557 0.83477 0.0
H1066 H 0.15997 0.50414 0.91776 0.0
H1067 H 0.11559 0.52003 0.83806 0.0
H1068 H 0.08712 0.50793 0.79679 0.0
H1069 H 0.01406 0.46527 0.84212 0.0
H1070 H 0.04221 0.47678 0.88365 0.0
H1071 H 0.10922 0.59949 0.99121 0.0
H1072 H 0.12821 0.57625 0.95603 0.0
H1073 H 0.05264 0.50847 0.96017 0.0
H1074 H 0.03369 0.53153 0.99555 0.0
H1075 H 0.06788 0.52309 0.90788 0.0
H1076 H 0.1113 0.50387 0.9864 0.0
H1077 H 0.13852 0.5143 0.02847 0.0
H1078 H 0.21203 0.5611 0.98624 0.0
H1079 H 0.18507 0.55127 0.94393 0.0
C1080 C 0.12836 0.44237 0.84687 0.0
C1081 C 0.15595 0.45176 0.83618 0.0
C1082 C 0.11787 0.45863 0.86406 0.0
C1083 C 0.13482 0.48461 0.87115 0.0
C1084 C 0.16216 0.49431 0.85988 0.0
C1085 C 0.17257 0.47807 0.84237 0.0
C1086 C 0.12449 0.50075 0.89158 0.0
C1087 C 0.14013 0.50877 0.91534 0.0
C1088 C 0.09811 0.50605 0.88891 0.0
C1089 C 0.0811 0.49909 0.86396 0.0
C1090 C 0.09352 0.50788 0.83922 0.0
C1091 C 0.07743 0.50116 0.81577 0.0
C1092 C 0.04882 0.48579 0.81683 0.0
C1093 C 0.03623 0.47715 0.84134 0.0
C1094 C 0.05224 0.4838 0.86484 0.0
C1095 C 0.09672 0.57959 0.98468 0.0
C1096 C 0.06999 0.56732 0.99615 0.0
C1097 C 0.1076 0.56631 0.9646 0.0
C1098 C 0.09188 0.54057 0.95544 0.0
C1099 C 0.06512 0.52833 0.96683 0.0
C1100 C 0.05438 0.54148 0.98714 0.0
C1101 C 0.10336 0.52644 0.93397 0.0
C1102 C 0.08788 0.51871 0.91014 0.0
C1103 C 0.12974 0.52118 0.93666 0.0
C1104 C 0.14606 0.52709 0.96203 0.0
C1105 C 0.13319 0.51659 0.98611 0.0
C1106 C 0.14858 0.52235 1.01 0.0
C1107 C 0.17696 0.53842 1.01004 0.0
C1108 C 0.19002 0.5487 0.98618 0.0
C1109 C 0.1747 0.54302 0.96223 0.0
H1110 H 0.18886 0.54286 0.02855 0.0
H1111 H 0.0364 0.48062 0.79865 0.0
H1112 H 0.69356 0.89476 0.94088 0.0
H1113 H 0.67978 0.9341 0.95403 0.0
H1114 H 0.59332 0.89378 0.92933 0.0
H1115 H 0.60737 0.85516 0.91417 0.0
H1116 H 0.60481 0.9432 0.91803 0.0
H1117 H 0.61673 0.89747 0.99641 0.0
H1118 H 0.64209 0.87714 0.02755 0.0
H1119 H 0.7063 0.95271 0.03979 0.0
H1120 H 0.68149 0.97343 1.00844 0.0
H1121 H 0.53099 1.01053 1.00395 0.0
H1122 H 0.55066 0.97923 0.97967 0.0
H1123 H 0.63581 0.02928 0.9982 0.0
H1124 H 0.61633 0.06064 0.02279 0.0
H1125 H 0.62771 0.9778 1.01092 0.0
H1126 H 0.60985 0.02363 0.93453 0.0
H1127 H 0.58059 0.04178 0.90535 0.0
H1128 H 0.52264 0.96311 0.8917 0.0
H1129 H 0.55136 0.94451 0.92108 0.0
C1130 C 0.67175 0.8944 0.9376 0.0
C1131 C 0.65154 0.87149 0.92672 0.0
C1132 C 0.66379 0.91686 0.94551 0.0
C1133 C 0.63531 0.91673 0.94335 0.0
C1134 C 0.61537 0.89436 0.93146 0.0
C1135 C 0.6234 0.87209 0.92312 0.0
C1136 C 0.62594 0.93929 0.95447 0.0
C1137 C 0.60966 0.95062 0.93841 0.0
C1138 C 0.63251 0.9493 0.98097 0.0
C1139 C 0.64743 0.93692 0.99986 0.0
C1140 C 0.63637 0.9097 1.0056 0.0
C1141 C 0.65063 0.89812 0.0233 0.0
C1142 C 0.67584 0.91361 0.03558 0.0
C1143 C 0.6868 0.94073 0.03023 0.0
C1144 C 0.67265 0.95241 1.01251 0.0
C1145 C 0.55392 1.01513 1.00256 0.0
C1146 C 0.57208 0.03808 0.01542 0.0
C1147 C 0.56514 0.99724 0.98854 0.0
C1148 C 0.59472 1.00197 0.98698 0.0
C1149 C 0.61292 0.02525 0.99912 0.0
C1150 C 0.60172 0.0432 1.0131 0.0
C1151 C 0.60656 0.98163 0.97453 0.0
C1152 C 0.6232 0.97062 0.99042 0.0
C1153 C 0.5998 0.97159 0.9481 0.0
C1154 C 0.58267 0.98271 0.93017 0.0
C1155 C 0.59078 1.01021 0.92545 0.0
C1156 C 0.5743 0.02058 0.90884 0.0
C1157 C 0.54974 1.00361 0.89672 0.0
C1158 C 0.54166 0.97622 0.90111 0.0
C1159 C 0.55806 0.96576 0.9177 0.0
H1160 H 0.53701 1.01168 0.88389 0.0
H1161 H 0.68684 0.9046 0.04928 0.0
H1162 H 0.77529 0.16313 0.52424 0.0
H1163 H 0.81535 0.14661 0.53364 0.0
H1164 H 0.85298 0.17417 0.45785 0.0
H1165 H 0.81361 0.19207 0.44869 0.0
H1166 H 0.85072 0.11746 0.47593 0.0
H1167 H 0.88253 0.21145 0.50076 0.0
H1168 H 0.87702 0.25214 0.52282 0.0
H1169 H 0.86834 0.21486 0.59874 0.0
H1170 H 0.87333 0.17377 0.57705 0.0
H1171 H 0.98188 0.09681 0.51237 0.0
H1172 H 0.94649 0.11559 0.49394 0.0
H1173 H 0.91412 0.12253 0.57326 0.0
H1174 H 0.95047 0.1052 0.59177 0.0
H1175 H 0.91646 0.16477 0.54842 0.0
H1176 H 0.88085 0.0707 0.52584 0.0
H1177 H 0.88319 0.02802 0.50577 0.0
H1178 H 0.8956 0.06239 0.42833 0.0
H1179 H 0.8937 0.1054 0.44801 0.0
C1180 C 0.79213 0.1659 0.5096 0.0
C1181 C 0.79142 0.1793 0.48587 0.0
C1182 C 0.81484 0.15621 0.51491 0.0
C1183 C 0.83702 0.15936 0.49647 0.0
C1184 C 0.83589 0.17156 0.47223 0.0
C1185 C 0.81335 0.18166 0.46703 0.0
C1186 C 0.86205 0.15115 0.5035 0.0
C1187 C 0.8655 0.12798 0.49141 0.0
C1188 C 0.88071 0.16467 0.52411 0.0
C1189 C 0.87804 0.18946 0.53725 0.0
C1190 C 0.87919 0.21185 0.52213 0.0
C1191 C 0.87621 0.235 0.53457 0.0
C1192 C 0.87226 0.23607 0.56216 0.0
C1193 C 0.87137 0.214 0.57737 0.0
C1194 C 0.8743 0.19079 0.56502 0.0
C1195 C 0.96725 0.1025 0.52581 0.0
C1196 C 0.96877 0.09959 0.55344 0.0
C1197 C 0.94693 0.11303 0.51527 0.0
C1198 C 0.92733 0.1201 0.53217 0.0
C1199 C 0.92902 0.11727 0.55982 0.0
C1200 C 0.94969 0.10727 0.57039 0.0
C1201 C 0.90504 0.13056 0.5213 0.0
C1202 C 0.90203 0.15427 0.53268 0.0
C1203 C 0.88654 0.11724 0.50032 0.0
C1204 C 0.88745 0.09134 0.48844 0.0
C1205 C 0.88427 0.0692 0.50456 0.0
C1206 C 0.88549 0.04495 0.49326 0.0
C1207 C 0.88963 0.04252 0.46581 0.0
C1208 C 0.89245 0.06432 0.4496 0.0
C1209 C 0.89128 0.08863 0.46081 0.0
H1210 H 0.89059 0.02373 0.4571 0.0
H1211 H 0.86996 0.25401 0.57175 0.0
H1212 H 0.30892 0.70743 0.23703 0.0
H1213 H 0.26397 0.68121 0.21602 0.0
H1214 H 0.28371 0.73069 0.14733 0.0
H1215 H 0.32925 0.75582 0.16705 0.0
H1216 H 0.22562 0.72131 0.17166 0.0
H1217 H 0.29226 0.67545 0.13903 0.0
H1218 H 0.32764 0.65149 0.14509 0.0
H1219 H 0.26658 0.5916 0.18925 0.0
H1220 H 0.23097 0.61547 0.18381 0.0
H1221 H 0.12226 0.65763 0.07623 0.0
H1222 H 0.16668 0.67976 0.09981 0.0
H1223 H 0.15595 0.60953 0.14613 0.0
H1224 H 0.11228 0.58673 0.12126 0.0
H1225 H 0.20835 0.62827 0.13741 0.0
H1226 H 0.14115 0.66968 0.17061 0.0
H1227 H 0.10416 0.69239 0.16895 0.0
H1228 H 0.16284 0.75885 0.13075 0.0
H1229 H 0.20009 0.73638 0.13183 0.0
C1230 C 0.30399 0.71262 0.21731 0.0
C1231 C 0.32299 0.73415 0.20405 0.0
C1232 C 0.27812 0.69766 0.20541 0.0
C1233 C 0.27043 0.70409 0.18015 0.0
C1234 C 0.28908 0.72554 0.16694 0.0
C1235 C 0.31512 0.74012 0.17851 0.0
C1236 C 0.24301 0.68856 0.16725 0.0
C1237 C 0.22186 0.70104 0.16395 0.0
C1238 C 0.2377 0.66178 0.15814 0.0
C1239 C 0.25908 0.64743 0.16131 0.0
C1240 C 0.28648 0.65733 0.15028 0.0
C1241 C 0.30655 0.64373 0.15355 0.0
C1242 C 0.2994 0.62009 0.16762 0.0
C1243 C 0.27212 0.60995 0.1784 0.0
C1244 C 0.25198 0.6235 0.17522 0.0
C1245 C 0.12942 0.64685 0.09137 0.0
C1246 C 0.11361 0.62049 0.09699 0.0
C1247 C 0.15479 0.65963 0.10508 0.0
C1248 C 0.16451 0.64676 0.12549 0.0
C1249 C 0.14903 0.62011 0.13067 0.0
C1250 C 0.12398 0.60706 0.11644 0.0
C1251 C 0.19074 0.6611 0.14128 0.0
C1252 C 0.21176 0.64845 0.14522 0.0
C1253 C 0.19563 0.68755 0.15168 0.0
C1254 C 0.17334 0.70123 0.1511 0.0
C1255 C 0.14612 0.68907 0.1617 0.0
C1256 C 0.12511 0.7019 0.16088 0.0
C1257 C 0.13113 0.72702 0.1497 0.0
C1258 C 0.1582 0.73938 0.13938 0.0
C1259 C 0.17928 0.72662 0.14011 0.0
H1260 H 0.11483 0.73692 0.14907 0.0
H1261 H 0.31496 0.60958 0.17012 0.0
H1262 H 0.22808 0.44993 0.66535 0.0
H1263 H 0.27111 0.47684 0.64315 0.0
H1264 H 0.31841 0.48382 0.71639 0.0
H1265 H 0.27535 0.45666 0.73877 0.0
H1266 H 0.33484 0.53128 0.68649 0.0
H1267 H 0.32071 0.4369 0.67282 0.0
H1268 H 0.29274 0.39085 0.65985 0.0
H1269 H 0.2837 0.41554 0.58041 0.0
H1270 H 0.31121 0.46185 0.59306 0.0
H1271 H 0.47375 0.5595 0.6277 0.0
H1272 H 0.42979 0.54253 0.65349 0.0
H1273 H 0.38133 0.5232 0.58034 0.0
H1274 H 0.42524 0.53945 0.55459 0.0
H1275 H 0.36549 0.48278 0.6114 0.0
H1276 H 0.38037 0.57636 0.62318 0.0
H1277 H 0.40778 0.6228 0.63494 0.0
H1278 H 0.4144 0.6013 0.71602 0.0
H1279 H 0.3876 0.55449 0.70458 0.0
C1280 C 0.24754 0.45743 0.67685 0.0
C1281 C 0.24831 0.45082 0.70377 0.0
C1282 C 0.27213 0.47289 0.66414 0.0
C1283 C 0.29813 0.48202 0.67798 0.0
C1284 C 0.29861 0.47698 0.7053 0.0
C1285 C 0.27393 0.46149 0.71808 0.0
C1286 C 0.32508 0.49453 0.66327 0.0
C1287 C 0.34176 0.52063 0.67026 0.0
C1288 C 0.33384 0.48083 0.64173 0.0
C1289 C 0.3178 0.45288 0.63395 0.0
C1290 C 0.31261 0.43254 0.65263 0.0
C1291 C 0.29685 0.40639 0.64534 0.0
C1292 C 0.2864 0.40028 0.61934 0.0
C1293 C 0.29178 0.4203 0.60056 0.0
C1294 C 0.30746 0.4465 0.60777 0.0
C1295 C 0.45366 0.55188 0.61717 0.0
C1296 C 0.45294 0.55066 0.58912 0.0
C1297 C 0.4285 0.54226 0.63192 0.0
C1298 C 0.40207 0.53163 0.61893 0.0
C1299 C 0.40137 0.53114 0.59089 0.0
C1300 C 0.42649 0.54053 0.57617 0.0
C1301 C 0.37533 0.51979 0.63432 0.0
C1302 C 0.35867 0.49363 0.62754 0.0
C1303 C 0.36656 0.53359 0.65584 0.0
C1304 C 0.3822 0.56183 0.66295 0.0
C1305 C 0.38784 0.58147 0.64348 0.0
C1306 C 0.40326 0.60788 0.65009 0.0
C1307 C 0.41285 0.61502 0.67621 0.0
C1308 C 0.40698 0.59574 0.69578 0.0
C1309 C 0.39168 0.56925 0.68924 0.0
H1310 H 0.4248 0.63549 0.68127 0.0
H1311 H 0.27419 0.38003 0.61373 0.0
H1312 H 0.74379 0.75776 0.91527 0.0
H1313 H 0.77029 0.72952 0.93343 0.0
H1314 H 0.84804 0.79501 0.93002 0.0
H1315 H 0.82179 0.82353 0.91277 0.0
H1316 H 0.85268 0.74753 0.90677 0.0
H1317 H 0.81735 0.77864 0.98795 0.0
H1318 H 0.77989 0.78475 0.0181 0.0
H1319 H 0.74193 0.6998 0.02047 0.0
H1320 H 0.77898 0.6932 0.99 0.0
H1321 H 0.95523 0.72431 0.9892 0.0
H1322 H 0.91872 0.74098 0.97044 0.0
H1323 H 0.85634 0.66395 0.97914 0.0
H1324 H 0.89316 0.64663 0.99728 0.0
H1325 H 0.83795 0.7091 0.99687 0.0
H1326 H 0.87666 0.67768 0.92033 0.0
H1327 H 0.91442 0.67141 0.89071 0.0
H1328 H 0.94539 0.75587 0.87905 0.0
H1329 H 0.9081 0.76272 0.909 0.0
C1330 C 0.76645 0.76628 0.91879 0.0
C1331 C 0.78068 0.79289 0.91233 0.0
C1332 C 0.78156 0.75006 0.92903 0.0
C1333 C 0.81113 0.76016 0.93291 0.0
C1334 C 0.82527 0.78676 0.9269 0.0
C1335 C 0.81021 0.803 0.91693 0.0
C1336 C 0.82776 0.74313 0.94277 0.0
C1337 C 0.84953 0.7392 0.9265 0.0
C1338 C 0.82294 0.73148 0.96813 0.0
C1339 C 0.8007 0.73544 0.98642 0.0
C1340 C 0.80085 0.76127 0.99468 0.0
C1341 C 0.77973 0.76482 1.01188 0.0
C1342 C 0.75848 0.74268 0.02112 0.0
C1343 C 0.75836 0.71693 1.01325 0.0
C1344 C 0.77942 0.71327 0.99602 0.0
C1345 C 0.9339 0.71068 0.9868 0.0
C1346 C 0.92731 0.68397 0.99441 0.0
C1347 C 0.91299 0.72034 0.97625 0.0
C1348 C 0.88493 0.70363 0.97319 0.0
C1349 C 0.87791 0.67714 0.98136 0.0
C1350 C 0.89897 0.66733 0.99177 0.0
C1351 C 0.86338 0.71424 0.96115 0.0
C1352 C 0.84072 0.71697 0.97694 0.0
C1353 C 0.86725 0.7247 0.93527 0.0
C1354 C 0.88967 0.72073 0.91709 0.0
C1355 C 0.89165 0.69495 0.91164 0.0
C1356 C 0.91296 0.69129 0.89475 0.0
C1357 C 0.93232 0.71323 0.88303 0.0
C1358 C 0.93038 0.73889 0.88815 0.0
C1359 C 0.90914 0.74267 0.90506 0.0
H1360 H 0.94879 0.71035 0.86996 0.0
H1361 H 0.74216 0.74547 0.03445 0.0
H1362 H 0.44639 0.81312 0.20181 0.0
H1363 H 0.46889 0.85718 0.18398 0.0
H1364 H 0.39048 0.87673 0.19418 0.0
H1365 H 0.36781 0.83268 0.2125 0.0
H1366 H 0.41373 0.8916 0.14574 0.0
H1367 H 0.44668 0.90381 0.23609 0.0
H1368 H 0.46858 0.89329 0.27668 0.0
H1369 H 0.54698 0.90244 0.23443 0.0
H1370 H 0.52541 0.91266 0.19345 0.0
H1371 H 0.47828 0.03 0.1182 0.0
H1372 H 0.45249 0.98797 0.13922 0.0
H1373 H 0.52839 0.96327 0.13553 0.0
H1374 H 0.55425 1.00535 0.11508 0.0
H1375 H 0.50433 0.95216 0.18246 0.0
H1376 H 0.47098 0.93849 0.09169 0.0
H1377 H 0.44907 0.94876 0.05095 0.0
H1378 H 0.37147 0.94211 0.09372 0.0
H1379 H 0.39309 0.93227 0.13485 0.0
C1380 C 0.43398 0.82689 0.2008 0.0
C1381 C 0.40524 0.81922 0.20889 0.0
C1382 C 0.4469 0.85214 0.19042 0.0
C1383 C 0.43153 0.87051 0.18788 0.0
C1384 C 0.40283 0.86296 0.19585 0.0
C1385 C 0.38987 0.83769 0.20632 0.0
C1386 C 0.44539 0.89737 0.17658 0.0
C1387 C 0.4333 0.90503 0.15404 0.0
C1388 C 0.47125 0.91479 0.18699 0.0
C1389 C 0.48434 0.90877 0.21163 0.0
C1390 C 0.46852 0.90338 0.23539 0.0
C1391 C 0.48089 0.89751 0.25848 0.0
C1392 C 0.50914 0.89713 0.25812 0.0
C1393 C 0.5251 0.90271 0.23468 0.0
C1394 C 0.51282 0.90857 0.21152 0.0
C1395 C 0.48942 1.01558 0.1219 0.0
C1396 C 0.51831 0.02101 0.11502 0.0
C1397 C 0.47463 0.99147 0.13381 0.0
C1398 C 0.48835 0.97218 0.13883 0.0
C1399 C 0.51725 0.97773 0.13198 0.0
C1400 C 0.53202 1.0018 0.1202 0.0
C1401 C 0.4729 0.9463 0.15138 0.0
C1402 C 0.48468 0.93882 0.17419 0.0
C1403 C 0.4468 0.92905 0.14117 0.0
C1404 C 0.43376 0.93492 0.11642 0.0
C1405 C 0.44933 0.93944 0.09247 0.0
C1406 C 0.43695 0.94516 0.0693 0.0
C1407 C 0.40891 0.94613 0.06976 0.0
C1408 C 0.39319 0.94139 0.0934 0.0
C1409 C 0.4055 0.93574 0.11664 0.0
H1410 H 0.39932 0.95045 0.05179 0.0
H1411 H 0.51867 0.89258 0.27602 0.0
H1412 H 0.13092 0.35792 0.70765 0.0
H1413 H 0.11019 0.31484 0.68432 0.0
H1414 H 0.19426 0.31378 0.66062 0.0
H1415 H 0.21494 0.35707 0.68335 0.0
H1416 H 0.16025 0.29576 0.62095 0.0
H1417 H 0.15647 0.27659 0.71389 0.0
H1418 H 0.14431 0.28097 0.76127 0.0
H1419 H 0.05531 0.25652 0.74138 0.0
H1420 H 0.06696 0.25234 0.69381 0.0
H1421 H 0.09209 0.1403 0.62863 0.0
H1422 H 0.11376 0.18418 0.64985 0.0
H1423 H 0.08671 0.22147 0.58387 0.0
H1424 H 0.06578 0.17772 0.56217 0.0
H1425 H 0.09371 0.22093 0.66875 0.0
H1426 H 0.13186 0.28322 0.57463 0.0
H1427 H 0.14831 0.27709 0.52895 0.0
H1428 H 0.17678 0.21218 0.55433 0.0
H1429 H 0.16087 0.21815 0.60021 0.0
C1430 C 0.14496 0.34849 0.69743 0.0
C1431 C 0.17458 0.36094 0.6974 0.0
C1432 C 0.1331 0.3238 0.68414 0.0
C1433 C 0.15063 0.3107 0.67097 0.0
C1434 C 0.18019 0.32338 0.67053 0.0
C1435 C 0.19201 0.34819 0.68354 0.0
C1436 C 0.13834 0.28368 0.65799 0.0
C1437 C 0.14565 0.27945 0.63142 0.0
C1438 C 0.1197 0.26206 0.67167 0.0
C1439 C 0.11261 0.2644 0.70027 0.0
C1440 C 0.13432 0.27232 0.7196 0.0
C1441 C 0.12752 0.27474 0.74649 0.0
C1442 C 0.09906 0.26909 0.75432 0.0
C1443 C 0.07734 0.26093 0.73528 0.0
C1444 C 0.08403 0.25851 0.70836 0.0
C1445 C 0.09088 0.15784 0.61853 0.0
C1446 C 0.07733 0.15542 0.59357 0.0
C1447 C 0.10321 0.18297 0.63076 0.0
C1448 C 0.10222 0.20632 0.61842 0.0
C1449 C 0.08836 0.20391 0.59363 0.0
C1450 C 0.07628 0.1788 0.58125 0.0
C1451 C 0.11541 0.23308 0.63163 0.0
C1452 C 0.10823 0.23727 0.65824 0.0
C1453 C 0.13479 0.25443 0.61822 0.0
C1454 C 0.1449 0.25098 0.59079 0.0
C1455 C 0.14175 0.26772 0.57048 0.0
C1456 C 0.15095 0.26426 0.54455 0.0
C1457 C 0.16349 0.2442 0.53872 0.0
C1458 C 0.16697 0.22765 0.55884 0.0
C1459 C 0.15784 0.23104 0.58481 0.0
H1460 H 0.17055 0.24152 0.51863 0.0
H1461 H 0.09384 0.27098 0.77514 0.0
H1462 H 0.72721 0.30733 0.57872 0.0
H1463 H 0.71658 0.34974 0.57629 0.0
H1464 H 0.67735 0.32547 0.49925 0.0
H1465 H 0.68766 0.28299 0.5016 0.0
H1466 H 0.71009 0.37849 0.50137 0.0
H1467 H 0.63727 0.3173 0.55445 0.0
H1468 H 0.62044 0.28747 0.59212 0.0
H1469 H 0.65766 0.35233 0.64757 0.0
H1470 H 0.67506 0.38247 0.61017 0.0
H1471 H 0.6092 0.44607 0.48404 0.0
H1472 H 0.63736 0.41568 0.48913 0.0
H1473 H 0.66024 0.447 0.56915 0.0
H1474 H 0.63043 0.4763 0.56481 0.0
H1475 H 0.64355 0.39562 0.5694 0.0
H1476 H 0.70975 0.45884 0.51671 0.0
H1477 H 0.7264 0.48904 0.47933 0.0
H1478 H 0.7031 0.42224 0.42377 0.0
H1479 H 0.68589 0.39165 0.46077 0.0
C1480 C 0.71632 0.31104 0.56127 0.0
C1481 C 0.70802 0.29172 0.54046 0.0
C1482 C 0.71043 0.33532 0.55985 0.0
C1483 C 0.69599 0.34059 0.53769 0.0
C1484 C 0.68864 0.32179 0.51646 0.0
C1485 C 0.69454 0.29754 0.51785 0.0
C1486 C 0.68669 0.3648 0.53728 0.0
C1487 C 0.69548 0.38229 0.51615 0.0
C1488 C 0.66839 0.37011 0.5571 0.0
C1489 C 0.65775 0.35203 0.57954 0.0
C1490 C 0.64205 0.32514 0.57468 0.0
C1491 C 0.63238 0.30819 0.59597 0.0
C1492 C 0.63806 0.31797 0.62222 0.0
C1493 C 0.65333 0.34476 0.62723 0.0
C1494 C 0.6631 0.36179 0.606 0.0
C1495 C 0.62015 0.44649 0.50277 0.0
C1496 C 0.61737 0.46348 0.5241 0.0
C1497 C 0.63667 0.42939 0.5055 0.0
C1498 C 0.65127 0.42931 0.52941 0.0
C1499 C 0.64926 0.44683 0.55048 0.0
C1500 C 0.63242 0.46373 0.54788 0.0
C1501 C 0.66639 0.40921 0.53309 0.0
C1502 C 0.65866 0.39235 0.55485 0.0
C1503 C 0.68579 0.40464 0.51391 0.0
C1504 C 0.69638 0.42294 0.49155 0.0
C1505 C 0.70801 0.45059 0.49651 0.0
C1506 C 0.71757 0.46779 0.47538 0.0
C1507 C 0.71578 0.45757 0.44919 0.0
C1508 C 0.70448 0.43013 0.44407 0.0
C1509 C 0.69486 0.41284 0.46513 0.0
H1510 H 0.72318 0.47092 0.43285 0.0
H1511 H 0.63055 0.30482 0.63868 0.0
loop_
_geom_bond_atom_site_label_1
_geom_bond_atom_site_label_2
_geom_bond_distance
_geom_bond_site_symmetry_2
_ccdc_geom_bond_type
H0 C1 0.949 . S
C1 H0 0.949 . S
C1 C2 1.395 . S
C1 C3 1.391 . S
C2 C1 1.395 . S
C2 C5 1.390 . S
C3 C1 1.391 . S
C3 C7 1.387 . S
C3 C8 1.491 . S
H4 C5 0.950 . S
C5 C2 1.390 . S
C5 H4 0.950 . S
C5 C6 1.378 . S
C6 C5 1.378 . S
C6 C7 1.409 . S
C7 C3 1.387 . S
C7 C6 1.409 . S
C7 H9 0.951 . S
C8 C3 1.491 . S
C8 C10 1.382 . S
C8 C12 1.404 . S
H9 C7 0.951 . S
C10 C8 1.382 . S
C10 C11 1.390 . S
C10 H15 0.949 . S
C11 C10 1.390 . S
C11 C16 1.399 . S
C12 C8 1.404 . S
C12 H13 0.950 . S
C12 C14 1.375 . S
H13 C12 0.950 . S
C14 C12 1.375 . S
C14 C16 1.382 . S
C14 H18 0.950 . S
H15 C10 0.949 . S
C16 C11 1.399 . S
C16 C14 1.382 . S
C16 H17 0.952 . S
H17 C16 0.952 . S
H18 C14 0.950 . S
H19 C20 0.949 . S
C20 H19 0.949 . S
C20 C21 1.395 . S
C20 C22 1.391 . S
C21 C20 1.395 . S
C21 C24 1.390 . S
C22 C20 1.391 . S
C22 C26 1.387 . S
C22 C27 1.491 . S
H23 C24 0.950 . S
C24 C21 1.390 . S
C24 H23 0.950 . S
C24 C25 1.378 . S
C25 C24 1.378 . S
C25 C26 1.409 . S
C26 C22 1.387 . S
C26 C25 1.409 . S
C26 H28 0.951 . S
C27 C22 1.491 . S
C27 C29 1.382 . S
C27 C31 1.404 . S
H28 C26 0.951 . S
C29 C27 1.382 . S
C29 C30 1.390 . S
C29 H34 0.949 . S
C30 C29 1.390 . S
C30 C35 1.399 . S
C31 C27 1.404 . S
C31 H32 0.950 . S
C31 C33 1.375 . S
H32 C31 0.950 . S
C33 C31 1.375 . S
C33 C35 1.382 . S
C33 H37 0.950 . S
H34 C29 0.949 . S
C35 C30 1.399 . S
C35 C33 1.382 . S
C35 H36 0.952 . S
H36 C35 0.952 . S
H37 C33 0.950 . S
H38 C39 0.949 . S
C39 H38 0.949 . S
C39 C40 1.395 . S
C39 C41 1.391 . S
C40 C39 1.395 . S
C40 C43 1.390 . S
C41 C39 1.391 . S
C41 C45 1.387 . S
C41 C46 1.491 . S
H42 C43 0.950 . S
C43 C40 1.390 . S
C43 H42 0.950 . S
C43 C44 1.378 . S
C44 C43 1.378 . S
C44 C45 1.409 . S
C45 C41 1.387 . S
C45 C44 1.409 . S
C45 H47 0.951 . S
C46 C41 1.491 . S
C46 C48 1.382 . S
C46 C50 1.404 . S
H47 C45 0.951 . S
C48 C46 1.382 . S
C48 C49 1.390 . S
C48 H53 0.949 . S
C49 C48 1.390 . S
C49 C54 1.399 . S
C50 C46 1.404 . S
C50 H51 0.950 . S
C50 C52 1.375 . S
H51 C50 0.950 . S
C52 C50 1.375 . S
C52 C54 1.382 . S
C52 H56 0.950 . S
H53 C48 0.949 . S
C54 C49 1.399 . S
C54 C52 1.382 . S
C54 H55 0.952 . S
H55 C54 0.952 . S
H56 C52 0.950 . S
H57 C58 0.949 . S
C58 H57 0.949 . S
C58 C59 1.395 . S
C58 C60 1.391 . S
C59 C58 1.395 . S
C59 C62 1.390 . S
C60 C58 1.391 . S
C60 C64 1.387 . S
C60 C65 1.491 . S
H61 C62 0.950 . S
C62 C59 1.390 . S
C62 H61 0.950 . S
C62 C63 1.378 . S
C63 C62 1.378 . S
C63 C64 1.409 . S
C64 C60 1.387 . S
C64 C63 1.409 . S
C64 H66 0.951 . S
C65 C60 1.491 . S
C65 C67 1.382 . S
C65 C69 1.404 . S
H66 C64 0.951 . S
C67 C65 1.382 . S
C67 C68 1.390 . S
C67 H72 0.949 . S
C68 C67 1.390 . S
C68 C73 1.399 . S
C69 C65 1.404 . S
C69 H70 0.950 . S
C69 C71 1.375 . S
H70 C69 0.950 . S
C71 C69 1.375 . S
C71 C73 1.382 . S
C71 H75 0.950 . S
H72 C67 0.949 . S
C73 C68 1.399 . S
C73 C71 1.382 . S
C73 H74 0.952 . S
H74 C73 0.952 . S
H75 C71 0.950 . S
H76 C77 0.949 . S
C77 H76 0.949 . S
C77 C78 1.395 . S
C77 C79 1.391 . S
C78 C77 1.395 . S
C78 C81 1.390 . S
C79 C77 1.391 . S
C79 C83 1.387 . S
C79 C84 1.491 . S
H80 C81 0.950 . S
C81 C78 1.390 . S
C81 H80 0.950 . S
C81 C82 1.378 . S
C82 C81 1.378 . S
C82 C83 1.409 . S
C83 C79 1.387 . S
C83 C82 1.409 . S
C83 H85 0.951 . S
C84 C79 1.491 . S
C84 C86 1.382 . S
C84 C88 1.404 . S
H85 C83 0.951 . S
C86 C84 1.382 . S
C86 C87 1.390 . S
C86 H91 0.949 . S
C87 C86 1.390 . S
C87 C92 1.399 . S
C88 C84 1.404 . S
C88 H89 0.950 . S
C88 C90 1.375 . S
H89 C88 0.950 . S
C90 C88 1.375 . S
C90 C92 1.382 . S
C90 H94 0.950 . S
H91 C86 0.949 . S
C92 C87 1.399 . S
C92 C90 1.382 . S
C92 H93 0.952 . S
H93 C92 0.952 . S
H94 C90 0.950 . S
H95 C96 0.949 . S
C96 H95 0.949 . S
C96 C97 1.395 . S
C96 C98 1.391 . S
C97 C96 1.395 . S
C97 C100 1.390 . S
C98 C96 1.391 . S
C98 C102 1.387 . S
C98 C103 1.491 . S
H99 C100 0.950 . S
C100 C97 1.390 . S
C100 H99 0.950 . S
C100 C101 1.378 . S
C101 C100 1.378 . S
C101 C102 1.409 . S
C102 C98 1.387 . S
C102 C101 1.409 . S
C102 H104 0.951 . S
C103 C98 1.491 . S
C103 C105 1.382 . S
C103 C107 1.404 . S
H104 C102 0.951 . S
C105 C103 1.382 . S
C105 C106 1.390 . S
C105 H110 0.949 . S
C106 C105 1.390 . S
C106 C111 1.399 . S
C107 C103 1.404 . S
C107 H108 0.950 . S
C107 C109 1.375 . S
H108 C107 0.950 . S
C109 C107 1.375 . S
C109 C111 1.382 . S
C109 H113 0.950 . S
H110 C105 0.949 . S
C111 C106 1.399 . S
C111 C109 1.382 . S
C111 H112 0.952 . S
H112 C111 0.952 . S
H113 C109 0.950 . S
H114 C115 0.949 . S
C115 H114 0.949 . S
C115 C116 1.395 . S
C115 C117 1.391 . S
C116 C115 1.395 . S
C116 C119 1.390 . S
C117 C115 1.391 . S
C117 C121 1.387 . S
C117 C122 1.491 . S
H118 C119 0.950 . S
C119 C116 1.390 . S
C119 H118 0.950 . S
C119 C120 1.378 . S
C120 C119 1.378 . S
C120 C121 1.409 . S
C121 C117 1.387 . S
C121 C120 1.409 . S
C121 H123 0.951 . S
C122 C117 1.491 . S
C122 C124 1.382 . S
C122 C126 1.404 . S
H123 C121 0.951 . S
C124 C122 1.382 . S
C124 C125 1.390 . S
C124 H129 0.949 . S
C125 C124 1.390 . S
C125 C130 1.399 . S
C126 C122 1.404 . S
C126 H127 0.950 . S
C126 C128 1.375 . S
H127 C126 0.950 . S
C128 C126 1.375 . S
C128 C130 1.382 . S
C128 H132 0.950 . S
H129 C124 0.949 . S
C130 C125 1.399 . S
C130 C128 1.382 . S
C130 H131 0.952 . S
H131 C130 0.952 . S
H132 C128 0.950 . S
H133 C134 0.949 . S
C134 H133 0.949 . S
C134 C135 1.395 . S
C134 C136 1.391 . S
C135 C134 1.395 . S
C135 C138 1.390 . S
C136 C134 1.391 . S
C136 C140 1.387 . S
C136 C141 1.491 . S
H137 C138 0.950 . S
C138 C135 1.390 . S
C138 H137 0.950 . S
C138 C139 1.378 . S
C139 C138 1.378 . S
C139 C140 1.409 . S
C140 C136 1.387 . S
C140 C139 1.409 . S
C140 H142 0.951 . S
C141 C136 1.491 . S
C141 C143 1.382 . S
C141 C145 1.404 . S
H142 C140 0.951 . S
C143 C141 1.382 . S
C143 C144 1.390 . S
C143 H148 0.949 . S
C144 C143 1.390 . S
C144 C149 1.399 . S
C145 C141 1.404 . S
C145 H146 0.950 . S
C145 C147 1.375 . S
H146 C145 0.950 . S
C147 C145 1.375 . S
C147 C149 1.382 . S
C147 H151 0.950 . S
H148 C143 0.949 . S
C149 C144 1.399 . S
C149 C147 1.382 . S
C149 H150 0.952 . S
H150 C149 0.952 . S
H151 C147 0.950 . S
Gd152 C155 2.818 . S
Gd152 O172 2.377 . S
Gd152 O174 2.448 . S
Gd152 O175 2.506 . S
Gd152 O176 2.435 . S
Gd152 O177 2.717 . S
Gd152 O179 2.395 . S
Gd152 O183 2.293 1_455 S
Gd153 C164 2.818 1_545 S
Gd153 O173 2.395 1_655 S
Gd153 O177 2.327 1_655 S
Gd153 O178 2.390 . S
Gd153 O180 2.448 . S
Gd153 O181 2.506 1_545 S
Gd153 O182 2.435 . S
Gd153 O183 2.718 . S
C154 O172 1.240 . S
C154 O173 1.240 . S
C155 Gd152 2.818 . S
C155 C156 1.510 . S
C155 O174 1.249 . S
C155 O175 1.252 . S
C156 C155 1.510 . S
C156 C157 1.404 . S
C156 C158 1.352 . S
C157 C156 1.404 . S
C157 C161 1.389 . S
C157 H184 0.930 . S
C158 C156 1.352 . S
C158 C160 1.374 . S
C158 H185 0.931 . S
C159 C160 1.359 . S
C159 C161 1.364 . S
C160 C158 1.374 . S
C160 C159 1.359 . S
C160 H186 0.931 . S
C161 C157 1.389 . S
C161 C159 1.364 . S
C161 H187 0.931 . S
C162 O176 1.256 . S
C162 O177 1.257 . S
C163 O178 1.229 1_565 S
C163 O179 1.240 1_665 S
C164 Gd153 2.818 1_565 S
C164 C165 1.510 . S
C164 O180 1.249 1_565 S
C164 O181 1.252 . S
C165 C164 1.510 . S
C165 C166 1.404 . S
C165 C167 1.352 . S
C166 C165 1.404 . S
C166 C170 1.389 . S
C166 H188 0.930 . S
C167 C165 1.352 . S
C167 C169 1.374 . S
C167 H189 0.931 . S
C168 C169 1.359 . S
C168 C170 1.364 . S
C169 C167 1.374 . S
C169 C168 1.359 . S
C169 H190 0.931 . S
C170 C166 1.389 . S
C170 C168 1.364 . S
C170 H191 0.931 . S
C171 O182 1.256 . S
C171 O183 1.295 . S
O172 Gd152 2.377 . S
O172 C154 1.240 . S
O173 Gd153 2.395 1_455 S
O173 C154 1.240 . S
O174 Gd152 2.448 . S
O174 C155 1.249 . S
O175 Gd152 2.506 . S
O175 C155 1.252 . S
O176 Gd152 2.435 . S
O176 C162 1.256 . S
O177 Gd152 2.717 . S
O177 Gd153 2.327 1_455 S
O177 C162 1.257 . S
O178 Gd153 2.390 . S
O178 C163 1.229 1_545 S
O179 Gd152 2.395 . S
O179 C163 1.240 1_445 S
O180 Gd153 2.448 . S
O180 C164 1.249 1_545 S
O181 Gd153 2.506 1_565 S
O181 C164 1.252 . S
O182 Gd153 2.435 . S
O182 C171 1.256 . S
O183 Gd152 2.293 1_655 S
O183 Gd153 2.718 . S
O183 C171 1.295 . S
H184 C157 0.930 . S
H185 C158 0.931 . S
H186 C160 0.931 . S
H187 C161 0.931 . S
H188 C166 0.930 . S
H189 C167 0.931 . S
H190 C169 0.931 . S
H191 C170 0.931 . S
Gd192 C195 2.818 . S
Gd192 O212 2.377 . S
Gd192 O214 2.448 . S
Gd192 O215 2.506 . S
Gd192 O216 2.435 . S
Gd192 O217 2.717 . S
Gd192 O219 2.395 . S
Gd192 O223 2.327 . S
Gd193 C204 2.818 1_545 S
Gd193 O213 2.395 . S
Gd193 O217 2.327 . S
Gd193 O218 2.377 . S
Gd193 O220 2.452 . S
Gd193 O221 2.506 1_545 S
Gd193 O222 2.435 . S
Gd193 O223 2.717 . S
C194 O212 1.240 . S
C194 O213 1.240 . S
C195 Gd192 2.818 . S
C195 C196 1.510 . S
C195 O214 1.249 . S
C195 O215 1.252 . S
C196 C195 1.510 . S
C196 C197 1.404 . S
C196 C198 1.352 . S
C197 C196 1.404 . S
C197 C201 1.389 . S
C197 H224 0.930 . S
C198 C196 1.352 . S
C198 C200 1.374 . S
C198 H225 0.931 . S
C199 C200 1.359 . S
C199 C201 1.364 . S
C200 C198 1.374 . S
C200 C199 1.359 . S
C200 H226 0.931 . S
C201 C197 1.389 . S
C201 C199 1.364 . S
C201 H227 0.931 . S
C202 O216 1.256 1_565 S
C202 O217 1.257 1_565 S
C203 O218 1.240 . S
C203 O219 1.240 . S
C204 Gd193 2.818 1_565 S
C204 C205 1.510 1_554 S
C204 O220 1.249 1_565 S
C204 O221 1.252 . S
C205 C204 1.510 1_556 S
C205 C206 1.404 . S
C205 C207 1.352 . S
C206 C205 1.404 . S
C206 C210 1.389 . S
C206 H228 0.930 1_565 S
C207 C205 1.352 . S
C207 C209 1.374 . S
C207 H229 0.931 . S
C208 C209 1.359 . S
C208 C210 1.364 . S
C209 C207 1.374 . S
C209 C208 1.359 . S
C209 H230 0.931 . S
C210 C206 1.389 . S
C210 C208 1.364 . S
C210 H231 0.931 . S
C211 O222 1.256 . S
C211 O223 1.257 . S
O212 Gd192 2.377 . S
O212 C194 1.240 . S
O213 Gd193 2.395 . S
O213 C194 1.240 . S
O214 Gd192 2.448 . S
O214 C195 1.249 . S
O215 Gd192 2.506 . S
O215 C195 1.252 . S
O216 Gd192 2.435 . S
O216 C202 1.256 1_545 S
O217 Gd192 2.717 . S
O217 Gd193 2.327 . S
O217 C202 1.257 1_545 S
O218 Gd193 2.377 . S
O218 C203 1.240 . S
O219 Gd192 2.395 . S
O219 C203 1.240 . S
O220 Gd193 2.452 . S
O220 C204 1.249 1_545 S
O221 Gd193 2.506 1_565 S
O221 C204 1.252 . S
O222 Gd193 2.435 . S
O222 C211 1.256 . S
O223 Gd192 2.327 . S
O223 Gd193 2.717 . S
O223 C211 1.257 . S
H224 C197 0.930 . S
H225 C198 0.931 . S
H226 C200 0.931 . S
H227 C201 0.931 . S
H228 C206 0.930 1_545 S
H229 C207 0.931 . S
H230 C209 0.931 . S
H231 C210 0.931 . S
Gd232 C235 2.818 . S
Gd232 O252 2.377 . S
Gd232 O254 2.448 . S
Gd232 O255 2.506 . S
Gd232 O256 2.435 . S
Gd232 O257 2.717 . S
Gd232 O259 2.395 . S
Gd232 O263 2.327 . S
Gd233 C244 2.818 . S
Gd233 O253 2.395 . S
Gd233 O257 2.327 . S
Gd233 O258 2.377 . S
Gd233 O260 2.448 . S
Gd233 O261 2.506 . S
Gd233 O262 2.435 . S
Gd233 O263 2.717 . S
C234 O252 1.240 . S
C234 O253 1.240 . S
C235 Gd232 2.818 . S
C235 C236 1.510 . S
C235 O254 1.249 . S
C235 O255 1.252 . S
C236 C235 1.510 . S
C236 C237 1.404 . S
C236 C238 1.352 . S
C237 C236 1.404 . S
C237 C241 1.389 . S
C237 H264 0.930 . S
C238 C236 1.352 . S
C238 C240 1.374 . S
C238 H265 0.931 . S
C239 C240 1.359 . S
C239 C241 1.364 . S
C240 C238 1.374 . S
C240 C239 1.359 . S
C240 H266 0.931 . S
C241 C237 1.389 . S
C241 C239 1.364 . S
C241 H267 0.931 . S
C242 O256 1.256 . S
C242 O257 1.257 . S
C243 O258 1.240 . S
C243 O259 1.240 . S
C244 Gd233 2.818 . S
C244 C245 1.510 . S
C244 O260 1.249 . S
C244 O261 1.252 . S
C245 C244 1.510 . S
C245 C246 1.404 . S
C245 C247 1.352 . S
C246 C245 1.404 . S
C246 C250 1.389 . S
C246 H268 0.930 . S
C247 C245 1.352 . S
C247 C249 1.374 . S
C247 H269 0.931 . S
C248 C249 1.359 . S
C248 C250 1.364 . S
C249 C247 1.374 . S
C249 C248 1.359 . S
C249 H270 0.931 . S
C250 C246 1.389 . S
C250 C248 1.364 . S
C250 H271 0.931 . S
C251 O262 1.256 . S
C251 O263 1.257 . S
O252 Gd232 2.377 . S
O252 C234 1.240 . S
O253 Gd233 2.395 . S
O253 C234 1.240 . S
O254 Gd232 2.448 . S
O254 C235 1.249 . S
O255 Gd232 2.506 . S
O255 C235 1.252 . S
O256 Gd232 2.435 . S
O256 C242 1.256 . S
O257 Gd232 2.717 . S
O257 Gd233 2.327 . S
O257 C242 1.257 . S
O258 Gd233 2.377 . S
O258 C243 1.240 . S
O259 Gd232 2.395 . S
O259 C243 1.240 . S
O260 Gd233 2.448 . S
O260 C244 1.249 . S
O261 Gd233 2.506 . S
O261 C244 1.252 . S
O262 Gd233 2.435 . S
O262 C251 1.256 . S
O263 Gd232 2.327 . S
O263 Gd233 2.717 . S
O263 C251 1.257 . S
H264 C237 0.930 . S
H265 C238 0.931 . S
H266 C240 0.931 . S
H267 C241 0.931 . S
H268 C246 0.930 . S
H269 C247 0.931 . S
H270 C249 0.931 . S
H271 C250 0.931 . S
Gd272 C275 2.818 . S
Gd272 O292 2.377 . S
Gd272 O294 2.448 . S
Gd272 O295 2.506 . S
Gd272 O296 2.435 . S
Gd272 O297 2.717 . S
Gd272 O299 2.395 1_455 S
Gd272 O303 2.327 1_554 S
Gd273 C284 2.818 1_455 S
Gd273 O293 2.395 1_556 S
Gd273 O297 2.327 1_556 S
Gd273 O298 2.371 1_455 S
Gd273 O300 2.448 . S
Gd273 O301 2.506 1_455 S
Gd273 O302 2.435 . S
Gd273 O303 2.717 . S
C274 O292 1.240 . S
C274 O293 1.240 . S
C275 Gd272 2.818 . S
C275 C276 1.510 . S
C275 O294 1.249 . S
C275 O295 1.252 . S
C276 C275 1.510 . S
C276 C277 1.404 . S
C276 C278 1.352 . S
C277 C276 1.404 . S
C277 C281 1.389 . S
C277 H304 0.930 . S
C278 C276 1.352 . S
C278 C280 1.374 . S
C278 H305 0.931 . S
C279 C280 1.359 . S
C279 C281 1.364 . S
C280 C278 1.374 . S
C280 C279 1.359 . S
C280 H306 0.931 . S
C281 C277 1.389 . S
C281 C279 1.364 . S
C281 H307 0.931 . S
C282 O296 1.256 . S
C282 O297 1.257 . S
C283 O298 1.244 . S
C283 O299 1.240 1_556 S
C284 Gd273 2.818 1_655 S
C284 C285 1.510 . S
C284 O300 1.249 1_655 S
C284 O301 1.252 . S
C285 C284 1.510 . S
C285 C286 1.404 . S
C285 C287 1.352 . S
C286 C285 1.404 . S
C286 C290 1.389 . S
C286 H308 0.930 . S
C287 C285 1.352 . S
C287 C289 1.374 . S
C287 H309 0.931 . S
C288 C289 1.359 . S
C288 C290 1.364 . S
C289 C287 1.374 . S
C289 C288 1.359 . S
C289 H310 0.931 . S
C290 C286 1.389 . S
C290 C288 1.364 . S
C290 H311 0.931 . S
C291 O302 1.256 . S
C291 O303 1.257 . S
O292 Gd272 2.377 . S
O292 C274 1.240 . S
O293 Gd273 2.395 1_554 S
O293 C274 1.240 . S
O294 Gd272 2.448 . S
O294 C275 1.249 . S
O295 Gd272 2.506 . S
O295 C275 1.252 . S
O296 Gd272 2.435 . S
O296 C282 1.256 . S
O297 Gd272 2.717 . S
O297 Gd273 2.327 1_554 S
O297 C282 1.257 . S
O298 Gd273 2.371 1_655 S
O298 C283 1.244 . S
O299 Gd272 2.395 1_655 S
O299 C283 1.240 1_554 S
O300 Gd273 2.448 . S
O300 C284 1.249 1_455 S
O301 Gd273 2.506 1_655 S
O301 C284 1.252 . S
O302 Gd273 2.435 . S
O302 C291 1.256 . S
O303 Gd272 2.327 1_556 S
O303 Gd273 2.717 . S
O303 C291 1.257 . S
H304 C277 0.930 . S
H305 C278 0.931 . S
H306 C280 0.931 . S
H307 C281 0.931 . S
H308 C286 0.930 . S
H309 C287 0.931 . S
H310 C289 0.931 . S
H311 C290 0.931 . S
H312 C330 0.951 . S
H313 C332 0.951 . S
H314 C334 0.950 . S
H315 C335 0.950 . S
H316 C337 0.950 . S
H317 C340 0.950 . S
H318 C341 0.950 . S
H319 C343 0.950 . S
H320 C344 0.950 . S
H321 C345 0.951 . S
H322 C347 0.951 . S
H323 C349 0.950 . S
H324 C350 0.950 . S
H325 C352 0.950 . S
H326 C355 0.950 . S
H327 C356 0.950 . S
H328 C358 0.950 . S
H329 C359 0.950 . S
C330 H312 0.951 . S
C330 C331 1.366 . S
C330 C332 1.388 . S
C331 C330 1.366 . S
C331 C335 1.385 . S
C332 H313 0.951 . S
C332 C330 1.388 . S
C332 C333 1.366 . S
C333 C332 1.366 . S
C333 C334 1.414 . S
C333 C336 1.499 . S
C334 H314 0.950 . S
C334 C333 1.414 . S
C334 C335 1.374 . S
C335 H315 0.950 . S
C335 C331 1.385 . S
C335 C334 1.374 . S
C336 C333 1.499 . S
C336 C337 1.373 . S
C336 C338 1.389 . S
C337 H316 0.950 . S
C337 C336 1.373 . S
C337 C353 1.377 . S
C338 C336 1.389 . S
C338 C339 1.524 . S
C338 C352 1.377 . S
C339 C338 1.524 . S
C339 C340 1.397 . S
C339 C344 1.363 . S
C340 H317 0.950 . S
C340 C339 1.397 . S
C340 C341 1.334 . S
C341 H318 0.950 . S
C341 C340 1.334 . S
C341 C342 1.287 . S
C342 C341 1.287 . S
C342 C343 1.524 . S
C342 H361 0.913 . S
C343 H319 0.950 . S
C343 C342 1.524 . S
C343 C344 1.415 . S
C344 H320 0.950 . S
C344 C339 1.363 . S
C344 C343 1.415 . S
C345 H321 0.951 . S
C345 C346 1.366 . S
C345 C347 1.388 . S
C346 C345 1.366 . S
C346 C350 1.385 . S
C347 H322 0.951 . S
C347 C345 1.388 . S
C347 C348 1.366 . S
C348 C347 1.366 . S
C348 C349 1.414 . S
C348 C351 1.499 . S
C349 H323 0.950 . S
C349 C348 1.414 . S
C349 C350 1.374 . S
C350 H324 0.950 . S
C350 C346 1.385 . S
C350 C349 1.374 . S
C351 C348 1.499 . S
C351 C352 1.373 . S
C351 C353 1.389 . S
C352 H325 0.950 . S
C352 C338 1.377 . S
C352 C351 1.373 . S
C353 C337 1.377 . S
C353 C351 1.389 . S
C353 C354 1.524 . S
C354 C353 1.524 . S
C354 C355 1.397 . S
C354 C359 1.363 . S
C355 H326 0.950 . S
C355 C354 1.397 . S
C355 C356 1.334 . S
C356 H327 0.950 . S
C356 C355 1.334 . S
C356 C357 1.287 . S
C357 C356 1.287 . S
C357 C358 1.524 . S
C357 H360 0.999 . S
C358 H328 0.950 . S
C358 C357 1.524 . S
C358 C359 1.415 . S
C359 H329 0.950 . S
C359 C354 1.363 . S
C359 C358 1.415 . S
H360 C357 0.999 . S
H361 C342 0.913 . S
H362 C380 0.951 . S
H363 C382 0.951 . S
H364 C384 0.950 . S
H365 C385 0.950 . S
H366 C387 0.950 . S
H367 C390 0.950 . S
H368 C391 0.950 . S
H369 C393 0.950 . S
H370 C394 0.950 . S
H371 C395 0.951 . S
H372 C397 0.951 . S
H373 C399 0.950 . S
H374 C400 0.950 . S
H375 C402 0.950 . S
H376 C405 0.950 . S
H377 C406 0.950 . S
H378 C408 0.950 . S
H379 C409 0.950 . S
C380 H362 0.951 . S
C380 C381 1.366 . S
C380 C382 1.388 . S
C381 C380 1.366 . S
C381 C385 1.385 . S
C382 H363 0.951 . S
C382 C380 1.388 . S
C382 C383 1.366 . S
C383 C382 1.366 . S
C383 C384 1.414 . S
C383 C386 1.499 . S
C384 H364 0.950 . S
C384 C383 1.414 . S
C384 C385 1.374 . S
C385 H365 0.950 . S
C385 C381 1.385 . S
C385 C384 1.374 . S
C386 C383 1.499 . S
C386 C387 1.373 . S
C386 C388 1.389 . S
C387 H366 0.950 . S
C387 C386 1.373 . S
C387 C403 1.377 . S
C388 C386 1.389 . S
C388 C389 1.524 . S
C388 C402 1.377 . S
C389 C388 1.524 . S
C389 C390 1.397 . S
C389 C394 1.363 . S
C390 H367 0.950 . S
C390 C389 1.397 . S
C390 C391 1.334 . S
C391 H368 0.950 . S
C391 C390 1.334 . S
C391 C392 1.287 . S
C392 C391 1.287 . S
C392 C393 1.524 . S
C392 H411 0.913 . S
C393 H369 0.950 . S
C393 C392 1.524 . S
C393 C394 1.415 . S
C394 H370 0.950 . S
C394 C389 1.363 . S
C394 C393 1.415 . S
C395 H371 0.951 . S
C395 C396 1.366 . S
C395 C397 1.388 . S
C396 C395 1.366 . S
C396 C400 1.385 . S
C397 H372 0.951 . S
C397 C395 1.388 . S
C397 C398 1.366 . S
C398 C397 1.366 . S
C398 C399 1.414 . S
C398 C401 1.499 . S
C399 H373 0.950 . S
C399 C398 1.414 . S
C399 C400 1.374 . S
C400 H374 0.950 . S
C400 C396 1.385 . S
C400 C399 1.374 . S
C401 C398 1.499 . S
C401 C402 1.373 . S
C401 C403 1.389 . S
C402 H375 0.950 . S
C402 C388 1.377 . S
C402 C401 1.373 . S
C403 C387 1.377 . S
C403 C401 1.389 . S
C403 C404 1.524 . S
C404 C403 1.524 . S
C404 C405 1.397 . S
C404 C409 1.363 . S
C405 H376 0.950 . S
C405 C404 1.397 . S
C405 C406 1.334 . S
C406 H377 0.950 . S
C406 C405 1.334 . S
C406 C407 1.287 . S
C407 C406 1.287 . S
C407 C408 1.524 . S
C407 H410 0.999 . S
C408 H378 0.950 . S
C408 C407 1.524 . S
C408 C409 1.415 . S
C409 H379 0.950 . S
C409 C404 1.363 . S
C409 C408 1.415 . S
H410 C407 0.999 . S
H411 C392 0.913 . S
H412 C430 0.951 . S
H413 C432 0.951 . S
H414 C434 0.950 . S
H415 C435 0.950 . S
H416 C437 0.950 . S
H417 C440 0.950 . S
H418 C441 0.950 . S
H419 C443 0.950 . S
H420 C444 0.950 . S
H421 C445 0.951 . S
H422 C447 0.951 . S
H423 C449 0.950 . S
H424 C450 0.950 . S
H425 C452 0.950 . S
H426 C455 0.950 . S
H427 C456 0.950 . S
H428 C458 0.950 . S
H429 C459 0.950 . S
C430 H412 0.951 . S
C430 C431 1.366 . S
C430 C432 1.388 . S
C431 C430 1.366 . S
C431 C435 1.385 . S
C432 H413 0.951 . S
C432 C430 1.388 . S
C432 C433 1.366 . S
C433 C432 1.366 . S
C433 C434 1.414 . S
C433 C436 1.499 . S
C434 H414 0.950 . S
C434 C433 1.414 . S
C434 C435 1.374 . S
C435 H415 0.950 . S
C435 C431 1.385 . S
C435 C434 1.374 . S
C436 C433 1.499 . S
C436 C437 1.373 . S
C436 C438 1.389 . S
C437 H416 0.950 . S
C437 C436 1.373 . S
C437 C453 1.377 . S
C438 C436 1.389 . S
C438 C439 1.524 . S
C438 C452 1.377 . S
C439 C438 1.524 . S
C439 C440 1.397 . S
C439 C444 1.363 . S
C440 H417 0.950 . S
C440 C439 1.397 . S
C440 C441 1.334 . S
C441 H418 0.950 . S
C441 C440 1.334 . S
C441 C442 1.287 . S
C442 C441 1.287 . S
C442 C443 1.524 . S
C442 H461 0.913 . S
C443 H419 0.950 . S
C443 C442 1.524 . S
C443 C444 1.415 . S
C444 H420 0.950 . S
C444 C439 1.363 . S
C444 C443 1.415 . S
C445 H421 0.951 . S
C445 C446 1.366 . S
C445 C447 1.388 . S
C446 C445 1.366 . S
C446 C450 1.385 . S
C447 H422 0.951 . S
C447 C445 1.388 . S
C447 C448 1.366 . S
C448 C447 1.366 . S
C448 C449 1.414 . S
C448 C451 1.499 . S
C449 H423 0.950 . S
C449 C448 1.414 . S
C449 C450 1.374 . S
C450 H424 0.950 . S
C450 C446 1.385 . S
C450 C449 1.374 . S
C451 C448 1.499 . S
C451 C452 1.373 . S
C451 C453 1.389 . S
C452 H425 0.950 . S
C452 C438 1.377 . S
C452 C451 1.373 . S
C453 C437 1.377 . S
C453 C451 1.389 . S
C453 C454 1.524 . S
C454 C453 1.524 . S
C454 C455 1.397 . S
C454 C459 1.363 . S
C455 H426 0.950 . S
C455 C454 1.397 . S
C455 C456 1.334 . S
C456 H427 0.950 . S
C456 C455 1.334 . S
C456 C457 1.287 . S
C457 C456 1.287 . S
C457 C458 1.524 . S
C457 H460 0.999 . S
C458 H428 0.950 . S
C458 C457 1.524 . S
C458 C459 1.415 . S
C459 H429 0.950 . S
C459 C454 1.363 . S
C459 C458 1.415 . S
H460 C457 0.999 . S
H461 C442 0.913 . S
H462 C480 0.951 . S
H463 C482 0.951 . S
H464 C484 0.950 . S
H465 C485 0.950 . S
H466 C487 0.950 . S
H467 C490 0.950 . S
H468 C491 0.950 . S
H469 C493 0.950 . S
H470 C494 0.950 . S
H471 C495 0.951 . S
H472 C497 0.951 1_455 S
H473 C499 0.950 . S
H474 C500 0.950 . S
H475 C502 0.950 . S
H476 C505 0.950 . S
H477 C506 0.950 . S
H478 C508 0.950 . S
H479 C509 0.950 . S
C480 H462 0.951 . S
C480 C481 1.366 . S
C480 C482 1.388 . S
C481 C480 1.366 . S
C481 C485 1.385 . S
C482 H463 0.951 . S
C482 C480 1.388 . S
C482 C483 1.366 . S
C483 C482 1.366 . S
C483 C484 1.414 . S
C483 C486 1.499 . S
C484 H464 0.950 . S
C484 C483 1.414 . S
C484 C485 1.374 . S
C485 H465 0.950 . S
C485 C481 1.385 . S
C485 C484 1.374 . S
C486 C483 1.499 . S
C486 C487 1.373 . S
C486 C488 1.389 . S
C487 H466 0.950 . S
C487 C486 1.373 . S
C487 C503 1.377 . S
C488 C486 1.389 . S
C488 C489 1.524 . S
C488 C502 1.377 . S
C489 C488 1.524 . S
C489 C490 1.397 . S
C489 C494 1.363 . S
C490 H467 0.950 . S
C490 C489 1.397 . S
C490 C491 1.334 . S
C491 H468 0.950 . S
C491 C490 1.334 . S
C491 C492 1.287 . S
C492 C491 1.287 . S
C492 C493 1.524 . S
C492 H511 0.913 . S
C493 H469 0.950 . S
C493 C492 1.524 . S
C493 C494 1.415 . S
C494 H470 0.950 . S
C494 C489 1.363 . S
C494 C493 1.415 . S
C495 H471 0.951 . S
C495 C496 1.366 1_455 S
C495 C497 1.388 1_455 S
C496 C495 1.366 1_655 S
C496 C500 1.385 . S
C497 H472 0.951 1_655 S
C497 C495 1.388 1_655 S
C497 C498 1.366 . S
C498 C497 1.366 . S
C498 C499 1.414 . S
C498 C501 1.499 . S
C499 H473 0.950 . S
C499 C498 1.414 . S
C499 C500 1.374 . S
C500 H474 0.950 . S
C500 C496 1.385 . S
C500 C499 1.374 . S
C501 C498 1.499 . S
C501 C502 1.373 . S
C501 C503 1.389 . S
C502 H475 0.950 . S
C502 C488 1.377 . S
C502 C501 1.373 . S
C503 C487 1.377 . S
C503 C501 1.389 . S
C503 C504 1.524 . S
C504 C503 1.524 . S
C504 C505 1.397 . S
C504 C509 1.363 . S
C505 H476 0.950 . S
C505 C504 1.397 . S
C505 C506 1.334 . S
C506 H477 0.950 . S
C506 C505 1.334 . S
C506 C507 1.287 . S
C507 C506 1.287 . S
C507 C508 1.524 1_655 S
C507 H510 0.999 1_655 S
C508 H478 0.950 . S
C508 C507 1.524 1_455 S
C508 C509 1.415 1_455 S
C509 H479 0.950 . S
C509 C504 1.363 . S
C509 C508 1.415 1_655 S
H510 C507 0.999 1_455 S
H511 C492 0.913 . S
H512 C530 0.951 . S
H513 C532 0.951 . S
H514 C534 0.950 . S
H515 C535 0.950 . S
H516 C537 0.950 . S
H517 C540 0.950 . S
H518 C541 0.950 . S
H519 C543 0.950 . S
H520 C544 0.950 . S
H521 C545 0.951 . S
H522 C547 0.951 . S
H523 C549 0.950 . S
H524 C550 0.950 . S
H525 C552 0.950 . S
H526 C555 0.950 . S
H527 C556 0.950 . S
H528 C558 0.950 . S
H529 C559 0.950 . S
C530 H512 0.951 . S
C530 C531 1.366 . S
C530 C532 1.388 . S
C531 C530 1.366 . S
C531 C535 1.385 . S
C532 H513 0.951 . S
C532 C530 1.388 . S
C532 C533 1.366 . S
C533 C532 1.366 . S
C533 C534 1.414 . S
C533 C536 1.499 . S
C534 H514 0.950 . S
C534 C533 1.414 . S
C534 C535 1.374 . S
C535 H515 0.950 . S
C535 C531 1.385 . S
C535 C534 1.374 . S
C536 C533 1.499 . S
C536 C537 1.373 . S
C536 C538 1.389 . S
C537 H516 0.950 . S
C537 C536 1.373 . S
C537 C553 1.377 . S
C538 C536 1.389 . S
C538 C539 1.524 . S
C538 C552 1.377 . S
C539 C538 1.524 . S
C539 C540 1.397 . S
C539 C544 1.363 . S
C540 H517 0.950 . S
C540 C539 1.397 . S
C540 C541 1.334 . S
C541 H518 0.950 . S
C541 C540 1.334 . S
C541 C542 1.287 . S
C542 C541 1.287 . S
C542 C543 1.524 . S
C542 H561 0.913 . S
C543 H519 0.950 . S
C543 C542 1.524 . S
C543 C544 1.415 . S
C544 H520 0.950 . S
C544 C539 1.363 . S
C544 C543 1.415 . S
C545 H521 0.951 . S
C545 C546 1.366 . S
C545 C547 1.388 . S
C546 C545 1.366 . S
C546 C550 1.385 . S
C547 H522 0.951 . S
C547 C545 1.388 . S
C547 C548 1.366 . S
C548 C547 1.366 . S
C548 C549 1.414 . S
C548 C551 1.499 . S
C549 H523 0.950 . S
C549 C548 1.414 . S
C549 C550 1.374 . S
C550 H524 0.950 . S
C550 C546 1.385 . S
C550 C549 1.374 . S
C551 C548 1.499 . S
C551 C552 1.373 . S
C551 C553 1.389 . S
C552 H525 0.950 . S
C552 C538 1.377 . S
C552 C551 1.373 . S
C553 C537 1.377 . S
C553 C551 1.389 . S
C553 C554 1.524 . S
C554 C553 1.524 . S
C554 C555 1.397 . S
C554 C559 1.363 . S
C555 H526 0.950 . S
C555 C554 1.397 . S
C555 C556 1.334 . S
C556 H527 0.950 . S
C556 C555 1.334 . S
C556 C557 1.287 . S
C557 C556 1.287 . S
C557 C558 1.524 . S
C557 H560 0.999 . S
C558 H528 0.950 . S
C558 C557 1.524 . S
C558 C559 1.415 . S
C559 H529 0.950 . S
C559 C554 1.363 . S
C559 C558 1.415 . S
H560 C557 0.999 . S
H561 C542 0.913 . S
H562 C580 0.951 . S
H563 C582 0.951 . S
H564 C584 0.950 . S
H565 C585 0.950 . S
H566 C587 0.950 . S
H567 C590 0.950 . S
H568 C591 0.953 . S
H569 C593 0.950 . S
H570 C594 0.950 . S
H571 C595 0.951 . S
H572 C597 0.951 . S
H573 C599 0.947 . S
H574 C600 0.950 . S
H575 C602 0.964 . S
H576 C605 0.950 . S
H577 C606 0.950 . S
H578 C608 0.950 . S
H579 C609 0.950 . S
C580 H562 0.951 . S
C580 C581 1.366 . S
C580 C582 1.388 . S
C581 C580 1.366 . S
C581 C585 1.385 . S
C582 H563 0.951 . S
C582 C580 1.388 . S
C582 C583 1.366 . S
C583 C582 1.366 . S
C583 C584 1.414 . S
C583 C586 1.499 . S
C584 H564 0.950 . S
C584 C583 1.414 . S
C584 C585 1.374 . S
C585 H565 0.950 . S
C585 C581 1.385 . S
C585 C584 1.374 . S
C586 C583 1.499 . S
C586 C587 1.373 . S
C586 C588 1.389 . S
C587 H566 0.950 . S
C587 C586 1.373 . S
C587 C603 1.377 . S
C588 C586 1.389 . S
C588 C589 1.524 . S
C588 C602 1.377 . S
C589 C588 1.524 . S
C589 C590 1.397 . S
C589 C594 1.363 1_565 S
C590 H567 0.950 . S
C590 C589 1.397 . S
C590 C591 1.338 . S
C591 H568 0.953 . S
C591 C590 1.338 . S
C591 C592 1.281 1_565 S
C592 C591 1.281 1_545 S
C592 C593 1.524 . S
C592 H611 0.913 . S
C593 H569 0.950 . S
C593 C592 1.524 . S
C593 C594 1.415 . S
C594 H570 0.950 . S
C594 C589 1.363 1_545 S
C594 C593 1.415 . S
C595 H571 0.951 . S
C595 C596 1.366 1_565 S
C595 C597 1.388 . S
C596 C595 1.366 1_545 S
C596 C600 1.385 . S
C597 H572 0.951 . S
C597 C595 1.388 . S
C597 C598 1.366 . S
C598 C597 1.366 . S
C598 C599 1.399 1_565 S
C598 C601 1.499 . S
C599 H573 0.947 . S
C599 C598 1.399 1_545 S
C599 C600 1.393 . S
C600 H574 0.950 . S
C600 C596 1.385 . S
C600 C599 1.393 . S
C601 C598 1.499 . S
C601 C602 1.373 . S
C601 C603 1.389 . S
C602 H575 0.964 . S
C602 C588 1.377 . S
C602 C601 1.373 . S
C603 C587 1.377 . S
C603 C601 1.389 . S
C603 C604 1.524 . S
C604 C603 1.524 . S
C604 C605 1.397 . S
C604 C609 1.363 . S
C605 H576 0.950 . S
C605 C604 1.397 . S
C605 C606 1.334 . S
C606 H577 0.950 . S
C606 C605 1.334 . S
C606 C607 1.287 . S
C607 C606 1.287 . S
C607 C608 1.524 . S
C607 H610 1.001 1_455 S
C608 H578 0.950 . S
C608 C607 1.524 . S
C608 C609 1.415 . S
C609 H579 0.950 . S
C609 C604 1.363 . S
C609 C608 1.415 . S
H610 C607 1.001 1_655 S
H611 C592 0.913 . S
H612 C630 0.951 . S
H613 C632 0.951 . S
H614 C634 0.950 . S
H615 C635 0.950 . S
H616 C637 0.950 . S
H617 C640 0.950 . S
H618 C641 0.950 . S
H619 C643 0.950 . S
H620 C644 0.950 . S
H621 C645 0.951 1_554 S
H622 C647 0.951 . S
H623 C649 0.950 . S
H624 C650 0.950 . S
H625 C652 0.950 . S
H626 C655 0.950 . S
H627 C656 0.950 . S
H628 C658 0.950 . S
H629 C659 0.950 . S
C630 H612 0.951 . S
C630 C631 1.366 . S
C630 C632 1.388 . S
C631 C630 1.366 . S
C631 C635 1.385 . S
C632 H613 0.951 . S
C632 C630 1.388 . S
C632 C633 1.366 . S
C633 C632 1.366 . S
C633 C634 1.414 . S
C633 C636 1.499 . S
C634 H614 0.950 . S
C634 C633 1.414 . S
C634 C635 1.374 . S
C635 H615 0.950 . S
C635 C631 1.385 . S
C635 C634 1.374 . S
C636 C633 1.499 . S
C636 C637 1.373 . S
C636 C638 1.389 . S
C637 H616 0.950 . S
C637 C636 1.373 . S
C637 C653 1.377 . S
C638 C636 1.389 . S
C638 C639 1.524 . S
C638 C652 1.377 . S
C639 C638 1.524 . S
C639 C640 1.397 . S
C639 C644 1.363 . S
C640 H617 0.950 . S
C640 C639 1.397 . S
C640 C641 1.334 . S
C641 H618 0.950 . S
C641 C640 1.334 . S
C641 C642 1.287 . S
C642 C641 1.287 . S
C642 C643 1.524 . S
C642 H661 0.913 . S
C643 H619 0.950 . S
C643 C642 1.524 . S
C643 C644 1.415 . S
C644 H620 0.950 . S
C644 C639 1.363 . S
C644 C643 1.415 . S
C645 H621 0.951 1_556 S
C645 C646 1.366 . S
C645 C647 1.388 . S
C646 C645 1.366 . S
C646 C650 1.385 . S
C647 H622 0.951 . S
C647 C645 1.388 . S
C647 C648 1.366 . S
C648 C647 1.366 . S
C648 C649 1.414 . S
C648 C651 1.499 . S
C649 H623 0.950 . S
C649 C648 1.414 . S
C649 C650 1.374 . S
C650 H624 0.950 . S
C650 C646 1.385 . S
C650 C649 1.374 . S
C651 C648 1.499 . S
C651 C652 1.373 . S
C651 C653 1.389 . S
C652 H625 0.950 . S
C652 C638 1.377 . S
C652 C651 1.373 . S
C653 C637 1.377 . S
C653 C651 1.389 . S
C653 C654 1.524 . S
C654 C653 1.524 . S
C654 C655 1.397 . S
C654 C659 1.363 . S
C655 H626 0.950 . S
C655 C654 1.397 . S
C655 C656 1.334 . S
C656 H627 0.950 . S
C656 C655 1.334 . S
C656 C657 1.287 . S
C657 C656 1.287 . S
C657 C658 1.524 . S
C657 H660 0.999 . S
C658 H628 0.950 . S
C658 C657 1.524 . S
C658 C659 1.415 . S
C659 H629 0.950 . S
C659 C654 1.363 . S
C659 C658 1.415 . S
H660 C657 0.999 . S
H661 C642 0.913 . S
H662 C680 0.951 . S
H663 C682 0.951 . S
H664 C684 0.950 . S
H665 C685 0.950 . S
H666 C687 0.950 . S
H667 C690 0.950 . S
H668 C691 0.950 . S
H669 C693 0.950 . S
H670 C694 0.950 . S
H671 C695 0.951 . S
H672 C697 0.951 . S
H673 C699 0.950 . S
H674 C700 0.950 . S
H675 C702 0.950 . S
H676 C705 0.950 . S
H677 C706 0.950 . S
H678 C708 0.950 . S
H679 C709 0.950 . S
C680 H662 0.951 . S
C680 C681 1.366 . S
C680 C682 1.388 . S
C681 C680 1.366 . S
C681 C685 1.385 . S
C682 H663 0.951 . S
C682 C680 1.388 . S
C682 C683 1.366 . S
C683 C682 1.366 . S
C683 C684 1.414 . S
C683 C686 1.499 . S
C684 H664 0.950 . S
C684 C683 1.414 . S
C684 C685 1.374 . S
C685 H665 0.950 . S
C685 C681 1.385 . S
C685 C684 1.374 . S
C686 C683 1.499 . S
C686 C687 1.373 . S
C686 C688 1.389 . S
C687 H666 0.950 . S
C687 C686 1.373 . S
C687 C703 1.377 . S
C688 C686 1.389 . S
C688 C689 1.524 . S
C688 C702 1.377 . S
C689 C688 1.524 . S
C689 C690 1.397 . S
C689 C694 1.363 . S
C690 H667 0.950 . S
C690 C689 1.397 . S
C690 C691 1.334 . S
C691 H668 0.950 . S
C691 C690 1.334 . S
C691 C692 1.287 . S
C692 C691 1.287 . S
C692 C693 1.524 . S
C692 H711 0.913 . S
C693 H669 0.950 . S
C693 C692 1.524 . S
C693 C694 1.415 . S
C694 H670 0.950 . S
C694 C689 1.363 . S
C694 C693 1.415 . S
C695 H671 0.951 . S
C695 C696 1.366 . S
C695 C697 1.388 . S
C696 C695 1.366 . S
C696 C700 1.385 . S
C697 H672 0.951 . S
C697 C695 1.388 . S
C697 C698 1.366 . S
C698 C697 1.366 . S
C698 C699 1.414 . S
C698 C701 1.499 . S
C699 H673 0.950 . S
C699 C698 1.414 . S
C699 C700 1.374 . S
C700 H674 0.950 . S
C700 C696 1.385 . S
C700 C699 1.374 . S
C701 C698 1.499 . S
C701 C702 1.373 . S
C701 C703 1.389 . S
C702 H675 0.950 . S
C702 C688 1.377 . S
C702 C701 1.373 . S
C703 C687 1.377 . S
C703 C701 1.389 . S
C703 C704 1.524 . S
C704 C703 1.524 . S
C704 C705 1.397 . S
C704 C709 1.363 . S
C705 H676 0.950 . S
C705 C704 1.397 . S
C705 C706 1.334 . S
C706 H677 0.950 . S
C706 C705 1.334 . S
C706 C707 1.287 . S
C707 C706 1.287 . S
C707 C708 1.524 . S
C707 H710 0.999 . S
C708 H678 0.950 . S
C708 C707 1.524 . S
C708 C709 1.415 . S
C709 H679 0.950 . S
C709 C704 1.363 . S
C709 C708 1.415 . S
H710 C707 0.999 . S
H711 C692 0.913 . S
H712 C730 0.951 . S
H713 C732 0.951 . S
H714 C734 0.950 . S
H715 C735 0.950 . S
H716 C737 0.950 . S
H717 C740 0.950 . S
H718 C741 0.950 . S
H719 C743 0.950 . S
H720 C744 0.950 . S
H721 C745 0.951 . S
H722 C747 0.951 . S
H723 C749 0.950 . S
H724 C750 0.950 . S
H725 C752 0.950 . S
H726 C755 0.950 . S
H727 C756 0.950 . S
H728 C758 0.950 . S
H729 C759 0.950 . S
C730 H712 0.951 . S
C730 C731 1.366 . S
C730 C732 1.388 . S
C731 C730 1.366 . S
C731 C735 1.385 . S
C732 H713 0.951 . S
C732 C730 1.388 . S
C732 C733 1.366 . S
C733 C732 1.366 . S
C733 C734 1.414 . S
C733 C736 1.499 . S
C734 H714 0.950 . S
C734 C733 1.414 . S
C734 C735 1.374 . S
C735 H715 0.950 . S
C735 C731 1.385 . S
C735 C734 1.374 . S
C736 C733 1.499 . S
C736 C737 1.373 . S
C736 C738 1.389 . S
C737 H716 0.950 . S
C737 C736 1.373 . S
C737 C753 1.377 . S
C738 C736 1.389 . S
C738 C739 1.524 . S
C738 C752 1.377 . S
C739 C738 1.524 . S
C739 C740 1.397 . S
C739 C744 1.363 . S
C740 H717 0.950 . S
C740 C739 1.397 . S
C740 C741 1.334 . S
C741 H718 0.950 . S
C741 C740 1.334 . S
C741 C742 1.287 . S
C742 C741 1.287 . S
C742 C743 1.524 . S
C742 H761 0.913 . S
C743 H719 0.950 . S
C743 C742 1.524 . S
C743 C744 1.415 . S
C744 H720 0.950 . S
C744 C739 1.363 . S
C744 C743 1.415 . S
C745 H721 0.951 . S
C745 C746 1.366 . S
C745 C747 1.388 . S
C746 C745 1.366 . S
C746 C750 1.385 . S
C747 H722 0.951 . S
C747 C745 1.388 . S
C747 C748 1.366 . S
C748 C747 1.366 . S
C748 C749 1.414 . S
C748 C751 1.499 . S
C749 H723 0.950 . S
C749 C748 1.414 . S
C749 C750 1.374 . S
C750 H724 0.950 . S
C750 C746 1.385 . S
C750 C749 1.374 . S
C751 C748 1.499 . S
C751 C752 1.373 . S
C751 C753 1.389 . S
C752 H725 0.950 . S
C752 C738 1.377 . S
C752 C751 1.373 . S
C753 C737 1.377 . S
C753 C751 1.389 . S
C753 C754 1.524 . S
C754 C753 1.524 . S
C754 C755 1.397 . S
C754 C759 1.363 . S
C755 H726 0.950 . S
C755 C754 1.397 . S
C755 C756 1.334 . S
C756 H727 0.950 . S
C756 C755 1.334 . S
C756 C757 1.287 . S
C757 C756 1.287 . S
C757 C758 1.524 . S
C757 H760 0.999 . S
C758 H728 0.950 . S
C758 C757 1.524 . S
C758 C759 1.415 . S
C759 H729 0.950 . S
C759 C754 1.363 . S
C759 C758 1.415 . S
H760 C757 0.999 . S
H761 C742 0.913 . S
H762 C780 0.951 . S
H763 C782 0.951 . S
H764 C784 0.950 . S
H765 C785 0.950 . S
H766 C787 0.950 . S
H767 C790 0.950 . S
H768 C791 0.950 . S
H769 C793 0.950 . S
H770 C794 0.950 . S
H771 C795 0.951 . S
H772 C797 0.951 1_556 S
H773 C799 0.950 . S
H774 C800 0.950 . S
H775 C802 0.950 . S
H776 C805 0.950 . S
H777 C806 0.950 . S
H778 C808 0.950 . S
H779 C809 0.950 1_556 S
C780 H762 0.951 . S
C780 C781 1.366 . S
C780 C782 1.388 . S
C781 C780 1.366 . S
C781 C785 1.385 . S
C782 H763 0.951 . S
C782 C780 1.388 . S
C782 C783 1.366 . S
C783 C782 1.366 . S
C783 C784 1.414 . S
C783 C786 1.499 . S
C784 H764 0.950 . S
C784 C783 1.414 . S
C784 C785 1.374 . S
C785 H765 0.950 . S
C785 C781 1.385 . S
C785 C784 1.374 . S
C786 C783 1.499 . S
C786 C787 1.373 . S
C786 C788 1.389 . S
C787 H766 0.950 . S
C787 C786 1.373 . S
C787 C803 1.377 . S
C788 C786 1.389 . S
C788 C789 1.524 . S
C788 C802 1.377 . S
C789 C788 1.524 . S
C789 C790 1.397 . S
C789 C794 1.363 . S
C790 H767 0.950 . S
C790 C789 1.397 . S
C790 C791 1.334 . S
C791 H768 0.950 . S
C791 C790 1.334 . S
C791 C792 1.287 . S
C792 C791 1.287 . S
C792 C793 1.524 . S
C792 H811 0.913 . S
C793 H769 0.950 . S
C793 C792 1.524 . S
C793 C794 1.415 . S
C794 H770 0.950 . S
C794 C789 1.363 . S
C794 C793 1.415 . S
C795 H771 0.951 . S
C795 C796 1.366 . S
C795 C797 1.388 . S
C796 C795 1.366 . S
C796 C800 1.385 . S
C797 H772 0.951 1_554 S
C797 C795 1.388 . S
C797 C798 1.366 . S
C798 C797 1.366 . S
C798 C799 1.416 . S
C798 C801 1.496 1_554 S
C799 H773 0.950 . S
C799 C798 1.416 . S
C799 C800 1.374 . S
C800 H774 0.950 . S
C800 C796 1.385 . S
C800 C799 1.374 . S
C801 C798 1.496 1_556 S
C801 C802 1.373 . S
C801 C803 1.389 . S
C802 H775 0.950 . S
C802 C788 1.377 . S
C802 C801 1.373 . S
C803 C787 1.377 . S
C803 C801 1.389 . S
C803 C804 1.524 1_556 S
C804 C803 1.524 1_554 S
C804 C805 1.397 . S
C804 C809 1.363 . S
C805 H776 0.950 . S
C805 C804 1.397 . S
C805 C806 1.334 . S
C806 H777 0.950 . S
C806 C805 1.334 . S
C806 C807 1.287 . S
C807 C806 1.287 . S
C807 C808 1.524 . S
C807 H810 0.999 . S
C808 H778 0.950 . S
C808 C807 1.524 . S
C808 C809 1.415 . S
C809 H779 0.950 1_554 S
C809 C804 1.363 . S
C809 C808 1.415 . S
H810 C807 0.999 . S
H811 C792 0.913 . S
H812 C830 0.951 . S
H813 C832 0.951 . S
H814 C834 0.950 . S
H815 C835 0.950 . S
H816 C837 0.950 . S
H817 C840 0.950 . S
H818 C841 0.950 . S
H819 C843 0.950 . S
H820 C844 0.950 . S
H821 C845 0.951 . S
H822 C847 0.951 . S
H823 C849 0.950 . S
H824 C850 0.950 . S
H825 C852 0.950 . S
H826 C855 0.950 . S
H827 C856 0.950 . S
H828 C858 0.950 . S
H829 C859 0.950 . S
C830 H812 0.951 . S
C830 C831 1.366 . S
C830 C832 1.388 . S
C831 C830 1.366 . S
C831 C835 1.385 . S
C832 H813 0.951 . S
C832 C830 1.388 . S
C832 C833 1.366 . S
C833 C832 1.366 . S
C833 C834 1.414 . S
C833 C836 1.499 . S
C834 H814 0.950 . S
C834 C833 1.414 . S
C834 C835 1.374 . S
C835 H815 0.950 . S
C835 C831 1.385 . S
C835 C834 1.374 . S
C836 C833 1.499 . S
C836 C837 1.373 . S
C836 C838 1.389 . S
C837 H816 0.950 . S
C837 C836 1.373 . S
C837 C853 1.377 . S
C838 C836 1.389 . S
C838 C839 1.524 . S
C838 C852 1.377 . S
C839 C838 1.524 . S
C839 C840 1.397 . S
C839 C844 1.363 . S
C840 H817 0.950 . S
C840 C839 1.397 . S
C840 C841 1.334 . S
C841 H818 0.950 . S
C841 C840 1.334 . S
C841 C842 1.287 . S
C842 C841 1.287 . S
C842 C843 1.524 . S
C842 H861 0.913 . S
C843 H819 0.950 . S
C843 C842 1.524 . S
C843 C844 1.415 . S
C844 H820 0.950 . S
C844 C839 1.363 . S
C844 C843 1.415 . S
C845 H821 0.951 . S
C845 C846 1.366 . S
C845 C847 1.388 . S
C846 C845 1.366 . S
C846 C850 1.385 . S
C847 H822 0.951 . S
C847 C845 1.388 . S
C847 C848 1.366 . S
C848 C847 1.366 . S
C848 C849 1.414 . S
C848 C851 1.499 . S
C849 H823 0.950 . S
C849 C848 1.414 . S
C849 C850 1.374 . S
C850 H824 0.950 . S
C850 C846 1.385 . S
C850 C849 1.374 . S
C851 C848 1.499 . S
C851 C852 1.373 . S
C851 C853 1.389 . S
C852 H825 0.950 . S
C852 C838 1.377 . S
C852 C851 1.373 . S
C853 C837 1.377 . S
C853 C851 1.389 . S
C853 C854 1.524 . S
C854 C853 1.524 . S
C854 C855 1.397 . S
C854 C859 1.363 . S
C855 H826 0.950 . S
C855 C854 1.397 . S
C855 C856 1.334 1_655 S
C856 H827 0.950 . S
C856 C855 1.334 1_455 S
C856 C857 1.287 . S
C857 C856 1.287 . S
C857 C858 1.524 . S
C857 H860 0.999 . S
C858 H828 0.950 . S
C858 C857 1.524 . S
C858 C859 1.415 1_455 S
C859 H829 0.950 . S
C859 C854 1.363 . S
C859 C858 1.415 1_655 S
H860 C857 0.999 . S
H861 C842 0.913 . S
H862 C880 0.951 . S
H863 C882 0.951 . S
H864 C884 0.950 . S
H865 C885 0.950 . S
H866 C887 0.950 . S
H867 C890 0.950 . S
H868 C891 0.950 . S
H869 C893 0.950 . S
H870 C894 0.950 . S
H871 C895 0.951 . S
H872 C897 0.951 . S
H873 C899 0.950 . S
H874 C900 0.950 . S
H875 C902 0.950 . S
H876 C905 0.950 . S
H877 C906 0.950 . S
H878 C908 0.950 . S
H879 C909 0.950 . S
C880 H862 0.951 . S
C880 C881 1.366 . S
C880 C882 1.388 . S
C881 C880 1.366 . S
C881 C885 1.385 . S
C882 H863 0.951 . S
C882 C880 1.388 . S
C882 C883 1.366 . S
C883 C882 1.366 . S
C883 C884 1.414 . S
C883 C886 1.499 . S
C884 H864 0.950 . S
C884 C883 1.414 . S
C884 C885 1.374 . S
C885 H865 0.950 . S
C885 C881 1.385 . S
C885 C884 1.374 . S
C886 C883 1.499 . S
C886 C887 1.373 . S
C886 C888 1.389 . S
C887 H866 0.950 . S
C887 C886 1.373 . S
C887 C903 1.377 . S
C888 C886 1.389 . S
C888 C889 1.524 . S
C888 C902 1.377 . S
C889 C888 1.524 . S
C889 C890 1.397 . S
C889 C894 1.363 . S
C890 H867 0.950 . S
C890 C889 1.397 . S
C890 C891 1.334 . S
C891 H868 0.950 . S
C891 C890 1.334 . S
C891 C892 1.287 . S
C892 C891 1.287 . S
C892 C893 1.524 . S
C892 H911 0.913 . S
C893 H869 0.950 . S
C893 C892 1.524 . S
C893 C894 1.415 . S
C894 H870 0.950 . S
C894 C889 1.363 . S
C894 C893 1.415 . S
C895 H871 0.951 . S
C895 C896 1.366 . S
C895 C897 1.388 . S
C896 C895 1.366 . S
C896 C900 1.385 . S
C897 H872 0.951 . S
C897 C895 1.388 . S
C897 C898 1.366 . S
C898 C897 1.366 . S
C898 C899 1.414 . S
C898 C901 1.499 . S
C899 H873 0.950 . S
C899 C898 1.414 . S
C899 C900 1.374 . S
C900 H874 0.950 . S
C900 C896 1.385 . S
C900 C899 1.374 . S
C901 C898 1.499 . S
C901 C902 1.373 . S
C901 C903 1.389 . S
C902 H875 0.950 . S
C902 C888 1.377 . S
C902 C901 1.373 . S
C903 C887 1.377 . S
C903 C901 1.389 . S
C903 C904 1.524 . S
C904 C903 1.524 . S
C904 C905 1.397 . S
C904 C909 1.363 . S
C905 H876 0.950 . S
C905 C904 1.397 . S
C905 C906 1.334 . S
C906 H877 0.950 . S
C906 C905 1.334 . S
C906 C907 1.287 . S
C907 C906 1.287 . S
C907 C908 1.524 . S
C907 H910 0.999 . S
C908 H878 0.950 . S
C908 C907 1.524 . S
C908 C909 1.415 . S
C909 H879 0.950 . S
C909 C904 1.363 . S
C909 C908 1.415 . S
H910 C907 0.999 . S
H911 C892 0.913 . S
H912 C930 0.951 . S
H913 C932 0.951 . S
H914 C934 0.950 . S
H915 C935 0.950 . S
H916 C937 0.950 . S
H917 C940 0.950 . S
H918 C941 0.950 . S
H919 C943 0.950 . S
H920 C944 0.950 . S
H921 C945 0.951 . S
H922 C947 0.951 . S
H923 C949 0.950 . S
H924 C950 0.950 . S
H925 C952 0.950 . S
H926 C955 0.950 . S
H927 C956 0.950 . S
H928 C958 0.950 . S
H929 C959 0.950 . S
C930 H912 0.951 . S
C930 C931 1.366 . S
C930 C932 1.388 . S
C931 C930 1.366 . S
C931 C935 1.385 . S
C932 H913 0.951 . S
C932 C930 1.388 . S
C932 C933 1.366 . S
C933 C932 1.366 . S
C933 C934 1.414 . S
C933 C936 1.499 . S
C934 H914 0.950 . S
C934 C933 1.414 . S
C934 C935 1.374 . S
C935 H915 0.950 . S
C935 C931 1.385 . S
C935 C934 1.374 . S
C936 C933 1.499 . S
C936 C937 1.373 . S
C936 C938 1.389 . S
C937 H916 0.950 . S
C937 C936 1.373 . S
C937 C953 1.377 . S
C938 C936 1.389 . S
C938 C939 1.524 . S
C938 C952 1.377 . S
C939 C938 1.524 . S
C939 C940 1.397 . S
C939 C944 1.363 . S
C940 H917 0.950 . S
C940 C939 1.397 . S
C940 C941 1.334 . S
C941 H918 0.950 . S
C941 C940 1.334 . S
C941 C942 1.287 . S
C942 C941 1.287 . S
C942 C943 1.524 . S
C942 H961 0.913 . S
C943 H919 0.950 . S
C943 C942 1.524 . S
C943 C944 1.415 . S
C944 H920 0.950 . S
C944 C939 1.363 . S
C944 C943 1.415 . S
C945 H921 0.951 . S
C945 C946 1.366 . S
C945 C947 1.388 . S
C946 C945 1.366 . S
C946 C950 1.385 . S
C947 H922 0.951 . S
C947 C945 1.388 . S
C947 C948 1.366 . S
C948 C947 1.366 . S
C948 C949 1.414 . S
C948 C951 1.499 . S
C949 H923 0.950 . S
C949 C948 1.414 . S
C949 C950 1.374 . S
C950 H924 0.950 . S
C950 C946 1.385 . S
C950 C949 1.374 . S
C951 C948 1.499 . S
C951 C952 1.373 . S
C951 C953 1.389 . S
C952 H925 0.950 . S
C952 C938 1.377 . S
C952 C951 1.373 . S
C953 C937 1.377 . S
C953 C951 1.389 . S
C953 C954 1.524 . S
C954 C953 1.524 . S
C954 C955 1.397 . S
C954 C959 1.363 . S
C955 H926 0.950 . S
C955 C954 1.397 . S
C955 C956 1.334 . S
C956 H927 0.950 . S
C956 C955 1.334 . S
C956 C957 1.287 . S
C957 C956 1.287 . S
C957 C958 1.524 . S
C957 H960 0.999 . S
C958 H928 0.950 . S
C958 C957 1.524 . S
C958 C959 1.415 . S
C959 H929 0.950 . S
C959 C954 1.363 . S
C959 C958 1.415 . S
H960 C957 0.999 . S
H961 C942 0.913 . S
H962 C980 0.951 . S
H963 C982 0.951 . S
H964 C984 0.950 . S
H965 C985 0.950 . S
H966 C987 0.950 . S
H967 C990 0.950 . S
H968 C991 0.950 . S
H969 C993 0.950 . S
H970 C994 0.950 . S
H971 C995 0.951 . S
H972 C997 0.951 . S
H973 C999 0.950 . S
H974 C1000 0.950 . S
H975 C1002 0.950 . S
H976 C1005 0.950 . S
H977 C1006 0.950 . S
H978 C1008 0.950 . S
H979 C1009 0.950 . S
C980 H962 0.951 . S
C980 C981 1.366 . S
C980 C982 1.388 . S
C981 C980 1.366 . S
C981 C985 1.385 . S
C982 H963 0.951 . S
C982 C980 1.388 . S
C982 C983 1.366 . S
C983 C982 1.366 . S
C983 C984 1.414 . S
C983 C986 1.499 . S
C984 H964 0.950 . S
C984 C983 1.414 . S
C984 C985 1.374 . S
C985 H965 0.950 . S
C985 C981 1.385 . S
C985 C984 1.374 . S
C986 C983 1.499 . S
C986 C987 1.373 . S
C986 C988 1.389 . S
C987 H966 0.950 . S
C987 C986 1.373 . S
C987 C1003 1.377 . S
C988 C986 1.389 . S
C988 C989 1.524 . S
C988 C1002 1.377 . S
C989 C988 1.524 . S
C989 C990 1.397 . S
C989 C994 1.363 . S
C990 H967 0.950 . S
C990 C989 1.397 . S
C990 C991 1.334 . S
C991 H968 0.950 . S
C991 C990 1.334 . S
C991 C992 1.287 . S
C992 C991 1.287 . S
C992 C993 1.524 . S
C992 H1011 0.913 . S
C993 H969 0.950 . S
C993 C992 1.524 . S
C993 C994 1.415 . S
C994 H970 0.950 . S
C994 C989 1.363 . S
C994 C993 1.415 . S
C995 H971 0.951 . S
C995 C996 1.366 . S
C995 C997 1.388 . S
C996 C995 1.366 . S
C996 C1000 1.385 . S
C997 H972 0.951 . S
C997 C995 1.388 . S
C997 C998 1.366 . S
C998 C997 1.366 . S
C998 C999 1.414 . S
C998 C1001 1.499 . S
C999 H973 0.950 . S
C999 C998 1.414 . S
C999 C1000 1.374 . S
C1000 H974 0.950 . S
C1000 C996 1.385 . S
C1000 C999 1.374 . S
C1001 C998 1.499 . S
C1001 C1002 1.373 . S
C1001 C1003 1.389 . S
C1002 H975 0.950 . S
C1002 C988 1.377 . S
C1002 C1001 1.373 . S
C1003 C987 1.377 . S
C1003 C1001 1.389 . S
C1003 C1004 1.524 . S
C1004 C1003 1.524 . S
C1004 C1005 1.397 . S
C1004 C1009 1.363 . S
C1005 H976 0.950 . S
C1005 C1004 1.397 . S
C1005 C1006 1.334 . S
C1006 H977 0.950 . S
C1006 C1005 1.334 . S
C1006 C1007 1.287 . S
C1007 C1006 1.287 . S
C1007 C1008 1.524 . S
C1007 H1010 0.999 . S
C1008 H978 0.950 . S
C1008 C1007 1.524 . S
C1008 C1009 1.415 . S
C1009 H979 0.950 . S
C1009 C1004 1.363 . S
C1009 C1008 1.415 . S
H1010 C1007 0.999 . S
H1011 C992 0.913 . S
H1012 C1030 0.951 . S
H1013 C1032 0.951 . S
H1014 C1034 0.950 . S
H1015 C1035 0.950 . S
H1016 C1037 0.950 . S
H1017 C1040 0.950 . S
H1018 C1041 0.950 . S
H1019 C1043 0.950 . S
H1020 C1044 0.950 . S
H1021 C1045 0.951 . S
H1022 C1047 0.951 . S
H1023 C1049 0.950 . S
H1024 C1050 0.950 . S
H1025 C1052 0.950 . S
H1026 C1055 0.950 . S
H1027 C1056 0.950 . S
H1028 C1058 0.950 . S
H1029 C1059 0.950 . S
C1030 H1012 0.951 . S
C1030 C1031 1.366 . S
C1030 C1032 1.388 . S
C1031 C1030 1.366 . S
C1031 C1035 1.385 . S
C1032 H1013 0.951 . S
C1032 C1030 1.388 . S
C1032 C1033 1.366 . S
C1033 C1032 1.366 . S
C1033 C1034 1.414 . S
C1033 C1036 1.499 . S
C1034 H1014 0.950 . S
C1034 C1033 1.414 . S
C1034 C1035 1.374 . S
C1035 H1015 0.950 . S
C1035 C1031 1.385 . S
C1035 C1034 1.374 . S
C1036 C1033 1.499 . S
C1036 C1037 1.373 . S
C1036 C1038 1.389 . S
C1037 H1016 0.950 . S
C1037 C1036 1.373 . S
C1037 C1053 1.377 . S
C1038 C1036 1.389 . S
C1038 C1039 1.524 . S
C1038 C1052 1.377 . S
C1039 C1038 1.524 . S
C1039 C1040 1.397 . S
C1039 C1044 1.363 . S
C1040 H1017 0.950 . S
C1040 C1039 1.397 . S
C1040 C1041 1.334 . S
C1041 H1018 0.950 . S
C1041 C1040 1.334 . S
C1041 C1042 1.287 . S
C1042 C1041 1.287 . S
C1042 C1043 1.524 . S
C1042 H1061 0.913 . S
C1043 H1019 0.950 . S
C1043 C1042 1.524 . S
C1043 C1044 1.415 . S
C1044 H1020 0.950 . S
C1044 C1039 1.363 . S
C1044 C1043 1.415 . S
C1045 H1021 0.951 . S
C1045 C1046 1.366 . S
C1045 C1047 1.388 . S
C1046 C1045 1.366 . S
C1046 C1050 1.385 . S
C1047 H1022 0.951 . S
C1047 C1045 1.388 . S
C1047 C1048 1.366 . S
C1048 C1047 1.366 . S
C1048 C1049 1.414 . S
C1048 C1051 1.499 . S
C1049 H1023 0.950 . S
C1049 C1048 1.414 . S
C1049 C1050 1.374 . S
C1050 H1024 0.950 . S
C1050 C1046 1.385 . S
C1050 C1049 1.374 . S
C1051 C1048 1.499 . S
C1051 C1052 1.373 . S
C1051 C1053 1.389 . S
C1052 H1025 0.950 . S
C1052 C1038 1.377 . S
C1052 C1051 1.373 . S
C1053 C1037 1.377 . S
C1053 C1051 1.389 . S
C1053 C1054 1.524 . S
C1054 C1053 1.524 . S
C1054 C1055 1.397 . S
C1054 C1059 1.363 . S
C1055 H1026 0.950 . S
C1055 C1054 1.397 . S
C1055 C1056 1.334 . S
C1056 H1027 0.950 . S
C1056 C1055 1.334 . S
C1056 C1057 1.287 . S
C1057 C1056 1.287 . S
C1057 C1058 1.524 . S
C1057 H1060 0.999 . S
C1058 H1028 0.950 . S
C1058 C1057 1.524 . S
C1058 C1059 1.415 . S
C1059 H1029 0.950 . S
C1059 C1054 1.363 . S
C1059 C1058 1.415 . S
H1060 C1057 0.999 . S
H1061 C1042 0.913 . S
H1062 C1080 0.951 . S
H1063 C1082 0.951 . S
H1064 C1084 0.950 . S
H1065 C1085 0.950 . S
H1066 C1087 0.950 . S
H1067 C1090 0.950 . S
H1068 C1091 0.950 . S
H1069 C1093 0.950 . S
H1070 C1094 0.950 . S
H1071 C1095 0.951 . S
H1072 C1097 0.951 . S
H1073 C1099 0.950 . S
H1074 C1100 0.950 . S
H1075 C1102 0.950 . S
H1076 C1105 0.950 . S
H1077 C1106 0.950 . S
H1078 C1108 0.950 . S
H1079 C1109 0.950 . S
C1080 H1062 0.951 . S
C1080 C1081 1.366 . S
C1080 C1082 1.388 . S
C1081 C1080 1.366 . S
C1081 C1085 1.385 . S
C1082 H1063 0.951 . S
C1082 C1080 1.388 . S
C1082 C1083 1.366 . S
C1083 C1082 1.366 . S
C1083 C1084 1.414 . S
C1083 C1086 1.499 . S
C1084 H1064 0.950 . S
C1084 C1083 1.414 . S
C1084 C1085 1.374 . S
C1085 H1065 0.950 . S
C1085 C1081 1.385 . S
C1085 C1084 1.374 . S
C1086 C1083 1.499 . S
C1086 C1087 1.373 . S
C1086 C1088 1.389 . S
C1087 H1066 0.950 . S
C1087 C1086 1.373 . S
C1087 C1103 1.377 . S
C1088 C1086 1.389 . S
C1088 C1089 1.524 . S
C1088 C1102 1.377 . S
C1089 C1088 1.524 . S
C1089 C1090 1.397 . S
C1089 C1094 1.363 . S
C1090 H1067 0.950 . S
C1090 C1089 1.397 . S
C1090 C1091 1.334 . S
C1091 H1068 0.950 . S
C1091 C1090 1.334 . S
C1091 C1092 1.287 . S
C1092 C1091 1.287 . S
C1092 C1093 1.524 . S
C1092 H1111 0.913 . S
C1093 H1069 0.950 . S
C1093 C1092 1.524 . S
C1093 C1094 1.415 . S
C1094 H1070 0.950 . S
C1094 C1089 1.363 . S
C1094 C1093 1.415 . S
C1095 H1071 0.951 . S
C1095 C1096 1.366 . S
C1095 C1097 1.388 . S
C1096 C1095 1.366 . S
C1096 C1100 1.385 . S
C1097 H1072 0.951 . S
C1097 C1095 1.388 . S
C1097 C1098 1.366 . S
C1098 C1097 1.366 . S
C1098 C1099 1.414 . S
C1098 C1101 1.499 . S
C1099 H1073 0.950 . S
C1099 C1098 1.414 . S
C1099 C1100 1.374 . S
C1100 H1074 0.950 . S
C1100 C1096 1.385 . S
C1100 C1099 1.374 . S
C1101 C1098 1.499 . S
C1101 C1102 1.373 . S
C1101 C1103 1.389 . S
C1102 H1075 0.950 . S
C1102 C1088 1.377 . S
C1102 C1101 1.373 . S
C1103 C1087 1.377 . S
C1103 C1101 1.389 . S
C1103 C1104 1.524 . S
C1104 C1103 1.524 . S
C1104 C1105 1.397 . S
C1104 C1109 1.363 . S
C1105 H1076 0.950 . S
C1105 C1104 1.397 . S
C1105 C1106 1.334 . S
C1106 H1077 0.950 . S
C1106 C1105 1.334 . S
C1106 C1107 1.287 . S
C1107 C1106 1.287 . S
C1107 C1108 1.524 . S
C1107 H1110 0.999 . S
C1108 H1078 0.950 . S
C1108 C1107 1.524 . S
C1108 C1109 1.415 . S
C1109 H1079 0.950 . S
C1109 C1104 1.363 . S
C1109 C1108 1.415 . S
H1110 C1107 0.999 . S
H1111 C1092 0.913 . S
H1112 C1130 0.951 . S
H1113 C1132 0.951 . S
H1114 C1134 0.950 . S
H1115 C1135 0.950 . S
H1116 C1137 0.950 . S
H1117 C1140 0.950 . S
H1118 C1141 0.950 . S
H1119 C1143 0.950 . S
H1120 C1144 0.950 . S
H1121 C1145 0.951 . S
H1122 C1147 0.951 . S
H1123 C1149 0.950 . S
H1124 C1150 0.950 . S
H1125 C1152 0.946 1_554 S
H1126 C1155 0.950 . S
H1127 C1156 0.943 1_545 S
H1128 C1158 0.950 . S
H1129 C1159 0.950 . S
C1130 H1112 0.951 . S
C1130 C1131 1.366 . S
C1130 C1132 1.388 . S
C1131 C1130 1.366 . S
C1131 C1135 1.385 . S
C1132 H1113 0.951 . S
C1132 C1130 1.388 . S
C1132 C1133 1.366 . S
C1133 C1132 1.366 . S
C1133 C1134 1.414 . S
C1133 C1136 1.499 . S
C1134 H1114 0.950 . S
C1134 C1133 1.414 . S
C1134 C1135 1.374 . S
C1135 H1115 0.950 . S
C1135 C1131 1.385 . S
C1135 C1134 1.374 . S
C1136 C1133 1.499 . S
C1136 C1137 1.373 . S
C1136 C1138 1.389 . S
C1137 H1116 0.950 . S
C1137 C1136 1.373 . S
C1137 C1153 1.377 . S
C1138 C1136 1.389 . S
C1138 C1139 1.524 . S
C1138 C1152 1.377 . S
C1139 C1138 1.524 . S
C1139 C1140 1.397 . S
C1139 C1144 1.363 1_556 S
C1140 H1117 0.950 . S
C1140 C1139 1.397 . S
C1140 C1141 1.334 . S
C1141 H1118 0.950 . S
C1141 C1140 1.334 . S
C1141 C1142 1.287 1_556 S
C1142 C1141 1.287 1_554 S
C1142 C1143 1.524 . S
C1142 H1161 0.913 . S
C1143 H1119 0.950 . S
C1143 C1142 1.524 . S
C1143 C1144 1.415 . S
C1144 H1120 0.950 . S
C1144 C1139 1.363 1_554 S
C1144 C1143 1.415 . S
C1145 H1121 0.951 . S
C1145 C1146 1.366 1_556 S
C1145 C1147 1.388 . S
C1146 C1145 1.366 1_554 S
C1146 C1150 1.385 . S
C1147 H1122 0.951 . S
C1147 C1145 1.388 . S
C1147 C1148 1.366 . S
C1148 C1147 1.366 . S
C1148 C1149 1.414 1_556 S
C1148 C1151 1.499 . S
C1149 H1123 0.950 . S
C1149 C1148 1.414 1_554 S
C1149 C1150 1.374 . S
C1150 H1124 0.950 . S
C1150 C1146 1.385 . S
C1150 C1149 1.374 . S
C1151 C1148 1.499 . S
C1151 C1152 1.373 . S
C1151 C1153 1.389 . S
C1152 H1125 0.946 1_556 S
C1152 C1138 1.377 . S
C1152 C1151 1.373 . S
C1153 C1137 1.377 . S
C1153 C1151 1.389 . S
C1153 C1154 1.524 . S
C1154 C1153 1.524 . S
C1154 C1155 1.397 . S
C1154 C1159 1.363 . S
C1155 H1126 0.950 . S
C1155 C1154 1.397 . S
C1155 C1156 1.334 . S
C1156 H1127 0.943 1_565 S
C1156 C1155 1.334 . S
C1156 C1157 1.287 . S
C1157 C1156 1.287 . S
C1157 C1158 1.524 . S
C1157 H1160 0.999 . S
C1158 H1128 0.950 . S
C1158 C1157 1.524 . S
C1158 C1159 1.415 . S
C1159 H1129 0.950 . S
C1159 C1154 1.363 . S
C1159 C1158 1.415 . S
H1160 C1157 0.999 . S
H1161 C1142 0.913 . S
H1162 C1180 0.951 . S
H1163 C1182 0.951 . S
H1164 C1184 0.950 . S
H1165 C1185 0.950 . S
H1166 C1187 0.950 . S
H1167 C1190 0.950 . S
H1168 C1191 0.950 . S
H1169 C1193 0.950 . S
H1170 C1194 0.950 . S
H1171 C1195 0.951 . S
H1172 C1197 0.951 . S
H1173 C1199 0.950 . S
H1174 C1200 0.950 . S
H1175 C1202 0.950 . S
H1176 C1205 0.950 . S
H1177 C1206 0.950 . S
H1178 C1208 0.950 . S
H1179 C1209 0.950 . S
C1180 H1162 0.951 . S
C1180 C1181 1.366 . S
C1180 C1182 1.388 . S
C1181 C1180 1.366 . S
C1181 C1185 1.385 . S
C1182 H1163 0.951 . S
C1182 C1180 1.388 . S
C1182 C1183 1.366 . S
C1183 C1182 1.366 . S
C1183 C1184 1.414 . S
C1183 C1186 1.499 . S
C1184 H1164 0.950 . S
C1184 C1183 1.414 . S
C1184 C1185 1.374 . S
C1185 H1165 0.950 . S
C1185 C1181 1.385 . S
C1185 C1184 1.374 . S
C1186 C1183 1.499 . S
C1186 C1187 1.373 . S
C1186 C1188 1.389 . S
C1187 H1166 0.950 . S
C1187 C1186 1.373 . S
C1187 C1203 1.377 . S
C1188 C1186 1.389 . S
C1188 C1189 1.524 . S
C1188 C1202 1.377 . S
C1189 C1188 1.524 . S
C1189 C1190 1.397 . S
C1189 C1194 1.363 . S
C1190 H1167 0.950 . S
C1190 C1189 1.397 . S
C1190 C1191 1.334 . S
C1191 H1168 0.950 . S
C1191 C1190 1.334 . S
C1191 C1192 1.287 . S
C1192 C1191 1.287 . S
C1192 C1193 1.524 . S
C1192 H1211 0.913 . S
C1193 H1169 0.950 . S
C1193 C1192 1.524 . S
C1193 C1194 1.415 . S
C1194 H1170 0.950 . S
C1194 C1189 1.363 . S
C1194 C1193 1.415 . S
C1195 H1171 0.951 . S
C1195 C1196 1.366 . S
C1195 C1197 1.388 . S
C1196 C1195 1.366 . S
C1196 C1200 1.385 . S
C1197 H1172 0.951 . S
C1197 C1195 1.388 . S
C1197 C1198 1.366 . S
C1198 C1197 1.366 . S
C1198 C1199 1.414 . S
C1198 C1201 1.499 . S
C1199 H1173 0.950 . S
C1199 C1198 1.414 . S
C1199 C1200 1.374 . S
C1200 H1174 0.950 . S
C1200 C1196 1.385 . S
C1200 C1199 1.374 . S
C1201 C1198 1.499 . S
C1201 C1202 1.373 . S
C1201 C1203 1.389 . S
C1202 H1175 0.950 . S
C1202 C1188 1.377 . S
C1202 C1201 1.373 . S
C1203 C1187 1.377 . S
C1203 C1201 1.389 . S
C1203 C1204 1.524 . S
C1204 C1203 1.524 . S
C1204 C1205 1.397 . S
C1204 C1209 1.363 . S
C1205 H1176 0.950 . S
C1205 C1204 1.397 . S
C1205 C1206 1.334 . S
C1206 H1177 0.950 . S
C1206 C1205 1.334 . S
C1206 C1207 1.287 . S
C1207 C1206 1.287 . S
C1207 C1208 1.524 . S
C1207 H1210 0.999 . S
C1208 H1178 0.950 . S
C1208 C1207 1.524 . S
C1208 C1209 1.415 . S
C1209 H1179 0.950 . S
C1209 C1204 1.363 . S
C1209 C1208 1.415 . S
H1210 C1207 0.999 . S
H1211 C1192 0.913 . S
H1212 C1230 0.951 . S
H1213 C1232 0.951 . S
H1214 C1234 0.950 . S
H1215 C1235 0.950 . S
H1216 C1237 0.950 . S
H1217 C1240 0.950 . S
H1218 C1241 0.950 . S
H1219 C1243 0.950 . S
H1220 C1244 0.950 . S
H1221 C1245 0.951 . S
H1222 C1247 0.951 . S
H1223 C1249 0.950 . S
H1224 C1250 0.950 . S
H1225 C1252 0.950 . S
H1226 C1255 0.950 . S
H1227 C1256 0.950 . S
H1228 C1258 0.950 . S
H1229 C1259 0.950 . S
C1230 H1212 0.951 . S
C1230 C1231 1.366 . S
C1230 C1232 1.388 . S
C1231 C1230 1.366 . S
C1231 C1235 1.385 . S
C1232 H1213 0.951 . S
C1232 C1230 1.388 . S
C1232 C1233 1.366 . S
C1233 C1232 1.366 . S
C1233 C1234 1.414 . S
C1233 C1236 1.499 . S
C1234 H1214 0.950 . S
C1234 C1233 1.414 . S
C1234 C1235 1.374 . S
C1235 H1215 0.950 . S
C1235 C1231 1.385 . S
C1235 C1234 1.374 . S
C1236 C1233 1.499 . S
C1236 C1237 1.373 . S
C1236 C1238 1.389 . S
C1237 H1216 0.950 . S
C1237 C1236 1.373 . S
C1237 C1253 1.377 . S
C1238 C1236 1.389 . S
C1238 C1239 1.524 . S
C1238 C1252 1.377 . S
C1239 C1238 1.524 . S
C1239 C1240 1.397 . S
C1239 C1244 1.363 . S
C1240 H1217 0.950 . S
C1240 C1239 1.397 . S
C1240 C1241 1.334 . S
C1241 H1218 0.950 . S
C1241 C1240 1.334 . S
C1241 C1242 1.287 . S
C1242 C1241 1.287 . S
C1242 C1243 1.524 . S
C1242 H1261 0.913 . S
C1243 H1219 0.950 . S
C1243 C1242 1.524 . S
C1243 C1244 1.415 . S
C1244 H1220 0.950 . S
C1244 C1239 1.363 . S
C1244 C1243 1.415 . S
C1245 H1221 0.951 . S
C1245 C1246 1.366 . S
C1245 C1247 1.388 . S
C1246 C1245 1.366 . S
C1246 C1250 1.385 . S
C1247 H1222 0.951 . S
C1247 C1245 1.388 . S
C1247 C1248 1.366 . S
C1248 C1247 1.366 . S
C1248 C1249 1.414 . S
C1248 C1251 1.499 . S
C1249 H1223 0.950 . S
C1249 C1248 1.414 . S
C1249 C1250 1.374 . S
C1250 H1224 0.950 . S
C1250 C1246 1.385 . S
C1250 C1249 1.374 . S
C1251 C1248 1.499 . S
C1251 C1252 1.373 . S
C1251 C1253 1.389 . S
C1252 H1225 0.950 . S
C1252 C1238 1.377 . S
C1252 C1251 1.373 . S
C1253 C1237 1.377 . S
C1253 C1251 1.389 . S
C1253 C1254 1.524 . S
C1254 C1253 1.524 . S
C1254 C1255 1.397 . S
C1254 C1259 1.363 . S
C1255 H1226 0.950 . S
C1255 C1254 1.397 . S
C1255 C1256 1.334 . S
C1256 H1227 0.950 . S
C1256 C1255 1.334 . S
C1256 C1257 1.287 . S
C1257 C1256 1.287 . S
C1257 C1258 1.524 . S
C1257 H1260 0.999 . S
C1258 H1228 0.950 . S
C1258 C1257 1.524 . S
C1258 C1259 1.415 . S
C1259 H1229 0.950 . S
C1259 C1254 1.363 . S
C1259 C1258 1.415 . S
H1260 C1257 0.999 . S
H1261 C1242 0.913 . S
H1262 C1280 0.951 . S
H1263 C1282 0.951 . S
H1264 C1284 0.950 . S
H1265 C1285 0.950 . S
H1266 C1287 0.950 . S
H1267 C1290 0.950 . S
H1268 C1291 0.950 . S
H1269 C1293 0.950 . S
H1270 C1294 0.950 . S
H1271 C1295 0.951 . S
H1272 C1297 0.951 . S
H1273 C1299 0.950 . S
H1274 C1300 0.950 . S
H1275 C1302 0.950 . S
H1276 C1305 0.950 . S
H1277 C1306 0.950 . S
H1278 C1308 0.950 . S
H1279 C1309 0.950 . S
C1280 H1262 0.951 . S
C1280 C1281 1.366 . S
C1280 C1282 1.388 . S
C1281 C1280 1.366 . S
C1281 C1285 1.385 . S
C1282 H1263 0.951 . S
C1282 C1280 1.388 . S
C1282 C1283 1.366 . S
C1283 C1282 1.366 . S
C1283 C1284 1.414 . S
C1283 C1286 1.499 . S
C1284 H1264 0.950 . S
C1284 C1283 1.414 . S
C1284 C1285 1.374 . S
C1285 H1265 0.950 . S
C1285 C1281 1.385 . S
C1285 C1284 1.374 . S
C1286 C1283 1.499 . S
C1286 C1287 1.373 . S
C1286 C1288 1.389 . S
C1287 H1266 0.950 . S
C1287 C1286 1.373 . S
C1287 C1303 1.377 . S
C1288 C1286 1.389 . S
C1288 C1289 1.524 . S
C1288 C1302 1.377 . S
C1289 C1288 1.524 . S
C1289 C1290 1.397 . S
C1289 C1294 1.363 . S
C1290 H1267 0.950 . S
C1290 C1289 1.397 . S
C1290 C1291 1.334 . S
C1291 H1268 0.950 . S
C1291 C1290 1.334 . S
C1291 C1292 1.287 . S
C1292 C1291 1.287 . S
C1292 C1293 1.524 . S
C1292 H1311 0.913 . S
C1293 H1269 0.950 . S
C1293 C1292 1.524 . S
C1293 C1294 1.415 . S
C1294 H1270 0.950 . S
C1294 C1289 1.363 . S
C1294 C1293 1.415 . S
C1295 H1271 0.951 . S
C1295 C1296 1.366 . S
C1295 C1297 1.388 . S
C1296 C1295 1.366 . S
C1296 C1300 1.385 . S
C1297 H1272 0.951 . S
C1297 C1295 1.388 . S
C1297 C1298 1.366 . S
C1298 C1297 1.366 . S
C1298 C1299 1.414 . S
C1298 C1301 1.499 . S
C1299 H1273 0.950 . S
C1299 C1298 1.414 . S
C1299 C1300 1.374 . S
C1300 H1274 0.950 . S
C1300 C1296 1.385 . S
C1300 C1299 1.374 . S
C1301 C1298 1.499 . S
C1301 C1302 1.373 . S
C1301 C1303 1.389 . S
C1302 H1275 0.950 . S
C1302 C1288 1.377 . S
C1302 C1301 1.373 . S
C1303 C1287 1.377 . S
C1303 C1301 1.389 . S
C1303 C1304 1.524 . S
C1304 C1303 1.524 . S
C1304 C1305 1.397 . S
C1304 C1309 1.363 . S
C1305 H1276 0.950 . S
C1305 C1304 1.397 . S
C1305 C1306 1.334 . S
C1306 H1277 0.950 . S
C1306 C1305 1.334 . S
C1306 C1307 1.287 . S
C1307 C1306 1.287 . S
C1307 C1308 1.524 . S
C1307 H1310 0.999 . S
C1308 H1278 0.950 . S
C1308 C1307 1.524 . S
C1308 C1309 1.415 . S
C1309 H1279 0.950 . S
C1309 C1304 1.363 . S
C1309 C1308 1.415 . S
H1310 C1307 0.999 . S
H1311 C1292 0.913 . S
H1312 C1330 0.951 . S
H1313 C1332 0.951 . S
H1314 C1334 0.950 . S
H1315 C1335 0.950 . S
H1316 C1337 0.950 . S
H1317 C1340 0.950 . S
H1318 C1341 0.950 . S
H1319 C1343 0.950 . S
H1320 C1344 0.950 . S
H1321 C1345 0.951 . S
H1322 C1347 0.951 . S
H1323 C1349 0.950 . S
H1324 C1350 0.950 . S
H1325 C1352 0.950 . S
H1326 C1355 0.950 . S
H1327 C1356 0.950 . S
H1328 C1358 0.950 . S
H1329 C1359 0.950 . S
C1330 H1312 0.951 . S
C1330 C1331 1.366 . S
C1330 C1332 1.388 . S
C1331 C1330 1.366 . S
C1331 C1335 1.385 . S
C1332 H1313 0.951 . S
C1332 C1330 1.388 . S
C1332 C1333 1.366 . S
C1333 C1332 1.366 . S
C1333 C1334 1.414 . S
C1333 C1336 1.499 . S
C1334 H1314 0.950 . S
C1334 C1333 1.414 . S
C1334 C1335 1.374 . S
C1335 H1315 0.950 . S
C1335 C1331 1.385 . S
C1335 C1334 1.374 . S
C1336 C1333 1.499 . S
C1336 C1337 1.373 . S
C1336 C1338 1.389 . S
C1337 H1316 0.950 . S
C1337 C1336 1.373 . S
C1337 C1353 1.377 . S
C1338 C1336 1.389 . S
C1338 C1339 1.524 . S
C1338 C1352 1.377 . S
C1339 C1338 1.524 . S
C1339 C1340 1.397 . S
C1339 C1344 1.363 . S
C1340 H1317 0.950 . S
C1340 C1339 1.397 . S
C1340 C1341 1.334 . S
C1341 H1318 0.950 . S
C1341 C1340 1.334 . S
C1341 C1342 1.287 . S
C1342 C1341 1.287 . S
C1342 C1343 1.524 . S
C1342 H1361 0.913 . S
C1343 H1319 0.950 . S
C1343 C1342 1.524 . S
C1343 C1344 1.415 . S
C1344 H1320 0.950 . S
C1344 C1339 1.363 . S
C1344 C1343 1.415 . S
C1345 H1321 0.951 . S
C1345 C1346 1.366 . S
C1345 C1347 1.388 . S
C1346 C1345 1.366 . S
C1346 C1350 1.385 . S
C1347 H1322 0.951 . S
C1347 C1345 1.388 . S
C1347 C1348 1.366 . S
C1348 C1347 1.366 . S
C1348 C1349 1.414 . S
C1348 C1351 1.499 . S
C1349 H1323 0.950 . S
C1349 C1348 1.414 . S
C1349 C1350 1.374 . S
C1350 H1324 0.950 . S
C1350 C1346 1.385 . S
C1350 C1349 1.374 . S
C1351 C1348 1.499 . S
C1351 C1352 1.373 . S
C1351 C1353 1.389 . S
C1352 H1325 0.950 . S
C1352 C1338 1.377 . S
C1352 C1351 1.373 . S
C1353 C1337 1.377 . S
C1353 C1351 1.389 . S
C1353 C1354 1.524 . S
C1354 C1353 1.524 . S
C1354 C1355 1.397 . S
C1354 C1359 1.363 . S
C1355 H1326 0.950 . S
C1355 C1354 1.397 . S
C1355 C1356 1.334 . S
C1356 H1327 0.950 . S
C1356 C1355 1.334 . S
C1356 C1357 1.287 . S
C1357 C1356 1.287 . S
C1357 C1358 1.524 . S
C1357 H1360 0.999 . S
C1358 H1328 0.950 . S
C1358 C1357 1.524 . S
C1358 C1359 1.415 . S
C1359 H1329 0.950 . S
C1359 C1354 1.363 . S
C1359 C1358 1.415 . S
H1360 C1357 0.999 . S
H1361 C1342 0.913 . S
H1362 C1380 0.951 . S
H1363 C1382 0.951 . S
H1364 C1384 0.950 . S
H1365 C1385 0.950 . S
H1366 C1387 0.950 . S
H1367 C1390 0.950 . S
H1368 C1391 0.950 . S
H1369 C1393 0.950 . S
H1370 C1394 0.950 . S
H1371 C1395 0.951 . S
H1372 C1397 0.951 . S
H1373 C1399 0.950 . S
H1374 C1400 0.950 . S
H1375 C1402 0.950 . S
H1376 C1405 0.950 . S
H1377 C1406 0.950 . S
H1378 C1408 0.950 . S
H1379 C1409 0.950 . S
C1380 H1362 0.951 . S
C1380 C1381 1.366 . S
C1380 C1382 1.388 . S
C1381 C1380 1.366 . S
C1381 C1385 1.385 . S
C1382 H1363 0.951 . S
C1382 C1380 1.388 . S
C1382 C1383 1.366 . S
C1383 C1382 1.366 . S
C1383 C1384 1.414 . S
C1383 C1386 1.499 . S
C1384 H1364 0.950 . S
C1384 C1383 1.414 . S
C1384 C1385 1.374 . S
C1385 H1365 0.950 . S
C1385 C1381 1.385 . S
C1385 C1384 1.374 . S
C1386 C1383 1.499 . S
C1386 C1387 1.373 . S
C1386 C1388 1.389 . S
C1387 H1366 0.950 . S
C1387 C1386 1.373 . S
C1387 C1403 1.377 . S
C1388 C1386 1.389 . S
C1388 C1389 1.524 . S
C1388 C1402 1.377 . S
C1389 C1388 1.524 . S
C1389 C1390 1.397 . S
C1389 C1394 1.363 . S
C1390 H1367 0.950 . S
C1390 C1389 1.397 . S
C1390 C1391 1.334 . S
C1391 H1368 0.950 . S
C1391 C1390 1.334 . S
C1391 C1392 1.287 . S
C1392 C1391 1.287 . S
C1392 C1393 1.524 . S
C1392 H1411 0.913 . S
C1393 H1369 0.950 . S
C1393 C1392 1.524 . S
C1393 C1394 1.415 . S
C1394 H1370 0.950 . S
C1394 C1389 1.363 . S
C1394 C1393 1.415 . S
C1395 H1371 0.951 . S
C1395 C1396 1.366 . S
C1395 C1397 1.388 . S
C1396 C1395 1.366 . S
C1396 C1400 1.385 . S
C1397 H1372 0.951 . S
C1397 C1395 1.388 . S
C1397 C1398 1.366 . S
C1398 C1397 1.366 . S
C1398 C1399 1.414 . S
C1398 C1401 1.499 . S
C1399 H1373 0.950 . S
C1399 C1398 1.414 . S
C1399 C1400 1.374 . S
C1400 H1374 0.950 . S
C1400 C1396 1.385 . S
C1400 C1399 1.374 . S
C1401 C1398 1.499 . S
C1401 C1402 1.373 . S
C1401 C1403 1.389 . S
C1402 H1375 0.950 . S
C1402 C1388 1.377 . S
C1402 C1401 1.373 . S
C1403 C1387 1.377 . S
C1403 C1401 1.389 . S
C1403 C1404 1.524 . S
C1404 C1403 1.524 . S
C1404 C1405 1.397 . S
C1404 C1409 1.363 . S
C1405 H1376 0.950 . S
C1405 C1404 1.397 . S
C1405 C1406 1.334 . S
C1406 H1377 0.950 . S
C1406 C1405 1.334 . S
C1406 C1407 1.287 . S
C1407 C1406 1.287 . S
C1407 C1408 1.524 . S
C1407 H1410 0.999 . S
C1408 H1378 0.950 . S
C1408 C1407 1.524 . S
C1408 C1409 1.415 . S
C1409 H1379 0.950 . S
C1409 C1404 1.363 . S
C1409 C1408 1.415 . S
H1410 C1407 0.999 . S
H1411 C1392 0.913 . S
H1412 C1430 0.951 . S
H1413 C1432 0.951 . S
H1414 C1434 0.950 . S
H1415 C1435 0.950 . S
H1416 C1437 0.950 . S
H1417 C1440 0.950 . S
H1418 C1441 0.950 . S
H1419 C1443 0.950 . S
H1420 C1444 0.950 . S
H1421 C1445 0.951 . S
H1422 C1447 0.951 . S
H1423 C1449 0.950 . S
H1424 C1450 0.950 . S
H1425 C1452 0.950 . S
H1426 C1455 0.950 . S
H1427 C1456 0.950 . S
H1428 C1458 0.950 . S
H1429 C1459 0.950 . S
C1430 H1412 0.951 . S
C1430 C1431 1.366 . S
C1430 C1432 1.388 . S
C1431 C1430 1.366 . S
C1431 C1435 1.385 . S
C1432 H1413 0.951 . S
C1432 C1430 1.388 . S
C1432 C1433 1.366 . S
C1433 C1432 1.366 . S
C1433 C1434 1.414 . S
C1433 C1436 1.499 . S
C1434 H1414 0.950 . S
C1434 C1433 1.414 . S
C1434 C1435 1.374 . S
C1435 H1415 0.950 . S
C1435 C1431 1.385 . S
C1435 C1434 1.374 . S
C1436 C1433 1.499 . S
C1436 C1437 1.373 . S
C1436 C1438 1.389 . S
C1437 H1416 0.950 . S
C1437 C1436 1.373 . S
C1437 C1453 1.377 . S
C1438 C1436 1.389 . S
C1438 C1439 1.524 . S
C1438 C1452 1.377 . S
C1439 C1438 1.524 . S
C1439 C1440 1.397 . S
C1439 C1444 1.363 . S
C1440 H1417 0.950 . S
C1440 C1439 1.397 . S
C1440 C1441 1.334 . S
C1441 H1418 0.950 . S
C1441 C1440 1.334 . S
C1441 C1442 1.287 . S
C1442 C1441 1.287 . S
C1442 C1443 1.524 . S
C1442 H1461 0.913 . S
C1443 H1419 0.950 . S
C1443 C1442 1.524 . S
C1443 C1444 1.415 . S
C1444 H1420 0.950 . S
C1444 C1439 1.363 . S
C1444 C1443 1.415 . S
C1445 H1421 0.951 . S
C1445 C1446 1.366 . S
C1445 C1447 1.388 . S
C1446 C1445 1.366 . S
C1446 C1450 1.385 . S
C1447 H1422 0.951 . S
C1447 C1445 1.388 . S
C1447 C1448 1.366 . S
C1448 C1447 1.366 . S
C1448 C1449 1.414 . S
C1448 C1451 1.499 . S
C1449 H1423 0.950 . S
C1449 C1448 1.414 . S
C1449 C1450 1.374 . S
C1450 H1424 0.950 . S
C1450 C1446 1.385 . S
C1450 C1449 1.374 . S
C1451 C1448 1.499 . S
C1451 C1452 1.373 . S
C1451 C1453 1.389 . S
C1452 H1425 0.950 . S
C1452 C1438 1.377 . S
C1452 C1451 1.373 . S
C1453 C1437 1.377 . S
C1453 C1451 1.389 . S
C1453 C1454 1.524 . S
C1454 C1453 1.524 . S
C1454 C1455 1.397 . S
C1454 C1459 1.363 . S
C1455 H1426 0.950 . S
C1455 C1454 1.397 . S
C1455 C1456 1.334 . S
C1456 H1427 0.950 . S
C1456 C1455 1.334 . S
C1456 C1457 1.287 . S
C1457 C1456 1.287 . S
C1457 C1458 1.524 . S
C1457 H1460 0.999 . S
C1458 H1428 0.950 . S
C1458 C1457 1.524 . S
C1458 C1459 1.415 . S
C1459 H1429 0.950 . S
C1459 C1454 1.363 . S
C1459 C1458 1.415 . S
H1460 C1457 0.999 . S
H1461 C1442 0.913 . S
H1462 C1480 0.951 . S
H1463 C1482 0.951 . S
H1464 C1484 0.950 . S
H1465 C1485 0.950 . S
H1466 C1487 0.950 . S
H1467 C1490 0.950 . S
H1468 C1491 0.950 . S
H1469 C1493 0.950 . S
H1470 C1494 0.950 . S
H1471 C1495 0.951 . S
H1472 C1497 0.951 . S
H1473 C1499 0.950 . S
H1474 C1500 0.950 . S
H1475 C1502 0.950 . S
H1476 C1505 0.950 . S
H1477 C1506 0.950 . S
H1478 C1508 0.950 . S
H1479 C1509 0.950 . S
C1480 H1462 0.951 . S
C1480 C1481 1.366 . S
C1480 C1482 1.388 . S
C1481 C1480 1.366 . S
C1481 C1485 1.385 . S
C1482 H1463 0.951 . S
C1482 C1480 1.388 . S
C1482 C1483 1.366 . S
C1483 C1482 1.366 . S
C1483 C1484 1.414 . S
C1483 C1486 1.499 . S
C1484 H1464 0.950 . S
C1484 C1483 1.414 . S
C1484 C1485 1.374 . S
C1485 H1465 0.950 . S
C1485 C1481 1.385 . S
C1485 C1484 1.374 . S
C1486 C1483 1.499 . S
C1486 C1487 1.373 . S
C1486 C1488 1.389 . S
C1487 H1466 0.950 . S
C1487 C1486 1.373 . S
C1487 C1503 1.377 . S
C1488 C1486 1.389 . S
C1488 C1489 1.524 . S
C1488 C1502 1.377 . S
C1489 C1488 1.524 . S
C1489 C1490 1.397 . S
C1489 C1494 1.363 . S
C1490 H1467 0.950 . S
C1490 C1489 1.397 . S
C1490 C1491 1.334 . S
C1491 H1468 0.950 . S
C1491 C1490 1.334 . S
C1491 C1492 1.287 . S
C1492 C1491 1.287 . S
C1492 C1493 1.524 . S
C1492 H1511 0.913 . S
C1493 H1469 0.950 . S
C1493 C1492 1.524 . S
C1493 C1494 1.415 . S
C1494 H1470 0.950 . S
C1494 C1489 1.363 . S
C1494 C1493 1.415 . S
C1495 H1471 0.951 . S
C1495 C1496 1.366 . S
C1495 C1497 1.388 . S
C1496 C1495 1.366 . S
C1496 C1500 1.385 . S
C1497 H1472 0.951 . S
C1497 C1495 1.388 . S
C1497 C1498 1.366 . S
C1498 C1497 1.366 . S
C1498 C1499 1.414 . S
C1498 C1501 1.499 . S
C1499 H1473 0.950 . S
C1499 C1498 1.414 . S
C1499 C1500 1.374 . S
C1500 H1474 0.950 . S
C1500 C1496 1.385 . S
C1500 C1499 1.374 . S
C1501 C1498 1.499 . S
C1501 C1502 1.373 . S
C1501 C1503 1.389 . S
C1502 H1475 0.950 . S
C1502 C1488 1.377 . S
C1502 C1501 1.373 . S
C1503 C1487 1.377 . S
C1503 C1501 1.389 . S
C1503 C1504 1.524 . S
C1504 C1503 1.524 . S
C1504 C1505 1.397 . S
C1504 C1509 1.363 . S
C1505 H1476 0.950 . S
C1505 C1504 1.397 . S
C1505 C1506 1.334 . S
C1506 H1477 0.950 . S
C1506 C1505 1.334 . S
C1506 C1507 1.287 . S
C1507 C1506 1.287 . S
C1507 C1508 1.524 . S
C1507 H1510 0.999 . S
C1508 H1478 0.950 . S
C1508 C1507 1.524 . S
C1508 C1509 1.415 . S
C1509 H1479 0.950 . S
C1509 C1504 1.363 . S
C1509 C1508 1.415 . S
H1510 C1507 0.999 . S
H1511 C1492 0.913 . S
C331 C6 1.229 . S
C346 C159 1.247 . S
C381 C21 1.550 . S
C396 C208 1.568 . S
C446 C234 1.659 . S
C431 C49 1.594 . S
C481 C68 1.939 . S
C496 C282 1.991 1_655 S
C546 C194 3.235 . S
C531 C2 3.146 . S
C596 C162 0.448 . S
C581 C30 0.495 . S
C646 C283 1.749 . S
C631 C40 1.774 . S
C696 C251 1.291 . S
C681 C63 1.296 . S
C731 C11 1.501 . S
C746 C279 1.644 . S
C796 C211 2.609 . S
C781 C44 2.681 . S
C831 C59 1.902 . S
C846 C163 1.907 . S
C881 C25 1.143 . S
C896 C248 1.127 . S
C946 C168 1.577 . S
C931 C82 1.571 . S
C981 C101 1.221 . S
C996 C199 1.224 . S
C1031 C125 2.156 . S
C1046 C243 2.281 . S
C1081 C144 1.606 . S
C1096 C291 1.691 . S
C1131 C87 1.923 . S
C1146 C203 2.050 1_565 S
C1196 C171 1.984 . S
C1181 C97 2.023 . S
C1246 C274 1.551 . S
C1231 C120 1.590 . S
C1296 C242 1.319 . S
C1281 C135 1.372 . S
C1331 C78 2.039 . S
C1346 C288 2.120 . S
C1396 C202 1.808 . S
C1381 C116 1.851 . S
C1446 C154 2.657 . S
C1431 C139 2.662 . S
C1481 C106 0.796 . S
C1496 C239 0.841 . S
