# Generated by pormake.
# Topology zzz, (3,6)-cn, num edge types: 1
# Building blocks:
#     Node 0, Type 0, BuildingBlock: KAKCAD_clean_linker_0, # of connection points: 3
#     Node 1, Type 0, BuildingBlock: KAKCAD_clean_linker_0, # of connection points: 3
#     Node 2, Type 0, BuildingBlock: KAKCAD_clean_linker_0, # of connection points: 3
#     Node 3, Type 0, BuildingBlock: KAKCAD_clean_linker_0, # of connection points: 3
#     Node 4, Type 0, BuildingBlock: KAKCAD_clean_linker_0, # of connection points: 3
#     Node 5, Type 0, BuildingBlock: KAKCAD_clean_linker_0, # of connection points: 3
#     Node 6, Type 0, BuildingBlock: KAKCAD_clean_linker_0, # of connection points: 3
#     Node 7, Type 0, BuildingBlock: KAKCAD_clean_linker_0, # of connection points: 3
#     Node 8, Type 1, BuildingBlock: BETFAJ_clean_sbu_0, # of connection points: 6
#     Node 9, Type 1, BuildingBlock: BETFAJ_clean_sbu_0, # of connection points: 6
#     Node 10, Type 1, BuildingBlock: BETFAJ_clean_sbu_0, # of connection points: 6
#     Node 11, Type 1, BuildingBlock: BETFAJ_clean_sbu_0, # of connection points: 6
#     Edge 12, Type (0, 1), BuildingBlock: UVAHIK_clean_linker_0, # of connection points: 2
#     Edge 13, Type (0, 1), BuildingBlock: UVAHIK_clean_linker_0, # of connection points: 2
#     Edge 14, Type (0, 1), BuildingBlock: UVAHIK_clean_linker_0, # of connection points: 2
#     Edge 15, Type (0, 1), BuildingBlock: UVAHIK_clean_linker_0, # of connection points: 2
#     Edge 16, Type (0, 1), BuildingBlock: UVAHIK_clean_linker_0, # of connection points: 2
#     Edge 17, Type (0, 1), BuildingBlock: UVAHIK_clean_linker_0, # of connection points: 2
#     Edge 18, Type (0, 1), BuildingBlock: UVAHIK_clean_linker_0, # of connection points: 2
#     Edge 19, Type (0, 1), BuildingBlock: UVAHIK_clean_linker_0, # of connection points: 2
#     Edge 20, Type (0, 1), BuildingBlock: UVAHIK_clean_linker_0, # of connection points: 2
#     Edge 21, Type (0, 1), BuildingBlock: UVAHIK_clean_linker_0, # of connection points: 2
#     Edge 22, Type (0, 1), BuildingBlock: UVAHIK_clean_linker_0, # of connection points: 2
#     Edge 23, Type (0, 1), BuildingBlock: UVAHIK_clean_linker_0, # of connection points: 2
#     Edge 24, Type (0, 1), BuildingBlock: UVAHIK_clean_linker_0, # of connection points: 2
#     Edge 25, Type (0, 1), BuildingBlock: UVAHIK_clean_linker_0, # of connection points: 2
#     Edge 26, Type (0, 1), BuildingBlock: UVAHIK_clean_linker_0, # of connection points: 2
#     Edge 27, Type (0, 1), BuildingBlock: UVAHIK_clean_linker_0, # of connection points: 2
#     Edge 28, Type (0, 1), BuildingBlock: UVAHIK_clean_linker_0, # of connection points: 2
#     Edge 29, Type (0, 1), BuildingBlock: UVAHIK_clean_linker_0, # of connection points: 2
#     Edge 30, Type (0, 1), BuildingBlock: UVAHIK_clean_linker_0, # of connection points: 2
#     Edge 31, Type (0, 1), BuildingBlock: UVAHIK_clean_linker_0, # of connection points: 2
#     Edge 32, Type (0, 1), BuildingBlock: UVAHIK_clean_linker_0, # of connection points: 2
#     Edge 33, Type (0, 1), BuildingBlock: UVAHIK_clean_linker_0, # of connection points: 2
#     Edge 34, Type (0, 1), BuildingBlock: UVAHIK_clean_linker_0, # of connection points: 2
#     Edge 35, Type (0, 1), BuildingBlock: UVAHIK_clean_linker_0, # of connection points: 2
# Relax obj value: 0.413
# Max RMSD: 0.274
# Mean RMSD: 0.252
data_MOF--net-zzz--node1-BETFAJ_clean_sbu_0--node2-KAKCAD_clean_linker_0--edge1-UVAHIK_clean_linker_0
_symmetry_space_group_name_H-M    P1
_symmetry_Int_Tables_number       1
_symmetry_cell_setting            triclinic
loop_
_symmetry_equiv_pos_as_xyz
'x, y, z'
_cell_length_a     74.494254
_cell_length_b     74.448724
_cell_length_c     22.597465
_cell_angle_alpha  89.996515
_cell_angle_beta   89.920075
_cell_angle_gamma 90.053691
loop_
_atom_site_label
_atom_site_type_symbol
_atom_site_fract_x
_atom_site_fract_y
_atom_site_fract_z
_atom_type_partial_charge
C0 C 0.76688 0.45163 0.07934 0.0
C1 C 0.78059 0.44104 0.10405 0.0
C2 C 0.75575 0.46199 0.11551 0.0
C3 C 0.75787 0.46178 0.17735 0.0
C4 C 0.77035 0.44981 0.20222 0.0
C5 C 0.78167 0.43966 0.16603 0.0
C6 C 0.74876 0.4755 0.21475 0.0
C7 C 0.73137 0.48143 0.20151 0.0
C8 C 0.72383 0.49621 0.2312 0.0
C9 C 0.73375 0.50503 0.27559 0.0
C10 C 0.75085 0.49859 0.29134 0.0
C11 C 0.75822 0.484 0.2605 0.0
C12 C 0.76189 0.50709 0.33804 0.0
C13 C 0.7686 0.52457 0.33071 0.0
C14 C 0.76848 0.49646 0.38447 0.0
C15 C 0.78233 0.5027 0.4206 0.0
C16 C 0.79004 0.51969 0.41079 0.0
C17 C 0.70587 0.50248 0.21246 0.0
C18 C 0.70381 0.51927 0.18503 0.0
C19 C 0.6914 0.49041 0.21276 0.0
C20 C 0.67554 0.49454 0.18291 0.0
C21 C 0.67389 0.51072 0.15123 0.0
C22 C 0.68795 0.52335 0.15452 0.0
C23 C 0.78262 0.5308 0.36668 0.0
H24 H 0.76537 0.45268 0.03181 0.0
H25 H 0.74631 0.47102 0.09458 0.0
H26 H 0.77203 0.44895 0.24974 0.0
H27 H 0.79204 0.43169 0.18685 0.0
H28 H 0.7238 0.47489 0.16668 0.0
H29 H 0.77183 0.47988 0.27055 0.0
H30 H 0.72811 0.51654 0.29828 0.0
H31 H 0.76386 0.53293 0.29475 0.0
H32 H 0.7636 0.48286 0.39058 0.0
H33 H 0.78779 0.49369 0.45361 0.0
H34 H 0.71489 0.52869 0.1837 0.0
H35 H 0.6927 0.47739 0.23376 0.0
H36 H 0.78813 0.54404 0.35842 0.0
H37 H 0.68718 0.53591 0.13048 0.0
H38 H 0.66483 0.48469 0.18264 0.0
C39 C 0.06219 0.76821 0.09416 0.0
C40 C 0.07413 0.78114 0.11681 0.0
C41 C 0.05157 0.75791 0.13223 0.0
C42 C 0.0529 0.76004 0.19393 0.0
C43 C 0.06622 0.77154 0.21649 0.0
C44 C 0.0766 0.78208 0.17845 0.0
C45 C 0.03907 0.75213 0.23382 0.0
C46 C 0.03135 0.73535 0.22166 0.0
C47 C 0.01654 0.72912 0.2542 0.0
C48 C 0.00948 0.73964 0.30048 0.0
C49 C 0.01756 0.75619 0.31473 0.0
C50 C 0.0322 0.76228 0.28101 0.0
C51 C 0.01055 0.76815 0.36193 0.0
C52 C 0.99296 0.77487 0.35929 0.0
C53 C 0.02248 0.77535 0.40378 0.0
C54 C 0.01739 0.7898 0.43943 0.0
C55 C 1.00023 0.79749 0.43392 0.0
C56 C 0.0083 0.71198 0.23594 0.0
C57 C 0.99515 0.71197 0.19162 0.0
C58 C 0.01622 0.6957 0.25281 0.0
C59 C 0.01176 0.67974 0.22353 0.0
C60 C 0.99949 0.67984 0.17614 0.0
C61 C 0.99075 0.69605 0.16204 0.0
C62 C 0.98786 0.78945 0.39484 0.0
H63 H 0.06027 0.76677 0.04691 0.0
H64 H 0.04151 0.74919 0.113 0.0
H65 H 0.06797 0.77315 0.26377 0.0
H66 H 0.08562 0.79184 0.19782 0.0
H67 H 0.03655 0.72722 0.18572 0.0
H68 H 0.0376 0.77554 0.28982 0.0
H69 H 0.99788 0.73498 0.32512 0.0
H70 H 0.98356 0.76964 0.32705 0.0
H71 H 0.03614 0.77044 0.40652 0.0
H72 H 0.02734 0.79567 0.46849 0.0
H73 H 0.98918 0.72448 0.17712 0.0
H74 H 0.0266 0.6955 0.28632 0.0
H75 H 0.97446 0.79489 0.39007 0.0
H76 H 0.9814 0.69674 0.12546 0.0
H77 H 0.01852 0.66748 0.23632 0.0
C78 C 0.75395 1.00489 0.02744 0.0
C79 C 0.74365 0.02044 0.01849 0.0
C80 C 0.76152 1.00138 0.08277 0.0
C81 C 0.7587 0.01327 0.13017 0.0
C82 C 0.74899 0.02914 0.12059 0.0
C83 C 0.7416 0.03273 0.0652 0.0
C84 C 0.76534 0.00886 0.19003 0.0
C85 C 0.78303 1.0033 0.19819 0.0
C86 C 0.78957 0.99932 0.25483 0.0
C87 C 0.77805 1.00067 0.30428 0.0
C88 C 0.76003 1.00611 0.29637 0.0
C89 C 0.75394 0.0102 0.23906 0.0
C90 C 0.74694 0.00733 0.34602 0.0
C91 C 0.74357 0.99256 0.3831 0.0
C92 C 0.73565 0.0224 0.35007 0.0
C93 C 0.72057 0.02222 0.38677 0.0
C94 C 0.71637 1.00701 0.42109 0.0
C95 C 0.80885 0.99487 0.25932 0.0
C96 C 0.81526 0.97958 0.22973 0.0
C97 C 0.82105 0.00831 0.27584 0.0
C98 C 0.83901 0.00736 0.25752 0.0
C99 C 0.84502 0.99295 0.22223 0.0
C100 C 0.83317 0.97859 0.2115 0.0
C101 C 0.72843 0.99239 0.42027 0.0
H102 H 0.75571 0.9952 0.99212 0.0
H103 H 0.76897 0.98904 0.08915 0.0
H104 H 0.74682 0.0386 0.15631 0.0
H105 H 0.73351 0.04471 0.05982 0.0
H106 H 0.79197 1.00256 0.16031 0.0
H107 H 0.74005 0.01404 0.23227 0.0
H108 H 0.78306 0.99767 0.34817 0.0
H109 H 0.75199 0.98073 0.38074 0.0
H110 H 0.73796 0.03402 0.3222 0.0
H111 H 0.71166 0.03369 0.38533 0.0
H112 H 0.80599 0.9692 0.21558 0.0
H113 H 0.81635 0.02036 0.29779 0.0
H114 H 0.72587 0.98057 0.44687 0.0
H115 H 0.83721 0.96733 0.18423 0.0
H116 H 0.84787 0.01849 0.26751 0.0
C117 C 0.49699 0.74506 0.41251 0.0
C118 C 0.51399 0.73687 0.41012 0.0
C119 C 0.49328 0.76027 0.37836 0.0
C120 C 0.50651 0.7678 0.34166 0.0
C121 C 0.52386 0.76046 0.34221 0.0
C122 C 0.52756 0.7451 0.37604 0.0
C123 C 0.50105 0.7802 0.29372 0.0
C124 C 0.50666 0.79829 0.29109 0.0
C125 C 0.50084 0.80926 0.24401 0.0
C126 C 0.48997 0.80198 0.19942 0.0
C127 C 0.48477 0.78393 0.20081 0.0
C128 C 0.49019 0.77322 0.24853 0.0
C129 C 0.47469 0.77591 0.15074 0.0
C130 C 0.46111 0.76319 0.1611 0.0
C131 C 0.47954 0.77992 0.09204 0.0
C132 C 0.47177 0.7706 0.04497 0.0
C133 C 0.45904 0.75703 0.05561 0.0
C134 C 0.50583 0.82839 0.23817 0.0
C135 C 0.49252 0.84146 0.24686 0.0
C136 C 0.52154 0.83307 0.20746 0.0
C137 C 0.52319 0.85006 0.18123 0.0
C138 C 0.50904 0.86254 0.18487 0.0
C139 C 0.49413 0.85839 0.22063 0.0
C140 C 0.45338 0.75383 0.11406 0.0
H141 H 0.48617 0.73903 0.43765 0.0
H142 H 0.47971 0.76551 0.37776 0.0
H143 H 0.53418 0.76585 0.31341 0.0
H144 H 0.54085 0.73925 0.37369 0.0
H145 H 0.51519 0.80378 0.32542 0.0
H146 H 0.48651 0.75912 0.24964 0.0
H147 H 0.48565 0.81046 0.1631 0.0
H148 H 0.45687 0.76003 0.20578 0.0
H149 H 0.49002 0.7896 0.08252 0.0
H150 H 0.47627 0.77351 1.00038 0.0
H151 H 0.48015 0.83803 0.26949 0.0
H152 H 0.53178 0.82305 0.19905 0.0
H153 H 0.44373 0.74336 0.12392 0.0
H154 H 0.48312 0.8678 0.22488 0.0
H155 H 0.53479 0.85279 0.15371 0.0
C156 C 0.24516 0.45598 0.26662 0.0
C157 C 0.23413 0.4415 0.24965 0.0
C158 C 0.25797 0.46288 0.22759 0.0
C159 C 0.25989 0.45552 0.17078 0.0
C160 C 0.25029 0.4399 0.15617 0.0
C161 C 0.23762 0.43286 0.19548 0.0
C162 C 0.26914 0.466 0.12419 0.0
C163 C 0.28606 0.47357 0.13404 0.0
C164 C 0.29347 0.48573 0.09333 0.0
C165 C 0.28369 0.49062 0.04243 0.0
C166 C 0.26672 0.48285 0.03172 0.0
C167 C 0.25975 0.47047 0.07266 0.0
C168 C 0.25504 0.48838 0.98157 0.0
C169 C 0.25076 0.50654 0.97237 0.0
C170 C 0.24554 0.47523 0.94983 0.0
C171 C 0.23107 0.47994 0.91384 0.0
C172 C 0.22578 0.49799 0.90803 0.0
C173 C 0.31114 0.49361 0.10735 0.0
C174 C 0.31215 0.50847 0.14533 0.0
C175 C 0.32683 0.48407 0.09373 0.0
C176 C 0.34316 0.48874 0.1202 0.0
C177 C 0.34405 0.50293 0.16132 0.0
C178 C 0.32846 0.51314 0.17191 0.0
C179 C 0.23628 0.5113 0.9359 0.0
H180 H 0.24283 0.46309 0.3077 0.0
H181 H 0.26514 0.47498 0.23985 0.0
H182 H 0.25174 0.43386 0.11282 0.0
H183 H 0.22968 0.42142 0.18165 0.0
H184 H 0.29332 0.4703 0.1742 0.0
H185 H 0.2463 0.4652 0.06642 0.0
H186 H 0.28918 0.50039 0.01179 0.0
H187 H 0.25779 0.51697 0.99642 0.0
H188 H 0.24859 0.46112 0.95585 0.0
H189 H 0.22336 0.46922 0.89378 0.0
H190 H 0.3001 0.51573 0.1574 0.0
H191 H 0.32624 0.47237 0.06527 0.0
H192 H 0.2329 0.52538 0.93149 0.0
H193 H 0.32855 0.52401 0.20376 0.0
H194 H 0.35494 0.48076 0.11034 0.0
C195 C 0.05118 0.26826 0.31049 0.0
C196 C 0.06175 0.25265 0.30797 0.0
C197 C 0.04841 0.27861 0.25986 0.0
C198 C 0.05642 0.27377 0.20575 0.0
C199 C 0.06858 0.25934 0.20496 0.0
C200 C 0.07113 0.24882 0.2554 0.0
C201 C 0.05024 0.28215 0.14957 0.0
C202 C 0.04527 0.30027 0.14767 0.0
C203 C 0.03644 0.30741 0.09823 0.0
C204 C 0.03291 0.29639 0.04888 0.0
C205 C 0.03863 0.27833 0.04906 0.0
C206 C 0.04714 0.27141 0.09958 0.0
C207 C 0.03483 0.26572 0.99965 0.0
C208 C 0.01712 0.26206 0.98224 0.0
C209 C 0.04874 0.25489 0.97754 0.0
C210 C 0.04496 0.23995 0.94225 0.0
C211 C 0.02713 0.23542 0.9282 0.0
C212 C 0.02981 0.32603 0.10294 0.0
C213 C 0.01375 0.32922 0.13355 0.0
C214 C 0.04148 0.34043 0.09171 0.0
C215 C 0.03766 0.35757 0.11405 0.0
C216 C 0.02225 0.36053 0.14899 0.0
C217 C 0.00999 0.34627 0.15633 0.0
C218 C 0.01329 0.24702 0.94695 0.0
H219 H 0.0441 0.27185 0.35068 0.0
H220 H 0.03894 0.28961 0.26242 0.0
H221 H 0.07536 0.25553 0.16444 0.0
H222 H 0.0794 0.23692 0.25164 0.0
H223 H 0.04767 0.30881 0.18574 0.0
H224 H 0.05036 0.25722 0.10105 0.0
H225 H 0.02576 0.30175 0.0111 0.0
H226 H 1.00613 0.2701 0.99911 0.0
H227 H 0.06252 0.25738 0.99052 0.0
H228 H 0.05598 0.23133 0.92927 0.0
H229 H 1.00481 0.31818 0.144 0.0
H230 H 0.05412 0.33816 0.06916 0.0
H231 H 0.99943 0.24409 0.93623 0.0
H232 H 0.99811 0.34784 0.18349 0.0
H233 H 0.04724 0.36826 0.10643 0.0
C234 C 0.25681 0.94777 0.22146 0.0
C235 C 0.27522 0.95127 0.22806 0.0
C236 C 0.24587 0.95997 0.191 0.0
C237 C 0.25318 0.97591 0.16749 0.0
C238 C 0.27145 0.97964 0.17679 0.0
C239 C 0.28234 0.96742 0.20629 0.0
C240 C 0.24219 0.98848 0.13159 0.0
C241 C 0.22452 0.99275 0.14746 0.0
C242 C 0.21445 1.00522 0.11437 0.0
C243 C 0.22246 0.01374 0.06499 0.0
C244 C 0.24012 0.00923 0.04832 0.0
C245 C 0.24968 0.99657 0.08139 0.0
C246 C 0.24949 0.01715 0.99686 0.0
C247 C 0.25141 1.00677 0.94541 0.0
C248 C 0.26111 0.03176 0.00581 0.0
C249 C 0.27536 0.03497 0.96659 0.0
C250 C 0.27834 0.02348 0.91811 0.0
C251 C 0.1957 0.0091 0.13327 0.0
C252 C 0.18421 0.9948 0.14798 0.0
C253 C 0.18981 0.02677 0.1432 0.0
C254 C 0.17317 0.02998 0.17057 0.0
C255 C 0.16207 0.01558 0.18809 0.0
C256 C 0.16766 0.99798 0.17502 0.0
C257 C 0.26566 0.00992 0.90633 0.0
H258 H 0.25105 0.93543 0.23832 0.0
H259 H 0.23184 0.9567 0.18447 0.0
H260 H 0.27742 0.99201 0.16095 0.0
H261 H 0.29643 0.9706 0.21217 0.0
H262 H 0.21872 0.98672 0.18675 0.0
H263 H 0.26317 0.99303 0.06758 0.0
H264 H 0.21496 0.02345 0.0393 0.0
H265 H 0.24286 0.99519 0.93829 0.0
H266 H 0.26019 0.03964 0.04602 0.0
H267 H 0.28491 0.04546 0.97723 0.0
H268 H 0.18834 0.98103 0.1405 0.0
H269 H 0.19842 0.03805 0.13251 0.0
H270 H 0.26742 1.00099 0.86893 0.0
H271 H 0.15967 0.9865 0.18833 0.0
H272 H 0.16921 0.04372 0.17927 0.0
C273 C 0.47754 0.29124 0.91008 0.0
C274 C 0.49409 0.29528 0.88308 0.0
C275 C 0.47592 0.27662 0.94857 0.0
C276 C 0.49073 0.26555 0.96073 0.0
C277 C 0.50692 0.2687 0.9306 0.0
C278 C 0.50861 0.28346 0.89224 0.0
C279 C 0.49022 0.25362 0.01335 0.0
C280 C 0.49338 0.23492 0.01027 0.0
C281 C 0.49309 0.22453 0.06259 0.0
C282 C 0.48963 0.23288 0.11703 0.0
C283 C 0.48681 0.25136 0.1205 0.0
C284 C 0.48704 0.26163 0.06866 0.0
C285 C 0.4845 0.26003 0.17878 0.0
C286 C 0.47191 0.25344 0.2198 0.0
C287 C 0.49522 0.27479 0.19402 0.0
C288 C 0.49331 0.28296 0.24909 0.0
C289 C 0.48051 0.27664 0.28985 0.0
C290 C 0.49642 0.20494 0.06393 0.0
C291 C 0.48282 0.19294 0.04728 0.0
C292 C 0.51086 0.19854 0.09769 0.0
C293 C 0.5108 0.181 0.11965 0.0
C294 C 0.49631 0.16936 0.10808 0.0
C295 C 0.48281 0.17526 0.06885 0.0
C296 C 0.4698 0.26181 0.27479 0.0
H297 H 0.46611 0.30006 0.90472 0.0
H298 H 0.46334 0.27459 0.97178 0.0
H299 H 0.51861 0.26052 0.93982 0.0
H300 H 0.52149 0.28602 0.87161 0.0
H301 H 0.49609 0.22858 0.96803 0.0
H302 H 0.48491 0.27602 0.07145 0.0
H303 H 0.48955 0.22494 0.15732 0.0
H304 H 0.46349 0.24204 0.20887 0.0
H305 H 0.50515 0.27997 0.16335 0.0
H306 H 0.50152 0.29459 0.25914 0.0
H307 H 0.47142 0.19765 0.02192 0.0
H308 H 0.52137 0.20765 0.11185 0.0
H309 H 0.45978 0.25677 0.30537 0.0
H310 H 0.47165 0.16659 0.05761 0.0
H311 H 0.52139 0.17722 0.14988 0.0
Sm312 Sm 0.01429 0.00788 0.762 0.0
Sm313 Sm 0.99 0.02033 0.65172 0.0
C314 C 0.02529 0.99487 0.86405 0.0
C315 C 0.03707 0.97985 0.87983 0.0
C316 C 0.04069 0.96632 0.83834 0.0
C317 C 0.05162 0.95182 0.85345 0.0
C318 C 0.05925 0.95066 0.91024 0.0
C319 C 0.05592 0.96453 0.95118 0.0
C320 C 0.04489 0.97901 0.93605 0.0
C321 C 0.03508 0.01156 0.66065 0.0
C322 C 0.99849 0.97783 0.66573 0.0
C323 C 0.97823 0.03764 0.55824 0.0
C324 C 0.98398 0.05537 0.53539 0.0
C325 C 0.9977 0.05651 0.49274 0.0
C326 C 1.00592 0.07297 0.48047 0.0
C327 C 1.00053 0.0886 0.51044 0.0
C328 C 0.98599 0.08768 0.54991 0.0
C329 C 0.97774 0.07126 0.56209 0.0
C330 C 0.97205 0.00972 0.75219 0.0
C331 C 0.00845 0.05078 0.74019 0.0
O332 O 0.00991 0.99038 0.83981 0.0
O333 O 0.0332 0.00844 0.83769 0.0
O334 O 0.0186 0.01427 0.66713 0.0
O335 O 0.04159 1.00626 0.71096 0.0
O336 O 1.0044 0.98115 0.72011 0.0
O337 O 0.99396 0.99075 0.62837 0.0
O338 O 0.9902 0.02475 0.55467 0.0
O339 O 0.96966 0.03771 0.609 0.0
O340 O 0.98633 0.01884 0.75062 0.0
O341 O 0.96601 1.00683 0.69897 0.0
O342 O 1.00204 0.04682 0.68716 0.0
O343 O 0.01234 0.03825 0.77972 0.0
H344 H 0.03485 0.96684 0.79447 0.0
H345 H 0.05363 0.94127 0.82114 0.0
H346 H 0.06177 0.96417 0.995 0.0
H347 H 0.04237 0.98947 0.96832 0.0
H348 H 1.00276 0.04454 0.47115 0.0
H349 H 0.01709 0.07327 0.44974 0.0
H350 H 0.9813 0.0996 0.57267 0.0
H351 H 0.96708 0.07093 0.59472 0.0
Sm352 Sm 0.50144 0.02906 0.69648 0.0
Sm353 Sm 0.4888 1.00336 0.5916 0.0
C354 C 0.51896 0.04428 0.78442 0.0
C355 C 0.53782 0.04237 0.80192 0.0
C356 C 0.5468 0.0261 0.79168 0.0
C357 C 0.56542 0.02516 0.79648 0.0
C358 C 0.57546 0.04046 0.81177 0.0
C359 C 0.56631 0.05652 0.825 0.0
C360 C 0.54763 0.05747 0.8198 0.0
C361 C 0.49103 0.04559 0.59305 0.0
C362 C 0.53162 0.00966 0.60966 0.0
C363 C 0.47527 0.99022 0.49324 0.0
C364 C 0.46049 0.97761 0.48156 0.0
C365 C 0.44506 0.9777 0.51726 0.0
C366 C 0.43117 0.96554 0.50676 0.0
C367 C 0.43251 0.95285 0.46084 0.0
C368 C 0.44821 0.95254 0.42602 0.0
C369 C 0.46206 0.96485 0.43628 0.0
C370 C 0.49284 0.98367 0.69509 0.0
C371 C 0.45908 0.02026 0.68655 0.0
O372 O 0.5087 0.03012 0.79172 0.0
O373 O 0.51667 0.05208 0.73311 0.0
O374 O 0.50013 0.03136 0.59673 0.0
O375 O 0.48759 0.05201 0.64538 0.0
O376 O 0.52784 0.01637 0.66245 0.0
O377 O 0.51896 1.00572 0.57076 0.0
O378 O 0.47067 1.00597 0.51465 0.0
O379 O 0.48939 0.98326 0.51913 0.0
O380 O 0.49536 1.00014 0.68723 0.0
O381 O 0.48762 0.97665 0.64554 0.0
O382 O 0.46227 0.01427 0.63218 0.0
O383 O 0.47213 0.02484 0.72327 0.0
H384 H 0.53954 0.01429 0.77713 0.0
H385 H 0.57196 0.01262 0.78544 0.0
H386 H 0.57359 0.06846 0.83817 0.0
H387 H 0.54093 0.07018 0.8274 0.0
H388 H 0.44365 0.98727 0.55311 0.0
H389 H 0.4192 0.96643 0.53381 0.0
H390 H 0.4498 0.94281 0.3908 0.0
H391 H 0.47401 0.9644 0.40892 0.0
Sm392 Sm 0.49991 0.52244 0.71444 0.0
Sm393 Sm 0.52092 0.51067 0.59606 0.0
C394 C 0.49291 0.53663 0.8183 0.0
C395 C 0.48318 0.5531 0.83426 0.0
C396 C 0.46757 0.5581 0.80349 0.0
C397 C 0.46028 0.57522 0.81092 0.0
C398 C 0.46864 0.58768 0.84846 0.0
C399 C 0.4838 0.58238 0.8811 0.0
C400 C 0.49098 0.5652 0.87414 0.0
C401 C 0.4764 0.52018 0.61963 0.0
C402 C 0.51372 0.55312 0.61568 0.0
C403 C 0.52907 0.4926 0.50036 0.0
C404 C 0.52037 0.47561 0.48378 0.0
C405 C 0.5024 0.47276 0.50021 0.0
C406 C 0.49505 0.45558 0.49943 0.0
C407 C 0.50548 0.4408 0.48193 0.0
C408 C 0.52317 0.44384 0.462 0.0
C409 C 0.5306 0.46111 0.46335 0.0
C410 C 0.54165 0.51953 0.692 0.0
C411 C 0.50402 0.47985 0.68836 0.0
O412 O 0.50808 0.53941 0.79014 0.0
O413 O 0.48333 0.52345 0.79592 0.0
O414 O 0.49299 0.51736 0.62047 0.0
O415 O 0.47124 0.52432 0.67283 0.0
O416 O 0.50881 0.54927 0.67079 0.0
O417 O 0.51749 0.54059 0.57598 0.0
O418 O 0.51878 0.50689 0.49884 0.0
O419 O 0.53874 0.4916 0.54862 0.0
O420 O 0.52707 0.51093 0.69326 0.0
O421 O 0.54658 0.52275 0.63764 0.0
O422 O 0.50887 0.48427 0.63383 0.0
O423 O 0.50158 0.49204 0.73021 0.0
H424 H 0.46146 0.5491 0.77166 0.0
H425 H 0.44866 0.57903 0.78499 0.0
H426 H 0.49037 0.59172 0.9108 0.0
H427 H 0.50311 0.56165 0.89779 0.0
H428 H 0.49431 0.48362 0.51763 0.0
H429 H 0.48152 0.45382 0.51602 0.0
H430 H 0.53146 0.43281 0.44691 0.0
H431 H 0.54456 0.46298 0.45129 0.0
Sm432 Sm 1.00057 0.50658 0.72298 0.0
Sm433 Sm 0.01288 0.52951 0.60976 0.0
C434 C 0.99261 0.49066 0.82405 0.0
C435 C 0.97797 0.47875 0.84253 0.0
C436 C 0.96355 0.4755 0.8042 0.0
C437 C 0.94932 0.46456 0.82208 0.0
C438 C 0.94928 0.45664 0.87862 0.0
C439 C 0.964 0.45966 0.9164 0.0
C440 C 0.97824 0.47065 0.89842 0.0
C441 C 1.00269 0.4887 0.61697 0.0
C442 C 0.96968 0.52344 0.63721 0.0
C443 C 0.02478 0.53568 0.50212 0.0
C444 C 0.04 0.52745 0.46984 0.0
C445 C 0.03761 0.51156 0.43711 0.0
C446 C 0.05245 0.50186 0.41678 0.0
C447 C 0.06996 0.50795 0.4284 0.0
C448 C 0.07228 0.52448 0.45746 0.0
C449 C 0.05748 0.53416 0.47766 0.0
C450 C 1.00508 0.55211 0.70381 0.0
C451 C 0.0435 0.5166 0.70416 0.0
O452 O 0.98791 0.50721 0.81173 0.0
O453 O 1.00381 0.48383 0.78538 0.0
O454 O 0.01374 0.50025 0.6354 0.0
O455 O 0.99024 0.48568 0.65597 0.0
O456 O 0.97349 0.51774 0.69133 0.0
O457 O 0.98226 0.52681 0.59707 0.0
O458 O 0.01098 0.52516 0.51281 0.0
O459 O 0.02905 0.54581 0.54753 0.0
O460 O 1.00431 0.53529 0.70202 0.0
O461 O 0.00992 0.55803 0.65201 0.0
O462 O 0.04012 0.52186 0.64945 0.0
O463 O 0.03063 0.51193 0.7417 0.0
H464 H 0.96317 0.48166 0.76077 0.0
H465 H 0.93808 0.46277 0.79228 0.0
H466 H 0.96445 0.45362 0.95996 0.0
H467 H 0.98937 0.47295 0.92831 0.0
H468 H 0.0243 0.50615 0.42951 0.0
H469 H 0.05024 0.48938 0.3933 0.0
H470 H 0.08558 0.52954 0.4674 0.0
H471 H 0.05984 0.54645 0.50214 0.0
C472 C 0.14516 0.03133 0.26983 0.0
C473 C 0.14545 0.01853 0.22398 0.0
C474 C 0.13064 0.03221 0.30922 0.0
C475 C 0.09694 1.00251 0.37405 0.0
H476 H 0.0768 0.04606 0.4409 0.0
C477 C 0.06211 1.00425 0.60074 0.0
C478 C 0.04548 0.013 0.60511 0.0
C479 C 0.07235 1.00549 0.54912 0.0
C480 C 0.08218 0.0338 0.42219 0.0
H481 H 0.1299 0.9976 0.18106 0.0
H482 H 0.1048 0.99894 0.25031 0.0
H483 H 0.098 0.04802 0.35781 0.0
H484 H 0.02664 0.03025 0.55952 0.0
H485 H 0.04485 0.03276 0.46887 0.0
H486 H 0.08166 0.98832 0.43942 0.0
C487 C 0.11594 0.00813 0.25621 0.0
C488 C 0.0944 0.03492 0.37498 0.0
C489 C 0.13037 0.00734 0.21661 0.0
C490 C 0.03933 0.02322 0.55694 0.0
C491 C 0.04979 0.02474 0.50538 0.0
C492 C 0.08498 1.00142 0.42161 0.0
C493 C 0.11611 0.02024 0.30392 0.0
C494 C 0.10205 0.01927 0.35077 0.0
C495 C 0.06636 0.01577 0.5009 0.0
C496 C 0.07765 0.01704 0.44674 0.0
H497 H 0.15658 0.04005 0.27737 0.0
H498 H 0.13124 0.04161 0.34575 0.0
H499 H 0.10272 0.99022 0.3569 0.0
H500 H 0.0672 0.99632 0.63725 0.0
H501 H 0.08514 0.9986 0.54724 0.0
C502 C 0.50931 0.14275 0.16291 0.0
C503 C 0.49421 0.15241 0.14318 0.0
C504 C 0.50754 0.12896 0.20468 0.0
C505 C 0.47572 0.11349 0.32147 0.0
H506 H 0.50994 0.07462 0.33643 0.0
C507 C 0.48336 0.07394 0.53938 0.0
C508 C 0.48874 0.05589 0.53752 0.0
C509 C 0.48267 0.0842 0.48757 0.0
C510 C 0.50005 0.0852 0.33267 0.0
H511 H 0.46516 0.15403 0.14989 0.0
H512 H 0.46201 0.12942 0.21925 0.0
H513 H 0.51093 0.09395 0.24984 0.0
H514 H 0.497 0.0342 0.47974 0.0
H515 H 0.49512 0.05185 0.38887 0.0
H516 H 0.46445 0.10442 0.40317 0.0
C517 C 0.47536 0.13297 0.20435 0.0
C518 C 0.50081 0.09653 0.28318 0.0
C519 C 0.47716 0.14695 0.16333 0.0
C520 C 0.49287 0.04812 0.48252 0.0
C521 C 0.49195 0.05832 0.43048 0.0
C522 C 0.47481 0.10204 0.37046 0.0
C523 C 0.49056 0.12418 0.22731 0.0
C524 C 0.48884 0.11105 0.27728 0.0
C525 C 0.48708 0.07661 0.43229 0.0
C526 C 0.48717 0.08792 0.37746 0.0
H527 H 0.52265 0.14622 0.14765 0.0
H528 H 0.51963 0.12264 0.22109 0.0
H529 H 0.46639 0.12461 0.31941 0.0
H530 H 0.4802 0.08033 0.58117 0.0
H531 H 0.47918 0.09826 0.49134 0.0
C532 C 0.36601 0.52329 0.21371 0.0
C533 C 0.36051 0.50588 0.19761 0.0
C534 C 0.38028 0.52583 0.25314 0.0
C535 C 0.41878 0.50259 0.32562 0.0
H536 H 0.41103 0.53784 0.44925 0.0
C537 C 0.47127 0.51684 0.51024 0.0
C538 C 0.46441 0.51902 0.56766 0.0
C539 C 0.45969 0.51598 0.46149 0.0
C540 C 0.41339 0.52788 0.41519 0.0
H541 H 0.36603 0.47751 0.20998 0.0
H542 H 0.3908 0.48194 0.27826 0.0
H543 H 0.38928 0.53496 0.36954 0.0
H544 H 0.44008 0.52212 0.61924 0.0
H545 H 0.41988 0.5205 0.53472 0.0
H546 H 0.4426 0.49511 0.37261 0.0
C547 C 0.3843 0.49366 0.25979 0.0
C548 C 0.40102 0.5264 0.36894 0.0
C549 C 0.37005 0.49112 0.22042 0.0
C550 C 0.44577 0.52044 0.57545 0.0
C551 C 0.4342 0.51963 0.5269 0.0
C552 C 0.43118 0.50409 0.37191 0.0
C553 C 0.3894 0.51103 0.27753 0.0
C554 C 0.40341 0.51357 0.32394 0.0
C555 C 0.44098 0.51743 0.46923 0.0
C556 C 0.42849 0.51658 0.41778 0.0
H557 H 0.35913 0.53497 0.19641 0.0
H558 H 0.38404 0.53941 0.26503 0.0
H559 H 0.42116 0.49269 0.29137 0.0
H560 H 0.48558 0.51603 0.50292 0.0
H561 H 0.46539 0.51448 0.41767 0.0
C562 C 0.03491 0.3861 0.20917 0.0
C563 C 0.01995 0.37755 0.1834 0.0
C564 C 0.03267 0.40049 0.24837 0.0
C565 C 1.00041 0.41695 0.35644 0.0
H566 H 0.02972 0.46 0.36025 0.0
C567 C 0.9892 0.47007 0.53703 0.0
C568 C 1.00427 0.47879 0.56059 0.0
C569 C 0.99068 0.45962 0.4859 0.0
C570 C 0.02155 0.44796 0.36034 0.0
H571 H 0.99091 0.37844 0.1761 0.0
H572 H 0.98704 0.40322 0.24567 0.0
H573 H 0.0332 0.43857 0.27901 0.0
H574 H 0.03268 0.48379 0.5487 0.0
H575 H 0.03557 0.46478 0.46105 0.0
H576 H 0.98931 0.42563 0.43859 0.0
C577 C 1.0005 0.39863 0.23566 0.0
C578 C 0.02349 0.43575 0.31351 0.0
C579 C 1.00274 0.38438 0.19591 0.0
C580 C 0.02083 0.4772 0.53135 0.0
C581 C 0.02243 0.46639 0.48078 0.0
C582 C 0.99865 0.42897 0.40355 0.0
C583 C 0.01541 0.40657 0.26335 0.0
C584 C 0.01292 0.42011 0.31109 0.0
C585 C 0.00739 0.45725 0.45773 0.0
C586 C 0.00917 0.44469 0.40631 0.0
H587 H 0.04837 0.38112 0.20163 0.0
H588 H 0.04441 0.40623 0.26936 0.0
H589 H 0.99233 0.40484 0.35649 0.0
H590 H 0.97621 0.47127 0.55833 0.0
H591 H 0.97867 0.45329 0.46882 0.0
C592 C 0.87271 0.9787 0.17785 0.0
C593 C 0.86232 0.99411 0.18904 0.0
C594 C 0.88726 0.97936 0.13849 0.0
C595 C 0.91709 0.01084 0.05494 0.0
H596 H 0.91945 0.9718 0.94169 0.0
C597 C 0.96851 0.01099 0.8625 0.0
C598 C 0.9619 1.0057 0.80696 0.0
C599 C 0.95832 0.00819 0.91383 0.0
C600 C 0.91896 0.98284 0.97284 0.0
H601 H 0.85955 0.02245 0.16848 0.0
H602 H 0.88476 0.02361 0.10056 0.0
H603 H 0.8985 0.97003 0.02432 0.0
H604 H 0.93966 0.99298 0.76169 0.0
H605 H 0.92177 0.98832 0.85079 0.0
H606 H 0.93696 0.02402 1.00194 0.0
C607 C 0.8819 0.01103 0.12273 0.0
C608 C 0.9071 0.98172 0.0208 0.0
C609 C 0.8674 0.01037 0.16201 0.0
C610 C 0.94511 0.99718 0.8039 0.0
C611 C 0.93491 0.99441 0.85513 0.0
C612 C 0.92893 0.01198 0.00693 0.0
C613 C 0.89177 0.99546 0.10929 0.0
C614 C 0.90577 0.99584 0.06196 0.0
C615 C 0.94128 1.00005 0.91075 0.0
C616 C 0.92981 0.99813 0.96464 0.0
H617 H 0.86932 0.96599 0.19838 0.0
H618 H 0.89476 0.96717 0.13006 0.0
H619 H 0.9166 0.02188 0.08611 0.0
H620 H 0.98146 0.01753 0.86623 0.0
H621 H 0.96377 0.01248 0.95592 0.0
C622 C 0.52365 0.88912 0.1341 0.0
C623 C 0.50845 0.87827 0.14417 0.0
C624 C 0.52332 0.90258 0.09053 0.0
C625 C 0.50734 0.91045 0.94729 0.0
H626 H 0.50438 0.96196 0.97082 0.0
C627 C 0.4874 0.95643 0.75587 0.0
C628 C 0.49519 0.9735 0.75072 0.0
C629 C 0.49006 0.94605 0.8065 0.0
C630 C 0.50552 0.94765 0.96331 0.0
H631 H 0.48105 0.87313 0.11636 0.0
H632 H 0.48068 0.89631 0.04014 0.0
H633 H 0.50779 0.94195 0.05647 0.0
H634 H 0.51181 0.99325 0.79465 0.0
H635 H 0.517 0.97487 0.88311 0.0
H636 H 0.50541 0.91576 0.85479 0.0
C637 C 0.49266 0.89462 0.06674 0.0
C638 C 0.50741 0.93624 0.01241 0.0
C639 C 0.49287 0.88143 0.11063 0.0
C640 C 0.50556 0.98016 0.79774 0.0
C641 C 0.50847 0.96962 0.84841 0.0
C642 C 0.50573 0.92178 0.89838 0.0
C643 C 0.50792 0.90514 0.05581 0.0
C644 C 0.50798 0.91754 0.00467 0.0
C645 C 0.50092 0.95229 0.85312 0.0
C646 C 0.50431 0.94053 0.90562 0.0
H647 H 0.53585 0.88698 0.15914 0.0
H648 H 0.53528 0.91049 0.08243 0.0
H649 H 0.50788 0.89606 0.94038 0.0
H650 H 0.47917 0.95103 0.72056 0.0
H651 H 0.48352 0.93308 0.80894 0.0
C652 C 0.65196 0.49909 0.07637 0.0
C653 C 0.65839 0.51351 0.11056 0.0
C654 C 0.63796 0.50152 0.03622 0.0
C655 C 0.61499 0.53596 0.94714 0.0
H656 H 0.57988 0.49798 0.92686 0.0
C657 C 0.57064 0.52922 0.73806 0.0
C658 C 0.55325 0.52217 0.74431 0.0
C659 C 0.58216 0.53023 0.78683 0.0
C660 C 0.58938 0.50887 0.93233 0.0
H661 H 0.65496 0.54187 0.12918 0.0
H662 H 0.63038 0.54614 0.05867 0.0
H663 H 0.6019 0.49583 0.00576 0.0
H664 H 0.53399 0.51135 0.80684 0.0
H665 H 0.55391 0.51345 0.89214 0.0
H666 H 0.60237 0.54902 0.87365 0.0
C667 C 0.63634 0.53294 0.06294 0.0
C668 C 0.60218 0.50751 0.97722 0.0
C669 C 0.6504 0.53049 0.10337 0.0
C670 C 0.54737 0.51677 0.80063 0.0
C671 C 0.55884 0.51786 0.84944 0.0
C672 C 0.60214 0.53733 0.90215 0.0
C673 C 0.62996 0.51846 0.02886 0.0
C674 C 0.61536 0.52086 0.98456 0.0
C675 C 0.57652 0.52426 0.84299 0.0
C676 C 0.58933 0.52366 0.89361 0.0
H677 H 0.65807 0.48593 0.07938 0.0
H678 H 0.63371 0.49016 0.00979 0.0
H679 H 0.625 0.54644 0.95133 0.0
H680 H 0.57553 0.53348 0.69513 0.0
H681 H 0.59573 0.53505 0.77997 0.0
C682 C 0.98063 0.65949 0.11171 0.0
C683 C 0.9973 0.66371 0.13752 0.0
C684 C 0.97919 0.64558 0.07023 0.0
C685 C 0.98365 0.62548 0.95347 0.0
H686 H 0.01151 0.58165 0.96532 0.0
C687 C 1.00138 0.58227 0.75015 0.0
C688 C 1.00144 0.56351 0.756 0.0
C689 C 0.99872 0.59327 0.7995 0.0
C690 C 1.00347 0.5937 0.96155 0.0
H691 H 0.02546 0.65626 0.14016 0.0
H692 H 0.0229 0.63205 0.06872 0.0
H693 H 0.0105 0.6024 0.04888 0.0
H694 H 0.9987 0.54149 0.8179 0.0
H695 H 0.99396 0.56071 0.90449 0.0
H696 H 0.97673 0.61687 0.86602 0.0
C697 C 0.01087 0.63931 0.08105 0.0
C698 C 1.00303 0.60569 0.00926 0.0
C699 C 0.01232 0.65323 0.12228 0.0
C700 C 0.99861 0.55591 0.81213 0.0
C701 C 0.99603 0.56693 0.86171 0.0
C702 C 0.98413 0.61353 0.90573 0.0
C703 C 0.99437 0.63551 0.05367 0.0
C704 C 0.99337 0.62188 0.00546 0.0
C705 C 0.99614 0.58576 0.85601 0.0
C706 C 0.9943 0.59764 0.90876 0.0
H707 H 0.96873 0.6671 0.12295 0.0
H708 H 0.96622 0.64283 0.05063 0.0
H709 H 0.97619 0.63787 0.94875 0.0
H710 H 1.00359 0.5885 0.70742 0.0
H711 H 0.99917 0.6077 0.79357 0.0
C712 C 0.04385 0.23518 0.38176 0.0
C713 C 0.06059 0.23893 0.35565 0.0
C714 C 0.0415 0.21995 0.41669 0.0
C715 C 0.05895 0.17461 0.42329 0.0
H716 H 0.02254 0.16972 0.54503 0.0
C717 C 0.01594 0.11135 0.44635 0.0
C718 C 0.01058 0.10561 0.50282 0.0
C719 C 0.02543 0.12739 0.43943 0.0
C720 C 0.03298 0.1708 0.51182 0.0
H721 H 0.08842 0.2305 0.35074 0.0
H722 H 0.08423 0.20366 0.41162 0.0
H723 H 0.03413 0.19941 0.52034 0.0
H724 H 0.0115 0.1118 0.59654 0.0
H725 H 0.02801 0.13989 0.58447 0.0
H726 H 0.05753 0.14606 0.41386 0.0
C727 C 0.07289 0.21247 0.40416 0.0
C728 C 0.03953 0.18783 0.4974 0.0
C729 C 0.07527 0.22781 0.36926 0.0
C730 C 0.01514 0.11609 0.55235 0.0
C731 C 0.02466 0.13212 0.54547 0.0
C732 C 0.05245 0.15759 0.43783 0.0
C733 C 0.0558 0.20803 0.42629 0.0
C734 C 0.05206 0.18998 0.45136 0.0
C735 C 0.02983 0.13799 0.48887 0.0
C736 C 0.03889 0.15558 0.4806 0.0
H737 H 0.03214 0.24321 0.37166 0.0
H738 H 0.0281 0.21684 0.43227 0.0
H739 H 0.06852 0.17578 0.38736 0.0
H740 H 0.0125 0.10361 0.40738 0.0
H741 H 0.02888 0.13171 0.39509 0.0
C742 C 0.30334 0.93343 0.22868 0.0
C743 C 0.28739 0.9384 0.25727 0.0
C744 C 0.31694 0.9248 0.25982 0.0
C745 C 0.33425 0.92611 0.40912 0.0
H746 H 0.37308 0.89992 0.33418 0.0
C747 C 0.406 0.93415 0.49256 0.0
C748 C 0.41704 0.94092 0.44709 0.0
C749 C 0.38983 0.92552 0.47917 0.0
C750 C 0.36228 0.90701 0.3562 0.0
H751 H 0.27228 0.9368 0.33895 0.0
H752 H 0.29616 0.92152 0.39403 0.0
H753 H 0.34294 0.89854 0.29206 0.0
H754 H 0.42024 0.94274 0.35178 0.0
H755 H 0.39231 0.92757 0.32863 0.0
H756 H 0.35375 0.93543 0.47115 0.0
C757 C 0.29823 0.92448 0.34759 0.0
C758 C 0.34503 0.90625 0.3321 0.0
C759 C 0.28453 0.93311 0.31613 0.0
C760 C 0.41222 0.93759 0.38798 0.0
C761 C 0.39616 0.92883 0.37465 0.0
C762 C 0.35144 0.92674 0.43347 0.0
C763 C 0.3149 0.92099 0.32043 0.0
C764 C 0.3311 0.91673 0.35612 0.0
C765 C 0.38449 0.9233 0.42006 0.0
C766 C 0.36583 0.91806 0.40519 0.0
H767 H 0.30574 0.93726 0.18307 0.0
H768 H 0.32959 0.92253 0.23738 0.0
H769 H 0.32392 0.93442 0.42877 0.0
H770 H 0.40953 0.93608 0.5386 0.0
H771 H 0.38116 0.92124 0.51503 0.0
C772 C 0.49224 0.29269 0.37869 0.0
C773 C 0.47752 0.28671 0.34534 0.0
C774 C 0.49003 0.30612 0.42106 0.0
C775 C 0.46335 0.34572 0.42675 0.0
H776 H 0.4937 0.3572 0.56074 0.0
C777 C 0.47988 0.41884 0.47626 0.0
C778 C 0.49813 0.4223 0.48724 0.0
C779 C 0.47305 0.40144 0.4806 0.0
C780 C 0.48513 0.35421 0.52334 0.0
H781 H 0.44866 0.28842 0.33478 0.0
H782 H 0.44478 0.31199 0.40893 0.0
H783 H 0.48889 0.3258 0.53313 0.0
H784 H 0.52324 0.4102 0.51516 0.0
H785 H 0.5117 0.37975 0.51828 0.0
H786 H 0.4608 0.37383 0.41294 0.0
C787 C 0.45804 0.30638 0.40202 0.0
C788 C 0.48225 0.33624 0.50798 0.0
C789 C 0.46024 0.29286 0.35976 0.0
C790 C 0.50924 0.40798 0.50458 0.0
C791 C 0.50248 0.39052 0.50785 0.0
C792 C 0.46641 0.36361 0.44152 0.0
C793 C 0.47306 0.31386 0.43043 0.0
C794 C 0.47197 0.33188 0.45791 0.0
C795 C 0.48437 0.38696 0.49469 0.0
C796 C 0.47799 0.36812 0.4883 0.0
H797 H 0.50566 0.28792 0.3689 0.0
H798 H 0.50189 0.31162 0.44203 0.0
H799 H 0.45556 0.34286 0.38742 0.0
H800 H 0.47088 0.42949 0.46275 0.0
H801 H 0.45895 0.39929 0.47126 0.0
C802 C 0.20111 0.43558 0.2506 0.0
C803 C 0.21715 0.43799 0.28242 0.0
C804 C 0.18453 0.43716 0.27875 0.0
C805 C 0.14992 0.44015 0.34827 0.0
H806 H 0.15066 0.485 0.43544 0.0
C807 C 0.08558 0.47808 0.42519 0.0
C808 C 0.0858 0.49668 0.4141 0.0
C809 C 0.10109 0.46778 0.4172 0.0
C810 C 0.15023 0.47242 0.4114 0.0
H811 H 0.2283 0.4417 0.37019 0.0
H812 H 0.19922 0.44464 0.41938 0.0
H813 H 0.17879 0.47023 0.41099 0.0
H814 H 0.10223 0.51887 0.38329 0.0
H815 H 0.12923 0.50095 0.36954 0.0
H816 H 0.12129 0.443 0.34604 0.0
C817 C 0.19955 0.44184 0.37235 0.0
C818 C 0.16634 0.46378 0.39817 0.0
C819 C 0.2162 0.44018 0.34417 0.0
C820 C 0.1017 0.50465 0.39326 0.0
C821 C 0.11718 0.49439 0.38559 0.0
C822 C 0.13375 0.44879 0.36172 0.0
C823 C 0.18357 0.44125 0.33932 0.0
C824 C 0.16642 0.44788 0.36465 0.0
C825 C 0.11712 0.47592 0.39835 0.0
C826 C 0.13383 0.46535 0.39151 0.0
H827 H 0.20122 0.43407 0.20295 0.0
H828 H 0.17252 0.43677 0.25181 0.0
H829 H 0.14955 0.42782 0.32284 0.0
H830 H 0.0736 0.47158 0.44203 0.0
H831 H 0.10068 0.45357 0.4274 0.0
C832 C 0.09836 0.80348 0.09024 0.0
C833 C 0.08171 0.79537 0.07774 0.0
C834 C 0.10346 0.81938 0.06168 0.0
C835 C 0.09929 0.85954 0.04023 0.0
H836 H 0.08456 0.87248 0.88136 0.0
C837 C 0.0671 0.92671 0.98368 0.0
C838 C 0.06964 0.93445 0.92758 0.0
C839 C 0.07511 0.91033 0.9978 0.0
C840 C 0.08915 0.86913 0.92546 0.0
H841 H 0.05802 0.7971 0.02195 0.0
H842 H 0.06701 0.8243 0.97203 0.0
H843 H 0.08771 0.8409 0.90783 0.0
H844 H 0.08359 0.93162 0.84373 0.0
H845 H 0.09737 0.90279 0.86824 0.0
H846 H 0.09996 0.88774 0.05861 0.0
C847 C 0.07622 0.81842 0.0036 0.0
C848 C 0.09082 0.85102 0.94072 0.0
C849 C 0.07106 0.80269 0.03239 0.0
C850 C 0.08109 0.92584 0.88695 0.0
C851 C 0.08904 0.90938 0.90101 0.0
C852 C 0.09761 0.87764 0.02499 0.0
C853 C 0.0921 0.82735 0.01962 0.0
C854 C 0.09508 0.84604 0.99902 0.0
C855 C 0.08581 0.90126 0.95613 0.0
C856 C 0.09172 0.88259 0.96825 0.0
H857 H 0.1071 0.79801 0.12399 0.0
H858 H 0.1159 0.82585 0.07436 0.0
H859 H 0.10253 0.85617 0.0856 0.0
H860 H 0.05818 0.9328 0.01575 0.0
H861 H 0.07207 0.9043 0.04028 0.0
C862 C 0.73151 0.03976 0.93709 0.0
C863 C 0.73302 0.02281 0.96386 0.0
C864 C 0.71826 0.04291 0.89463 0.0
C865 C 0.68069 0.02066 0.81151 0.0
H866 H 0.65456 0.06314 0.86085 0.0
C867 C 0.60441 0.0242 0.83021 0.0
C868 C 0.59539 0.03977 0.81143 0.0
C869 C 0.6231 0.02337 0.82874 0.0
C870 C 0.66182 0.05143 0.84545 0.0
H871 H 0.72294 0.9955 0.96388 0.0
H872 H 0.69967 1.00099 0.89151 0.0
H873 H 0.68559 0.05942 0.89065 0.0
H874 H 0.59904 0.06651 0.77482 0.0
H875 H 0.63182 0.06527 0.77497 0.0
H876 H 0.65619 0.0121 0.77054 0.0
C877 C 0.70881 0.01185 0.90186 0.0
C878 C 0.6797 0.0493 0.86224 0.0
C879 C 0.72216 0.00868 0.9437 0.0
C880 C 0.60555 0.05446 0.79085 0.0
C881 C 0.62428 0.0537 0.79019 0.0
C882 C 0.66271 0.0227 0.79541 0.0
C883 C 0.70613 0.02922 0.87893 0.0
C884 C 0.68911 0.0335 0.84778 0.0
C885 C 0.6332 0.03815 0.8092 0.0
C886 C 0.65296 0.03776 0.81439 0.0
H887 H 0.73993 0.05081 0.95129 0.0
H888 H 0.71686 0.05633 0.87676 0.0
H889 H 0.68767 0.00854 0.79839 0.0
H890 H 0.59708 0.01275 0.84722 0.0
H891 H 0.62968 0.01137 0.84491 0.0
C892 C 0.46663 0.7378 0.96864 0.0
C893 C 0.45358 0.74458 0.00763 0.0
C894 C 0.46268 0.72335 0.93169 0.0
C895 C 0.43441 0.68366 0.9367 0.0
H896 H 0.46067 0.67234 0.79324 0.0
C897 C 0.44417 0.61063 0.85825 0.0
C898 C 0.46241 0.60651 0.85046 0.0
C899 C 0.43859 0.62854 0.86192 0.0
C900 C 0.45308 0.67536 0.83295 0.0
H901 H 0.42565 0.74272 0.03405 0.0
H902 H 0.41873 0.71737 0.96918 0.0
H903 H 0.45799 0.70358 0.825 0.0
H904 H 0.48898 0.6177 0.83709 0.0
H905 H 0.47932 0.64887 0.8439 0.0
H906 H 0.43026 0.65538 0.94616 0.0
C907 C 0.43211 0.72306 0.96811 0.0
C908 C 0.45156 0.69321 0.85117 0.0
C909 C 0.43607 0.73755 0.00525 0.0
C910 C 0.47487 0.62053 0.8441 0.0
C911 C 0.46929 0.63836 0.84707 0.0
C912 C 0.43583 0.66583 0.91826 0.0
C913 C 0.44559 0.71532 0.93279 0.0
C914 C 0.44299 0.69746 0.90485 0.0
C915 C 0.45114 0.64256 0.85687 0.0
C916 C 0.44593 0.66145 0.8678 0.0
H917 H 0.48031 0.74272 0.96976 0.0
H918 H 0.47349 0.71762 0.90577 0.0
H919 H 0.42784 0.68639 0.97853 0.0
H920 H 0.43431 0.60002 0.86305 0.0
H921 H 0.42452 0.63143 0.86951 0.0
C922 C 0.80195 0.44415 0.01909 0.0
C923 C 0.79525 0.43376 0.06619 0.0
C924 C 0.81776 0.4393 0.99025 0.0
C925 C 0.85992 0.41764 0.02541 0.0
H926 H 0.87086 0.43088 0.8634 0.0
C927 C 0.92658 0.44903 0.95655 0.0
C928 C 0.93337 0.44634 0.89922 0.0
C929 C 0.91039 0.44118 0.97379 0.0
C930 C 0.86809 0.42672 0.90841 0.0
H931 H 0.7992 0.40921 0.11629 0.0
H932 H 0.82712 0.4009 0.06626 0.0
H933 H 0.8397 0.42762 0.8942 0.0
H934 H 0.92911 0.43225 0.81639 0.0
H935 H 0.9007 0.41858 0.8465 0.0
H936 H 0.8883 0.41732 0.04011 0.0
C937 C 0.82011 0.41291 0.05225 0.0
C938 C 0.8502 0.42501 0.92617 0.0
C939 C 0.80416 0.41771 0.08097 0.0
C940 C 0.92405 0.43485 0.86053 0.0
C941 C 0.90781 0.42698 0.87779 0.0
C942 C 0.87781 0.41931 0.00762 0.0
C943 C 0.82737 0.42399 0.00787 0.0
C944 C 0.84592 0.42127 0.98551 0.0
C945 C 0.90058 0.43042 0.93413 0.0
C946 C 0.88206 0.42466 0.94961 0.0
H947 H 0.79572 0.45675 0.00697 0.0
H948 H 0.82309 0.44832 0.95694 0.0
H949 H 0.85711 0.41479 0.07151 0.0
H950 H 0.93328 0.45798 0.9872 0.0
H951 H 0.90508 0.44438 0.01716 0.0
C952 C 0.03452 0.21066 0.85571 0.0
C953 C 0.0231 0.21778 0.89948 0.0
C954 C 0.03211 0.19313 0.83464 0.0
C955 C 0.01207 0.14969 0.88001 0.0
H956 H 0.02196 0.13595 0.71775 0.0
C957 C 0.01811 0.07514 0.81077 0.0
C958 C 0.01067 0.07006 0.75612 0.0
C959 C 0.01956 0.0933 0.82632 0.0
C960 C 0.01901 0.13954 0.76318 0.0
H961 H 0.99973 0.21204 0.95372 0.0
H962 H 0.99521 0.18177 0.91578 0.0
H963 H 0.02337 0.16753 0.74614 0.0
H964 H 0.99901 0.08029 0.67484 0.0
H965 H 1.00116 0.11179 0.70248 0.0
H966 H 0.00736 0.1218 0.89691 0.0
C967 C 1.00629 0.18963 0.89853 0.0
C968 C 0.02 0.15767 0.77961 0.0
C969 C 0.00871 0.20714 0.91966 0.0
C970 C 1.00488 0.08363 0.71722 0.0
C971 C 1.00623 0.10177 0.7329 0.0
C972 C 0.01106 0.13159 0.8636 0.0
C973 C 0.01818 0.18223 0.8567 0.0
C974 C 0.01658 0.163 0.83832 0.0
C975 C 0.01352 0.10688 0.78777 0.0
C976 C 0.01458 0.12623 0.80503 0.0
H977 H 0.04561 0.21852 0.83857 0.0
H978 H 0.0416 0.18792 0.80265 0.0
H979 H 0.00959 0.15319 0.9258 0.0
H980 H 0.02279 0.06509 0.84177 0.0
H981 H 0.02551 0.0967 0.86855 0.0
C982 C 0.30392 0.04028 0.86911 0.0
C983 C 0.29578 0.02395 0.88552 0.0
C984 C 0.32112 0.04048 0.84365 0.0
C985 C 0.3627 0.01411 0.84081 0.0
H986 H 0.3755 0.04246 0.70307 0.0
C987 C 0.43635 0.02444 0.76765 0.0
C988 C 0.44017 0.02176 0.7073 0.0
C989 C 0.41859 0.02531 0.78775 0.0
C990 C 0.3721 0.03445 0.74149 0.0
H991 H 0.29945 0.99504 0.88783 0.0
H992 H 0.32928 0.99544 0.84368 0.0
H993 H 0.3445 0.04283 0.73998 0.0
H994 H 0.42817 0.01821 0.62064 0.0
H995 H 0.39714 0.01998 0.65583 0.0
H996 H 0.3902 1.00578 0.84275 0.0
C997 C 0.32236 0.00808 0.85027 0.0
C998 C 0.3544 0.03477 0.76284 0.0
C999 C 0.30514 0.00785 0.87494 0.0
C1000 C 0.42574 0.02026 0.66742 0.0
C1001 C 0.40795 0.02137 0.68749 0.0
C1002 C 0.38039 0.014 0.82004 0.0
C1003 C 0.33066 0.02439 0.83501 0.0
C1004 C 0.34948 0.02449 0.81252 0.0
C1005 C 0.40418 0.02374 0.74799 0.0
C1006 C 0.38531 0.0241 0.77002 0.0
H1007 H 0.29707 0.0529 0.87662 0.0
H1008 H 0.3272 0.05327 0.83256 0.0
H1009 H 0.35939 1.00618 0.87951 0.0
H1010 H 0.44708 0.02562 0.79971 0.0
H1011 H 0.41613 0.0273 0.83455 0.0
C1012 C 0.48279 0.3198 0.8152 0.0
C1013 C 0.49652 0.31271 0.85107 0.0
C1014 C 0.48415 0.33719 0.79174 0.0
C1015 C 0.50629 0.38053 0.82306 0.0
H1016 H 0.48881 0.39423 0.66793 0.0
C1017 C 0.4966 0.455 0.76009 0.0
C1018 C 0.50201 0.46043 0.70319 0.0
C1019 C 0.4957 0.43675 0.77492 0.0
C1020 C 0.49384 0.39063 0.7113 0.0
H1021 H 0.52272 0.31834 0.88855 0.0
H1022 H 0.5252 0.34842 0.84692 0.0
H1023 H 0.48872 0.36258 0.69707 0.0
H1024 H 0.51053 0.45069 0.61708 0.0
H1025 H 0.50889 0.41895 0.64287 0.0
H1026 H 0.51159 0.40844 0.83732 0.0
C1027 C 0.51326 0.34061 0.83749 0.0
C1028 C 0.49365 0.37248 0.72819 0.0
C1029 C 0.51194 0.32322 0.86075 0.0
C1030 C 0.50614 0.44707 0.66118 0.0
C1031 C 0.50518 0.42881 0.67596 0.0
C1032 C 0.5064 0.39863 0.80634 0.0
C1033 C 0.49921 0.348 0.80378 0.0
C1034 C 0.49985 0.3672 0.78438 0.0
C1035 C 0.50017 0.42339 0.73331 0.0
C1036 C 0.5001 0.40398 0.7504 0.0
H1037 H 0.4708 0.31204 0.8063 0.0
H1038 H 0.47304 0.34243 0.76616 0.0
H1039 H 0.51096 0.37704 0.86693 0.0
H1040 H 0.49323 0.46485 0.79357 0.0
H1041 H 0.49147 0.43311 0.8192 0.0
C1042 C 0.20219 0.49225 0.82992 0.0
C1043 C 0.20844 0.50252 0.87806 0.0
C1044 C 0.18485 0.49473 0.8076 0.0
C1045 C 0.14687 0.52614 0.79925 0.0
H1046 H 0.11768 0.48312 0.7866 0.0
C1047 C 0.07605 0.52459 0.69143 0.0
C1048 C 0.06252 0.51569 0.72366 0.0
C1049 C 0.09402 0.52361 0.70923 0.0
C1050 C 0.12566 0.49525 0.79001 0.0
H1051 H 0.20128 0.52406 0.93851 0.0
H1052 H 0.17136 0.52876 0.89798 0.0
H1053 H 0.14911 0.48072 0.81679 0.0
H1054 H 0.05737 0.4987 0.79981 0.0
H1055 H 0.08881 0.49674 0.83014 0.0
H1056 H 0.1234 0.54065 0.77208 0.0
C1057 C 0.17991 0.51869 0.87798 0.0
C1058 C 0.14368 0.49386 0.80677 0.0
C1059 C 0.19717 0.51604 0.90094 0.0
C1060 C 0.06742 0.50576 0.77406 0.0
C1061 C 0.08543 0.50455 0.79128 0.0
C1062 C 0.12891 0.5275 0.78148 0.0
C1063 C 0.17341 0.50775 0.83208 0.0
C1064 C 0.15447 0.5093 0.81191 0.0
C1065 C 0.09893 0.51348 0.75909 0.0
C1066 C 0.11807 0.51207 0.77711 0.0
H1067 H 0.21056 0.482 0.81008 0.0
H1068 H 0.1803 0.4863 0.77152 0.0
H1069 H 0.15487 0.53826 0.8027 0.0
H1070 H 0.07278 0.53239 0.65245 0.0
H1071 H 0.10413 0.53053 0.68334 0.0
C1072 C 1.00248 0.81841 0.52151 0.0
C1073 C 0.99615 0.81486 0.464 0.0
C1074 C 1.00088 0.83558 0.54627 0.0
C1075 C 0.99693 0.88292 0.50002 0.0
H1076 H 0.98705 0.8918 0.66595 0.0
C1077 C 0.98918 0.95489 0.59031 0.0
C1078 C 0.9969 0.95888 0.64555 0.0
C1079 C 0.98803 0.93716 0.57027 0.0
C1080 C 0.99002 0.88954 0.61962 0.0
H1081 H 0.98258 0.8266 0.38845 0.0
H1082 H 0.97944 0.85634 0.43205 0.0
H1083 H 0.98626 0.86108 0.62786 0.0
H1084 H 0.00933 0.94716 0.72327 0.0
H1085 H 0.00755 0.91623 0.68787 0.0
H1086 H 1.00095 0.91124 0.49166 0.0
C1087 C 0.98589 0.8459 0.45771 0.0
C1088 C 0.98952 0.87192 0.59776 0.0
C1089 C 0.98746 0.82874 0.43301 0.0
C1090 C 1.00326 0.94461 0.68056 0.0
C1091 C 1.00215 0.92683 0.66037 0.0
C1092 C 0.99746 0.90049 0.52183 0.0
C1093 C 0.99296 0.84966 0.51408 0.0
C1094 C 0.99295 0.8684 0.53762 0.0
C1095 C 0.99464 0.92289 0.60473 0.0
C1096 C 0.994 0.90407 0.5819 0.0
H1097 H 0.00908 0.808 0.5469 0.0
H1098 H 1.00652 0.83799 0.5897 0.0
H1099 H 1.00004 0.8807 0.45377 0.0
H1100 H 0.984 0.96547 0.56224 0.0
H1101 H 0.98186 0.93464 0.5277 0.0
C1102 C 0.69081 0.02156 0.47697 0.0
C1103 C 0.69874 1.006 0.45298 0.0
C1104 C 0.67321 0.02123 0.49873 0.0
C1105 C 0.63698 0.99234 0.55484 0.0
H1106 H 0.60527 0.02841 0.48857 0.0
C1107 C 0.56399 1.00564 0.63715 0.0
C1108 C 0.55078 0.00737 0.59314 0.0
C1109 C 0.5822 1.00455 0.62204 0.0
C1110 C 0.61395 0.01824 0.50734 0.0
H1111 H 0.69434 0.97761 0.43619 0.0
H1112 H 0.6639 0.97696 0.47626 0.0
H1113 H 0.6371 0.02843 0.46201 0.0
H1114 H 0.54633 0.00909 0.49854 0.0
H1115 H 0.57817 0.00747 0.47213 0.0
H1116 H 0.61378 0.98228 0.60071 0.0
C1117 C 0.67135 0.98946 0.47749 0.0
C1118 C 0.6322 0.01834 0.49255 0.0
C1119 C 0.68888 0.98984 0.45482 0.0
C1120 C 0.55616 0.00771 0.53351 0.0
C1121 C 0.5744 1.00691 0.51841 0.0
C1122 C 0.61876 0.99244 0.57052 0.0
C1123 C 0.66317 1.00526 0.49817 0.0
C1124 C 0.64391 1.00535 0.51586 0.0
C1125 C 0.58762 1.00543 0.56252 0.0
C1126 C 0.60702 1.00531 0.54654 0.0
H1127 H 0.69805 0.03418 0.47785 0.0
H1128 H 0.66736 0.03355 0.51535 0.0
H1129 H 0.6457 0.98219 0.57357 0.0
H1130 H 0.56026 1.00515 0.68339 0.0
H1131 H 0.59207 1.00349 0.65703 0.0
C1132 C 0.50949 0.7149 0.49395 0.0
C1133 C 0.51684 0.71893 0.43812 0.0
C1134 C 0.51049 0.69747 0.51711 0.0
C1135 C 0.53337 0.65315 0.49757 0.0
H1136 H 0.49111 0.63484 0.57783 0.0
C1137 C 0.5222 0.57729 0.54277 0.0
C1138 C 0.51499 0.57235 0.59801 0.0
C1139 C 0.52324 0.59538 0.52604 0.0
C1140 C 0.50311 0.63979 0.55614 0.0
H1141 H 0.5312 0.7077 0.36328 0.0
H1142 H 0.53283 0.6774 0.4032 0.0
H1143 H 0.49183 0.66597 0.54472 0.0
H1144 H 0.5032 0.58276 0.67897 0.0
H1145 H 0.50498 0.61423 0.64966 0.0
H1146 H 0.54447 0.62678 0.50803 0.0
C1147 C 0.52657 0.68774 0.42982 0.0
C1148 C 0.50356 0.6577 0.53723 0.0
C1149 C 0.52566 0.70518 0.40684 0.0
C1150 C 0.50885 0.58601 0.63609 0.0
C1151 C 0.50977 0.60409 0.61916 0.0
C1152 C 0.53288 0.6352 0.51617 0.0
C1153 C 0.51877 0.68355 0.4849 0.0
C1154 C 0.51866 0.66464 0.50738 0.0
C1155 C 0.51697 0.60902 0.5639 0.0
C1156 C 0.51771 0.62826 0.54544 0.0
H1157 H 0.50278 0.72521 0.51954 0.0
H1158 H 0.50465 0.69489 0.56018 0.0
H1159 H 0.54537 0.65803 0.4757 0.0
H1160 H 0.52706 0.56718 0.51225 0.0
H1161 H 0.52867 0.59867 0.4829 0.0
C1162 C 0.80949 0.52032 0.50196 0.0
C1163 C 0.80693 0.52473 0.44203 0.0
C1164 C 0.82626 0.52262 0.52875 0.0
C1165 C 0.87113 0.54415 0.50987 0.0
H1166 H 0.88745 0.5041 0.60536 0.0
C1167 C 0.946 0.53223 0.56366 0.0
C1168 C 0.95055 0.52569 0.62008 0.0
C1169 C 0.92803 0.53374 0.54652 0.0
C1170 C 0.88305 0.51554 0.5796 0.0
H1171 H 0.81997 0.53558 0.36392 0.0
H1172 H 0.84913 0.5396 0.41049 0.0
H1173 H 0.8568 0.5044 0.56819 0.0
H1174 H 0.9396 0.51586 0.70306 0.0
H1175 H 0.90827 0.5186 0.67321 0.0
H1176 H 0.89754 0.5551 0.52039 0.0
C1177 C 0.83813 0.53456 0.43713 0.0
C1178 C 0.86542 0.51573 0.5583 0.0
C1179 C 0.82135 0.53228 0.41037 0.0
C1180 C 0.93664 0.52092 0.65923 0.0
C1181 C 0.91865 0.5224 0.64199 0.0
C1182 C 0.88877 0.54395 0.53113 0.0
C1183 C 0.84092 0.52936 0.49627 0.0
C1184 C 0.85928 0.52993 0.52258 0.0
C1185 C 0.91412 0.52873 0.58527 0.0
C1186 C 0.89502 0.52954 0.5657 0.0
H1187 H 0.7986 0.51471 0.52786 0.0
H1188 H 0.82782 0.51882 0.57471 0.0
H1189 H 0.86679 0.55544 0.48327 0.0
H1190 H 0.95632 0.53602 0.53223 0.0
H1191 H 0.92507 0.53844 0.50224 0.0
loop_
_geom_bond_atom_site_label_1
_geom_bond_atom_site_label_2
_geom_bond_distance
_geom_bond_site_symmetry_2
_ccdc_geom_bond_type
C0 C1 1.386 . S
C0 C2 1.397 . S
C0 H24 0.931 . S
C1 C0 1.386 . S
C1 C5 1.397 . S
C2 C0 1.397 . S
C2 C3 1.384 . S
C2 H25 0.930 . S
C3 C2 1.384 . S
C3 C4 1.377 . S
C3 C6 1.481 . S
C4 C3 1.377 . S
C4 C5 1.389 . S
C4 H26 0.929 . S
C5 C1 1.397 . S
C5 C4 1.389 . S
C5 H27 0.931 . S
C6 C3 1.481 . S
C6 C7 1.387 . S
C6 C11 1.390 . S
C7 C6 1.387 . S
C7 C8 1.401 . S
C7 H28 0.930 . S
C8 C7 1.401 . S
C8 C9 1.376 . S
C8 C17 1.511 . S
C9 C8 1.376 . S
C9 C10 1.392 . S
C9 H30 0.931 . S
C10 C9 1.392 . S
C10 C11 1.361 . S
C10 C12 1.500 . S
C11 C6 1.390 . S
C11 C10 1.361 . S
C11 H29 0.931 . S
C12 C10 1.500 . S
C12 C13 1.371 . S
C12 C14 1.365 . S
C13 C12 1.371 . S
C13 C23 1.386 . S
C13 H31 0.931 . S
C14 C12 1.365 . S
C14 C15 1.409 . S
C14 H32 0.929 . S
C15 C14 1.409 . S
C15 C16 1.380 . S
C15 H33 0.930 . S
C16 C15 1.380 . S
C16 C23 1.357 . S
C17 C8 1.511 . S
C17 C18 1.341 . S
C17 C19 1.371 . S
C18 C17 1.341 . S
C18 C22 1.394 . S
C18 H34 0.930 . S
C19 C17 1.371 . S
C19 C20 1.392 . S
C19 H35 0.931 . S
C20 C19 1.392 . S
C20 C21 1.331 . S
C20 H38 0.932 . S
C21 C20 1.331 . S
C21 C22 1.336 . S
C22 C18 1.394 . S
C22 C21 1.336 . S
C22 H37 0.929 . S
C23 C13 1.386 . S
C23 C16 1.357 . S
C23 H36 0.928 . S
H24 C0 0.931 . S
H25 C2 0.930 . S
H26 C4 0.929 . S
H27 C5 0.931 . S
H28 C7 0.930 . S
H29 C11 0.931 . S
H30 C9 0.931 . S
H31 C13 0.931 . S
H32 C14 0.929 . S
H33 C15 0.930 . S
H34 C18 0.930 . S
H35 C19 0.931 . S
H36 C23 0.928 . S
H37 C22 0.929 . S
H38 C20 0.932 . S
C39 C40 1.394 . S
C39 C41 1.397 . S
C39 H63 0.931 . S
C40 C39 1.394 . S
C40 C44 1.389 1_655 S
C41 C39 1.397 . S
C41 C42 1.389 . S
C41 H64 0.930 . S
C42 C41 1.389 . S
C42 C43 1.373 1_655 S
C42 C45 1.480 . S
C43 C42 1.373 1_455 S
C43 C44 1.389 . S
C43 H65 0.929 . S
C44 C40 1.389 1_455 S
C44 C43 1.389 . S
C44 H66 0.931 . S
C45 C42 1.480 . S
C45 C46 1.388 . S
C45 C50 1.390 . S
C46 C45 1.388 . S
C46 C47 1.402 . S
C46 H67 0.930 . S
C47 C46 1.402 . S
C47 C48 1.376 . S
C47 C56 1.513 . S
C48 C47 1.376 . S
C48 C49 1.392 . S
C48 H69 0.934 . S
C49 C48 1.392 . S
C49 C50 1.361 . S
C49 C51 1.499 1_655 S
C50 C45 1.390 . S
C50 C49 1.361 . S
C50 H68 0.931 . S
C51 C49 1.499 1_455 S
C51 C52 1.364 1_455 S
C51 C53 1.373 . S
C52 C51 1.364 1_655 S
C52 C62 1.386 . S
C52 H70 0.931 . S
C53 C51 1.373 . S
C53 C54 1.409 . S
C53 H71 0.929 . S
C54 C53 1.409 . S
C54 C55 1.378 . S
C54 H72 0.930 . S
C55 C54 1.378 . S
C55 C62 1.360 1_455 S
C56 C47 1.513 . S
C56 C57 1.341 . S
C56 C58 1.371 1_655 S
C57 C56 1.341 . S
C57 C61 1.394 . S
C57 H73 0.930 . S
C58 C56 1.371 1_455 S
C58 C59 1.392 . S
C58 H74 0.931 . S
C59 C58 1.392 . S
C59 C60 1.322 1_455 S
C59 H77 0.932 . S
C60 C59 1.322 1_655 S
C60 C61 1.345 . S
C61 C57 1.394 . S
C61 C60 1.345 . S
C61 H76 0.929 . S
C62 C52 1.386 . S
C62 C55 1.360 1_655 S
C62 H75 0.928 . S
H63 C39 0.931 . S
H64 C41 0.930 . S
H65 C43 0.929 . S
H66 C44 0.931 . S
H67 C46 0.930 . S
H68 C50 0.931 . S
H69 C48 0.934 . S
H70 C52 0.931 . S
H71 C53 0.929 . S
H72 C54 0.930 . S
H73 C57 0.930 . S
H74 C58 0.931 . S
H75 C62 0.928 . S
H76 C61 0.929 . S
H77 C59 0.932 . S
C78 C79 1.386 . S
C78 C80 1.397 . S
C78 H102 0.931 . S
C79 C78 1.386 . S
C79 C83 1.397 1_565 S
C80 C78 1.397 . S
C80 C81 1.384 . S
C80 H103 0.930 . S
C81 C80 1.384 . S
C81 C82 1.377 1_565 S
C81 C84 1.481 . S
C82 C81 1.377 1_545 S
C82 C83 1.389 . S
C82 H104 0.929 . S
C83 C79 1.397 1_545 S
C83 C82 1.389 . S
C83 H105 0.931 . S
C84 C81 1.481 . S
C84 C85 1.387 . S
C84 C89 1.390 . S
C85 C84 1.387 . S
C85 C86 1.401 . S
C85 H106 0.930 . S
C86 C85 1.401 . S
C86 C87 1.376 . S
C86 C95 1.511 . S
C87 C86 1.376 . S
C87 C88 1.392 . S
C87 H108 0.931 . S
C88 C87 1.392 . S
C88 C89 1.361 . S
C88 C90 1.500 . S
C89 C84 1.390 . S
C89 C88 1.361 . S
C89 H107 0.931 . S
C90 C88 1.500 . S
C90 C91 1.371 . S
C90 C92 1.365 1_565 S
C91 C90 1.371 . S
C91 C101 1.386 . S
C91 H109 0.931 . S
C92 C90 1.365 1_545 S
C92 C93 1.409 . S
C92 H110 0.929 . S
C93 C92 1.409 . S
C93 C94 1.380 1_545 S
C93 H111 0.930 . S
C94 C93 1.380 1_565 S
C94 C101 1.357 . S
C95 C86 1.511 . S
C95 C96 1.341 . S
C95 C97 1.363 1_565 S
C96 C95 1.341 . S
C96 C100 1.394 . S
C96 H112 0.930 . S
C97 C95 1.363 1_545 S
C97 C98 1.394 . S
C97 H113 0.939 . S
C98 C97 1.394 . S
C98 C99 1.331 1_545 S
C98 H116 0.932 . S
C99 C98 1.331 1_565 S
C99 C100 1.336 . S
C100 C96 1.394 . S
C100 C99 1.336 . S
C100 H115 0.929 . S
C101 C91 1.386 . S
C101 C94 1.357 . S
C101 H114 0.928 . S
H102 C78 0.931 . S
H103 C80 0.930 . S
H104 C82 0.929 . S
H105 C83 0.931 . S
H106 C85 0.930 . S
H107 C89 0.931 . S
H108 C87 0.931 . S
H109 C91 0.931 . S
H110 C92 0.929 . S
H111 C93 0.930 . S
H112 C96 0.930 . S
H113 C97 0.939 . S
H114 C101 0.928 . S
H115 C100 0.929 . S
H116 C98 0.932 . S
C117 C118 1.386 . S
C117 C119 1.397 . S
C117 H141 0.931 . S
C118 C117 1.386 . S
C118 C122 1.397 . S
C119 C117 1.397 . S
C119 C120 1.384 . S
C119 H142 0.930 . S
C120 C119 1.384 . S
C120 C121 1.377 . S
C120 C123 1.481 . S
C121 C120 1.377 . S
C121 C122 1.389 . S
C121 H143 0.929 . S
C122 C118 1.397 . S
C122 C121 1.389 . S
C122 H144 0.931 . S
C123 C120 1.481 . S
C123 C124 1.387 . S
C123 C128 1.390 . S
C124 C123 1.387 . S
C124 C125 1.401 . S
C124 H145 0.930 . S
C125 C124 1.401 . S
C125 C126 1.376 . S
C125 C134 1.511 . S
C126 C125 1.376 . S
C126 C127 1.392 . S
C126 H147 0.931 . S
C127 C126 1.392 . S
C127 C128 1.361 . S
C127 C129 1.500 . S
C128 C123 1.390 . S
C128 C127 1.361 . S
C128 H146 0.931 . S
C129 C127 1.500 . S
C129 C130 1.371 . S
C129 C131 1.365 . S
C130 C129 1.371 . S
C130 C140 1.386 . S
C130 H148 0.931 . S
C131 C129 1.365 . S
C131 C132 1.409 . S
C131 H149 0.929 . S
C132 C131 1.409 . S
C132 C133 1.380 . S
C132 H150 0.930 . S
C133 C132 1.380 . S
C133 C140 1.357 . S
C134 C125 1.511 . S
C134 C135 1.341 . S
C134 C136 1.371 . S
C135 C134 1.341 . S
C135 C139 1.394 . S
C135 H151 0.930 . S
C136 C134 1.371 . S
C136 C137 1.392 . S
C136 H152 0.931 . S
C137 C136 1.392 . S
C137 C138 1.331 . S
C137 H155 0.932 . S
C138 C137 1.331 . S
C138 C139 1.336 . S
C139 C135 1.394 . S
C139 C138 1.336 . S
C139 H154 0.929 . S
C140 C130 1.386 . S
C140 C133 1.357 . S
C140 H153 0.928 . S
H141 C117 0.931 . S
H142 C119 0.930 . S
H143 C121 0.929 . S
H144 C122 0.931 . S
H145 C124 0.930 . S
H146 C128 0.931 . S
H147 C126 0.931 . S
H148 C130 0.931 . S
H149 C131 0.929 . S
H150 C132 0.930 . S
H151 C135 0.930 . S
H152 C136 0.931 . S
H153 C140 0.928 . S
H154 C139 0.929 . S
H155 C137 0.932 . S
C156 C157 1.386 . S
C156 C158 1.397 . S
C156 H180 0.931 . S
C157 C156 1.386 . S
C157 C161 1.397 . S
C158 C156 1.397 . S
C158 C159 1.384 . S
C158 H181 0.930 . S
C159 C158 1.384 . S
C159 C160 1.377 . S
C159 C162 1.481 . S
C160 C159 1.377 . S
C160 C161 1.389 . S
C160 H182 0.929 . S
C161 C157 1.397 . S
C161 C160 1.389 . S
C161 H183 0.931 . S
C162 C159 1.481 . S
C162 C163 1.387 . S
C162 C167 1.390 . S
C163 C162 1.387 . S
C163 C164 1.401 . S
C163 H184 0.930 . S
C164 C163 1.401 . S
C164 C165 1.376 1_554 S
C164 C173 1.511 . S
C165 C164 1.376 1_556 S
C165 C166 1.392 . S
C165 H186 0.931 . S
C166 C165 1.392 . S
C166 C167 1.361 1_556 S
C166 C168 1.500 . S
C167 C162 1.390 . S
C167 C166 1.361 1_554 S
C167 H185 0.931 . S
C168 C166 1.500 . S
C168 C169 1.371 . S
C168 C170 1.365 . S
C169 C168 1.371 . S
C169 C179 1.386 . S
C169 H187 0.931 . S
C170 C168 1.365 . S
C170 C171 1.409 . S
C170 H188 0.929 . S
C171 C170 1.409 . S
C171 C172 1.380 . S
C171 H189 0.930 . S
C172 C171 1.380 . S
C172 C179 1.357 . S
C173 C164 1.511 . S
C173 C174 1.341 . S
C173 C175 1.371 . S
C174 C173 1.341 . S
C174 C178 1.394 . S
C174 H190 0.930 . S
C175 C173 1.371 . S
C175 C176 1.392 . S
C175 H191 0.931 1_554 S
C176 C175 1.392 . S
C176 C177 1.331 . S
C176 H194 0.932 . S
C177 C176 1.331 . S
C177 C178 1.336 . S
C178 C174 1.394 . S
C178 C177 1.336 . S
C178 H193 0.929 . S
C179 C169 1.386 . S
C179 C172 1.357 . S
C179 H192 0.928 . S
H180 C156 0.931 . S
H181 C158 0.930 . S
H182 C160 0.929 . S
H183 C161 0.931 . S
H184 C163 0.930 . S
H185 C167 0.931 . S
H186 C165 0.931 . S
H187 C169 0.931 . S
H188 C170 0.929 . S
H189 C171 0.930 . S
H190 C174 0.930 . S
H191 C175 0.931 1_556 S
H192 C179 0.928 . S
H193 C178 0.929 . S
H194 C176 0.932 . S
C195 C196 1.385 . S
C195 C197 1.397 . S
C195 H219 0.931 . S
C196 C195 1.385 . S
C196 C200 1.398 1_655 S
C197 C195 1.397 . S
C197 C198 1.389 1_655 S
C197 H220 0.930 . S
C198 C197 1.389 1_455 S
C198 C199 1.373 . S
C198 C201 1.480 1_455 S
C199 C198 1.373 . S
C199 C200 1.389 . S
C199 H221 0.929 . S
C200 C196 1.398 1_455 S
C200 C199 1.389 . S
C200 H222 0.931 . S
C201 C198 1.480 1_655 S
C201 C202 1.386 . S
C201 C206 1.390 . S
C202 C201 1.386 . S
C202 C203 1.400 . S
C202 H223 0.935 . S
C203 C202 1.400 . S
C203 C204 1.376 1_554 S
C203 C212 1.512 . S
C204 C203 1.376 1_556 S
C204 C205 1.392 1_655 S
C204 H225 0.933 . S
C205 C204 1.392 1_455 S
C205 C206 1.361 1_456 S
C205 C207 1.499 . S
C206 C201 1.390 . S
C206 C205 1.361 1_654 S
C206 H224 0.931 1_655 S
C207 C205 1.499 . S
C207 C208 1.357 1_455 S
C207 C209 1.380 . S
C208 C207 1.357 1_655 S
C208 C218 1.386 . S
C208 H226 0.931 . S
C209 C207 1.380 . S
C209 C210 1.409 . S
C209 H227 0.929 . S
C210 C209 1.409 . S
C210 C211 1.384 . S
C210 H228 0.930 . S
C211 C210 1.384 . S
C211 C218 1.353 1_455 S
C212 C203 1.512 . S
C212 C213 1.341 . S
C212 C214 1.371 1_655 S
C213 C212 1.341 . S
C213 C217 1.394 . S
C213 H229 0.930 . S
C214 C212 1.371 1_455 S
C214 C215 1.392 . S
C214 H230 0.931 1_554 S
C215 C214 1.392 . S
C215 C216 1.326 1_455 S
C215 H233 0.932 . S
C216 C215 1.326 1_655 S
C216 C217 1.341 . S
C217 C213 1.394 . S
C217 C216 1.341 . S
C217 H232 0.929 . S
C218 C208 1.386 . S
C218 C211 1.353 1_655 S
C218 H231 0.928 . S
H219 C195 0.931 . S
H220 C197 0.930 . S
H221 C199 0.929 . S
H222 C200 0.931 . S
H223 C202 0.935 . S
H224 C206 0.931 1_455 S
H225 C204 0.933 . S
H226 C208 0.931 . S
H227 C209 0.929 . S
H228 C210 0.930 . S
H229 C213 0.930 . S
H230 C214 0.931 1_556 S
H231 C218 0.928 . S
H232 C217 0.929 . S
H233 C215 0.932 . S
C234 C235 1.386 1_565 S
C234 C236 1.397 . S
C234 H258 0.931 . S
C235 C234 1.386 1_545 S
C235 C239 1.397 . S
C236 C234 1.397 . S
C236 C237 1.384 1_565 S
C236 H259 0.930 . S
C237 C236 1.384 1_545 S
C237 C238 1.377 . S
C237 C240 1.481 . S
C238 C237 1.377 . S
C238 C239 1.389 . S
C238 H260 0.929 . S
C239 C235 1.397 . S
C239 C238 1.389 . S
C239 H261 0.931 . S
C240 C237 1.481 . S
C240 C241 1.387 . S
C240 C245 1.390 . S
C241 C240 1.387 . S
C241 C242 1.401 . S
C241 H262 0.930 . S
C242 C241 1.401 . S
C242 C243 1.376 1_554 S
C242 C251 1.511 . S
C243 C242 1.376 1_556 S
C243 C244 1.392 . S
C243 H264 0.931 . S
C244 C243 1.392 . S
C244 C245 1.361 1_556 S
C244 C246 1.500 . S
C245 C240 1.390 . S
C245 C244 1.361 1_554 S
C245 H263 0.931 . S
C246 C244 1.500 . S
C246 C247 1.371 1_545 S
C246 C248 1.365 . S
C247 C246 1.371 1_565 S
C247 C257 1.386 . S
C247 H265 0.931 . S
C248 C246 1.365 . S
C248 C249 1.409 . S
C248 H266 0.929 . S
C249 C248 1.409 . S
C249 C250 1.380 . S
C249 H267 0.930 . S
C250 C249 1.380 . S
C250 C257 1.357 1_545 S
C251 C242 1.511 . S
C251 C252 1.341 1_545 S
C251 C253 1.371 . S
C252 C251 1.341 1_565 S
C252 C256 1.394 . S
C252 H268 0.930 . S
C253 C251 1.371 . S
C253 C254 1.392 . S
C253 H269 0.931 1_554 S
C254 C253 1.392 . S
C254 C255 1.331 . S
C254 H272 0.932 . S
C255 C254 1.331 . S
C255 C256 1.336 1_545 S
C256 C252 1.394 . S
C256 C255 1.336 1_565 S
C256 H271 0.929 . S
C257 C247 1.386 . S
C257 C250 1.357 1_565 S
C257 H270 0.928 . S
H258 C234 0.931 . S
H259 C236 0.930 . S
H260 C238 0.929 . S
H261 C239 0.931 . S
H262 C241 0.930 . S
H263 C245 0.931 . S
H264 C243 0.931 . S
H265 C247 0.931 . S
H266 C248 0.929 . S
H267 C249 0.930 . S
H268 C252 0.930 . S
H269 C253 0.931 1_556 S
H270 C257 0.928 . S
H271 C256 0.929 . S
H272 C254 0.932 . S
C273 C274 1.386 . S
C273 C275 1.397 . S
C273 H297 0.931 . S
C274 C273 1.386 . S
C274 C278 1.397 . S
C275 C273 1.397 . S
C275 C276 1.384 . S
C275 H298 0.930 . S
C276 C275 1.384 . S
C276 C277 1.377 . S
C276 C279 1.481 . S
C277 C276 1.377 . S
C277 C278 1.389 . S
C277 H299 0.929 . S
C278 C274 1.397 . S
C278 C277 1.389 . S
C278 H300 0.931 . S
C279 C276 1.481 . S
C279 C280 1.387 . S
C279 C284 1.390 1_556 S
C280 C279 1.387 . S
C280 C281 1.401 1_556 S
C280 H301 0.930 . S
C281 C280 1.401 1_554 S
C281 C282 1.376 . S
C281 C290 1.511 . S
C282 C281 1.376 . S
C282 C283 1.392 . S
C282 H303 0.931 . S
C283 C282 1.392 . S
C283 C284 1.361 . S
C283 C285 1.500 . S
C284 C279 1.390 1_554 S
C284 C283 1.361 . S
C284 H302 0.931 . S
C285 C283 1.500 . S
C285 C286 1.371 . S
C285 C287 1.365 . S
C286 C285 1.371 . S
C286 C296 1.386 . S
C286 H304 0.931 . S
C287 C285 1.365 . S
C287 C288 1.409 . S
C287 H305 0.929 . S
C288 C287 1.409 . S
C288 C289 1.380 . S
C288 H306 0.930 . S
C289 C288 1.380 . S
C289 C296 1.357 . S
C290 C281 1.511 . S
C290 C291 1.341 . S
C290 C292 1.371 . S
C291 C290 1.341 . S
C291 C295 1.394 . S
C291 H307 0.930 1_554 S
C292 C290 1.371 . S
C292 C293 1.392 . S
C292 H308 0.931 . S
C293 C292 1.392 . S
C293 C294 1.331 . S
C293 H311 0.932 . S
C294 C293 1.331 . S
C294 C295 1.336 . S
C295 C291 1.394 . S
C295 C294 1.336 . S
C295 H310 0.929 . S
C296 C286 1.386 . S
C296 C289 1.357 . S
C296 H309 0.928 . S
H297 C273 0.931 . S
H298 C275 0.930 . S
H299 C277 0.929 . S
H300 C278 0.931 . S
H301 C280 0.930 . S
H302 C284 0.931 . S
H303 C282 0.931 . S
H304 C286 0.931 . S
H305 C287 0.929 . S
H306 C288 0.930 . S
H307 C291 0.930 1_556 S
H308 C292 0.931 . S
H309 C296 0.928 . S
H310 C295 0.929 . S
H311 C293 0.932 . S
Sm312 C314 2.846 . S
Sm312 O332 2.543 . S
Sm312 O333 2.450 . S
Sm312 O334 2.681 1_565 S
Sm312 O335 2.464 . S
Sm312 O336 2.396 . S
Sm312 O340 2.386 1_455 S
Sm312 O343 2.408 1_565 S
Sm313 C323 2.846 . S
Sm313 O334 2.386 1_655 S
Sm313 O337 2.408 1_545 S
Sm313 O338 2.543 . S
Sm313 O339 2.450 . S
Sm313 O340 2.681 1_545 S
Sm313 O341 2.464 . S
Sm313 O342 2.396 . S
C314 Sm312 2.846 . S
C314 C315 1.506 . S
C314 O332 1.261 . S
C314 O333 1.242 . S
C315 C314 1.506 . S
C315 C316 1.358 . S
C315 C320 1.382 . S
C316 C315 1.358 . S
C316 C317 1.385 . S
C316 H344 0.930 1_455 S
C317 C316 1.385 . S
C317 C318 1.395 . S
C317 H345 0.929 1_455 S
C318 C317 1.395 . S
C318 C319 1.335 . S
C319 C318 1.335 . S
C319 C320 1.398 . S
C319 H346 0.930 . S
C320 C315 1.382 . S
C320 C319 1.398 . S
C320 H347 0.929 . S
C321 O334 1.268 1_565 S
C321 O335 1.257 . S
C322 O336 1.252 1_655 S
C322 O337 1.272 . S
C323 Sm313 2.846 . S
C323 C324 1.506 . S
C323 O338 1.261 . S
C323 O339 1.242 . S
C324 C323 1.506 . S
C324 C325 1.358 . S
C324 C329 1.382 . S
C325 C324 1.358 . S
C325 C326 1.385 . S
C325 H348 0.930 1_655 S
C326 C325 1.385 . S
C326 C327 1.395 . S
C326 H349 0.929 1_655 S
C327 C326 1.395 . S
C327 C328 1.335 . S
C328 C327 1.335 . S
C328 C329 1.398 . S
C328 H350 0.930 . S
C329 C324 1.382 . S
C329 C328 1.398 . S
C329 H351 0.929 . S
C330 O340 1.254 1_545 S
C330 O341 1.282 . S
C331 O342 1.252 1_455 S
C331 O343 1.272 . S
O332 Sm312 2.543 . S
O332 C314 1.261 . S
O333 Sm312 2.450 . S
O333 C314 1.242 . S
O334 Sm312 2.681 1_545 S
O334 Sm313 2.386 1_455 S
O334 C321 1.268 1_545 S
O335 Sm312 2.464 . S
O335 C321 1.257 . S
O336 Sm312 2.396 . S
O336 C322 1.252 1_455 S
O337 Sm313 2.408 1_565 S
O337 C322 1.272 . S
O338 Sm313 2.543 . S
O338 C323 1.261 . S
O339 Sm313 2.450 . S
O339 C323 1.242 . S
O340 Sm312 2.386 1_655 S
O340 Sm313 2.681 1_565 S
O340 C330 1.254 1_565 S
O341 Sm313 2.464 . S
O341 C330 1.282 . S
O342 Sm313 2.396 . S
O342 C331 1.252 1_655 S
O343 Sm312 2.408 1_545 S
O343 C331 1.272 . S
H344 C316 0.930 1_655 S
H345 C317 0.929 1_655 S
H346 C319 0.930 . S
H347 C320 0.929 . S
H348 C325 0.930 1_455 S
H349 C326 0.929 1_455 S
H350 C328 0.930 . S
H351 C329 0.929 . S
Sm352 C354 2.846 . S
Sm352 O372 2.568 . S
Sm352 O373 2.450 . S
Sm352 O374 2.681 . S
Sm352 O375 2.464 . S
Sm352 O376 2.396 . S
Sm352 O380 2.386 1_545 S
Sm352 O383 2.408 . S
Sm353 C363 2.846 . S
Sm353 O374 2.386 1_565 S
Sm353 O377 2.408 . S
Sm353 O378 2.549 . S
Sm353 O379 2.450 . S
Sm353 O380 2.681 . S
Sm353 O381 2.464 . S
Sm353 O382 2.396 . S
C354 Sm352 2.846 . S
C354 C355 1.506 . S
C354 O372 1.320 . S
C354 O373 1.242 . S
C355 C354 1.506 . S
C355 C356 1.358 . S
C355 C360 1.382 . S
C356 C355 1.358 . S
C356 C357 1.385 . S
C356 H384 0.930 1_545 S
C357 C356 1.385 . S
C357 C358 1.395 . S
C357 H385 0.929 1_545 S
C358 C357 1.395 . S
C358 C359 1.335 . S
C359 C358 1.335 . S
C359 C360 1.398 . S
C359 H386 0.930 . S
C360 C355 1.382 . S
C360 C359 1.398 . S
C360 H387 0.929 . S
C361 O374 1.271 . S
C361 O375 1.251 . S
C362 O376 1.252 1_565 S
C362 O377 1.272 . S
C363 Sm353 2.846 . S
C363 C364 1.506 . S
C363 O378 1.276 . S
C363 O379 1.242 . S
C364 C363 1.506 . S
C364 C365 1.358 . S
C364 C369 1.382 . S
C365 C364 1.358 . S
C365 C366 1.385 . S
C365 H388 0.930 1_565 S
C366 C365 1.385 . S
C366 C367 1.395 . S
C366 H389 0.929 1_565 S
C367 C366 1.395 . S
C367 C368 1.335 . S
C368 C367 1.335 . S
C368 C369 1.398 . S
C368 H390 0.930 . S
C369 C364 1.382 . S
C369 C368 1.398 . S
C369 H391 0.929 . S
C370 O380 1.271 . S
C370 O381 1.251 . S
C371 O382 1.252 1_545 S
C371 O383 1.272 . S
O372 Sm352 2.568 . S
O372 C354 1.320 . S
O373 Sm352 2.450 . S
O373 C354 1.242 . S
O374 Sm352 2.681 . S
O374 Sm353 2.386 1_545 S
O374 C361 1.271 . S
O375 Sm352 2.464 . S
O375 C361 1.251 . S
O376 Sm352 2.396 . S
O376 C362 1.252 1_545 S
O377 Sm353 2.408 . S
O377 C362 1.272 . S
O378 Sm353 2.549 . S
O378 C363 1.276 . S
O379 Sm353 2.450 . S
O379 C363 1.242 . S
O380 Sm352 2.386 1_565 S
O380 Sm353 2.681 . S
O380 C370 1.271 . S
O381 Sm353 2.464 . S
O381 C370 1.251 . S
O382 Sm353 2.396 . S
O382 C371 1.252 1_565 S
O383 Sm352 2.408 . S
O383 C371 1.272 . S
H384 C356 0.930 1_565 S
H385 C357 0.929 1_565 S
H386 C359 0.930 . S
H387 C360 0.929 . S
H388 C365 0.930 1_545 S
H389 C366 0.929 1_545 S
H390 C368 0.930 . S
H391 C369 0.929 . S
Sm392 C394 2.846 . S
Sm392 O412 2.543 . S
Sm392 O413 2.450 . S
Sm392 O414 2.681 . S
Sm392 O415 2.464 . S
Sm392 O416 2.396 . S
Sm392 O420 2.386 . S
Sm392 O423 2.408 . S
Sm393 C403 2.846 . S
Sm393 O414 2.386 . S
Sm393 O417 2.408 . S
Sm393 O418 2.543 . S
Sm393 O419 2.450 . S
Sm393 O420 2.681 . S
Sm393 O421 2.464 . S
Sm393 O422 2.396 . S
C394 Sm392 2.846 . S
C394 C395 1.506 . S
C394 O412 1.261 . S
C394 O413 1.242 . S
C395 C394 1.506 . S
C395 C396 1.358 . S
C395 C400 1.382 . S
C396 C395 1.358 . S
C396 C397 1.385 . S
C396 H424 0.930 . S
C397 C396 1.385 . S
C397 C398 1.395 . S
C397 H425 0.929 . S
C398 C397 1.395 . S
C398 C399 1.335 . S
C399 C398 1.335 . S
C399 C400 1.398 . S
C399 H426 0.930 . S
C400 C395 1.382 . S
C400 C399 1.398 . S
C400 H427 0.929 . S
C401 O414 1.271 . S
C401 O415 1.251 . S
C402 O416 1.252 . S
C402 O417 1.272 . S
C403 Sm393 2.846 . S
C403 C404 1.506 . S
C403 O418 1.261 . S
C403 O419 1.242 . S
C404 C403 1.506 . S
C404 C405 1.358 . S
C404 C409 1.382 . S
C405 C404 1.358 . S
C405 C406 1.385 . S
C405 H428 0.930 . S
C406 C405 1.385 . S
C406 C407 1.395 . S
C406 H429 0.929 . S
C407 C406 1.395 . S
C407 C408 1.335 . S
C408 C407 1.335 . S
C408 C409 1.398 . S
C408 H430 0.930 . S
C409 C404 1.382 . S
C409 C408 1.398 . S
C409 H431 0.929 . S
C410 O420 1.271 . S
C410 O421 1.251 . S
C411 O422 1.252 . S
C411 O423 1.272 . S
O412 Sm392 2.543 . S
O412 C394 1.261 . S
O413 Sm392 2.450 . S
O413 C394 1.242 . S
O414 Sm392 2.681 . S
O414 Sm393 2.386 . S
O414 C401 1.271 . S
O415 Sm392 2.464 . S
O415 C401 1.251 . S
O416 Sm392 2.396 . S
O416 C402 1.252 . S
O417 Sm393 2.408 . S
O417 C402 1.272 . S
O418 Sm393 2.543 . S
O418 C403 1.261 . S
O419 Sm393 2.450 . S
O419 C403 1.242 . S
O420 Sm392 2.386 . S
O420 Sm393 2.681 . S
O420 C410 1.271 . S
O421 Sm393 2.464 . S
O421 C410 1.251 . S
O422 Sm393 2.396 . S
O422 C411 1.252 . S
O423 Sm392 2.408 . S
O423 C411 1.272 . S
H424 C396 0.930 . S
H425 C397 0.929 . S
H426 C399 0.930 . S
H427 C400 0.929 . S
H428 C405 0.930 . S
H429 C406 0.929 . S
H430 C408 0.930 . S
H431 C409 0.929 . S
Sm432 C434 2.846 . S
Sm432 O452 2.543 . S
Sm432 O453 2.450 . S
Sm432 O454 2.681 1_655 S
Sm432 O455 2.464 . S
Sm432 O456 2.396 . S
Sm432 O460 2.386 . S
Sm432 O463 2.408 1_655 S
Sm433 C443 2.846 . S
Sm433 O454 2.386 . S
Sm433 O457 2.408 1_455 S
Sm433 O458 2.543 . S
Sm433 O459 2.450 . S
Sm433 O460 2.681 1_455 S
Sm433 O461 2.464 . S
Sm433 O462 2.396 . S
C434 Sm432 2.846 . S
C434 C435 1.506 . S
C434 O452 1.261 . S
C434 O453 1.242 . S
C435 C434 1.506 . S
C435 C436 1.358 . S
C435 C440 1.382 . S
C436 C435 1.358 . S
C436 C437 1.385 . S
C436 H464 0.930 . S
C437 C436 1.385 . S
C437 C438 1.395 . S
C437 H465 0.929 . S
C438 C437 1.395 . S
C438 C439 1.335 . S
C439 C438 1.335 . S
C439 C440 1.398 . S
C439 H466 0.930 . S
C440 C435 1.382 . S
C440 C439 1.398 . S
C440 H467 0.929 . S
C441 O454 1.271 1_655 S
C441 O455 1.251 . S
C442 O456 1.252 . S
C442 O457 1.272 . S
C443 Sm433 2.846 . S
C443 C444 1.506 . S
C443 O458 1.261 . S
C443 O459 1.242 . S
C444 C443 1.506 . S
C444 C445 1.358 . S
C444 C449 1.382 . S
C445 C444 1.358 . S
C445 C446 1.385 . S
C445 H468 0.930 . S
C446 C445 1.385 . S
C446 C447 1.395 . S
C446 H469 0.929 . S
C447 C446 1.395 . S
C447 C448 1.335 . S
C448 C447 1.335 . S
C448 C449 1.398 . S
C448 H470 0.930 . S
C449 C444 1.382 . S
C449 C448 1.398 . S
C449 H471 0.929 . S
C450 O460 1.271 1_455 S
C450 O461 1.251 . S
C451 O462 1.252 . S
C451 O463 1.272 . S
O452 Sm432 2.543 . S
O452 C434 1.261 . S
O453 Sm432 2.450 . S
O453 C434 1.242 . S
O454 Sm432 2.681 1_455 S
O454 Sm433 2.386 . S
O454 C441 1.271 1_455 S
O455 Sm432 2.464 . S
O455 C441 1.251 . S
O456 Sm432 2.396 . S
O456 C442 1.252 . S
O457 Sm433 2.408 1_655 S
O457 C442 1.272 . S
O458 Sm433 2.543 . S
O458 C443 1.261 . S
O459 Sm433 2.450 . S
O459 C443 1.242 . S
O460 Sm432 2.386 . S
O460 Sm433 2.681 1_655 S
O460 C450 1.271 1_655 S
O461 Sm433 2.464 . S
O461 C450 1.251 . S
O462 Sm433 2.396 . S
O462 C451 1.252 . S
O463 Sm432 2.408 1_455 S
O463 C451 1.272 . S
H464 C436 0.930 . S
H465 C437 0.929 . S
H466 C439 0.930 . S
H467 C440 0.929 . S
H468 C445 0.930 . S
H469 C446 0.929 . S
H470 C448 0.930 . S
H471 C449 0.929 . S
C472 C473 1.349 . S
C472 C474 1.327 . S
C472 H497 0.950 . S
C473 C472 1.349 . S
C473 C489 1.349 1_545 S
C474 C472 1.327 . S
C474 C493 1.429 . S
C474 H498 0.950 . S
C475 C492 1.574 . S
C475 C494 1.368 1_565 S
C475 H499 0.949 . S
H476 C480 0.949 . S
C477 C478 1.349 1_565 S
C477 C479 1.327 . S
C477 H500 0.950 . S
C478 C477 1.349 1_545 S
C478 C490 1.349 . S
C479 C477 1.327 . S
C479 C495 1.429 1_565 S
C479 H501 0.950 . S
C480 H476 0.949 . S
C480 C488 1.574 . S
C480 C496 1.368 . S
H481 C489 0.950 . S
H482 C487 0.950 . S
H483 C488 0.949 . S
H484 C490 0.950 . S
H485 C491 0.950 . S
H486 C492 0.949 . S
C487 H482 0.950 . S
C487 C489 1.327 . S
C487 C493 1.429 1_565 S
C488 C480 1.574 . S
C488 H483 0.949 . S
C488 C494 1.368 . S
C489 C473 1.349 1_565 S
C489 H481 0.950 . S
C489 C487 1.327 . S
C490 C478 1.349 . S
C490 H484 0.950 . S
C490 C491 1.327 . S
C491 H485 0.950 . S
C491 C490 1.327 . S
C491 C495 1.429 . S
C492 C475 1.574 . S
C492 H486 0.949 . S
C492 C496 1.368 1_565 S
C493 C474 1.429 . S
C493 C487 1.429 1_545 S
C493 C494 1.523 . S
C494 C475 1.368 1_545 S
C494 C488 1.368 . S
C494 C493 1.523 . S
C495 C479 1.429 1_545 S
C495 C491 1.429 . S
C495 C496 1.523 . S
C496 C480 1.368 . S
C496 C492 1.368 1_545 S
C496 C495 1.523 . S
H497 C472 0.950 . S
H498 C474 0.950 . S
H499 C475 0.949 . S
H500 C477 0.950 . S
H501 C479 0.950 . S
C502 C503 1.349 . S
C502 C504 1.327 . S
C502 H527 0.950 . S
C503 C502 1.349 . S
C503 C519 1.349 . S
C504 C502 1.327 . S
C504 C523 1.429 . S
C504 H528 0.950 . S
C505 C522 1.574 . S
C505 C524 1.368 . S
C505 H529 0.949 . S
H506 C510 0.949 . S
C507 C508 1.349 . S
C507 C509 1.327 . S
C507 H530 0.950 . S
C508 C507 1.349 . S
C508 C520 1.349 . S
C509 C507 1.327 . S
C509 C525 1.429 . S
C509 H531 0.950 . S
C510 H506 0.949 . S
C510 C518 1.574 . S
C510 C526 1.368 . S
H511 C519 0.950 . S
H512 C517 0.950 . S
H513 C518 0.949 . S
H514 C520 0.950 . S
H515 C521 0.950 . S
H516 C522 0.949 . S
C517 H512 0.950 . S
C517 C519 1.327 . S
C517 C523 1.429 . S
C518 C510 1.574 . S
C518 H513 0.949 . S
C518 C524 1.368 . S
C519 C503 1.349 . S
C519 H511 0.950 . S
C519 C517 1.327 . S
C520 C508 1.349 . S
C520 H514 0.950 . S
C520 C521 1.327 . S
C521 H515 0.950 . S
C521 C520 1.327 . S
C521 C525 1.429 . S
C522 C505 1.574 . S
C522 H516 0.949 . S
C522 C526 1.368 . S
C523 C504 1.429 . S
C523 C517 1.429 . S
C523 C524 1.523 . S
C524 C505 1.368 . S
C524 C518 1.368 . S
C524 C523 1.523 . S
C525 C509 1.429 . S
C525 C521 1.429 . S
C525 C526 1.523 . S
C526 C510 1.368 . S
C526 C522 1.368 . S
C526 C525 1.523 . S
H527 C502 0.950 . S
H528 C504 0.950 . S
H529 C505 0.949 . S
H530 C507 0.950 . S
H531 C509 0.950 . S
C532 C533 1.349 . S
C532 C534 1.327 . S
C532 H557 0.950 . S
C533 C532 1.349 . S
C533 C549 1.349 . S
C534 C532 1.327 . S
C534 C553 1.429 . S
C534 H558 0.950 . S
C535 C552 1.574 . S
C535 C554 1.368 . S
C535 H559 0.949 . S
H536 C540 0.949 . S
C537 C538 1.349 . S
C537 C539 1.327 . S
C537 H560 0.950 . S
C538 C537 1.349 . S
C538 C550 1.349 . S
C539 C537 1.327 . S
C539 C555 1.429 . S
C539 H561 0.950 . S
C540 H536 0.949 . S
C540 C548 1.574 . S
C540 C556 1.368 . S
H541 C549 0.950 . S
H542 C547 0.950 . S
H543 C548 0.949 . S
H544 C550 0.950 . S
H545 C551 0.950 . S
H546 C552 0.949 . S
C547 H542 0.950 . S
C547 C549 1.327 . S
C547 C553 1.429 . S
C548 C540 1.574 . S
C548 H543 0.949 . S
C548 C554 1.368 . S
C549 C533 1.349 . S
C549 H541 0.950 . S
C549 C547 1.327 . S
C550 C538 1.349 . S
C550 H544 0.950 . S
C550 C551 1.327 . S
C551 H545 0.950 . S
C551 C550 1.327 . S
C551 C555 1.429 . S
C552 C535 1.574 . S
C552 H546 0.949 . S
C552 C556 1.368 . S
C553 C534 1.429 . S
C553 C547 1.429 . S
C553 C554 1.523 . S
C554 C535 1.368 . S
C554 C548 1.368 . S
C554 C553 1.523 . S
C555 C539 1.429 . S
C555 C551 1.429 . S
C555 C556 1.523 . S
C556 C540 1.368 . S
C556 C552 1.368 . S
C556 C555 1.523 . S
H557 C532 0.950 . S
H558 C534 0.950 . S
H559 C535 0.949 . S
H560 C537 0.950 . S
H561 C539 0.950 . S
C562 C563 1.353 . S
C562 C564 1.327 . S
C562 H587 0.950 . S
C563 C562 1.353 . S
C563 C579 1.345 1_455 S
C564 C562 1.327 . S
C564 C583 1.441 . S
C564 H588 0.950 . S
C565 C582 1.574 . S
C565 C584 1.350 1_655 S
C565 H589 0.949 . S
H566 C570 0.949 . S
C567 C568 1.311 1_655 S
C567 C569 1.327 . S
C567 H590 0.950 . S
C568 C567 1.311 1_455 S
C568 C580 1.388 . S
C569 C567 1.327 . S
C569 C585 1.400 1_655 S
C569 H591 0.950 . S
C570 H566 0.949 . S
C570 C578 1.574 . S
C570 C586 1.395 . S
H571 C579 0.950 . S
H572 C577 0.950 . S
H573 C578 0.949 . S
H574 C580 0.950 . S
H575 C581 0.950 . S
H576 C582 0.949 . S
C577 H572 0.950 . S
C577 C579 1.327 . S
C577 C583 1.417 1_655 S
C578 C570 1.574 . S
C578 H573 0.949 . S
C578 C584 1.387 . S
C579 C563 1.345 1_655 S
C579 H571 0.950 . S
C579 C577 1.327 . S
C580 C568 1.388 . S
C580 H574 0.950 . S
C580 C581 1.327 . S
C581 H575 0.950 . S
C581 C580 1.327 . S
C581 C585 1.458 . S
C582 C565 1.574 . S
C582 H576 0.949 . S
C582 C586 1.342 1_655 S
C583 C564 1.441 . S
C583 C577 1.417 1_455 S
C583 C584 1.523 . S
C584 C565 1.350 1_455 S
C584 C578 1.387 . S
C584 C583 1.523 . S
C585 C569 1.400 1_455 S
C585 C581 1.458 . S
C585 C586 1.523 . S
C586 C570 1.395 . S
C586 C582 1.342 1_455 S
C586 C585 1.523 . S
H587 C562 0.950 . S
H588 C564 0.950 . S
H589 C565 0.949 . S
H590 C567 0.950 . S
H591 C569 0.950 . S
C592 C593 1.349 . S
C592 C594 1.327 . S
C592 H617 0.950 . S
C593 C592 1.349 . S
C593 C609 1.349 1_565 S
C594 C592 1.327 . S
C594 C613 1.429 . S
C594 H618 0.950 . S
C595 C612 1.574 1_554 S
C595 C614 1.368 1_545 S
C595 H619 0.949 . S
H596 C600 0.949 . S
C597 C598 1.349 1_545 S
C597 C599 1.327 . S
C597 H620 0.950 . S
C598 C597 1.349 1_565 S
C598 C610 1.349 . S
C599 C597 1.327 . S
C599 C615 1.429 1_545 S
C599 H621 0.950 . S
C600 H596 0.949 . S
C600 C608 1.574 . S
C600 C616 1.368 . S
H601 C609 0.950 . S
H602 C607 0.950 . S
H603 C608 0.950 . S
H604 C610 0.950 . S
H605 C611 0.950 . S
H606 C612 0.949 . S
C607 H602 0.950 . S
C607 C609 1.327 . S
C607 C613 1.429 1_545 S
C608 C600 1.574 . S
C608 H603 0.950 . S
C608 C614 1.368 1_556 S
C609 C593 1.349 1_545 S
C609 H601 0.950 . S
C609 C607 1.327 . S
C610 C598 1.349 . S
C610 H604 0.950 . S
C610 C611 1.327 . S
C611 H605 0.950 . S
C611 C610 1.327 . S
C611 C615 1.429 . S
C612 C595 1.574 1_556 S
C612 H606 0.949 . S
C612 C616 1.368 1_545 S
C613 C594 1.429 . S
C613 C607 1.429 1_565 S
C613 C614 1.523 . S
C614 C595 1.368 1_565 S
C614 C608 1.368 1_554 S
C614 C613 1.523 . S
C615 C599 1.429 1_565 S
C615 C611 1.429 . S
C615 C616 1.523 . S
C616 C600 1.368 . S
C616 C612 1.368 1_565 S
C616 C615 1.523 . S
H617 C592 0.950 . S
H618 C594 0.950 . S
H619 C595 0.949 . S
H620 C597 0.950 . S
H621 C599 0.950 . S
C622 C623 1.349 . S
C622 C624 1.327 . S
C622 H647 0.950 . S
C623 C622 1.349 . S
C623 C639 1.349 . S
C624 C622 1.327 . S
C624 C643 1.429 . S
C624 H648 0.950 . S
C625 C642 1.574 . S
C625 C644 1.368 1_556 S
C625 H649 0.949 . S
H626 C630 0.949 . S
C627 C628 1.349 . S
C627 C629 1.327 . S
C627 H650 0.950 . S
C628 C627 1.349 . S
C628 C640 1.349 . S
C629 C627 1.327 . S
C629 C645 1.429 . S
C629 H651 0.950 . S
C630 H626 0.949 . S
C630 C638 1.574 1_556 S
C630 C646 1.368 . S
H631 C639 0.950 . S
H632 C637 0.950 . S
H633 C638 0.949 . S
H634 C640 0.950 . S
H635 C641 0.950 . S
H636 C642 0.949 . S
C637 H632 0.950 . S
C637 C639 1.327 . S
C637 C643 1.429 . S
C638 C630 1.574 1_554 S
C638 H633 0.949 . S
C638 C644 1.368 . S
C639 C623 1.349 . S
C639 H631 0.950 . S
C639 C637 1.327 . S
C640 C628 1.349 . S
C640 H634 0.950 . S
C640 C641 1.327 . S
C641 H635 0.950 . S
C641 C640 1.327 . S
C641 C645 1.429 . S
C642 C625 1.574 . S
C642 H636 0.949 . S
C642 C646 1.368 . S
C643 C624 1.429 . S
C643 C637 1.429 . S
C643 C644 1.523 . S
C644 C625 1.368 1_554 S
C644 C638 1.368 . S
C644 C643 1.523 . S
C645 C629 1.429 . S
C645 C641 1.429 . S
C645 C646 1.523 . S
C646 C630 1.368 . S
C646 C642 1.368 . S
C646 C645 1.523 . S
H647 C622 0.950 . S
H648 C624 0.950 . S
H649 C625 0.949 . S
H650 C627 0.950 . S
H651 C629 0.950 . S
C652 C653 1.349 . S
C652 C654 1.327 . S
C652 H677 0.950 . S
C653 C652 1.349 . S
C653 C669 1.349 . S
C654 C652 1.327 . S
C654 C673 1.429 . S
C654 H678 0.950 . S
C655 C672 1.574 . S
C655 C674 1.368 1_556 S
C655 H679 0.949 . S
H656 C660 0.949 . S
C657 C658 1.349 . S
C657 C659 1.327 . S
C657 H680 0.950 . S
C658 C657 1.349 . S
C658 C670 1.349 . S
C659 C657 1.327 . S
C659 C675 1.429 . S
C659 H681 0.950 . S
C660 H656 0.949 . S
C660 C668 1.574 1_556 S
C660 C676 1.368 . S
H661 C669 0.950 . S
H662 C667 0.950 . S
H663 C668 0.949 . S
H664 C670 0.950 . S
H665 C671 0.950 . S
H666 C672 0.949 . S
C667 H662 0.950 . S
C667 C669 1.327 . S
C667 C673 1.429 . S
C668 C660 1.574 1_554 S
C668 H663 0.949 . S
C668 C674 1.368 . S
C669 C653 1.349 . S
C669 H661 0.950 . S
C669 C667 1.327 . S
C670 C658 1.349 . S
C670 H664 0.950 . S
C670 C671 1.327 . S
C671 H665 0.950 . S
C671 C670 1.327 . S
C671 C675 1.429 . S
C672 C655 1.574 . S
C672 H666 0.949 . S
C672 C676 1.368 . S
C673 C654 1.429 . S
C673 C667 1.429 . S
C673 C674 1.523 . S
C674 C655 1.368 1_554 S
C674 C668 1.368 . S
C674 C673 1.523 . S
C675 C659 1.429 . S
C675 C671 1.429 . S
C675 C676 1.523 . S
C676 C660 1.368 . S
C676 C672 1.368 . S
C676 C675 1.523 . S
H677 C652 0.950 . S
H678 C654 0.950 . S
H679 C655 0.949 . S
H680 C657 0.950 . S
H681 C659 0.950 . S
C682 C683 1.352 . S
C682 C684 1.327 . S
C682 H707 0.950 . S
C683 C682 1.352 . S
C683 C699 1.346 1_655 S
C684 C682 1.327 . S
C684 C703 1.437 . S
C684 H708 0.950 . S
C685 C702 1.574 . S
C685 C704 1.356 1_456 S
C685 H709 0.949 . S
H686 C690 0.949 . S
C687 C688 1.323 1_455 S
C687 C689 1.327 . S
C687 H710 0.950 . S
C688 C687 1.323 1_655 S
C688 C700 1.377 . S
C689 C687 1.327 . S
C689 C705 1.409 1_455 S
C689 H711 0.950 . S
C690 H686 0.949 . S
C690 C698 1.574 1_556 S
C690 C706 1.387 . S
H691 C699 0.950 . S
H692 C697 0.950 . S
H693 C698 0.949 . S
H694 C700 0.950 . S
H695 C701 0.950 . S
H696 C702 0.949 . S
C697 H692 0.950 . S
C697 C699 1.327 . S
C697 C703 1.420 1_455 S
C698 C690 1.574 1_554 S
C698 H693 0.949 . S
C698 C704 1.381 . S
C699 C683 1.346 1_455 S
C699 H691 0.950 . S
C699 C697 1.327 . S
C700 C688 1.377 . S
C700 H694 0.950 . S
C700 C701 1.327 . S
C701 H695 0.950 . S
C701 C700 1.327 . S
C701 C705 1.450 . S
C702 C685 1.574 . S
C702 H696 0.949 . S
C702 C706 1.350 1_455 S
C703 C684 1.437 . S
C703 C697 1.420 1_655 S
C703 C704 1.523 . S
C704 C685 1.356 1_654 S
C704 C698 1.381 . S
C704 C703 1.523 . S
C705 C689 1.409 1_655 S
C705 C701 1.450 . S
C705 C706 1.523 . S
C706 C690 1.387 . S
C706 C702 1.350 1_655 S
C706 C705 1.523 . S
H707 C682 0.950 . S
H708 C684 0.950 . S
H709 C685 0.949 . S
H710 C687 0.950 . S
H711 C689 0.950 . S
C712 C713 1.349 1_655 S
C712 C714 1.327 . S
C712 H737 0.950 . S
C713 C712 1.349 1_455 S
C713 C729 1.349 . S
C714 C712 1.327 . S
C714 C733 1.429 . S
C714 H738 0.950 . S
C715 C732 1.574 1_455 S
C715 C734 1.368 1_455 S
C715 H739 0.949 . S
H716 C720 0.949 . S
C717 C718 1.349 . S
C717 C719 1.327 . S
C717 H740 0.950 . S
C718 C717 1.349 . S
C718 C730 1.349 . S
C719 C717 1.327 . S
C719 C735 1.429 . S
C719 H741 0.946 1_655 S
C720 H716 0.949 . S
C720 C728 1.574 . S
C720 C736 1.368 . S
H721 C729 0.950 . S
H722 C727 0.950 . S
H723 C728 0.949 . S
H724 C730 0.950 . S
H725 C731 0.950 . S
H726 C732 0.949 1_455 S
C727 H722 0.950 . S
C727 C729 1.327 . S
C727 C733 1.429 1_455 S
C728 C720 1.574 . S
C728 H723 0.949 . S
C728 C734 1.368 . S
C729 C713 1.349 . S
C729 H721 0.950 . S
C729 C727 1.327 . S
C730 C718 1.349 . S
C730 H724 0.950 . S
C730 C731 1.327 . S
C731 H725 0.950 . S
C731 C730 1.327 . S
C731 C735 1.429 . S
C732 C715 1.574 1_655 S
C732 H726 0.949 1_655 S
C732 C736 1.368 . S
C733 C714 1.429 . S
C733 C727 1.429 1_655 S
C733 C734 1.523 . S
C734 C715 1.368 1_655 S
C734 C728 1.368 . S
C734 C733 1.523 . S
C735 C719 1.429 . S
C735 C731 1.429 . S
C735 C736 1.523 . S
C736 C720 1.368 . S
C736 C732 1.368 . S
C736 C735 1.523 . S
H737 C712 0.950 . S
H738 C714 0.950 . S
H739 C715 0.949 . S
H740 C717 0.950 . S
H741 C719 0.946 1_455 S
C742 C743 1.349 1_565 S
C742 C744 1.327 . S
C742 H767 0.950 . S
C743 C742 1.349 1_545 S
C743 C759 1.349 . S
C744 C742 1.327 . S
C744 C763 1.429 . S
C744 H768 0.950 . S
C745 C762 1.574 1_545 S
C745 C764 1.368 1_545 S
C745 H769 0.949 . S
H746 C750 0.949 . S
C747 C748 1.349 . S
C747 C749 1.327 . S
C747 H770 0.950 . S
C748 C747 1.349 . S
C748 C760 1.349 . S
C749 C747 1.327 . S
C749 C765 1.429 . S
C749 H771 0.950 . S
C750 H746 0.949 . S
C750 C758 1.574 . S
C750 C766 1.368 . S
H751 C759 0.950 . S
H752 C757 0.950 . S
H753 C758 0.949 . S
H754 C760 0.950 . S
H755 C761 0.950 . S
H756 C762 0.936 1_545 S
C757 H752 0.950 . S
C757 C759 1.327 . S
C757 C763 1.429 1_545 S
C758 C750 1.574 . S
C758 H753 0.949 . S
C758 C764 1.368 . S
C759 C743 1.349 . S
C759 H751 0.950 . S
C759 C757 1.327 . S
C760 C748 1.349 . S
C760 H754 0.950 . S
C760 C761 1.327 . S
C761 H755 0.950 . S
C761 C760 1.327 . S
C761 C765 1.429 . S
C762 C745 1.574 1_565 S
C762 H756 0.936 1_565 S
C762 C766 1.368 . S
C763 C744 1.429 . S
C763 C757 1.429 1_565 S
C763 C764 1.523 . S
C764 C745 1.368 1_565 S
C764 C758 1.368 . S
C764 C763 1.523 . S
C765 C749 1.429 . S
C765 C761 1.429 . S
C765 C766 1.523 . S
C766 C750 1.368 . S
C766 C762 1.368 . S
C766 C765 1.523 . S
H767 C742 0.950 . S
H768 C744 0.950 . S
H769 C745 0.949 . S
H770 C747 0.950 . S
H771 C749 0.950 . S
C772 C773 1.349 . S
C772 C774 1.327 . S
C772 H797 0.950 . S
C773 C772 1.349 . S
C773 C789 1.349 . S
C774 C772 1.327 . S
C774 C793 1.429 . S
C774 H798 0.950 . S
C775 C792 1.574 . S
C775 C794 1.368 . S
C775 H799 0.949 . S
H776 C780 0.949 . S
C777 C778 1.349 . S
C777 C779 1.327 . S
C777 H800 0.950 . S
C778 C777 1.349 . S
C778 C790 1.349 . S
C779 C777 1.327 . S
C779 C795 1.429 . S
C779 H801 0.950 . S
C780 H776 0.949 . S
C780 C788 1.574 . S
C780 C796 1.368 . S
H781 C789 0.950 . S
H782 C787 0.950 . S
H783 C788 0.949 . S
H784 C790 0.950 . S
H785 C791 0.950 . S
H786 C792 0.949 . S
C787 H782 0.950 . S
C787 C789 1.327 . S
C787 C793 1.429 . S
C788 C780 1.574 . S
C788 H783 0.949 . S
C788 C794 1.368 . S
C789 C773 1.349 . S
C789 H781 0.950 . S
C789 C787 1.327 . S
C790 C778 1.349 . S
C790 H784 0.950 . S
C790 C791 1.327 . S
C791 H785 0.950 . S
C791 C790 1.327 . S
C791 C795 1.429 . S
C792 C775 1.574 . S
C792 H786 0.949 . S
C792 C796 1.368 . S
C793 C774 1.429 . S
C793 C787 1.429 . S
C793 C794 1.523 . S
C794 C775 1.368 . S
C794 C788 1.368 . S
C794 C793 1.523 . S
C795 C779 1.429 . S
C795 C791 1.429 . S
C795 C796 1.523 . S
C796 C780 1.368 . S
C796 C792 1.368 . S
C796 C795 1.523 . S
H797 C772 0.950 . S
H798 C774 0.950 . S
H799 C775 0.949 . S
H800 C777 0.950 . S
H801 C779 0.950 . S
C802 C803 1.349 . S
C802 C804 1.327 . S
C802 H827 0.950 . S
C803 C802 1.349 . S
C803 C819 1.349 . S
C804 C802 1.327 . S
C804 C823 1.429 . S
C804 H828 0.950 . S
C805 C822 1.574 . S
C805 C824 1.368 . S
C805 H829 0.949 . S
H806 C810 0.949 . S
C807 C808 1.349 . S
C807 C809 1.327 . S
C807 H830 0.950 . S
C808 C807 1.349 . S
C808 C820 1.349 . S
C809 C807 1.327 . S
C809 C825 1.429 . S
C809 H831 0.950 . S
C810 H806 0.949 . S
C810 C818 1.574 . S
C810 C826 1.368 . S
H811 C819 0.950 . S
H812 C817 0.950 . S
H813 C818 0.949 . S
H814 C820 0.950 . S
H815 C821 0.950 . S
H816 C822 0.949 . S
C817 H812 0.950 . S
C817 C819 1.327 . S
C817 C823 1.429 . S
C818 C810 1.574 . S
C818 H813 0.949 . S
C818 C824 1.368 . S
C819 C803 1.349 . S
C819 H811 0.950 . S
C819 C817 1.327 . S
C820 C808 1.349 . S
C820 H814 0.950 . S
C820 C821 1.327 . S
C821 H815 0.950 . S
C821 C820 1.327 . S
C821 C825 1.429 . S
C822 C805 1.574 . S
C822 H816 0.949 . S
C822 C826 1.368 . S
C823 C804 1.429 . S
C823 C817 1.429 . S
C823 C824 1.523 . S
C824 C805 1.368 . S
C824 C818 1.368 . S
C824 C823 1.523 . S
C825 C809 1.429 . S
C825 C821 1.429 . S
C825 C826 1.523 . S
C826 C810 1.368 . S
C826 C822 1.368 . S
C826 C825 1.523 . S
H827 C802 0.950 . S
H828 C804 0.950 . S
H829 C805 0.949 . S
H830 C807 0.950 . S
H831 C809 0.950 . S
C832 C833 1.349 . S
C832 C834 1.327 . S
C832 H857 0.950 . S
C833 C832 1.349 . S
C833 C849 1.349 1_655 S
C834 C832 1.327 . S
C834 C853 1.429 1_655 S
C834 H858 0.950 1_554 S
C835 C852 1.574 . S
C835 C854 1.368 . S
C835 H859 0.949 . S
H836 C840 0.949 . S
C837 C838 1.349 . S
C837 C839 1.327 . S
C837 H860 0.950 . S
C838 C837 1.349 . S
C838 C850 1.349 . S
C839 C837 1.327 . S
C839 C855 1.429 . S
C839 H861 0.950 . S
C840 H836 0.949 . S
C840 C848 1.574 . S
C840 C856 1.368 . S
H841 C849 0.950 . S
H842 C847 0.950 . S
H843 C848 0.951 . S
H844 C850 0.950 . S
H845 C851 0.950 . S
H846 C852 0.949 . S
C847 H842 0.950 . S
C847 C849 1.327 . S
C847 C853 1.429 . S
C848 C840 1.574 . S
C848 H843 0.951 . S
C848 C854 1.368 1_556 S
C849 C833 1.349 1_455 S
C849 H841 0.950 . S
C849 C847 1.327 . S
C850 C838 1.349 . S
C850 H844 0.950 . S
C850 C851 1.327 . S
C851 H845 0.950 . S
C851 C850 1.327 . S
C851 C855 1.429 . S
C852 C835 1.574 . S
C852 H846 0.949 . S
C852 C856 1.368 1_554 S
C853 C834 1.429 1_455 S
C853 C847 1.429 . S
C853 C854 1.523 . S
C854 C835 1.368 . S
C854 C848 1.368 1_554 S
C854 C853 1.523 . S
C855 C839 1.429 . S
C855 C851 1.429 . S
C855 C856 1.523 . S
C856 C840 1.368 . S
C856 C852 1.368 1_556 S
C856 C855 1.523 . S
H857 C832 0.950 . S
H858 C834 0.950 1_556 S
H859 C835 0.949 . S
H860 C837 0.950 . S
H861 C839 0.950 . S
C862 C863 1.349 1_545 S
C862 C864 1.327 . S
C862 H887 0.950 . S
C863 C862 1.349 1_565 S
C863 C879 1.349 . S
C864 C862 1.327 . S
C864 C883 1.429 . S
C864 H888 0.950 . S
C865 C882 1.574 1_554 S
C865 C884 1.368 1_565 S
C865 H889 0.949 . S
H866 C870 0.949 . S
C867 C868 1.349 . S
C867 C869 1.327 . S
C867 H890 0.950 . S
C868 C867 1.349 . S
C868 C880 1.349 . S
C869 C867 1.327 . S
C869 C885 1.429 . S
C869 H891 0.950 1_545 S
C870 H866 0.949 . S
C870 C878 1.574 . S
C870 C886 1.368 . S
H871 C879 0.950 . S
H872 C877 0.950 . S
H873 C878 0.949 . S
H874 C880 0.950 . S
H875 C881 0.950 . S
H876 C882 0.949 . S
C877 H872 0.950 . S
C877 C879 1.327 . S
C877 C883 1.429 1_565 S
C878 C870 1.574 . S
C878 H873 0.949 . S
C878 C884 1.368 1_556 S
C879 C863 1.349 . S
C879 H871 0.950 . S
C879 C877 1.327 . S
C880 C868 1.349 . S
C880 H874 0.950 . S
C880 C881 1.327 . S
C881 H875 0.950 . S
C881 C880 1.327 . S
C881 C885 1.429 . S
C882 C865 1.574 1_556 S
C882 H876 0.949 . S
C882 C886 1.368 1_565 S
C883 C864 1.429 . S
C883 C877 1.429 1_545 S
C883 C884 1.523 . S
C884 C865 1.368 1_545 S
C884 C878 1.368 1_554 S
C884 C883 1.523 . S
C885 C869 1.429 . S
C885 C881 1.429 . S
C885 C886 1.523 . S
C886 C870 1.368 . S
C886 C882 1.368 1_545 S
C886 C885 1.523 . S
H887 C862 0.950 . S
H888 C864 0.950 . S
H889 C865 0.949 . S
H890 C867 0.950 . S
H891 C869 0.950 1_565 S
C892 C893 1.349 . S
C892 C894 1.327 . S
C892 H917 0.950 . S
C893 C892 1.349 . S
C893 C909 1.349 . S
C894 C892 1.327 . S
C894 C913 1.429 . S
C894 H918 0.950 . S
C895 C912 1.574 . S
C895 C914 1.368 1_556 S
C895 H919 0.949 . S
H896 C900 0.949 . S
C897 C898 1.349 . S
C897 C899 1.327 . S
C897 H920 0.950 . S
C898 C897 1.349 . S
C898 C910 1.349 . S
C899 C897 1.327 . S
C899 C915 1.429 . S
C899 H921 0.950 . S
C900 H896 0.949 . S
C900 C908 1.574 . S
C900 C916 1.368 1_554 S
H901 C909 0.950 . S
H902 C907 0.950 1_556 S
H903 C908 0.949 . S
H904 C910 0.950 . S
H905 C911 0.950 . S
H906 C912 0.949 . S
C907 H902 0.950 1_554 S
C907 C909 1.327 . S
C907 C913 1.429 . S
C908 C900 1.574 . S
C908 H903 0.949 . S
C908 C914 1.368 . S
C909 C893 1.349 . S
C909 H901 0.950 . S
C909 C907 1.327 . S
C910 C898 1.349 . S
C910 H904 0.950 . S
C910 C911 1.327 . S
C911 H905 0.950 . S
C911 C910 1.327 . S
C911 C915 1.429 . S
C912 C895 1.574 . S
C912 H906 0.949 . S
C912 C916 1.368 . S
C913 C894 1.429 . S
C913 C907 1.429 . S
C913 C914 1.523 . S
C914 C895 1.368 1_554 S
C914 C908 1.368 . S
C914 C913 1.523 . S
C915 C899 1.429 . S
C915 C911 1.429 . S
C915 C916 1.523 . S
C916 C900 1.368 1_556 S
C916 C912 1.368 . S
C916 C915 1.523 . S
H917 C892 0.950 . S
H918 C894 0.950 . S
H919 C895 0.949 . S
H920 C897 0.950 . S
H921 C899 0.950 . S
C922 C923 1.349 . S
C922 C924 1.327 . S
C922 H947 0.950 . S
C923 C922 1.349 . S
C923 C939 1.349 . S
C924 C922 1.327 . S
C924 C943 1.429 . S
C924 H948 0.950 . S
C925 C942 1.574 1_554 S
C925 C944 1.368 . S
C925 H949 0.949 . S
H926 C930 0.949 . S
C927 C928 1.349 . S
C927 C929 1.327 . S
C927 H950 0.950 . S
C928 C927 1.349 . S
C928 C940 1.349 . S
C929 C927 1.327 . S
C929 C945 1.429 . S
C929 H951 0.950 . S
C930 H926 0.949 . S
C930 C938 1.574 . S
C930 C946 1.368 . S
H931 C939 0.950 . S
H932 C937 0.950 . S
H933 C938 0.949 . S
H934 C940 0.950 . S
H935 C941 0.950 . S
H936 C942 0.949 . S
C937 H932 0.950 . S
C937 C939 1.327 . S
C937 C943 1.429 . S
C938 C930 1.574 . S
C938 H933 0.949 . S
C938 C944 1.368 1_556 S
C939 C923 1.349 . S
C939 H931 0.950 . S
C939 C937 1.327 . S
C940 C928 1.349 . S
C940 H934 0.950 . S
C940 C941 1.327 . S
C941 H935 0.950 . S
C941 C940 1.327 . S
C941 C945 1.429 . S
C942 C925 1.574 1_556 S
C942 H936 0.949 . S
C942 C946 1.368 . S
C943 C924 1.429 . S
C943 C937 1.429 . S
C943 C944 1.523 . S
C944 C925 1.368 . S
C944 C938 1.368 1_554 S
C944 C943 1.523 . S
C945 C929 1.429 . S
C945 C941 1.429 . S
C945 C946 1.523 . S
C946 C930 1.368 . S
C946 C942 1.368 . S
C946 C945 1.523 . S
H947 C922 0.950 . S
H948 C924 0.950 . S
H949 C925 0.949 . S
H950 C927 0.950 . S
H951 C929 0.950 . S
C952 C953 1.349 . S
C952 C954 1.327 . S
C952 H977 0.950 . S
C953 C952 1.349 . S
C953 C969 1.349 1_455 S
C954 C952 1.327 . S
C954 C973 1.429 . S
C954 H978 0.950 . S
C955 C972 1.574 . S
C955 C974 1.368 1_655 S
C955 H979 0.949 . S
H956 C960 0.949 . S
C957 C958 1.349 1_655 S
C957 C959 1.327 . S
C957 H980 0.950 . S
C958 C957 1.349 1_455 S
C958 C970 1.349 . S
C959 C957 1.327 . S
C959 C975 1.429 1_655 S
C959 H981 0.950 . S
C960 H956 0.949 . S
C960 C968 1.574 . S
C960 C976 1.368 . S
H961 C969 0.950 . S
H962 C967 0.950 . S
H963 C968 0.949 . S
H964 C970 0.950 . S
H965 C971 0.950 . S
H966 C972 0.949 . S
C967 H962 0.950 . S
C967 C969 1.327 . S
C967 C973 1.429 1_655 S
C968 C960 1.574 . S
C968 H963 0.949 . S
C968 C974 1.368 . S
C969 C953 1.349 1_655 S
C969 H961 0.950 . S
C969 C967 1.327 . S
C970 C958 1.349 . S
C970 H964 0.950 . S
C970 C971 1.327 . S
C971 H965 0.950 . S
C971 C970 1.327 . S
C971 C975 1.429 . S
C972 C955 1.574 . S
C972 H966 0.949 . S
C972 C976 1.368 1_655 S
C973 C954 1.429 . S
C973 C967 1.429 1_455 S
C973 C974 1.523 . S
C974 C955 1.368 1_455 S
C974 C968 1.368 . S
C974 C973 1.523 . S
C975 C959 1.429 1_455 S
C975 C971 1.429 . S
C975 C976 1.523 . S
C976 C960 1.368 . S
C976 C972 1.368 1_455 S
C976 C975 1.523 . S
H977 C952 0.950 . S
H978 C954 0.950 . S
H979 C955 0.949 . S
H980 C957 0.950 . S
H981 C959 0.950 . S
C982 C983 1.349 . S
C982 C984 1.327 . S
C982 H1007 0.950 . S
C983 C982 1.349 . S
C983 C999 1.349 1_545 S
C984 C982 1.327 . S
C984 C1003 1.429 . S
C984 H1008 0.950 . S
C985 C1002 1.573 . S
C985 C1004 1.352 1_565 S
C985 H1009 0.966 . S
H986 C990 0.949 . S
C987 C988 1.349 . S
C987 C989 1.327 . S
C987 H1010 0.950 1_545 S
C988 C987 1.349 . S
C988 C1000 1.349 . S
C989 C987 1.327 . S
C989 C1005 1.429 . S
C989 H1011 0.950 1_545 S
C990 H986 0.949 . S
C990 C998 1.574 . S
C990 C1006 1.368 . S
H991 C999 0.950 . S
H992 C997 0.950 . S
H993 C998 0.949 . S
H994 C1000 0.950 . S
H995 C1001 0.950 . S
H996 C1002 0.948 . S
C997 H992 0.950 . S
C997 C999 1.327 . S
C997 C1003 1.429 1_565 S
C998 C990 1.574 . S
C998 H993 0.949 . S
C998 C1004 1.368 . S
C999 C983 1.349 1_565 S
C999 H991 0.950 . S
C999 C997 1.327 . S
C1000 C988 1.349 . S
C1000 H994 0.950 . S
C1000 C1001 1.327 . S
C1001 H995 0.950 . S
C1001 C1000 1.327 . S
C1001 C1005 1.429 . S
C1002 C985 1.573 . S
C1002 H996 0.948 . S
C1002 C1006 1.370 1_565 S
C1003 C984 1.429 . S
C1003 C997 1.429 1_545 S
C1003 C1004 1.523 . S
C1004 C985 1.352 1_545 S
C1004 C998 1.368 . S
C1004 C1003 1.523 . S
C1005 C989 1.429 . S
C1005 C1001 1.429 . S
C1005 C1006 1.523 . S
C1006 C990 1.368 . S
C1006 C1002 1.370 1_545 S
C1006 C1005 1.523 . S
H1007 C982 0.950 . S
H1008 C984 0.950 . S
H1009 C985 0.966 . S
H1010 C987 0.950 1_565 S
H1011 C989 0.950 1_565 S
C1012 C1013 1.349 . S
C1012 C1014 1.327 . S
C1012 H1037 0.950 . S
C1013 C1012 1.349 . S
C1013 C1029 1.349 . S
C1014 C1012 1.327 . S
C1014 C1033 1.429 . S
C1014 H1038 0.950 . S
C1015 C1032 1.574 . S
C1015 C1034 1.368 . S
C1015 H1039 0.949 . S
H1016 C1020 0.949 . S
C1017 C1018 1.349 . S
C1017 C1019 1.327 . S
C1017 H1040 0.950 . S
C1018 C1017 1.349 . S
C1018 C1030 1.349 . S
C1019 C1017 1.327 . S
C1019 C1035 1.429 . S
C1019 H1041 0.950 . S
C1020 H1016 0.949 . S
C1020 C1028 1.574 . S
C1020 C1036 1.368 . S
H1021 C1029 0.950 . S
H1022 C1027 0.950 . S
H1023 C1028 0.949 . S
H1024 C1030 0.950 . S
H1025 C1031 0.950 . S
H1026 C1032 0.949 . S
C1027 H1022 0.950 . S
C1027 C1029 1.327 . S
C1027 C1033 1.429 . S
C1028 C1020 1.574 . S
C1028 H1023 0.949 . S
C1028 C1034 1.368 . S
C1029 C1013 1.349 . S
C1029 H1021 0.950 . S
C1029 C1027 1.327 . S
C1030 C1018 1.349 . S
C1030 H1024 0.950 . S
C1030 C1031 1.327 . S
C1031 H1025 0.950 . S
C1031 C1030 1.327 . S
C1031 C1035 1.429 . S
C1032 C1015 1.574 . S
C1032 H1026 0.949 . S
C1032 C1036 1.368 . S
C1033 C1014 1.429 . S
C1033 C1027 1.429 . S
C1033 C1034 1.523 . S
C1034 C1015 1.368 . S
C1034 C1028 1.368 . S
C1034 C1033 1.523 . S
C1035 C1019 1.429 . S
C1035 C1031 1.429 . S
C1035 C1036 1.523 . S
C1036 C1020 1.368 . S
C1036 C1032 1.368 . S
C1036 C1035 1.523 . S
H1037 C1012 0.950 . S
H1038 C1014 0.950 . S
H1039 C1015 0.949 . S
H1040 C1017 0.950 . S
H1041 C1019 0.950 . S
C1042 C1043 1.349 . S
C1042 C1044 1.327 . S
C1042 H1067 0.950 . S
C1043 C1042 1.349 . S
C1043 C1059 1.349 . S
C1044 C1042 1.327 . S
C1044 C1063 1.429 . S
C1044 H1068 0.950 . S
C1045 C1062 1.574 . S
C1045 C1064 1.368 . S
C1045 H1069 0.949 . S
H1046 C1050 0.949 . S
C1047 C1048 1.349 . S
C1047 C1049 1.327 . S
C1047 H1070 0.950 . S
C1048 C1047 1.349 . S
C1048 C1060 1.349 . S
C1049 C1047 1.327 . S
C1049 C1065 1.429 . S
C1049 H1071 0.950 . S
C1050 H1046 0.949 . S
C1050 C1058 1.574 . S
C1050 C1066 1.368 . S
H1051 C1059 0.950 . S
H1052 C1057 0.950 . S
H1053 C1058 0.949 . S
H1054 C1060 0.950 . S
H1055 C1061 0.950 . S
H1056 C1062 0.949 . S
C1057 H1052 0.950 . S
C1057 C1059 1.327 . S
C1057 C1063 1.429 . S
C1058 C1050 1.574 . S
C1058 H1053 0.949 . S
C1058 C1064 1.368 . S
C1059 C1043 1.349 . S
C1059 H1051 0.950 . S
C1059 C1057 1.327 . S
C1060 C1048 1.349 . S
C1060 H1054 0.950 . S
C1060 C1061 1.327 . S
C1061 H1055 0.950 . S
C1061 C1060 1.327 . S
C1061 C1065 1.429 . S
C1062 C1045 1.574 . S
C1062 H1056 0.949 . S
C1062 C1066 1.368 . S
C1063 C1044 1.429 . S
C1063 C1057 1.429 . S
C1063 C1064 1.523 . S
C1064 C1045 1.368 . S
C1064 C1058 1.368 . S
C1064 C1063 1.523 . S
C1065 C1049 1.429 . S
C1065 C1061 1.429 . S
C1065 C1066 1.523 . S
C1066 C1050 1.368 . S
C1066 C1062 1.368 . S
C1066 C1065 1.523 . S
H1067 C1042 0.950 . S
H1068 C1044 0.950 . S
H1069 C1045 0.949 . S
H1070 C1047 0.950 . S
H1071 C1049 0.950 . S
C1072 C1073 1.349 1_455 S
C1072 C1074 1.327 . S
C1072 H1097 0.950 . S
C1073 C1072 1.349 1_655 S
C1073 C1089 1.349 . S
C1074 C1072 1.327 . S
C1074 C1093 1.429 1_455 S
C1074 H1098 0.950 . S
C1075 C1092 1.574 . S
C1075 C1094 1.368 . S
C1075 H1099 0.949 . S
H1076 C1080 0.949 . S
C1077 C1078 1.349 . S
C1077 C1079 1.327 . S
C1077 H1100 0.950 . S
C1078 C1077 1.349 . S
C1078 C1090 1.349 1_655 S
C1079 C1077 1.327 . S
C1079 C1095 1.429 . S
C1079 H1101 0.950 . S
C1080 H1076 0.949 . S
C1080 C1088 1.574 . S
C1080 C1096 1.368 1_455 S
H1081 C1089 0.950 . S
H1082 C1087 0.950 . S
H1083 C1088 0.949 . S
H1084 C1090 0.950 . S
H1085 C1091 0.950 . S
H1086 C1092 0.949 . S
C1087 H1082 0.950 . S
C1087 C1089 1.327 . S
C1087 C1093 1.429 . S
C1088 C1080 1.574 . S
C1088 H1083 0.949 . S
C1088 C1094 1.368 1_455 S
C1089 C1073 1.349 . S
C1089 H1081 0.950 . S
C1089 C1087 1.327 . S
C1090 C1078 1.349 1_455 S
C1090 H1084 0.950 . S
C1090 C1091 1.327 . S
C1091 H1085 0.950 . S
C1091 C1090 1.327 . S
C1091 C1095 1.429 1_455 S
C1092 C1075 1.574 . S
C1092 H1086 0.949 . S
C1092 C1096 1.368 . S
C1093 C1074 1.429 1_655 S
C1093 C1087 1.429 . S
C1093 C1094 1.523 . S
C1094 C1075 1.368 . S
C1094 C1088 1.368 1_655 S
C1094 C1093 1.523 . S
C1095 C1079 1.429 . S
C1095 C1091 1.429 1_655 S
C1095 C1096 1.523 . S
C1096 C1080 1.368 1_655 S
C1096 C1092 1.368 . S
C1096 C1095 1.523 . S
H1097 C1072 0.950 . S
H1098 C1074 0.950 . S
H1099 C1075 0.949 . S
H1100 C1077 0.950 . S
H1101 C1079 0.950 . S
C1102 C1103 1.349 1_545 S
C1102 C1104 1.327 . S
C1102 H1127 0.950 . S
C1103 C1102 1.349 1_565 S
C1103 C1119 1.349 . S
C1104 C1102 1.327 . S
C1104 C1123 1.429 1_545 S
C1104 H1128 0.950 . S
C1105 C1122 1.574 . S
C1105 C1124 1.368 . S
C1105 H1129 0.949 . S
H1106 C1110 0.949 . S
C1107 C1108 1.349 . S
C1107 C1109 1.327 . S
C1107 H1130 0.950 . S
C1108 C1107 1.349 . S
C1108 C1120 1.349 1_565 S
C1109 C1107 1.327 . S
C1109 C1125 1.429 . S
C1109 H1131 0.950 . S
C1110 H1106 0.949 . S
C1110 C1118 1.574 . S
C1110 C1126 1.368 1_545 S
H1111 C1119 0.950 . S
H1112 C1117 0.950 . S
H1113 C1118 0.949 . S
H1114 C1120 0.950 . S
H1115 C1121 0.950 . S
H1116 C1122 0.949 . S
C1117 H1112 0.950 . S
C1117 C1119 1.327 . S
C1117 C1123 1.429 . S
C1118 C1110 1.574 . S
C1118 H1113 0.949 . S
C1118 C1124 1.368 1_545 S
C1119 C1103 1.349 . S
C1119 H1111 0.950 . S
C1119 C1117 1.327 . S
C1120 C1108 1.349 1_545 S
C1120 H1114 0.950 . S
C1120 C1121 1.327 . S
C1121 H1115 0.950 . S
C1121 C1120 1.327 . S
C1121 C1125 1.429 1_545 S
C1122 C1105 1.574 . S
C1122 H1116 0.949 . S
C1122 C1126 1.368 . S
C1123 C1104 1.429 1_565 S
C1123 C1117 1.429 . S
C1123 C1124 1.523 . S
C1124 C1105 1.368 . S
C1124 C1118 1.368 1_565 S
C1124 C1123 1.523 . S
C1125 C1109 1.429 . S
C1125 C1121 1.429 1_565 S
C1125 C1126 1.523 . S
C1126 C1110 1.368 1_565 S
C1126 C1122 1.368 . S
C1126 C1125 1.523 . S
H1127 C1102 0.950 . S
H1128 C1104 0.950 . S
H1129 C1105 0.949 . S
H1130 C1107 0.950 . S
H1131 C1109 0.950 . S
C1132 C1133 1.349 . S
C1132 C1134 1.327 . S
C1132 H1157 0.950 . S
C1133 C1132 1.349 . S
C1133 C1149 1.349 . S
C1134 C1132 1.327 . S
C1134 C1153 1.429 . S
C1134 H1158 0.950 . S
C1135 C1152 1.574 . S
C1135 C1154 1.368 . S
C1135 H1159 0.949 . S
H1136 C1140 0.949 . S
C1137 C1138 1.349 . S
C1137 C1139 1.327 . S
C1137 H1160 0.950 . S
C1138 C1137 1.349 . S
C1138 C1150 1.349 . S
C1139 C1137 1.327 . S
C1139 C1155 1.429 . S
C1139 H1161 0.950 . S
C1140 H1136 0.949 . S
C1140 C1148 1.574 . S
C1140 C1156 1.368 . S
H1141 C1149 0.950 . S
H1142 C1147 0.950 . S
H1143 C1148 0.949 . S
H1144 C1150 0.950 . S
H1145 C1151 0.950 . S
H1146 C1152 0.949 . S
C1147 H1142 0.950 . S
C1147 C1149 1.327 . S
C1147 C1153 1.429 . S
C1148 C1140 1.574 . S
C1148 H1143 0.949 . S
C1148 C1154 1.368 . S
C1149 C1133 1.349 . S
C1149 H1141 0.950 . S
C1149 C1147 1.327 . S
C1150 C1138 1.349 . S
C1150 H1144 0.950 . S
C1150 C1151 1.327 . S
C1151 H1145 0.950 . S
C1151 C1150 1.327 . S
C1151 C1155 1.429 . S
C1152 C1135 1.574 . S
C1152 H1146 0.949 . S
C1152 C1156 1.368 . S
C1153 C1134 1.429 . S
C1153 C1147 1.429 . S
C1153 C1154 1.523 . S
C1154 C1135 1.368 . S
C1154 C1148 1.368 . S
C1154 C1153 1.523 . S
C1155 C1139 1.429 . S
C1155 C1151 1.429 . S
C1155 C1156 1.523 . S
C1156 C1140 1.368 . S
C1156 C1152 1.368 . S
C1156 C1155 1.523 . S
H1157 C1132 0.950 . S
H1158 C1134 0.950 . S
H1159 C1135 0.949 . S
H1160 C1137 0.950 . S
H1161 C1139 0.950 . S
C1162 C1163 1.349 . S
C1162 C1164 1.327 . S
C1162 H1187 0.950 . S
C1163 C1162 1.349 . S
C1163 C1179 1.349 . S
C1164 C1162 1.327 . S
C1164 C1183 1.429 . S
C1164 H1188 0.950 . S
C1165 C1182 1.574 . S
C1165 C1184 1.368 . S
C1165 H1189 0.949 . S
H1166 C1170 0.949 . S
C1167 C1168 1.349 . S
C1167 C1169 1.327 . S
C1167 H1190 0.950 . S
C1168 C1167 1.349 . S
C1168 C1180 1.349 . S
C1169 C1167 1.327 . S
C1169 C1185 1.429 . S
C1169 H1191 0.950 . S
C1170 H1166 0.949 . S
C1170 C1178 1.574 . S
C1170 C1186 1.368 . S
H1171 C1179 0.950 . S
H1172 C1177 0.950 . S
H1173 C1178 0.949 . S
H1174 C1180 0.950 . S
H1175 C1181 0.950 . S
H1176 C1182 0.949 . S
C1177 H1172 0.950 . S
C1177 C1179 1.327 . S
C1177 C1183 1.429 . S
C1178 C1170 1.574 . S
C1178 H1173 0.949 . S
C1178 C1184 1.368 . S
C1179 C1163 1.349 . S
C1179 H1171 0.950 . S
C1179 C1177 1.327 . S
C1180 C1168 1.349 . S
C1180 H1174 0.950 . S
C1180 C1181 1.327 . S
C1181 H1175 0.950 . S
C1181 C1180 1.327 . S
C1181 C1185 1.429 . S
C1182 C1165 1.574 . S
C1182 H1176 0.949 . S
C1182 C1186 1.368 . S
C1183 C1164 1.429 . S
C1183 C1177 1.429 . S
C1183 C1184 1.523 . S
C1184 C1165 1.368 . S
C1184 C1178 1.368 . S
C1184 C1183 1.523 . S
C1185 C1169 1.429 . S
C1185 C1181 1.429 . S
C1185 C1186 1.523 . S
C1186 C1170 1.368 . S
C1186 C1182 1.368 . S
C1186 C1185 1.523 . S
H1187 C1162 0.950 . S
H1188 C1164 0.950 . S
H1189 C1165 0.949 . S
H1190 C1167 0.950 . S
H1191 C1169 0.950 . S
C473 C255 1.913 . S
C478 C321 2.021 1_545 S
C508 C361 2.034 . S
C503 C294 1.901 . S
C538 C401 2.026 . S
C533 C177 1.914 . S
C568 C441 2.027 1_455 S
C563 C216 1.919 1_455 S
C598 C330 2.022 1_565 S
C593 C99 1.920 . S
C623 C138 1.901 . S
C628 C370 2.034 . S
C653 C21 1.915 . S
C658 C410 2.026 . S
C683 C60 1.918 . S
C688 C450 2.027 1_655 S
C718 C327 0.259 . S
C713 C196 0.269 1_455 S
C748 C367 0.264 . S
C743 C235 0.277 . S
C778 C407 0.256 . S
C773 C289 0.269 . S
C803 C157 0.277 . S
C808 C447 0.262 . S
C833 C40 0.262 . S
C838 C318 0.246 . S
C868 C358 0.264 . S
C863 C79 0.262 . S
C898 C398 0.257 . S
C893 C133 0.260 . S
C923 C1 0.262 . S
C928 C438 0.267 . S
C953 C211 2.527 . S
C958 C331 2.835 . S
C983 C250 2.517 . S
C988 C371 2.825 . S
C1018 C411 2.831 . S
C1013 C274 2.529 . S
C1048 C451 2.828 . S
C1043 C172 2.513 . S
C1073 C55 2.527 1_655 S
C1078 C322 2.835 . S
C1108 C362 2.825 . S
C1103 C94 2.517 . S
C1138 C402 2.831 . S
C1133 C118 2.530 . S
C1163 C16 2.520 . S
C1168 C442 2.835 . S
