# Generated by pormake.
# Topology pto, (3,4)-cn, num edge types: 1
# Building blocks:
#     Node 0, Type 0, BuildingBlock: OLANEW_clean_sbu_2, # of connection points: 3
#     Node 1, Type 0, BuildingBlock: OLANEW_clean_sbu_2, # of connection points: 3
#     Node 2, Type 0, BuildingBlock: OLANEW_clean_sbu_2, # of connection points: 3
#     Node 3, Type 0, BuildingBlock: OLANEW_clean_sbu_2, # of connection points: 3
#     Node 4, Type 0, BuildingBlock: OLANEW_clean_sbu_2, # of connection points: 3
#     Node 5, Type 0, BuildingBlock: OLANEW_clean_sbu_2, # of connection points: 3
#     Node 6, Type 0, BuildingBlock: OLANEW_clean_sbu_2, # of connection points: 3
#     Node 7, Type 0, BuildingBlock: OLANEW_clean_sbu_2, # of connection points: 3
#     Node 8, Type 1, BuildingBlock: KUFVIS_clean_linker_0, # of connection points: 4
#     Node 9, Type 1, BuildingBlock: KUFVIS_clean_linker_0, # of connection points: 4
#     Node 10, Type 1, BuildingBlock: KUFVIS_clean_linker_0, # of connection points: 4
#     Node 11, Type 1, BuildingBlock: KUFVIS_clean_linker_0, # of connection points: 4
#     Node 12, Type 1, BuildingBlock: KUFVIS_clean_linker_0, # of connection points: 4
#     Node 13, Type 1, BuildingBlock: KUFVIS_clean_linker_0, # of connection points: 4
#     Edge 14, Type (0, 1), BuildingBlock: ZUJKAS_clean_linker_0, # of connection points: 2
#     Edge 15, Type (0, 1), BuildingBlock: ZUJKAS_clean_linker_0, # of connection points: 2
#     Edge 16, Type (0, 1), BuildingBlock: ZUJKAS_clean_linker_0, # of connection points: 2
#     Edge 17, Type (0, 1), BuildingBlock: ZUJKAS_clean_linker_0, # of connection points: 2
#     Edge 18, Type (0, 1), BuildingBlock: ZUJKAS_clean_linker_0, # of connection points: 2
#     Edge 19, Type (0, 1), BuildingBlock: ZUJKAS_clean_linker_0, # of connection points: 2
#     Edge 20, Type (0, 1), BuildingBlock: ZUJKAS_clean_linker_0, # of connection points: 2
#     Edge 21, Type (0, 1), BuildingBlock: ZUJKAS_clean_linker_0, # of connection points: 2
#     Edge 22, Type (0, 1), BuildingBlock: ZUJKAS_clean_linker_0, # of connection points: 2
#     Edge 23, Type (0, 1), BuildingBlock: ZUJKAS_clean_linker_0, # of connection points: 2
#     Edge 24, Type (0, 1), BuildingBlock: ZUJKAS_clean_linker_0, # of connection points: 2
#     Edge 25, Type (0, 1), BuildingBlock: ZUJKAS_clean_linker_0, # of connection points: 2
#     Edge 26, Type (0, 1), BuildingBlock: ZUJKAS_clean_linker_0, # of connection points: 2
#     Edge 27, Type (0, 1), BuildingBlock: ZUJKAS_clean_linker_0, # of connection points: 2
#     Edge 28, Type (0, 1), BuildingBlock: ZUJKAS_clean_linker_0, # of connection points: 2
#     Edge 29, Type (0, 1), BuildingBlock: ZUJKAS_clean_linker_0, # of connection points: 2
#     Edge 30, Type (0, 1), BuildingBlock: ZUJKAS_clean_linker_0, # of connection points: 2
#     Edge 31, Type (0, 1), BuildingBlock: ZUJKAS_clean_linker_0, # of connection points: 2
#     Edge 32, Type (0, 1), BuildingBlock: ZUJKAS_clean_linker_0, # of connection points: 2
#     Edge 33, Type (0, 1), BuildingBlock: ZUJKAS_clean_linker_0, # of connection points: 2
#     Edge 34, Type (0, 1), BuildingBlock: ZUJKAS_clean_linker_0, # of connection points: 2
#     Edge 35, Type (0, 1), BuildingBlock: ZUJKAS_clean_linker_0, # of connection points: 2
#     Edge 36, Type (0, 1), BuildingBlock: ZUJKAS_clean_linker_0, # of connection points: 2
#     Edge 37, Type (0, 1), BuildingBlock: ZUJKAS_clean_linker_0, # of connection points: 2
# Relax obj value: 0.007
# Max RMSD: 0.123
# Mean RMSD: 0.071
data_MOF--net-pto--node1-OLANEW_clean_sbu_2--node2-KUFVIS_clean_linker_0--edge1-ZUJKAS_clean_linker_0
_symmetry_space_group_name_H-M    P1
_symmetry_Int_Tables_number       1
_symmetry_cell_setting            triclinic
loop_
_symmetry_equiv_pos_as_xyz
'x, y, z'
_cell_length_a     38.745477
_cell_length_b     70.545185
_cell_length_c     54.84458
_cell_angle_alpha  92.518041
_cell_angle_beta   89.189141
_cell_angle_gamma 106.92233
loop_
_atom_site_label
_atom_site_type_symbol
_atom_site_fract_x
_atom_site_fract_y
_atom_site_fract_z
_atom_type_partial_charge
O0 O 0.3679 0.33268 0.30184 0.0
Cd1 Cd 0.36992 0.33242 0.34633 0.0
O2 O 0.34998 0.35937 0.30474 0.0
Cd3 Cd 0.33047 0.384 0.29401 0.0
O4 O 0.30661 0.40854 0.29679 0.0
C5 C 0.30623 0.42017 0.27979 0.0
O6 O 0.32094 0.41767 0.25862 0.0
C7 C 0.35867 0.34622 0.29146 0.0
C8 C 0.37511 0.29666 0.36349 0.0
O9 O 0.34435 0.29955 0.36031 0.0
O10 O 0.40347 0.31061 0.3583 0.0
O11 O 0.23616 0.87542 0.78937 0.0
Cd12 Cd 0.20766 0.88565 0.75492 0.0
O13 O 0.2224 0.84556 0.77217 0.0
Cd14 Cd 0.21725 0.81375 0.76945 0.0
O15 O 0.20503 0.7817 0.76272 0.0
C16 C 0.1761 0.77051 0.77151 0.0
O17 O 0.15525 0.77859 0.78485 0.0
C18 C 0.23693 0.85754 0.78967 0.0
C19 C 0.25363 0.91785 0.73172 0.0
O20 O 0.23216 0.92045 0.74868 0.0
O21 O 0.25356 0.90004 0.72591 0.0
O22 O 0.81728 0.79728 0.31748 0.0
Cd23 Cd 0.81139 0.76803 0.28986 0.0
O24 O 0.76172 0.79712 0.30949 0.0
Cd25 Cd 0.75068 0.77229 0.28276 0.0
O26 O 0.73247 0.76007 0.24642 0.0
C27 C 0.75421 0.76367 0.22848 0.0
O28 O 0.78828 0.77324 0.23263 0.0
C29 C 0.7914 0.80487 0.3206 0.0
C30 C 0.83008 0.73596 0.30825 0.0
O31 O 0.85364 0.75014 0.29814 0.0
O32 O 0.7978 0.7372 0.31033 0.0
O33 O 0.72327 0.28702 0.60693 0.0
Cd34 Cd 0.68337 0.25289 0.60833 0.0
O35 O 0.72616 0.28771 0.64671 0.0
Cd36 Cd 0.73572 0.29974 0.68426 0.0
O37 O 0.72963 0.30304 0.72371 0.0
C38 C 0.7008 0.2919 0.73268 0.0
O39 O 0.67748 0.27959 0.71793 0.0
C40 C 0.7341 0.29669 0.62686 0.0
C41 C 0.71383 0.22163 0.602 0.0
O42 O 0.70491 0.22984 0.58366 0.0
O43 O 0.70954 0.22865 0.62342 0.0
O44 O 0.77317 0.79572 0.59527 0.0
Cd45 Cd 0.73776 0.76058 0.59528 0.0
O46 O 0.76072 0.79828 0.63409 0.0
Cd47 Cd 0.75971 0.81252 0.67027 0.0
O48 O 0.74851 0.81828 0.70861 0.0
C49 C 0.72429 0.80468 0.71871 0.0
O50 O 0.70806 0.78854 0.70568 0.0
C51 C 0.77447 0.80651 0.61463 0.0
C52 C 0.77323 0.73143 0.59759 0.0
O53 O 0.76715 0.7378 0.57701 0.0
O54 O 0.76388 0.73944 0.61705 0.0
O55 O 0.85139 0.29402 0.33065 0.0
Cd56 Cd 0.832 0.2621 0.30727 0.0
O57 O 0.79701 0.29766 0.32856 0.0
Cd58 Cd 0.77738 0.27422 0.30048 0.0
O59 O 0.75823 0.27241 0.2629 0.0
C60 C 0.75646 0.28904 0.25586 0.0
O61 O 0.76597 0.3045 0.27122 0.0
C62 C 0.82925 0.30375 0.33641 0.0
C63 C 0.84201 0.22905 0.32948 0.0
O64 O 0.86561 0.23905 0.31471 0.0
O65 O 0.81421 0.23494 0.33421 0.0
O66 O 0.24078 0.36321 0.77339 0.0
Cd67 Cd 0.20568 0.35856 0.73581 0.0
O68 O 0.25411 0.33698 0.75868 0.0
Cd69 Cd 0.27579 0.31155 0.75563 0.0
O70 O 0.2923 0.28703 0.73846 0.0
C71 C 0.28034 0.26926 0.74512 0.0
O72 O 0.25819 0.26539 0.76382 0.0
C73 C 0.25734 0.35027 0.77566 0.0
C74 C 0.19225 0.39243 0.71905 0.0
O75 O 0.17115 0.38151 0.73442 0.0
O76 O 0.22037 0.3876 0.71202 0.0
O77 O 0.34186 0.86274 0.28432 0.0
Cd78 Cd 0.31633 0.8582 0.32538 0.0
O79 O 0.3142 0.83204 0.27185 0.0
Cd80 Cd 0.29155 0.82122 0.30708 0.0
O81 O 0.26919 0.79716 0.33184 0.0
C82 C 0.27638 0.781 0.32643 0.0
O83 O 0.29707 0.78026 0.30743 0.0
C84 C 0.33447 0.84927 0.26742 0.0
C85 C 0.32504 0.89463 0.3504 0.0
O86 O 0.34891 0.88537 0.35164 0.0
O87 O 0.29695 0.88662 0.33738 0.0
H88 H 0.0302 0.48983 0.34435 0.0
H89 H 0.96555 0.52643 0.3711 0.0
H90 H 0.07531 0.55295 0.34694 0.0
H91 H 0.07243 0.57438 0.3788 0.0
H92 H 0.01087 0.61601 0.3816 0.0
H93 H 0.96115 0.5564 0.35495 0.0
C94 C 0.02726 0.50446 0.34856 0.0
C95 C 0.05663 0.52119 0.34523 0.0
C96 C 0.99426 0.50625 0.35738 0.0
C97 C 0.99081 0.52518 0.36354 0.0
C98 C 0.01998 0.54235 0.35993 0.0
C99 C 0.05265 0.54009 0.35025 0.0
C100 C 0.01689 0.56258 0.3666 0.0
C101 C 0.04714 0.57757 0.37587 0.0
C102 C 0.04524 0.59688 0.38124 0.0
C103 C 0.01237 0.60099 0.37828 0.0
C104 C 0.98206 0.58648 0.36905 0.0
C105 C 0.98436 0.56733 0.36296 0.0
H106 H 0.95453 0.60661 0.66861 0.0
H107 H 0.00766 0.5614 0.67169 0.0
H108 H 0.917 0.5536 0.62319 0.0
H109 H 0.90911 0.52032 0.63502 0.0
H110 H 0.97805 0.48351 0.61906 0.0
H111 H 0.0251 0.54477 0.63961 0.0
C112 C 0.95616 0.59196 0.66296 0.0
C113 C 0.93181 0.58059 0.64556 0.0
C114 C 0.98391 0.58529 0.67203 0.0
C115 C 0.9867 0.56666 0.66401 0.0
C116 C 0.96257 0.55486 0.64645 0.0
C117 C 0.93528 0.56212 0.63712 0.0
C118 C 0.96656 0.53523 0.63773 0.0
C119 C 0.93603 0.51884 0.63266 0.0
C120 C 0.94018 0.50027 0.62527 0.0
C121 C 0.97492 0.49809 0.6233 0.0
C122 C 0.00544 0.51394 0.62902 0.0
C123 C 0.0012 0.53253 0.63567 0.0
H124 H 0.34799 0.16271 0.54092 0.0
H125 H 0.34514 0.10922 0.57592 0.0
H126 H 0.3842 0.11823 0.50175 0.0
H127 H 0.36369 0.08521 0.49921 0.0
H128 H 0.38375 0.03791 0.53741 0.0
H129 H 0.38316 0.09144 0.57707 0.0
C130 C 0.35226 0.14818 0.5403 0.0
C131 C 0.36507 0.14123 0.51872 0.0
C132 C 0.34607 0.13694 0.5612 0.0
C133 C 0.35212 0.11824 0.56013 0.0
C134 C 0.36614 0.1111 0.53886 0.0
C135 C 0.37303 0.12303 0.51828 0.0
C136 C 0.37283 0.09116 0.53818 0.0
C137 C 0.37036 0.07973 0.5161 0.0
C138 C 0.37582 0.06088 0.51566 0.0
C139 C 0.38213 0.053 0.53758 0.0
C140 C 0.38362 0.06372 0.55984 0.0
C141 C 0.38029 0.083 0.55988 0.0
H142 H 0.54767 0.82147 0.08074 0.0
H143 H 0.56608 0.79964 0.00893 0.0
H144 H 0.49594 0.83708 0.01937 0.0
H145 H 0.46754 0.81625 0.98746 0.0
H146 H 0.5053 0.81269 0.91394 0.0
H147 H 0.57815 0.8174 0.97346 0.0
C148 C 0.5431 0.82067 0.0612 0.0
C149 C 0.51978 0.83037 0.05174 0.0
C150 C 0.55989 0.80959 0.04587 0.0
C151 C 0.55379 0.80864 0.02063 0.0
C152 C 0.5307 0.81848 0.01066 0.0
C153 C 0.51366 0.82929 0.02652 0.0
C154 C 0.52372 0.81702 0.98386 0.0
C155 C 0.4893 0.8161 0.9749 0.0
C156 C 0.48244 0.81459 0.94972 0.0
C157 C 0.51006 0.81346 0.93344 0.0
C158 C 0.54437 0.81423 0.94192 0.0
C159 C 0.5513 0.81636 0.96707 0.0
H160 H 0.81607 0.08577 0.48732 0.0
H161 H 0.80327 0.0311 0.5222 0.0
H162 H 0.85663 0.04119 0.45187 0.0
H163 H 0.8292 0.00733 0.4477 0.0
H164 H 0.85118 0.96091 0.48668 0.0
H165 H 0.84301 0.01318 0.52624 0.0
C166 C 0.82022 0.0712 0.48713 0.0
C167 C 0.83771 0.06488 0.46729 0.0
C168 C 0.80822 0.0592 0.5069 0.0
C169 C 0.81329 0.04032 0.50687 0.0
C170 C 0.83042 0.03332 0.4869 0.0
C171 C 0.84251 0.04586 0.46709 0.0
C172 C 0.83612 0.01318 0.4869 0.0
C173 C 0.8352 1.00187 0.46481 0.0
C174 C 0.84165 0.98328 0.46473 0.0
C175 C 0.84799 0.97569 0.48677 0.0
C176 C 0.84781 0.98617 0.509 0.0
C177 C 0.84221 0.00498 0.509 0.0
H178 H 0.53303 0.32714 0.095 0.0
H179 H 0.58255 0.32696 0.0249 0.0
H180 H 0.47247 0.32993 0.0314 0.0
H181 H 0.48381 0.3444 0.99655 0.0
H182 H 0.51704 0.32822 0.92589 0.0
H183 H 0.56497 0.3132 0.98909 0.0
C184 C 0.53145 0.32759 0.07531 0.0
C185 C 0.49992 0.3292 0.06466 0.0
C186 C 0.56086 0.32641 0.06093 0.0
C187 C 0.55891 0.32716 0.0355 0.0
C188 C 0.52721 0.32857 0.02414 0.0
C189 C 0.4977 0.3295 0.03919 0.0
C190 C 0.52475 0.32879 0.99682 0.0
C191 C 0.50026 0.33723 0.98567 0.0
C192 C 0.4971 0.33685 0.96018 0.0
C193 C 0.51928 0.32852 0.9456 0.0
C194 C 0.5442 0.32043 0.95606 0.0
C195 C 0.5466 0.32035 0.98153 0.0
H196 H 0.29603 0.44633 0.24691 0.0
H197 H 0.26451 0.47164 0.25383 0.0
H198 H 0.24447 0.45488 0.32855 0.0
H199 H 0.27605 0.42988 0.32197 0.0
H200 H 0.19361 0.4652 0.26742 0.0
H201 H 0.28159 0.51485 0.33644 0.0
H202 H 0.29631 0.49694 0.31772 0.0
H203 H 0.27005 0.4895 0.34489 0.0
C204 C 0.28527 0.44821 0.26489 0.0
C205 C 0.28859 0.43608 0.28389 0.0
C206 C 0.26733 0.46269 0.2688 0.0
C207 C 0.25279 0.46542 0.29183 0.0
C208 C 0.25633 0.45343 0.31081 0.0
H209 H 0.09319 0.49904 0.3665 0.0
H210 H 0.14594 0.49016 0.35068 0.0
C211 C 0.27412 0.43898 0.30693 0.0
C212 C 0.23117 0.47953 0.29581 0.0
H213 H 0.21888 0.51498 0.33659 0.0
C214 C 0.19958 0.47649 0.28208 0.0
C215 C 0.23916 0.49434 0.31485 0.0
C216 C 0.27385 0.49925 0.32913 0.0
C217 C 0.17429 0.4867 0.28824 0.0
C218 C 0.18104 0.50038 0.30848 0.0
C219 C 0.21376 0.50442 0.32113 0.0
C220 C 0.15222 0.50812 0.31903 0.0
C221 C 0.13935 0.48175 0.27421 0.0
C222 C 0.13897 0.52164 0.3068 0.0
C223 C 0.1088 0.52683 0.31593 0.0
C224 C 0.0915 0.51838 0.33722 0.0
C225 C 0.10593 0.50561 0.34994 0.0
C226 C 0.13608 0.50059 0.34098 0.0
H227 H 0.13709 0.46958 0.26021 0.0
H228 H 0.11607 0.4773 0.28691 0.0
H229 H 0.13749 0.49508 0.26493 0.0
H230 H 0.15128 0.52769 0.28989 0.0
H231 H 0.09804 0.53667 0.30581 0.0
H232 H 0.21343 0.74872 0.74554 0.0
H233 H 0.19187 0.7136 0.7326 0.0
H234 H 0.09106 0.70857 0.7699 0.0
H235 H 0.1126 0.74345 0.78336 0.0
H236 H 0.11648 0.67595 0.77578 0.0
H237 H 0.11803 0.69457 0.67807 0.0
H238 H 0.1604 0.7036 0.69376 0.0
H239 H 0.12357 0.71311 0.70256 0.0
C240 C 0.18678 0.7401 0.75116 0.0
C241 C 0.16456 0.74895 0.76525 0.0
C242 C 0.17447 0.72005 0.74367 0.0
C243 C 0.13962 0.70858 0.74992 0.0
C244 C 0.11801 0.71717 0.76481 0.0
H245 H 0.97237 0.60619 0.71276 0.0
H246 H 0.01645 0.63366 0.73406 0.0
C247 C 0.13034 0.73715 0.77242 0.0
C248 C 0.12455 0.68795 0.73999 0.0
H249 H 0.09565 0.66107 0.68706 0.0
C250 C 0.11231 0.67263 0.75636 0.0
C251 C 0.11925 0.68364 0.71463 0.0
C252 C 0.1307 0.69957 0.69618 0.0
C253 C 0.09385 0.65325 0.74809 0.0
C254 C 0.08715 0.64917 0.72285 0.0
C255 C 0.10097 0.66424 0.70641 0.0
C256 C 0.06227 0.63023 0.71321 0.0
C257 C 0.0811 0.63739 0.76645 0.0
C258 C 0.07344 0.61897 0.69464 0.0
C259 C 0.0482 0.60325 0.68239 0.0
C260 C 0.01137 0.59878 0.68832 0.0
C261 C 0.0006 0.60936 0.70782 0.0
C262 C 0.02581 0.62495 0.72013 0.0
H263 H 0.09802 0.6409 0.78318 0.0
H264 H 0.05298 0.63646 0.7719 0.0
H265 H 0.08151 0.62266 0.75866 0.0
H266 H 0.10141 0.62292 0.68888 0.0
H267 H 0.05716 0.59547 0.66726 0.0
H268 H 0.78593 0.70295 0.32918 0.0
H269 H 0.80192 0.67367 0.34178 0.0
H270 H 0.9114 0.6997 0.31799 0.0
H271 H 0.89587 0.72904 0.30564 0.0
H272 H 0.83018 0.64711 0.31392 0.0
H273 H 0.92359 0.68523 0.38812 0.0
H274 H 0.89232 0.69625 0.37447 0.0
H275 H 0.9343 0.697 0.3595 0.0
C276 C 0.81349 0.70251 0.32679 0.0
C277 C 0.8397 0.71842 0.31657 0.0
C278 C 0.82252 0.68572 0.33392 0.0
C279 C 0.85794 0.68461 0.33111 0.0
C280 C 0.88405 0.7004 0.32075 0.0
H281 H 0.9569 0.59117 0.3245 0.0
H282 H 0.91858 0.61224 0.316 0.0
C283 C 0.87509 0.71715 0.31363 0.0
C284 C 0.86781 0.66694 0.33876 0.0
H285 H 0.92708 0.65326 0.37446 0.0
C286 C 0.85106 0.64835 0.32738 0.0
C287 C 0.89457 0.66851 0.35662 0.0
C288 C 0.912 0.68778 0.37058 0.0
C289 C 0.86153 0.63147 0.33263 0.0
C290 C 0.88984 0.63333 0.34942 0.0
C291 C 0.90548 0.65177 0.3615 0.0
C292 C 0.90548 0.61687 0.35391 0.0
C293 C 0.84223 0.61186 0.3201 0.0
C294 C 0.91014 0.61196 0.37796 0.0
C295 C 0.93231 0.60009 0.38278 0.0
C296 C 0.94989 0.59277 0.36364 0.0
C297 C 0.94287 0.59626 0.33948 0.0
C298 C 0.92099 0.60833 0.33464 0.0
H299 H 0.8144 0.61137 0.31478 0.0
H300 H 0.85706 0.60984 0.3032 0.0
H301 H 0.84077 0.5993 0.33198 0.0
H302 H 0.89857 0.61839 0.39313 0.0
H303 H 0.93788 0.59786 0.40157 0.0
H304 H 0.72897 0.32249 0.59265 0.0
H305 H 0.75956 0.35809 0.59197 0.0
H306 H 0.81259 0.35527 0.65972 0.0
H307 H 0.78297 0.31953 0.66012 0.0
H308 H 0.7579 0.38889 0.62703 0.0
H309 H 0.89575 0.38136 0.61331 0.0
H310 H 0.85559 0.36077 0.60871 0.0
H311 H 0.87179 0.36887 0.63906 0.0
C312 C 0.74726 0.32942 0.60737 0.0
C313 C 0.75316 0.3182 0.62663 0.0
C314 C 0.76452 0.34979 0.60702 0.0
C315 C 0.78838 0.35932 0.62576 0.0
C316 C 0.79439 0.34818 0.64502 0.0
H317 H 0.88546 0.48559 0.65748 0.0
H318 H 0.84415 0.45178 0.65667 0.0
C319 C 0.77704 0.32779 0.64541 0.0
C320 C 0.80739 0.38083 0.62483 0.0
H321 H 0.8911 0.41384 0.62007 0.0
C322 C 0.78702 0.39439 0.6255 0.0
C323 C 0.84533 0.38791 0.62253 0.0
C324 C 0.86847 0.374 0.62064 0.0
C325 C 0.80369 0.4149 0.6242 0.0
C326 C 0.84168 0.42199 0.62236 0.0
C327 C 0.86195 0.40839 0.62152 0.0
C328 C 0.86139 0.44341 0.62113 0.0
C329 C 0.78054 0.42878 0.62436 0.0
C330 C 0.8841 0.45009 0.60119 0.0
C331 C 0.90764 0.46931 0.60165 0.0
C332 C 0.909 0.48224 0.6221 0.0
C333 C 0.88453 0.47603 0.64134 0.0
C334 C 0.861 0.4567 0.64091 0.0
H335 H 0.75199 0.42081 0.61983 0.0
H336 H 0.78118 0.43595 0.64284 0.0
H337 H 0.79089 0.44064 0.61117 0.0
H338 H 0.88483 0.4401 0.58573 0.0
H339 H 0.92629 0.47373 0.58661 0.0
H340 H 0.43608 0.28543 0.37063 0.0
H341 H 0.44054 0.25558 0.38989 0.0
H342 H 0.32504 0.23639 0.39947 0.0
H343 H 0.32027 0.26588 0.3798 0.0
H344 H 0.42224 0.24553 0.43586 0.0
H345 H 0.34257 0.18577 0.37336 0.0
H346 H 0.35807 0.21133 0.36491 0.0
H347 H 0.31752 0.20258 0.38272 0.0
C348 C 0.41158 0.27471 0.37651 0.0
C349 C 0.3778 0.27803 0.37367 0.0
C350 C 0.41418 0.25765 0.3875 0.0
C351 C 0.38309 0.24356 0.39575 0.0
C352 C 0.34932 0.24674 0.39264 0.0
H353 H 0.31566 0.15649 0.49908 0.0
H354 H 0.32449 0.17965 0.46609 0.0
C355 C 0.34667 0.26373 0.38157 0.0
C356 C 0.386 0.22647 0.40961 0.0
H357 H 0.34941 0.17652 0.41465 0.0
C358 C 0.40698 0.23037 0.43093 0.0
C359 C 0.36621 0.20669 0.40311 0.0
C360 C 0.34515 0.20132 0.37962 0.0
C361 C 0.40685 0.21523 0.44672 0.0
C362 C 0.38539 0.19567 0.44091 0.0
C363 C 0.36578 0.19157 0.41904 0.0
C364 C 0.37962 0.17991 0.45876 0.0
C365 C 0.42798 0.2204 0.47021 0.0
C366 C 0.40746 0.172 0.46509 0.0
C367 C 0.40241 0.15867 0.48394 0.0
C368 C 0.36957 0.15326 0.49678 0.0
C369 C 0.34135 0.16059 0.48964 0.0
C370 C 0.3463 0.17372 0.47075 0.0
H371 H 0.44023 0.23664 0.47318 0.0
H372 H 0.41023 0.21472 0.48597 0.0
H373 H 0.44994 0.21321 0.46979 0.0
H374 H 0.43331 0.17654 0.45589 0.0
H375 H 0.42458 0.15324 0.48916 0.0
H376 H 0.24207 0.87169 0.83684 0.0
H377 H 0.27472 0.86261 0.87027 0.0
H378 H 0.30528 0.82037 0.82189 0.0
H379 H 0.27342 0.82964 0.78836 0.0
H380 H 0.28053 0.80662 0.87086 0.0
H381 H 0.38708 0.87936 0.87114 0.0
H382 H 0.34118 0.88011 0.87376 0.0
H383 H 0.3562 0.8706 0.84599 0.0
C384 C 0.25552 0.86035 0.83341 0.0
C385 C 0.25461 0.85109 0.8101 0.0
C386 C 0.2741 0.85519 0.85249 0.0
C387 C 0.29237 0.84085 0.84848 0.0
C388 C 0.29096 0.83132 0.82537 0.0
H389 H 0.44333 0.79195 0.91219 0.0
H390 H 0.39192 0.79734 0.89146 0.0
C391 C 0.27241 0.83648 0.80629 0.0
C392 C 0.31478 0.83654 0.86786 0.0
H393 H 0.39381 0.85621 0.89866 0.0
C394 C 0.30515 0.81749 0.87716 0.0
C395 C 0.34672 0.8508 0.87606 0.0
C396 C 0.35872 0.87135 0.86618 0.0
C397 C 0.32705 0.81221 0.89423 0.0
C398 C 0.35975 0.82624 0.9017 0.0
C399 C 0.36867 0.84549 0.893 0.0
C400 C 0.3869 0.82093 0.91661 0.0
C401 C 0.31503 0.79164 0.90398 0.0
C402 C 0.40119 0.83235 0.93772 0.0
C403 C 0.43105 0.82951 0.94939 0.0
C404 C 0.44727 0.81529 0.94003 0.0
C405 C 0.43167 0.80317 0.91967 0.0
C406 C 0.40194 0.80606 0.90799 0.0
H407 H 0.28517 0.78551 0.90354 0.0
H408 H 0.3264 0.78166 0.89233 0.0
H409 H 0.32443 0.79155 0.92299 0.0
H410 H 0.39015 0.844 0.94457 0.0
H411 H 0.44263 0.8392 0.9649 0.0
H412 H 0.85252 0.82782 0.34414 0.0
H413 H 0.86091 0.85998 0.36585 0.0
H414 H 0.75015 0.8567 0.35153 0.0
H415 H 0.74132 0.82459 0.33026 0.0
H416 H 0.85236 0.89479 0.34724 0.0
H417 H 0.75874 0.86974 0.42466 0.0
H418 H 0.77438 0.85275 0.40501 0.0
H419 H 0.73859 0.86212 0.39522 0.0
C420 C 0.82981 0.83381 0.34591 0.0
C421 C 0.7962 0.82353 0.33554 0.0
C422 C 0.8347 0.85223 0.35822 0.0
C423 C 0.80605 0.86065 0.36052 0.0
C424 C 0.77245 0.85035 0.35038 0.0
H425 H 0.78402 0.96863 0.43436 0.0
H426 H 0.77542 0.94043 0.4048 0.0
C427 C 0.76752 0.83198 0.33814 0.0
C428 C 0.81143 0.88045 0.37286 0.0
H429 H 0.78159 0.90443 0.42038 0.0
C430 C 0.83696 0.89691 0.36328 0.0
C431 C 0.79115 0.88321 0.39367 0.0
C432 C 0.76441 0.86601 0.40541 0.0
C433 C 0.8426 0.91608 0.37388 0.0
C434 C 0.82247 0.9188 0.39477 0.0
C435 C 0.7967 0.90236 0.40418 0.0
C436 C 0.82961 0.93815 0.40849 0.0
C437 C 0.86983 0.93327 0.36253 0.0
C438 C 0.86321 0.9466 0.41973 0.0
C439 C 0.86811 0.96265 0.43646 0.0
C440 C 0.8395 0.97055 0.4423 0.0
C441 C 0.80663 0.96301 0.42984 0.0
C442 C 0.80164 0.94682 0.41315 0.0
H443 H 0.87469 0.92989 0.34302 0.0
H444 H 0.86083 0.94686 0.36386 0.0
H445 H 0.89586 0.9364 0.37234 0.0
H446 H 0.88494 0.93996 0.41682 0.0
H447 H 0.89356 0.96808 0.44608 0.0
H448 H 0.63831 0.2733 0.75594 0.0
H449 H 0.62363 0.2764 0.79902 0.0
H450 H 0.73057 0.3156 0.81259 0.0
H451 H 0.74526 0.31301 0.76918 0.0
H452 H 0.65339 0.26788 0.84097 0.0
H453 H 0.66709 0.34859 0.83868 0.0
H454 H 0.66644 0.33342 0.81127 0.0
H455 H 0.70642 0.34143 0.82974 0.0
C456 C 0.6588 0.28257 0.76804 0.0
C457 C 0.69283 0.29309 0.75908 0.0
C458 C 0.65039 0.28426 0.79271 0.0
C459 C 0.67582 0.29644 0.80896 0.0
C460 C 0.71029 0.30644 0.80027 0.0
H461 H 0.6177 0.3313 0.95604 0.0
H462 H 0.65677 0.32354 0.92377 0.0
C463 C 0.71867 0.30489 0.77549 0.0
C464 C 0.66528 0.29907 0.83469 0.0
H465 H 0.64734 0.33306 0.87529 0.0
C466 C 0.65252 0.28218 0.84862 0.0
C467 C 0.66432 0.31776 0.84468 0.0
C468 C 0.67651 0.33634 0.83033 0.0
C469 C 0.63745 0.28335 0.87185 0.0
C470 C 0.6349 0.30185 0.88129 0.0
C471 C 0.64952 0.31891 0.868 0.0
C472 C 0.61289 0.30355 0.9031 0.0
C473 C 0.62349 0.26471 0.88585 0.0
C474 C 0.57549 0.29456 0.90235 0.0
C475 C 0.55329 0.29906 0.92056 0.0
C476 C 0.56812 0.31259 0.93986 0.0
C477 C 0.60575 0.32066 0.94144 0.0
C478 C 0.62799 0.31631 0.92303 0.0
H479 H 0.63731 0.25347 0.88015 0.0
H480 H 0.62711 0.26792 0.90581 0.0
H481 H 0.59424 0.25819 0.88214 0.0
H482 H 0.56321 0.28499 0.88691 0.0
H483 H 0.52433 0.2927 0.91897 0.0
H484 H 0.30765 0.9177 0.69919 0.0
H485 H 0.34244 0.94512 0.67498 0.0
H486 H 0.28561 0.98343 0.70938 0.0
H487 H 0.25153 0.95628 0.73414 0.0
H488 H 0.31472 0.9629 0.64219 0.0
H489 H 0.38693 0.01982 0.71091 0.0
H490 H 0.36574 0.99437 0.71835 0.0
H491 H 0.33937 0.01152 0.71681 0.0
C492 C 0.30299 0.93206 0.7019 0.0
C493 C 0.27677 0.93481 0.71854 0.0
C494 C 0.32295 0.94773 0.68808 0.0
C495 C 0.31706 0.96644 0.69059 0.0
C496 C 0.29141 0.96932 0.70758 0.0
H497 H 0.34277 0.06464 0.6006 0.0
H498 H 0.33347 0.04241 0.6346 0.0
C499 C 0.27168 0.95371 0.72158 0.0
C500 C 0.3347 0.98221 0.67359 0.0
H501 H 0.38146 0.03132 0.67075 0.0
C502 C 0.32987 0.97775 0.64845 0.0
C503 C 0.35436 1.00163 0.68176 0.0
C504 C 0.36223 0.00707 0.70843 0.0
C505 C 0.34287 0.99232 0.63131 0.0
C506 C 0.36154 0.01185 0.63951 0.0
C507 C 0.36715 0.0163 0.66458 0.0
C508 C 0.37303 0.02796 0.62213 0.0
C509 C 0.33526 0.9869 0.60457 0.0
C510 C 0.39963 0.02781 0.60458 0.0
C511 C 0.40515 0.04055 0.58517 0.0
C512 C 0.38411 0.05364 0.58302 0.0
C513 C 0.3596 0.05485 0.60178 0.0
C514 C 0.35414 0.04211 0.62119 0.0
H515 H 0.31544 0.97204 0.60164 0.0
H516 H 0.32476 0.99805 0.59593 0.0
H517 H 0.36071 0.98673 0.59514 0.0
H518 H 0.41475 0.01711 0.6052 0.0
H519 H 0.42464 0.0395 0.5712 0.0
H520 H 0.68427 0.74753 0.21393 0.0
H521 H 0.65951 0.74857 0.17366 0.0
H522 H 0.76682 0.7737 0.14536 0.0
H523 H 0.79191 0.77311 0.18591 0.0
H524 H 0.72439 0.79642 0.13737 0.0
H525 H 0.65079 0.71968 0.10825 0.0
H526 H 0.63825 0.72512 0.13875 0.0
H527 H 0.6841 0.7253 0.13228 0.0
C528 C 0.70275 0.75281 0.19904 0.0
C529 C 0.74005 0.76047 0.20322 0.0
C530 C 0.68853 0.75321 0.17589 0.0
C531 C 0.71131 0.76102 0.15637 0.0
C532 C 0.74876 0.76751 0.16013 0.0
H533 H 0.62727 0.80867 0.03102 0.0
H534 H 0.66838 0.7943 0.05246 0.0
C535 C 0.76304 0.76717 0.18334 0.0
C536 C 0.69552 0.76535 0.13354 0.0
H537 H 0.62775 0.74559 0.09255 0.0
C538 C 0.70402 0.78522 0.12707 0.0
C539 C 0.66896 0.75074 0.1201 0.0
C540 C 0.66031 0.729 0.12507 0.0
C541 C 0.68462 0.79112 0.10894 0.0
C542 C 0.65631 0.77668 0.09673 0.0
C543 C 0.64941 0.75663 0.10201 0.0
C544 C 0.63045 0.78254 0.08127 0.0
C545 C 0.69274 0.81293 0.10431 0.0
C546 C 0.59518 0.77991 0.08983 0.0
C547 C 0.5718 0.78799 0.07767 0.0
C548 C 0.58323 0.79884 0.05666 0.0
C549 C 0.61783 0.80041 0.0472 0.0
C550 C 0.64134 0.79232 0.05947 0.0
H551 H 0.71236 0.82238 0.11764 0.0
H552 H 0.70429 0.81579 0.08574 0.0
H553 H 0.66761 0.81748 0.10522 0.0
H554 H 0.58625 0.77236 0.10658 0.0
H555 H 0.54505 0.78624 0.0851 0.0
H556 H 0.72351 0.19685 0.63673 0.0
H557 H 0.74099 0.16626 0.63019 0.0
H558 H 0.75052 0.17566 0.55294 0.0
H559 H 0.733 0.20611 0.55923 0.0
H560 H 0.70388 0.13232 0.59836 0.0
H561 H 0.84698 0.16536 0.5725 0.0
H562 H 0.82106 0.17929 0.58901 0.0
H563 H 0.81601 0.17501 0.55653 0.0
C564 C 0.72973 0.19252 0.61838 0.0
C565 C 0.72696 0.20395 0.59849 0.0
C566 C 0.73958 0.17501 0.61469 0.0
C567 C 0.74734 0.16882 0.59113 0.0
C568 C 0.7451 0.18034 0.57132 0.0
H569 H 0.74408 0.06723 0.5076 0.0
H570 H 0.72737 0.0912 0.53527 0.0
C571 C 0.73498 0.19771 0.57495 0.0
C572 C 0.75635 0.14992 0.58679 0.0
H573 H 0.8206 0.13108 0.56105 0.0
C574 C 0.72963 0.13198 0.59063 0.0
C575 C 0.79011 0.14953 0.57709 0.0
C576 C 0.82036 0.16832 0.57373 0.0
C577 C 0.73502 0.11367 0.58346 0.0
C578 C 0.76783 0.11338 0.57203 0.0
C579 C 0.79537 0.13127 0.56973 0.0
C580 C 0.77279 0.09525 0.55953 0.0
C581 C 0.70523 0.09486 0.58762 0.0
C582 C 0.80325 0.08901 0.56435 0.0
C583 C 0.81267 0.07517 0.54855 0.0
C584 C 0.79192 0.06756 0.52765 0.0
C585 C 0.76001 0.07262 0.52391 0.0
C586 C 0.75049 0.08633 0.53973 0.0
H587 H 0.68821 0.09677 0.60348 0.0
H588 H 0.68762 0.09106 0.57127 0.0
H589 H 0.71619 0.08228 0.59076 0.0
H590 H 0.821 0.09583 0.57939 0.0
H591 H 0.8378 0.07178 0.55147 0.0
H592 H 0.36824 0.37815 0.2623 0.0
H593 H 0.37474 0.37835 0.21792 0.0
H594 H 0.36036 0.31532 0.21553 0.0
H595 H 0.35198 0.31487 0.25959 0.0
H596 H 0.42797 0.36975 0.1944 0.0
H597 H 0.30199 0.31877 0.15733 0.0
H598 H 0.30533 0.32878 0.18838 0.0
H599 H 0.31926 0.30699 0.1806 0.0
C600 C 0.36478 0.3642 0.25226 0.0
C601 C 0.35887 0.34643 0.26448 0.0
C602 C 0.3689 0.36437 0.22686 0.0
C603 C 0.36726 0.34678 0.21325 0.0
C604 C 0.36055 0.32898 0.22542 0.0
H605 H 0.46658 0.30404 0.09949 0.0
H606 H 0.42674 0.31034 0.13185 0.0
C607 C 0.35625 0.32879 0.25072 0.0
C608 C 0.37767 0.34727 0.18707 0.0
H609 H 0.35635 0.32119 0.13268 0.0
C610 C 0.41182 0.35958 0.18069 0.0
C611 C 0.35658 0.33406 0.16912 0.0
C612 C 0.31859 0.32158 0.17419 0.0
C613 C 0.42666 0.35783 0.15753 0.0
C614 C 0.40671 0.34348 0.14028 0.0
C615 C 0.37161 0.33212 0.14602 0.0
C616 C 0.42418 0.33813 0.11795 0.0
C617 C 0.46464 0.37029 0.15226 0.0
C618 C 0.43463 0.35129 0.09891 0.0
C619 C 0.45728 0.34764 0.08029 0.0
C620 C 0.46988 0.33088 0.08072 0.0
C621 C 0.45731 0.31709 0.09888 0.0
C622 C 0.43451 0.32065 0.11728 0.0
H623 H 0.47753 0.37962 0.16839 0.0
H624 H 0.48155 0.36064 0.1463 0.0
H625 H 0.46423 0.3802 0.13717 0.0
H626 H 0.42679 0.36484 0.09914 0.0
H627 H 0.46682 0.35852 0.06653 0.0
H628 H 0.78507 0.7132 0.63827 0.0
H629 H 0.80695 0.68411 0.64018 0.0
H630 H 0.81746 0.68203 0.56183 0.0
H631 H 0.7957 0.71123 0.55969 0.0
H632 H 0.77484 0.64557 0.61583 0.0
H633 H 0.91714 0.68052 0.58773 0.0
H634 H 0.88818 0.69499 0.59878 0.0
H635 H 0.8823 0.68384 0.5685 0.0
C636 C 0.79233 0.7067 0.62144 0.0
C637 C 0.78875 0.7146 0.59883 0.0
C638 C 0.80468 0.69001 0.62256 0.0
C639 C 0.81396 0.68098 0.60117 0.0
C640 C 0.8108 0.68891 0.57857 0.0
H641 H 0.92014 0.58656 0.5978 0.0
H642 H 0.88552 0.60787 0.58285 0.0
C643 C 0.79833 0.70559 0.5774 0.0
C644 C 0.82639 0.66309 0.6027 0.0
H645 H 0.90114 0.64693 0.59716 0.0
C646 C 0.80236 0.64578 0.61154 0.0
C647 C 0.86215 0.66334 0.59679 0.0
C648 C 0.88915 0.68166 0.58755 0.0
C649 C 0.81344 0.62887 0.6153 0.0
C650 C 0.84972 0.62945 0.61059 0.0
C651 C 0.8733 0.64647 0.60071 0.0
C652 C 0.86499 0.61368 0.61845 0.0
C653 C 0.78625 0.61063 0.62453 0.0
C654 C 0.86415 0.60945 0.64325 0.0
C655 C 0.88365 0.59728 0.65171 0.0
C656 C 0.90461 0.58919 0.63559 0.0
C657 C 0.9038 0.59241 0.61053 0.0
C658 C 0.88429 0.60469 0.60204 0.0
H659 H 0.75847 0.60987 0.6188 0.0
H660 H 0.79235 0.59686 0.61784 0.0
H661 H 0.78679 0.61126 0.64478 0.0
H662 H 0.85019 0.61652 0.65636 0.0
H663 H 0.88402 0.5951 0.67113 0.0
H664 H 0.89856 0.32753 0.34258 0.0
H665 H 0.91753 0.36252 0.35571 0.0
H666 H 0.80705 0.35985 0.37222 0.0
H667 H 0.78777 0.32499 0.35835 0.0
H668 H 0.83485 0.3889 0.34367 0.0
H669 H 0.93192 0.39496 0.41819 0.0
H670 H 0.94415 0.38219 0.39204 0.0
H671 H 0.90206 0.3714 0.40749 0.0
C672 C 0.87841 0.33422 0.34966 0.0
C673 C 0.84163 0.32348 0.34928 0.0
C674 C 0.88933 0.35427 0.35731 0.0
C675 C 0.86379 0.36388 0.3652 0.0
C676 C 0.82729 0.35282 0.36624 0.0
H677 H 0.95787 0.49202 0.39905 0.0
H678 H 0.91826 0.45812 0.40437 0.0
C679 C 0.81631 0.33285 0.35833 0.0
C680 C 0.87456 0.38583 0.36919 0.0
H681 H 0.93925 0.4248 0.39549 0.0
C682 C 0.8572 0.39671 0.35544 0.0
C683 C 0.90322 0.39617 0.38487 0.0
C684 C 0.92109 0.38553 0.40167 0.0
C685 C 0.86929 0.4175 0.35562 0.0
C686 C 0.90012 0.42772 0.36947 0.0
C687 C 0.91589 0.41698 0.38459 0.0
C688 C 0.91903 0.44903 0.36619 0.0
C689 C 0.84939 0.42827 0.34048 0.0
C690 C 0.93195 0.45527 0.34297 0.0
C691 C 0.95422 0.47448 0.33995 0.0
C692 C 0.96426 0.48786 0.3601 0.0
C693 C 0.95001 0.48203 0.3832 0.0
C694 C 0.92769 0.46267 0.38626 0.0
H695 H 0.82039 0.41982 0.33877 0.0
H696 H 0.85155 0.44331 0.34846 0.0
H697 H 0.86104 0.42976 0.32181 0.0
H698 H 0.92644 0.44495 0.3273 0.0
H699 H 0.96521 0.47859 0.32201 0.0
H700 H 0.13522 0.40634 0.73093 0.0
H701 H 0.11628 0.43183 0.71079 0.0
H702 H 0.20898 0.44226 0.66332 0.0
H703 H 0.22842 0.41676 0.68351 0.0
H704 H 0.19003 0.47807 0.68268 0.0
H705 H 0.07626 0.42006 0.63933 0.0
H706 H 0.07898 0.41833 0.67179 0.0
H707 H 0.11452 0.41456 0.65252 0.0
C708 C 0.15186 0.41418 0.7164 0.0
C709 C 0.18313 0.40937 0.70865 0.0
C710 C 0.14096 0.42872 0.7049 0.0
C711 C 0.16099 0.43868 0.68539 0.0
C712 C 0.19314 0.43466 0.67832 0.0
H713 H 0.03881 0.49474 0.59628 0.0
H714 H 0.08663 0.47987 0.6055 0.0
C715 C 0.20413 0.42007 0.68985 0.0
C716 C 0.1468 0.45232 0.67157 0.0
H717 H 0.07339 0.45328 0.63882 0.0
C718 C 0.1648 0.47271 0.67276 0.0
C719 C 0.11439 0.44519 0.65818 0.0
C720 C 0.09503 0.42332 0.65512 0.0
C721 C 0.14993 0.48632 0.66207 0.0
C722 C 0.11607 0.47928 0.65025 0.0
C723 C 0.09929 0.45876 0.64792 0.0
C724 C 0.09538 0.49263 0.64233 0.0
C725 C 0.17041 0.50807 0.6638 0.0
C726 C 0.08568 0.50555 0.65951 0.0
C727 C 0.0587 0.51424 0.65415 0.0
C728 C 0.04057 0.50987 0.63167 0.0
C729 C 0.05235 0.49829 0.61377 0.0
C730 C 0.07961 0.48979 0.61903 0.0
H731 H 0.19996 0.51026 0.66469 0.0
H732 H 0.16462 0.51599 0.64802 0.0
H733 H 0.16241 0.51484 0.68079 0.0
H734 H 0.09673 0.50763 0.67779 0.0
H735 H 0.04981 0.52288 0.66839 0.0
H736 H 0.27945 0.74348 0.31516 0.0
H737 H 0.24647 0.71292 0.33436 0.0
H738 H 0.20268 0.74653 0.38753 0.0
H739 H 0.23488 0.77727 0.36795 0.0
H740 H 0.24426 0.6985 0.38046 0.0
H741 H 0.11255 0.70944 0.35634 0.0
H742 H 0.15477 0.72447 0.34443 0.0
H743 H 0.14126 0.72905 0.3751 0.0
C744 C 0.26302 0.74445 0.33105 0.0
C745 C 0.25935 0.76281 0.33979 0.0
C746 C 0.24429 0.72693 0.34207 0.0
C747 C 0.2216 0.7274 0.3621 0.0
C748 C 0.21941 0.74579 0.37174 0.0
H749 H 0.05364 0.62687 0.41607 0.0
H750 H 0.10113 0.65858 0.41732 0.0
C751 C 0.23793 0.76335 0.36058 0.0
C752 C 0.19859 0.7085 0.37162 0.0
H753 H 0.1108 0.68052 0.37629 0.0
C754 C 0.21506 0.69462 0.3798 0.0
C755 C 0.16048 0.70343 0.37068 0.0
C756 C 0.14111 0.71727 0.36098 0.0
C757 C 0.19442 0.67569 0.38662 0.0
C758 C 0.15642 0.67049 0.38501 0.0
C759 C 0.13997 0.6846 0.37768 0.0
C760 C 0.13294 0.65005 0.38847 0.0
C761 C 0.21344 0.66136 0.39523 0.0
C762 C 0.1358 0.63447 0.37248 0.0
C763 C 0.10867 0.61634 0.37171 0.0
C764 C 0.07807 0.61359 0.38675 0.0
C765 C 0.07677 0.62865 0.40411 0.0
C766 C 0.10389 0.64675 0.40488 0.0
H767 H 0.24058 0.66927 0.40268 0.0
H768 H 0.19746 0.65185 0.40946 0.0
H769 H 0.21705 0.65162 0.37956 0.0
H770 H 0.15757 0.63679 0.35931 0.0
H771 H 0.11024 0.60513 0.35794 0.0
H772 H 0.75237 0.8349 0.64063 0.0
H773 H 0.77051 0.87058 0.63444 0.0
H774 H 0.84543 0.86308 0.57864 0.0
H775 H 0.8279 0.82736 0.58505 0.0
H776 H 0.86916 0.89962 0.61464 0.0
H777 H 0.7378 0.88777 0.56711 0.0
H778 H 0.73733 0.878 0.59692 0.0
H779 H 0.75667 0.86763 0.57167 0.0
C780 C 0.77377 0.84091 0.62778 0.0
C781 C 0.78916 0.82833 0.61362 0.0
C782 C 0.78379 0.86129 0.62406 0.0
C783 C 0.80926 0.86942 0.60609 0.0
C784 C 0.82587 0.85708 0.59271 0.0
H785 H 0.89683 0.967 0.52022 0.0
H786 H 0.88927 0.94182 0.55039 0.0
C787 C 0.81575 0.83669 0.59633 0.0
C788 C 0.81577 0.89026 0.59926 0.0
H789 H 0.77903 0.91932 0.56617 0.0
C790 C 0.84934 0.90408 0.60433 0.0
C791 C 0.78971 0.89604 0.58605 0.0
C792 C 0.75335 0.88165 0.57993 0.0
C793 C 0.85793 0.92345 0.59586 0.0
C794 C 0.83263 0.92889 0.58136 0.0
C795 C 0.79845 0.91527 0.57734 0.0
C796 C 0.84219 0.94737 0.56746 0.0
C797 C 0.89413 0.93777 0.60238 0.0
C798 C 0.81884 0.95937 0.56721 0.0
C799 C 0.82284 0.97365 0.54958 0.0
C800 C 0.85016 0.97607 0.53186 0.0
C801 C 0.87545 0.96538 0.53361 0.0
C802 C 0.87132 0.95107 0.55106 0.0
H803 H 0.90322 0.93471 0.62053 0.0
H804 H 0.91445 0.93589 0.58874 0.0
H805 H 0.89341 0.9534 0.60263 0.0
H806 H 0.79609 0.95677 0.57962 0.0
H807 H 0.80279 0.98155 0.54855 0.0
H808 H 0.7429 0.32166 0.23841 0.0
H809 H 0.71873 0.32523 0.19871 0.0
H810 H 0.71657 0.26531 0.17738 0.0
H811 H 0.74001 0.26139 0.2176 0.0
H812 H 0.74412 0.3226 0.15237 0.0
H813 H 0.61331 0.26452 0.16503 0.0
H814 H 0.64462 0.27389 0.18978 0.0
H815 H 0.65302 0.25647 0.16725 0.0
C816 C 0.73734 0.30919 0.22533 0.0
C817 C 0.74307 0.29116 0.23127 0.0
C818 C 0.72362 0.3113 0.20257 0.0
C819 C 0.71541 0.29547 0.18517 0.0
C820 C 0.72203 0.27759 0.19071 0.0
H821 H 0.59104 0.29634 0.05241 0.0
H822 H 0.63536 0.2879 0.07824 0.0
C823 C 0.73555 0.2754 0.21365 0.0
C824 C 0.69893 0.29786 0.16166 0.0
H825 H 0.62024 0.28242 0.12942 0.0
C826 C 0.71722 0.31363 0.14717 0.0
C827 C 0.66386 0.28611 0.15483 0.0
C828 C 0.64233 0.26939 0.17007 0.0
C829 C 0.70079 0.3185 0.12665 0.0
C830 C 0.66517 0.30735 0.12055 0.0
C831 C 0.64765 0.29088 0.13415 0.0
C832 C 0.64377 0.31395 0.10235 0.0
C833 C 0.72122 0.33588 0.11206 0.0
C834 C 0.63444 0.33154 0.10713 0.0
C835 C 0.60909 0.33626 0.09261 0.0
C836 C 0.59276 0.32352 0.07297 0.0
C837 C 0.60363 0.3065 0.06729 0.0
C838 C 0.62874 0.30164 0.08205 0.0
H839 H 0.75084 0.33913 0.11442 0.0
H840 H 0.71464 0.3331 0.09234 0.0
H841 H 0.7135 0.34923 0.11846 0.0
H842 H 0.64523 0.34106 0.12295 0.0
H843 H 0.60097 0.34941 0.09737 0.0
H844 H 0.26019 0.2296 0.75421 0.0
H845 H 0.27202 0.20271 0.72882 0.0
H846 H 0.33092 0.24521 0.67779 0.0
H847 H 0.32 0.27209 0.70318 0.0
H848 H 0.25071 0.1914 0.68255 0.0
H849 H 0.39947 0.21268 0.68629 0.0
H850 H 0.37313 0.22341 0.70712 0.0
H851 H 0.38407 0.23291 0.67712 0.0
C852 C 0.27609 0.23324 0.73775 0.0
C853 C 0.28924 0.25302 0.73077 0.0
C854 C 0.28279 0.21785 0.72326 0.0
C855 C 0.30287 0.22197 0.70161 0.0
C856 C 0.3162 0.2417 0.69473 0.0
H857 H 0.29657 0.15771 0.56704 0.0
H858 H 0.28436 0.17532 0.60387 0.0
C859 C 0.30969 0.25707 0.70922 0.0
C860 C 0.30791 0.20567 0.68523 0.0
H861 H 0.37174 0.19134 0.65194 0.0
C862 C 0.27722 0.19117 0.67617 0.0
C863 C 0.34249 0.20508 0.67726 0.0
C864 C 0.37665 0.21924 0.68768 0.0
C865 C 0.28008 0.17686 0.65826 0.0
C866 C 0.31448 0.17737 0.64878 0.0
C867 C 0.34529 0.1911 0.65893 0.0
C868 C 0.3191 0.16491 0.62716 0.0
C869 C 0.24615 0.16149 0.64951 0.0
C870 C 0.34298 0.15331 0.62786 0.0
C871 C 0.35058 0.1435 0.60664 0.0
C872 C 0.33457 0.14521 0.58429 0.0
C873 C 0.30968 0.15626 0.58388 0.0
C874 C 0.30225 0.16612 0.60503 0.0
H875 H 0.22509 0.15855 0.66396 0.0
H876 H 0.23518 0.1671 0.63366 0.0
H877 H 0.25147 0.14731 0.64379 0.0
H878 H 0.3565 0.15228 0.6447 0.0
H879 H 0.37019 0.1353 0.60755 0.0
H880 H 0.31727 0.82569 0.22593 0.0
H881 H 0.34858 0.83019 0.18666 0.0
H882 H 0.42031 0.88571 0.21395 0.0
H883 H 0.389 0.88146 0.25341 0.0
H884 H 0.37057 0.86843 0.1535 0.0
H885 H 0.47956 0.84297 0.1944 0.0
H886 H 0.43439 0.83621 0.20678 0.0
H887 H 0.46292 0.86116 0.21095 0.0
C888 C 0.33937 0.83901 0.22354 0.0
C889 C 0.35087 0.85314 0.2429 0.0
C890 C 0.35707 0.84159 0.20104 0.0
C891 C 0.38667 0.85824 0.19753 0.0
C892 C 0.39739 0.87279 0.21639 0.0
H893 H 0.54852 0.85974 0.08581 0.0
H894 H 0.5165 0.87138 0.11938 0.0
C895 C 0.37951 0.87031 0.2389 0.0
C896 C 0.40837 0.85922 0.17502 0.0
H897 H 0.4826 0.84786 0.15248 0.0
C898 C 0.39534 0.8642 0.15321 0.0
C899 C 0.44064 0.85377 0.17486 0.0
C900 C 0.4554 0.84814 0.19791 0.0
C901 C 0.41364 0.86354 0.131 0.0
C902 C 0.44513 0.85719 0.13063 0.0
C903 C 0.45858 0.85281 0.15269 0.0
C904 C 0.4634 0.85351 0.10766 0.0
C905 C 0.39905 0.86969 0.10825 0.0
C906 C 0.44416 0.84013 0.08941 0.0
C907 C 0.46242 0.83378 0.06999 0.0
C908 C 0.50022 0.84038 0.06882 0.0
C909 C 0.51932 0.85449 0.08636 0.0
C910 C 0.50105 0.86109 0.10552 0.0
H911 H 0.38415 0.88068 0.11271 0.0
H912 H 0.42093 0.87618 0.09512 0.0
H913 H 0.3798 0.85649 0.09927 0.0
H914 H 0.41528 0.83361 0.09094 0.0
H915 H 0.44721 0.82266 0.05686 0.0
H916 H 0.88915 0.20814 0.31583 0.0
H917 H 0.89372 0.17726 0.33236 0.0
H918 H 0.80981 0.17849 0.38443 0.0
H919 H 0.80419 0.20886 0.36742 0.0
H920 H 0.91169 0.16834 0.37526 0.0
H921 H 0.77164 0.12305 0.35727 0.0
H922 H 0.79029 0.1471 0.34466 0.0
H923 H 0.77212 0.14496 0.37521 0.0
C924 C 0.8716 0.20178 0.33076 0.0
C925 C 0.8461 0.21087 0.34019 0.0
C926 C 0.8742 0.18411 0.34017 0.0
C927 C 0.85148 0.17521 0.35926 0.0
C928 C 0.82678 0.18463 0.36915 0.0
H929 H 0.87797 0.10339 0.47142 0.0
H930 H 0.88602 0.12833 0.44093 0.0
C931 C 0.82383 0.20213 0.35956 0.0
C932 C 0.85437 0.15651 0.36949 0.0
H933 H 0.80352 0.11132 0.38806 0.0
C934 C 0.88811 0.15575 0.37769 0.0
C935 C 0.82394 0.13974 0.37204 0.0
C936 C 0.78758 0.13866 0.36155 0.0
C937 C 0.89176 0.13927 0.38977 0.0
C938 C 0.86066 0.12336 0.39447 0.0
C939 C 0.82738 0.12357 0.38483 0.0
C940 C 0.86108 0.10756 0.41152 0.0
C941 C 0.92892 0.13924 0.39756 0.0
C942 C 0.84448 0.0874 0.40532 0.0
C943 C 0.83931 0.07304 0.42301 0.0
C944 C 0.85043 0.07868 0.44719 0.0
C945 C 0.86906 0.09863 0.45291 0.0
C946 C 0.874 0.11291 0.43538 0.0
H947 H 0.94975 0.14738 0.38461 0.0
H948 H 0.93509 0.14698 0.41573 0.0
H949 H 0.93101 0.12394 0.39872 0.0
H950 H 0.8341 0.0829 0.38707 0.0
H951 H 0.8246 0.0578 0.41817 0.0
H952 H 0.3157 0.3362 0.78037 0.0
H953 H 0.35006 0.33616 0.81732 0.0
H954 H 0.28411 0.3664 0.85771 0.0
H955 H 0.24899 0.36613 0.82079 0.0
H956 H 0.35921 0.38277 0.86573 0.0
H957 H 0.31494 0.30149 0.87664 0.0
H958 H 0.3318 0.30841 0.84665 0.0
H959 H 0.29144 0.31377 0.85738 0.0
C960 C 0.30781 0.34234 0.7972 0.0
C961 C 0.27889 0.35059 0.79781 0.0
C962 C 0.32769 0.34247 0.81828 0.0
C963 C 0.3191 0.35089 0.84035 0.0
C964 C 0.29091 0.35965 0.8409 0.0
H965 H 0.42534 0.32821 0.97106 0.0
H966 H 0.37819 0.33454 0.94603 0.0
C967 C 0.27095 0.35949 0.81981 0.0
C968 C 0.34021 0.35087 0.86263 0.0
H969 H 0.36733 0.31996 0.89905 0.0
C970 C 0.36065 0.36906 0.87327 0.0
C971 C 0.34146 0.33298 0.87271 0.0
C972 C 0.31846 0.31305 0.86293 0.0
C973 C 0.38394 0.36979 0.89291 0.0
C974 C 0.38708 0.35186 0.90187 0.0
C975 C 0.36508 0.33371 0.8921 0.0
C976 C 0.41534 0.35138 0.91958 0.0
C977 C 0.40536 0.38973 0.90363 0.0
C978 C 0.45183 0.35921 0.91336 0.0
C979 C 0.47867 0.35567 0.92762 0.0
C980 C 0.46952 0.34411 0.94828 0.0
C981 C 0.43314 0.33731 0.95535 0.0
C982 C 0.40622 0.34082 0.94101 0.0
H983 H 0.3914 0.40118 0.90087 0.0
H984 H 0.41007 0.38907 0.92346 0.0
H985 H 0.43192 0.39448 0.89433 0.0
H986 H 0.45951 0.36707 0.89669 0.0
H987 H 0.50653 0.36117 0.92183 0.0
H988 H 0.38084 0.91482 0.38016 0.0
H989 H 0.3877 0.94619 0.40312 0.0
H990 H 0.2873 0.94971 0.37359 0.0
H991 H 0.27991 0.91816 0.35078 0.0
H992 H 0.39064 0.98405 0.38658 0.0
H993 H 0.27296 0.95474 0.44765 0.0
H994 H 0.29234 0.93871 0.42902 0.0
H995 H 0.26369 0.9513 0.41549 0.0
C996 C 0.36019 0.92224 0.37853 0.0
C997 C 0.32968 0.9139 0.36378 0.0
C998 C 0.36421 0.9402 0.39161 0.0
C999 C 0.3378 0.95014 0.39028 0.0
C1000 C 0.30769 0.9421 0.37519 0.0
H1001 H 0.32227 0.05277 0.48129 0.0
H1002 H 0.31305 0.0283 0.44694 0.0
C1003 C 0.30359 0.9241 0.36211 0.0
C1004 C 0.34171 0.96874 0.40507 0.0
H1005 H 0.30516 0.98844 0.4533 0.0
C1006 C 0.37183 0.98508 0.40106 0.0
C1007 C 0.31702 0.97006 0.42385 0.0
C1008 C 0.2848 0.95275 0.42948 0.0
C1009 C 0.37826 0.00262 0.41565 0.0
C1010 C 0.35422 0.0037 0.43495 0.0
C1011 C 0.32345 0.98761 0.43841 0.0
C1012 C 0.36212 0.02049 0.45325 0.0
C1013 C 0.41085 0.01979 0.41036 0.0
C1014 C 0.39296 0.02438 0.46792 0.0
C1015 C 0.39826 0.03829 0.48742 0.0
C1016 C 0.37272 0.04853 0.49274 0.0
C1017 C 0.34257 0.04525 0.47744 0.0
C1018 C 0.33719 0.03122 0.45793 0.0
H1019 H 0.41946 0.01918 0.39101 0.0
H1020 H 0.40539 0.03421 0.4144 0.0
H1021 H 0.4336 0.01908 0.422 0.0
H1022 H 0.41218 0.01601 0.46497 0.0
H1023 H 0.42178 0.04057 0.49889 0.0
H1024 H 0.67035 0.77941 0.74393 0.0
H1025 H 0.65161 0.78341 0.786 0.0
H1026 H 0.73618 0.83869 0.79439 0.0
H1027 H 0.75475 0.83502 0.75195 0.0
H1028 H 0.68909 0.78693 0.82944 0.0
H1029 H 0.64643 0.85446 0.81488 0.0
H1030 H 0.65604 0.83931 0.78985 0.0
H1031 H 0.69231 0.85604 0.80699 0.0
C1032 C 0.68503 0.79245 0.75466 0.0
C1033 C 0.71387 0.80698 0.74451 0.0
C1034 C 0.67433 0.79467 0.77876 0.0
C1035 C 0.69221 0.81146 0.79323 0.0
C1036 C 0.72158 0.82581 0.78339 0.0
H1037 H 0.61222 0.83987 0.93756 0.0
H1038 H 0.65561 0.83999 0.90431 0.0
C1039 C 0.73223 0.82364 0.75917 0.0
C1040 C 0.67926 0.81384 0.81842 0.0
H1041 H 0.63681 0.84131 0.8538 0.0
C1042 C 0.67807 0.79896 0.83488 0.0
C1043 C 0.66508 0.82962 0.82554 0.0
C1044 C 0.66469 0.84572 0.8084 0.0
C1045 C 0.66179 0.79901 0.85789 0.0
C1046 C 0.64609 0.81423 0.86449 0.0
C1047 C 0.64901 0.8297 0.84864 0.0
C1048 C 0.62259 0.81308 0.88621 0.0
C1049 C 0.66068 0.78249 0.87471 0.0
C1050 C 0.58994 0.79786 0.88704 0.0
C1051 C 0.56523 0.79787 0.90576 0.0
C1052 C 0.57273 0.81306 0.92405 0.0
C1053 C 0.60602 0.82791 0.92377 0.0
C1054 C 0.63068 0.82802 0.90481 0.0
H1055 H 0.68254 0.77559 0.87042 0.0
H1056 H 0.66316 0.78798 0.89409 0.0
H1057 H 0.63448 0.77082 0.87247 0.0
H1058 H 0.58292 0.7864 0.87264 0.0
H1059 H 0.53975 0.78626 0.90561 0.0
loop_
_geom_bond_atom_site_label_1
_geom_bond_atom_site_label_2
_geom_bond_distance
_geom_bond_site_symmetry_2
_ccdc_geom_bond_type
O0 Cd1 2.300 . S
O0 C7 1.275 . S
Cd1 O0 2.300 . S
Cd1 O9 2.381 . S
Cd1 O10 2.378 . S
O2 Cd3 2.385 . S
O2 C7 1.255 . S
Cd3 O2 2.385 . S
Cd3 O4 2.317 . S
O4 Cd3 2.317 . S
O4 C5 1.232 . S
C5 O4 1.232 . S
C5 O6 1.218 . S
O6 C5 1.218 . S
C7 O0 1.275 . S
C7 O2 1.255 . S
C8 O9 1.258 . S
C8 O10 1.256 . S
O9 Cd1 2.381 . S
O9 C8 1.258 . S
O10 Cd1 2.378 . S
O10 C8 1.256 . S
O11 Cd12 2.300 . S
O11 C18 1.275 . S
Cd12 O11 2.300 . S
Cd12 O20 2.381 . S
Cd12 O21 2.378 . S
O13 Cd14 2.385 . S
O13 C18 1.255 . S
Cd14 O13 2.385 . S
Cd14 O15 2.317 . S
O15 Cd14 2.317 . S
O15 C16 1.232 . S
C16 O15 1.232 . S
C16 O17 1.218 . S
O17 C16 1.218 . S
C18 O11 1.275 . S
C18 O13 1.255 . S
C19 O20 1.258 . S
C19 O21 1.256 . S
O20 Cd12 2.381 . S
O20 C19 1.258 . S
O21 Cd12 2.378 . S
O21 C19 1.256 . S
O22 Cd23 2.300 . S
O22 C29 1.275 . S
Cd23 O22 2.300 . S
Cd23 O31 2.381 . S
Cd23 O32 2.378 . S
O24 Cd25 2.385 . S
O24 C29 1.255 . S
Cd25 O24 2.385 . S
Cd25 O26 2.317 . S
O26 Cd25 2.317 . S
O26 C27 1.232 . S
C27 O26 1.232 . S
C27 O28 1.218 . S
O28 C27 1.218 . S
C29 O22 1.275 . S
C29 O24 1.255 . S
C30 O31 1.258 . S
C30 O32 1.256 . S
O31 Cd23 2.381 . S
O31 C30 1.258 . S
O32 Cd23 2.378 . S
O32 C30 1.256 . S
O33 Cd34 2.300 . S
O33 C40 1.275 . S
Cd34 O33 2.300 . S
Cd34 O42 2.381 . S
Cd34 O43 2.378 . S
O35 Cd36 2.385 . S
O35 C40 1.255 . S
Cd36 O35 2.385 . S
Cd36 O37 2.317 . S
O37 Cd36 2.317 . S
O37 C38 1.232 . S
C38 O37 1.232 . S
C38 O39 1.218 . S
O39 C38 1.218 . S
C40 O33 1.275 . S
C40 O35 1.255 . S
C41 O42 1.258 . S
C41 O43 1.256 . S
O42 Cd34 2.381 . S
O42 C41 1.258 . S
O43 Cd34 2.378 . S
O43 C41 1.256 . S
O44 Cd45 2.300 . S
O44 C51 1.275 . S
Cd45 O44 2.300 . S
Cd45 O53 2.381 . S
Cd45 O54 2.378 . S
O46 Cd47 2.385 . S
O46 C51 1.255 . S
Cd47 O46 2.385 . S
Cd47 O48 2.317 . S
O48 Cd47 2.317 . S
O48 C49 1.232 . S
C49 O48 1.232 . S
C49 O50 1.218 . S
O50 C49 1.218 . S
C51 O44 1.275 . S
C51 O46 1.255 . S
C52 O53 1.258 . S
C52 O54 1.256 . S
O53 Cd45 2.381 . S
O53 C52 1.258 . S
O54 Cd45 2.378 . S
O54 C52 1.256 . S
O55 Cd56 2.300 . S
O55 C62 1.275 . S
Cd56 O55 2.300 . S
Cd56 O64 2.381 . S
Cd56 O65 2.378 . S
O57 Cd58 2.385 . S
O57 C62 1.255 . S
Cd58 O57 2.385 . S
Cd58 O59 2.317 . S
O59 Cd58 2.317 . S
O59 C60 1.232 . S
C60 O59 1.232 . S
C60 O61 1.218 . S
O61 C60 1.218 . S
C62 O55 1.275 . S
C62 O57 1.255 . S
C63 O64 1.258 . S
C63 O65 1.256 . S
O64 Cd56 2.381 . S
O64 C63 1.258 . S
O65 Cd56 2.378 . S
O65 C63 1.256 . S
O66 Cd67 2.300 . S
O66 C73 1.275 . S
Cd67 O66 2.300 . S
Cd67 O75 2.381 . S
Cd67 O76 2.378 . S
O68 Cd69 2.385 . S
O68 C73 1.255 . S
Cd69 O68 2.385 . S
Cd69 O70 2.317 . S
O70 Cd69 2.317 . S
O70 C71 1.232 . S
C71 O70 1.232 . S
C71 O72 1.218 . S
O72 C71 1.218 . S
C73 O66 1.275 . S
C73 O68 1.255 . S
C74 O75 1.258 . S
C74 O76 1.256 . S
O75 Cd67 2.381 . S
O75 C74 1.258 . S
O76 Cd67 2.378 . S
O76 C74 1.256 . S
O77 Cd78 2.300 . S
O77 C84 1.275 . S
Cd78 O77 2.300 . S
Cd78 O86 2.381 . S
Cd78 O87 2.378 . S
O79 Cd80 2.385 . S
O79 C84 1.255 . S
Cd80 O79 2.385 . S
Cd80 O81 2.317 . S
O81 Cd80 2.317 . S
O81 C82 1.232 . S
C82 O81 1.232 . S
C82 O83 1.218 . S
O83 C82 1.218 . S
C84 O77 1.275 . S
C84 O79 1.255 . S
C85 O86 1.258 . S
C85 O87 1.256 . S
O86 Cd78 2.381 . S
O86 C85 1.258 . S
O87 Cd78 2.378 . S
O87 C85 1.256 . S
H88 C94 0.930 . S
H89 C97 0.931 1_655 S
H90 C99 0.931 . S
H91 C101 0.930 . S
H92 C103 0.930 . S
H93 C105 0.931 1_655 S
C94 H88 0.930 . S
C94 C95 1.380 . S
C94 C96 1.394 . S
C95 C94 1.380 . S
C95 C99 1.382 . S
C96 C94 1.394 . S
C96 C97 1.400 . S
C97 H89 0.931 1_455 S
C97 C96 1.400 . S
C97 C98 1.375 . S
C98 C97 1.375 . S
C98 C99 1.415 . S
C98 C100 1.501 . S
C99 H90 0.931 . S
C99 C95 1.382 . S
C99 C98 1.415 . S
C100 C98 1.501 . S
C100 C101 1.384 . S
C100 C105 1.408 . S
C101 H91 0.930 . S
C101 C100 1.384 . S
C101 C102 1.389 . S
C102 C101 1.389 . S
C102 C103 1.405 . S
C103 H92 0.930 . S
C103 C102 1.405 . S
C103 C104 1.364 . S
C104 C103 1.364 . S
C104 C105 1.400 . S
C105 H93 0.931 1_455 S
C105 C100 1.408 . S
C105 C104 1.400 . S
H106 C112 0.930 . S
H107 C115 0.931 . S
H108 C117 0.931 . S
H109 C119 0.930 . S
H110 C121 0.930 . S
H111 C123 0.931 . S
C112 H106 0.930 . S
C112 C113 1.380 1_455 S
C112 C114 1.394 . S
C113 C112 1.380 1_655 S
C113 C117 1.382 . S
C114 C112 1.394 . S
C114 C115 1.400 . S
C115 H107 0.931 . S
C115 C114 1.400 . S
C115 C116 1.393 . S
C116 C115 1.393 . S
C116 C117 1.388 1_455 S
C116 C118 1.512 1_455 S
C117 H108 0.931 . S
C117 C113 1.382 . S
C117 C116 1.388 1_655 S
C118 C116 1.512 1_655 S
C118 C119 1.392 . S
C118 C123 1.396 1_655 S
C119 H109 0.930 . S
C119 C118 1.392 . S
C119 C120 1.389 . S
C120 C119 1.389 . S
C120 C121 1.405 . S
C121 H110 0.930 . S
C121 C120 1.405 . S
C121 C122 1.364 1_655 S
C122 C121 1.364 1_455 S
C122 C123 1.400 . S
C123 H111 0.931 . S
C123 C118 1.396 1_455 S
C123 C122 1.400 . S
H124 C130 0.930 . S
H125 C133 0.931 . S
H126 C135 0.931 . S
H127 C137 0.930 . S
H128 C139 0.930 . S
H129 C141 0.931 . S
C130 H124 0.930 . S
C130 C131 1.380 . S
C130 C132 1.394 . S
C131 C130 1.380 . S
C131 C135 1.382 . S
C132 C130 1.394 . S
C132 C133 1.400 . S
C133 H125 0.931 . S
C133 C132 1.400 . S
C133 C134 1.375 . S
C134 C133 1.375 . S
C134 C135 1.415 . S
C134 C136 1.501 . S
C135 H126 0.931 . S
C135 C131 1.382 . S
C135 C134 1.415 . S
C136 C134 1.501 . S
C136 C137 1.384 . S
C136 C141 1.408 . S
C137 H127 0.930 . S
C137 C136 1.384 . S
C137 C138 1.389 . S
C138 C137 1.389 . S
C138 C139 1.405 . S
C139 H128 0.930 . S
C139 C138 1.405 . S
C139 C140 1.364 . S
C140 C139 1.364 . S
C140 C141 1.400 . S
C141 H129 0.931 . S
C141 C136 1.408 . S
C141 C140 1.400 . S
H142 C148 0.930 . S
H143 C151 0.931 . S
H144 C153 0.931 . S
H145 C155 0.930 . S
H146 C157 0.930 . S
H147 C159 0.931 . S
C148 H142 0.930 . S
C148 C149 1.380 . S
C148 C150 1.394 . S
C149 C148 1.380 . S
C149 C153 1.382 . S
C150 C148 1.394 . S
C150 C151 1.400 . S
C151 H143 0.931 . S
C151 C150 1.400 . S
C151 C152 1.375 . S
C152 C151 1.375 . S
C152 C153 1.415 . S
C152 C154 1.501 1_554 S
C153 H144 0.931 . S
C153 C149 1.382 . S
C153 C152 1.415 . S
C154 C152 1.501 1_556 S
C154 C155 1.384 . S
C154 C159 1.408 . S
C155 H145 0.930 . S
C155 C154 1.384 . S
C155 C156 1.389 . S
C156 C155 1.389 . S
C156 C157 1.405 . S
C157 H146 0.930 . S
C157 C156 1.405 . S
C157 C158 1.364 . S
C158 C157 1.364 . S
C158 C159 1.400 . S
C159 H147 0.931 . S
C159 C154 1.408 . S
C159 C158 1.400 . S
H160 C166 0.930 . S
H161 C169 0.931 . S
H162 C171 0.931 . S
H163 C173 0.930 1_545 S
H164 C175 0.930 . S
H165 C177 0.931 1_545 S
C166 H160 0.930 . S
C166 C167 1.380 . S
C166 C168 1.394 . S
C167 C166 1.380 . S
C167 C171 1.382 . S
C168 C166 1.394 . S
C168 C169 1.400 . S
C169 H161 0.931 . S
C169 C168 1.400 . S
C169 C170 1.375 . S
C170 C169 1.375 . S
C170 C171 1.415 . S
C170 C172 1.501 . S
C171 H162 0.931 . S
C171 C167 1.382 . S
C171 C170 1.415 . S
C172 C170 1.501 . S
C172 C173 1.384 1_545 S
C172 C177 1.408 1_545 S
C173 H163 0.930 1_565 S
C173 C172 1.384 1_565 S
C173 C174 1.389 . S
C174 C173 1.389 . S
C174 C175 1.405 . S
C175 H164 0.930 . S
C175 C174 1.405 . S
C175 C176 1.364 . S
C176 C175 1.364 . S
C176 C177 1.400 . S
C177 H165 0.931 1_565 S
C177 C172 1.408 1_565 S
C177 C176 1.400 . S
H178 C184 0.930 . S
H179 C187 0.931 . S
H180 C189 0.931 . S
H181 C191 0.930 . S
H182 C193 0.930 . S
H183 C195 0.931 . S
C184 H178 0.930 . S
C184 C185 1.380 . S
C184 C186 1.394 . S
C185 C184 1.380 . S
C185 C189 1.382 . S
C186 C184 1.394 . S
C186 C187 1.400 . S
C187 H179 0.931 . S
C187 C186 1.400 . S
C187 C188 1.375 . S
C188 C187 1.375 . S
C188 C189 1.415 . S
C188 C190 1.501 1_554 S
C189 H180 0.931 . S
C189 C185 1.382 . S
C189 C188 1.415 . S
C190 C188 1.501 1_556 S
C190 C191 1.384 . S
C190 C195 1.408 . S
C191 H181 0.930 . S
C191 C190 1.384 . S
C191 C192 1.389 . S
C192 C191 1.389 . S
C192 C193 1.405 . S
C193 H182 0.930 . S
C193 C192 1.405 . S
C193 C194 1.364 . S
C194 C193 1.364 . S
C194 C195 1.400 . S
C195 H183 0.931 . S
C195 C190 1.408 . S
C195 C194 1.400 . S
H196 C204 0.929 . S
H197 C206 0.930 . S
H198 C208 0.930 . S
H199 C211 0.929 . S
H200 C214 0.930 . S
H201 C216 0.960 . S
H202 C216 0.960 . S
H203 C216 0.960 . S
C204 H196 0.929 . S
C204 C205 1.377 . S
C204 C206 1.384 . S
C205 C204 1.377 . S
C205 C211 1.390 . S
C206 H197 0.930 . S
C206 C204 1.384 . S
C206 C207 1.372 . S
C207 C206 1.372 . S
C207 C208 1.400 . S
C207 C212 1.490 . S
C208 H198 0.930 . S
C208 C207 1.400 . S
C208 C211 1.386 . S
H209 C225 0.930 . S
H210 C226 0.931 . S
C211 H199 0.929 . S
C211 C205 1.390 . S
C211 C208 1.386 . S
C212 C207 1.490 . S
C212 C214 1.395 . S
C212 C215 1.403 . S
H213 C219 0.930 . S
C214 H200 0.930 . S
C214 C212 1.395 . S
C214 C217 1.403 . S
C215 C212 1.403 . S
C215 C216 1.524 . S
C215 C219 1.400 . S
C216 H201 0.960 . S
C216 H202 0.960 . S
C216 H203 0.960 . S
C216 C215 1.524 . S
C217 C214 1.403 . S
C217 C218 1.392 . S
C217 C221 1.495 . S
C218 C217 1.392 . S
C218 C219 1.385 . S
C218 C220 1.478 . S
C219 H213 0.930 . S
C219 C215 1.400 . S
C219 C218 1.385 . S
C220 C218 1.478 . S
C220 C222 1.381 . S
C220 C226 1.383 . S
C221 C217 1.495 . S
C221 H227 0.959 . S
C221 H228 0.961 . S
C221 H229 0.960 . S
C222 C220 1.381 . S
C222 C223 1.394 . S
C222 H230 0.930 . S
C223 C222 1.394 . S
C223 C224 1.383 . S
C223 H231 0.929 . S
C224 C223 1.383 . S
C224 C225 1.377 . S
C225 H209 0.930 . S
C225 C224 1.377 . S
C225 C226 1.379 . S
C226 H210 0.931 . S
C226 C220 1.383 . S
C226 C225 1.379 . S
H227 C221 0.959 . S
H228 C221 0.961 . S
H229 C221 0.960 . S
H230 C222 0.930 . S
H231 C223 0.929 . S
H232 C240 0.929 . S
H233 C242 0.930 . S
H234 C244 0.930 . S
H235 C247 0.929 . S
H236 C250 0.930 . S
H237 C252 0.960 . S
H238 C252 0.960 . S
H239 C252 0.960 . S
C240 H232 0.929 . S
C240 C241 1.377 . S
C240 C242 1.384 . S
C241 C240 1.377 . S
C241 C247 1.390 . S
C242 H233 0.930 . S
C242 C240 1.384 . S
C242 C243 1.372 . S
C243 C242 1.372 . S
C243 C244 1.400 . S
C243 C248 1.490 . S
C244 H234 0.930 . S
C244 C243 1.400 . S
C244 C247 1.386 . S
H245 C261 0.930 . S
H246 C262 0.931 . S
C247 H235 0.929 . S
C247 C241 1.390 . S
C247 C244 1.386 . S
C248 C243 1.490 . S
C248 C250 1.395 . S
C248 C251 1.403 . S
H249 C255 0.930 . S
C250 H236 0.930 . S
C250 C248 1.395 . S
C250 C253 1.403 . S
C251 C248 1.403 . S
C251 C252 1.524 . S
C251 C255 1.400 . S
C252 H237 0.960 . S
C252 H238 0.960 . S
C252 H239 0.960 . S
C252 C251 1.524 . S
C253 C250 1.403 . S
C253 C254 1.392 . S
C253 C257 1.495 . S
C254 C253 1.392 . S
C254 C255 1.385 . S
C254 C256 1.478 . S
C255 H249 0.930 . S
C255 C251 1.400 . S
C255 C254 1.385 . S
C256 C254 1.478 . S
C256 C258 1.381 . S
C256 C262 1.383 . S
C257 C253 1.495 . S
C257 H263 0.959 . S
C257 H264 0.961 . S
C257 H265 0.960 . S
C258 C256 1.381 . S
C258 C259 1.394 . S
C258 H266 0.930 . S
C259 C258 1.394 . S
C259 C260 1.383 . S
C259 H267 0.929 . S
C260 C259 1.383 . S
C260 C261 1.377 . S
C261 H245 0.930 . S
C261 C260 1.377 . S
C261 C262 1.379 . S
C262 H246 0.931 . S
C262 C256 1.383 . S
C262 C261 1.379 . S
H263 C257 0.959 . S
H264 C257 0.961 . S
H265 C257 0.960 . S
H266 C258 0.930 . S
H267 C259 0.929 . S
H268 C276 0.929 . S
H269 C278 0.930 . S
H270 C280 0.930 . S
H271 C283 0.929 . S
H272 C286 0.930 . S
H273 C288 0.960 . S
H274 C288 0.960 . S
H275 C288 0.960 . S
C276 H268 0.929 . S
C276 C277 1.377 . S
C276 C278 1.384 . S
C277 C276 1.377 . S
C277 C283 1.390 . S
C278 H269 0.930 . S
C278 C276 1.384 . S
C278 C279 1.372 . S
C279 C278 1.372 . S
C279 C280 1.400 . S
C279 C284 1.490 . S
C280 H270 0.930 . S
C280 C279 1.400 . S
C280 C283 1.386 . S
H281 C297 0.930 . S
H282 C298 0.933 . S
C283 H271 0.929 . S
C283 C277 1.390 . S
C283 C280 1.386 . S
C284 C279 1.490 . S
C284 C286 1.395 . S
C284 C287 1.403 . S
H285 C291 0.930 . S
C286 H272 0.930 . S
C286 C284 1.395 . S
C286 C289 1.403 . S
C287 C284 1.403 . S
C287 C288 1.524 . S
C287 C291 1.400 . S
C288 H273 0.960 . S
C288 H274 0.960 . S
C288 H275 0.960 . S
C288 C287 1.524 . S
C289 C286 1.403 . S
C289 C290 1.392 . S
C289 C293 1.495 . S
C290 C289 1.392 . S
C290 C291 1.385 . S
C290 C292 1.478 . S
C291 H285 0.930 . S
C291 C287 1.400 . S
C291 C290 1.385 . S
C292 C290 1.478 . S
C292 C294 1.381 . S
C292 C298 1.383 . S
C293 C289 1.495 . S
C293 H299 0.959 . S
C293 H300 0.961 . S
C293 H301 0.960 . S
C294 C292 1.381 . S
C294 C295 1.394 . S
C294 H302 0.930 . S
C295 C294 1.394 . S
C295 C296 1.383 . S
C295 H303 0.929 . S
C296 C295 1.383 . S
C296 C297 1.377 1_655 S
C297 H281 0.930 . S
C297 C296 1.377 1_455 S
C297 C298 1.379 1_455 S
C298 H282 0.933 . S
C298 C292 1.383 . S
C298 C297 1.379 1_655 S
H299 C293 0.959 . S
H300 C293 0.961 . S
H301 C293 0.960 . S
H302 C294 0.930 . S
H303 C295 0.929 . S
H304 C312 0.929 . S
H305 C314 0.930 . S
H306 C316 0.930 . S
H307 C319 0.929 . S
H308 C322 0.930 . S
H309 C324 0.960 . S
H310 C324 0.960 . S
H311 C324 0.960 . S
C312 H304 0.929 . S
C312 C313 1.377 . S
C312 C314 1.384 . S
C313 C312 1.377 . S
C313 C319 1.390 . S
C314 H305 0.930 . S
C314 C312 1.384 . S
C314 C315 1.372 . S
C315 C314 1.372 . S
C315 C316 1.400 . S
C315 C320 1.490 . S
C316 H306 0.930 . S
C316 C315 1.400 . S
C316 C319 1.386 . S
H317 C333 0.930 . S
H318 C334 0.931 . S
C319 H307 0.929 . S
C319 C313 1.390 . S
C319 C316 1.386 . S
C320 C315 1.490 . S
C320 C322 1.395 . S
C320 C323 1.403 . S
H321 C327 0.930 . S
C322 H308 0.930 . S
C322 C320 1.395 . S
C322 C325 1.403 . S
C323 C320 1.403 . S
C323 C324 1.524 . S
C323 C327 1.400 . S
C324 H309 0.960 . S
C324 H310 0.960 . S
C324 H311 0.960 . S
C324 C323 1.524 . S
C325 C322 1.403 . S
C325 C326 1.392 . S
C325 C329 1.495 . S
C326 C325 1.392 . S
C326 C327 1.385 . S
C326 C328 1.478 . S
C327 H321 0.930 . S
C327 C323 1.400 . S
C327 C326 1.385 . S
C328 C326 1.478 . S
C328 C330 1.381 . S
C328 C334 1.383 . S
C329 C325 1.495 . S
C329 H335 0.959 . S
C329 H336 0.961 . S
C329 H337 0.960 . S
C330 C328 1.381 . S
C330 C331 1.394 . S
C330 H338 0.930 . S
C331 C330 1.394 . S
C331 C332 1.383 . S
C331 H339 0.929 . S
C332 C331 1.383 . S
C332 C333 1.377 . S
C333 H317 0.930 . S
C333 C332 1.377 . S
C333 C334 1.379 . S
C334 H318 0.931 . S
C334 C328 1.383 . S
C334 C333 1.379 . S
H335 C329 0.959 . S
H336 C329 0.961 . S
H337 C329 0.960 . S
H338 C330 0.930 . S
H339 C331 0.929 . S
H340 C348 0.929 . S
H341 C350 0.930 . S
H342 C352 0.930 . S
H343 C355 0.929 . S
H344 C358 0.930 . S
H345 C360 0.960 . S
H346 C360 0.960 . S
H347 C360 0.960 . S
C348 H340 0.929 . S
C348 C349 1.377 . S
C348 C350 1.384 . S
C349 C348 1.377 . S
C349 C355 1.390 . S
C350 H341 0.930 . S
C350 C348 1.384 . S
C350 C351 1.372 . S
C351 C350 1.372 . S
C351 C352 1.400 . S
C351 C356 1.490 . S
C352 H342 0.930 . S
C352 C351 1.400 . S
C352 C355 1.386 . S
H353 C369 0.930 . S
H354 C370 0.931 . S
C355 H343 0.929 . S
C355 C349 1.390 . S
C355 C352 1.386 . S
C356 C351 1.490 . S
C356 C358 1.395 . S
C356 C359 1.403 . S
H357 C363 0.930 . S
C358 H344 0.930 . S
C358 C356 1.395 . S
C358 C361 1.403 . S
C359 C356 1.403 . S
C359 C360 1.524 . S
C359 C363 1.400 . S
C360 H345 0.960 . S
C360 H346 0.960 . S
C360 H347 0.960 . S
C360 C359 1.524 . S
C361 C358 1.403 . S
C361 C362 1.392 . S
C361 C365 1.495 . S
C362 C361 1.392 . S
C362 C363 1.385 . S
C362 C364 1.478 . S
C363 H357 0.930 . S
C363 C359 1.400 . S
C363 C362 1.385 . S
C364 C362 1.478 . S
C364 C366 1.381 . S
C364 C370 1.383 . S
C365 C361 1.495 . S
C365 H371 0.959 . S
C365 H372 0.961 . S
C365 H373 0.960 . S
C366 C364 1.381 . S
C366 C367 1.394 . S
C366 H374 0.930 . S
C367 C366 1.394 . S
C367 C368 1.383 . S
C367 H375 0.929 . S
C368 C367 1.383 . S
C368 C369 1.377 . S
C369 H353 0.930 . S
C369 C368 1.377 . S
C369 C370 1.379 . S
C370 H354 0.931 . S
C370 C364 1.383 . S
C370 C369 1.379 . S
H371 C365 0.959 . S
H372 C365 0.961 . S
H373 C365 0.960 . S
H374 C366 0.930 . S
H375 C367 0.929 . S
H376 C384 0.929 . S
H377 C386 0.930 . S
H378 C388 0.930 . S
H379 C391 0.929 . S
H380 C394 0.930 . S
H381 C396 0.960 . S
H382 C396 0.960 . S
H383 C396 0.960 . S
C384 H376 0.929 . S
C384 C385 1.377 . S
C384 C386 1.384 . S
C385 C384 1.377 . S
C385 C391 1.390 . S
C386 H377 0.930 . S
C386 C384 1.384 . S
C386 C387 1.372 . S
C387 C386 1.372 . S
C387 C388 1.400 . S
C387 C392 1.490 . S
C388 H378 0.930 . S
C388 C387 1.400 . S
C388 C391 1.386 . S
H389 C405 0.930 . S
H390 C406 0.931 . S
C391 H379 0.929 . S
C391 C385 1.390 . S
C391 C388 1.386 . S
C392 C387 1.490 . S
C392 C394 1.395 . S
C392 C395 1.403 . S
H393 C399 0.930 . S
C394 H380 0.930 . S
C394 C392 1.395 . S
C394 C397 1.403 . S
C395 C392 1.403 . S
C395 C396 1.524 . S
C395 C399 1.400 . S
C396 H381 0.960 . S
C396 H382 0.960 . S
C396 H383 0.960 . S
C396 C395 1.524 . S
C397 C394 1.403 . S
C397 C398 1.392 . S
C397 C401 1.495 . S
C398 C397 1.392 . S
C398 C399 1.385 . S
C398 C400 1.478 . S
C399 H393 0.930 . S
C399 C395 1.400 . S
C399 C398 1.385 . S
C400 C398 1.478 . S
C400 C402 1.381 . S
C400 C406 1.383 . S
C401 C397 1.495 . S
C401 H407 0.959 . S
C401 H408 0.961 . S
C401 H409 0.960 . S
C402 C400 1.381 . S
C402 C403 1.394 . S
C402 H410 0.930 . S
C403 C402 1.394 . S
C403 C404 1.383 . S
C403 H411 0.929 . S
C404 C403 1.383 . S
C404 C405 1.377 . S
C405 H389 0.930 . S
C405 C404 1.377 . S
C405 C406 1.379 . S
C406 H390 0.931 . S
C406 C400 1.383 . S
C406 C405 1.379 . S
H407 C401 0.959 . S
H408 C401 0.961 . S
H409 C401 0.960 . S
H410 C402 0.930 . S
H411 C403 0.929 . S
H412 C420 0.929 . S
H413 C422 0.930 . S
H414 C424 0.930 . S
H415 C427 0.929 . S
H416 C430 0.930 . S
H417 C432 0.960 . S
H418 C432 0.960 . S
H419 C432 0.960 . S
C420 H412 0.929 . S
C420 C421 1.377 . S
C420 C422 1.384 . S
C421 C420 1.377 . S
C421 C427 1.390 . S
C422 H413 0.930 . S
C422 C420 1.384 . S
C422 C423 1.372 . S
C423 C422 1.372 . S
C423 C424 1.400 . S
C423 C428 1.490 . S
C424 H414 0.930 . S
C424 C423 1.400 . S
C424 C427 1.386 . S
H425 C441 0.930 . S
H426 C442 0.931 . S
C427 H415 0.929 . S
C427 C421 1.390 . S
C427 C424 1.386 . S
C428 C423 1.490 . S
C428 C430 1.395 . S
C428 C431 1.403 . S
H429 C435 0.930 . S
C430 H416 0.930 . S
C430 C428 1.395 . S
C430 C433 1.403 . S
C431 C428 1.403 . S
C431 C432 1.524 . S
C431 C435 1.400 . S
C432 H417 0.960 . S
C432 H418 0.960 . S
C432 H419 0.960 . S
C432 C431 1.524 . S
C433 C430 1.403 . S
C433 C434 1.392 . S
C433 C437 1.495 . S
C434 C433 1.392 . S
C434 C435 1.385 . S
C434 C436 1.478 . S
C435 H429 0.930 . S
C435 C431 1.400 . S
C435 C434 1.385 . S
C436 C434 1.478 . S
C436 C438 1.381 . S
C436 C442 1.383 . S
C437 C433 1.495 . S
C437 H443 0.959 . S
C437 H444 0.961 . S
C437 H445 0.960 . S
C438 C436 1.381 . S
C438 C439 1.394 . S
C438 H446 0.930 . S
C439 C438 1.394 . S
C439 C440 1.383 . S
C439 H447 0.929 . S
C440 C439 1.383 . S
C440 C441 1.377 . S
C441 H425 0.930 . S
C441 C440 1.377 . S
C441 C442 1.379 . S
C442 H426 0.931 . S
C442 C436 1.383 . S
C442 C441 1.379 . S
H443 C437 0.959 . S
H444 C437 0.961 . S
H445 C437 0.960 . S
H446 C438 0.930 . S
H447 C439 0.929 . S
H448 C456 0.929 . S
H449 C458 0.930 . S
H450 C460 0.930 . S
H451 C463 0.929 . S
H452 C466 0.930 . S
H453 C468 0.960 . S
H454 C468 0.960 . S
H455 C468 0.960 . S
C456 H448 0.929 . S
C456 C457 1.377 . S
C456 C458 1.384 . S
C457 C456 1.377 . S
C457 C463 1.390 . S
C458 H449 0.930 . S
C458 C456 1.384 . S
C458 C459 1.372 . S
C459 C458 1.372 . S
C459 C460 1.400 . S
C459 C464 1.490 . S
C460 H450 0.930 . S
C460 C459 1.400 . S
C460 C463 1.386 . S
H461 C477 0.930 . S
H462 C478 0.931 . S
C463 H451 0.929 . S
C463 C457 1.390 . S
C463 C460 1.386 . S
C464 C459 1.490 . S
C464 C466 1.395 . S
C464 C467 1.403 . S
H465 C471 0.930 . S
C466 H452 0.930 . S
C466 C464 1.395 . S
C466 C469 1.403 . S
C467 C464 1.403 . S
C467 C468 1.524 . S
C467 C471 1.400 . S
C468 H453 0.960 . S
C468 H454 0.960 . S
C468 H455 0.960 . S
C468 C467 1.524 . S
C469 C466 1.403 . S
C469 C470 1.392 . S
C469 C473 1.495 . S
C470 C469 1.392 . S
C470 C471 1.385 . S
C470 C472 1.478 . S
C471 H465 0.930 . S
C471 C467 1.400 . S
C471 C470 1.385 . S
C472 C470 1.478 . S
C472 C474 1.381 . S
C472 C478 1.383 . S
C473 C469 1.495 . S
C473 H479 0.959 . S
C473 H480 0.961 . S
C473 H481 0.960 . S
C474 C472 1.381 . S
C474 C475 1.394 . S
C474 H482 0.930 . S
C475 C474 1.394 . S
C475 C476 1.383 . S
C475 H483 0.929 . S
C476 C475 1.383 . S
C476 C477 1.377 . S
C477 H461 0.930 . S
C477 C476 1.377 . S
C477 C478 1.379 . S
C478 H462 0.931 . S
C478 C472 1.383 . S
C478 C477 1.379 . S
H479 C473 0.959 . S
H480 C473 0.961 . S
H481 C473 0.960 . S
H482 C474 0.930 . S
H483 C475 0.929 . S
H484 C492 0.929 . S
H485 C494 0.930 . S
H486 C496 0.930 . S
H487 C499 0.929 . S
H488 C502 0.930 . S
H489 C504 0.960 . S
H490 C504 0.960 . S
H491 C504 0.960 . S
C492 H484 0.929 . S
C492 C493 1.377 . S
C492 C494 1.384 . S
C493 C492 1.377 . S
C493 C499 1.390 . S
C494 H485 0.930 . S
C494 C492 1.384 . S
C494 C495 1.372 . S
C495 C494 1.372 . S
C495 C496 1.400 . S
C495 C500 1.490 . S
C496 H486 0.930 . S
C496 C495 1.400 . S
C496 C499 1.386 . S
H497 C513 0.930 . S
H498 C514 0.931 . S
C499 H487 0.929 . S
C499 C493 1.390 . S
C499 C496 1.386 . S
C500 C495 1.490 . S
C500 C502 1.395 . S
C500 C503 1.403 . S
H501 C507 0.930 1_545 S
C502 H488 0.930 . S
C502 C500 1.395 . S
C502 C505 1.403 . S
C503 C500 1.403 . S
C503 C504 1.524 . S
C503 C507 1.400 . S
C504 H489 0.960 . S
C504 H490 0.960 . S
C504 H491 0.960 . S
C504 C503 1.524 . S
C505 C502 1.403 . S
C505 C506 1.392 . S
C505 C509 1.495 . S
C506 C505 1.392 . S
C506 C507 1.385 . S
C506 C508 1.478 1_565 S
C507 H501 0.930 1_565 S
C507 C503 1.400 . S
C507 C506 1.385 . S
C508 C506 1.478 1_545 S
C508 C510 1.381 . S
C508 C514 1.383 . S
C509 C505 1.495 . S
C509 H515 0.959 . S
C509 H516 0.961 . S
C509 H517 0.960 . S
C510 C508 1.381 . S
C510 C511 1.394 . S
C510 H518 0.930 . S
C511 C510 1.394 . S
C511 C512 1.383 . S
C511 H519 0.929 . S
C512 C511 1.383 . S
C512 C513 1.377 . S
C513 H497 0.930 . S
C513 C512 1.377 . S
C513 C514 1.379 . S
C514 H498 0.931 . S
C514 C508 1.383 . S
C514 C513 1.379 . S
H515 C509 0.959 . S
H516 C509 0.961 . S
H517 C509 0.960 . S
H518 C510 0.930 . S
H519 C511 0.929 . S
H520 C528 0.929 . S
H521 C530 0.930 . S
H522 C532 0.930 . S
H523 C535 0.929 . S
H524 C538 0.930 . S
H525 C540 0.960 . S
H526 C540 0.960 . S
H527 C540 0.960 . S
C528 H520 0.929 . S
C528 C529 1.377 . S
C528 C530 1.384 . S
C529 C528 1.377 . S
C529 C535 1.390 . S
C530 H521 0.930 . S
C530 C528 1.384 . S
C530 C531 1.372 . S
C531 C530 1.372 . S
C531 C532 1.400 . S
C531 C536 1.490 . S
C532 H522 0.930 . S
C532 C531 1.400 . S
C532 C535 1.386 . S
H533 C549 0.930 . S
H534 C550 0.931 . S
C535 H523 0.929 . S
C535 C529 1.390 . S
C535 C532 1.386 . S
C536 C531 1.490 . S
C536 C538 1.395 . S
C536 C539 1.403 . S
H537 C543 0.930 . S
C538 H524 0.930 . S
C538 C536 1.395 . S
C538 C541 1.403 . S
C539 C536 1.403 . S
C539 C540 1.524 . S
C539 C543 1.400 . S
C540 H525 0.960 . S
C540 H526 0.960 . S
C540 H527 0.960 . S
C540 C539 1.524 . S
C541 C538 1.403 . S
C541 C542 1.392 . S
C541 C545 1.495 . S
C542 C541 1.392 . S
C542 C543 1.385 . S
C542 C544 1.478 . S
C543 H537 0.930 . S
C543 C539 1.400 . S
C543 C542 1.385 . S
C544 C542 1.478 . S
C544 C546 1.381 . S
C544 C550 1.383 . S
C545 C541 1.495 . S
C545 H551 0.959 . S
C545 H552 0.961 . S
C545 H553 0.960 . S
C546 C544 1.381 . S
C546 C547 1.394 . S
C546 H554 0.930 . S
C547 C546 1.394 . S
C547 C548 1.383 . S
C547 H555 0.929 . S
C548 C547 1.383 . S
C548 C549 1.377 . S
C549 H533 0.930 . S
C549 C548 1.377 . S
C549 C550 1.379 . S
C550 H534 0.931 . S
C550 C544 1.383 . S
C550 C549 1.379 . S
H551 C545 0.959 . S
H552 C545 0.961 . S
H553 C545 0.960 . S
H554 C546 0.930 . S
H555 C547 0.929 . S
H556 C564 0.929 . S
H557 C566 0.930 . S
H558 C568 0.930 . S
H559 C571 0.929 . S
H560 C574 0.930 . S
H561 C576 0.960 . S
H562 C576 0.960 . S
H563 C576 0.960 . S
C564 H556 0.929 . S
C564 C565 1.377 . S
C564 C566 1.384 . S
C565 C564 1.377 . S
C565 C571 1.390 . S
C566 H557 0.930 . S
C566 C564 1.384 . S
C566 C567 1.372 . S
C567 C566 1.372 . S
C567 C568 1.400 . S
C567 C572 1.490 . S
C568 H558 0.930 . S
C568 C567 1.400 . S
C568 C571 1.386 . S
H569 C585 0.930 . S
H570 C586 0.931 . S
C571 H559 0.929 . S
C571 C565 1.390 . S
C571 C568 1.386 . S
C572 C567 1.490 . S
C572 C574 1.395 . S
C572 C575 1.403 . S
H573 C579 0.930 . S
C574 H560 0.930 . S
C574 C572 1.395 . S
C574 C577 1.403 . S
C575 C572 1.403 . S
C575 C576 1.524 . S
C575 C579 1.400 . S
C576 H561 0.960 . S
C576 H562 0.960 . S
C576 H563 0.960 . S
C576 C575 1.524 . S
C577 C574 1.403 . S
C577 C578 1.392 . S
C577 C581 1.495 . S
C578 C577 1.392 . S
C578 C579 1.385 . S
C578 C580 1.478 . S
C579 H573 0.930 . S
C579 C575 1.400 . S
C579 C578 1.385 . S
C580 C578 1.478 . S
C580 C582 1.381 . S
C580 C586 1.383 . S
C581 C577 1.495 . S
C581 H587 0.959 . S
C581 H588 0.961 . S
C581 H589 0.960 . S
C582 C580 1.381 . S
C582 C583 1.394 . S
C582 H590 0.930 . S
C583 C582 1.394 . S
C583 C584 1.383 . S
C583 H591 0.929 . S
C584 C583 1.383 . S
C584 C585 1.377 . S
C585 H569 0.930 . S
C585 C584 1.377 . S
C585 C586 1.379 . S
C586 H570 0.931 . S
C586 C580 1.383 . S
C586 C585 1.379 . S
H587 C581 0.959 . S
H588 C581 0.961 . S
H589 C581 0.960 . S
H590 C582 0.930 . S
H591 C583 0.929 . S
H592 C600 0.929 . S
H593 C602 0.930 . S
H594 C604 0.930 . S
H595 C607 0.929 . S
H596 C610 0.930 . S
H597 C612 0.960 . S
H598 C612 0.960 . S
H599 C612 0.960 . S
C600 H592 0.929 . S
C600 C601 1.377 . S
C600 C602 1.384 . S
C601 C600 1.377 . S
C601 C607 1.390 . S
C602 H593 0.930 . S
C602 C600 1.384 . S
C602 C603 1.372 . S
C603 C602 1.372 . S
C603 C604 1.400 . S
C603 C608 1.490 . S
C604 H594 0.930 . S
C604 C603 1.400 . S
C604 C607 1.386 . S
H605 C621 0.930 . S
H606 C622 0.931 . S
C607 H595 0.929 . S
C607 C601 1.390 . S
C607 C604 1.386 . S
C608 C603 1.490 . S
C608 C610 1.395 . S
C608 C611 1.403 . S
H609 C615 0.930 . S
C610 H596 0.930 . S
C610 C608 1.395 . S
C610 C613 1.403 . S
C611 C608 1.403 . S
C611 C612 1.524 . S
C611 C615 1.400 . S
C612 H597 0.960 . S
C612 H598 0.960 . S
C612 H599 0.960 . S
C612 C611 1.524 . S
C613 C610 1.403 . S
C613 C614 1.392 . S
C613 C617 1.495 . S
C614 C613 1.392 . S
C614 C615 1.385 . S
C614 C616 1.478 . S
C615 H609 0.930 . S
C615 C611 1.400 . S
C615 C614 1.385 . S
C616 C614 1.478 . S
C616 C618 1.381 . S
C616 C622 1.383 . S
C617 C613 1.495 . S
C617 H623 0.959 . S
C617 H624 0.961 . S
C617 H625 0.960 . S
C618 C616 1.381 . S
C618 C619 1.394 . S
C618 H626 0.930 . S
C619 C618 1.394 . S
C619 C620 1.383 . S
C619 H627 0.929 . S
C620 C619 1.383 . S
C620 C621 1.377 . S
C621 H605 0.930 . S
C621 C620 1.377 . S
C621 C622 1.379 . S
C622 H606 0.931 . S
C622 C616 1.383 . S
C622 C621 1.379 . S
H623 C617 0.959 . S
H624 C617 0.961 . S
H625 C617 0.960 . S
H626 C618 0.930 . S
H627 C619 0.929 . S
H628 C636 0.929 . S
H629 C638 0.930 . S
H630 C640 0.930 . S
H631 C643 0.929 . S
H632 C646 0.930 . S
H633 C648 0.960 . S
H634 C648 0.960 . S
H635 C648 0.960 . S
C636 H628 0.929 . S
C636 C637 1.377 . S
C636 C638 1.384 . S
C637 C636 1.377 . S
C637 C643 1.390 . S
C638 H629 0.930 . S
C638 C636 1.384 . S
C638 C639 1.372 . S
C639 C638 1.372 . S
C639 C640 1.400 . S
C639 C644 1.490 . S
C640 H630 0.930 . S
C640 C639 1.400 . S
C640 C643 1.386 . S
H641 C657 0.930 . S
H642 C658 0.931 . S
C643 H631 0.929 . S
C643 C637 1.390 . S
C643 C640 1.386 . S
C644 C639 1.490 . S
C644 C646 1.395 . S
C644 C647 1.403 . S
H645 C651 0.930 . S
C646 H632 0.930 . S
C646 C644 1.395 . S
C646 C649 1.403 . S
C647 C644 1.403 . S
C647 C648 1.524 . S
C647 C651 1.400 . S
C648 H633 0.960 . S
C648 H634 0.960 . S
C648 H635 0.960 . S
C648 C647 1.524 . S
C649 C646 1.403 . S
C649 C650 1.392 . S
C649 C653 1.495 . S
C650 C649 1.392 . S
C650 C651 1.385 . S
C650 C652 1.478 . S
C651 H645 0.930 . S
C651 C647 1.400 . S
C651 C650 1.385 . S
C652 C650 1.478 . S
C652 C654 1.381 . S
C652 C658 1.383 . S
C653 C649 1.495 . S
C653 H659 0.959 . S
C653 H660 0.961 . S
C653 H661 0.960 . S
C654 C652 1.381 . S
C654 C655 1.394 . S
C654 H662 0.930 . S
C655 C654 1.394 . S
C655 C656 1.383 . S
C655 H663 0.929 . S
C656 C655 1.383 . S
C656 C657 1.377 . S
C657 H641 0.930 . S
C657 C656 1.377 . S
C657 C658 1.379 . S
C658 H642 0.931 . S
C658 C652 1.383 . S
C658 C657 1.379 . S
H659 C653 0.959 . S
H660 C653 0.961 . S
H661 C653 0.960 . S
H662 C654 0.930 . S
H663 C655 0.929 . S
H664 C672 0.929 . S
H665 C674 0.930 . S
H666 C676 0.930 . S
H667 C679 0.929 . S
H668 C682 0.930 . S
H669 C684 0.960 . S
H670 C684 0.960 . S
H671 C684 0.960 . S
C672 H664 0.929 . S
C672 C673 1.377 . S
C672 C674 1.384 . S
C673 C672 1.377 . S
C673 C679 1.390 . S
C674 H665 0.930 . S
C674 C672 1.384 . S
C674 C675 1.372 . S
C675 C674 1.372 . S
C675 C676 1.400 . S
C675 C680 1.490 . S
C676 H666 0.930 . S
C676 C675 1.400 . S
C676 C679 1.386 . S
H677 C693 0.930 . S
H678 C694 0.931 . S
C679 H667 0.929 . S
C679 C673 1.390 . S
C679 C676 1.386 . S
C680 C675 1.490 . S
C680 C682 1.395 . S
C680 C683 1.403 . S
H681 C687 0.930 . S
C682 H668 0.930 . S
C682 C680 1.395 . S
C682 C685 1.403 . S
C683 C680 1.403 . S
C683 C684 1.524 . S
C683 C687 1.400 . S
C684 H669 0.960 . S
C684 H670 0.960 . S
C684 H671 0.960 . S
C684 C683 1.524 . S
C685 C682 1.403 . S
C685 C686 1.392 . S
C685 C689 1.495 . S
C686 C685 1.392 . S
C686 C687 1.385 . S
C686 C688 1.478 . S
C687 H681 0.930 . S
C687 C683 1.400 . S
C687 C686 1.385 . S
C688 C686 1.478 . S
C688 C690 1.381 . S
C688 C694 1.383 . S
C689 C685 1.495 . S
C689 H695 0.959 . S
C689 H696 0.961 . S
C689 H697 0.960 . S
C690 C688 1.381 . S
C690 C691 1.394 1_655 S
C690 H698 0.928 1_655 S
C691 C690 1.394 1_455 S
C691 C692 1.383 1_455 S
C691 H699 0.929 . S
C692 C691 1.383 1_655 S
C692 C693 1.377 . S
C693 H677 0.930 . S
C693 C692 1.377 . S
C693 C694 1.379 . S
C694 H678 0.931 . S
C694 C688 1.383 . S
C694 C693 1.379 . S
H695 C689 0.959 . S
H696 C689 0.961 . S
H697 C689 0.960 . S
H698 C690 0.928 1_455 S
H699 C691 0.929 . S
H700 C708 0.929 . S
H701 C710 0.930 . S
H702 C712 0.930 . S
H703 C715 0.929 . S
H704 C718 0.930 . S
H705 C720 0.960 . S
H706 C720 0.960 . S
H707 C720 0.960 . S
C708 H700 0.929 . S
C708 C709 1.377 . S
C708 C710 1.384 . S
C709 C708 1.377 . S
C709 C715 1.390 . S
C710 H701 0.930 . S
C710 C708 1.384 . S
C710 C711 1.372 . S
C711 C710 1.372 . S
C711 C712 1.400 . S
C711 C716 1.490 . S
C712 H702 0.930 . S
C712 C711 1.400 . S
C712 C715 1.386 . S
H713 C729 0.930 . S
H714 C730 0.931 . S
C715 H703 0.929 . S
C715 C709 1.390 . S
C715 C712 1.386 . S
C716 C711 1.490 . S
C716 C718 1.395 . S
C716 C719 1.403 . S
H717 C723 0.930 . S
C718 H704 0.930 . S
C718 C716 1.395 . S
C718 C721 1.403 . S
C719 C716 1.403 . S
C719 C720 1.524 . S
C719 C723 1.400 . S
C720 H705 0.960 . S
C720 H706 0.960 . S
C720 H707 0.960 . S
C720 C719 1.524 . S
C721 C718 1.403 . S
C721 C722 1.392 . S
C721 C725 1.495 . S
C722 C721 1.392 . S
C722 C723 1.385 . S
C722 C724 1.478 . S
C723 H717 0.930 . S
C723 C719 1.400 . S
C723 C722 1.385 . S
C724 C722 1.478 . S
C724 C726 1.381 . S
C724 C730 1.383 . S
C725 C721 1.495 . S
C725 H731 0.959 . S
C725 H732 0.961 . S
C725 H733 0.960 . S
C726 C724 1.381 . S
C726 C727 1.394 . S
C726 H734 0.930 . S
C727 C726 1.394 . S
C727 C728 1.383 . S
C727 H735 0.929 . S
C728 C727 1.383 . S
C728 C729 1.377 . S
C729 H713 0.930 . S
C729 C728 1.377 . S
C729 C730 1.379 . S
C730 H714 0.931 . S
C730 C724 1.383 . S
C730 C729 1.379 . S
H731 C725 0.959 . S
H732 C725 0.961 . S
H733 C725 0.960 . S
H734 C726 0.930 . S
H735 C727 0.929 . S
H736 C744 0.929 . S
H737 C746 0.930 . S
H738 C748 0.930 . S
H739 C751 0.929 . S
H740 C754 0.930 . S
H741 C756 0.960 . S
H742 C756 0.960 . S
H743 C756 0.960 . S
C744 H736 0.929 . S
C744 C745 1.377 . S
C744 C746 1.384 . S
C745 C744 1.377 . S
C745 C751 1.390 . S
C746 H737 0.930 . S
C746 C744 1.384 . S
C746 C747 1.372 . S
C747 C746 1.372 . S
C747 C748 1.400 . S
C747 C752 1.490 . S
C748 H738 0.930 . S
C748 C747 1.400 . S
C748 C751 1.386 . S
H749 C765 0.930 . S
H750 C766 0.931 . S
C751 H739 0.929 . S
C751 C745 1.390 . S
C751 C748 1.386 . S
C752 C747 1.490 . S
C752 C754 1.395 . S
C752 C755 1.403 . S
H753 C759 0.930 . S
C754 H740 0.930 . S
C754 C752 1.395 . S
C754 C757 1.403 . S
C755 C752 1.403 . S
C755 C756 1.524 . S
C755 C759 1.400 . S
C756 H741 0.960 . S
C756 H742 0.960 . S
C756 H743 0.960 . S
C756 C755 1.524 . S
C757 C754 1.403 . S
C757 C758 1.392 . S
C757 C761 1.495 . S
C758 C757 1.392 . S
C758 C759 1.385 . S
C758 C760 1.478 . S
C759 H753 0.930 . S
C759 C755 1.400 . S
C759 C758 1.385 . S
C760 C758 1.478 . S
C760 C762 1.381 . S
C760 C766 1.383 . S
C761 C757 1.495 . S
C761 H767 0.959 . S
C761 H768 0.961 . S
C761 H769 0.960 . S
C762 C760 1.381 . S
C762 C763 1.394 . S
C762 H770 0.930 . S
C763 C762 1.394 . S
C763 C764 1.383 . S
C763 H771 0.929 . S
C764 C763 1.383 . S
C764 C765 1.377 . S
C765 H749 0.930 . S
C765 C764 1.377 . S
C765 C766 1.379 . S
C766 H750 0.931 . S
C766 C760 1.383 . S
C766 C765 1.379 . S
H767 C761 0.959 . S
H768 C761 0.961 . S
H769 C761 0.960 . S
H770 C762 0.930 . S
H771 C763 0.929 . S
H772 C780 0.929 . S
H773 C782 0.930 . S
H774 C784 0.930 . S
H775 C787 0.929 . S
H776 C790 0.930 . S
H777 C792 0.960 . S
H778 C792 0.960 . S
H779 C792 0.960 . S
C780 H772 0.929 . S
C780 C781 1.377 . S
C780 C782 1.384 . S
C781 C780 1.377 . S
C781 C787 1.390 . S
C782 H773 0.930 . S
C782 C780 1.384 . S
C782 C783 1.372 . S
C783 C782 1.372 . S
C783 C784 1.400 . S
C783 C788 1.490 . S
C784 H774 0.930 . S
C784 C783 1.400 . S
C784 C787 1.386 . S
H785 C801 0.930 . S
H786 C802 0.931 . S
C787 H775 0.929 . S
C787 C781 1.390 . S
C787 C784 1.386 . S
C788 C783 1.490 . S
C788 C790 1.395 . S
C788 C791 1.403 . S
H789 C795 0.930 . S
C790 H776 0.930 . S
C790 C788 1.395 . S
C790 C793 1.403 . S
C791 C788 1.403 . S
C791 C792 1.524 . S
C791 C795 1.400 . S
C792 H777 0.960 . S
C792 H778 0.960 . S
C792 H779 0.960 . S
C792 C791 1.524 . S
C793 C790 1.403 . S
C793 C794 1.392 . S
C793 C797 1.495 . S
C794 C793 1.392 . S
C794 C795 1.385 . S
C794 C796 1.478 . S
C795 H789 0.930 . S
C795 C791 1.400 . S
C795 C794 1.385 . S
C796 C794 1.478 . S
C796 C798 1.381 . S
C796 C802 1.383 . S
C797 C793 1.495 . S
C797 H803 0.959 . S
C797 H804 0.961 . S
C797 H805 0.960 . S
C798 C796 1.381 . S
C798 C799 1.394 . S
C798 H806 0.930 . S
C799 C798 1.394 . S
C799 C800 1.383 . S
C799 H807 0.929 . S
C800 C799 1.383 . S
C800 C801 1.377 . S
C801 H785 0.930 . S
C801 C800 1.377 . S
C801 C802 1.379 . S
C802 H786 0.931 . S
C802 C796 1.383 . S
C802 C801 1.379 . S
H803 C797 0.959 . S
H804 C797 0.961 . S
H805 C797 0.960 . S
H806 C798 0.930 . S
H807 C799 0.929 . S
H808 C816 0.929 . S
H809 C818 0.930 . S
H810 C820 0.930 . S
H811 C823 0.929 . S
H812 C826 0.930 . S
H813 C828 0.960 . S
H814 C828 0.960 . S
H815 C828 0.960 . S
C816 H808 0.929 . S
C816 C817 1.377 . S
C816 C818 1.384 . S
C817 C816 1.377 . S
C817 C823 1.390 . S
C818 H809 0.930 . S
C818 C816 1.384 . S
C818 C819 1.372 . S
C819 C818 1.372 . S
C819 C820 1.400 . S
C819 C824 1.490 . S
C820 H810 0.930 . S
C820 C819 1.400 . S
C820 C823 1.386 . S
H821 C837 0.930 . S
H822 C838 0.931 . S
C823 H811 0.929 . S
C823 C817 1.390 . S
C823 C820 1.386 . S
C824 C819 1.490 . S
C824 C826 1.395 . S
C824 C827 1.403 . S
H825 C831 0.930 . S
C826 H812 0.930 . S
C826 C824 1.395 . S
C826 C829 1.403 . S
C827 C824 1.403 . S
C827 C828 1.524 . S
C827 C831 1.400 . S
C828 H813 0.960 . S
C828 H814 0.960 . S
C828 H815 0.960 . S
C828 C827 1.524 . S
C829 C826 1.403 . S
C829 C830 1.392 . S
C829 C833 1.495 . S
C830 C829 1.392 . S
C830 C831 1.385 . S
C830 C832 1.478 . S
C831 H825 0.930 . S
C831 C827 1.400 . S
C831 C830 1.385 . S
C832 C830 1.478 . S
C832 C834 1.381 . S
C832 C838 1.383 . S
C833 C829 1.495 . S
C833 H839 0.959 . S
C833 H840 0.961 . S
C833 H841 0.960 . S
C834 C832 1.381 . S
C834 C835 1.394 . S
C834 H842 0.930 . S
C835 C834 1.394 . S
C835 C836 1.383 . S
C835 H843 0.929 . S
C836 C835 1.383 . S
C836 C837 1.377 . S
C837 H821 0.930 . S
C837 C836 1.377 . S
C837 C838 1.379 . S
C838 H822 0.931 . S
C838 C832 1.383 . S
C838 C837 1.379 . S
H839 C833 0.959 . S
H840 C833 0.961 . S
H841 C833 0.960 . S
H842 C834 0.930 . S
H843 C835 0.929 . S
H844 C852 0.929 . S
H845 C854 0.930 . S
H846 C856 0.930 . S
H847 C859 0.929 . S
H848 C862 0.930 . S
H849 C864 0.960 . S
H850 C864 0.960 . S
H851 C864 0.960 . S
C852 H844 0.929 . S
C852 C853 1.377 . S
C852 C854 1.384 . S
C853 C852 1.377 . S
C853 C859 1.390 . S
C854 H845 0.930 . S
C854 C852 1.384 . S
C854 C855 1.372 . S
C855 C854 1.372 . S
C855 C856 1.400 . S
C855 C860 1.490 . S
C856 H846 0.930 . S
C856 C855 1.400 . S
C856 C859 1.386 . S
H857 C873 0.930 . S
H858 C874 0.931 . S
C859 H847 0.929 . S
C859 C853 1.390 . S
C859 C856 1.386 . S
C860 C855 1.490 . S
C860 C862 1.395 . S
C860 C863 1.403 . S
H861 C867 0.930 . S
C862 H848 0.930 . S
C862 C860 1.395 . S
C862 C865 1.403 . S
C863 C860 1.403 . S
C863 C864 1.524 . S
C863 C867 1.400 . S
C864 H849 0.960 . S
C864 H850 0.960 . S
C864 H851 0.960 . S
C864 C863 1.524 . S
C865 C862 1.403 . S
C865 C866 1.392 . S
C865 C869 1.495 . S
C866 C865 1.392 . S
C866 C867 1.385 . S
C866 C868 1.478 . S
C867 H861 0.930 . S
C867 C863 1.400 . S
C867 C866 1.385 . S
C868 C866 1.478 . S
C868 C870 1.381 . S
C868 C874 1.383 . S
C869 C865 1.495 . S
C869 H875 0.959 . S
C869 H876 0.961 . S
C869 H877 0.960 . S
C870 C868 1.381 . S
C870 C871 1.394 . S
C870 H878 0.930 . S
C871 C870 1.394 . S
C871 C872 1.383 . S
C871 H879 0.929 . S
C872 C871 1.383 . S
C872 C873 1.377 . S
C873 H857 0.930 . S
C873 C872 1.377 . S
C873 C874 1.379 . S
C874 H858 0.931 . S
C874 C868 1.383 . S
C874 C873 1.379 . S
H875 C869 0.959 . S
H876 C869 0.961 . S
H877 C869 0.960 . S
H878 C870 0.930 . S
H879 C871 0.929 . S
H880 C888 0.929 . S
H881 C890 0.930 . S
H882 C892 0.930 . S
H883 C895 0.929 . S
H884 C898 0.930 . S
H885 C900 0.960 . S
H886 C900 0.960 . S
H887 C900 0.960 . S
C888 H880 0.929 . S
C888 C889 1.377 . S
C888 C890 1.384 . S
C889 C888 1.377 . S
C889 C895 1.390 . S
C890 H881 0.930 . S
C890 C888 1.384 . S
C890 C891 1.372 . S
C891 C890 1.372 . S
C891 C892 1.400 . S
C891 C896 1.490 . S
C892 H882 0.930 . S
C892 C891 1.400 . S
C892 C895 1.386 . S
H893 C909 0.930 . S
H894 C910 0.931 . S
C895 H883 0.929 . S
C895 C889 1.390 . S
C895 C892 1.386 . S
C896 C891 1.490 . S
C896 C898 1.395 . S
C896 C899 1.403 . S
H897 C903 0.930 . S
C898 H884 0.930 . S
C898 C896 1.395 . S
C898 C901 1.403 . S
C899 C896 1.403 . S
C899 C900 1.524 . S
C899 C903 1.400 . S
C900 H885 0.960 . S
C900 H886 0.960 . S
C900 H887 0.960 . S
C900 C899 1.524 . S
C901 C898 1.403 . S
C901 C902 1.392 . S
C901 C905 1.495 . S
C902 C901 1.392 . S
C902 C903 1.385 . S
C902 C904 1.478 . S
C903 H897 0.930 . S
C903 C899 1.400 . S
C903 C902 1.385 . S
C904 C902 1.478 . S
C904 C906 1.381 . S
C904 C910 1.383 . S
C905 C901 1.495 . S
C905 H911 0.959 . S
C905 H912 0.961 . S
C905 H913 0.960 . S
C906 C904 1.381 . S
C906 C907 1.394 . S
C906 H914 0.930 . S
C907 C906 1.394 . S
C907 C908 1.383 . S
C907 H915 0.929 . S
C908 C907 1.383 . S
C908 C909 1.377 . S
C909 H893 0.930 . S
C909 C908 1.377 . S
C909 C910 1.379 . S
C910 H894 0.931 . S
C910 C904 1.383 . S
C910 C909 1.379 . S
H911 C905 0.959 . S
H912 C905 0.961 . S
H913 C905 0.960 . S
H914 C906 0.930 . S
H915 C907 0.929 . S
H916 C924 0.929 . S
H917 C926 0.930 . S
H918 C928 0.930 . S
H919 C931 0.929 . S
H920 C934 0.930 . S
H921 C936 0.960 . S
H922 C936 0.960 . S
H923 C936 0.960 . S
C924 H916 0.929 . S
C924 C925 1.377 . S
C924 C926 1.384 . S
C925 C924 1.377 . S
C925 C931 1.390 . S
C926 H917 0.930 . S
C926 C924 1.384 . S
C926 C927 1.372 . S
C927 C926 1.372 . S
C927 C928 1.400 . S
C927 C932 1.490 . S
C928 H918 0.930 . S
C928 C927 1.400 . S
C928 C931 1.386 . S
H929 C945 0.930 . S
H930 C946 0.931 . S
C931 H919 0.929 . S
C931 C925 1.390 . S
C931 C928 1.386 . S
C932 C927 1.490 . S
C932 C934 1.395 . S
C932 C935 1.403 . S
H933 C939 0.930 . S
C934 H920 0.930 . S
C934 C932 1.395 . S
C934 C937 1.403 . S
C935 C932 1.403 . S
C935 C936 1.524 . S
C935 C939 1.400 . S
C936 H921 0.960 . S
C936 H922 0.960 . S
C936 H923 0.960 . S
C936 C935 1.524 . S
C937 C934 1.403 . S
C937 C938 1.392 . S
C937 C941 1.495 . S
C938 C937 1.392 . S
C938 C939 1.385 . S
C938 C940 1.478 . S
C939 H933 0.930 . S
C939 C935 1.400 . S
C939 C938 1.385 . S
C940 C938 1.478 . S
C940 C942 1.381 . S
C940 C946 1.383 . S
C941 C937 1.495 . S
C941 H947 0.959 . S
C941 H948 0.961 . S
C941 H949 0.960 . S
C942 C940 1.381 . S
C942 C943 1.394 . S
C942 H950 0.930 . S
C943 C942 1.394 . S
C943 C944 1.383 . S
C943 H951 0.929 . S
C944 C943 1.383 . S
C944 C945 1.377 . S
C945 H929 0.930 . S
C945 C944 1.377 . S
C945 C946 1.379 . S
C946 H930 0.931 . S
C946 C940 1.383 . S
C946 C945 1.379 . S
H947 C941 0.959 . S
H948 C941 0.961 . S
H949 C941 0.960 . S
H950 C942 0.930 . S
H951 C943 0.929 . S
H952 C960 0.929 . S
H953 C962 0.930 . S
H954 C964 0.930 . S
H955 C967 0.929 . S
H956 C970 0.930 . S
H957 C972 0.960 . S
H958 C972 0.960 . S
H959 C972 0.960 . S
C960 H952 0.929 . S
C960 C961 1.377 . S
C960 C962 1.384 . S
C961 C960 1.377 . S
C961 C967 1.390 . S
C962 H953 0.930 . S
C962 C960 1.384 . S
C962 C963 1.372 . S
C963 C962 1.372 . S
C963 C964 1.400 . S
C963 C968 1.490 . S
C964 H954 0.930 . S
C964 C963 1.400 . S
C964 C967 1.386 . S
H965 C981 0.930 . S
H966 C982 0.931 . S
C967 H955 0.929 . S
C967 C961 1.390 . S
C967 C964 1.386 . S
C968 C963 1.490 . S
C968 C970 1.395 . S
C968 C971 1.403 . S
H969 C975 0.930 . S
C970 H956 0.930 . S
C970 C968 1.395 . S
C970 C973 1.403 . S
C971 C968 1.403 . S
C971 C972 1.524 . S
C971 C975 1.400 . S
C972 H957 0.960 . S
C972 H958 0.960 . S
C972 H959 0.960 . S
C972 C971 1.524 . S
C973 C970 1.403 . S
C973 C974 1.392 . S
C973 C977 1.495 . S
C974 C973 1.392 . S
C974 C975 1.385 . S
C974 C976 1.478 . S
C975 H969 0.930 . S
C975 C971 1.400 . S
C975 C974 1.385 . S
C976 C974 1.478 . S
C976 C978 1.381 . S
C976 C982 1.383 . S
C977 C973 1.495 . S
C977 H983 0.959 . S
C977 H984 0.961 . S
C977 H985 0.960 . S
C978 C976 1.381 . S
C978 C979 1.394 . S
C978 H986 0.930 . S
C979 C978 1.394 . S
C979 C980 1.383 . S
C979 H987 0.929 . S
C980 C979 1.383 . S
C980 C981 1.377 . S
C981 H965 0.930 . S
C981 C980 1.377 . S
C981 C982 1.379 . S
C982 H966 0.931 . S
C982 C976 1.383 . S
C982 C981 1.379 . S
H983 C977 0.959 . S
H984 C977 0.961 . S
H985 C977 0.960 . S
H986 C978 0.930 . S
H987 C979 0.929 . S
H988 C996 0.929 . S
H989 C998 0.930 . S
H990 C1000 0.930 . S
H991 C1003 0.929 . S
H992 C1006 0.930 . S
H993 C1008 0.960 . S
H994 C1008 0.960 . S
H995 C1008 0.960 . S
C996 H988 0.929 . S
C996 C997 1.377 . S
C996 C998 1.384 . S
C997 C996 1.377 . S
C997 C1003 1.390 . S
C998 H989 0.930 . S
C998 C996 1.384 . S
C998 C999 1.372 . S
C999 C998 1.372 . S
C999 C1000 1.400 . S
C999 C1004 1.490 . S
C1000 H990 0.930 . S
C1000 C999 1.400 . S
C1000 C1003 1.386 . S
H1001 C1017 0.930 . S
H1002 C1018 0.931 . S
C1003 H991 0.929 . S
C1003 C997 1.390 . S
C1003 C1000 1.386 . S
C1004 C999 1.490 . S
C1004 C1006 1.395 . S
C1004 C1007 1.403 . S
H1005 C1011 0.930 . S
C1006 H992 0.930 . S
C1006 C1004 1.395 . S
C1006 C1009 1.403 . S
C1007 C1004 1.403 . S
C1007 C1008 1.524 . S
C1007 C1011 1.400 . S
C1008 H993 0.960 . S
C1008 H994 0.960 . S
C1008 H995 0.960 . S
C1008 C1007 1.524 . S
C1009 C1006 1.403 . S
C1009 C1010 1.392 . S
C1009 C1013 1.495 1_565 S
C1010 C1009 1.392 . S
C1010 C1011 1.385 . S
C1010 C1012 1.478 1_565 S
C1011 H1005 0.930 . S
C1011 C1007 1.400 . S
C1011 C1010 1.385 . S
C1012 C1010 1.478 1_545 S
C1012 C1014 1.381 . S
C1012 C1018 1.383 . S
C1013 C1009 1.495 1_545 S
C1013 H1019 0.959 . S
C1013 H1020 0.961 . S
C1013 H1021 0.960 . S
C1014 C1012 1.381 . S
C1014 C1015 1.394 . S
C1014 H1022 0.930 . S
C1015 C1014 1.394 . S
C1015 C1016 1.383 . S
C1015 H1023 0.929 . S
C1016 C1015 1.383 . S
C1016 C1017 1.377 . S
C1017 H1001 0.930 . S
C1017 C1016 1.377 . S
C1017 C1018 1.379 . S
C1018 H1002 0.931 . S
C1018 C1012 1.383 . S
C1018 C1017 1.379 . S
H1019 C1013 0.959 . S
H1020 C1013 0.961 . S
H1021 C1013 0.960 . S
H1022 C1014 0.930 . S
H1023 C1015 0.929 . S
H1024 C1032 0.929 . S
H1025 C1034 0.930 . S
H1026 C1036 0.930 . S
H1027 C1039 0.929 . S
H1028 C1042 0.930 . S
H1029 C1044 0.960 . S
H1030 C1044 0.960 . S
H1031 C1044 0.960 . S
C1032 H1024 0.929 . S
C1032 C1033 1.377 . S
C1032 C1034 1.384 . S
C1033 C1032 1.377 . S
C1033 C1039 1.390 . S
C1034 H1025 0.930 . S
C1034 C1032 1.384 . S
C1034 C1035 1.372 . S
C1035 C1034 1.372 . S
C1035 C1036 1.400 . S
C1035 C1040 1.490 . S
C1036 H1026 0.930 . S
C1036 C1035 1.400 . S
C1036 C1039 1.386 . S
H1037 C1053 0.930 . S
H1038 C1054 0.931 . S
C1039 H1027 0.929 . S
C1039 C1033 1.390 . S
C1039 C1036 1.386 . S
C1040 C1035 1.490 . S
C1040 C1042 1.395 . S
C1040 C1043 1.403 . S
H1041 C1047 0.930 . S
C1042 H1028 0.930 . S
C1042 C1040 1.395 . S
C1042 C1045 1.403 . S
C1043 C1040 1.403 . S
C1043 C1044 1.524 . S
C1043 C1047 1.400 . S
C1044 H1029 0.960 . S
C1044 H1030 0.960 . S
C1044 H1031 0.960 . S
C1044 C1043 1.524 . S
C1045 C1042 1.403 . S
C1045 C1046 1.392 . S
C1045 C1049 1.495 . S
C1046 C1045 1.392 . S
C1046 C1047 1.385 . S
C1046 C1048 1.478 . S
C1047 H1041 0.930 . S
C1047 C1043 1.400 . S
C1047 C1046 1.385 . S
C1048 C1046 1.478 . S
C1048 C1050 1.381 . S
C1048 C1054 1.383 . S
C1049 C1045 1.495 . S
C1049 H1055 0.959 . S
C1049 H1056 0.961 . S
C1049 H1057 0.960 . S
C1050 C1048 1.381 . S
C1050 C1051 1.394 . S
C1050 H1058 0.930 . S
C1051 C1050 1.394 . S
C1051 C1052 1.383 . S
C1051 H1059 0.929 . S
C1052 C1051 1.383 . S
C1052 C1053 1.377 . S
C1053 H1037 0.930 . S
C1053 C1052 1.377 . S
C1053 C1054 1.379 . S
C1054 H1038 0.931 . S
C1054 C1048 1.383 . S
C1054 C1053 1.379 . S
H1055 C1049 0.959 . S
H1056 C1049 0.961 . S
H1057 C1049 0.960 . S
H1058 C1050 0.930 . S
H1059 C1051 0.929 . S
C224 C95 1.451 . S
C205 C5 1.358 . S
C260 C114 1.489 . S
C241 C16 1.301 . S
C296 C104 1.691 1_655 S
C277 C30 1.734 . S
C332 C120 1.679 . S
C313 C40 1.654 . S
C368 C131 1.360 . S
C349 C8 1.410 . S
C404 C156 1.414 . S
C385 C18 1.395 . S
C421 C29 1.736 . S
C440 C174 1.719 . S
C476 C194 1.536 . S
C457 C38 1.337 . S
C512 C140 1.287 . S
C493 C19 1.353 . S
C529 C27 1.428 . S
C548 C150 1.540 . S
C584 C168 1.608 . S
C565 C41 1.633 . S
C620 C185 1.418 . S
C601 C7 1.488 . S
C637 C52 1.691 . S
C656 C113 1.677 . S
C692 C96 1.575 1_655 S
C673 C62 1.603 . S
C709 C74 1.462 . S
C728 C122 1.416 . S
C745 C82 1.229 . S
C764 C102 1.407 . S
C800 C176 1.825 . S
C781 C51 1.802 . S
C836 C186 1.561 . S
C817 C60 1.369 . S
C872 C132 1.366 . S
C853 C71 1.194 . S
C889 C84 1.456 . S
C908 C149 1.434 . S
C944 C167 1.706 . S
C925 C63 1.770 . S
C980 C192 1.438 . S
C961 C73 1.427 . S
C1016 C138 1.440 . S
C997 C85 1.468 . S
C1033 C49 1.382 . S
C1052 C158 1.590 . S
