# Generated by pormake.
# Topology llk, (3,12)-cn, num edge types: 1
# Building blocks:
#     Node 0, Type 0, BuildingBlock: BETDIP_clean_linker_0, # of connection points: 3
#     Node 1, Type 0, BuildingBlock: BETDIP_clean_linker_0, # of connection points: 3
#     Node 2, Type 0, BuildingBlock: BETDIP_clean_linker_0, # of connection points: 3
#     Node 3, Type 0, BuildingBlock: BETDIP_clean_linker_0, # of connection points: 3
#     Node 4, Type 0, BuildingBlock: BETDIP_clean_linker_0, # of connection points: 3
#     Node 5, Type 0, BuildingBlock: BETDIP_clean_linker_0, # of connection points: 3
#     Node 6, Type 0, BuildingBlock: BETDIP_clean_linker_0, # of connection points: 3
#     Node 7, Type 0, BuildingBlock: BETDIP_clean_linker_0, # of connection points: 3
#     Node 8, Type 0, BuildingBlock: BETDIP_clean_linker_0, # of connection points: 3
#     Node 9, Type 0, BuildingBlock: BETDIP_clean_linker_0, # of connection points: 3
#     Node 10, Type 0, BuildingBlock: BETDIP_clean_linker_0, # of connection points: 3
#     Node 11, Type 0, BuildingBlock: BETDIP_clean_linker_0, # of connection points: 3
#     Node 12, Type 0, BuildingBlock: BETDIP_clean_linker_0, # of connection points: 3
#     Node 13, Type 0, BuildingBlock: BETDIP_clean_linker_0, # of connection points: 3
#     Node 14, Type 0, BuildingBlock: BETDIP_clean_linker_0, # of connection points: 3
#     Node 15, Type 0, BuildingBlock: BETDIP_clean_linker_0, # of connection points: 3
#     Node 16, Type 0, BuildingBlock: BETDIP_clean_linker_0, # of connection points: 3
#     Node 17, Type 0, BuildingBlock: BETDIP_clean_linker_0, # of connection points: 3
#     Node 18, Type 0, BuildingBlock: BETDIP_clean_linker_0, # of connection points: 3
#     Node 19, Type 0, BuildingBlock: BETDIP_clean_linker_0, # of connection points: 3
#     Node 20, Type 0, BuildingBlock: BETDIP_clean_linker_0, # of connection points: 3
#     Node 21, Type 0, BuildingBlock: BETDIP_clean_linker_0, # of connection points: 3
#     Node 22, Type 0, BuildingBlock: BETDIP_clean_linker_0, # of connection points: 3
#     Node 23, Type 0, BuildingBlock: BETDIP_clean_linker_0, # of connection points: 3
#     Node 24, Type 1, BuildingBlock: QEWDON_clean_sbu_0, # of connection points: 12
#     Node 25, Type 1, BuildingBlock: QEWDON_clean_sbu_0, # of connection points: 12
#     Node 26, Type 1, BuildingBlock: QEWDON_clean_sbu_0, # of connection points: 12
#     Node 27, Type 1, BuildingBlock: QEWDON_clean_sbu_0, # of connection points: 12
#     Node 28, Type 1, BuildingBlock: QEWDON_clean_sbu_0, # of connection points: 12
#     Node 29, Type 1, BuildingBlock: QEWDON_clean_sbu_0, # of connection points: 12
#     Edge 30, Type (0, 1), BuildingBlock: XUDNAN_clean_linker_2, # of connection points: 2
#     Edge 31, Type (0, 1), BuildingBlock: XUDNAN_clean_linker_2, # of connection points: 2
#     Edge 32, Type (0, 1), BuildingBlock: XUDNAN_clean_linker_2, # of connection points: 2
#     Edge 33, Type (0, 1), BuildingBlock: XUDNAN_clean_linker_2, # of connection points: 2
#     Edge 34, Type (0, 1), BuildingBlock: XUDNAN_clean_linker_2, # of connection points: 2
#     Edge 35, Type (0, 1), BuildingBlock: XUDNAN_clean_linker_2, # of connection points: 2
#     Edge 36, Type (0, 1), BuildingBlock: XUDNAN_clean_linker_2, # of connection points: 2
#     Edge 37, Type (0, 1), BuildingBlock: XUDNAN_clean_linker_2, # of connection points: 2
#     Edge 38, Type (0, 1), BuildingBlock: XUDNAN_clean_linker_2, # of connection points: 2
#     Edge 39, Type (0, 1), BuildingBlock: XUDNAN_clean_linker_2, # of connection points: 2
#     Edge 40, Type (0, 1), BuildingBlock: XUDNAN_clean_linker_2, # of connection points: 2
#     Edge 41, Type (0, 1), BuildingBlock: XUDNAN_clean_linker_2, # of connection points: 2
#     Edge 42, Type (0, 1), BuildingBlock: XUDNAN_clean_linker_2, # of connection points: 2
#     Edge 43, Type (0, 1), BuildingBlock: XUDNAN_clean_linker_2, # of connection points: 2
#     Edge 44, Type (0, 1), BuildingBlock: XUDNAN_clean_linker_2, # of connection points: 2
#     Edge 45, Type (0, 1), BuildingBlock: XUDNAN_clean_linker_2, # of connection points: 2
#     Edge 46, Type (0, 1), BuildingBlock: XUDNAN_clean_linker_2, # of connection points: 2
#     Edge 47, Type (0, 1), BuildingBlock: XUDNAN_clean_linker_2, # of connection points: 2
#     Edge 48, Type (0, 1), BuildingBlock: XUDNAN_clean_linker_2, # of connection points: 2
#     Edge 49, Type (0, 1), BuildingBlock: XUDNAN_clean_linker_2, # of connection points: 2
#     Edge 50, Type (0, 1), BuildingBlock: XUDNAN_clean_linker_2, # of connection points: 2
#     Edge 51, Type (0, 1), BuildingBlock: XUDNAN_clean_linker_2, # of connection points: 2
#     Edge 52, Type (0, 1), BuildingBlock: XUDNAN_clean_linker_2, # of connection points: 2
#     Edge 53, Type (0, 1), BuildingBlock: XUDNAN_clean_linker_2, # of connection points: 2
#     Edge 54, Type (0, 1), BuildingBlock: XUDNAN_clean_linker_2, # of connection points: 2
#     Edge 55, Type (0, 1), BuildingBlock: XUDNAN_clean_linker_2, # of connection points: 2
#     Edge 56, Type (0, 1), BuildingBlock: XUDNAN_clean_linker_2, # of connection points: 2
#     Edge 57, Type (0, 1), BuildingBlock: XUDNAN_clean_linker_2, # of connection points: 2
#     Edge 58, Type (0, 1), BuildingBlock: XUDNAN_clean_linker_2, # of connection points: 2
#     Edge 59, Type (0, 1), BuildingBlock: XUDNAN_clean_linker_2, # of connection points: 2
#     Edge 60, Type (0, 1), BuildingBlock: XUDNAN_clean_linker_2, # of connection points: 2
#     Edge 61, Type (0, 1), BuildingBlock: XUDNAN_clean_linker_2, # of connection points: 2
#     Edge 62, Type (0, 1), BuildingBlock: XUDNAN_clean_linker_2, # of connection points: 2
#     Edge 63, Type (0, 1), BuildingBlock: XUDNAN_clean_linker_2, # of connection points: 2
#     Edge 64, Type (0, 1), BuildingBlock: XUDNAN_clean_linker_2, # of connection points: 2
#     Edge 65, Type (0, 1), BuildingBlock: XUDNAN_clean_linker_2, # of connection points: 2
#     Edge 66, Type (0, 1), BuildingBlock: XUDNAN_clean_linker_2, # of connection points: 2
#     Edge 67, Type (0, 1), BuildingBlock: XUDNAN_clean_linker_2, # of connection points: 2
#     Edge 68, Type (0, 1), BuildingBlock: XUDNAN_clean_linker_2, # of connection points: 2
#     Edge 69, Type (0, 1), BuildingBlock: XUDNAN_clean_linker_2, # of connection points: 2
#     Edge 70, Type (0, 1), BuildingBlock: XUDNAN_clean_linker_2, # of connection points: 2
#     Edge 71, Type (0, 1), BuildingBlock: XUDNAN_clean_linker_2, # of connection points: 2
#     Edge 72, Type (0, 1), BuildingBlock: XUDNAN_clean_linker_2, # of connection points: 2
#     Edge 73, Type (0, 1), BuildingBlock: XUDNAN_clean_linker_2, # of connection points: 2
#     Edge 74, Type (0, 1), BuildingBlock: XUDNAN_clean_linker_2, # of connection points: 2
#     Edge 75, Type (0, 1), BuildingBlock: XUDNAN_clean_linker_2, # of connection points: 2
#     Edge 76, Type (0, 1), BuildingBlock: XUDNAN_clean_linker_2, # of connection points: 2
#     Edge 77, Type (0, 1), BuildingBlock: XUDNAN_clean_linker_2, # of connection points: 2
#     Edge 78, Type (0, 1), BuildingBlock: XUDNAN_clean_linker_2, # of connection points: 2
#     Edge 79, Type (0, 1), BuildingBlock: XUDNAN_clean_linker_2, # of connection points: 2
#     Edge 80, Type (0, 1), BuildingBlock: XUDNAN_clean_linker_2, # of connection points: 2
#     Edge 81, Type (0, 1), BuildingBlock: XUDNAN_clean_linker_2, # of connection points: 2
#     Edge 82, Type (0, 1), BuildingBlock: XUDNAN_clean_linker_2, # of connection points: 2
#     Edge 83, Type (0, 1), BuildingBlock: XUDNAN_clean_linker_2, # of connection points: 2
#     Edge 84, Type (0, 1), BuildingBlock: XUDNAN_clean_linker_2, # of connection points: 2
#     Edge 85, Type (0, 1), BuildingBlock: XUDNAN_clean_linker_2, # of connection points: 2
#     Edge 86, Type (0, 1), BuildingBlock: XUDNAN_clean_linker_2, # of connection points: 2
#     Edge 87, Type (0, 1), BuildingBlock: XUDNAN_clean_linker_2, # of connection points: 2
#     Edge 88, Type (0, 1), BuildingBlock: XUDNAN_clean_linker_2, # of connection points: 2
#     Edge 89, Type (0, 1), BuildingBlock: XUDNAN_clean_linker_2, # of connection points: 2
#     Edge 90, Type (0, 1), BuildingBlock: XUDNAN_clean_linker_2, # of connection points: 2
#     Edge 91, Type (0, 1), BuildingBlock: XUDNAN_clean_linker_2, # of connection points: 2
#     Edge 92, Type (0, 1), BuildingBlock: XUDNAN_clean_linker_2, # of connection points: 2
#     Edge 93, Type (0, 1), BuildingBlock: XUDNAN_clean_linker_2, # of connection points: 2
#     Edge 94, Type (0, 1), BuildingBlock: XUDNAN_clean_linker_2, # of connection points: 2
#     Edge 95, Type (0, 1), BuildingBlock: XUDNAN_clean_linker_2, # of connection points: 2
#     Edge 96, Type (0, 1), BuildingBlock: XUDNAN_clean_linker_2, # of connection points: 2
#     Edge 97, Type (0, 1), BuildingBlock: XUDNAN_clean_linker_2, # of connection points: 2
#     Edge 98, Type (0, 1), BuildingBlock: XUDNAN_clean_linker_2, # of connection points: 2
#     Edge 99, Type (0, 1), BuildingBlock: XUDNAN_clean_linker_2, # of connection points: 2
#     Edge 100, Type (0, 1), BuildingBlock: XUDNAN_clean_linker_2, # of connection points: 2
#     Edge 101, Type (0, 1), BuildingBlock: XUDNAN_clean_linker_2, # of connection points: 2
# Relax obj value: 0.098
# Max RMSD: 0.183
# Mean RMSD: 0.146
data_MOF--net-llk--node1-QEWDON_clean_sbu_0--node2-BETDIP_clean_linker_0--edge1-XUDNAN_clean_linker_2
_symmetry_space_group_name_H-M    P1
_symmetry_Int_Tables_number       1
_symmetry_cell_setting            triclinic
loop_
_symmetry_equiv_pos_as_xyz
'x, y, z'
_cell_length_a     45.689818
_cell_length_b     47.987972
_cell_length_c     47.560053
_cell_angle_alpha  90.08907
_cell_angle_beta   89.946631
_cell_angle_gamma 89.59037
loop_
_atom_site_label
_atom_site_type_symbol
_atom_site_fract_x
_atom_site_fract_y
_atom_site_fract_z
_atom_type_partial_charge
H0 H 0.03866 0.27275 0.22531 0.0
H1 H 0.05954 0.27783 0.31322 0.0
H2 H 0.02612 0.35002 0.26992 0.0
H3 H 0.0131 0.22661 0.26995 0.0
C4 C 0.03529 0.22346 0.27763 0.0
C5 C 0.03997 0.28487 0.24449 0.0
C6 C 0.03142 0.31315 0.24462 0.0
C7 C 0.04952 0.27217 0.26958 0.0
C8 C 0.05151 0.28785 0.2943 0.0
C9 C 0.04339 0.31607 0.2947 0.0
C10 C 0.03306 0.32837 0.26981 0.0
N11 N 0.05685 0.24346 0.27071 0.0
H12 H 0.8073 0.04859 0.23699 0.0
H13 H 0.71367 0.05841 0.23197 0.0
H14 H 0.75373 0.03513 0.31012 0.0
H15 H 0.76602 0.0224 0.17897 0.0
C16 C 0.75371 0.0417 0.18147 0.0
C17 C 0.78591 0.04769 0.24681 0.0
C18 C 0.7833 0.04092 0.27536 0.0
C19 C 0.7607 0.05361 0.23103 0.0
C20 C 0.73307 0.05306 0.24391 0.0
C21 C 0.73054 0.04623 0.2724 0.0
C22 C 0.75563 0.03988 0.28788 0.0
N23 N 0.76309 0.06069 0.20232 0.0
H24 H 0.01405 0.80429 0.25752 0.0
H25 H 0.03895 0.71858 0.27165 0.0
H26 H 0.03265 0.77495 0.34119 0.0
H27 H 0.06024 0.72628 0.22765 0.0
C28 C 0.0402 0.73383 0.21787 0.0
C29 C 0.02131 0.78783 0.2715 0.0
C30 C 0.02392 0.793 0.30054 0.0
C31 C 0.02785 0.76122 0.26062 0.0
C32 C 0.03584 0.73968 0.27927 0.0
C33 C 0.03757 0.74464 0.30818 0.0
C34 C 0.03208 0.77135 0.31866 0.0
N35 N 0.0243 0.75565 0.23137 0.0
H36 H 0.23504 0.99544 0.232 0.0
H37 H 0.31871 0.96861 0.26454 0.0
H38 H 0.24661 0.98378 0.32059 0.0
H39 H 0.26369 0.0147 0.19977 0.0
C40 C 0.28332 0.00213 0.19701 0.0
C41 C 0.24891 0.98913 0.24931 0.0
C42 C 0.2375 0.98978 0.27662 0.0
C43 C 0.27824 0.98094 0.2448 0.0
C44 C 0.29574 0.97342 0.2678 0.0
C45 C 0.28435 0.97434 0.29515 0.0
C46 C 0.25507 0.98183 0.29933 0.0
N47 N 0.29172 0.98267 0.21799 0.0
H48 H 0.00693 0.761 0.79892 0.0
H49 H 0.97553 0.75844 0.71406 0.0
H50 H 0.01145 0.68438 0.75257 0.0
H51 H 0.94835 0.80385 0.7347 0.0
C52 C 0.9716 0.80798 0.73671 0.0
C53 C 0.00278 0.74936 0.77981 0.0
C54 C 0.00924 0.72073 0.77867 0.0
C55 C 0.99137 0.76313 0.75622 0.0
C56 C 0.98541 0.74783 0.73171 0.0
C57 C 0.99284 0.71934 0.72963 0.0
C58 C 0.00505 0.70612 0.7534 0.0
N59 N 0.98821 0.79265 0.75679 0.0
H60 H 0.23005 0.98485 0.7857 0.0
H61 H 0.32446 0.98325 0.78883 0.0
H62 H 0.28077 0.01737 0.71694 0.0
H63 H 0.29601 0.92886 0.80749 0.0
C64 C 0.29551 0.94591 0.82256 0.0
C65 C 0.25107 0.98962 0.77637 0.0
C66 C 0.25247 0.00195 0.74961 0.0
C67 C 0.27707 0.98229 0.79046 0.0
C68 C 0.30425 0.98836 0.77806 0.0
C69 C 0.30548 0.00126 0.75181 0.0
C70 C 0.27968 0.00784 0.7376 0.0
N71 N 0.27593 0.96828 0.81672 0.0
H72 H 0.99441 0.23134 0.75602 0.0
H73 H 0.02558 0.31471 0.74216 0.0
H74 H 0.00409 0.26236 0.6718 0.0
H75 H 0.05762 0.28572 0.78644 0.0
C76 C 0.03607 0.29007 0.79518 0.0
C77 C 0.00041 0.24791 0.74173 0.0
C78 C -0.00147 0.24376 0.71246 0.0
C79 C 0.01025 0.2736 0.75248 0.0
C80 C 0.01815 0.29496 0.73384 0.0
C81 C 0.01594 0.29108 0.70468 0.0
C82 C 0.00607 0.26548 0.6943 0.0
N83 N 0.01102 0.27852 0.78195 0.0
H84 H 0.77538 0.03499 0.8346 0.0
H85 H 0.78955 0.0184 0.74674 0.0
H86 H 0.71432 0.0656 0.77288 0.0
H87 H 0.84243 0.97867 0.79007 0.0
C88 C 0.83312 0.99818 0.78258 0.0
C89 C 0.7689 0.03777 0.81285 0.0
C90 C 0.74235 0.05121 0.80648 0.0
C91 C 0.78653 0.02641 0.79164 0.0
C92 C 0.77735 0.02845 0.76344 0.0
C93 C 0.75218 0.04396 0.75664 0.0
C94 C 0.73474 0.05524 0.7782 0.0
N95 N 0.81199 0.0114 0.80011 0.0
H96 H 0.20965 0.26585 0.05136 0.0
H97 H 0.30249 0.26733 0.0363 0.0
H98 H 0.25013 0.34015 0.01935 0.0
H99 H 0.23701 0.21878 0.0139 0.0
C100 C 0.25524 0.21554 0.02823 0.0
C101 C 0.22904 0.27711 0.04503 0.0
C102 C 0.22672 0.30481 0.03576 0.0
C103 C 0.25642 0.2636 0.04495 0.0
C104 C 0.28149 0.278 0.03655 0.0
C105 C 0.27929 0.30555 0.02714 0.0
C106 C 0.25187 0.31876 0.02659 0.0
N107 N 0.25878 0.23478 0.05057 0.0
H108 H 0.20163 0.78582 0.0275 0.0
H109 H 0.28796 0.76966 0.99454 0.0
H110 H 0.23813 0.70291 0.03007 0.0
H111 H 0.22796 0.82868 0.04037 0.0
C112 C 0.24264 0.83217 0.02276 0.0
C113 C 0.21977 0.77162 0.02382 0.0
C114 C 0.21703 0.74322 0.03058 0.0
C115 C 0.2458 0.78121 0.01131 0.0
C116 C 0.26822 0.76227 0.00469 0.0
C117 C 0.26584 0.7342 0.0121 0.0
C118 C 0.24042 0.72491 0.02535 0.0
N119 N 0.25037 0.80964 0.00482 0.0
H120 H 0.81415 0.22451 0.99141 0.0
H121 H 0.81351 0.314 0.99048 0.0
H122 H 0.73385 0.26936 0.00658 0.0
H123 H 0.86216 0.2914 0.9475 0.0
C124 C 0.86247 0.29013 0.97029 0.0
C125 C 0.80251 0.24407 0.99437 0.0
C126 C 0.77241 0.24403 0.99993 0.0
C127 C 0.81744 0.26907 0.9908 0.0
C128 C 0.80215 0.29449 0.99346 0.0
C129 C 0.77203 0.29485 0.99966 0.0
C130 C 0.75734 0.26943 0.00328 0.0
N131 N 0.84755 0.2679 0.98349 0.0
H132 H 0.79336 0.81355 0.99016 0.0
H133 H 0.78887 0.7254 0.00687 0.0
H134 H 0.71016 0.77398 0.00418 0.0
H135 H 0.83292 0.74207 0.03229 0.0
C136 C 0.84226 0.7488 0.0124 0.0
C137 C 0.78056 0.79508 0.99435 0.0
C138 C 0.74999 0.79708 0.99737 0.0
C139 C 0.79483 0.76938 0.99811 0.0
C140 C 0.77826 0.74544 0.00406 0.0
C141 C 0.74782 0.74726 0.00603 0.0
C142 C 0.73383 0.7729 0.00252 0.0
N143 N 0.82578 0.76771 0.99579 0.0
H144 H 0.51969 0.77087 0.71941 0.0
H145 H 0.54638 0.77576 0.80602 0.0
H146 H 0.54828 0.84886 0.75449 0.0
H147 H 0.55849 0.71172 0.76881 0.0
C148 C 0.54045 0.72111 0.78039 0.0
C149 C 0.5283 0.78282 0.73686 0.0
C150 C 0.53451 0.8113 0.73343 0.0
C151 C 0.53277 0.76974 0.76293 0.0
C152 C 0.54326 0.78542 0.78574 0.0
C153 C 0.54798 0.81416 0.78299 0.0
C154 C 0.54433 0.82672 0.75666 0.0
N155 N 0.52325 0.74189 0.76685 0.0
H156 H 0.35623 0.53447 0.74683 0.0
H157 H 0.26238 0.53904 0.74752 0.0
H158 H 0.30974 0.54705 0.82498 0.0
H159 H 0.28675 0.49313 0.711 0.0
C160 C 0.28988 0.51351 0.70155 0.0
C161 C 0.33601 0.53696 0.75852 0.0
C162 C 0.33652 0.54025 0.7879 0.0
C163 C 0.30942 0.53594 0.74409 0.0
C164 C 0.28299 0.53923 0.7588 0.0
C165 C 0.28317 0.54403 0.78781 0.0
C166 C 0.3099 0.54439 0.80234 0.0
N167 N 0.3094 0.53231 0.71458 0.0
H168 H 0.47589 0.30646 0.75795 0.0
H169 H 0.48879 0.2182 0.7693 0.0
H170 H 0.4763 0.27089 0.84112 0.0
H171 H 0.52584 0.23747 0.72767 0.0
C172 C 0.50455 0.23993 0.71778 0.0
C173 C 0.47785 0.28856 0.77171 0.0
C174 C 0.47574 0.29199 0.80108 0.0
C175 C 0.48265 0.26188 0.76015 0.0
C176 C 0.48508 0.23874 0.77805 0.0
C177 C 0.48236 0.24182 0.80719 0.0
C178 C 0.47801 0.26846 0.8185 0.0
N179 N 0.48362 0.25799 0.73053 0.0
H180 H 0.69495 0.48228 0.75023 0.0
H181 H 0.78795 0.48485 0.76446 0.0
H182 H 0.72848 0.50268 0.83219 0.0
H183 H 0.73091 0.51605 0.7094 0.0
C184 C 0.74831 0.5006 0.70736 0.0
C185 C 0.71325 0.48463 0.76449 0.0
C186 C 0.70834 0.49165 0.7928 0.0
C187 C 0.74209 0.4815 0.75449 0.0
C188 C 0.76579 0.48593 0.7726 0.0
C189 C 0.76083 0.49374 0.80053 0.0
C190 C 0.73221 0.49607 0.81063 0.0
N191 N 0.74773 0.4773 0.72558 0.0
H192 H 0.50689 0.27583 0.30363 0.0
H193 H 0.4896 0.26102 0.21624 0.0
H194 H 0.49571 0.19175 0.27273 0.0
H195 H 0.53709 0.29431 0.22438 0.0
C196 C 0.51956 0.30854 0.23053 0.0
C197 C 0.50225 0.26134 0.28676 0.0
C198 C 0.50196 0.23231 0.2919 0.0
C199 C 0.49816 0.27164 0.25939 0.0
C200 C 0.49258 0.25302 0.23736 0.0
C201 C 0.49188 0.22429 0.24206 0.0
C202 C 0.49667 0.21404 0.26925 0.0
N203 N 0.50137 0.30047 0.25334 0.0
H204 H 0.7041 0.49534 0.27191 0.0
H205 H 0.79092 0.52908 0.27519 0.0
H206 H 0.75639 0.50005 0.19658 0.0
H207 H 0.73456 0.47599 0.32108 0.0
C208 C 0.74481 0.49569 0.32635 0.0
C209 C 0.72471 0.49975 0.2616 0.0
C210 C 0.7278 0.49552 0.23245 0.0
C211 C 0.74782 0.51147 0.27701 0.0
C212 C 0.77356 0.51924 0.26332 0.0
C213 C 0.77699 0.51452 0.23452 0.0
C214 C 0.75426 0.50236 0.21919 0.0
N215 N 0.74528 0.51722 0.30605 0.0
H216 H 0.53734 0.73505 0.26903 0.0
H217 H 0.56292 0.81978 0.25366 0.0
H218 H 0.55904 0.76166 0.18515 0.0
H219 H 0.58378 0.80996 0.30175 0.0
C220 C 0.56186 0.80466 0.30876 0.0
C221 C 0.54486 0.75094 0.25462 0.0
C222 C 0.5485 0.74464 0.22584 0.0
C223 C 0.55096 0.77774 0.26497 0.0
C224 C 0.55963 0.7987 0.24615 0.0
C225 C 0.56268 0.79293 0.21738 0.0
C226 C 0.55771 0.7658 0.20754 0.0
N227 N 0.54592 0.78398 0.29385 0.0
H228 H 0.29785 0.54875 0.31098 0.0
H229 H 0.3146 0.56194 0.22285 0.0
H230 H 0.23383 0.52532 0.24926 0.0
H231 H 0.37188 0.53605 0.27987 0.0
C232 C 0.36392 0.55256 0.26621 0.0
C233 C 0.29114 0.54691 0.28921 0.0
C234 C 0.26392 0.53517 0.28249 0.0
C235 C 0.30998 0.5557 0.26761 0.0
C236 C 0.3008 0.55416 0.2395 0.0
C237 C 0.27335 0.54321 0.2328 0.0
C238 C 0.25539 0.53323 0.25432 0.0
N239 N 0.33784 0.56667 0.27431 0.0
H240 H 0.7233 0.77338 0.48284 0.0
H241 H 0.81773 0.77179 0.4864 0.0
H242 H 0.77061 0.8452 0.51161 0.0
H243 H 0.79026 0.72513 0.4364 0.0
C244 C 0.7928 0.72762 0.45896 0.0
C245 C 0.74378 0.78341 0.488 0.0
C246 C 0.74377 0.8113 0.49707 0.0
C247 C 0.77038 0.76895 0.48382 0.0
C248 C 0.79703 0.78245 0.48956 0.0
C249 C 0.79695 0.80961 0.50037 0.0
C250 C 0.77044 0.82391 0.50387 0.0
N251 N 0.76955 0.741 0.47379 0.0
H252 H 0.72625 0.26762 0.49809 0.0
H253 H 0.81703 0.27165 0.47626 0.0
H254 H 0.77836 0.19238 0.49537 0.0
H255 H 0.78031 0.30788 0.53104 0.0
C256 C 0.78328 0.3163 0.51002 0.0
C257 C 0.74683 0.25693 0.49419 0.0
C258 C 0.749 0.22782 0.497 0.0
C259 C 0.77149 0.27249 0.48697 0.0
C260 C 0.79826 0.25914 0.48187 0.0
C261 C 0.801 0.23013 0.48447 0.0
C262 C 0.77621 0.21464 0.49209 0.0
N263 N 0.77037 0.3019 0.48722 0.0
H264 H 0.27095 0.7296 0.52767 0.0
H265 H 0.2636 0.81875 0.51831 0.0
H266 H 0.18646 0.76962 0.53066 0.0
H267 H 0.32099 0.78779 0.48224 0.0
C268 C 0.31777 0.7939 0.50402 0.0
C269 C 0.25764 0.74836 0.52673 0.0
C270 C 0.22709 0.7466 0.52897 0.0
C271 C 0.27105 0.7743 0.52265 0.0
C272 C 0.25359 0.79857 0.52115 0.0
C273 C 0.22317 0.79691 0.52477 0.0
C274 C 0.21006 0.77093 0.52842 0.0
N275 N 0.30209 0.7757 0.52199 0.0
H276 H 0.26374 0.31005 0.51023 0.0
H277 H 0.25977 0.22131 0.52243 0.0
H278 H 0.18616 0.27272 0.54493 0.0
H279 H 0.31523 0.25709 0.54587 0.0
C280 C 0.31643 0.25167 0.52368 0.0
C281 C 0.25197 0.29184 0.51736 0.0
C282 C 0.22366 0.29469 0.52879 0.0
C283 C 0.26537 0.26541 0.516 0.0
C284 C 0.24994 0.24181 0.52479 0.0
C285 C 0.22139 0.24448 0.53509 0.0
C286 C 0.20858 0.27087 0.53755 0.0
N287 N 0.29427 0.26216 0.50563 0.0
Zn288 Zn 0.96691 0.99347 0.46305 0.0
Zn289 Zn 0.9635 0.05995 0.45704 0.0
O290 O 0.9924 0.02763 0.4583 0.0
H291 H 0.01021 0.02612 0.44744 0.0
C292 C 0.94296 0.95151 0.53196 0.0
O293 O 0.94314 0.96771 0.50973 0.0
Zn294 Zn 0.06974 0.05804 0.56124 0.0
Zn295 Zn 0.07025 0.99063 0.56911 0.0
O296 O 0.04397 0.024 0.56012 0.0
H297 H 0.0248 0.02288 0.55168 0.0
Zn298 Zn 0.96818 1.00016 0.56429 0.0
O299 O 0.96815 0.03032 0.53462 0.0
Zn300 Zn 0.96684 0.0652 0.55844 0.0
H301 H 0.97847 0.02807 0.51702 0.0
Zn302 Zn 0.06618 0.99535 0.45426 0.0
O303 O 0.05764 0.02786 0.48029 0.0
H304 H 0.0468 0.02661 0.49769 0.0
Zn305 Zn 0.06219 0.06225 0.45686 0.0
C306 C 0.09109 0.95649 0.49644 0.0
O307 O 0.0792 0.9741 0.51435 0.0
O308 O 0.92778 1.00087 0.44396 0.0
O309 O 0.9266 0.04681 0.43792 0.0
O310 O 0.10789 0.00299 0.58871 0.0
O311 O 0.10711 0.04891 0.5825 0.0
O312 O 0.94988 0.01425 0.60091 0.0
O313 O 0.94317 0.05963 0.59407 0.0
C314 C 0.00742 0.09186 0.43134 0.0
O315 O 0.08106 0.00813 0.41569 0.0
O316 O 0.0831 0.05426 0.41997 0.0
O317 O 0.05428 0.95455 0.58795 0.0
C318 C 0.91578 0.02269 0.43399 0.0
O319 O 0.97966 0.95556 0.44562 0.0
C320 C 0.02251 0.08948 0.58556 0.0
O321 O 0.95315 0.9605 0.55508 0.0
C322 C 0.11888 0.02696 0.59268 0.0
O323 O 0.08802 0.96072 0.47025 0.0
C324 C 0.94938 0.09548 0.50906 0.0
O325 O 0.97977 0.09034 0.43267 0.0
O326 O 0.02198 0.07652 0.4481 0.0
C327 C 0.93981 0.03776 0.6089 0.0
O328 O 0.05018 0.08745 0.58524 0.0
O329 O 0.00832 0.07417 0.56857 0.0
C330 C 0.08719 0.09018 0.50616 0.0
O331 O 0.95048 0.09668 0.5357 0.0
O332 O 0.95747 0.07315 0.49683 0.0
C333 C 0.0877 0.03198 0.40592 0.0
O334 O 0.08413 0.09006 0.47953 0.0
O335 O 0.07522 0.07092 0.52053 0.0
C336 C 0.02953 0.95039 0.5994 0.0
O337 O 0.00926 0.9699 0.59821 0.0
C338 C 0.00056 0.9511 0.4285 0.0
O339 O 0.01958 0.97088 0.42352 0.0
Zn340 Zn 0.47601 0.07635 0.03009 0.0
Zn341 Zn 0.47312 0.06522 0.96633 0.0
O342 O 0.47603 0.04411 0.00242 0.0
H343 H 0.48506 0.0262 0.00595 0.0
C344 C 0.52991 0.11389 0.07471 0.0
O345 O 0.5169 0.11328 0.05011 0.0
Zn346 Zn 0.55598 0.9784 0.95992 0.0
Zn347 Zn 0.5582 0.9752 0.02727 0.0
O348 O 0.54784 1.00086 0.99461 0.0
H349 H 0.53477 0.01671 0.99563 0.0
Zn350 Zn 0.57539 0.0842 0.04309 0.0
O351 O 0.54939 0.07254 0.01114 0.0
Zn352 Zn 0.57295 0.07538 0.97604 0.0
H353 H 0.52958 0.0659 0.01288 0.0
Zn354 Zn 0.47418 0.95673 0.04155 0.0
O355 O 0.49518 0.95901 0.00424 0.0
H356 H 0.51558 0.95442 0.0015 0.0
Zn357 Zn 0.46515 0.96293 0.97393 0.0
C358 C 0.52045 0.92404 0.06911 0.0
O359 O 0.53033 0.92401 0.0432 0.0
O360 O 0.44929 0.10819 0.0162 0.0
O361 O 0.44408 0.09685 0.97128 0.0
O362 O 0.58608 0.94342 0.01495 0.0
O363 O 0.58589 0.94919 0.9686 0.0
O364 O 0.61573 0.09804 0.02991 0.0
O365 O 0.61429 0.08862 0.98401 0.0
C366 C 0.45485 0.01406 0.94001 0.0
O367 O 0.42972 0.95034 0.03578 0.0
O368 O 0.42501 0.95191 0.98899 0.0
O369 O 0.57694 0.99342 0.06196 0.0
C370 C 0.43721 0.11195 0.9924 0.0
O371 O 0.46121 0.06708 0.06961 0.0
C372 C 0.58208 0.02662 0.93614 0.0
O373 O 0.55529 0.10319 0.07721 0.0
C374 C 0.59572 0.93735 0.99058 0.0
O375 O 0.49644 0.93659 0.07448 0.0
C376 C 0.52613 0.099 0.94661 0.0
O377 O 0.45677 0.04018 0.9363 0.0
O378 O 0.46615 0.00311 0.96174 0.0
C379 C 0.62774 0.09773 0.00569 0.0
O380 O 0.57576 0.00149 0.93064 0.0
O381 O 0.57048 0.03805 0.9575 0.0
C382 C 0.50464 0.94255 0.93553 0.0
O383 O 0.55325 0.10273 0.95063 0.0
O384 O 0.51393 0.07892 0.95932 0.0
C385 C 0.41417 0.9484 0.01354 0.0
O386 O 0.47788 0.93855 0.9414 0.0
O387 O 0.5177 0.96127 0.9495 0.0
C388 C 0.57254 0.01574 0.07576 0.0
O389 O 0.55069 0.03236 0.06898 0.0
C390 C 0.45048 0.04353 0.07574 0.0
O391 O 0.45451 0.0224 0.05854 0.0
Zn392 Zn 0.9722 0.48714 0.95173 0.0
Zn393 Zn 0.96995 0.55475 0.95849 0.0
O394 O 0.99737 0.52169 0.95716 0.0
H395 H 0.01674 0.52112 0.96517 0.0
C396 C 0.96913 0.45099 0.04184 0.0
O397 O 0.97709 0.46664 0.02055 0.0
Zn398 Zn 0.07711 0.55853 0.05762 0.0
Zn399 Zn 0.07856 0.49246 0.07407 0.0
O400 O 0.0529 0.5235 0.0577 0.0
H401 H 0.03498 0.52074 0.04731 0.0
Zn402 Zn 0.97825 0.50262 0.07368 0.0
O403 O 0.97193 0.52792 0.04018 0.0
Zn404 Zn 0.97364 0.56441 0.0604 0.0
H405 H 0.95874 0.5231 0.02509 0.0
Zn406 Zn 0.08436 0.49834 0.95 0.0
O407 O 0.07104 0.52866 0.97729 0.0
H408 H 0.06133 0.52567 0.99508 0.0
Zn409 Zn 0.07074 0.56361 0.95457 0.0
C410 C 0.0918 0.45348 0.99242 0.0
O411 O 0.07753 0.47111 0.00865 0.0
O412 O 0.93088 0.49801 0.93878 0.0
O413 O 0.93033 0.54419 0.94318 0.0
O414 O 0.11876 0.5065 0.08795 0.0
O415 O 0.11708 0.55084 0.07432 0.0
O416 O 0.9563 0.51787 0.10813 0.0
O417 O 0.95007 0.56235 0.09657 0.0
C418 C 0.01186 0.58943 0.93175 0.0
O419 O 0.10806 0.51374 0.91606 0.0
O420 O 0.09779 0.55885 0.92117 0.0
O421 O 0.06069 0.4569 0.09314 0.0
C422 C 0.91799 0.52147 0.93609 0.0
O423 O 0.98863 0.45232 0.93026 0.0
C424 C 0.03005 0.58908 0.08219 0.0
O425 O 0.96923 0.4612 0.06648 0.0
C426 C 0.13047 0.53047 0.08588 0.0
O427 O 0.09689 0.46006 0.96697 0.0
C428 C 0.9584 0.59095 0.00877 0.0
O429 O 0.98454 0.58586 0.93432 0.0
O430 O 0.02876 0.57258 0.94469 0.0
C431 C 0.94563 0.54194 0.11321 0.0
O432 O 0.05773 0.58751 0.08197 0.0
O433 O 0.01582 0.57194 0.06727 0.0
C434 C 0.08762 0.59467 0.00451 0.0
O435 O 0.95823 0.5943 0.03526 0.0
O436 O 0.96752 0.56804 0.9985 0.0
C437 C 0.11086 0.53903 0.90828 0.0
O438 O 0.08567 0.59504 0.97786 0.0
O439 O 0.08003 0.5726 0.01746 0.0
C440 C 0.03603 0.45744 0.10558 0.0
O441 O 0.02106 0.4809 0.10612 0.0
C442 C 0.00727 0.43471 0.93933 0.0
O443 O 0.01875 0.43824 0.9644 0.0
Zn444 Zn 0.48577 0.47268 0.98436 0.0
Zn445 Zn 0.47388 0.47144 0.04915 0.0
O446 O 0.48162 0.49865 0.01783 0.0
H447 H 0.491 0.51658 0.01904 0.0
C448 C 0.53597 0.4406 0.92075 0.0
O449 O 0.5528 0.45975 0.90976 0.0
Zn450 Zn 0.55644 0.56663 0.05747 0.0
Zn451 Zn 0.55625 0.57033 0.98993 0.0
O452 O 0.54533 0.5446 0.0228 0.0
H453 H 0.54264 0.5247 0.02162 0.0
Zn454 Zn 0.56431 0.45668 0.97582 0.0
O455 O 0.54496 0.46663 0.01245 0.0
Zn456 Zn 0.57297 0.46354 0.04474 0.0
H457 H 0.52414 0.4642 0.01376 0.0
Zn458 Zn 0.47969 0.57217 0.98403 0.0
O459 O 0.49798 0.57649 0.02287 0.0
H460 H 0.51404 0.58915 0.02584 0.0
Zn461 Zn 0.46517 0.57214 0.05034 0.0
C462 C 0.51051 0.61415 0.95419 0.0
O463 O 0.50962 0.62357 0.98013 0.0
O464 O 0.45887 0.43909 0.98855 0.0
O465 O 0.44919 0.43942 0.03446 0.0
O466 O 0.58481 0.60152 0.00091 0.0
O467 O 0.5843 0.59714 0.04735 0.0
O468 O 0.60622 0.44207 0.98368 0.0
O469 O 0.61134 0.44624 0.03038 0.0
C470 C 0.45056 0.51752 0.08117 0.0
O471 O 0.43719 0.58647 0.98638 0.0
O472 O 0.42881 0.58912 0.0325 0.0
O473 O 0.56332 0.55613 0.94902 0.0
C474 C 0.44575 0.42915 0.00988 0.0
O475 O 0.48573 0.48907 0.94436 0.0
C476 C 0.58627 0.51672 0.08137 0.0
O477 O 0.53723 0.43581 0.94704 0.0
C478 C 0.59373 0.60882 0.02514 0.0
O479 O 0.50091 0.58984 0.94937 0.0
C480 C 0.52743 0.44093 0.07818 0.0
O481 O 0.45341 0.49115 0.08065 0.0
O482 O 0.45983 0.53144 0.06021 0.0
C483 C 0.62119 0.43905 0.00618 0.0
O484 O 0.57967 0.54244 0.08308 0.0
O485 O 0.57609 0.50264 0.06089 0.0
C486 C 0.50181 0.59557 0.09398 0.0
O487 O 0.55491 0.4391 0.07448 0.0
O488 O 0.51314 0.45732 0.06227 0.0
C489 C 0.42083 0.59322 0.00706 0.0
O490 O 0.47568 0.59296 0.08527 0.0
O491 O 0.52277 0.5845 0.08003 0.0
C492 C 0.57633 0.53344 0.94279 0.0
O493 O 0.58349 0.51604 0.96299 0.0
C494 C 0.47093 0.51107 0.93984 0.0
O495 O 0.45876 0.52398 0.96129 0.0
Zn496 Zn 0.97379 0.49424 0.46758 0.0
Zn497 Zn 0.96155 0.56022 0.46801 0.0
O498 O 0.99242 0.53119 0.47509 0.0
H499 H 0.00917 0.53369 0.48717 0.0
C500 C 0.94129 0.45077 0.52641 0.0
O501 O 0.94902 0.47051 0.50895 0.0
Zn502 Zn 0.06964 0.56678 0.5492 0.0
Zn503 Zn 0.07056 0.50152 0.55951 0.0
O504 O 0.0449 0.5326 0.54617 0.0
H505 H 0.0283 0.53034 0.53385 0.0
Zn506 Zn 0.9633 0.49051 0.56861 0.0
O507 O 0.96632 0.52342 0.54167 0.0
Zn508 Zn 0.96728 0.55662 0.56705 0.0
H509 H 0.96011 0.52344 0.52228 0.0
Zn510 Zn 0.06866 0.49228 0.455 0.0
O511 O 0.06772 0.52748 0.47885 0.0
H512 H 0.07561 0.52763 0.49767 0.0
Zn513 Zn 0.06626 0.55957 0.45164 0.0
C514 C 0.09372 0.45436 0.49779 0.0
O515 O 0.08044 0.47143 0.51526 0.0
O516 O 0.93139 0.49731 0.45392 0.0
O517 O 0.92434 0.5432 0.4506 0.0
O518 O 0.10964 0.51319 0.5763 0.0
O519 O 0.10831 0.55891 0.56908 0.0
O520 O 0.9414 0.50237 0.60456 0.0
O521 O 0.94654 0.54838 0.60386 0.0
C522 C 0.00696 0.58924 0.43713 0.0
O523 O 0.0857 0.50078 0.4164 0.0
O524 O 0.08715 0.54711 0.41559 0.0
O525 O 0.05383 0.46363 0.5709 0.0
C526 C 0.91537 0.51816 0.44751 0.0
O527 O -0.00183 0.46031 0.45393 0.0
C528 C 0.02056 0.59125 0.57718 0.0
O529 O 0.94647 0.45381 0.55247 0.0
C530 C 0.12116 0.53715 0.57846 0.0
O531 O 0.09092 0.45822 0.47154 0.0
C532 C 0.94095 0.59309 0.52429 0.0
O533 O 0.97958 0.58902 0.44246 0.0
O534 O 0.02313 0.57044 0.44808 0.0
C535 C 0.93644 0.52632 0.61517 0.0
O536 O 0.04717 0.5958 0.5711 0.0
O537 O 0.00903 0.56861 0.56926 0.0
C538 C 0.0914 0.59462 0.49393 0.0
O539 O 0.94494 0.58829 0.55025 0.0
O540 O 0.95208 0.57617 0.50653 0.0
C541 C 0.09327 0.52342 0.40468 0.0
O542 O 0.08954 0.59171 0.46746 0.0
O543 O 0.07644 0.57826 0.50911 0.0
C544 C 0.03729 0.46037 0.59206 0.0
O545 O 0.02853 0.48232 0.6064 0.0
C546 C 0.01408 0.46197 0.43209 0.0
O547 O 0.01624 0.48606 0.41917 0.0
Zn548 Zn 0.46975 0.99673 0.46971 0.0
Zn549 Zn 0.45763 0.06193 0.46552 0.0
O550 O 0.48991 0.03331 0.45942 0.0
H551 H 0.50557 0.03433 0.44578 0.0
C552 C 0.43565 0.96032 0.53926 0.0
O553 O 0.42509 0.98554 0.54333 0.0
Zn554 Zn 0.58107 0.06495 0.56317 0.0
Zn555 Zn 0.59041 0.99831 0.5678 0.0
O556 O 0.5597 0.02846 0.56415 0.0
H557 H 0.53965 0.02483 0.55899 0.0
Zn558 Zn 0.48211 0.9904 0.56213 0.0
O559 O 0.484 0.02545 0.5382 0.0
Zn560 Zn 0.48044 0.05752 0.56506 0.0
H561 H 0.48664 0.02598 0.51807 0.0
Zn562 Zn 0.56384 0.00698 0.46942 0.0
O563 O 0.54843 0.04009 0.49203 0.0
H564 H 0.53708 0.03922 0.50912 0.0
Zn565 Zn 0.55207 0.07348 0.4669 0.0
C566 C 0.60616 0.96791 0.48735 0.0
O567 O 0.62119 0.98875 0.47692 0.0
O568 O 0.42558 1.00018 0.46248 0.0
O569 O 0.42016 0.04487 0.45077 0.0
O570 O 0.62811 0.01415 0.58537 0.0
O571 O 0.62245 0.05989 0.57865 0.0
O572 O 0.46547 0.99863 0.60197 0.0
O573 O 0.46297 0.04492 0.6014 0.0
C574 C 0.49423 0.10369 0.44527 0.0
O575 O 0.58356 0.01785 0.43159 0.0
O576 O 0.57275 0.06307 0.43168 0.0
O577 O 0.57642 0.95892 0.58037 0.0
C578 C 0.41033 0.02005 0.45231 0.0
O579 O 0.48354 0.95909 0.4512 0.0
C580 C 0.53222 0.09156 0.58681 0.0
O581 O 0.46259 0.95585 0.54407 0.0
C582 C 0.63743 0.03907 0.58762 0.0
O583 O 0.57853 0.97034 0.48872 0.0
C584 C 0.4467 0.08901 0.52399 0.0
O585 O 0.46725 0.09775 0.44539 0.0
O586 O 0.51171 0.08653 0.45683 0.0
C587 C 0.45861 0.02173 0.6136 0.0
O588 O 0.5599 0.09323 0.58698 0.0
O589 O 0.52066 0.07226 0.57238 0.0
C590 C 0.58678 0.09922 0.50936 0.0
O591 O 0.45424 0.08725 0.54963 0.0
O592 O 0.45641 0.07054 0.50704 0.0
C593 C 0.58445 0.04183 0.42012 0.0
O594 O 0.57761 0.10231 0.4844 0.0
O595 O 0.57701 0.07913 0.52381 0.0
C596 C 0.5544 0.95691 0.59661 0.0
O597 O 0.54066 0.97974 0.60458 0.0
C598 C 0.50861 0.95107 0.44266 0.0
O599 O 0.53119 0.96751 0.44586 0.0
H600 H 0.18943 0.22151 0.49434 0.0
H601 H 0.21143 0.213 0.58239 0.0
H602 H 0.17748 0.17273 0.58625 0.0
H603 H 0.11329 0.20595 0.50102 0.0
H604 H 0.11177 0.18749 0.46803 0.0
H605 H 0.1378 0.21508 0.47282 0.0
H606 H 0.18031 0.18136 0.45953 0.0
H607 H 0.15436 0.15381 0.45438 0.0
H608 H 0.18449 0.149 0.47836 0.0
H609 H 0.14006 0.13287 0.57919 0.0
H610 H 0.10559 0.09713 0.56159 0.0
H611 H 0.10956 0.13432 0.47862 0.0
C612 C 0.18715 0.21098 0.51436 0.0
C613 C 0.2029 0.21981 0.53802 0.0
C614 C 0.19947 0.20605 0.56405 0.0
C615 C 0.18023 0.18338 0.5664 0.0
C616 C 0.16469 0.17518 0.54252 0.0
C617 C 0.16812 0.18866 0.51702 0.0
C618 C 0.14934 0.17617 0.49435 0.0
C619 C 0.12671 0.19744 0.48343 0.0
C620 C 0.16826 0.16438 0.47025 0.0
C621 C 0.13489 0.1533 0.51086 0.0
C622 C 0.1437 0.15291 0.53862 0.0
C623 C 0.13313 0.13301 0.55744 0.0
C624 C 0.11359 0.11274 0.54731 0.0
C625 C 0.10516 0.11252 0.51867 0.0
C626 C 0.11562 0.13354 0.50062 0.0
H627 H 0.81354 0.17916 0.46043 0.0
H628 H 0.85418 0.24934 0.50238 0.0
H629 H 0.90155 0.22487 0.50122 0.0
H630 H 0.84605 0.1291 0.49912 0.0
H631 H 0.85104 0.10394 0.47128 0.0
H632 H 0.82239 0.12957 0.46879 0.0
H633 H 0.84319 0.1452 0.42075 0.0
H634 H 0.87264 0.12011 0.4236 0.0
H635 H 0.88067 0.15643 0.41826 0.0
H636 H 0.94133 0.19062 0.50428 0.0
H637 H 0.969 0.14778 0.51518 0.0
H638 H 0.90396 0.0985 0.47206 0.0
C639 C 0.83256 0.18961 0.46882 0.0
C640 C 0.8301 0.21635 0.48117 0.0
C641 C 0.8555 0.22921 0.49211 0.0
C642 C 0.88262 0.21546 0.49152 0.0
C643 C 0.88416 0.1889 0.47973 0.0
C644 C 0.85982 0.17606 0.46851 0.0
C645 C 0.86641 0.14594 0.46099 0.0
C646 C 0.84524 0.12598 0.47596 0.0
C647 C 0.86567 0.14169 0.42898 0.0
C648 C 0.89741 0.14316 0.47204 0.0
C649 C 0.9076 0.16856 0.48169 0.0
C650 C 0.93402 0.17082 0.49607 0.0
C651 C 0.94964 0.14641 0.5021 0.0
C652 C 0.93878 0.12013 0.49387 0.0
C653 C 0.91314 0.11853 0.47752 0.0
H654 H 0.83549 0.83824 0.46751 0.0
H655 H 0.81766 0.81358 0.55331 0.0
H656 H 0.85833 0.84304 0.57002 0.0
H657 H 0.91801 0.84528 0.47624 0.0
H658 H 0.91894 0.87514 0.45333 0.0
H659 H 0.89236 0.84812 0.44761 0.0
H660 H 0.85073 0.88501 0.45006 0.0
H661 H 0.87712 0.91198 0.456 0.0
H662 H 0.84762 0.90706 0.48067 0.0
H663 H 0.89655 0.87851 0.57792 0.0
H664 H 0.92842 0.91952 0.57715 0.0
H665 H 0.92082 0.92327 0.48618 0.0
C666 C 0.84105 0.83835 0.48964 0.0
C667 C 0.8242 0.82327 0.5092 0.0
C668 C 0.83097 0.82457 0.53813 0.0
C669 C 0.85397 0.8412 0.54773 0.0
C670 C 0.86996 0.8563 0.52806 0.0
C671 C 0.86397 0.85497 0.49958 0.0
C672 C 0.88251 0.87553 0.48329 0.0
C673 C 0.90424 0.8601 0.46397 0.0
C674 C 0.86334 0.89612 0.46654 0.0
C675 C 0.89838 0.88984 0.50724 0.0
C676 C 0.89147 0.87777 0.53276 0.0
C677 C 0.90243 0.88791 0.55805 0.0
C678 C 0.92054 0.91129 0.55736 0.0
C679 C 0.92711 0.92469 0.53159 0.0
C680 C 0.91627 0.91344 0.50618 0.0
H681 H 0.2004 0.82651 0.4809 0.0
H682 H 0.20374 0.82291 0.5718 0.0
H683 H 0.16957 0.86321 0.5748 0.0
H684 H 0.19688 0.90162 0.47458 0.0
H685 H 0.17173 0.90096 0.44541 0.0
H686 H 0.19689 0.8724 0.45071 0.0
H687 H 0.1534 0.83798 0.45143 0.0
H688 H 0.1281 0.86648 0.44635 0.0
H689 H 0.12386 0.84352 0.47601 0.0
H690 H 0.13473 0.90351 0.56766 0.0
H691 H 0.10252 0.94161 0.55103 0.0
H692 H 0.12126 0.91817 0.46459 0.0
C693 C 0.19414 0.83457 0.50134 0.0
C694 C 0.2048 0.82219 0.52616 0.0
C695 C 0.19591 0.83262 0.55265 0.0
C696 C 0.17649 0.85531 0.55451 0.0
C697 C 0.1661 0.86708 0.52963 0.0
C698 C 0.17462 0.8571 0.50354 0.0
C699 C 0.15991 0.87321 0.48008 0.0
C700 C 0.18271 0.88793 0.46161 0.0
C701 C 0.14015 0.85415 0.46243 0.0
C702 C 0.142 0.89394 0.49701 0.0
C703 C 0.14578 0.89001 0.52555 0.0
C704 C 0.13159 0.90678 0.54535 0.0
C705 C 0.11329 0.92834 0.5357 0.0
C706 C 0.10932 0.9329 0.50652 0.0
C707 C 0.12376 0.91524 0.48703 0.0
H708 H 0.52667 0.18022 0.22753 0.0
H709 H 0.44953 0.22652 0.2016 0.0
H710 H 0.44747 0.19892 0.15769 0.0
H711 H 0.56036 0.17961 0.16322 0.0
H712 H 0.57581 0.14504 0.16576 0.0
H713 H 0.56825 0.16468 0.19717 0.0
H714 H 0.53586 0.12469 0.21595 0.0
H715 H 0.54355 0.10474 0.18462 0.0
H716 H 0.5062 0.11189 0.19469 0.0
H717 H 0.45708 0.17017 0.11462 0.0
H718 H 0.47825 0.14329 0.07514 0.0
H719 H 0.54999 0.11672 0.12885 0.0
C720 C 0.50878 0.18382 0.21302 0.0
C721 C 0.48804 0.20517 0.21796 0.0
C722 C 0.4655 0.21007 0.19814 0.0
C723 C 0.4641 0.19445 0.17326 0.0
C724 C 0.48541 0.17404 0.1686 0.0
C725 C 0.50726 0.16859 0.18799 0.0
C726 C 0.52923 0.14764 0.17669 0.0
C727 C 0.56023 0.16 0.17564 0.0
C728 C 0.52866 0.12064 0.19402 0.0
C729 C 0.51702 0.14305 0.14751 0.0
C730 C 0.49141 0.15799 0.14344 0.0
C731 C 0.47694 0.15812 0.11765 0.0
C732 C 0.48919 0.14286 0.09533 0.0
C733 C 0.51585 0.12803 0.09888 0.0
C734 C 0.52957 0.12782 0.12548 0.0
H735 H 0.82225 0.48354 0.2137 0.0
H736 H 0.79002 0.56818 0.22254 0.0
H737 H 0.83307 0.58558 0.19624 0.0
H738 H 0.90074 0.50077 0.22089 0.0
H739 H 0.91185 0.47483 0.19552 0.0
H740 H 0.87965 0.46943 0.21669 0.0
H741 H 0.84863 0.46258 0.1716 0.0
H742 H 0.88073 0.46773 0.15039 0.0
H743 H 0.84872 0.48921 0.14489 0.0
H744 H 0.8772 0.59298 0.1655 0.0
H745 H 0.91876 0.58985 0.1323 0.0
H746 H 0.92321 0.50042 0.14581 0.0
C747 C 0.82461 0.50573 0.21031 0.0
C748 C 0.80321 0.52468 0.21999 0.0
C749 C 0.80655 0.55355 0.21526 0.0
C750 C 0.83086 0.56354 0.20048 0.0
C751 C 0.85174 0.54435 0.19109 0.0
C752 C 0.84897 0.51607 0.19599 0.0
C753 C 0.87382 0.49974 0.18273 0.0
C754 C 0.89263 0.48535 0.20531 0.0
C755 C 0.86228 0.47859 0.16112 0.0
C756 C 0.89038 0.52312 0.1687 0.0
C757 C 0.87751 0.54873 0.17397 0.0
C758 C 0.88778 0.5731 0.16158 0.0
C759 C 0.91141 0.57113 0.14277 0.0
C760 C 0.9244 0.54495 0.13654 0.0
C761 C 0.91413 0.52084 0.15037 0.0
H762 H 0.53214 0.84167 0.21287 0.0
H763 H 0.60275 0.79418 0.17469 0.0
H764 H 0.60459 0.82789 0.13546 0.0
H765 H 0.49408 0.85351 0.15361 0.0
H766 H 0.48199 0.88852 0.16147 0.0
H767 H 0.49062 0.86495 0.18961 0.0
H768 H 0.52809 0.89996 0.20969 0.0
H769 H 0.51932 0.92394 0.18172 0.0
H770 H 0.55671 0.91309 0.18733 0.0
H771 H 0.59372 0.86198 0.09737 0.0
H772 H 0.5705 0.89312 0.06273 0.0
H773 H 0.50565 0.91788 0.12488 0.0
C774 C 0.5488 0.83911 0.19684 0.0
C775 C 0.56761 0.81563 0.1969 0.0
C776 C 0.58837 0.81222 0.17505 0.0
C777 C 0.58962 0.83131 0.1528 0.0
C778 C 0.57001 0.85372 0.15278 0.0
C779 C 0.55012 0.85785 0.17436 0.0
C780 C 0.52903 0.88143 0.1676 0.0
C781 C 0.49706 0.87148 0.16809 0.0
C782 C 0.53357 0.90607 0.18778 0.0
C783 C 0.5389 0.88866 0.13811 0.0
C784 C 0.56312 0.87301 0.13031 0.0
C785 C 0.57505 0.87465 0.1034 0.0
C786 C 0.56158 0.89234 0.08381 0.0
C787 C 0.53614 0.90789 0.09103 0.0
C788 C 0.52513 0.90639 0.11876 0.0
H789 H 0.24814 0.50115 0.20318 0.0
H790 H 0.2705 0.58861 0.19862 0.0
H791 H 0.24162 0.59321 0.15492 0.0
H792 H 0.24535 0.48848 0.12446 0.0
H793 H 0.21487 0.46516 0.12838 0.0
H794 H 0.24206 0.46755 0.15573 0.0
H795 H 0.2013 0.47892 0.192 0.0
H796 H 0.17409 0.4768 0.16489 0.0
H797 H 0.17703 0.50805 0.18575 0.0
H798 H 0.20366 0.59014 0.11731 0.0
H799 H 0.16082 0.57954 0.08787 0.0
H800 H 0.16342 0.49373 0.11677 0.0
C801 C 0.24776 0.52098 0.19233 0.0
C802 C 0.26173 0.54446 0.2039 0.0
C803 C 0.26043 0.57027 0.18964 0.0
C804 C 0.24401 0.57307 0.1649 0.0
C805 C 0.22952 0.54972 0.15457 0.0
C806 C 0.23163 0.52405 0.16761 0.0
C807 C 0.21164 0.50295 0.15405 0.0
C808 C 0.22955 0.47965 0.13981 0.0
C809 C 0.18972 0.49101 0.17545 0.0
C810 C 0.19658 0.52117 0.13249 0.0
C811 C 0.2076 0.54793 0.13271 0.0
C812 C 0.19534 0.56909 0.11643 0.0
C813 C 0.17093 0.56285 0.09981 0.0
C814 C 0.15882 0.53572 0.09985 0.0
C815 C 0.17238 0.51455 0.11592 0.0
H816 H 0.51445 0.81508 0.82998 0.0
H817 H 0.58914 0.85485 0.7913 0.0
H818 H 0.58974 0.88989 0.82967 0.0
H819 H 0.47792 0.87547 0.84629 0.0
H820 H 0.4627 0.86357 0.87909 0.0
H821 H 0.47162 0.83885 0.85192 0.0
H822 H 0.50504 0.81153 0.88639 0.0
H823 H 0.49593 0.83602 0.91386 0.0
H824 H 0.5337 0.82957 0.90485 0.0
H825 H 0.57881 0.92321 0.87016 0.0
H826 H 0.55618 0.95248 0.90742 0.0
H827 H 0.4871 0.89173 0.91699 0.0
C828 C 0.53165 0.83051 0.83022 0.0
C829 C 0.55215 0.83198 0.80811 0.0
C830 C 0.57354 0.8532 0.80837 0.0
C831 C 0.57403 0.87312 0.83005 0.0
C832 C 0.55287 0.87158 0.85116 0.0
C833 C 0.53211 0.85072 0.85137 0.0
C834 C 0.50974 0.85531 0.87439 0.0
C835 C 0.47868 0.8585 0.86218 0.0
C836 C 0.5112 0.8317 0.89616 0.0
C837 C 0.52057 0.88244 0.88661 0.0
C838 C 0.54581 0.89127 0.87343 0.0
C839 C 0.55919 0.91632 0.88077 0.0
C840 C 0.54622 0.93283 0.90192 0.0
C841 C 0.51988 0.92441 0.91498 0.0
C842 C 0.50721 0.89876 0.90734 0.0
H843 H 0.23972 0.50689 0.79959 0.0
H844 H 0.26501 0.59308 0.81022 0.0
H845 H 0.21938 0.60242 0.83687 0.0
H846 H 0.15889 0.51932 0.79541 0.0
H847 H 0.15075 0.48844 0.81537 0.0
H848 H 0.18292 0.48942 0.79341 0.0
H849 H 0.21528 0.47658 0.83631 0.0
H850 H 0.18324 0.47548 0.85826 0.0
H851 H 0.21332 0.49777 0.86762 0.0
H852 H 0.17311 0.60181 0.86436 0.0
H853 H 0.13228 0.59051 0.89595 0.0
H854 H 0.13825 0.50364 0.87058 0.0
C855 C 0.23523 0.52778 0.80718 0.0
C856 C 0.25547 0.54943 0.80284 0.0
C857 C 0.2495 0.5764 0.81339 0.0
C858 C 0.22362 0.58188 0.8283 0.0
C859 C 0.20411 0.56008 0.83254 0.0
C860 C 0.20965 0.53349 0.8225 0.0
C861 C 0.18659 0.51321 0.83258 0.0
C862 C 0.16873 0.50193 0.80771 0.0
C863 C 0.20044 0.48936 0.84972 0.0
C864 C 0.16807 0.53228 0.8509 0.0
C865 C 0.17802 0.55939 0.84976 0.0
C866 C 0.16502 0.5807 0.86534 0.0
C867 C 0.14178 0.57402 0.88324 0.0
C868 C 0.13215 0.54612 0.88594 0.0
C869 C 0.14511 0.52514 0.86901 0.0
H870 H 0.51369 0.2361 0.85571 0.0
H871 H 0.45384 0.19216 0.80086 0.0
H872 H 0.45459 0.15184 0.83331 0.0
H873 H 0.55773 0.17774 0.87325 0.0
H874 H 0.56365 0.18874 0.90904 0.0
H875 H 0.55683 0.21427 0.88214 0.0
H876 H 0.5133 0.23395 0.91126 0.0
H877 H 0.51978 0.20817 0.93811 0.0
H878 H 0.48426 0.21098 0.92185 0.0
H879 H 0.46221 0.1162 0.87225 0.0
H880 H 0.48123 0.0863 0.91073 0.0
H881 H 0.53665 0.1538 0.93864 0.0
C882 C 0.50051 0.21809 0.85069 0.0
C883 C 0.48353 0.21725 0.82597 0.0
C884 C 0.46708 0.19311 0.81972 0.0
C885 C 0.46715 0.17027 0.83813 0.0
C886 C 0.48384 0.17194 0.86258 0.0
C887 C 0.50049 0.19514 0.86867 0.0
C888 C 0.51788 0.19125 0.89537 0.0
C889 C 0.55098 0.19309 0.88959 0.0
C890 C 0.50822 0.21234 0.91798 0.0
C891 C 0.50892 0.16201 0.90313 0.0
C892 C 0.4888 0.15135 0.88437 0.0
C893 C 0.47785 0.1244 0.88714 0.0
C894 C 0.48852 0.10765 0.90915 0.0
C895 C 0.5102 0.11789 0.92759 0.0
C896 C 0.51994 0.14556 0.92485 0.0
H897 H 0.80032 0.46149 0.82913 0.0
H898 H 0.77416 0.54692 0.81297 0.0
H899 H 0.80996 0.56347 0.84818 0.0
H900 H 0.80884 0.46861 0.90289 0.0
H901 H 0.84055 0.44621 0.9055 0.0
H902 H 0.81431 0.44084 0.87781 0.0
H903 H 0.85514 0.44522 0.84016 0.0
H904 H 0.88157 0.44978 0.86781 0.0
H905 H 0.87836 0.47545 0.84034 0.0
H906 H 0.84655 0.57044 0.88643 0.0
H907 H 0.88631 0.56799 0.92137 0.0
H908 H 0.88804 0.47775 0.9132 0.0
C909 C 0.80267 0.48365 0.83276 0.0
C910 C 0.7849 0.50311 0.81852 0.0
C911 C 0.78793 0.53192 0.82381 0.0
C912 C 0.80798 0.54143 0.84378 0.0
C913 C 0.82463 0.52174 0.85824 0.0
C914 C 0.82254 0.49349 0.85274 0.0
C915 C 0.84286 0.47679 0.87145 0.0
C916 C 0.8256 0.45694 0.89054 0.0
C917 C 0.86585 0.46088 0.85389 0.0
C918 C 0.85662 0.50006 0.88826 0.0
C919 C 0.84567 0.52579 0.88046 0.0
C920 C 0.8554 0.55042 0.8927 0.0
C921 C 0.87787 0.54879 0.91267 0.0
C922 C 0.8904 0.52269 0.91998 0.0
C923 C 0.8789 0.49802 0.90819 0.0
H924 H 0.71477 0.71542 0.97108 0.0
H925 H 0.73972 0.72662 0.05817 0.0
H926 H 0.70303 0.69168 0.07263 0.0
H927 H 0.6397 0.70914 0.98139 0.0
H928 H 0.63391 0.68225 0.95552 0.0
H929 H 0.66385 0.70609 0.95152 0.0
H930 H 0.70058 0.66476 0.9489 0.0
H931 H 0.67065 0.64075 0.95239 0.0
H932 H 0.70098 0.63911 0.97655 0.0
H933 H 0.66078 0.65969 0.07785 0.0
H934 H 0.61887 0.62805 0.07352 0.0
H935 H 0.62212 0.63639 0.98256 0.0
C936 C 0.71296 0.70977 0.99305 0.0
C937 C 0.73012 0.72305 0.01363 0.0
C938 C 0.72698 0.71601 0.04227 0.0
C939 C 0.70615 0.69643 0.0506 0.0
C940 C 0.68899 0.68406 0.02991 0.0
C941 C 0.69251 0.69001 0.00167 0.0
C942 C 0.67079 0.67417 0.98382 0.0
C943 C 0.65089 0.69412 0.96709 0.0
C944 C 0.6867 0.65347 0.96426 0.0
C945 C 0.6539 0.65916 0.00654 0.0
C946 C 0.6648 0.66515 0.03293 0.0
C947 C 0.65229 0.65449 0.05728 0.0
C948 C 0.62837 0.63664 0.05458 0.0
C949 C 0.61726 0.6296 0.02768 0.0
C950 C 0.6301 0.6413 0.00341 0.0
H951 H 0.29436 0.7 0.04855 0.0
H952 H 0.28961 0.72304 0.9606 0.0
H953 H 0.32604 0.68621 0.94896 0.0
H954 H 0.37223 0.68711 0.04909 0.0
H955 H 0.36961 0.65871 0.0737 0.0
H956 H 0.34284 0.68641 0.0744 0.0
H957 H 0.30155 0.64999 0.06882 0.0
H958 H 0.32826 0.62222 0.06757 0.0
H959 H 0.30232 0.62636 0.03932 0.0
H960 H 0.36205 0.64622 0.94721 0.0
H961 H 0.40019 0.6107 0.95584 0.0
H962 H 0.38211 0.61504 0.04548 0.0
C963 C 0.3011 0.69724 0.02687 0.0
C964 C 0.28929 0.71405 0.00537 0.0
C965 C 0.29867 0.71028 0.97727 0.0
C966 C 0.31907 0.68934 0.9705 0.0
C967 C 0.32993 0.67268 0.99217 0.0
C968 C 0.32166 0.67676 0.01985 0.0
C969 C 0.33765 0.65707 0.03939 0.0
C970 C 0.35672 0.67329 0.06037 0.0
C971 C 0.31615 0.63776 0.05467 0.0
C972 C 0.35617 0.64113 0.01841 0.0
C973 C 0.35117 0.65021 0.99126 0.0
C974 C 0.36621 0.63898 0.96839 0.0
C975 C 0.38775 0.61869 0.97353 0.0
C976 C 0.39427 0.6101 0.00139 0.0
C977 C 0.37761 0.62099 0.02395 0.0
H978 H 0.32857 0.31687 0.05721 0.0
H979 H 0.28798 0.32884 0.97578 0.0
H980 H 0.33013 0.3572 0.96051 0.0
H981 H 0.35243 0.38475 0.06477 0.0
H982 H 0.38643 0.37637 0.08212 0.0
H983 H 0.35586 0.35315 0.08502 0.0
H984 H 0.38786 0.31251 0.06579 0.0
H985 H 0.41858 0.33571 0.0629 0.0
H986 H 0.40643 0.31642 0.03259 0.0
H987 H 0.37462 0.38643 0.95523 0.0
H988 H 0.41579 0.41869 0.96164 0.0
H989 H 0.42571 0.39078 0.04791 0.0
C990 C 0.32907 0.32493 0.03595 0.0
C991 C 0.30545 0.32053 0.01744 0.0
C992 C 0.30613 0.33195 0.99006 0.0
C993 C 0.32999 0.34788 0.98121 0.0
C994 C 0.35281 0.35225 1.0001 0.0
C995 C 0.3525 0.34127 0.02696 0.0
C996 C 0.3781 0.35173 0.04415 0.0
C997 C 0.36756 0.36744 0.07056 0.0
C998 C 0.39897 0.32765 0.0518 0.0
C999 C 0.3921 0.37119 0.02315 0.0
C1000 C 0.37771 0.37047 0.9976 0.0
C1001 C 0.38619 0.38704 0.97506 0.0
C1002 C 0.40963 0.40526 0.97892 0.0
C1003 C 0.42382 0.40724 0.00532 0.0
C1004 C 0.41519 0.38967 0.02755 0.0
H1005 H 0.73119 0.31426 0.0378 0.0
H1006 H 0.77456 0.33503 0.95949 0.0
H1007 H 0.7442 0.37753 0.95556 0.0
H1008 H 0.66077 0.33463 0.01849 0.0
H1009 H 0.65055 0.3494 0.05199 0.0
H1010 H 0.67774 0.32216 0.05034 0.0
H1011 H 0.71449 0.35376 0.07662 0.0
H1012 H 0.68734 0.38116 0.07829 0.0
H1013 H 0.72262 0.3878 0.06281 0.0
H1014 H 0.705 0.41367 0.95646 0.0
H1015 H 0.66085 0.44285 0.96366 0.0
H1016 H 0.64446 0.40115 0.04289 0.0
C1017 C 0.73455 0.32805 0.02011 0.0
C1018 C 0.75536 0.3215 0.99904 0.0
C1019 C 0.75908 0.3399 0.97608 0.0
C1020 C 0.7419 0.36405 0.97364 0.0
C1021 C 0.72138 0.36979 0.99456 0.0
C1022 C 0.71785 0.35256 0.01757 0.0
C1023 C 0.69328 0.36302 0.0364 0.0
C1024 C 0.66916 0.34099 0.03946 0.0
C1025 C 0.70515 0.37197 0.06524 0.0
C1026 C 0.68271 0.388 0.01965 0.0
C1027 C 0.69938 0.39161 0.99568 0.0
C1028 C 0.69222 0.41154 0.9755 0.0
C1029 C 0.66712 0.42797 0.97972 0.0
C1030 C 0.64968 0.42457 0.00406 0.0
C1031 C 0.65796 0.40473 0.02453 0.0
H1032 H 0.98471 0.66243 0.72095 0.0
H1033 H 0.99398 0.74063 0.67553 0.0
H1034 H 0.9898 0.71558 0.63114 0.0
H1035 H 0.03426 0.62816 0.67718 0.0
H1036 H 0.01669 0.59472 0.67928 0.0
H1037 H 0.01299 0.61916 0.70774 0.0
H1038 H 0.95649 0.61627 0.70352 0.0
H1039 H 0.96011 0.5921 0.67464 0.0
H1040 H 0.93915 0.62376 0.6703 0.0
H1041 H 0.99259 0.6827 0.5916 0.0
H1042 H 0.00749 0.64374 0.56055 0.0
H1043 H 0.00012 0.58634 0.63025 0.0
C1044 C 0.98569 0.67457 0.70185 0.0
C1045 C 0.98898 0.70394 0.70242 0.0
C1046 C 0.99014 0.71846 0.6764 0.0
C1047 C 0.98797 0.70432 0.65075 0.0
C1048 C 0.98523 0.6755 0.6511 0.0
C1049 C 0.98454 0.66069 0.67596 0.0
C1050 C 0.98671 0.6296 0.67052 0.0
C1051 C 0.01429 0.61719 0.68449 0.0
C1052 C 0.95895 0.61455 0.68033 0.0
C1053 C 0.98926 0.62936 0.63874 0.0
C1054 C 0.98778 0.65609 0.62795 0.0
C1055 C 0.9931 0.66162 0.59963 0.0
C1056 C 0.00144 0.63946 0.58214 0.0
C1057 C 0.00409 0.61223 0.59305 0.0
C1058 C 0.99698 0.60692 0.62137 0.0
H1059 H 0.3379 0.96683 0.71882 0.0
H1060 H 0.33452 0.05021 0.75359 0.0
H1061 H 0.37845 0.06291 0.72594 0.0
H1062 H 0.4194 0.96045 0.71337 0.0
H1063 H 0.41719 0.94208 0.68037 0.0
H1064 H 0.38846 0.93848 0.70609 0.0
H1065 H 0.35021 0.95402 0.66883 0.0
H1066 H 0.37884 0.95774 0.64317 0.0
H1067 H 0.35495 0.98679 0.65097 0.0
H1068 H 0.41771 0.06814 0.6903 0.0
H1069 H 0.45009 0.06589 0.64906 0.0
H1070 H 0.4291 0.9785 0.63787 0.0
C1071 C 0.34716 0.98742 0.72119 0.0
C1072 C 0.33363 0.00749 0.73856 0.0
C1073 C 0.34526 0.03458 0.74066 0.0
C1074 C 0.37008 0.04188 0.7251 0.0
C1075 C 0.38283 0.02174 0.70774 0.0
C1076 C 0.37189 0.99501 0.70578 0.0
C1077 C 0.38785 0.97819 0.68351 0.0
C1078 C 0.4042 0.95333 0.69663 0.0
C1079 C 0.3667 0.96864 0.66025 0.0
C1080 C 0.40897 0.99985 0.67276 0.0
C1081 C 0.40585 0.02474 0.68718 0.0
C1082 C 0.42091 0.04859 0.67932 0.0
C1083 C 0.43931 0.04708 0.65584 0.0
C1084 C 0.44261 0.02188 0.64056 0.0
C1085 C 0.42767 0.99784 0.64957 0.0
H1086 H 0.00136 0.34664 0.70886 0.0
H1087 H 0.04628 0.28668 0.65529 0.0
H1088 H 0.05315 0.32298 0.61935 0.0
H1089 H 0.96403 0.38383 0.65474 0.0
H1090 H 0.96882 0.4177 0.67045 0.0
H1091 H 0.96721 0.38716 0.69237 0.0
H1092 H 0.01752 0.39916 0.71431 0.0
H1093 H 0.01894 0.43006 0.69293 0.0
H1094 H 0.04846 0.40498 0.69156 0.0
H1095 H 0.05365 0.3647 0.5887 0.0
H1096 H 0.05396 0.41137 0.56744 0.0
H1097 H 0.0106 0.44517 0.64151 0.0
C1098 C 0.01302 0.34125 0.68975 0.0
C1099 C 0.02294 0.31374 0.6847 0.0
C1100 C 0.03796 0.30749 0.65934 0.0
C1101 C 0.04199 0.32794 0.63882 0.0
C1102 C 0.03112 0.35459 0.64408 0.0
C1103 C 0.01742 0.36148 0.66907 0.0
C1104 C 0.00859 0.39197 0.66963 0.0
C1105 C 0.97518 0.39535 0.67193 0.0
C1106 C 0.02432 0.40746 0.69352 0.0
C1107 C 0.01958 0.40107 0.64105 0.0
C1108 C 0.03215 0.37905 0.62658 0.0
C1109 C 0.04405 0.38218 0.59986 0.0
C1110 C 0.04406 0.4088 0.58796 0.0
C1111 C 0.03258 0.43198 0.60294 0.0
C1112 C 0.01951 0.42787 0.62953 0.0
H1113 H 0.73593 0.00391 0.71899 0.0
H1114 H 0.74667 0.09296 0.72883 0.0
H1115 H 0.72636 0.10055 0.68123 0.0
H1116 H 0.74899 1.00046 0.6407 0.0
H1117 H 0.72084 0.97473 0.63607 0.0
H1118 H 0.74157 0.9758 0.6683 0.0
H1119 H 0.69344 0.98006 0.69692 0.0
H1120 H 0.67266 0.97887 0.66491 0.0
H1121 H 0.66792 0.00773 0.68883 0.0
H1122 H 0.69926 0.09906 0.636 0.0
H1123 H 0.66376 0.08917 0.5984 0.0
H1124 H 0.66923 1.00094 0.61807 0.0
C1125 C 0.73486 0.02486 0.71059 0.0
C1126 C 0.74325 0.04788 0.7271 0.0
C1127 C 0.74062 0.07514 0.71615 0.0
C1128 C 0.72929 0.07959 0.68915 0.0
C1129 C 0.72062 0.05653 0.67345 0.0
C1130 C 0.72319 0.02967 0.68378 0.0
C1131 C 0.70864 0.00892 0.66434 0.0
C1132 C 0.73137 0.98879 0.65159 0.0
C1133 C 0.68422 0.99298 0.67967 0.0
C1134 C 0.69633 0.02844 0.64221 0.0
C1135 C 0.70416 0.05572 0.64747 0.0
C1136 C 0.69336 0.07775 0.63137 0.0
C1137 C 0.67316 0.07191 0.61001 0.0
C1138 C 0.66364 0.04428 0.60519 0.0
C1139 C 0.67632 0.02224 0.62088 0.0
H1140 H 0.05884 0.37097 0.30064 0.0
H1141 H 0.03046 0.29902 0.34847 0.0
H1142 H 0.02866 0.32782 0.39138 0.0
H1143 H 0.10052 0.4068 0.35775 0.0
H1144 H 0.08756 0.44021 0.3455 0.0
H1145 H 0.09272 0.41205 0.32096 0.0
H1146 H 0.03863 0.4191 0.30499 0.0
H1147 H 0.03367 0.44641 0.33046 0.0
H1148 H 0.00976 0.4167 0.33073 0.0
H1149 H 0.02322 0.36536 0.42735 0.0
H1150 H 0.01195 0.40886 0.45286 0.0
H1151 H 0.04177 0.45686 0.38115 0.0
C1152 C 0.05255 0.36112 0.32017 0.0
C1153 C 0.04491 0.33264 0.3211 0.0
C1154 C 0.037 0.32063 0.34721 0.0
C1155 C 0.03585 0.33685 0.37174 0.0
C1156 C 0.04274 0.36503 0.36985 0.0
C1157 C 0.05092 0.37705 0.34471 0.0
C1158 C 0.05373 0.40833 0.34745 0.0
C1159 C 0.08554 0.41736 0.34266 0.0
C1160 C 0.03269 0.42351 0.32722 0.0
C1161 C 0.04463 0.41222 0.37783 0.0
C1162 C 0.03903 0.38691 0.39055 0.0
C1163 C 0.02797 0.38527 0.41778 0.0
C1164 C 0.02157 0.41013 0.43208 0.0
C1165 C 0.0259 0.43628 0.41898 0.0
C1166 C 0.03849 0.43723 0.39185 0.0
H1167 H 0.70177 0.00578 0.30148 0.0
H1168 H 0.6981 0.09308 0.27852 0.0
H1169 H 0.65691 0.10041 0.31149 0.0
H1170 H 0.6199 0.99806 0.31172 0.0
H1171 H 0.62506 0.97434 0.34067 0.0
H1172 H 0.65131 0.97511 0.31234 0.0
H1173 H 0.69271 0.98383 0.34847 0.0
H1174 H 0.66659 0.98351 0.37676 0.0
H1175 H 0.68999 0.01324 0.37199 0.0
H1176 H 0.62164 0.09969 0.35062 0.0
H1177 H 0.59118 0.09072 0.39208 0.0
H1178 H 0.61629 0.00321 0.38953 0.0
C1179 C 0.69147 0.02614 0.30277 0.0
C1180 C 0.70248 0.04884 0.28729 0.0
C1181 C 0.68928 0.07542 0.2898 0.0
C1182 C 0.66607 0.07975 0.30852 0.0
C1183 C 0.65611 0.05712 0.32405 0.0
C1184 C 0.66794 0.0307 0.32104 0.0
C1185 C 0.65415 0.01039 0.34145 0.0
C1186 C 0.63656 0.98816 0.3256 0.0
C1187 C 0.67724 0.99698 0.36081 0.0
C1188 C 0.634 0.02993 0.35746 0.0
C1189 C 0.63523 0.05666 0.34675 0.0
C1190 C 0.61991 0.07874 0.35881 0.0
C1191 C 0.60268 0.07338 0.38241 0.0
C1192 C 0.60101 0.04616 0.39386 0.0
C1193 C 0.61676 0.02413 0.38103 0.0
H1194 H 0.99537 0.72457 0.34189 0.0
H1195 H 0.08574 0.71159 0.31739 0.0
H1196 H 0.08908 0.67099 0.34974 0.0
H1197 H 0.00151 0.70514 0.41488 0.0
H1198 H 0.96675 0.6876 0.4153 0.0
H1199 H 0.97255 0.71631 0.39167 0.0
H1200 H 0.95806 0.68502 0.34947 0.0
H1201 H 0.95225 0.65628 0.37305 0.0
H1202 H 0.97716 0.65248 0.34386 0.0
H1203 H 0.08152 0.63138 0.38466 0.0
H1204 H 0.0633 0.59501 0.41674 0.0
H1205 H 0.97733 0.63392 0.4161 0.0
C1206 C 0.01593 0.71332 0.3437 0.0
C1207 C 0.04048 0.72113 0.32775 0.0
C1208 C 0.06689 0.70579 0.32984 0.0
C1209 C 0.06892 0.68286 0.3481 0.0
C1210 C 0.04418 0.67557 0.36362 0.0
C1211 C 0.01813 0.69027 0.36136 0.0
C1212 C 0.99419 0.67742 0.37887 0.0
C1213 C 0.98312 0.69784 0.40153 0.0
C1214 C 0.96894 0.66719 0.36019 0.0
C1215 C 0.01086 0.65333 0.39167 0.0
C1216 C 0.03965 0.65257 0.38279 0.0
C1217 C 0.059 0.63182 0.39174 0.0
C1218 C 0.04848 0.61121 0.41002 0.0
C1219 C 0.01892 0.61146 0.41899 0.0
C1220 C 8e-05 0.633 0.40971 0.0
H1221 H 0.32561 0.01197 0.30823 0.0
H1222 H 0.28436 0.93668 0.3382 0.0
H1223 H 0.31014 0.94158 0.38387 0.0
H1224 H 0.39597 0.00353 0.34431 0.0
H1225 H 0.39853 0.04031 0.35155 0.0
H1226 H 0.37932 0.02845 0.3208 0.0
H1227 H 0.33352 0.05629 0.33723 0.0
H1228 H 0.35225 0.06738 0.36856 0.0
H1229 H 0.31794 0.04928 0.37131 0.0
H1230 H 0.33982 0.95575 0.42639 0.0
H1231 H 0.37358 0.97619 0.4613 0.0
H1232 H 0.39113 0.04456 0.4043 0.0
C1233 C 0.32283 0.99608 0.32415 0.0
C1234 C 0.30376 0.97357 0.31976 0.0
C1235 C 0.2995 0.95368 0.34124 0.0
C1236 C 0.3138 0.95648 0.36719 0.0
C1237 C 0.33169 0.97957 0.37128 0.0
C1238 C 0.33638 0.9989 0.35025 0.0
C1239 C 0.35539 0.02256 0.36029 0.0
C1240 C 0.384 0.02376 0.34323 0.0
C1241 C 0.33877 0.05052 0.35928 0.0
C1242 C 0.36087 0.01349 0.39025 0.0
C1243 C 0.3471 0.98862 0.39621 0.0
C1244 C 0.35046 0.97537 0.42206 0.0
C1245 C 0.36942 0.98724 0.44185 0.0
C1246 C 0.38446 0.01223 0.4357 0.0
C1247 C 0.37923 0.02594 0.40996 0.0
H1248 H -0.00137 0.18189 0.29224 0.0
H1249 H 0.083 0.21705 0.31296 0.0
H1250 H 0.08784 0.18391 0.35264 0.0
H1251 H 0.97294 0.17373 0.35979 0.0
H1252 H 0.95478 0.14107 0.3536 0.0
H1253 H 0.95997 0.16505 0.32508 0.0
H1254 H 0.98675 0.1266 0.29641 0.0
H1255 H 0.98154 0.10241 0.3249 0.0
H1256 H 0.01781 0.10878 0.31156 0.0
H1257 H 0.08091 0.14861 0.39315 0.0
H1258 H 0.06221 0.11639 0.42986 0.0
H1259 H 0.98258 0.10576 0.38168 0.0
C1260 C 0.0184 0.1822 0.30478 0.0
C1261 C 0.04048 0.20185 0.29942 0.0
C1262 C 0.06591 0.20193 0.31648 0.0
C1263 C 0.06884 0.18317 0.3391 0.0
C1264 C 0.04632 0.16429 0.34415 0.0
C1265 C 0.02171 0.16359 0.3272 0.0
C1266 C -0.00019 0.14254 0.33769 0.0
C1267 C 0.97015 0.15645 0.34445 0.0
C1268 C 0.99628 0.11867 0.31637 0.0
C1269 C 0.01512 0.13253 0.36402 0.0
C1270 C 0.04223 0.14469 0.36723 0.0
C1271 C 0.05979 0.13885 0.39064 0.0
C1272 C 0.04908 0.12053 0.41138 0.0
C1273 C 0.02089 0.10876 0.40874 0.0
C1274 C 0.00414 0.11459 0.38446 0.0
H1275 H 0.80143 0.07297 0.31857 0.0
H1276 H 0.82086 0.99665 0.27331 0.0
H1277 H 0.85591 0.9828 0.3107 0.0
H1278 H 0.87625 0.08461 0.34555 0.0
H1279 H 0.86278 0.09818 0.37846 0.0
H1280 H 0.84154 0.10269 0.34693 0.0
H1281 H 0.79741 0.07932 0.37152 0.0
H1282 H 0.81872 0.07404 0.40292 0.0
H1283 H 0.80163 0.04479 0.38588 0.0
H1284 H 0.88294 0.9748 0.35575 0.0
H1285 H 0.90969 0.97726 0.40048 0.0
H1286 H 0.87457 0.06037 0.41535 0.0
C1287 C 0.81384 0.05378 0.31621 0.0
C1288 C 0.80893 0.03586 0.29322 0.0
C1289 C 0.82489 0.01068 0.29072 0.0
C1290 C 0.84447 0.00259 0.31194 0.0
C1291 C 0.84776 0.02015 0.33512 0.0
C1292 C 0.83355 0.04558 0.33699 0.0
C1293 C 0.84061 0.06043 0.36421 0.0
C1294 C 0.85624 0.08811 0.35843 0.0
C1295 C 0.81294 0.0649 0.38218 0.0
C1296 C 0.86092 0.03929 0.37754 0.0
C1297 C 0.86425 0.01598 0.36065 0.0
C1298 C 0.88086 0.99309 0.36897 0.0
C1299 C 0.89563 0.99459 0.39465 0.0
C1300 C 0.89416 0.01907 0.41139 0.0
C1301 C 0.87603 0.04143 0.40298 0.0
H1302 H 0.05899 0.83407 0.3214 0.0
H1303 H 0.96852 0.80987 0.3108 0.0
H1304 H 0.9529 0.84796 0.34269 0.0
H1305 H 0.05573 0.85036 0.39256 0.0
H1306 H 0.07901 0.8805 0.39137 0.0
H1307 H 0.08334 0.85323 0.36563 0.0
H1308 H 0.07614 0.88876 0.32526 0.0
H1309 H 0.07252 0.91627 0.35088 0.0
H1310 H 0.04416 0.91099 0.32513 0.0
H1311 H 0.94792 0.8835 0.38041 0.0
H1312 H 0.95219 0.92114 0.4153 0.0
H1313 H 0.04565 0.92559 0.39931 0.0
C1314 C 0.03586 0.83762 0.32502 0.0
C1315 C 0.01476 0.81963 0.31332 0.0
C1316 C 0.98476 0.82402 0.3191 0.0
C1317 C 0.97579 0.84536 0.33737 0.0
C1318 C 0.99714 0.86226 0.34931 0.0
C1319 C 0.02649 0.85923 0.34283 0.0
C1320 C 0.04489 0.88004 0.35903 0.0
C1321 C 0.06704 0.86513 0.37829 0.0
C1322 C 0.06033 0.90022 0.33887 0.0
C1323 C 0.02131 0.89479 0.37602 0.0
C1324 C 0.99403 0.88385 0.37033 0.0
C1325 C 0.96904 0.89267 0.38462 0.0
C1326 C 0.97177 0.91389 0.40462 0.0
C1327 C -0.00077 0.92643 0.40988 0.0
C1328 C 0.02436 0.91656 0.39551 0.0
H1329 H 0.18842 0.9631 0.29273 0.0
H1330 H 0.22437 0.04478 0.27762 0.0
H1331 H 0.18251 0.06645 0.30264 0.0
H1332 H 0.10662 0.98601 0.29154 0.0
H1333 H 0.09871 0.96146 0.31912 0.0
H1334 H 0.12641 0.95342 0.29325 0.0
H1335 H 0.16385 0.9451 0.33336 0.0
H1336 H 0.1366 0.95358 0.35917 0.0
H1337 H 0.17052 0.97255 0.35845 0.0
H1338 H 0.14436 0.07774 0.3387 0.0
H1339 H 0.11176 0.07784 0.38018 0.0
H1340 H 0.09993 0.98865 0.37069 0.0
C1341 C 0.18635 0.98559 0.2933 0.0
C1342 C 0.20886 0.00245 0.28278 0.0
C1343 C 0.20664 0.03176 0.28489 0.0
C1344 C 0.18303 0.04417 0.29914 0.0
C1345 C 0.16172 0.02689 0.31063 0.0
C1346 C 0.16279 0.99821 0.30723 0.0
C1347 C 0.13976 0.98399 0.32484 0.0
C1348 C 0.11649 0.97042 0.30606 0.0
C1349 C 0.15352 0.96258 0.34516 0.0
C1350 C 0.12721 0.00882 0.34038 0.0
C1351 C 0.13958 0.03349 0.3315 0.0
C1352 C 0.13385 0.05868 0.34523 0.0
C1353 C 0.1154 0.05852 0.36886 0.0
C1354 C 0.10325 0.03325 0.37867 0.0
C1355 C 0.10861 0.00837 0.3636 0.0
H1356 H 0.9453 0.84816 0.70478 0.0
H1357 H 0.02982 0.81054 0.7228 0.0
H1358 H 0.05285 0.84099 0.6874 0.0
H1359 H 0.95592 0.85777 0.62987 0.0
H1360 H 0.93758 0.89112 0.62884 0.0
H1361 H 0.92724 0.86567 0.65476 0.0
H1362 H 0.93689 0.90133 0.69471 0.0
H1363 H 0.94654 0.92673 0.66857 0.0
H1364 H 0.97186 0.91843 0.69645 0.0
H1365 H 0.06658 0.87466 0.64971 0.0
H1366 H 0.07151 0.91315 0.61594 0.0
H1367 H 0.97856 0.93131 0.62382 0.0
C1368 C 0.96866 0.84643 0.70123 0.0
C1369 C 0.98581 0.82708 0.71651 0.0
C1370 C 0.01631 0.82537 0.71148 0.0
C1371 C 0.02954 0.84244 0.69128 0.0
C1372 C 0.01202 0.86126 0.67649 0.0
C1373 C 0.9823 0.86367 0.68144 0.0
C1374 C 0.96877 0.88652 0.6635 0.0
C1375 C 0.94604 0.87454 0.64303 0.0
C1376 C 0.95524 0.90962 0.68194 0.0
C1377 C 0.99561 0.89677 0.64793 0.0
C1378 C 0.02018 0.88153 0.65541 0.0
C1379 C 0.04754 0.88684 0.64379 0.0
C1380 C 0.05007 0.90874 0.62452 0.0
C1381 C 0.02546 0.92543 0.61731 0.0
C1382 C 0.9978 0.91903 0.62895 0.0
H1383 H 0.22903 0.96965 0.70883 0.0
H1384 H 0.21974 0.04933 0.75083 0.0
H1385 H 0.18557 0.06524 0.7136 0.0
H1386 H 0.23118 0.99498 0.64089 0.0
H1387 H 0.21039 0.96748 0.62478 0.0
H1388 H 0.23102 0.96068 0.65629 0.0
H1389 H 0.18438 0.94345 0.68185 0.0
H1390 H 0.16386 0.94916 0.65004 0.0
H1391 H 0.15212 0.96531 0.68242 0.0
H1392 H 0.15812 0.07435 0.66879 0.0
H1393 H 0.13037 0.07305 0.62439 0.0
H1394 H 0.15671 0.98676 0.61206 0.0
C1395 C 0.21873 0.98998 0.7107 0.0
C1396 C 0.22624 0.00816 0.73283 0.0
C1397 C 0.21348 0.03501 0.73429 0.0
C1398 C 0.19442 0.04427 0.71311 0.0
C1399 C 0.18849 0.02631 0.69078 0.0
C1400 C 0.1996 0.99944 0.68982 0.0
C1401 C 0.19056 0.98464 0.66307 0.0
C1402 C 0.21739 0.97647 0.64522 0.0
C1403 C 0.17159 0.95914 0.66975 0.0
C1404 C 0.17288 0.00747 0.64903 0.0
C1405 C 0.17231 0.03144 0.66516 0.0
C1406 C 0.15807 0.05558 0.65616 0.0
C1407 C 0.1427 0.05473 0.63069 0.0
C1408 C 0.14134 0.02977 0.61478 0.0
C1409 C 0.15737 0.00613 0.62375 0.0
H1410 H 0.02841 0.19441 0.71381 0.0
H1411 H 0.95118 0.23427 0.67939 0.0
H1412 H 0.94436 0.19459 0.64689 0.0
H1413 H 0.05742 0.17339 0.65277 0.0
H1414 H 0.07166 0.1401 0.66403 0.0
H1415 H 0.06646 0.1676 0.68921 0.0
H1416 H 0.03341 0.13581 0.7194 0.0
H1417 H 0.03886 0.1079 0.69445 0.0
H1418 H 0.00231 0.11912 0.7035 0.0
H1419 H 0.95072 0.15446 0.61288 0.0
H1420 H 0.96998 0.11795 0.58083 0.0
H1421 H 0.04395 0.10526 0.63635 0.0
C1422 C 0.00922 0.19394 0.70048 0.0
C1423 C 0.98981 0.21691 0.6996 0.0
C1424 C 0.96576 0.21642 0.68085 0.0
C1425 C 0.96181 0.19402 0.66225 0.0
C1426 C 0.98206 0.17215 0.66269 0.0
C1427 C 0.00511 0.17176 0.68161 0.0
C1428 C 0.02578 0.14764 0.67555 0.0
C1429 C 0.05716 0.15782 0.67005 0.0
C1430 C 0.02504 0.12635 0.69966 0.0
C1431 C 0.01195 0.1358 0.64918 0.0
C1432 C 0.98626 0.1496 0.64255 0.0
C1433 C 0.97054 0.14317 0.6182 0.0
C1434 C 0.98158 0.12237 0.60007 0.0
C1435 C 0.00838 0.10872 0.60604 0.0
C1436 C 0.02334 0.11531 0.6312 0.0
H1437 H 0.86588 0.97182 0.74387 0.0
H1438 H 0.83326 0.054 0.7662 0.0
H1439 H 0.85585 0.07338 0.72324 0.0
H1440 H 0.93525 0.99653 0.72027 0.0
H1441 H 0.93923 0.9714 0.69243 0.0
H1442 H 0.91881 0.96264 0.72356 0.0
H1443 H 0.87291 0.95083 0.69442 0.0
H1444 H 0.89304 0.958 0.66275 0.0
H1445 H 0.85887 0.97583 0.66949 0.0
H1446 H 0.88218 0.08329 0.67676 0.0
H1447 H 0.91184 0.08308 0.63306 0.0
H1448 H 0.92902 0.99465 0.64439 0.0
C1449 C 0.86333 0.99388 0.73961 0.0
C1450 C 0.84684 0.01116 0.75766 0.0
C1451 C 0.84476 0.04011 0.75199 0.0
C1452 C 0.85772 0.05135 0.72776 0.0
C1453 C 0.87337 0.03349 0.71003 0.0
C1454 C 0.87654 0.00543 0.71598 0.0
C1455 C 0.89578 0.99084 0.6947 0.0
C1456 C 0.92391 0.97968 0.70858 0.0
C1457 C 0.87914 0.96751 0.67943 0.0
C1458 C 0.9023 0.01485 0.67532 0.0
C1459 C 0.88935 0.03936 0.68439 0.0
C1460 C 0.89254 0.06422 0.66956 0.0
C1461 C 0.90943 0.06392 0.64482 0.0
C1462 C 0.92285 0.03889 0.63534 0.0
C1463 C 0.91917 0.0142 0.65099 0.0
H1464 H 0.33023 0.97341 0.17474 0.0
H1465 H 0.28638 0.0539 0.17515 0.0
H1466 H 0.32629 0.07353 0.14642 0.0
H1467 H 0.40398 0.99772 0.17815 0.0
H1468 H 0.41848 0.97215 0.15398 0.0
H1469 H 0.38678 0.96417 0.17496 0.0
H1470 H 0.35738 0.9525 0.12997 0.0
H1471 H 0.38913 0.96006 0.10894 0.0
H1472 H 0.35494 0.97788 0.10217 0.0
H1473 H 0.3721 0.08528 0.12164 0.0
H1474 H 0.41695 0.08707 0.09327 0.0
H1475 H 0.42952 0.9979 0.10433 0.0
C1476 C 0.32904 0.9951 0.16858 0.0
C1477 C 0.30553 0.01236 0.17725 0.0
C1478 C 0.30432 0.04049 0.16861 0.0
C1479 C 0.32694 0.05182 0.15254 0.0
C1480 C 0.35022 0.03452 0.14492 0.0
C1481 C 0.35115 0.00661 0.15197 0.0
C1482 C 0.37806 0.99241 0.13974 0.0
C1483 C 0.398 0.98094 0.16311 0.0
C1484 C 0.36936 0.96936 0.11895 0.0
C1485 C 0.39213 0.01681 0.12485 0.0
C1486 C 0.37595 0.04096 0.12875 0.0
C1487 C 0.38484 0.06649 0.11813 0.0
C1488 C 0.41053 0.0673 0.10226 0.0
C1489 C 0.4267 0.04259 0.09661 0.0
C1490 C 0.41754 0.01707 0.10834 0.0
H1491 H 0.06072 0.32023 0.19481 0.0
H1492 H 0.98006 0.34126 0.23799 0.0
H1493 H 0.96831 0.37591 0.20136 0.0
H1494 H 0.0815 0.38438 0.17905 0.0
H1495 H 0.0958 0.37824 0.14422 0.0
H1496 H 0.09448 0.35018 0.16908 0.0
H1497 H 0.06403 0.32067 0.13427 0.0
H1498 H 0.06562 0.34864 0.10902 0.0
H1499 H 0.03073 0.33494 0.11974 0.0
H1500 H 0.97008 0.41423 0.16629 0.0
H1501 H 0.98456 0.45234 0.13461 0.0
H1502 H 0.06427 0.40718 0.11352 0.0
C1503 C 0.03993 0.33116 0.19565 0.0
C1504 C 0.0211 0.32787 0.21897 0.0
C1505 C 0.99457 0.34328 0.22009 0.0
C1506 C 0.98771 0.36299 0.19935 0.0
C1507 C 0.00742 0.36686 0.17735 0.0
C1508 C 0.03276 0.35101 0.175 0.0
C1509 C 0.05181 0.3616 0.15117 0.0
C1510 C 0.0827 0.36906 0.16153 0.0
C1511 C 0.05312 0.34019 0.12712 0.0
C1512 C 0.03462 0.3873 0.14236 0.0
C1513 C 0.0086 0.38941 0.15707 0.0
C1514 C 0.9901 0.41247 0.1542 0.0
C1515 C -0.00139 0.43414 0.13624 0.0
C1516 C 0.02562 0.43285 0.1216 0.0
C1517 C 0.04341 0.40873 0.12424 0.0
H1518 H 0.72783 0.00335 0.14851 0.0
H1519 H 0.71358 0.08503 0.18533 0.0
H1520 H 0.66369 0.08648 0.16493 0.0
H1521 H 0.69131 0.01756 0.08377 0.0
H1522 H 0.67673 0.98288 0.0807 0.0
H1523 H 0.71055 0.98842 0.09917 0.0
H1524 H 0.68884 0.96428 0.14325 0.0
H1525 H 0.65485 0.95893 0.12495 0.0
H1526 H 0.65503 0.97717 0.15811 0.0
H1527 H 0.61476 0.07843 0.1395 0.0
H1528 H 0.57373 0.06296 0.10925 0.0
H1529 H 0.62206 0.98724 0.08947 0.0
C1530 C 0.71419 0.02154 0.15228 0.0
C1531 C 0.72435 0.04392 0.16863 0.0
C1532 C 0.70605 0.06751 0.17299 0.0
C1533 C 0.67769 0.06849 0.16156 0.0
C1534 C 0.66817 0.0458 0.14574 0.0
C1535 C 0.68606 0.02288 0.14099 0.0
C1536 C 0.67138 0.00159 0.1225 0.0
C1537 C 0.68851 0.99738 0.0949 0.0
C1538 C 0.66728 0.97386 0.13815 0.0
C1539 C 0.64244 0.01605 0.11744 0.0
C1540 C 0.64072 0.04145 0.13105 0.0
C1541 C 0.61599 0.05859 0.1287 0.0
C1542 C 0.59283 0.04971 0.11143 0.0
C1543 C 0.5948 0.02412 0.09665 0.0
C1544 C 0.61973 0.00697 0.10036 0.0
H1545 H 0.04182 0.67804 0.21747 0.0
H1546 H 0.00941 0.74871 0.1702 0.0
H1547 H 0.99392 0.71683 0.13174 0.0
H1548 H 0.07296 0.64208 0.16495 0.0
H1549 H 0.0627 0.60781 0.17671 0.0
H1550 H 0.06587 0.63565 0.20167 0.0
H1551 H 0.01247 0.62723 0.21812 0.0
H1552 H 0.00912 0.59928 0.19295 0.0
H1553 H 0.98321 0.62777 0.19273 0.0
H1554 H 0.99027 0.67732 0.09543 0.0
H1555 H -0.00056 0.63546 0.06582 0.0
H1556 H 0.03257 0.59135 0.13842 0.0
C1557 C 0.03071 0.68665 0.1993 0.0
C1558 C 0.0267 0.71561 0.19658 0.0
C1559 C 0.01233 0.72643 0.17262 0.0
C1560 C 0.00345 0.70846 0.15079 0.0
C1561 C 0.00836 0.6798 0.15382 0.0
C1562 C 0.0212 0.66903 0.17784 0.0
C1563 C 0.02637 0.63799 0.17545 0.0
C1564 C 0.05889 0.63048 0.17993 0.0
C1565 C 0.00662 0.62214 0.19604 0.0
C1566 C 0.01686 0.63318 0.14544 0.0
C1567 C 0.00566 0.65726 0.13342 0.0
C1568 C -0.00182 0.65822 0.10492 0.0
C1569 C 0.00324 0.63435 0.08827 0.0
C1570 C 0.01596 0.61016 0.10019 0.0
C1571 C 0.02195 0.60939 0.12917 0.0
H1572 H 0.30207 0.9758 0.87154 0.0
H1573 H 0.34984 0.92738 0.80944 0.0
H1574 H 0.39629 0.93756 0.83392 0.0
H1575 H 0.35314 0.02905 0.8817 0.0
H1576 H 0.3484 0.03162 0.91924 0.0
H1577 H 0.3188 0.01953 0.8976 0.0
H1578 H 0.31593 0.97375 0.927 0.0
H1579 H 0.34509 0.98657 0.9489 0.0
H1580 H 0.34874 0.95323 0.93189 0.0
H1581 H 0.4379 0.95583 0.86329 0.0
H1582 H 0.47114 0.97975 0.89672 0.0
H1583 H 0.39611 0.0137 0.94102 0.0
C1584 C 0.32233 0.96716 0.86337 0.0
C1585 C 0.32259 0.95082 0.8387 0.0
C1586 C 0.34935 0.93975 0.82851 0.0
C1587 C 0.37578 0.94545 0.84222 0.0
C1588 C 0.37493 0.96169 0.86649 0.0
C1589 C 0.34886 0.97204 0.87726 0.0
C1590 C 0.35404 0.98891 0.9037 0.0
C1591 C 0.34294 0.01906 0.90033 0.0
C1592 C 0.34009 0.97478 0.92938 0.0
C1593 C 0.3871 0.9875 0.90529 0.0
C1594 C 0.39879 0.97146 0.88385 0.0
C1595 C 0.42898 0.96804 0.88046 0.0
C1596 C 0.44767 0.98151 0.89949 0.0
C1597 C 0.4359 0.9979 0.92148 0.0
C1598 C 0.40538 1.00083 0.92448 0.0
H1599 H 0.99577 0.33094 0.80785 0.0
H1600 H 0.07287 0.28861 0.83979 0.0
H1601 H 0.0726 0.31944 0.88162 0.0
H1602 H 0.02028 0.3986 0.82744 0.0
H1603 H 0.98435 0.41197 0.83578 0.0
H1604 H 0.98853 0.38467 0.81005 0.0
H1605 H 0.95262 0.35365 0.83816 0.0
H1606 H 0.94825 0.38102 0.86383 0.0
H1607 H 0.9597 0.3467 0.8748 0.0
H1608 H 0.06459 0.3558 0.91944 0.0
H1609 H 0.05117 0.39648 0.94884 0.0
H1610 H 0.98142 0.41722 0.89039 0.0
C1611 C 0.01208 0.32777 0.82406 0.0
C1612 C 0.0339 0.30698 0.82114 0.0
C1613 C 0.05572 0.30417 0.84203 0.0
C1614 C 0.05573 0.32157 0.8658 0.0
C1615 C 0.03414 0.34213 0.868 0.0
C1616 C 0.01287 0.34551 0.84756 0.0
C1617 C 0.99385 0.37084 0.85368 0.0
C1618 C 0.99694 0.39281 0.83035 0.0
C1619 C 0.9617 0.36254 0.85787 0.0
C1620 C 0.0074 0.38083 0.88094 0.0
C1621 C 0.03051 0.36393 0.88896 0.0
C1622 C 0.04652 0.36918 0.91335 0.0
C1623 C 0.03875 0.39236 0.92991 0.0
C1624 C 0.01534 0.41016 0.92189 0.0
C1625 C -0.00048 0.40414 0.89707 0.0
H1626 H 0.72778 0.01728 0.84968 0.0
H1627 H 0.70706 0.09776 0.81322 0.0
H1628 H 0.66639 0.10358 0.84735 0.0
H1629 H 0.65787 0.99536 0.85627 0.0
H1630 H 0.66298 0.97679 0.88883 0.0
H1631 H 0.69339 0.9815 0.86542 0.0
H1632 H 0.72303 0.00493 0.90538 0.0
H1633 H 0.6927 0.99998 0.92907 0.0
H1634 H 0.70754 0.03431 0.92397 0.0
H1635 H 0.62411 0.09749 0.88214 0.0
H1636 H 0.58419 0.07912 0.91227 0.0
H1637 H 0.63351 0.0027 0.92414 0.0
C1638 C 0.7155 0.03667 0.84956 0.0
C1639 C 0.72086 0.05727 0.82912 0.0
C1640 C 0.70339 0.08178 0.82886 0.0
C1641 C 0.68039 0.08531 0.84825 0.0
C1642 C 0.67526 0.06416 0.86772 0.0
C1643 C 0.69252 0.04037 0.8685 0.0
C1644 C 0.68076 0.01917 0.88892 0.0
C1645 C 0.6733 0.9916 0.87395 0.0
C1646 C 0.70229 0.01433 0.91328 0.0
C1647 C 0.65354 0.03422 0.89879 0.0
C1648 C 0.65087 0.06039 0.88693 0.0
C1649 C 0.62629 0.07722 0.8919 0.0
C1650 C 0.60378 0.06676 0.90908 0.0
C1651 C 0.60604 0.03967 0.92048 0.0
C1652 C 0.63138 0.02354 0.91559 0.0
H1653 H 0.98031 0.71426 0.82826 0.0
H1654 H 0.06033 0.69145 0.78492 0.0
H1655 H 0.07416 0.66055 0.82451 0.0
H1656 H 0.00889 0.70901 0.90248 0.0
H1657 H 0.97521 0.69387 0.91471 0.0
H1658 H 0.97468 0.71842 0.88605 0.0
H1659 H 0.9479 0.68232 0.8549 0.0
H1660 H 0.94839 0.65782 0.88342 0.0
H1661 H 0.96396 0.64824 0.8499 0.0
H1662 H 0.07597 0.62749 0.86572 0.0
H1663 H 0.06378 0.59335 0.90267 0.0
H1664 H 0.98211 0.63683 0.91849 0.0
C1665 C 0.00123 0.70352 0.82771 0.0
C1666 C 0.01959 0.70556 0.80394 0.0
C1667 C 0.04624 0.69037 0.80322 0.0
C1668 C 0.05428 0.67289 0.82563 0.0
C1669 C 0.03534 0.67073 0.84854 0.0
C1670 C 0.00932 0.68567 0.84972 0.0
C1671 C 0.99096 0.67688 0.87468 0.0
C1672 C 0.98723 0.70098 0.89573 0.0
C1673 C 0.96106 0.66564 0.86514 0.0
C1674 C 0.01014 0.65396 0.88671 0.0
C1675 C 0.03597 0.65114 0.87182 0.0
C1676 C 0.05606 0.62991 0.87786 0.0
C1677 C 0.04914 0.61064 0.89907 0.0
C1678 C 0.02228 0.6125 0.9137 0.0
C1679 C 0.00301 0.63496 0.90785 0.0
H1680 H 0.19863 0.32362 0.9894 0.0
H1681 H 0.19276 0.32114 0.08016 0.0
H1682 H 0.15158 0.35512 0.07875 0.0
H1683 H 0.19032 0.39245 0.98145 0.0
H1684 H 0.16837 0.3919 0.94997 0.0
H1685 H 0.19252 0.36323 0.95763 0.0
H1686 H 0.14916 0.32877 0.95481 0.0
H1687 H 0.12477 0.35737 0.94673 0.0
H1688 H 0.11702 0.33483 0.97604 0.0
H1689 H 0.11731 0.39531 0.06749 0.0
H1690 H 0.092 0.43644 0.04754 0.0
H1691 H 0.1202 0.41177 0.96395 0.0
C1692 C 0.18779 0.32945 0.00883 0.0
C1693 C 0.19836 0.31968 0.03485 0.0
C1694 C 0.18441 0.32811 0.06004 0.0
C1695 C 0.16112 0.34741 0.05938 0.0
C1696 C 0.15186 0.35756 0.03333 0.0
C1697 C 0.16442 0.34839 0.00846 0.0
C1698 C 0.15266 0.36436 0.98345 0.0
C1699 C 0.17744 0.37884 0.9672 0.0
C1700 C 0.13485 0.34519 0.96412 0.0
C1701 C 0.133 0.3852 0.99819 0.0
C1702 C 0.13226 0.38064 0.02689 0.0
C1703 C 0.11726 0.39866 0.04499 0.0
C1704 C 0.10299 0.42203 0.03346 0.0
C1705 C 0.10407 0.42731 0.00416 0.0
C1706 C 0.1188 0.40826 0.98639 0.0
H1707 H 0.17001 0.73653 0.99755 0.0
H1708 H 0.20371 0.71844 0.08044 0.0
H1709 H 0.16573 0.68253 0.08688 0.0
H1710 H 0.08938 0.71741 0.01027 0.0
H1711 H 0.08773 0.70153 0.97593 0.0
H1712 H 0.11063 0.73144 0.9817 0.0
H1713 H 0.15502 0.7035 0.96233 0.0
H1714 H 0.1326 0.67341 0.95717 0.0
H1715 H 0.16501 0.67089 0.9786 0.0
H1716 H 0.13327 0.64117 0.07927 0.0
H1717 H 0.10779 0.60052 0.05925 0.0
H1718 H 0.09553 0.64548 0.98115 0.0
C1719 C 0.16794 0.72634 0.01776 0.0
C1720 C 0.18893 0.73078 0.0389 0.0
C1721 C 0.18706 0.71586 0.06445 0.0
C1722 C 0.16569 0.69532 0.06816 0.0
C1723 C 0.14644 0.68999 0.04607 0.0
C1724 C 0.14708 0.70546 0.02148 0.0
C1725 C 0.1281 0.69252 0.99899 0.0
C1726 C 0.10243 0.71188 0.99129 0.0
C1727 C 0.14627 0.68461 0.97276 0.0
C1728 C 0.1176 0.6669 0.01432 0.0
C1729 C 0.12802 0.66584 0.04154 0.0
C1730 C 0.12416 0.64224 0.0583 0.0
C1731 C 0.10961 0.61914 0.04678 0.0
C1732 C 0.09928 0.61975 0.01878 0.0
C1733 C 0.10278 0.64432 0.0028 0.0
H1734 H 0.30584 0.20176 0.0568 0.0
H1735 H 0.26153 0.19196 0.9768 0.0
H1736 H 0.30487 0.16722 0.9577 0.0
H1737 H 0.37807 0.21309 0.02987 0.0
H1738 H 0.3962 0.193 0.05679 0.0
H1739 H 0.36186 0.21014 0.0643 0.0
H1740 H 0.33948 0.16304 0.07975 0.0
H1741 H 0.37389 0.14592 0.07263 0.0
H1742 H 0.34093 0.13371 0.05604 0.0
H1743 H 0.35333 0.14463 0.94699 0.0
H1744 H 0.40128 0.12069 0.94703 0.0
H1745 H 0.41364 0.14441 0.0344 0.0
C1746 C 0.30526 0.19432 0.0353 0.0
C1747 C 0.28047 0.19885 0.01812 0.0
C1748 C 0.28038 0.18863 0.99022 0.0
C1749 C 0.30492 0.17473 0.97917 0.0
C1750 C 0.32926 0.17105 0.99642 0.0
C1751 C 0.32948 0.18014 0.02402 0.0
C1752 C 0.35805 0.17256 0.03837 0.0
C1753 C 0.37451 0.19877 0.04789 0.0
C1754 C 0.35277 0.15262 0.06315 0.0
C1755 C 0.37388 0.15801 0.01444 0.0
C1756 C 0.357 0.15755 0.99038 0.0
C1757 C 0.36677 0.14485 0.96571 0.0
C1758 C 0.39416 0.13145 0.96589 0.0
C1759 C 0.41136 0.13069 0.99067 0.0
C1760 C 0.40123 0.14477 0.01501 0.0
H1761 H 0.89723 0.33095 0.94979 0.0
H1762 H 0.86501 0.29572 0.02779 0.0
H1763 H 0.89195 0.33132 0.05465 0.0
H1764 H 0.97005 0.34895 0.97628 0.0
H1765 H 0.97181 0.38088 0.95652 0.0
H1766 H 0.95136 0.35185 0.94301 0.0
H1767 H 0.9049 0.38277 0.93919 0.0
H1768 H 0.92528 0.41205 0.95211 0.0
H1769 H 0.89212 0.40166 0.96968 0.0
H1770 H 0.92052 0.37168 0.07286 0.0
H1771 H 0.9473 0.41529 0.08128 0.0
H1772 H 0.96109 0.42435 0.99136 0.0
C1773 C 0.89615 0.33063 0.97254 0.0
C1774 C 0.87926 0.31059 0.98676 0.0
C1775 C 0.87803 0.31079 0.0165 0.0
C1776 C 0.89328 0.33089 0.03193 0.0
C1777 C 0.90979 0.35039 0.01728 0.0
C1778 C 0.91138 0.35042 0.98825 0.0
C1779 C 0.92987 0.37427 0.97762 0.0
C1780 C 0.9574 0.36331 0.96246 0.0
C1781 C 0.91196 0.39385 0.95854 0.0
C1782 C 0.93766 0.38814 0.00519 0.0
C1783 C 0.92621 0.37381 0.0278 0.0
C1784 C 0.92978 0.383 0.05535 0.0
C1785 C 0.94504 0.4078 0.0599 0.0
C1786 C 0.9563 0.42324 0.03697 0.0
C1787 C 0.95293 0.41295 0.00933 0.0
H1788 H 0.70655 0.81609 0.03185 0.0
H1789 H 0.75733 0.83825 0.95815 0.0
H1790 H 0.72497 0.8791 0.95055 0.0
H1791 H 0.63892 0.82921 0.00246 0.0
H1792 H 0.62195 0.8428 0.0339 0.0
H1793 H 0.65176 0.81826 0.03656 0.0
H1794 H 0.68071 0.85297 0.06752 0.0
H1795 H 0.65068 0.87742 0.06528 0.0
H1796 H 0.68696 0.88787 0.05496 0.0
H1797 H 0.683 0.91234 0.94667 0.0
H1798 H 0.63713 0.93951 0.94961 0.0
H1799 H 0.61355 0.89553 0.02597 0.0
C1800 C 0.71119 0.82985 0.0144 0.0
C1801 C 0.73428 0.82403 0.99544 0.0
C1802 C 0.73988 0.84254 0.97301 0.0
C1803 C 0.72155 0.86565 0.96848 0.0
C1804 C 0.69802 0.86991 0.98674 0.0
C1805 C 0.69307 0.8528 0.00954 0.0
C1806 C 0.665 0.86053 0.0247 0.0
C1807 C 0.64313 0.83625 0.02437 0.0
C1808 C 0.67123 0.87029 0.0549 0.0
C1809 C 0.65454 0.88429 0.00644 0.0
C1810 C 0.67389 0.88935 0.98467 0.0
C1811 C 0.66791 0.90888 0.96385 0.0
C1812 C 0.64164 0.92393 0.96552 0.0
C1813 C 0.62181 0.91944 0.98797 0.0
C1814 C 0.62843 0.89943 0.0087 0.0
H1815 H 0.83273 0.69463 0.00232 0.0
H1816 H 0.89785 0.75901 0.99398 0.0
H1817 H 0.93443 0.7235 0.97885 0.0
H1818 H 0.87335 0.64704 0.03324 0.0
H1819 H 0.85876 0.61678 0.0158 0.0
H1820 H 0.83691 0.64775 0.01867 0.0
H1821 H 0.83043 0.64844 0.96454 0.0
H1822 H 0.85272 0.6174 0.96146 0.0
H1823 H 0.86222 0.64828 0.94207 0.0
H1824 H 0.96553 0.68057 0.9762 0.0
H1825 H 0.98802 0.635 0.98784 0.0
H1826 H 0.90221 0.59851 0.99492 0.0
C1827 C 0.85442 0.70124 0.99618 0.0
C1828 C 0.8627 0.72926 0.99889 0.0
C1829 C 0.89125 0.73751 0.99149 0.0
C1830 C 0.912 0.71752 0.98278 0.0
C1831 C 0.90341 0.68967 0.98094 0.0
C1832 C 0.87505 0.68166 0.987 0.0
C1833 C 0.87207 0.65031 0.98717 0.0
C1834 C 0.85959 0.6399 0.01539 0.0
C1835 C 0.85325 0.64054 0.96233 0.0
C1836 C 0.90371 0.64179 0.98314 0.0
C1837 C 0.92139 0.66472 0.97854 0.0
C1838 C 0.95187 0.6624 0.97867 0.0
C1839 C 0.96451 0.63646 0.98514 0.0
C1840 C 0.94664 0.61337 0.99128 0.0
C1841 C 0.91608 0.61574 0.98897 0.0
H1842 H 0.28196 0.84823 0.98238 0.0
H1843 H 0.24596 0.87216 0.06334 0.0
H1844 H 0.28261 0.90979 0.06696 0.0
H1845 H 0.35392 0.85478 0.00072 0.0
H1846 H 0.36646 0.86791 0.96737 0.0
H1847 H 0.3345 0.84635 0.96887 0.0
H1848 H 0.30321 0.88496 0.94433 0.0
H1849 H 0.33597 0.90538 0.9417 0.0
H1850 H 0.30373 0.91994 0.95821 0.0
H1851 H 0.32812 0.93899 0.06529 0.0
H1852 H 0.37719 0.95901 0.05731 0.0
H1853 H 0.3824 0.91702 0.97676 0.0
C1854 C 0.28122 0.86187 0.00053 0.0
C1855 C 0.2611 0.85739 0.02262 0.0
C1856 C 0.26107 0.87547 0.04612 0.0
C1857 C 0.28179 0.89684 0.04833 0.0
C1858 C 0.30206 0.90007 0.02661 0.0
C1859 C 0.30164 0.88329 0.00297 0.0
C1860 C 0.32736 0.88918 0.98382 0.0
C1861 C 0.34669 0.86301 0.98 0.0
C1862 C 0.31692 0.90058 0.95534 0.0
C1863 C 0.3429 0.9113 0.00076 0.0
C1864 C 0.32791 0.9174 0.02534 0.0
C1865 C 0.33966 0.93488 0.04581 0.0
C1866 C 0.36756 0.94602 0.04123 0.0
C1867 C 0.38336 0.93973 0.01638 0.0
C1868 C 0.37048 0.92273 0.99563 0.0
H1869 H 0.73975 0.21774 0.04048 0.0
H1870 H 0.76824 0.21172 0.95374 0.0
H1871 H 0.73936 0.16882 0.94767 0.0
H1872 H 0.73938 0.14008 0.05275 0.0
H1873 H 0.70773 0.14223 0.07531 0.0
H1874 H 0.73323 0.17071 0.07397 0.0
H1875 H 0.69103 0.20479 0.06116 0.0
H1876 H 0.6655 0.17653 0.06277 0.0
H1877 H 0.66813 0.19721 0.03127 0.0
H1878 H 0.70334 0.13046 0.94922 0.0
H1879 H 0.66143 0.09964 0.958 0.0
H1880 H 0.65769 0.1287 0.0445 0.0
C1881 C 0.74017 0.207 0.02044 0.0
C1882 C 0.75621 0.21769 0.99757 0.0
C1883 C 0.75625 0.20347 0.97151 0.0
C1884 C 0.74005 0.17911 0.96792 0.0
C1885 C 0.7244 0.16896 0.9908 0.0
C1886 C 0.72451 0.18226 0.01665 0.0
C1887 C 0.70449 0.16771 0.03727 0.0
C1888 C 0.72227 0.15439 0.06125 0.0
C1889 C 0.68089 0.18776 0.04876 0.0
C1890 C 0.69153 0.14557 0.01833 0.0
C1891 C 0.70386 0.14623 0.99182 0.0
C1892 C 0.69386 0.12934 0.97004 0.0
C1893 C 0.66998 0.11192 0.97523 0.0
C1894 C 0.65625 0.1117 0.00194 0.0
C1895 C 0.6679 0.12809 0.02395 0.0
H1896 H 0.54558 0.66649 0.79691 0.0
H1897 H 0.51341 0.74725 0.82466 0.0
H1898 H 0.50637 0.7288 0.87235 0.0
H1899 H 0.48818 0.62959 0.83884 0.0
H1900 H 0.51142 0.59977 0.84516 0.0
H1901 H 0.5155 0.61964 0.81329 0.0
H1902 H 0.57034 0.62655 0.82487 0.0
H1903 H 0.56618 0.60731 0.85709 0.0
H1904 H 0.58052 0.64219 0.85793 0.0
H1905 H 0.50884 0.70374 0.91768 0.0
H1906 H 0.50621 0.67032 0.95659 0.0
H1907 H 0.52695 0.6026 0.899 0.0
C1908 C 0.53688 0.68015 0.81308 0.0
C1909 C 0.53139 0.70869 0.80748 0.0
C1910 C 0.51901 0.72573 0.82871 0.0
C1911 C 0.51478 0.71538 0.85588 0.0
C1912 C 0.52146 0.6875 0.86105 0.0
C1913 C 0.53081 0.66969 0.84002 0.0
C1914 C 0.53318 0.63993 0.85087 0.0
C1915 C 0.51074 0.62112 0.83617 0.0
C1916 C 0.56443 0.62834 0.84748 0.0
C1917 C 0.52531 0.64427 0.88165 0.0
C1918 C 0.51913 0.67202 0.88692 0.0
C1919 C 0.51287 0.68182 0.91378 0.0
C1920 C 0.51168 0.66264 0.9358 0.0
C1921 C 0.51603 0.6338 0.93084 0.0
C1922 C 0.52326 0.6245 0.90337 0.0
H1923 H 0.35502 0.5705 0.83375 0.0
H1924 H 0.38066 0.50263 0.77833 0.0
H1925 H 0.42448 0.49416 0.8072 0.0
H1926 H 0.43193 0.59295 0.85302 0.0
H1927 H 0.42107 0.60013 0.88876 0.0
H1928 H 0.39528 0.60504 0.86047 0.0
H1929 H 0.35874 0.57209 0.88546 0.0
H1930 H 0.38434 0.56733 0.91368 0.0
H1931 H 0.37056 0.53744 0.895 0.0
H1932 H 0.46084 0.48804 0.84543 0.0
H1933 H 0.48492 0.483 0.89144 0.0
H1934 H 0.43546 0.55406 0.923 0.0
C1935 C 0.37019 0.55424 0.82737 0.0
C1936 C 0.36451 0.53745 0.80358 0.0
C1937 C 0.38483 0.51625 0.79604 0.0
C1938 C 0.40983 0.51124 0.81233 0.0
C1939 C 0.41444 0.52777 0.83599 0.0
C1940 C 0.39526 0.54895 0.84344 0.0
C1941 C 0.40331 0.56141 0.87166 0.0
C1942 C 0.4135 0.59168 0.86826 0.0
C1943 C 0.37773 0.55941 0.89268 0.0
C1944 C 0.42861 0.54255 0.8798 0.0
C1945 C 0.43532 0.52391 0.85853 0.0
C1946 C 0.45618 0.50287 0.86204 0.0
C1947 C 0.46975 0.50016 0.8883 0.0
C1948 C 0.46198 0.51809 0.91085 0.0
C1949 C 0.44202 0.5402 0.90611 0.0
H1950 H 0.50861 0.33911 0.79319 0.0
H1951 H 0.43567 0.30647 0.84087 0.0
H1952 H 0.43817 0.34655 0.87314 0.0
H1953 H 0.55022 0.35922 0.84582 0.0
H1954 H 0.56339 0.39179 0.83203 0.0
H1955 H 0.55162 0.36495 0.80837 0.0
H1956 H 0.51445 0.39893 0.78543 0.0
H1957 H 0.5265 0.42617 0.80881 0.0
H1958 H 0.4883 0.41722 0.80718 0.0
H1959 H 0.45627 0.38211 0.90638 0.0
H1960 H 0.48521 0.41459 0.93532 0.0
H1961 H 0.54459 0.4272 0.86539 0.0
C1962 C 0.49225 0.34126 0.80955 0.0
C1963 C 0.47199 0.31972 0.81461 0.0
C1964 C 0.4514 0.32275 0.83671 0.0
C1965 C 0.45259 0.34549 0.8551 0.0
C1966 C 0.47403 0.3655 0.85074 0.0
C1967 C 0.49295 0.36417 0.82801 0.0
C1968 C 0.51573 0.38701 0.82983 0.0
C1969 C 0.54707 0.37499 0.82898 0.0
C1970 C 0.51096 0.40861 0.80642 0.0
C1971 C 0.50844 0.39939 0.85838 0.0
C1972 C 0.48388 0.3871 0.86979 0.0
C1973 C 0.47495 0.39256 0.89733 0.0
C1974 C 0.49166 0.41083 0.91371 0.0
C1975 C 0.51697 0.42352 0.9025 0.0
C1976 C 0.52497 0.41823 0.87426 0.0
H1977 H 0.678 0.46036 0.82997 0.0
H1978 H 0.67515 0.53772 0.78353 0.0
H1979 H 0.63415 0.55432 0.81335 0.0
H1980 H 0.59435 0.45864 0.84656 0.0
H1981 H 0.60239 0.44317 0.88021 0.0
H1982 H 0.62521 0.43534 0.85026 0.0
H1983 H 0.67027 0.4511 0.87947 0.0
H1984 H 0.64721 0.46005 0.90871 0.0
H1985 H 0.67095 0.48596 0.8937 0.0
H1986 H 0.60046 0.56559 0.8532 0.0
H1987 H 0.57622 0.57075 0.89927 0.0
H1988 H 0.60274 0.48652 0.92114 0.0
C1989 C 0.66751 0.4801 0.8252 0.0
C1990 C 0.67888 0.4975 0.80405 0.0
C1991 C 0.66587 0.52381 0.79903 0.0
C1992 C 0.64271 0.5334 0.81596 0.0
C1993 C 0.63265 0.51619 0.83749 0.0
C1994 C 0.64427 0.48982 0.8418 0.0
C1995 C 0.63207 0.4768 0.86832 0.0
C1996 C 0.61232 0.45203 0.8609 0.0
C1997 C 0.65659 0.468 0.88874 0.0
C1998 C 0.61412 0.50095 0.87971 0.0
C1999 C 0.61377 0.52304 0.86108 0.0
C2000 C 0.59997 0.54821 0.86764 0.0
C2001 C 0.58633 0.55095 0.89395 0.0
C2002 C 0.58724 0.52889 0.91375 0.0
C2003 C 0.60114 0.50354 0.90629 0.0
H2004 H 0.53701 0.31129 0.17692 0.0
H2005 H 0.48386 0.3552 0.23825 0.0
H2006 H 0.47376 0.39243 0.20303 0.0
H2007 H 0.5711 0.3677 0.14759 0.0
H2008 H 0.57086 0.35428 0.11217 0.0
H2009 H 0.57058 0.33063 0.14138 0.0
H2010 H 0.52325 0.30793 0.12193 0.0
H2011 H 0.5233 0.33182 0.09271 0.0
H2012 H 0.49156 0.32945 0.11508 0.0
H2013 H 0.47421 0.42726 0.16088 0.0
H2014 H 0.48696 0.45545 0.11879 0.0
H2015 H 0.53885 0.38669 0.0866 0.0
C2016 C 0.52293 0.32859 0.18286 0.0
C2017 C 0.51129 0.33054 0.21019 0.0
C2018 C 0.49291 0.35337 0.21728 0.0
C2019 C 0.48702 0.3745 0.19737 0.0
C2020 C 0.4992 0.37201 0.17045 0.0
C2021 C 0.51657 0.34936 0.16329 0.0
C2022 C 0.52852 0.35173 0.13383 0.0
C2023 C 0.56225 0.35107 0.13377 0.0
C2024 C 0.5159 0.32887 0.11477 0.0
C2025 C 0.51667 0.38002 0.12583 0.0
C2026 C 0.4992 0.39136 0.14677 0.0
C2027 C 0.48744 0.41826 0.14426 0.0
C2028 C 0.49457 0.43408 0.12022 0.0
C2029 C 0.51358 0.42299 0.09945 0.0
C2030 C 0.52396 0.39545 0.10206 0.0
H2031 H 0.69328 0.53456 0.21003 0.0
H2032 H 0.70688 0.44535 0.21268 0.0
H2033 H 0.66949 0.43929 0.17505 0.0
H2034 H 0.61498 0.53616 0.19405 0.0
H2035 H 0.61926 0.56533 0.1706 0.0
H2036 H 0.64362 0.56114 0.20003 0.0
H2037 H 0.68798 0.56275 0.16588 0.0
H2038 H 0.66369 0.56636 0.13635 0.0
H2039 H 0.69003 0.53824 0.13718 0.0
H2040 H 0.63343 0.44487 0.13244 0.0
H2041 H 0.60199 0.46125 0.09296 0.0
H2042 H 0.61502 0.54654 0.12034 0.0
C2043 C 0.68757 0.51369 0.20334 0.0
C2044 C 0.70214 0.49036 0.2145 0.0
C2045 C 0.69524 0.46337 0.20463 0.0
C2046 C 0.67423 0.45983 0.18321 0.0
C2047 C 0.66076 0.48355 0.17191 0.0
C2048 C 0.66718 0.50993 0.18195 0.0
C2049 C 0.65224 0.5324 0.1651 0.0
C2050 C 0.63127 0.54976 0.18355 0.0
C2051 C 0.67483 0.55102 0.15026 0.0
C2052 C 0.63588 0.51475 0.14426 0.0
C2053 C 0.64096 0.48662 0.14804 0.0
C2054 C 0.62897 0.46687 0.12971 0.0
C2055 C 0.61111 0.47629 0.10734 0.0
C2056 C 0.60532 0.50511 0.10381 0.0
C2057 C 0.61825 0.52427 0.12256 0.0
H2058 H 0.57793 0.71349 0.18604 0.0
H2059 H 0.49958 0.71413 0.23766 0.0
H2060 H 0.48192 0.67234 0.21273 0.0
H2061 H 0.54461 0.69696 0.12322 0.0
H2062 H 0.57323 0.67439 0.11008 0.0
H2063 H 0.58187 0.70162 0.13466 0.0
H2064 H 0.60534 0.66538 0.16822 0.0
H2065 H 0.5969 0.638 0.14358 0.0
H2066 H 0.58435 0.63574 0.17944 0.0
H2067 H 0.46948 0.63519 0.17803 0.0
H2068 H 0.46405 0.60369 0.13744 0.0
H2069 H 0.55079 0.62591 0.10828 0.0
C2070 C 0.55734 0.70446 0.1925 0.0
C2071 C 0.5402 0.71703 0.21396 0.0
C2072 C 0.51334 0.70465 0.22169 0.0
C2073 C 0.50307 0.68096 0.20753 0.0
C2074 C 0.52008 0.66963 0.18593 0.0
C2075 C 0.54686 0.6807 0.17868 0.0
C2076 C 0.55995 0.66563 0.15347 0.0
C2077 C 0.5652 0.68586 0.12891 0.0
C2078 C 0.58831 0.65027 0.16167 0.0
C2079 C 0.5357 0.64521 0.14682 0.0
C2080 C 0.51307 0.64771 0.16605 0.0
C2081 C 0.48728 0.63268 0.16319 0.0
C2082 C 0.48436 0.61491 0.13997 0.0
C2083 C 0.50709 0.61215 0.11982 0.0
C2084 C 0.53332 0.62715 0.12365 0.0
H2085 H 0.39831 0.51459 0.23999 0.0
H2086 H 0.35787 0.59563 0.22808 0.0
H2087 H 0.37739 0.59718 0.17937 0.0
H2088 H 0.46444 0.52769 0.19981 0.0
H2089 H 0.4658 0.4928 0.18574 0.0
H2090 H 0.44968 0.4991 0.21975 0.0
H2091 H 0.40165 0.47567 0.20317 0.0
H2092 H 0.41771 0.46934 0.16918 0.0
H2093 H 0.38364 0.48833 0.17194 0.0
H2094 H 0.39964 0.58783 0.13032 0.0
H2095 H 0.4227 0.56879 0.08696 0.0
H2096 H 0.44911 0.49495 0.13314 0.0
C2097 C 0.39381 0.53278 0.2272 0.0
C2098 C 0.37639 0.55484 0.23755 0.0
C2099 C 0.37094 0.57835 0.22031 0.0
C2100 C 0.382 0.57943 0.1927 0.0
C2101 C 0.39871 0.55696 0.18288 0.0
C2102 C 0.40467 0.53416 0.19978 0.0
C2103 C 0.42233 0.51228 0.1843 0.0
C2104 C 0.45235 0.50772 0.19823 0.0
C2105 C 0.40531 0.4848 0.18201 0.0
C2106 C 0.42534 0.52618 0.156 0.0
C2107 C 0.41167 0.55193 0.15537 0.0
C2108 C 0.41075 0.56785 0.13077 0.0
C2109 C 0.42409 0.55702 0.1063 0.0
C2110 C 0.43813 0.53064 0.10676 0.0
C2111 C 0.43875 0.5153 0.13206 0.0
H2112 H 0.79695 0.46854 0.6948 0.0
H2113 H 0.76267 0.55299 0.69184 0.0
H2114 H 0.81033 0.56963 0.67414 0.0
H2115 H 0.8717 0.48552 0.71511 0.0
H2116 H 0.88804 0.45933 0.69274 0.0
H2117 H 0.852 0.45406 0.70716 0.0
H2118 H 0.83104 0.44674 0.65706 0.0
H2119 H 0.86708 0.4514 0.64265 0.0
H2120 H 0.83714 0.47291 0.63057 0.0
H2121 H 0.86137 0.57717 0.65699 0.0
H2122 H 0.90895 0.57413 0.63284 0.0
H2123 H 0.90958 0.48435 0.64462 0.0
C2124 C 0.79959 0.49054 0.69053 0.0
C2125 C 0.77634 0.50963 0.69494 0.0
C2126 C 0.78034 0.53813 0.68867 0.0
C2127 C 0.80737 0.54779 0.67888 0.0
C2128 C 0.83008 0.52859 0.67527 0.0
C2129 C 0.82634 0.50048 0.68035 0.0
C2130 C 0.85356 0.48397 0.67245 0.0
C2131 C 0.86712 0.46989 0.69842 0.0
C2132 C 0.8468 0.4625 0.6493 0.0
C2133 C 0.87292 0.50715 0.66165 0.0
C2134 C 0.85922 0.53278 0.66416 0.0
C2135 C 0.87236 0.55722 0.65491 0.0
C2136 C 0.89956 0.55528 0.64138 0.0
C2137 C 0.91305 0.52898 0.63666 0.0
C2138 C 0.89999 0.50479 0.648 0.0
H2139 H 0.50814 0.86162 0.72338 0.0
H2140 H 0.55367 0.79358 0.68178 0.0
H2141 H 0.55629 0.82154 0.63819 0.0
H2142 H 0.46829 0.88951 0.65919 0.0
H2143 H 0.47331 0.92492 0.67082 0.0
H2144 H 0.46903 0.89742 0.69624 0.0
H2145 H 0.51786 0.91162 0.71972 0.0
H2146 H 0.52241 0.93894 0.69438 0.0
H2147 H 0.55072 0.91295 0.69875 0.0
H2148 H 0.56309 0.86004 0.60308 0.0
H2149 H 0.57119 0.90479 0.57871 0.0
H2150 H 0.52066 0.94762 0.64306 0.0
C2151 C 0.5179 0.85232 0.70482 0.0
C2152 C 0.53078 0.82548 0.70591 0.0
C2153 C 0.54341 0.81399 0.68128 0.0
C2154 C 0.54502 0.82975 0.65646 0.0
C2155 C 0.53344 0.85676 0.65653 0.0
C2156 C 0.51961 0.86775 0.67997 0.0
C2157 C 0.51203 0.89826 0.67589 0.0
C2158 C 0.47868 0.90278 0.6755 0.0
C2159 C 0.52664 0.9165 0.69851 0.0
C2160 C 0.52523 0.90318 0.64715 0.0
C2161 C 0.53707 0.87892 0.63609 0.0
C2162 C 0.55327 0.879 0.61121 0.0
C2163 C 0.55791 0.90454 0.59759 0.0
C2164 C 0.54644 0.92966 0.60892 0.0
C2165 C 0.52926 0.92872 0.63359 0.0
H2166 H 0.25247 0.48135 0.67221 0.0
H2167 H 0.28021 0.56699 0.68257 0.0
H2168 H 0.24163 0.58245 0.64956 0.0
H2169 H 0.23369 0.48683 0.59701 0.0
H2170 H 0.2028 0.46395 0.60061 0.0
H2171 H 0.23417 0.45969 0.62317 0.0
H2172 H 0.20053 0.46406 0.66696 0.0
H2173 H 0.16916 0.4685 0.64455 0.0
H2174 H 0.17734 0.49439 0.67083 0.0
H2175 H 0.19723 0.58869 0.61829 0.0
H2176 H 0.15165 0.58496 0.59055 0.0
H2177 H 0.15425 0.495 0.60053 0.0
C2178 C 0.25073 0.50329 0.66707 0.0
C2179 C 0.26931 0.52294 0.67967 0.0
C2180 C 0.26633 0.55154 0.67284 0.0
C2181 C 0.24446 0.56052 0.65417 0.0
C2182 C 0.22612 0.54058 0.64238 0.0
C2183 C 0.22926 0.51253 0.64837 0.0
C2184 C 0.20613 0.49538 0.63387 0.0
C2185 C 0.22004 0.47528 0.61239 0.0
C2186 C 0.18717 0.47967 0.65534 0.0
C2187 C 0.18896 0.51822 0.61942 0.0
C2188 C 0.20087 0.54415 0.62435 0.0
C2189 C 0.18792 0.56845 0.614 0.0
C2190 C 0.16204 0.56612 0.5983 0.0
C2191 C 0.14941 0.53969 0.59329 0.0
C2192 C 0.16336 0.51552 0.60381 0.0
H2193 H 0.51682 0.23617 0.66193 0.0
H2194 H 0.47458 0.19278 0.73038 0.0
H2195 H 0.46938 0.15103 0.70048 0.0
H2196 H 0.47117 0.2007 0.60461 0.0
H2197 H 0.50159 0.19983 0.58045 0.0
H2198 H 0.49768 0.22827 0.60507 0.0
H2199 H 0.54942 0.21894 0.62487 0.0
H2200 H 0.55426 0.19106 0.60007 0.0
H2201 H 0.55889 0.18448 0.63713 0.0
H2202 H 0.47737 0.11173 0.66653 0.0
H2203 H 0.49724 0.07881 0.631 0.0
H2204 H 0.53197 0.14782 0.58357 0.0
C2205 C 0.50541 0.21821 0.67009 0.0
C2206 C 0.49565 0.21771 0.69819 0.0
C2207 C 0.48168 0.19369 0.70871 0.0
C2208 C 0.47859 0.16988 0.69183 0.0
C2209 C 0.48902 0.1707 0.66429 0.0
C2210 C 0.50164 0.19446 0.65327 0.0
C2211 C 0.51314 0.18921 0.62383 0.0
C2212 C 0.49482 0.20546 0.60219 0.0
C2213 C 0.54586 0.19632 0.62137 0.0
C2214 C 0.50784 0.15818 0.62121 0.0
C2215 C 0.49295 0.14804 0.64433 0.0
C2216 C 0.48803 0.11956 0.64785 0.0
C2217 C 0.49909 0.10099 0.62751 0.0
C2218 C 0.51499 0.11099 0.60422 0.0
C2219 C 0.51899 0.1399 0.60083 0.0
H2220 H 0.78229 0.53808 0.3412 0.0
H2221 H 0.75368 0.45555 0.36562 0.0
H2222 H 0.79156 0.45441 0.40274 0.0
H2223 H 0.85679 0.52498 0.34756 0.0
H2224 H 0.86625 0.55888 0.36099 0.0
H2225 H 0.83454 0.55496 0.33898 0.0
H2226 H 0.80195 0.57745 0.37758 0.0
H2227 H 0.83368 0.58164 0.39964 0.0
H2228 H 0.80225 0.56315 0.41261 0.0
H2229 H 0.83568 0.45987 0.43305 0.0
H2230 H 0.88235 0.47192 0.4557 0.0
H2231 H 0.88247 0.55129 0.41207 0.0
C2232 C 0.78348 0.52003 0.35478 0.0
C2233 C 0.76491 0.49689 0.35072 0.0
C2234 C 0.76756 0.47352 0.36861 0.0
C2235 C 0.78898 0.47272 0.38971 0.0
C2236 C 0.80744 0.49555 0.3927 0.0
C2237 C 0.80478 0.51889 0.37591 0.0
C2238 C 0.82877 0.53973 0.38209 0.0
C2239 C 0.8477 0.54492 0.35585 0.0
C2240 C 0.81588 0.56711 0.39367 0.0
C2241 C 0.84578 0.52416 0.40453 0.0
C2242 C 0.83296 0.4988 0.41041 0.0
C2243 C 0.84565 0.47985 0.42894 0.0
C2244 C 0.87226 0.48684 0.4416 0.0
C2245 C 0.88598 0.51261 0.43576 0.0
C2246 C 0.87224 0.53168 0.41732 0.0
H2247 H 0.58981 0.83955 0.34487 0.0
H2248 H 0.50412 0.80654 0.32514 0.0
H2249 H 0.48194 0.83742 0.36103 0.0
H2250 H 0.57506 0.84871 0.42247 0.0
H2251 H 0.59654 0.88003 0.42404 0.0
H2252 H 0.60611 0.85279 0.39947 0.0
H2253 H 0.60339 0.88831 0.35861 0.0
H2254 H 0.59366 0.91551 0.38298 0.0
H2255 H 0.57027 0.9083 0.35338 0.0
H2256 H 0.4685 0.87505 0.39532 0.0
H2257 H 0.46457 0.91666 0.42551 0.0
H2258 H 0.55909 0.9255 0.42345 0.0
C2259 C 0.56645 0.83844 0.3486 0.0
C2260 C 0.54868 0.82059 0.33237 0.0
C2261 C 0.51819 0.81983 0.33753 0.0
C2262 C 0.5054 0.8373 0.35789 0.0
C2263 C 0.52346 0.85505 0.37322 0.0
C2264 C 0.55341 0.8555 0.36911 0.0
C2265 C 0.56767 0.87755 0.38736 0.0
C2266 C 0.58752 0.86396 0.40965 0.0
C2267 C 0.58473 0.89867 0.3695 0.0
C2268 C 0.54084 0.89071 0.40087 0.0
C2269 C 0.51567 0.87693 0.39298 0.0
C2270 C 0.48808 0.88579 0.40191 0.0
C2271 C 0.4861 0.90953 0.41905 0.0
C2272 C 0.51151 0.92448 0.42683 0.0
C2273 C 0.53926 0.91457 0.41791 0.0
H2274 H 0.23733 0.56793 0.32203 0.0
H2275 H 0.24112 0.48361 0.2895 0.0
H2276 H 0.1966 0.47179 0.31643 0.0
H2277 H 0.20748 0.54959 0.3931 0.0
H2278 H 0.18496 0.58058 0.39408 0.0
H2279 H 0.2193 0.58075 0.37541 0.0
H2280 H 0.19184 0.59727 0.33068 0.0
H2281 H 0.1573 0.59607 0.34888 0.0
H2282 H 0.16244 0.57647 0.31686 0.0
H2283 H 0.14914 0.47065 0.34248 0.0
H2284 H 0.10554 0.47805 0.3722 0.0
H2285 H 0.13161 0.56362 0.38692 0.0
C2286 C 0.22939 0.54672 0.32159 0.0
C2287 C 0.24273 0.52649 0.30415 0.0
C2288 C 0.2313 0.49917 0.30315 0.0
C2289 C 0.20595 0.49238 0.31815 0.0
C2290 C 0.19234 0.5132 0.33398 0.0
C2291 C 0.20395 0.53964 0.33633 0.0
C2292 C 0.18423 0.55846 0.35374 0.0
C2293 C 0.19992 0.56789 0.38069 0.0
C2294 C 0.17332 0.58355 0.3365 0.0
C2295 C 0.15948 0.53865 0.36027 0.0
C2296 C 0.16463 0.51267 0.34866 0.0
C2297 C 0.14497 0.49086 0.35183 0.0
C2298 C 0.12008 0.49536 0.36846 0.0
C2299 C 0.11498 0.52144 0.38168 0.0
C2300 C 0.13457 0.54358 0.37676 0.0
H2301 H 0.53186 0.18444 0.3069 0.0
H2302 H 0.48181 0.25338 0.3421 0.0
H2303 H 0.48381 0.23105 0.3887 0.0
H2304 H 0.4949 0.13293 0.34062 0.0
H2305 H 0.52592 0.11025 0.3465 0.0
H2306 H 0.52624 0.13431 0.31761 0.0
H2307 H 0.57464 0.15542 0.33606 0.0
H2308 H 0.57435 0.13127 0.36501 0.0
H2309 H 0.57652 0.16815 0.37169 0.0
H2310 H 0.48252 0.1978 0.42848 0.0
H2311 H 0.47792 0.15606 0.45839 0.0
H2312 H 0.52892 0.10806 0.39851 0.0
C2313 C 0.52171 0.19512 0.32449 0.0
C2314 C 0.50662 0.22076 0.3207 0.0
C2315 C 0.49387 0.23402 0.3444 0.0
C2316 C 0.49488 0.22144 0.37101 0.0
C2317 C 0.50898 0.1957 0.37375 0.0
C2318 C 0.52239 0.18276 0.35115 0.0
C2319 C 0.53306 0.15373 0.35889 0.0
C2320 C 0.51918 0.13151 0.33978 0.0
C2321 C 0.56664 0.15207 0.35786 0.0
C2322 C 0.52193 0.15167 0.38889 0.0
C2323 C 0.50868 0.1764 0.3972 0.0
C2324 C 0.4936 0.17866 0.42259 0.0
C2325 C 0.49113 0.15489 0.43947 0.0
C2326 C 0.50384 0.12927 0.43107 0.0
C2327 C 0.52014 0.12779 0.40588 0.0
H2328 H 0.73588 0.85967 0.46957 0.0
H2329 H 0.69139 0.80242 0.52507 0.0
H2330 H 0.64934 0.83567 0.52855 0.0
H2331 H 0.71745 0.92063 0.50447 0.0
H2332 H 0.713 0.94122 0.47308 0.0
H2333 H 0.73741 0.91166 0.47297 0.0
H2334 H 0.70958 0.89022 0.4306 0.0
H2335 H 0.68541 0.92004 0.43024 0.0
H2336 H 0.67054 0.88546 0.43292 0.0
H2337 H 0.61298 0.87829 0.52703 0.0
H2338 H 0.58716 0.92359 0.51986 0.0
H2339 H 0.6586 0.95129 0.46701 0.0
C2340 C 0.71712 0.85396 0.48221 0.0
C2341 C 0.71679 0.82867 0.49713 0.0
C2342 C 0.69187 0.82174 0.51334 0.0
C2343 C 0.66803 0.84054 0.51549 0.0
C2344 C 0.66952 0.86587 0.50105 0.0
C2345 C 0.69346 0.87226 0.48449 0.0
C2346 C 0.69085 0.90087 0.47171 0.0
C2347 C 0.71617 0.9197 0.48114 0.0
C2348 C 0.68898 0.89902 0.43946 0.0
C2349 C 0.66214 0.91023 0.48422 0.0
C2350 C 0.64966 0.88983 0.50077 0.0
C2351 C 0.62268 0.89426 0.51403 0.0
C2352 C 0.60819 0.92002 0.50991 0.0
C2353 C 0.62104 0.94103 0.49308 0.0
C2354 C 0.64836 0.93588 0.48033 0.0
H2355 H 0.73228 0.17739 0.47607 0.0
H2356 H 0.70736 0.24037 0.53726 0.0
H2357 H 0.66507 0.21163 0.55156 0.0
H2358 H 0.66124 0.1604 0.45426 0.0
H2359 H 0.66937 0.12384 0.44982 0.0
H2360 H 0.69798 0.14908 0.44601 0.0
H2361 H 0.72844 0.12307 0.48398 0.0
H2362 H 0.69961 0.09798 0.48821 0.0
H2363 H 0.71274 0.11715 0.51822 0.0
H2364 H 0.62374 0.17595 0.55746 0.0
H2365 H 0.58611 0.13919 0.551 0.0
H2366 H 0.64009 0.10037 0.48699 0.0
C2367 C 0.71826 0.185 0.49281 0.0
C2368 C 0.72328 0.21104 0.50565 0.0
C2369 C 0.70385 0.22054 0.52696 0.0
C2370 C 0.67995 0.20423 0.53543 0.0
C2371 C 0.67589 0.17844 0.5225 0.0
C2372 C 0.69452 0.16905 0.50153 0.0
C2373 C 0.68481 0.14145 0.4897 0.0
C2374 C 0.67793 0.14385 0.45809 0.0
C2375 C 0.70777 0.11856 0.49538 0.0
C2376 C 0.65743 0.13691 0.50684 0.0
C2377 C 0.65266 0.15818 0.52597 0.0
C2378 C 0.62753 0.159 0.54283 0.0
C2379 C 0.60642 0.13802 0.53926 0.0
C2380 C 0.61076 0.11692 0.51892 0.0
C2381 C 0.63678 0.11606 0.50312 0.0
H2382 H 0.82611 0.68589 0.43611 0.0
H2383 H 0.8097 0.72973 0.51453 0.0
H2384 H 0.84942 0.70302 0.53709 0.0
H2385 H 0.83753 0.61911 0.4694 0.0
H2386 H 0.86505 0.60757 0.44473 0.0
H2387 H 0.83713 0.63189 0.43378 0.0
H2388 H 0.87729 0.66626 0.41762 0.0
H2389 H 0.90533 0.64213 0.42886 0.0
H2390 H 0.90484 0.67727 0.44229 0.0
H2391 H 0.89102 0.67324 0.55086 0.0
H2392 H 0.92664 0.63582 0.55868 0.0
H2393 H 0.91382 0.60617 0.47315 0.0
C2394 C 0.83107 0.68993 0.458 0.0
C2395 C 0.81538 0.71049 0.47335 0.0
C2396 C 0.82183 0.71467 0.50213 0.0
C2397 C 0.8444 0.69958 0.51513 0.0
C2398 C 0.85976 0.67985 0.49929 0.0
C2399 C 0.85299 0.67439 0.47158 0.0
C2400 C 0.87124 0.65016 0.46029 0.0
C2401 C 0.85157 0.62574 0.45154 0.0
C2402 C 0.89084 0.65953 0.43581 0.0
C2403 C 0.88936 0.64293 0.48607 0.0
C2404 C 0.88263 0.66084 0.50801 0.0
C2405 C 0.89624 0.65887 0.53399 0.0
C2406 C 0.91649 0.63741 0.53816 0.0
C2407 C 0.92276 0.61767 0.51667 0.0
C2408 C 0.9095 0.62089 0.48996 0.0
H2409 H 0.36846 0.81638 0.48372 0.0
H2410 H 0.30368 0.82561 0.54993 0.0
H2411 H 0.3269 0.86931 0.56507 0.0
H2412 H 0.42953 0.84224 0.52869 0.0
H2413 H 0.44789 0.85856 0.49955 0.0
H2414 H 0.42625 0.82781 0.49383 0.0
H2415 H 0.396 0.85439 0.45627 0.0
H2416 H 0.41737 0.88522 0.46223 0.0
H2417 H 0.37809 0.88671 0.46563 0.0
H2418 H 0.35273 0.91414 0.56925 0.0
H2419 H 0.38627 0.9541 0.56913 0.0
H2420 H 0.43941 0.91373 0.50507 0.0
C2421 C 0.35943 0.82756 0.50157 0.0
C2422 C 0.33389 0.81806 0.51529 0.0
C2423 C 0.3229 0.83276 0.53886 0.0
C2424 C 0.33596 0.85759 0.54762 0.0
C2425 C 0.36063 0.86681 0.53325 0.0
C2426 C 0.37297 0.85185 0.51137 0.0
C2427 C 0.40053 0.86593 0.50064 0.0
C2428 C 0.42765 0.84754 0.50601 0.0
C2429 C 0.39781 0.87351 0.46934 0.0
C2430 C 0.40081 0.89178 0.51909 0.0
C2431 C 0.37735 0.89184 0.53749 0.0
C2432 C 0.37154 0.91413 0.55541 0.0
C2433 C 0.39053 0.9368 0.55501 0.0
C2434 C 0.41535 0.93679 0.53724 0.0
C2435 C 0.42067 0.91399 0.51905 0.0
H2436 H 0.21117 0.33081 0.48592 0.0
H2437 H 0.20035 0.31855 0.57557 0.0
H2438 H 0.16769 0.3598 0.57791 0.0
H2439 H 0.20775 0.40847 0.487 0.0
H2440 H 0.18741 0.4099 0.45458 0.0
H2441 H 0.21298 0.38179 0.46072 0.0
H2442 H 0.17171 0.34613 0.45153 0.0
H2443 H 0.14595 0.37408 0.44579 0.0
H2444 H 0.13856 0.34803 0.47207 0.0
H2445 H 0.1335 0.40004 0.56994 0.0
H2446 H 0.10058 0.437 0.55227 0.0
H2447 H 0.13167 0.42163 0.46734 0.0
C2448 C 0.20266 0.33746 0.50613 0.0
C2449 C 0.20856 0.32195 0.53068 0.0
C2450 C 0.19629 0.33052 0.55665 0.0
C2451 C 0.17772 0.35383 0.55816 0.0
C2452 C 0.17159 0.36826 0.53345 0.0
C2453 C 0.1838 0.36055 0.50794 0.0
C2454 C 0.17193 0.37839 0.48423 0.0
C2455 C 0.19648 0.39567 0.47085 0.0
C2456 C 0.1561 0.36059 0.46211 0.0
C2457 C 0.15064 0.39678 0.5003 0.0
C2458 C 0.15106 0.39086 0.5287 0.0
C2459 C 0.13307 0.40495 0.54775 0.0
C2460 C 0.11428 0.4258 0.53749 0.0
C2461 C 0.11327 0.43204 0.50841 0.0
C2462 C 0.13175 0.41724 0.48967 0.0
H2463 H 0.35547 0.22586 0.557 0.0
H2464 H 0.32234 0.22565 0.47168 0.0
H2465 H 0.3538 0.1846 0.46065 0.0
H2466 H 0.43009 0.20507 0.54179 0.0
H2467 H 0.43268 0.18342 0.57262 0.0
H2468 H 0.40906 0.21362 0.57278 0.0
H2469 H 0.36506 0.18267 0.58672 0.0
H2470 H 0.38859 0.15245 0.58675 0.0
H2471 H 0.3561 0.15291 0.56529 0.0
H2472 H 0.38706 0.14005 0.46112 0.0
H2473 H 0.41902 0.09955 0.47263 0.0
H2474 H 0.43032 0.13232 0.55694 0.0
C2475 C 0.35519 0.21748 0.53583 0.0
C2476 C 0.33669 0.22895 0.51518 0.0
C2477 C 0.33655 0.21721 0.48781 0.0
C2478 C 0.3543 0.19388 0.48139 0.0
C2479 C 0.37201 0.1827 0.50258 0.0
C2480 C 0.37258 0.1944 0.52919 0.0
C2481 C 0.39215 0.17817 0.54883 0.0
C2482 C 0.4175 0.19617 0.55962 0.0
C2483 C 0.37442 0.16582 0.57333 0.0
C2484 C 0.40293 0.15564 0.52918 0.0
C2485 C 0.39106 0.15817 0.50262 0.0
C2486 C 0.39689 0.13831 0.48174 0.0
C2487 C 0.41532 0.11547 0.48834 0.0
C2488 C 0.42798 0.113 0.51541 0.0
C2489 C 0.42152 0.13356 0.53583 0.0
H2490 H 0.82021 0.33597 0.54948 0.0
H2491 H 0.80101 0.34066 0.46035 0.0
H2492 H 0.84293 0.3725 0.45377 0.0
H2493 H 0.83953 0.40632 0.55908 0.0
H2494 H 0.86834 0.39889 0.58389 0.0
H2495 H 0.83787 0.37558 0.58077 0.0
H2496 H 0.87385 0.33457 0.57109 0.0
H2497 H 0.90444 0.35792 0.57383 0.0
H2498 H 0.89972 0.33715 0.54258 0.0
H2499 H 0.88576 0.40581 0.45782 0.0
H2500 H 0.92389 0.43913 0.47242 0.0
H2501 H 0.91494 0.41123 0.55876 0.0
C2502 C 0.82488 0.3437 0.52857 0.0
C2503 C 0.80745 0.33603 0.50546 0.0
C2504 C 0.81415 0.34639 0.47836 0.0
C2505 C 0.83799 0.36432 0.47441 0.0
C2506 C 0.85493 0.37136 0.49773 0.0
C2507 C 0.84863 0.36132 0.52427 0.0
C2508 C 0.86942 0.37268 0.54608 0.0
C2509 C 0.8528 0.38936 0.56878 0.0
C2510 C 0.88795 0.34917 0.55916 0.0
C2511 C 0.88791 0.39138 0.52788 0.0
C2512 C 0.87953 0.39014 0.49999 0.0
C2513 C 0.89263 0.40674 0.47956 0.0
C2514 C 0.91426 0.42562 0.48807 0.0
C2515 C 0.92229 0.42787 0.51675 0.0
C2516 C 0.90945 0.40992 0.53665 0.0
H2517 H 0.20996 0.71495 0.48507 0.0
H2518 H 0.20872 0.71929 0.57593 0.0
H2519 H 0.17564 0.67846 0.57754 0.0
H2520 H 0.13625 0.70088 0.47694 0.0
H2521 H 0.1404 0.67761 0.4474 0.0
H2522 H 0.1671 0.70429 0.45357 0.0
H2523 H 0.20855 0.66717 0.45479 0.0
H2524 H 0.18205 0.64035 0.44808 0.0
H2525 H 0.20566 0.63792 0.47834 0.0
H2526 H 0.13778 0.64096 0.56843 0.0
H2527 H 0.10125 0.60807 0.54968 0.0
H2528 H 0.12835 0.62831 0.46474 0.0
C2529 C 0.20346 0.70659 0.50526 0.0
C2530 C 0.2122 0.71956 0.53042 0.0
C2531 C 0.20258 0.70901 0.55654 0.0
C2532 C 0.18376 0.68601 0.55759 0.0
C2533 C 0.1748 0.67403 0.53228 0.0
C2534 C 0.18464 0.6838 0.50661 0.0
C2535 C 0.1702 0.66875 0.48242 0.0
C2536 C 0.15244 0.6891 0.46401 0.0
C2537 C 0.19297 0.65258 0.46488 0.0
C2538 C 0.15037 0.64926 0.4984 0.0
C2539 C 0.15328 0.65251 0.52712 0.0
C2540 C 0.1358 0.63782 0.54598 0.0
C2541 C 0.11513 0.61909 0.53515 0.0
C2542 C 0.11229 0.61502 0.5058 0.0
C2543 C 0.13014 0.63055 0.48734 0.0
loop_
_geom_bond_atom_site_label_1
_geom_bond_atom_site_label_2
_geom_bond_distance
_geom_bond_site_symmetry_2
_ccdc_geom_bond_type
H0 C5 0.930 . S
H1 C8 0.930 . S
H2 C10 0.930 . S
H3 C4 1.016 . S
C4 H3 1.016 . S
C4 N11 1.286 . S
C5 H0 0.930 . S
C5 C6 1.397 . S
C5 C7 1.361 . S
C6 C5 1.397 . S
C6 C10 1.390 . S
C7 C5 1.361 . S
C7 C8 1.393 . S
C7 N11 1.413 . S
C8 H1 0.930 . S
C8 C7 1.393 . S
C8 C9 1.399 . S
C9 C8 1.399 . S
C9 C10 1.381 . S
C10 H2 0.930 . S
C10 C6 1.390 . S
C10 C9 1.381 . S
N11 C4 1.286 . S
N11 C7 1.413 . S
H12 C17 0.930 . S
H13 C20 0.930 . S
H14 C22 0.930 . S
H15 C16 1.016 . S
C16 H15 1.016 . S
C16 N23 1.286 . S
C17 H12 0.930 . S
C17 C18 1.397 . S
C17 C19 1.361 . S
C18 C17 1.397 . S
C18 C22 1.390 . S
C19 C17 1.361 . S
C19 C20 1.393 . S
C19 N23 1.413 . S
C20 H13 0.930 . S
C20 C19 1.393 . S
C20 C21 1.399 . S
C21 C20 1.399 . S
C21 C22 1.381 . S
C22 H14 0.930 . S
C22 C18 1.390 . S
C22 C21 1.381 . S
N23 C16 1.286 . S
N23 C19 1.413 . S
H24 C29 0.930 . S
H25 C32 0.930 . S
H26 C34 0.930 . S
H27 C28 1.016 . S
C28 H27 1.016 . S
C28 N35 1.286 . S
C29 H24 0.930 . S
C29 C30 1.397 . S
C29 C31 1.361 . S
C30 C29 1.397 . S
C30 C34 1.390 . S
C31 C29 1.361 . S
C31 C32 1.393 . S
C31 N35 1.413 . S
C32 H25 0.930 . S
C32 C31 1.393 . S
C32 C33 1.399 . S
C33 C32 1.399 . S
C33 C34 1.381 . S
C34 H26 0.930 . S
C34 C30 1.390 . S
C34 C33 1.381 . S
N35 C28 1.286 . S
N35 C31 1.413 . S
H36 C41 0.930 . S
H37 C44 0.930 . S
H38 C46 0.930 . S
H39 C40 1.016 . S
C40 H39 1.016 . S
C40 N47 1.286 1_545 S
C41 H36 0.930 . S
C41 C42 1.397 1_565 S
C41 C43 1.361 . S
C42 C41 1.397 1_545 S
C42 C46 1.390 . S
C43 C41 1.361 . S
C43 C44 1.394 . S
C43 N47 1.413 . S
C44 H37 0.930 . S
C44 C43 1.394 . S
C44 C45 1.398 1_565 S
C45 C44 1.398 1_545 S
C45 C46 1.381 . S
C46 H38 0.930 . S
C46 C42 1.390 . S
C46 C45 1.381 . S
N47 C40 1.286 1_565 S
N47 C43 1.413 . S
H48 C53 0.930 . S
H49 C56 0.930 . S
H50 C58 0.930 . S
H51 C52 1.026 . S
C52 H51 1.026 . S
C52 N59 1.273 1_455 S
C53 H48 0.930 . S
C53 C54 1.400 . S
C53 C55 1.361 . S
C54 C53 1.400 . S
C54 C58 1.388 1_655 S
C55 C53 1.361 . S
C55 C56 1.393 . S
C55 N59 1.413 . S
C56 H49 0.930 . S
C56 C55 1.393 . S
C56 C57 1.400 . S
C57 C56 1.400 . S
C57 C58 1.380 1_655 S
C58 H50 0.930 . S
C58 C54 1.388 1_455 S
C58 C57 1.380 1_455 S
N59 C52 1.273 1_655 S
N59 C55 1.413 . S
H60 C65 0.930 . S
H61 C68 0.930 . S
H62 C70 0.930 . S
H63 C64 1.017 . S
C64 H63 1.017 . S
C64 N71 1.286 . S
C65 H60 0.930 . S
C65 C66 1.397 . S
C65 C67 1.361 . S
C66 C65 1.397 . S
C66 C70 1.390 . S
C67 C65 1.361 . S
C67 C68 1.393 . S
C67 N71 1.413 . S
C68 H61 0.930 . S
C68 C67 1.393 . S
C68 C69 1.399 . S
C69 C68 1.399 . S
C69 C70 1.381 . S
C70 H62 0.930 . S
C70 C66 1.390 . S
C70 C69 1.381 . S
N71 C64 1.286 . S
N71 C67 1.413 . S
H72 C77 0.930 . S
H73 C80 0.930 . S
H74 C82 0.930 . S
H75 C76 1.016 . S
C76 H75 1.016 . S
C76 N83 1.286 . S
C77 H72 0.930 . S
C77 C78 1.397 . S
C77 C79 1.361 . S
C78 C77 1.397 . S
C78 C82 1.390 . S
C79 C77 1.361 . S
C79 C80 1.393 . S
C79 N83 1.413 . S
C80 H73 0.930 . S
C80 C79 1.393 . S
C80 C81 1.399 . S
C81 C80 1.399 . S
C81 C82 1.381 . S
C82 H74 0.930 . S
C82 C78 1.390 . S
C82 C81 1.381 . S
N83 C76 1.286 . S
N83 C79 1.413 . S
H84 C89 0.930 . S
H85 C92 0.930 . S
H86 C94 0.930 . S
H87 C88 1.016 . S
C88 H87 1.016 . S
C88 N95 1.286 . S
C89 H84 0.930 . S
C89 C90 1.397 . S
C89 C91 1.361 . S
C90 C89 1.397 . S
C90 C94 1.390 . S
C91 C89 1.361 . S
C91 C92 1.393 . S
C91 N95 1.413 . S
C92 H85 0.930 . S
C92 C91 1.393 . S
C92 C93 1.399 . S
C93 C92 1.399 . S
C93 C94 1.381 . S
C94 H86 0.930 . S
C94 C90 1.390 . S
C94 C93 1.381 . S
N95 C88 1.286 . S
N95 C91 1.413 . S
H96 C101 0.930 . S
H97 C104 0.930 . S
H98 C106 0.930 . S
H99 C100 1.016 . S
C100 H99 1.016 . S
C100 N107 1.286 . S
C101 H96 0.930 . S
C101 C102 1.397 . S
C101 C103 1.361 . S
C102 C101 1.397 . S
C102 C106 1.390 . S
C103 C101 1.361 . S
C103 C104 1.393 . S
C103 N107 1.413 . S
C104 H97 0.930 . S
C104 C103 1.393 . S
C104 C105 1.399 . S
C105 C104 1.399 . S
C105 C106 1.381 . S
C106 H98 0.930 . S
C106 C102 1.390 . S
C106 C105 1.381 . S
N107 C100 1.286 . S
N107 C103 1.413 . S
H108 C113 0.930 . S
H109 C116 0.930 . S
H110 C118 0.930 . S
H111 C112 1.016 . S
C112 H111 1.016 . S
C112 N119 1.286 . S
C113 H108 0.930 . S
C113 C114 1.397 . S
C113 C115 1.361 . S
C114 C113 1.397 . S
C114 C118 1.390 . S
C115 C113 1.361 . S
C115 C116 1.393 . S
C115 N119 1.413 . S
C116 H109 0.930 . S
C116 C115 1.393 . S
C116 C117 1.399 . S
C117 C116 1.399 . S
C117 C118 1.381 . S
C118 H110 0.930 . S
C118 C114 1.390 . S
C118 C117 1.381 . S
N119 C112 1.286 . S
N119 C115 1.413 . S
H120 C125 0.930 . S
H121 C128 0.930 . S
H122 C130 0.933 . S
H123 C124 1.016 1_556 S
C124 H123 1.016 1_554 S
C124 N131 1.286 . S
C125 H120 0.930 . S
C125 C126 1.397 . S
C125 C127 1.361 . S
C126 C125 1.397 . S
C126 C130 1.389 1_554 S
C127 C125 1.361 . S
C127 C128 1.393 . S
C127 N131 1.413 . S
C128 H121 0.930 . S
C128 C127 1.393 . S
C128 C129 1.399 . S
C129 C128 1.399 . S
C129 C130 1.380 1_554 S
C130 H122 0.933 . S
C130 C126 1.389 1_556 S
C130 C129 1.380 1_556 S
N131 C124 1.286 . S
N131 C127 1.413 . S
H132 C137 0.930 . S
H133 C140 0.929 1_556 S
H134 C142 0.930 . S
H135 C136 1.016 . S
C136 H135 1.016 . S
C136 N143 1.286 1_554 S
C137 H132 0.930 . S
C137 C138 1.397 1_556 S
C137 C139 1.361 . S
C138 C137 1.397 1_554 S
C138 C142 1.390 . S
C139 C137 1.361 . S
C139 C140 1.391 1_556 S
C139 N143 1.413 . S
C140 H133 0.929 1_554 S
C140 C139 1.391 1_554 S
C140 C141 1.403 . S
C141 C140 1.403 . S
C141 C142 1.381 . S
C142 H134 0.930 . S
C142 C138 1.390 . S
C142 C141 1.381 . S
N143 C136 1.286 1_556 S
N143 C139 1.413 . S
H144 C149 0.930 . S
H145 C152 0.930 . S
H146 C154 0.930 . S
H147 C148 1.016 . S
C148 H147 1.016 . S
C148 N155 1.286 . S
C149 H144 0.930 . S
C149 C150 1.397 . S
C149 C151 1.361 . S
C150 C149 1.397 . S
C150 C154 1.390 . S
C151 C149 1.361 . S
C151 C152 1.393 . S
C151 N155 1.413 . S
C152 H145 0.930 . S
C152 C151 1.393 . S
C152 C153 1.399 . S
C153 C152 1.399 . S
C153 C154 1.381 . S
C154 H146 0.930 . S
C154 C150 1.390 . S
C154 C153 1.381 . S
N155 C148 1.286 . S
N155 C151 1.413 . S
H156 C161 0.930 . S
H157 C164 0.930 . S
H158 C166 0.930 . S
H159 C160 1.016 . S
C160 H159 1.016 . S
C160 N167 1.286 . S
C161 H156 0.930 . S
C161 C162 1.397 . S
C161 C163 1.361 . S
C162 C161 1.397 . S
C162 C166 1.390 . S
C163 C161 1.361 . S
C163 C164 1.393 . S
C163 N167 1.413 . S
C164 H157 0.930 . S
C164 C163 1.393 . S
C164 C165 1.399 . S
C165 C164 1.399 . S
C165 C166 1.381 . S
C166 H158 0.930 . S
C166 C162 1.390 . S
C166 C165 1.381 . S
N167 C160 1.286 . S
N167 C163 1.413 . S
H168 C173 0.930 . S
H169 C176 0.930 . S
H170 C178 0.930 . S
H171 C172 1.016 . S
C172 H171 1.016 . S
C172 N179 1.286 . S
C173 H168 0.930 . S
C173 C174 1.397 . S
C173 C175 1.361 . S
C174 C173 1.397 . S
C174 C178 1.390 . S
C175 C173 1.361 . S
C175 C176 1.393 . S
C175 N179 1.413 . S
C176 H169 0.930 . S
C176 C175 1.393 . S
C176 C177 1.399 . S
C177 C176 1.399 . S
C177 C178 1.381 . S
C178 H170 0.930 . S
C178 C174 1.390 . S
C178 C177 1.381 . S
N179 C172 1.286 . S
N179 C175 1.413 . S
H180 C185 0.930 . S
H181 C188 0.930 . S
H182 C190 0.930 . S
H183 C184 1.016 . S
C184 H183 1.016 . S
C184 N191 1.286 . S
C185 H180 0.930 . S
C185 C186 1.397 . S
C185 C187 1.361 . S
C186 C185 1.397 . S
C186 C190 1.390 . S
C187 C185 1.361 . S
C187 C188 1.393 . S
C187 N191 1.413 . S
C188 H181 0.930 . S
C188 C187 1.393 . S
C188 C189 1.399 . S
C189 C188 1.399 . S
C189 C190 1.381 . S
C190 H182 0.930 . S
C190 C186 1.390 . S
C190 C189 1.381 . S
N191 C184 1.286 . S
N191 C187 1.413 . S
H192 C197 0.930 . S
H193 C200 0.930 . S
H194 C202 0.930 . S
H195 C196 1.016 . S
C196 H195 1.016 . S
C196 N203 1.286 . S
C197 H192 0.930 . S
C197 C198 1.397 . S
C197 C199 1.361 . S
C198 C197 1.397 . S
C198 C202 1.390 . S
C199 C197 1.361 . S
C199 C200 1.393 . S
C199 N203 1.413 . S
C200 H193 0.930 . S
C200 C199 1.393 . S
C200 C201 1.399 . S
C201 C200 1.399 . S
C201 C202 1.381 . S
C202 H194 0.930 . S
C202 C198 1.390 . S
C202 C201 1.381 . S
N203 C196 1.286 . S
N203 C199 1.413 . S
H204 C209 0.930 . S
H205 C212 0.930 . S
H206 C214 0.930 . S
H207 C208 1.016 . S
C208 H207 1.016 . S
C208 N215 1.286 . S
C209 H204 0.930 . S
C209 C210 1.397 . S
C209 C211 1.361 . S
C210 C209 1.397 . S
C210 C214 1.390 . S
C211 C209 1.361 . S
C211 C212 1.393 . S
C211 N215 1.413 . S
C212 H205 0.930 . S
C212 C211 1.393 . S
C212 C213 1.399 . S
C213 C212 1.399 . S
C213 C214 1.381 . S
C214 H206 0.930 . S
C214 C210 1.390 . S
C214 C213 1.381 . S
N215 C208 1.286 . S
N215 C211 1.413 . S
H216 C221 0.930 . S
H217 C224 0.930 . S
H218 C226 0.930 . S
H219 C220 1.016 . S
C220 H219 1.016 . S
C220 N227 1.286 . S
C221 H216 0.930 . S
C221 C222 1.397 . S
C221 C223 1.361 . S
C222 C221 1.397 . S
C222 C226 1.390 . S
C223 C221 1.361 . S
C223 C224 1.393 . S
C223 N227 1.413 . S
C224 H217 0.930 . S
C224 C223 1.393 . S
C224 C225 1.399 . S
C225 C224 1.399 . S
C225 C226 1.381 . S
C226 H218 0.930 . S
C226 C222 1.390 . S
C226 C225 1.381 . S
N227 C220 1.286 . S
N227 C223 1.413 . S
H228 C233 0.930 . S
H229 C236 0.930 . S
H230 C238 0.930 . S
H231 C232 1.016 . S
C232 H231 1.016 . S
C232 N239 1.286 . S
C233 H228 0.930 . S
C233 C234 1.397 . S
C233 C235 1.361 . S
C234 C233 1.397 . S
C234 C238 1.390 . S
C235 C233 1.361 . S
C235 C236 1.393 . S
C235 N239 1.413 . S
C236 H229 0.930 . S
C236 C235 1.393 . S
C236 C237 1.399 . S
C237 C236 1.399 . S
C237 C238 1.381 . S
C238 H230 0.930 . S
C238 C234 1.390 . S
C238 C237 1.381 . S
N239 C232 1.286 . S
N239 C235 1.413 . S
H240 C245 0.930 . S
H241 C248 0.930 . S
H242 C250 0.930 . S
H243 C244 1.016 . S
C244 H243 1.016 . S
C244 N251 1.286 . S
C245 H240 0.930 . S
C245 C246 1.397 . S
C245 C247 1.361 . S
C246 C245 1.397 . S
C246 C250 1.390 . S
C247 C245 1.361 . S
C247 C248 1.393 . S
C247 N251 1.413 . S
C248 H241 0.930 . S
C248 C247 1.393 . S
C248 C249 1.399 . S
C249 C248 1.399 . S
C249 C250 1.381 . S
C250 H242 0.930 . S
C250 C246 1.390 . S
C250 C249 1.381 . S
N251 C244 1.286 . S
N251 C247 1.413 . S
H252 C257 0.930 . S
H253 C260 0.930 . S
H254 C262 0.930 . S
H255 C256 1.016 . S
C256 H255 1.016 . S
C256 N263 1.286 . S
C257 H252 0.930 . S
C257 C258 1.397 . S
C257 C259 1.361 . S
C258 C257 1.397 . S
C258 C262 1.390 . S
C259 C257 1.361 . S
C259 C260 1.393 . S
C259 N263 1.413 . S
C260 H253 0.930 . S
C260 C259 1.393 . S
C260 C261 1.399 . S
C261 C260 1.399 . S
C261 C262 1.381 . S
C262 H254 0.930 . S
C262 C258 1.390 . S
C262 C261 1.381 . S
N263 C256 1.286 . S
N263 C259 1.413 . S
H264 C269 0.930 . S
H265 C272 0.930 . S
H266 C274 0.930 . S
H267 C268 1.016 . S
C268 H267 1.016 . S
C268 N275 1.286 . S
C269 H264 0.930 . S
C269 C270 1.397 . S
C269 C271 1.361 . S
C270 C269 1.397 . S
C270 C274 1.390 . S
C271 C269 1.361 . S
C271 C272 1.393 . S
C271 N275 1.413 . S
C272 H265 0.930 . S
C272 C271 1.393 . S
C272 C273 1.399 . S
C273 C272 1.399 . S
C273 C274 1.381 . S
C274 H266 0.930 . S
C274 C270 1.390 . S
C274 C273 1.381 . S
N275 C268 1.286 . S
N275 C271 1.413 . S
H276 C281 0.930 . S
H277 C284 0.930 . S
H278 C286 0.930 . S
H279 C280 1.016 . S
C280 H279 1.016 . S
C280 N287 1.286 . S
C281 H276 0.930 . S
C281 C282 1.397 . S
C281 C283 1.361 . S
C282 C281 1.397 . S
C282 C286 1.390 . S
C283 C281 1.361 . S
C283 C284 1.393 . S
C283 N287 1.413 . S
C284 H277 0.930 . S
C284 C283 1.393 . S
C284 C285 1.399 . S
C285 C284 1.399 . S
C285 C286 1.381 . S
C286 H278 0.930 . S
C286 C282 1.390 . S
C286 C285 1.381 . S
N287 C280 1.286 . S
N287 C283 1.413 . S
Zn288 O290 1.933 1_565 S
Zn288 O308 1.985 . S
Zn288 O319 1.955 . S
Zn289 O290 1.911 . S
Zn289 O309 1.970 . S
Zn289 O325 1.945 . S
Zn289 O332 1.981 . S
O290 Zn288 1.933 1_545 S
O290 Zn289 1.911 . S
O290 H291 0.841 1_655 S
H291 O290 0.841 1_455 S
C292 O293 1.246 . S
C292 O321 1.276 . S
O293 C292 1.246 . S
Zn294 O296 1.911 . S
Zn294 O311 1.970 . S
Zn294 O328 1.945 . S
Zn294 O335 1.981 . S
Zn295 O296 1.933 1_565 S
Zn295 O310 1.985 . S
Zn295 O317 1.955 . S
O296 Zn294 1.911 . S
O296 Zn295 1.933 1_545 S
O296 H297 0.841 . S
H297 O296 0.841 . S
Zn298 O299 1.933 1_565 S
Zn298 O312 1.985 . S
Zn298 O321 1.955 . S
O299 Zn298 1.933 1_545 S
O299 Zn300 1.911 . S
O299 H301 0.841 . S
Zn300 O299 1.911 . S
Zn300 O313 1.970 . S
Zn300 O329 1.981 1_655 S
Zn300 O331 1.945 . S
H301 O299 0.841 . S
Zn302 O303 1.933 1_565 S
Zn302 O315 1.985 . S
Zn302 O323 1.955 . S
O303 Zn302 1.933 1_545 S
O303 H304 0.841 . S
O303 Zn305 1.911 . S
H304 O303 0.841 . S
Zn305 O303 1.911 . S
Zn305 O316 1.970 . S
Zn305 O326 1.981 . S
Zn305 O334 1.945 . S
C306 O307 1.246 . S
C306 O323 1.276 . S
O307 C306 1.246 . S
O308 Zn288 1.985 . S
O308 C318 1.245 1_565 S
O309 Zn289 1.970 . S
O309 C318 1.263 . S
O310 Zn295 1.985 . S
O310 C322 1.245 1_565 S
O311 Zn294 1.970 . S
O311 C322 1.263 . S
O312 Zn298 1.985 . S
O312 C327 1.245 1_565 S
O313 Zn300 1.970 . S
O313 C327 1.263 . S
C314 O325 1.262 1_455 S
C314 O326 1.245 . S
O315 Zn302 1.985 . S
O315 C333 1.245 1_565 S
O316 Zn305 1.970 . S
O316 C333 1.263 . S
O317 Zn295 1.955 . S
O317 C336 1.276 . S
C318 O308 1.245 1_545 S
C318 O309 1.263 . S
O319 Zn288 1.955 . S
O319 C338 1.276 1_655 S
C320 O328 1.262 . S
C320 O329 1.245 . S
O321 C292 1.276 . S
O321 Zn298 1.955 . S
C322 O310 1.245 1_545 S
C322 O311 1.263 . S
O323 Zn302 1.955 . S
O323 C306 1.276 . S
C324 O331 1.262 . S
C324 O332 1.245 . S
O325 Zn289 1.945 . S
O325 C314 1.262 1_655 S
O326 Zn305 1.981 . S
O326 C314 1.245 . S
C327 O312 1.245 1_545 S
C327 O313 1.263 . S
O328 Zn294 1.945 . S
O328 C320 1.262 . S
O329 Zn300 1.981 1_455 S
O329 C320 1.245 . S
C330 O334 1.262 . S
C330 O335 1.245 . S
O331 Zn300 1.945 . S
O331 C324 1.262 . S
O332 Zn289 1.981 . S
O332 C324 1.245 . S
C333 O315 1.245 1_545 S
C333 O316 1.263 . S
O334 Zn305 1.945 . S
O334 C330 1.262 . S
O335 Zn294 1.981 . S
O335 C330 1.245 . S
C336 O317 1.276 . S
C336 O337 1.246 1_455 S
O337 C336 1.246 1_655 S
C338 O319 1.276 1_455 S
C338 O339 1.246 . S
O339 C338 1.246 . S
Zn340 O342 1.933 . S
Zn340 O360 1.985 . S
Zn340 O371 1.955 . S
Zn341 O342 1.911 1_556 S
Zn341 O361 1.970 . S
Zn341 O377 1.945 . S
Zn341 O384 1.981 . S
O342 Zn340 1.933 . S
O342 Zn341 1.911 1_554 S
O342 H343 0.841 . S
H343 O342 0.841 . S
C344 O345 1.246 . S
C344 O373 1.276 . S
O345 C344 1.246 . S
Zn346 O348 1.911 1_556 S
Zn346 O363 1.970 . S
Zn346 O380 1.945 . S
Zn346 O387 1.981 . S
Zn347 O348 1.933 . S
Zn347 O362 1.985 . S
Zn347 O369 1.955 . S
O348 Zn346 1.911 1_554 S
O348 Zn347 1.933 . S
O348 H349 0.841 1_565 S
H349 O348 0.841 1_545 S
Zn350 O351 1.933 . S
Zn350 O364 1.985 . S
Zn350 O373 1.955 . S
O351 Zn350 1.933 . S
O351 Zn352 1.911 1_554 S
O351 H353 0.841 . S
Zn352 O351 1.911 1_556 S
Zn352 O365 1.970 . S
Zn352 O381 1.981 . S
Zn352 O383 1.945 . S
H353 O351 0.841 . S
Zn354 O355 1.933 . S
Zn354 O367 1.985 . S
Zn354 O375 1.955 . S
O355 Zn354 1.933 . S
O355 H356 0.841 . S
O355 Zn357 1.911 1_554 S
H356 O355 0.841 . S
Zn357 O355 1.911 1_556 S
Zn357 O368 1.970 . S
Zn357 O378 1.981 1_565 S
Zn357 O386 1.945 . S
C358 O359 1.246 . S
C358 O375 1.276 . S
O359 C358 1.246 . S
O360 Zn340 1.985 . S
O360 C370 1.245 . S
O361 Zn341 1.970 . S
O361 C370 1.263 1_556 S
O362 Zn347 1.985 . S
O362 C374 1.245 . S
O363 Zn346 1.970 . S
O363 C374 1.263 1_556 S
O364 Zn350 1.985 . S
O364 C379 1.245 . S
O365 Zn352 1.970 . S
O365 C379 1.263 1_556 S
C366 O377 1.262 . S
C366 O378 1.245 . S
O367 Zn354 1.985 . S
O367 C385 1.245 . S
O368 Zn357 1.970 . S
O368 C385 1.263 1_556 S
O369 Zn347 1.955 . S
O369 C388 1.276 1_565 S
C370 O360 1.245 . S
C370 O361 1.263 1_554 S
O371 Zn340 1.955 . S
O371 C390 1.276 . S
C372 O380 1.262 1_545 S
C372 O381 1.245 . S
O373 C344 1.276 . S
O373 Zn350 1.955 . S
C374 O362 1.245 . S
C374 O363 1.263 1_554 S
O375 Zn354 1.955 . S
O375 C358 1.276 . S
C376 O383 1.262 . S
C376 O384 1.245 . S
O377 Zn341 1.945 . S
O377 C366 1.262 . S
O378 Zn357 1.981 1_545 S
O378 C366 1.245 . S
C379 O364 1.245 . S
C379 O365 1.263 1_554 S
O380 Zn346 1.945 . S
O380 C372 1.262 1_565 S
O381 Zn352 1.981 . S
O381 C372 1.245 . S
C382 O386 1.262 . S
C382 O387 1.245 . S
O383 Zn352 1.945 . S
O383 C376 1.262 . S
O384 Zn341 1.981 . S
O384 C376 1.245 . S
C385 O367 1.245 . S
C385 O368 1.263 1_554 S
O386 Zn357 1.945 . S
O386 C382 1.262 . S
O387 Zn346 1.981 . S
O387 C382 1.245 . S
C388 O369 1.276 1_545 S
C388 O389 1.246 . S
O389 C388 1.246 . S
C390 O371 1.276 . S
C390 O391 1.246 . S
O391 C390 1.246 . S
Zn392 O394 1.933 1_655 S
Zn392 O412 1.985 . S
Zn392 O423 1.955 1_655 S
Zn393 O394 1.911 1_655 S
Zn393 O413 1.970 . S
Zn393 O429 1.945 . S
Zn393 O436 1.981 1_556 S
O394 Zn392 1.933 1_455 S
O394 Zn393 1.911 1_455 S
O394 H395 0.841 . S
H395 O394 0.841 . S
C396 O397 1.226 1_554 S
C396 O425 1.276 . S
O397 C396 1.226 1_556 S
Zn398 O400 1.911 . S
Zn398 O415 1.970 . S
Zn398 O432 1.945 . S
Zn398 O439 1.981 . S
Zn399 O400 1.933 . S
Zn399 O414 1.985 . S
Zn399 O421 1.955 . S
O400 Zn398 1.911 . S
O400 Zn399 1.933 . S
O400 H401 0.841 . S
H401 O400 0.841 . S
Zn402 O403 1.933 . S
Zn402 O416 1.985 . S
Zn402 O425 1.955 . S
O403 Zn402 1.933 . S
O403 Zn404 1.911 . S
O403 H405 0.841 . S
Zn404 O403 1.911 . S
Zn404 O417 1.970 . S
Zn404 O433 1.981 1_655 S
Zn404 O435 1.945 . S
H405 O403 0.841 . S
Zn406 O407 1.933 . S
Zn406 O419 1.985 . S
Zn406 O427 1.955 . S
O407 Zn406 1.933 . S
O407 H408 0.841 1_556 S
O407 Zn409 1.911 . S
H408 O407 0.841 1_554 S
Zn409 O407 1.911 . S
Zn409 O420 1.970 . S
Zn409 O430 1.981 . S
Zn409 O438 1.945 . S
C410 O411 1.246 . S
C410 O427 1.276 1_554 S
O411 C410 1.246 . S
O412 Zn392 1.985 . S
O412 C422 1.245 . S
O413 Zn393 1.970 . S
O413 C422 1.263 . S
O414 Zn399 1.985 . S
O414 C426 1.245 . S
O415 Zn398 1.970 . S
O415 C426 1.263 . S
O416 Zn402 1.985 . S
O416 C431 1.245 . S
O417 Zn404 1.970 . S
O417 C431 1.263 . S
C418 O429 1.262 1_455 S
C418 O430 1.245 . S
O419 Zn406 1.985 . S
O419 C437 1.245 . S
O420 Zn409 1.970 . S
O420 C437 1.263 . S
O421 Zn399 1.955 . S
O421 C440 1.276 . S
C422 O412 1.245 . S
C422 O413 1.263 . S
O423 Zn392 1.955 1_455 S
O423 C442 1.276 . S
C424 O432 1.262 . S
C424 O433 1.245 . S
O425 C396 1.276 . S
O425 Zn402 1.955 . S
C426 O414 1.245 . S
C426 O415 1.263 . S
O427 Zn406 1.955 . S
O427 C410 1.276 1_556 S
C428 O435 1.262 . S
C428 O436 1.245 . S
O429 Zn393 1.945 . S
O429 C418 1.262 1_655 S
O430 Zn409 1.981 . S
O430 C418 1.245 . S
C431 O416 1.245 . S
C431 O417 1.263 . S
O432 Zn398 1.945 . S
O432 C424 1.262 . S
O433 Zn404 1.981 1_455 S
O433 C424 1.245 . S
C434 O438 1.262 1_554 S
C434 O439 1.245 . S
O435 Zn404 1.945 . S
O435 C428 1.262 . S
O436 Zn393 1.981 1_554 S
O436 C428 1.245 . S
C437 O419 1.245 . S
C437 O420 1.263 . S
O438 Zn409 1.945 . S
O438 C434 1.262 1_556 S
O439 Zn398 1.981 . S
O439 C434 1.245 . S
C440 O421 1.276 . S
C440 O441 1.246 . S
O441 C440 1.246 . S
C442 O423 1.276 . S
C442 O443 1.246 . S
O443 C442 1.246 . S
Zn444 O446 1.933 1_556 S
Zn444 O464 1.985 . S
Zn444 O475 1.955 . S
Zn445 O446 1.911 . S
Zn445 O465 1.970 . S
Zn445 O481 1.945 . S
Zn445 O488 1.981 . S
O446 Zn444 1.933 1_554 S
O446 Zn445 1.911 . S
O446 H447 0.841 . S
H447 O446 0.841 . S
C448 O449 1.246 . S
C448 O477 1.276 . S
O449 C448 1.246 . S
Zn450 O452 1.911 . S
Zn450 O467 1.970 . S
Zn450 O484 1.945 . S
Zn450 O491 1.981 . S
Zn451 O452 1.933 1_556 S
Zn451 O466 1.985 . S
Zn451 O473 1.955 . S
O452 Zn450 1.911 . S
O452 Zn451 1.933 1_554 S
O452 H453 0.841 . S
H453 O452 0.841 . S
Zn454 O455 1.933 1_556 S
Zn454 O468 1.985 . S
Zn454 O477 1.955 . S
O455 Zn454 1.933 1_554 S
O455 Zn456 1.911 . S
O455 H457 0.841 . S
Zn456 O455 1.911 . S
Zn456 O469 1.970 . S
Zn456 O485 1.981 . S
Zn456 O487 1.945 . S
H457 O455 0.841 . S
Zn458 O459 1.933 1_556 S
Zn458 O471 1.985 . S
Zn458 O479 1.955 . S
O459 Zn458 1.933 1_554 S
O459 H460 0.841 . S
O459 Zn461 1.911 . S
H460 O459 0.841 . S
Zn461 O459 1.911 . S
Zn461 O472 1.970 . S
Zn461 O482 1.981 . S
Zn461 O490 1.945 . S
C462 O463 1.246 . S
C462 O479 1.276 . S
O463 C462 1.246 . S
O464 Zn444 1.985 . S
O464 C474 1.245 1_556 S
O465 Zn445 1.970 . S
O465 C474 1.263 . S
O466 Zn451 1.985 . S
O466 C478 1.245 1_556 S
O467 Zn450 1.970 . S
O467 C478 1.263 . S
O468 Zn454 1.985 . S
O468 C483 1.245 1_556 S
O469 Zn456 1.970 . S
O469 C483 1.263 . S
C470 O481 1.262 . S
C470 O482 1.245 . S
O471 Zn458 1.985 . S
O471 C489 1.245 1_556 S
O472 Zn461 1.970 . S
O472 C489 1.263 . S
O473 Zn451 1.955 . S
O473 C492 1.276 . S
C474 O464 1.245 1_554 S
C474 O465 1.263 . S
O475 Zn444 1.955 . S
O475 C494 1.276 . S
C476 O484 1.262 . S
C476 O485 1.245 . S
O477 C448 1.276 . S
O477 Zn454 1.955 . S
C478 O466 1.245 1_554 S
C478 O467 1.263 . S
O479 Zn458 1.955 . S
O479 C462 1.276 . S
C480 O487 1.262 . S
C480 O488 1.245 . S
O481 Zn445 1.945 . S
O481 C470 1.262 . S
O482 Zn461 1.981 . S
O482 C470 1.245 . S
C483 O468 1.245 1_554 S
C483 O469 1.263 . S
O484 Zn450 1.945 . S
O484 C476 1.262 . S
O485 Zn456 1.981 . S
O485 C476 1.245 . S
C486 O490 1.262 . S
C486 O491 1.245 . S
O487 Zn456 1.945 . S
O487 C480 1.262 . S
O488 Zn445 1.981 . S
O488 C480 1.245 . S
C489 O471 1.245 1_554 S
C489 O472 1.263 . S
O490 Zn461 1.945 . S
O490 C486 1.262 . S
O491 Zn450 1.981 . S
O491 C486 1.245 . S
C492 O473 1.276 . S
C492 O493 1.246 . S
O493 C492 1.246 . S
C494 O475 1.276 . S
C494 O495 1.246 . S
O495 C494 1.246 . S
Zn496 O498 1.933 . S
Zn496 O516 1.985 . S
Zn496 O527 1.955 . S
Zn497 O498 1.911 . S
Zn497 O517 1.970 . S
Zn497 O533 1.945 . S
Zn497 O540 1.981 . S
O498 Zn496 1.933 . S
O498 Zn497 1.911 . S
O498 H499 0.841 1_655 S
H499 O498 0.841 1_455 S
C500 O501 1.246 . S
C500 O529 1.276 . S
O501 C500 1.246 . S
Zn502 O504 1.911 . S
Zn502 O519 1.970 . S
Zn502 O536 1.945 . S
Zn502 O543 1.981 . S
Zn503 O504 1.933 . S
Zn503 O518 1.985 . S
Zn503 O525 1.955 . S
O504 Zn502 1.911 . S
O504 Zn503 1.933 . S
O504 H505 0.841 . S
H505 O504 0.841 . S
Zn506 O507 1.933 . S
Zn506 O520 1.985 . S
Zn506 O529 1.955 . S
O507 Zn506 1.933 . S
O507 Zn508 1.911 . S
O507 H509 0.841 . S
Zn508 O507 1.911 . S
Zn508 O521 1.970 . S
Zn508 O537 1.981 1_655 S
Zn508 O539 1.945 . S
H509 O507 0.841 . S
Zn510 O511 1.933 . S
Zn510 O523 1.985 . S
Zn510 O531 1.955 . S
O511 Zn510 1.933 . S
O511 H512 0.841 . S
O511 Zn513 1.911 . S
H512 O511 0.841 . S
Zn513 O511 1.911 . S
Zn513 O524 1.970 . S
Zn513 O534 1.981 . S
Zn513 O542 1.945 . S
C514 O515 1.246 . S
C514 O531 1.276 . S
O515 C514 1.246 . S
O516 Zn496 1.985 . S
O516 C526 1.245 . S
O517 Zn497 1.970 . S
O517 C526 1.263 . S
O518 Zn503 1.985 . S
O518 C530 1.245 . S
O519 Zn502 1.970 . S
O519 C530 1.263 . S
O520 Zn506 1.985 . S
O520 C535 1.245 . S
O521 Zn508 1.970 . S
O521 C535 1.263 . S
C522 O533 1.262 1_455 S
C522 O534 1.245 . S
O523 Zn510 1.985 . S
O523 C541 1.245 . S
O524 Zn513 1.970 . S
O524 C541 1.263 . S
O525 Zn503 1.955 . S
O525 C544 1.276 . S
C526 O516 1.245 . S
C526 O517 1.263 . S
O527 Zn496 1.955 . S
O527 C546 1.276 1_655 S
C528 O536 1.262 . S
C528 O537 1.245 . S
O529 C500 1.276 . S
O529 Zn506 1.955 . S
C530 O518 1.245 . S
C530 O519 1.263 . S
O531 Zn510 1.955 . S
O531 C514 1.276 . S
C532 O539 1.262 . S
C532 O540 1.245 . S
O533 Zn497 1.945 . S
O533 C522 1.262 1_655 S
O534 Zn513 1.981 . S
O534 C522 1.245 . S
C535 O520 1.245 . S
C535 O521 1.263 . S
O536 Zn502 1.945 . S
O536 C528 1.262 . S
O537 Zn508 1.981 1_455 S
O537 C528 1.245 . S
C538 O542 1.262 . S
C538 O543 1.245 . S
O539 Zn508 1.945 . S
O539 C532 1.262 . S
O540 Zn497 1.981 . S
O540 C532 1.245 . S
C541 O523 1.245 . S
C541 O524 1.263 . S
O542 Zn513 1.945 . S
O542 C538 1.262 . S
O543 Zn502 1.981 . S
O543 C538 1.245 . S
C544 O525 1.276 . S
C544 O545 1.246 . S
O545 C544 1.246 . S
C546 O527 1.276 1_455 S
C546 O547 1.246 . S
O547 C546 1.246 . S
Zn548 O550 1.933 1_565 S
Zn548 O568 1.985 . S
Zn548 O579 1.955 . S
Zn549 O550 1.911 . S
Zn549 O569 1.970 . S
Zn549 O585 1.945 . S
Zn549 O592 1.981 . S
O550 Zn548 1.933 1_545 S
O550 Zn549 1.911 . S
O550 H551 0.841 . S
H551 O550 0.841 . S
C552 O553 1.246 . S
C552 O581 1.276 . S
O553 C552 1.246 . S
Zn554 O556 1.911 . S
Zn554 O571 1.970 . S
Zn554 O588 1.945 . S
Zn554 O595 1.981 . S
Zn555 O556 1.933 1_565 S
Zn555 O570 1.985 1_565 S
Zn555 O577 1.955 . S
O556 Zn554 1.911 . S
O556 Zn555 1.933 1_545 S
O556 H557 0.841 . S
H557 O556 0.841 . S
Zn558 O559 1.933 1_565 S
Zn558 O572 1.985 . S
Zn558 O581 1.955 . S
O559 Zn558 1.933 1_545 S
O559 Zn560 1.911 . S
O559 H561 0.841 . S
Zn560 O559 1.911 . S
Zn560 O573 1.970 . S
Zn560 O589 1.981 . S
Zn560 O591 1.945 . S
H561 O559 0.841 . S
Zn562 O563 1.933 1_565 S
Zn562 O575 1.985 1_565 S
Zn562 O583 1.955 . S
O563 Zn562 1.933 1_545 S
O563 H564 0.841 . S
O563 Zn565 1.911 . S
H564 O563 0.841 . S
Zn565 O563 1.911 . S
Zn565 O576 1.970 . S
Zn565 O586 1.981 . S
Zn565 O594 1.945 . S
C566 O567 1.246 . S
C566 O583 1.276 . S
O567 C566 1.246 . S
O568 Zn548 1.985 . S
O568 C578 1.245 1_565 S
O569 Zn549 1.970 . S
O569 C578 1.263 . S
O570 Zn555 1.985 1_545 S
O570 C582 1.245 . S
O571 Zn554 1.970 . S
O571 C582 1.263 . S
O572 Zn558 1.985 . S
O572 C587 1.245 1_565 S
O573 Zn560 1.970 . S
O573 C587 1.263 . S
C574 O585 1.262 . S
C574 O586 1.245 . S
O575 Zn562 1.985 1_545 S
O575 C593 1.245 . S
O576 Zn565 1.970 . S
O576 C593 1.263 . S
O577 Zn555 1.955 . S
O577 C596 1.276 . S
C578 O568 1.245 1_545 S
C578 O569 1.263 . S
O579 Zn548 1.955 . S
O579 C598 1.276 . S
C580 O588 1.262 . S
C580 O589 1.245 . S
O581 C552 1.276 . S
O581 Zn558 1.955 . S
C582 O570 1.245 . S
C582 O571 1.263 . S
O583 Zn562 1.955 . S
O583 C566 1.276 . S
C584 O591 1.262 . S
C584 O592 1.245 . S
O585 Zn549 1.945 . S
O585 C574 1.262 . S
O586 Zn565 1.981 . S
O586 C574 1.245 . S
C587 O572 1.245 1_545 S
C587 O573 1.263 . S
O588 Zn554 1.945 . S
O588 C580 1.262 . S
O589 Zn560 1.981 . S
O589 C580 1.245 . S
C590 O594 1.262 . S
C590 O595 1.245 . S
O591 Zn560 1.945 . S
O591 C584 1.262 . S
O592 Zn549 1.981 . S
O592 C584 1.245 . S
C593 O575 1.245 . S
C593 O576 1.263 . S
O594 Zn565 1.945 . S
O594 C590 1.262 . S
O595 Zn554 1.981 . S
O595 C590 1.245 . S
C596 O577 1.276 . S
C596 O597 1.246 . S
O597 C596 1.246 . S
C598 O579 1.276 . S
C598 O599 1.246 . S
O599 C598 1.246 . S
H600 C612 0.930 . S
H601 C614 0.930 . S
H602 C615 0.930 . S
H603 C619 0.959 . S
H604 C619 0.959 . S
H605 C619 0.961 . S
H606 C620 0.960 . S
H607 C620 0.961 . S
H608 C620 0.959 . S
H609 C623 0.929 . S
H610 C624 0.931 . S
H611 C626 0.930 . S
C612 H600 0.930 . S
C612 C613 1.399 . S
C612 C617 1.399 . S
C613 C612 1.399 . S
C613 C614 1.376 . S
C614 H601 0.930 . S
C614 C613 1.376 . S
C614 C615 1.388 . S
C615 H602 0.930 . S
C615 C614 1.388 . S
C615 C616 1.390 . S
C616 C615 1.390 . S
C616 C617 1.394 . S
C616 C622 1.465 . S
C617 C612 1.399 . S
C617 C616 1.394 . S
C617 C618 1.516 . S
C618 C617 1.516 . S
C618 C619 1.502 . S
C618 C620 1.561 . S
C618 C621 1.526 . S
C619 H603 0.959 . S
C619 H604 0.959 . S
C619 H605 0.961 . S
C619 C618 1.502 . S
C620 H606 0.960 . S
C620 H607 0.961 . S
C620 H608 0.959 . S
C620 C618 1.561 . S
C621 C618 1.526 . S
C621 C622 1.396 . S
C621 C626 1.390 . S
C622 C616 1.465 . S
C622 C621 1.396 . S
C622 C623 1.399 . S
C623 H609 0.929 . S
C623 C622 1.399 . S
C623 C624 1.385 . S
C624 H610 0.931 . S
C624 C623 1.385 . S
C624 C625 1.389 . S
C625 C624 1.389 . S
C625 C626 1.387 . S
C626 H611 0.930 . S
C626 C621 1.390 . S
C626 C625 1.387 . S
H627 C639 0.930 . S
H628 C641 0.930 . S
H629 C642 0.930 . S
H630 C646 0.959 . S
H631 C646 0.959 . S
H632 C646 0.961 . S
H633 C647 0.960 . S
H634 C647 0.961 . S
H635 C647 0.959 . S
H636 C650 0.929 . S
H637 C651 0.931 . S
H638 C653 0.930 . S
C639 H627 0.930 . S
C639 C640 1.399 . S
C639 C644 1.399 . S
C640 C639 1.399 . S
C640 C641 1.376 . S
C641 H628 0.930 . S
C641 C640 1.376 . S
C641 C642 1.388 . S
C642 H629 0.930 . S
C642 C641 1.388 . S
C642 C643 1.390 . S
C643 C642 1.390 . S
C643 C644 1.394 . S
C643 C649 1.465 . S
C644 C639 1.399 . S
C644 C643 1.394 . S
C644 C645 1.516 . S
C645 C644 1.516 . S
C645 C646 1.502 . S
C645 C647 1.561 . S
C645 C648 1.526 . S
C646 H630 0.959 . S
C646 H631 0.959 . S
C646 H632 0.961 . S
C646 C645 1.502 . S
C647 H633 0.960 . S
C647 H634 0.961 . S
C647 H635 0.959 . S
C647 C645 1.561 . S
C648 C645 1.526 . S
C648 C649 1.396 . S
C648 C653 1.390 . S
C649 C643 1.465 . S
C649 C648 1.396 . S
C649 C650 1.399 . S
C650 H636 0.929 . S
C650 C649 1.399 . S
C650 C651 1.385 . S
C651 H637 0.931 . S
C651 C650 1.385 . S
C651 C652 1.389 . S
C652 C651 1.389 . S
C652 C653 1.387 . S
C653 H638 0.930 . S
C653 C648 1.390 . S
C653 C652 1.387 . S
H654 C666 0.930 . S
H655 C668 0.930 . S
H656 C669 0.930 . S
H657 C673 0.959 . S
H658 C673 0.959 . S
H659 C673 0.961 . S
H660 C674 0.960 . S
H661 C674 0.961 . S
H662 C674 0.959 . S
H663 C677 0.929 . S
H664 C678 0.931 . S
H665 C680 0.930 . S
C666 H654 0.930 . S
C666 C667 1.399 . S
C666 C671 1.399 . S
C667 C666 1.399 . S
C667 C668 1.376 . S
C668 H655 0.930 . S
C668 C667 1.376 . S
C668 C669 1.388 . S
C669 H656 0.930 . S
C669 C668 1.388 . S
C669 C670 1.390 . S
C670 C669 1.390 . S
C670 C671 1.394 . S
C670 C676 1.465 . S
C671 C666 1.399 . S
C671 C670 1.394 . S
C671 C672 1.516 . S
C672 C671 1.516 . S
C672 C673 1.502 . S
C672 C674 1.561 . S
C672 C675 1.526 . S
C673 H657 0.959 . S
C673 H658 0.959 . S
C673 H659 0.961 . S
C673 C672 1.502 . S
C674 H660 0.960 . S
C674 H661 0.961 . S
C674 H662 0.959 . S
C674 C672 1.561 . S
C675 C672 1.526 . S
C675 C676 1.396 . S
C675 C680 1.390 . S
C676 C670 1.465 . S
C676 C675 1.396 . S
C676 C677 1.399 . S
C677 H663 0.929 . S
C677 C676 1.399 . S
C677 C678 1.385 . S
C678 H664 0.931 . S
C678 C677 1.385 . S
C678 C679 1.389 . S
C679 C678 1.389 . S
C679 C680 1.387 . S
C680 H665 0.930 . S
C680 C675 1.390 . S
C680 C679 1.387 . S
H681 C693 0.930 . S
H682 C695 0.930 . S
H683 C696 0.930 . S
H684 C700 0.959 . S
H685 C700 0.959 . S
H686 C700 0.961 . S
H687 C701 0.960 . S
H688 C701 0.961 . S
H689 C701 0.959 . S
H690 C704 0.929 . S
H691 C705 0.931 . S
H692 C707 0.930 . S
C693 H681 0.930 . S
C693 C694 1.399 . S
C693 C698 1.399 . S
C694 C693 1.399 . S
C694 C695 1.376 . S
C695 H682 0.930 . S
C695 C694 1.376 . S
C695 C696 1.388 . S
C696 H683 0.930 . S
C696 C695 1.388 . S
C696 C697 1.390 . S
C697 C696 1.390 . S
C697 C698 1.394 . S
C697 C703 1.465 . S
C698 C693 1.399 . S
C698 C697 1.394 . S
C698 C699 1.516 . S
C699 C698 1.516 . S
C699 C700 1.502 . S
C699 C701 1.561 . S
C699 C702 1.526 . S
C700 H684 0.959 . S
C700 H685 0.959 . S
C700 H686 0.961 . S
C700 C699 1.502 . S
C701 H687 0.960 . S
C701 H688 0.961 . S
C701 H689 0.959 . S
C701 C699 1.561 . S
C702 C699 1.526 . S
C702 C703 1.396 . S
C702 C707 1.390 . S
C703 C697 1.465 . S
C703 C702 1.396 . S
C703 C704 1.399 . S
C704 H690 0.929 . S
C704 C703 1.399 . S
C704 C705 1.385 . S
C705 H691 0.931 . S
C705 C704 1.385 . S
C705 C706 1.389 . S
C706 C705 1.389 . S
C706 C707 1.387 . S
C707 H692 0.930 . S
C707 C702 1.390 . S
C707 C706 1.387 . S
H708 C720 0.930 . S
H709 C722 0.930 . S
H710 C723 0.930 . S
H711 C727 0.959 . S
H712 C727 0.959 . S
H713 C727 0.961 . S
H714 C728 0.960 . S
H715 C728 0.961 . S
H716 C728 0.959 . S
H717 C731 0.929 . S
H718 C732 0.931 . S
H719 C734 0.930 . S
C720 H708 0.930 . S
C720 C721 1.399 . S
C720 C725 1.399 . S
C721 C720 1.399 . S
C721 C722 1.376 . S
C722 H709 0.930 . S
C722 C721 1.376 . S
C722 C723 1.388 . S
C723 H710 0.930 . S
C723 C722 1.388 . S
C723 C724 1.390 . S
C724 C723 1.390 . S
C724 C725 1.394 . S
C724 C730 1.465 . S
C725 C720 1.399 . S
C725 C724 1.394 . S
C725 C726 1.516 . S
C726 C725 1.516 . S
C726 C727 1.502 . S
C726 C728 1.561 . S
C726 C729 1.526 . S
C727 H711 0.959 . S
C727 H712 0.959 . S
C727 H713 0.961 . S
C727 C726 1.502 . S
C728 H714 0.960 . S
C728 H715 0.961 . S
C728 H716 0.959 . S
C728 C726 1.561 . S
C729 C726 1.526 . S
C729 C730 1.396 . S
C729 C734 1.390 . S
C730 C724 1.465 . S
C730 C729 1.396 . S
C730 C731 1.399 . S
C731 H717 0.929 . S
C731 C730 1.399 . S
C731 C732 1.385 . S
C732 H718 0.931 . S
C732 C731 1.385 . S
C732 C733 1.389 . S
C733 C732 1.389 . S
C733 C734 1.387 . S
C734 H719 0.930 . S
C734 C729 1.390 . S
C734 C733 1.387 . S
H735 C747 0.930 . S
H736 C749 0.930 . S
H737 C750 0.930 . S
H738 C754 0.959 . S
H739 C754 0.959 . S
H740 C754 0.961 . S
H741 C755 0.960 . S
H742 C755 0.961 . S
H743 C755 0.959 . S
H744 C758 0.929 . S
H745 C759 0.931 . S
H746 C761 0.930 . S
C747 H735 0.930 . S
C747 C748 1.399 . S
C747 C752 1.399 . S
C748 C747 1.399 . S
C748 C749 1.376 . S
C749 H736 0.930 . S
C749 C748 1.376 . S
C749 C750 1.388 . S
C750 H737 0.930 . S
C750 C749 1.388 . S
C750 C751 1.390 . S
C751 C750 1.390 . S
C751 C752 1.394 . S
C751 C757 1.465 . S
C752 C747 1.399 . S
C752 C751 1.394 . S
C752 C753 1.516 . S
C753 C752 1.516 . S
C753 C754 1.502 . S
C753 C755 1.561 . S
C753 C756 1.526 . S
C754 H738 0.959 . S
C754 H739 0.959 . S
C754 H740 0.961 . S
C754 C753 1.502 . S
C755 H741 0.960 . S
C755 H742 0.961 . S
C755 H743 0.959 . S
C755 C753 1.561 . S
C756 C753 1.526 . S
C756 C757 1.396 . S
C756 C761 1.390 . S
C757 C751 1.465 . S
C757 C756 1.396 . S
C757 C758 1.399 . S
C758 H744 0.929 . S
C758 C757 1.399 . S
C758 C759 1.385 . S
C759 H745 0.931 . S
C759 C758 1.385 . S
C759 C760 1.389 . S
C760 C759 1.389 . S
C760 C761 1.387 . S
C761 H746 0.930 . S
C761 C756 1.390 . S
C761 C760 1.387 . S
H762 C774 0.930 . S
H763 C776 0.930 . S
H764 C777 0.930 . S
H765 C781 0.959 . S
H766 C781 0.959 . S
H767 C781 0.961 . S
H768 C782 0.960 . S
H769 C782 0.961 . S
H770 C782 0.959 . S
H771 C785 0.929 . S
H772 C786 0.931 . S
H773 C788 0.930 . S
C774 H762 0.930 . S
C774 C775 1.399 . S
C774 C779 1.399 . S
C775 C774 1.399 . S
C775 C776 1.376 . S
C776 H763 0.930 . S
C776 C775 1.376 . S
C776 C777 1.388 . S
C777 H764 0.930 . S
C777 C776 1.388 . S
C777 C778 1.390 . S
C778 C777 1.390 . S
C778 C779 1.394 . S
C778 C784 1.465 . S
C779 C774 1.399 . S
C779 C778 1.394 . S
C779 C780 1.516 . S
C780 C779 1.516 . S
C780 C781 1.502 . S
C780 C782 1.561 . S
C780 C783 1.526 . S
C781 H765 0.959 . S
C781 H766 0.959 . S
C781 H767 0.961 . S
C781 C780 1.502 . S
C782 H768 0.960 . S
C782 H769 0.961 . S
C782 H770 0.959 . S
C782 C780 1.561 . S
C783 C780 1.526 . S
C783 C784 1.396 . S
C783 C788 1.390 . S
C784 C778 1.465 . S
C784 C783 1.396 . S
C784 C785 1.399 . S
C785 H771 0.929 . S
C785 C784 1.399 . S
C785 C786 1.385 . S
C786 H772 0.931 . S
C786 C785 1.385 . S
C786 C787 1.389 . S
C787 C786 1.389 . S
C787 C788 1.387 . S
C788 H773 0.930 . S
C788 C783 1.390 . S
C788 C787 1.387 . S
H789 C801 0.930 . S
H790 C803 0.930 . S
H791 C804 0.930 . S
H792 C808 0.959 . S
H793 C808 0.959 . S
H794 C808 0.961 . S
H795 C809 0.960 . S
H796 C809 0.961 . S
H797 C809 0.959 . S
H798 C812 0.929 . S
H799 C813 0.931 . S
H800 C815 0.930 . S
C801 H789 0.930 . S
C801 C802 1.399 . S
C801 C806 1.399 . S
C802 C801 1.399 . S
C802 C803 1.376 . S
C803 H790 0.930 . S
C803 C802 1.376 . S
C803 C804 1.388 . S
C804 H791 0.930 . S
C804 C803 1.388 . S
C804 C805 1.390 . S
C805 C804 1.390 . S
C805 C806 1.394 . S
C805 C811 1.465 . S
C806 C801 1.399 . S
C806 C805 1.394 . S
C806 C807 1.516 . S
C807 C806 1.516 . S
C807 C808 1.502 . S
C807 C809 1.561 . S
C807 C810 1.526 . S
C808 H792 0.959 . S
C808 H793 0.959 . S
C808 H794 0.961 . S
C808 C807 1.502 . S
C809 H795 0.960 . S
C809 H796 0.961 . S
C809 H797 0.959 . S
C809 C807 1.561 . S
C810 C807 1.526 . S
C810 C811 1.396 . S
C810 C815 1.390 . S
C811 C805 1.465 . S
C811 C810 1.396 . S
C811 C812 1.399 . S
C812 H798 0.929 . S
C812 C811 1.399 . S
C812 C813 1.385 . S
C813 H799 0.931 . S
C813 C812 1.385 . S
C813 C814 1.389 . S
C814 C813 1.389 . S
C814 C815 1.387 . S
C815 H800 0.930 . S
C815 C810 1.390 . S
C815 C814 1.387 . S
H816 C828 0.930 . S
H817 C830 0.930 . S
H818 C831 0.930 . S
H819 C835 0.959 . S
H820 C835 0.959 . S
H821 C835 0.961 . S
H822 C836 0.960 . S
H823 C836 0.961 . S
H824 C836 0.959 . S
H825 C839 0.929 . S
H826 C840 0.931 . S
H827 C842 0.930 . S
C828 H816 0.930 . S
C828 C829 1.399 . S
C828 C833 1.399 . S
C829 C828 1.399 . S
C829 C830 1.376 . S
C830 H817 0.930 . S
C830 C829 1.376 . S
C830 C831 1.388 . S
C831 H818 0.930 . S
C831 C830 1.388 . S
C831 C832 1.390 . S
C832 C831 1.390 . S
C832 C833 1.394 . S
C832 C838 1.465 . S
C833 C828 1.399 . S
C833 C832 1.394 . S
C833 C834 1.516 . S
C834 C833 1.516 . S
C834 C835 1.502 . S
C834 C836 1.561 . S
C834 C837 1.526 . S
C835 H819 0.959 . S
C835 H820 0.959 . S
C835 H821 0.961 . S
C835 C834 1.502 . S
C836 H822 0.960 . S
C836 H823 0.961 . S
C836 H824 0.959 . S
C836 C834 1.561 . S
C837 C834 1.526 . S
C837 C838 1.396 . S
C837 C842 1.390 . S
C838 C832 1.465 . S
C838 C837 1.396 . S
C838 C839 1.399 . S
C839 H825 0.929 . S
C839 C838 1.399 . S
C839 C840 1.385 . S
C840 H826 0.931 . S
C840 C839 1.385 . S
C840 C841 1.389 . S
C841 C840 1.389 . S
C841 C842 1.387 . S
C842 H827 0.930 . S
C842 C837 1.390 . S
C842 C841 1.387 . S
H843 C855 0.930 . S
H844 C857 0.930 . S
H845 C858 0.930 . S
H846 C862 0.959 . S
H847 C862 0.959 . S
H848 C862 0.961 . S
H849 C863 0.960 . S
H850 C863 0.961 . S
H851 C863 0.959 . S
H852 C866 0.929 . S
H853 C867 0.931 . S
H854 C869 0.930 . S
C855 H843 0.930 . S
C855 C856 1.399 . S
C855 C860 1.399 . S
C856 C855 1.399 . S
C856 C857 1.376 . S
C857 H844 0.930 . S
C857 C856 1.376 . S
C857 C858 1.388 . S
C858 H845 0.930 . S
C858 C857 1.388 . S
C858 C859 1.390 . S
C859 C858 1.390 . S
C859 C860 1.394 . S
C859 C865 1.465 . S
C860 C855 1.399 . S
C860 C859 1.394 . S
C860 C861 1.516 . S
C861 C860 1.516 . S
C861 C862 1.502 . S
C861 C863 1.561 . S
C861 C864 1.526 . S
C862 H846 0.959 . S
C862 H847 0.959 . S
C862 H848 0.961 . S
C862 C861 1.502 . S
C863 H849 0.960 . S
C863 H850 0.961 . S
C863 H851 0.959 . S
C863 C861 1.561 . S
C864 C861 1.526 . S
C864 C865 1.396 . S
C864 C869 1.390 . S
C865 C859 1.465 . S
C865 C864 1.396 . S
C865 C866 1.399 . S
C866 H852 0.929 . S
C866 C865 1.399 . S
C866 C867 1.385 . S
C867 H853 0.931 . S
C867 C866 1.385 . S
C867 C868 1.389 . S
C868 C867 1.389 . S
C868 C869 1.387 . S
C869 H854 0.930 . S
C869 C864 1.390 . S
C869 C868 1.387 . S
H870 C882 0.930 . S
H871 C884 0.930 . S
H872 C885 0.930 . S
H873 C889 0.959 . S
H874 C889 0.959 . S
H875 C889 0.961 . S
H876 C890 0.960 . S
H877 C890 0.961 . S
H878 C890 0.959 . S
H879 C893 0.929 . S
H880 C894 0.931 . S
H881 C896 0.930 . S
C882 H870 0.930 . S
C882 C883 1.399 . S
C882 C887 1.399 . S
C883 C882 1.399 . S
C883 C884 1.376 . S
C884 H871 0.930 . S
C884 C883 1.376 . S
C884 C885 1.388 . S
C885 H872 0.930 . S
C885 C884 1.388 . S
C885 C886 1.390 . S
C886 C885 1.390 . S
C886 C887 1.394 . S
C886 C892 1.465 . S
C887 C882 1.399 . S
C887 C886 1.394 . S
C887 C888 1.516 . S
C888 C887 1.516 . S
C888 C889 1.502 . S
C888 C890 1.561 . S
C888 C891 1.526 . S
C889 H873 0.959 . S
C889 H874 0.959 . S
C889 H875 0.961 . S
C889 C888 1.502 . S
C890 H876 0.960 . S
C890 H877 0.961 . S
C890 H878 0.959 . S
C890 C888 1.561 . S
C891 C888 1.526 . S
C891 C892 1.396 . S
C891 C896 1.390 . S
C892 C886 1.465 . S
C892 C891 1.396 . S
C892 C893 1.399 . S
C893 H879 0.929 . S
C893 C892 1.399 . S
C893 C894 1.385 . S
C894 H880 0.931 . S
C894 C893 1.385 . S
C894 C895 1.389 . S
C895 C894 1.389 . S
C895 C896 1.387 . S
C896 H881 0.930 . S
C896 C891 1.390 . S
C896 C895 1.387 . S
H897 C909 0.930 . S
H898 C911 0.930 . S
H899 C912 0.930 . S
H900 C916 0.959 . S
H901 C916 0.959 . S
H902 C916 0.961 . S
H903 C917 0.960 . S
H904 C917 0.961 . S
H905 C917 0.959 . S
H906 C920 0.929 . S
H907 C921 0.931 . S
H908 C923 0.930 . S
C909 H897 0.930 . S
C909 C910 1.399 . S
C909 C914 1.399 . S
C910 C909 1.399 . S
C910 C911 1.376 . S
C911 H898 0.930 . S
C911 C910 1.376 . S
C911 C912 1.388 . S
C912 H899 0.930 . S
C912 C911 1.388 . S
C912 C913 1.390 . S
C913 C912 1.390 . S
C913 C914 1.394 . S
C913 C919 1.465 . S
C914 C909 1.399 . S
C914 C913 1.394 . S
C914 C915 1.516 . S
C915 C914 1.516 . S
C915 C916 1.502 . S
C915 C917 1.561 . S
C915 C918 1.526 . S
C916 H900 0.959 . S
C916 H901 0.959 . S
C916 H902 0.961 . S
C916 C915 1.502 . S
C917 H903 0.960 . S
C917 H904 0.961 . S
C917 H905 0.959 . S
C917 C915 1.561 . S
C918 C915 1.526 . S
C918 C919 1.396 . S
C918 C923 1.390 . S
C919 C913 1.465 . S
C919 C918 1.396 . S
C919 C920 1.399 . S
C920 H906 0.929 . S
C920 C919 1.399 . S
C920 C921 1.385 . S
C921 H907 0.931 . S
C921 C920 1.385 . S
C921 C922 1.389 . S
C922 C921 1.389 . S
C922 C923 1.387 . S
C923 H908 0.930 . S
C923 C918 1.390 . S
C923 C922 1.387 . S
H924 C936 0.930 . S
H925 C938 0.930 . S
H926 C939 0.930 . S
H927 C943 0.959 . S
H928 C943 0.959 . S
H929 C943 0.961 . S
H930 C944 0.960 . S
H931 C944 0.961 . S
H932 C944 0.959 . S
H933 C947 0.929 . S
H934 C948 0.931 . S
H935 C950 0.930 . S
C936 H924 0.930 . S
C936 C937 1.399 1_556 S
C936 C941 1.399 . S
C937 C936 1.399 1_554 S
C937 C938 1.376 . S
C938 H925 0.930 . S
C938 C937 1.376 . S
C938 C939 1.388 . S
C939 H926 0.930 . S
C939 C938 1.388 . S
C939 C940 1.390 . S
C940 C939 1.390 . S
C940 C941 1.394 1_554 S
C940 C946 1.465 . S
C941 C936 1.399 . S
C941 C940 1.394 1_556 S
C941 C942 1.516 . S
C942 C941 1.516 . S
C942 C943 1.502 . S
C942 C944 1.561 . S
C942 C945 1.526 . S
C943 H927 0.959 . S
C943 H928 0.959 . S
C943 H929 0.961 . S
C943 C942 1.502 . S
C944 H930 0.960 . S
C944 H931 0.961 . S
C944 H932 0.959 . S
C944 C942 1.561 . S
C945 C942 1.526 . S
C945 C946 1.396 1_556 S
C945 C950 1.390 . S
C946 C940 1.465 . S
C946 C945 1.396 1_554 S
C946 C947 1.399 . S
C947 H933 0.929 . S
C947 C946 1.399 . S
C947 C948 1.385 . S
C948 H934 0.931 . S
C948 C947 1.385 . S
C948 C949 1.389 . S
C949 C948 1.389 . S
C949 C950 1.387 1_554 S
C950 H935 0.930 . S
C950 C945 1.390 . S
C950 C949 1.387 1_556 S
H951 C963 0.930 . S
H952 C965 0.930 . S
H953 C966 0.930 . S
H954 C970 0.959 . S
H955 C970 0.959 . S
H956 C970 0.961 . S
H957 C971 0.960 . S
H958 C971 0.961 . S
H959 C971 0.959 . S
H960 C974 0.929 . S
H961 C975 0.931 . S
H962 C977 0.930 . S
C963 H951 0.930 . S
C963 C964 1.399 . S
C963 C968 1.399 . S
C964 C963 1.399 . S
C964 C965 1.376 1_554 S
C965 H952 0.930 . S
C965 C964 1.376 1_556 S
C965 C966 1.388 . S
C966 H953 0.930 . S
C966 C965 1.388 . S
C966 C967 1.387 1_556 S
C967 C966 1.387 1_554 S
C967 C968 1.397 . S
C967 C973 1.465 1_554 S
C968 C963 1.399 . S
C968 C967 1.397 . S
C968 C969 1.516 . S
C969 C968 1.516 . S
C969 C970 1.502 . S
C969 C971 1.561 . S
C969 C972 1.526 . S
C970 H954 0.959 . S
C970 H955 0.959 . S
C970 H956 0.961 . S
C970 C969 1.502 . S
C971 H957 0.960 . S
C971 H958 0.961 . S
C971 H959 0.959 . S
C971 C969 1.561 . S
C972 C969 1.526 . S
C972 C973 1.374 1_554 S
C972 C977 1.390 . S
C973 C967 1.465 1_556 S
C973 C972 1.374 1_556 S
C973 C974 1.417 . S
C974 H960 0.929 . S
C974 C973 1.417 . S
C974 C975 1.385 . S
C975 H961 0.931 . S
C975 C974 1.385 . S
C975 C976 1.389 1_556 S
C976 C975 1.389 1_554 S
C976 C977 1.387 . S
C977 H962 0.930 . S
C977 C972 1.390 . S
C977 C976 1.387 . S
H978 C990 0.930 . S
H979 C992 0.930 . S
H980 C993 0.930 . S
H981 C997 0.959 . S
H982 C997 0.959 . S
H983 C997 0.961 . S
H984 C998 0.960 . S
H985 C998 0.961 . S
H986 C998 0.959 . S
H987 C1001 0.929 . S
H988 C1002 0.931 . S
H989 C1004 0.930 . S
C990 H978 0.930 . S
C990 C991 1.399 . S
C990 C995 1.399 . S
C991 C990 1.399 . S
C991 C992 1.376 1_554 S
C992 H979 0.930 . S
C992 C991 1.376 1_556 S
C992 C993 1.388 . S
C993 H980 0.930 . S
C993 C992 1.388 . S
C993 C994 1.390 1_556 S
C994 C993 1.390 1_554 S
C994 C995 1.394 . S
C994 C1000 1.465 . S
C995 C990 1.399 . S
C995 C994 1.394 . S
C995 C996 1.516 . S
C996 C995 1.516 . S
C996 C997 1.502 . S
C996 C998 1.561 . S
C996 C999 1.526 . S
C997 H981 0.959 . S
C997 H982 0.959 . S
C997 H983 0.961 . S
C997 C996 1.502 . S
C998 H984 0.960 . S
C998 H985 0.961 . S
C998 H986 0.959 . S
C998 C996 1.561 . S
C999 C996 1.526 . S
C999 C1000 1.396 . S
C999 C1004 1.390 . S
C1000 C994 1.465 . S
C1000 C999 1.396 . S
C1000 C1001 1.399 1_554 S
C1001 H987 0.929 . S
C1001 C1000 1.399 1_556 S
C1001 C1002 1.385 . S
C1002 H988 0.931 . S
C1002 C1001 1.385 . S
C1002 C1003 1.389 1_556 S
C1003 C1002 1.389 1_554 S
C1003 C1004 1.387 . S
C1004 H989 0.930 . S
C1004 C999 1.390 . S
C1004 C1003 1.387 . S
H1005 C1017 0.930 . S
H1006 C1019 0.930 . S
H1007 C1020 0.930 . S
H1008 C1024 0.959 . S
H1009 C1024 0.959 . S
H1010 C1024 0.961 . S
H1011 C1025 0.960 . S
H1012 C1025 0.961 . S
H1013 C1025 0.959 . S
H1014 C1028 0.929 . S
H1015 C1029 0.931 . S
H1016 C1031 0.930 . S
C1017 H1005 0.930 . S
C1017 C1018 1.399 . S
C1017 C1022 1.399 . S
C1018 C1017 1.399 . S
C1018 C1019 1.376 1_554 S
C1019 H1006 0.930 . S
C1019 C1018 1.376 1_556 S
C1019 C1020 1.388 . S
C1020 H1007 0.930 . S
C1020 C1019 1.388 . S
C1020 C1021 1.390 . S
C1021 C1020 1.390 . S
C1021 C1022 1.394 1_556 S
C1021 C1027 1.465 . S
C1022 C1017 1.399 . S
C1022 C1021 1.394 1_554 S
C1022 C1023 1.516 . S
C1023 C1022 1.516 . S
C1023 C1024 1.502 . S
C1023 C1025 1.561 . S
C1023 C1026 1.526 . S
C1024 H1008 0.959 . S
C1024 H1009 0.959 . S
C1024 H1010 0.961 . S
C1024 C1023 1.502 . S
C1025 H1011 0.960 . S
C1025 H1012 0.961 . S
C1025 H1013 0.959 . S
C1025 C1023 1.561 . S
C1026 C1023 1.526 . S
C1026 C1027 1.396 1_554 S
C1026 C1031 1.390 . S
C1027 C1021 1.465 . S
C1027 C1026 1.396 1_556 S
C1027 C1028 1.399 . S
C1028 H1014 0.929 . S
C1028 C1027 1.399 . S
C1028 C1029 1.385 . S
C1029 H1015 0.931 . S
C1029 C1028 1.385 . S
C1029 C1030 1.389 1_556 S
C1030 C1029 1.389 1_554 S
C1030 C1031 1.387 . S
C1031 H1016 0.930 . S
C1031 C1026 1.390 . S
C1031 C1030 1.387 . S
H1032 C1044 0.930 . S
H1033 C1046 0.930 . S
H1034 C1047 0.930 . S
H1035 C1051 0.959 . S
H1036 C1051 0.959 . S
H1037 C1051 0.961 . S
H1038 C1052 0.960 . S
H1039 C1052 0.961 . S
H1040 C1052 0.959 . S
H1041 C1055 0.929 . S
H1042 C1056 0.927 1_655 S
H1043 C1058 0.930 . S
C1044 H1032 0.930 . S
C1044 C1045 1.396 1_455 S
C1044 C1049 1.399 . S
C1045 C1044 1.396 1_655 S
C1045 C1046 1.380 . S
C1046 H1033 0.930 . S
C1046 C1045 1.380 . S
C1046 C1047 1.388 . S
C1047 H1034 0.930 . S
C1047 C1046 1.388 . S
C1047 C1048 1.390 . S
C1048 C1047 1.390 . S
C1048 C1049 1.394 1_655 S
C1048 C1054 1.463 1_655 S
C1049 C1044 1.399 . S
C1049 C1048 1.394 1_455 S
C1049 C1050 1.516 . S
C1050 C1049 1.516 . S
C1050 C1051 1.502 . S
C1050 C1052 1.561 1_455 S
C1050 C1053 1.526 . S
C1051 H1035 0.959 . S
C1051 H1036 0.959 . S
C1051 H1037 0.961 . S
C1051 C1050 1.502 . S
C1052 H1038 0.960 . S
C1052 H1039 0.961 . S
C1052 H1040 0.959 . S
C1052 C1050 1.561 1_655 S
C1053 C1050 1.526 . S
C1053 C1054 1.404 . S
C1053 C1058 1.390 . S
C1054 C1048 1.463 1_455 S
C1054 C1053 1.404 . S
C1054 C1055 1.395 1_455 S
C1055 H1041 0.929 . S
C1055 C1054 1.395 1_655 S
C1055 C1056 1.385 1_655 S
C1056 H1042 0.927 1_455 S
C1056 C1055 1.385 1_455 S
C1056 C1057 1.389 . S
C1057 C1056 1.389 . S
C1057 C1058 1.387 . S
C1058 H1043 0.930 . S
C1058 C1053 1.390 . S
C1058 C1057 1.387 . S
H1059 C1071 0.930 . S
H1060 C1073 0.930 . S
H1061 C1074 0.930 . S
H1062 C1078 0.959 . S
H1063 C1078 0.959 . S
H1064 C1078 0.961 . S
H1065 C1079 0.960 . S
H1066 C1079 0.961 . S
H1067 C1079 0.959 . S
H1068 C1082 0.929 . S
H1069 C1083 0.931 . S
H1070 C1085 0.930 . S
C1071 H1059 0.930 . S
C1071 C1072 1.399 1_565 S
C1071 C1076 1.399 . S
C1072 C1071 1.399 1_545 S
C1072 C1073 1.376 . S
C1073 H1060 0.930 . S
C1073 C1072 1.376 . S
C1073 C1074 1.388 . S
C1074 H1061 0.930 . S
C1074 C1073 1.388 . S
C1074 C1075 1.390 . S
C1075 C1074 1.390 . S
C1075 C1076 1.394 1_545 S
C1075 C1081 1.465 . S
C1076 C1071 1.399 . S
C1076 C1075 1.394 1_565 S
C1076 C1077 1.516 . S
C1077 C1076 1.516 . S
C1077 C1078 1.502 . S
C1077 C1079 1.561 . S
C1077 C1080 1.526 1_565 S
C1078 H1062 0.959 . S
C1078 H1063 0.959 . S
C1078 H1064 0.961 . S
C1078 C1077 1.502 . S
C1079 H1065 0.960 . S
C1079 H1066 0.961 . S
C1079 H1067 0.959 . S
C1079 C1077 1.561 . S
C1080 C1077 1.526 1_545 S
C1080 C1081 1.396 . S
C1080 C1085 1.390 1_545 S
C1081 C1075 1.465 . S
C1081 C1080 1.396 . S
C1081 C1082 1.399 . S
C1082 H1068 0.929 . S
C1082 C1081 1.399 . S
C1082 C1083 1.385 . S
C1083 H1069 0.931 . S
C1083 C1082 1.385 . S
C1083 C1084 1.389 . S
C1084 C1083 1.389 . S
C1084 C1085 1.387 1_545 S
C1085 H1070 0.930 . S
C1085 C1080 1.390 1_565 S
C1085 C1084 1.387 1_565 S
H1086 C1098 0.930 . S
H1087 C1100 0.930 . S
H1088 C1101 0.930 . S
H1089 C1105 0.959 . S
H1090 C1105 0.959 . S
H1091 C1105 0.961 . S
H1092 C1106 0.960 . S
H1093 C1106 0.961 . S
H1094 C1106 0.959 . S
H1095 C1109 0.929 . S
H1096 C1110 0.931 . S
H1097 C1112 0.930 . S
C1098 H1086 0.930 . S
C1098 C1099 1.399 . S
C1098 C1103 1.399 . S
C1099 C1098 1.399 . S
C1099 C1100 1.376 . S
C1100 H1087 0.930 . S
C1100 C1099 1.376 . S
C1100 C1101 1.388 . S
C1101 H1088 0.930 . S
C1101 C1100 1.388 . S
C1101 C1102 1.390 . S
C1102 C1101 1.390 . S
C1102 C1103 1.394 . S
C1102 C1108 1.465 . S
C1103 C1098 1.399 . S
C1103 C1102 1.394 . S
C1103 C1104 1.516 . S
C1104 C1103 1.516 . S
C1104 C1105 1.502 1_455 S
C1104 C1106 1.561 . S
C1104 C1107 1.526 . S
C1105 H1089 0.959 . S
C1105 H1090 0.959 . S
C1105 H1091 0.961 . S
C1105 C1104 1.502 1_655 S
C1106 H1092 0.960 . S
C1106 H1093 0.961 . S
C1106 H1094 0.959 . S
C1106 C1104 1.561 . S
C1107 C1104 1.526 . S
C1107 C1108 1.396 . S
C1107 C1112 1.390 . S
C1108 C1102 1.465 . S
C1108 C1107 1.396 . S
C1108 C1109 1.399 . S
C1109 H1095 0.929 . S
C1109 C1108 1.399 . S
C1109 C1110 1.385 . S
C1110 H1096 0.931 . S
C1110 C1109 1.385 . S
C1110 C1111 1.389 . S
C1111 C1110 1.389 . S
C1111 C1112 1.387 . S
C1112 H1097 0.930 . S
C1112 C1107 1.390 . S
C1112 C1111 1.387 . S
H1113 C1125 0.935 . S
H1114 C1127 0.930 . S
H1115 C1128 0.930 . S
H1116 C1132 0.959 1_545 S
H1117 C1132 0.959 . S
H1118 C1132 0.961 . S
H1119 C1133 0.960 . S
H1120 C1133 0.961 . S
H1121 C1133 0.959 . S
H1122 C1136 0.929 . S
H1123 C1137 0.931 . S
H1124 C1139 0.930 1_565 S
C1125 H1113 0.935 . S
C1125 C1126 1.399 . S
C1125 C1130 1.399 . S
C1126 C1125 1.399 . S
C1126 C1127 1.376 . S
C1127 H1114 0.930 . S
C1127 C1126 1.376 . S
C1127 C1128 1.388 . S
C1128 H1115 0.930 . S
C1128 C1127 1.388 . S
C1128 C1129 1.390 . S
C1129 C1128 1.390 . S
C1129 C1130 1.394 . S
C1129 C1135 1.465 . S
C1130 C1125 1.399 . S
C1130 C1129 1.394 . S
C1130 C1131 1.516 1_545 S
C1131 C1130 1.516 1_565 S
C1131 C1132 1.502 . S
C1131 C1133 1.561 . S
C1131 C1134 1.526 1_565 S
C1132 H1116 0.959 1_565 S
C1132 H1117 0.959 . S
C1132 H1118 0.961 . S
C1132 C1131 1.502 . S
C1133 H1119 0.960 . S
C1133 H1120 0.961 . S
C1133 H1121 0.959 . S
C1133 C1131 1.561 . S
C1134 C1131 1.526 1_545 S
C1134 C1135 1.396 . S
C1134 C1139 1.390 . S
C1135 C1129 1.465 . S
C1135 C1134 1.396 . S
C1135 C1136 1.399 . S
C1136 H1122 0.929 . S
C1136 C1135 1.399 . S
C1136 C1137 1.385 . S
C1137 H1123 0.931 . S
C1137 C1136 1.385 . S
C1137 C1138 1.389 . S
C1138 C1137 1.389 . S
C1138 C1139 1.387 . S
C1139 H1124 0.930 1_545 S
C1139 C1134 1.390 . S
C1139 C1138 1.387 . S
H1140 C1152 0.930 . S
H1141 C1154 0.930 . S
H1142 C1155 0.930 . S
H1143 C1159 0.959 . S
H1144 C1159 0.959 . S
H1145 C1159 0.961 . S
H1146 C1160 0.960 . S
H1147 C1160 0.961 . S
H1148 C1160 0.959 . S
H1149 C1163 0.929 . S
H1150 C1164 0.931 . S
H1151 C1166 0.930 . S
C1152 H1140 0.930 . S
C1152 C1153 1.399 . S
C1152 C1157 1.399 . S
C1153 C1152 1.399 . S
C1153 C1154 1.376 . S
C1154 H1141 0.930 . S
C1154 C1153 1.376 . S
C1154 C1155 1.388 . S
C1155 H1142 0.930 . S
C1155 C1154 1.388 . S
C1155 C1156 1.390 . S
C1156 C1155 1.390 . S
C1156 C1157 1.394 . S
C1156 C1162 1.465 . S
C1157 C1152 1.399 . S
C1157 C1156 1.394 . S
C1157 C1158 1.516 . S
C1158 C1157 1.516 . S
C1158 C1159 1.502 . S
C1158 C1160 1.561 . S
C1158 C1161 1.526 . S
C1159 H1143 0.959 . S
C1159 H1144 0.959 . S
C1159 H1145 0.961 . S
C1159 C1158 1.502 . S
C1160 H1146 0.960 . S
C1160 H1147 0.961 . S
C1160 H1148 0.959 . S
C1160 C1158 1.561 . S
C1161 C1158 1.526 . S
C1161 C1162 1.396 . S
C1161 C1166 1.390 . S
C1162 C1156 1.465 . S
C1162 C1161 1.396 . S
C1162 C1163 1.399 . S
C1163 H1149 0.929 . S
C1163 C1162 1.399 . S
C1163 C1164 1.385 . S
C1164 H1150 0.931 . S
C1164 C1163 1.385 . S
C1164 C1165 1.389 . S
C1165 C1164 1.389 . S
C1165 C1166 1.387 . S
C1166 H1151 0.930 . S
C1166 C1161 1.390 . S
C1166 C1165 1.387 . S
H1167 C1179 0.930 . S
H1168 C1181 0.930 . S
H1169 C1182 0.930 . S
H1170 C1186 0.959 1_545 S
H1171 C1186 0.959 . S
H1172 C1186 0.961 . S
H1173 C1187 0.960 . S
H1174 C1187 0.961 . S
H1175 C1187 0.959 . S
H1176 C1190 0.929 . S
H1177 C1191 0.931 . S
H1178 C1193 0.930 1_565 S
C1179 H1167 0.930 . S
C1179 C1180 1.399 . S
C1179 C1184 1.399 . S
C1180 C1179 1.399 . S
C1180 C1181 1.376 . S
C1181 H1168 0.930 . S
C1181 C1180 1.376 . S
C1181 C1182 1.388 . S
C1182 H1169 0.930 . S
C1182 C1181 1.388 . S
C1182 C1183 1.390 . S
C1183 C1182 1.390 . S
C1183 C1184 1.394 . S
C1183 C1189 1.465 . S
C1184 C1179 1.399 . S
C1184 C1183 1.394 . S
C1184 C1185 1.534 . S
C1185 C1184 1.534 . S
C1185 C1186 1.493 1_545 S
C1185 C1187 1.541 1_545 S
C1185 C1188 1.539 . S
C1186 H1170 0.959 1_565 S
C1186 H1171 0.959 . S
C1186 H1172 0.961 . S
C1186 C1185 1.493 1_565 S
C1187 H1173 0.960 . S
C1187 H1174 0.961 . S
C1187 H1175 0.959 . S
C1187 C1185 1.541 1_565 S
C1188 C1185 1.539 . S
C1188 C1189 1.396 . S
C1188 C1193 1.390 . S
C1189 C1183 1.465 . S
C1189 C1188 1.396 . S
C1189 C1190 1.399 . S
C1190 H1176 0.929 . S
C1190 C1189 1.399 . S
C1190 C1191 1.385 . S
C1191 H1177 0.931 . S
C1191 C1190 1.385 . S
C1191 C1192 1.389 . S
C1192 C1191 1.389 . S
C1192 C1193 1.387 . S
C1193 H1178 0.930 1_545 S
C1193 C1188 1.390 . S
C1193 C1192 1.387 . S
H1194 C1206 0.930 1_655 S
H1195 C1208 0.930 . S
H1196 C1209 0.930 . S
H1197 C1213 0.959 . S
H1198 C1213 0.959 . S
H1199 C1213 0.961 . S
H1200 C1214 0.960 . S
H1201 C1214 0.961 . S
H1202 C1214 0.959 . S
H1203 C1217 0.929 . S
H1204 C1218 0.931 . S
H1205 C1220 0.930 1_655 S
C1206 H1194 0.930 1_455 S
C1206 C1207 1.399 . S
C1206 C1211 1.399 . S
C1207 C1206 1.399 . S
C1207 C1208 1.376 . S
C1208 H1195 0.930 . S
C1208 C1207 1.376 . S
C1208 C1209 1.388 . S
C1209 H1196 0.930 . S
C1209 C1208 1.388 . S
C1209 C1210 1.390 . S
C1210 C1209 1.390 . S
C1210 C1211 1.394 . S
C1210 C1216 1.465 . S
C1211 C1206 1.399 . S
C1211 C1210 1.394 . S
C1211 C1212 1.516 1_455 S
C1212 C1211 1.516 1_655 S
C1212 C1213 1.502 . S
C1212 C1214 1.561 . S
C1212 C1215 1.526 1_655 S
C1213 H1197 0.959 . S
C1213 H1198 0.959 . S
C1213 H1199 0.961 . S
C1213 C1212 1.502 . S
C1214 H1200 0.960 . S
C1214 H1201 0.961 . S
C1214 H1202 0.959 . S
C1214 C1212 1.561 . S
C1215 C1212 1.526 1_455 S
C1215 C1216 1.396 . S
C1215 C1220 1.390 . S
C1216 C1210 1.465 . S
C1216 C1215 1.396 . S
C1216 C1217 1.399 . S
C1217 H1203 0.929 . S
C1217 C1216 1.399 . S
C1217 C1218 1.385 . S
C1218 H1204 0.931 . S
C1218 C1217 1.385 . S
C1218 C1219 1.389 . S
C1219 C1218 1.389 . S
C1219 C1220 1.387 . S
C1220 H1205 0.930 1_455 S
C1220 C1215 1.390 . S
C1220 C1219 1.387 . S
H1221 C1233 0.930 . S
H1222 C1235 0.930 . S
H1223 C1236 0.930 . S
H1224 C1240 0.959 . S
H1225 C1240 0.959 . S
H1226 C1240 0.961 . S
H1227 C1241 0.960 . S
H1228 C1241 0.961 . S
H1229 C1241 0.959 . S
H1230 C1244 0.929 . S
H1231 C1245 0.931 . S
H1232 C1247 0.930 . S
C1233 H1221 0.930 . S
C1233 C1234 1.399 . S
C1233 C1238 1.399 . S
C1234 C1233 1.399 . S
C1234 C1235 1.376 1_545 S
C1235 H1222 0.930 . S
C1235 C1234 1.376 1_565 S
C1235 C1236 1.388 . S
C1236 H1223 0.930 . S
C1236 C1235 1.388 . S
C1236 C1237 1.390 1_565 S
C1237 C1236 1.390 1_545 S
C1237 C1238 1.394 . S
C1237 C1243 1.465 . S
C1238 C1233 1.399 . S
C1238 C1237 1.394 . S
C1238 C1239 1.516 . S
C1239 C1238 1.516 . S
C1239 C1240 1.502 . S
C1239 C1241 1.561 . S
C1239 C1242 1.526 . S
C1240 H1224 0.959 . S
C1240 H1225 0.959 . S
C1240 H1226 0.961 . S
C1240 C1239 1.502 . S
C1241 H1227 0.960 . S
C1241 H1228 0.961 . S
C1241 H1229 0.959 . S
C1241 C1239 1.561 . S
C1242 C1239 1.526 . S
C1242 C1243 1.396 . S
C1242 C1247 1.390 . S
C1243 C1237 1.465 . S
C1243 C1242 1.396 . S
C1243 C1244 1.399 1_545 S
C1244 H1230 0.929 . S
C1244 C1243 1.399 1_565 S
C1244 C1245 1.385 . S
C1245 H1231 0.931 . S
C1245 C1244 1.385 . S
C1245 C1246 1.389 1_565 S
C1246 C1245 1.389 1_545 S
C1246 C1247 1.387 . S
C1247 H1232 0.930 . S
C1247 C1242 1.390 . S
C1247 C1246 1.387 . S
H1248 C1260 0.930 . S
H1249 C1262 0.930 . S
H1250 C1263 0.930 . S
H1251 C1267 0.959 . S
H1252 C1267 0.959 . S
H1253 C1267 0.961 . S
H1254 C1268 0.960 . S
H1255 C1268 0.961 . S
H1256 C1268 0.959 . S
H1257 C1271 0.929 . S
H1258 C1272 0.931 . S
H1259 C1274 0.927 1_655 S
C1260 H1248 0.930 . S
C1260 C1261 1.399 . S
C1260 C1265 1.399 . S
C1261 C1260 1.399 . S
C1261 C1262 1.376 . S
C1262 H1249 0.930 . S
C1262 C1261 1.376 . S
C1262 C1263 1.388 . S
C1263 H1250 0.930 . S
C1263 C1262 1.388 . S
C1263 C1264 1.390 . S
C1264 C1263 1.390 . S
C1264 C1265 1.394 . S
C1264 C1270 1.465 . S
C1265 C1260 1.399 . S
C1265 C1264 1.394 . S
C1265 C1266 1.516 . S
C1266 C1265 1.516 . S
C1266 C1267 1.502 1_455 S
C1266 C1268 1.561 . S
C1266 C1269 1.526 . S
C1267 H1251 0.959 . S
C1267 H1252 0.959 . S
C1267 H1253 0.961 . S
C1267 C1266 1.502 1_655 S
C1268 H1254 0.960 . S
C1268 H1255 0.961 . S
C1268 H1256 0.959 . S
C1268 C1266 1.561 . S
C1269 C1266 1.526 . S
C1269 C1270 1.396 . S
C1269 C1274 1.390 . S
C1270 C1264 1.465 . S
C1270 C1269 1.396 . S
C1270 C1271 1.399 . S
C1271 H1257 0.929 . S
C1271 C1270 1.399 . S
C1271 C1272 1.385 . S
C1272 H1258 0.931 . S
C1272 C1271 1.385 . S
C1272 C1273 1.389 . S
C1273 C1272 1.389 . S
C1273 C1274 1.387 . S
C1274 H1259 0.927 1_455 S
C1274 C1269 1.390 . S
C1274 C1273 1.387 . S
H1275 C1287 0.930 . S
H1276 C1289 0.930 . S
H1277 C1290 0.930 1_565 S
H1278 C1294 0.959 . S
H1279 C1294 0.959 . S
H1280 C1294 0.961 . S
H1281 C1295 0.960 . S
H1282 C1295 0.961 . S
H1283 C1295 0.959 . S
H1284 C1298 0.925 1_565 S
H1285 C1299 0.931 1_565 S
H1286 C1301 0.930 . S
C1287 H1275 0.930 . S
C1287 C1288 1.399 . S
C1287 C1292 1.399 . S
C1288 C1287 1.399 . S
C1288 C1289 1.376 . S
C1289 H1276 0.930 . S
C1289 C1288 1.376 . S
C1289 C1290 1.388 . S
C1290 H1277 0.930 1_545 S
C1290 C1289 1.388 . S
C1290 C1291 1.390 . S
C1291 C1290 1.390 . S
C1291 C1292 1.394 . S
C1291 C1297 1.465 . S
C1292 C1287 1.399 . S
C1292 C1291 1.394 . S
C1292 C1293 1.516 . S
C1293 C1292 1.516 . S
C1293 C1294 1.502 . S
C1293 C1295 1.561 . S
C1293 C1296 1.526 . S
C1294 H1278 0.959 . S
C1294 H1279 0.959 . S
C1294 H1280 0.961 . S
C1294 C1293 1.502 . S
C1295 H1281 0.960 . S
C1295 H1282 0.961 . S
C1295 H1283 0.959 . S
C1295 C1293 1.561 . S
C1296 C1293 1.526 . S
C1296 C1297 1.396 . S
C1296 C1301 1.390 . S
C1297 C1291 1.465 . S
C1297 C1296 1.396 . S
C1297 C1298 1.402 . S
C1298 H1284 0.925 1_545 S
C1298 C1297 1.402 . S
C1298 C1299 1.386 . S
C1299 H1285 0.931 1_545 S
C1299 C1298 1.386 . S
C1299 C1300 1.389 . S
C1300 C1299 1.389 . S
C1300 C1301 1.387 . S
C1301 H1286 0.930 . S
C1301 C1296 1.390 . S
C1301 C1300 1.387 . S
H1302 C1314 0.930 . S
H1303 C1316 0.930 . S
H1304 C1317 0.930 . S
H1305 C1321 0.959 . S
H1306 C1321 0.959 . S
H1307 C1321 0.961 . S
H1308 C1322 0.960 . S
H1309 C1322 0.961 . S
H1310 C1322 0.959 . S
H1311 C1325 0.929 . S
H1312 C1326 0.931 . S
H1313 C1328 0.930 . S
C1314 H1302 0.930 . S
C1314 C1315 1.399 . S
C1314 C1319 1.399 . S
C1315 C1314 1.399 . S
C1315 C1316 1.376 1_455 S
C1316 H1303 0.930 . S
C1316 C1315 1.376 1_655 S
C1316 C1317 1.388 . S
C1317 H1304 0.930 . S
C1317 C1316 1.388 . S
C1317 C1318 1.390 1_655 S
C1318 C1317 1.390 1_455 S
C1318 C1319 1.394 . S
C1318 C1324 1.465 . S
C1319 C1314 1.399 . S
C1319 C1318 1.394 . S
C1319 C1320 1.516 . S
C1320 C1319 1.516 . S
C1320 C1321 1.502 . S
C1320 C1322 1.561 . S
C1320 C1323 1.526 . S
C1321 H1305 0.959 . S
C1321 H1306 0.959 . S
C1321 H1307 0.961 . S
C1321 C1320 1.502 . S
C1322 H1308 0.960 . S
C1322 H1309 0.961 . S
C1322 H1310 0.959 . S
C1322 C1320 1.561 . S
C1323 C1320 1.526 . S
C1323 C1324 1.396 . S
C1323 C1328 1.390 . S
C1324 C1318 1.465 . S
C1324 C1323 1.396 . S
C1324 C1325 1.399 1_455 S
C1325 H1311 0.929 . S
C1325 C1324 1.399 1_655 S
C1325 C1326 1.385 . S
C1326 H1312 0.931 . S
C1326 C1325 1.385 . S
C1326 C1327 1.389 1_655 S
C1327 C1326 1.389 1_455 S
C1327 C1328 1.387 . S
C1328 H1313 0.930 . S
C1328 C1323 1.390 . S
C1328 C1327 1.387 . S
H1329 C1341 0.930 . S
H1330 C1343 0.930 . S
H1331 C1344 0.930 . S
H1332 C1348 0.959 1_545 S
H1333 C1348 0.959 . S
H1334 C1348 0.961 . S
H1335 C1349 0.960 . S
H1336 C1349 0.961 . S
H1337 C1349 0.959 . S
H1338 C1352 0.929 . S
H1339 C1353 0.931 . S
H1340 C1355 0.930 1_565 S
C1341 H1329 0.930 . S
C1341 C1342 1.399 1_565 S
C1341 C1346 1.399 . S
C1342 C1341 1.399 1_545 S
C1342 C1343 1.376 . S
C1343 H1330 0.930 . S
C1343 C1342 1.376 . S
C1343 C1344 1.388 . S
C1344 H1331 0.930 . S
C1344 C1343 1.388 . S
C1344 C1345 1.390 . S
C1345 C1344 1.390 . S
C1345 C1346 1.394 1_545 S
C1345 C1351 1.465 . S
C1346 C1341 1.399 . S
C1346 C1345 1.394 1_565 S
C1346 C1347 1.516 . S
C1347 C1346 1.516 . S
C1347 C1348 1.502 . S
C1347 C1349 1.561 . S
C1347 C1350 1.526 1_565 S
C1348 H1332 0.959 1_565 S
C1348 H1333 0.959 . S
C1348 H1334 0.961 . S
C1348 C1347 1.502 . S
C1349 H1335 0.960 . S
C1349 H1336 0.961 . S
C1349 H1337 0.959 . S
C1349 C1347 1.561 . S
C1350 C1347 1.526 1_545 S
C1350 C1351 1.396 . S
C1350 C1355 1.390 . S
C1351 C1345 1.465 . S
C1351 C1350 1.396 . S
C1351 C1352 1.399 . S
C1352 H1338 0.929 . S
C1352 C1351 1.399 . S
C1352 C1353 1.385 . S
C1353 H1339 0.931 . S
C1353 C1352 1.385 . S
C1353 C1354 1.389 . S
C1354 C1353 1.389 . S
C1354 C1355 1.387 . S
C1355 H1340 0.930 1_545 S
C1355 C1350 1.390 . S
C1355 C1354 1.387 . S
H1356 C1368 0.930 . S
H1357 C1370 0.930 . S
H1358 C1371 0.930 . S
H1359 C1375 0.959 . S
H1360 C1375 0.959 . S
H1361 C1375 0.961 . S
H1362 C1376 0.960 . S
H1363 C1376 0.961 . S
H1364 C1376 0.959 . S
H1365 C1379 0.929 . S
H1366 C1380 0.931 . S
H1367 C1382 0.930 . S
C1368 H1356 0.930 . S
C1368 C1369 1.399 1_655 S
C1368 C1373 1.399 . S
C1369 C1368 1.399 1_455 S
C1369 C1370 1.376 . S
C1370 H1357 0.930 . S
C1370 C1369 1.376 . S
C1370 C1371 1.388 . S
C1371 H1358 0.930 . S
C1371 C1370 1.388 . S
C1371 C1372 1.390 . S
C1372 C1371 1.390 . S
C1372 C1373 1.394 1_455 S
C1372 C1378 1.465 . S
C1373 C1368 1.399 . S
C1373 C1372 1.394 1_655 S
C1373 C1374 1.516 . S
C1374 C1373 1.516 . S
C1374 C1375 1.502 . S
C1374 C1376 1.561 . S
C1374 C1377 1.526 . S
C1375 H1359 0.959 . S
C1375 H1360 0.959 . S
C1375 H1361 0.961 . S
C1375 C1374 1.502 . S
C1376 H1362 0.960 . S
C1376 H1363 0.961 . S
C1376 H1364 0.959 . S
C1376 C1374 1.561 . S
C1377 C1374 1.526 . S
C1377 C1378 1.396 1_655 S
C1377 C1382 1.390 . S
C1378 C1372 1.465 . S
C1378 C1377 1.396 1_455 S
C1378 C1379 1.399 . S
C1379 H1365 0.929 . S
C1379 C1378 1.399 . S
C1379 C1380 1.385 . S
C1380 H1366 0.931 . S
C1380 C1379 1.385 . S
C1380 C1381 1.389 . S
C1381 C1380 1.389 . S
C1381 C1382 1.387 1_455 S
C1382 H1367 0.930 . S
C1382 C1377 1.390 . S
C1382 C1381 1.387 1_655 S
H1383 C1395 0.930 . S
H1384 C1397 0.930 . S
H1385 C1398 0.930 . S
H1386 C1402 0.959 . S
H1387 C1402 0.959 . S
H1388 C1402 0.961 . S
H1389 C1403 0.960 . S
H1390 C1403 0.961 . S
H1391 C1403 0.959 . S
H1392 C1406 0.929 . S
H1393 C1407 0.931 . S
H1394 C1409 0.930 . S
C1395 H1383 0.930 . S
C1395 C1396 1.399 1_565 S
C1395 C1400 1.399 . S
C1396 C1395 1.399 1_545 S
C1396 C1397 1.376 . S
C1397 H1384 0.930 . S
C1397 C1396 1.376 . S
C1397 C1398 1.388 . S
C1398 H1385 0.930 . S
C1398 C1397 1.388 . S
C1398 C1399 1.390 . S
C1399 C1398 1.390 . S
C1399 C1400 1.394 1_545 S
C1399 C1405 1.465 . S
C1400 C1395 1.399 . S
C1400 C1399 1.394 1_565 S
C1400 C1401 1.516 . S
C1401 C1400 1.516 . S
C1401 C1402 1.502 . S
C1401 C1403 1.561 . S
C1401 C1404 1.526 1_565 S
C1402 H1386 0.959 . S
C1402 H1387 0.959 . S
C1402 H1388 0.961 . S
C1402 C1401 1.502 . S
C1403 H1389 0.960 . S
C1403 H1390 0.961 . S
C1403 H1391 0.959 . S
C1403 C1401 1.561 . S
C1404 C1401 1.526 1_545 S
C1404 C1405 1.396 . S
C1404 C1409 1.390 1_545 S
C1405 C1399 1.465 . S
C1405 C1404 1.396 . S
C1405 C1406 1.399 . S
C1406 H1392 0.929 . S
C1406 C1405 1.399 . S
C1406 C1407 1.385 . S
C1407 H1393 0.931 . S
C1407 C1406 1.385 . S
C1407 C1408 1.389 . S
C1408 C1407 1.389 . S
C1408 C1409 1.387 1_545 S
C1409 H1394 0.930 . S
C1409 C1404 1.390 1_565 S
C1409 C1408 1.387 1_565 S
H1410 C1422 0.930 . S
H1411 C1424 0.930 . S
H1412 C1425 0.930 1_655 S
H1413 C1429 0.959 . S
H1414 C1429 0.959 . S
H1415 C1429 0.961 . S
H1416 C1430 0.961 . S
H1417 C1430 0.962 . S
H1418 C1430 0.949 1_655 S
H1419 C1433 0.929 1_655 S
H1420 C1434 0.926 1_655 S
H1421 C1436 0.930 . S
C1422 H1410 0.930 . S
C1422 C1423 1.399 . S
C1422 C1427 1.399 . S
C1423 C1422 1.399 . S
C1423 C1424 1.376 . S
C1424 H1411 0.930 . S
C1424 C1423 1.376 . S
C1424 C1425 1.388 . S
C1425 H1412 0.930 1_455 S
C1425 C1424 1.388 . S
C1425 C1426 1.390 . S
C1426 C1425 1.390 . S
C1426 C1427 1.394 . S
C1426 C1432 1.465 . S
C1427 C1422 1.399 . S
C1427 C1426 1.394 . S
C1427 C1428 1.516 . S
C1428 C1427 1.516 . S
C1428 C1429 1.502 . S
C1428 C1430 1.569 . S
C1428 C1431 1.526 . S
C1429 H1413 0.959 . S
C1429 H1414 0.959 . S
C1429 H1415 0.961 . S
C1429 C1428 1.502 . S
C1430 H1416 0.961 . S
C1430 H1417 0.962 . S
C1430 H1418 0.949 1_455 S
C1430 C1428 1.569 . S
C1431 C1428 1.526 . S
C1431 C1432 1.396 . S
C1431 C1436 1.390 . S
C1432 C1426 1.465 . S
C1432 C1431 1.396 . S
C1432 C1433 1.399 . S
C1433 H1419 0.929 1_455 S
C1433 C1432 1.399 . S
C1433 C1434 1.385 . S
C1434 H1420 0.926 1_455 S
C1434 C1433 1.385 . S
C1434 C1435 1.389 . S
C1435 C1434 1.389 . S
C1435 C1436 1.387 . S
C1436 H1421 0.930 . S
C1436 C1431 1.390 . S
C1436 C1435 1.387 . S
H1437 C1449 0.949 . S
H1438 C1451 0.930 . S
H1439 C1452 0.930 . S
H1440 C1456 0.959 1_545 S
H1441 C1456 0.959 . S
H1442 C1456 0.961 . S
H1443 C1457 0.960 . S
H1444 C1457 0.961 . S
H1445 C1457 0.959 . S
H1446 C1460 0.929 . S
H1447 C1461 0.931 . S
H1448 C1463 0.930 1_565 S
C1449 H1437 0.949 . S
C1449 C1450 1.399 . S
C1449 C1454 1.399 . S
C1450 C1449 1.399 . S
C1450 C1451 1.376 . S
C1451 H1438 0.930 . S
C1451 C1450 1.376 . S
C1451 C1452 1.388 . S
C1452 H1439 0.930 . S
C1452 C1451 1.388 . S
C1452 C1453 1.390 . S
C1453 C1452 1.390 . S
C1453 C1454 1.394 . S
C1453 C1459 1.465 . S
C1454 C1449 1.399 . S
C1454 C1453 1.394 . S
C1454 C1455 1.516 1_545 S
C1455 C1454 1.516 1_565 S
C1455 C1456 1.502 . S
C1455 C1457 1.561 . S
C1455 C1458 1.526 1_565 S
C1456 H1440 0.959 1_565 S
C1456 H1441 0.959 . S
C1456 H1442 0.961 . S
C1456 C1455 1.502 . S
C1457 H1443 0.960 . S
C1457 H1444 0.961 . S
C1457 H1445 0.959 . S
C1457 C1455 1.561 . S
C1458 C1455 1.526 1_545 S
C1458 C1459 1.396 . S
C1458 C1463 1.390 . S
C1459 C1453 1.465 . S
C1459 C1458 1.396 . S
C1459 C1460 1.399 . S
C1460 H1446 0.929 . S
C1460 C1459 1.399 . S
C1460 C1461 1.385 . S
C1461 H1447 0.931 . S
C1461 C1460 1.385 . S
C1461 C1462 1.389 . S
C1462 C1461 1.389 . S
C1462 C1463 1.387 . S
C1463 H1448 0.930 1_545 S
C1463 C1458 1.390 . S
C1463 C1462 1.387 . S
H1464 C1476 0.930 . S
H1465 C1478 0.930 . S
H1466 C1479 0.930 . S
H1467 C1483 0.959 . S
H1468 C1483 0.959 . S
H1469 C1483 0.961 . S
H1470 C1484 0.960 . S
H1471 C1484 0.961 . S
H1472 C1484 0.959 . S
H1473 C1487 0.929 . S
H1474 C1488 0.931 . S
H1475 C1490 0.930 . S
C1476 H1464 0.930 . S
C1476 C1477 1.399 1_565 S
C1476 C1481 1.399 . S
C1477 C1476 1.399 1_545 S
C1477 C1478 1.376 . S
C1478 H1465 0.930 . S
C1478 C1477 1.376 . S
C1478 C1479 1.388 . S
C1479 H1466 0.930 . S
C1479 C1478 1.388 . S
C1479 C1480 1.390 . S
C1480 C1479 1.390 . S
C1480 C1481 1.394 1_545 S
C1480 C1486 1.465 . S
C1481 C1476 1.399 . S
C1481 C1480 1.394 1_565 S
C1481 C1482 1.516 . S
C1482 C1481 1.516 . S
C1482 C1483 1.502 . S
C1482 C1484 1.561 . S
C1482 C1485 1.526 . S
C1483 H1467 0.959 . S
C1483 H1468 0.959 . S
C1483 H1469 0.961 . S
C1483 C1482 1.502 . S
C1484 H1470 0.960 . S
C1484 H1471 0.961 . S
C1484 H1472 0.959 . S
C1484 C1482 1.561 . S
C1485 C1482 1.526 . S
C1485 C1486 1.396 1_565 S
C1485 C1490 1.390 . S
C1486 C1480 1.465 . S
C1486 C1485 1.396 1_545 S
C1486 C1487 1.399 . S
C1487 H1473 0.929 . S
C1487 C1486 1.399 . S
C1487 C1488 1.385 . S
C1488 H1474 0.931 . S
C1488 C1487 1.385 . S
C1488 C1489 1.389 . S
C1489 C1488 1.389 . S
C1489 C1490 1.387 1_545 S
C1490 H1475 0.930 . S
C1490 C1485 1.390 . S
C1490 C1489 1.387 1_565 S
H1491 C1503 0.930 . S
H1492 C1505 0.930 . S
H1493 C1506 0.930 . S
H1494 C1510 0.959 . S
H1495 C1510 0.959 . S
H1496 C1510 0.961 . S
H1497 C1511 0.960 . S
H1498 C1511 0.961 . S
H1499 C1511 0.959 1_655 S
H1500 C1514 0.929 . S
H1501 C1515 0.931 . S
H1502 C1517 0.930 . S
C1503 H1491 0.930 . S
C1503 C1504 1.399 . S
C1503 C1508 1.399 . S
C1504 C1503 1.399 . S
C1504 C1505 1.376 . S
C1505 H1492 0.930 . S
C1505 C1504 1.376 . S
C1505 C1506 1.388 . S
C1506 H1493 0.930 . S
C1506 C1505 1.388 . S
C1506 C1507 1.390 . S
C1507 C1506 1.390 . S
C1507 C1508 1.394 . S
C1507 C1513 1.465 . S
C1508 C1503 1.399 . S
C1508 C1507 1.394 . S
C1508 C1509 1.516 . S
C1509 C1508 1.516 . S
C1509 C1510 1.502 . S
C1509 C1511 1.561 . S
C1509 C1512 1.526 . S
C1510 H1494 0.959 . S
C1510 H1495 0.959 . S
C1510 H1496 0.961 . S
C1510 C1509 1.502 . S
C1511 H1497 0.960 . S
C1511 H1498 0.961 . S
C1511 H1499 0.959 1_455 S
C1511 C1509 1.561 . S
C1512 C1509 1.526 . S
C1512 C1513 1.396 . S
C1512 C1517 1.390 . S
C1513 C1507 1.465 . S
C1513 C1512 1.396 . S
C1513 C1514 1.399 . S
C1514 H1500 0.929 . S
C1514 C1513 1.399 . S
C1514 C1515 1.385 . S
C1515 H1501 0.931 . S
C1515 C1514 1.385 . S
C1515 C1516 1.389 . S
C1516 C1515 1.389 . S
C1516 C1517 1.387 . S
C1517 H1502 0.930 . S
C1517 C1512 1.390 . S
C1517 C1516 1.387 . S
H1518 C1530 0.930 . S
H1519 C1532 0.930 . S
H1520 C1533 0.930 . S
H1521 C1537 0.959 . S
H1522 C1537 0.959 1_565 S
H1523 C1537 0.961 . S
H1524 C1538 0.960 . S
H1525 C1538 0.961 . S
H1526 C1538 0.959 . S
H1527 C1541 0.929 . S
H1528 C1542 0.931 . S
H1529 C1544 0.930 . S
C1530 H1518 0.930 . S
C1530 C1531 1.399 . S
C1530 C1535 1.399 . S
C1531 C1530 1.399 . S
C1531 C1532 1.376 . S
C1532 H1519 0.930 . S
C1532 C1531 1.376 . S
C1532 C1533 1.388 . S
C1533 H1520 0.930 . S
C1533 C1532 1.388 . S
C1533 C1534 1.390 . S
C1534 C1533 1.390 . S
C1534 C1535 1.394 . S
C1534 C1540 1.465 . S
C1535 C1530 1.399 . S
C1535 C1534 1.394 . S
C1535 C1536 1.516 . S
C1536 C1535 1.516 . S
C1536 C1537 1.502 . S
C1536 C1538 1.561 1_545 S
C1536 C1539 1.526 . S
C1537 H1521 0.959 . S
C1537 H1522 0.959 1_545 S
C1537 H1523 0.961 . S
C1537 C1536 1.502 . S
C1538 H1524 0.960 . S
C1538 H1525 0.961 . S
C1538 H1526 0.959 . S
C1538 C1536 1.561 1_565 S
C1539 C1536 1.526 . S
C1539 C1540 1.396 . S
C1539 C1544 1.390 . S
C1540 C1534 1.465 . S
C1540 C1539 1.396 . S
C1540 C1541 1.399 . S
C1541 H1527 0.929 . S
C1541 C1540 1.399 . S
C1541 C1542 1.385 . S
C1542 H1528 0.931 . S
C1542 C1541 1.385 . S
C1542 C1543 1.389 . S
C1543 C1542 1.389 . S
C1543 C1544 1.387 . S
C1544 H1529 0.930 . S
C1544 C1539 1.390 . S
C1544 C1543 1.387 . S
H1545 C1557 0.930 . S
H1546 C1559 0.930 . S
H1547 C1560 0.930 . S
H1548 C1564 0.959 . S
H1549 C1564 0.959 . S
H1550 C1564 0.961 . S
H1551 C1565 0.960 . S
H1552 C1565 0.961 . S
H1553 C1565 0.959 . S
H1554 C1568 0.929 . S
H1555 C1569 0.931 . S
H1556 C1571 0.930 . S
C1557 H1545 0.930 . S
C1557 C1558 1.399 . S
C1557 C1562 1.399 . S
C1558 C1557 1.399 . S
C1558 C1559 1.376 . S
C1559 H1546 0.930 . S
C1559 C1558 1.376 . S
C1559 C1560 1.388 . S
C1560 H1547 0.930 . S
C1560 C1559 1.388 . S
C1560 C1561 1.390 . S
C1561 C1560 1.390 . S
C1561 C1562 1.394 . S
C1561 C1567 1.465 . S
C1562 C1557 1.399 . S
C1562 C1561 1.394 . S
C1562 C1563 1.516 . S
C1563 C1562 1.516 . S
C1563 C1564 1.502 . S
C1563 C1565 1.561 1_455 S
C1563 C1566 1.526 . S
C1564 H1548 0.959 . S
C1564 H1549 0.959 . S
C1564 H1550 0.961 . S
C1564 C1563 1.502 . S
C1565 H1551 0.960 . S
C1565 H1552 0.961 . S
C1565 H1553 0.959 . S
C1565 C1563 1.561 1_655 S
C1566 C1563 1.526 . S
C1566 C1567 1.396 . S
C1566 C1571 1.390 . S
C1567 C1561 1.465 . S
C1567 C1566 1.396 . S
C1567 C1568 1.399 . S
C1568 H1554 0.929 . S
C1568 C1567 1.399 . S
C1568 C1569 1.385 . S
C1569 H1555 0.931 . S
C1569 C1568 1.385 . S
C1569 C1570 1.389 . S
C1570 C1569 1.389 . S
C1570 C1571 1.387 . S
C1571 H1556 0.930 . S
C1571 C1566 1.390 . S
C1571 C1570 1.387 . S
H1572 C1584 0.930 . S
H1573 C1586 0.930 1_565 S
H1574 C1587 0.926 1_565 S
H1575 C1591 0.959 . S
H1576 C1591 0.959 . S
H1577 C1591 0.961 . S
H1578 C1592 0.960 . S
H1579 C1592 0.961 . S
H1580 C1592 0.959 . S
H1581 C1595 0.933 . S
H1582 C1596 0.931 . S
H1583 C1598 0.930 . S
C1584 H1572 0.930 . S
C1584 C1585 1.399 . S
C1584 C1589 1.399 . S
C1585 C1584 1.399 . S
C1585 C1586 1.376 . S
C1586 H1573 0.930 1_545 S
C1586 C1585 1.376 . S
C1586 C1587 1.389 . S
C1587 H1574 0.926 1_545 S
C1587 C1586 1.389 . S
C1587 C1588 1.394 . S
C1588 C1587 1.394 . S
C1588 C1589 1.394 . S
C1588 C1594 1.465 . S
C1589 C1584 1.399 . S
C1589 C1588 1.394 . S
C1589 C1590 1.516 . S
C1590 C1589 1.516 . S
C1590 C1591 1.502 . S
C1590 C1592 1.561 1_545 S
C1590 C1593 1.526 . S
C1591 H1575 0.959 . S
C1591 H1576 0.959 . S
C1591 H1577 0.961 . S
C1591 C1590 1.502 . S
C1592 H1578 0.960 . S
C1592 H1579 0.961 . S
C1592 H1580 0.959 . S
C1592 C1590 1.561 1_565 S
C1593 C1590 1.526 . S
C1593 C1594 1.396 . S
C1593 C1598 1.390 . S
C1594 C1588 1.465 . S
C1594 C1593 1.396 . S
C1594 C1595 1.399 . S
C1595 H1581 0.933 . S
C1595 C1594 1.399 . S
C1595 C1596 1.385 . S
C1596 H1582 0.931 . S
C1596 C1595 1.385 . S
C1596 C1597 1.389 . S
C1597 C1596 1.389 . S
C1597 C1598 1.387 . S
C1598 H1583 0.930 . S
C1598 C1593 1.390 . S
C1598 C1597 1.387 . S
H1599 C1611 0.930 . S
H1600 C1613 0.930 . S
H1601 C1614 0.930 . S
H1602 C1618 0.959 . S
H1603 C1618 0.959 . S
H1604 C1618 0.961 . S
H1605 C1619 0.960 . S
H1606 C1619 0.961 . S
H1607 C1619 0.959 . S
H1608 C1622 0.929 . S
H1609 C1623 0.931 . S
H1610 C1625 0.930 . S
C1611 H1599 0.930 . S
C1611 C1612 1.399 . S
C1611 C1616 1.399 . S
C1612 C1611 1.399 . S
C1612 C1613 1.376 . S
C1613 H1600 0.930 . S
C1613 C1612 1.376 . S
C1613 C1614 1.388 . S
C1614 H1601 0.930 . S
C1614 C1613 1.388 . S
C1614 C1615 1.390 . S
C1615 C1614 1.390 . S
C1615 C1616 1.394 . S
C1615 C1621 1.465 . S
C1616 C1611 1.399 . S
C1616 C1615 1.394 . S
C1616 C1617 1.516 . S
C1617 C1616 1.516 . S
C1617 C1618 1.502 . S
C1617 C1619 1.561 1_455 S
C1617 C1620 1.526 . S
C1618 H1602 0.959 . S
C1618 H1603 0.959 . S
C1618 H1604 0.961 . S
C1618 C1617 1.502 . S
C1619 H1605 0.960 . S
C1619 H1606 0.961 . S
C1619 H1607 0.959 . S
C1619 C1617 1.561 1_655 S
C1620 C1617 1.526 . S
C1620 C1621 1.396 . S
C1620 C1625 1.390 . S
C1621 C1615 1.465 . S
C1621 C1620 1.396 . S
C1621 C1622 1.399 . S
C1622 H1608 0.929 . S
C1622 C1621 1.399 . S
C1622 C1623 1.385 . S
C1623 H1609 0.931 . S
C1623 C1622 1.385 . S
C1623 C1624 1.389 . S
C1624 C1623 1.389 . S
C1624 C1625 1.387 . S
C1625 H1610 0.930 . S
C1625 C1620 1.390 . S
C1625 C1624 1.387 . S
H1626 C1638 0.937 . S
H1627 C1640 0.930 . S
H1628 C1641 0.930 . S
H1629 C1645 0.959 . S
H1630 C1645 0.959 . S
H1631 C1645 0.961 . S
H1632 C1646 0.960 1_565 S
H1633 C1646 0.961 1_565 S
H1634 C1646 0.959 . S
H1635 C1649 0.929 . S
H1636 C1650 0.931 . S
H1637 C1652 0.930 1_565 S
C1638 H1626 0.937 . S
C1638 C1639 1.399 . S
C1638 C1643 1.399 . S
C1639 C1638 1.399 . S
C1639 C1640 1.376 . S
C1640 H1627 0.930 . S
C1640 C1639 1.376 . S
C1640 C1641 1.388 . S
C1641 H1628 0.930 . S
C1641 C1640 1.388 . S
C1641 C1642 1.390 . S
C1642 C1641 1.390 . S
C1642 C1643 1.394 . S
C1642 C1648 1.465 . S
C1643 C1638 1.399 . S
C1643 C1642 1.394 . S
C1643 C1644 1.516 . S
C1644 C1643 1.516 . S
C1644 C1645 1.502 1_545 S
C1644 C1646 1.561 . S
C1644 C1647 1.526 . S
C1645 H1629 0.959 . S
C1645 H1630 0.959 . S
C1645 H1631 0.961 . S
C1645 C1644 1.502 1_565 S
C1646 H1632 0.960 1_545 S
C1646 H1633 0.961 1_545 S
C1646 H1634 0.959 . S
C1646 C1644 1.561 . S
C1647 C1644 1.526 . S
C1647 C1648 1.396 . S
C1647 C1652 1.390 . S
C1648 C1642 1.465 . S
C1648 C1647 1.396 . S
C1648 C1649 1.399 . S
C1649 H1635 0.929 . S
C1649 C1648 1.399 . S
C1649 C1650 1.385 . S
C1650 H1636 0.931 . S
C1650 C1649 1.385 . S
C1650 C1651 1.389 . S
C1651 C1650 1.389 . S
C1651 C1652 1.387 . S
C1652 H1637 0.930 1_545 S
C1652 C1647 1.390 . S
C1652 C1651 1.387 . S
H1653 C1665 0.930 . S
H1654 C1667 0.930 . S
H1655 C1668 0.930 . S
H1656 C1672 0.959 . S
H1657 C1672 0.959 . S
H1658 C1672 0.961 . S
H1659 C1673 0.960 . S
H1660 C1673 0.961 . S
H1661 C1673 0.959 . S
H1662 C1676 0.929 . S
H1663 C1677 0.931 . S
H1664 C1679 0.930 1_655 S
C1665 H1653 0.930 . S
C1665 C1666 1.399 1_655 S
C1665 C1670 1.399 . S
C1666 C1665 1.399 1_455 S
C1666 C1667 1.376 . S
C1667 H1654 0.930 . S
C1667 C1666 1.376 . S
C1667 C1668 1.388 . S
C1668 H1655 0.930 . S
C1668 C1667 1.388 . S
C1668 C1669 1.390 . S
C1669 C1668 1.390 . S
C1669 C1670 1.394 1_455 S
C1669 C1675 1.465 . S
C1670 C1665 1.399 . S
C1670 C1669 1.394 1_655 S
C1670 C1671 1.516 . S
C1671 C1670 1.516 . S
C1671 C1672 1.502 . S
C1671 C1673 1.561 . S
C1671 C1674 1.526 1_655 S
C1672 H1656 0.959 . S
C1672 H1657 0.959 . S
C1672 H1658 0.961 . S
C1672 C1671 1.502 . S
C1673 H1659 0.960 . S
C1673 H1660 0.961 . S
C1673 H1661 0.959 . S
C1673 C1671 1.561 . S
C1674 C1671 1.526 1_455 S
C1674 C1675 1.396 . S
C1674 C1679 1.390 . S
C1675 C1669 1.465 . S
C1675 C1674 1.396 . S
C1675 C1676 1.399 . S
C1676 H1662 0.929 . S
C1676 C1675 1.399 . S
C1676 C1677 1.385 . S
C1677 H1663 0.931 . S
C1677 C1676 1.385 . S
C1677 C1678 1.389 . S
C1678 C1677 1.389 . S
C1678 C1679 1.387 . S
C1679 H1664 0.930 1_455 S
C1679 C1674 1.390 . S
C1679 C1678 1.387 . S
H1680 C1692 0.905 1_556 S
H1681 C1694 0.930 . S
H1682 C1695 0.930 . S
H1683 C1699 0.959 . S
H1684 C1699 0.959 . S
H1685 C1699 0.961 . S
H1686 C1700 0.960 . S
H1687 C1700 0.961 . S
H1688 C1700 0.959 . S
H1689 C1703 0.929 . S
H1690 C1704 0.931 . S
H1691 C1706 0.930 1_556 S
C1692 H1680 0.905 1_554 S
C1692 C1693 1.419 . S
C1692 C1697 1.405 . S
C1693 C1692 1.419 . S
C1693 C1694 1.376 . S
C1694 H1681 0.930 . S
C1694 C1693 1.376 . S
C1694 C1695 1.388 . S
C1695 H1682 0.930 . S
C1695 C1694 1.388 . S
C1695 C1696 1.390 . S
C1696 C1695 1.390 . S
C1696 C1697 1.394 . S
C1696 C1702 1.465 . S
C1697 C1692 1.405 . S
C1697 C1696 1.394 . S
C1697 C1698 1.516 1_554 S
C1698 C1697 1.516 1_556 S
C1698 C1699 1.502 . S
C1698 C1700 1.561 . S
C1698 C1701 1.526 1_556 S
C1699 H1683 0.959 . S
C1699 H1684 0.959 . S
C1699 H1685 0.961 . S
C1699 C1698 1.502 . S
C1700 H1686 0.960 . S
C1700 H1687 0.961 . S
C1700 H1688 0.959 . S
C1700 C1698 1.561 . S
C1701 C1698 1.526 1_554 S
C1701 C1702 1.396 . S
C1701 C1706 1.390 . S
C1702 C1696 1.465 . S
C1702 C1701 1.396 . S
C1702 C1703 1.399 . S
C1703 H1689 0.929 . S
C1703 C1702 1.399 . S
C1703 C1704 1.385 . S
C1704 H1690 0.931 . S
C1704 C1703 1.385 . S
C1704 C1705 1.389 . S
C1705 C1704 1.389 . S
C1705 C1706 1.387 . S
C1706 H1691 0.930 1_554 S
C1706 C1701 1.390 . S
C1706 C1705 1.387 . S
H1707 C1719 0.930 . S
H1708 C1721 0.930 . S
H1709 C1722 0.930 . S
H1710 C1726 0.959 . S
H1711 C1726 0.959 . S
H1712 C1726 0.961 . S
H1713 C1727 0.960 . S
H1714 C1727 0.961 . S
H1715 C1727 0.959 . S
H1716 C1730 0.929 . S
H1717 C1731 0.931 . S
H1718 C1733 0.930 1_556 S
C1719 H1707 0.930 . S
C1719 C1720 1.399 1_556 S
C1719 C1724 1.399 1_556 S
C1720 C1719 1.399 1_554 S
C1720 C1721 1.376 . S
C1721 H1708 0.930 . S
C1721 C1720 1.376 . S
C1721 C1722 1.388 . S
C1722 H1709 0.930 . S
C1722 C1721 1.388 . S
C1722 C1723 1.390 . S
C1723 C1722 1.390 . S
C1723 C1724 1.394 . S
C1723 C1729 1.465 . S
C1724 C1719 1.399 1_554 S
C1724 C1723 1.394 . S
C1724 C1725 1.516 1_554 S
C1725 C1724 1.516 1_556 S
C1725 C1726 1.502 . S
C1725 C1727 1.561 . S
C1725 C1728 1.526 1_556 S
C1726 H1710 0.959 . S
C1726 H1711 0.959 . S
C1726 H1712 0.961 . S
C1726 C1725 1.502 . S
C1727 H1713 0.960 . S
C1727 H1714 0.961 . S
C1727 H1715 0.959 . S
C1727 C1725 1.561 . S
C1728 C1725 1.526 1_554 S
C1728 C1729 1.396 . S
C1728 C1733 1.390 . S
C1729 C1723 1.465 . S
C1729 C1728 1.396 . S
C1729 C1730 1.399 . S
C1730 H1716 0.929 . S
C1730 C1729 1.399 . S
C1730 C1731 1.385 . S
C1731 H1717 0.931 . S
C1731 C1730 1.385 . S
C1731 C1732 1.389 . S
C1732 C1731 1.389 . S
C1732 C1733 1.387 . S
C1733 H1718 0.930 1_554 S
C1733 C1728 1.390 . S
C1733 C1732 1.387 . S
H1734 C1746 0.930 . S
H1735 C1748 0.930 . S
H1736 C1749 0.930 . S
H1737 C1753 0.959 . S
H1738 C1753 0.959 . S
H1739 C1753 0.961 . S
H1740 C1754 0.960 . S
H1741 C1754 0.961 . S
H1742 C1754 0.959 . S
H1743 C1757 0.929 . S
H1744 C1758 0.931 . S
H1745 C1760 0.930 . S
C1746 H1734 0.930 . S
C1746 C1747 1.399 . S
C1746 C1751 1.399 . S
C1747 C1746 1.399 . S
C1747 C1748 1.376 1_554 S
C1748 H1735 0.930 . S
C1748 C1747 1.376 1_556 S
C1748 C1749 1.388 . S
C1749 H1736 0.930 . S
C1749 C1748 1.388 . S
C1749 C1750 1.390 1_556 S
C1750 C1749 1.390 1_554 S
C1750 C1751 1.394 . S
C1750 C1756 1.465 1_554 S
C1751 C1746 1.399 . S
C1751 C1750 1.394 . S
C1751 C1752 1.516 . S
C1752 C1751 1.516 . S
C1752 C1753 1.502 . S
C1752 C1754 1.561 . S
C1752 C1755 1.526 . S
C1753 H1737 0.959 . S
C1753 H1738 0.959 . S
C1753 H1739 0.961 . S
C1753 C1752 1.502 . S
C1754 H1740 0.960 . S
C1754 H1741 0.961 . S
C1754 H1742 0.959 . S
C1754 C1752 1.561 . S
C1755 C1752 1.526 . S
C1755 C1756 1.396 1_554 S
C1755 C1760 1.390 . S
C1756 C1750 1.465 1_556 S
C1756 C1755 1.396 1_556 S
C1756 C1757 1.399 . S
C1757 H1743 0.929 . S
C1757 C1756 1.399 . S
C1757 C1758 1.385 . S
C1758 H1744 0.931 . S
C1758 C1757 1.385 . S
C1758 C1759 1.389 1_556 S
C1759 C1758 1.389 1_554 S
C1759 C1760 1.387 . S
C1760 H1745 0.930 . S
C1760 C1755 1.390 . S
C1760 C1759 1.387 . S
H1761 C1773 0.930 . S
H1762 C1775 0.930 . S
H1763 C1776 0.930 . S
H1764 C1780 0.959 . S
H1765 C1780 0.959 . S
H1766 C1780 0.961 . S
H1767 C1781 0.960 . S
H1768 C1781 0.961 . S
H1769 C1781 0.959 . S
H1770 C1784 0.929 . S
H1771 C1785 0.931 . S
H1772 C1787 0.930 . S
C1773 H1761 0.930 . S
C1773 C1774 1.399 1_556 S
C1773 C1778 1.399 . S
C1774 C1773 1.399 1_554 S
C1774 C1775 1.376 . S
C1775 H1762 0.930 . S
C1775 C1774 1.376 . S
C1775 C1776 1.388 . S
C1776 H1763 0.930 . S
C1776 C1775 1.388 . S
C1776 C1777 1.390 . S
C1777 C1776 1.390 . S
C1777 C1778 1.394 1_554 S
C1777 C1783 1.465 . S
C1778 C1773 1.399 . S
C1778 C1777 1.394 1_556 S
C1778 C1779 1.516 . S
C1779 C1778 1.516 . S
C1779 C1780 1.502 . S
C1779 C1781 1.561 . S
C1779 C1782 1.526 . S
C1780 H1764 0.959 . S
C1780 H1765 0.959 . S
C1780 H1766 0.961 . S
C1780 C1779 1.502 . S
C1781 H1767 0.960 . S
C1781 H1768 0.961 . S
C1781 H1769 0.959 . S
C1781 C1779 1.561 . S
C1782 C1779 1.526 . S
C1782 C1783 1.396 1_556 S
C1782 C1787 1.390 . S
C1783 C1777 1.465 . S
C1783 C1782 1.396 1_554 S
C1783 C1784 1.399 . S
C1784 H1770 0.929 . S
C1784 C1783 1.399 . S
C1784 C1785 1.385 . S
C1785 H1771 0.931 . S
C1785 C1784 1.385 . S
C1785 C1786 1.389 . S
C1786 C1785 1.389 . S
C1786 C1787 1.387 1_554 S
C1787 H1772 0.930 . S
C1787 C1782 1.390 . S
C1787 C1786 1.387 1_556 S
H1788 C1800 0.930 . S
H1789 C1802 0.930 . S
H1790 C1803 0.930 . S
H1791 C1807 0.959 . S
H1792 C1807 0.959 . S
H1793 C1807 0.961 . S
H1794 C1808 0.960 . S
H1795 C1808 0.961 . S
H1796 C1808 0.959 . S
H1797 C1811 0.929 . S
H1798 C1812 0.931 . S
H1799 C1814 0.930 . S
C1800 H1788 0.930 . S
C1800 C1801 1.399 . S
C1800 C1805 1.399 . S
C1801 C1800 1.399 . S
C1801 C1802 1.376 1_554 S
C1802 H1789 0.930 . S
C1802 C1801 1.376 1_556 S
C1802 C1803 1.388 . S
C1803 H1790 0.930 . S
C1803 C1802 1.388 . S
C1803 C1804 1.390 . S
C1804 C1803 1.390 . S
C1804 C1805 1.394 1_556 S
C1804 C1810 1.465 . S
C1805 C1800 1.399 . S
C1805 C1804 1.394 1_554 S
C1805 C1806 1.516 . S
C1806 C1805 1.516 . S
C1806 C1807 1.502 . S
C1806 C1808 1.561 . S
C1806 C1809 1.526 . S
C1807 H1791 0.959 . S
C1807 H1792 0.959 . S
C1807 H1793 0.961 . S
C1807 C1806 1.502 . S
C1808 H1794 0.960 . S
C1808 H1795 0.961 . S
C1808 H1796 0.959 . S
C1808 C1806 1.561 . S
C1809 C1806 1.526 . S
C1809 C1810 1.396 1_554 S
C1809 C1814 1.390 . S
C1810 C1804 1.465 . S
C1810 C1809 1.396 1_556 S
C1810 C1811 1.399 . S
C1811 H1797 0.929 . S
C1811 C1810 1.399 . S
C1811 C1812 1.385 . S
C1812 H1798 0.931 . S
C1812 C1811 1.385 . S
C1812 C1813 1.389 1_556 S
C1813 C1812 1.389 1_554 S
C1813 C1814 1.387 . S
C1814 H1799 0.930 . S
C1814 C1809 1.390 . S
C1814 C1813 1.387 . S
H1815 C1827 0.930 . S
H1816 C1829 0.930 . S
H1817 C1830 0.930 . S
H1818 C1834 0.959 . S
H1819 C1834 0.959 . S
H1820 C1834 0.961 . S
H1821 C1835 0.960 . S
H1822 C1835 0.961 . S
H1823 C1835 0.959 . S
H1824 C1838 0.929 . S
H1825 C1839 0.931 . S
H1826 C1841 0.937 . S
C1827 H1815 0.930 . S
C1827 C1828 1.399 . S
C1827 C1832 1.399 . S
C1828 C1827 1.399 . S
C1828 C1829 1.376 . S
C1829 H1816 0.930 . S
C1829 C1828 1.376 . S
C1829 C1830 1.388 . S
C1830 H1817 0.930 . S
C1830 C1829 1.388 . S
C1830 C1831 1.390 . S
C1831 C1830 1.390 . S
C1831 C1832 1.394 . S
C1831 C1837 1.465 . S
C1832 C1827 1.399 . S
C1832 C1831 1.394 . S
C1832 C1833 1.516 1_554 S
C1833 C1832 1.516 1_556 S
C1833 C1834 1.502 1_556 S
C1833 C1835 1.561 . S
C1833 C1836 1.526 1_556 S
C1834 H1818 0.959 . S
C1834 H1819 0.959 . S
C1834 H1820 0.961 . S
C1834 C1833 1.502 1_554 S
C1835 H1821 0.960 . S
C1835 H1822 0.961 . S
C1835 H1823 0.959 . S
C1835 C1833 1.561 . S
C1836 C1833 1.526 1_554 S
C1836 C1837 1.396 . S
C1836 C1841 1.390 . S
C1837 C1831 1.465 . S
C1837 C1836 1.396 . S
C1837 C1838 1.399 . S
C1838 H1824 0.929 . S
C1838 C1837 1.399 . S
C1838 C1839 1.385 . S
C1839 H1825 0.931 . S
C1839 C1838 1.385 . S
C1839 C1840 1.389 . S
C1840 C1839 1.389 . S
C1840 C1841 1.387 . S
C1841 H1826 0.937 . S
C1841 C1836 1.390 . S
C1841 C1840 1.387 . S
H1842 C1854 0.930 . S
H1843 C1856 0.930 . S
H1844 C1857 0.930 . S
H1845 C1861 0.959 . S
H1846 C1861 0.959 . S
H1847 C1861 0.961 . S
H1848 C1862 0.960 . S
H1849 C1862 0.961 . S
H1850 C1862 0.959 . S
H1851 C1865 0.929 . S
H1852 C1866 0.931 . S
H1853 C1868 0.930 . S
C1854 H1842 0.930 . S
C1854 C1855 1.399 1_556 S
C1854 C1859 1.399 . S
C1855 C1854 1.399 1_554 S
C1855 C1856 1.376 . S
C1856 H1843 0.930 . S
C1856 C1855 1.376 . S
C1856 C1857 1.388 . S
C1857 H1844 0.930 . S
C1857 C1856 1.388 . S
C1857 C1858 1.390 . S
C1858 C1857 1.390 . S
C1858 C1859 1.394 1_554 S
C1858 C1864 1.465 . S
C1859 C1854 1.399 . S
C1859 C1858 1.394 1_556 S
C1859 C1860 1.516 . S
C1860 C1859 1.516 . S
C1860 C1861 1.502 . S
C1860 C1862 1.561 . S
C1860 C1863 1.526 . S
C1861 H1845 0.959 . S
C1861 H1846 0.959 . S
C1861 H1847 0.961 . S
C1861 C1860 1.502 . S
C1862 H1848 0.960 . S
C1862 H1849 0.961 . S
C1862 H1850 0.959 . S
C1862 C1860 1.561 . S
C1863 C1860 1.526 . S
C1863 C1864 1.396 1_556 S
C1863 C1868 1.390 . S
C1864 C1858 1.465 . S
C1864 C1863 1.396 1_554 S
C1864 C1865 1.399 . S
C1865 H1851 0.929 . S
C1865 C1864 1.399 . S
C1865 C1866 1.385 . S
C1866 H1852 0.931 . S
C1866 C1865 1.385 . S
C1866 C1867 1.389 . S
C1867 C1866 1.389 . S
C1867 C1868 1.387 1_554 S
C1868 H1853 0.930 . S
C1868 C1863 1.390 . S
C1868 C1867 1.387 1_556 S
H1869 C1881 0.930 . S
H1870 C1883 0.930 . S
H1871 C1884 0.930 . S
H1872 C1888 0.959 . S
H1873 C1888 0.959 . S
H1874 C1888 0.961 . S
H1875 C1889 0.960 . S
H1876 C1889 0.961 . S
H1877 C1889 0.959 . S
H1878 C1892 0.929 . S
H1879 C1893 0.931 . S
H1880 C1895 0.930 . S
C1881 H1869 0.930 . S
C1881 C1882 1.391 1_554 S
C1881 C1886 1.399 . S
C1882 C1881 1.391 1_556 S
C1882 C1883 1.386 . S
C1883 H1870 0.930 . S
C1883 C1882 1.386 . S
C1883 C1884 1.388 . S
C1884 H1871 0.930 . S
C1884 C1883 1.388 . S
C1884 C1885 1.390 . S
C1885 C1884 1.390 . S
C1885 C1886 1.394 1_556 S
C1885 C1891 1.465 . S
C1886 C1881 1.399 . S
C1886 C1885 1.394 1_554 S
C1886 C1887 1.516 . S
C1887 C1886 1.516 . S
C1887 C1888 1.502 . S
C1887 C1889 1.561 . S
C1887 C1890 1.526 . S
C1888 H1872 0.959 . S
C1888 H1873 0.959 . S
C1888 H1874 0.961 . S
C1888 C1887 1.502 . S
C1889 H1875 0.960 . S
C1889 H1876 0.961 . S
C1889 H1877 0.959 . S
C1889 C1887 1.561 . S
C1890 C1887 1.526 . S
C1890 C1891 1.396 1_554 S
C1890 C1895 1.390 . S
C1891 C1885 1.465 . S
C1891 C1890 1.396 1_556 S
C1891 C1892 1.399 . S
C1892 H1878 0.929 . S
C1892 C1891 1.399 . S
C1892 C1893 1.385 . S
C1893 H1879 0.931 . S
C1893 C1892 1.385 . S
C1893 C1894 1.389 1_556 S
C1894 C1893 1.389 1_554 S
C1894 C1895 1.387 . S
C1895 H1880 0.930 . S
C1895 C1890 1.390 . S
C1895 C1894 1.387 . S
H1896 C1908 0.930 . S
H1897 C1910 0.930 . S
H1898 C1911 0.930 . S
H1899 C1915 0.959 . S
H1900 C1915 0.959 . S
H1901 C1915 0.961 . S
H1902 C1916 0.960 . S
H1903 C1916 0.961 . S
H1904 C1916 0.959 . S
H1905 C1919 0.929 . S
H1906 C1920 0.931 . S
H1907 C1922 0.930 . S
C1908 H1896 0.930 . S
C1908 C1909 1.399 . S
C1908 C1913 1.399 . S
C1909 C1908 1.399 . S
C1909 C1910 1.376 . S
C1910 H1897 0.930 . S
C1910 C1909 1.376 . S
C1910 C1911 1.388 . S
C1911 H1898 0.930 . S
C1911 C1910 1.388 . S
C1911 C1912 1.390 . S
C1912 C1911 1.390 . S
C1912 C1913 1.394 . S
C1912 C1918 1.465 . S
C1913 C1908 1.399 . S
C1913 C1912 1.394 . S
C1913 C1914 1.516 . S
C1914 C1913 1.516 . S
C1914 C1915 1.502 . S
C1914 C1916 1.561 . S
C1914 C1917 1.526 . S
C1915 H1899 0.959 . S
C1915 H1900 0.959 . S
C1915 H1901 0.961 . S
C1915 C1914 1.502 . S
C1916 H1902 0.960 . S
C1916 H1903 0.961 . S
C1916 H1904 0.959 . S
C1916 C1914 1.561 . S
C1917 C1914 1.526 . S
C1917 C1918 1.396 . S
C1917 C1922 1.390 . S
C1918 C1912 1.465 . S
C1918 C1917 1.396 . S
C1918 C1919 1.399 . S
C1919 H1905 0.929 . S
C1919 C1918 1.399 . S
C1919 C1920 1.385 . S
C1920 H1906 0.931 . S
C1920 C1919 1.385 . S
C1920 C1921 1.389 . S
C1921 C1920 1.389 . S
C1921 C1922 1.387 . S
C1922 H1907 0.930 . S
C1922 C1917 1.390 . S
C1922 C1921 1.387 . S
H1923 C1935 0.930 . S
H1924 C1937 0.930 . S
H1925 C1938 0.930 . S
H1926 C1942 0.959 . S
H1927 C1942 0.959 . S
H1928 C1942 0.961 . S
H1929 C1943 0.960 . S
H1930 C1943 0.961 . S
H1931 C1943 0.959 . S
H1932 C1946 0.929 . S
H1933 C1947 0.931 . S
H1934 C1949 0.930 . S
C1935 H1923 0.930 . S
C1935 C1936 1.399 . S
C1935 C1940 1.399 . S
C1936 C1935 1.399 . S
C1936 C1937 1.376 . S
C1937 H1924 0.930 . S
C1937 C1936 1.376 . S
C1937 C1938 1.388 . S
C1938 H1925 0.930 . S
C1938 C1937 1.388 . S
C1938 C1939 1.390 . S
C1939 C1938 1.390 . S
C1939 C1940 1.394 . S
C1939 C1945 1.465 . S
C1940 C1935 1.399 . S
C1940 C1939 1.394 . S
C1940 C1941 1.516 . S
C1941 C1940 1.516 . S
C1941 C1942 1.502 . S
C1941 C1943 1.561 . S
C1941 C1944 1.526 . S
C1942 H1926 0.959 . S
C1942 H1927 0.959 . S
C1942 H1928 0.961 . S
C1942 C1941 1.502 . S
C1943 H1929 0.960 . S
C1943 H1930 0.961 . S
C1943 H1931 0.959 . S
C1943 C1941 1.561 . S
C1944 C1941 1.526 . S
C1944 C1945 1.396 . S
C1944 C1949 1.390 . S
C1945 C1939 1.465 . S
C1945 C1944 1.396 . S
C1945 C1946 1.399 . S
C1946 H1932 0.929 . S
C1946 C1945 1.399 . S
C1946 C1947 1.385 . S
C1947 H1933 0.931 . S
C1947 C1946 1.385 . S
C1947 C1948 1.389 . S
C1948 C1947 1.389 . S
C1948 C1949 1.387 . S
C1949 H1934 0.930 . S
C1949 C1944 1.390 . S
C1949 C1948 1.387 . S
H1950 C1962 0.930 . S
H1951 C1964 0.930 . S
H1952 C1965 0.930 . S
H1953 C1969 0.959 . S
H1954 C1969 0.959 . S
H1955 C1969 0.961 . S
H1956 C1970 0.960 . S
H1957 C1970 0.961 . S
H1958 C1970 0.959 . S
H1959 C1973 0.929 . S
H1960 C1974 0.931 . S
H1961 C1976 0.930 . S
C1962 H1950 0.930 . S
C1962 C1963 1.399 . S
C1962 C1967 1.399 . S
C1963 C1962 1.399 . S
C1963 C1964 1.376 . S
C1964 H1951 0.930 . S
C1964 C1963 1.376 . S
C1964 C1965 1.388 . S
C1965 H1952 0.930 . S
C1965 C1964 1.388 . S
C1965 C1966 1.390 . S
C1966 C1965 1.390 . S
C1966 C1967 1.394 . S
C1966 C1972 1.465 . S
C1967 C1962 1.399 . S
C1967 C1966 1.394 . S
C1967 C1968 1.516 . S
C1968 C1967 1.516 . S
C1968 C1969 1.502 . S
C1968 C1970 1.561 . S
C1968 C1971 1.526 . S
C1969 H1953 0.959 . S
C1969 H1954 0.959 . S
C1969 H1955 0.961 . S
C1969 C1968 1.502 . S
C1970 H1956 0.960 . S
C1970 H1957 0.961 . S
C1970 H1958 0.959 . S
C1970 C1968 1.561 . S
C1971 C1968 1.526 . S
C1971 C1972 1.396 . S
C1971 C1976 1.390 . S
C1972 C1966 1.465 . S
C1972 C1971 1.396 . S
C1972 C1973 1.399 . S
C1973 H1959 0.929 . S
C1973 C1972 1.399 . S
C1973 C1974 1.385 . S
C1974 H1960 0.931 . S
C1974 C1973 1.385 . S
C1974 C1975 1.389 . S
C1975 C1974 1.389 . S
C1975 C1976 1.387 . S
C1976 H1961 0.930 . S
C1976 C1971 1.390 . S
C1976 C1975 1.387 . S
H1977 C1989 0.930 . S
H1978 C1991 0.930 . S
H1979 C1992 0.930 . S
H1980 C1996 0.959 . S
H1981 C1996 0.959 . S
H1982 C1996 0.961 . S
H1983 C1997 0.960 . S
H1984 C1997 0.961 . S
H1985 C1997 0.959 . S
H1986 C2000 0.929 . S
H1987 C2001 0.931 . S
H1988 C2003 0.930 . S
C1989 H1977 0.930 . S
C1989 C1990 1.399 . S
C1989 C1994 1.399 . S
C1990 C1989 1.399 . S
C1990 C1991 1.376 . S
C1991 H1978 0.930 . S
C1991 C1990 1.376 . S
C1991 C1992 1.388 . S
C1992 H1979 0.930 . S
C1992 C1991 1.388 . S
C1992 C1993 1.390 . S
C1993 C1992 1.390 . S
C1993 C1994 1.394 . S
C1993 C1999 1.465 . S
C1994 C1989 1.399 . S
C1994 C1993 1.394 . S
C1994 C1995 1.516 . S
C1995 C1994 1.516 . S
C1995 C1996 1.502 . S
C1995 C1997 1.561 . S
C1995 C1998 1.526 . S
C1996 H1980 0.959 . S
C1996 H1981 0.959 . S
C1996 H1982 0.961 . S
C1996 C1995 1.502 . S
C1997 H1983 0.960 . S
C1997 H1984 0.961 . S
C1997 H1985 0.959 . S
C1997 C1995 1.561 . S
C1998 C1995 1.526 . S
C1998 C1999 1.396 . S
C1998 C2003 1.390 . S
C1999 C1993 1.465 . S
C1999 C1998 1.396 . S
C1999 C2000 1.399 . S
C2000 H1986 0.929 . S
C2000 C1999 1.399 . S
C2000 C2001 1.385 . S
C2001 H1987 0.931 . S
C2001 C2000 1.385 . S
C2001 C2002 1.389 . S
C2002 C2001 1.389 . S
C2002 C2003 1.387 . S
C2003 H1988 0.930 . S
C2003 C1998 1.390 . S
C2003 C2002 1.387 . S
H2004 C2016 0.930 . S
H2005 C2018 0.930 . S
H2006 C2019 0.930 . S
H2007 C2023 0.959 . S
H2008 C2023 0.959 . S
H2009 C2023 0.961 . S
H2010 C2024 0.960 . S
H2011 C2024 0.961 . S
H2012 C2024 0.959 . S
H2013 C2027 0.929 . S
H2014 C2028 0.931 . S
H2015 C2030 0.930 . S
C2016 H2004 0.930 . S
C2016 C2017 1.399 . S
C2016 C2021 1.399 . S
C2017 C2016 1.399 . S
C2017 C2018 1.376 . S
C2018 H2005 0.930 . S
C2018 C2017 1.376 . S
C2018 C2019 1.388 . S
C2019 H2006 0.930 . S
C2019 C2018 1.388 . S
C2019 C2020 1.390 . S
C2020 C2019 1.390 . S
C2020 C2021 1.394 . S
C2020 C2026 1.465 . S
C2021 C2016 1.399 . S
C2021 C2020 1.394 . S
C2021 C2022 1.516 . S
C2022 C2021 1.516 . S
C2022 C2023 1.502 . S
C2022 C2024 1.561 . S
C2022 C2025 1.526 . S
C2023 H2007 0.959 . S
C2023 H2008 0.959 . S
C2023 H2009 0.961 . S
C2023 C2022 1.502 . S
C2024 H2010 0.960 . S
C2024 H2011 0.961 . S
C2024 H2012 0.959 . S
C2024 C2022 1.561 . S
C2025 C2022 1.526 . S
C2025 C2026 1.396 . S
C2025 C2030 1.390 . S
C2026 C2020 1.465 . S
C2026 C2025 1.396 . S
C2026 C2027 1.399 . S
C2027 H2013 0.929 . S
C2027 C2026 1.399 . S
C2027 C2028 1.385 . S
C2028 H2014 0.931 . S
C2028 C2027 1.385 . S
C2028 C2029 1.389 . S
C2029 C2028 1.389 . S
C2029 C2030 1.387 . S
C2030 H2015 0.930 . S
C2030 C2025 1.390 . S
C2030 C2029 1.387 . S
H2031 C2043 0.930 . S
H2032 C2045 0.930 . S
H2033 C2046 0.930 . S
H2034 C2050 0.959 . S
H2035 C2050 0.959 . S
H2036 C2050 0.961 . S
H2037 C2051 0.960 . S
H2038 C2051 0.961 . S
H2039 C2051 0.959 . S
H2040 C2054 0.929 . S
H2041 C2055 0.931 . S
H2042 C2057 0.930 . S
C2043 H2031 0.930 . S
C2043 C2044 1.399 . S
C2043 C2048 1.399 . S
C2044 C2043 1.399 . S
C2044 C2045 1.376 . S
C2045 H2032 0.930 . S
C2045 C2044 1.376 . S
C2045 C2046 1.388 . S
C2046 H2033 0.930 . S
C2046 C2045 1.388 . S
C2046 C2047 1.390 . S
C2047 C2046 1.390 . S
C2047 C2048 1.394 . S
C2047 C2053 1.465 . S
C2048 C2043 1.399 . S
C2048 C2047 1.394 . S
C2048 C2049 1.516 . S
C2049 C2048 1.516 . S
C2049 C2050 1.502 . S
C2049 C2051 1.561 . S
C2049 C2052 1.526 . S
C2050 H2034 0.959 . S
C2050 H2035 0.959 . S
C2050 H2036 0.961 . S
C2050 C2049 1.502 . S
C2051 H2037 0.960 . S
C2051 H2038 0.961 . S
C2051 H2039 0.959 . S
C2051 C2049 1.561 . S
C2052 C2049 1.526 . S
C2052 C2053 1.396 . S
C2052 C2057 1.390 . S
C2053 C2047 1.465 . S
C2053 C2052 1.396 . S
C2053 C2054 1.399 . S
C2054 H2040 0.929 . S
C2054 C2053 1.399 . S
C2054 C2055 1.385 . S
C2055 H2041 0.931 . S
C2055 C2054 1.385 . S
C2055 C2056 1.389 . S
C2056 C2055 1.389 . S
C2056 C2057 1.387 . S
C2057 H2042 0.930 . S
C2057 C2052 1.390 . S
C2057 C2056 1.387 . S
H2058 C2070 0.930 . S
H2059 C2072 0.930 . S
H2060 C2073 0.930 . S
H2061 C2077 0.959 . S
H2062 C2077 0.959 . S
H2063 C2077 0.961 . S
H2064 C2078 0.960 . S
H2065 C2078 0.961 . S
H2066 C2078 0.959 . S
H2067 C2081 0.929 . S
H2068 C2082 0.931 . S
H2069 C2084 0.930 . S
C2070 H2058 0.930 . S
C2070 C2071 1.399 . S
C2070 C2075 1.399 . S
C2071 C2070 1.399 . S
C2071 C2072 1.376 . S
C2072 H2059 0.930 . S
C2072 C2071 1.376 . S
C2072 C2073 1.388 . S
C2073 H2060 0.930 . S
C2073 C2072 1.388 . S
C2073 C2074 1.390 . S
C2074 C2073 1.390 . S
C2074 C2075 1.394 . S
C2074 C2080 1.465 . S
C2075 C2070 1.399 . S
C2075 C2074 1.394 . S
C2075 C2076 1.516 . S
C2076 C2075 1.516 . S
C2076 C2077 1.502 . S
C2076 C2078 1.561 . S
C2076 C2079 1.526 . S
C2077 H2061 0.959 . S
C2077 H2062 0.959 . S
C2077 H2063 0.961 . S
C2077 C2076 1.502 . S
C2078 H2064 0.960 . S
C2078 H2065 0.961 . S
C2078 H2066 0.959 . S
C2078 C2076 1.561 . S
C2079 C2076 1.526 . S
C2079 C2080 1.396 . S
C2079 C2084 1.390 . S
C2080 C2074 1.465 . S
C2080 C2079 1.396 . S
C2080 C2081 1.399 . S
C2081 H2067 0.929 . S
C2081 C2080 1.399 . S
C2081 C2082 1.385 . S
C2082 H2068 0.931 . S
C2082 C2081 1.385 . S
C2082 C2083 1.389 . S
C2083 C2082 1.389 . S
C2083 C2084 1.387 . S
C2084 H2069 0.930 . S
C2084 C2079 1.390 . S
C2084 C2083 1.387 . S
H2085 C2097 0.930 . S
H2086 C2099 0.930 . S
H2087 C2100 0.930 . S
H2088 C2104 0.959 . S
H2089 C2104 0.959 . S
H2090 C2104 0.961 . S
H2091 C2105 0.960 . S
H2092 C2105 0.961 . S
H2093 C2105 0.959 . S
H2094 C2108 0.929 . S
H2095 C2109 0.931 . S
H2096 C2111 0.930 . S
C2097 H2085 0.930 . S
C2097 C2098 1.399 . S
C2097 C2102 1.399 . S
C2098 C2097 1.399 . S
C2098 C2099 1.376 . S
C2099 H2086 0.930 . S
C2099 C2098 1.376 . S
C2099 C2100 1.388 . S
C2100 H2087 0.930 . S
C2100 C2099 1.388 . S
C2100 C2101 1.390 . S
C2101 C2100 1.390 . S
C2101 C2102 1.394 . S
C2101 C2107 1.465 . S
C2102 C2097 1.399 . S
C2102 C2101 1.394 . S
C2102 C2103 1.516 . S
C2103 C2102 1.516 . S
C2103 C2104 1.502 . S
C2103 C2105 1.561 . S
C2103 C2106 1.526 . S
C2104 H2088 0.959 . S
C2104 H2089 0.959 . S
C2104 H2090 0.961 . S
C2104 C2103 1.502 . S
C2105 H2091 0.960 . S
C2105 H2092 0.961 . S
C2105 H2093 0.959 . S
C2105 C2103 1.561 . S
C2106 C2103 1.526 . S
C2106 C2107 1.396 . S
C2106 C2111 1.390 . S
C2107 C2101 1.465 . S
C2107 C2106 1.396 . S
C2107 C2108 1.399 . S
C2108 H2094 0.929 . S
C2108 C2107 1.399 . S
C2108 C2109 1.385 . S
C2109 H2095 0.931 . S
C2109 C2108 1.385 . S
C2109 C2110 1.389 . S
C2110 C2109 1.389 . S
C2110 C2111 1.387 . S
C2111 H2096 0.930 . S
C2111 C2106 1.390 . S
C2111 C2110 1.387 . S
H2112 C2124 0.930 . S
H2113 C2126 0.930 . S
H2114 C2127 0.930 . S
H2115 C2131 0.959 . S
H2116 C2131 0.959 . S
H2117 C2131 0.961 . S
H2118 C2132 0.960 . S
H2119 C2132 0.961 . S
H2120 C2132 0.959 . S
H2121 C2135 0.929 . S
H2122 C2136 0.931 . S
H2123 C2138 0.930 . S
C2124 H2112 0.930 . S
C2124 C2125 1.399 . S
C2124 C2129 1.399 . S
C2125 C2124 1.399 . S
C2125 C2126 1.376 . S
C2126 H2113 0.930 . S
C2126 C2125 1.376 . S
C2126 C2127 1.388 . S
C2127 H2114 0.930 . S
C2127 C2126 1.388 . S
C2127 C2128 1.390 . S
C2128 C2127 1.390 . S
C2128 C2129 1.394 . S
C2128 C2134 1.465 . S
C2129 C2124 1.399 . S
C2129 C2128 1.394 . S
C2129 C2130 1.516 . S
C2130 C2129 1.516 . S
C2130 C2131 1.502 . S
C2130 C2132 1.561 . S
C2130 C2133 1.526 . S
C2131 H2115 0.959 . S
C2131 H2116 0.959 . S
C2131 H2117 0.961 . S
C2131 C2130 1.502 . S
C2132 H2118 0.960 . S
C2132 H2119 0.961 . S
C2132 H2120 0.959 . S
C2132 C2130 1.561 . S
C2133 C2130 1.526 . S
C2133 C2134 1.396 . S
C2133 C2138 1.390 . S
C2134 C2128 1.465 . S
C2134 C2133 1.396 . S
C2134 C2135 1.399 . S
C2135 H2121 0.929 . S
C2135 C2134 1.399 . S
C2135 C2136 1.385 . S
C2136 H2122 0.931 . S
C2136 C2135 1.385 . S
C2136 C2137 1.389 . S
C2137 C2136 1.389 . S
C2137 C2138 1.387 . S
C2138 H2123 0.930 . S
C2138 C2133 1.390 . S
C2138 C2137 1.387 . S
H2139 C2151 0.930 . S
H2140 C2153 0.930 . S
H2141 C2154 0.930 . S
H2142 C2158 0.959 . S
H2143 C2158 0.959 . S
H2144 C2158 0.961 . S
H2145 C2159 0.960 . S
H2146 C2159 0.961 . S
H2147 C2159 0.959 . S
H2148 C2162 0.929 . S
H2149 C2163 0.931 . S
H2150 C2165 0.930 . S
C2151 H2139 0.930 . S
C2151 C2152 1.399 . S
C2151 C2156 1.399 . S
C2152 C2151 1.399 . S
C2152 C2153 1.376 . S
C2153 H2140 0.930 . S
C2153 C2152 1.376 . S
C2153 C2154 1.388 . S
C2154 H2141 0.930 . S
C2154 C2153 1.388 . S
C2154 C2155 1.390 . S
C2155 C2154 1.390 . S
C2155 C2156 1.394 . S
C2155 C2161 1.465 . S
C2156 C2151 1.399 . S
C2156 C2155 1.394 . S
C2156 C2157 1.516 . S
C2157 C2156 1.516 . S
C2157 C2158 1.502 . S
C2157 C2159 1.561 . S
C2157 C2160 1.526 . S
C2158 H2142 0.959 . S
C2158 H2143 0.959 . S
C2158 H2144 0.961 . S
C2158 C2157 1.502 . S
C2159 H2145 0.960 . S
C2159 H2146 0.961 . S
C2159 H2147 0.959 . S
C2159 C2157 1.561 . S
C2160 C2157 1.526 . S
C2160 C2161 1.396 . S
C2160 C2165 1.390 . S
C2161 C2155 1.465 . S
C2161 C2160 1.396 . S
C2161 C2162 1.399 . S
C2162 H2148 0.929 . S
C2162 C2161 1.399 . S
C2162 C2163 1.385 . S
C2163 H2149 0.931 . S
C2163 C2162 1.385 . S
C2163 C2164 1.389 . S
C2164 C2163 1.389 . S
C2164 C2165 1.387 . S
C2165 H2150 0.930 . S
C2165 C2160 1.390 . S
C2165 C2164 1.387 . S
H2166 C2178 0.930 . S
H2167 C2180 0.930 . S
H2168 C2181 0.930 . S
H2169 C2185 0.959 . S
H2170 C2185 0.959 . S
H2171 C2185 0.961 . S
H2172 C2186 0.960 . S
H2173 C2186 0.961 . S
H2174 C2186 0.959 . S
H2175 C2189 0.929 . S
H2176 C2190 0.931 . S
H2177 C2192 0.930 . S
C2178 H2166 0.930 . S
C2178 C2179 1.399 . S
C2178 C2183 1.399 . S
C2179 C2178 1.399 . S
C2179 C2180 1.376 . S
C2180 H2167 0.930 . S
C2180 C2179 1.376 . S
C2180 C2181 1.388 . S
C2181 H2168 0.930 . S
C2181 C2180 1.388 . S
C2181 C2182 1.390 . S
C2182 C2181 1.390 . S
C2182 C2183 1.394 . S
C2182 C2188 1.465 . S
C2183 C2178 1.399 . S
C2183 C2182 1.394 . S
C2183 C2184 1.516 . S
C2184 C2183 1.516 . S
C2184 C2185 1.502 . S
C2184 C2186 1.561 . S
C2184 C2187 1.526 . S
C2185 H2169 0.959 . S
C2185 H2170 0.959 . S
C2185 H2171 0.961 . S
C2185 C2184 1.502 . S
C2186 H2172 0.960 . S
C2186 H2173 0.961 . S
C2186 H2174 0.959 . S
C2186 C2184 1.561 . S
C2187 C2184 1.526 . S
C2187 C2188 1.396 . S
C2187 C2192 1.390 . S
C2188 C2182 1.465 . S
C2188 C2187 1.396 . S
C2188 C2189 1.399 . S
C2189 H2175 0.929 . S
C2189 C2188 1.399 . S
C2189 C2190 1.385 . S
C2190 H2176 0.931 . S
C2190 C2189 1.385 . S
C2190 C2191 1.389 . S
C2191 C2190 1.389 . S
C2191 C2192 1.387 . S
C2192 H2177 0.930 . S
C2192 C2187 1.390 . S
C2192 C2191 1.387 . S
H2193 C2205 0.930 . S
H2194 C2207 0.930 . S
H2195 C2208 0.930 . S
H2196 C2212 0.959 . S
H2197 C2212 0.959 . S
H2198 C2212 0.961 . S
H2199 C2213 0.960 . S
H2200 C2213 0.961 . S
H2201 C2213 0.959 . S
H2202 C2216 0.929 . S
H2203 C2217 0.931 . S
H2204 C2219 0.930 . S
C2205 H2193 0.930 . S
C2205 C2206 1.399 . S
C2205 C2210 1.399 . S
C2206 C2205 1.399 . S
C2206 C2207 1.376 . S
C2207 H2194 0.930 . S
C2207 C2206 1.376 . S
C2207 C2208 1.388 . S
C2208 H2195 0.930 . S
C2208 C2207 1.388 . S
C2208 C2209 1.390 . S
C2209 C2208 1.390 . S
C2209 C2210 1.394 . S
C2209 C2215 1.465 . S
C2210 C2205 1.399 . S
C2210 C2209 1.394 . S
C2210 C2211 1.516 . S
C2211 C2210 1.516 . S
C2211 C2212 1.502 . S
C2211 C2213 1.561 . S
C2211 C2214 1.526 . S
C2212 H2196 0.959 . S
C2212 H2197 0.959 . S
C2212 H2198 0.961 . S
C2212 C2211 1.502 . S
C2213 H2199 0.960 . S
C2213 H2200 0.961 . S
C2213 H2201 0.959 . S
C2213 C2211 1.561 . S
C2214 C2211 1.526 . S
C2214 C2215 1.396 . S
C2214 C2219 1.390 . S
C2215 C2209 1.465 . S
C2215 C2214 1.396 . S
C2215 C2216 1.399 . S
C2216 H2202 0.929 . S
C2216 C2215 1.399 . S
C2216 C2217 1.385 . S
C2217 H2203 0.931 . S
C2217 C2216 1.385 . S
C2217 C2218 1.389 . S
C2218 C2217 1.389 . S
C2218 C2219 1.387 . S
C2219 H2204 0.930 . S
C2219 C2214 1.390 . S
C2219 C2218 1.387 . S
H2220 C2232 0.930 . S
H2221 C2234 0.930 . S
H2222 C2235 0.930 . S
H2223 C2239 0.959 . S
H2224 C2239 0.959 . S
H2225 C2239 0.961 . S
H2226 C2240 0.960 . S
H2227 C2240 0.961 . S
H2228 C2240 0.959 . S
H2229 C2243 0.929 . S
H2230 C2244 0.931 . S
H2231 C2246 0.930 . S
C2232 H2220 0.930 . S
C2232 C2233 1.399 . S
C2232 C2237 1.399 . S
C2233 C2232 1.399 . S
C2233 C2234 1.376 . S
C2234 H2221 0.930 . S
C2234 C2233 1.376 . S
C2234 C2235 1.388 . S
C2235 H2222 0.930 . S
C2235 C2234 1.388 . S
C2235 C2236 1.390 . S
C2236 C2235 1.390 . S
C2236 C2237 1.394 . S
C2236 C2242 1.465 . S
C2237 C2232 1.399 . S
C2237 C2236 1.394 . S
C2237 C2238 1.516 . S
C2238 C2237 1.516 . S
C2238 C2239 1.502 . S
C2238 C2240 1.561 . S
C2238 C2241 1.526 . S
C2239 H2223 0.959 . S
C2239 H2224 0.959 . S
C2239 H2225 0.961 . S
C2239 C2238 1.502 . S
C2240 H2226 0.960 . S
C2240 H2227 0.961 . S
C2240 H2228 0.959 . S
C2240 C2238 1.561 . S
C2241 C2238 1.526 . S
C2241 C2242 1.396 . S
C2241 C2246 1.390 . S
C2242 C2236 1.465 . S
C2242 C2241 1.396 . S
C2242 C2243 1.399 . S
C2243 H2229 0.929 . S
C2243 C2242 1.399 . S
C2243 C2244 1.385 . S
C2244 H2230 0.931 . S
C2244 C2243 1.385 . S
C2244 C2245 1.389 . S
C2245 C2244 1.389 . S
C2245 C2246 1.387 . S
C2246 H2231 0.930 . S
C2246 C2241 1.390 . S
C2246 C2245 1.387 . S
H2247 C2259 0.930 . S
H2248 C2261 0.930 . S
H2249 C2262 0.930 . S
H2250 C2266 0.959 . S
H2251 C2266 0.959 . S
H2252 C2266 0.961 . S
H2253 C2267 0.960 . S
H2254 C2267 0.961 . S
H2255 C2267 0.959 . S
H2256 C2270 0.929 . S
H2257 C2271 0.931 . S
H2258 C2273 0.930 . S
C2259 H2247 0.930 . S
C2259 C2260 1.399 . S
C2259 C2264 1.399 . S
C2260 C2259 1.399 . S
C2260 C2261 1.376 . S
C2261 H2248 0.930 . S
C2261 C2260 1.376 . S
C2261 C2262 1.388 . S
C2262 H2249 0.930 . S
C2262 C2261 1.388 . S
C2262 C2263 1.390 . S
C2263 C2262 1.390 . S
C2263 C2264 1.394 . S
C2263 C2269 1.465 . S
C2264 C2259 1.399 . S
C2264 C2263 1.394 . S
C2264 C2265 1.516 . S
C2265 C2264 1.516 . S
C2265 C2266 1.502 . S
C2265 C2267 1.561 . S
C2265 C2268 1.526 . S
C2266 H2250 0.959 . S
C2266 H2251 0.959 . S
C2266 H2252 0.961 . S
C2266 C2265 1.502 . S
C2267 H2253 0.960 . S
C2267 H2254 0.961 . S
C2267 H2255 0.959 . S
C2267 C2265 1.561 . S
C2268 C2265 1.526 . S
C2268 C2269 1.396 . S
C2268 C2273 1.390 . S
C2269 C2263 1.465 . S
C2269 C2268 1.396 . S
C2269 C2270 1.399 . S
C2270 H2256 0.929 . S
C2270 C2269 1.399 . S
C2270 C2271 1.385 . S
C2271 H2257 0.931 . S
C2271 C2270 1.385 . S
C2271 C2272 1.389 . S
C2272 C2271 1.389 . S
C2272 C2273 1.387 . S
C2273 H2258 0.930 . S
C2273 C2268 1.390 . S
C2273 C2272 1.387 . S
H2274 C2286 0.930 . S
H2275 C2288 0.930 . S
H2276 C2289 0.930 . S
H2277 C2293 0.959 . S
H2278 C2293 0.959 . S
H2279 C2293 0.961 . S
H2280 C2294 0.960 . S
H2281 C2294 0.961 . S
H2282 C2294 0.959 . S
H2283 C2297 0.929 . S
H2284 C2298 0.931 . S
H2285 C2300 0.930 . S
C2286 H2274 0.930 . S
C2286 C2287 1.399 . S
C2286 C2291 1.399 . S
C2287 C2286 1.399 . S
C2287 C2288 1.376 . S
C2288 H2275 0.930 . S
C2288 C2287 1.376 . S
C2288 C2289 1.388 . S
C2289 H2276 0.930 . S
C2289 C2288 1.388 . S
C2289 C2290 1.390 . S
C2290 C2289 1.390 . S
C2290 C2291 1.394 . S
C2290 C2296 1.465 . S
C2291 C2286 1.399 . S
C2291 C2290 1.394 . S
C2291 C2292 1.516 . S
C2292 C2291 1.516 . S
C2292 C2293 1.502 . S
C2292 C2294 1.561 . S
C2292 C2295 1.526 . S
C2293 H2277 0.959 . S
C2293 H2278 0.959 . S
C2293 H2279 0.961 . S
C2293 C2292 1.502 . S
C2294 H2280 0.960 . S
C2294 H2281 0.961 . S
C2294 H2282 0.959 . S
C2294 C2292 1.561 . S
C2295 C2292 1.526 . S
C2295 C2296 1.396 . S
C2295 C2300 1.390 . S
C2296 C2290 1.465 . S
C2296 C2295 1.396 . S
C2296 C2297 1.399 . S
C2297 H2283 0.929 . S
C2297 C2296 1.399 . S
C2297 C2298 1.385 . S
C2298 H2284 0.931 . S
C2298 C2297 1.385 . S
C2298 C2299 1.389 . S
C2299 C2298 1.389 . S
C2299 C2300 1.387 . S
C2300 H2285 0.930 . S
C2300 C2295 1.390 . S
C2300 C2299 1.387 . S
H2301 C2313 0.930 . S
H2302 C2315 0.930 . S
H2303 C2316 0.930 . S
H2304 C2320 0.959 . S
H2305 C2320 0.959 . S
H2306 C2320 0.961 . S
H2307 C2321 0.960 . S
H2308 C2321 0.961 . S
H2309 C2321 0.959 . S
H2310 C2324 0.929 . S
H2311 C2325 0.931 . S
H2312 C2327 0.930 . S
C2313 H2301 0.930 . S
C2313 C2314 1.399 . S
C2313 C2318 1.399 . S
C2314 C2313 1.399 . S
C2314 C2315 1.376 . S
C2315 H2302 0.930 . S
C2315 C2314 1.376 . S
C2315 C2316 1.388 . S
C2316 H2303 0.930 . S
C2316 C2315 1.388 . S
C2316 C2317 1.390 . S
C2317 C2316 1.390 . S
C2317 C2318 1.394 . S
C2317 C2323 1.465 . S
C2318 C2313 1.399 . S
C2318 C2317 1.394 . S
C2318 C2319 1.516 . S
C2319 C2318 1.516 . S
C2319 C2320 1.502 . S
C2319 C2321 1.561 . S
C2319 C2322 1.526 . S
C2320 H2304 0.959 . S
C2320 H2305 0.959 . S
C2320 H2306 0.961 . S
C2320 C2319 1.502 . S
C2321 H2307 0.960 . S
C2321 H2308 0.961 . S
C2321 H2309 0.959 . S
C2321 C2319 1.561 . S
C2322 C2319 1.526 . S
C2322 C2323 1.396 . S
C2322 C2327 1.390 . S
C2323 C2317 1.465 . S
C2323 C2322 1.396 . S
C2323 C2324 1.399 . S
C2324 H2310 0.929 . S
C2324 C2323 1.399 . S
C2324 C2325 1.385 . S
C2325 H2311 0.931 . S
C2325 C2324 1.385 . S
C2325 C2326 1.389 . S
C2326 C2325 1.389 . S
C2326 C2327 1.387 . S
C2327 H2312 0.930 . S
C2327 C2322 1.390 . S
C2327 C2326 1.387 . S
H2328 C2340 0.930 . S
H2329 C2342 0.930 . S
H2330 C2343 0.930 . S
H2331 C2347 0.959 . S
H2332 C2347 0.959 . S
H2333 C2347 0.961 . S
H2334 C2348 0.960 . S
H2335 C2348 0.961 . S
H2336 C2348 0.959 . S
H2337 C2351 0.929 . S
H2338 C2352 0.931 . S
H2339 C2354 0.930 . S
C2340 H2328 0.930 . S
C2340 C2341 1.399 . S
C2340 C2345 1.399 . S
C2341 C2340 1.399 . S
C2341 C2342 1.376 . S
C2342 H2329 0.930 . S
C2342 C2341 1.376 . S
C2342 C2343 1.388 . S
C2343 H2330 0.930 . S
C2343 C2342 1.388 . S
C2343 C2344 1.390 . S
C2344 C2343 1.390 . S
C2344 C2345 1.394 . S
C2344 C2350 1.465 . S
C2345 C2340 1.399 . S
C2345 C2344 1.394 . S
C2345 C2346 1.516 . S
C2346 C2345 1.516 . S
C2346 C2347 1.502 . S
C2346 C2348 1.561 . S
C2346 C2349 1.526 . S
C2347 H2331 0.959 . S
C2347 H2332 0.959 . S
C2347 H2333 0.961 . S
C2347 C2346 1.502 . S
C2348 H2334 0.960 . S
C2348 H2335 0.961 . S
C2348 H2336 0.959 . S
C2348 C2346 1.561 . S
C2349 C2346 1.526 . S
C2349 C2350 1.396 . S
C2349 C2354 1.390 . S
C2350 C2344 1.465 . S
C2350 C2349 1.396 . S
C2350 C2351 1.399 . S
C2351 H2337 0.929 . S
C2351 C2350 1.399 . S
C2351 C2352 1.385 . S
C2352 H2338 0.931 . S
C2352 C2351 1.385 . S
C2352 C2353 1.389 . S
C2353 C2352 1.389 . S
C2353 C2354 1.387 . S
C2354 H2339 0.930 . S
C2354 C2349 1.390 . S
C2354 C2353 1.387 . S
H2355 C2367 0.930 . S
H2356 C2369 0.930 . S
H2357 C2370 0.930 . S
H2358 C2374 0.959 . S
H2359 C2374 0.959 . S
H2360 C2374 0.961 . S
H2361 C2375 0.960 . S
H2362 C2375 0.961 . S
H2363 C2375 0.959 . S
H2364 C2378 0.929 . S
H2365 C2379 0.931 . S
H2366 C2381 0.930 . S
C2367 H2355 0.930 . S
C2367 C2368 1.399 . S
C2367 C2372 1.399 . S
C2368 C2367 1.399 . S
C2368 C2369 1.376 . S
C2369 H2356 0.930 . S
C2369 C2368 1.376 . S
C2369 C2370 1.388 . S
C2370 H2357 0.930 . S
C2370 C2369 1.388 . S
C2370 C2371 1.390 . S
C2371 C2370 1.390 . S
C2371 C2372 1.394 . S
C2371 C2377 1.465 . S
C2372 C2367 1.399 . S
C2372 C2371 1.394 . S
C2372 C2373 1.516 . S
C2373 C2372 1.516 . S
C2373 C2374 1.502 . S
C2373 C2375 1.561 . S
C2373 C2376 1.526 . S
C2374 H2358 0.959 . S
C2374 H2359 0.959 . S
C2374 H2360 0.961 . S
C2374 C2373 1.502 . S
C2375 H2361 0.960 . S
C2375 H2362 0.961 . S
C2375 H2363 0.959 . S
C2375 C2373 1.561 . S
C2376 C2373 1.526 . S
C2376 C2377 1.396 . S
C2376 C2381 1.390 . S
C2377 C2371 1.465 . S
C2377 C2376 1.396 . S
C2377 C2378 1.399 . S
C2378 H2364 0.929 . S
C2378 C2377 1.399 . S
C2378 C2379 1.385 . S
C2379 H2365 0.931 . S
C2379 C2378 1.385 . S
C2379 C2380 1.389 . S
C2380 C2379 1.389 . S
C2380 C2381 1.387 . S
C2381 H2366 0.930 . S
C2381 C2376 1.390 . S
C2381 C2380 1.387 . S
H2382 C2394 0.930 . S
H2383 C2396 0.930 . S
H2384 C2397 0.930 . S
H2385 C2401 0.959 . S
H2386 C2401 0.959 . S
H2387 C2401 0.961 . S
H2388 C2402 0.960 . S
H2389 C2402 0.961 . S
H2390 C2402 0.959 . S
H2391 C2405 0.929 . S
H2392 C2406 0.931 . S
H2393 C2408 0.930 . S
C2394 H2382 0.930 . S
C2394 C2395 1.399 . S
C2394 C2399 1.399 . S
C2395 C2394 1.399 . S
C2395 C2396 1.376 . S
C2396 H2383 0.930 . S
C2396 C2395 1.376 . S
C2396 C2397 1.388 . S
C2397 H2384 0.930 . S
C2397 C2396 1.388 . S
C2397 C2398 1.390 . S
C2398 C2397 1.390 . S
C2398 C2399 1.394 . S
C2398 C2404 1.465 . S
C2399 C2394 1.399 . S
C2399 C2398 1.394 . S
C2399 C2400 1.516 . S
C2400 C2399 1.516 . S
C2400 C2401 1.502 . S
C2400 C2402 1.561 . S
C2400 C2403 1.526 . S
C2401 H2385 0.959 . S
C2401 H2386 0.959 . S
C2401 H2387 0.961 . S
C2401 C2400 1.502 . S
C2402 H2388 0.960 . S
C2402 H2389 0.961 . S
C2402 H2390 0.959 . S
C2402 C2400 1.561 . S
C2403 C2400 1.526 . S
C2403 C2404 1.396 . S
C2403 C2408 1.390 . S
C2404 C2398 1.465 . S
C2404 C2403 1.396 . S
C2404 C2405 1.399 . S
C2405 H2391 0.929 . S
C2405 C2404 1.399 . S
C2405 C2406 1.385 . S
C2406 H2392 0.931 . S
C2406 C2405 1.385 . S
C2406 C2407 1.389 . S
C2407 C2406 1.389 . S
C2407 C2408 1.387 . S
C2408 H2393 0.930 . S
C2408 C2403 1.390 . S
C2408 C2407 1.387 . S
H2409 C2421 0.930 . S
H2410 C2423 0.930 . S
H2411 C2424 0.930 . S
H2412 C2428 0.959 . S
H2413 C2428 0.959 . S
H2414 C2428 0.961 . S
H2415 C2429 0.960 . S
H2416 C2429 0.961 . S
H2417 C2429 0.959 . S
H2418 C2432 0.929 . S
H2419 C2433 0.931 . S
H2420 C2435 0.930 . S
C2421 H2409 0.930 . S
C2421 C2422 1.399 . S
C2421 C2426 1.399 . S
C2422 C2421 1.399 . S
C2422 C2423 1.376 . S
C2423 H2410 0.930 . S
C2423 C2422 1.376 . S
C2423 C2424 1.388 . S
C2424 H2411 0.930 . S
C2424 C2423 1.388 . S
C2424 C2425 1.390 . S
C2425 C2424 1.390 . S
C2425 C2426 1.394 . S
C2425 C2431 1.465 . S
C2426 C2421 1.399 . S
C2426 C2425 1.394 . S
C2426 C2427 1.516 . S
C2427 C2426 1.516 . S
C2427 C2428 1.502 . S
C2427 C2429 1.561 . S
C2427 C2430 1.526 . S
C2428 H2412 0.959 . S
C2428 H2413 0.959 . S
C2428 H2414 0.961 . S
C2428 C2427 1.502 . S
C2429 H2415 0.960 . S
C2429 H2416 0.961 . S
C2429 H2417 0.959 . S
C2429 C2427 1.561 . S
C2430 C2427 1.526 . S
C2430 C2431 1.396 . S
C2430 C2435 1.390 . S
C2431 C2425 1.465 . S
C2431 C2430 1.396 . S
C2431 C2432 1.399 . S
C2432 H2418 0.929 . S
C2432 C2431 1.399 . S
C2432 C2433 1.385 . S
C2433 H2419 0.931 . S
C2433 C2432 1.385 . S
C2433 C2434 1.389 . S
C2434 C2433 1.389 . S
C2434 C2435 1.387 . S
C2435 H2420 0.930 . S
C2435 C2430 1.390 . S
C2435 C2434 1.387 . S
H2436 C2448 0.930 . S
H2437 C2450 0.930 . S
H2438 C2451 0.930 . S
H2439 C2455 0.959 . S
H2440 C2455 0.959 . S
H2441 C2455 0.961 . S
H2442 C2456 0.960 . S
H2443 C2456 0.961 . S
H2444 C2456 0.959 . S
H2445 C2459 0.929 . S
H2446 C2460 0.931 . S
H2447 C2462 0.930 . S
C2448 H2436 0.930 . S
C2448 C2449 1.399 . S
C2448 C2453 1.399 . S
C2449 C2448 1.399 . S
C2449 C2450 1.376 . S
C2450 H2437 0.930 . S
C2450 C2449 1.376 . S
C2450 C2451 1.388 . S
C2451 H2438 0.930 . S
C2451 C2450 1.388 . S
C2451 C2452 1.390 . S
C2452 C2451 1.390 . S
C2452 C2453 1.394 . S
C2452 C2458 1.465 . S
C2453 C2448 1.399 . S
C2453 C2452 1.394 . S
C2453 C2454 1.516 . S
C2454 C2453 1.516 . S
C2454 C2455 1.502 . S
C2454 C2456 1.561 . S
C2454 C2457 1.526 . S
C2455 H2439 0.959 . S
C2455 H2440 0.959 . S
C2455 H2441 0.961 . S
C2455 C2454 1.502 . S
C2456 H2442 0.960 . S
C2456 H2443 0.961 . S
C2456 H2444 0.959 . S
C2456 C2454 1.561 . S
C2457 C2454 1.526 . S
C2457 C2458 1.396 . S
C2457 C2462 1.390 . S
C2458 C2452 1.465 . S
C2458 C2457 1.396 . S
C2458 C2459 1.399 . S
C2459 H2445 0.929 . S
C2459 C2458 1.399 . S
C2459 C2460 1.385 . S
C2460 H2446 0.931 . S
C2460 C2459 1.385 . S
C2460 C2461 1.389 . S
C2461 C2460 1.389 . S
C2461 C2462 1.387 . S
C2462 H2447 0.930 . S
C2462 C2457 1.390 . S
C2462 C2461 1.387 . S
H2463 C2475 0.930 . S
H2464 C2477 0.930 . S
H2465 C2478 0.930 . S
H2466 C2482 0.959 . S
H2467 C2482 0.959 . S
H2468 C2482 0.961 . S
H2469 C2483 0.960 . S
H2470 C2483 0.961 . S
H2471 C2483 0.959 . S
H2472 C2486 0.929 . S
H2473 C2487 0.931 . S
H2474 C2489 0.930 . S
C2475 H2463 0.930 . S
C2475 C2476 1.399 . S
C2475 C2480 1.399 . S
C2476 C2475 1.399 . S
C2476 C2477 1.376 . S
C2477 H2464 0.930 . S
C2477 C2476 1.376 . S
C2477 C2478 1.388 . S
C2478 H2465 0.930 . S
C2478 C2477 1.388 . S
C2478 C2479 1.390 . S
C2479 C2478 1.390 . S
C2479 C2480 1.394 . S
C2479 C2485 1.465 . S
C2480 C2475 1.399 . S
C2480 C2479 1.394 . S
C2480 C2481 1.516 . S
C2481 C2480 1.516 . S
C2481 C2482 1.502 . S
C2481 C2483 1.561 . S
C2481 C2484 1.526 . S
C2482 H2466 0.959 . S
C2482 H2467 0.959 . S
C2482 H2468 0.961 . S
C2482 C2481 1.502 . S
C2483 H2469 0.960 . S
C2483 H2470 0.961 . S
C2483 H2471 0.959 . S
C2483 C2481 1.561 . S
C2484 C2481 1.526 . S
C2484 C2485 1.396 . S
C2484 C2489 1.390 . S
C2485 C2479 1.465 . S
C2485 C2484 1.396 . S
C2485 C2486 1.399 . S
C2486 H2472 0.929 . S
C2486 C2485 1.399 . S
C2486 C2487 1.385 . S
C2487 H2473 0.931 . S
C2487 C2486 1.385 . S
C2487 C2488 1.389 . S
C2488 C2487 1.389 . S
C2488 C2489 1.387 . S
C2489 H2474 0.930 . S
C2489 C2484 1.390 . S
C2489 C2488 1.387 . S
H2490 C2502 0.930 . S
H2491 C2504 0.930 . S
H2492 C2505 0.930 . S
H2493 C2509 0.959 . S
H2494 C2509 0.959 . S
H2495 C2509 0.961 . S
H2496 C2510 0.960 . S
H2497 C2510 0.961 . S
H2498 C2510 0.959 . S
H2499 C2513 0.929 . S
H2500 C2514 0.931 . S
H2501 C2516 0.930 . S
C2502 H2490 0.930 . S
C2502 C2503 1.399 . S
C2502 C2507 1.399 . S
C2503 C2502 1.399 . S
C2503 C2504 1.376 . S
C2504 H2491 0.930 . S
C2504 C2503 1.376 . S
C2504 C2505 1.388 . S
C2505 H2492 0.930 . S
C2505 C2504 1.388 . S
C2505 C2506 1.390 . S
C2506 C2505 1.390 . S
C2506 C2507 1.394 . S
C2506 C2512 1.465 . S
C2507 C2502 1.399 . S
C2507 C2506 1.394 . S
C2507 C2508 1.516 . S
C2508 C2507 1.516 . S
C2508 C2509 1.502 . S
C2508 C2510 1.561 . S
C2508 C2511 1.526 . S
C2509 H2493 0.959 . S
C2509 H2494 0.959 . S
C2509 H2495 0.961 . S
C2509 C2508 1.502 . S
C2510 H2496 0.960 . S
C2510 H2497 0.961 . S
C2510 H2498 0.959 . S
C2510 C2508 1.561 . S
C2511 C2508 1.526 . S
C2511 C2512 1.396 . S
C2511 C2516 1.390 . S
C2512 C2506 1.465 . S
C2512 C2511 1.396 . S
C2512 C2513 1.399 . S
C2513 H2499 0.929 . S
C2513 C2512 1.399 . S
C2513 C2514 1.385 . S
C2514 H2500 0.931 . S
C2514 C2513 1.385 . S
C2514 C2515 1.389 . S
C2515 C2514 1.389 . S
C2515 C2516 1.387 . S
C2516 H2501 0.930 . S
C2516 C2511 1.390 . S
C2516 C2515 1.387 . S
H2517 C2529 0.930 . S
H2518 C2531 0.930 . S
H2519 C2532 0.930 . S
H2520 C2536 0.959 . S
H2521 C2536 0.959 . S
H2522 C2536 0.961 . S
H2523 C2537 0.960 . S
H2524 C2537 0.961 . S
H2525 C2537 0.959 . S
H2526 C2540 0.929 . S
H2527 C2541 0.931 . S
H2528 C2543 0.930 . S
C2529 H2517 0.930 . S
C2529 C2530 1.399 . S
C2529 C2534 1.399 . S
C2530 C2529 1.399 . S
C2530 C2531 1.376 . S
C2531 H2518 0.930 . S
C2531 C2530 1.376 . S
C2531 C2532 1.388 . S
C2532 H2519 0.930 . S
C2532 C2531 1.388 . S
C2532 C2533 1.390 . S
C2533 C2532 1.390 . S
C2533 C2534 1.394 . S
C2533 C2539 1.465 . S
C2534 C2529 1.399 . S
C2534 C2533 1.394 . S
C2534 C2535 1.516 . S
C2535 C2534 1.516 . S
C2535 C2536 1.502 . S
C2535 C2537 1.561 . S
C2535 C2538 1.526 . S
C2536 H2520 0.959 . S
C2536 H2521 0.959 . S
C2536 H2522 0.961 . S
C2536 C2535 1.502 . S
C2537 H2523 0.960 . S
C2537 H2524 0.961 . S
C2537 H2525 0.959 . S
C2537 C2535 1.561 . S
C2538 C2535 1.526 . S
C2538 C2539 1.396 . S
C2538 C2543 1.390 . S
C2539 C2533 1.465 . S
C2539 C2538 1.396 . S
C2539 C2540 1.399 . S
C2540 H2526 0.929 . S
C2540 C2539 1.399 . S
C2540 C2541 1.385 . S
C2541 H2527 0.931 . S
C2541 C2540 1.385 . S
C2541 C2542 1.389 . S
C2542 C2541 1.389 . S
C2542 C2543 1.387 . S
C2543 H2528 0.930 . S
C2543 C2538 1.390 . S
C2543 C2542 1.387 . S
C625 C330 1.448 . S
C613 C285 1.488 . S
C640 C261 1.389 . S
C652 C324 1.306 . S
C679 C292 1.387 . S
C667 C249 1.519 . S
C694 C273 1.660 . S
C706 C306 1.610 . S
C733 C344 1.965 . S
C721 C201 2.055 . S
C760 C431 1.445 . S
C748 C213 1.519 . S
C775 C225 2.110 . S
C787 C358 1.987 . S
C814 C426 1.038 . S
C802 C237 1.101 . S
C829 C153 2.010 . S
C841 C382 1.954 . S
C868 C437 1.466 . S
C856 C165 1.539 . S
C883 C177 1.972 . S
C895 C376 1.904 . S
C910 C189 1.288 . S
C922 C422 1.262 . S
C949 C478 1.240 . S
C937 C141 1.260 . S
C964 C117 1.476 . S
C976 C489 1.464 . S
C991 C105 1.195 . S
C1003 C474 1.156 . S
C1030 C483 1.644 . S
C1018 C129 1.674 . S
C1045 C57 1.647 . S
C1057 C528 1.596 . S
C1072 C69 0.789 . S
C1084 C587 0.783 . S
C1099 C81 1.783 . S
C1111 C544 1.690 . S
C1126 C93 1.108 . S
C1138 C582 1.029 . S
C1165 C546 1.604 . S
C1153 C9 1.692 . S
C1192 C593 0.714 . S
C1180 C21 0.751 . S
C1207 C33 1.529 . S
C1219 C522 1.484 . S
C1246 C578 1.187 . S
C1234 C45 1.174 . S
C1273 C314 1.469 . S
C1261 C4 1.375 . S
C1288 C18 1.373 . S
C1300 C318 1.353 . S
C1315 C30 1.739 . S
C1327 C338 1.643 . S
C1342 C42 1.204 . S
C1354 C333 1.210 . S
C1369 C52 1.454 . S
C1381 C336 1.434 . S
C1408 C322 1.380 . S
C1396 C66 1.409 . S
C1423 C78 1.674 . S
C1435 C320 1.689 . S
C1462 C327 0.783 . S
C1450 C88 0.714 . S
C1489 C390 1.353 . S
C1477 C40 1.422 . S
C1504 C6 1.933 . S
C1516 C440 1.859 . S
C1543 C388 1.237 . S
C1531 C16 1.109 . S
C1570 C424 1.597 . S
C1558 C28 1.570 . S
C1585 C64 0.956 . S
C1597 C366 1.101 . S
C1624 C442 1.760 . S
C1612 C76 1.760 . S
C1651 C372 1.612 . S
C1639 C90 1.613 . S
C1678 C418 1.924 . S
C1666 C54 2.006 1_455 S
C1705 C410 1.540 . S
C1693 C102 1.538 . S
C1720 C114 1.321 . S
C1732 C434 1.363 . S
C1759 C370 0.999 . S
C1747 C100 1.030 . S
C1786 C396 1.195 . S
C1774 C124 1.108 . S
C1801 C138 1.331 . S
C1813 C374 1.279 . S
C1828 C136 1.278 . S
C1840 C428 1.308 . S
C1867 C385 1.254 . S
C1855 C112 1.201 . S
C1894 C379 1.599 . S
C1882 C126 1.566 1_556 S
C1921 C462 1.728 . S
C1909 C148 1.629 . S
C1948 C494 1.471 . S
C1936 C162 1.504 . S
C1963 C174 1.972 . S
C1975 C448 1.924 . S
C2002 C492 1.325 . S
C1990 C186 1.406 . S
C2029 C480 1.743 . S
C2017 C196 1.669 . S
C2044 C210 1.542 . S
C2056 C476 1.562 . S
C2071 C222 2.028 . S
C2083 C486 1.994 . S
C2110 C470 0.962 . S
C2098 C232 0.828 . S
C2137 C535 1.278 . S
C2125 C184 1.271 . S
C2152 C150 1.719 . S
C2164 C596 1.664 . S
C2191 C530 1.094 . S
C2179 C160 0.993 . S
C2218 C580 1.435 . S
C2206 C172 1.291 . S
C2245 C526 0.971 . S
C2233 C208 0.971 . S
C2260 C220 1.404 . S
C2272 C598 1.468 . S
C2299 C541 1.489 . S
C2287 C234 1.431 . S
C2326 C574 1.674 . S
C2314 C198 1.748 . S
C2353 C566 1.682 . S
C2341 C246 1.726 . S
C2368 C258 1.799 . S
C2380 C590 1.749 . S
C2407 C532 1.210 . S
C2395 C244 1.166 . S
C2422 C268 1.506 . S
C2434 C552 1.537 . S
C2461 C514 1.636 . S
C2449 C282 1.624 . S
C2488 C584 1.423 . S
C2476 C280 1.309 . S
C2515 C500 1.296 . S
C2503 C256 1.215 . S
C2530 C270 1.582 . S
C2542 C538 1.549 . S
