# Generated by pormake.
# Topology pth, (4,4)-cn, num edge types: 1
# Building blocks:
#     Node 0, Type 0, BuildingBlock: QUQFOY_clean_sbu_3, # of connection points: 4
#     Node 1, Type 0, BuildingBlock: QUQFOY_clean_sbu_3, # of connection points: 4
#     Node 2, Type 0, BuildingBlock: QUQFOY_clean_sbu_3, # of connection points: 4
#     Node 3, Type 1, BuildingBlock: MIFKUJ_clean_linker_1, # of connection points: 4
#     Node 4, Type 1, BuildingBlock: MIFKUJ_clean_linker_1, # of connection points: 4
#     Node 5, Type 1, BuildingBlock: MIFKUJ_clean_linker_1, # of connection points: 4
#     Edge 6, Type (0, 1), BuildingBlock: ZUJKAS_clean_linker_0, # of connection points: 2
#     Edge 7, Type (0, 1), BuildingBlock: ZUJKAS_clean_linker_0, # of connection points: 2
#     Edge 8, Type (0, 1), BuildingBlock: ZUJKAS_clean_linker_0, # of connection points: 2
#     Edge 9, Type (0, 1), BuildingBlock: ZUJKAS_clean_linker_0, # of connection points: 2
#     Edge 10, Type (0, 1), BuildingBlock: ZUJKAS_clean_linker_0, # of connection points: 2
#     Edge 11, Type (0, 1), BuildingBlock: ZUJKAS_clean_linker_0, # of connection points: 2
#     Edge 12, Type (0, 1), BuildingBlock: ZUJKAS_clean_linker_0, # of connection points: 2
#     Edge 13, Type (0, 1), BuildingBlock: ZUJKAS_clean_linker_0, # of connection points: 2
#     Edge 14, Type (0, 1), BuildingBlock: ZUJKAS_clean_linker_0, # of connection points: 2
#     Edge 15, Type (0, 1), BuildingBlock: ZUJKAS_clean_linker_0, # of connection points: 2
#     Edge 16, Type (0, 1), BuildingBlock: ZUJKAS_clean_linker_0, # of connection points: 2
#     Edge 17, Type (0, 1), BuildingBlock: ZUJKAS_clean_linker_0, # of connection points: 2
# Relax obj value: 0.016
# Max RMSD: 0.072
# Mean RMSD: 0.058
data_MOF--net-pth--node1-QUQFOY_clean_sbu_3--node2-MIFKUJ_clean_linker_1--edge1-ZUJKAS_clean_linker_0
_symmetry_space_group_name_H-M    P1
_symmetry_Int_Tables_number       1
_symmetry_cell_setting            triclinic
loop_
_symmetry_equiv_pos_as_xyz
'x, y, z'
_cell_length_a     37.162694
_cell_length_b     36.906831
_cell_length_c     82.12922
_cell_angle_alpha  90.024284
_cell_angle_beta   90.53842
_cell_angle_gamma 120.66258
loop_
_atom_site_label
_atom_site_type_symbol
_atom_site_fract_x
_atom_site_fract_y
_atom_site_fract_z
_atom_type_partial_charge
C0 C -0.0038 0.108 0.06171 0.0
O1 O 0.9723 0.10245 0.04963 0.0
Cd2 Cd 0.96253 0.05704 0.02704 0.0
O3 O 0.01553 0.08778 0.06268 0.0
Cd4 Cd 0.0217 0.03357 0.04708 0.0
C5 C 0.06558 0.10086 0.01577 0.0
O6 O 0.94885 0.99116 0.03778 0.0
O7 O 0.9931 0.97813 0.0264 0.0
O8 O 0.01973 0.00347 0.07364 0.0
C9 C 0.9554 0.96855 0.02802 0.0
O10 O 0.02861 0.09275 0.01248 0.0
C11 C 0.04892 -0.00394 0.0709 0.0
O12 O 0.07309 0.08578 0.02845 0.0
O13 O 0.06657 0.00723 0.05714 0.0
C14 C 0.10776 0.06897 0.39498 0.0
O15 O 0.12583 0.09261 0.38289 0.0
Cd16 Cd 0.08875 0.09927 0.36009 0.0
O17 O 0.068 0.04879 0.39591 0.0
Cd18 Cd 0.00631 0.0403 0.38056 0.0
C19 C 0.02764 0.99419 0.34957 0.0
O20 O 0.03661 0.11223 0.37049 0.0
O21 O 0.97758 0.06592 0.35972 0.0
O22 O 0.97995 0.04708 0.40662 0.0
C23 C 0.00651 0.10415 0.36087 0.0
O24 O 0.05691 0.03127 0.34613 0.0
C25 C 0.94367 0.01492 0.40489 0.0
O26 O 0.0054 0.98743 0.36219 0.0
O27 O 0.93658 0.99349 0.39189 0.0
C28 C 0.95505 0.06596 0.69181 0.0
O29 O 0.96151 0.09 0.70392 0.0
Cd30 Cd 0.00602 0.097 0.72653 0.0
O31 O 0.97395 0.04535 0.69081 0.0
Cd32 Cd 0.02652 0.03634 0.70628 0.0
C33 C 0.95861 0.99227 0.73713 0.0
O34 O 0.071 0.10872 0.71623 0.0
O35 O 0.08002 0.06121 0.72758 0.0
O36 O 0.0564 0.03886 0.67975 0.0
C37 C 0.0917 0.09984 0.72616 0.0
O38 O 0.96824 0.02979 0.7407 0.0
C39 C 0.06237 0.0084 0.68231 0.0
O40 O 0.97298 0.98457 0.72439 0.0
O41 O 0.05064 0.98994 0.69594 0.0
H42 H 0.10785 0.52835 0.18602 0.0
H43 H 0.10878 0.4733 0.16969 0.0
H44 H 0.98502 0.38307 0.18658 0.0
H45 H 0.98411 0.43807 0.20273 0.0
H46 H 0.05926 0.56053 0.18379 0.0
H47 H 0.09145 0.49294 0.22588 0.0
H48 H 0.08622 0.43636 0.24304 0.0
H49 H 0.96218 0.40538 0.2574 0.0
H50 H 0.96721 0.46139 0.23991 0.0
H51 H 0.9636 0.57019 0.23615 0.0
H52 H 0.95476 0.62157 0.25174 0.0
H53 H 0.08231 0.71717 0.24115 0.0
H54 H 0.09062 0.66581 0.22542 0.0
H55 H 0.01933 0.54378 0.24197 0.0
H56 H 0.98491 0.60443 0.19561 0.0
H57 H 0.99206 0.66252 0.17874 0.0
H58 H 0.12438 0.70971 0.17431 0.0
H59 H 0.11692 0.65103 0.19099 0.0
C60 C 0.04611 0.48729 0.19574 0.0
C61 C 0.08101 0.49665 0.18625 0.0
C62 C 0.08149 0.46522 0.17692 0.0
C63 C 0.04703 0.42383 0.1769 0.0
C64 C 0.01235 0.41446 0.18656 0.0
C65 C 0.0118 0.44591 0.19581 0.0
C66 C 0.0445 0.52102 0.20496 0.0
C67 C 0.05128 0.55711 0.19659 0.0
C68 C 0.03338 0.51645 0.22159 0.0
C69 C 0.02961 0.4812 0.23154 0.0
C70 C 0.06293 0.47362 0.23257 0.0
C71 C 0.06006 0.44154 0.24249 0.0
C72 C 0.02382 0.4165 0.25159 0.0
C73 C 0.99031 0.42386 0.2504 0.0
C74 C -0.00673 0.45603 0.24051 0.0
C75 C 0.02763 0.61429 0.22952 0.0
C76 C 0.98953 0.60231 0.23713 0.0
C77 C 0.9846 0.63166 0.24608 0.0
C78 C 0.01782 0.6735 0.24769 0.0
C79 C 0.05585 0.68543 0.23992 0.0
C80 C 0.0607 0.65609 0.23094 0.0
C81 C 0.03334 0.58259 0.22071 0.0
C82 C 0.0275 0.54706 0.22918 0.0
C83 C 0.04572 0.58782 0.20426 0.0
C84 C 0.05041 0.62361 0.19452 0.0
C85 C 0.01544 0.62736 0.19104 0.0
C86 C 0.01953 0.66037 0.18138 0.0
C87 C 0.05876 0.69043 0.17525 0.0
C88 C 0.09388 0.68701 0.17898 0.0
C89 C 0.08963 0.65354 0.18841 0.0
H90 H 0.57177 0.04342 0.51131 0.0
H91 H 0.62573 0.04171 0.49513 0.0
H92 H 0.60175 0.92818 0.51976 0.0
H93 H 0.54777 0.93004 0.53591 0.0
H94 H 0.49175 0.99341 0.51339 0.0
H95 H 0.60454 0.04697 0.54958 0.0
H96 H 0.66384 0.05459 0.5654 0.0
H97 H 0.58059 0.94234 0.59233 0.0
H98 H 0.52154 0.93375 0.57586 0.0
H99 H 0.3946 0.91908 0.56832 0.0
H100 H 0.33796 0.91765 0.58402 0.0
H101 H 0.38759 0.04934 0.57361 0.0
H102 H 0.44368 0.05038 0.55767 0.0
H103 H 0.48814 0.98105 0.57358 0.0
H104 H 0.37357 0.93669 0.53372 0.0
H105 H 0.32209 0.9461 0.51844 0.0
H106 H 0.42164 0.06421 0.49983 0.0
H107 H 0.47261 0.05534 0.5156 0.0
C108 C 0.55589 0.98704 0.52491 0.0
C109 C 0.57798 0.01805 0.51317 0.0
C110 C 0.60875 0.01697 0.50391 0.0
C111 C 0.61799 0.98479 0.50616 0.0
C112 C 0.59575 0.95369 0.51789 0.0
C113 C 0.56488 0.95471 0.52712 0.0
C114 C 0.52308 0.98817 0.5347 0.0
C115 C 0.49126 0.99106 0.52656 0.0
C116 C 0.52257 0.98561 0.55191 0.0
C117 C 0.55861 0.98943 0.56136 0.0
C118 C 0.59912 0.02353 0.55868 0.0
C119 C 0.63297 0.02817 0.56789 0.0
C120 C 0.62701 -0.00086 0.58017 0.0
C121 C 0.5864 0.96495 0.58282 0.0
C122 C 0.55253 0.96019 0.57352 0.0
C123 C 0.42309 0.98479 0.56186 0.0
C124 C 0.39319 0.94758 0.56944 0.0
C125 C 0.36085 0.94674 0.5783 0.0
C126 C 0.35854 0.98339 0.57999 0.0
C127 C 0.38888 0.02076 0.57254 0.0
C128 C 0.42077 0.02138 0.56344 0.0
C129 C 0.45669 0.9853 0.5522 0.0
C130 C 0.48868 0.98294 0.5604 0.0
C131 C 0.45842 0.99032 0.53512 0.0
C132 C 0.42687 -0.00447 0.52592 0.0
C133 C 0.38418 0.96487 0.52652 0.0
C134 C 0.35486 0.97009 0.51766 0.0
C135 C 0.36775 0.00598 0.50795 0.0
C136 C 0.41056 0.03656 0.50738 0.0
C137 C 0.43979 0.03134 0.51626 0.0
H138 H 0.49932 0.45622 0.84628 0.0
H139 H 0.4468 0.40133 0.82843 0.0
H140 H 0.35156 0.42088 0.84915 0.0
H141 H 0.40433 0.47625 0.86684 0.0
H142 H 0.52576 0.53618 0.84697 0.0
H143 H 0.46113 0.42456 0.88545 0.0
H144 H 0.40681 0.36873 0.90202 0.0
H145 H 0.37787 0.45846 0.9227 0.0
H146 H 0.43209 0.5141 0.90609 0.0
H147 H 0.54181 0.62846 0.90603 0.0
H148 H 0.59496 0.68255 0.92401 0.0
H149 H 0.68654 0.65416 0.90569 0.0
H150 H 0.63305 0.59949 0.88803 0.0
H151 H 0.51344 0.54476 0.90672 0.0
H152 H 0.57856 0.65584 0.86692 0.0
H153 H 0.63437 0.71017 0.85042 0.0
H154 H 0.6654 0.61878 0.83319 0.0
H155 H 0.60893 0.56451 0.84945 0.0
C156 C 0.45577 0.47021 0.85798 0.0
C157 C 0.46712 0.44866 0.84701 0.0
C158 C 0.43714 0.41739 0.8368 0.0
C159 C 0.39516 0.40696 0.83738 0.0
C160 C 0.38362 0.42797 0.84857 0.0
C161 C 0.41373 0.45954 0.8587 0.0
C162 C 0.48836 0.50528 0.868 0.0
C163 C 0.52327 0.53767 0.86008 0.0
C164 C 0.48474 0.50785 0.88504 0.0
C165 C 0.45044 0.47346 0.89443 0.0
C166 C 0.44266 0.43207 0.89338 0.0
C167 C 0.41166 0.40021 0.90286 0.0
C168 C 0.38818 0.40925 0.9137 0.0
C169 C 0.39584 0.45065 0.91463 0.0
C170 C 0.42669 0.48242 0.90511 0.0
C171 C 0.58356 0.61018 0.89563 0.0
C172 C 0.57342 0.63411 0.90583 0.0
C173 C 0.60385 0.66516 0.91602 0.0
C174 C 0.64489 0.67254 0.91628 0.0
C175 C 0.65508 0.6489 0.90587 0.0
C176 C 0.62467 0.61796 0.89566 0.0
C177 C 0.55059 0.57543 0.88566 0.0
C178 C 0.5157 0.54315 0.8936 0.0
C179 C 0.55441 0.57265 0.86868 0.0
C180 C 0.58973 0.60621 0.85944 0.0
C181 C 0.59771 0.64768 0.85971 0.0
C182 C 0.6297 0.67872 0.85029 0.0
C183 C 0.65434 0.66883 0.84043 0.0
C184 C 0.6466 0.62734 0.84042 0.0
C185 C 0.61449 0.59632 0.84977 0.0
H186 H 0.96424 0.16027 0.06253 0.0
H187 H 0.9759 0.2126 0.0833 0.0
H188 H 0.0527 0.17763 0.11093 0.0
H189 H 0.04184 0.12557 0.09005 0.0
H190 H 0.95685 0.20178 0.11596 0.0
H191 H 0.12794 0.30532 0.10707 0.0
H192 H 0.09469 0.26456 0.0927 0.0
H193 H 0.11121 0.25124 0.11125 0.0
C194 C 0.98366 0.16366 0.073 0.0
C195 C 0.00229 0.13885 0.07457 0.0
C196 C 0.99027 0.19359 0.08487 0.0
C197 C 0.01566 0.19941 0.09852 0.0
C198 C 0.03372 0.17424 0.10031 0.0
H199 H 0.02029 0.34176 0.1845 0.0
H200 H 0.0142 0.28634 0.16626 0.0
C201 C 0.02725 0.14434 0.0884 0.0
C202 C 0.02264 0.23155 0.11093 0.0
H203 H 0.09814 0.3229 0.1288 0.0
C204 C 0.98774 0.22821 0.11881 0.0
C205 C 0.06295 0.2662 0.11448 0.0
C206 C 0.10136 0.27242 0.10585 0.0
C207 C 0.99199 0.2587 0.13011 0.0
C208 C 0.03236 0.29301 0.13385 0.0
C209 C 0.0673 0.29631 0.12601 0.0
C210 C 0.03867 0.32689 0.14527 0.0
C211 C 0.95309 0.25459 0.13755 0.0
C212 C 0.0559 0.36833 0.13966 0.0
C213 C 0.05962 0.40005 0.15005 0.0
C214 C 0.04621 0.39088 0.16627 0.0
C215 C 0.03023 0.3496 0.172 0.0
C216 C 0.02669 0.31793 0.1616 0.0
H217 H 0.92442 0.23241 0.13055 0.0
H218 H 0.94976 0.24238 0.15013 0.0
H219 H 0.95513 0.28565 0.13819 0.0
H220 H 0.06541 0.37589 0.12709 0.0
H221 H 0.0717 0.43143 0.14524 0.0
H222 H 0.95248 0.05204 0.43451 0.0
H223 H 0.8972 0.04104 0.45325 0.0
H224 H 0.80493 0.9455 0.42121 0.0
H225 H 0.86025 0.95578 0.4025 0.0
H226 H 0.83398 0.05498 0.44557 0.0
H227 H 0.76902 0.88983 0.46562 0.0
H228 H 0.81903 0.91936 0.45576 0.0
H229 H 0.77142 0.89589 0.44389 0.0
C230 C 0.92051 0.02816 0.43157 0.0
C231 C 0.9107 0.00482 0.417 0.0
C232 C 0.88896 0.02194 0.44229 0.0
C233 C 0.847 0.99223 0.4387 0.0
C234 C 0.83718 0.968 0.42439 0.0
H235 H 0.63181 -0.00059 0.47355 0.0
H236 H 0.68728 0.00025 0.45748 0.0
C237 C 0.8688 0.97407 0.41367 0.0
C238 C 0.81345 0.98946 0.44919 0.0
H239 H 0.72903 0.92203 0.4719 0.0
C240 C 0.81119 0.02595 0.45141 0.0
C241 C 0.78399 0.95167 0.45689 0.0
C242 C 0.7861 0.91204 0.45558 0.0
C243 C 0.77985 0.02557 0.4609 0.0
C244 C 0.74946 0.98745 0.46811 0.0
C245 C 0.75214 0.9511 0.46619 0.0
C246 C 0.71474 0.98492 0.47771 0.0
C247 C 0.77985 0.06614 0.46327 0.0
C248 C 0.71113 0.97484 0.49431 0.0
C249 C 0.67945 0.97434 0.50354 0.0
C250 C 0.65076 0.98378 0.49629 0.0
C251 C 0.65392 0.99283 0.47956 0.0
C252 C 0.68552 0.99325 0.47035 0.0
H253 H 0.81086 0.09413 0.46058 0.0
H254 H 0.75647 0.0665 0.45487 0.0
H255 H 0.77128 0.06896 0.47593 0.0
H256 H 0.73337 0.96825 0.5002 0.0
H257 H 0.67803 0.96753 0.51642 0.0
H258 H 0.93193 -0.00138 0.76724 0.0
H259 H 0.88233 0.9418 0.78462 0.0
H260 H 0.86875 0.85039 0.74862 0.0
H261 H 0.91929 0.90718 0.73124 0.0
H262 H 0.801 0.8849 0.77794 0.0
H263 H 0.88839 0.80234 0.78987 0.0
H264 H 0.9127 0.85434 0.78115 0.0
H265 H 0.88104 0.80865 0.76865 0.0
C266 C 0.91871 0.96644 0.76304 0.0
C267 C 0.92964 0.95745 0.74784 0.0
C268 C 0.89033 0.93399 0.773 0.0
C269 C 0.87222 0.89185 0.76801 0.0
C270 C 0.88307 0.88264 0.75287 0.0
H271 H 0.67402 0.65932 0.80926 0.0
H272 H 0.72731 0.71312 0.79175 0.0
C273 C 0.91178 0.91515 0.74292 0.0
C274 C 0.84056 0.85795 0.7784 0.0
H275 H 0.81819 0.7686 0.79902 0.0
C276 C 0.80485 0.85957 0.78259 0.0
C277 C 0.84564 0.8249 0.78444 0.0
C278 C 0.88417 0.82252 0.78094 0.0
C279 C 0.77397 0.82891 0.79259 0.0
C280 C 0.7791 0.79598 0.79862 0.0
C281 C 0.8145 0.79401 0.79434 0.0
C282 C 0.74795 0.76336 0.80947 0.0
C283 C 0.7358 0.83161 0.79649 0.0
C284 C 0.74249 0.77385 0.8253 0.0
C285 C 0.7124 0.74313 0.83543 0.0
C286 C 0.68721 0.70136 0.82987 0.0
C287 C 0.69323 0.69099 0.81403 0.0
C288 C 0.72348 0.7217 0.80396 0.0
H289 H 0.73262 0.8539 0.78836 0.0
H290 H 0.70699 0.80013 0.7954 0.0
H291 H 0.73826 0.84271 0.80923 0.0
H292 H 0.76156 0.80581 0.82982 0.0
H293 H 0.70908 0.75205 0.84764 0.0
H294 H 0.08787 0.95164 0.06497 0.0
H295 H 0.09507 0.90394 0.08363 0.0
H296 H 0.04195 0.94067 0.12221 0.0
H297 H 0.03289 0.98685 0.10341 0.0
H298 H 0.13392 0.91006 0.11182 0.0
H299 H 0.96255 0.81618 0.12097 0.0
H300 H 0.98594 0.85711 0.10593 0.0
H301 H 0.98461 0.87019 0.12697 0.0
C302 C 0.07814 0.94984 0.07748 0.0
C303 C 0.05924 0.97243 0.08269 0.0
C304 C 0.08225 0.92258 0.08813 0.0
C305 C 0.06796 0.91783 0.1042 0.0
C306 C 0.05189 0.94274 0.10972 0.0
H307 H 0.11308 0.77498 0.17867 0.0
H308 H 0.11735 0.83155 0.16161 0.0
C309 C 0.04702 0.96935 0.09901 0.0
C310 C 0.06796 0.88539 0.11488 0.0
H311 H 0.00404 0.79902 0.13758 0.0
C312 C 0.10554 0.8857 0.11744 0.0
C313 C 0.03072 0.85311 0.12195 0.0
C314 C 0.98862 0.84876 0.11869 0.0
C315 C 0.10694 0.85475 0.12693 0.0
C316 C 0.06997 0.82343 0.13449 0.0
C317 C 0.03246 0.8232 0.13191 0.0
C318 C 0.06875 0.78957 0.14467 0.0
C319 C 0.14772 0.85527 0.12832 0.0
C320 C 0.03925 0.74723 0.14114 0.0
C321 C 0.0361 0.71511 0.15109 0.0
C322 C 0.0627 0.72464 0.16467 0.0
C323 C 0.09255 0.76689 0.16814 0.0
C324 C 0.0952 0.79915 0.15834 0.0
H325 H 0.1689 0.87268 0.11809 0.0
H326 H 0.16391 0.8714 0.13981 0.0
H327 H 0.14243 0.82282 0.12848 0.0
H328 H 0.01846 0.739 0.13069 0.0
H329 H 0.01303 0.68273 0.1481 0.0
H330 H 0.19308 0.10771 0.39721 0.0
H331 H 0.2344 0.09619 0.41764 0.0
H332 H 0.12138 0.00659 0.44204 0.0
H333 H 0.07968 0.01824 0.42181 0.0
H334 H 0.1851 0.06284 0.46332 0.0
H335 H 0.24285 0.98969 0.41964 0.0
H336 H 0.25279 0.04075 0.41364 0.0
H337 H 0.19979 -0.00243 0.41492 0.0
C338 C 0.17693 0.08563 0.40695 0.0
C339 C 0.13301 0.06365 0.40779 0.0
C340 C 0.20063 0.07895 0.41856 0.0
C341 C 0.18087 0.04999 0.43116 0.0
C342 C 0.13717 0.02889 0.43234 0.0
H343 H 0.30128 0.94573 0.49023 0.0
H344 H 0.25294 0.95506 0.47279 0.0
C345 C 0.11341 0.03558 0.42074 0.0
C346 C 0.20581 0.04143 0.44303 0.0
H347 H 0.2743 0.00593 0.44598 0.0
C348 C 0.20449 0.05024 0.45957 0.0
C349 C 0.23052 0.02435 0.43811 0.0
C350 C 0.23138 0.01213 0.42064 0.0
C351 C 0.22807 0.04334 0.47129 0.0
C352 C 0.25403 0.02781 0.46626 0.0
C353 C 0.2546 0.01813 0.44978 0.0
C354 C 0.28132 0.02173 0.47782 0.0
C355 C 0.22462 0.05228 0.48895 0.0
C356 C 0.31321 0.05611 0.48647 0.0
C357 C 0.34066 0.05082 0.49654 0.0
C358 C 0.33697 0.01109 0.49806 0.0
C359 C 0.30463 0.97661 0.48952 0.0
C360 C 0.27716 0.98193 0.47947 0.0
H361 H 0.19529 0.05243 0.49128 0.0
H362 H 0.22557 0.02861 0.497 0.0
H363 H 0.25134 0.0838 0.4923 0.0
H364 H 0.31746 0.08726 0.48514 0.0
H365 H 0.36498 0.07793 0.50306 0.0
H366 H 0.13172 0.08696 0.75149 0.0
H367 H 0.18265 0.13938 0.77047 0.0
H368 H 0.17672 0.2377 0.74441 0.0
H369 H 0.12478 0.1852 0.72558 0.0
H370 H 0.25945 0.20644 0.76542 0.0
H371 H 0.15573 0.25914 0.79076 0.0
H372 H 0.13626 0.21255 0.77822 0.0
H373 H 0.16046 0.26382 0.76903 0.0
C374 C 0.1412 0.11974 0.74979 0.0
C375 C 0.12402 0.13195 0.73711 0.0
C376 C 0.17031 0.14964 0.76065 0.0
C377 C 0.18288 0.19232 0.75903 0.0
C378 C 0.16664 0.20479 0.74613 0.0
H379 H 0.40316 0.39981 0.80477 0.0
H380 H 0.35163 0.3474 0.7859 0.0
C381 C 0.13722 0.17482 0.73531 0.0
C382 C 0.21347 0.22366 0.77076 0.0
H383 H 0.22766 0.29928 0.7983 0.0
C384 C 0.25248 0.22667 0.77264 0.0
C385 C 0.20401 0.2495 0.78037 0.0
C386 C 0.1617 0.24589 0.77965 0.0
C387 C 0.28255 0.25523 0.78372 0.0
C388 C 0.27373 0.28225 0.79286 0.0
C389 C 0.23449 0.27882 0.79116 0.0
C390 C 0.30477 0.31424 0.80428 0.0
C391 C 0.32313 0.25556 0.78576 0.0
C392 C 0.29502 0.31381 0.82078 0.0
C393 C 0.32429 0.344 0.83156 0.0
C394 C 0.36381 0.37506 0.82601 0.0
C395 C 0.37326 0.37572 0.80944 0.0
C396 C 0.34389 0.34576 0.79866 0.0
H397 H 0.32001 0.22539 0.78165 0.0
H398 H 0.34752 0.28116 0.77825 0.0
H399 H 0.33396 0.26125 0.79865 0.0
H400 H 0.2649 0.28985 0.82534 0.0
H401 H 0.31625 0.34267 0.84428 0.0
H402 H 0.90268 0.0977 0.69172 0.0
H403 H 0.84864 0.08505 0.67155 0.0
H404 H 0.88274 0.00919 0.64309 0.0
H405 H 0.93699 0.02156 0.66318 0.0
H406 H 0.87057 0.07158 0.62514 0.0
H407 H 0.73865 0.96725 0.66551 0.0
H408 H 0.77722 0.01699 0.67425 0.0
H409 H 0.7915 0.97872 0.66909 0.0
C410 C 0.89892 0.07849 0.68114 0.0
C411 C 0.92403 0.06042 0.67912 0.0
C412 C 0.8679 0.07118 0.66968 0.0
C413 C 0.86148 0.04579 0.65599 0.0
C414 C 0.88718 0.02871 0.65365 0.0
H415 H 0.64368 0.93901 0.59126 0.0
H416 H 0.70169 0.94935 0.60891 0.0
C417 C 0.9181 0.03579 0.66515 0.0
C418 C 0.82746 0.03664 0.64424 0.0
H419 H 0.72119 0.98754 0.64066 0.0
C420 C 0.83789 0.05307 0.62846 0.0
C421 C 0.78495 0.01203 0.64862 0.0
C422 C 0.77218 0.99236 0.66524 0.0
C423 C 0.80673 0.04646 0.61704 0.0
C424 C 0.76425 0.02305 0.62161 0.0
C425 C 0.75384 0.00567 0.63725 0.0
C426 C 0.73008 0.01702 0.61049 0.0
C427 C 0.81941 0.0644 0.60017 0.0
C428 C 0.72672 0.05164 0.6057 0.0
C429 C 0.69345 0.04584 0.59578 0.0
C430 C 0.66284 0.00524 0.59046 0.0
C431 C 0.66643 0.97062 0.59528 0.0
C432 C 0.69966 0.97646 0.60527 0.0
H433 H 0.8519 0.07258 0.59739 0.0
H434 H 0.79788 0.04175 0.59083 0.0
H435 H 0.8178 0.09354 0.59926 0.0
H436 H 0.74943 0.08309 0.6099 0.0
H437 H 0.69123 0.0731 0.59259 0.0
H438 H 0.87226 0.94362 0.02782 0.0
H439 H 0.8176 0.89264 0.00936 0.0
H440 H 0.90789 0.87007 0.98604 0.0
H441 H 0.96269 0.92094 0.00435 0.0
H442 H 0.85764 0.88779 0.96443 0.0
H443 H 0.76302 0.76208 0.00908 0.0
H444 H 0.77523 0.81441 0.01449 0.0
H445 H 0.81652 0.80283 0.01313 0.0
C446 C 0.88039 0.92754 0.01885 0.0
C447 C 0.92177 0.93628 0.01754 0.0
C448 C 0.84912 0.89837 0.00836 0.0
C449 C 0.85875 0.87746 -0.00355 0.0
C450 C 0.89991 0.88588 0.99519 0.0
H451 H 0.70032 0.66338 0.9353 0.0
H452 H 0.75204 0.71435 0.95456 0.0
C453 C 0.93112 0.91489 0.00568 0.0
C454 C 0.82635 0.84785 0.98487 0.0
H455 H 0.73601 0.75242 0.98221 0.0
C456 C 0.83097 0.85822 0.96829 0.0
C457 C 0.79188 0.80924 0.99 0.0
C458 C 0.78631 0.79612 0.00762 0.0
C459 C 0.80187 0.83093 0.95664 0.0
C460 C 0.76716 0.79254 0.96179 0.0
C461 C 0.76258 0.78208 0.97836 0.0
C462 C 0.73594 0.76214 0.95005 0.0
C463 C 0.80888 0.84291 0.9389 0.0
C464 C 0.70971 0.77219 0.94124 0.0
C465 C 0.68024 0.74321 0.93019 0.0
C466 C 0.67657 0.70373 0.92778 0.0
C467 C 0.70286 0.69379 0.9367 0.0
C468 C 0.73216 0.72269 0.94778 0.0
H469 H 0.8412 0.86926 0.93667 0.0
H470 H 0.80297 0.81553 0.93126 0.0
H471 H 0.78672 0.85299 0.93492 0.0
H472 H 0.71192 0.80236 0.94298 0.0
H473 H 0.66054 0.75181 0.92344 0.0
H474 H 0.06217 -0.00114 0.31994 0.0
H475 H 0.05405 0.94105 0.30291 0.0
H476 H 0.97037 0.85143 0.33799 0.0
H477 H 0.97766 0.9093 0.35508 0.0
H478 H 0.07575 0.88301 0.31157 0.0
H479 H 0.90679 0.80333 0.29517 0.0
H480 H 0.93495 0.85578 0.30377 0.0
H481 H 0.91817 0.81069 0.31663 0.0
C482 C 0.04169 0.96688 0.32402 0.0
C483 C 0.0206 0.95873 0.33891 0.0
C484 C 0.03709 0.93386 0.31424 0.0
C485 C 0.01132 0.89196 0.3191 0.0
C486 C 0.98976 0.88353 0.33385 0.0
H487 H 0.97884 0.66003 0.27711 0.0
H488 H 0.97512 0.71186 0.29451 0.0
C489 C -0.00584 0.91665 0.34364 0.0
C490 C 0.00935 0.85757 0.30909 0.0
H491 H 0.94355 0.7697 0.28679 0.0
C492 C 0.04685 0.85829 0.30614 0.0
C493 C 0.97154 0.82524 0.3021 0.0
C494 C 0.93058 0.82372 0.30443 0.0
C495 C 0.04764 0.82766 0.29632 0.0
C496 C 0.01001 0.79574 0.28914 0.0
C497 C 0.97233 0.79441 0.29231 0.0
C498 C 0.00959 0.76391 0.27809 0.0
C499 C 0.0887 0.82949 0.29376 0.0
C500 C 0.02941 0.776 0.26298 0.0
C501 C 0.03132 0.74649 0.25294 0.0
C502 C 0.01344 0.70431 0.25787 0.0
C503 C 0.99256 0.69213 0.27286 0.0
C504 C 0.99054 0.72168 0.28286 0.0
H505 H 0.11282 0.85025 0.30285 0.0
H506 H 0.08454 0.79752 0.2945 0.0
H507 H 0.10051 0.84209 0.28145 0.0
H508 H 0.04377 0.80841 0.25902 0.0
H509 H 0.04693 0.75674 0.24135 0.0
H510 H 0.06983 0.02407 0.64974 0.0
H511 H 0.11244 0.01197 0.63048 0.0
H512 H 0.15044 0.95865 0.66901 0.0
H513 H 0.10605 0.96859 0.68806 0.0
H514 H 0.19186 0.04695 0.63036 0.0
H515 H 0.12946 0.87579 0.63427 0.0
H516 H 0.10261 0.90025 0.64297 0.0
H517 H 0.14445 0.89966 0.65405 0.0
C518 C 0.08659 0.00892 0.654 0.0
C519 C 0.08455 -0.00288 0.67037 0.0
C520 C 0.111 0.00209 0.64299 0.0
C521 C 0.13437 0.9839 0.64819 0.0
C522 C 0.13179 0.97151 0.66453 0.0
H523 H 0.36665 0.03637 0.60464 0.0
H524 H 0.31095 0.03533 0.62065 0.0
C525 C 0.10662 0.97749 0.67546 0.0
C526 C 0.16427 0.98159 0.63693 0.0
H527 H 0.19896 0.91729 0.62347 0.0
C528 C 0.19296 0.01837 0.62871 0.0
C529 C 0.16549 0.94424 0.6345 0.0
C530 C 0.13351 0.90269 0.64179 0.0
C531 C 0.22344 0.0192 0.61852 0.0
C532 C 0.22658 0.9827 0.61703 0.0
C533 C 0.19709 0.94552 0.62483 0.0
C534 C 0.26044 0.9826 0.60759 0.0
C535 C 0.25148 0.05913 0.6093 0.0
C536 C 0.2508 0.95215 0.59541 0.0
C537 C 0.28271 0.95211 0.58653 0.0
C538 C 0.32474 0.98276 0.58958 0.0
C539 C 0.33441 0.01288 0.60188 0.0
C540 C 0.30259 0.01244 0.61095 0.0
H541 H 0.23614 0.07793 0.60731 0.0
H542 H 0.28049 0.07886 0.61653 0.0
H543 H 0.26018 0.05226 0.59728 0.0
H544 H 0.21856 0.92866 0.59266 0.0
H545 H 0.27452 0.9286 0.57708 0.0
H546 H 0.05909 0.13116 0.98628 0.0
H547 H 0.11551 0.18041 0.96878 0.0
H548 H 0.20656 0.18505 0.00298 0.0
H549 H 0.1501 0.13498 0.02054 0.0
H550 H 0.17593 0.26083 0.9767 0.0
H551 H 0.24769 0.16624 0.95962 0.0
H552 H 0.19665 0.14318 0.96871 0.0
H553 H 0.24302 0.17083 0.98117 0.0
C554 C 0.09107 0.14229 0.99006 0.0
C555 C 0.10006 0.12913 0.00484 0.0
C556 C 0.12329 0.17046 0.98002 0.0
C557 C 0.16518 0.18607 0.9845 0.0
C558 C 0.1744 0.17274 -0.00086 0.0
H559 H 0.37471 0.41498 0.94599 0.0
H560 H 0.32126 0.36056 0.96326 0.0
C561 C 0.1421 0.14431 0.0092 0.0
C562 C 0.19894 0.21811 0.97421 0.0
H563 H 0.28418 0.23825 0.95187 0.0
C564 C 0.19957 0.25588 0.97125 0.0
C565 C 0.22943 0.21133 0.96698 0.0
C566 C 0.2291 0.17056 0.96912 0.0
C567 C 0.23003 0.28723 0.96135 0.0
C568 C 0.26121 0.28097 0.95448 0.0
C569 C 0.26041 0.24306 0.95729 0.0
C570 C 0.29459 0.31334 0.94418 0.0
C571 C 0.22802 0.32641 0.95806 0.0
C572 C 0.29802 0.3044 0.92785 0.0
C573 C 0.3286 0.33542 0.91795 0.0
C574 C 0.35629 0.37588 0.92424 0.0
C575 C 0.35327 0.38439 0.9407 0.0
C576 C 0.32282 0.35334 0.95059 0.0
H577 H 0.19656 0.32154 0.96065 0.0
H578 H 0.25105 0.35234 0.96604 0.0
H579 H 0.23584 0.33649 0.94521 0.0
H580 H 0.27655 0.27364 0.9227 0.0
H581 H 0.33002 0.328 0.9053 0.0
H582 H 0.94605 0.09544 0.33938 0.0
H583 H 0.94871 0.1486 0.32082 0.0
H584 H 0.07091 0.23948 0.33965 0.0
H585 H 0.06868 0.1865 0.35821 0.0
H586 H 0.96062 0.23022 0.32857 0.0
H587 H 0.08649 0.23934 0.28962 0.0
H588 H 0.05677 0.19617 0.30336 0.0
H589 H 0.09795 0.24585 0.3111 0.0
C590 C 0.97348 0.12676 0.33959 0.0
C591 C 0.00728 0.13674 0.35018 0.0
C592 C 0.97491 0.15705 0.32899 0.0
C593 C 0.01023 0.19767 0.32873 0.0
C594 C 0.04366 0.20803 0.33951 0.0
H595 H 0.08431 0.4224 0.27243 0.0
H596 H 0.07989 0.36876 0.29114 0.0
C597 C 0.04223 0.17781 0.35015 0.0
C598 C 0.01205 0.22927 0.31719 0.0
H599 H 0.06525 0.28881 0.28444 0.0
C600 C 0.98335 0.24298 0.31887 0.0
C601 C 0.04179 0.24571 0.30459 0.0
C602 C 0.07233 0.23085 0.3019 0.0
C603 C 0.98415 0.27352 0.30845 0.0
C604 C 0.01392 0.29 0.29584 0.0
C605 C 0.0425 0.27611 0.29413 0.0
C606 C 0.01631 0.32209 0.28438 0.0
C607 C 0.95385 0.28861 0.31131 0.0
C608 C 0.98223 0.31334 0.27421 0.0
C609 C 0.98467 0.34391 0.2635 0.0
C610 C 0.02142 0.38361 0.26266 0.0
C611 C 0.05574 0.39197 0.27268 0.0
C612 C 0.0532 0.36146 0.28342 0.0
H613 H 0.94091 0.28122 0.3238 0.0
H614 H 0.96912 0.32312 0.30942 0.0
H615 H 0.92732 0.27266 0.30254 0.0
H616 H 0.95383 0.28278 0.27448 0.0
H617 H 0.95797 0.33634 0.25575 0.0
loop_
_geom_bond_atom_site_label_1
_geom_bond_atom_site_label_2
_geom_bond_distance
_geom_bond_site_symmetry_2
_ccdc_geom_bond_type
C0 O1 1.308 . S
C0 O3 1.160 . S
O1 C0 1.308 . S
O1 Cd2 2.228 1_455 S
Cd2 O1 2.228 1_655 S
Cd2 O6 2.273 . S
Cd2 O10 2.277 1_655 S
O3 C0 1.160 . S
O3 Cd4 2.203 . S
Cd4 O3 2.203 . S
Cd4 O6 2.411 1_455 S
Cd4 O7 2.333 1_545 S
Cd4 O8 2.352 1_545 S
Cd4 O12 2.277 . S
Cd4 O13 2.356 1_545 S
C5 O10 1.209 . S
C5 O12 1.226 . S
O6 Cd2 2.273 . S
O6 Cd4 2.411 1_655 S
O6 C9 1.320 1_545 S
O7 Cd4 2.333 1_565 S
O7 C9 1.214 1_455 S
O8 Cd4 2.352 1_565 S
O8 C11 1.258 . S
C9 O6 1.320 1_565 S
C9 O7 1.214 1_655 S
O10 Cd2 2.277 1_455 S
O10 C5 1.209 . S
C11 O8 1.258 . S
C11 O13 1.282 . S
O12 Cd4 2.277 . S
O12 C5 1.226 . S
O13 Cd4 2.356 1_565 S
O13 C11 1.282 . S
C14 O15 1.306 . S
C14 O17 1.160 . S
O15 C14 1.306 . S
O15 Cd16 2.228 . S
Cd16 O15 2.228 . S
Cd16 O20 2.273 . S
Cd16 O24 2.277 . S
O17 C14 1.160 . S
O17 Cd18 2.203 . S
Cd18 O17 2.203 . S
Cd18 O20 2.411 . S
Cd18 O21 2.333 1_455 S
Cd18 O22 2.352 1_455 S
Cd18 O26 2.277 1_445 S
Cd18 O27 2.356 1_445 S
C19 O24 1.209 1_565 S
C19 O26 1.226 1_455 S
O20 Cd16 2.273 . S
O20 Cd18 2.411 . S
O20 C23 1.320 . S
O21 Cd18 2.333 1_655 S
O21 C23 1.214 1_655 S
O22 Cd18 2.352 1_655 S
O22 C25 1.258 . S
C23 O20 1.320 . S
C23 O21 1.214 1_455 S
O24 Cd16 2.277 . S
O24 C19 1.209 1_545 S
C25 O22 1.258 . S
C25 O27 1.282 1_545 S
O26 Cd18 2.277 1_665 S
O26 C19 1.226 1_655 S
O27 Cd18 2.356 1_665 S
O27 C25 1.282 1_565 S
C28 O29 1.306 . S
C28 O31 1.160 . S
O29 C28 1.306 . S
O29 Cd30 2.228 . S
Cd30 O29 2.228 . S
Cd30 O34 2.273 1_655 S
Cd30 O38 2.277 . S
O31 C28 1.160 . S
O31 Cd32 2.203 1_655 S
Cd32 O31 2.203 1_455 S
Cd32 O34 2.411 . S
Cd32 O35 2.333 . S
Cd32 O36 2.352 . S
Cd32 O40 2.277 1_445 S
Cd32 O41 2.356 1_545 S
C33 O38 1.209 1_565 S
C33 O40 1.226 . S
O34 Cd30 2.273 1_455 S
O34 Cd32 2.411 . S
O34 C37 1.320 . S
O35 Cd32 2.333 . S
O35 C37 1.214 . S
O36 Cd32 2.352 . S
O36 C39 1.258 . S
C37 O34 1.320 . S
C37 O35 1.214 . S
O38 Cd30 2.277 . S
O38 C33 1.209 1_545 S
C39 O36 1.258 . S
C39 O41 1.282 1_545 S
O40 Cd32 2.277 1_665 S
O40 C33 1.226 . S
O41 Cd32 2.356 1_565 S
O41 C39 1.282 1_565 S
H42 C61 0.949 . S
H43 C62 0.950 . S
H44 C64 0.950 1_655 S
H45 C65 0.950 1_655 S
H46 C67 0.950 . S
H47 C70 0.950 . S
H48 C71 0.950 . S
H49 C73 0.951 1_655 S
H50 C74 0.949 1_655 S
H51 C76 0.949 1_655 S
H52 C77 0.950 1_655 S
H53 C79 0.950 . S
H54 C80 0.950 . S
H55 C82 0.950 . S
H56 C85 0.950 1_655 S
H57 C86 0.950 1_655 S
H58 C88 0.951 . S
H59 C89 0.949 . S
C60 C61 1.376 . S
C60 C65 1.386 . S
C60 C66 1.483 . S
C61 H42 0.949 . S
C61 C60 1.376 . S
C61 C62 1.397 . S
C62 H43 0.950 . S
C62 C61 1.397 . S
C62 C63 1.391 . S
C63 C62 1.391 . S
C63 C64 1.405 . S
C64 H44 0.950 1_455 S
C64 C63 1.405 . S
C64 C65 1.367 . S
C65 H45 0.950 1_455 S
C65 C60 1.386 . S
C65 C64 1.367 . S
C66 C60 1.483 . S
C66 C67 1.382 . S
C66 C68 1.403 . S
C67 H46 0.950 . S
C67 C66 1.382 . S
C67 C83 1.411 . S
C68 C66 1.403 . S
C68 C69 1.489 . S
C68 C82 1.411 . S
C69 C68 1.489 . S
C69 C70 1.383 . S
C69 C74 1.382 . S
C70 H47 0.950 . S
C70 C69 1.383 . S
C70 C71 1.395 . S
C71 H48 0.950 . S
C71 C70 1.395 . S
C71 C72 1.288 . S
C72 C71 1.288 . S
C72 C73 1.392 . S
C73 H49 0.951 1_455 S
C73 C72 1.392 . S
C73 C74 1.392 . S
C74 H50 0.949 1_455 S
C74 C69 1.382 . S
C74 C73 1.392 . S
C75 C76 1.376 . S
C75 C80 1.386 . S
C75 C81 1.483 . S
C76 H51 0.949 1_455 S
C76 C75 1.376 . S
C76 C77 1.397 . S
C77 H52 0.950 1_455 S
C77 C76 1.397 . S
C77 C78 1.391 . S
C78 C77 1.391 . S
C78 C79 1.405 . S
C79 H53 0.950 . S
C79 C78 1.405 . S
C79 C80 1.367 . S
C80 H54 0.950 . S
C80 C75 1.386 . S
C80 C79 1.367 . S
C81 C75 1.483 . S
C81 C82 1.382 . S
C81 C83 1.403 . S
C82 H55 0.950 . S
C82 C68 1.411 . S
C82 C81 1.382 . S
C83 C67 1.411 . S
C83 C81 1.403 . S
C83 C84 1.489 . S
C84 C83 1.489 . S
C84 C85 1.383 . S
C84 C89 1.382 . S
C85 H56 0.950 1_455 S
C85 C84 1.383 . S
C85 C86 1.395 . S
C86 H57 0.950 1_455 S
C86 C85 1.395 . S
C86 C87 1.288 . S
C87 C86 1.288 . S
C87 C88 1.392 . S
C88 H58 0.951 . S
C88 C87 1.392 . S
C88 C89 1.392 . S
C89 H59 0.949 . S
C89 C84 1.382 . S
C89 C88 1.392 . S
H90 C109 0.949 . S
H91 C110 0.950 . S
H92 C112 0.950 . S
H93 C113 0.950 . S
H94 C115 0.950 . S
H95 C118 0.950 . S
H96 C119 0.950 . S
H97 C121 0.951 . S
H98 C122 0.949 . S
H99 C124 0.949 . S
H100 C125 0.950 . S
H101 C127 0.950 . S
H102 C128 0.950 . S
H103 C130 0.950 . S
H104 C133 0.950 1_565 S
H105 C134 0.950 1_565 S
H106 C136 0.951 . S
H107 C137 0.949 . S
C108 C109 1.376 . S
C108 C113 1.386 1_545 S
C108 C114 1.483 . S
C109 H90 0.949 . S
C109 C108 1.376 . S
C109 C110 1.397 . S
C110 H91 0.950 . S
C110 C109 1.397 . S
C110 C111 1.391 . S
C111 C110 1.391 . S
C111 C112 1.405 1_545 S
C112 H92 0.950 . S
C112 C111 1.405 1_565 S
C112 C113 1.367 . S
C113 H93 0.950 . S
C113 C108 1.386 1_565 S
C113 C112 1.367 . S
C114 C108 1.483 . S
C114 C115 1.382 . S
C114 C116 1.403 . S
C115 H94 0.950 . S
C115 C114 1.382 . S
C115 C131 1.411 . S
C116 C114 1.403 . S
C116 C117 1.489 . S
C116 C130 1.411 . S
C117 C116 1.489 . S
C117 C118 1.383 . S
C117 C122 1.382 1_545 S
C118 H95 0.950 . S
C118 C117 1.383 . S
C118 C119 1.395 . S
C119 H96 0.950 . S
C119 C118 1.395 . S
C119 C120 1.288 . S
C120 C119 1.288 . S
C120 C121 1.392 1_545 S
C121 H97 0.951 . S
C121 C120 1.392 1_565 S
C121 C122 1.392 . S
C122 H98 0.949 . S
C122 C117 1.382 1_565 S
C122 C121 1.392 . S
C123 C124 1.376 1_545 S
C123 C128 1.386 . S
C123 C129 1.483 . S
C124 H99 0.949 . S
C124 C123 1.376 1_565 S
C124 C125 1.397 . S
C125 H100 0.950 . S
C125 C124 1.397 . S
C125 C126 1.391 1_565 S
C126 C125 1.391 1_545 S
C126 C127 1.405 . S
C127 H101 0.950 . S
C127 C126 1.405 . S
C127 C128 1.367 . S
C128 H102 0.950 . S
C128 C123 1.386 . S
C128 C127 1.367 . S
C129 C123 1.483 . S
C129 C130 1.382 . S
C129 C131 1.403 . S
C130 H103 0.950 . S
C130 C116 1.411 . S
C130 C129 1.382 . S
C131 C115 1.411 . S
C131 C129 1.403 . S
C131 C132 1.489 . S
C132 C131 1.489 . S
C132 C133 1.383 . S
C132 C137 1.382 . S
C133 H104 0.950 1_545 S
C133 C132 1.383 . S
C133 C134 1.395 . S
C134 H105 0.950 1_545 S
C134 C133 1.395 . S
C134 C135 1.288 . S
C135 C134 1.288 . S
C135 C136 1.392 . S
C136 H106 0.951 . S
C136 C135 1.392 . S
C136 C137 1.392 . S
C137 H107 0.949 . S
C137 C132 1.382 . S
C137 C136 1.392 . S
H138 C157 0.949 . S
H139 C158 0.950 . S
H140 C160 0.950 . S
H141 C161 0.950 . S
H142 C163 0.950 . S
H143 C166 0.950 . S
H144 C167 0.950 . S
H145 C169 0.951 . S
H146 C170 0.949 . S
H147 C172 0.949 . S
H148 C173 0.950 . S
H149 C175 0.950 . S
H150 C176 0.950 . S
H151 C178 0.950 . S
H152 C181 0.950 . S
H153 C182 0.950 . S
H154 C184 0.951 . S
H155 C185 0.949 . S
C156 C157 1.376 . S
C156 C161 1.386 . S
C156 C162 1.483 . S
C157 H138 0.949 . S
C157 C156 1.376 . S
C157 C158 1.397 . S
C158 H139 0.950 . S
C158 C157 1.397 . S
C158 C159 1.391 . S
C159 C158 1.391 . S
C159 C160 1.405 . S
C160 H140 0.950 . S
C160 C159 1.405 . S
C160 C161 1.367 . S
C161 H141 0.950 . S
C161 C156 1.386 . S
C161 C160 1.367 . S
C162 C156 1.483 . S
C162 C163 1.382 . S
C162 C164 1.403 . S
C163 H142 0.950 . S
C163 C162 1.382 . S
C163 C179 1.411 . S
C164 C162 1.403 . S
C164 C165 1.489 . S
C164 C178 1.411 . S
C165 C164 1.489 . S
C165 C166 1.383 . S
C165 C170 1.382 . S
C166 H143 0.950 . S
C166 C165 1.383 . S
C166 C167 1.395 . S
C167 H144 0.950 . S
C167 C166 1.395 . S
C167 C168 1.288 . S
C168 C167 1.288 . S
C168 C169 1.392 . S
C169 H145 0.951 . S
C169 C168 1.392 . S
C169 C170 1.392 . S
C170 H146 0.949 . S
C170 C165 1.382 . S
C170 C169 1.392 . S
C171 C172 1.376 . S
C171 C176 1.386 . S
C171 C177 1.483 . S
C172 H147 0.949 . S
C172 C171 1.376 . S
C172 C173 1.397 . S
C173 H148 0.950 . S
C173 C172 1.397 . S
C173 C174 1.391 . S
C174 C173 1.391 . S
C174 C175 1.405 . S
C175 H149 0.950 . S
C175 C174 1.405 . S
C175 C176 1.367 . S
C176 H150 0.950 . S
C176 C171 1.386 . S
C176 C175 1.367 . S
C177 C171 1.483 . S
C177 C178 1.382 . S
C177 C179 1.403 . S
C178 H151 0.950 . S
C178 C164 1.411 . S
C178 C177 1.382 . S
C179 C163 1.411 . S
C179 C177 1.403 . S
C179 C180 1.489 . S
C180 C179 1.489 . S
C180 C181 1.383 . S
C180 C185 1.382 . S
C181 H152 0.950 . S
C181 C180 1.383 . S
C181 C182 1.395 . S
C182 H153 0.950 . S
C182 C181 1.395 . S
C182 C183 1.288 . S
C183 C182 1.288 . S
C183 C184 1.392 . S
C184 H154 0.951 . S
C184 C183 1.392 . S
C184 C185 1.392 . S
C185 H155 0.949 . S
C185 C180 1.382 . S
C185 C184 1.392 . S
H186 C194 0.929 . S
H187 C196 0.930 . S
H188 C198 0.930 . S
H189 C201 0.929 . S
H190 C204 0.930 1_655 S
H191 C206 0.960 . S
H192 C206 0.960 . S
H193 C206 0.960 . S
C194 H186 0.929 . S
C194 C195 1.377 . S
C194 C196 1.384 . S
C195 C194 1.377 . S
C195 C201 1.390 . S
C196 H187 0.930 . S
C196 C194 1.384 . S
C196 C197 1.372 . S
C197 C196 1.372 . S
C197 C198 1.400 . S
C197 C202 1.490 . S
C198 H188 0.930 . S
C198 C197 1.400 . S
C198 C201 1.386 . S
H199 C215 0.930 . S
H200 C216 0.931 . S
C201 H189 0.929 . S
C201 C195 1.390 . S
C201 C198 1.386 . S
C202 C197 1.490 . S
C202 C204 1.395 . S
C202 C205 1.403 . S
H203 C209 0.930 . S
C204 H190 0.930 1_455 S
C204 C202 1.395 . S
C204 C207 1.403 . S
C205 C202 1.403 . S
C205 C206 1.524 . S
C205 C209 1.400 . S
C206 H191 0.960 . S
C206 H192 0.960 . S
C206 H193 0.960 . S
C206 C205 1.524 . S
C207 C204 1.403 . S
C207 C208 1.392 . S
C207 C211 1.495 1_455 S
C208 C207 1.392 . S
C208 C209 1.385 . S
C208 C210 1.478 . S
C209 H203 0.930 . S
C209 C205 1.400 . S
C209 C208 1.385 . S
C210 C208 1.478 . S
C210 C212 1.381 . S
C210 C216 1.383 . S
C211 C207 1.495 1_655 S
C211 H217 0.959 . S
C211 H218 0.961 . S
C211 H219 0.960 . S
C212 C210 1.381 . S
C212 C213 1.394 . S
C212 H220 0.930 . S
C213 C212 1.394 . S
C213 C214 1.383 . S
C213 H221 0.929 . S
C214 C213 1.383 . S
C214 C215 1.377 . S
C215 H199 0.930 . S
C215 C214 1.377 . S
C215 C216 1.379 . S
C216 H200 0.931 . S
C216 C210 1.383 . S
C216 C215 1.379 . S
H217 C211 0.959 . S
H218 C211 0.961 . S
H219 C211 0.960 . S
H220 C212 0.930 . S
H221 C213 0.929 . S
H222 C230 0.929 . S
H223 C232 0.930 . S
H224 C234 0.930 . S
H225 C237 0.936 . S
H226 C240 0.930 . S
H227 C242 0.960 . S
H228 C242 0.960 . S
H229 C242 0.960 . S
C230 H222 0.929 . S
C230 C231 1.377 . S
C230 C232 1.384 . S
C231 C230 1.377 . S
C231 C237 1.390 . S
C232 H223 0.930 . S
C232 C230 1.384 . S
C232 C233 1.372 . S
C233 C232 1.372 . S
C233 C234 1.400 . S
C233 C238 1.490 . S
C234 H224 0.930 . S
C234 C233 1.400 . S
C234 C237 1.386 . S
H235 C251 0.930 . S
H236 C252 0.931 . S
C237 H225 0.936 . S
C237 C231 1.390 . S
C237 C234 1.386 . S
C238 C233 1.490 . S
C238 C240 1.395 . S
C238 C241 1.403 1_545 S
H239 C245 0.930 . S
C240 H226 0.930 . S
C240 C238 1.395 . S
C240 C243 1.403 . S
C241 C238 1.403 1_565 S
C241 C242 1.524 . S
C241 C245 1.400 . S
C242 H227 0.960 . S
C242 H228 0.960 . S
C242 H229 0.960 . S
C242 C241 1.524 . S
C243 C240 1.403 . S
C243 C244 1.392 . S
C243 C247 1.495 . S
C244 C243 1.392 . S
C244 C245 1.385 1_545 S
C244 C246 1.478 . S
C245 H239 0.930 . S
C245 C241 1.400 . S
C245 C244 1.385 1_565 S
C246 C244 1.478 . S
C246 C248 1.381 . S
C246 C252 1.383 . S
C247 C243 1.495 . S
C247 H253 0.959 . S
C247 H254 0.961 . S
C247 H255 0.960 . S
C248 C246 1.381 . S
C248 C249 1.394 . S
C248 H256 0.930 . S
C249 C248 1.394 . S
C249 C250 1.383 . S
C249 H257 0.929 . S
C250 C249 1.383 . S
C250 C251 1.377 . S
C251 H235 0.930 . S
C251 C250 1.377 . S
C251 C252 1.379 . S
C252 H236 0.931 . S
C252 C246 1.383 . S
C252 C251 1.379 . S
H253 C247 0.959 . S
H254 C247 0.961 . S
H255 C247 0.960 . S
H256 C248 0.930 . S
H257 C249 0.929 . S
H258 C266 0.929 . S
H259 C268 0.930 . S
H260 C270 0.930 . S
H261 C273 0.929 . S
H262 C276 0.930 . S
H263 C278 0.960 . S
H264 C278 0.960 . S
H265 C278 0.960 . S
C266 H258 0.929 . S
C266 C267 1.377 . S
C266 C268 1.384 . S
C267 C266 1.377 . S
C267 C273 1.390 . S
C268 H259 0.930 . S
C268 C266 1.384 . S
C268 C269 1.372 . S
C269 C268 1.372 . S
C269 C270 1.400 . S
C269 C274 1.490 . S
C270 H260 0.930 . S
C270 C269 1.400 . S
C270 C273 1.386 . S
H271 C287 0.930 . S
H272 C288 0.931 . S
C273 H261 0.929 . S
C273 C267 1.390 . S
C273 C270 1.386 . S
C274 C269 1.490 . S
C274 C276 1.395 . S
C274 C277 1.403 . S
H275 C281 0.930 . S
C276 H262 0.930 . S
C276 C274 1.395 . S
C276 C279 1.403 . S
C277 C274 1.403 . S
C277 C278 1.524 . S
C277 C281 1.400 . S
C278 H263 0.960 . S
C278 H264 0.960 . S
C278 H265 0.960 . S
C278 C277 1.524 . S
C279 C276 1.403 . S
C279 C280 1.392 . S
C279 C283 1.495 . S
C280 C279 1.392 . S
C280 C281 1.385 . S
C280 C282 1.478 . S
C281 H275 0.930 . S
C281 C277 1.400 . S
C281 C280 1.385 . S
C282 C280 1.478 . S
C282 C284 1.381 . S
C282 C288 1.383 . S
C283 C279 1.495 . S
C283 H289 0.959 . S
C283 H290 0.961 . S
C283 H291 0.960 . S
C284 C282 1.381 . S
C284 C285 1.394 . S
C284 H292 0.930 . S
C285 C284 1.394 . S
C285 C286 1.383 . S
C285 H293 0.929 . S
C286 C285 1.383 . S
C286 C287 1.377 . S
C287 H271 0.930 . S
C287 C286 1.377 . S
C287 C288 1.379 . S
C288 H272 0.931 . S
C288 C282 1.383 . S
C288 C287 1.379 . S
H289 C283 0.959 . S
H290 C283 0.961 . S
H291 C283 0.960 . S
H292 C284 0.930 . S
H293 C285 0.929 . S
H294 C302 0.929 . S
H295 C304 0.930 . S
H296 C306 0.930 . S
H297 C309 0.929 . S
H298 C312 0.930 . S
H299 C314 0.960 . S
H300 C314 0.960 . S
H301 C314 0.960 1_455 S
C302 H294 0.929 . S
C302 C303 1.377 . S
C302 C304 1.384 . S
C303 C302 1.377 . S
C303 C309 1.390 . S
C304 H295 0.930 . S
C304 C302 1.384 . S
C304 C305 1.372 . S
C305 C304 1.372 . S
C305 C306 1.400 . S
C305 C310 1.490 . S
C306 H296 0.930 . S
C306 C305 1.400 . S
C306 C309 1.386 . S
H307 C323 0.930 . S
H308 C324 0.931 . S
C309 H297 0.929 . S
C309 C303 1.390 . S
C309 C306 1.386 . S
C310 C305 1.490 . S
C310 C312 1.395 . S
C310 C313 1.403 . S
H311 C317 0.930 . S
C312 H298 0.930 . S
C312 C310 1.395 . S
C312 C315 1.403 . S
C313 C310 1.403 . S
C313 C314 1.524 1_455 S
C313 C317 1.400 . S
C314 H299 0.960 . S
C314 H300 0.960 . S
C314 H301 0.960 1_655 S
C314 C313 1.524 1_655 S
C315 C312 1.403 . S
C315 C316 1.392 . S
C315 C319 1.495 . S
C316 C315 1.392 . S
C316 C317 1.385 . S
C316 C318 1.478 . S
C317 H311 0.930 . S
C317 C313 1.400 . S
C317 C316 1.385 . S
C318 C316 1.478 . S
C318 C320 1.381 . S
C318 C324 1.383 . S
C319 C315 1.495 . S
C319 H325 0.959 . S
C319 H326 0.961 . S
C319 H327 0.960 . S
C320 C318 1.381 . S
C320 C321 1.394 . S
C320 H328 0.930 . S
C321 C320 1.394 . S
C321 C322 1.383 . S
C321 H329 0.929 . S
C322 C321 1.383 . S
C322 C323 1.377 . S
C323 H307 0.930 . S
C323 C322 1.377 . S
C323 C324 1.379 . S
C324 H308 0.931 . S
C324 C318 1.383 . S
C324 C323 1.379 . S
H325 C319 0.959 . S
H326 C319 0.961 . S
H327 C319 0.960 . S
H328 C320 0.930 . S
H329 C321 0.929 . S
H330 C338 0.929 . S
H331 C340 0.930 . S
H332 C342 0.949 . S
H333 C345 0.929 . S
H334 C348 0.930 . S
H335 C350 0.960 . S
H336 C350 0.960 . S
H337 C350 0.960 . S
C338 H330 0.929 . S
C338 C339 1.377 . S
C338 C340 1.384 . S
C339 C338 1.377 . S
C339 C345 1.390 1_545 S
C340 H331 0.930 . S
C340 C338 1.384 . S
C340 C341 1.372 . S
C341 C340 1.372 . S
C341 C342 1.389 1_545 S
C341 C346 1.490 . S
C342 H332 0.949 . S
C342 C341 1.389 1_565 S
C342 C345 1.378 . S
H343 C359 0.930 . S
H344 C360 0.931 . S
C345 H333 0.929 . S
C345 C339 1.390 1_565 S
C345 C342 1.378 . S
C346 C341 1.490 . S
C346 C348 1.395 . S
C346 C349 1.403 . S
H347 C353 0.930 . S
C348 H334 0.930 . S
C348 C346 1.395 . S
C348 C351 1.403 . S
C349 C346 1.403 . S
C349 C350 1.524 . S
C349 C353 1.400 . S
C350 H335 0.960 . S
C350 H336 0.960 . S
C350 H337 0.960 . S
C350 C349 1.524 . S
C351 C348 1.403 . S
C351 C352 1.392 . S
C351 C355 1.495 . S
C352 C351 1.392 . S
C352 C353 1.385 . S
C352 C354 1.478 . S
C353 H347 0.930 . S
C353 C349 1.400 . S
C353 C352 1.385 . S
C354 C352 1.478 . S
C354 C356 1.381 . S
C354 C360 1.383 1_545 S
C355 C351 1.495 . S
C355 H361 0.959 . S
C355 H362 0.961 . S
C355 H363 0.960 . S
C356 C354 1.381 . S
C356 C357 1.394 . S
C356 H364 0.930 . S
C357 C356 1.394 . S
C357 C358 1.383 . S
C357 H365 0.929 . S
C358 C357 1.383 . S
C358 C359 1.377 1_545 S
C359 H343 0.930 . S
C359 C358 1.377 1_565 S
C359 C360 1.379 . S
C360 H344 0.931 . S
C360 C354 1.383 1_565 S
C360 C359 1.379 . S
H361 C355 0.959 . S
H362 C355 0.961 . S
H363 C355 0.960 . S
H364 C356 0.930 . S
H365 C357 0.929 . S
H366 C374 0.929 . S
H367 C376 0.930 . S
H368 C378 0.930 . S
H369 C381 0.929 . S
H370 C384 0.930 . S
H371 C386 0.960 . S
H372 C386 0.960 . S
H373 C386 0.960 . S
C374 H366 0.929 . S
C374 C375 1.377 . S
C374 C376 1.384 . S
C375 C374 1.377 . S
C375 C381 1.390 . S
C376 H367 0.930 . S
C376 C374 1.384 . S
C376 C377 1.372 . S
C377 C376 1.372 . S
C377 C378 1.400 . S
C377 C382 1.490 . S
C378 H368 0.930 . S
C378 C377 1.400 . S
C378 C381 1.386 . S
H379 C395 0.930 . S
H380 C396 0.931 . S
C381 H369 0.929 . S
C381 C375 1.390 . S
C381 C378 1.386 . S
C382 C377 1.490 . S
C382 C384 1.395 . S
C382 C385 1.403 . S
H383 C389 0.930 . S
C384 H370 0.930 . S
C384 C382 1.395 . S
C384 C387 1.403 . S
C385 C382 1.403 . S
C385 C386 1.524 . S
C385 C389 1.400 . S
C386 H371 0.960 . S
C386 H372 0.960 . S
C386 H373 0.960 . S
C386 C385 1.524 . S
C387 C384 1.403 . S
C387 C388 1.392 . S
C387 C391 1.495 . S
C388 C387 1.392 . S
C388 C389 1.385 . S
C388 C390 1.478 . S
C389 H383 0.930 . S
C389 C385 1.400 . S
C389 C388 1.385 . S
C390 C388 1.478 . S
C390 C392 1.381 . S
C390 C396 1.383 . S
C391 C387 1.495 . S
C391 H397 0.959 . S
C391 H398 0.961 . S
C391 H399 0.960 . S
C392 C390 1.381 . S
C392 C393 1.394 . S
C392 H400 0.930 . S
C393 C392 1.394 . S
C393 C394 1.383 . S
C393 H401 0.929 . S
C394 C393 1.383 . S
C394 C395 1.377 . S
C395 H379 0.930 . S
C395 C394 1.377 . S
C395 C396 1.379 . S
C396 H380 0.931 . S
C396 C390 1.383 . S
C396 C395 1.379 . S
H397 C391 0.959 . S
H398 C391 0.961 . S
H399 C391 0.960 . S
H400 C392 0.930 . S
H401 C393 0.929 . S
H402 C410 0.929 . S
H403 C412 0.930 . S
H404 C414 0.918 1_565 S
H405 C417 0.914 1_565 S
H406 C420 0.930 . S
H407 C422 0.960 . S
H408 C422 0.960 1_545 S
H409 C422 0.960 . S
C410 H402 0.929 . S
C410 C411 1.377 . S
C410 C412 1.384 . S
C411 C410 1.377 . S
C411 C417 1.398 . S
C412 H403 0.930 . S
C412 C410 1.384 . S
C412 C413 1.372 . S
C413 C412 1.372 . S
C413 C414 1.421 . S
C413 C418 1.490 . S
C414 H404 0.918 1_545 S
C414 C413 1.421 . S
C414 C417 1.383 . S
H415 C431 0.930 . S
H416 C432 0.931 1_565 S
C417 H405 0.914 1_545 S
C417 C411 1.398 . S
C417 C414 1.383 . S
C418 C413 1.490 . S
C418 C420 1.395 . S
C418 C421 1.403 . S
H419 C425 0.930 1_565 S
C420 H406 0.930 . S
C420 C418 1.395 . S
C420 C423 1.403 . S
C421 C418 1.403 . S
C421 C422 1.524 1_545 S
C421 C425 1.400 . S
C422 H407 0.960 . S
C422 H408 0.960 1_565 S
C422 H409 0.960 . S
C422 C421 1.524 1_565 S
C423 C420 1.403 . S
C423 C424 1.392 . S
C423 C427 1.495 . S
C424 C423 1.392 . S
C424 C425 1.385 . S
C424 C426 1.478 . S
C425 H419 0.930 1_545 S
C425 C421 1.400 . S
C425 C424 1.385 . S
C426 C424 1.478 . S
C426 C428 1.381 . S
C426 C432 1.383 . S
C427 C423 1.495 . S
C427 H433 0.959 . S
C427 H434 0.961 . S
C427 H435 0.960 . S
C428 C426 1.381 . S
C428 C429 1.394 . S
C428 H436 0.930 . S
C429 C428 1.394 . S
C429 C430 1.383 . S
C429 H437 0.929 . S
C430 C429 1.383 . S
C430 C431 1.377 1_545 S
C431 H415 0.930 . S
C431 C430 1.377 1_565 S
C431 C432 1.379 1_565 S
C432 H416 0.931 1_545 S
C432 C426 1.383 . S
C432 C431 1.379 1_545 S
H433 C427 0.959 . S
H434 C427 0.961 . S
H435 C427 0.960 . S
H436 C428 0.930 . S
H437 C429 0.929 . S
H438 C446 0.929 . S
H439 C448 0.930 . S
H440 C450 0.951 . S
H441 C453 0.929 . S
H442 C456 0.930 . S
H443 C458 0.960 . S
H444 C458 0.960 . S
H445 C458 0.960 . S
C446 H438 0.929 . S
C446 C447 1.377 . S
C446 C448 1.384 . S
C447 C446 1.377 . S
C447 C453 1.390 . S
C448 H439 0.930 . S
C448 C446 1.384 . S
C448 C449 1.372 1_554 S
C449 C448 1.372 1_556 S
C449 C450 1.408 . S
C449 C454 1.490 . S
C450 H440 0.951 . S
C450 C449 1.408 . S
C450 C453 1.359 1_556 S
H451 C467 0.930 . S
H452 C468 0.931 . S
C453 H441 0.929 . S
C453 C447 1.390 . S
C453 C450 1.359 1_554 S
C454 C449 1.490 . S
C454 C456 1.395 . S
C454 C457 1.403 . S
H455 C461 0.930 . S
C456 H442 0.930 . S
C456 C454 1.395 . S
C456 C459 1.403 . S
C457 C454 1.403 . S
C457 C458 1.524 1_556 S
C457 C461 1.400 . S
C458 H443 0.960 . S
C458 H444 0.960 . S
C458 H445 0.960 . S
C458 C457 1.524 1_554 S
C459 C456 1.403 . S
C459 C460 1.392 . S
C459 C463 1.495 . S
C460 C459 1.392 . S
C460 C461 1.385 . S
C460 C462 1.478 . S
C461 H455 0.930 . S
C461 C457 1.400 . S
C461 C460 1.385 . S
C462 C460 1.478 . S
C462 C464 1.381 . S
C462 C468 1.383 . S
C463 C459 1.495 . S
C463 H469 0.959 . S
C463 H470 0.961 . S
C463 H471 0.960 . S
C464 C462 1.381 . S
C464 C465 1.394 . S
C464 H472 0.930 . S
C465 C464 1.394 . S
C465 C466 1.383 . S
C465 H473 0.929 . S
C466 C465 1.383 . S
C466 C467 1.377 . S
C467 H451 0.930 . S
C467 C466 1.377 . S
C467 C468 1.379 . S
C468 H452 0.931 . S
C468 C462 1.383 . S
C468 C467 1.379 . S
H469 C463 0.959 . S
H470 C463 0.961 . S
H471 C463 0.960 . S
H472 C464 0.930 . S
H473 C465 0.929 . S
H474 C482 0.929 1_655 S
H475 C484 0.922 1_655 S
H476 C486 0.930 . S
H477 C489 0.929 . S
H478 C492 0.930 . S
H479 C494 0.960 . S
H480 C494 0.960 . S
H481 C494 0.960 . S
C482 H474 0.929 1_455 S
C482 C483 1.377 . S
C482 C484 1.384 . S
C483 C482 1.377 . S
C483 C489 1.390 . S
C484 H475 0.922 1_455 S
C484 C482 1.384 . S
C484 C485 1.372 . S
C485 C484 1.372 . S
C485 C486 1.400 . S
C485 C490 1.490 . S
C486 H476 0.930 . S
C486 C485 1.400 . S
C486 C489 1.386 . S
H487 C503 0.930 . S
H488 C504 0.931 . S
C489 H477 0.929 . S
C489 C483 1.390 . S
C489 C486 1.386 . S
C490 C485 1.490 . S
C490 C492 1.395 . S
C490 C493 1.403 . S
H491 C497 0.930 1_655 S
C492 H478 0.930 . S
C492 C490 1.395 . S
C492 C495 1.403 . S
C493 C490 1.403 . S
C493 C494 1.524 1_455 S
C493 C497 1.400 . S
C494 H479 0.960 . S
C494 H480 0.960 . S
C494 H481 0.960 . S
C494 C493 1.524 1_655 S
C495 C492 1.403 . S
C495 C496 1.392 . S
C495 C499 1.495 . S
C496 C495 1.392 . S
C496 C497 1.385 . S
C496 C498 1.478 . S
C497 H491 0.930 1_455 S
C497 C493 1.400 . S
C497 C496 1.385 . S
C498 C496 1.478 . S
C498 C500 1.381 . S
C498 C504 1.383 . S
C499 C495 1.495 . S
C499 H505 0.959 . S
C499 H506 0.961 . S
C499 H507 0.960 . S
C500 C498 1.381 . S
C500 C501 1.394 . S
C500 H508 0.930 . S
C501 C500 1.394 . S
C501 C502 1.383 . S
C501 H509 0.929 . S
C502 C501 1.383 . S
C502 C503 1.377 . S
C503 H487 0.930 . S
C503 C502 1.377 . S
C503 C504 1.379 . S
C504 H488 0.931 . S
C504 C498 1.383 . S
C504 C503 1.379 . S
H505 C499 0.959 . S
H506 C499 0.961 . S
H507 C499 0.960 . S
H508 C500 0.930 . S
H509 C501 0.929 . S
H510 C518 0.929 1_565 S
H511 C520 0.930 1_565 S
H512 C522 0.930 . S
H513 C525 0.929 . S
H514 C528 0.930 . S
H515 C530 0.960 . S
H516 C530 0.960 . S
H517 C530 0.960 1_545 S
C518 H510 0.929 1_545 S
C518 C519 1.377 . S
C518 C520 1.384 . S
C519 C518 1.377 . S
C519 C525 1.390 . S
C520 H511 0.930 1_545 S
C520 C518 1.384 . S
C520 C521 1.372 . S
C521 C520 1.372 . S
C521 C522 1.400 . S
C521 C526 1.490 . S
C522 H512 0.930 . S
C522 C521 1.400 . S
C522 C525 1.386 . S
H523 C539 0.930 . S
H524 C540 0.931 . S
C525 H513 0.929 . S
C525 C519 1.390 . S
C525 C522 1.386 . S
C526 C521 1.490 . S
C526 C528 1.395 . S
C526 C529 1.403 . S
H527 C533 0.930 . S
C528 H514 0.930 . S
C528 C526 1.395 . S
C528 C531 1.403 . S
C529 C526 1.403 . S
C529 C530 1.524 1_545 S
C529 C533 1.400 . S
C530 H515 0.960 . S
C530 H516 0.960 . S
C530 H517 0.960 1_565 S
C530 C529 1.524 1_565 S
C531 C528 1.403 . S
C531 C532 1.392 . S
C531 C535 1.495 . S
C532 C531 1.392 . S
C532 C533 1.385 . S
C532 C534 1.478 . S
C533 H527 0.930 . S
C533 C529 1.400 . S
C533 C532 1.385 . S
C534 C532 1.478 . S
C534 C536 1.381 . S
C534 C540 1.383 . S
C535 C531 1.495 . S
C535 H541 0.959 . S
C535 H542 0.961 . S
C535 H543 0.960 . S
C536 C534 1.381 . S
C536 C537 1.394 . S
C536 H544 0.930 1_545 S
C537 C536 1.394 . S
C537 C538 1.383 . S
C537 H545 0.929 1_545 S
C538 C537 1.383 . S
C538 C539 1.377 . S
C539 H523 0.930 . S
C539 C538 1.377 . S
C539 C540 1.379 . S
C540 H524 0.931 . S
C540 C534 1.383 . S
C540 C539 1.379 . S
H541 C535 0.959 . S
H542 C535 0.961 . S
H543 C535 0.960 . S
H544 C536 0.930 1_565 S
H545 C537 0.929 1_565 S
H546 C554 0.929 . S
H547 C556 0.930 . S
H548 C558 0.930 . S
H549 C561 0.929 . S
H550 C564 0.930 . S
H551 C566 0.960 . S
H552 C566 0.960 . S
H553 C566 0.960 1_554 S
C554 H546 0.929 . S
C554 C555 1.377 1_556 S
C554 C556 1.384 . S
C555 C554 1.377 1_554 S
C555 C561 1.390 . S
C556 H547 0.930 . S
C556 C554 1.384 . S
C556 C557 1.372 . S
C557 C556 1.372 . S
C557 C558 1.400 1_556 S
C557 C562 1.490 . S
C558 H548 0.930 . S
C558 C557 1.400 1_554 S
C558 C561 1.386 . S
H559 C575 0.930 . S
H560 C576 0.931 . S
C561 H549 0.929 . S
C561 C555 1.390 . S
C561 C558 1.386 . S
C562 C557 1.490 . S
C562 C564 1.395 . S
C562 C565 1.403 . S
H563 C569 0.930 . S
C564 H550 0.930 . S
C564 C562 1.395 . S
C564 C567 1.403 . S
C565 C562 1.403 . S
C565 C566 1.524 . S
C565 C569 1.400 . S
C566 H551 0.960 . S
C566 H552 0.960 . S
C566 H553 0.960 1_556 S
C566 C565 1.524 . S
C567 C564 1.403 . S
C567 C568 1.392 . S
C567 C571 1.495 . S
C568 C567 1.392 . S
C568 C569 1.385 . S
C568 C570 1.478 . S
C569 H563 0.930 . S
C569 C565 1.400 . S
C569 C568 1.385 . S
C570 C568 1.478 . S
C570 C572 1.381 . S
C570 C576 1.383 . S
C571 C567 1.495 . S
C571 H577 0.959 . S
C571 H578 0.961 . S
C571 H579 0.960 . S
C572 C570 1.381 . S
C572 C573 1.394 . S
C572 H580 0.930 . S
C573 C572 1.394 . S
C573 C574 1.383 . S
C573 H581 0.929 . S
C574 C573 1.383 . S
C574 C575 1.377 . S
C575 H559 0.930 . S
C575 C574 1.377 . S
C575 C576 1.379 . S
C576 H560 0.931 . S
C576 C570 1.383 . S
C576 C575 1.379 . S
H577 C571 0.959 . S
H578 C571 0.961 . S
H579 C571 0.960 . S
H580 C572 0.930 . S
H581 C573 0.929 . S
H582 C590 0.924 1_655 S
H583 C592 0.930 1_655 S
H584 C594 0.930 . S
H585 C597 0.929 . S
H586 C600 0.930 . S
H587 C602 0.960 . S
H588 C602 0.960 . S
H589 C602 0.960 . S
C590 H582 0.924 1_455 S
C590 C591 1.396 . S
C590 C592 1.371 . S
C591 C590 1.396 . S
C591 C597 1.390 . S
C592 H583 0.930 1_455 S
C592 C590 1.371 . S
C592 C593 1.372 . S
C593 C592 1.372 . S
C593 C594 1.400 . S
C593 C598 1.490 . S
C594 H584 0.930 . S
C594 C593 1.400 . S
C594 C597 1.386 . S
H595 C611 0.930 . S
H596 C612 0.931 . S
C597 H585 0.929 . S
C597 C591 1.390 . S
C597 C594 1.386 . S
C598 C593 1.490 . S
C598 C600 1.395 1_455 S
C598 C601 1.403 . S
H599 C605 0.930 . S
C600 H586 0.930 . S
C600 C598 1.395 1_655 S
C600 C603 1.403 . S
C601 C598 1.403 . S
C601 C602 1.524 . S
C601 C605 1.400 . S
C602 H587 0.960 . S
C602 H588 0.960 . S
C602 H589 0.960 . S
C602 C601 1.524 . S
C603 C600 1.403 . S
C603 C604 1.392 1_655 S
C603 C607 1.495 . S
C604 C603 1.392 1_455 S
C604 C605 1.385 . S
C604 C606 1.478 . S
C605 H599 0.930 . S
C605 C601 1.400 . S
C605 C604 1.385 . S
C606 C604 1.478 . S
C606 C608 1.381 . S
C606 C612 1.383 . S
C607 C603 1.495 . S
C607 H613 0.959 . S
C607 H614 0.961 . S
C607 H615 0.960 . S
C608 C606 1.381 . S
C608 C609 1.394 . S
C608 H616 0.930 1_455 S
C609 C608 1.394 . S
C609 C610 1.383 . S
C609 H617 0.929 1_455 S
C610 C609 1.383 . S
C610 C611 1.377 . S
C611 H595 0.930 . S
C611 C610 1.377 . S
C611 C612 1.379 . S
C612 H596 0.931 . S
C612 C606 1.383 . S
C612 C611 1.379 . S
H613 C607 0.959 . S
H614 C607 0.961 . S
H615 C607 0.960 . S
H616 C608 0.930 1_655 S
H617 C609 0.929 1_655 S
C214 C63 1.456 . S
C195 C0 1.450 . S
C231 C25 1.508 . S
C250 C111 1.503 . S
C267 C33 1.532 . S
C286 C183 1.530 . S
C303 C11 1.459 . S
C322 C87 1.445 . S
C358 C135 1.494 . S
C339 C14 1.491 . S
C375 C37 1.534 . S
C394 C159 1.528 . S
C430 C120 1.497 . S
C411 C28 1.488 . S
C447 C9 1.531 . S
C466 C174 1.534 . S
C502 C78 1.567 . S
C483 C19 1.568 . S
C538 C126 1.506 . S
C519 C39 1.507 . S
C574 C168 1.524 . S
C555 C5 1.531 . S
C591 C23 1.574 . S
C610 C72 1.561 . S
