# Generated by pormake.
# Topology zzz, (3,6)-cn, num edge types: 1
# Building blocks:
#     Node 0, Type 0, BuildingBlock: CUQRIR_clean_linker_1, # of connection points: 3
#     Node 1, Type 0, BuildingBlock: CUQRIR_clean_linker_1, # of connection points: 3
#     Node 2, Type 0, BuildingBlock: CUQRIR_clean_linker_1, # of connection points: 3
#     Node 3, Type 0, BuildingBlock: CUQRIR_clean_linker_1, # of connection points: 3
#     Node 4, Type 0, BuildingBlock: CUQRIR_clean_linker_1, # of connection points: 3
#     Node 5, Type 0, BuildingBlock: CUQRIR_clean_linker_1, # of connection points: 3
#     Node 6, Type 0, BuildingBlock: CUQRIR_clean_linker_1, # of connection points: 3
#     Node 7, Type 0, BuildingBlock: CUQRIR_clean_linker_1, # of connection points: 3
#     Node 8, Type 1, BuildingBlock: JUFBIX_clean_sbu_0, # of connection points: 6
#     Node 9, Type 1, BuildingBlock: JUFBIX_clean_sbu_0, # of connection points: 6
#     Node 10, Type 1, BuildingBlock: JUFBIX_clean_sbu_0, # of connection points: 6
#     Node 11, Type 1, BuildingBlock: JUFBIX_clean_sbu_0, # of connection points: 6
#     Edge 12, Type (0, 1), BuildingBlock: CIFDUS_clean_linker_0, # of connection points: 2
#     Edge 13, Type (0, 1), BuildingBlock: CIFDUS_clean_linker_0, # of connection points: 2
#     Edge 14, Type (0, 1), BuildingBlock: CIFDUS_clean_linker_0, # of connection points: 2
#     Edge 15, Type (0, 1), BuildingBlock: CIFDUS_clean_linker_0, # of connection points: 2
#     Edge 16, Type (0, 1), BuildingBlock: CIFDUS_clean_linker_0, # of connection points: 2
#     Edge 17, Type (0, 1), BuildingBlock: CIFDUS_clean_linker_0, # of connection points: 2
#     Edge 18, Type (0, 1), BuildingBlock: CIFDUS_clean_linker_0, # of connection points: 2
#     Edge 19, Type (0, 1), BuildingBlock: CIFDUS_clean_linker_0, # of connection points: 2
#     Edge 20, Type (0, 1), BuildingBlock: CIFDUS_clean_linker_0, # of connection points: 2
#     Edge 21, Type (0, 1), BuildingBlock: CIFDUS_clean_linker_0, # of connection points: 2
#     Edge 22, Type (0, 1), BuildingBlock: CIFDUS_clean_linker_0, # of connection points: 2
#     Edge 23, Type (0, 1), BuildingBlock: CIFDUS_clean_linker_0, # of connection points: 2
#     Edge 24, Type (0, 1), BuildingBlock: CIFDUS_clean_linker_0, # of connection points: 2
#     Edge 25, Type (0, 1), BuildingBlock: CIFDUS_clean_linker_0, # of connection points: 2
#     Edge 26, Type (0, 1), BuildingBlock: CIFDUS_clean_linker_0, # of connection points: 2
#     Edge 27, Type (0, 1), BuildingBlock: CIFDUS_clean_linker_0, # of connection points: 2
#     Edge 28, Type (0, 1), BuildingBlock: CIFDUS_clean_linker_0, # of connection points: 2
#     Edge 29, Type (0, 1), BuildingBlock: CIFDUS_clean_linker_0, # of connection points: 2
#     Edge 30, Type (0, 1), BuildingBlock: CIFDUS_clean_linker_0, # of connection points: 2
#     Edge 31, Type (0, 1), BuildingBlock: CIFDUS_clean_linker_0, # of connection points: 2
#     Edge 32, Type (0, 1), BuildingBlock: CIFDUS_clean_linker_0, # of connection points: 2
#     Edge 33, Type (0, 1), BuildingBlock: CIFDUS_clean_linker_0, # of connection points: 2
#     Edge 34, Type (0, 1), BuildingBlock: CIFDUS_clean_linker_0, # of connection points: 2
#     Edge 35, Type (0, 1), BuildingBlock: CIFDUS_clean_linker_0, # of connection points: 2
# Relax obj value: 0.128
# Max RMSD: 0.174
# Mean RMSD: 0.098
data_MOF--net-zzz--node1-JUFBIX_clean_sbu_0--node2-CUQRIR_clean_linker_1--edge1-CIFDUS_clean_linker_0
_symmetry_space_group_name_H-M    P1
_symmetry_Int_Tables_number       1
_symmetry_cell_setting            triclinic
loop_
_symmetry_equiv_pos_as_xyz
'x, y, z'
_cell_length_a     42.643191
_cell_length_b     42.352425
_cell_length_c     13.737573
_cell_angle_alpha  78.798729
_cell_angle_beta   89.992931
_cell_angle_gamma 90.505486
loop_
_atom_site_label
_atom_site_type_symbol
_atom_site_fract_x
_atom_site_fract_y
_atom_site_fract_z
_atom_type_partial_charge
C0 C 0.79136 0.51434 0.33025 0.0
N1 N 0.82314 0.51306 0.33369 0.0
N2 N 0.78074 0.51 0.24026 0.0
C3 C 0.77082 0.51845 0.4155 0.0
C4 C 0.80731 0.50647 0.18934 0.0
N5 N 0.83282 0.5079 0.24642 0.0
C6 C 0.80864 0.50481 0.08079 0.0
H7 H 0.78215 0.50824 0.4873 0.0
H8 H 0.74762 0.50676 0.41101 0.0
H9 H 0.76718 0.54453 0.41246 0.0
H10 H 0.78859 0.5176 0.03983 0.0
H11 H 0.80769 0.47921 0.07326 0.0
H12 H 0.83077 0.51553 0.04625 0.0
C13 C 0.02995 0.73898 0.32808 0.0
N14 N 0.03735 0.76977 0.33404 0.0
N15 N 0.04233 0.73143 0.24472 0.0
C16 C 0.0089 0.71702 0.39892 0.0
C17 C 0.05744 0.75868 0.20044 0.0
N18 N 0.05437 0.78199 0.25424 0.0
C19 C 0.07118 0.76399 0.09749 0.0
H20 H 0.00937 0.72343 0.47349 0.0
H21 H 0.01612 0.69161 0.40464 0.0
H22 H 0.98454 0.71926 0.37022 0.0
H23 H 0.07614 0.74083 0.07444 0.0
H24 H 0.09323 0.77822 0.09408 0.0
H25 H 0.05434 0.77783 0.04447 0.0
C26 C 0.78347 0.01621 0.19821 0.0
N27 N 0.75179 0.01368 0.19091 0.0
N28 N 0.79735 0.01759 0.1082 0.0
C29 C 0.80087 0.01511 0.29377 0.0
C30 C 0.77286 0.01626 0.04619 0.0
N31 N 0.74536 0.01338 0.09635 0.0
C32 C 0.77563 0.02082 0.93495 0.0
H33 H 0.80503 0.0401 0.30448 0.0
H34 H 0.82393 1.00334 0.29152 0.0
H35 H 0.78702 1.00209 0.35776 0.0
H36 H 0.77818 0.99702 0.91362 0.0
H37 H 0.79647 0.03581 0.90765 0.0
H38 H 0.75436 0.03248 0.89824 0.0
C39 C 0.50662 0.74234 0.23277 0.0
N40 N 0.51024 0.71037 0.23449 0.0
N41 N 0.51086 0.75984 0.13926 0.0
C42 C 0.50133 0.75651 0.32348 0.0
C43 C 0.51705 0.73708 0.08463 0.0
N44 N 0.51704 0.7073 0.14248 0.0
C45 C 0.52007 0.74341 0.97329 0.0
H46 H 0.47573 0.75834 0.33549 0.0
H47 H 0.51192 0.78094 0.31414 0.0
H48 H 0.51142 0.74092 0.3902 0.0
H49 H 0.54518 0.74726 0.95281 0.0
H50 H 0.50677 0.7651 0.93872 0.0
H51 H 0.51136 0.72255 0.94288 0.0
C52 C 0.24325 0.50955 0.27889 0.0
N53 N 0.21316 0.51951 0.26293 0.0
N54 N 0.25553 0.51994 0.35827 0.0
C55 C 0.26069 0.48948 0.2184 0.0
C56 C 0.23177 0.53613 0.39099 0.0
N57 N 0.20609 0.53617 0.33279 0.0
C58 C 0.23224 0.54795 0.48779 0.0
H59 H 0.25658 0.46366 0.25063 0.0
H60 H 0.28627 0.49437 0.22026 0.0
H61 H 0.25235 0.49431 0.14045 0.0
H62 H 0.21063 0.5401 0.53111 0.0
H63 H 0.23298 0.57464 0.47188 0.0
H64 H 0.25283 0.53914 0.5341 0.0
C65 C 0.02934 0.26522 0.28461 0.0
N66 N 0.01957 0.23532 0.27573 0.0
N67 N 0.01778 0.27298 0.36882 0.0
C68 C 0.05085 0.28652 0.21357 0.0
C69 C 1.00102 0.24662 0.41145 0.0
N70 N 1.00206 0.2238 0.35508 0.0
C71 C 0.98793 0.24095 0.51554 0.0
H72 H 0.0754 0.28221 0.23909 0.0
H73 H 0.04552 0.31222 0.21199 0.0
H74 H 0.04871 0.28125 0.1378 0.0
H75 H 0.9621 0.23802 0.51234 0.0
H76 H 0.99333 0.26087 0.55464 0.0
H77 H 0.99747 0.21833 0.55959 0.0
C78 C 0.25998 1.00386 0.39445 0.0
N79 N 0.29168 1.00452 0.40446 0.0
N80 N 0.24556 0.01125 0.4757 0.0
C81 C 0.24328 0.99348 0.30959 0.0
C82 C 0.26985 0.01698 0.53385 0.0
N83 N 0.29767 0.01207 0.4922 0.0
C84 C 0.26661 0.03075 0.62659 0.0
H85 H 0.23611 0.01519 0.25552 0.0
H86 H 0.22187 0.97933 0.33621 0.0
H87 H 0.25878 0.97892 0.27105 0.0
H88 H 0.26482 0.01098 0.6924 0.0
H89 H 0.24523 0.04567 0.62322 0.0
H90 H 0.28744 0.04572 0.63636 0.0
C91 C 0.5043 0.2709 0.40371 0.0
N92 N 0.51052 0.30285 0.39682 0.0
N93 N 0.51169 0.25408 0.49533 0.0
C94 C 0.49145 0.25598 0.32133 0.0
C95 C 0.52271 0.27681 0.54376 0.0
N96 N 0.52235 0.3063 0.48395 0.0
C97 C 0.53268 0.27036 0.65089 0.0
H98 H 0.46546 0.25665 0.32354 0.0
H99 H 0.49867 0.23048 0.3303 0.0
H100 H 0.49947 0.26957 0.24811 0.0
H101 H 0.52357 0.24693 0.69187 0.0
H102 H 0.52453 0.28984 0.68807 0.0
H103 H 0.55867 0.26983 0.65438 0.0
Co104 Co 0.02967 0.01811 0.85298 0.0
C105 C 0.96563 1.00382 0.86669 0.0
Co106 Co 0.01408 0.98645 0.75069 0.0
C107 C 0.02751 0.07412 0.94423 0.0
C108 C 0.06899 0.04663 0.98456 0.0
N109 N 0.04243 0.04722 0.93104 0.0
N110 N 0.0437 0.09043 1.00363 0.0
C111 C 0.06985 0.07312 0.02909 0.0
H112 H 1.00531 0.08176 0.90975 0.0
H113 H 0.08657 0.02809 0.9909 0.0
C114 C 0.078 1.00041 0.73702 0.0
N115 N 1.00166 0.95723 0.67296 0.0
C116 C 0.0178 0.93117 0.65902 0.0
C117 C 0.97503 0.95653 0.62051 0.0
N118 N 1.00247 0.91418 0.59981 0.0
C119 C 0.97545 0.93009 0.57552 0.0
C120 C 0.01165 0.04926 0.66275 0.0
O121 O 0.072 0.01544 0.80654 0.0
O122 O 0.05597 0.98584 0.7012 0.0
O123 O 1.00541 0.02139 0.64663 0.0
O124 O 0.02233 0.05271 0.74639 0.0
O125 O 0.97242 0.98753 0.80087 0.0
H126 H 0.95658 0.97415 0.61505 0.0
H127 H 0.04035 0.92465 0.69278 0.0
O128 O 0.98719 0.02012 0.89867 0.0
O129 O 0.03699 0.98301 0.95876 0.0
O130 O 0.02278 0.95179 0.85554 0.0
C131 C 0.03213 0.95511 0.9407 0.0
H132 H 0.08803 0.07876 0.07814 0.0
H133 H 0.95757 0.92358 0.5269 0.0
Co134 Co 0.50768 0.01006 0.85724 0.0
C135 C 0.52077 0.94468 0.86623 0.0
Co136 Co 0.53594 1.00051 0.72923 0.0
C137 C 0.4527 0.0213 0.97688 0.0
C138 C 0.49401 0.00843 0.06327 0.0
N139 N 0.48397 0.01626 0.96843 0.0
N140 N 0.44308 0.01627 0.07275 0.0
C141 C 0.46912 0.00838 0.12695 0.0
H142 H 0.43684 0.02623 0.91439 0.0
H143 H 0.51754 1.00091 0.08542 0.0
C144 C 0.52369 0.06575 0.71869 0.0
N145 N 0.55893 0.99173 0.62045 0.0
C146 C 0.58917 0.9981 0.59102 0.0
C147 C 0.5476 0.97366 0.55744 0.0
N148 N 0.59693 0.98439 0.51288 0.0
C149 C 0.57056 0.96933 0.49165 0.0
C150 C 0.4713 1.00129 0.6994 0.0
O151 O 0.50772 0.05576 0.79794 0.0
O152 O 0.53852 0.04544 0.67906 0.0
O153 O 0.4976 0.99927 0.65777 0.0
O154 O 0.47043 1.00449 0.78919 0.0
O155 O 0.53328 0.9554 0.78205 0.0
H156 H 0.52428 0.96329 0.56067 0.0
H157 H 0.60548 0.01138 0.62852 0.0
O158 O 0.50816 0.96448 0.91296 0.0
O159 O 0.54618 0.01588 0.92342 0.0
O160 O 0.57325 1.0025 0.80153 0.0
C161 C 0.57244 0.01049 0.88603 0.0
H162 H 0.46989 1.00184 0.20713 0.0
H163 H 0.56803 0.95571 0.43307 0.0
Co164 Co 0.54318 0.50708 0.81653 0.0
C165 C 0.51559 0.45924 0.96187 0.0
Co166 Co 0.49141 0.50606 0.80928 0.0
C167 C 0.60362 0.50646 0.91394 0.0
C168 C 0.60786 0.5059 0.75882 0.0
N169 N 0.58657 0.50764 0.83015 0.0
N170 N 0.63458 0.50359 0.89758 0.0
C171 C 0.63734 0.50313 0.80025 0.0
H172 H 0.59342 0.50598 0.9864 0.0
H173 H 0.60218 0.50545 0.68236 0.0
C174 C 0.52085 0.55393 0.66474 0.0
N175 N 0.44794 0.50491 0.79247 0.0
C176 C 0.43253 0.51374 0.70539 0.0
C177 C 0.42553 0.49194 0.85793 0.0
N178 N 0.40163 0.50664 0.71362 0.0
C179 C 0.39706 0.49283 0.80948 0.0
C180 C 0.51262 0.54683 0.9276 0.0
O181 O 0.54573 0.54071 0.70322 0.0
O182 O 0.49445 0.54309 0.7007 0.0
O183 O 0.48783 0.53429 0.89944 0.0
O184 O 0.53927 0.53859 0.89909 0.0
O185 O 0.48976 0.46881 0.91948 0.0
H186 H 0.42968 0.48173 0.93525 0.0
H187 H 0.44391 0.52397 0.63585 0.0
O188 O 0.54076 0.47365 0.92897 0.0
O189 O 0.54603 0.47536 0.73315 0.0
O190 O 0.49494 0.47817 0.71954 0.0
C191 C 0.52064 0.46664 0.69688 0.0
H192 H 0.65908 0.50015 0.76248 0.0
H193 H 0.37476 0.48403 0.84203 0.0
Co194 Co 0.01543 0.53607 0.78448 0.0
C195 C 0.06932 0.5131 0.89648 0.0
Co196 Co 0.02391 0.48388 0.80243 0.0
C197 C 0.01087 0.59187 0.87103 0.0
C198 C 1.00164 0.60365 0.71513 0.0
N199 N 0.00895 0.57892 0.78882 0.0
N200 N 1.00511 0.62375 0.85216 0.0
C201 C 0.99925 0.63126 0.75381 0.0
H202 H 0.01618 0.57793 0.94373 0.0
H203 H 0.99845 0.60176 0.63835 0.0
C204 C 0.96983 0.50761 0.6911 0.0
N205 N 0.03051 0.44102 0.79478 0.0
C206 C 0.0228 0.4287 0.7143 0.0
C207 C 0.04493 0.41671 0.85608 0.0
N208 N 0.03143 0.39786 0.72254 0.0
C209 C 0.04562 0.39004 0.81148 0.0
C210 C 0.98671 0.49534 0.94935 0.0
O211 O 0.97831 0.53504 0.70661 0.0
O212 O 0.98635 0.48326 0.72656 0.0
O213 O 0.99997 0.47221 0.91941 0.0
O214 O 0.99095 0.52399 0.90189 0.0
O215 O 0.06166 0.48545 0.87989 0.0
H216 H 0.05464 0.41835 0.92769 0.0
H217 H 0.0118 0.44239 0.64869 0.0
O218 O 0.05217 0.53702 0.86166 0.0
O219 O 0.04016 0.54751 0.66602 0.0
O220 O 0.04724 0.49549 0.68548 0.0
C221 C 0.0518 0.52361 0.63567 0.0
H222 H 0.99421 0.65507 0.71212 0.0
H223 H 0.05536 0.36673 0.84232 0.0
H224 H 0.22121 0.98208 0.65094 0.0
H225 H 0.19556 0.03553 0.36299 0.0
H226 H 0.14048 0.03494 0.41598 0.0
H227 H 0.1 0.02173 0.54921 0.0
H228 H 0.12843 0.97581 0.84332 0.0
H229 H 0.18227 0.97194 0.78482 0.0
C230 C 0.20371 0.99416 0.60023 0.0
C231 C 0.21265 0.00916 0.50338 0.0
C232 C 0.17262 0.99534 0.63316 0.0
C233 C 0.18935 0.02356 0.43748 0.0
C234 C 0.15791 0.0235 0.46826 0.0
C235 C 0.11811 0.01091 0.60007 0.0
C236 C 0.11043 0.99894 0.70035 0.0
C237 C 0.14932 0.00986 0.56649 0.0
C238 C 0.13395 0.98523 0.76607 0.0
C239 C 0.16464 0.98294 0.73251 0.0
H240 H 0.55042 0.20657 0.47223 0.0
H241 H 0.46467 0.22619 0.61246 0.0
H242 H 0.46065 0.16959 0.69781 0.0
H243 H 0.48268 0.11441 0.73565 0.0
H244 H 0.56834 0.09531 0.59098 0.0
H245 H 0.57144 0.1513 0.50537 0.0
C246 C 0.53069 0.19813 0.52037 0.0
C247 C 0.50766 0.22016 0.53555 0.0
C248 C 0.52878 0.16564 0.56945 0.0
C249 C 0.48237 0.20935 0.59912 0.0
C250 C 0.48026 0.17711 0.6483 0.0
C251 C 0.50208 0.12257 0.68581 0.0
C252 C 0.52532 0.10052 0.67055 0.0
C253 C 0.50352 0.15501 0.63493 0.0
C254 C 0.55008 0.11157 0.60447 0.0
C255 C 0.5519 0.14368 0.55511 0.0
H256 H 0.30582 0.55697 0.37216 0.0
H257 H 0.26753 0.46186 0.46862 0.0
H258 H 0.31026 0.44858 0.58917 0.0
H259 H 0.3562 0.46603 0.67647 0.0
H260 H 0.3957 0.56059 0.57489 0.0
H261 H 0.35513 0.57238 0.44694 0.0
C262 C 0.30756 0.53311 0.41784 0.0
C263 C 0.28403 0.5102 0.41141 0.0
C264 C 0.33206 0.52589 0.48708 0.0
C265 C 0.28586 0.4795 0.47171 0.0
C266 C 0.31002 0.47213 0.5412 0.0
C267 C 0.35585 0.48912 0.62594 0.0
C268 C 0.37856 0.51262 0.63567 0.0
C269 C 0.33282 0.49542 0.55129 0.0
C270 C 0.37837 0.54225 0.56872 0.0
C271 C 0.35519 0.54897 0.49574 0.0
H272 H 0.98189 0.32016 0.40785 0.0
H273 H 0.07471 0.2811 0.44429 0.0
H274 H 0.08783 0.31673 0.56013 0.0
H275 H 0.07097 0.35626 0.66117 0.0
H276 H 0.97793 0.39542 0.62156 0.0
H277 H 0.96647 0.36258 0.49783 0.0
C278 C 1.0052 0.32031 0.43932 0.0
C279 C 0.0275 0.29859 0.41738 0.0
C280 C 0.01218 0.34034 0.50694 0.0
C281 C 0.05752 0.2982 0.45935 0.0
C282 C 0.06479 0.31819 0.52642 0.0
C283 C 0.04824 0.3574 0.62538 0.0
C284 C 0.02519 0.3779 0.65092 0.0
C285 C 0.04201 0.3388 0.55279 0.0
C286 C 0.99597 0.37975 0.60293 0.0
C287 C 0.98943 0.36104 0.53217 0.0
H288 H 0.82513 0.97708 1.00874 0.0
H289 H 0.84349 0.05757 0.14964 0.0
H290 H 0.89807 0.06015 0.09021 0.0
H291 H 0.93975 0.041 0.98927 0.0
H292 H 0.91865 0.96263 0.83952 0.0
H293 H 0.86589 0.95831 0.90865 0.0
C294 C 0.84109 0.99527 0.02598 0.0
C295 C 0.83029 0.01725 0.08279 0.0
C296 C 0.87186 0.99725 0.98857 0.0
C297 C 0.85136 0.04026 0.10665 0.0
C298 C 0.88243 0.04189 0.07179 0.0
C299 C 0.92359 0.02301 0.97176 0.0
C300 C 0.93329 1.00228 0.9086 0.0
C301 C 0.89284 0.0208 0.01121 0.0
C302 C 0.91193 0.97909 0.88699 0.0
C303 C 0.8817 0.97647 0.92693 0.0
H304 H 0.55163 0.79731 0.01726 0.0
H305 H 0.4661 0.80048 0.18142 0.0
H306 H 0.4622 0.85848 0.1164 0.0
H307 H 0.4822 0.90827 1.00613 0.0
H308 H 0.56454 0.90258 0.82797 0.0
H309 H 0.57005 0.84573 0.90224 0.0
C310 C 0.53193 0.8106 0.0379 0.0
C311 C 0.50922 0.79444 0.10434 0.0
C312 C 0.52909 0.84359 0.9965 0.0
C313 C 0.48421 0.81231 0.13191 0.0
C314 C 0.4818 0.84545 0.09377 0.0
C315 C 0.50131 0.89453 0.98364 0.0
C316 C 0.52291 0.90979 0.91132 0.0
C317 C 0.50396 0.86137 0.02515 0.0
C318 C 0.54743 0.89152 0.8827 0.0
C319 C 0.55071 0.85897 0.92553 0.0
H320 H 0.75481 0.46527 0.15212 0.0
H321 H 0.73601 0.55497 0.24232 0.0
H322 H 0.686 0.55928 0.15196 0.0
H323 H 0.65075 0.54034 0.02972 0.0
H324 H 0.674 0.45391 0.92564 0.0
H325 H 0.71926 0.44549 0.03688 0.0
C326 C 0.73954 0.48558 0.15248 0.0
C327 C 0.74906 0.50986 0.20303 0.0
C328 C 0.71188 0.48864 0.09623 0.0
C329 C 0.729 0.53588 0.20452 0.0
C330 C 0.70063 0.53849 0.15186 0.0
C331 C 0.6656 0.51952 0.03299 0.0
C332 C 0.6593 0.49774 0.9699 0.0
C333 C 0.69227 0.51549 0.09489 0.0
C334 C 0.6787 0.47096 0.97336 0.0
C335 C 0.70447 0.46617 0.03692 0.0
H336 H 1.00201 0.73489 0.09549 0.0
H337 H 0.06418 0.67091 0.28362 0.0
H338 H 0.05679 0.63012 0.17998 0.0
H339 H 0.03668 0.61555 0.02646 0.0
H340 H 0.97513 0.68068 0.83633 0.0
H341 H 0.9786 0.71854 0.94885 0.0
C342 C 0.01326 0.71164 0.11444 0.0
C343 C 0.03338 0.70548 0.19667 0.0
C344 C 0.00955 0.689 0.05299 0.0
C345 C 0.04834 0.67569 0.22099 0.0
C346 C 0.04433 0.65268 0.16124 0.0
C347 C 0.02355 0.63772 0.01022 0.0
C348 C 1.00586 0.64525 0.92204 0.0
C349 C 0.0256 0.65943 0.07555 0.0
C350 C 0.98941 0.67443 0.90224 0.0
C351 C 0.99117 0.69604 0.96704 0.0
H352 H 0.04525 0.17826 0.38474 0.0
H353 H 0.9467 0.1948 0.41464 0.0
H354 H 0.93941 0.13913 0.50538 0.0
H355 H 0.96318 0.08802 0.59243 0.0
H356 H 0.06198 0.07279 0.55747 0.0
H357 H 0.06718 0.12538 0.44772 0.0
C358 C 0.022 0.1692 0.40755 0.0
C359 C 0.99647 0.19013 0.39291 0.0
C360 C 0.0182 0.13753 0.45833 0.0
C361 C 0.96657 0.17877 0.42576 0.0
C362 C 0.96249 0.14711 0.47736 0.0
C363 C 0.98551 0.09605 0.55806 0.0
C364 C 0.01219 0.07703 0.5816 0.0
C365 C 0.98836 0.12655 0.49647 0.0
C366 C 0.04124 0.08735 0.53889 0.0
C367 C 0.04423 0.11736 0.47702 0.0
H368 H 0.35405 0.03666 0.42324 0.0
H369 H 0.30825 0.97724 0.67416 0.0
H370 H 0.3581 0.96881 0.76166 0.0
H371 H 0.41482 0.97785 0.76619 0.0
H372 H 0.46229 0.02997 0.50631 0.0
H373 H 0.41197 0.04017 0.41995 0.0
C374 C 0.35512 0.02155 0.49641 0.0
C375 C 0.32742 0.00812 0.543 0.0
C376 C 0.38423 0.01491 0.5435 0.0
C377 C 0.32909 0.98877 0.63831 0.0
C378 C 0.35764 0.98349 0.68766 0.0
C379 C 0.4141 0.99112 0.69024 0.0
C380 C 0.44196 1.00326 0.64253 0.0
C381 C 0.38534 0.99637 0.6409 0.0
C382 C 0.44099 0.0202 0.54397 0.0
C383 C 0.41227 0.02632 0.4951 0.0
H384 H 0.48377 0.35626 0.47162 0.0
H385 H 0.57631 0.32363 0.56318 0.0
H386 H 0.58579 0.37243 0.63079 0.0
H387 H 0.56556 0.42241 0.67579 0.0
H388 H 0.47277 0.45454 0.5796 0.0
H389 H 0.46595 0.40864 0.49923 0.0
C390 C 0.5062 0.36028 0.50454 0.0
C391 C 0.52919 0.33646 0.5137 0.0
C392 C 0.51143 0.38834 0.54233 0.0
C393 C 0.55813 0.34157 0.55719 0.0
C394 C 0.56356 0.36947 0.5953 0.0
C395 C 0.54414 0.41964 0.63562 0.0
C396 C 0.5196 0.44167 0.63495 0.0
C397 C 0.54008 0.39277 0.5902 0.0
C398 C 0.49193 0.43774 0.58249 0.0
C399 C 0.48791 0.41144 0.53651 0.0
H400 H 0.15675 0.49628 0.35557 0.0
H401 H 0.18562 0.59237 0.37555 0.0
H402 H 0.13654 0.59986 0.46155 0.0
H403 H 0.08955 0.57486 0.55436 0.0
H404 H 0.06092 0.47937 0.52228 0.0
H405 H 0.10494 0.47652 0.41238 0.0
C406 C 0.1517 0.51939 0.37435 0.0
C407 C 0.17478 0.54358 0.36055 0.0
C408 C 0.12349 0.52355 0.42189 0.0
C409 C 0.16826 0.57321 0.38748 0.0
C410 C 0.14025 0.57747 0.43636 0.0
C411 C 0.09244 0.55395 0.52056 0.0
C412 C 0.07259 0.52704 0.54846 0.0
C413 C 0.11823 0.55222 0.45773 0.0
C414 C 0.07638 0.50013 0.50367 0.0
C415 C 0.10159 0.49838 0.441 0.0
H416 H 0.0066 0.8215 0.20847 0.0
H417 H 0.10723 0.8173 0.20537 0.0
H418 H 0.11004 0.87357 0.11569 0.0
H419 H 0.08272 0.92197 0.02389 0.0
H420 H 0.98175 0.92445 0.02865 0.0
H421 H 0.97986 0.87115 0.13566 0.0
C422 C 0.02908 0.83335 0.19045 0.0
C423 C 0.05666 0.8158 0.21278 0.0
C424 C 0.03029 0.86528 0.13986 0.0
C425 C 0.08581 0.83072 0.18779 0.0
C426 C 0.08733 0.86272 0.13695 0.0
C427 C 0.0605 0.911 0.05102 0.0
C428 C 0.03239 0.92672 0.02 0.0
C429 C 0.05963 0.88001 0.1106 0.0
C430 C 1.00355 0.9125 0.05307 0.0
C431 C 1.00248 0.88208 0.1134 0.0
H432 H 0.69204 0.04554 0.11574 0.0
H433 H 0.73043 0.96888 0.98892 0.0
H434 H 0.68011 0.96138 0.9111 0.0
H435 H 0.62567 0.97749 0.87608 0.0
H436 H 0.58507 0.05032 0.01577 0.0
H437 H 0.63549 0.05792 0.09445 0.0
C438 C 0.68912 0.02694 0.07223 0.0
C439 C 0.71493 0.00817 0.05621 0.0
C440 C 0.65978 0.02204 0.03065 0.0
C441 C 0.71102 0.98414 0.99968 0.0
C442 C 0.68225 0.97969 0.95599 0.0
C443 C 0.62787 0.99497 0.92396 0.0
C444 C 0.60196 0.01363 0.93926 0.0
C445 C 0.65659 0.99872 0.97011 0.0
C446 C 0.60484 0.03576 1.00287 0.0
C447 C 0.63363 0.04018 0.04747 0.0
H448 H 0.47623 0.65835 0.15134 0.0
H449 H 0.56956 0.69013 0.05981 0.0
H450 H 0.57786 0.6412 0.9927 0.0
H451 H 0.55704 0.59128 0.95039 0.0
H452 H 0.4623 0.56092 0.0338 0.0
H453 H 0.45605 0.60698 0.11494 0.0
C454 C 0.49841 0.65414 0.11767 0.0
C455 C 0.52231 0.67747 0.1099 0.0
C456 C 0.50265 0.62631 0.07778 0.0
C457 C 0.55095 0.6723 0.06567 0.0
C458 C 0.55563 0.64442 0.02757 0.0
C459 C 0.53518 0.59448 0.98753 0.0
C460 C 0.51017 0.57271 0.98588 0.0
C461 C 0.53145 0.62149 0.03178 0.0
C462 C 0.48189 0.57739 0.03362 0.0
C463 C 0.47826 0.60376 0.07992 0.0
H464 H 0.86349 0.45912 0.19389 0.0
H465 H 0.87314 0.55752 0.22775 0.0
H466 H 0.92533 0.56097 0.15098 0.0
H467 H 0.96446 0.53794 0.05492 0.0
H468 H 0.9547 0.43935 0.01885 0.0
H469 H 0.90668 0.43348 0.11818 0.0
C470 C 0.87748 0.48099 0.18553 0.0
C471 C 0.86488 0.50818 0.21456 0.0
C472 C 0.9072 0.48267 0.14105 0.0
C473 C 0.88278 0.53649 0.20512 0.0
C474 C 0.9124 0.53841 0.16117 0.0
C475 C 0.95217 0.51496 0.07057 0.0
C476 C 0.96276 0.48928 0.02839 0.0
C477 C 0.92437 0.51196 0.12602 0.0
C478 C 0.94694 0.4595 0.05034 0.0
C479 C 0.91933 0.45622 0.10634 0.0
H480 H 0.9819 0.20155 0.17821 0.0
H481 H 0.07883 0.2247 0.21918 0.0
H482 H 0.09516 0.18282 0.13011 0.0
H483 H 0.0817 0.13557 0.05745 0.0
H484 H 0.98445 0.11051 0.02597 0.0
H485 H 0.96836 0.1569 0.09426 0.0
C486 C 0.00656 0.19785 0.16506 0.0
C487 C 0.02911 0.2164 0.20396 0.0
C488 C 0.01568 0.17288 0.11738 0.0
C489 C 0.06103 0.21135 0.18769 0.0
C490 C 0.07034 0.18697 0.13836 0.0
C491 C 0.057 0.14027 0.06535 0.0
C492 C 0.03436 0.11929 0.03722 0.0
C493 C 0.04787 0.16692 0.1057 0.0
C494 C 1.00241 0.12623 0.04624 0.0
C495 C 0.99317 0.15273 0.08579 0.0
H496 H 0.30851 0.04126 0.22947 0.0
H497 H 0.32919 0.953 0.43159 0.0
H498 H 0.37814 0.94788 0.34261 0.0
H499 H 0.41773 0.97181 0.2187 0.0
H500 H 0.39722 0.05943 0.0127 0.0
H501 H 0.34553 0.06165 0.09031 0.0
C502 C 0.32333 0.02043 0.25142 0.0
C503 C 0.31542 0.99747 0.33675 0.0
C504 C 0.3517 0.01797 0.2003 0.0
C505 C 0.33485 0.97072 0.36574 0.0
C506 C 0.36295 0.96805 0.31554 0.0
C507 C 0.4018 0.99124 0.19043 0.0
C508 C 0.41143 0.01573 0.11103 0.0
C509 C 0.37211 0.99207 0.23478 0.0
C510 C 0.39034 0.04041 0.07378 0.0
C511 C 0.36085 0.04168 0.1184 0.0
H512 H 0.55331 0.34712 0.31752 0.0
H513 H 0.45771 0.31747 0.28714 0.0
H514 H 0.44986 0.36344 0.14991 0.0
H515 H 0.47052 0.4132 0.03901 0.0
H516 H 0.56633 0.44235 0.07815 0.0
H517 H 0.57337 0.39636 0.21162 0.0
C518 C 0.53076 0.3508 0.28077 0.0
C519 C 0.50624 0.3288 0.31187 0.0
C520 C 0.52632 0.3776 0.20371 0.0
C521 C 0.47715 0.33373 0.2633 0.0
C522 C 0.47259 0.36023 0.1855 0.0
C523 C 0.49283 0.40956 0.07717 0.0
C524 C 0.5178 0.43146 0.04746 0.0
C525 C 0.49701 0.38254 0.15509 0.0
C526 C 0.54661 0.42608 0.09816 0.0
C527 C 0.5508 0.39963 0.17494 0.0
H528 H 0.17803 0.56243 0.14405 0.0
H529 H 0.19841 0.46138 0.21815 0.0
H530 H 0.15651 0.44989 0.10713 0.0
H531 H 0.11131 0.46872 0.99646 0.0
H532 H 0.0908 0.5704 0.93072 0.0
H533 H 0.13483 0.58131 0.03102 0.0
C534 C 0.17347 0.53798 0.13459 0.0
C535 C 0.19149 0.5129 0.18799 0.0
C536 C 0.14886 0.53157 0.07301 0.0
C537 C 0.18536 0.4812 0.1759 0.0
C538 C 0.16109 0.47462 0.11344 0.0
C539 C 0.11663 0.49324 1.00364 0.0
C540 C 0.09746 0.51857 0.95586 0.0
C541 C 0.14228 0.49959 0.06263 0.0
C542 C 0.10484 0.55025 0.96641 0.0
C543 C 0.13017 0.55666 0.0239 0.0
H544 H 0.07188 0.80645 0.42988 0.0
H545 H 0.97688 0.77756 0.38527 0.0
H546 H 0.95725 0.81908 0.47094 0.0
H547 H 0.96735 0.86725 0.54339 0.0
H548 H 0.06288 0.89772 0.57779 0.0
H549 H 0.08209 0.85221 0.51149 0.0
C550 C 0.04693 0.80885 0.44152 0.0
C551 C 0.02588 0.78875 0.40302 0.0
C552 C 0.03594 0.83351 0.48725 0.0
C553 C 0.99354 0.79216 0.4168 0.0
C554 C 0.98235 0.81628 0.46418 0.0
C555 C 0.99235 0.86392 0.53648 0.0
C556 C 0.01357 0.8861 0.56536 0.0
C557 C 1.00333 0.83771 0.49718 0.0
C558 C 0.04595 0.88101 0.55728 0.0
C559 C 0.05701 0.85501 0.51885 0.0
H560 H 0.71274 0.96388 0.25 0.0
H561 H 0.73845 0.0572 0.30434 0.0
H562 H 0.69328 0.05602 0.41663 0.0
H563 H 0.64334 0.03 0.48696 0.0
H564 H 0.61879 0.93633 0.42909 0.0
H565 H 0.66606 0.93611 0.33065 0.0
C566 C 0.70862 0.98363 0.28802 0.0
C567 C 0.72868 0.01057 0.26933 0.0
C568 C 0.6824 0.98292 0.35057 0.0
C569 C 0.72332 0.03614 0.3186 0.0
C570 C 0.69736 0.03554 0.38191 0.0
C571 C 0.64862 0.00939 0.45402 0.0
C572 C 0.627 0.98352 0.46411 0.0
C573 C 0.67624 0.00932 0.39682 0.0
C574 C 0.63437 0.95699 0.42066 0.0
C575 C 0.66161 0.95669 0.36467 0.0
H576 H 0.5541 0.66643 0.30165 0.0
H577 H 0.46012 0.69499 0.35473 0.0
H578 H 0.45425 0.64842 0.49168 0.0
H579 H 0.47605 0.599 0.5956 0.0
H580 H 0.57099 0.57184 0.54343 0.0
H581 H 0.57619 0.61789 0.40678 0.0
C582 C 0.53241 0.66235 0.34359 0.0
C583 C 0.50758 0.68401 0.31875 0.0
C584 C 0.52934 0.63559 0.42199 0.0
C585 C 0.4796 0.67873 0.3736 0.0
C586 C 0.47623 0.65202 0.45129 0.0
C587 C 0.49782 0.60311 0.55406 0.0
C588 C 0.52305 0.5818 0.57995 0.0
C589 C 0.50092 0.63015 0.47607 0.0
C590 C 0.55119 0.58776 0.52562 0.0
C591 C 0.55423 0.61415 0.44727 0.0
H592 H 0.86254 0.46797 0.42015 0.0
H593 H 0.83122 0.56382 0.42412 0.0
H594 H 0.87391 0.57103 0.53872 0.0
H595 H 0.92285 0.55092 0.62741 0.0
H596 H 0.95321 0.45437 0.61997 0.0
H597 H 0.90863 0.44662 0.51681 0.0
C598 C 0.86485 0.49013 0.44809 0.0
C599 C 0.84389 0.51525 0.415 0.0
C600 C 0.88965 0.49413 0.51182 0.0
C601 C 0.84693 0.54406 0.45032 0.0
C602 C 0.87153 0.54824 0.51466 0.0
C603 C 0.9196 0.52818 0.60349 0.0
C604 C 0.94164 0.5034 0.631 0.0
C605 C 0.8935 0.52365 0.54424 0.0
C606 C 0.93684 0.47395 0.59995 0.0
C607 C 0.91125 0.46941 0.54087 0.0
loop_
_geom_bond_atom_site_label_1
_geom_bond_atom_site_label_2
_geom_bond_distance
_geom_bond_site_symmetry_2
_ccdc_geom_bond_type
C0 N1 1.317 . S
C0 N2 1.348 . S
C0 C3 1.485 . S
N1 C0 1.317 . S
N1 N5 1.370 . S
N2 C0 1.348 . S
N2 C4 1.346 . S
C3 C0 1.485 . S
C3 H7 0.960 . S
C3 H8 0.961 . S
C3 H9 0.960 . S
C4 N2 1.346 . S
C4 N5 1.307 . S
C4 C6 1.486 1_554 S
N5 N1 1.370 . S
N5 C4 1.307 . S
C6 C4 1.486 1_556 S
C6 H10 0.960 . S
C6 H11 0.960 . S
C6 H12 0.959 . S
H7 C3 0.960 . S
H8 C3 0.961 . S
H9 C3 0.960 . S
H10 C6 0.960 . S
H11 C6 0.960 . S
H12 C6 0.959 . S
C13 N14 1.317 . S
C13 N15 1.348 . S
C13 C16 1.485 . S
N14 C13 1.317 . S
N14 N18 1.370 . S
N15 C13 1.348 . S
N15 C17 1.346 . S
C16 C13 1.485 . S
C16 H20 0.960 . S
C16 H21 0.961 . S
C16 H22 0.960 . S
C17 N15 1.346 . S
C17 N18 1.307 . S
C17 C19 1.486 1_554 S
N18 N14 1.370 . S
N18 C17 1.307 . S
C19 C17 1.486 1_556 S
C19 H23 0.960 . S
C19 H24 0.960 . S
C19 H25 0.959 . S
H20 C16 0.960 . S
H21 C16 0.961 . S
H22 C16 0.960 . S
H23 C19 0.960 . S
H24 C19 0.960 . S
H25 C19 0.959 . S
C26 N27 1.317 . S
C26 N28 1.348 . S
C26 C29 1.485 . S
N27 C26 1.317 . S
N27 N31 1.369 . S
N28 C26 1.348 . S
N28 C30 1.346 1_564 S
C29 C26 1.485 . S
C29 H33 0.960 1_565 S
C29 H34 0.961 . S
C29 H35 0.960 . S
C30 N28 1.346 1_546 S
C30 N31 1.308 1_546 S
C30 C32 1.486 . S
N31 N27 1.369 . S
N31 C30 1.308 1_564 S
C32 C30 1.486 . S
C32 H36 0.960 1_545 S
C32 H37 0.960 . S
C32 H38 0.959 . S
H33 C29 0.960 1_545 S
H34 C29 0.961 . S
H35 C29 0.960 . S
H36 C32 0.960 1_565 S
H37 C32 0.960 . S
H38 C32 0.959 . S
C39 N40 1.317 . S
C39 N41 1.348 . S
C39 C42 1.485 . S
N40 C39 1.317 . S
N40 N44 1.370 . S
N41 C39 1.348 . S
N41 C43 1.346 . S
C42 C39 1.485 . S
C42 H46 0.960 . S
C42 H47 0.961 . S
C42 H48 0.960 . S
C43 N41 1.346 . S
C43 N44 1.307 . S
C43 C45 1.486 1_554 S
N44 N40 1.370 . S
N44 C43 1.307 . S
C45 C43 1.486 1_556 S
C45 H49 0.960 . S
C45 H50 0.960 . S
C45 H51 0.959 . S
H46 C42 0.960 . S
H47 C42 0.961 . S
H48 C42 0.960 . S
H49 C45 0.960 . S
H50 C45 0.960 . S
H51 C45 0.959 . S
C52 N53 1.317 . S
C52 N54 1.348 . S
C52 C55 1.485 . S
N53 C52 1.317 . S
N53 N57 1.370 . S
N54 C52 1.348 . S
N54 C56 1.346 . S
C55 C52 1.485 . S
C55 H59 0.960 . S
C55 H60 0.961 . S
C55 H61 0.960 . S
C56 N54 1.346 . S
C56 N57 1.307 . S
C56 C58 1.486 . S
N57 N53 1.370 . S
N57 C56 1.307 . S
C58 C56 1.486 . S
C58 H62 0.960 . S
C58 H63 0.960 . S
C58 H64 0.959 . S
H59 C55 0.960 . S
H60 C55 0.961 . S
H61 C55 0.960 . S
H62 C58 0.960 . S
H63 C58 0.960 . S
H64 C58 0.959 . S
C65 N66 1.317 . S
C65 N67 1.348 . S
C65 C68 1.485 . S
N66 C65 1.317 . S
N66 N70 1.370 . S
N67 C65 1.348 . S
N67 C69 1.346 . S
C68 C65 1.485 . S
C68 H72 0.960 . S
C68 H73 0.961 . S
C68 H74 0.960 . S
C69 N67 1.346 . S
C69 N70 1.307 . S
C69 C71 1.486 . S
N70 N66 1.370 . S
N70 C69 1.307 . S
C71 C69 1.486 . S
C71 H75 0.960 . S
C71 H76 0.960 . S
C71 H77 0.959 . S
H72 C68 0.960 . S
H73 C68 0.961 . S
H74 C68 0.960 . S
H75 C71 0.960 . S
H76 C71 0.960 . S
H77 C71 0.959 . S
C78 N79 1.319 . S
C78 N80 1.349 . S
C78 C81 1.485 . S
N79 C78 1.319 . S
N79 N83 1.360 1_565 S
N80 C78 1.349 . S
N80 C82 1.346 1_565 S
C81 C78 1.485 . S
C81 H85 0.960 1_565 S
C81 H86 0.961 . S
C81 H87 0.960 . S
C82 N80 1.346 1_545 S
C82 N83 1.309 . S
C82 C84 1.486 . S
N83 N79 1.360 1_545 S
N83 C82 1.309 . S
C84 C82 1.486 . S
C84 H88 0.960 1_545 S
C84 H89 0.960 . S
C84 H90 0.959 . S
H85 C81 0.960 1_545 S
H86 C81 0.961 . S
H87 C81 0.960 . S
H88 C84 0.960 1_565 S
H89 C84 0.960 . S
H90 C84 0.959 . S
C91 N92 1.317 . S
C91 N93 1.348 . S
C91 C94 1.485 . S
N92 C91 1.317 . S
N92 N96 1.370 . S
N93 C91 1.348 . S
N93 C95 1.346 . S
C94 C91 1.485 . S
C94 H98 0.960 . S
C94 H99 0.961 . S
C94 H100 0.960 . S
C95 N93 1.346 . S
C95 N96 1.307 . S
C95 C97 1.486 . S
N96 N92 1.370 . S
N96 C95 1.307 . S
C97 C95 1.486 . S
C97 H101 0.960 . S
C97 H102 0.960 . S
C97 H103 0.959 . S
H98 C94 0.960 . S
H99 C94 0.961 . S
H100 C94 0.960 . S
H101 C97 0.960 . S
H102 C97 0.960 . S
H103 C97 0.959 . S
Co104 N109 2.057 . S
Co104 O121 2.021 . S
Co104 O124 2.062 . S
Co104 O128 2.117 1_455 S
Co104 O129 2.020 1_545 S
C105 O125 1.259 1_545 S
C105 O128 1.258 . S
Co106 N115 2.057 . S
Co106 O122 2.117 . S
Co106 O123 2.020 1_565 S
Co106 O125 2.021 1_455 S
Co106 O130 2.062 . S
C107 N109 1.316 1_554 S
C107 N110 1.347 . S
C107 H112 0.931 . S
C108 N109 1.375 1_654 S
C108 C111 1.350 1_655 S
C108 H113 0.930 . S
N109 Co104 2.057 . S
N109 C107 1.316 1_556 S
N109 C108 1.375 1_456 S
N110 C107 1.347 . S
N110 C111 1.373 . S
C111 C108 1.350 1_455 S
C111 N110 1.373 . S
C111 H132 0.931 1_455 S
H112 C107 0.931 . S
H113 C108 0.930 . S
C114 O121 1.259 1_565 S
C114 O122 1.258 . S
N115 Co106 2.057 . S
N115 C116 1.316 1_455 S
N115 C117 1.375 . S
C116 N115 1.316 1_655 S
C116 N118 1.347 . S
C116 H127 0.931 . S
C117 N115 1.375 . S
C117 C119 1.350 . S
C117 H126 0.930 . S
N118 C116 1.347 . S
N118 C119 1.373 1_655 S
C119 C117 1.350 . S
C119 N118 1.373 1_455 S
C119 H133 0.931 . S
C120 O123 1.256 . S
C120 O124 1.255 . S
O121 Co104 2.021 . S
O121 C114 1.259 1_545 S
O122 Co106 2.117 . S
O122 C114 1.258 . S
O123 Co106 2.020 1_545 S
O123 C120 1.256 . S
O124 Co104 2.062 . S
O124 C120 1.255 . S
O125 C105 1.259 1_565 S
O125 Co106 2.021 1_655 S
H126 C117 0.930 . S
H127 C116 0.931 . S
O128 Co104 2.117 1_655 S
O128 C105 1.258 . S
O129 Co104 2.020 1_565 S
O129 C131 1.256 . S
O130 Co106 2.062 . S
O130 C131 1.255 . S
C131 O129 1.256 . S
C131 O130 1.255 . S
H132 C111 0.931 1_655 S
H133 C119 0.931 . S
Co134 N139 2.057 1_546 S
Co134 O151 2.021 . S
Co134 O154 2.062 . S
Co134 O158 2.117 1_545 S
Co134 O159 2.020 . S
C135 O155 1.259 . S
C135 O158 1.258 . S
Co136 N145 2.057 1_565 S
Co136 O152 2.117 1_565 S
Co136 O153 2.020 . S
Co136 O155 2.021 . S
Co136 O160 2.062 . S
C137 N139 1.316 1_545 S
C137 N140 1.347 . S
C137 H142 0.931 . S
C138 N139 1.375 . S
C138 C141 1.350 . S
C138 H143 0.930 . S
N139 Co134 2.057 1_564 S
N139 C137 1.316 1_565 S
N139 C138 1.375 . S
N140 C137 1.347 . S
N140 C141 1.373 1_545 S
C141 C138 1.350 . S
C141 N140 1.373 1_565 S
C141 H162 0.931 . S
H142 C137 0.931 . S
H143 C138 0.930 . S
C144 O151 1.259 . S
C144 O152 1.258 . S
N145 Co136 2.057 1_545 S
N145 C146 1.316 1_545 S
N145 C147 1.375 . S
C146 N145 1.316 1_565 S
C146 N148 1.347 . S
C146 H157 0.931 . S
C147 N145 1.375 . S
C147 C149 1.350 . S
C147 H156 0.930 . S
N148 C146 1.347 . S
N148 C149 1.373 1_565 S
C149 C147 1.350 . S
C149 N148 1.373 1_545 S
C149 H163 0.931 . S
C150 O153 1.256 . S
C150 O154 1.255 1_565 S
O151 Co134 2.021 . S
O151 C144 1.259 . S
O152 Co136 2.117 1_545 S
O152 C144 1.258 . S
O153 Co136 2.020 . S
O153 C150 1.256 . S
O154 Co134 2.062 . S
O154 C150 1.255 1_545 S
O155 C135 1.259 . S
O155 Co136 2.021 . S
H156 C147 0.930 . S
H157 C146 0.931 . S
O158 Co134 2.117 1_565 S
O158 C135 1.258 . S
O159 Co134 2.020 . S
O159 C161 1.256 . S
O160 Co136 2.062 . S
O160 C161 1.255 1_565 S
C161 O159 1.256 . S
C161 O160 1.255 1_545 S
H162 C141 0.931 . S
H163 C149 0.931 . S
Co164 N169 2.057 . S
Co164 O181 2.021 . S
Co164 O184 2.062 . S
Co164 O188 2.117 . S
Co164 O189 2.020 . S
C165 O185 1.259 . S
C165 O188 1.258 . S
Co166 N175 2.057 . S
Co166 O182 2.117 . S
Co166 O183 2.020 . S
Co166 O185 2.021 . S
Co166 O190 2.062 . S
C167 N169 1.316 . S
C167 N170 1.347 . S
C167 H172 0.931 . S
C168 N169 1.375 . S
C168 C171 1.350 . S
C168 H173 0.930 . S
N169 Co164 2.057 . S
N169 C167 1.316 . S
N169 C168 1.375 . S
N170 C167 1.347 . S
N170 C171 1.373 . S
C171 C168 1.350 . S
C171 N170 1.373 . S
C171 H192 0.931 1_556 S
H172 C167 0.931 . S
H173 C168 0.930 . S
C174 O181 1.259 . S
C174 O182 1.258 . S
N175 Co166 2.057 . S
N175 C176 1.316 . S
N175 C177 1.375 . S
C176 N175 1.316 . S
C176 N178 1.347 . S
C176 H187 0.931 . S
C177 N175 1.375 . S
C177 C179 1.350 . S
C177 H186 0.930 . S
N178 C176 1.347 . S
N178 C179 1.373 . S
C179 C177 1.350 . S
C179 N178 1.373 . S
C179 H193 0.931 . S
C180 O183 1.256 . S
C180 O184 1.255 . S
O181 Co164 2.021 . S
O181 C174 1.259 . S
O182 Co166 2.117 . S
O182 C174 1.258 . S
O183 Co166 2.020 . S
O183 C180 1.256 . S
O184 Co164 2.062 . S
O184 C180 1.255 . S
O185 C165 1.259 . S
O185 Co166 2.021 . S
H186 C177 0.930 . S
H187 C176 0.931 . S
O188 Co164 2.117 . S
O188 C165 1.258 . S
O189 Co164 2.020 . S
O189 C191 1.256 . S
O190 Co166 2.062 . S
O190 C191 1.255 . S
C191 O189 1.256 . S
C191 O190 1.255 . S
H192 C171 0.931 1_554 S
H193 C179 0.931 . S
Co194 N199 2.057 . S
Co194 O211 2.021 1_455 S
Co194 O214 2.062 1_455 S
Co194 O218 2.117 . S
Co194 O219 2.020 . S
C195 O215 1.259 . S
C195 O218 1.258 . S
Co196 N205 2.057 . S
Co196 O212 2.117 1_455 S
Co196 O213 2.020 1_455 S
Co196 O215 2.021 . S
Co196 O220 2.062 . S
C197 N199 1.316 1_655 S
C197 N200 1.347 1_655 S
C197 H202 0.931 . S
C198 N199 1.375 . S
C198 C201 1.350 . S
C198 H203 0.930 . S
N199 Co194 2.057 . S
N199 C197 1.316 1_455 S
N199 C198 1.375 . S
N200 C197 1.347 1_455 S
N200 C201 1.373 . S
C201 C198 1.350 . S
C201 N200 1.373 . S
C201 H222 0.931 . S
H202 C197 0.931 . S
H203 C198 0.930 . S
C204 O211 1.259 . S
C204 O212 1.258 . S
N205 Co196 2.057 . S
N205 C206 1.316 . S
N205 C207 1.375 1_455 S
C206 N205 1.316 . S
C206 N208 1.347 . S
C206 H217 0.931 . S
C207 N205 1.375 1_655 S
C207 C209 1.350 . S
C207 H216 0.930 . S
N208 C206 1.347 . S
N208 C209 1.373 1_455 S
C209 C207 1.350 . S
C209 N208 1.373 1_655 S
C209 H223 0.931 . S
C210 O213 1.256 . S
C210 O214 1.255 . S
O211 Co194 2.021 1_655 S
O211 C204 1.259 . S
O212 Co196 2.117 1_655 S
O212 C204 1.258 . S
O213 Co196 2.020 1_655 S
O213 C210 1.256 . S
O214 Co194 2.062 1_655 S
O214 C210 1.255 . S
O215 C195 1.259 . S
O215 Co196 2.021 . S
H216 C207 0.930 . S
H217 C206 0.931 . S
O218 Co194 2.117 . S
O218 C195 1.258 . S
O219 Co194 2.020 . S
O219 C221 1.256 . S
O220 Co196 2.062 . S
O220 C221 1.255 . S
C221 O219 1.256 . S
C221 O220 1.255 . S
H222 C201 0.931 . S
H223 C209 0.931 . S
H224 C230 0.930 . S
H225 C233 0.930 . S
H226 C234 0.930 . S
H227 C235 0.930 . S
H228 C238 0.930 . S
H229 C239 0.930 . S
C230 H224 0.930 . S
C230 C231 1.356 . S
C230 C232 1.415 . S
C231 C230 1.356 . S
C231 C233 1.417 1_565 S
C232 C230 1.415 . S
C232 C237 1.425 1_565 S
C232 C239 1.409 . S
C233 H225 0.930 . S
C233 C231 1.417 1_545 S
C233 C234 1.362 . S
C234 H226 0.930 . S
C234 C233 1.362 . S
C234 C237 1.409 . S
C235 H227 0.930 . S
C235 C236 1.355 1_545 S
C235 C237 1.415 . S
C236 C235 1.355 1_565 S
C236 C238 1.419 . S
C237 C232 1.425 1_545 S
C237 C234 1.409 . S
C237 C235 1.415 . S
C238 H228 0.930 . S
C238 C236 1.419 . S
C238 C239 1.362 . S
C239 H229 0.930 . S
C239 C232 1.409 . S
C239 C238 1.362 . S
H240 C246 0.930 . S
H241 C249 0.930 . S
H242 C250 0.930 . S
H243 C251 0.930 . S
H244 C254 0.930 . S
H245 C255 0.930 . S
C246 H240 0.930 . S
C246 C247 1.355 . S
C246 C248 1.415 . S
C247 C246 1.355 . S
C247 C249 1.419 . S
C248 C246 1.415 . S
C248 C253 1.425 . S
C248 C255 1.409 . S
C249 H241 0.930 . S
C249 C247 1.419 . S
C249 C250 1.362 . S
C250 H242 0.930 . S
C250 C249 1.362 . S
C250 C253 1.409 . S
C251 H243 0.930 . S
C251 C252 1.355 . S
C251 C253 1.415 . S
C252 C251 1.355 . S
C252 C254 1.419 . S
C253 C248 1.425 . S
C253 C250 1.409 . S
C253 C251 1.415 . S
C254 H244 0.930 . S
C254 C252 1.419 . S
C254 C255 1.362 . S
C255 H245 0.930 . S
C255 C248 1.409 . S
C255 C254 1.362 . S
H256 C262 0.930 . S
H257 C265 0.930 . S
H258 C266 0.930 . S
H259 C267 0.930 . S
H260 C270 0.930 . S
H261 C271 0.930 . S
C262 H256 0.930 . S
C262 C263 1.355 . S
C262 C264 1.415 . S
C263 C262 1.355 . S
C263 C265 1.419 . S
C264 C262 1.415 . S
C264 C269 1.425 . S
C264 C271 1.409 . S
C265 H257 0.930 . S
C265 C263 1.419 . S
C265 C266 1.362 . S
C266 H258 0.930 . S
C266 C265 1.362 . S
C266 C269 1.409 . S
C267 H259 0.930 . S
C267 C268 1.355 . S
C267 C269 1.415 . S
C268 C267 1.355 . S
C268 C270 1.419 . S
C269 C264 1.425 . S
C269 C266 1.409 . S
C269 C267 1.415 . S
C270 H260 0.930 . S
C270 C268 1.419 . S
C270 C271 1.362 . S
C271 H261 0.930 . S
C271 C264 1.409 . S
C271 C270 1.362 . S
H272 C278 0.930 . S
H273 C281 0.930 . S
H274 C282 0.930 . S
H275 C283 0.930 . S
H276 C286 0.930 1_655 S
H277 C287 0.930 1_655 S
C278 H272 0.930 . S
C278 C279 1.355 . S
C278 C280 1.415 . S
C279 C278 1.355 . S
C279 C281 1.419 . S
C280 C278 1.415 . S
C280 C285 1.425 . S
C280 C287 1.409 . S
C281 H273 0.930 . S
C281 C279 1.419 . S
C281 C282 1.362 . S
C282 H274 0.930 . S
C282 C281 1.362 . S
C282 C285 1.409 . S
C283 H275 0.930 . S
C283 C284 1.355 . S
C283 C285 1.415 . S
C284 C283 1.355 . S
C284 C286 1.419 . S
C285 C280 1.425 . S
C285 C282 1.409 . S
C285 C283 1.415 . S
C286 H276 0.930 1_455 S
C286 C284 1.419 . S
C286 C287 1.362 . S
C287 H277 0.930 1_455 S
C287 C280 1.409 . S
C287 C286 1.362 . S
H288 C294 0.930 . S
H289 C297 0.930 1_554 S
H290 C298 0.930 . S
H291 C299 0.930 . S
H292 C302 0.930 . S
H293 C303 0.930 . S
C294 H288 0.930 . S
C294 C295 1.355 1_565 S
C294 C296 1.415 . S
C295 C294 1.355 1_545 S
C295 C297 1.419 . S
C296 C294 1.415 . S
C296 C301 1.425 1_565 S
C296 C303 1.409 . S
C297 H289 0.930 1_556 S
C297 C295 1.419 . S
C297 C298 1.362 . S
C298 H290 0.930 . S
C298 C297 1.362 . S
C298 C301 1.409 . S
C299 H291 0.930 . S
C299 C300 1.355 . S
C299 C301 1.415 . S
C300 C299 1.355 . S
C300 C302 1.419 1_545 S
C301 C296 1.425 1_545 S
C301 C298 1.409 . S
C301 C299 1.415 . S
C302 H292 0.930 . S
C302 C300 1.419 1_565 S
C302 C303 1.362 . S
C303 H293 0.930 . S
C303 C296 1.409 . S
C303 C302 1.362 . S
H304 C310 0.930 . S
H305 C313 0.930 . S
H306 C314 0.930 . S
H307 C315 0.930 . S
H308 C318 0.930 1_554 S
H309 C319 0.930 . S
C310 H304 0.930 . S
C310 C311 1.355 . S
C310 C312 1.415 . S
C311 C310 1.355 . S
C311 C313 1.419 1_554 S
C312 C310 1.415 . S
C312 C317 1.425 1_554 S
C312 C319 1.409 . S
C313 H305 0.930 . S
C313 C311 1.419 1_556 S
C313 C314 1.362 . S
C314 H306 0.930 . S
C314 C313 1.362 . S
C314 C317 1.409 . S
C315 H307 0.930 . S
C315 C316 1.355 . S
C315 C317 1.415 . S
C316 C315 1.355 . S
C316 C318 1.419 . S
C317 C312 1.425 1_556 S
C317 C314 1.409 . S
C317 C315 1.415 . S
C318 H308 0.930 1_556 S
C318 C316 1.419 . S
C318 C319 1.362 1_556 S
C319 H309 0.930 . S
C319 C312 1.409 . S
C319 C318 1.362 1_554 S
H320 C326 0.930 . S
H321 C329 0.930 1_556 S
H322 C330 0.930 . S
H323 C331 0.930 . S
H324 C334 0.930 . S
H325 C335 0.930 . S
C326 H320 0.930 . S
C326 C327 1.355 . S
C326 C328 1.415 . S
C327 C326 1.355 . S
C327 C329 1.419 . S
C328 C326 1.415 . S
C328 C333 1.425 1_554 S
C328 C335 1.409 . S
C329 H321 0.930 1_554 S
C329 C327 1.419 . S
C329 C330 1.362 1_554 S
C330 H322 0.930 . S
C330 C329 1.362 1_556 S
C330 C333 1.409 . S
C331 H323 0.930 . S
C331 C332 1.355 . S
C331 C333 1.415 . S
C332 C331 1.355 . S
C332 C334 1.419 1_556 S
C333 C328 1.425 1_556 S
C333 C330 1.409 . S
C333 C331 1.415 . S
C334 H324 0.930 . S
C334 C332 1.419 1_554 S
C334 C335 1.362 . S
C335 H325 0.930 . S
C335 C328 1.409 . S
C335 C334 1.362 . S
H336 C342 0.930 . S
H337 C345 0.930 . S
H338 C346 0.930 1_455 S
H339 C347 0.930 . S
H340 C350 0.930 . S
H341 C351 0.930 . S
C342 H336 0.930 . S
C342 C343 1.355 1_556 S
C342 C344 1.415 . S
C343 C342 1.355 1_554 S
C343 C345 1.419 . S
C344 C342 1.415 . S
C344 C349 1.425 . S
C344 C351 1.409 . S
C345 H337 0.930 . S
C345 C343 1.419 . S
C345 C346 1.362 . S
C346 H338 0.930 1_655 S
C346 C345 1.362 . S
C346 C349 1.409 1_554 S
C347 H339 0.930 . S
C347 C348 1.355 1_455 S
C347 C349 1.415 1_455 S
C348 C347 1.355 1_655 S
C348 C350 1.419 . S
C349 C344 1.425 . S
C349 C346 1.409 1_556 S
C349 C347 1.415 1_655 S
C350 H340 0.930 . S
C350 C348 1.419 . S
C350 C351 1.362 . S
C351 H341 0.930 . S
C351 C344 1.409 . S
C351 C350 1.362 . S
H352 C358 0.930 . S
H353 C361 0.930 . S
H354 C362 0.930 1_655 S
H355 C363 0.930 1_655 S
H356 C366 0.930 . S
H357 C367 0.930 . S
C358 H352 0.930 . S
C358 C359 1.355 . S
C358 C360 1.415 . S
C359 C358 1.355 . S
C359 C361 1.419 . S
C360 C358 1.415 . S
C360 C365 1.425 . S
C360 C367 1.409 . S
C361 H353 0.930 . S
C361 C359 1.419 . S
C361 C362 1.362 . S
C362 H354 0.930 1_455 S
C362 C361 1.362 . S
C362 C365 1.409 . S
C363 H355 0.930 1_455 S
C363 C364 1.355 . S
C363 C365 1.415 . S
C364 C363 1.355 . S
C364 C366 1.419 . S
C365 C360 1.425 . S
C365 C362 1.409 . S
C365 C363 1.415 . S
C366 H356 0.930 . S
C366 C364 1.419 . S
C366 C367 1.362 . S
C367 H357 0.930 . S
C367 C360 1.409 . S
C367 C366 1.362 . S
H368 C374 0.930 . S
H369 C377 0.930 . S
H370 C378 0.930 . S
H371 C379 0.930 . S
H372 C382 0.929 . S
H373 C383 0.930 . S
C374 H368 0.930 . S
C374 C375 1.357 1_545 S
C374 C376 1.415 1_545 S
C375 C374 1.357 1_565 S
C375 C377 1.418 . S
C376 C374 1.415 1_565 S
C376 C381 1.425 . S
C376 C383 1.409 1_565 S
C377 H369 0.930 . S
C377 C375 1.418 . S
C377 C378 1.362 . S
C378 H370 0.930 . S
C378 C377 1.362 . S
C378 C381 1.409 . S
C379 H371 0.930 . S
C379 C380 1.355 . S
C379 C381 1.415 . S
C380 C379 1.355 . S
C380 C382 1.421 1_565 S
C381 C376 1.425 . S
C381 C378 1.409 . S
C381 C379 1.415 . S
C382 H372 0.929 . S
C382 C380 1.421 1_545 S
C382 C383 1.362 . S
C383 H373 0.930 . S
C383 C376 1.409 1_545 S
C383 C382 1.362 . S
H384 C390 0.930 . S
H385 C393 0.930 . S
H386 C394 0.930 . S
H387 C395 0.930 . S
H388 C398 0.930 . S
H389 C399 0.930 . S
C390 H384 0.930 . S
C390 C391 1.355 . S
C390 C392 1.415 . S
C391 C390 1.355 . S
C391 C393 1.419 . S
C392 C390 1.415 . S
C392 C397 1.425 . S
C392 C399 1.409 . S
C393 H385 0.930 . S
C393 C391 1.419 . S
C393 C394 1.362 . S
C394 H386 0.930 . S
C394 C393 1.362 . S
C394 C397 1.409 . S
C395 H387 0.930 . S
C395 C396 1.355 . S
C395 C397 1.415 . S
C396 C395 1.355 . S
C396 C398 1.419 . S
C397 C392 1.425 . S
C397 C394 1.409 . S
C397 C395 1.415 . S
C398 H388 0.930 . S
C398 C396 1.419 . S
C398 C399 1.362 . S
C399 H389 0.930 . S
C399 C392 1.409 . S
C399 C398 1.362 . S
H400 C406 0.930 . S
H401 C409 0.930 . S
H402 C410 0.930 . S
H403 C411 0.930 . S
H404 C414 0.930 . S
H405 C415 0.930 . S
C406 H400 0.930 . S
C406 C407 1.355 . S
C406 C408 1.415 . S
C407 C406 1.355 . S
C407 C409 1.419 . S
C408 C406 1.415 . S
C408 C413 1.425 . S
C408 C415 1.409 . S
C409 H401 0.930 . S
C409 C407 1.419 . S
C409 C410 1.362 . S
C410 H402 0.930 . S
C410 C409 1.362 . S
C410 C413 1.409 . S
C411 H403 0.930 . S
C411 C412 1.355 . S
C411 C413 1.415 . S
C412 C411 1.355 . S
C412 C414 1.419 . S
C413 C408 1.425 . S
C413 C410 1.409 . S
C413 C411 1.415 . S
C414 H404 0.930 . S
C414 C412 1.419 . S
C414 C415 1.362 . S
C415 H405 0.930 . S
C415 C408 1.409 . S
C415 C414 1.362 . S
H416 C422 0.930 . S
H417 C425 0.930 . S
H418 C426 0.930 1_455 S
H419 C427 0.930 . S
H420 C430 0.930 1_554 S
H421 C431 0.930 . S
C422 H416 0.930 . S
C422 C423 1.355 . S
C422 C424 1.415 . S
C423 C422 1.355 . S
C423 C425 1.419 1_554 S
C424 C422 1.415 . S
C424 C429 1.425 1_554 S
C424 C431 1.409 . S
C425 H417 0.930 . S
C425 C423 1.419 1_556 S
C425 C426 1.362 . S
C426 H418 0.930 1_655 S
C426 C425 1.362 . S
C426 C429 1.409 . S
C427 H419 0.930 . S
C427 C428 1.355 . S
C427 C429 1.415 1_455 S
C428 C427 1.355 . S
C428 C430 1.419 1_455 S
C429 C424 1.425 1_556 S
C429 C426 1.409 . S
C429 C427 1.415 1_655 S
C430 H420 0.930 1_556 S
C430 C428 1.419 1_655 S
C430 C431 1.362 1_556 S
C431 H421 0.930 . S
C431 C424 1.409 . S
C431 C430 1.362 1_554 S
H432 C438 0.930 . S
H433 C441 0.930 . S
H434 C442 0.930 . S
H435 C443 0.930 1_554 S
H436 C446 0.930 . S
H437 C447 0.930 . S
C438 H432 0.930 . S
C438 C439 1.355 . S
C438 C440 1.415 . S
C439 C438 1.355 . S
C439 C441 1.419 1_546 S
C440 C438 1.415 . S
C440 C445 1.425 . S
C440 C447 1.409 . S
C441 H433 0.930 . S
C441 C439 1.419 1_564 S
C441 C442 1.362 . S
C442 H434 0.930 . S
C442 C441 1.362 . S
C442 C445 1.409 1_564 S
C443 H435 0.930 1_556 S
C443 C444 1.355 1_565 S
C443 C445 1.415 1_565 S
C444 C443 1.355 1_545 S
C444 C446 1.419 . S
C445 C440 1.425 . S
C445 C442 1.409 1_546 S
C445 C443 1.415 1_545 S
C446 H436 0.930 . S
C446 C444 1.419 . S
C446 C447 1.362 . S
C447 H437 0.930 . S
C447 C440 1.409 . S
C447 C446 1.362 . S
H448 C454 0.930 . S
H449 C457 0.930 . S
H450 C458 0.930 . S
H451 C459 0.930 . S
H452 C462 0.930 . S
H453 C463 0.930 . S
C454 H448 0.930 . S
C454 C455 1.355 . S
C454 C456 1.415 . S
C455 C454 1.355 . S
C455 C457 1.419 1_554 S
C456 C454 1.415 . S
C456 C461 1.425 1_554 S
C456 C463 1.409 . S
C457 H449 0.930 . S
C457 C455 1.419 1_556 S
C457 C458 1.362 . S
C458 H450 0.930 . S
C458 C457 1.362 . S
C458 C461 1.409 . S
C459 H451 0.930 . S
C459 C460 1.355 . S
C459 C461 1.415 . S
C460 C459 1.355 . S
C460 C462 1.419 1_556 S
C461 C456 1.425 1_556 S
C461 C458 1.409 . S
C461 C459 1.415 . S
C462 H452 0.930 . S
C462 C460 1.419 1_554 S
C462 C463 1.362 . S
C463 H453 0.930 . S
C463 C456 1.409 . S
C463 C462 1.362 . S
H464 C470 0.930 . S
H465 C473 0.930 . S
H466 C474 0.930 . S
H467 C475 0.930 . S
H468 C478 0.930 . S
H469 C479 0.930 . S
C470 H464 0.930 . S
C470 C471 1.355 . S
C470 C472 1.415 . S
C471 C470 1.355 . S
C471 C473 1.419 . S
C472 C470 1.415 . S
C472 C477 1.425 . S
C472 C479 1.409 1_554 S
C473 H465 0.930 . S
C473 C471 1.419 . S
C473 C474 1.362 . S
C474 H466 0.930 . S
C474 C473 1.362 . S
C474 C477 1.409 . S
C475 H467 0.930 . S
C475 C476 1.355 1_554 S
C475 C477 1.415 . S
C476 C475 1.355 1_556 S
C476 C478 1.419 . S
C477 C472 1.425 . S
C477 C474 1.409 . S
C477 C475 1.415 . S
C478 H468 0.930 . S
C478 C476 1.419 . S
C478 C479 1.362 . S
C479 H469 0.930 . S
C479 C472 1.409 1_556 S
C479 C478 1.362 . S
H480 C486 0.930 . S
H481 C489 0.930 . S
H482 C490 0.930 . S
H483 C491 0.930 . S
H484 C494 0.930 . S
H485 C495 0.930 . S
C486 H480 0.930 . S
C486 C487 1.355 . S
C486 C488 1.415 . S
C487 C486 1.355 . S
C487 C489 1.419 . S
C488 C486 1.415 . S
C488 C493 1.425 . S
C488 C495 1.409 . S
C489 H481 0.930 . S
C489 C487 1.419 . S
C489 C490 1.362 . S
C490 H482 0.930 . S
C490 C489 1.362 . S
C490 C493 1.409 . S
C491 H483 0.930 . S
C491 C492 1.355 . S
C491 C493 1.415 . S
C492 C491 1.355 . S
C492 C494 1.419 . S
C493 C488 1.425 . S
C493 C490 1.409 . S
C493 C491 1.415 . S
C494 H484 0.930 . S
C494 C492 1.419 . S
C494 C495 1.362 . S
C495 H485 0.930 . S
C495 C488 1.409 . S
C495 C494 1.362 . S
H496 C502 0.930 . S
H497 C505 0.930 . S
H498 C506 0.930 . S
H499 C507 0.941 . S
H500 C510 0.930 . S
H501 C511 0.930 . S
C502 H496 0.930 . S
C502 C503 1.355 . S
C502 C504 1.415 . S
C503 C502 1.355 . S
C503 C505 1.419 1_545 S
C504 C502 1.415 . S
C504 C509 1.427 . S
C504 C511 1.409 . S
C505 H497 0.930 . S
C505 C503 1.419 1_565 S
C505 C506 1.362 . S
C506 H498 0.930 . S
C506 C505 1.362 . S
C506 C509 1.408 1_565 S
C507 H499 0.941 . S
C507 C508 1.347 1_565 S
C507 C509 1.411 1_565 S
C508 C507 1.347 1_545 S
C508 C510 1.419 . S
C509 C504 1.427 . S
C509 C506 1.408 1_545 S
C509 C507 1.411 1_545 S
C510 H500 0.930 . S
C510 C508 1.419 . S
C510 C511 1.362 . S
C511 H501 0.930 . S
C511 C504 1.409 . S
C511 C510 1.362 . S
H512 C518 0.930 . S
H513 C521 0.930 . S
H514 C522 0.930 . S
H515 C523 0.930 1_556 S
H516 C526 0.930 . S
H517 C527 0.930 . S
C518 H512 0.930 . S
C518 C519 1.355 . S
C518 C520 1.415 . S
C519 C518 1.355 . S
C519 C521 1.419 . S
C520 C518 1.415 . S
C520 C525 1.425 . S
C520 C527 1.409 . S
C521 H513 0.930 . S
C521 C519 1.419 . S
C521 C522 1.362 . S
C522 H514 0.930 . S
C522 C521 1.362 . S
C522 C525 1.409 . S
C523 H515 0.930 1_554 S
C523 C524 1.355 . S
C523 C525 1.415 . S
C524 C523 1.355 . S
C524 C526 1.419 . S
C525 C520 1.425 . S
C525 C522 1.409 . S
C525 C523 1.415 . S
C526 H516 0.930 . S
C526 C524 1.419 . S
C526 C527 1.362 . S
C527 H517 0.930 . S
C527 C520 1.409 . S
C527 C526 1.362 . S
H528 C534 0.930 . S
H529 C537 0.930 . S
H530 C538 0.930 . S
H531 C539 0.930 . S
H532 C542 0.930 . S
H533 C543 0.930 . S
C534 H528 0.930 . S
C534 C535 1.355 . S
C534 C536 1.415 . S
C535 C534 1.355 . S
C535 C537 1.419 . S
C536 C534 1.415 . S
C536 C541 1.425 . S
C536 C543 1.409 . S
C537 H529 0.930 . S
C537 C535 1.419 . S
C537 C538 1.362 . S
C538 H530 0.930 . S
C538 C537 1.362 . S
C538 C541 1.409 . S
C539 H531 0.930 . S
C539 C540 1.355 . S
C539 C541 1.415 . S
C540 C539 1.355 . S
C540 C542 1.419 1_554 S
C541 C536 1.425 . S
C541 C538 1.409 . S
C541 C539 1.415 . S
C542 H532 0.930 . S
C542 C540 1.419 1_556 S
C542 C543 1.362 1_556 S
C543 H533 0.930 . S
C543 C536 1.409 . S
C543 C542 1.362 1_554 S
H544 C550 0.930 . S
H545 C553 0.930 . S
H546 C554 0.930 . S
H547 C555 0.930 . S
H548 C558 0.930 1_455 S
H549 C559 0.930 1_455 S
C550 H544 0.930 . S
C550 C551 1.355 . S
C550 C552 1.415 . S
C551 C550 1.355 . S
C551 C553 1.419 . S
C552 C550 1.415 . S
C552 C557 1.425 . S
C552 C559 1.409 . S
C553 H545 0.930 . S
C553 C551 1.419 . S
C553 C554 1.362 . S
C554 H546 0.930 . S
C554 C553 1.362 . S
C554 C557 1.409 . S
C555 H547 0.930 . S
C555 C556 1.355 . S
C555 C557 1.415 . S
C556 C555 1.355 . S
C556 C558 1.419 . S
C557 C552 1.425 . S
C557 C554 1.409 . S
C557 C555 1.415 . S
C558 H548 0.930 1_655 S
C558 C556 1.419 . S
C558 C559 1.362 . S
C559 H549 0.930 1_655 S
C559 C552 1.409 . S
C559 C558 1.362 . S
H560 C566 0.930 . S
H561 C569 0.930 . S
H562 C570 0.930 . S
H563 C571 0.930 . S
H564 C574 0.930 . S
H565 C575 0.930 . S
C566 H560 0.930 . S
C566 C567 1.355 1_565 S
C566 C568 1.415 . S
C567 C566 1.355 1_545 S
C567 C569 1.419 . S
C568 C566 1.415 . S
C568 C573 1.425 1_565 S
C568 C575 1.409 . S
C569 H561 0.930 . S
C569 C567 1.419 . S
C569 C570 1.362 . S
C570 H562 0.930 . S
C570 C569 1.362 . S
C570 C573 1.409 . S
C571 H563 0.930 . S
C571 C572 1.355 1_545 S
C571 C573 1.415 . S
C572 C571 1.355 1_565 S
C572 C574 1.419 . S
C573 C568 1.425 1_545 S
C573 C570 1.409 . S
C573 C571 1.415 . S
C574 H564 0.930 . S
C574 C572 1.419 . S
C574 C575 1.362 . S
C575 H565 0.930 . S
C575 C568 1.409 . S
C575 C574 1.362 . S
H576 C582 0.930 . S
H577 C585 0.930 . S
H578 C586 0.930 . S
H579 C587 0.930 . S
H580 C590 0.930 . S
H581 C591 0.930 . S
C582 H576 0.930 . S
C582 C583 1.355 . S
C582 C584 1.415 . S
C583 C582 1.355 . S
C583 C585 1.419 . S
C584 C582 1.415 . S
C584 C589 1.425 . S
C584 C591 1.409 . S
C585 H577 0.930 . S
C585 C583 1.419 . S
C585 C586 1.362 . S
C586 H578 0.930 . S
C586 C585 1.362 . S
C586 C589 1.409 . S
C587 H579 0.930 . S
C587 C588 1.355 . S
C587 C589 1.415 . S
C588 C587 1.355 . S
C588 C590 1.419 . S
C589 C584 1.425 . S
C589 C586 1.409 . S
C589 C587 1.415 . S
C590 H580 0.930 . S
C590 C588 1.419 . S
C590 C591 1.362 . S
C591 H581 0.930 . S
C591 C584 1.409 . S
C591 C590 1.362 . S
H592 C598 0.930 . S
H593 C601 0.930 . S
H594 C602 0.930 . S
H595 C603 0.930 . S
H596 C606 0.930 . S
H597 C607 0.930 . S
C598 H592 0.930 . S
C598 C599 1.355 . S
C598 C600 1.415 . S
C599 C598 1.355 . S
C599 C601 1.419 . S
C600 C598 1.415 . S
C600 C605 1.425 . S
C600 C607 1.409 . S
C601 H593 0.930 . S
C601 C599 1.419 . S
C601 C602 1.362 . S
C602 H594 0.930 . S
C602 C601 1.362 . S
C602 C605 1.409 . S
C603 H595 0.930 . S
C603 C604 1.355 . S
C603 C605 1.415 . S
C604 C603 1.355 . S
C604 C606 1.419 . S
C605 C600 1.425 . S
C605 C602 1.409 . S
C605 C603 1.415 . S
C606 H596 0.930 . S
C606 C604 1.419 . S
C606 C607 1.362 . S
C607 H597 0.930 . S
C607 C600 1.409 . S
C607 C606 1.362 . S
C231 N80 1.722 . S
C236 C114 1.717 . S
C252 C144 1.795 . S
C247 N93 1.786 . S
C268 N178 1.375 . S
C263 N54 1.433 . S
C284 N208 1.381 . S
C279 N67 1.444 . S
C300 C105 1.709 . S
C295 N28 1.722 1_546 S
C311 N41 1.808 . S
C316 C135 1.816 . S
C327 N2 1.377 . S
C332 N170 1.330 . S
C343 N15 1.440 . S
C348 N200 1.426 1_655 S
C364 C120 0.416 . S
C359 N70 0.422 . S
C380 C150 0.957 . S
C375 N83 0.962 1_565 S
C396 C191 1.153 . S
C391 N96 1.169 . S
C407 N57 0.737 . S
C412 C221 0.698 . S
C423 N18 0.501 . S
C428 C131 0.513 . S
C444 C161 0.912 . S
C439 N31 0.921 1_546 S
C460 C180 1.214 . S
C455 N44 1.209 . S
C471 N5 0.743 . S
C476 C210 0.713 . S
C487 N66 1.467 . S
C492 N110 1.455 . S
C503 N79 1.465 1_545 S
C508 N140 1.415 . S
C524 C165 1.665 1_554 S
C519 N92 1.667 . S
C540 C195 1.598 1_554 S
C535 N53 1.600 . S
C551 N14 1.508 . S
C556 N118 1.449 . S
C572 N148 1.450 . S
C567 N27 1.458 1_545 S
C588 C174 1.653 . S
C583 N40 1.655 . S
C599 N1 1.607 . S
C604 C204 1.606 . S
