# Generated by pormake.
# Topology bpr, (3,3)-cn, num edge types: 1
# Building blocks:
#     Node 0, Type 0, BuildingBlock: OLANEW_clean_sbu_2, # of connection points: 3
#     Node 1, Type 0, BuildingBlock: OLANEW_clean_sbu_2, # of connection points: 3
#     Node 2, Type 0, BuildingBlock: OLANEW_clean_sbu_2, # of connection points: 3
#     Node 3, Type 0, BuildingBlock: OLANEW_clean_sbu_2, # of connection points: 3
#     Node 4, Type 0, BuildingBlock: OLANEW_clean_sbu_2, # of connection points: 3
#     Node 5, Type 0, BuildingBlock: OLANEW_clean_sbu_2, # of connection points: 3
#     Node 6, Type 0, BuildingBlock: OLANEW_clean_sbu_2, # of connection points: 3
#     Node 7, Type 0, BuildingBlock: OLANEW_clean_sbu_2, # of connection points: 3
#     Node 8, Type 0, BuildingBlock: OLANEW_clean_sbu_2, # of connection points: 3
#     Node 9, Type 0, BuildingBlock: OLANEW_clean_sbu_2, # of connection points: 3
#     Node 10, Type 0, BuildingBlock: OLANEW_clean_sbu_2, # of connection points: 3
#     Node 11, Type 0, BuildingBlock: OLANEW_clean_sbu_2, # of connection points: 3
#     Node 12, Type 0, BuildingBlock: OLANEW_clean_sbu_2, # of connection points: 3
#     Node 13, Type 0, BuildingBlock: OLANEW_clean_sbu_2, # of connection points: 3
#     Node 14, Type 0, BuildingBlock: OLANEW_clean_sbu_2, # of connection points: 3
#     Node 15, Type 0, BuildingBlock: OLANEW_clean_sbu_2, # of connection points: 3
#     Node 16, Type 0, BuildingBlock: OLANEW_clean_sbu_2, # of connection points: 3
#     Node 17, Type 0, BuildingBlock: OLANEW_clean_sbu_2, # of connection points: 3
#     Node 18, Type 0, BuildingBlock: OLANEW_clean_sbu_2, # of connection points: 3
#     Node 19, Type 0, BuildingBlock: OLANEW_clean_sbu_2, # of connection points: 3
#     Node 20, Type 0, BuildingBlock: OLANEW_clean_sbu_2, # of connection points: 3
#     Node 21, Type 0, BuildingBlock: OLANEW_clean_sbu_2, # of connection points: 3
#     Node 22, Type 0, BuildingBlock: OLANEW_clean_sbu_2, # of connection points: 3
#     Node 23, Type 0, BuildingBlock: OLANEW_clean_sbu_2, # of connection points: 3
#     Node 24, Type 0, BuildingBlock: OLANEW_clean_sbu_2, # of connection points: 3
#     Node 25, Type 0, BuildingBlock: OLANEW_clean_sbu_2, # of connection points: 3
#     Node 26, Type 0, BuildingBlock: OLANEW_clean_sbu_2, # of connection points: 3
#     Node 27, Type 0, BuildingBlock: OLANEW_clean_sbu_2, # of connection points: 3
#     Node 28, Type 0, BuildingBlock: OLANEW_clean_sbu_2, # of connection points: 3
#     Node 29, Type 0, BuildingBlock: OLANEW_clean_sbu_2, # of connection points: 3
#     Node 30, Type 0, BuildingBlock: OLANEW_clean_sbu_2, # of connection points: 3
#     Node 31, Type 0, BuildingBlock: OLANEW_clean_sbu_2, # of connection points: 3
#     Node 32, Type 0, BuildingBlock: OLANEW_clean_sbu_2, # of connection points: 3
#     Node 33, Type 0, BuildingBlock: OLANEW_clean_sbu_2, # of connection points: 3
#     Node 34, Type 0, BuildingBlock: OLANEW_clean_sbu_2, # of connection points: 3
#     Node 35, Type 0, BuildingBlock: OLANEW_clean_sbu_2, # of connection points: 3
#     Node 36, Type 0, BuildingBlock: OLANEW_clean_sbu_2, # of connection points: 3
#     Node 37, Type 0, BuildingBlock: OLANEW_clean_sbu_2, # of connection points: 3
#     Node 38, Type 0, BuildingBlock: OLANEW_clean_sbu_2, # of connection points: 3
#     Node 39, Type 0, BuildingBlock: OLANEW_clean_sbu_2, # of connection points: 3
#     Node 40, Type 0, BuildingBlock: OLANEW_clean_sbu_2, # of connection points: 3
#     Node 41, Type 0, BuildingBlock: OLANEW_clean_sbu_2, # of connection points: 3
#     Node 42, Type 0, BuildingBlock: OLANEW_clean_sbu_2, # of connection points: 3
#     Node 43, Type 0, BuildingBlock: OLANEW_clean_sbu_2, # of connection points: 3
#     Node 44, Type 0, BuildingBlock: OLANEW_clean_sbu_2, # of connection points: 3
#     Node 45, Type 0, BuildingBlock: OLANEW_clean_sbu_2, # of connection points: 3
#     Node 46, Type 0, BuildingBlock: OLANEW_clean_sbu_2, # of connection points: 3
#     Node 47, Type 0, BuildingBlock: OLANEW_clean_sbu_2, # of connection points: 3
#     Node 48, Type 1, BuildingBlock: PAMTOO_clean_linker_0, # of connection points: 3
#     Node 49, Type 1, BuildingBlock: PAMTOO_clean_linker_0, # of connection points: 3
#     Node 50, Type 1, BuildingBlock: PAMTOO_clean_linker_0, # of connection points: 3
#     Node 51, Type 1, BuildingBlock: PAMTOO_clean_linker_0, # of connection points: 3
#     Node 52, Type 1, BuildingBlock: PAMTOO_clean_linker_0, # of connection points: 3
#     Node 53, Type 1, BuildingBlock: PAMTOO_clean_linker_0, # of connection points: 3
#     Node 54, Type 1, BuildingBlock: PAMTOO_clean_linker_0, # of connection points: 3
#     Node 55, Type 1, BuildingBlock: PAMTOO_clean_linker_0, # of connection points: 3
#     Node 56, Type 1, BuildingBlock: PAMTOO_clean_linker_0, # of connection points: 3
#     Node 57, Type 1, BuildingBlock: PAMTOO_clean_linker_0, # of connection points: 3
#     Node 58, Type 1, BuildingBlock: PAMTOO_clean_linker_0, # of connection points: 3
#     Node 59, Type 1, BuildingBlock: PAMTOO_clean_linker_0, # of connection points: 3
#     Node 60, Type 1, BuildingBlock: PAMTOO_clean_linker_0, # of connection points: 3
#     Node 61, Type 1, BuildingBlock: PAMTOO_clean_linker_0, # of connection points: 3
#     Node 62, Type 1, BuildingBlock: PAMTOO_clean_linker_0, # of connection points: 3
#     Node 63, Type 1, BuildingBlock: PAMTOO_clean_linker_0, # of connection points: 3
#     Node 64, Type 1, BuildingBlock: PAMTOO_clean_linker_0, # of connection points: 3
#     Node 65, Type 1, BuildingBlock: PAMTOO_clean_linker_0, # of connection points: 3
#     Node 66, Type 1, BuildingBlock: PAMTOO_clean_linker_0, # of connection points: 3
#     Node 67, Type 1, BuildingBlock: PAMTOO_clean_linker_0, # of connection points: 3
#     Node 68, Type 1, BuildingBlock: PAMTOO_clean_linker_0, # of connection points: 3
#     Node 69, Type 1, BuildingBlock: PAMTOO_clean_linker_0, # of connection points: 3
#     Node 70, Type 1, BuildingBlock: PAMTOO_clean_linker_0, # of connection points: 3
#     Node 71, Type 1, BuildingBlock: PAMTOO_clean_linker_0, # of connection points: 3
#     Node 72, Type 1, BuildingBlock: PAMTOO_clean_linker_0, # of connection points: 3
#     Node 73, Type 1, BuildingBlock: PAMTOO_clean_linker_0, # of connection points: 3
#     Node 74, Type 1, BuildingBlock: PAMTOO_clean_linker_0, # of connection points: 3
#     Node 75, Type 1, BuildingBlock: PAMTOO_clean_linker_0, # of connection points: 3
#     Node 76, Type 1, BuildingBlock: PAMTOO_clean_linker_0, # of connection points: 3
#     Node 77, Type 1, BuildingBlock: PAMTOO_clean_linker_0, # of connection points: 3
#     Node 78, Type 1, BuildingBlock: PAMTOO_clean_linker_0, # of connection points: 3
#     Node 79, Type 1, BuildingBlock: PAMTOO_clean_linker_0, # of connection points: 3
#     Node 80, Type 1, BuildingBlock: PAMTOO_clean_linker_0, # of connection points: 3
#     Node 81, Type 1, BuildingBlock: PAMTOO_clean_linker_0, # of connection points: 3
#     Node 82, Type 1, BuildingBlock: PAMTOO_clean_linker_0, # of connection points: 3
#     Node 83, Type 1, BuildingBlock: PAMTOO_clean_linker_0, # of connection points: 3
#     Node 84, Type 1, BuildingBlock: PAMTOO_clean_linker_0, # of connection points: 3
#     Node 85, Type 1, BuildingBlock: PAMTOO_clean_linker_0, # of connection points: 3
#     Node 86, Type 1, BuildingBlock: PAMTOO_clean_linker_0, # of connection points: 3
#     Node 87, Type 1, BuildingBlock: PAMTOO_clean_linker_0, # of connection points: 3
#     Node 88, Type 1, BuildingBlock: PAMTOO_clean_linker_0, # of connection points: 3
#     Node 89, Type 1, BuildingBlock: PAMTOO_clean_linker_0, # of connection points: 3
#     Node 90, Type 1, BuildingBlock: PAMTOO_clean_linker_0, # of connection points: 3
#     Node 91, Type 1, BuildingBlock: PAMTOO_clean_linker_0, # of connection points: 3
#     Node 92, Type 1, BuildingBlock: PAMTOO_clean_linker_0, # of connection points: 3
#     Node 93, Type 1, BuildingBlock: PAMTOO_clean_linker_0, # of connection points: 3
#     Node 94, Type 1, BuildingBlock: PAMTOO_clean_linker_0, # of connection points: 3
#     Node 95, Type 1, BuildingBlock: PAMTOO_clean_linker_0, # of connection points: 3
#     Edge 96, Type (0, 1), BuildingBlock: XUDNAN_clean_linker_2, # of connection points: 2
#     Edge 97, Type (0, 1), BuildingBlock: XUDNAN_clean_linker_2, # of connection points: 2
#     Edge 98, Type (0, 1), BuildingBlock: XUDNAN_clean_linker_2, # of connection points: 2
#     Edge 99, Type (0, 1), BuildingBlock: XUDNAN_clean_linker_2, # of connection points: 2
#     Edge 100, Type (0, 1), BuildingBlock: XUDNAN_clean_linker_2, # of connection points: 2
#     Edge 101, Type (0, 1), BuildingBlock: XUDNAN_clean_linker_2, # of connection points: 2
#     Edge 102, Type (0, 1), BuildingBlock: XUDNAN_clean_linker_2, # of connection points: 2
#     Edge 103, Type (0, 1), BuildingBlock: XUDNAN_clean_linker_2, # of connection points: 2
#     Edge 104, Type (0, 1), BuildingBlock: XUDNAN_clean_linker_2, # of connection points: 2
#     Edge 105, Type (0, 1), BuildingBlock: XUDNAN_clean_linker_2, # of connection points: 2
#     Edge 106, Type (0, 1), BuildingBlock: XUDNAN_clean_linker_2, # of connection points: 2
#     Edge 107, Type (0, 1), BuildingBlock: XUDNAN_clean_linker_2, # of connection points: 2
#     Edge 108, Type (0, 1), BuildingBlock: XUDNAN_clean_linker_2, # of connection points: 2
#     Edge 109, Type (0, 1), BuildingBlock: XUDNAN_clean_linker_2, # of connection points: 2
#     Edge 110, Type (0, 1), BuildingBlock: XUDNAN_clean_linker_2, # of connection points: 2
#     Edge 111, Type (0, 1), BuildingBlock: XUDNAN_clean_linker_2, # of connection points: 2
#     Edge 112, Type (0, 1), BuildingBlock: XUDNAN_clean_linker_2, # of connection points: 2
#     Edge 113, Type (0, 1), BuildingBlock: XUDNAN_clean_linker_2, # of connection points: 2
#     Edge 114, Type (0, 1), BuildingBlock: XUDNAN_clean_linker_2, # of connection points: 2
#     Edge 115, Type (0, 1), BuildingBlock: XUDNAN_clean_linker_2, # of connection points: 2
#     Edge 116, Type (0, 1), BuildingBlock: XUDNAN_clean_linker_2, # of connection points: 2
#     Edge 117, Type (0, 1), BuildingBlock: XUDNAN_clean_linker_2, # of connection points: 2
#     Edge 118, Type (0, 1), BuildingBlock: XUDNAN_clean_linker_2, # of connection points: 2
#     Edge 119, Type (0, 1), BuildingBlock: XUDNAN_clean_linker_2, # of connection points: 2
#     Edge 120, Type (0, 1), BuildingBlock: XUDNAN_clean_linker_2, # of connection points: 2
#     Edge 121, Type (0, 1), BuildingBlock: XUDNAN_clean_linker_2, # of connection points: 2
#     Edge 122, Type (0, 1), BuildingBlock: XUDNAN_clean_linker_2, # of connection points: 2
#     Edge 123, Type (0, 1), BuildingBlock: XUDNAN_clean_linker_2, # of connection points: 2
#     Edge 124, Type (0, 1), BuildingBlock: XUDNAN_clean_linker_2, # of connection points: 2
#     Edge 125, Type (0, 1), BuildingBlock: XUDNAN_clean_linker_2, # of connection points: 2
#     Edge 126, Type (0, 1), BuildingBlock: XUDNAN_clean_linker_2, # of connection points: 2
#     Edge 127, Type (0, 1), BuildingBlock: XUDNAN_clean_linker_2, # of connection points: 2
#     Edge 128, Type (0, 1), BuildingBlock: XUDNAN_clean_linker_2, # of connection points: 2
#     Edge 129, Type (0, 1), BuildingBlock: XUDNAN_clean_linker_2, # of connection points: 2
#     Edge 130, Type (0, 1), BuildingBlock: XUDNAN_clean_linker_2, # of connection points: 2
#     Edge 131, Type (0, 1), BuildingBlock: XUDNAN_clean_linker_2, # of connection points: 2
#     Edge 132, Type (0, 1), BuildingBlock: XUDNAN_clean_linker_2, # of connection points: 2
#     Edge 133, Type (0, 1), BuildingBlock: XUDNAN_clean_linker_2, # of connection points: 2
#     Edge 134, Type (0, 1), BuildingBlock: XUDNAN_clean_linker_2, # of connection points: 2
#     Edge 135, Type (0, 1), BuildingBlock: XUDNAN_clean_linker_2, # of connection points: 2
#     Edge 136, Type (0, 1), BuildingBlock: XUDNAN_clean_linker_2, # of connection points: 2
#     Edge 137, Type (0, 1), BuildingBlock: XUDNAN_clean_linker_2, # of connection points: 2
#     Edge 138, Type (0, 1), BuildingBlock: XUDNAN_clean_linker_2, # of connection points: 2
#     Edge 139, Type (0, 1), BuildingBlock: XUDNAN_clean_linker_2, # of connection points: 2
#     Edge 140, Type (0, 1), BuildingBlock: XUDNAN_clean_linker_2, # of connection points: 2
#     Edge 141, Type (0, 1), BuildingBlock: XUDNAN_clean_linker_2, # of connection points: 2
#     Edge 142, Type (0, 1), BuildingBlock: XUDNAN_clean_linker_2, # of connection points: 2
#     Edge 143, Type (0, 1), BuildingBlock: XUDNAN_clean_linker_2, # of connection points: 2
#     Edge 144, Type (0, 1), BuildingBlock: XUDNAN_clean_linker_2, # of connection points: 2
#     Edge 145, Type (0, 1), BuildingBlock: XUDNAN_clean_linker_2, # of connection points: 2
#     Edge 146, Type (0, 1), BuildingBlock: XUDNAN_clean_linker_2, # of connection points: 2
#     Edge 147, Type (0, 1), BuildingBlock: XUDNAN_clean_linker_2, # of connection points: 2
#     Edge 148, Type (0, 1), BuildingBlock: XUDNAN_clean_linker_2, # of connection points: 2
#     Edge 149, Type (0, 1), BuildingBlock: XUDNAN_clean_linker_2, # of connection points: 2
#     Edge 150, Type (0, 1), BuildingBlock: XUDNAN_clean_linker_2, # of connection points: 2
#     Edge 151, Type (0, 1), BuildingBlock: XUDNAN_clean_linker_2, # of connection points: 2
#     Edge 152, Type (0, 1), BuildingBlock: XUDNAN_clean_linker_2, # of connection points: 2
#     Edge 153, Type (0, 1), BuildingBlock: XUDNAN_clean_linker_2, # of connection points: 2
#     Edge 154, Type (0, 1), BuildingBlock: XUDNAN_clean_linker_2, # of connection points: 2
#     Edge 155, Type (0, 1), BuildingBlock: XUDNAN_clean_linker_2, # of connection points: 2
#     Edge 156, Type (0, 1), BuildingBlock: XUDNAN_clean_linker_2, # of connection points: 2
#     Edge 157, Type (0, 1), BuildingBlock: XUDNAN_clean_linker_2, # of connection points: 2
#     Edge 158, Type (0, 1), BuildingBlock: XUDNAN_clean_linker_2, # of connection points: 2
#     Edge 159, Type (0, 1), BuildingBlock: XUDNAN_clean_linker_2, # of connection points: 2
#     Edge 160, Type (0, 1), BuildingBlock: XUDNAN_clean_linker_2, # of connection points: 2
#     Edge 161, Type (0, 1), BuildingBlock: XUDNAN_clean_linker_2, # of connection points: 2
#     Edge 162, Type (0, 1), BuildingBlock: XUDNAN_clean_linker_2, # of connection points: 2
#     Edge 163, Type (0, 1), BuildingBlock: XUDNAN_clean_linker_2, # of connection points: 2
#     Edge 164, Type (0, 1), BuildingBlock: XUDNAN_clean_linker_2, # of connection points: 2
#     Edge 165, Type (0, 1), BuildingBlock: XUDNAN_clean_linker_2, # of connection points: 2
#     Edge 166, Type (0, 1), BuildingBlock: XUDNAN_clean_linker_2, # of connection points: 2
#     Edge 167, Type (0, 1), BuildingBlock: XUDNAN_clean_linker_2, # of connection points: 2
#     Edge 168, Type (0, 1), BuildingBlock: XUDNAN_clean_linker_2, # of connection points: 2
#     Edge 169, Type (0, 1), BuildingBlock: XUDNAN_clean_linker_2, # of connection points: 2
#     Edge 170, Type (0, 1), BuildingBlock: XUDNAN_clean_linker_2, # of connection points: 2
#     Edge 171, Type (0, 1), BuildingBlock: XUDNAN_clean_linker_2, # of connection points: 2
#     Edge 172, Type (0, 1), BuildingBlock: XUDNAN_clean_linker_2, # of connection points: 2
#     Edge 173, Type (0, 1), BuildingBlock: XUDNAN_clean_linker_2, # of connection points: 2
#     Edge 174, Type (0, 1), BuildingBlock: XUDNAN_clean_linker_2, # of connection points: 2
#     Edge 175, Type (0, 1), BuildingBlock: XUDNAN_clean_linker_2, # of connection points: 2
#     Edge 176, Type (0, 1), BuildingBlock: XUDNAN_clean_linker_2, # of connection points: 2
#     Edge 177, Type (0, 1), BuildingBlock: XUDNAN_clean_linker_2, # of connection points: 2
#     Edge 178, Type (0, 1), BuildingBlock: XUDNAN_clean_linker_2, # of connection points: 2
#     Edge 179, Type (0, 1), BuildingBlock: XUDNAN_clean_linker_2, # of connection points: 2
#     Edge 180, Type (0, 1), BuildingBlock: XUDNAN_clean_linker_2, # of connection points: 2
#     Edge 181, Type (0, 1), BuildingBlock: XUDNAN_clean_linker_2, # of connection points: 2
#     Edge 182, Type (0, 1), BuildingBlock: XUDNAN_clean_linker_2, # of connection points: 2
#     Edge 183, Type (0, 1), BuildingBlock: XUDNAN_clean_linker_2, # of connection points: 2
#     Edge 184, Type (0, 1), BuildingBlock: XUDNAN_clean_linker_2, # of connection points: 2
#     Edge 185, Type (0, 1), BuildingBlock: XUDNAN_clean_linker_2, # of connection points: 2
#     Edge 186, Type (0, 1), BuildingBlock: XUDNAN_clean_linker_2, # of connection points: 2
#     Edge 187, Type (0, 1), BuildingBlock: XUDNAN_clean_linker_2, # of connection points: 2
#     Edge 188, Type (0, 1), BuildingBlock: XUDNAN_clean_linker_2, # of connection points: 2
#     Edge 189, Type (0, 1), BuildingBlock: XUDNAN_clean_linker_2, # of connection points: 2
#     Edge 190, Type (0, 1), BuildingBlock: XUDNAN_clean_linker_2, # of connection points: 2
#     Edge 191, Type (0, 1), BuildingBlock: XUDNAN_clean_linker_2, # of connection points: 2
#     Edge 192, Type (0, 1), BuildingBlock: XUDNAN_clean_linker_2, # of connection points: 2
#     Edge 193, Type (0, 1), BuildingBlock: XUDNAN_clean_linker_2, # of connection points: 2
#     Edge 194, Type (0, 1), BuildingBlock: XUDNAN_clean_linker_2, # of connection points: 2
#     Edge 195, Type (0, 1), BuildingBlock: XUDNAN_clean_linker_2, # of connection points: 2
#     Edge 196, Type (0, 1), BuildingBlock: XUDNAN_clean_linker_2, # of connection points: 2
#     Edge 197, Type (0, 1), BuildingBlock: XUDNAN_clean_linker_2, # of connection points: 2
#     Edge 198, Type (0, 1), BuildingBlock: XUDNAN_clean_linker_2, # of connection points: 2
#     Edge 199, Type (0, 1), BuildingBlock: XUDNAN_clean_linker_2, # of connection points: 2
#     Edge 200, Type (0, 1), BuildingBlock: XUDNAN_clean_linker_2, # of connection points: 2
#     Edge 201, Type (0, 1), BuildingBlock: XUDNAN_clean_linker_2, # of connection points: 2
#     Edge 202, Type (0, 1), BuildingBlock: XUDNAN_clean_linker_2, # of connection points: 2
#     Edge 203, Type (0, 1), BuildingBlock: XUDNAN_clean_linker_2, # of connection points: 2
#     Edge 204, Type (0, 1), BuildingBlock: XUDNAN_clean_linker_2, # of connection points: 2
#     Edge 205, Type (0, 1), BuildingBlock: XUDNAN_clean_linker_2, # of connection points: 2
#     Edge 206, Type (0, 1), BuildingBlock: XUDNAN_clean_linker_2, # of connection points: 2
#     Edge 207, Type (0, 1), BuildingBlock: XUDNAN_clean_linker_2, # of connection points: 2
#     Edge 208, Type (0, 1), BuildingBlock: XUDNAN_clean_linker_2, # of connection points: 2
#     Edge 209, Type (0, 1), BuildingBlock: XUDNAN_clean_linker_2, # of connection points: 2
#     Edge 210, Type (0, 1), BuildingBlock: XUDNAN_clean_linker_2, # of connection points: 2
#     Edge 211, Type (0, 1), BuildingBlock: XUDNAN_clean_linker_2, # of connection points: 2
#     Edge 212, Type (0, 1), BuildingBlock: XUDNAN_clean_linker_2, # of connection points: 2
#     Edge 213, Type (0, 1), BuildingBlock: XUDNAN_clean_linker_2, # of connection points: 2
#     Edge 214, Type (0, 1), BuildingBlock: XUDNAN_clean_linker_2, # of connection points: 2
#     Edge 215, Type (0, 1), BuildingBlock: XUDNAN_clean_linker_2, # of connection points: 2
#     Edge 216, Type (0, 1), BuildingBlock: XUDNAN_clean_linker_2, # of connection points: 2
#     Edge 217, Type (0, 1), BuildingBlock: XUDNAN_clean_linker_2, # of connection points: 2
#     Edge 218, Type (0, 1), BuildingBlock: XUDNAN_clean_linker_2, # of connection points: 2
#     Edge 219, Type (0, 1), BuildingBlock: XUDNAN_clean_linker_2, # of connection points: 2
#     Edge 220, Type (0, 1), BuildingBlock: XUDNAN_clean_linker_2, # of connection points: 2
#     Edge 221, Type (0, 1), BuildingBlock: XUDNAN_clean_linker_2, # of connection points: 2
#     Edge 222, Type (0, 1), BuildingBlock: XUDNAN_clean_linker_2, # of connection points: 2
#     Edge 223, Type (0, 1), BuildingBlock: XUDNAN_clean_linker_2, # of connection points: 2
#     Edge 224, Type (0, 1), BuildingBlock: XUDNAN_clean_linker_2, # of connection points: 2
#     Edge 225, Type (0, 1), BuildingBlock: XUDNAN_clean_linker_2, # of connection points: 2
#     Edge 226, Type (0, 1), BuildingBlock: XUDNAN_clean_linker_2, # of connection points: 2
#     Edge 227, Type (0, 1), BuildingBlock: XUDNAN_clean_linker_2, # of connection points: 2
#     Edge 228, Type (0, 1), BuildingBlock: XUDNAN_clean_linker_2, # of connection points: 2
#     Edge 229, Type (0, 1), BuildingBlock: XUDNAN_clean_linker_2, # of connection points: 2
#     Edge 230, Type (0, 1), BuildingBlock: XUDNAN_clean_linker_2, # of connection points: 2
#     Edge 231, Type (0, 1), BuildingBlock: XUDNAN_clean_linker_2, # of connection points: 2
#     Edge 232, Type (0, 1), BuildingBlock: XUDNAN_clean_linker_2, # of connection points: 2
#     Edge 233, Type (0, 1), BuildingBlock: XUDNAN_clean_linker_2, # of connection points: 2
#     Edge 234, Type (0, 1), BuildingBlock: XUDNAN_clean_linker_2, # of connection points: 2
#     Edge 235, Type (0, 1), BuildingBlock: XUDNAN_clean_linker_2, # of connection points: 2
#     Edge 236, Type (0, 1), BuildingBlock: XUDNAN_clean_linker_2, # of connection points: 2
#     Edge 237, Type (0, 1), BuildingBlock: XUDNAN_clean_linker_2, # of connection points: 2
#     Edge 238, Type (0, 1), BuildingBlock: XUDNAN_clean_linker_2, # of connection points: 2
#     Edge 239, Type (0, 1), BuildingBlock: XUDNAN_clean_linker_2, # of connection points: 2
# Relax obj value: 0.012
# Max RMSD: 0.093
# Mean RMSD: 0.060
data_MOF--net-bpr--node1-OLANEW_clean_sbu_2--node2-PAMTOO_clean_linker_0--edge1-XUDNAN_clean_linker_2
_symmetry_space_group_name_H-M    P1
_symmetry_Int_Tables_number       1
_symmetry_cell_setting            triclinic
loop_
_symmetry_equiv_pos_as_xyz
'x, y, z'
_cell_length_a     82.413498
_cell_length_b     92.514776
_cell_length_c     88.743821
_cell_angle_alpha  92.492517
_cell_angle_beta   97.939817
_cell_angle_gamma 100.99041
loop_
_atom_site_label
_atom_site_type_symbol
_atom_site_fract_x
_atom_site_fract_y
_atom_site_fract_z
_atom_type_partial_charge
O0 O 0.06118 0.3784 0.26194 0.0
Cd1 Cd 0.03741 0.37875 0.24225 0.0
O2 O 0.04643 0.36772 0.27872 0.0
Cd3 Cd 0.02221 0.36841 0.2655 0.0
O4 O 0.99649 0.37184 0.2617 0.0
C5 C 0.99273 0.38294 0.25512 0.0
O6 O 0.00445 0.39209 0.24974 0.0
C7 C 0.06052 0.373 0.27483 0.0
C8 C 0.04726 0.37631 0.21351 0.0
O9 O 0.04871 0.38896 0.22062 0.0
O10 O 0.0409 0.36484 0.21989 0.0
O11 O 0.85273 0.81712 0.56275 0.0
Cd12 Cd 0.85012 0.79451 0.5465 0.0
O13 O 0.87708 0.81536 0.57549 0.0
Cd14 Cd 0.87657 0.79295 0.5663 0.0
O15 O 0.87896 0.76987 0.56771 0.0
C16 C 0.89258 0.7674 0.57471 0.0
O17 O 0.90461 0.77869 0.58 0.0
C18 C 0.86535 0.82247 0.57268 0.0
C19 C 0.85257 0.8013 0.51642 0.0
O20 O 0.83847 0.79929 0.52136 0.0
O21 O 0.8655 0.79992 0.52566 0.0
O22 O 0.46382 0.65099 0.79007 0.0
Cd23 Cd 0.48995 0.66428 0.78309 0.0
O24 O 0.45981 0.64234 0.76632 0.0
Cd25 Cd 0.44673 0.63105 0.74469 0.0
O26 O 0.43781 0.6232 0.72096 0.0
C27 C 0.43172 0.63177 0.71196 0.0
O28 O 0.43059 0.64494 0.71734 0.0
C29 C 0.45462 0.6427 0.77916 0.0
C30 C 0.51666 0.65103 0.79326 0.0
O31 O 0.51388 0.66222 0.80078 0.0
O32 O 0.50681 0.64609 0.78089 0.0
O33 O 0.65375 0.18847 0.09157 0.0
Cd34 Cd 0.65198 0.20808 0.0741 0.0
O35 O 0.65578 0.17254 0.07309 0.0
Cd36 Cd 0.65551 0.18673 0.05407 0.0
O37 O 0.65892 0.18916 0.03024 0.0
C38 C 0.67318 0.18823 0.02682 0.0
O39 O 0.68515 0.18692 0.03779 0.0
C40 C 0.65509 0.17557 0.08708 0.0
C41 C 0.65527 0.23594 0.08908 0.0
O42 O 0.6409 0.22742 0.08548 0.0
O43 O 0.66807 0.23124 0.0857 0.0
O44 O 0.04658 0.61192 0.22937 0.0
Cd45 Cd 0.03319 0.60276 0.25093 0.0
O46 O 0.02438 0.621 0.22157 0.0
Cd47 Cd 0.01011 0.63134 0.20407 0.0
O48 O 0.99544 0.63534 0.18279 0.0
C49 C 0.99155 0.62485 0.17241 0.0
O50 O 0.99649 0.61238 0.17503 0.0
C51 C 0.03891 0.61911 0.21989 0.0
C52 C 0.05143 0.61619 0.27846 0.0
O53 O 0.05375 0.60378 0.27307 0.0
O54 O 0.04041 0.62219 0.27087 0.0
O55 O 0.59218 0.76061 0.43209 0.0
Cd56 Cd 0.60493 0.75121 0.4552 0.0
O57 O 0.60566 0.78333 0.439 0.0
Cd58 Cd 0.61469 0.7794 0.46244 0.0
O59 O 0.61889 0.78799 0.48624 0.0
C60 C 0.61923 0.80177 0.48793 0.0
O61 O 0.61759 0.80918 0.47569 0.0
C62 C 0.59606 0.77405 0.42913 0.0
C63 C 0.60945 0.72268 0.44843 0.0
O64 O 0.59692 0.72484 0.45469 0.0
O65 O 0.61997 0.73398 0.44564 0.0
O66 O 0.41302 0.36928 0.73818 0.0
Cd67 Cd 0.43008 0.37026 0.76326 0.0
O68 O 0.43803 0.37645 0.73241 0.0
Cd69 Cd 0.45769 0.38407 0.71876 0.0
O70 O 0.48121 0.39104 0.71006 0.0
C71 C 0.48949 0.40412 0.71337 0.0
O72 O 0.48337 0.41334 0.72161 0.0
C73 C 0.42234 0.37275 0.72809 0.0
C74 C 0.4136 0.36478 0.78841 0.0
O75 O 0.4176 0.37793 0.78425 0.0
O76 O 0.4169 0.35417 0.78035 0.0
O77 O 0.8884 0.24485 0.93935 0.0
Cd78 Cd 0.87646 0.26353 0.95186 0.0
O79 O 0.89501 0.23735 0.96206 0.0
Cd80 Cd 0.90205 0.22069 0.97699 0.0
O81 O 0.90176 0.20212 0.99135 0.0
C82 C 0.91346 0.20168 0.00216 0.0
O83 O 0.92647 0.21263 0.00468 0.0
C84 C 0.89468 0.23591 0.9477 0.0
C85 C 0.86657 0.2838 0.93203 0.0
O86 O 0.88084 0.28672 0.94054 0.0
O87 O 0.85702 0.27128 0.93284 0.0
O88 O 0.29093 0.0089 0.41145 0.0
Cd89 Cd 0.27182 0.98502 0.40979 0.0
O90 O 0.27072 0.01744 0.39839 0.0
Cd91 Cd 0.25797 0.03411 0.38812 0.0
O92 O 0.24022 0.0464 0.37681 0.0
C93 C 0.23955 0.04807 0.36261 0.0
O94 O 0.2501 0.04281 0.35512 0.0
C95 C 0.2857 0.01958 0.40518 0.0
C96 C 0.28522 0.96211 0.39825 0.0
O97 O 0.27718 0.96971 0.38932 0.0
O98 O 0.28699 0.96539 0.41264 0.0
O99 O 0.20675 0.99632 0.60721 0.0
Cd100 Cd 0.22304 0.97694 0.61126 0.0
O101 O 0.22731 0.01138 0.62161 0.0
Cd102 Cd 0.24164 0.03295 0.63122 0.0
O103 O 0.26082 0.05261 0.6388 0.0
C104 C 0.26627 0.05592 0.65288 0.0
O105 O 0.25978 0.04761 0.66303 0.0
C106 C 0.21306 0.0092 0.61333 0.0
C107 C 0.20858 0.95396 0.62746 0.0
O108 O 0.21842 0.96545 0.63439 0.0
O109 O 0.20539 0.95343 0.61287 0.0
O110 O 0.24291 0.97627 0.89933 0.0
Cd111 Cd 0.27069 0.98932 0.89575 0.0
O112 O 0.23468 0.99717 0.90294 0.0
Cd113 Cd 0.21682 0.01135 0.90635 0.0
O114 O 0.20281 0.02913 0.90746 0.0
C115 C 0.19569 0.03152 0.91888 0.0
O116 O 0.19647 0.02288 0.93022 0.0
C117 C 0.2316 0.98313 0.90225 0.0
C118 C 0.29349 0.97049 0.89893 0.0
O119 O 0.29064 0.97784 0.91053 0.0
O120 O 0.28568 0.97217 0.8858 0.0
O121 O 0.28052 0.00031 0.11418 0.0
Cd122 Cd 0.26785 0.02023 0.12314 0.0
O123 O 0.26284 0.98422 0.12418 0.0
Cd124 Cd 0.24894 0.9631 0.12999 0.0
O125 O 0.2317 0.94598 0.13918 0.0
C126 C 0.23454 0.94339 0.15315 0.0
O127 O 0.24823 0.9507 0.16162 0.0
C128 C 0.27509 0.98699 0.11675 0.0
C129 C 0.29242 0.04501 0.13369 0.0
O130 O 0.28708 0.0355 0.14285 0.0
O131 O 0.286 0.04286 0.11958 0.0
O132 O 0.36972 0.31997 0.08008 0.0
Cd133 Cd 0.37316 0.30282 0.05953 0.0
O134 O 0.36416 0.30178 0.09492 0.0
Cd135 Cd 0.36827 0.28393 0.07994 0.0
O136 O 0.37462 0.26217 0.07779 0.0
C137 C 0.38989 0.26106 0.08009 0.0
O138 O 0.40148 0.27316 0.08248 0.0
C139 C 0.36584 0.31543 0.09267 0.0
C140 C 0.36476 0.31235 0.0306 0.0
O141 O 0.37993 0.31523 0.03734 0.0
O142 O 0.35361 0.30504 0.03758 0.0
O143 O 0.92355 0.91801 0.25633 0.0
Cd144 Cd 0.93527 0.92954 0.28174 0.0
O145 O 0.94251 0.90426 0.2571 0.0
Cd146 Cd 0.95633 0.88916 0.24728 0.0
O147 O 0.97656 0.87975 0.23991 0.0
C148 C 0.99124 0.88749 0.24327 0.0
O149 O 0.99328 0.90039 0.25085 0.0
C150 C 0.92972 0.90815 0.25005 0.0
C151 C 0.92247 0.91291 0.30441 0.0
O152 O 0.91426 0.92161 0.29727 0.0
O153 O 0.93683 0.91203 0.30088 0.0
O154 O 0.16159 0.68071 0.59557 0.0
Cd155 Cd 0.15778 0.70091 0.57931 0.0
O156 O 0.16695 0.66744 0.57636 0.0
Cd157 Cd 0.164 0.68292 0.55881 0.0
O158 O 0.15981 0.68825 0.53506 0.0
C159 C 0.146 0.69118 0.52905 0.0
O160 O 0.13435 0.69194 0.5376 0.0
C161 C 0.1652 0.6689 0.59032 0.0
C162 C 0.14775 0.72434 0.59394 0.0
O163 O 0.13704 0.71302 0.58774 0.0
O164 O 0.16325 0.72452 0.5934 0.0
O165 O 0.97765 0.5991 0.70904 0.0
Cd166 Cd 0.99473 0.5874 0.72759 0.0
O167 O 0.97024 0.60941 0.72892 0.0
Cd168 Cd 0.95477 0.62117 0.74098 0.0
O169 O 0.93847 0.626 0.75706 0.0
C170 C 0.92377 0.61827 0.7557 0.0
O171 O 0.91871 0.6082 0.74426 0.0
C172 C 0.96921 0.60763 0.71452 0.0
C173 C 0.02739 0.59074 0.7215 0.0
O174 O 0.01635 0.57929 0.7162 0.0
O175 O 0.02297 0.6006 0.72976 0.0
O176 O 0.1609 0.19084 0.45914 0.0
Cd177 Cd 0.16539 0.20861 0.48124 0.0
O178 O 0.15528 0.20624 0.4418 0.0
Cd179 Cd 0.15902 0.2266 0.45632 0.0
O180 O 0.16166 0.25043 0.45466 0.0
C181 C 0.15615 0.25406 0.44155 0.0
O182 O 0.14918 0.24355 0.4309 0.0
C183 C 0.15693 0.19336 0.44529 0.0
C184 C 0.15514 0.19396 0.50622 0.0
O185 O 0.14524 0.20038 0.49771 0.0
O186 O 0.16998 0.19469 0.50308 0.0
O187 O 0.54898 0.37942 0.24703 0.0
Cd188 Cd 0.53103 0.38896 0.2631 0.0
O189 O 0.55376 0.39954 0.23468 0.0
Cd190 Cd 0.53529 0.40962 0.24441 0.0
O191 O 0.51236 0.41833 0.24291 0.0
C192 C 0.49851 0.40936 0.24235 0.0
O193 O 0.49862 0.3953 0.24385 0.0
C194 C 0.55637 0.38671 0.23727 0.0
C195 C 0.54961 0.399 0.29156 0.0
O196 O 0.54253 0.3854 0.28859 0.0
O197 O 0.54765 0.40797 0.28116 0.0
O198 O 0.3068 0.75881 0.89762 0.0
Cd199 Cd 0.28906 0.73482 0.89965 0.0
O200 O 0.30586 0.76226 0.92197 0.0
Cd201 Cd 0.30976 0.77461 0.94416 0.0
O202 O 0.31709 0.78798 0.96571 0.0
C203 C 0.31821 0.80188 0.96591 0.0
O204 O 0.31473 0.80793 0.95304 0.0
C205 C 0.3111 0.76703 0.90992 0.0
C206 C 0.28926 0.71392 0.87617 0.0
O207 O 0.27814 0.72196 0.87525 0.0
O208 O 0.30037 0.71593 0.88809 0.0
O209 O 0.86936 0.3022 0.73482 0.0
Cd210 Cd 0.89159 0.29982 0.71965 0.0
O211 O 0.88216 0.32421 0.74513 0.0
Cd212 Cd 0.90631 0.32311 0.73837 0.0
O213 O 0.93336 0.32518 0.74261 0.0
C214 C 0.93949 0.31469 0.74836 0.0
O215 O 0.92931 0.30246 0.75057 0.0
C216 C 0.86938 0.31379 0.74307 0.0
C217 C 0.8909 0.31841 0.69567 0.0
O218 O 0.88199 0.30532 0.6941 0.0
O219 O 0.90032 0.32258 0.70843 0.0
O220 O 0.36247 0.21775 0.55025 0.0
Cd221 Cd 0.36291 0.22971 0.5263 0.0
O222 O 0.38282 0.206 0.54753 0.0
Cd223 Cd 0.38264 0.21055 0.52355 0.0
O224 O 0.37985 0.20481 0.49903 0.0
C225 C 0.39207 0.20766 0.4916 0.0
O226 O 0.40657 0.21497 0.49867 0.0
C227 C 0.37245 0.20967 0.55559 0.0
C228 C 0.35554 0.25753 0.53152 0.0
O229 O 0.34401 0.24649 0.52603 0.0
O230 O 0.3706 0.25551 0.53408 0.0
O231 O 0.5854 0.65249 0.25981 0.0
Cd232 Cd 0.5769 0.66198 0.23531 0.0
O233 O 0.55919 0.64175 0.25929 0.0
Cd234 Cd 0.53887 0.62963 0.26999 0.0
O235 O 0.51961 0.62022 0.28333 0.0
C236 C 0.51992 0.62594 0.29668 0.0
O237 O 0.53191 0.63723 0.30203 0.0
C238 C 0.57426 0.64433 0.2659 0.0
C239 C 0.59135 0.65027 0.21219 0.0
O240 O 0.59824 0.66272 0.2194 0.0
O241 O 0.57759 0.6434 0.21588 0.0
O242 O 0.09377 0.78963 0.0765 0.0
Cd243 Cd 0.09547 0.77439 0.05381 0.0
O244 O 0.0691 0.79417 0.06774 0.0
Cd245 Cd 0.07205 0.78821 0.04438 0.0
O246 O 0.08153 0.79921 0.02518 0.0
C247 C 0.09655 0.80633 0.02768 0.0
O248 O 0.10559 0.80557 0.04092 0.0
C249 C 0.08106 0.79496 0.07863 0.0
C250 C 0.10403 0.74804 0.06311 0.0
O251 O 0.11527 0.75907 0.06094 0.0
O252 O 0.08871 0.74935 0.06053 0.0
O253 O 0.72341 0.99204 0.58905 0.0
Cd254 Cd 0.74855 0.01136 0.59538 0.0
O255 O 0.72336 0.98631 0.61284 0.0
Cd256 Cd 0.74858 -0.00109 0.62043 0.0
O257 O 0.77478 0.99784 0.62713 0.0
C258 C 0.78284 0.99412 0.61687 0.0
O259 O 0.77551 0.9923 0.60261 0.0
C260 C 0.71644 0.98465 0.59899 0.0
C261 C 0.73976 0.03832 0.60215 0.0
O262 O 0.74123 0.0343 0.58848 0.0
O263 O 0.74266 0.02966 0.61265 0.0
O264 O 0.76477 0.95995 0.36986 0.0
Cd265 Cd 0.75119 0.98032 0.3623 0.0
O266 O 0.74113 0.94508 0.36102 0.0
Cd267 Cd 0.72255 0.92488 0.3537 0.0
O268 O 0.69802 0.91102 0.34565 0.0
C269 C 0.68645 0.91775 0.34086 0.0
O270 O 0.69003 0.93222 0.34084 0.0
C271 C 0.75625 0.94688 0.3674 0.0
C272 C 0.77242 0.00777 0.3693 0.0
O273 O 0.76353 0.00176 0.37897 0.0
O274 O 0.77133 0.00074 0.35631 0.0
O275 O 0.76931 0.99495 0.07136 0.0
Cd276 Cd 0.74908 0.97183 0.07031 0.0
O277 O 0.7603 0.99823 0.0931 0.0
Cd278 Cd 0.76073 0.01121 0.11437 0.0
O279 O 0.75475 0.02641 0.13133 0.0
C280 C 0.75747 0.04015 0.12942 0.0
O281 O 0.76446 0.04486 0.11763 0.0
C282 C 0.77054 0.00243 0.08395 0.0
C283 C 0.7657 0.95394 0.08869 0.0
O284 O 0.76412 0.95212 0.07413 0.0
O285 O 0.75876 0.96366 0.09451 0.0
O286 O 0.70306 0.02369 0.93429 0.0
Cd287 Cd 0.71074 0.0005 0.94192 0.0
O288 O 0.72774 0.02923 0.92714 0.0
Cd289 Cd 0.74733 0.04266 0.91657 0.0
O290 O 0.76835 0.05349 0.90594 0.0
C291 C 0.78006 0.06283 0.91385 0.0
O292 O 0.77907 0.06595 0.92824 0.0
C293 C 0.71389 0.03278 0.92879 0.0
C294 C 0.69193 0.97581 0.92413 0.0
O295 O 0.68754 0.98008 0.93663 0.0
O296 O 0.70515 0.98329 0.92002 0.0
O297 O 0.65453 0.70783 0.96643 0.0
Cd298 Cd 0.65454 0.72683 0.98641 0.0
O299 O 0.64538 0.7187 0.94622 0.0
Cd300 Cd 0.64273 0.73969 0.95691 0.0
O301 O 0.6358 0.76089 0.95197 0.0
C302 C 0.62081 0.76255 0.95186 0.0
O303 O 0.60985 0.75176 0.95599 0.0
C304 C 0.65031 0.7077 0.95209 0.0
C305 C 0.66221 0.71474 0.01418 0.0
O306 O 0.64703 0.71337 0.00774 0.0
O307 O 0.67372 0.72228 0.00776 0.0
O308 O 0.07822 0.14063 0.76145 0.0
Cd309 Cd 0.06283 0.13477 0.73563 0.0
O310 O 0.05691 0.12753 0.77017 0.0
Cd311 Cd 0.04208 0.11967 0.78791 0.0
O312 O 0.02482 0.11241 0.80392 0.0
C313 C 0.0223 0.12154 0.81403 0.0
O314 O 0.03051 0.13527 0.8149 0.0
C315 C 0.07143 0.13567 0.77269 0.0
C316 C 0.08105 0.12415 0.71488 0.0
O317 O 0.0816 0.13803 0.71711 0.0
O318 O 0.07207 0.11534 0.72261 0.0
O319 O 0.8435 0.29668 0.39779 0.0
Cd320 Cd 0.8387 0.28182 0.41943 0.0
O321 O 0.84866 0.31755 0.41206 0.0
Cd322 Cd 0.84432 0.30818 0.43363 0.0
O323 O 0.84244 0.31078 0.45785 0.0
C324 C 0.83713 0.32216 0.4619 0.0
O325 O 0.83265 0.3308 0.45138 0.0
C326 C 0.84743 0.31068 0.3991 0.0
C327 C 0.83138 0.2519 0.40992 0.0
O328 O 0.81967 0.25913 0.41067 0.0
O329 O 0.84653 0.2588 0.41384 0.0
O330 O 0.52341 0.86777 0.7453 0.0
Cd331 Cd 0.50645 0.85941 0.72054 0.0
O332 O 0.50482 0.85272 0.7556 0.0
Cd333 Cd 0.49335 0.84549 0.77544 0.0
O334 O 0.47573 0.84524 0.7917 0.0
C335 C 0.4716 0.85747 0.79477 0.0
O336 O 0.47858 0.86928 0.78857 0.0
C337 C 0.51827 0.86236 0.75709 0.0
C338 C 0.5253 0.85937 0.69677 0.0
O339 O 0.51995 0.87091 0.70067 0.0
O340 O 0.52184 0.84789 0.70421 0.0
O341 O 0.95402 0.13074 0.28286 0.0
Cd342 Cd 0.96921 0.13039 0.26107 0.0
O343 O 0.93101 0.11629 0.27111 0.0
Cd344 Cd 0.9395 0.11624 0.24888 0.0
O345 O 0.93772 0.11662 0.22413 0.0
C346 C 0.938 0.12873 0.21783 0.0
O347 O 0.94037 0.14107 0.22647 0.0
C348 C 0.93927 0.12361 0.2831 0.0
C349 C 0.00329 0.13364 0.27164 0.0
O350 O 0.99666 0.14489 0.26892 0.0
O351 O 0.99385 0.1208 0.26909 0.0
O352 O 0.61439 0.15314 0.72951 0.0
Cd353 Cd 0.5924 0.15148 0.74564 0.0
O354 O 0.59908 0.16109 0.71054 0.0
Cd355 Cd 0.57651 0.16018 0.72105 0.0
O356 O 0.54998 0.16041 0.72047 0.0
C357 C 0.53937 0.14945 0.71374 0.0
O358 O 0.54478 0.1381 0.70828 0.0
C359 C 0.61272 0.15754 0.71611 0.0
C360 C 0.60237 0.14195 0.77425 0.0
O361 O 0.59492 0.1327 0.76312 0.0
O362 O 0.60509 0.1557 0.77184 0.0
O363 O 0.08608 0.28698 0.94037 0.0
Cd364 Cd 0.09103 0.27462 0.96393 0.0
O365 O 0.11234 0.29774 0.94071 0.0
Cd366 Cd 0.11798 0.29337 0.96466 0.0
O367 O 0.11628 0.29828 0.98865 0.0
C368 C 0.12857 0.30601 0.99755 0.0
O369 O 0.14284 0.31016 0.99244 0.0
C370 C 0.09734 0.29462 0.93393 0.0
C371 C 0.1021 0.24865 0.95747 0.0
O372 O 0.08648 0.24896 0.95577 0.0
O373 O 0.11253 0.26056 0.96248 0.0
O374 O 0.39515 0.70906 0.41622 0.0
Cd375 Cd 0.38949 0.7268 0.43509 0.0
O376 O 0.38921 0.69137 0.43154 0.0
Cd377 Cd 0.38533 0.70457 0.45119 0.0
O378 O 0.38136 0.70467 0.47498 0.0
C379 C 0.37159 0.6933 0.47835 0.0
O380 O 0.36417 0.68323 0.46738 0.0
C381 C 0.3933 0.69549 0.41887 0.0
C382 C 0.38752 0.75419 0.42394 0.0
O383 O 0.40107 0.75203 0.43167 0.0
O384 O 0.37497 0.74338 0.42139 0.0
O385 O 0.80178 0.50275 0.91826 0.0
Cd386 Cd 0.78428 0.48233 0.9286 0.0
O387 O 0.77812 0.5094 0.91029 0.0
Cd388 Cd 0.76369 0.52514 0.90046 0.0
O389 O 0.75108 0.54287 0.89306 0.0
C390 C 0.73949 0.54073 0.88169 0.0
O391 O 0.73517 0.52764 0.87429 0.0
C392 C 0.79394 0.51157 0.91118 0.0
C393 C 0.78442 0.45519 0.9138 0.0
O394 O 0.77491 0.46365 0.90807 0.0
O395 O 0.79388 0.45956 0.92652 0.0
O396 O 0.73244 0.52466 0.16425 0.0
Cd397 Cd 0.74599 0.50515 0.17471 0.0
O398 O 0.75473 0.53113 0.15336 0.0
Cd399 Cd 0.77136 0.54566 0.14079 0.0
O400 O 0.79236 0.55899 0.13197 0.0
C401 C 0.807 0.55974 0.13914 0.0
O402 O 0.80886 0.55258 0.15153 0.0
C403 C 0.74047 0.53318 0.15578 0.0
C404 C 0.72743 0.47666 0.16666 0.0
O405 O 0.72644 0.48362 0.1792 0.0
O406 O 0.73705 0.48324 0.15783 0.0
O407 O 0.77804 0.48309 0.40816 0.0
Cd408 Cd 0.80402 0.49729 0.4017 0.0
O409 O 0.76425 0.49633 0.39322 0.0
Cd410 Cd 0.74123 0.50375 0.38491 0.0
O411 O 0.72119 0.51619 0.38356 0.0
C412 C 0.71068 0.5141 0.39285 0.0
O413 O 0.71163 0.50388 0.40259 0.0
C414 C 0.76423 0.48604 0.40224 0.0
C415 C 0.8166 0.48156 0.38004 0.0
O416 O 0.82057 0.48036 0.39435 0.0
O417 O 0.80672 0.49029 0.37594 0.0
O418 O 0.77653 0.48498 0.62514 0.0
Cd419 Cd 0.76005 0.50442 0.62438 0.0
O420 O 0.77475 0.48129 0.60025 0.0
Cd421 Cd 0.75467 0.4937 0.59742 0.0
O422 O 0.73018 0.49345 0.60424 0.0
C423 C 0.71783 0.48415 0.59717 0.0
O424 O 0.72002 0.47635 0.58515 0.0
C425 C 0.78061 0.47861 0.61364 0.0
C426 C 0.77904 0.53145 0.61874 0.0
O427 O 0.77844 0.52761 0.63239 0.0
O428 O 0.77056 0.52254 0.60775 0.0
O429 O 0.51913 0.14861 0.24125 0.0
Cd430 Cd 0.54013 0.14654 0.26289 0.0
O431 O 0.50006 0.15015 0.25583 0.0
Cd432 Cd 0.47616 0.1535 0.26212 0.0
O433 O 0.45447 0.15602 0.27293 0.0
C434 C 0.4451 0.14467 0.27685 0.0
O435 O 0.44839 0.13159 0.27384 0.0
C436 C 0.5043 0.14989 0.24258 0.0
C437 C 0.56521 0.13407 0.25262 0.0
O438 O 0.55272 0.12601 0.25734 0.0
O439 O 0.56597 0.14805 0.25301 0.0
O440 O 0.04518 0.85169 0.75791 0.0
Cd441 Cd 0.0256 0.85793 0.77422 0.0
O442 O 0.04888 0.87324 0.748 0.0
Cd443 Cd 0.02824 0.88052 0.75707 0.0
O444 O 0.00516 0.88856 0.75076 0.0
C445 C 9e-05 0.88699 0.73649 0.0
O446 O 0.00871 0.88074 0.72764 0.0
C447 C 0.05259 0.8606 0.74938 0.0
C448 C 0.04124 0.86022 0.8044 0.0
O449 O 0.03307 0.8478 0.79794 0.0
O450 O 0.04165 0.87166 0.7967 0.0
O451 O 0.32668 0.80779 0.2345 0.0
Cd452 Cd 0.31877 0.79531 0.20902 0.0
O453 O 0.35205 0.81602 0.22957 0.0
Cd454 Cd 0.37824 0.82666 0.23667 0.0
O455 O 0.40466 0.83401 0.24591 0.0
C456 C 0.41025 0.82912 0.25833 0.0
O457 O 0.3999 0.82 0.26522 0.0
C458 C 0.34136 0.81523 0.23871 0.0
C459 C 0.32683 0.81425 0.18641 0.0
O460 O 0.31278 0.81309 0.19135 0.0
O461 O 0.33711 0.80647 0.19221 0.0
O462 O 0.82389 0.71597 0.03251 0.0
Cd463 Cd 0.80537 0.73227 0.02306 0.0
O464 O 0.83878 0.72205 0.01424 0.0
Cd465 Cd 0.85787 0.71761 0.00089 0.0
O466 O 0.87079 0.70338 0.98882 0.0
C467 C 0.87049 0.70374 0.9745 0.0
O468 O 0.86318 0.71343 0.96729 0.0
C469 C 0.83633 0.71484 0.02587 0.0
C470 C 0.81523 0.75979 0.03908 0.0
O471 O 0.80514 0.74932 0.04393 0.0
O472 O 0.82054 0.7573 0.02649 0.0
O473 O 0.64913 0.30649 0.57547 0.0
Cd474 Cd 0.66226 0.29391 0.5571 0.0
O475 O 0.64209 0.32183 0.55862 0.0
Cd476 Cd 0.65036 0.31307 0.53843 0.0
O477 O 0.65057 0.31954 0.51509 0.0
C478 C 0.63825 0.31433 0.50481 0.0
O479 O 0.62631 0.30388 0.50806 0.0
C480 C 0.6426 0.31754 0.57206 0.0
C481 C 0.66599 0.26573 0.56495 0.0
O482 O 0.67645 0.27724 0.57109 0.0
O483 O 0.65371 0.26753 0.55515 0.0
O484 O 0.19482 0.49898 0.06545 0.0
Cd485 Cd 0.20519 0.52394 0.05845 0.0
O486 O 0.2195 0.50007 0.07876 0.0
Cd487 Cd 0.23775 0.49215 0.09495 0.0
O488 O 0.25678 0.48657 0.11208 0.0
C489 C 0.25985 0.47363 0.1122 0.0
O490 O 0.25133 0.46343 0.10181 0.0
C491 C 0.20476 0.49291 0.07408 0.0
C492 C 0.19187 0.54476 0.07381 0.0
O493 O 0.18478 0.53885 0.06062 0.0
O494 O 0.20532 0.54084 0.07971 0.0
O495 O 0.27261 0.45885 0.88377 0.0
Cd496 Cd 0.25169 0.4724 0.87267 0.0
O497 O 0.26803 0.44387 0.86303 0.0
Cd498 Cd 0.24557 0.45079 0.8524 0.0
O499 O 0.21988 0.44297 0.84135 0.0
C500 C 0.20884 0.43825 0.8496 0.0
O501 O 0.21302 0.4395 0.86451 0.0
C502 C 0.27625 0.44827 0.87615 0.0
C503 C 0.26636 0.49497 0.85605 0.0
O504 O 0.26499 0.49739 0.8701 0.0
O505 O 0.26065 0.4819 0.84981 0.0
O506 O 0.26792 0.49959 0.5677 0.0
Cd507 Cd 0.24793 0.47749 0.57183 0.0
O508 O 0.26934 0.5086 0.59131 0.0
Cd509 Cd 0.24872 0.49313 0.59817 0.0
O510 O 0.23069 0.49488 0.61363 0.0
C511 C 0.23011 0.5082 0.61725 0.0
O512 O 0.23962 0.51878 0.61122 0.0
C513 C 0.27429 0.50948 0.57838 0.0
C514 C 0.26463 0.45674 0.5855 0.0
O515 O 0.26222 0.45727 0.57097 0.0
O516 O 0.259 0.46593 0.59358 0.0
O517 O 0.22462 0.55907 0.39167 0.0
Cd518 Cd 0.23322 0.53521 0.39049 0.0
O519 O 0.21117 0.55537 0.41135 0.0
Cd520 Cd 0.21591 0.53307 0.41361 0.0
O521 O 0.21253 0.50927 0.41565 0.0
C522 C 0.21153 0.50058 0.40391 0.0
O523 O 0.21326 0.50619 0.39074 0.0
C524 C 0.21607 0.5636 0.40109 0.0
C525 C 0.2654 0.53861 0.38297 0.0
O526 O 0.25275 0.53831 0.37272 0.0
O527 O 0.26287 0.53712 0.3968 0.0
H528 H 0.1487 0.38441 0.07657 0.0
H529 H 0.13565 0.40556 0.11597 0.0
H530 H 0.11169 0.36091 0.10147 0.0
H531 H 0.09013 0.38166 0.10857 0.0
C532 C 0.0979 0.3871 0.11932 0.0
O533 O 0.11324 0.38296 0.12121 0.0
H534 H 0.09974 0.39926 0.11849 0.0
C535 C 0.14167 0.3838 0.08605 0.0
C536 C 0.12995 0.37091 0.0876 0.0
C537 C 0.14389 0.39629 0.09626 0.0
C538 C 0.13417 0.39597 0.10807 0.0
C539 C 0.12256 0.38322 0.10981 0.0
C540 C 0.1206 0.37071 0.09976 0.0
H541 H 0.84182 0.88762 0.37197 0.0
H542 H 0.8237 0.8655 0.40975 0.0
H543 H 0.86763 0.85602 0.39393 0.0
H544 H 0.84639 0.83051 0.40364 0.0
C545 C 0.84122 0.83588 0.41285 0.0
O546 O 0.84783 0.85081 0.41441 0.0
H547 H 0.82739 0.83399 0.40968 0.0
C548 C 0.84289 0.87968 0.38047 0.0
C549 C 0.8562 0.87206 0.38143 0.0
C550 C 0.83098 0.87734 0.39047 0.0
C551 C 0.83253 0.86727 0.40171 0.0
C552 C 0.84583 0.85975 0.40295 0.0
C553 C 0.85755 0.86207 0.39282 0.0
H554 H 0.36876 0.5924 0.60605 0.0
H555 H 0.35116 0.61295 0.56603 0.0
H556 H 0.39019 0.63751 0.59969 0.0
H557 H 0.36591 0.65487 0.58684 0.0
C558 C 0.36176 0.64874 0.57546 0.0
O559 O 0.37147 0.63838 0.57361 0.0
H560 H 0.34841 0.64323 0.57487 0.0
C561 C 0.36944 0.60188 0.59923 0.0
C562 C 0.38088 0.61497 0.60455 0.0
C563 C 0.35857 0.60099 0.58541 0.0
C564 C 0.35951 0.61333 0.57667 0.0
C565 C 0.37082 0.62647 0.58192 0.0
C566 C 0.38148 0.62728 0.5958 0.0
H567 H 0.65971 0.10908 0.87668 0.0
H568 H 0.67274 0.13211 0.9212 0.0
H569 H 0.64015 0.14791 0.88668 0.0
H570 H 0.65783 0.17389 0.91088 0.0
C571 C 0.66493 0.16601 0.91647 0.0
O572 O 0.6548 0.15215 0.91494 0.0
H573 H 0.67614 0.16614 0.91069 0.0
C574 C 0.65855 0.11797 0.88457 0.0
C575 C 0.64892 0.12838 0.87966 0.0
C576 C 0.66726 0.11926 0.89949 0.0
C577 C 0.66622 0.13103 0.90961 0.0
C578 C 0.65639 0.14126 0.90494 0.0
C579 C 0.6478 0.13995 0.89005 0.0
H580 H 0.14192 0.63363 0.36709 0.0
H581 H 0.15569 0.64935 0.41434 0.0
H582 H 0.11223 0.65992 0.38838 0.0
H583 H 0.13026 0.6847 0.40976 0.0
C584 C 0.13752 0.67847 0.4177 0.0
O585 O 0.13118 0.66354 0.41484 0.0
H586 H 0.1508 0.68113 0.41576 0.0
C587 C 0.13959 0.63981 0.37695 0.0
C588 C 0.12564 0.64663 0.37586 0.0
C589 C 0.1504 0.64059 0.39079 0.0
C590 C 0.14746 0.64861 0.40358 0.0
C591 C 0.13392 0.65581 0.40251 0.0
C592 C 0.12296 0.65469 0.38879 0.0
H593 H 0.63833 0.88485 0.56739 0.0
H594 H 0.61933 0.90126 0.6062 0.0
H595 H 0.60344 0.85581 0.58988 0.0
H596 H 0.57744 0.87062 0.59759 0.0
C597 C 0.58423 0.87734 0.60808 0.0
O598 O 0.60074 0.87597 0.61032 0.0
H599 H 0.58353 0.8891 0.60659 0.0
C600 C 0.6303 0.88306 0.57611 0.0
C601 C 0.62088 0.86887 0.5772 0.0
C602 C 0.62993 0.89484 0.58653 0.0
C603 C 0.61993 0.89232 0.59811 0.0
C604 C 0.61042 0.87827 0.59923 0.0
C605 C 0.61099 0.86658 0.5889 0.0
H606 H 0.35964 0.38482 0.87689 0.0
H607 H 0.3507 0.37505 0.92238 0.0
H608 H 0.3806 0.35078 0.89942 0.0
H609 H 0.36292 0.33148 0.9196 0.0
C610 C 0.35713 0.34016 0.92452 0.0
O611 O 0.36746 0.35375 0.92424 0.0
H612 H 0.34478 0.33975 0.91738 0.0
C613 C 0.36158 0.37858 0.88682 0.0
C614 C 0.37105 0.36747 0.88645 0.0
C615 C 0.35426 0.38153 0.89972 0.0
C616 C 0.35655 0.37322 0.91244 0.0
C617 C 0.36596 0.36214 0.91222 0.0
C618 C 0.37333 0.35938 0.89936 0.0
H619 H 0.87221 0.08974 0.12183 0.0
H620 H 0.86331 0.0865 0.0726 0.0
H621 H 0.90069 0.1214 0.09676 0.0
H622 H 0.86942 0.12596 0.07262 0.0
C623 C 0.8746 0.12016 0.06368 0.0
O624 O 0.88435 0.11074 0.07003 0.0
H625 H 0.86391 0.11351 0.05573 0.0
C626 C 0.87526 0.09348 0.11099 0.0
C627 C 0.88804 0.10593 0.11099 0.0
C628 C 0.86621 0.0861 0.09728 0.0
C629 C 0.86982 0.09186 0.08342 0.0
C630 C 0.88186 0.10477 0.08334 0.0
C631 C 0.89109 0.11167 0.09705 0.0
H632 H 0.11116 0.14046 0.3456 0.0
H633 H 0.15077 0.11585 0.35167 0.0
H634 H 0.11724 0.11034 0.30943 0.0
H635 H 0.13135 0.08178 0.31561 0.0
C636 C 0.13943 0.08734 0.32613 0.0
O637 O 0.1433 0.10231 0.32451 0.0
H638 H 0.13229 0.0849 0.33583 0.0
C639 C 0.11796 0.13267 0.34121 0.0
C640 C 0.11264 0.126 0.32638 0.0
C641 C 0.13162 0.12905 0.35055 0.0
C642 C 0.14001 0.11864 0.34482 0.0
C643 C 0.13478 0.11192 0.33005 0.0
C644 C 0.12108 0.11552 0.32089 0.0
H645 H 0.14177 0.8709 0.68372 0.0
H646 H 0.12398 0.8245 0.67095 0.0
H647 H 0.16004 0.84986 0.64708 0.0
H648 H 0.13682 0.82741 0.62675 0.0
C649 C 0.13178 0.8202 0.63541 0.0
O650 O 0.14213 0.82369 0.64921 0.0
H651 H 0.11904 0.82216 0.63645 0.0
C652 C 0.14188 0.8611 0.67662 0.0
C653 C 0.1521 0.86213 0.66511 0.0
C654 C 0.13166 0.8476 0.67891 0.0
C655 C 0.13191 0.83499 0.66959 0.0
C656 C 0.14209 0.83588 0.65815 0.0
C657 C 0.15217 0.84937 0.65594 0.0
H658 H 0.34713 0.87842 0.90398 0.0
H659 H 0.3775 0.86039 0.87528 0.0
H660 H 0.37311 0.90574 0.87316 0.0
H661 H 0.37997 0.89244 0.84208 0.0
C662 C 0.38174 0.88203 0.8473 0.0
O663 O 0.38712 0.88501 0.86274 0.0
H664 H 0.36947 0.87416 0.84505 0.0
C665 C 0.35555 0.8799 0.89555 0.0
C666 C 0.35932 0.8936 0.88925 0.0
C667 C 0.3619 0.86784 0.89042 0.0
C668 C 0.37246 0.86961 0.87926 0.0
C669 C 0.37657 0.8833 0.87318 0.0
C670 C 0.36992 0.89522 0.87804 0.0
H671 H 0.40087 0.12608 0.16739 0.0
H672 H 0.41906 0.16625 0.14686 0.0
H673 H 0.37021 0.14115 0.13037 0.0
H674 H 0.38624 0.1545 0.10497 0.0
C675 C 0.39662 0.16232 0.11217 0.0
O676 O 0.39258 0.16418 0.12661 0.0
H677 H 0.40811 0.15756 0.11259 0.0
C678 C 0.39897 0.13423 0.15928 0.0
C679 C 0.38383 0.13213 0.14918 0.0
C680 C 0.41185 0.1465 0.15865 0.0
C681 C 0.40948 0.1566 0.14754 0.0
C682 C 0.39462 0.15445 0.13727 0.0
C683 C 0.38179 0.14239 0.13819 0.0
H684 H 0.13261 0.86749 0.16044 0.0
H685 H 0.08878 0.86035 0.18274 0.0
H686 H 0.13148 0.89325 0.20176 0.0
H687 H 0.10906 0.88018 0.22719 0.0
C688 C 0.09992 0.87368 0.21779 0.0
O689 O 0.10092 0.88087 0.20456 0.0
H690 H 0.10311 0.86255 0.21659 0.0
C691 C 0.12616 0.87003 0.16976 0.0
C692 C 0.13419 0.88119 0.18107 0.0
C693 C 0.10977 0.86237 0.17019 0.0
C694 C 0.10143 0.86603 0.18215 0.0
C695 C 0.10937 0.87701 0.19354 0.0
C696 C 0.1257 0.88451 0.19306 0.0
H697 H 0.36446 0.82896 0.35166 0.0
H698 H 0.34478 0.86863 0.34598 0.0
H699 H 0.35638 0.85429 0.39084 0.0
H700 H 0.32651 0.8669 0.38886 0.0
C701 C 0.32743 0.87182 0.37772 0.0
O702 O 0.34378 0.87384 0.37502 0.0
H703 H 0.31899 0.86401 0.36877 0.0
C704 C 0.36035 0.83836 0.35652 0.0
C705 C 0.36121 0.84041 0.3724 0.0
C706 C 0.35475 0.84862 0.34691 0.0
C707 C 0.34952 0.8608 0.35327 0.0
C708 C 0.3499 0.86268 0.36906 0.0
C709 C 0.35609 0.85271 0.37863 0.0
H710 H 0.35127 0.1464 0.64513 0.0
H711 H 0.4039 0.16496 0.65548 0.0
H712 H 0.38279 0.12798 0.67885 0.0
H713 H 0.42259 0.14171 0.65865 0.0
C714 C 0.42118 0.13895 0.67054 0.0
O715 O 0.41015 0.14659 0.67607 0.0
H716 H 0.41618 0.1269 0.67054 0.0
C717 C 0.36343 0.14646 0.65163 0.0
C718 C 0.3652 0.13589 0.66233 0.0
C719 C 0.3773 0.15694 0.649 0.0
C720 C 0.39305 0.15695 0.65736 0.0
C721 C 0.39492 0.14657 0.66816 0.0
C722 C 0.38105 0.13612 0.67067 0.0
H723 H 0.11221 0.16854 0.88796 0.0
H724 H 0.1256 0.12654 0.87906 0.0
H725 H 0.13438 0.14642 0.92478 0.0
H726 H 0.1613 0.13263 0.91759 0.0
C727 C 0.15442 0.12421 0.90844 0.0
O728 O 0.13748 0.12379 0.90743 0.0
H729 H 0.15872 0.12742 0.89747 0.0
C730 C 0.1172 0.15916 0.89205 0.0
C731 C 0.123 0.15888 0.90766 0.0
C732 C 0.11807 0.14758 0.88161 0.0
C733 C 0.12463 0.1355 0.88696 0.0
C734 C 0.13061 0.13519 0.90248 0.0
C735 C 0.12975 0.14681 0.9128 0.0
H736 H 0.82328 0.32266 0.83624 0.0
H737 H 0.79833 0.35514 0.81513 0.0
H738 H 0.81104 0.3573 0.86382 0.0
H739 H 0.77455 0.35768 0.84648 0.0
C740 C 0.78048 0.3689 0.84364 0.0
O741 O 0.79666 0.36939 0.84089 0.0
H742 H 0.77286 0.37148 0.83313 0.0
C743 C 0.81734 0.33209 0.83723 0.0
C744 C 0.81767 0.33906 0.85166 0.0
C745 C 0.81062 0.33793 0.82397 0.0
C746 C 0.80346 0.35046 0.82527 0.0
C747 C 0.80332 0.35721 0.83966 0.0
C748 C 0.81072 0.35171 0.85277 0.0
H749 H 0.87414 0.63353 0.08124 0.0
H750 H 0.91128 0.63596 0.05117 0.0
H751 H 0.90711 0.60249 0.08298 0.0
H752 H 0.94199 0.63136 0.05943 0.0
C753 C 0.94007 0.62088 0.06523 0.0
O754 O 0.92351 0.61379 0.06178 0.0
H755 H 0.94791 0.61387 0.0604 0.0
C756 C 0.88419 0.62934 0.07701 0.0
C757 C 0.88931 0.61694 0.08328 0.0
C758 C 0.89214 0.63648 0.06554 0.0
C759 C 0.90525 0.63095 0.06029 0.0
C760 C 0.91082 0.61896 0.06685 0.0
C761 C 0.90295 0.61203 0.07836 0.0
H762 H 0.60977 0.6412 0.37619 0.0
H763 H 0.62471 0.60022 0.3656 0.0
H764 H 0.63367 0.61886 0.41181 0.0
H765 H 0.66109 0.60542 0.40519 0.0
C766 C 0.65488 0.59863 0.39458 0.0
O767 O 0.63778 0.59726 0.39355 0.0
H768 H 0.65936 0.60434 0.38468 0.0
C769 C 0.61562 0.63211 0.37977 0.0
C770 C 0.62167 0.63145 0.39526 0.0
C771 C 0.61638 0.62078 0.36898 0.0
C772 C 0.62373 0.60893 0.37378 0.0
C773 C 0.63011 0.60837 0.38916 0.0
C774 C 0.62879 0.61945 0.39992 0.0
H775 H 0.85198 0.39581 0.33793 0.0
H776 H 0.88308 0.37794 0.30984 0.0
H777 H 0.87468 0.42192 0.30457 0.0
H778 H 0.87728 0.40528 0.27447 0.0
C779 C 0.88439 0.39726 0.27978 0.0
O780 O 0.88974 0.40159 0.29501 0.0
H781 H 0.87598 0.38618 0.27846 0.0
C782 C 0.85986 0.39702 0.32906 0.0
C783 C 0.86254 0.41036 0.32195 0.0
C784 C 0.8672 0.38523 0.32487 0.0
C785 C 0.87698 0.38676 0.31306 0.0
C786 C 0.87944 0.3999 0.30566 0.0
C787 C 0.87222 0.41165 0.31006 0.0
H788 H 0.61301 0.6373 0.8641 0.0
H789 H 0.65689 0.61855 0.87377 0.0
H790 H 0.6235 0.60523 0.83199 0.0
H791 H 0.6678 0.61675 0.84114 0.0
C792 C 0.66361 0.60455 0.84107 0.0
O793 O 0.6503 0.60091 0.84898 0.0
H794 H 0.65966 0.60025 0.82896 0.0
C795 C 0.62103 0.63015 0.86062 0.0
C796 C 0.61643 0.62166 0.8466 0.0
C797 C 0.63573 0.6294 0.8704 0.0
C798 C 0.64552 0.61939 0.86641 0.0
C799 C 0.64092 0.61064 0.85265 0.0
C800 C 0.62655 0.61185 0.84274 0.0
H801 H 0.864 0.60949 0.91014 0.0
H802 H 0.86708 0.59991 0.86276 0.0
H803 H 0.8921 0.64174 0.88514 0.0
H804 H 0.88053 0.64527 0.85275 0.0
C805 C 0.8765 0.63325 0.84945 0.0
O806 O 0.88538 0.62552 0.85941 0.0
H807 H 0.86284 0.63019 0.84996 0.0
C808 C 0.86895 0.61257 0.89978 0.0
C809 C 0.87879 0.6267 0.89936 0.0
C810 C 0.86451 0.6028 0.88662 0.0
C811 C 0.87032 0.60723 0.87305 0.0
C812 C 0.88023 0.62123 0.8726 0.0
C813 C 0.88453 0.63089 0.88571 0.0
H814 H 0.15146 0.08633 0.63512 0.0
H815 H 0.16121 0.1046 0.59271 0.0
H816 H 0.13212 0.12453 0.62083 0.0
H817 H 0.11956 0.12159 0.58846 0.0
C818 C 0.13153 0.12321 0.58369 0.0
O819 O 0.14476 0.12583 0.59548 0.0
H820 H 0.13173 0.11297 0.57671 0.0
C821 C 0.15021 0.09464 0.62704 0.0
C822 C 0.14097 0.10554 0.62985 0.0
C823 C 0.15743 0.09407 0.61362 0.0
C824 C 0.15574 0.10482 0.60313 0.0
C825 C 0.14675 0.11581 0.60587 0.0
C826 C 0.13944 0.11619 0.61917 0.0
H827 H 0.64526 0.43189 0.38392 0.0
H828 H 0.66159 0.40694 0.42107 0.0
H829 H 0.6136 0.39203 0.39437 0.0
H830 H 0.61323 0.38849 0.42637 0.0
C831 C 0.62643 0.3875 0.43 0.0
O832 O 0.63439 0.38689 0.41738 0.0
H833 H 0.63265 0.3974 0.43772 0.0
C834 C 0.64306 0.42259 0.39086 0.0
C835 C 0.62802 0.41209 0.38737 0.0
C836 C 0.65538 0.42102 0.40306 0.0
C837 C 0.65228 0.40877 0.41187 0.0
C838 C 0.63722 0.3985 0.40873 0.0
C839 C 0.62519 0.40012 0.39655 0.0
H840 H 0.32312 0.89552 0.11404 0.0
H841 H 0.31702 0.89914 0.06531 0.0
H842 H 0.33251 0.86128 0.08393 0.0
H843 H 0.35128 0.87769 0.06094 0.0
C844 C 0.33989 0.87664 0.05226 0.0
O845 O 0.32561 0.8742 0.05902 0.0
H846 H 0.34076 0.88714 0.0465 0.0
C847 C 0.32342 0.8911 0.1026 0.0
C848 C 0.32821 0.87743 0.10055 0.0
C849 C 0.31952 0.89922 0.08999 0.0
C850 C 0.32035 0.89336 0.07527 0.0
C851 C 0.32517 0.87982 0.0732 0.0
C852 C 0.32907 0.87188 0.08577 0.0
H853 H 0.85129 0.39408 0.62825 0.0
H854 H 0.82534 0.39225 0.58224 0.0
H855 H 0.8551 0.3603 0.59486 0.0
H856 H 0.86067 0.37706 0.56703 0.0
C857 C 0.84726 0.37509 0.56187 0.0
O858 O 0.83712 0.37002 0.57243 0.0
H859 H 0.84445 0.38579 0.55812 0.0
C860 C 0.84799 0.38902 0.61672 0.0
C861 C 0.85417 0.37639 0.61298 0.0
C862 C 0.83737 0.39489 0.60585 0.0
C863 C 0.83357 0.38817 0.5909 0.0
C864 C 0.84023 0.37594 0.58696 0.0
C865 C 0.85024 0.36991 0.59802 0.0
H866 H 0.35472 0.1284 0.41378 0.0
H867 H 0.35368 0.10832 0.36889 0.0
H868 H 0.37738 0.15365 0.37972 0.0
H869 H 0.355 0.14473 0.34926 0.0
C870 C 0.36116 0.13551 0.3462 0.0
O871 O 0.37071 0.13177 0.35889 0.0
H872 H 0.35121 0.12585 0.34155 0.0
C873 C 0.35761 0.12927 0.40226 0.0
C874 C 0.3665 0.14269 0.39811 0.0
C875 C 0.3528 0.1168 0.39183 0.0
C876 C 0.35687 0.11788 0.37701 0.0
C877 C 0.36574 0.13115 0.37275 0.0
C878 C 0.37047 0.1435 0.38322 0.0
H879 H 0.66657 0.60593 0.14538 0.0
H880 H 0.69458 0.62491 0.11083 0.0
H881 H 0.65623 0.64517 0.1251 0.0
H882 H 0.6554 0.63852 0.09181 0.0
C883 C 0.66892 0.64264 0.0913 0.0
O884 O 0.67759 0.64567 0.10592 0.0
H885 H 0.67369 0.63387 0.08531 0.0
C886 C 0.66936 0.61435 0.1375 0.0
C887 C 0.66029 0.62578 0.13668 0.0
C888 C 0.68195 0.61382 0.12834 0.0
C889 C 0.68494 0.62481 0.11798 0.0
C890 C 0.67543 0.63585 0.11665 0.0
C891 C 0.66339 0.63649 0.12617 0.0
H892 H 0.12648 0.90484 0.89198 0.0
H893 H 0.14385 0.90438 0.93992 0.0
H894 H 0.10433 0.86993 0.918 0.0
H895 H 0.10103 0.88128 0.94856 0.0
C896 C 0.11417 0.88204 0.95411 0.0
O897 O 0.12404 0.87945 0.94335 0.0
H898 H 0.11881 0.89335 0.9597 0.0
C899 C 0.12556 0.89973 0.90267 0.0
C900 C 0.11382 0.88659 0.9032 0.0
C901 C 0.13626 0.90635 0.91589 0.0
C902 C 0.13543 0.8996 0.9297 0.0
C903 C 0.12408 0.88639 0.93029 0.0
C904 C 0.11323 0.88001 0.91717 0.0
H905 H 0.90454 0.89535 0.65924 0.0
H906 H 0.87696 0.92544 0.63664 0.0
H907 H 0.9083 0.93924 0.67943 0.0
H908 H 0.87828 0.95572 0.67575 0.0
C909 C 0.87353 0.94938 0.66458 0.0
O910 O 0.88707 0.94677 0.65803 0.0
H911 H 0.86533 0.93884 0.6667 0.0
C912 C 0.90128 0.90614 0.65871 0.0
C913 C 0.90809 0.91697 0.6707 0.0
C914 C 0.8901 0.909 0.64625 0.0
C915 C 0.88542 0.92285 0.64613 0.0
C916 C 0.89181 0.93357 0.6582 0.0
C917 C 0.90318 0.93069 0.67038 0.0
H918 H 0.85957 0.098 0.35938 0.0
H919 H 0.8658 0.14541 0.36261 0.0
H920 H 0.8261 0.11922 0.38167 0.0
H921 H 0.81691 0.14316 0.36427 0.0
C922 C 0.82874 0.15154 0.36701 0.0
O923 O 0.84016 0.14593 0.37675 0.0
H924 H 0.83371 0.15409 0.35619 0.0
C925 C 0.85558 0.10792 0.36306 0.0
C926 C 0.84185 0.10682 0.37107 0.0
C927 C 0.86445 0.12181 0.36009 0.0
C928 C 0.85935 0.13462 0.36506 0.0
C929 C 0.84549 0.1336 0.3727 0.0
C930 C 0.8369 0.11979 0.37584 0.0
H931 H 0.64155 0.12069 0.18034 0.0
H932 H 0.68174 0.10076 0.16861 0.0
H933 H 0.66294 0.0917 0.21051 0.0
H934 H 0.70218 0.0849 0.21054 0.0
C935 C 0.70042 0.09039 0.19971 0.0
O936 O 0.68402 0.08592 0.19284 0.0
H937 H 0.70362 0.10252 0.20275 0.0
C938 C 0.65076 0.11392 0.18321 0.0
C939 C 0.65093 0.10661 0.1968 0.0
C940 C 0.66178 0.1119 0.17288 0.0
C941 C 0.67311 0.1025 0.17635 0.0
C942 C 0.6735 0.09533 0.1899 0.0
C943 C 0.6625 0.0974 0.2001 0.0
H944 H 0.60322 0.89786 0.85603 0.0
H945 H 0.57295 0.85633 0.86452 0.0
H946 H 0.61701 0.87543 0.89573 0.0
H947 H 0.61209 0.84388 0.88184 0.0
C948 C 0.59936 0.84022 0.88493 0.0
O949 O 0.59287 0.85234 0.88881 0.0
H950 H 0.59126 0.83389 0.8748 0.0
C951 C 0.60056 0.88863 0.863 0.0
C952 C 0.61143 0.88822 0.87656 0.0
C953 C 0.58642 0.87731 0.85845 0.0
C954 C 0.58366 0.86526 0.8676 0.0
C955 C 0.59487 0.86449 0.88081 0.0
C956 C 0.6085 0.87609 0.88543 0.0
H957 H 0.87907 0.1375 0.90129 0.0
H958 H 0.92849 0.14554 0.88887 0.0
H959 H 0.89601 0.10339 0.87669 0.0
H960 H 0.93146 0.10207 0.88647 0.0
C961 C 0.93743 0.11286 0.8827 0.0
O962 O 0.92538 0.11943 0.875 0.0
H963 H 0.94397 0.11997 0.89303 0.0
C964 C 0.88865 0.13368 0.89587 0.0
C965 C 0.88555 0.11922 0.88907 0.0
C966 C 0.90409 0.14324 0.89594 0.0
C967 C 0.91651 0.1383 0.88896 0.0
C968 C 0.91348 0.12399 0.88194 0.0
C969 C 0.89805 0.1145 0.88197 0.0
H970 H 0.67615 0.18431 0.63003 0.0
H971 H 0.69313 0.14355 0.63752 0.0
H972 H 0.69926 0.16455 0.59601 0.0
H973 H 0.69394 0.13171 0.59079 0.0
C974 C 0.69498 0.12957 0.60309 0.0
O975 O 0.70433 0.142 0.61155 0.0
H976 H 0.6821 0.12697 0.60608 0.0
C977 C 0.68217 0.17562 0.62633 0.0
C978 C 0.68753 0.1759 0.61198 0.0
C979 C 0.68397 0.16395 0.63567 0.0
C980 C 0.69181 0.15278 0.63067 0.0
C981 C 0.69731 0.15305 0.61642 0.0
C982 C 0.69513 0.16455 0.60709 0.0
H983 H 0.59192 0.83879 0.34439 0.0
H984 H 0.5398 0.81901 0.33211 0.0
H985 H 0.56097 0.85649 0.30957 0.0
H986 H 0.52942 0.8578 0.32004 0.0
C987 C 0.52307 0.846 0.31782 0.0
O988 O 0.53362 0.83791 0.31215 0.0
H989 H 0.51988 0.84183 0.32884 0.0
C990 C 0.57998 0.83838 0.33736 0.0
C991 C 0.57835 0.84904 0.32671 0.0
C992 C 0.56624 0.8274 0.33937 0.0
C993 C 0.55067 0.82711 0.33049 0.0
C994 C 0.54885 0.83771 0.31994 0.0
C995 C 0.56265 0.84847 0.31789 0.0
H996 H 0.85037 0.8994 0.15512 0.0
H997 H 0.87007 0.8624 0.13974 0.0
H998 H 0.83566 0.87987 0.10898 0.0
H999 H 0.82611 0.8489 0.1123 0.0
C1000 C 0.83857 0.84574 0.11339 0.0
O1001 O 0.85093 0.85815 0.11345 0.0
H1002 H 0.84071 0.8405 0.12437 0.0
C1003 C 0.85146 0.89162 0.14604 0.0
C1004 C 0.84188 0.89146 0.13154 0.0
C1005 C 0.86212 0.88152 0.14914 0.0
C1006 C 0.86226 0.87051 0.13776 0.0
C1007 C 0.85219 0.86973 0.12363 0.0
C1008 C 0.84264 0.88046 0.12032 0.0
H1009 H 0.09694 0.6652 0.12818 0.0
H1010 H 0.11457 0.62603 0.14216 0.0
H1011 H 0.13151 0.64761 0.10407 0.0
H1012 H 0.11806 0.61452 0.10076 0.0
C1013 C 0.12494 0.61196 0.11172 0.0
O1014 O 0.13226 0.62493 0.12034 0.0
H1015 H 0.11588 0.60512 0.11802 0.0
C1016 C 0.10444 0.65696 0.12685 0.0
C1017 C 0.11465 0.65816 0.11529 0.0
C1018 C 0.10408 0.64539 0.13674 0.0
C1019 C 0.11404 0.63487 0.13463 0.0
C1020 C 0.12353 0.63556 0.12269 0.0
C1021 C 0.12395 0.6472 0.11316 0.0
H1022 H 0.11259 0.35818 0.84832 0.0
H1023 H 0.06621 0.3326 0.82437 0.0
H1024 H 0.09311 0.36824 0.80321 0.0
H1025 H 0.05679 0.36528 0.79329 0.0
C1026 C 0.0532 0.35499 0.79909 0.0
O1027 O 0.06638 0.34765 0.80033 0.0
H1028 H 0.05032 0.3581 0.81055 0.0
C1029 C 0.10311 0.35589 0.83833 0.0
C1030 C 0.1049 0.36452 0.82573 0.0
C1031 C 0.08912 0.34439 0.83815 0.0
C1032 C 0.07697 0.34151 0.82503 0.0
C1033 C 0.0785 0.35015 0.81258 0.0
C1034 C 0.09238 0.36155 0.8129 0.0
H1035 H 0.34636 0.39123 0.63573 0.0
H1036 H 0.36052 0.35312 0.6156 0.0
H1037 H 0.32098 0.37102 0.59191 0.0
H1038 H 0.36063 0.35863 0.58203 0.0
C1039 C 0.3472 0.35361 0.57826 0.0
O1040 O 0.33907 0.35095 0.59075 0.0
H1041 H 0.34151 0.36154 0.57123 0.0
C1042 C 0.34452 0.38266 0.62659 0.0
C1043 C 0.3323 0.38252 0.61377 0.0
C1044 C 0.35482 0.37211 0.62744 0.0
C1045 C 0.35286 0.36144 0.61521 0.0
C1046 C 0.34081 0.36124 0.60243 0.0
C1047 C 0.33046 0.37159 0.6018 0.0
H1048 H 0.13308 0.60571 0.66988 0.0
H1049 H 0.16563 0.57651 0.6591 0.0
H1050 H 0.13265 0.56517 0.69183 0.0
H1051 H 0.16395 0.54901 0.69666 0.0
C1052 C 0.16814 0.55421 0.68643 0.0
O1053 O 0.15438 0.55638 0.67671 0.0
H1054 H 0.17684 0.56487 0.69044 0.0
C1055 C 0.13827 0.59592 0.6718 0.0
C1056 C 0.13186 0.58616 0.68221 0.0
C1057 C 0.15045 0.59265 0.66323 0.0
C1058 C 0.15622 0.57939 0.66541 0.0
C1059 C 0.14973 0.56956 0.67564 0.0
C1060 C 0.13765 0.57295 0.68404 0.0
H1061 H 0.39431 0.39377 0.17887 0.0
H1062 H 0.35116 0.40728 0.15533 0.0
H1063 H 0.38277 0.43584 0.19152 0.0
H1064 H 0.347 0.43694 0.19099 0.0
C1065 C 0.34245 0.4323 0.17904 0.0
O1066 O 0.35588 0.43258 0.17129 0.0
H1067 H 0.33561 0.42074 0.17946 0.0
C1068 C 0.38631 0.40181 0.17757 0.0
C1069 C 0.39046 0.41518 0.18673 0.0
C1070 C 0.3722 0.3989 0.16627 0.0
C1071 C 0.36212 0.40943 0.16401 0.0
C1072 C 0.3659 0.42264 0.17325 0.0
C1073 C 0.38005 0.42555 0.1845 0.0
H1074 H 0.6456 0.38637 0.17543 0.0
H1075 H 0.62945 0.33942 0.16566 0.0
H1076 H 0.67046 0.36268 0.14588 0.0
H1077 H 0.64594 0.34077 0.12528 0.0
C1078 C 0.64307 0.33213 0.13339 0.0
O1079 O 0.65154 0.33698 0.14778 0.0
H1080 H 0.62938 0.32995 0.13374 0.0
C1081 C 0.64688 0.37615 0.16972 0.0
C1082 C 0.65936 0.37632 0.16036 0.0
C1083 C 0.63605 0.36294 0.17187 0.0
C1084 C 0.63774 0.34973 0.16436 0.0
C1085 C 0.65001 0.34975 0.15491 0.0
C1086 C 0.66084 0.36296 0.153 0.0
H1087 H 0.87443 0.6136 0.63809 0.0
H1088 H 0.8979 0.65766 0.6299 0.0
H1089 H 0.851 0.63723 0.60332 0.0
H1090 H 0.87161 0.65679 0.58467 0.0
C1091 C 0.88124 0.66228 0.59428 0.0
O1092 O 0.87468 0.66084 0.60775 0.0
H1093 H 0.89219 0.6568 0.5945 0.0
C1094 C 0.87439 0.6234 0.63185 0.0
C1095 C 0.86099 0.62382 0.6203 0.0
C1096 C 0.88772 0.63554 0.6355 0.0
C1097 C 0.88768 0.64821 0.62734 0.0
C1098 C 0.87455 0.64866 0.61564 0.0
C1099 C 0.86121 0.63657 0.61221 0.0
H1100 H 0.63677 0.40818 0.6238 0.0
H1101 H 0.59801 0.38862 0.64874 0.0
H1102 H 0.6143 0.43569 0.65177 0.0
H1103 H 0.60869 0.42283 0.68095 0.0
C1104 C 0.598 0.41364 0.6766 0.0
O1105 O 0.5941 0.41374 0.661 0.0
H1106 H 0.60173 0.40306 0.67959 0.0
C1107 C 0.62771 0.40944 0.63128 0.0
C1108 C 0.62681 0.4236 0.63708 0.0
C1109 C 0.61733 0.39676 0.63529 0.0
C1110 C 0.60618 0.39827 0.64557 0.0
C1111 C 0.60523 0.41231 0.65152 0.0
C1112 C 0.61543 0.42492 0.64725 0.0
H1113 H 0.34285 0.57966 0.80808 0.0
H1114 H 0.34274 0.62633 0.81007 0.0
H1115 H 0.30267 0.59633 0.8246 0.0
H1116 H 0.29369 0.62174 0.80645 0.0
C1117 C 0.30493 0.63021 0.81126 0.0
O1118 O 0.31512 0.62395 0.82162 0.0
H1119 H 0.31177 0.63429 0.80183 0.0
C1120 C 0.33689 0.58881 0.81047 0.0
C1121 C 0.32177 0.58614 0.81652 0.0
C1122 C 0.34472 0.60329 0.80815 0.0
C1123 C 0.33711 0.61508 0.81185 0.0
C1124 C 0.32199 0.61249 0.81768 0.0
C1125 C 0.31436 0.59811 0.82001 0.0
H1126 H 0.15478 0.40263 0.36347 0.0
H1127 H 0.14129 0.35584 0.36733 0.0
H1128 H 0.17353 0.38323 0.40396 0.0
H1129 H 0.18344 0.35591 0.39702 0.0
C1130 C 0.17101 0.3485 0.3936 0.0
O1131 O 0.15848 0.35631 0.39455 0.0
H1132 H 0.17039 0.34409 0.38161 0.0
C1133 C 0.15587 0.39305 0.36985 0.0
C1134 C 0.16538 0.39481 0.38448 0.0
C1135 C 0.14716 0.37908 0.36354 0.0
C1136 C 0.1479 0.36671 0.37204 0.0
C1137 C 0.15747 0.36829 0.38655 0.0
C1138 C 0.16609 0.38227 0.39277 0.0
H1139 H 0.36685 0.59864 0.36512 0.0
H1140 H 0.41231 0.60763 0.34527 0.0
H1141 H 0.38249 0.56376 0.34084 0.0
H1142 H 0.42179 0.56355 0.336 0.0
C1143 C 0.42298 0.57516 0.34052 0.0
O1144 O 0.40941 0.58054 0.33383 0.0
H1145 H 0.4234 0.57493 0.35312 0.0
C1146 C 0.37573 0.59497 0.35862 0.0
C1147 C 0.37297 0.58012 0.35325 0.0
C1148 C 0.38999 0.60501 0.35602 0.0
C1149 C 0.40121 0.6001 0.3474 0.0
C1150 C 0.39846 0.58525 0.34194 0.0
C1151 C 0.38443 0.57525 0.34496 0.0
H1152 H 0.17371 0.48062 0.08008 0.0
H1153 H 0.22284 0.47107 0.07769 0.0
H1154 H 0.213 0.44556 0.08439 0.0
H1155 H 0.16494 0.4585 0.11217 0.0
H1156 H 0.14309 0.4525 0.10466 0.0
H1157 H 0.15425 0.47017 0.10034 0.0
H1158 H 0.14549 0.46279 0.07143 0.0
H1159 H 0.13433 0.4451 0.07566 0.0
H1160 H 0.15024 0.44608 0.06349 0.0
H1161 H 0.19716 0.42061 0.08941 0.0
H1162 H 0.17685 0.39834 0.0938 0.0
H1163 H 0.13833 0.42437 0.09382 0.0
C1164 C 0.1824 0.47317 0.08109 0.0
C1165 C 0.1991 0.47784 0.07864 0.0
C1166 C 0.21013 0.46781 0.07996 0.0
C1167 C 0.20461 0.45327 0.08362 0.0
C1168 C 0.18805 0.449 0.086 0.0
C1169 C 0.17714 0.45868 0.08491 0.0
C1170 C 0.15993 0.45127 0.08781 0.0
C1171 C 0.15529 0.45854 0.1021 0.0
C1172 C 0.14672 0.45132 0.07376 0.0
C1173 C 0.16277 0.43583 0.09044 0.0
C1174 C 0.17906 0.43473 0.0893 0.0
C1175 C 0.18444 0.42137 0.09052 0.0
C1176 C 0.17284 0.40881 0.09296 0.0
C1177 C 0.15615 0.40974 0.09428 0.0
C1178 C 0.15112 0.42345 0.09312 0.0
H1179 H 0.78944 0.9464 0.37087 0.0
H1180 H 0.74123 0.91909 0.37418 0.0
H1181 H 0.75506 0.89836 0.38121 0.0
H1182 H 0.80743 0.91835 0.35487 0.0
H1183 H 0.82797 0.92517 0.36545 0.0
H1184 H 0.81414 0.93773 0.36073 0.0
H1185 H 0.81713 0.94637 0.38935 0.0
H1186 H 0.83094 0.9338 0.39416 0.0
H1187 H 0.81241 0.93292 0.40302 0.0
H1188 H 0.77454 0.88043 0.3876 0.0
H1189 H 0.79775 0.86686 0.39203 0.0
H1190 H 0.83295 0.9066 0.38559 0.0
C1191 C 0.78176 0.93607 0.37309 0.0
C1192 C 0.7642 0.93427 0.37163 0.0
C1193 C 0.75462 0.92059 0.37468 0.0
C1194 C 0.76241 0.9088 0.3789 0.0
C1195 C 0.77977 0.91094 0.38012 0.0
C1196 C 0.7893 0.92427 0.37732 0.0
C1197 C 0.8077 0.92378 0.37924 0.0
C1198 C 0.81471 0.92641 0.36418 0.0
C1199 C 0.81762 0.93487 0.39222 0.0
C1200 C 0.80706 0.90805 0.38345 0.0
C1201 C 0.79088 0.9008 0.38398 0.0
C1202 C 0.78727 0.88603 0.3873 0.0
C1203 C 0.80052 0.87845 0.38989 0.0
C1204 C 0.81715 0.88564 0.38909 0.0
C1205 C 0.82037 0.90071 0.38609 0.0
H1206 H 0.29068 0.53167 0.59939 0.0
H1207 H 0.28692 0.5165 0.55181 0.0
H1208 H 0.30782 0.53861 0.548 0.0
H1209 H 0.2945 0.57005 0.59377 0.0
H1210 H 0.3091 0.57578 0.61102 0.0
H1211 H 0.29399 0.55877 0.60983 0.0
H1212 H 0.31784 0.54447 0.61688 0.0
H1213 H 0.33303 0.56145 0.61814 0.0
H1214 H 0.33468 0.54605 0.60568 0.0
H1215 H 0.32922 0.56288 0.54966 0.0
H1216 H 0.34976 0.58631 0.5569 0.0
H1217 H 0.33857 0.58493 0.60322 0.0
C1218 C 0.29422 0.53291 0.58814 0.0
C1219 C 0.28714 0.52234 0.57589 0.0
C1220 C 0.29219 0.52445 0.56137 0.0
C1221 C 0.30402 0.53698 0.5591 0.0
C1222 C 0.31064 0.54724 0.57145 0.0
C1223 C 0.30592 0.54526 0.58569 0.0
C1224 C 0.31484 0.55774 0.59718 0.0
C1225 C 0.30236 0.56608 0.6033 0.0
C1226 C 0.32575 0.55209 0.61023 0.0
C1227 C 0.3254 0.5671 0.58723 0.0
C1228 C 0.32282 0.56096 0.57241 0.0
C1229 C 0.33132 0.56776 0.56124 0.0
C1230 C 0.34288 0.58108 0.56542 0.0
C1231 C 0.34584 0.58735 0.58064 0.0
C1232 C 0.33679 0.58028 0.59156 0.0
H1233 H 0.68413 0.03884 0.91579 0.0
H1234 H 0.73563 0.05937 0.93276 0.0
H1235 H 0.72947 0.0838 0.92678 0.0
H1236 H 0.67895 0.06227 0.8843 0.0
H1237 H 0.65757 0.06276 0.8862 0.0
H1238 H 0.66616 0.04692 0.89164 0.0
H1239 H 0.65798 0.04991 0.9186 0.0
H1240 H 0.64942 0.06579 0.91327 0.0
H1241 H 0.66528 0.06728 0.92975 0.0
H1242 H 0.71716 0.10615 0.92044 0.0
H1243 H 0.70012 0.12456 0.91222 0.0
H1244 H 0.65708 0.0893 0.89819 0.0
C1245 C 0.69411 0.04849 0.91815 0.0
C1246 C 0.7104 0.04725 0.92456 0.0
C1247 C 0.72316 0.06007 0.92752 0.0
C1248 C 0.71974 0.07399 0.92429 0.0
C1249 C 0.70353 0.07485 0.91797 0.0
C1250 C 0.69097 0.06242 0.91476 0.0
C1251 C 0.67465 0.06634 0.90783 0.0
C1252 C 0.66901 0.05915 0.89152 0.0
C1253 C 0.66103 0.06208 0.91797 0.0
C1254 C 0.67994 0.08293 0.90782 0.0
C1255 C 0.69661 0.08765 0.91383 0.0
C1256 C 0.70414 0.10258 0.91557 0.0
C1257 C 0.6944 0.11294 0.91094 0.0
C1258 C 0.6774 0.10828 0.9045 0.0
C1259 C 0.67013 0.09309 0.9029 0.0
H1260 H 0.19555 0.5757 0.41769 0.0
H1261 H 0.22411 0.58373 0.38022 0.0
H1262 H 0.21261 0.60609 0.3753 0.0
H1263 H 0.15941 0.58507 0.39988 0.0
H1264 H 0.15419 0.59385 0.4166 0.0
H1265 H 0.16636 0.57966 0.41858 0.0
H1266 H 0.18974 0.59752 0.43666 0.0
H1267 H 0.17758 0.61178 0.43478 0.0
H1268 H 0.19864 0.61518 0.43041 0.0
H1269 H 0.19533 0.62556 0.37228 0.0
H1270 H 0.17412 0.64126 0.37202 0.0
H1271 H 0.15726 0.62096 0.4117 0.0
C1272 C 0.19971 0.58234 0.40868 0.0
C1273 C 0.21077 0.57795 0.39936 0.0
C1274 C 0.2157 0.58686 0.38755 0.0
C1275 C 0.20926 0.59962 0.38467 0.0
C1276 C 0.19804 0.60341 0.39381 0.0
C1277 C 0.19343 0.59512 0.40568 0.0
C1278 C 0.18025 0.60098 0.41308 0.0
C1279 C 0.1641 0.58919 0.41196 0.0
C1280 C 0.18696 0.60671 0.42972 0.0
C1281 C 0.17775 0.61353 0.40318 0.0
C1282 C 0.18823 0.61483 0.39221 0.0
C1283 C 0.18728 0.62484 0.38099 0.0
C1284 C 0.17518 0.63365 0.38088 0.0
C1285 C 0.16425 0.6324 0.39194 0.0
C1286 C 0.16576 0.62237 0.40335 0.0
H1287 H 0.6997 0.9657 0.61713 0.0
H1288 H 0.69855 0.97768 0.57028 0.0
H1289 H 0.67463 0.95705 0.56222 0.0
H1290 H 0.69204 0.92771 0.60904 0.0
H1291 H 0.67915 0.9232 0.62367 0.0
H1292 H 0.69484 0.93988 0.62603 0.0
H1293 H 0.67235 0.95528 0.62988 0.0
H1294 H 0.65656 0.9386 0.62761 0.0
H1295 H 0.6541 0.95351 0.61564 0.0
H1296 H 0.65269 0.93368 0.55895 0.0
H1297 H 0.63394 0.90975 0.56085 0.0
H1298 H 0.64964 0.91314 0.60981 0.0
C1299 C 0.69423 0.9642 0.60521 0.0
C1300 C 0.70099 0.97335 0.59434 0.0
C1301 C 0.69356 0.97086 0.57883 0.0
C1302 C 0.67995 0.95917 0.57414 0.0
C1303 C 0.67386 0.95015 0.58512 0.0
C1304 C 0.68068 0.95261 0.60035 0.0
C1305 C 0.67253 0.9408 0.60974 0.0
C1306 C 0.68541 0.93241 0.61757 0.0
C1307 C 0.66334 0.94745 0.62141 0.0
C1308 C 0.66035 0.9311 0.59735 0.0
C1309 C 0.66121 0.93673 0.58324 0.0
C1310 C 0.65177 0.92926 0.56996 0.0
C1311 C 0.64126 0.91564 0.57114 0.0
C1312 C 0.6403 0.90964 0.58548 0.0
C1313 C 0.64987 0.91759 0.59873 0.0
H1314 H 0.28664 0.42537 0.86246 0.0
H1315 H 0.29569 0.45348 0.90446 0.0
H1316 H 0.31679 0.43949 0.91533 0.0
H1317 H 0.28965 0.39184 0.87961 0.0
H1318 H 0.2998 0.38487 0.86492 0.0
H1319 H 0.28589 0.39741 0.86043 0.0
H1320 H 0.30938 0.41512 0.84992 0.0
H1321 H 0.32335 0.40261 0.85433 0.0
H1322 H 0.32922 0.42158 0.86189 0.0
H1323 H 0.33656 0.42174 0.92168 0.0
H1324 H 0.35375 0.40246 0.92255 0.0
H1325 H 0.33085 0.38617 0.87644 0.0
C1326 C 0.29309 0.4287 0.87393 0.0
C1327 C 0.28951 0.44055 0.88261 0.0
C1328 C 0.29825 0.44446 0.89757 0.0
C1329 C 0.31023 0.43656 0.90385 0.0
C1330 C 0.3133 0.42483 0.89499 0.0
C1331 C 0.305 0.42098 0.88033 0.0
C1332 C 0.31034 0.40787 0.87316 0.0
C1333 C 0.29554 0.39472 0.86931 0.0
C1334 C 0.31856 0.41205 0.85899 0.0
C1335 C 0.32295 0.40488 0.88608 0.0
C1336 C 0.32453 0.41473 0.8986 0.0
C1337 C 0.33543 0.41399 0.91192 0.0
C1338 C 0.34506 0.40296 0.91235 0.0
C1339 C 0.34372 0.39288 0.89953 0.0
C1340 C 0.33239 0.39386 0.88633 0.0
H1341 H 0.78199 0.02623 0.06802 0.0
H1342 H 0.79133 0.00584 0.1106 0.0
H1343 H 0.81697 0.02479 0.11842 0.0
H1344 H 0.8241 0.03733 0.06175 0.0
H1345 H 0.82175 0.05499 0.0549 0.0
H1346 H 0.80405 0.03985 0.05246 0.0
H1347 H 0.78725 0.05572 0.06649 0.0
H1348 H 0.80483 0.07097 0.06882 0.0
H1349 H 0.79594 0.06427 0.08525 0.0
H1350 H 0.84282 0.04405 0.12032 0.0
H1351 H 0.86526 0.06518 0.11855 0.0
H1352 H 0.83729 0.0757 0.07653 0.0
C1353 C 0.78942 0.02591 0.07902 0.0
C1354 C 0.78482 0.01466 0.08876 0.0
C1355 C 0.79467 0.0145 0.1031 0.0
C1356 C 0.80927 0.02513 0.10757 0.0
C1357 C 0.81361 0.03601 0.0977 0.0
C1358 C 0.80381 0.03675 0.0839 0.0
C1359 C 0.81107 0.05003 0.0758 0.0
C1360 C 0.81551 0.04526 0.06031 0.0
C1361 C 0.79906 0.06089 0.07399 0.0
C1362 C 0.82667 0.0564 0.08706 0.0
C1363 C 0.82796 0.04798 0.09946 0.0
C1364 C 0.84173 0.05102 0.1109 0.0
C1365 C 0.85438 0.06321 0.10983 0.0
C1366 C 0.85304 0.07258 0.09763 0.0
C1367 C 0.83893 0.06893 0.08604 0.0
H1368 H 0.14812 0.1952 0.41466 0.0
H1369 H 0.15975 0.1644 0.44815 0.0
H1370 H 0.1553 0.1446 0.42749 0.0
H1371 H 0.11553 0.17009 0.39086 0.0
H1372 H 0.12102 0.17749 0.37338 0.0
H1373 H 0.12549 0.1892 0.39079 0.0
H1374 H 0.15672 0.19583 0.3874 0.0
H1375 H 0.15236 0.18413 0.36998 0.0
H1376 H 0.16811 0.18125 0.38515 0.0
H1377 H 0.14917 0.12807 0.40295 0.0
H1378 H 0.14125 0.11617 0.37677 0.0
H1379 H 0.13413 0.15814 0.35974 0.0
C1380 C 0.14978 0.18432 0.41771 0.0
C1381 C 0.1543 0.18138 0.43305 0.0
C1382 C 0.15629 0.16694 0.43648 0.0
C1383 C 0.15382 0.15562 0.42483 0.0
C1384 C 0.14938 0.15894 0.40982 0.0
C1385 C 0.14737 0.17294 0.40627 0.0
C1386 C 0.14233 0.17366 0.38931 0.0
C1387 C 0.12507 0.17785 0.38589 0.0
C1388 C 0.15568 0.18435 0.38257 0.0
C1389 C 0.14169 0.15783 0.38386 0.0
C1390 C 0.14586 0.1495 0.39582 0.0
C1391 C 0.14595 0.13451 0.3935 0.0
C1392 C 0.14153 0.12787 0.37859 0.0
C1393 C 0.13703 0.13621 0.36621 0.0
C1394 C 0.13729 0.15141 0.36896 0.0
H1395 H 0.0678 0.87562 0.72755 0.0
H1396 H 0.06567 0.83545 0.7514 0.0
H1397 H 0.086 0.82781 0.73623 0.0
H1398 H 0.06989 0.85932 0.69093 0.0
H1399 H 0.08398 0.87507 0.68572 0.0
H1400 H 0.06975 0.87757 0.69884 0.0
H1401 H 0.09463 0.89098 0.71883 0.0
H1402 H 0.10894 0.88854 0.70575 0.0
H1403 H 0.11178 0.88191 0.72455 0.0
H1404 H 0.10635 0.82446 0.71808 0.0
H1405 H 0.12506 0.8257 0.69846 0.0
H1406 H 0.11291 0.86771 0.68617 0.0
C1407 C 0.07167 0.86525 0.72969 0.0
C1408 C 0.06517 0.85615 0.74071 0.0
C1409 C 0.07049 0.84262 0.74303 0.0
C1410 C 0.08204 0.83818 0.73448 0.0
C1411 C 0.0881 0.84739 0.72364 0.0
C1412 C 0.08309 0.86064 0.72123 0.0
C1413 C 0.09115 0.86838 0.70867 0.0
C1414 C 0.0779 0.87018 0.69525 0.0
C1415 C 0.10228 0.88334 0.71482 0.0
C1416 C 0.10149 0.85741 0.70436 0.0
C1417 C 0.09961 0.84539 0.71313 0.0
C1418 C 0.1079 0.83381 0.71114 0.0
C1419 C 0.11841 0.83457 0.6999 0.0
C1420 C 0.1205 0.84681 0.69078 0.0
C1421 C 0.11183 0.85832 0.6931 0.0
H1422 H 0.31309 0.78444 0.88588 0.0
H1423 H 0.33324 0.78322 0.93351 0.0
H1424 H 0.34822 0.80899 0.93386 0.0
H1425 H 0.35156 0.80581 0.87571 0.0
H1426 H 0.34062 0.81581 0.86207 0.0
H1427 H 0.33117 0.79733 0.86572 0.0
H1428 H 0.30508 0.80666 0.8723 0.0
H1429 H 0.31446 0.82517 0.86871 0.0
H1430 H 0.30764 0.82147 0.88685 0.0
H1431 H 0.35954 0.83553 0.92935 0.0
H1432 H 0.36856 0.86005 0.91956 0.0
H1433 H 0.34351 0.84306 0.87433 0.0
C1434 C 0.32072 0.78957 0.89637 0.0
C1435 C 0.3213 0.78205 0.9099 0.0
C1436 C 0.33168 0.78905 0.9233 0.0
C1437 C 0.34052 0.80361 0.92352 0.0
C1438 C 0.33924 0.81088 0.91012 0.0
C1439 C 0.32986 0.804 0.89671 0.0
C1440 C 0.33084 0.81413 0.88379 0.0
C1441 C 0.33904 0.8079 0.87107 0.0
C1442 C 0.31347 0.81703 0.87755 0.0
C1443 C 0.34203 0.82786 0.89208 0.0
C1444 C 0.34666 0.82581 0.90729 0.0
C1445 C 0.35622 0.8372 0.91742 0.0
C1446 C 0.36125 0.85105 0.91181 0.0
C1447 C 0.35687 0.85323 0.89623 0.0
C1448 C 0.34722 0.8415 0.88625 0.0
H1449 H 0.46984 0.14176 0.23757 0.0
H1450 H 0.51241 0.16049 0.21593 0.0
H1451 H 0.49343 0.16204 0.19226 0.0
H1452 H 0.44617 0.12009 0.20547 0.0
H1453 H 0.42623 0.12338 0.20936 0.0
H1454 H 0.44306 0.12408 0.22482 0.0
H1455 H 0.44062 0.15056 0.23353 0.0
H1456 H 0.42364 0.1499 0.21819 0.0
H1457 H 0.44175 0.16464 0.22007 0.0
H1458 H 0.47005 0.16065 0.17071 0.0
H1459 H 0.44371 0.15698 0.1528 0.0
H1460 H 0.41614 0.14077 0.18903 0.0
C1461 C 0.47515 0.14666 0.22808 0.0
C1462 C 0.4926 0.15134 0.22876 0.0
C1463 C 0.49907 0.15691 0.21571 0.0
C1464 C 0.4884 0.15787 0.20222 0.0
C1465 C 0.47127 0.15324 0.20196 0.0
C1466 C 0.46465 0.14782 0.21455 0.0
C1467 C 0.44579 0.14333 0.21114 0.0
C1468 C 0.43998 0.12674 0.21279 0.0
C1469 C 0.43746 0.15267 0.22134 0.0
C1470 C 0.44286 0.14698 0.19463 0.0
C1471 C 0.45773 0.15265 0.18956 0.0
C1472 C 0.45829 0.1564 0.17459 0.0
C1473 C 0.44323 0.15436 0.16452 0.0
C1474 C 0.42777 0.14869 0.16947 0.0
C1475 C 0.4277 0.14501 0.18479 0.0
H1476 H 0.1064 0.80201 0.10278 0.0
H1477 H 0.05544 0.80675 0.08748 0.0
H1478 H 0.05632 0.82271 0.11072 0.0
H1479 H 0.10372 0.80258 0.14419 0.0
H1480 H 0.12475 0.81307 0.14913 0.0
H1481 H 0.11931 0.80049 0.1323 0.0
H1482 H 0.13002 0.8218 0.11592 0.0
H1483 H 0.13536 0.83445 0.13262 0.0
H1484 H 0.12153 0.83836 0.11641 0.0
H1485 H 0.0638 0.84026 0.13416 0.0
H1486 H 0.07726 0.85791 0.156 0.0
H1487 H 0.12316 0.84136 0.15613 0.0
C1488 C 0.09527 0.80611 0.10446 0.0
C1489 C 0.08082 0.80307 0.09332 0.0
C1490 C 0.06663 0.80887 0.09587 0.0
C1491 C 0.067 0.81793 0.10906 0.0
C1492 C 0.0816 0.821 0.11961 0.0
C1493 C 0.09544 0.81518 0.11751 0.0
C1494 C 0.11 0.82105 0.12997 0.0
C1495 C 0.11472 0.80855 0.13946 0.0
C1496 C 0.12511 0.82941 0.12333 0.0
C1497 C 0.10236 0.83143 0.13915 0.0
C1498 C 0.08591 0.83113 0.13311 0.0
C1499 C 0.07658 0.84041 0.13915 0.0
C1500 C 0.08432 0.85036 0.1516 0.0
C1501 C 0.10126 0.851 0.15783 0.0
C1502 C 0.11023 0.84121 0.1516 0.0
H1503 H 0.33203 0.80464 0.26505 0.0
H1504 H 0.36046 0.84266 0.24705 0.0
H1505 H 0.367 0.85552 0.27285 0.0
H1506 H 0.31424 0.82421 0.29189 0.0
H1507 H 0.31597 0.8113 0.30638 0.0
H1508 H 0.3137 0.80508 0.28655 0.0
H1509 H 0.34085 0.79468 0.2918 0.0
H1510 H 0.34316 0.8008 0.31166 0.0
H1511 H 0.35991 0.80668 0.30084 0.0
H1512 H 0.36903 0.86466 0.30042 0.0
H1513 H 0.36865 0.86851 0.32817 0.0
H1514 H 0.34005 0.82404 0.32823 0.0
C1515 C 0.33968 0.81565 0.26659 0.0
C1516 C 0.34589 0.82266 0.25416 0.0
C1517 C 0.35588 0.83703 0.25653 0.0
C1518 C 0.35953 0.84445 0.2711 0.0
C1519 C 0.35319 0.83725 0.28314 0.0
C1520 C 0.34366 0.8231 0.28108 0.0
C1521 C 0.33863 0.8177 0.29594 0.0
C1522 C 0.3195 0.81438 0.29513 0.0
C1523 C 0.34609 0.80416 0.30031 0.0
C1524 C 0.34664 0.83108 0.30667 0.0
C1525 C 0.35486 0.8423 0.29906 0.0
C1526 C 0.36276 0.85591 0.30652 0.0
C1527 C 0.36242 0.85803 0.32222 0.0
C1528 C 0.3544 0.84654 0.33025 0.0
C1529 C 0.3464 0.83294 0.32234 0.0
H1530 H 0.39266 0.19304 0.57107 0.0
H1531 H 0.35036 0.21398 0.57494 0.0
H1532 H 0.34816 0.20404 0.60008 0.0
H1533 H 0.37714 0.16009 0.58735 0.0
H1534 H 0.39712 0.15816 0.59731 0.0
H1535 H 0.39608 0.1677 0.58006 0.0
H1536 H 0.41609 0.19073 0.59437 0.0
H1537 H 0.41718 0.18125 0.61168 0.0
H1538 H 0.41085 0.19885 0.61144 0.0
H1539 H 0.34921 0.19038 0.62387 0.0
H1540 H 0.35393 0.17433 0.64496 0.0
H1541 H 0.39585 0.16277 0.62589 0.0
C1542 C 0.38304 0.19567 0.57725 0.0
C1543 C 0.37168 0.2043 0.57101 0.0
C1544 C 0.35923 0.20742 0.57948 0.0
C1545 C 0.35788 0.20184 0.59379 0.0
C1546 C 0.36916 0.19326 0.59953 0.0
C1547 C 0.38156 0.19026 0.59159 0.0
C1548 C 0.39174 0.18034 0.60009 0.0
C1549 C 0.39043 0.16571 0.59064 0.0
C1550 C 0.41005 0.18827 0.60467 0.0
C1551 C 0.38291 0.178 0.61392 0.0
C1552 C 0.36995 0.18559 0.6134 0.0
C1553 C 0.35944 0.18453 0.6245 0.0
C1554 C 0.36216 0.17536 0.63638 0.0
C1555 C 0.37532 0.16744 0.63707 0.0
C1556 C 0.38591 0.16894 0.62578 0.0
H1557 H 0.07058 0.11923 0.79775 0.0
H1558 H 0.09226 0.16176 0.78296 0.0
H1559 H 0.10652 0.16945 0.80925 0.0
H1560 H 0.06302 0.13277 0.83452 0.0
H1561 H 0.06823 0.11712 0.84409 0.0
H1562 H 0.05973 0.11502 0.82412 0.0
H1563 H 0.08531 0.10458 0.81803 0.0
H1564 H 0.09394 0.1067 0.83796 0.0
H1565 H 0.10608 0.11523 0.82415 0.0
H1566 H 0.11783 0.17271 0.83712 0.0
H1567 H 0.12656 0.17096 0.86464 0.0
H1568 H 0.09766 0.12624 0.86135 0.0
C1569 C 0.07804 0.13026 0.80011 0.0
C1570 C 0.08004 0.14004 0.78841 0.0
C1571 C 0.09052 0.15414 0.7918 0.0
C1572 C 0.09861 0.15862 0.80668 0.0
C1573 C 0.09619 0.14879 0.81801 0.0
C1574 C 0.08624 0.13488 0.8149 0.0
C1575 C 0.08597 0.12637 0.8291 0.0
C1576 C 0.06818 0.1226 0.8332 0.0
C1577 C 0.09326 0.1124 0.82719 0.0
C1578 C 0.09735 0.13767 0.84067 0.0
C1579 C 0.10302 0.15056 0.83404 0.0
C1580 C 0.11349 0.16268 0.84244 0.0
C1581 C 0.11833 0.1616 0.85806 0.0
C1582 C 0.11277 0.14847 0.86508 0.0
C1583 C 0.10219 0.13635 0.85623 0.0
H1584 H 0.86234 0.33869 0.7561 0.0
H1585 H 0.84489 0.29125 0.7493 0.0
H1586 H 0.82426 0.29277 0.76676 0.0
H1587 H 0.86184 0.34184 0.79418 0.0
H1588 H 0.85476 0.3591 0.79477 0.0
H1589 H 0.86589 0.35463 0.77975 0.0
H1590 H 0.84137 0.35821 0.75953 0.0
H1591 H 0.83014 0.36278 0.77454 0.0
H1592 H 0.82055 0.34807 0.76024 0.0
H1593 H 0.80968 0.29889 0.78859 0.0
H1594 H 0.80113 0.30941 0.81172 0.0
H1595 H 0.82694 0.35291 0.80318 0.0
C1596 C 0.85386 0.32866 0.75794 0.0
C1597 C 0.85522 0.31485 0.75136 0.0
C1598 C 0.84399 0.30197 0.75413 0.0
C1599 C 0.83222 0.30273 0.76403 0.0
C1600 C 0.83163 0.31649 0.77077 0.0
C1601 C 0.84196 0.32927 0.76761 0.0
C1602 C 0.83991 0.3425 0.77727 0.0
C1603 C 0.85658 0.34994 0.78707 0.0
C1604 C 0.83255 0.35354 0.7673 0.0
C1605 C 0.82749 0.33508 0.78696 0.0
C1606 C 0.8227 0.32009 0.78296 0.0
C1607 C 0.81291 0.31067 0.79152 0.0
C1608 C 0.80814 0.31669 0.80463 0.0
C1609 C 0.81308 0.33198 0.80893 0.0
C1610 C 0.82253 0.34128 0.79978 0.0
H1611 H 0.82769 0.68759 0.03659 0.0
H1612 H 0.87026 0.72001 0.02802 0.0
H1613 H 0.88918 0.70337 0.03694 0.0
H1614 H 0.84784 0.67518 0.07087 0.0
H1615 H 0.83763 0.65612 0.0666 0.0
H1616 H 0.82743 0.67056 0.05948 0.0
H1617 H 0.82439 0.65887 0.0319 0.0
H1618 H 0.83456 0.64439 0.03894 0.0
H1619 H 0.8427 0.65549 0.02445 0.0
H1620 H 0.90344 0.68346 0.04721 0.0
H1621 H 0.91214 0.66145 0.0578 0.0
H1622 H 0.86015 0.6416 0.05892 0.0
C1623 C 0.84101 0.69115 0.03662 0.0
C1624 C 0.84755 0.70493 0.03137 0.0
C1625 C 0.865 0.7093 0.03161 0.0
C1626 C 0.87584 0.69999 0.03677 0.0
C1627 C 0.86899 0.68638 0.04168 0.0
C1628 C 0.85199 0.68194 0.04164 0.0
C1629 C 0.84785 0.6667 0.0474 0.0
C1630 C 0.83971 0.66718 0.06195 0.0
C1631 C 0.83672 0.65572 0.03492 0.0
C1632 C 0.8652 0.66331 0.05078 0.0
C1633 C 0.87721 0.67482 0.04743 0.0
C1634 C 0.89415 0.67432 0.04977 0.0
C1635 C 0.89895 0.66172 0.05569 0.0
C1636 C 0.88685 0.64973 0.05913 0.0
C1637 C 0.86975 0.65061 0.05658 0.0
H1638 H 0.59639 0.65777 0.2906 0.0
H1639 H 0.56258 0.61659 0.27388 0.0
H1640 H 0.57015 0.60585 0.29827 0.0
H1641 H 0.62863 0.64195 0.31156 0.0
H1642 H 0.63318 0.65598 0.32713 0.0
H1643 H 0.62533 0.66034 0.30826 0.0
H1644 H 0.60086 0.6694 0.31869 0.0
H1645 H 0.60866 0.6651 0.33759 0.0
H1646 H 0.58746 0.65722 0.32915 0.0
H1647 H 0.58179 0.59948 0.32426 0.0
H1648 H 0.59524 0.59849 0.35079 0.0
H1649 H 0.62087 0.64403 0.35086 0.0
C1650 C 0.59064 0.64648 0.29211 0.0
C1651 C 0.57876 0.63802 0.28049 0.0
C1652 C 0.57142 0.62333 0.28281 0.0
C1653 C 0.57576 0.6171 0.29655 0.0
C1654 C 0.58743 0.62576 0.30784 0.0
C1655 C 0.59467 0.64017 0.30583 0.0
C1656 C 0.60647 0.64723 0.31996 0.0
C1657 C 0.62447 0.65163 0.31652 0.0
C1658 C 0.6005 0.66052 0.32675 0.0
C1659 C 0.60475 0.63453 0.33021 0.0
C1660 C 0.59383 0.6222 0.32295 0.0
C1661 C 0.59035 0.60907 0.33007 0.0
C1662 C 0.5981 0.60858 0.34509 0.0
C1663 C 0.60905 0.62118 0.35283 0.0
C1664 C 0.61244 0.63428 0.34523 0.0
H1665 H 0.8565 0.34061 0.39848 0.0
H1666 H 0.84543 0.29999 0.36929 0.0
H1667 H 0.85038 0.3145 0.34699 0.0
H1668 H 0.8365 0.36205 0.37252 0.0
H1669 H 0.85188 0.37876 0.37797 0.0
H1670 H 0.84805 0.36508 0.39156 0.0
H1671 H 0.87949 0.36377 0.39574 0.0
H1672 H 0.88342 0.37746 0.38217 0.0
H1673 H 0.88943 0.35988 0.37957 0.0
H1674 H 0.85589 0.33387 0.32771 0.0
H1675 H 0.86088 0.35626 0.31332 0.0
H1676 H 0.86869 0.38364 0.35565 0.0
C1677 C 0.85517 0.3347 0.38743 0.0
C1678 C 0.85058 0.31915 0.38565 0.0
C1679 C 0.84895 0.3119 0.37095 0.0
C1680 C 0.85176 0.32005 0.35822 0.0
C1681 C 0.85622 0.33539 0.36042 0.0
C1682 C 0.85792 0.34261 0.37468 0.0
C1683 C 0.86248 0.35916 0.37407 0.0
C1684 C 0.84892 0.3667 0.37934 0.0
C1685 C 0.87973 0.36543 0.38344 0.0
C1686 C 0.86291 0.36018 0.35718 0.0
C1687 C 0.85936 0.3464 0.34946 0.0
C1688 C 0.85876 0.34471 0.33368 0.0
C1689 C 0.86168 0.35747 0.32561 0.0
C1690 C 0.86507 0.37168 0.33335 0.0
C1691 C 0.86589 0.37294 0.34936 0.0
H1692 H 0.64211 0.70382 0.92101 0.0
H1693 H 0.65933 0.68175 0.96057 0.0
H1694 H 0.65896 0.65956 0.94388 0.0
H1695 H 0.61387 0.67289 0.90187 0.0
H1696 H 0.61811 0.67753 0.8831 0.0
H1697 H 0.6207 0.6919 0.89807 0.0
H1698 H 0.65138 0.70109 0.89386 0.0
H1699 H 0.64887 0.68676 0.87882 0.0
H1700 H 0.66548 0.68835 0.89468 0.0
H1701 H 0.65534 0.63927 0.92272 0.0
H1702 H 0.6485 0.62273 0.89904 0.0
H1703 H 0.63427 0.65859 0.87371 0.0
C1704 C 0.64596 0.69438 0.92621 0.0
C1705 C 0.65077 0.69456 0.94213 0.0
C1706 C 0.65562 0.68191 0.94841 0.0
C1707 C 0.65546 0.66926 0.93901 0.0
C1708 C 0.65051 0.66944 0.92337 0.0
C1709 C 0.64589 0.68172 0.91703 0.0
C1710 C 0.64055 0.67901 0.89999 0.0
C1711 C 0.62222 0.68041 0.8955 0.0
C1712 C 0.65227 0.68942 0.89133 0.0
C1713 C 0.64263 0.66322 0.89773 0.0
C1714 C 0.64847 0.65788 0.9113 0.0
C1715 C 0.65088 0.64338 0.91201 0.0
C1716 C 0.64704 0.63409 0.89851 0.0
C1717 C 0.64078 0.63934 0.88455 0.0
C1718 C 0.63882 0.65417 0.88423 0.0
H1719 H 0.82381 0.52948 0.92302 0.0
H1720 H 0.7847 0.52218 0.88384 0.0
H1721 H 0.79923 0.54413 0.87271 0.0
H1722 H 0.82949 0.5686 0.92607 0.0
H1723 H 0.85183 0.57177 0.93159 0.0
H1724 H 0.83891 0.55499 0.93604 0.0
H1725 H 0.85618 0.53959 0.92199 0.0
H1726 H 0.86918 0.55634 0.91751 0.0
H1727 H 0.85861 0.54271 0.90244 0.0
H1728 H 0.81747 0.56719 0.86625 0.0
H1729 H 0.8377 0.5904 0.86526 0.0
H1730 H 0.86501 0.58287 0.90869 0.0
C1731 C 0.81843 0.53246 0.91203 0.0
C1732 C 0.80305 0.52431 0.90434 0.0
C1733 C 0.79629 0.52852 0.89005 0.0
C1734 C 0.80453 0.54086 0.88358 0.0
C1735 C 0.81954 0.54883 0.89156 0.0
C1736 C 0.82643 0.54484 0.90548 0.0
C1737 C 0.84231 0.5557 0.912 0.0
C1738 C 0.84052 0.56321 0.92733 0.0
C1739 C 0.85747 0.54813 0.91357 0.0
C1740 C 0.84315 0.5665 0.89965 0.0
C1741 C 0.82999 0.56224 0.88789 0.0
C1742 C 0.82791 0.57058 0.87533 0.0
C1743 C 0.83951 0.5837 0.87483 0.0
C1744 C 0.85297 0.5884 0.88686 0.0
C1745 C 0.85482 0.57959 0.89936 0.0
H1746 H 0.21223 0.03286 0.63279 0.0
H1747 H 0.19342 0.01287 0.58706 0.0
H1748 H 0.17839 0.03322 0.58167 0.0
H1749 H 0.17511 0.04457 0.63925 0.0
H1750 H 0.18566 0.06158 0.6499 0.0
H1751 H 0.19571 0.04593 0.64985 0.0
H1752 H 0.2212 0.06176 0.64022 0.0
H1753 H 0.21123 0.07748 0.64028 0.0
H1754 H 0.21801 0.07128 0.6231 0.0
H1755 H 0.16518 0.0555 0.58137 0.0
H1756 H 0.15306 0.07728 0.58674 0.0
H1757 H 0.18022 0.08267 0.63279 0.0
C1758 C 0.20527 0.03296 0.62153 0.0
C1759 C 0.20425 0.02148 0.61021 0.0
C1760 C 0.19442 0.02163 0.59584 0.0
C1761 C 0.18592 0.03316 0.59266 0.0
C1762 C 0.18727 0.04439 0.60403 0.0
C1763 C 0.1966 0.04433 0.61822 0.0
C1764 C 0.19529 0.05731 0.62868 0.0
C1765 C 0.18747 0.05203 0.64275 0.0
C1766 C 0.21245 0.06756 0.63334 0.0
C1767 C 0.18363 0.06459 0.6182 0.0
C1768 C 0.17932 0.05705 0.60398 0.0
C1769 C 0.16852 0.06154 0.59244 0.0
C1770 C 0.16178 0.07397 0.59556 0.0
C1771 C 0.16574 0.08168 0.61015 0.0
C1772 C 0.17693 0.07695 0.62155 0.0
H1773 H 0.73571 0.47534 0.38244 0.0
H1774 H 0.75739 0.47718 0.43001 0.0
H1775 H 0.731 0.46217 0.43583 0.0
H1776 H 0.69249 0.47598 0.38812 0.0
H1777 H 0.68385 0.46303 0.37194 0.0
H1778 H 0.70372 0.47528 0.37214 0.0
H1779 H 0.71716 0.45259 0.36731 0.0
H1780 H 0.69735 0.44039 0.36733 0.0
H1781 H 0.71542 0.43806 0.38024 0.0
H1782 H 0.70229 0.44677 0.43623 0.0
H1783 H 0.67462 0.43028 0.43104 0.0
H1784 H 0.67314 0.43654 0.38263 0.0
C1785 C 0.73473 0.47286 0.39413 0.0
C1786 C 0.74836 0.47763 0.40587 0.0
C1787 C 0.74695 0.47371 0.42093 0.0
C1788 C 0.73202 0.46526 0.42433 0.0
C1789 C 0.71878 0.46068 0.41247 0.0
C1790 C 0.72007 0.46422 0.39765 0.0
C1791 C 0.70459 0.45689 0.38678 0.0
C1792 C 0.69564 0.46849 0.3793 0.0
C1793 C 0.70889 0.44635 0.37471 0.0
C1794 C 0.69446 0.44852 0.39776 0.0
C1795 C 0.70271 0.45107 0.41255 0.0
C1796 C 0.69577 0.44459 0.42467 0.0
C1797 C 0.68008 0.43509 0.42155 0.0
C1798 C 0.67159 0.43187 0.40637 0.0
C1799 C 0.67898 0.43884 0.39439 0.0
H1800 H 0.27503 0.95895 0.12665 0.0
H1801 H 0.29353 0.98861 0.09351 0.0
H1802 H 0.30724 0.9696 0.08343 0.0
H1803 H 0.31051 0.94226 0.13402 0.0
H1804 H 0.29861 0.924 0.13538 0.0
H1805 H 0.2903 0.93995 0.14022 0.0
H1806 H 0.26362 0.93026 0.12065 0.0
H1807 H 0.27177 0.91419 0.11586 0.0
H1808 H 0.2656 0.9257 0.10112 0.0
H1809 H 0.31928 0.9477 0.07717 0.0
H1810 H 0.3281 0.92386 0.07446 0.0
H1811 H 0.30005 0.90769 0.1104 0.0
C1812 C 0.28152 0.96135 0.11701 0.0
C1813 C 0.28286 0.97521 0.11069 0.0
C1814 C 0.29226 0.97807 0.09854 0.0
C1815 C 0.30008 0.96734 0.0927 0.0
C1816 C 0.29838 0.95377 0.09911 0.0
C1817 C 0.28927 0.95069 0.11093 0.0
C1818 C 0.28934 0.93515 0.11567 0.0
C1819 C 0.29769 0.93536 0.13231 0.0
C1820 C 0.27152 0.92577 0.11317 0.0
C1821 C 0.29992 0.93002 0.10465 0.0
C1822 C 0.30509 0.94097 0.09528 0.0
C1823 C 0.31519 0.93897 0.08434 0.0
C1824 C 0.32003 0.92533 0.08282 0.0
C1825 C 0.31465 0.91378 0.09209 0.0
C1826 C 0.30451 0.91627 0.1032 0.0
H1827 H 0.79588 0.4657 0.59242 0.0
H1828 H 0.78848 0.46557 0.63994 0.0
H1829 H 0.80319 0.44485 0.64332 0.0
H1830 H 0.78943 0.42733 0.58487 0.0
H1831 H 0.80548 0.42772 0.57292 0.0
H1832 H 0.79536 0.44323 0.57433 0.0
H1833 H 0.82409 0.46067 0.58273 0.0
H1834 H 0.83433 0.44522 0.5812 0.0
H1835 H 0.83792 0.45655 0.59884 0.0
H1836 H 0.81571 0.42253 0.64085 0.0
H1837 H 0.82777 0.40147 0.63346 0.0
H1838 H 0.82954 0.41728 0.58815 0.0
C1839 C 0.79756 0.46145 0.60359 0.0
C1840 C 0.79099 0.46725 0.61591 0.0
C1841 C 0.79345 0.46137 0.63034 0.0
C1842 C 0.80176 0.44956 0.63238 0.0
C1843 C 0.80777 0.44391 0.61994 0.0
C1844 C 0.80606 0.44979 0.60589 0.0
C1845 C 0.8135 0.44148 0.59437 0.0
C1846 C 0.80014 0.43453 0.58083 0.0
C1847 C 0.82834 0.45158 0.58897 0.0
C1848 C 0.81925 0.42978 0.60405 0.0
C1849 C 0.81577 0.43138 0.61873 0.0
C1850 C 0.8189 0.42138 0.62949 0.0
C1851 C 0.82591 0.40947 0.62518 0.0
C1852 C 0.82999 0.40771 0.61026 0.0
C1853 C 0.82659 0.41813 0.59962 0.0
H1854 H 0.28663 0.04043 0.38399 0.0
H1855 H 0.3106 0.03141 0.42828 0.0
H1856 H 0.33001 0.05553 0.42989 0.0
H1857 H 0.32353 0.05803 0.37063 0.0
H1858 H 0.31399 0.07159 0.36071 0.0
H1859 H 0.30152 0.0539 0.36326 0.0
H1860 H 0.28127 0.06674 0.37631 0.0
H1861 H 0.29359 0.0845 0.3737 0.0
H1862 H 0.28945 0.07982 0.39249 0.0
H1863 H 0.34692 0.08033 0.42659 0.0
H1864 H 0.36081 0.10409 0.41835 0.0
H1865 H 0.32574 0.09716 0.37622 0.0
C1866 C 0.29565 0.04369 0.3942 0.0
C1867 C 0.29688 0.03421 0.40618 0.0
C1868 C 0.3094 0.03857 0.41903 0.0
C1869 C 0.32043 0.05225 0.42006 0.0
C1870 C 0.31884 0.06138 0.40809 0.0
C1871 C 0.3068 0.05729 0.39538 0.0
C1872 C 0.30814 0.06895 0.3839 0.0
C1873 C 0.31203 0.06274 0.36873 0.0
C1874 C 0.29216 0.07538 0.38146 0.0
C1875 C 0.32286 0.08021 0.39212 0.0
C1876 C 0.32878 0.07563 0.40608 0.0
C1877 C 0.34235 0.08408 0.41572 0.0
C1878 C 0.3501 0.09759 0.41098 0.0
C1879 C 0.34429 0.10251 0.3967 0.0
C1880 C 0.3305 0.09365 0.38716 0.0
H1881 H 0.72355 0.55149 0.16937 0.0
H1882 H 0.74119 0.54198 0.12692 0.0
H1883 H 0.7283 0.56167 0.11519 0.0
H1884 H 0.6844 0.55959 0.15353 0.0
H1885 H 0.68515 0.57458 0.16745 0.0
H1886 H 0.69571 0.55974 0.17246 0.0
H1887 H 0.72356 0.57854 0.1805 0.0
H1888 H 0.71305 0.59344 0.1756 0.0
H1889 H 0.7312 0.59133 0.16713 0.0
H1890 H 0.71175 0.58123 0.10771 0.0
H1891 H 0.69517 0.60071 0.10556 0.0
H1892 H 0.69108 0.59929 0.15384 0.0
C1893 C 0.7247 0.55361 0.15762 0.0
C1894 C 0.73335 0.5453 0.14901 0.0
C1895 C 0.73476 0.54839 0.13372 0.0
C1896 C 0.7274 0.55947 0.12695 0.0
C1897 C 0.71893 0.56748 0.13574 0.0
C1898 C 0.71777 0.56485 0.15081 0.0
C1899 C 0.70838 0.57531 0.15787 0.0
C1900 C 0.69247 0.56679 0.16313 0.0
C1901 C 0.71973 0.58525 0.17105 0.0
C1902 C 0.70419 0.58406 0.14434 0.0
C1903 C 0.71024 0.57929 0.13166 0.0
C1904 C 0.70723 0.58526 0.11765 0.0
C1905 C 0.69788 0.59646 0.11659 0.0
C1906 C 0.69184 0.60182 0.12955 0.0
C1907 C 0.69521 0.59547 0.1436 0.0
H1908 H 0.21533 0.95628 0.88884 0.0
H1909 H 0.21169 0.99051 0.92245 0.0
H1910 H 0.18583 0.97512 0.92869 0.0
H1911 H 0.17011 0.94442 0.87591 0.0
H1912 H 0.17149 0.92526 0.87348 0.0
H1913 H 0.18893 0.9395 0.87093 0.0
H1914 H 0.20815 0.92849 0.89102 0.0
H1915 H 0.19077 0.9143 0.89371 0.0
H1916 H 0.20256 0.92606 0.90982 0.0
H1917 H 0.16208 0.95482 0.93309 0.0
H1918 H 0.14095 0.93198 0.93383 0.0
H1919 H 0.15958 0.91148 0.89669 0.0
C1920 C 0.20892 0.96062 0.89734 0.0
C1921 C 0.21532 0.97467 0.905 0.0
C1922 C 0.20673 0.97995 0.91614 0.0
C1923 C 0.19212 0.97122 0.91986 0.0
C1924 C 0.18624 0.95733 0.91221 0.0
C1925 C 0.19425 0.95214 0.90103 0.0
C1926 C 0.18564 0.93668 0.89477 0.0
C1927 C 0.17863 0.93646 0.87776 0.0
C1928 C 0.19749 0.92575 0.8975 0.0
C1929 C 0.17176 0.93382 0.90442 0.0
C1930 C 0.17232 0.94584 0.91444 0.0
C1931 C 0.16135 0.94544 0.92513 0.0
C1932 C 0.14948 0.93244 0.92552 0.0
C1933 C 0.1486 0.92011 0.91521 0.0
C1934 C 0.15983 0.92088 0.9045 0.0
H1935 H 0.89217 0.83879 0.59179 0.0
H1936 H 0.84035 0.83817 0.57354 0.0
H1937 H 0.8413 0.86097 0.58951 0.0
H1938 H 0.89034 0.85069 0.62959 0.0
H1939 H 0.91085 0.86237 0.63268 0.0
H1940 H 0.90638 0.84652 0.61918 0.0
H1941 H 0.91565 0.86322 0.59795 0.0
H1942 H 0.92025 0.87912 0.61143 0.0
H1943 H 0.90609 0.8789 0.59397 0.0
H1944 H 0.8474 0.88284 0.609 0.0
H1945 H 0.85845 0.90245 0.62963 0.0
H1946 H 0.90667 0.88934 0.6339 0.0
C1947 C 0.88105 0.8435 0.59102 0.0
C1948 C 0.86617 0.83666 0.58143 0.0
C1949 C 0.85191 0.84322 0.58077 0.0
C1950 C 0.85232 0.85617 0.58981 0.0
C1951 C 0.86713 0.86249 0.5993 0.0
C1952 C 0.88128 0.85645 0.59984 0.0
C1953 C 0.89553 0.8652 0.61119 0.0
C1954 C 0.90109 0.85562 0.62391 0.0
C1955 C 0.91025 0.87202 0.60315 0.0
C1956 C 0.88709 0.87694 0.6172 0.0
C1957 C 0.87073 0.87523 0.61021 0.0
C1958 C 0.86027 0.88441 0.6144 0.0
C1959 C 0.8667 0.89559 0.62609 0.0
C1960 C 0.88347 0.89752 0.63344 0.0
C1961 C 0.89375 0.88811 0.62871 0.0
H1962 H 0.90897 0.10795 0.28818 0.0
H1963 H 0.95175 0.14082 0.30965 0.0
H1964 H 0.93789 0.14294 0.33237 0.0
H1965 H 0.87795 0.12463 0.30105 0.0
H1966 H 0.86453 0.10755 0.30411 0.0
H1967 H 0.87826 0.10791 0.28997 0.0
H1968 H 0.89137 0.08742 0.30297 0.0
H1969 H 0.87764 0.08698 0.31716 0.0
H1970 H 0.89994 0.0901 0.32294 0.0
H1971 H 0.91845 0.14286 0.3519 0.0
H1972 H 0.89524 0.13987 0.36719 0.0
H1973 H 0.86554 0.10668 0.33319 0.0
C1974 C 0.91553 0.11549 0.29771 0.0
C1975 C 0.93146 0.12423 0.29712 0.0
C1976 C 0.93957 0.13398 0.30984 0.0
C1977 C 0.93179 0.13527 0.32281 0.0
C1978 C 0.916 0.12662 0.32292 0.0
C1979 C 0.90801 0.11684 0.31076 0.0
C1980 C 0.89087 0.10914 0.31356 0.0
C1981 C 0.87709 0.11252 0.30145 0.0
C1982 C 0.88991 0.09242 0.3142 0.0
C1983 C 0.89032 0.11633 0.32907 0.0
C1984 C 0.90494 0.12637 0.3343 0.0
C1985 C 0.90702 0.13491 0.34801 0.0
C1986 C 0.89377 0.13319 0.35657 0.0
C1987 C 0.87869 0.12297 0.3514 0.0
C1988 C 0.87706 0.11437 0.33754 0.0
H1989 H 0.65413 0.17757 0.11808 0.0
H1990 H 0.65826 0.14718 0.08072 0.0
H1991 H 0.66029 0.12776 0.09856 0.0
H1992 H 0.68322 0.16528 0.14621 0.0
H1993 H 0.67148 0.16721 0.16162 0.0
H1994 H 0.67011 0.17883 0.14591 0.0
H1995 H 0.63791 0.17018 0.14113 0.0
H1996 H 0.63918 0.15854 0.15684 0.0
H1997 H 0.629 0.15072 0.13818 0.0
H1998 H 0.66217 0.11165 0.12025 0.0
H1999 H 0.6634 0.09973 0.1446 0.0
H2000 H 0.65833 0.14043 0.16808 0.0
C2001 C 0.65543 0.16683 0.11365 0.0
C2002 C 0.65604 0.16394 0.09797 0.0
C2003 C 0.65776 0.14971 0.09266 0.0
C2004 C 0.65892 0.13857 0.1027 0.0
C2005 C 0.65834 0.14179 0.11805 0.0
C2006 C 0.6566 0.15554 0.12353 0.0
C2007 C 0.65637 0.15605 0.1406 0.0
C2008 C 0.67118 0.16752 0.14908 0.0
C2009 C 0.63961 0.15904 0.14441 0.0
C2010 C 0.65831 0.14046 0.14381 0.0
C2011 C 0.65942 0.13244 0.13063 0.0
C2012 C 0.66135 0.11781 0.13067 0.0
C2013 C 0.66215 0.11117 0.14457 0.0
C2014 C 0.66104 0.11915 0.15826 0.0
C2015 C 0.65907 0.134 0.1578 0.0
H2016 H 0.52752 0.84556 0.77994 0.0
H2017 H 0.53016 0.89085 0.76824 0.0
H2018 H 0.54607 0.89966 0.79382 0.0
H2019 H 0.52462 0.85096 0.82035 0.0
H2020 H 0.53811 0.83831 0.82602 0.0
H2021 H 0.52552 0.83563 0.80745 0.0
H2022 H 0.55207 0.83589 0.79475 0.0
H2023 H 0.56471 0.8385 0.81326 0.0
H2024 H 0.56935 0.85138 0.79904 0.0
H2025 H 0.56134 0.90336 0.8207 0.0
H2026 H 0.57799 0.90203 0.84562 0.0
H2027 H 0.56844 0.85417 0.83837 0.0
C2028 C 0.53127 0.85732 0.78291 0.0
C2029 C 0.52746 0.86759 0.77235 0.0
C2030 C 0.53292 0.88288 0.77632 0.0
C2031 C 0.54186 0.88795 0.7908 0.0
C2032 C 0.54548 0.87754 0.80099 0.0
C2033 C 0.54059 0.86255 0.79715 0.0
C2034 C 0.54736 0.8537 0.80964 0.0
C2035 C 0.53305 0.84408 0.81626 0.0
C2036 C 0.55907 0.84432 0.80383 0.0
C2037 C 0.55691 0.86606 0.82109 0.0
C2038 C 0.55536 0.8797 0.81602 0.0
C2039 C 0.56285 0.89274 0.8247 0.0
C2040 C 0.57246 0.89184 0.83882 0.0
C2041 C 0.57494 0.878 0.84401 0.0
C2042 C 0.5668 0.86496 0.83498 0.0
H2043 H 0.87923 0.21833 0.9224 0.0
H2044 H 0.92257 0.2251 0.95756 0.0
H2045 H 0.93116 0.20314 0.94663 0.0
H2046 H 0.86973 0.17967 0.92317 0.0
H2047 H 0.86267 0.17612 0.90297 0.0
H2048 H 0.86104 0.19325 0.91248 0.0
H2049 H 0.87806 0.2078 0.89357 0.0
H2050 H 0.87974 0.19069 0.88399 0.0
H2051 H 0.89834 0.20415 0.89131 0.0
H2052 H 0.93433 0.17989 0.93242 0.0
H2053 H 0.93061 0.156 0.91737 0.0
H2054 H 0.88443 0.16387 0.89238 0.0
C2055 C 0.89069 0.21532 0.92759 0.0
C2056 C 0.90032 0.22336 0.94074 0.0
C2057 C 0.91502 0.21897 0.9475 0.0
C2058 C 0.92004 0.20661 0.94132 0.0
C2059 C 0.91013 0.19875 0.92845 0.0
C2060 C 0.89569 0.20287 0.92173 0.0
C2061 C 0.88649 0.19185 0.90882 0.0
C2062 C 0.86895 0.18481 0.91206 0.0
C2063 C 0.88561 0.19906 0.89352 0.0
C2064 C 0.89788 0.18078 0.90944 0.0
C2065 C 0.9116 0.18508 0.92065 0.0
C2066 C 0.92369 0.17646 0.92356 0.0
C2067 C 0.92152 0.16296 0.91494 0.0
C2068 C 0.90725 0.15817 0.90376 0.0
C2069 C 0.89543 0.1673 0.90089 0.0
H2070 H 0.61255 0.1661 0.68701 0.0
H2071 H 0.64373 0.15065 0.72391 0.0
H2072 H 0.66598 0.15135 0.7077 0.0
H2073 H 0.62355 0.14526 0.65694 0.0
H2074 H 0.62314 0.15951 0.64375 0.0
H2075 H 0.61013 0.15836 0.65854 0.0
H2076 H 0.62327 0.18551 0.66809 0.0
H2077 H 0.63635 0.18674 0.65333 0.0
H2078 H 0.64565 0.19096 0.67302 0.0
H2079 H 0.68448 0.15304 0.68684 0.0
H2080 H 0.69751 0.15565 0.66332 0.0
H2081 H 0.65364 0.1696 0.64045 0.0
C2082 C 0.62408 0.16294 0.69178 0.0
C2083 C 0.62639 0.15833 0.70676 0.0
C2084 C 0.64168 0.15424 0.71247 0.0
C2085 C 0.65439 0.15461 0.70336 0.0
C2086 C 0.65161 0.15913 0.68859 0.0
C2087 C 0.63683 0.16324 0.68288 0.0
C2088 C 0.63668 0.16732 0.66655 0.0
C2089 C 0.62254 0.15699 0.65582 0.0
C2090 C 0.63542 0.1836 0.66518 0.0
C2091 C 0.65366 0.16477 0.66389 0.0
C2092 C 0.66215 0.16009 0.67671 0.0
C2093 C 0.67795 0.15675 0.67676 0.0
C2094 C 0.68522 0.15819 0.66334 0.0
C2095 C 0.67666 0.16293 0.65007 0.0
C2096 C 0.66069 0.16626 0.65047 0.0
H2097 H 0.60131 0.80216 0.41995 0.0
H2098 H 0.57579 0.75732 0.40477 0.0
H2099 H 0.56488 0.76602 0.38013 0.0
H2100 H 0.56932 0.82023 0.40277 0.0
H2101 H 0.58398 0.83573 0.39782 0.0
H2102 H 0.58963 0.82588 0.41417 0.0
H2103 H 0.6159 0.82128 0.40316 0.0
H2104 H 0.61033 0.8311 0.38677 0.0
H2105 H 0.61354 0.81246 0.38425 0.0
H2106 H 0.55701 0.77987 0.35692 0.0
H2107 H 0.55319 0.79758 0.33722 0.0
H2108 H 0.5835 0.83311 0.36833 0.0
C2109 C 0.59343 0.79412 0.41148 0.0
C2110 C 0.58942 0.77904 0.41431 0.0
C2111 C 0.57903 0.76893 0.40287 0.0
C2112 C 0.57277 0.77376 0.38885 0.0
C2113 C 0.57699 0.78873 0.38647 0.0
C2114 C 0.58708 0.79874 0.3975 0.0
C2115 C 0.58988 0.8142 0.3922 0.0
C2116 C 0.58277 0.82462 0.40234 0.0
C2117 C 0.60852 0.8201 0.39155 0.0
C2118 C 0.57984 0.81137 0.37641 0.0
C2119 C 0.57247 0.79663 0.37327 0.0
C2120 C 0.5627 0.79144 0.35928 0.0
C2121 C 0.56052 0.80158 0.3482 0.0
C2122 C 0.56811 0.81671 0.35119 0.0
C2123 C 0.57776 0.82159 0.36556 0.0
H2124 H 0.91612 0.92193 0.22642 0.0
H2125 H 0.92517 0.87924 0.23951 0.0
H2126 H 0.90946 0.86767 0.21475 0.0
H2127 H 0.87505 0.91014 0.2076 0.0
H2128 H 0.87711 0.92244 0.19247 0.0
H2129 H 0.88982 0.92746 0.21081 0.0
H2130 H 0.91666 0.93077 0.1981 0.0
H2131 H 0.90401 0.92594 0.17968 0.0
H2132 H 0.92007 0.91584 0.18596 0.0
H2133 H 0.89023 0.86059 0.18967 0.0
H2134 H 0.87158 0.85873 0.16517 0.0
H2135 H 0.87737 0.90653 0.1676 0.0
C2136 C 0.91497 0.91018 0.22396 0.0
C2137 C 0.92193 0.90145 0.23476 0.0
C2138 C 0.92018 0.88612 0.23123 0.0
C2139 C 0.91118 0.87946 0.21726 0.0
C2140 C 0.90426 0.88836 0.20692 0.0
C2141 C 0.90632 0.90343 0.20999 0.0
C2142 C 0.89764 0.91052 0.19699 0.0
C2143 C 0.8841 0.91808 0.20229 0.0
C2144 C 0.91036 0.92141 0.18975 0.0
C2145 C 0.88999 0.89704 0.18628 0.0
C2146 C 0.89386 0.88436 0.19223 0.0
C2147 C 0.88742 0.87048 0.18474 0.0
C2148 C 0.87689 0.86957 0.17074 0.0
C2149 C 0.87304 0.88249 0.16421 0.0
C2150 C 0.87981 0.89638 0.1722 0.0
H2151 H 0.05341 0.60512 0.19916 0.0
H2152 H 0.04258 0.64751 0.21239 0.0
H2153 H 0.05786 0.65898 0.19239 0.0
H2154 H 0.09407 0.61757 0.19026 0.0
H2155 H 0.0916 0.60492 0.17369 0.0
H2156 H 0.07979 0.60003 0.18896 0.0
H2157 H 0.05218 0.59572 0.16995 0.0
H2158 H 0.06393 0.60047 0.15458 0.0
H2159 H 0.04771 0.61023 0.15809 0.0
H2160 H 0.0768 0.66611 0.17284 0.0
H2161 H 0.0947 0.66806 0.15281 0.0
H2162 H 0.08948 0.62025 0.14963 0.0
C2163 C 0.05421 0.61679 0.19773 0.0
C2164 C 0.04698 0.62552 0.20727 0.0
C2165 C 0.04805 0.64071 0.20509 0.0
C2166 C 0.05674 0.6473 0.19383 0.0
C2167 C 0.06389 0.63843 0.18465 0.0
C2168 C 0.06239 0.62345 0.18623 0.0
C2169 C 0.07075 0.61635 0.17454 0.0
C2170 C 0.08489 0.60931 0.18233 0.0
C2171 C 0.05787 0.60503 0.16364 0.0
C2172 C 0.07759 0.62975 0.16644 0.0
C2173 C 0.07366 0.64239 0.17256 0.0
C2174 C 0.07958 0.65623 0.16766 0.0
C2175 C 0.08966 0.65718 0.15609 0.0
C2176 C 0.09346 0.64431 0.14922 0.0
C2177 C 0.08715 0.63042 0.15455 0.0
H2178 H 0.11839 0.30747 0.9146 0.0
H2179 H 0.06593 0.29488 0.91941 0.0
H2180 H 0.05816 0.30564 0.89517 0.0
H2181 H 0.1164 0.34189 0.89907 0.0
H2182 H 0.13084 0.34033 0.88586 0.0
H2183 H 0.13239 0.3312 0.90336 0.0
H2184 H 0.12998 0.30617 0.88808 0.0
H2185 H 0.12853 0.31525 0.87053 0.0
H2186 H 0.11244 0.29983 0.87325 0.0
H2187 H 0.05615 0.31926 0.87147 0.0
H2188 H 0.05985 0.3335 0.849 0.0
H2189 H 0.11349 0.33572 0.85847 0.0
C2190 C 0.10526 0.30689 0.91051 0.0
C2191 C 0.09277 0.30035 0.91894 0.0
C2192 C 0.07573 0.29978 0.91315 0.0
C2193 C 0.07118 0.30589 0.8994 0.0
C2194 C 0.0838 0.31238 0.89147 0.0
C2195 C 0.10048 0.31278 0.8967 0.0
C2196 C 0.11154 0.32046 0.88595 0.0
C2197 C 0.12349 0.33429 0.89405 0.0
C2198 C 0.12119 0.30979 0.87904 0.0
C2199 C 0.09848 0.32453 0.87403 0.0
C2200 C 0.08257 0.3198 0.87746 0.0
C2201 C 0.06852 0.3228 0.86851 0.0
C2202 C 0.07077 0.33082 0.85566 0.0
C2203 C 0.08696 0.33566 0.85174 0.0
C2204 C 0.10095 0.33235 0.86111 0.0
H2205 H 0.39116 0.37702 0.71639 0.0
H2206 H 0.4367 0.36694 0.70307 0.0
H2207 H 0.42484 0.36672 0.67599 0.0
H2208 H 0.36317 0.35338 0.68682 0.0
H2209 H 0.34867 0.36569 0.68399 0.0
H2210 H 0.36104 0.36573 0.70239 0.0
H2211 H 0.37244 0.39379 0.70195 0.0
H2212 H 0.36014 0.39383 0.68352 0.0
H2213 H 0.38241 0.40063 0.6861 0.0
H2214 H 0.40794 0.3672 0.65037 0.0
H2215 H 0.38689 0.36784 0.62788 0.0
H2216 H 0.35181 0.37667 0.6577 0.0
C2217 C 0.39865 0.37484 0.70776 0.0
C2218 C 0.41509 0.37248 0.71185 0.0
C2219 C 0.42441 0.36945 0.70024 0.0
C2220 C 0.41768 0.36911 0.6848 0.0
C2221 C 0.40155 0.3717 0.68115 0.0
C2222 C 0.39211 0.37444 0.69227 0.0
C2223 C 0.37494 0.37651 0.68524 0.0
C2224 C 0.36114 0.36462 0.68989 0.0
C2225 C 0.37234 0.39212 0.68945 0.0
C2226 C 0.3762 0.37444 0.66844 0.0
C2227 C 0.39167 0.3717 0.66634 0.0
C2228 C 0.39576 0.36929 0.65186 0.0
C2229 C 0.38369 0.3696 0.63916 0.0
C2230 C 0.36767 0.37225 0.64101 0.0
C2231 C 0.36399 0.37478 0.65589 0.0
H2232 H 0.1618 0.66744 0.62076 0.0
H2233 H 0.17119 0.64192 0.58176 0.0
H2234 H 0.17088 0.62029 0.59696 0.0
H2235 H 0.18701 0.65013 0.6501 0.0
H2236 H 0.17249 0.65053 0.66348 0.0
H2237 H 0.17502 0.66453 0.65001 0.0
H2238 H 0.14318 0.65816 0.64034 0.0
H2239 H 0.14057 0.64412 0.65369 0.0
H2240 H 0.13343 0.63943 0.63364 0.0
H2241 H 0.16629 0.60072 0.61513 0.0
H2242 H 0.15886 0.58471 0.63549 0.0
H2243 H 0.15445 0.62307 0.66359 0.0
C2244 C 0.16409 0.65739 0.6155 0.0
C2245 C 0.16651 0.65642 0.60005 0.0
C2246 C 0.16932 0.64299 0.59357 0.0
C2247 C 0.1692 0.63061 0.60211 0.0
C2248 C 0.16645 0.63185 0.61719 0.0
C2249 C 0.16413 0.64491 0.62391 0.0
C2250 C 0.16065 0.64302 0.64012 0.0
C2251 C 0.17463 0.65262 0.65161 0.0
C2252 C 0.14343 0.64638 0.64205 0.0
C2253 C 0.16084 0.62675 0.64123 0.0
C2254 C 0.1643 0.62055 0.62791 0.0
C2255 C 0.16396 0.6055 0.62577 0.0
C2256 C 0.15982 0.59649 0.63752 0.0
C2257 C 0.15618 0.60254 0.65134 0.0
C2258 C 0.15702 0.61797 0.65321 0.0
H2259 H 0.36809 0.34557 0.09231 0.0
H2260 H 0.35947 0.30904 0.12128 0.0
H2261 H 0.3581 0.32638 0.14265 0.0
H2262 H 0.39451 0.37082 0.12011 0.0
H2263 H 0.38651 0.38677 0.114 0.0
H2264 H 0.38552 0.37143 0.10049 0.0
H2265 H 0.35351 0.36929 0.09364 0.0
H2266 H 0.35441 0.38467 0.10714 0.0
H2267 H 0.34063 0.3673 0.10857 0.0
H2268 H 0.36039 0.34756 0.16152 0.0
H2269 H 0.36506 0.37156 0.17649 0.0
H2270 H 0.37096 0.39447 0.13543 0.0
C2271 C 0.36568 0.3412 0.10308 0.0
C2272 C 0.36389 0.32592 0.10508 0.0
C2273 C 0.36086 0.32068 0.11942 0.0
C2274 C 0.36004 0.33044 0.13165 0.0
C2275 C 0.36208 0.34542 0.12937 0.0
C2276 C 0.3647 0.3508 0.11544 0.0
C2277 C 0.36714 0.3675 0.11627 0.0
C2278 C 0.38445 0.37454 0.1125 0.0
C2279 C 0.35308 0.37248 0.10578 0.0
C2280 C 0.36589 0.37064 0.13293 0.0
C2281 C 0.36293 0.35771 0.14025 0.0
C2282 C 0.36241 0.35775 0.15588 0.0
C2283 C 0.3651 0.37138 0.16428 0.0
C2284 C 0.36811 0.38471 0.15701 0.0
C2285 C 0.36831 0.38435 0.14112 0.0
H2286 H 0.57147 0.39803 0.21351 0.0
H2287 H 0.56716 0.36069 0.24171 0.0
H2288 H 0.58625 0.34996 0.22743 0.0
H2289 H 0.57251 0.37741 0.17826 0.0
H2290 H 0.58738 0.39185 0.17183 0.0
H2291 H 0.57319 0.39644 0.18415 0.0
H2292 H 0.59826 0.41066 0.20345 0.0
H2293 H 0.61252 0.40614 0.19119 0.0
H2294 H 0.61471 0.40135 0.21073 0.0
H2295 H 0.60661 0.34374 0.21047 0.0
H2296 H 0.62668 0.34266 0.19237 0.0
H2297 H 0.61655 0.38361 0.17476 0.0
C2298 C 0.57451 0.38759 0.2167 0.0
C2299 C 0.56783 0.38022 0.22876 0.0
C2300 C 0.57211 0.36655 0.23252 0.0
C2301 C 0.58293 0.36035 0.22446 0.0
C2302 C 0.58928 0.36792 0.21263 0.0
C2303 C 0.58519 0.38123 0.20875 0.0
C2304 C 0.59379 0.38723 0.19568 0.0
C2305 C 0.58095 0.38829 0.18165 0.0
C2306 C 0.60551 0.40223 0.20056 0.0
C2307 C 0.60353 0.37531 0.19292 0.0
C2308 C 0.60075 0.36425 0.20277 0.0
C2309 C 0.60877 0.35228 0.20261 0.0
C2310 C 0.62007 0.35171 0.19222 0.0
C2311 C 0.62323 0.36304 0.18213 0.0
C2312 C 0.61461 0.37486 0.18243 0.0
H2313 H 0.95173 0.59662 0.68674 0.0
H2314 H 0.96177 0.63495 0.719 0.0
H2315 H 0.9429 0.64686 0.70175 0.0
H2316 H 0.94945 0.61626 0.65235 0.0
H2317 H 0.93265 0.60247 0.6421 0.0
H2318 H 0.94735 0.59722 0.65679 0.0
H2319 H 0.92296 0.58543 0.67071 0.0
H2320 H 0.9082 0.59059 0.65605 0.0
H2321 H 0.90837 0.5964 0.67573 0.0
H2322 H 0.92274 0.65447 0.68089 0.0
H2323 H 0.90151 0.65649 0.65886 0.0
H2324 H 0.90462 0.61304 0.6405 0.0
C2325 C 0.95 0.60755 0.69012 0.0
C2326 C 0.95801 0.61481 0.70426 0.0
C2327 C 0.95542 0.62906 0.70837 0.0
C2328 C 0.94488 0.63597 0.69857 0.0
C2329 C 0.93705 0.62845 0.68474 0.0
C2330 C 0.93942 0.61452 0.68056 0.0
C2331 C 0.92907 0.60857 0.66535 0.0
C2332 C 0.9403 0.60598 0.65345 0.0
C2333 C 0.9164 0.59441 0.66707 0.0
C2334 C 0.92043 0.62129 0.66166 0.0
C2335 C 0.92531 0.63273 0.67289 0.0
C2336 C 0.91885 0.6456 0.67201 0.0
C2337 C 0.90689 0.64668 0.65943 0.0
C2338 C 0.90142 0.63492 0.64802 0.0
C2339 C 0.90847 0.62216 0.64912 0.0
H2340 H 0.63131 0.34319 0.56864 0.0
H2341 H 0.64042 0.31164 0.60204 0.0
H2342 H 0.63216 0.32745 0.62174 0.0
H2343 H 0.64878 0.37464 0.59245 0.0
H2344 H 0.63404 0.38545 0.58462 0.0
H2345 H 0.63863 0.37081 0.57296 0.0
H2346 H 0.60712 0.35873 0.56745 0.0
H2347 H 0.6024 0.3734 0.57908 0.0
H2348 H 0.5957 0.35445 0.58314 0.0
H2349 H 0.62479 0.34798 0.63818 0.0
H2350 H 0.62026 0.37152 0.64979 0.0
H2351 H 0.61671 0.38919 0.60528 0.0
C2352 C 0.6313 0.3394 0.58001 0.0
C2353 C 0.63643 0.32611 0.58377 0.0
C2354 C 0.63645 0.32174 0.59888 0.0
C2355 C 0.63175 0.33063 0.61012 0.0
C2356 C 0.62703 0.34381 0.60604 0.0
C2357 C 0.62678 0.34813 0.59131 0.0
C2358 C 0.62252 0.36324 0.58995 0.0
C2359 C 0.63684 0.37417 0.58469 0.0
C2360 C 0.60595 0.36239 0.57927 0.0
C2361 C 0.62077 0.36696 0.60629 0.0
C2362 C 0.62316 0.35559 0.61542 0.0
C2363 C 0.62275 0.35688 0.63109 0.0
C2364 C 0.62013 0.37024 0.63758 0.0
C2365 C 0.61819 0.38211 0.6284 0.0
C2366 C 0.61823 0.38028 0.61256 0.0
H2367 H 0.43497 0.64923 0.79981 0.0
H2368 H 0.43735 0.61649 0.76411 0.0
H2369 H 0.40953 0.60271 0.76762 0.0
H2370 H 0.41505 0.62342 0.8243 0.0
H2371 H 0.40247 0.6358 0.83054 0.0
H2372 H 0.4225 0.64311 0.82504 0.0
H2373 H 0.40843 0.6585 0.80531 0.0
H2374 H 0.38837 0.65123 0.81074 0.0
H2375 H 0.3914 0.64932 0.79107 0.0
H2376 H 0.3811 0.59271 0.77489 0.0
H2377 H 0.35449 0.5873 0.78538 0.0
H2378 H 0.37157 0.626 0.81716 0.0
C2379 C 0.42965 0.63915 0.79274 0.0
C2380 C 0.43812 0.63416 0.78137 0.0
C2381 C 0.4308 0.62087 0.77243 0.0
C2382 C 0.4151 0.61285 0.7745 0.0
C2383 C 0.40697 0.6182 0.78566 0.0
C2384 C 0.41404 0.63101 0.79468 0.0
C2385 C 0.40276 0.63441 0.80588 0.0
C2386 C 0.4112 0.63416 0.82242 0.0
C2387 C 0.39743 0.64924 0.80307 0.0
C2388 C 0.38818 0.62157 0.80168 0.0
C2389 C 0.39083 0.61231 0.79003 0.0
C2390 C 0.37894 0.59983 0.78409 0.0
C2391 C 0.3639 0.59681 0.79018 0.0
C2392 C 0.3609 0.60622 0.80209 0.0
C2393 C 0.37334 0.61868 0.80793 0.0
H2394 H 0.06371 0.36227 0.30326 0.0
H2395 H 0.09258 0.38503 0.27086 0.0
H2396 H 0.11828 0.3874 0.28947 0.0
H2397 H 0.08497 0.38408 0.33593 0.0
H2398 H 0.08418 0.36913 0.34835 0.0
H2399 H 0.06826 0.3681 0.33205 0.0
H2400 H 0.07462 0.34324 0.32233 0.0
H2401 H 0.09057 0.34419 0.33864 0.0
H2402 H 0.09567 0.34221 0.31965 0.0
H2403 H 0.14035 0.38928 0.31229 0.0
H2404 H 0.15741 0.38989 0.3376 0.0
H2405 H 0.11442 0.36544 0.35496 0.0
C2406 C 0.07546 0.36757 0.29997 0.0
C2407 C 0.0761 0.37346 0.28557 0.0
C2408 C 0.09175 0.3804 0.28179 0.0
C2409 C 0.10643 0.38179 0.29228 0.0
C2410 C 0.1053 0.37606 0.30644 0.0
C2411 C 0.09024 0.369 0.31027 0.0
C2412 C 0.09233 0.3644 0.32649 0.0
C2413 C 0.08182 0.37188 0.33628 0.0
C2414 C 0.08804 0.3475 0.32679 0.0
C2415 C 0.11086 0.37028 0.33131 0.0
C2416 C 0.11811 0.37692 0.31955 0.0
C2417 C 0.13487 0.38394 0.32152 0.0
C2418 C 0.14443 0.38428 0.33592 0.0
C2419 C 0.13723 0.37761 0.34813 0.0
C2420 C 0.12029 0.37036 0.34571 0.0
H2421 H 0.38915 0.66582 0.42137 0.0
H2422 H 0.40192 0.69956 0.39012 0.0
H2423 H 0.40413 0.68017 0.37076 0.0
H2424 H 0.41627 0.64178 0.41071 0.0
H2425 H 0.40135 0.62526 0.41275 0.0
H2426 H 0.40186 0.64193 0.42424 0.0
H2427 H 0.37043 0.64057 0.41443 0.0
H2428 H 0.36982 0.62394 0.4029 0.0
H2429 H 0.36339 0.63957 0.39418 0.0
H2430 H 0.40374 0.65646 0.35444 0.0
H2431 H 0.4 0.63096 0.34273 0.0
H2432 H 0.3875 0.61358 0.38518 0.0
C2433 C 0.39258 0.66923 0.41053 0.0
C2434 C 0.3954 0.68424 0.40729 0.0
C2435 C 0.39974 0.68813 0.39288 0.0
C2436 C 0.40105 0.6772 0.38183 0.0
C2437 C 0.39802 0.66247 0.38541 0.0
C2438 C 0.39389 0.65854 0.39945 0.0
C2439 C 0.39054 0.64201 0.40041 0.0
C2440 C 0.40327 0.63748 0.41276 0.0
C2441 C 0.37248 0.63619 0.40314 0.0
C2442 C 0.39319 0.63716 0.38464 0.0
C2443 C 0.39763 0.64905 0.37613 0.0
C2444 C 0.40035 0.64709 0.36105 0.0
C2445 C 0.39825 0.6326 0.35451 0.0
C2446 C 0.39334 0.62033 0.36302 0.0
C2447 C 0.39104 0.62274 0.37832 0.0
H2448 H 0.15204 0.32336 0.01921 0.0
H2449 H 0.09952 0.3024 0.00995 0.0
H2450 H 0.09472 0.31487 0.03359 0.0
H2451 H 0.15628 0.32259 0.06159 0.0
H2452 H 0.17028 0.34033 0.06445 0.0
H2453 H 0.16999 0.32829 0.04785 0.0
H2454 H 0.16437 0.34915 0.03049 0.0
H2455 H 0.16448 0.36119 0.04698 0.0
H2456 H 0.1466 0.35754 0.03218 0.0
H2457 H 0.09484 0.3322 0.05612 0.0
H2458 H 0.10013 0.35214 0.07652 0.0
H2459 H 0.15293 0.36075 0.07215 0.0
C2460 C 0.1396 0.32111 0.02232 0.0
C2461 C 0.12616 0.31189 0.01271 0.0
C2462 C 0.11004 0.30937 0.01714 0.0
C2463 C 0.10718 0.3164 0.03057 0.0
C2464 C 0.12061 0.32576 0.03955 0.0
C2465 C 0.13655 0.32796 0.03573 0.0
C2466 C 0.1486 0.33927 0.04684 0.0
C2467 C 0.16208 0.33219 0.05571 0.0
C2468 C 0.15646 0.35257 0.03863 0.0
C2469 C 0.1368 0.34349 0.05714 0.0
C2470 C 0.12074 0.3355 0.05282 0.0
C2471 C 0.10745 0.33828 0.05986 0.0
C2472 C 0.11062 0.34962 0.07153 0.0
C2473 C 0.12699 0.35805 0.07613 0.0
C2474 C 0.14024 0.35466 0.06893 0.0
H2475 H 0.88966 0.90434 0.30756 0.0
H2476 H 0.93981 0.90234 0.32866 0.0
H2477 H 0.92824 0.8897 0.35002 0.0
H2478 H 0.87346 0.91181 0.34063 0.0
H2479 H 0.85309 0.90037 0.33462 0.0
H2480 H 0.86527 0.90829 0.32061 0.0
H2481 H 0.86312 0.88225 0.30752 0.0
H2482 H 0.85084 0.87423 0.32147 0.0
H2483 H 0.86965 0.86793 0.3186 0.0
H2484 H 0.91119 0.88002 0.37046 0.0
H2485 H 0.89017 0.87276 0.38742 0.0
H2486 H 0.85106 0.87861 0.35136 0.0
C2487 C 0.89819 0.90109 0.3166 0.0
C2488 C 0.91561 0.90436 0.31655 0.0
C2489 C 0.9264 0.89988 0.3285 0.0
C2490 C 0.91994 0.89271 0.34066 0.0
C2491 C 0.90267 0.88983 0.34047 0.0
C2492 C 0.89194 0.89366 0.3286 0.0
C2493 C 0.87393 0.88959 0.33119 0.0
C2494 C 0.86598 0.90333 0.3318 0.0
C2495 C 0.86379 0.8778 0.31897 0.0
C2496 C 0.87623 0.88336 0.34664 0.0
C2497 C 0.89287 0.88357 0.35183 0.0
C2498 C 0.89808 0.87948 0.36637 0.0
C2499 C 0.88599 0.87527 0.3759 0.0
C2500 C 0.86884 0.87506 0.37083 0.0
C2501 C 0.86401 0.87881 0.3558 0.0
H2502 H 0.35321 0.66915 0.489 0.0
H2503 H 0.38665 0.71103 0.50406 0.0
H2504 H 0.38606 0.70506 0.53088 0.0
H2505 H 0.32833 0.66785 0.52055 0.0
H2506 H 0.3265 0.64818 0.52134 0.0
H2507 H 0.3282 0.65649 0.50349 0.0
H2508 H 0.35382 0.64472 0.50051 0.0
H2509 H 0.35227 0.63646 0.51836 0.0
H2510 H 0.37156 0.64819 0.51547 0.0
H2511 H 0.38402 0.69337 0.5559 0.0
H2512 H 0.37994 0.67714 0.57713 0.0
H2513 H 0.3478 0.64314 0.54556 0.0
C2514 C 0.36017 0.67722 0.49792 0.0
C2515 C 0.36995 0.69058 0.49442 0.0
C2516 C 0.37902 0.70074 0.50646 0.0
C2517 C 0.37875 0.69745 0.52173 0.0
C2518 C 0.36928 0.68401 0.52475 0.0
C2519 C 0.36005 0.67411 0.51317 0.0
C2520 C 0.35168 0.66007 0.51935 0.0
C2521 C 0.33254 0.65804 0.51598 0.0
C2522 C 0.3577 0.64657 0.51305 0.0
C2523 C 0.35795 0.66345 0.5362 0.0
C2524 C 0.36799 0.67735 0.53912 0.0
C2525 C 0.37594 0.68257 0.55378 0.0
C2526 C 0.37358 0.67332 0.56574 0.0
C2527 C 0.3633 0.65908 0.56293 0.0
C2528 C 0.35541 0.65413 0.54799 0.0
H2529 H 0.61954 0.15887 0.79972 0.0
H2530 H 0.59736 0.11361 0.78307 0.0
H2531 H 0.60643 0.1052 0.80834 0.0
H2532 H 0.65562 0.15086 0.82264 0.0
H2533 H 0.65598 0.16476 0.83763 0.0
H2534 H 0.64746 0.1672 0.81832 0.0
H2535 H 0.61964 0.17044 0.82726 0.0
H2536 H 0.62806 0.16797 0.84659 0.0
H2537 H 0.60876 0.1563 0.83764 0.0
H2538 H 0.61816 0.10172 0.83543 0.0
H2539 H 0.6318 0.10346 0.86224 0.0
H2540 H 0.64664 0.15094 0.86089 0.0
C2541 C 0.61654 0.14719 0.80138 0.0
C2542 C 0.60771 0.1369 0.78941 0.0
C2543 C 0.6041 0.12171 0.79206 0.0
C2544 C 0.60919 0.11682 0.80638 0.0
C2545 C 0.61788 0.12726 0.81792 0.0
C2546 C 0.62154 0.14212 0.81557 0.0
C2547 C 0.63122 0.15106 0.82979 0.0
C2548 C 0.6486 0.15893 0.82692 0.0
C2549 C 0.62132 0.16209 0.83566 0.0
C2550 C 0.63245 0.1389 0.8405 0.0
C2551 C 0.62467 0.12525 0.83346 0.0
C2552 C 0.62431 0.11235 0.84106 0.0
C2553 C 0.63217 0.11344 0.85625 0.0
C2554 C 0.64029 0.12733 0.86368 0.0
C2555 C 0.64035 0.14019 0.85563 0.0
H2556 H 0.16577 0.68607 0.50778 0.0
H2557 H 0.11818 0.69805 0.51248 0.0
H2558 H 0.11143 0.6975 0.48442 0.0
H2559 H 0.17389 0.7068 0.47448 0.0
H2560 H 0.18292 0.69269 0.46611 0.0
H2561 H 0.18453 0.69527 0.48654 0.0
H2562 H 0.17086 0.66773 0.48753 0.0
H2563 H 0.16913 0.66508 0.46712 0.0
H2564 H 0.15078 0.66048 0.47626 0.0
H2565 H 0.10905 0.69387 0.45579 0.0
H2566 H 0.11158 0.6879 0.4288 0.0
H2567 H 0.16051 0.67812 0.44304 0.0
C2568 C 0.15404 0.68883 0.50295 0.0
C2569 C 0.14253 0.69217 0.51235 0.0
C2570 C 0.12722 0.69551 0.50552 0.0
C2571 C 0.12328 0.69523 0.4896 0.0
C2572 C 0.13478 0.69162 0.48067 0.0
C2573 C 0.14988 0.68854 0.48712 0.0
C2574 C 0.15973 0.68425 0.47503 0.0
C2575 C 0.17624 0.69542 0.47557 0.0
C2576 C 0.16279 0.66845 0.47658 0.0
C2577 C 0.14771 0.68519 0.46077 0.0
C2578 C 0.13343 0.68954 0.46424 0.0
C2579 C 0.12027 0.69066 0.45293 0.0
C2580 C 0.1218 0.68727 0.43768 0.0
C2581 C 0.13638 0.68291 0.43394 0.0
C2582 C 0.14941 0.68177 0.44564 0.0
H2583 H 0.53577 0.8824 0.67968 0.0
H2584 H 0.53655 0.83604 0.6847 0.0
H2585 H 0.55198 0.83566 0.66277 0.0
H2586 H 0.52952 0.88037 0.63898 0.0
H2587 H 0.54284 0.89802 0.63775 0.0
H2588 H 0.53216 0.89473 0.65403 0.0
H2589 H 0.56045 0.90187 0.67206 0.0
H2590 H 0.57121 0.90522 0.65583 0.0
H2591 H 0.57715 0.89244 0.6693 0.0
H2592 H 0.56666 0.84016 0.63985 0.0
H2593 H 0.5801 0.8495 0.6179 0.0
H2594 H 0.57005 0.89288 0.62818 0.0
C2595 C 0.53923 0.87217 0.67622 0.0
C2596 C 0.53494 0.85924 0.6839 0.0
C2597 C 0.53971 0.84609 0.679 0.0
C2598 C 0.54847 0.84576 0.66655 0.0
C2599 C 0.55242 0.85868 0.65918 0.0
C2600 C 0.54801 0.87165 0.66386 0.0
C2601 C 0.55368 0.88399 0.65394 0.0
C2602 C 0.53865 0.8896 0.64569 0.0
C2603 C 0.56638 0.89662 0.66334 0.0
C2604 C 0.56186 0.8759 0.64288 0.0
C2605 C 0.561 0.8613 0.64609 0.0
C2606 C 0.56748 0.85158 0.63728 0.0
C2607 C 0.57506 0.85694 0.62487 0.0
C2608 C 0.57612 0.87186 0.62146 0.0
C2609 C 0.56944 0.88143 0.6306 0.0
H2610 H 0.38596 0.3232 0.01065 0.0
H2611 H 0.33342 0.31196 0.01547 0.0
H2612 H 0.32582 0.31913 0.98935 0.0
H2613 H 0.38345 0.35477 0.98789 0.0
H2614 H 0.39831 0.35053 0.97611 0.0
H2615 H 0.39969 0.34538 0.99553 0.0
H2616 H 0.39829 0.31818 0.98618 0.0
H2617 H 0.39691 0.32324 0.96675 0.0
H2618 H 0.38106 0.30897 0.97215 0.0
H2619 H 0.32386 0.32676 0.96248 0.0
H2620 H 0.3277 0.33355 0.93637 0.0
H2621 H 0.3814 0.3392 0.94876 0.0
C2622 C 0.37286 0.32239 0.00627 0.0
C2623 C 0.36028 0.31709 0.01512 0.0
C2624 C 0.34327 0.31601 0.0089 0.0
C2625 C 0.33883 0.32009 0.9941 0.0
C2626 C 0.35153 0.32518 0.98564 0.0
C2627 C 0.3682 0.32631 0.99147 0.0
C2628 C 0.37937 0.33145 0.97975 0.0
C2629 C 0.39088 0.34642 0.98515 0.0
C2630 C 0.3895 0.31976 0.97598 0.0
C2631 C 0.36637 0.3329 0.96637 0.0
C2632 C 0.3504 0.32936 0.97006 0.0
C2633 C 0.33631 0.32962 0.95948 0.0
C2634 C 0.3386 0.3335 0.94471 0.0
C2635 C 0.35485 0.33699 0.94066 0.0
C2636 C 0.36888 0.33672 0.95166 0.0
H2637 H 0.92952 0.10478 0.19704 0.0
H2638 H 0.93655 0.15258 0.20071 0.0
H2639 H 0.9267 0.15223 0.17308 0.0
H2640 H 0.94156 0.10115 0.15868 0.0
H2641 H 0.9259 0.0846 0.1533 0.0
H2642 H 0.93531 0.08883 0.17296 0.0
H2643 H 0.90589 0.08703 0.18085 0.0
H2644 H 0.89641 0.08291 0.16125 0.0
H2645 H 0.89212 0.0983 0.17212 0.0
H2646 H 0.9135 0.14637 0.14543 0.0
H2647 H 0.89828 0.13547 0.12025 0.0
H2648 H 0.90041 0.09165 0.13495 0.0
C2649 C 0.92932 0.11522 0.19201 0.0
C2650 C 0.93385 0.12872 0.20105 0.0
C2651 C 0.9332 0.1421 0.19401 0.0
C2652 C 0.92764 0.14202 0.17832 0.0
C2653 C 0.92289 0.12847 0.16981 0.0
C2654 C 0.9238 0.11533 0.17641 0.0
C2655 C 0.91699 0.1022 0.16503 0.0
C2656 C 0.93076 0.0937 0.16233 0.0
C2657 C 0.90196 0.09202 0.17012 0.0
C2658 C 0.91166 0.10997 0.1511 0.0
C2659 C 0.91531 0.12512 0.15399 0.0
C2660 C 0.91079 0.13453 0.14298 0.0
C2661 C 0.9022 0.12824 0.12871 0.0
C2662 C 0.89812 0.11272 0.12565 0.0
C2663 C 0.9032 0.10356 0.13697 0.0
H2664 H 0.02098 0.11191 0.27885 0.0
H2665 H 0.02595 0.15951 0.2794 0.0
H2666 H 0.05517 0.16266 0.29193 0.0
H2667 H 0.044 0.11106 0.31507 0.0
H2668 H 0.0538 0.09613 0.30985 0.0
H2669 H 0.03371 0.09754 0.2998 0.0
H2670 H 0.04543 0.09748 0.27416 0.0
H2671 H 0.06557 0.09603 0.28415 0.0
H2672 H 0.06377 0.11088 0.27193 0.0
H2673 H 0.08293 0.16072 0.3063 0.0
H2674 H 0.10771 0.15373 0.32089 0.0
H2675 H 0.08501 0.10744 0.31059 0.0
C2676 C 0.02828 0.123 0.2814 0.0
C2677 C 0.02117 0.13547 0.27812 0.0
C2678 C 0.03112 0.14979 0.28176 0.0
C2679 C 0.04774 0.1517 0.28887 0.0
C2680 C 0.05428 0.13918 0.29215 0.0
C2681 C 0.04491 0.1251 0.28845 0.0
C2682 C 0.05472 0.11351 0.2938 0.0
C2683 C 0.04604 0.10401 0.30531 0.0
C2684 C 0.05754 0.10391 0.2802 0.0
C2685 C 0.07093 0.12328 0.30139 0.0
C2686 C 0.07043 0.13805 0.30026 0.0
C2687 C 0.08355 0.14919 0.3071 0.0
C2688 C 0.09752 0.14513 0.31541 0.0
C2689 C 0.09827 0.13007 0.31676 0.0
C2690 C 0.08487 0.11903 0.30949 0.0
H2691 H 0.16662 0.75182 0.60338 0.0
H2692 H 0.11657 0.72551 0.60066 0.0
H2693 H 0.10725 0.74685 0.61191 0.0
H2694 H 0.16719 0.77281 0.63914 0.0
H2695 H 0.17852 0.78965 0.63306 0.0
H2696 H 0.18146 0.77207 0.62558 0.0
H2697 H 0.17367 0.77938 0.59804 0.0
H2698 H 0.17068 0.79696 0.60544 0.0
H2699 H 0.15403 0.78506 0.59277 0.0
H2700 H 0.10323 0.77124 0.6229 0.0
H2701 H 0.10466 0.79715 0.63217 0.0
H2702 H 0.15708 0.80768 0.6271 0.0
C2703 C 0.15374 0.75049 0.6053 0.0
C2704 C 0.14233 0.73697 0.60121 0.0
C2705 C 0.12553 0.73575 0.60372 0.0
C2706 C 0.12013 0.7478 0.61013 0.0
C2707 C 0.13167 0.761 0.61392 0.0
C2708 C 0.14811 0.76243 0.61157 0.0
C2709 C 0.15783 0.77799 0.61606 0.0
C2710 C 0.17209 0.77813 0.62925 0.0
C2711 C 0.16444 0.78528 0.60225 0.0
C2712 C 0.14425 0.78513 0.62119 0.0
C2713 C 0.12928 0.77511 0.61998 0.0
C2714 C 0.11488 0.77917 0.62391 0.0
C2715 C 0.1158 0.79388 0.62914 0.0
C2716 C 0.13096 0.80434 0.63025 0.0
C2717 C 0.14536 0.79985 0.62632 0.0
H2718 H 0.45921 0.88182 0.80226 0.0
H2719 H 0.45383 0.83496 0.80859 0.0
H2720 H 0.4306 0.83621 0.82318 0.0
H2721 H 0.45005 0.89274 0.83954 0.0
H2722 H 0.43882 0.90647 0.83221 0.0
H2723 H 0.45549 0.90195 0.82291 0.0
H2724 H 0.43526 0.89603 0.79737 0.0
H2725 H 0.41851 0.90044 0.80659 0.0
H2726 H 0.41607 0.88265 0.79649 0.0
H2727 H 0.40726 0.84246 0.83631 0.0
H2728 H 0.38585 0.85339 0.84725 0.0
H2729 H 0.4066 0.89601 0.83221 0.0
C2730 C 0.45328 0.87183 0.80682 0.0
C2731 C 0.45836 0.85829 0.80429 0.0
C2732 C 0.45018 0.84547 0.81041 0.0
C2733 C 0.43697 0.84606 0.8187 0.0
C2734 C 0.43214 0.85956 0.8208 0.0
C2735 C 0.4401 0.87223 0.8151 0.0
C2736 C 0.43229 0.88528 0.81863 0.0
C2737 C 0.44491 0.89732 0.82894 0.0
C2738 C 0.42511 0.89146 0.80389 0.0
C2739 C 0.41854 0.87796 0.82706 0.0
C2740 C 0.41868 0.86313 0.82825 0.0
C2741 C 0.40703 0.85405 0.83544 0.0
C2742 C 0.39491 0.8603 0.84155 0.0
C2743 C 0.39449 0.87542 0.8403 0.0
C2744 C 0.40656 0.88437 0.83311 0.0
H2745 H 0.36871 0.23434 0.08028 0.0
H2746 H 0.42131 0.25485 0.08519 0.0
H2747 H 0.42886 0.23111 0.09187 0.0
H2748 H 0.37178 0.21343 0.11166 0.0
H2749 H 0.35656 0.19752 0.10315 0.0
H2750 H 0.35524 0.21553 0.09685 0.0
H2751 H 0.35592 0.20621 0.06902 0.0
H2752 H 0.35711 0.1881 0.07522 0.0
H2753 H 0.37277 0.19755 0.06483 0.0
H2754 H 0.43064 0.20598 0.10083 0.0
H2755 H 0.4264 0.18099 0.11041 0.0
H2756 H 0.37276 0.17693 0.09955 0.0
C2757 C 0.38183 0.23378 0.08241 0.0
C2758 C 0.39442 0.24646 0.08216 0.0
C2759 C 0.41143 0.24528 0.08526 0.0
C2760 C 0.41585 0.23184 0.08905 0.0
C2761 C 0.40312 0.21966 0.08961 0.0
C2762 C 0.38645 0.22048 0.08624 0.0
C2763 C 0.37516 0.20607 0.08865 0.0
C2764 C 0.36404 0.20828 0.1008 0.0
C2765 C 0.36462 0.19907 0.07353 0.0
C2766 C 0.38808 0.19716 0.09429 0.0
C2767 C 0.40414 0.20514 0.09465 0.0
C2768 C 0.41814 0.19952 0.10031 0.0
C2769 C 0.41563 0.18536 0.10572 0.0
C2770 C 0.39929 0.17701 0.10535 0.0
C2771 C 0.38538 0.18301 0.09958 0.0
H2772 H 0.02396 0.90189 0.24835 0.0
H2773 H 0.99153 0.86128 0.22763 0.0
H2774 H 0.01597 0.85284 0.21965 0.0
H2775 H 0.05044 0.90668 0.21969 0.0
H2776 H 0.06917 0.91388 0.23295 0.0
H2777 H 0.0492 0.91644 0.23739 0.0
H2778 H 0.05449 0.90409 0.26279 0.0
H2779 H 0.07447 0.90146 0.25841 0.0
H2780 H 0.0593 0.88588 0.26245 0.0
H2781 H 0.04393 0.84925 0.21318 0.0
H2782 H 0.07328 0.85086 0.20884 0.0
H2783 H 0.08718 0.89367 0.23396 0.0
C2784 C 0.02196 0.89118 0.2422 0.0
C2785 C 0.00582 0.88223 0.23863 0.0
C2786 C 0.00378 0.86832 0.2305 0.0
C2787 C 0.01759 0.86343 0.22593 0.0
C2788 C 0.03332 0.87256 0.22961 0.0
C2789 C 0.03557 0.88614 0.23756 0.0
C2790 C 0.0537 0.894 0.23984 0.0
C2791 C 0.05574 0.90861 0.23199 0.0
C2792 C 0.06091 0.8965 0.25689 0.0
C2793 C 0.06132 0.88275 0.23185 0.0
C2794 C 0.04938 0.87044 0.22605 0.0
C2795 C 0.0534 0.85876 0.21783 0.0
C2796 C 0.07006 0.85972 0.21547 0.0
C2797 C 0.08244 0.8722 0.22143 0.0
C2798 C 0.07797 0.88386 0.22963 0.0
H2799 H 0.36513 0.76033 0.40054 0.0
H2800 H 0.40719 0.78093 0.43451 0.0
H2801 H 0.40466 0.80543 0.42543 0.0
H2802 H 0.37637 0.78376 0.37075 0.0
H2803 H 0.35503 0.78416 0.36313 0.0
H2804 H 0.35987 0.76836 0.37264 0.0
H2805 H 0.33885 0.7713 0.39121 0.0
H2806 H 0.33398 0.78713 0.38178 0.0
H2807 H 0.34102 0.78868 0.40205 0.0
H2808 H 0.39686 0.82775 0.41313 0.0
H2809 H 0.38595 0.846 0.39699 0.0
H2810 H 0.35015 0.81055 0.37024 0.0
C2811 C 0.37378 0.77 0.4061 0.0
C2812 C 0.38629 0.76878 0.41829 0.0
C2813 C 0.39752 0.78165 0.42514 0.0
C2814 C 0.39614 0.7956 0.4201 0.0
C2815 C 0.38361 0.79643 0.40809 0.0
C2816 C 0.37276 0.78396 0.40105 0.0
C2817 C 0.36079 0.78779 0.38802 0.0
C2818 C 0.36317 0.78059 0.37273 0.0
C2819 C 0.34258 0.78347 0.39095 0.0
C2820 C 0.36654 0.80438 0.38886 0.0
C2821 C 0.37959 0.80918 0.40062 0.0
C2822 C 0.38672 0.82411 0.40384 0.0
C2823 C 0.38042 0.83438 0.39469 0.0
C2824 C 0.36733 0.82961 0.38238 0.0
C2825 C 0.3603 0.81443 0.3795 0.0
H2826 H 0.51365 0.12783 0.69955 0.0
H2827 H 0.52449 0.17253 0.72061 0.0
H2828 H 0.49496 0.17429 0.71323 0.0
H2829 H 0.48645 0.13415 0.66766 0.0
H2830 H 0.47234 0.11657 0.66689 0.0
H2831 H 0.49396 0.11836 0.67494 0.0
H2832 H 0.48518 0.10836 0.70006 0.0
H2833 H 0.4635 0.10646 0.69205 0.0
H2834 H 0.47154 0.1172 0.70987 0.0
H2835 H 0.46494 0.17202 0.7013 0.0
H2836 H 0.43629 0.16536 0.68706 0.0
H2837 H 0.44489 0.12193 0.67448 0.0
C2838 C 0.50978 0.13792 0.70283 0.0
C2839 C 0.5214 0.15004 0.71067 0.0
C2840 C 0.51582 0.16307 0.71465 0.0
C2841 C 0.49907 0.16418 0.7105 0.0
C2842 C 0.48803 0.15212 0.7025 0.0
C2843 C 0.49312 0.13919 0.69884 0.0
C2844 C 0.47896 0.12804 0.68969 0.0
C2845 C 0.48319 0.12405 0.67386 0.0
C2846 C 0.47453 0.1142 0.69844 0.0
C2847 C 0.46517 0.13683 0.68851 0.0
C2848 C 0.47063 0.15069 0.696 0.0
C2849 C 0.4604 0.16109 0.69571 0.0
C2850 C 0.44414 0.15719 0.68762 0.0
C2851 C 0.43819 0.14292 0.68014 0.0
C2852 C 0.44895 0.13272 0.68052 0.0
H2853 H 0.08443 0.2247 0.93916 0.0
H2854 H 0.13303 0.24215 0.9658 0.0
H2855 H 0.14308 0.21996 0.95756 0.0
H2856 H 0.08331 0.18561 0.94505 0.0
H2857 H 0.07346 0.1797 0.92577 0.0
H2858 H 0.06966 0.19623 0.93498 0.0
H2859 H 0.07942 0.21119 0.9127 0.0
H2860 H 0.08325 0.19474 0.90346 0.0
H2861 H 0.09978 0.21083 0.9076 0.0
H2862 H 0.14811 0.19626 0.94549 0.0
H2863 H 0.14826 0.17384 0.92927 0.0
H2864 H 0.09667 0.17252 0.90991 0.0
C2865 C 0.0971 0.22374 0.94348 0.0
C2866 C 0.10791 0.23507 0.95324 0.0
C2867 C 0.12452 0.23356 0.95836 0.0
C2868 C 0.13032 0.22098 0.95379 0.0
C2869 C 0.11937 0.21007 0.94402 0.0
C2870 C 0.10314 0.21138 0.93887 0.0
C2871 C 0.09426 0.19866 0.92757 0.0
C2872 C 0.07929 0.18951 0.93372 0.0
C2873 C 0.08887 0.20419 0.91191 0.0
C2874 C 0.1081 0.19009 0.927 0.0
C2875 C 0.12241 0.19672 0.93673 0.0
C2876 C 0.13694 0.19094 0.9379 0.0
C2877 C 0.13689 0.17818 0.92871 0.0
C2878 C 0.12248 0.17148 0.91837 0.0
C2879 C 0.10788 0.17746 0.91768 0.0
H2880 H 0.30955 0.06472 0.11648 0.0
H2881 H 0.30561 0.05451 0.16329 0.0
H2882 H 0.32828 0.07594 0.17241 0.0
H2883 H 0.35412 0.07546 0.12178 0.0
H2884 H 0.35426 0.08999 0.10887 0.0
H2885 H 0.33737 0.07415 0.10608 0.0
H2886 H 0.316 0.09133 0.1068 0.0
H2887 H 0.33284 0.10723 0.1096 0.0
H2888 H 0.31814 0.10438 0.12299 0.0
H2889 H 0.35144 0.09845 0.17638 0.0
H2890 H 0.37371 0.12013 0.17492 0.0
H2891 H 0.36313 0.1149 0.12545 0.0
C2892 C 0.31337 0.06703 0.12865 0.0
C2893 C 0.30577 0.05798 0.13918 0.0
C2894 C 0.31125 0.06131 0.15502 0.0
C2895 C 0.3241 0.07345 0.16031 0.0
C2896 C 0.33137 0.08211 0.14961 0.0
C2897 C 0.32624 0.07903 0.13412 0.0
C2898 C 0.33637 0.08984 0.125 0.0
C2899 C 0.34611 0.08188 0.11483 0.0
C2900 C 0.32517 0.09872 0.11554 0.0
C2901 C 0.34799 0.0995 0.13778 0.0
C2902 C 0.34488 0.0949 0.15189 0.0
C2903 C 0.35404 0.10212 0.16539 0.0
C2904 C 0.36674 0.11436 0.16444 0.0
C2905 C 0.37024 0.11922 0.15008 0.0
C2906 C 0.36067 0.11162 0.13661 0.0
H2907 H 0.77455 0.44663 0.88348 0.0
H2908 H 0.79454 0.43135 0.92638 0.0
H2909 H 0.79446 0.40719 0.91328 0.0
H2910 H 0.74785 0.41218 0.86773 0.0
H2911 H 0.75235 0.4147 0.8486 0.0
H2912 H 0.75321 0.43053 0.86147 0.0
H2913 H 0.78367 0.44078 0.85731 0.0
H2914 H 0.78289 0.42503 0.84439 0.0
H2915 H 0.79912 0.42941 0.86067 0.0
H2916 H 0.79187 0.38464 0.89556 0.0
H2917 H 0.7891 0.36595 0.87406 0.0
H2918 H 0.77265 0.39654 0.84252 0.0
C2919 C 0.77879 0.43816 0.89013 0.0
C2920 C 0.78443 0.44078 0.90596 0.0
C2921 C 0.79016 0.42953 0.91424 0.0
C2922 C 0.7901 0.41577 0.90692 0.0
C2923 C 0.78446 0.41353 0.89129 0.0
C2924 C 0.77909 0.42446 0.88296 0.0
C2925 C 0.77446 0.41949 0.86617 0.0
C2926 C 0.75586 0.41921 0.86067 0.0
C2927 C 0.78571 0.42926 0.85657 0.0
C2928 C 0.77804 0.40405 0.86636 0.0
C2929 C 0.78361 0.40076 0.88099 0.0
C2930 C 0.7876 0.38711 0.88405 0.0
C2931 C 0.78603 0.37659 0.87181 0.0
C2932 C 0.7807 0.37986 0.85671 0.0
C2933 C 0.77665 0.39375 0.85399 0.0
H2934 H 0.80747 0.57617 0.11412 0.0
H2935 H 0.83994 0.56265 0.15139 0.0
H2936 H 0.86461 0.57644 0.14168 0.0
H2937 H 0.83331 0.57319 0.08561 0.0
H2938 H 0.82862 0.58913 0.07624 0.0
H2939 H 0.81353 0.57859 0.08644 0.0
H2940 H 0.81266 0.60227 0.10278 0.0
H2941 H 0.82778 0.61288 0.09264 0.0
H2942 H 0.83182 0.61304 0.11314 0.0
H2943 H 0.88586 0.59108 0.12733 0.0
H2944 H 0.90188 0.60565 0.10956 0.0
H2945 H 0.85539 0.60945 0.08186 0.0
C2946 C 0.81976 0.57616 0.1203 0.0
C2947 C 0.82176 0.56832 0.13352 0.0
C2948 C 0.83807 0.56858 0.14124 0.0
C2949 C 0.85218 0.57639 0.13583 0.0
C2950 C 0.84976 0.58394 0.12272 0.0
C2951 C 0.83395 0.58391 0.11508 0.0
C2952 C 0.83475 0.59269 0.10111 0.0
C2953 C 0.8271 0.58281 0.08649 0.0
C2954 C 0.82625 0.60601 0.10251 0.0
C2955 C 0.85348 0.59754 0.102 0.0
C2956 C 0.86194 0.59241 0.11455 0.0
C2957 C 0.87936 0.59521 0.11751 0.0
C2958 C 0.88835 0.60342 0.10733 0.0
C2959 C 0.87988 0.60875 0.09439 0.0
C2960 C 0.86222 0.60577 0.0918 0.0
H2961 H 0.70761 0.53793 0.37616 0.0
H2962 H 0.68692 0.51301 0.41179 0.0
H2963 H 0.6688 0.53102 0.4149 0.0
H2964 H 0.70997 0.57295 0.39367 0.0
H2965 H 0.70441 0.58143 0.3763 0.0
H2966 H 0.71447 0.56582 0.3758 0.0
H2967 H 0.6901 0.55176 0.35571 0.0
H2968 H 0.67999 0.56738 0.35608 0.0
H2969 H 0.66895 0.54941 0.35975 0.0
H2970 H 0.65485 0.553 0.41571 0.0
H2971 H 0.64563 0.57692 0.41358 0.0
H2972 H 0.67534 0.58717 0.37735 0.0
C2973 C 0.69907 0.53609 0.38444 0.0
C2974 C 0.69867 0.52403 0.39371 0.0
C2975 C 0.68742 0.52214 0.40452 0.0
C2976 C 0.67707 0.53231 0.40637 0.0
C2977 C 0.67804 0.54424 0.39725 0.0
C2978 C 0.68868 0.54611 0.38642 0.0
C2979 C 0.68802 0.56027 0.37863 0.0
C2980 C 0.70524 0.57073 0.38127 0.0
C2981 C 0.68136 0.557 0.36153 0.0
C2982 C 0.67563 0.56624 0.38699 0.0
C2983 C 0.66991 0.5568 0.39762 0.0
C2984 C 0.65901 0.56035 0.40725 0.0
C2985 C 0.65384 0.57391 0.40597 0.0
C2986 C 0.65952 0.58368 0.39511 0.0
C2987 C 0.67054 0.57975 0.38553 0.0
H2988 H 0.20409 0.92782 0.13911 0.0
H2989 H 0.23644 0.93598 0.18283 0.0
H2990 H 0.21469 0.9202 0.19466 0.0
H2991 H 0.16641 0.9292 0.15326 0.0
H2992 H 0.15382 0.91474 0.14 0.0
H2993 H 0.17232 0.92588 0.13479 0.0
H2994 H 0.18379 0.90231 0.12915 0.0
H2995 H 0.16528 0.89108 0.13431 0.0
H2996 H 0.18562 0.88948 0.14372 0.0
H2997 H 0.1887 0.90457 0.20199 0.0
H2998 H 0.16081 0.88978 0.20401 0.0
H2999 H 0.14565 0.89223 0.15552 0.0
C3000 C 0.20671 0.92617 0.15114 0.0
C3001 C 0.22199 0.93314 0.16003 0.0
C3002 C 0.22485 0.93074 0.17577 0.0
C3003 C 0.21257 0.9218 0.1826 0.0
C3004 C 0.19755 0.91528 0.17353 0.0
C3005 C 0.19462 0.9173 0.15813 0.0
C3006 C 0.17725 0.90945 0.151 0.0
C3007 C 0.16684 0.92048 0.14438 0.0
C3008 C 0.17804 0.89736 0.13883 0.0
C3009 C 0.17077 0.90286 0.16485 0.0
C3010 C 0.18266 0.90629 0.17773 0.0
C3011 C 0.17933 0.90174 0.19196 0.0
C3012 C 0.16344 0.89343 0.19301 0.0
C3013 C 0.15109 0.88978 0.17992 0.0
C3014 C 0.15491 0.89459 0.16569 0.0
H3015 H 0.1882 0.92769 0.61587 0.0
H3016 H 0.21275 0.95208 0.65843 0.0
H3017 H 0.20129 0.93112 0.6727 0.0
H3018 H 0.15061 0.91063 0.62978 0.0
H3019 H 0.14853 0.89341 0.61869 0.0
H3020 H 0.15861 0.91038 0.61188 0.0
H3021 H 0.18492 0.89931 0.60988 0.0
H3022 H 0.17496 0.88233 0.61676 0.0
H3023 H 0.19498 0.8921 0.62644 0.0
H3024 H 0.18721 0.90747 0.68231 0.0
H3025 H 0.17123 0.88292 0.68659 0.0
H3026 H 0.15588 0.87407 0.63775 0.0
C3027 C 0.19115 0.92866 0.6282 0.0
C3028 C 0.20138 0.94154 0.63604 0.0
C3029 C 0.20494 0.94233 0.65217 0.0
C3030 C 0.1985 0.93048 0.66038 0.0
C3031 C 0.18854 0.91792 0.65228 0.0
C3032 C 0.18485 0.91694 0.63656 0.0
C3033 C 0.17384 0.9022 0.6306 0.0
C3034 C 0.15689 0.90428 0.62225 0.0
C3035 C 0.18271 0.89347 0.62031 0.0
C3036 C 0.17193 0.89504 0.64544 0.0
C3037 C 0.18049 0.90428 0.65781 0.0
C3038 C 0.18044 0.90014 0.67271 0.0
C3039 C 0.17128 0.88621 0.67503 0.0
C3040 C 0.16232 0.87659 0.66251 0.0
C3041 C 0.16278 0.88109 0.64754 0.0
H3042 H 0.83585 0.46074 0.38533 0.0
H3043 H 0.81181 0.48271 0.34891 0.0
H3044 H 0.82206 0.46772 0.32991 0.0
H3045 H 0.8726 0.45754 0.36815 0.0
H3046 H 0.87342 0.43959 0.37497 0.0
H3047 H 0.86485 0.45256 0.38564 0.0
H3048 H 0.83735 0.43323 0.38454 0.0
H3049 H 0.84583 0.42021 0.37387 0.0
H3050 H 0.82627 0.42503 0.3663 0.0
H3051 H 0.83434 0.44959 0.31482 0.0
H3052 H 0.84692 0.42943 0.30507 0.0
H3053 H 0.8628 0.41978 0.35159 0.0
C3054 C 0.83284 0.46251 0.37338 0.0
C3055 C 0.82307 0.47293 0.36861 0.0
C3056 C 0.8193 0.4748 0.35283 0.0
C3057 C 0.82509 0.46636 0.34195 0.0
C3058 C 0.83462 0.45612 0.34705 0.0
C3059 C 0.83845 0.45418 0.3624 0.0
C3060 C 0.8484 0.44213 0.36494 0.0
C3061 C 0.86585 0.44833 0.37396 0.0
C3062 C 0.83889 0.4294 0.37288 0.0
C3063 C 0.84942 0.43746 0.34862 0.0
C3064 C 0.84152 0.4457 0.33844 0.0
C3065 C 0.84063 0.44312 0.3227 0.0
C3066 C 0.84786 0.43171 0.31727 0.0
C3067 C 0.85574 0.42299 0.32756 0.0
C3068 C 0.85667 0.42611 0.34342 0.0
H3069 H 0.71309 0.53945 0.85881 0.0
H3070 H 0.74591 0.56918 0.8943 0.0
H3071 H 0.73078 0.58903 0.88713 0.0
H3072 H 0.70912 0.5666 0.83095 0.0
H3073 H 0.68741 0.55887 0.8242 0.0
H3074 H 0.7012 0.54713 0.83178 0.0
H3075 H 0.6814 0.53839 0.8513 0.0
H3076 H 0.66755 0.55008 0.84378 0.0
H3077 H 0.67578 0.55189 0.86382 0.0
H3078 H 0.71133 0.60535 0.87683 0.0
H3079 H 0.68904 0.61698 0.86381 0.0
H3080 H 0.66914 0.57672 0.83504 0.0
C3081 C 0.71718 0.55015 0.86502 0.0
C3082 C 0.73071 0.55275 0.87711 0.0
C3083 C 0.73559 0.56692 0.88499 0.0
C3084 C 0.72709 0.57828 0.88099 0.0
C3085 C 0.71375 0.57531 0.86908 0.0
C3086 C 0.70883 0.56161 0.86119 0.0
C3087 C 0.69385 0.56119 0.84908 0.0
C3088 C 0.69816 0.55828 0.83306 0.0
C3089 C 0.67875 0.54971 0.85219 0.0
C3090 C 0.69103 0.57676 0.85148 0.0
C3091 C 0.70266 0.58475 0.86304 0.0
C3092 C 0.70228 0.59927 0.86763 0.0
C3093 C 0.68966 0.6058 0.86018 0.0
C3094 C 0.67774 0.59783 0.84823 0.0
C3095 C 0.67839 0.58312 0.84392 0.0
H3096 H 0.87 0.70041 0.94361 0.0
H3097 H 0.88379 0.68072 0.98583 0.0
H3098 H 0.89025 0.65982 0.97113 0.0
H3099 H 0.84909 0.66814 0.9231 0.0
H3100 H 0.85589 0.67288 0.90517 0.0
H3101 H 0.85457 0.68723 0.919 0.0
H3102 H 0.88567 0.69906 0.91871 0.0
H3103 H 0.88708 0.68475 0.90479 0.0
H3104 H 0.90143 0.68804 0.92242 0.0
H3105 H 0.89168 0.63961 0.95178 0.0
H3106 H 0.88907 0.62217 0.9292 0.0
H3107 H 0.87471 0.65527 0.89981 0.0
C3108 C 0.87475 0.69189 0.9498 0.0
C3109 C 0.8764 0.69222 0.96587 0.0
C3110 C 0.88247 0.68074 0.97352 0.0
C3111 C 0.8862 0.66882 0.96527 0.0
C3112 C 0.88397 0.66863 0.9494 0.0
C3113 C 0.87857 0.67995 0.94176 0.0
C3114 C 0.87607 0.67663 0.92465 0.0
C3115 C 0.85783 0.67619 0.91758 0.0
C3116 C 0.8883 0.68778 0.91721 0.0
C3117 C 0.88036 0.66145 0.92388 0.0
C3118 C 0.88503 0.65707 0.93826 0.0
C3119 C 0.88835 0.64302 0.94045 0.0
C3120 C 0.88674 0.63318 0.9276 0.0
C3121 C 0.88188 0.63746 0.91279 0.0
C3122 C 0.87887 0.65185 0.91096 0.0
H3123 H 0.10163 0.1401 0.69705 0.0
H3124 H 0.08081 0.09526 0.70658 0.0
H3125 H 0.09478 0.08565 0.68655 0.0
H3126 H 0.0971 0.13373 0.6569 0.0
H3127 H 0.11645 0.14588 0.65491 0.0
H3128 H 0.10553 0.14929 0.67051 0.0
H3129 H 0.13207 0.14883 0.68977 0.0
H3130 H 0.1431 0.14548 0.67421 0.0
H3131 H 0.14186 0.13301 0.68925 0.0
H3132 H 0.1096 0.08093 0.66456 0.0
H3133 H 0.12477 0.08135 0.64249 0.0
H3134 H 0.13689 0.12927 0.64787 0.0
C3135 C 0.10012 0.12826 0.69502 0.0
C3136 C 0.09012 0.11843 0.70339 0.0
C3137 C 0.08843 0.10301 0.70034 0.0
C3138 C 0.09631 0.09744 0.68899 0.0
C3139 C 0.10593 0.10743 0.68085 0.0
C3140 C 0.10795 0.12251 0.68377 0.0
C3141 C 0.11866 0.13085 0.67315 0.0
C3142 C 0.10884 0.1405 0.66328 0.0
C3143 C 0.13488 0.14008 0.68214 0.0
C3144 C 0.12213 0.1181 0.66365 0.0
C3145 C 0.11471 0.10469 0.66831 0.0
C3146 C 0.11568 0.09135 0.66094 0.0
C3147 C 0.12444 0.09172 0.64846 0.0
C3148 C 0.13222 0.10534 0.64347 0.0
C3149 C 0.13105 0.11867 0.65129 0.0
H3150 H 0.65664 0.34028 0.49748 0.0
H3151 H 0.61435 0.30528 0.4798 0.0
H3152 H 0.6082 0.3193 0.45736 0.0
H3153 H 0.63711 0.36921 0.48828 0.0
H3154 H 0.65515 0.38121 0.48317 0.0
H3155 H 0.65785 0.36754 0.4966 0.0
H3156 H 0.67659 0.35657 0.4799 0.0
H3157 H 0.67411 0.37033 0.46646 0.0
H3158 H 0.66883 0.35102 0.46008 0.0
H3159 H 0.6049 0.33828 0.43828 0.0
H3160 H 0.60493 0.36074 0.42401 0.0
H3161 H 0.64904 0.38336 0.45441 0.0
C3162 C 0.64636 0.33536 0.4887 0.0
C3163 C 0.63603 0.32163 0.49035 0.0
C3164 C 0.62248 0.31574 0.47874 0.0
C3165 C 0.61891 0.32362 0.46594 0.0
C3166 C 0.62903 0.33734 0.46491 0.0
C3167 C 0.64256 0.34311 0.47592 0.0
C3168 C 0.65064 0.35859 0.4728 0.0
C3169 C 0.65015 0.36979 0.486 0.0
C3170 C 0.66861 0.35915 0.46961 0.0
C3171 C 0.63925 0.3608 0.45856 0.0
C3172 C 0.62697 0.34836 0.45407 0.0
C3173 C 0.61454 0.34804 0.44162 0.0
C3174 C 0.61459 0.36081 0.43364 0.0
C3175 C 0.62684 0.37373 0.4383 0.0
C3176 C 0.63949 0.37361 0.45072 0.0
H3177 H 0.30852 0.83346 0.17323 0.0
H3178 H 0.3543 0.81708 0.17176 0.0
H3179 H 0.36045 0.83255 0.15047 0.0
H3180 H 0.29718 0.83403 0.13347 0.0
H3181 H 0.28909 0.85077 0.13454 0.0
H3182 H 0.28879 0.83906 0.15022 0.0
H3183 H 0.30531 0.86113 0.16859 0.0
H3184 H 0.30566 0.87292 0.15295 0.0
H3185 H 0.32495 0.8712 0.1644 0.0
H3186 H 0.36062 0.84848 0.12825 0.0
H3187 H 0.35515 0.8643 0.10711 0.0
H3188 H 0.30963 0.87068 0.12349 0.0
C3189 C 0.31992 0.83322 0.16853 0.0
C3190 C 0.33093 0.82405 0.17415 0.0
C3191 C 0.34569 0.82403 0.16766 0.0
C3192 C 0.3493 0.83279 0.15557 0.0
C3193 C 0.3381 0.84159 0.15021 0.0
C3194 C 0.32376 0.84195 0.15654 0.0
C3195 C 0.31355 0.85206 0.14841 0.0
C3196 C 0.29612 0.84346 0.14123 0.0
C3197 C 0.3123 0.8651 0.15924 0.0
C3198 C 0.32423 0.85712 0.13633 0.0
C3199 C 0.33835 0.85098 0.13758 0.0
C3200 C 0.3497 0.85347 0.12725 0.0
C3201 C 0.34646 0.8624 0.11526 0.0
C3202 C 0.33203 0.86875 0.11376 0.0
C3203 C 0.3209 0.86617 0.12454 0.0
H3204 H 0.82872 0.34694 0.47392 0.0
H3205 H 0.84632 0.30721 0.48675 0.0
H3206 H 0.84877 0.31556 0.51397 0.0
H3207 H 0.8561 0.37111 0.50149 0.0
H3208 H 0.84133 0.38247 0.50503 0.0
H3209 H 0.83929 0.37265 0.48671 0.0
H3210 H 0.80895 0.36006 0.48917 0.0
H3211 H 0.81087 0.3699 0.50751 0.0
H3212 H 0.80499 0.35005 0.5057 0.0
H3213 H 0.85147 0.32928 0.53973 0.0
H3214 H 0.85407 0.34731 0.56189 0.0
H3215 H 0.83476 0.37785 0.53196 0.0
C3216 C 0.83283 0.33985 0.48243 0.0
C3217 C 0.83729 0.3264 0.4782 0.0
C3218 C 0.84278 0.31754 0.48972 0.0
C3219 C 0.84419 0.32218 0.50521 0.0
C3220 C 0.83998 0.33564 0.50896 0.0
C3221 C 0.83433 0.34431 0.49789 0.0
C3222 C 0.83153 0.3587 0.50483 0.0
C3223 C 0.84274 0.37201 0.49918 0.0
C3224 C 0.81298 0.35973 0.50161 0.0
C3225 C 0.83687 0.35696 0.52154 0.0
C3226 C 0.84156 0.34353 0.52373 0.0
C3227 C 0.84765 0.33974 0.53817 0.0
C3228 C 0.8491 0.35 0.55065 0.0
C3229 C 0.84455 0.36385 0.54856 0.0
C3230 C 0.8382 0.36727 0.53385 0.0
H3231 H 0.42417 0.12273 0.28858 0.0
H3232 H 0.4353 0.17019 0.28529 0.0
H3233 H 0.4138 0.17292 0.30143 0.0
H3234 H 0.37906 0.11901 0.28821 0.0
H3235 H 0.37822 0.10502 0.30175 0.0
H3236 H 0.39366 0.10672 0.28906 0.0
H3237 H 0.41716 0.10945 0.31225 0.0
H3238 H 0.40182 0.10779 0.325 0.0
H3239 H 0.41868 0.12367 0.32721 0.0
H3240 H 0.39257 0.17065 0.31949 0.0
H3241 H 0.37271 0.1634 0.33766 0.0
H3242 H 0.37522 0.1175 0.32889 0.0
C3243 C 0.42195 0.13369 0.29107 0.0
C3244 C 0.43143 0.14625 0.28564 0.0
C3245 C 0.4282 0.1604 0.28929 0.0
C3246 C 0.41599 0.16206 0.29844 0.0
C3247 C 0.40706 0.14947 0.30379 0.0
C3248 C 0.40983 0.13555 0.30017 0.0
C3249 C 0.39902 0.12386 0.30788 0.0
C3250 C 0.38676 0.11302 0.29601 0.0
C3251 C 0.40982 0.11572 0.31873 0.0
C3252 C 0.38995 0.13341 0.3166 0.0
C3253 C 0.3947 0.14815 0.31404 0.0
C3254 C 0.38856 0.15913 0.3214 0.0
C3255 C 0.3773 0.15493 0.33167 0.0
C3256 C 0.37225 0.1399 0.33438 0.0
C3257 C 0.37866 0.12904 0.32673 0.0
H3258 H 0.64078 0.69565 0.02861 0.0
H3259 H 0.69313 0.71603 0.03082 0.0
H3260 H 0.70037 0.70124 0.05235 0.0
H3261 H 0.64119 0.69251 0.06998 0.0
H3262 H 0.62701 0.67487 0.06718 0.0
H3263 H 0.62581 0.6882 0.05306 0.0
H3264 H 0.62919 0.66887 0.0323 0.0
H3265 H 0.63048 0.65552 0.04633 0.0
H3266 H 0.64701 0.66007 0.03496 0.0
H3267 H 0.70219 0.68245 0.07194 0.0
H3268 H 0.69824 0.66148 0.08841 0.0
H3269 H 0.64478 0.6536 0.0734 0.0
C3270 C 0.65373 0.69724 0.03381 0.0
C3271 C 0.66638 0.70706 0.02807 0.0
C3272 C 0.68321 0.70863 0.03506 0.0
C3273 C 0.68745 0.70029 0.04731 0.0
C3274 C 0.67471 0.69048 0.05248 0.0
C3275 C 0.65817 0.68899 0.04601 0.0
C3276 C 0.64697 0.67704 0.05302 0.0
C3277 C 0.63451 0.68355 0.06131 0.0
C3278 C 0.63789 0.66465 0.04093 0.0
C3279 C 0.65982 0.67179 0.06421 0.0
C3280 C 0.67574 0.67975 0.06382 0.0
C3281 C 0.68975 0.67633 0.07255 0.0
C3282 C 0.68741 0.66445 0.08186 0.0
C3283 C 0.67119 0.6562 0.08242 0.0
C3284 C 0.65727 0.65996 0.07347 0.0
H3285 H 0.0566 0.88524 0.82249 0.0
H3286 H 0.04708 0.83738 0.82156 0.0
H3287 H 0.06416 0.83891 0.84693 0.0
H3288 H 0.09877 0.89164 0.84024 0.0
H3289 H 0.09759 0.9078 0.85181 0.0
H3290 H 0.08407 0.90303 0.83383 0.0
H3291 H 0.05811 0.90285 0.84737 0.0
H3292 H 0.07157 0.90775 0.86538 0.0
H3293 H 0.05519 0.8915 0.86316 0.0
H3294 H 0.08376 0.84562 0.87157 0.0
H3295 H 0.10312 0.85701 0.8945 0.0
H3296 H 0.09854 0.90052 0.88004 0.0
C3297 C 0.05799 0.87508 0.82767 0.0
C3298 C 0.05052 0.86119 0.82003 0.0
C3299 C 0.05264 0.84815 0.82721 0.0
C3300 C 0.06235 0.8489 0.84161 0.0
C3301 C 0.06971 0.86276 0.84873 0.0
C3302 C 0.0675 0.87562 0.84209 0.0
C3303 C 0.07687 0.88911 0.85214 0.0
C3304 C 0.09011 0.89844 0.84402 0.0
C3305 C 0.06471 0.89835 0.85732 0.0
C3306 C 0.0849 0.88182 0.86534 0.0
C3307 C 0.08064 0.86662 0.86314 0.0
C3308 C 0.08699 0.85751 0.87354 0.0
C3309 C 0.09791 0.86411 0.88659 0.0
C3310 C 0.10231 0.8797 0.88923 0.0
C3311 C 0.09562 0.8886 0.87838 0.0
H3312 H 0.98684 0.88514 0.70639 0.0
H3313 H 0.97959 0.9012 0.75118 0.0
H3314 H 0.95505 0.91071 0.73935 0.0
H3315 H 0.97634 0.91543 0.68636 0.0
H3316 H 0.96599 0.90412 0.66943 0.0
H3317 H 0.98267 0.89841 0.68154 0.0
H3318 H 0.9631 0.87346 0.68427 0.0
H3319 H 0.94636 0.87909 0.67216 0.0
H3320 H 0.9434 0.87344 0.69094 0.0
H3321 H 0.93136 0.91875 0.72223 0.0
H3322 H 0.91047 0.92415 0.70149 0.0
H3323 H 0.93409 0.90299 0.66829 0.0
C3324 C 0.9801 0.89061 0.71377 0.0
C3325 C 0.98513 0.89243 0.72972 0.0
C3326 C 0.97594 0.89967 0.73892 0.0
C3327 C 0.962 0.90511 0.73231 0.0
C3328 C 0.95746 0.90319 0.71651 0.0
C3329 C 0.96624 0.89607 0.70739 0.0
C3330 C 0.95898 0.89547 0.69072 0.0
C3331 C 0.97175 0.90386 0.68147 0.0
C3332 C 0.95258 0.87941 0.68414 0.0
C3333 C 0.94472 0.90338 0.69183 0.0
C3334 C 0.94399 0.90777 0.70677 0.0
C3335 C 0.93183 0.91535 0.7105 0.0
C3336 C 0.92009 0.91844 0.69865 0.0
C3337 C 0.9206 0.91393 0.68328 0.0
C3338 C 0.93317 0.90638 0.67993 0.0
H3339 H 0.85346 0.23482 0.40299 0.0
H3340 H 0.80067 0.23343 0.40407 0.0
H3341 H 0.79427 0.20731 0.39404 0.0
H3342 H 0.8482 0.21299 0.36803 0.0
H3343 H 0.86515 0.20374 0.37391 0.0
H3344 H 0.86565 0.22207 0.3819 0.0
H3345 H 0.86915 0.21293 0.40914 0.0
H3346 H 0.86868 0.19457 0.40122 0.0
H3347 H 0.85413 0.19759 0.41388 0.0
H3348 H 0.79359 0.18151 0.38332 0.0
H3349 H 0.79869 0.15805 0.37225 0.0
H3350 H 0.85177 0.17655 0.37769 0.0
C3351 C 0.84056 0.229 0.40126 0.0
C3352 C 0.82756 0.23614 0.40437 0.0
C3353 C 0.81083 0.22817 0.40178 0.0
C3354 C 0.80708 0.21333 0.39611 0.0
C3355 C 0.82018 0.20666 0.39306 0.0
C3356 C 0.83658 0.21424 0.39552 0.0
C3357 C 0.8483 0.20468 0.39082 0.0
C3358 C 0.85735 0.21127 0.3779 0.0
C3359 C 0.8608 0.2023 0.40459 0.0
C3360 C 0.83592 0.19056 0.38526 0.0
C3361 C 0.81977 0.19188 0.38673 0.0
C3362 C 0.80618 0.18032 0.38217 0.0
C3363 C 0.80918 0.16706 0.37592 0.0
C3364 C 0.82562 0.16553 0.37427 0.0
C3365 C 0.83911 0.17745 0.37898 0.0
H3366 H 0.59053 0.14773 0.23801 0.0
H3367 H 0.56877 0.10525 0.25298 0.0
H3368 H 0.58938 0.09385 0.2415 0.0
H3369 H 0.59755 0.1342 0.20214 0.0
H3370 H 0.61702 0.14697 0.20211 0.0
H3371 H 0.60139 0.15203 0.21247 0.0
H3372 H 0.62296 0.15729 0.23722 0.0
H3373 H 0.63868 0.1523 0.22692 0.0
H3374 H 0.63395 0.14312 0.24374 0.0
H3375 H 0.61145 0.08686 0.22735 0.0
H3376 H 0.63307 0.0847 0.21118 0.0
H3377 H 0.64043 0.13177 0.2055 0.0
C3378 C 0.59022 0.13606 0.23906 0.0
C3379 C 0.57809 0.12738 0.24646 0.0
C3380 C 0.57798 0.11212 0.24739 0.0
C3381 C 0.58965 0.10555 0.24094 0.0
C3382 C 0.60132 0.11439 0.23359 0.0
C3383 C 0.60171 0.12932 0.23262 0.0
C3384 C 0.61504 0.13622 0.22349 0.0
C3385 C 0.60728 0.14273 0.20921 0.0
C3386 C 0.62845 0.14792 0.23344 0.0
C3387 C 0.62195 0.12281 0.21931 0.0
C3388 C 0.61396 0.11035 0.22534 0.0
C3389 C 0.61791 0.09657 0.22269 0.0
C3390 C 0.63027 0.09547 0.21356 0.0
C3391 C 0.63851 0.10807 0.20713 0.0
C3392 C 0.63431 0.12192 0.21018 0.0
H3393 H 0.63894 0.78428 0.93741 0.0
H3394 H 0.59003 0.76995 0.95082 0.0
H3395 H 0.57988 0.78993 0.93712 0.0
H3396 H 0.63886 0.82438 0.93902 0.0
H3397 H 0.64926 0.82699 0.92247 0.0
H3398 H 0.65321 0.81278 0.93494 0.0
H3399 H 0.64485 0.79326 0.91194 0.0
H3400 H 0.64079 0.80736 0.89944 0.0
H3401 H 0.62466 0.79139 0.9004 0.0
H3402 H 0.57422 0.80975 0.91963 0.0
H3403 H 0.57378 0.82806 0.90007 0.0
H3404 H 0.62629 0.8293 0.89818 0.0
C3405 C 0.6262 0.78554 0.93779 0.0
C3406 C 0.61531 0.77558 0.94526 0.0
C3407 C 0.59864 0.77748 0.94523 0.0
C3408 C 0.59276 0.78881 0.93749 0.0
C3409 C 0.60371 0.7982 0.92991 0.0
C3410 C 0.62012 0.79675 0.93008 0.0
C3411 C 0.62901 0.80754 0.92012 0.0
C3412 C 0.64344 0.81858 0.92971 0.0
C3413 C 0.63518 0.7994 0.90721 0.0
C3414 C 0.61492 0.81504 0.91398 0.0
C3415 C 0.60047 0.80962 0.91987 0.0
C3416 C 0.58554 0.81427 0.91516 0.0
C3417 C 0.58539 0.82465 0.90409 0.0
C3418 C 0.60005 0.83026 0.89788 0.0
C3419 C 0.61499 0.82542 0.90298 0.0
H3420 H 0.01251 0.13881 0.83564 0.0
H3421 H 0.00329 0.09396 0.81515 0.0
H3422 H 0.98123 0.08662 0.8311 0.0
H3423 H 0.00574 0.12918 0.8739 0.0
H3424 H 0.99564 0.14444 0.87716 0.0
H3425 H 0.01121 0.146 0.86461 0.0
H3426 H 0.99004 0.15267 0.84292 0.0
H3427 H 0.97439 0.15109 0.85538 0.0
H3428 H 0.97012 0.14036 0.83733 0.0
H3429 H 0.95921 0.08443 0.84837 0.0
H3430 H 0.9393 0.08755 0.86621 0.0
H3431 H 0.96298 0.13368 0.87545 0.0
C3432 C 0.00597 0.12741 0.83459 0.0
C3433 C 0.00965 0.11696 0.82414 0.0
C3434 C 0.00072 0.10217 0.82307 0.0
C3435 C 0.98816 0.09788 0.83209 0.0
C3436 C 0.98472 0.1085 0.84214 0.0
C3437 C 0.99341 0.12294 0.84349 0.0
C3438 C 0.987 0.13229 0.85487 0.0
C3439 C 0.00072 0.13833 0.86844 0.0
C3440 C 0.97997 0.14484 0.84716 0.0
C3441 C 0.97325 0.12089 0.85962 0.0
C3442 C 0.97215 0.10722 0.85218 0.0
C3443 C 0.96007 0.09504 0.8544 0.0
C3444 C 0.94885 0.09689 0.86452 0.0
C3445 C 0.9499 0.11077 0.87235 0.0
C3446 C 0.96218 0.1229 0.86978 0.0
H3447 H 0.68301 0.25821 0.5912 0.0
H3448 H 0.65352 0.23962 0.548 0.0
H3449 H 0.65721 0.21466 0.55474 0.0
H3450 H 0.71238 0.23358 0.59389 0.0
H3451 H 0.71292 0.23229 0.61415 0.0
H3452 H 0.70879 0.24876 0.60556 0.0
H3453 H 0.68115 0.24616 0.61698 0.0
H3454 H 0.68523 0.22973 0.62564 0.0
H3455 H 0.66589 0.22917 0.61315 0.0
H3456 H 0.66432 0.19177 0.56616 0.0
H3457 H 0.67197 0.17235 0.58249 0.0
H3458 H 0.69537 0.20578 0.61876 0.0
C3459 C 0.67745 0.24889 0.58311 0.0
C3460 C 0.6681 0.25082 0.56902 0.0
C3461 C 0.66075 0.23835 0.55885 0.0
C3462 C 0.66284 0.22416 0.56254 0.0
C3463 C 0.67214 0.22264 0.57653 0.0
C3464 C 0.67916 0.23464 0.58674 0.0
C3465 C 0.68773 0.22992 0.60138 0.0
C3466 C 0.70657 0.23653 0.60388 0.0
C3467 C 0.67951 0.23399 0.61509 0.0
C3468 C 0.68443 0.21337 0.59784 0.0
C3469 C 0.67563 0.20941 0.58336 0.0
C3470 C 0.67119 0.19474 0.57752 0.0
C3471 C 0.67565 0.18381 0.58682 0.0
C3472 C 0.68424 0.18762 0.60183 0.0
C3473 C 0.68876 0.2026 0.60733 0.0
H3474 H 0.42609 0.82012 0.28445 0.0
H3475 H 0.43497 0.84774 0.24692 0.0
H3476 H 0.46489 0.85468 0.25774 0.0
H3477 H 0.45413 0.84407 0.31351 0.0
H3478 H 0.46099 0.82922 0.32345 0.0
H3479 H 0.44035 0.8263 0.31261 0.0
H3480 H 0.44661 0.80415 0.29708 0.0
H3481 H 0.46729 0.80702 0.30786 0.0
H3482 H 0.46465 0.80678 0.28734 0.0
H3483 H 0.49387 0.85873 0.2728 0.0
H3484 H 0.51962 0.85987 0.29132 0.0
H3485 H 0.49169 0.82956 0.31877 0.0
C3486 C 0.43431 0.82762 0.27847 0.0
C3487 C 0.42817 0.83338 0.26482 0.0
C3488 C 0.43937 0.84318 0.25739 0.0
C3489 C 0.45639 0.84717 0.26344 0.0
C3490 C 0.46202 0.84127 0.2769 0.0
C3491 C 0.45131 0.83171 0.28433 0.0
C3492 C 0.46046 0.827 0.2987 0.0
C3493 C 0.45357 0.83195 0.31291 0.0
C3494 C 0.45971 0.81024 0.29767 0.0
C3495 C 0.47799 0.83547 0.29825 0.0
C3496 C 0.47865 0.84361 0.28556 0.0
C3497 C 0.4935 0.85242 0.28277 0.0
C3498 C 0.50802 0.85301 0.2933 0.0
C3499 C 0.50751 0.84493 0.30646 0.0
C3500 C 0.49235 0.83592 0.30883 0.0
H3501 H 0.80993 0.76683 0.06799 0.0
H3502 H 0.83308 0.78534 0.03019 0.0
H3503 H 0.84229 0.80941 0.04515 0.0
H3504 H 0.79499 0.79873 0.07967 0.0
H3505 H 0.79924 0.79609 0.09972 0.0
H3506 H 0.79456 0.78042 0.08597 0.0
H3507 H 0.82235 0.77284 0.09679 0.0
H3508 H 0.82715 0.78852 0.11054 0.0
H3509 H 0.84177 0.78594 0.09781 0.0
H3510 H 0.84805 0.83175 0.0641 0.0
H3511 H 0.85064 0.85023 0.08575 0.0
H3512 H 0.8246 0.8166 0.11124 0.0
C3513 C 0.81691 0.77594 0.06282 0.0
C3514 C 0.82074 0.77423 0.0479 0.0
C3515 C 0.83 0.78641 0.04161 0.0
C3516 C 0.83528 0.80011 0.05001 0.0
C3517 C 0.8313 0.8014 0.06471 0.0
C3518 C 0.82238 0.78961 0.07106 0.0
C3519 C 0.81975 0.7938 0.08708 0.0
C3520 C 0.80102 0.79217 0.08816 0.0
C3521 C 0.82827 0.78474 0.09874 0.0
C3522 C 0.82851 0.80983 0.08874 0.0
C3523 C 0.83506 0.81405 0.07572 0.0
C3524 C 0.84319 0.82852 0.07444 0.0
C3525 C 0.84467 0.83892 0.08681 0.0
C3526 C 0.83827 0.83469 0.10035 0.0
C3527 C 0.83 0.81999 0.10118 0.0
H3528 H 0.66613 0.95541 0.93177 0.0
H3529 H 0.6954 0.96644 0.89529 0.0
H3530 H 0.67866 0.94465 0.87946 0.0
H3531 H 0.66172 0.91568 0.92614 0.0
H3532 H 0.64066 0.91189 0.93048 0.0
H3533 H 0.65514 0.92822 0.93905 0.0
H3534 H 0.63441 0.94446 0.92845 0.0
H3535 H 0.61987 0.92819 0.91989 0.0
H3536 H 0.6268 0.94299 0.90828 0.0
H3537 H 0.65789 0.92234 0.86717 0.0
H3538 H 0.63494 0.90071 0.85957 0.0
H3539 H 0.61988 0.90379 0.90434 0.0
C3540 C 0.66905 0.95323 0.92046 0.0
C3541 C 0.68205 0.96265 0.91474 0.0
C3542 C 0.68552 0.95937 0.89991 0.0
C3543 C 0.67608 0.94702 0.89084 0.0
C3544 C 0.66334 0.93798 0.89682 0.0
C3545 C 0.65987 0.94088 0.91131 0.0
C3546 C 0.64542 0.92949 0.91499 0.0
C3547 C 0.65108 0.92081 0.92846 0.0
C3548 C 0.63076 0.93672 0.91808 0.0
C3549 C 0.64116 0.91984 0.90021 0.0
C3550 C 0.65164 0.92493 0.88987 0.0
C3551 C 0.6497 0.91818 0.87521 0.0
C3552 C 0.63664 0.90595 0.87099 0.0
C3553 C 0.62577 0.90058 0.88141 0.0
C3554 C 0.6282 0.90755 0.89625 0.0
H3555 H 0.16497 0.55686 0.06328 0.0
H3556 H 0.20241 0.55728 0.10293 0.0
H3557 H 0.18991 0.57507 0.11681 0.0
H3558 H 0.1634 0.59565 0.06715 0.0
H3559 H 0.14118 0.59256 0.06091 0.0
H3560 H 0.15329 0.58008 0.05405 0.0
H3561 H 0.13394 0.55806 0.06372 0.0
H3562 H 0.12177 0.57046 0.0706 0.0
H3563 H 0.13084 0.55858 0.08343 0.0
H3564 H 0.17248 0.59197 0.12672 0.0
H3565 H 0.15194 0.60733 0.13157 0.0
H3566 H 0.1265 0.59624 0.08523 0.0
C3567 C 0.17059 0.56072 0.07486 0.0
C3568 C 0.18466 0.55567 0.08203 0.0
C3569 C 0.19164 0.56101 0.0972 0.0
C3570 C 0.18463 0.57111 0.10518 0.0
C3571 C 0.17072 0.57581 0.09779 0.0
C3572 C 0.16382 0.57084 0.08295 0.0
C3573 C 0.14879 0.57749 0.07764 0.0
C3574 C 0.15186 0.58701 0.06414 0.0
C3575 C 0.1329 0.56543 0.07362 0.0
C3576 C 0.14821 0.58689 0.09186 0.0
C3577 C 0.16095 0.58578 0.10336 0.0
C3578 C 0.1626 0.5931 0.11773 0.0
C3579 C 0.15094 0.60181 0.12037 0.0
C3580 C 0.13797 0.60328 0.10863 0.0
C3581 C 0.13655 0.5956 0.09427 0.0
H3582 H 0.18248 0.42652 0.864 0.0
H3583 H 0.19815 0.42984 0.81931 0.0
H3584 H 0.17228 0.41251 0.80805 0.0
H3585 H 0.16602 0.38892 0.86032 0.0
H3586 H 0.14851 0.38979 0.87021 0.0
H3587 H 0.16729 0.40371 0.87461 0.0
H3588 H 0.1503 0.42419 0.86872 0.0
H3589 H 0.13139 0.41032 0.86449 0.0
H3590 H 0.13712 0.42322 0.85057 0.0
H3591 H 0.14659 0.39259 0.80224 0.0
H3592 H 0.12182 0.37284 0.80189 0.0
H3593 H 0.12198 0.38351 0.8501 0.0
C3594 C 0.18032 0.42386 0.85179 0.0
C3595 C 0.19236 0.42954 0.84255 0.0
C3596 C 0.1891 0.42568 0.82663 0.0
C3597 C 0.17444 0.41583 0.82012 0.0
C3598 C 0.16308 0.41008 0.82964 0.0
C3599 C 0.16571 0.41412 0.84509 0.0
C3600 C 0.15189 0.40585 0.8529 0.0
C3601 C 0.15885 0.39651 0.86523 0.0
C3602 C 0.14209 0.41653 0.85956 0.0
C3603 C 0.14137 0.3962 0.8395 0.0
C3604 C 0.148 0.39885 0.82619 0.0
C3605 C 0.14106 0.39064 0.81252 0.0
C3606 C 0.12691 0.37947 0.81244 0.0
C3607 C 0.11976 0.37662 0.82593 0.0
C3608 C 0.12712 0.38525 0.83959 0.0
H3609 H 0.28206 0.4388 0.57183 0.0
H3610 H 0.26813 0.45042 0.61552 0.0
H3611 H 0.28377 0.43259 0.62759 0.0
H3612 H 0.27941 0.40004 0.57652 0.0
H3613 H 0.29729 0.39894 0.56722 0.0
H3614 H 0.28476 0.41241 0.56202 0.0
H3615 H 0.31111 0.43329 0.5679 0.0
H3616 H 0.32373 0.41988 0.5731 0.0
H3617 H 0.32378 0.43518 0.58641 0.0
H3618 H 0.30085 0.41329 0.63481 0.0
H3619 H 0.31841 0.39439 0.63669 0.0
H3620 H 0.32205 0.39639 0.58843 0.0
C3621 C 0.28222 0.43756 0.58392 0.0
C3622 C 0.27382 0.44596 0.59272 0.0
C3623 C 0.27447 0.44409 0.60854 0.0
C3624 C 0.28331 0.43399 0.6155 0.0
C3625 C 0.29149 0.42591 0.60649 0.0
C3626 C 0.29107 0.42763 0.59106 0.0
C3627 C 0.30117 0.41783 0.58397 0.0
C3628 C 0.28999 0.40664 0.57171 0.0
C3629 C 0.31582 0.4271 0.57747 0.0
C3630 C 0.30729 0.41029 0.59782 0.0
C3631 C 0.30155 0.41505 0.61069 0.0
C3632 C 0.3055 0.40954 0.62481 0.0
C3633 C 0.31557 0.39887 0.62578 0.0
C3634 C 0.32166 0.39387 0.61272 0.0
C3635 C 0.31743 0.39977 0.5986 0.0
H3636 H 0.80708 0.08335 0.92772 0.0
H3637 H 0.78648 0.05807 0.88469 0.0
H3638 H 0.81138 0.06946 0.87364 0.0
H3639 H 0.825 0.1166 0.91174 0.0
H3640 H 0.84321 0.12071 0.92618 0.0
H3641 H 0.82379 0.11051 0.93065 0.0
H3642 H 0.83858 0.08935 0.93957 0.0
H3643 H 0.85804 0.09948 0.93511 0.0
H3644 H 0.84986 0.08097 0.92675 0.0
H3645 H 0.83877 0.08366 0.86734 0.0
H3646 H 0.86604 0.09999 0.86621 0.0
H3647 H 0.86852 0.11556 0.91348 0.0
C3648 C 0.80776 0.08019 0.91597 0.0
C3649 C 0.79482 0.0698 0.90708 0.0
C3650 C 0.79623 0.06601 0.89173 0.0
C3651 C 0.81034 0.0724 0.88535 0.0
C3652 C 0.8229 0.08257 0.89446 0.0
C3653 C 0.82171 0.08646 0.90943 0.0
C3654 C 0.83687 0.0977 0.91679 0.0
C3655 C 0.83191 0.11224 0.92162 0.0
C3656 C 0.8464 0.0915 0.93036 0.0
C3657 C 0.84677 0.09955 0.90362 0.0
C3658 C 0.83855 0.09072 0.89085 0.0
C3659 C 0.84532 0.09061 0.87729 0.0
C3660 C 0.86085 0.09985 0.87678 0.0
C3661 C 0.86938 0.10909 0.88972 0.0
C3662 C 0.86221 0.1088 0.90331 0.0
H3663 H 0.79121 0.0242 0.35048 0.0
H3664 H 0.77825 0.02473 0.39627 0.0
H3665 H 0.79572 0.04968 0.40208 0.0
H3666 H 0.8343 0.0441 0.36064 0.0
H3667 H 0.8338 0.05412 0.34367 0.0
H3668 H 0.82096 0.03598 0.34334 0.0
H3669 H 0.79462 0.0464 0.33381 0.0
H3670 H 0.80737 0.06455 0.3341 0.0
H3671 H 0.78995 0.06165 0.34462 0.0
H3672 H 0.81358 0.07493 0.40258 0.0
H3673 H 0.83057 0.0988 0.39768 0.0
H3674 H 0.83167 0.0819 0.35152 0.0
C3675 C 0.79216 0.0295 0.36178 0.0
C3676 C 0.78338 0.0225 0.37294 0.0
C3677 C 0.78487 0.02987 0.38754 0.0
C3678 C 0.79479 0.04403 0.39096 0.0
C3679 C 0.80316 0.05066 0.37967 0.0
C3680 C 0.80199 0.04364 0.36538 0.0
C3681 C 0.8118 0.0534 0.35512 0.0
C3682 C 0.82606 0.04648 0.35042 0.0
C3683 C 0.80024 0.0567 0.34109 0.0
C3684 C 0.81851 0.06708 0.36583 0.0
C3685 C 0.81344 0.06523 0.37995 0.0
C3686 C 0.81767 0.07648 0.39158 0.0
C3687 C 0.82724 0.09002 0.38867 0.0
C3688 C 0.83244 0.0922 0.37423 0.0
C3689 C 0.8281 0.0805 0.36274 0.0
H3690 H 0.226 0.53569 0.62633 0.0
H3691 H 0.21022 0.48926 0.63336 0.0
H3692 H 0.19312 0.49593 0.65241 0.0
H3693 H 0.22946 0.5494 0.66517 0.0
H3694 H 0.22162 0.56579 0.66043 0.0
H3695 H 0.23248 0.55733 0.64732 0.0
H3696 H 0.2071 0.55531 0.62599 0.0
H3697 H 0.19619 0.56384 0.639 0.0
H3698 H 0.1867 0.5461 0.6293 0.0
H3699 H 0.17757 0.50785 0.67062 0.0
H3700 H 0.16453 0.52405 0.68617 0.0
H3701 H 0.19084 0.56245 0.66715 0.0
C3702 C 0.21895 0.52688 0.63184 0.0
C3703 C 0.21946 0.51194 0.62837 0.0
C3704 C 0.21001 0.50079 0.63583 0.0
C3705 C 0.20029 0.50447 0.64668 0.0
C3706 C 0.20017 0.51934 0.6499 0.0
C3707 C 0.20922 0.53035 0.64264 0.0
C3708 C 0.20692 0.54548 0.64801 0.0
C3709 C 0.22361 0.55506 0.65569 0.0
C3710 C 0.19874 0.55313 0.63479 0.0
C3711 C 0.19518 0.54129 0.65947 0.0
C3712 C 0.19142 0.52616 0.66042 0.0
C3713 C 0.18054 0.5197 0.67006 0.0
C3714 C 0.17327 0.52895 0.67887 0.0
C3715 C 0.17705 0.54445 0.67806 0.0
C3716 C 0.18808 0.55064 0.66819 0.0
H3717 H 0.27009 0.44721 0.11535 0.0
H3718 H 0.27932 0.49222 0.13541 0.0
H3719 H 0.30129 0.48654 0.15477 0.0
H3720 H 0.27588 0.42973 0.15057 0.0
H3721 H 0.28608 0.41611 0.14288 0.0
H3722 H 0.27105 0.4237 0.13058 0.0
H3723 H 0.29306 0.43165 0.11276 0.0
H3724 H 0.30816 0.42408 0.125 0.0
H3725 H 0.31295 0.44311 0.12058 0.0
H3726 H 0.32248 0.47608 0.17178 0.0
H3727 H 0.34122 0.46132 0.18541 0.0
H3728 H 0.31815 0.42325 0.15435 0.0
C3729 C 0.2767 0.45588 0.12382 0.0
C3730 C 0.27296 0.47016 0.12386 0.0
C3731 C 0.28195 0.48119 0.13514 0.0
C3732 C 0.29445 0.47808 0.14619 0.0
C3733 C 0.29783 0.46389 0.14581 0.0
C3734 C 0.28923 0.45297 0.13492 0.0
C3735 C 0.29533 0.43864 0.13701 0.0
C3736 C 0.28125 0.42632 0.14047 0.0
C3737 C 0.30282 0.43411 0.123 0.0
C3738 C 0.30869 0.44322 0.15078 0.0
C3739 C 0.30995 0.45783 0.15568 0.0
C3740 C 0.32154 0.4646 0.16812 0.0
C3741 C 0.33208 0.45617 0.1758 0.0
C3742 C 0.33082 0.44114 0.17106 0.0
C3743 C 0.3191 0.43466 0.15831 0.0
H3744 H 0.61979 0.83095 0.49469 0.0
H3745 H 0.62169 0.78969 0.51574 0.0
H3746 H 0.62285 0.80242 0.5411 0.0
H3747 H 0.64791 0.8548 0.52448 0.0
H3748 H 0.63628 0.86944 0.52266 0.0
H3749 H 0.63618 0.85713 0.50634 0.0
H3750 H 0.60379 0.85066 0.50269 0.0
H3751 H 0.6038 0.86292 0.519 0.0
H3752 H 0.5934 0.84386 0.51831 0.0
H3753 H 0.62293 0.81971 0.5641 0.0
H3754 H 0.62247 0.84016 0.58284 0.0
H3755 H 0.62011 0.86974 0.54631 0.0
C3756 C 0.62057 0.82457 0.50462 0.0
C3757 C 0.62066 0.80932 0.50323 0.0
C3758 C 0.62163 0.8014 0.51653 0.0
C3759 C 0.62229 0.80853 0.53097 0.0
C3760 C 0.622 0.82356 0.53189 0.0
C3761 C 0.62122 0.83148 0.51905 0.0
C3762 C 0.62077 0.84745 0.52301 0.0
C3763 C 0.63621 0.85781 0.51888 0.0
C3764 C 0.60447 0.85145 0.5153 0.0
C3765 C 0.6213 0.84729 0.5401 0.0
C3766 C 0.62204 0.83344 0.54503 0.0
C3767 C 0.62239 0.8306 0.56036 0.0
C3768 C 0.62201 0.84226 0.5709 0.0
C3769 C 0.62129 0.85655 0.56605 0.0
C3770 C 0.62092 0.85901 0.55042 0.0
H3771 H 0.40829 0.38529 0.80946 0.0
H3772 H 0.40233 0.33806 0.79941 0.0
H3773 H 0.39131 0.33355 0.82366 0.0
H3774 H 0.42198 0.38543 0.84947 0.0
H3775 H 0.41103 0.39958 0.85463 0.0
H3776 H 0.41803 0.39909 0.8363 0.0
H3777 H 0.38781 0.39816 0.82286 0.0
H3778 H 0.38074 0.39874 0.84115 0.0
H3779 H 0.37109 0.38395 0.82697 0.0
H3780 H 0.38109 0.33425 0.84916 0.0
H3781 H 0.37164 0.3401 0.87353 0.0
H3782 H 0.38532 0.38689 0.86716 0.0
C3783 C 0.40455 0.37399 0.81228 0.0
C3784 C 0.40613 0.36202 0.80251 0.0
C3785 C 0.40121 0.3474 0.8067 0.0
C3786 C 0.39496 0.34473 0.82046 0.0
C3787 C 0.39377 0.35679 0.82992 0.0
C3788 C 0.39838 0.37112 0.82598 0.0
C3789 C 0.396 0.38215 0.83819 0.0
C3790 C 0.41276 0.39214 0.84505 0.0
C3791 C 0.38314 0.39128 0.83192 0.0
C3792 C 0.38929 0.37177 0.8496 0.0
C3793 C 0.3881 0.3572 0.84464 0.0
C3794 C 0.38203 0.34563 0.85319 0.0
C3795 C 0.37683 0.34907 0.86709 0.0
C3796 C 0.37776 0.36395 0.87231 0.0
C3797 C 0.38427 0.3754 0.86345 0.0
H3798 H 0.88788 0.17761 6e-05 0.0
H3799 H 0.93521 0.19803 0.02741 0.0
H3800 H 0.93145 0.17832 0.04527 0.0
H3801 H 0.86619 0.1677 0.03054 0.0
H3802 H 0.85436 0.15043 0.02128 0.0
H3803 H 0.86148 0.16542 0.01003 0.0
H3804 H 0.87649 0.14854 0.99515 0.0
H3805 H 0.86939 0.13346 0.00637 0.0
H3806 H 0.89138 0.13922 0.00549 0.0
H3807 H 0.92132 0.15751 0.06126 0.0
H3808 H 0.90585 0.13693 0.07377 0.0
H3809 H 0.86548 0.1301 0.03572 0.0
C3810 C 0.89758 0.17786 0.00969 0.0
C3811 C 0.91186 0.18937 0.01232 0.0
C3812 C 0.92419 0.18931 0.02513 0.0
C3813 C 0.92218 0.17815 0.03533 0.0
C3814 C 0.90782 0.16709 0.03249 0.0
C3815 C 0.89579 0.16683 0.01993 0.0
C3816 C 0.88116 0.15412 0.01982 0.0
C3817 C 0.86484 0.15976 0.02046 0.0
C3818 C 0.87952 0.14319 0.00588 0.0
C3819 C 0.88667 0.14744 0.03445 0.0
C3820 C 0.90213 0.15501 0.04156 0.0
C3821 C 0.90936 0.15133 0.05565 0.0
C3822 C 0.90053 0.13963 0.06265 0.0
C3823 C 0.88473 0.13171 0.05548 0.0
C3824 C 0.87775 0.13572 0.04123 0.0
H3825 H 0.07227 0.60446 0.29916 0.0
H3826 H 0.05287 0.64425 0.2905 0.0
H3827 H 0.06974 0.65646 0.31446 0.0
H3828 H 0.07235 0.6068 0.33985 0.0
H3829 H 0.09133 0.5998 0.34399 0.0
H3830 H 0.07779 0.59428 0.32612 0.0
H3831 H 0.10253 0.6034 0.31152 0.0
H3832 H 0.11613 0.609 0.32933 0.0
H3833 H 0.11394 0.62218 0.31519 0.0
H3834 H 0.08933 0.66451 0.33912 0.0
H3835 H 0.1094 0.66749 0.36296 0.0
H3836 H 0.11478 0.62199 0.35593 0.0
C3837 C 0.07156 0.61575 0.30229 0.0
C3838 C 0.06129 0.62342 0.29294 0.0
C3839 C 0.06064 0.63815 0.29749 0.0
C3840 C 0.07019 0.64519 0.31107 0.0
C3841 C 0.08023 0.63731 0.32 0.0
C3842 C 0.08089 0.62289 0.31584 0.0
C3843 C 0.0925 0.61681 0.32754 0.0
C3844 C 0.08292 0.60365 0.3348 0.0
C3845 C 0.10714 0.61261 0.32047 0.0
C3846 C 0.09838 0.63011 0.33886 0.0
C3847 C 0.0912 0.64184 0.33431 0.0
C3848 C 0.09493 0.65536 0.34286 0.0
C3849 C 0.10628 0.65692 0.35644 0.0
C3850 C 0.11371 0.64499 0.36139 0.0
C3851 C 0.10958 0.63142 0.35242 0.0
H3852 H 0.64995 0.18683 0.00109 0.0
H3853 H 0.70231 0.18648 0.01603 0.0
H3854 H 0.70628 0.18205 0.9893 0.0
H3855 H 0.64305 0.15785 0.97261 0.0
H3856 H 0.62922 0.16575 0.9593 0.0
H3857 H 0.63074 0.17018 0.97946 0.0
H3858 H 0.63834 0.19807 0.97533 0.0
H3859 H 0.63675 0.19374 0.95512 0.0
H3860 H 0.65571 0.20479 0.9655 0.0
H3861 H 0.70406 0.17559 0.96124 0.0
H3862 H 0.69595 0.16862 0.93358 0.0
H3863 H 0.64526 0.17348 0.93682 0.0
C3864 C 0.66232 0.18608 0.99873 0.0
C3865 C 0.67583 0.18704 0.01068 0.0
C3866 C 0.69177 0.18582 0.00709 0.0
C3867 C 0.69416 0.1833 0.99194 0.0
C3868 C 0.68051 0.18211 0.98047 0.0
C3869 C 0.66493 0.18357 0.98366 0.0
C3870 C 0.65218 0.1812 0.9693 0.0
C3871 C 0.63796 0.16796 0.97023 0.0
C3872 C 0.64535 0.19529 0.96613 0.0
C3873 C 0.66296 0.17793 0.95758 0.0
C3874 C 0.67928 0.17855 0.96425 0.0
C3875 C 0.69139 0.17529 0.95584 0.0
C3876 C 0.68669 0.17135 0.94018 0.0
C3877 C 0.67008 0.17078 0.93313 0.0
C3878 C 0.6581 0.17409 0.94196 0.0
H3879 H 0.06353 0.39844 0.19819 0.0
H3880 H 0.04442 0.35113 0.1951 0.0
H3881 H 0.05498 0.34878 0.17057 0.0
H3882 H 0.05417 0.40362 0.158 0.0
H3883 H 0.07295 0.41726 0.15789 0.0
H3884 H 0.06351 0.41524 0.17501 0.0
H3885 H 0.09147 0.41126 0.1899 0.0
H3886 H 0.10098 0.41323 0.17283 0.0
H3887 H 0.10121 0.39687 0.18311 0.0
H3888 H 0.06814 0.35151 0.14659 0.0
H3889 H 0.08274 0.3593 0.12477 0.0
H3890 H 0.09341 0.40466 0.14369 0.0
C3891 C 0.06146 0.38759 0.19232 0.0
C3892 C 0.05311 0.37497 0.19856 0.0
C3893 C 0.05077 0.36096 0.19055 0.0
C3894 C 0.05672 0.35951 0.1766 0.0
C3895 C 0.065 0.37216 0.17083 0.0
C3896 C 0.06736 0.38593 0.17843 0.0
C3897 C 0.0769 0.39774 0.16989 0.0
C3898 C 0.06624 0.40913 0.1649 0.0
C3899 C 0.09363 0.40521 0.17951 0.0
C3900 C 0.07958 0.38846 0.15633 0.0
C3901 C 0.0726 0.37373 0.15706 0.0
C3902 C 0.07358 0.36302 0.14586 0.0
C3903 C 0.08185 0.36751 0.13354 0.0
C3904 C 0.08896 0.38255 0.13254 0.0
C3905 C 0.08791 0.39311 0.14415 0.0
H3906 H 0.82824 0.80847 0.4954 0.0
H3907 H 0.88001 0.80348 0.50177 0.0
H3908 H 0.88246 0.8109 0.47563 0.0
H3909 H 0.81809 0.79507 0.45557 0.0
H3910 H 0.80502 0.80825 0.45073 0.0
H3911 H 0.80717 0.80196 0.4697 0.0
H3912 H 0.81681 0.82904 0.48101 0.0
H3913 H 0.81469 0.83541 0.46209 0.0
H3914 H 0.83434 0.84066 0.47462 0.0
H3915 H 0.87947 0.81953 0.44902 0.0
H3916 H 0.87123 0.82903 0.42399 0.0
H3917 H 0.82167 0.82872 0.43526 0.0
C3918 C 0.84006 0.80882 0.49127 0.0
C3919 C 0.85392 0.80533 0.50061 0.0
C3920 C 0.86922 0.80607 0.49481 0.0
C3921 C 0.87073 0.81026 0.47998 0.0
C3922 C 0.85684 0.81369 0.4711 0.0
C3923 C 0.84181 0.81304 0.47654 0.0
C3924 C 0.82894 0.81774 0.46489 0.0
C3925 C 0.81392 0.80499 0.45993 0.0
C3926 C 0.82337 0.83153 0.47102 0.0
C3927 C 0.8391 0.82121 0.45207 0.0
C3928 C 0.85514 0.81873 0.45584 0.0
C3929 C 0.86691 0.8214 0.4459 0.0
C3930 C 0.86215 0.82675 0.43174 0.0
C3931 C 0.84578 0.82932 0.42768 0.0
C3932 C 0.83417 0.82659 0.43802 0.0
H3933 H 0.41576 0.6465 0.69023 0.0
H3934 H 0.43521 0.6064 0.69673 0.0
H3935 H 0.42599 0.59856 0.66945 0.0
H3936 H 0.3792 0.62996 0.66471 0.0
H3937 H 0.37951 0.64553 0.65314 0.0
H3938 H 0.38848 0.64833 0.67297 0.0
H3939 H 0.41659 0.66163 0.66554 0.0
H3940 H 0.40772 0.65878 0.64566 0.0
H3941 H 0.42658 0.65233 0.6523 0.0
H3942 H 0.41384 0.59468 0.64176 0.0
H3943 H 0.39858 0.59457 0.61575 0.0
H3944 H 0.38677 0.63703 0.62741 0.0
C3945 C 0.41819 0.63612 0.68591 0.0
C3946 C 0.42625 0.62708 0.69561 0.0
C3947 C 0.42906 0.61351 0.68952 0.0
C3948 C 0.42393 0.60899 0.67403 0.0
C3949 C 0.41602 0.61816 0.6648 0.0
C3950 C 0.41312 0.63141 0.6705 0.0
C3951 C 0.40373 0.63892 0.65829 0.0
C3952 C 0.38672 0.64079 0.66253 0.0
C3953 C 0.41429 0.6538 0.65527 0.0
C3954 C 0.40163 0.62772 0.64487 0.0
C3955 C 0.40893 0.61588 0.64883 0.0
C3956 C 0.40813 0.60391 0.6385 0.0
C3957 C 0.3994 0.60392 0.62379 0.0
C3958 C 0.39153 0.6158 0.61958 0.0
C3959 C 0.39291 0.62793 0.63022 0.0
H3960 H 0.54514 0.6635 0.81249 0.0
H3961 H 0.52002 0.62272 0.78641 0.0
H3962 H 0.54328 0.61073 0.7965 0.0
H3963 H 0.58718 0.66012 0.80668 0.0
H3964 H 0.59641 0.66821 0.82549 0.0
H3965 H 0.57787 0.67348 0.81601 0.0
H3966 H 0.56269 0.66623 0.83911 0.0
H3967 H 0.58115 0.66088 0.84861 0.0
H3968 H 0.56153 0.64786 0.84547 0.0
H3969 H 0.56848 0.60284 0.81106 0.0
H3970 H 0.59422 0.6001 0.82759 0.0
H3971 H 0.60382 0.64685 0.84195 0.0
C3972 C 0.54455 0.65206 0.80888 0.0
C3973 C 0.53077 0.64398 0.79877 0.0
C3974 C 0.53051 0.62908 0.79415 0.0
C3975 C 0.54364 0.62219 0.79983 0.0
C3976 C 0.55702 0.63045 0.80988 0.0
C3977 C 0.55766 0.64511 0.81418 0.0
C3978 C 0.57348 0.65161 0.82498 0.0
C3979 C 0.58438 0.66409 0.81786 0.0
C3980 C 0.56946 0.65695 0.84046 0.0
C3981 C 0.58147 0.63822 0.82637 0.0
C3982 C 0.5718 0.6261 0.81764 0.0
C3983 C 0.5763 0.61232 0.81776 0.0
C3984 C 0.59103 0.6109 0.82712 0.0
C3985 C 0.60117 0.62323 0.83615 0.0
C3986 C 0.59632 0.63709 0.83547 0.0
H3987 H 0.63042 0.24903 0.09772 0.0
H3988 H 0.68402 0.25669 0.09746 0.0
H3989 H 0.68684 0.28183 0.10938 0.0
H3990 H 0.62498 0.28506 0.08848 0.0
H3991 H 0.60938 0.28589 0.1007 0.0
H3992 H 0.61165 0.26833 0.09262 0.0
H3993 H 0.61585 0.2589 0.11968 0.0
H3994 H 0.61358 0.27644 0.12785 0.0
H3995 H 0.63201 0.2692 0.13405 0.0
H3996 H 0.6837 0.3065 0.1205 0.0
H3997 H 0.67474 0.32874 0.13036 0.0
H3998 H 0.62336 0.30486 0.12361 0.0
C3999 C 0.64277 0.25595 0.10024 0.0
C4000 C 0.65701 0.25087 0.09665 0.0
C4001 C 0.67293 0.26031 0.10011 0.0
C4002 C 0.67467 0.27462 0.10689 0.0
C4003 C 0.66037 0.27931 0.11019 0.0
C4004 C 0.64473 0.27025 0.10703 0.0
C4005 C 0.63133 0.27804 0.11149 0.0
C4006 C 0.61859 0.27941 0.09749 0.0
C4007 C 0.62269 0.27017 0.12401 0.0
C4008 C 0.64186 0.29295 0.11754 0.0
C4009 C 0.65858 0.29345 0.11671 0.0
C4010 C 0.67066 0.30619 0.12131 0.0
C4011 C 0.6655 0.31873 0.12689 0.0
C4012 C 0.64844 0.31841 0.12788 0.0
C4013 C 0.63651 0.30534 0.12313 0.0
H4014 H 0.96674 0.36778 0.26795 0.0
H4015 H 0.98061 0.40586 0.24215 0.0
H4016 H 0.95332 0.41266 0.24386 0.0
H4017 H 0.92199 0.35923 0.25209 0.0
H4018 H 0.91582 0.35404 0.27012 0.0
H4019 H 0.93574 0.3514 0.26555 0.0
H4020 H 0.95064 0.36682 0.2904 0.0
H4021 H 0.93081 0.36956 0.29502 0.0
H4022 H 0.94719 0.38527 0.29386 0.0
H4023 H 0.92561 0.41657 0.25045 0.0
H4024 H 0.89938 0.41692 0.26103 0.0
H4025 H 0.90367 0.37628 0.28232 0.0
C4026 C 0.96395 0.37741 0.26241 0.0
C4027 C 0.97582 0.38627 0.25487 0.0
C4028 C 0.97171 0.39888 0.24795 0.0
C4029 C 0.95623 0.40282 0.24884 0.0
C4030 C 0.94496 0.394 0.25662 0.0
C4031 C 0.94859 0.38151 0.26321 0.0
C4032 C 0.93476 0.37437 0.27168 0.0
C4033 C 0.92659 0.35884 0.26442 0.0
C4034 C 0.94124 0.37399 0.28875 0.0
C4035 C 0.92293 0.38498 0.26911 0.0
C4036 C 0.92896 0.39618 0.26031 0.0
C4037 C 0.92062 0.40772 0.25713 0.0
C4038 C 0.90576 0.40784 0.26315 0.0
C4039 C 0.89942 0.39646 0.27218 0.0
C4040 C 0.90811 0.3849 0.27514 0.0
H4041 H 0.86906 0.74169 0.56802 0.0
H4042 H 0.92047 0.7587 0.58871 0.0
H4043 H 0.92339 0.73361 0.59535 0.0
H4044 H 0.85908 0.71605 0.59559 0.0
H4045 H 0.84611 0.70204 0.58205 0.0
H4046 H 0.84826 0.7212 0.5782 0.0
H4047 H 0.8582 0.71566 0.55248 0.0
H4048 H 0.85602 0.69646 0.55622 0.0
H4049 H 0.87573 0.70663 0.55228 0.0
H4050 H 0.92036 0.70692 0.60088 0.0
H4051 H 0.91169 0.68022 0.60412 0.0
H4052 H 0.86242 0.68058 0.57984 0.0
C4053 C 0.88099 0.74012 0.5738 0.0
C4054 C 0.89455 0.75218 0.57782 0.0
C4055 C 0.9099 0.74965 0.58549 0.0
C4056 C 0.9117 0.73544 0.58932 0.0
C4057 C 0.89803 0.72384 0.58538 0.0
C4058 C 0.88299 0.72601 0.57773 0.0
C4059 C 0.87013 0.71172 0.57515 0.0
C4060 C 0.85501 0.71282 0.58323 0.0
C4061 C 0.8647 0.70736 0.55801 0.0
C4062 C 0.88024 0.70122 0.58265 0.0
C4063 C 0.89632 0.70843 0.58845 0.0
C4064 C 0.90787 0.70111 0.59622 0.0
C4065 C 0.90287 0.686 0.598 0.0
C4066 C 0.88655 0.67839 0.59194 0.0
C4067 C 0.87507 0.68614 0.58431 0.0
H4068 H 0.50679 0.38697 0.69841 0.0
H4069 H 0.50991 0.4315 0.7178 0.0
H4070 H 0.53809 0.43885 0.71065 0.0
H4071 H 0.54936 0.38493 0.71073 0.0
H4072 H 0.55141 0.37453 0.69368 0.0
H4073 H 0.53132 0.37287 0.69997 0.0
H4074 H 0.51864 0.38015 0.67368 0.0
H4075 H 0.53868 0.38176 0.66727 0.0
H4076 H 0.52811 0.39713 0.66641 0.0
H4077 H 0.566 0.4413 0.70139 0.0
H4078 H 0.59157 0.43856 0.69069 0.0
H4079 H 0.57026 0.39242 0.6778 0.0
C4080 C 0.51334 0.3983 0.70109 0.0
C4081 C 0.50613 0.40867 0.70865 0.0
C4082 C 0.51517 0.42336 0.71201 0.0
C4083 C 0.53119 0.42764 0.708 0.0
C4084 C 0.53797 0.41709 0.70066 0.0
C4085 C 0.52933 0.40273 0.69723 0.0
C4086 C 0.53947 0.39349 0.68943 0.0
C4087 C 0.5431 0.3807 0.69903 0.0
C4088 C 0.5307 0.3878 0.67324 0.0
C4089 C 0.55521 0.40488 0.68905 0.0
C4090 C 0.5541 0.41844 0.69555 0.0
C4091 C 0.56705 0.43071 0.69635 0.0
C4092 C 0.58151 0.42907 0.69031 0.0
C4093 C 0.58289 0.41523 0.68373 0.0
C4094 C 0.56954 0.40304 0.68303 0.0
H4095 H 0.84189 0.27852 0.90727 0.0
H4096 H 0.87925 0.31344 0.93325 0.0
H4097 H 0.87006 0.33159 0.91605 0.0
H4098 H 0.84707 0.29194 0.8706 0.0
H4099 H 0.82521 0.28651 0.86288 0.0
H4100 H 0.83425 0.27642 0.87764 0.0
H4101 H 0.81199 0.28096 0.8943 0.0
H4102 H 0.80291 0.29111 0.87961 0.0
H4103 H 0.80962 0.29959 0.89868 0.0
H4104 H 0.85654 0.34593 0.89621 0.0
H4105 H 0.84114 0.35517 0.87392 0.0
H4106 H 0.81353 0.31069 0.86027 0.0
C4107 C 0.84807 0.29 0.90939 0.0
C4108 C 0.8612 0.29461 0.92164 0.0
C4109 C 0.86916 0.30969 0.92392 0.0
C4110 C 0.86399 0.32007 0.91425 0.0
C4111 C 0.85098 0.31516 0.90228 0.0
C4112 C 0.84324 0.30046 0.89972 0.0
C4113 C 0.83006 0.29795 0.88567 0.0
C4114 C 0.83442 0.28759 0.87348 0.0
C4115 C 0.81261 0.29206 0.88982 0.0
C4116 C 0.83158 0.31355 0.88074 0.0
C4117 C 0.84359 0.32333 0.89056 0.0
C4118 C 0.84712 0.33838 0.88843 0.0
C4119 C 0.83827 0.34352 0.87581 0.0
C4120 C 0.82619 0.33362 0.86543 0.0
C4121 C 0.82279 0.31846 0.868 0.0
H4122 H 0.98229 0.60474 0.14768 0.0
H4123 H 0.97921 0.64913 0.16331 0.0
H4124 H 0.96405 0.65237 0.13805 0.0
H4125 H 0.99011 0.6128 0.11071 0.0
H4126 H 0.97779 0.59568 0.10153 0.0
H4127 H 0.98723 0.59645 0.12115 0.0
H4128 H 0.95821 0.58642 0.12894 0.0
H4129 H 0.94868 0.58559 0.1093 0.0
H4130 H 0.94125 0.59585 0.12372 0.0
H4131 H 0.95046 0.6512 0.11069 0.0
H4132 H 0.94014 0.64586 0.08306 0.0
H4133 H 0.95211 0.60233 0.0854 0.0
C4134 C 0.97829 0.6151 0.14587 0.0
C4135 C 0.98192 0.62668 0.15749 0.0
C4136 C 0.97655 0.64009 0.15459 0.0
C4137 C 0.96789 0.64202 0.1403 0.0
C4138 C 0.96463 0.63042 0.12906 0.0
C4139 C 0.96964 0.61721 0.13169 0.0
C4140 C 0.96524 0.6067 0.11751 0.0
C4141 C 0.98104 0.60268 0.11243 0.0
C4142 C 0.95259 0.59282 0.12002 0.0
C4143 C 0.95735 0.6162 0.10637 0.0
C4144 C 0.95695 0.62979 0.11329 0.0
C4145 C 0.95067 0.64059 0.10517 0.0
C4146 C 0.9449 0.6375 0.08953 0.0
C4147 C 0.94561 0.62379 0.0822 0.0
C4148 C 0.95158 0.61292 0.09079 0.0
H4149 H 0.62567 0.71441 0.42571 0.0
H4150 H 0.59696 0.69697 0.46063 0.0
H4151 H 0.59897 0.67162 0.45212 0.0
H4152 H 0.60578 0.68674 0.39709 0.0
H4153 H 0.62424 0.68612 0.3885 0.0
H4154 H 0.62222 0.7029 0.39846 0.0
H4155 H 0.65031 0.70339 0.41589 0.0
H4156 H 0.65243 0.6866 0.40595 0.0
H4157 H 0.65312 0.68755 0.42636 0.0
H4158 H 0.6034 0.64812 0.43917 0.0
H4159 H 0.60786 0.62825 0.42148 0.0
H4160 H 0.63203 0.66116 0.39415 0.0
C4161 C 0.62008 0.70527 0.43175 0.0
C4162 C 0.61135 0.70761 0.44395 0.0
C4163 C 0.60379 0.69538 0.45131 0.0
C4164 C 0.60493 0.68097 0.44659 0.0
C4165 C 0.61349 0.67902 0.4344 0.0
C4166 C 0.62082 0.69084 0.427 0.0
C4167 C 0.62805 0.68573 0.4134 0.0
C4168 C 0.61956 0.69066 0.39848 0.0
C4169 C 0.64711 0.69114 0.41554 0.0
C4170 C 0.62348 0.66918 0.41419 0.0
C4171 C 0.61535 0.66551 0.42653 0.0
C4172 C 0.60979 0.65086 0.42949 0.0
C4173 C 0.6124 0.63967 0.41945 0.0
C4174 C 0.62024 0.64324 0.4065 0.0
C4175 C 0.62596 0.65818 0.40395 0.0
H4176 H 0.79865 0.55246 0.63971 0.0
H4177 H 0.78313 0.54242 0.59101 0.0
H4178 H 0.80134 0.56566 0.58604 0.0
H4179 H 0.80123 0.59219 0.63951 0.0
H4180 H 0.81938 0.59631 0.65401 0.0
H4181 H 0.80449 0.57926 0.6537 0.0
H4182 H 0.8282 0.56456 0.65279 0.0
H4183 H 0.84315 0.58155 0.65307 0.0
H4184 H 0.84109 0.5674 0.63792 0.0
H4185 H 0.82236 0.58949 0.58641 0.0
H4186 H 0.84464 0.61185 0.59213 0.0
H4187 H 0.84569 0.60641 0.64057 0.0
C4188 C 0.79895 0.55519 0.628 0.0
C4189 C 0.78944 0.54562 0.61575 0.0
C4190 C 0.79028 0.54958 0.60058 0.0
C4191 C 0.80057 0.56277 0.59764 0.0
C4192 C 0.80987 0.5719 0.60999 0.0
C4193 C 0.80911 0.56829 0.62486 0.0
C4194 C 0.82073 0.57974 0.63608 0.0
C4195 C 0.81086 0.58732 0.64643 0.0
C4196 C 0.83408 0.5729 0.64552 0.0
C4197 C 0.82834 0.59024 0.6252 0.0
C4198 C 0.82187 0.58559 0.6102 0.0
C4199 C 0.8274 0.59331 0.59812 0.0
C4200 C 0.84 0.60605 0.60148 0.0
C4201 C 0.84694 0.61089 0.61679 0.0
C4202 C 0.8408 0.60293 0.62874 0.0
H4203 H 0.29995 0.94218 0.41437 0.0
H4204 H 0.28561 0.95394 0.36828 0.0
H4205 H 0.29611 0.93282 0.35804 0.0
H4206 H 0.33791 0.92984 0.40767 0.0
H4207 H 0.33477 0.9149 0.42 0.0
H4208 H 0.32695 0.93141 0.42371 0.0
H4209 H 0.2972 0.91572 0.42302 0.0
H4210 H 0.30491 0.89917 0.4193 0.0
H4211 H 0.2878 0.90345 0.40647 0.0
H4212 H 0.30735 0.90993 0.35279 0.0
H4213 H 0.31785 0.88653 0.35303 0.0
H4214 H 0.32455 0.88969 0.40244 0.0
C4215 C 0.29916 0.94041 0.40212 0.0
C4216 C 0.29201 0.94974 0.39212 0.0
C4217 C 0.29106 0.94695 0.37617 0.0
C4218 C 0.29702 0.935 0.37024 0.0
C4219 C 0.30389 0.92596 0.38041 0.0
C4220 C 0.30499 0.92852 0.39602 0.0
C4221 C 0.31233 0.91683 0.40447 0.0
C4222 C 0.32898 0.92366 0.41456 0.0
C4223 C 0.29981 0.90829 0.41386 0.0
C4224 C 0.31501 0.90719 0.39118 0.0
C4225 C 0.31018 0.9127 0.3774 0.0
C4226 C 0.31119 0.90553 0.36351 0.0
C4227 C 0.31713 0.89229 0.36373 0.0
C4228 C 0.32179 0.88634 0.37772 0.0
C4229 C 0.32096 0.89401 0.3916 0.0
H4230 H 0.28357 0.07419 0.63451 0.0
H4231 H 0.28137 0.06574 0.68201 0.0
H4232 H 0.30611 0.0857 0.68977 0.0
H4233 H 0.3277 0.08102 0.63724 0.0
H4234 H 0.32872 0.09538 0.62411 0.0
H4235 H 0.31039 0.08095 0.62238 0.0
H4236 H 0.2919 0.10052 0.62423 0.0
H4237 H 0.31019 0.11503 0.62592 0.0
H4238 H 0.29663 0.11402 0.6403 0.0
H4239 H 0.33188 0.10604 0.69222 0.0
H4240 H 0.35612 0.12547 0.68912 0.0
H4241 H 0.34137 0.12009 0.64001 0.0
C4242 C 0.28817 0.0766 0.64656 0.0
C4243 C 0.28051 0.0684 0.65765 0.0
C4244 C 0.28701 0.07188 0.6733 0.0
C4245 C 0.30106 0.0832 0.67783 0.0
C4246 C 0.30842 0.09094 0.66657 0.0
C4247 C 0.30215 0.08782 0.65127 0.0
C4248 C 0.31256 0.09749 0.64139 0.0
C4249 C 0.3203 0.08815 0.63065 0.0
C4250 C 0.3022 0.10735 0.63244 0.0
C4251 C 0.32576 0.10648 0.65352 0.0
C4252 C 0.32317 0.10258 0.66798 0.0
C4253 C 0.33399 0.10922 0.68095 0.0
C4254 C 0.34777 0.12017 0.67908 0.0
C4255 C 0.35059 0.12435 0.66434 0.0
C4256 C 0.3394 0.11734 0.65145 0.0
H4257 H 0.19259 0.05187 0.8976 0.0
H4258 H 0.17989 0.04015 0.94198 0.0
H4259 H 0.16691 0.06201 0.9437 0.0
H4260 H 0.20355 0.09051 0.90638 0.0
H4261 H 0.1949 0.09516 0.88786 0.0
H4262 H 0.2024 0.07819 0.88979 0.0
H4263 H 0.17354 0.06342 0.87682 0.0
H4264 H 0.16595 0.08036 0.87483 0.0
H4265 H 0.15496 0.06567 0.8845 0.0
H4266 H 0.15643 0.08584 0.94107 0.0
H4267 H 0.14914 0.10974 0.9341 0.0
H4268 H 0.16852 0.1056 0.89147 0.0
C4269 C 0.18696 0.0538 0.90764 0.0
C4270 C 0.18725 0.04426 0.91966 0.0
C4271 C 0.17981 0.04727 0.93262 0.0
C4272 C 0.17239 0.05966 0.9337 0.0
C4273 C 0.17245 0.0689 0.9217 0.0
C4274 C 0.1795 0.06609 0.9089 0.0
C4275 C 0.17834 0.07794 0.89778 0.0
C4276 C 0.19584 0.08592 0.89532 0.0
C4277 C 0.16756 0.07145 0.88258 0.0
C4278 C 0.16973 0.08797 0.90641 0.0
C4279 C 0.16637 0.08254 0.92016 0.0
C4280 C 0.15888 0.09013 0.93028 0.0
C4281 C 0.15479 0.10365 0.92626 0.0
C4282 C 0.1582 0.10939 0.91226 0.0
C4283 C 0.16568 0.10139 0.9022 0.0
H4284 H 0.68975 0.46377 0.5856 0.0
H4285 H 0.7111 0.49502 0.62441 0.0
H4286 H 0.68744 0.48504 0.63771 0.0
H4287 H 0.64455 0.46313 0.58914 0.0
H4288 H 0.63893 0.44365 0.58354 0.0
H4289 H 0.65579 0.45509 0.57603 0.0
H4290 H 0.6756 0.43776 0.58582 0.0
H4291 H 0.65892 0.4264 0.5935 0.0
H4292 H 0.67821 0.43424 0.60575 0.0
H4293 H 0.66432 0.46882 0.64845 0.0
H4294 H 0.64318 0.44841 0.65522 0.0
H4295 H 0.63625 0.42848 0.609 0.0
C4296 C 0.6892 0.46885 0.5967 0.0
C4297 C 0.70227 0.48019 0.60395 0.0
C4298 C 0.70118 0.48638 0.61858 0.0
C4299 C 0.68777 0.48079 0.62623 0.0
C4300 C 0.67544 0.46918 0.619 0.0
C4301 C 0.6759 0.46344 0.60445 0.0
C4302 C 0.66204 0.45008 0.59976 0.0
C4303 C 0.64959 0.45318 0.58632 0.0
C4304 C 0.66912 0.43632 0.596 0.0
C4305 C 0.65424 0.44875 0.61422 0.0
C4306 C 0.66196 0.45996 0.62513 0.0
C4307 C 0.6579 0.4602 0.63987 0.0
C4308 C 0.64582 0.44857 0.6436 0.0
C4309 C 0.63802 0.43681 0.63265 0.0
C4310 C 0.64204 0.43722 0.61768 0.0
H4311 H 0.71088 0.45801 0.18516 0.0
H4312 H 0.72268 0.46077 0.13907 0.0
H4313 H 0.707 0.4352 0.13243 0.0
H4314 H 0.71507 0.42022 0.18875 0.0
H4315 H 0.69812 0.41599 0.19971 0.0
H4316 H 0.71012 0.43453 0.20072 0.0
H4317 H 0.68293 0.44432 0.19287 0.0
H4318 H 0.67086 0.42581 0.19184 0.0
H4319 H 0.66931 0.43669 0.17553 0.0
H4320 H 0.68931 0.40944 0.13074 0.0
H4321 H 0.67144 0.38554 0.13422 0.0
H4322 H 0.67286 0.39936 0.18187 0.0
C4323 C 0.71013 0.45327 0.17365 0.0
C4324 C 0.71794 0.4614 0.16261 0.0
C4325 C 0.71679 0.45474 0.14772 0.0
C4326 C 0.70791 0.44023 0.14384 0.0
C4327 C 0.70039 0.4325 0.15502 0.0
C4328 C 0.70149 0.43878 0.16964 0.0
C4329 C 0.69246 0.42809 0.17961 0.0
C4330 C 0.70467 0.42449 0.19298 0.0
C4331 C 0.67804 0.43409 0.18529 0.0
C4332 C 0.68597 0.41487 0.16827 0.0
C4333 C 0.69063 0.41761 0.15415 0.0
C4334 C 0.68571 0.40713 0.14179 0.0
C4335 C 0.67565 0.39352 0.14392 0.0
C4336 C 0.67068 0.39048 0.15832 0.0
C4337 C 0.67616 0.40133 0.17064 0.0
H4338 H 0.30452 0.95549 0.87631 0.0
H4339 H 0.30869 0.96193 0.92555 0.0
H4340 H 0.32707 0.94374 0.9285 0.0
H4341 H 0.30272 0.91694 0.8744 0.0
H4342 H 0.315 0.9169 0.8591 0.0
H4343 H 0.30283 0.93094 0.86088 0.0
H4344 H 0.32942 0.95125 0.86156 0.0
H4345 H 0.34168 0.93726 0.85977 0.0
H4346 H 0.34749 0.95111 0.87551 0.0
H4347 H 0.34349 0.92364 0.92605 0.0
H4348 H 0.35761 0.90379 0.91829 0.0
H4349 H 0.34332 0.91103 0.87075 0.0
C4350 C 0.3094 0.95317 0.88772 0.0
C4351 C 0.30515 0.96013 0.90071 0.0
C4352 C 0.3118 0.95677 0.91544 0.0
C4353 C 0.32225 0.94644 0.91723 0.0
C4354 C 0.32606 0.93969 0.90419 0.0
C4355 C 0.31994 0.94299 0.88972 0.0
C4356 C 0.32566 0.93397 0.87757 0.0
C4357 C 0.31066 0.92411 0.8674 0.0
C4358 C 0.33672 0.944 0.86805 0.0
C4359 C 0.33573 0.9249 0.88746 0.0
C4360 C 0.33581 0.92836 0.90279 0.0
C4361 C 0.34366 0.92095 0.91409 0.0
C4362 C 0.35158 0.90967 0.90959 0.0
C4363 C 0.35165 0.90599 0.89394 0.0
C4364 C 0.34372 0.91381 0.88279 0.0
H4365 H 0.2152 0.05932 0.37464 0.0
H4366 H 0.23375 0.05193 0.33205 0.0
H4367 H 0.21058 0.06173 0.31817 0.0
H4368 H 0.17219 0.04851 0.36018 0.0
H4369 H 0.16575 0.06234 0.37166 0.0
H4370 H 0.18431 0.05554 0.37841 0.0
H4371 H 0.20171 0.08224 0.38149 0.0
H4372 H 0.18317 0.08914 0.37483 0.0
H4373 H 0.20135 0.09352 0.36543 0.0
H4374 H 0.18465 0.07128 0.30876 0.0
H4375 H 0.1581 0.08043 0.30468 0.0
H4376 H 0.15669 0.08172 0.35334 0.0
C4377 C 0.21451 0.05989 0.36242 0.0
C4378 C 0.22631 0.05485 0.35444 0.0
C4379 C 0.22489 0.05575 0.33843 0.0
C4380 C 0.21176 0.06129 0.33043 0.0
C4381 C 0.20021 0.06596 0.33862 0.0
C4382 C 0.20152 0.06542 0.35427 0.0
C4383 C 0.18725 0.07081 0.36031 0.0
C4384 C 0.17676 0.05857 0.36809 0.0
C4385 C 0.19377 0.08476 0.37116 0.0
C4386 C 0.17757 0.07427 0.34559 0.0
C4387 C 0.18528 0.07144 0.3332 0.0
C4388 C 0.17852 0.07355 0.31837 0.0
C4389 C 0.16346 0.07868 0.31614 0.0
C4390 C 0.15533 0.0815 0.32867 0.0
C4391 C 0.1626 0.07944 0.34357 0.0
H4392 H 0.36463 0.18977 0.47472 0.0
H4393 H 0.4159 0.21106 0.4726 0.0
H4394 H 0.41401 0.19854 0.44709 0.0
H4395 H 0.36698 0.15552 0.45871 0.0
H4396 H 0.34615 0.15162 0.44812 0.0
H4397 H 0.35077 0.16365 0.46528 0.0
H4398 H 0.34001 0.18432 0.45044 0.0
H4399 H 0.33525 0.17229 0.43321 0.0
H4400 H 0.34868 0.19017 0.43362 0.0
H4401 H 0.40749 0.18165 0.4231 0.0
H4402 H 0.39686 0.16191 0.40255 0.0
H4403 H 0.34962 0.15213 0.42008 0.0
C4404 C 0.37537 0.19206 0.46878 0.0
C4405 C 0.39041 0.20144 0.47566 0.0
C4406 C 0.40422 0.20397 0.46756 0.0
C4407 C 0.40326 0.19692 0.45304 0.0
C4408 C 0.38836 0.18747 0.44674 0.0
C4409 C 0.37462 0.18512 0.45431 0.0
C4410 C 0.36047 0.17368 0.44554 0.0
C4411 C 0.35583 0.16033 0.45498 0.0
C4412 C 0.3452 0.18053 0.4404 0.0
C4413 C 0.36857 0.16962 0.43209 0.0
C4414 C 0.38459 0.1778 0.43289 0.0
C4415 C 0.39486 0.17536 0.4222 0.0
C4416 C 0.38867 0.16416 0.41052 0.0
C4417 C 0.37236 0.15547 0.40962 0.0
C4418 C 0.36216 0.15849 0.42046 0.0
H4419 H 0.61753 0.66398 0.19865 0.0
H4420 H 0.58284 0.62225 0.19843 0.0
H4421 H 0.59637 0.61149 0.17872 0.0
H4422 H 0.61883 0.66243 0.15799 0.0
H4423 H 0.64072 0.67079 0.16017 0.0
H4424 H 0.6282 0.67522 0.17415 0.0
H4425 H 0.6488 0.6673 0.19552 0.0
H4426 H 0.66137 0.66284 0.18161 0.0
H4427 H 0.65349 0.64908 0.19396 0.0
H4428 H 0.6145 0.60499 0.15981 0.0
H4429 H 0.63513 0.60363 0.14225 0.0
H4430 H 0.65727 0.64979 0.15432 0.0
C4431 C 0.61275 0.65258 0.19444 0.0
C4432 C 0.59916 0.64394 0.20011 0.0
C4433 C 0.59322 0.62909 0.19424 0.0
C4434 C 0.60083 0.62287 0.18306 0.0
C4435 C 0.61425 0.63169 0.17777 0.0
C4436 C 0.62008 0.64625 0.18319 0.0
C4437 C 0.63466 0.65336 0.17559 0.0
C4438 C 0.63034 0.66621 0.16643 0.0
C4439 C 0.65051 0.65844 0.18738 0.0
C4440 C 0.63624 0.64048 0.16517 0.0
C4441 C 0.6244 0.62806 0.16663 0.0
C4442 C 0.62375 0.61467 0.1585 0.0
C4443 C 0.63553 0.61398 0.14862 0.0
C4444 C 0.64768 0.62662 0.14691 0.0
C4445 C 0.64795 0.64003 0.15526 0.0
H4446 H 0.07953 0.81412 0.00139 0.0
H4447 H 0.12827 0.82257 0.02957 0.0
H4448 H 0.13844 0.84207 0.0131 0.0
H4449 H 0.09479 0.82104 0.96468 0.0
H4450 H 0.0777 0.82974 0.95773 0.0
H4451 H 0.07475 0.81553 0.97091 0.0
H4452 H 0.06464 0.83339 0.98917 0.0
H4453 H 0.06771 0.84769 0.97615 0.0
H4454 H 0.07791 0.85101 0.99564 0.0
H4455 H 0.14268 0.86197 0.99486 0.0
H4456 H 0.14085 0.88025 0.9754 0.0
H4457 H 0.08951 0.85882 0.95912 0.0
C4458 C 0.09244 0.81986 0.00393 0.0
C4459 C 0.10311 0.81678 0.01676 0.0
C4460 C 0.11986 0.8247 0.01979 0.0
C4461 C 0.12576 0.83581 0.0105 0.0
C4462 C 0.1148 0.83882 0.99818 0.0
C4463 C 0.09853 0.831 0.99479 0.0
C4464 C 0.08908 0.83688 0.9813 0.0
C4465 C 0.08377 0.82509 0.96786 0.0
C4466 C 0.07394 0.84258 0.98585 0.0
C4467 C 0.10246 0.84941 0.97785 0.0
C4468 C 0.11723 0.8503 0.98767 0.0
C4469 C 0.13122 0.86131 0.98703 0.0
C4470 C 0.13007 0.87165 0.97603 0.0
C4471 C 0.11504 0.87094 0.96592 0.0
C4472 C 0.10113 0.85961 0.96678 0.0
H4473 H 0.87044 0.31354 0.66803 0.0
H4474 H 0.90864 0.34661 0.69575 0.0
H4475 H 0.9052 0.36448 0.67629 0.0
H4476 H 0.88106 0.32488 0.63054 0.0
H4477 H 0.85944 0.3213 0.62188 0.0
H4478 H 0.86614 0.31063 0.63721 0.0
H4479 H 0.84388 0.31792 0.65243 0.0
H4480 H 0.83715 0.32861 0.63718 0.0
H4481 H 0.84367 0.33718 0.65624 0.0
H4482 H 0.89568 0.37944 0.65519 0.0
H4483 H 0.88096 0.39029 0.63366 0.0
H4484 H 0.84926 0.34747 0.61957 0.0
C4485 C 0.87831 0.32445 0.66988 0.0
C4486 C 0.88984 0.32866 0.6834 0.0
C4487 C 0.89975 0.34311 0.68547 0.0
C4488 C 0.89792 0.35334 0.67447 0.0
C4489 C 0.88623 0.34891 0.6614 0.0
C4490 C 0.87667 0.33479 0.65901 0.0
C4491 C 0.86427 0.33311 0.64446 0.0
C4492 C 0.86795 0.32181 0.63284 0.0
C4493 C 0.84618 0.32897 0.64779 0.0
C4494 C 0.86804 0.34861 0.63927 0.0
C4495 C 0.88084 0.35753 0.64913 0.0
C4496 C 0.88581 0.37252 0.64726 0.0
C4497 C 0.87735 0.37859 0.63507 0.0
C4498 C 0.8641 0.36967 0.62493 0.0
C4499 C 0.85959 0.35446 0.62696 0.0
H4500 H 0.3184 0.83139 0.97083 0.0
H4501 H 0.32924 0.79314 0.99395 0.0
H4502 H 0.33717 0.80839 0.01833 0.0
H4503 H 0.35192 0.85849 0.99279 0.0
H4504 H 0.33948 0.87252 0.99309 0.0
H4505 H 0.33532 0.85874 0.97732 0.0
H4506 H 0.3045 0.8515 0.98184 0.0
H4507 H 0.30855 0.86526 0.9976 0.0
H4508 H 0.30003 0.8463 0.00041 0.0
H4509 H 0.34309 0.82758 0.04033 0.0
H4510 H 0.34613 0.84942 0.05845 0.0
H4511 H 0.33113 0.87495 0.02106 0.0
C4512 C 0.32255 0.82623 0.98099 0.0
C4513 C 0.32323 0.81107 0.98047 0.0
C4514 C 0.32861 0.80473 0.99406 0.0
C4515 C 0.33318 0.8133 0.00797 0.0
C4516 C 0.33228 0.82819 0.00809 0.0
C4517 C 0.32708 0.8346 0.99497 0.0
C4518 C 0.32671 0.85072 0.99829 0.0
C4519 C 0.3391 0.8607 0.98987 0.0
C4520 C 0.30889 0.8536 0.9943 0.0
C4521 C 0.33239 0.85234 0.01535 0.0
C4522 C 0.33565 0.83924 0.02076 0.0
C4523 C 0.34073 0.83793 0.03621 0.0
C4524 C 0.34246 0.85034 0.04638 0.0
C4525 C 0.33916 0.86383 0.04105 0.0
C4526 C 0.33401 0.86481 0.02535 0.0
H4527 H 0.93155 0.63645 0.78202 0.0
H4528 H 0.89191 0.60314 0.75631 0.0
H4529 H 0.87487 0.60419 0.77698 0.0
H4530 H 0.92765 0.62308 0.81816 0.0
H4531 H 0.93188 0.64105 0.82823 0.0
H4532 H 0.94047 0.6385 0.81096 0.0
H4533 H 0.9267 0.65917 0.79915 0.0
H4534 H 0.91812 0.66184 0.81643 0.0
H4535 H 0.90451 0.65796 0.79839 0.0
H4536 H 0.863 0.60757 0.80122 0.0
H4537 H 0.85683 0.61374 0.827 0.0
H4538 H 0.90403 0.64491 0.83667 0.0
C4539 C 0.91919 0.62952 0.78062 0.0
C4540 C 0.91305 0.61973 0.76752 0.0
C4541 C 0.89688 0.61075 0.76622 0.0
C4542 C 0.88709 0.61127 0.7779 0.0
C4543 C 0.89364 0.62086 0.79075 0.0
C4544 C 0.90928 0.62989 0.79214 0.0
C4545 C 0.91368 0.63881 0.80737 0.0
C4546 C 0.92934 0.63513 0.81673 0.0
C4547 C 0.91587 0.65543 0.8052 0.0
C4548 C 0.89816 0.63325 0.81441 0.0
C4549 C 0.88673 0.62293 0.80464 0.0
C4550 C 0.87173 0.61579 0.80888 0.0
C4551 C 0.86833 0.61935 0.82349 0.0
C4552 C 0.87981 0.63001 0.83357 0.0
C4553 C 0.89493 0.63696 0.82899 0.0
H4554 H 0.17093 0.17489 0.5227 0.0
H4555 H 0.12629 0.19376 0.51834 0.0
H4556 H 0.11612 0.17878 0.53877 0.0
H4557 H 0.15074 0.13859 0.52794 0.0
H4558 H 0.16756 0.13479 0.54147 0.0
H4559 H 0.17196 0.14785 0.52739 0.0
H4560 H 0.18676 0.16787 0.54878 0.0
H4561 H 0.18243 0.15486 0.56294 0.0
H4562 H 0.1757 0.17226 0.56399 0.0
H4563 H 0.11025 0.16095 0.55888 0.0
H4564 H 0.10883 0.14112 0.57677 0.0
H4565 H 0.15693 0.13348 0.56758 0.0
C4566 C 0.15912 0.17603 0.52618 0.0
C4567 C 0.14944 0.18556 0.51899 0.0
C4568 C 0.13394 0.18656 0.52371 0.0
C4569 C 0.12808 0.17812 0.53533 0.0
C4570 C 0.13784 0.16871 0.54207 0.0
C4571 C 0.15303 0.16761 0.53766 0.0
C4572 C 0.1607 0.15611 0.54617 0.0
C4573 C 0.16286 0.14359 0.53508 0.0
C4574 C 0.17738 0.1632 0.55606 0.0
C4575 C 0.14737 0.15079 0.55591 0.0
C4576 C 0.13435 0.15829 0.55349 0.0
C4577 C 0.12041 0.15507 0.56094 0.0
C4578 C 0.11971 0.14381 0.57107 0.0
C4579 C 0.13282 0.13589 0.57357 0.0
C4580 C 0.14683 0.13949 0.56594 0.0
H4581 H 0.5628 0.38196 0.3125 0.0
H4582 H 0.56079 0.42745 0.30389 0.0
H4583 H 0.57958 0.43582 0.32819 0.0
H4584 H 0.56447 0.38553 0.35368 0.0
H4585 H 0.579 0.37331 0.35704 0.0
H4586 H 0.56447 0.37092 0.33956 0.0
H4587 H 0.58907 0.37283 0.32395 0.0
H4588 H 0.60366 0.37521 0.34136 0.0
H4589 H 0.60588 0.38876 0.32741 0.0
H4590 H 0.59914 0.43915 0.35328 0.0
H4591 H 0.61873 0.43727 0.37648 0.0
H4592 H 0.60908 0.38964 0.36749 0.0
C4593 C 0.56611 0.39368 0.31581 0.0
C4594 C 0.56023 0.40406 0.30638 0.0
C4595 C 0.56512 0.41931 0.31098 0.0
C4596 C 0.57574 0.42416 0.32477 0.0
C4597 C 0.58144 0.41362 0.33374 0.0
C4598 C 0.57685 0.39871 0.3294 0.0
C4599 C 0.58542 0.38967 0.34061 0.0
C4600 C 0.57257 0.37925 0.34817 0.0
C4601 C 0.59668 0.38112 0.33287 0.0
C4602 C 0.59564 0.40184 0.35191 0.0
C4603 C 0.59307 0.41556 0.34785 0.0
C4604 C 0.60128 0.42845 0.35653 0.0
C4605 C 0.6125 0.42727 0.36964 0.0
C4606 C 0.61555 0.41331 0.37386 0.0
C4607 C 0.60688 0.40047 0.36482 0.0
H4608 H 0.46697 0.39234 0.23744 0.0
H4609 H 0.49403 0.4373 0.23635 0.0
H4610 H 0.46796 0.44455 0.22501 0.0
H4611 H 0.44337 0.39016 0.2024 0.0
H4612 H 0.42451 0.37933 0.20738 0.0
H4613 H 0.44445 0.3782 0.21786 0.0
H4614 H 0.43455 0.38531 0.24315 0.0
H4615 H 0.41446 0.38634 0.23273 0.0
H4616 H 0.42639 0.40195 0.24489 0.0
H4617 H 0.44014 0.44597 0.21019 0.0
H4618 H 0.41279 0.44154 0.19363 0.0
H4619 H 0.40359 0.39588 0.20522 0.0
C4620 C 0.46735 0.40381 0.23523 0.0
C4621 C 0.48255 0.41425 0.23781 0.0
C4622 C 0.48253 0.4291 0.23454 0.0
C4623 C 0.46776 0.43334 0.22812 0.0
C4624 C 0.4531 0.42264 0.22522 0.0
C4625 C 0.45274 0.40821 0.22885 0.0
C4626 C 0.43577 0.39854 0.22332 0.0
C4627 C 0.43712 0.38582 0.21207 0.0
C4628 C 0.42729 0.39269 0.23683 0.0
C4629 C 0.42689 0.40962 0.2154 0.0
C4630 C 0.43698 0.42351 0.2168 0.0
C4631 C 0.43197 0.43523 0.20931 0.0
C4632 C 0.41636 0.43261 0.19997 0.0
C4633 C 0.40597 0.41836 0.19812 0.0
C4634 C 0.41123 0.40688 0.2063 0.0
H4635 H 0.31332 0.69774 0.87309 0.0
H4636 H 0.26461 0.70389 0.85194 0.0
H4637 H 0.26359 0.68361 0.83256 0.0
H4638 H 0.32857 0.68926 0.83772 0.0
H4639 H 0.33968 0.67583 0.84599 0.0
H4640 H 0.33676 0.6912 0.85778 0.0
H4641 H 0.32294 0.67306 0.87593 0.0
H4642 H 0.32572 0.65764 0.86416 0.0
H4643 H 0.30519 0.65882 0.86829 0.0
H4644 H 0.26731 0.66171 0.8163 0.0
H4645 H 0.27598 0.64044 0.80399 0.0
H4646 H 0.32259 0.64942 0.83533 0.0
C4647 C 0.30248 0.69491 0.86433 0.0
C4648 C 0.28902 0.70237 0.86404 0.0
C4649 C 0.27509 0.69834 0.85236 0.0
C4650 C 0.27439 0.68683 0.84131 0.0
C4651 C 0.2878 0.67958 0.84203 0.0
C4652 C 0.30165 0.68355 0.85316 0.0
C4653 C 0.31431 0.67392 0.85154 0.0
C4654 C 0.3308 0.6831 0.84805 0.0
C4655 C 0.3172 0.66535 0.86583 0.0
C4656 C 0.30529 0.66371 0.83793 0.0
C4657 C 0.29001 0.66714 0.8326 0.0
C4658 C 0.27926 0.65895 0.82037 0.0
C4659 C 0.28423 0.64688 0.81349 0.0
C4660 C 0.29973 0.64309 0.81894 0.0
C4661 C 0.31051 0.65185 0.83111 0.0
H4662 H 0.04135 0.57049 0.70707 0.0
H4663 H 0.05238 0.6153 0.72787 0.0
H4664 H 0.08086 0.61873 0.72103 0.0
H4665 H 0.08255 0.56236 0.71888 0.0
H4666 H 0.08224 0.5516 0.70137 0.0
H4667 H 0.06295 0.55252 0.70842 0.0
H4668 H 0.05133 0.56171 0.68271 0.0
H4669 H 0.07055 0.56081 0.67559 0.0
H4670 H 0.06298 0.57785 0.67562 0.0
H4671 H 0.10754 0.61773 0.71052 0.0
H4672 H 0.13077 0.612 0.69788 0.0
H4673 H 0.10237 0.56772 0.68463 0.0
C4674 C 0.04978 0.581 0.71028 0.0
C4675 C 0.04465 0.59264 0.71798 0.0
C4676 C 0.05606 0.60621 0.72199 0.0
C4677 C 0.07226 0.60827 0.71816 0.0
C4678 C 0.07687 0.5966 0.71046 0.0
C4679 C 0.066 0.5832 0.70666 0.0
C4680 C 0.07391 0.57251 0.69816 0.0
C4681 C 0.07551 0.55895 0.70726 0.0
C4682 C 0.06411 0.56796 0.68207 0.0
C4683 C 0.09084 0.58206 0.69756 0.0
C4684 C 0.09232 0.59592 0.70471 0.0
C4685 C 0.10659 0.60687 0.70502 0.0
C4686 C 0.11966 0.60355 0.69779 0.0
C4687 C 0.11837 0.5894 0.69043 0.0
C4688 C 0.10381 0.57853 0.69043 0.0
H4689 H 0.14688 0.26477 0.41414 0.0
H4690 H 0.17075 0.27875 0.46057 0.0
H4691 H 0.17587 0.30471 0.45374 0.0
H4692 H 0.17472 0.28919 0.39595 0.0
H4693 H 0.15898 0.2926 0.38105 0.0
H4694 H 0.15607 0.27535 0.38991 0.0
H4695 H 0.12776 0.27968 0.39689 0.0
H4696 H 0.13055 0.29694 0.38799 0.0
H4697 H 0.12703 0.29651 0.40757 0.0
H4698 H 0.17965 0.32904 0.44134 0.0
H4699 H 0.18191 0.34967 0.42431 0.0
H4700 H 0.15568 0.31952 0.38618 0.0
C4701 C 0.15301 0.27328 0.42295 0.0
C4702 C 0.15839 0.26973 0.43791 0.0
C4703 C 0.16648 0.28122 0.44905 0.0
C4704 C 0.16943 0.29599 0.44528 0.0
C4705 C 0.16415 0.29907 0.43035 0.0
C4706 C 0.15605 0.28802 0.41939 0.0
C4707 C 0.15224 0.29411 0.40403 0.0
C4708 C 0.16103 0.28742 0.39204 0.0
C4709 C 0.13327 0.29166 0.39882 0.0
C4710 C 0.15973 0.31029 0.40796 0.0
C4711 C 0.16643 0.31297 0.42322 0.0
C4712 C 0.1744 0.32707 0.4294 0.0
C4713 C 0.17567 0.33868 0.41968 0.0
C4714 C 0.16918 0.33606 0.40398 0.0
C4715 C 0.16087 0.32174 0.39814 0.0
H4716 H 0.49393 0.6022 0.2893 0.0
H4717 H 0.51614 0.63673 0.32495 0.0
H4718 H 0.49392 0.62744 0.34017 0.0
H4719 H 0.4512 0.60284 0.29235 0.0
H4720 H 0.44428 0.58313 0.28891 0.0
H4721 H 0.46203 0.59242 0.2809 0.0
H4722 H 0.48015 0.57511 0.2939 0.0
H4723 H 0.46245 0.56576 0.30194 0.0
H4724 H 0.48168 0.57369 0.31423 0.0
H4725 H 0.46883 0.61472 0.35125 0.0
H4726 H 0.44315 0.59895 0.35759 0.0
H4727 H 0.43769 0.57269 0.3149 0.0
C4728 C 0.49416 0.60781 0.30032 0.0
C4729 C 0.50678 0.62021 0.30592 0.0
C4730 C 0.50661 0.6272 0.32041 0.0
C4731 C 0.49404 0.62202 0.32914 0.0
C4732 C 0.48176 0.60981 0.32325 0.0
C4733 C 0.48175 0.60276 0.30919 0.0
C4734 C 0.46714 0.58987 0.30544 0.0
C4735 C 0.45548 0.59221 0.29105 0.0
C4736 C 0.47322 0.57524 0.30379 0.0
C4737 C 0.45889 0.59077 0.31958 0.0
C4738 C 0.4675 0.60236 0.32971 0.0
C4739 C 0.46209 0.60553 0.34347 0.0
C4740 C 0.44756 0.59654 0.34699 0.0
C4741 C 0.43877 0.58449 0.33686 0.0
C4742 C 0.44442 0.58169 0.32293 0.0
H4743 H 0.08345 0.72429 0.07251 0.0
H4744 H 0.13514 0.74115 0.06739 0.0
H4745 H 0.14317 0.71919 0.07878 0.0
H4746 H 0.09192 0.71055 0.10855 0.0
H4747 H 0.07538 0.69443 0.1049 0.0
H4748 H 0.07341 0.71083 0.09519 0.0
H4749 H 0.06857 0.69578 0.06909 0.0
H4750 H 0.07045 0.6793 0.07873 0.0
H4751 H 0.08368 0.6851 0.06465 0.0
H4752 H 0.14585 0.69621 0.09212 0.0
H4753 H 0.14305 0.67395 0.10663 0.0
H4754 H 0.08955 0.67191 0.10286 0.0
C4755 C 0.09642 0.72327 0.07357 0.0
C4756 C 0.10866 0.73442 0.06899 0.0
C4757 C 0.12554 0.73274 0.07077 0.0
C4758 C 0.13022 0.72029 0.07721 0.0
C4759 C 0.11788 0.70961 0.08179 0.0
C4760 C 0.10132 0.71095 0.08002 0.0
C4761 C 0.09065 0.69826 0.08656 0.0
C4762 C 0.08236 0.70386 0.09957 0.0
C4763 C 0.07756 0.68906 0.07401 0.0
C4764 C 0.10384 0.68971 0.09251 0.0
C4765 C 0.11944 0.69638 0.08953 0.0
C4766 C 0.13367 0.69078 0.09436 0.0
C4767 C 0.13193 0.67808 0.10253 0.0
C4768 C 0.11607 0.67111 0.10584 0.0
C4769 C 0.10186 0.677 0.10061 0.0
H4770 H 0.96327 0.33987 0.74854 0.0
H4771 H 0.95643 0.29481 0.76203 0.0
H4772 H 0.98577 0.29956 0.77463 0.0
H4773 H 0.00728 0.3434 0.74214 0.0
H4774 H 0.0127 0.36235 0.74978 0.0
H4775 H 0.9918 0.35485 0.74029 0.0
H4776 H 0.97984 0.36261 0.76424 0.0
H4777 H 0.00065 0.37004 0.77382 0.0
H4778 H 0.98699 0.35627 0.78244 0.0
H4779 H 0.01469 0.31007 0.78832 0.0
H4780 H 0.04144 0.32531 0.8011 0.0
H4781 H 0.02946 0.36332 0.77839 0.0
C4782 C 0.96802 0.33089 0.75384 0.0
C4783 C 0.95755 0.31695 0.75426 0.0
C4784 C 0.96422 0.30557 0.76151 0.0
C4785 C 0.98088 0.30815 0.76869 0.0
C4786 C 0.99073 0.32214 0.76842 0.0
C4787 C 0.98459 0.33328 0.76106 0.0
C4788 C -0.00262 0.3476 0.76327 0.0
C4789 C 0.0026 0.35232 0.74796 0.0
C4790 C 0.99082 0.35984 0.77143 0.0
C4791 C 0.01151 0.34288 0.77335 0.0
C4792 C 0.00749 0.32813 0.77611 0.0
C4793 C 0.01814 0.32154 0.78595 0.0
C4794 C 0.0333 0.33025 0.79313 0.0
C4795 C 0.03771 0.34534 0.79031 0.0
C4796 C 0.02661 0.35169 0.78034 0.0
H4797 H 0.37613 0.28126 0.54823 0.0
H4798 H 0.32562 0.26628 0.52436 0.0
H4799 H 0.31832 0.28974 0.53275 0.0
H4800 H 0.36483 0.29813 0.58057 0.0
H4801 H 0.38251 0.31332 0.58317 0.0
H4802 H 0.38416 0.29591 0.57427 0.0
H4803 H 0.39313 0.30897 0.55063 0.0
H4804 H 0.39159 0.32645 0.55949 0.0
H4805 H 0.38004 0.32022 0.54085 0.0
H4806 H 0.31615 0.31433 0.54484 0.0
H4807 H 0.31943 0.33828 0.55975 0.0
H4808 H 0.37107 0.33677 0.57609 0.0
C4809 C 0.3636 0.28299 0.54456 0.0
C4810 C 0.35147 0.27198 0.53556 0.0
C4811 C 0.33514 0.27459 0.53121 0.0
C4812 C 0.33088 0.28788 0.53591 0.0
C4813 C 0.34307 0.29841 0.54498 0.0
C4814 C 0.35911 0.29613 0.54924 0.0
C4815 C 0.36967 0.30888 0.55963 0.0
C4816 C 0.37563 0.30375 0.57534 0.0
C4817 C 0.38448 0.31659 0.5522 0.0
C4818 C 0.35702 0.31865 0.56068 0.0
C4819 C 0.34178 0.31247 0.55206 0.0
C4820 C 0.32807 0.31933 0.55152 0.0
C4821 C 0.33001 0.33288 0.55998 0.0
C4822 C 0.34552 0.33937 0.56884 0.0
C4823 C 0.35914 0.33211 0.56923 0.0
H4824 H 0.20799 0.47906 0.38081 0.0
H4825 H 0.20435 0.48552 0.4289 0.0
H4826 H 0.19423 0.45871 0.4297 0.0
H4827 H 0.17131 0.45265 0.37108 0.0
H4828 H 0.17935 0.44173 0.35765 0.0
H4829 H 0.18794 0.46117 0.36119 0.0
H4830 H 0.2176 0.45562 0.36832 0.0
H4831 H 0.20911 0.43613 0.3647 0.0
H4832 H 0.2212 0.44316 0.38293 0.0
H4833 H 0.18186 0.43157 0.42462 0.0
H4834 H 0.16884 0.40621 0.41416 0.0
H4835 H 0.18165 0.41743 0.36968 0.0
C4836 C 0.20534 0.47483 0.39159 0.0
C4837 C 0.20698 0.4844 0.40479 0.0
C4838 C 0.20325 0.47841 0.41863 0.0
C4839 C 0.1975 0.46319 0.41921 0.0
C4840 C 0.1957 0.4541 0.4059 0.0
C4841 C 0.19966 0.45969 0.39238 0.0
C4842 C 0.19583 0.4477 0.37951 0.0
C4843 C 0.18284 0.45102 0.3666 0.0
C4844 C 0.2119 0.44552 0.37352 0.0
C4845 C 0.18866 0.43458 0.3878 0.0
C4846 C 0.1888 0.43845 0.40303 0.0
C4847 C 0.18195 0.42834 0.41276 0.0
C4848 C 0.17465 0.41393 0.40673 0.0
C4849 C 0.17423 0.40976 0.39109 0.0
C4850 C 0.1816 0.42024 0.38164 0.0
H4851 H 0.73176 0.05853 0.58212 0.0
H4852 H 0.73558 0.04978 0.63003 0.0
H4853 H 0.72562 0.07269 0.63565 0.0
H4854 H 0.7451 0.09846 0.58785 0.0
H4855 H 0.73066 0.10181 0.57182 0.0
H4856 H 0.73882 0.08508 0.5717 0.0
H4857 H 0.70864 0.06958 0.56699 0.0
H4858 H 0.70039 0.08625 0.56712 0.0
H4859 H 0.6943 0.07233 0.57997 0.0
H4860 H 0.71399 0.09596 0.63587 0.0
H4861 H 0.70179 0.11805 0.63056 0.0
H4862 H 0.70581 0.11159 0.58265 0.0
C4863 C 0.73065 0.06148 0.59382 0.0
C4864 C 0.73449 0.05236 0.60564 0.0
C4865 C 0.73276 0.0566 0.62079 0.0
C4866 C 0.72712 0.06959 0.6241 0.0
C4867 C 0.72331 0.07826 0.61216 0.0
C4868 C 0.72505 0.0744 0.59733 0.0
C4869 C 0.71969 0.0854 0.58651 0.0
C4870 C 0.73445 0.09315 0.57904 0.0
C4871 C 0.70487 0.07794 0.57444 0.0
C4872 C 0.71447 0.09597 0.59754 0.0
C4873 C 0.71671 0.09168 0.61229 0.0
C4874 C 0.71232 0.09949 0.62438 0.0
C4875 C 0.70544 0.11199 0.6213 0.0
C4876 C 0.70306 0.11654 0.60627 0.0
C4877 C 0.70767 0.10842 0.59427 0.0
H4878 H 0.67473 0.88772 0.33869 0.0
H4879 H 0.65876 0.92945 0.33249 0.0
H4880 H 0.6295 0.91618 0.32608 0.0
H4881 H 0.64391 0.86615 0.30786 0.0
H4882 H 0.64098 0.84991 0.31848 0.0
H4883 H 0.66085 0.8626 0.32143 0.0
H4884 H 0.65929 0.86538 0.35036 0.0
H4885 H 0.63944 0.85276 0.34749 0.0
H4886 H 0.64133 0.87094 0.35656 0.0
H4887 H 0.60183 0.89869 0.32273 0.0
H4888 H 0.5778 0.87818 0.32227 0.0
H4889 H 0.61175 0.84763 0.32916 0.0
C4890 C 0.66511 0.89406 0.3358 0.0
C4891 C 0.66905 0.90963 0.3361 0.0
C4892 C 0.65607 0.91751 0.33231 0.0
C4893 C 0.6394 0.91008 0.32863 0.0
C4894 C 0.63591 0.89475 0.32863 0.0
C4895 C 0.6484 0.88681 0.33199 0.0
C4896 C 0.64121 0.87045 0.3318 0.0
C4897 C 0.64709 0.86177 0.31913 0.0
C4898 C 0.64558 0.86454 0.34748 0.0
C4899 C 0.62271 0.8705 0.32821 0.0
C4900 C 0.61993 0.88461 0.32634 0.0
C4901 C 0.60385 0.88754 0.32389 0.0
C4902 C 0.59025 0.87577 0.32354 0.0
C4903 C 0.59278 0.86119 0.32558 0.0
C4904 C 0.6093 0.8586 0.32766 0.0
H4905 H 0.76985 0.92545 0.08426 0.0
H4906 H 0.78621 0.96494 0.11491 0.0
H4907 H 0.80698 0.95304 0.12984 0.0
H4908 H 0.77404 0.89949 0.11459 0.0
H4909 H 0.78067 0.88648 0.10224 0.0
H4910 H 0.76674 0.89798 0.09436 0.0
H4911 H 0.78741 0.90749 0.07581 0.0
H4912 H 0.80148 0.89618 0.08375 0.0
H4913 H 0.80876 0.91579 0.08338 0.0
H4914 H 0.82839 0.93811 0.13906 0.0
H4915 H 0.84622 0.92001 0.1445 0.0
H4916 H 0.81291 0.88869 0.11046 0.0
C4917 C 0.77766 0.93147 0.09426 0.0
C4918 C 0.77653 0.94608 0.09847 0.0
C4919 C 0.78685 0.95367 0.11161 0.0
C4920 C 0.79872 0.94704 0.1201 0.0
C4921 C 0.79975 0.93269 0.11551 0.0
C4922 C 0.7892 0.92484 0.10315 0.0
C4923 C 0.79276 0.9095 0.1008 0.0
C4924 C 0.77765 0.89766 0.10314 0.0
C4925 C 0.79791 0.90711 0.085 0.0
C4926 C 0.8073 0.91015 0.11344 0.0
C4927 C 0.81125 0.92366 0.12168 0.0
C4928 C 0.8251 0.9273 0.13302 0.0
C4929 C 0.83511 0.9168 0.13612 0.0
C4930 C 0.83105 0.9026 0.12817 0.0
C4931 C 0.81675 0.89934 0.11676 0.0
H4932 H 0.27705 0.5553 0.36077 0.0
H4933 H 0.29227 0.52827 0.39672 0.0
H4934 H 0.32122 0.53365 0.39076 0.0
H4935 H 0.30516 0.54744 0.33408 0.0
H4936 H 0.3094 0.56625 0.32883 0.0
H4937 H 0.28953 0.55863 0.33449 0.0
H4938 H 0.29397 0.58004 0.35542 0.0
H4939 H 0.31378 0.58773 0.34979 0.0
H4940 H 0.31269 0.58349 0.3693 0.0
H4941 H 0.34874 0.54292 0.38155 0.0
H4942 H 0.37316 0.55762 0.37196 0.0
H4943 H 0.34017 0.58005 0.3436 0.0
C4944 C 0.28642 0.55027 0.36715 0.0
C4945 C 0.28246 0.54118 0.37903 0.0
C4946 C 0.29511 0.53517 0.3875 0.0
C4947 C 0.31152 0.5381 0.38414 0.0
C4948 C 0.31508 0.54723 0.37243 0.0
C4949 C 0.30291 0.55337 0.3642 0.0
C4950 C 0.31028 0.56411 0.35338 0.0
C4951 C 0.30317 0.55878 0.33671 0.0
C4952 C 0.30752 0.57977 0.35721 0.0
C4953 C 0.32854 0.56322 0.35694 0.0
C4954 C 0.33102 0.55317 0.3677 0.0
C4955 C 0.34693 0.55074 0.37306 0.0
C4956 C 0.36069 0.55905 0.36753 0.0
C4957 C 0.35838 0.56978 0.35701 0.0
C4958 C 0.34213 0.57175 0.35153 0.0
H4959 H 0.27663 0.52437 0.86518 0.0
H4960 H 0.2745 0.49245 0.82726 0.0
H4961 H 0.28859 0.51224 0.81297 0.0
H4962 H 0.26846 0.55421 0.84244 0.0
H4963 H 0.28245 0.56822 0.85529 0.0
H4964 H 0.27228 0.55151 0.86251 0.0
H4965 H 0.3011 0.5466 0.87439 0.0
H4966 H 0.31136 0.56329 0.86719 0.0
H4967 H 0.31697 0.54593 0.86242 0.0
H4968 H 0.3035 0.53556 0.80304 0.0
H4969 H 0.31697 0.56078 0.79788 0.0
H4970 H 0.30889 0.57727 0.84219 0.0
C4971 C 0.27911 0.52153 0.85386 0.0
C4972 C 0.27449 0.50686 0.84735 0.0
C4973 C 0.2779 0.50362 0.83248 0.0
C4974 C 0.28593 0.51478 0.82429 0.0
C4975 C 0.29037 0.52912 0.83108 0.0
C4976 C 0.287 0.53252 0.8455 0.0
C4977 C 0.29291 0.54881 0.85018 0.0
C4978 C 0.27815 0.55611 0.85275 0.0
C4979 C 0.30639 0.5513 0.86438 0.0
C4980 C 0.30018 0.55404 0.83616 0.0
C4981 C 0.29867 0.54252 0.82528 0.0
C4982 C 0.30471 0.54467 0.81146 0.0
C4983 C 0.3124 0.559 0.80866 0.0
C4984 C 0.31389 0.57097 0.8196 0.0
C4985 C 0.30772 0.56837 0.83352 0.0
H4986 H 0.74071 0.03371 0.15373 0.0
H4987 H 0.76093 0.0701 0.12811 0.0
H4988 H 0.74974 0.08721 0.14412 0.0
H4989 H 0.70286 0.04508 0.15757 0.0
H4990 H 0.70207 0.03926 0.17662 0.0
H4991 H 0.71259 0.03005 0.16381 0.0
H4992 H 0.73966 0.03556 0.18356 0.0
H4993 H 0.72921 0.04476 0.19646 0.0
H4994 H 0.74839 0.05433 0.19088 0.0
H4995 H 0.73471 0.10006 0.16182 0.0
H4996 H 0.71761 0.10771 0.18045 0.0
H4997 H 0.70757 0.06305 0.19459 0.0
C4998 C 0.74298 0.0453 0.15159 0.0
C4999 C 0.75173 0.05056 0.13967 0.0
C5000 C 0.7543 0.06581 0.13718 0.0
C5001 C 0.74799 0.07562 0.14622 0.0
C5002 C 0.73922 0.07003 0.15774 0.0
C5003 C 0.73679 0.05524 0.16049 0.0
C5004 C 0.72644 0.05194 0.17322 0.0
C5005 C 0.71002 0.04093 0.16745 0.0
C5006 C 0.73653 0.04632 0.18684 0.0
C5007 C 0.72327 0.06715 0.17708 0.0
C5008 C 0.73078 0.07745 0.16805 0.0
C5009 C 0.729 0.09214 0.16911 0.0
C5010 C 0.71933 0.0964 0.17971 0.0
C5011 C 0.7117 0.08603 0.18914 0.0
C5012 C 0.71364 0.07123 0.18773 0.0
H5013 H 0.79928 0.99257 0.64565 0.0
H5014 H 0.80309 0.98549 0.59769 0.0
H5015 H 0.82843 0.97527 0.60471 0.0
H5016 H 0.84487 0.00194 0.65968 0.0
H5017 H 0.84251 0.99234 0.67673 0.0
H5018 H 0.82594 0.0008 0.66798 0.0
H5019 H 0.80519 0.97572 0.6664 0.0
H5020 H 0.82168 0.96717 0.67503 0.0
H5021 H 0.80985 0.95975 0.65681 0.0
H5022 H 0.85113 0.96302 0.61678 0.0
H5023 H 0.87035 0.95075 0.63307 0.0
H5024 H 0.85205 0.96608 0.67318 0.0
C5025 C 0.80566 0.98921 0.63662 0.0
C5026 C 0.79921 0.98987 0.62112 0.0
C5027 C 0.80781 0.98513 0.60965 0.0
C5028 C 0.82223 0.97932 0.61352 0.0
C5029 C 0.82797 0.97843 0.62891 0.0
C5030 C 0.82005 0.98337 0.64029 0.0
C5031 C 0.82806 0.98025 0.6559 0.0
C5032 C 0.83581 0.99469 0.66565 0.0
C5033 C 0.81544 0.97012 0.664 0.0
C5034 C 0.84142 0.9724 0.65149 0.0
C5035 C 0.84125 0.97156 0.63588 0.0
C5036 C 0.85166 0.96392 0.62904 0.0
C5037 C 0.86255 0.95699 0.63841 0.0
C5038 C 0.86306 0.95787 0.65446 0.0
C5039 C 0.85229 0.96565 0.661 0.0
loop_
_geom_bond_atom_site_label_1
_geom_bond_atom_site_label_2
_geom_bond_distance
_geom_bond_site_symmetry_2
_ccdc_geom_bond_type
O0 Cd1 2.300 . S
O0 C7 1.275 . S
Cd1 O0 2.300 . S
Cd1 O9 2.381 . S
Cd1 O10 2.378 . S
O2 Cd3 2.385 . S
O2 C7 1.255 . S
Cd3 O2 2.385 . S
Cd3 O4 2.317 1_455 S
O4 Cd3 2.317 1_655 S
O4 C5 1.232 . S
C5 O4 1.232 . S
C5 O6 1.218 . S
O6 C5 1.218 . S
C7 O0 1.275 . S
C7 O2 1.255 . S
C8 O9 1.258 . S
C8 O10 1.256 . S
O9 Cd1 2.381 . S
O9 C8 1.258 . S
O10 Cd1 2.378 . S
O10 C8 1.256 . S
O11 Cd12 2.300 . S
O11 C18 1.275 . S
Cd12 O11 2.300 . S
Cd12 O20 2.381 . S
Cd12 O21 2.378 . S
O13 Cd14 2.385 . S
O13 C18 1.255 . S
Cd14 O13 2.385 . S
Cd14 O15 2.317 . S
O15 Cd14 2.317 . S
O15 C16 1.232 . S
C16 O15 1.232 . S
C16 O17 1.218 . S
O17 C16 1.218 . S
C18 O11 1.275 . S
C18 O13 1.255 . S
C19 O20 1.258 . S
C19 O21 1.256 . S
O20 Cd12 2.381 . S
O20 C19 1.258 . S
O21 Cd12 2.378 . S
O21 C19 1.256 . S
O22 Cd23 2.300 . S
O22 C29 1.275 . S
Cd23 O22 2.300 . S
Cd23 O31 2.381 . S
Cd23 O32 2.378 . S
O24 Cd25 2.385 . S
O24 C29 1.255 . S
Cd25 O24 2.385 . S
Cd25 O26 2.317 . S
O26 Cd25 2.317 . S
O26 C27 1.232 . S
C27 O26 1.232 . S
C27 O28 1.218 . S
O28 C27 1.218 . S
C29 O22 1.275 . S
C29 O24 1.255 . S
C30 O31 1.258 . S
C30 O32 1.256 . S
O31 Cd23 2.381 . S
O31 C30 1.258 . S
O32 Cd23 2.378 . S
O32 C30 1.256 . S
O33 Cd34 2.300 . S
O33 C40 1.275 . S
Cd34 O33 2.300 . S
Cd34 O42 2.381 . S
Cd34 O43 2.378 . S
O35 Cd36 2.385 . S
O35 C40 1.255 . S
Cd36 O35 2.385 . S
Cd36 O37 2.317 . S
O37 Cd36 2.317 . S
O37 C38 1.232 . S
C38 O37 1.232 . S
C38 O39 1.218 . S
O39 C38 1.218 . S
C40 O33 1.275 . S
C40 O35 1.255 . S
C41 O42 1.258 . S
C41 O43 1.256 . S
O42 Cd34 2.381 . S
O42 C41 1.258 . S
O43 Cd34 2.378 . S
O43 C41 1.256 . S
O44 Cd45 2.300 . S
O44 C51 1.275 . S
Cd45 O44 2.300 . S
Cd45 O53 2.381 . S
Cd45 O54 2.378 . S
O46 Cd47 2.385 . S
O46 C51 1.255 . S
Cd47 O46 2.385 . S
Cd47 O48 2.317 . S
O48 Cd47 2.317 . S
O48 C49 1.232 . S
C49 O48 1.232 . S
C49 O50 1.218 . S
O50 C49 1.218 . S
C51 O44 1.275 . S
C51 O46 1.255 . S
C52 O53 1.258 . S
C52 O54 1.256 . S
O53 Cd45 2.381 . S
O53 C52 1.258 . S
O54 Cd45 2.378 . S
O54 C52 1.256 . S
O55 Cd56 2.300 . S
O55 C62 1.275 . S
Cd56 O55 2.300 . S
Cd56 O64 2.381 . S
Cd56 O65 2.378 . S
O57 Cd58 2.385 . S
O57 C62 1.255 . S
Cd58 O57 2.385 . S
Cd58 O59 2.317 . S
O59 Cd58 2.317 . S
O59 C60 1.232 . S
C60 O59 1.232 . S
C60 O61 1.218 . S
O61 C60 1.218 . S
C62 O55 1.275 . S
C62 O57 1.255 . S
C63 O64 1.258 . S
C63 O65 1.256 . S
O64 Cd56 2.381 . S
O64 C63 1.258 . S
O65 Cd56 2.378 . S
O65 C63 1.256 . S
O66 Cd67 2.300 . S
O66 C73 1.275 . S
Cd67 O66 2.300 . S
Cd67 O75 2.381 . S
Cd67 O76 2.378 . S
O68 Cd69 2.385 . S
O68 C73 1.255 . S
Cd69 O68 2.385 . S
Cd69 O70 2.317 . S
O70 Cd69 2.317 . S
O70 C71 1.232 . S
C71 O70 1.232 . S
C71 O72 1.218 . S
O72 C71 1.218 . S
C73 O66 1.275 . S
C73 O68 1.255 . S
C74 O75 1.258 . S
C74 O76 1.256 . S
O75 Cd67 2.381 . S
O75 C74 1.258 . S
O76 Cd67 2.378 . S
O76 C74 1.256 . S
O77 Cd78 2.300 . S
O77 C84 1.275 . S
Cd78 O77 2.300 . S
Cd78 O86 2.381 . S
Cd78 O87 2.378 . S
O79 Cd80 2.385 . S
O79 C84 1.255 . S
Cd80 O79 2.385 . S
Cd80 O81 2.317 . S
O81 Cd80 2.317 . S
O81 C82 1.232 . S
C82 O81 1.232 . S
C82 O83 1.218 . S
O83 C82 1.218 . S
C84 O77 1.275 . S
C84 O79 1.255 . S
C85 O86 1.258 . S
C85 O87 1.256 . S
O86 Cd78 2.381 . S
O86 C85 1.258 . S
O87 Cd78 2.378 . S
O87 C85 1.256 . S
O88 Cd89 2.300 . S
O88 C95 1.275 . S
Cd89 O88 2.300 . S
Cd89 O97 2.381 1_545 S
Cd89 O98 2.378 1_545 S
O90 Cd91 2.385 . S
O90 C95 1.255 . S
Cd91 O90 2.385 . S
Cd91 O92 2.317 . S
O92 Cd91 2.317 . S
O92 C93 1.232 . S
C93 O92 1.232 . S
C93 O94 1.218 . S
O94 C93 1.218 . S
C95 O88 1.275 . S
C95 O90 1.255 . S
C96 O97 1.258 . S
C96 O98 1.256 . S
O97 Cd89 2.381 1_565 S
O97 C96 1.258 . S
O98 Cd89 2.378 1_565 S
O98 C96 1.256 . S
O99 Cd100 2.300 . S
O99 C106 1.275 . S
Cd100 O99 2.300 . S
Cd100 O108 2.381 . S
Cd100 O109 2.378 1_545 S
O101 Cd102 2.385 . S
O101 C106 1.255 . S
Cd102 O101 2.385 . S
Cd102 O103 2.317 . S
O103 Cd102 2.317 . S
O103 C104 1.232 . S
C104 O103 1.232 . S
C104 O105 1.218 . S
O105 C104 1.218 . S
C106 O99 1.275 . S
C106 O101 1.255 . S
C107 O108 1.258 1_565 S
C107 O109 1.256 . S
O108 Cd100 2.381 . S
O108 C107 1.258 1_545 S
O109 Cd100 2.378 1_565 S
O109 C107 1.256 . S
O110 Cd111 2.300 . S
O110 C117 1.275 . S
Cd111 O110 2.300 . S
Cd111 O119 2.381 . S
Cd111 O120 2.378 . S
O112 Cd113 2.428 . S
O112 C117 1.255 . S
Cd113 O112 2.428 . S
Cd113 O114 2.286 1_565 S
O114 Cd113 2.286 1_545 S
O114 C115 1.232 . S
C115 O114 1.232 . S
C115 O116 1.218 . S
O116 C115 1.218 . S
C117 O110 1.275 . S
C117 O112 1.255 . S
C118 O119 1.258 . S
C118 O120 1.256 . S
O119 Cd111 2.381 . S
O119 C118 1.258 . S
O120 Cd111 2.378 . S
O120 C118 1.256 . S
O121 Cd122 2.300 1_565 S
O121 C128 1.275 . S
Cd122 O121 2.300 1_545 S
Cd122 O130 2.381 . S
Cd122 O131 2.378 . S
O123 Cd124 2.385 . S
O123 C128 1.255 . S
Cd124 O123 2.385 . S
Cd124 O125 2.317 . S
O125 Cd124 2.317 . S
O125 C126 1.232 . S
C126 O125 1.232 . S
C126 O127 1.218 . S
O127 C126 1.218 . S
C128 O121 1.275 . S
C128 O123 1.255 . S
C129 O130 1.258 . S
C129 O131 1.256 . S
O130 Cd122 2.381 . S
O130 C129 1.258 . S
O131 Cd122 2.378 . S
O131 C129 1.256 . S
O132 Cd133 2.300 . S
O132 C139 1.275 . S
Cd133 O132 2.300 . S
Cd133 O141 2.381 . S
Cd133 O142 2.378 . S
O134 Cd135 2.385 . S
O134 C139 1.255 . S
Cd135 O134 2.385 . S
Cd135 O136 2.317 . S
O136 Cd135 2.317 . S
O136 C137 1.232 . S
C137 O136 1.232 . S
C137 O138 1.218 . S
O138 C137 1.218 . S
C139 O132 1.275 . S
C139 O134 1.255 . S
C140 O141 1.258 . S
C140 O142 1.256 . S
O141 Cd133 2.381 . S
O141 C140 1.258 . S
O142 Cd133 2.378 . S
O142 C140 1.256 . S
O143 Cd144 2.300 . S
O143 C150 1.275 . S
Cd144 O143 2.300 . S
Cd144 O152 2.381 . S
Cd144 O153 2.378 . S
O145 Cd146 2.385 . S
O145 C150 1.255 . S
Cd146 O145 2.385 . S
Cd146 O147 2.317 . S
O147 Cd146 2.317 . S
O147 C148 1.232 . S
C148 O147 1.232 . S
C148 O149 1.218 . S
O149 C148 1.218 . S
C150 O143 1.275 . S
C150 O145 1.255 . S
C151 O152 1.258 . S
C151 O153 1.256 . S
O152 Cd144 2.381 . S
O152 C151 1.258 . S
O153 Cd144 2.378 . S
O153 C151 1.256 . S
O154 Cd155 2.300 . S
O154 C161 1.275 . S
Cd155 O154 2.300 . S
Cd155 O163 2.381 . S
Cd155 O164 2.378 . S
O156 Cd157 2.385 . S
O156 C161 1.255 . S
Cd157 O156 2.385 . S
Cd157 O158 2.317 . S
O158 Cd157 2.317 . S
O158 C159 1.232 . S
C159 O158 1.232 . S
C159 O160 1.218 . S
O160 C159 1.218 . S
C161 O154 1.275 . S
C161 O156 1.255 . S
C162 O163 1.258 . S
C162 O164 1.256 . S
O163 Cd155 2.381 . S
O163 C162 1.258 . S
O164 Cd155 2.378 . S
O164 C162 1.256 . S
O165 Cd166 2.300 1_655 S
O165 C172 1.275 . S
Cd166 O165 2.300 1_455 S
Cd166 O174 2.381 . S
Cd166 O175 2.378 . S
O167 Cd168 2.385 . S
O167 C172 1.255 . S
Cd168 O167 2.385 . S
Cd168 O169 2.317 . S
O169 Cd168 2.317 . S
O169 C170 1.232 . S
C170 O169 1.232 . S
C170 O171 1.218 . S
O171 C170 1.218 . S
C172 O165 1.275 . S
C172 O167 1.255 . S
C173 O174 1.258 . S
C173 O175 1.256 . S
O174 Cd166 2.381 . S
O174 C173 1.258 . S
O175 Cd166 2.378 . S
O175 C173 1.256 . S
O176 Cd177 2.300 . S
O176 C183 1.275 . S
Cd177 O176 2.300 . S
Cd177 O185 2.381 . S
Cd177 O186 2.378 . S
O178 Cd179 2.385 . S
O178 C183 1.255 . S
Cd179 O178 2.385 . S
Cd179 O180 2.317 . S
O180 Cd179 2.317 . S
O180 C181 1.232 . S
C181 O180 1.232 . S
C181 O182 1.218 . S
O182 C181 1.218 . S
C183 O176 1.275 . S
C183 O178 1.255 . S
C184 O185 1.258 . S
C184 O186 1.256 . S
O185 Cd177 2.381 . S
O185 C184 1.258 . S
O186 Cd177 2.378 . S
O186 C184 1.256 . S
O187 Cd188 2.300 . S
O187 C194 1.275 . S
Cd188 O187 2.300 . S
Cd188 O196 2.381 . S
Cd188 O197 2.378 . S
O189 Cd190 2.385 . S
O189 C194 1.255 . S
Cd190 O189 2.385 . S
Cd190 O191 2.317 . S
O191 Cd190 2.317 . S
O191 C192 1.232 . S
C192 O191 1.232 . S
C192 O193 1.218 . S
O193 C192 1.218 . S
C194 O187 1.275 . S
C194 O189 1.255 . S
C195 O196 1.258 . S
C195 O197 1.256 . S
O196 Cd188 2.381 . S
O196 C195 1.258 . S
O197 Cd188 2.378 . S
O197 C195 1.256 . S
O198 Cd199 2.300 . S
O198 C205 1.275 . S
Cd199 O198 2.300 . S
Cd199 O207 2.381 . S
Cd199 O208 2.378 . S
O200 Cd201 2.385 . S
O200 C205 1.255 . S
Cd201 O200 2.385 . S
Cd201 O202 2.317 . S
O202 Cd201 2.317 . S
O202 C203 1.232 . S
C203 O202 1.232 . S
C203 O204 1.218 . S
O204 C203 1.218 . S
C205 O198 1.275 . S
C205 O200 1.255 . S
C206 O207 1.258 . S
C206 O208 1.256 . S
O207 Cd199 2.381 . S
O207 C206 1.258 . S
O208 Cd199 2.378 . S
O208 C206 1.256 . S
O209 Cd210 2.300 . S
O209 C216 1.275 . S
Cd210 O209 2.300 . S
Cd210 O218 2.381 . S
Cd210 O219 2.378 . S
O211 Cd212 2.385 . S
O211 C216 1.255 . S
Cd212 O211 2.385 . S
Cd212 O213 2.317 . S
O213 Cd212 2.317 . S
O213 C214 1.232 . S
C214 O213 1.232 . S
C214 O215 1.218 . S
O215 C214 1.218 . S
C216 O209 1.275 . S
C216 O211 1.255 . S
C217 O218 1.258 . S
C217 O219 1.256 . S
O218 Cd210 2.381 . S
O218 C217 1.258 . S
O219 Cd210 2.378 . S
O219 C217 1.256 . S
O220 Cd221 2.300 . S
O220 C227 1.275 . S
Cd221 O220 2.300 . S
Cd221 O229 2.381 . S
Cd221 O230 2.378 . S
O222 Cd223 2.385 . S
O222 C227 1.255 . S
Cd223 O222 2.385 . S
Cd223 O224 2.317 . S
O224 Cd223 2.317 . S
O224 C225 1.232 . S
C225 O224 1.232 . S
C225 O226 1.218 . S
O226 C225 1.218 . S
C227 O220 1.275 . S
C227 O222 1.255 . S
C228 O229 1.258 . S
C228 O230 1.256 . S
O229 Cd221 2.381 . S
O229 C228 1.258 . S
O230 Cd221 2.378 . S
O230 C228 1.256 . S
O231 Cd232 2.300 . S
O231 C238 1.275 . S
Cd232 O231 2.300 . S
Cd232 O240 2.381 . S
Cd232 O241 2.378 . S
O233 Cd234 2.385 . S
O233 C238 1.255 . S
Cd234 O233 2.385 . S
Cd234 O235 2.317 . S
O235 Cd234 2.317 . S
O235 C236 1.232 . S
C236 O235 1.232 . S
C236 O237 1.218 . S
O237 C236 1.218 . S
C238 O231 1.275 . S
C238 O233 1.255 . S
C239 O240 1.258 . S
C239 O241 1.256 . S
O240 Cd232 2.381 . S
O240 C239 1.258 . S
O241 Cd232 2.378 . S
O241 C239 1.256 . S
O242 Cd243 2.300 . S
O242 C249 1.275 . S
Cd243 O242 2.300 . S
Cd243 O251 2.381 . S
Cd243 O252 2.378 . S
O244 Cd245 2.385 . S
O244 C249 1.255 . S
Cd245 O244 2.385 . S
Cd245 O246 2.317 . S
O246 Cd245 2.317 . S
O246 C247 1.232 . S
C247 O246 1.232 . S
C247 O248 1.218 . S
O248 C247 1.218 . S
C249 O242 1.275 . S
C249 O244 1.255 . S
C250 O251 1.258 . S
C250 O252 1.256 . S
O251 Cd243 2.381 . S
O251 C250 1.258 . S
O252 Cd243 2.378 . S
O252 C250 1.256 . S
O253 Cd254 2.300 1_565 S
O253 C260 1.275 . S
Cd254 O253 2.300 1_545 S
Cd254 O262 2.381 . S
Cd254 O263 2.378 . S
O255 Cd256 2.385 . S
O255 C260 1.255 . S
Cd256 O255 2.385 . S
Cd256 O257 2.317 . S
O257 Cd256 2.317 . S
O257 C258 1.232 . S
C258 O257 1.232 . S
C258 O259 1.218 . S
O259 C258 1.218 . S
C260 O253 1.275 . S
C260 O255 1.255 . S
C261 O262 1.258 . S
C261 O263 1.256 . S
O262 Cd254 2.381 . S
O262 C261 1.258 . S
O263 Cd254 2.378 . S
O263 C261 1.256 . S
O264 Cd265 2.300 . S
O264 C271 1.275 . S
Cd265 O264 2.300 . S
Cd265 O273 2.381 . S
Cd265 O274 2.378 . S
O266 Cd267 2.385 . S
O266 C271 1.255 . S
Cd267 O266 2.385 . S
Cd267 O268 2.317 . S
O268 Cd267 2.317 . S
O268 C269 1.232 . S
C269 O268 1.232 . S
C269 O270 1.218 . S
O270 C269 1.218 . S
C271 O264 1.275 . S
C271 O266 1.255 . S
C272 O273 1.258 . S
C272 O274 1.256 . S
O273 Cd265 2.381 . S
O273 C272 1.258 . S
O274 Cd265 2.378 . S
O274 C272 1.256 . S
O275 Cd276 2.300 1_545 S
O275 C282 1.275 . S
Cd276 O275 2.300 1_565 S
Cd276 O284 2.381 . S
Cd276 O285 2.378 . S
O277 Cd278 2.385 . S
O277 C282 1.255 . S
Cd278 O277 2.385 . S
Cd278 O279 2.317 . S
O279 Cd278 2.317 . S
O279 C280 1.232 . S
C280 O279 1.232 . S
C280 O281 1.218 . S
O281 C280 1.218 . S
C282 O275 1.275 . S
C282 O277 1.255 . S
C283 O284 1.258 . S
C283 O285 1.256 . S
O284 Cd276 2.381 . S
O284 C283 1.258 . S
O285 Cd276 2.378 . S
O285 C283 1.256 . S
O286 Cd287 2.300 . S
O286 C293 1.275 . S
Cd287 O286 2.300 . S
Cd287 O295 2.381 1_545 S
Cd287 O296 2.378 1_545 S
O288 Cd289 2.385 . S
O288 C293 1.255 . S
Cd289 O288 2.385 . S
Cd289 O290 2.317 . S
O290 Cd289 2.317 . S
O290 C291 1.232 . S
C291 O290 1.232 . S
C291 O292 1.218 . S
O292 C291 1.218 . S
C293 O286 1.275 . S
C293 O288 1.255 . S
C294 O295 1.258 . S
C294 O296 1.256 . S
O295 Cd287 2.381 1_565 S
O295 C294 1.258 . S
O296 Cd287 2.378 1_565 S
O296 C294 1.256 . S
O297 Cd298 2.300 . S
O297 C304 1.275 . S
Cd298 O297 2.300 . S
Cd298 O306 2.381 . S
Cd298 O307 2.378 . S
O299 Cd300 2.385 . S
O299 C304 1.255 . S
Cd300 O299 2.385 . S
Cd300 O301 2.317 . S
O301 Cd300 2.317 . S
O301 C302 1.232 . S
C302 O301 1.232 . S
C302 O303 1.218 . S
O303 C302 1.218 . S
C304 O297 1.275 . S
C304 O299 1.255 . S
C305 O306 1.258 . S
C305 O307 1.256 . S
O306 Cd298 2.381 . S
O306 C305 1.258 . S
O307 Cd298 2.378 . S
O307 C305 1.256 . S
O308 Cd309 2.300 . S
O308 C315 1.275 . S
Cd309 O308 2.300 . S
Cd309 O317 2.381 . S
Cd309 O318 2.378 . S
O310 Cd311 2.385 . S
O310 C315 1.255 . S
Cd311 O310 2.385 . S
Cd311 O312 2.317 . S
O312 Cd311 2.317 . S
O312 C313 1.232 . S
C313 O312 1.232 . S
C313 O314 1.218 . S
O314 C313 1.218 . S
C315 O308 1.275 . S
C315 O310 1.255 . S
C316 O317 1.258 . S
C316 O318 1.256 . S
O317 Cd309 2.381 . S
O317 C316 1.258 . S
O318 Cd309 2.378 . S
O318 C316 1.256 . S
O319 Cd320 2.300 . S
O319 C326 1.275 . S
Cd320 O319 2.300 . S
Cd320 O328 2.381 . S
Cd320 O329 2.378 . S
O321 Cd322 2.385 . S
O321 C326 1.255 . S
Cd322 O321 2.385 . S
Cd322 O323 2.317 . S
O323 Cd322 2.317 . S
O323 C324 1.232 . S
C324 O323 1.232 . S
C324 O325 1.218 . S
O325 C324 1.218 . S
C326 O319 1.275 . S
C326 O321 1.255 . S
C327 O328 1.258 . S
C327 O329 1.256 . S
O328 Cd320 2.381 . S
O328 C327 1.258 . S
O329 Cd320 2.378 . S
O329 C327 1.256 . S
O330 Cd331 2.300 . S
O330 C337 1.275 . S
Cd331 O330 2.300 . S
Cd331 O339 2.381 . S
Cd331 O340 2.378 . S
O332 Cd333 2.385 . S
O332 C337 1.255 . S
Cd333 O332 2.385 . S
Cd333 O334 2.317 . S
O334 Cd333 2.317 . S
O334 C335 1.232 . S
C335 O334 1.232 . S
C335 O336 1.218 . S
O336 C335 1.218 . S
C337 O330 1.275 . S
C337 O332 1.255 . S
C338 O339 1.258 . S
C338 O340 1.256 . S
O339 Cd331 2.381 . S
O339 C338 1.258 . S
O340 Cd331 2.378 . S
O340 C338 1.256 . S
O341 Cd342 2.300 . S
O341 C348 1.275 . S
Cd342 O341 2.300 . S
Cd342 O350 2.381 . S
Cd342 O351 2.378 1_655 S
O343 Cd344 2.385 . S
O343 C348 1.255 . S
Cd344 O343 2.385 . S
Cd344 O345 2.317 . S
O345 Cd344 2.317 . S
O345 C346 1.232 . S
C346 O345 1.232 . S
C346 O347 1.218 . S
O347 C346 1.218 . S
C348 O341 1.275 . S
C348 O343 1.255 . S
C349 O350 1.258 1_455 S
C349 O351 1.256 . S
O350 Cd342 2.381 . S
O350 C349 1.258 1_655 S
O351 Cd342 2.378 1_455 S
O351 C349 1.256 . S
O352 Cd353 2.300 . S
O352 C359 1.275 . S
Cd353 O352 2.300 . S
Cd353 O361 2.381 . S
Cd353 O362 2.378 . S
O354 Cd355 2.385 . S
O354 C359 1.255 . S
Cd355 O354 2.385 . S
Cd355 O356 2.317 . S
O356 Cd355 2.317 . S
O356 C357 1.232 . S
C357 O356 1.232 . S
C357 O358 1.218 . S
O358 C357 1.218 . S
C359 O352 1.275 . S
C359 O354 1.255 . S
C360 O361 1.258 . S
C360 O362 1.256 . S
O361 Cd353 2.381 . S
O361 C360 1.258 . S
O362 Cd353 2.378 . S
O362 C360 1.256 . S
O363 Cd364 2.300 . S
O363 C370 1.275 . S
Cd364 O363 2.300 . S
Cd364 O372 2.381 . S
Cd364 O373 2.378 . S
O365 Cd366 2.385 . S
O365 C370 1.255 . S
Cd366 O365 2.385 . S
Cd366 O367 2.317 . S
O367 Cd366 2.317 . S
O367 C368 1.232 . S
C368 O367 1.232 . S
C368 O369 1.218 . S
O369 C368 1.218 . S
C370 O363 1.275 . S
C370 O365 1.255 . S
C371 O372 1.258 . S
C371 O373 1.256 . S
O372 Cd364 2.381 . S
O372 C371 1.258 . S
O373 Cd364 2.378 . S
O373 C371 1.256 . S
O374 Cd375 2.300 . S
O374 C381 1.275 . S
Cd375 O374 2.300 . S
Cd375 O383 2.381 . S
Cd375 O384 2.378 . S
O376 Cd377 2.385 . S
O376 C381 1.255 . S
Cd377 O376 2.385 . S
Cd377 O378 2.317 . S
O378 Cd377 2.317 . S
O378 C379 1.232 . S
C379 O378 1.232 . S
C379 O380 1.218 . S
O380 C379 1.218 . S
C381 O374 1.275 . S
C381 O376 1.255 . S
C382 O383 1.258 . S
C382 O384 1.256 . S
O383 Cd375 2.381 . S
O383 C382 1.258 . S
O384 Cd375 2.378 . S
O384 C382 1.256 . S
O385 Cd386 2.300 . S
O385 C392 1.275 . S
Cd386 O385 2.300 . S
Cd386 O394 2.381 . S
Cd386 O395 2.378 . S
O387 Cd388 2.385 . S
O387 C392 1.255 . S
Cd388 O387 2.385 . S
Cd388 O389 2.317 . S
O389 Cd388 2.317 . S
O389 C390 1.232 . S
C390 O389 1.232 . S
C390 O391 1.218 . S
O391 C390 1.218 . S
C392 O385 1.275 . S
C392 O387 1.255 . S
C393 O394 1.258 . S
C393 O395 1.256 . S
O394 Cd386 2.381 . S
O394 C393 1.258 . S
O395 Cd386 2.378 . S
O395 C393 1.256 . S
O396 Cd397 2.300 . S
O396 C403 1.275 . S
Cd397 O396 2.300 . S
Cd397 O405 2.381 . S
Cd397 O406 2.378 . S
O398 Cd399 2.385 . S
O398 C403 1.255 . S
Cd399 O398 2.385 . S
Cd399 O400 2.317 . S
O400 Cd399 2.317 . S
O400 C401 1.232 . S
C401 O400 1.232 . S
C401 O402 1.218 . S
O402 C401 1.218 . S
C403 O396 1.275 . S
C403 O398 1.255 . S
C404 O405 1.258 . S
C404 O406 1.256 . S
O405 Cd397 2.381 . S
O405 C404 1.258 . S
O406 Cd397 2.378 . S
O406 C404 1.256 . S
O407 Cd408 2.300 . S
O407 C414 1.275 . S
Cd408 O407 2.300 . S
Cd408 O416 2.381 . S
Cd408 O417 2.378 . S
O409 Cd410 2.385 . S
O409 C414 1.255 . S
Cd410 O409 2.385 . S
Cd410 O411 2.317 . S
O411 Cd410 2.317 . S
O411 C412 1.232 . S
C412 O411 1.232 . S
C412 O413 1.218 . S
O413 C412 1.218 . S
C414 O407 1.275 . S
C414 O409 1.255 . S
C415 O416 1.258 . S
C415 O417 1.256 . S
O416 Cd408 2.381 . S
O416 C415 1.258 . S
O417 Cd408 2.378 . S
O417 C415 1.256 . S
O418 Cd419 2.300 . S
O418 C425 1.275 . S
Cd419 O418 2.300 . S
Cd419 O427 2.381 . S
Cd419 O428 2.378 . S
O420 Cd421 2.385 . S
O420 C425 1.255 . S
Cd421 O420 2.385 . S
Cd421 O422 2.317 . S
O422 Cd421 2.317 . S
O422 C423 1.232 . S
C423 O422 1.232 . S
C423 O424 1.218 . S
O424 C423 1.218 . S
C425 O418 1.275 . S
C425 O420 1.255 . S
C426 O427 1.258 . S
C426 O428 1.256 . S
O427 Cd419 2.381 . S
O427 C426 1.258 . S
O428 Cd419 2.378 . S
O428 C426 1.256 . S
O429 Cd430 2.300 . S
O429 C436 1.275 . S
Cd430 O429 2.300 . S
Cd430 O438 2.381 . S
Cd430 O439 2.378 . S
O431 Cd432 2.385 . S
O431 C436 1.255 . S
Cd432 O431 2.385 . S
Cd432 O433 2.317 . S
O433 Cd432 2.317 . S
O433 C434 1.232 . S
C434 O433 1.232 . S
C434 O435 1.218 . S
O435 C434 1.218 . S
C436 O429 1.275 . S
C436 O431 1.255 . S
C437 O438 1.258 . S
C437 O439 1.256 . S
O438 Cd430 2.381 . S
O438 C437 1.258 . S
O439 Cd430 2.378 . S
O439 C437 1.256 . S
O440 Cd441 2.300 . S
O440 C447 1.275 . S
Cd441 O440 2.300 . S
Cd441 O449 2.381 . S
Cd441 O450 2.378 . S
O442 Cd443 2.385 . S
O442 C447 1.255 . S
Cd443 O442 2.385 . S
Cd443 O444 2.317 . S
O444 Cd443 2.317 . S
O444 C445 1.232 . S
C445 O444 1.232 . S
C445 O446 1.218 . S
O446 C445 1.218 . S
C447 O440 1.275 . S
C447 O442 1.255 . S
C448 O449 1.258 . S
C448 O450 1.256 . S
O449 Cd441 2.381 . S
O449 C448 1.258 . S
O450 Cd441 2.378 . S
O450 C448 1.256 . S
O451 Cd452 2.300 . S
O451 C458 1.275 . S
Cd452 O451 2.300 . S
Cd452 O460 2.381 . S
Cd452 O461 2.378 . S
O453 Cd454 2.385 . S
O453 C458 1.255 . S
Cd454 O453 2.385 . S
Cd454 O455 2.317 . S
O455 Cd454 2.317 . S
O455 C456 1.232 . S
C456 O455 1.232 . S
C456 O457 1.218 . S
O457 C456 1.218 . S
C458 O451 1.275 . S
C458 O453 1.255 . S
C459 O460 1.258 . S
C459 O461 1.256 . S
O460 Cd452 2.381 . S
O460 C459 1.258 . S
O461 Cd452 2.378 . S
O461 C459 1.256 . S
O462 Cd463 2.300 . S
O462 C469 1.275 . S
Cd463 O462 2.300 . S
Cd463 O471 2.381 . S
Cd463 O472 2.378 . S
O464 Cd465 2.385 . S
O464 C469 1.255 . S
Cd465 O464 2.385 . S
Cd465 O466 2.317 1_554 S
O466 Cd465 2.317 1_556 S
O466 C467 1.232 . S
C467 O466 1.232 . S
C467 O468 1.218 . S
O468 C467 1.218 . S
C469 O462 1.275 . S
C469 O464 1.255 . S
C470 O471 1.258 . S
C470 O472 1.256 . S
O471 Cd463 2.381 . S
O471 C470 1.258 . S
O472 Cd463 2.378 . S
O472 C470 1.256 . S
O473 Cd474 2.300 . S
O473 C480 1.275 . S
Cd474 O473 2.300 . S
Cd474 O482 2.381 . S
Cd474 O483 2.378 . S
O475 Cd476 2.385 . S
O475 C480 1.255 . S
Cd476 O475 2.385 . S
Cd476 O477 2.317 . S
O477 Cd476 2.317 . S
O477 C478 1.232 . S
C478 O477 1.232 . S
C478 O479 1.218 . S
O479 C478 1.218 . S
C480 O473 1.275 . S
C480 O475 1.255 . S
C481 O482 1.258 . S
C481 O483 1.256 . S
O482 Cd474 2.381 . S
O482 C481 1.258 . S
O483 Cd474 2.378 . S
O483 C481 1.256 . S
O484 Cd485 2.300 . S
O484 C491 1.275 . S
Cd485 O484 2.300 . S
Cd485 O493 2.381 . S
Cd485 O494 2.378 . S
O486 Cd487 2.385 . S
O486 C491 1.255 . S
Cd487 O486 2.385 . S
Cd487 O488 2.317 . S
O488 Cd487 2.317 . S
O488 C489 1.232 . S
C489 O488 1.232 . S
C489 O490 1.218 . S
O490 C489 1.218 . S
C491 O484 1.275 . S
C491 O486 1.255 . S
C492 O493 1.258 . S
C492 O494 1.256 . S
O493 Cd485 2.381 . S
O493 C492 1.258 . S
O494 Cd485 2.378 . S
O494 C492 1.256 . S
O495 Cd496 2.300 . S
O495 C502 1.275 . S
Cd496 O495 2.300 . S
Cd496 O504 2.381 . S
Cd496 O505 2.378 . S
O497 Cd498 2.385 . S
O497 C502 1.255 . S
Cd498 O497 2.385 . S
Cd498 O499 2.317 . S
O499 Cd498 2.317 . S
O499 C500 1.232 . S
C500 O499 1.232 . S
C500 O501 1.218 . S
O501 C500 1.218 . S
C502 O495 1.275 . S
C502 O497 1.255 . S
C503 O504 1.258 . S
C503 O505 1.256 . S
O504 Cd496 2.381 . S
O504 C503 1.258 . S
O505 Cd496 2.378 . S
O505 C503 1.256 . S
O506 Cd507 2.300 . S
O506 C513 1.275 . S
Cd507 O506 2.300 . S
Cd507 O515 2.381 . S
Cd507 O516 2.378 . S
O508 Cd509 2.385 . S
O508 C513 1.255 . S
Cd509 O508 2.385 . S
Cd509 O510 2.317 . S
O510 Cd509 2.317 . S
O510 C511 1.232 . S
C511 O510 1.232 . S
C511 O512 1.218 . S
O512 C511 1.218 . S
C513 O506 1.275 . S
C513 O508 1.255 . S
C514 O515 1.258 . S
C514 O516 1.256 . S
O515 Cd507 2.381 . S
O515 C514 1.258 . S
O516 Cd507 2.378 . S
O516 C514 1.256 . S
O517 Cd518 2.300 . S
O517 C524 1.275 . S
Cd518 O517 2.300 . S
Cd518 O526 2.381 . S
Cd518 O527 2.378 . S
O519 Cd520 2.385 . S
O519 C524 1.255 . S
Cd520 O519 2.385 . S
Cd520 O521 2.317 . S
O521 Cd520 2.317 . S
O521 C522 1.232 . S
C522 O521 1.232 . S
C522 O523 1.218 . S
O523 C522 1.218 . S
C524 O517 1.275 . S
C524 O519 1.255 . S
C525 O526 1.258 . S
C525 O527 1.256 . S
O526 Cd518 2.381 . S
O526 C525 1.258 . S
O527 Cd518 2.378 . S
O527 C525 1.256 . S
H528 C535 0.929 . S
H529 C538 0.930 . S
H530 C540 0.929 . S
H531 C532 0.969 . S
C532 H531 0.969 . S
C532 O533 1.550 . S
C532 H534 0.973 . S
O533 C532 1.550 . S
O533 C539 1.412 . S
H534 C532 0.973 . S
C535 H528 0.929 . S
C535 C536 1.400 . S
C535 C537 1.364 . S
C536 C535 1.400 . S
C536 C540 1.377 . S
C537 C535 1.364 . S
C537 C538 1.374 . S
C538 H529 0.930 . S
C538 C537 1.374 . S
C538 C539 1.383 . S
C539 O533 1.412 . S
C539 C538 1.383 . S
C539 C540 1.394 . S
C540 H530 0.929 . S
C540 C536 1.377 . S
C540 C539 1.394 . S
H541 C548 0.929 . S
H542 C551 0.930 . S
H543 C553 0.929 . S
H544 C545 0.969 . S
C545 H544 0.969 . S
C545 O546 1.550 . S
C545 H547 0.973 . S
O546 C545 1.550 . S
O546 C552 1.412 . S
H547 C545 0.973 . S
C548 H541 0.929 . S
C548 C549 1.400 . S
C548 C550 1.364 . S
C549 C548 1.400 . S
C549 C553 1.377 . S
C550 C548 1.364 . S
C550 C551 1.374 . S
C551 H542 0.930 . S
C551 C550 1.374 . S
C551 C552 1.383 . S
C552 O546 1.412 . S
C552 C551 1.383 . S
C552 C553 1.394 . S
C553 H543 0.929 . S
C553 C549 1.377 . S
C553 C552 1.394 . S
H554 C561 0.929 . S
H555 C564 0.930 . S
H556 C566 0.929 . S
H557 C558 0.969 . S
C558 H557 0.969 . S
C558 O559 1.550 . S
C558 H560 0.973 . S
O559 C558 1.550 . S
O559 C565 1.412 . S
H560 C558 0.973 . S
C561 H554 0.929 . S
C561 C562 1.400 . S
C561 C563 1.364 . S
C562 C561 1.400 . S
C562 C566 1.377 . S
C563 C561 1.364 . S
C563 C564 1.374 . S
C564 H555 0.930 . S
C564 C563 1.374 . S
C564 C565 1.383 . S
C565 O559 1.412 . S
C565 C564 1.383 . S
C565 C566 1.394 . S
C566 H556 0.929 . S
C566 C562 1.377 . S
C566 C565 1.394 . S
H567 C574 0.929 . S
H568 C577 0.930 . S
H569 C579 0.929 . S
H570 C571 0.969 . S
C571 H570 0.969 . S
C571 O572 1.550 . S
C571 H573 0.973 . S
O572 C571 1.550 . S
O572 C578 1.412 . S
H573 C571 0.973 . S
C574 H567 0.929 . S
C574 C575 1.400 . S
C574 C576 1.364 . S
C575 C574 1.400 . S
C575 C579 1.377 . S
C576 C574 1.364 . S
C576 C577 1.374 . S
C577 H568 0.930 . S
C577 C576 1.374 . S
C577 C578 1.383 . S
C578 O572 1.412 . S
C578 C577 1.383 . S
C578 C579 1.394 . S
C579 H569 0.929 . S
C579 C575 1.377 . S
C579 C578 1.394 . S
H580 C587 0.929 . S
H581 C590 0.930 . S
H582 C592 0.929 . S
H583 C584 0.969 . S
C584 H583 0.969 . S
C584 O585 1.550 . S
C584 H586 0.973 . S
O585 C584 1.550 . S
O585 C591 1.412 . S
H586 C584 0.973 . S
C587 H580 0.929 . S
C587 C588 1.400 . S
C587 C589 1.364 . S
C588 C587 1.400 . S
C588 C592 1.377 . S
C589 C587 1.364 . S
C589 C590 1.374 . S
C590 H581 0.930 . S
C590 C589 1.374 . S
C590 C591 1.383 . S
C591 O585 1.412 . S
C591 C590 1.383 . S
C591 C592 1.394 . S
C592 H582 0.929 . S
C592 C588 1.377 . S
C592 C591 1.394 . S
H593 C600 0.929 . S
H594 C603 0.930 . S
H595 C605 0.929 . S
H596 C597 0.969 . S
C597 H596 0.969 . S
C597 O598 1.550 . S
C597 H599 0.973 . S
O598 C597 1.550 . S
O598 C604 1.412 . S
H599 C597 0.973 . S
C600 H593 0.929 . S
C600 C601 1.400 . S
C600 C602 1.364 . S
C601 C600 1.400 . S
C601 C605 1.377 . S
C602 C600 1.364 . S
C602 C603 1.374 . S
C603 H594 0.930 . S
C603 C602 1.374 . S
C603 C604 1.383 . S
C604 O598 1.412 . S
C604 C603 1.383 . S
C604 C605 1.394 . S
C605 H595 0.929 . S
C605 C601 1.377 . S
C605 C604 1.394 . S
H606 C613 0.929 . S
H607 C616 0.930 . S
H608 C618 0.929 . S
H609 C610 0.969 . S
C610 H609 0.969 . S
C610 O611 1.550 . S
C610 H612 0.973 . S
O611 C610 1.550 . S
O611 C617 1.412 . S
H612 C610 0.973 . S
C613 H606 0.929 . S
C613 C614 1.400 . S
C613 C615 1.364 . S
C614 C613 1.400 . S
C614 C618 1.377 . S
C615 C613 1.364 . S
C615 C616 1.374 . S
C616 H607 0.930 . S
C616 C615 1.374 . S
C616 C617 1.383 . S
C617 O611 1.412 . S
C617 C616 1.383 . S
C617 C618 1.394 . S
C618 H608 0.929 . S
C618 C614 1.377 . S
C618 C617 1.394 . S
H619 C626 0.929 . S
H620 C629 0.930 . S
H621 C631 0.929 . S
H622 C623 0.969 . S
C623 H622 0.969 . S
C623 O624 1.550 . S
C623 H625 0.973 . S
O624 C623 1.550 . S
O624 C630 1.412 . S
H625 C623 0.973 . S
C626 H619 0.929 . S
C626 C627 1.400 . S
C626 C628 1.364 . S
C627 C626 1.400 . S
C627 C631 1.377 . S
C628 C626 1.364 . S
C628 C629 1.374 . S
C629 H620 0.930 . S
C629 C628 1.374 . S
C629 C630 1.383 . S
C630 O624 1.412 . S
C630 C629 1.383 . S
C630 C631 1.394 . S
C631 H621 0.929 . S
C631 C627 1.377 . S
C631 C630 1.394 . S
H632 C639 0.929 . S
H633 C642 0.930 . S
H634 C644 0.929 . S
H635 C636 0.969 . S
C636 H635 0.969 . S
C636 O637 1.550 . S
C636 H638 0.973 . S
O637 C636 1.550 . S
O637 C643 1.412 . S
H638 C636 0.973 . S
C639 H632 0.929 . S
C639 C640 1.400 . S
C639 C641 1.364 . S
C640 C639 1.400 . S
C640 C644 1.377 . S
C641 C639 1.364 . S
C641 C642 1.374 . S
C642 H633 0.930 . S
C642 C641 1.374 . S
C642 C643 1.383 . S
C643 O637 1.412 . S
C643 C642 1.383 . S
C643 C644 1.394 . S
C644 H634 0.929 . S
C644 C640 1.377 . S
C644 C643 1.394 . S
H645 C652 0.929 . S
H646 C655 0.930 . S
H647 C657 0.929 . S
H648 C649 0.969 . S
C649 H648 0.969 . S
C649 O650 1.550 . S
C649 H651 0.973 . S
O650 C649 1.550 . S
O650 C656 1.412 . S
H651 C649 0.973 . S
C652 H645 0.929 . S
C652 C653 1.400 . S
C652 C654 1.364 . S
C653 C652 1.400 . S
C653 C657 1.377 . S
C654 C652 1.364 . S
C654 C655 1.374 . S
C655 H646 0.930 . S
C655 C654 1.374 . S
C655 C656 1.383 . S
C656 O650 1.412 . S
C656 C655 1.383 . S
C656 C657 1.394 . S
C657 H647 0.929 . S
C657 C653 1.377 . S
C657 C656 1.394 . S
H658 C665 0.929 . S
H659 C668 0.930 . S
H660 C670 0.929 . S
H661 C662 0.969 . S
C662 H661 0.969 . S
C662 O663 1.550 . S
C662 H664 0.973 . S
O663 C662 1.550 . S
O663 C669 1.412 . S
H664 C662 0.973 . S
C665 H658 0.929 . S
C665 C666 1.400 . S
C665 C667 1.364 . S
C666 C665 1.400 . S
C666 C670 1.377 . S
C667 C665 1.364 . S
C667 C668 1.374 . S
C668 H659 0.930 . S
C668 C667 1.374 . S
C668 C669 1.383 . S
C669 O663 1.412 . S
C669 C668 1.383 . S
C669 C670 1.394 . S
C670 H660 0.929 . S
C670 C666 1.377 . S
C670 C669 1.394 . S
H671 C678 0.929 . S
H672 C681 0.930 . S
H673 C683 0.929 . S
H674 C675 0.969 . S
C675 H674 0.969 . S
C675 O676 1.550 . S
C675 H677 0.973 . S
O676 C675 1.550 . S
O676 C682 1.412 . S
H677 C675 0.973 . S
C678 H671 0.929 . S
C678 C679 1.400 . S
C678 C680 1.364 . S
C679 C678 1.400 . S
C679 C683 1.377 . S
C680 C678 1.364 . S
C680 C681 1.374 . S
C681 H672 0.930 . S
C681 C680 1.374 . S
C681 C682 1.383 . S
C682 O676 1.412 . S
C682 C681 1.383 . S
C682 C683 1.394 . S
C683 H673 0.929 . S
C683 C679 1.377 . S
C683 C682 1.394 . S
H684 C691 0.929 . S
H685 C694 0.930 . S
H686 C696 0.929 . S
H687 C688 0.969 . S
C688 H687 0.969 . S
C688 O689 1.550 . S
C688 H690 0.973 . S
O689 C688 1.550 . S
O689 C695 1.412 . S
H690 C688 0.973 . S
C691 H684 0.929 . S
C691 C692 1.400 . S
C691 C693 1.364 . S
C692 C691 1.400 . S
C692 C696 1.377 . S
C693 C691 1.364 . S
C693 C694 1.374 . S
C694 H685 0.930 . S
C694 C693 1.374 . S
C694 C695 1.383 . S
C695 O689 1.412 . S
C695 C694 1.383 . S
C695 C696 1.394 . S
C696 H686 0.929 . S
C696 C692 1.377 . S
C696 C695 1.394 . S
H697 C704 0.929 . S
H698 C707 0.930 . S
H699 C709 0.929 . S
H700 C701 0.969 . S
C701 H700 0.969 . S
C701 O702 1.550 . S
C701 H703 0.973 . S
O702 C701 1.550 . S
O702 C708 1.412 . S
H703 C701 0.973 . S
C704 H697 0.929 . S
C704 C705 1.400 . S
C704 C706 1.364 . S
C705 C704 1.400 . S
C705 C709 1.377 . S
C706 C704 1.364 . S
C706 C707 1.374 . S
C707 H698 0.930 . S
C707 C706 1.374 . S
C707 C708 1.383 . S
C708 O702 1.412 . S
C708 C707 1.383 . S
C708 C709 1.394 . S
C709 H699 0.929 . S
C709 C705 1.377 . S
C709 C708 1.394 . S
H710 C717 0.929 . S
H711 C720 0.930 . S
H712 C722 0.929 . S
H713 C714 0.969 . S
C714 H713 0.969 . S
C714 O715 1.550 . S
C714 H716 0.973 . S
O715 C714 1.550 . S
O715 C721 1.412 . S
H716 C714 0.973 . S
C717 H710 0.929 . S
C717 C718 1.400 . S
C717 C719 1.364 . S
C718 C717 1.400 . S
C718 C722 1.377 . S
C719 C717 1.364 . S
C719 C720 1.374 . S
C720 H711 0.930 . S
C720 C719 1.374 . S
C720 C721 1.383 . S
C721 O715 1.412 . S
C721 C720 1.383 . S
C721 C722 1.394 . S
C722 H712 0.929 . S
C722 C718 1.377 . S
C722 C721 1.394 . S
H723 C730 0.929 . S
H724 C733 0.930 . S
H725 C735 0.929 . S
H726 C727 0.969 . S
C727 H726 0.969 . S
C727 O728 1.550 . S
C727 H729 0.973 . S
O728 C727 1.550 . S
O728 C734 1.412 . S
H729 C727 0.973 . S
C730 H723 0.929 . S
C730 C731 1.400 . S
C730 C732 1.364 . S
C731 C730 1.400 . S
C731 C735 1.377 . S
C732 C730 1.364 . S
C732 C733 1.374 . S
C733 H724 0.930 . S
C733 C732 1.374 . S
C733 C734 1.383 . S
C734 O728 1.412 . S
C734 C733 1.383 . S
C734 C735 1.394 . S
C735 H725 0.929 . S
C735 C731 1.377 . S
C735 C734 1.394 . S
H736 C743 0.929 . S
H737 C746 0.930 . S
H738 C748 0.929 . S
H739 C740 0.969 . S
C740 H739 0.969 . S
C740 O741 1.550 . S
C740 H742 0.973 . S
O741 C740 1.550 . S
O741 C747 1.412 . S
H742 C740 0.973 . S
C743 H736 0.929 . S
C743 C744 1.400 . S
C743 C745 1.364 . S
C744 C743 1.400 . S
C744 C748 1.377 . S
C745 C743 1.364 . S
C745 C746 1.374 . S
C746 H737 0.930 . S
C746 C745 1.374 . S
C746 C747 1.383 . S
C747 O741 1.412 . S
C747 C746 1.383 . S
C747 C748 1.394 . S
C748 H738 0.929 . S
C748 C744 1.377 . S
C748 C747 1.394 . S
H749 C756 0.929 . S
H750 C759 0.930 . S
H751 C761 0.929 . S
H752 C753 0.969 . S
C753 H752 0.969 . S
C753 O754 1.550 . S
C753 H755 0.973 . S
O754 C753 1.550 . S
O754 C760 1.412 . S
H755 C753 0.973 . S
C756 H749 0.929 . S
C756 C757 1.400 . S
C756 C758 1.364 . S
C757 C756 1.400 . S
C757 C761 1.377 . S
C758 C756 1.364 . S
C758 C759 1.374 . S
C759 H750 0.930 . S
C759 C758 1.374 . S
C759 C760 1.383 . S
C760 O754 1.412 . S
C760 C759 1.383 . S
C760 C761 1.394 . S
C761 H751 0.929 . S
C761 C757 1.377 . S
C761 C760 1.394 . S
H762 C769 0.929 . S
H763 C772 0.930 . S
H764 C774 0.929 . S
H765 C766 0.969 . S
C766 H765 0.969 . S
C766 O767 1.550 . S
C766 H768 0.973 . S
O767 C766 1.550 . S
O767 C773 1.412 . S
H768 C766 0.973 . S
C769 H762 0.929 . S
C769 C770 1.400 . S
C769 C771 1.364 . S
C770 C769 1.400 . S
C770 C774 1.377 . S
C771 C769 1.364 . S
C771 C772 1.374 . S
C772 H763 0.930 . S
C772 C771 1.374 . S
C772 C773 1.383 . S
C773 O767 1.412 . S
C773 C772 1.383 . S
C773 C774 1.394 . S
C774 H764 0.929 . S
C774 C770 1.377 . S
C774 C773 1.394 . S
H775 C782 0.929 . S
H776 C785 0.930 . S
H777 C787 0.929 . S
H778 C779 0.969 . S
C779 H778 0.969 . S
C779 O780 1.550 . S
C779 H781 0.973 . S
O780 C779 1.550 . S
O780 C786 1.412 . S
H781 C779 0.973 . S
C782 H775 0.929 . S
C782 C783 1.400 . S
C782 C784 1.364 . S
C783 C782 1.400 . S
C783 C787 1.377 . S
C784 C782 1.364 . S
C784 C785 1.374 . S
C785 H776 0.930 . S
C785 C784 1.374 . S
C785 C786 1.383 . S
C786 O780 1.412 . S
C786 C785 1.383 . S
C786 C787 1.394 . S
C787 H777 0.929 . S
C787 C783 1.377 . S
C787 C786 1.394 . S
H788 C795 0.929 . S
H789 C798 0.930 . S
H790 C800 0.929 . S
H791 C792 0.969 . S
C792 H791 0.969 . S
C792 O793 1.550 . S
C792 H794 0.973 . S
O793 C792 1.550 . S
O793 C799 1.412 . S
H794 C792 0.973 . S
C795 H788 0.929 . S
C795 C796 1.400 . S
C795 C797 1.364 . S
C796 C795 1.400 . S
C796 C800 1.377 . S
C797 C795 1.364 . S
C797 C798 1.374 . S
C798 H789 0.930 . S
C798 C797 1.374 . S
C798 C799 1.383 . S
C799 O793 1.412 . S
C799 C798 1.383 . S
C799 C800 1.394 . S
C800 H790 0.929 . S
C800 C796 1.377 . S
C800 C799 1.394 . S
H801 C808 0.929 . S
H802 C811 0.930 . S
H803 C813 0.929 . S
H804 C805 0.969 . S
C805 H804 0.969 . S
C805 O806 1.550 . S
C805 H807 0.973 . S
O806 C805 1.550 . S
O806 C812 1.412 . S
H807 C805 0.973 . S
C808 H801 0.929 . S
C808 C809 1.400 . S
C808 C810 1.364 . S
C809 C808 1.400 . S
C809 C813 1.377 . S
C810 C808 1.364 . S
C810 C811 1.374 . S
C811 H802 0.930 . S
C811 C810 1.374 . S
C811 C812 1.383 . S
C812 O806 1.412 . S
C812 C811 1.383 . S
C812 C813 1.394 . S
C813 H803 0.929 . S
C813 C809 1.377 . S
C813 C812 1.394 . S
H814 C821 0.929 . S
H815 C824 0.930 . S
H816 C826 0.929 . S
H817 C818 0.969 . S
C818 H817 0.969 . S
C818 O819 1.550 . S
C818 H820 0.973 . S
O819 C818 1.550 . S
O819 C825 1.412 . S
H820 C818 0.973 . S
C821 H814 0.929 . S
C821 C822 1.400 . S
C821 C823 1.364 . S
C822 C821 1.400 . S
C822 C826 1.377 . S
C823 C821 1.364 . S
C823 C824 1.374 . S
C824 H815 0.930 . S
C824 C823 1.374 . S
C824 C825 1.383 . S
C825 O819 1.412 . S
C825 C824 1.383 . S
C825 C826 1.394 . S
C826 H816 0.929 . S
C826 C822 1.377 . S
C826 C825 1.394 . S
H827 C834 0.929 . S
H828 C837 0.930 . S
H829 C839 0.929 . S
H830 C831 0.969 . S
C831 H830 0.969 . S
C831 O832 1.550 . S
C831 H833 0.973 . S
O832 C831 1.550 . S
O832 C838 1.412 . S
H833 C831 0.973 . S
C834 H827 0.929 . S
C834 C835 1.400 . S
C834 C836 1.364 . S
C835 C834 1.400 . S
C835 C839 1.377 . S
C836 C834 1.364 . S
C836 C837 1.374 . S
C837 H828 0.930 . S
C837 C836 1.374 . S
C837 C838 1.383 . S
C838 O832 1.412 . S
C838 C837 1.383 . S
C838 C839 1.394 . S
C839 H829 0.929 . S
C839 C835 1.377 . S
C839 C838 1.394 . S
H840 C847 0.929 . S
H841 C850 0.930 . S
H842 C852 0.929 . S
H843 C844 0.969 . S
C844 H843 0.969 . S
C844 O845 1.550 . S
C844 H846 0.973 . S
O845 C844 1.550 . S
O845 C851 1.412 . S
H846 C844 0.973 . S
C847 H840 0.929 . S
C847 C848 1.400 . S
C847 C849 1.364 . S
C848 C847 1.400 . S
C848 C852 1.377 . S
C849 C847 1.364 . S
C849 C850 1.374 . S
C850 H841 0.930 . S
C850 C849 1.374 . S
C850 C851 1.383 . S
C851 O845 1.412 . S
C851 C850 1.383 . S
C851 C852 1.394 . S
C852 H842 0.929 . S
C852 C848 1.377 . S
C852 C851 1.394 . S
H853 C860 0.929 . S
H854 C863 0.930 . S
H855 C865 0.929 . S
H856 C857 0.969 . S
C857 H856 0.969 . S
C857 O858 1.550 . S
C857 H859 0.973 . S
O858 C857 1.550 . S
O858 C864 1.412 . S
H859 C857 0.973 . S
C860 H853 0.929 . S
C860 C861 1.400 . S
C860 C862 1.364 . S
C861 C860 1.400 . S
C861 C865 1.377 . S
C862 C860 1.364 . S
C862 C863 1.374 . S
C863 H854 0.930 . S
C863 C862 1.374 . S
C863 C864 1.383 . S
C864 O858 1.412 . S
C864 C863 1.383 . S
C864 C865 1.394 . S
C865 H855 0.929 . S
C865 C861 1.377 . S
C865 C864 1.394 . S
H866 C873 0.929 . S
H867 C876 0.930 . S
H868 C878 0.929 . S
H869 C870 0.969 . S
C870 H869 0.969 . S
C870 O871 1.550 . S
C870 H872 0.973 . S
O871 C870 1.550 . S
O871 C877 1.412 . S
H872 C870 0.973 . S
C873 H866 0.929 . S
C873 C874 1.400 . S
C873 C875 1.364 . S
C874 C873 1.400 . S
C874 C878 1.377 . S
C875 C873 1.364 . S
C875 C876 1.374 . S
C876 H867 0.930 . S
C876 C875 1.374 . S
C876 C877 1.383 . S
C877 O871 1.412 . S
C877 C876 1.383 . S
C877 C878 1.394 . S
C878 H868 0.929 . S
C878 C874 1.377 . S
C878 C877 1.394 . S
H879 C886 0.929 . S
H880 C889 0.930 . S
H881 C891 0.929 . S
H882 C883 0.969 . S
C883 H882 0.969 . S
C883 O884 1.550 . S
C883 H885 0.973 . S
O884 C883 1.550 . S
O884 C890 1.412 . S
H885 C883 0.973 . S
C886 H879 0.929 . S
C886 C887 1.400 . S
C886 C888 1.364 . S
C887 C886 1.400 . S
C887 C891 1.377 . S
C888 C886 1.364 . S
C888 C889 1.374 . S
C889 H880 0.930 . S
C889 C888 1.374 . S
C889 C890 1.383 . S
C890 O884 1.412 . S
C890 C889 1.383 . S
C890 C891 1.394 . S
C891 H881 0.929 . S
C891 C887 1.377 . S
C891 C890 1.394 . S
H892 C899 0.929 . S
H893 C902 0.930 . S
H894 C904 0.929 . S
H895 C896 0.969 . S
C896 H895 0.969 . S
C896 O897 1.550 . S
C896 H898 0.973 . S
O897 C896 1.550 . S
O897 C903 1.412 . S
H898 C896 0.973 . S
C899 H892 0.929 . S
C899 C900 1.400 . S
C899 C901 1.364 . S
C900 C899 1.400 . S
C900 C904 1.377 . S
C901 C899 1.364 . S
C901 C902 1.374 . S
C902 H893 0.930 . S
C902 C901 1.374 . S
C902 C903 1.383 . S
C903 O897 1.412 . S
C903 C902 1.383 . S
C903 C904 1.394 . S
C904 H894 0.929 . S
C904 C900 1.377 . S
C904 C903 1.394 . S
H905 C912 0.929 . S
H906 C915 0.930 . S
H907 C917 0.929 . S
H908 C909 0.969 . S
C909 H908 0.969 . S
C909 O910 1.550 . S
C909 H911 0.973 . S
O910 C909 1.550 . S
O910 C916 1.412 . S
H911 C909 0.973 . S
C912 H905 0.929 . S
C912 C913 1.400 . S
C912 C914 1.364 . S
C913 C912 1.400 . S
C913 C917 1.377 . S
C914 C912 1.364 . S
C914 C915 1.374 . S
C915 H906 0.930 . S
C915 C914 1.374 . S
C915 C916 1.383 . S
C916 O910 1.412 . S
C916 C915 1.383 . S
C916 C917 1.394 . S
C917 H907 0.929 . S
C917 C913 1.377 . S
C917 C916 1.394 . S
H918 C925 0.929 . S
H919 C928 0.930 . S
H920 C930 0.929 . S
H921 C922 0.969 . S
C922 H921 0.969 . S
C922 O923 1.550 . S
C922 H924 0.973 . S
O923 C922 1.550 . S
O923 C929 1.412 . S
H924 C922 0.973 . S
C925 H918 0.929 . S
C925 C926 1.400 . S
C925 C927 1.364 . S
C926 C925 1.400 . S
C926 C930 1.377 . S
C927 C925 1.364 . S
C927 C928 1.374 . S
C928 H919 0.930 . S
C928 C927 1.374 . S
C928 C929 1.383 . S
C929 O923 1.412 . S
C929 C928 1.383 . S
C929 C930 1.394 . S
C930 H920 0.929 . S
C930 C926 1.377 . S
C930 C929 1.394 . S
H931 C938 0.929 . S
H932 C941 0.930 . S
H933 C943 0.929 . S
H934 C935 0.969 . S
C935 H934 0.969 . S
C935 O936 1.550 . S
C935 H937 0.973 . S
O936 C935 1.550 . S
O936 C942 1.412 . S
H937 C935 0.973 . S
C938 H931 0.929 . S
C938 C939 1.400 . S
C938 C940 1.364 . S
C939 C938 1.400 . S
C939 C943 1.377 . S
C940 C938 1.364 . S
C940 C941 1.374 . S
C941 H932 0.930 . S
C941 C940 1.374 . S
C941 C942 1.383 . S
C942 O936 1.412 . S
C942 C941 1.383 . S
C942 C943 1.394 . S
C943 H933 0.929 . S
C943 C939 1.377 . S
C943 C942 1.394 . S
H944 C951 0.929 . S
H945 C954 0.930 . S
H946 C956 0.929 . S
H947 C948 0.969 . S
C948 H947 0.969 . S
C948 O949 1.550 . S
C948 H950 0.973 . S
O949 C948 1.550 . S
O949 C955 1.412 . S
H950 C948 0.973 . S
C951 H944 0.929 . S
C951 C952 1.400 . S
C951 C953 1.364 . S
C952 C951 1.400 . S
C952 C956 1.377 . S
C953 C951 1.364 . S
C953 C954 1.374 . S
C954 H945 0.930 . S
C954 C953 1.374 . S
C954 C955 1.383 . S
C955 O949 1.412 . S
C955 C954 1.383 . S
C955 C956 1.394 . S
C956 H946 0.929 . S
C956 C952 1.377 . S
C956 C955 1.394 . S
H957 C964 0.929 . S
H958 C967 0.930 . S
H959 C969 0.929 . S
H960 C961 0.969 . S
C961 H960 0.969 . S
C961 O962 1.550 . S
C961 H963 0.973 . S
O962 C961 1.550 . S
O962 C968 1.412 . S
H963 C961 0.973 . S
C964 H957 0.929 . S
C964 C965 1.400 . S
C964 C966 1.364 . S
C965 C964 1.400 . S
C965 C969 1.377 . S
C966 C964 1.364 . S
C966 C967 1.374 . S
C967 H958 0.930 . S
C967 C966 1.374 . S
C967 C968 1.383 . S
C968 O962 1.412 . S
C968 C967 1.383 . S
C968 C969 1.394 . S
C969 H959 0.929 . S
C969 C965 1.377 . S
C969 C968 1.394 . S
H970 C977 0.929 . S
H971 C980 0.930 . S
H972 C982 0.929 . S
H973 C974 0.969 . S
C974 H973 0.969 . S
C974 O975 1.550 . S
C974 H976 0.973 . S
O975 C974 1.550 . S
O975 C981 1.412 . S
H976 C974 0.973 . S
C977 H970 0.929 . S
C977 C978 1.400 . S
C977 C979 1.364 . S
C978 C977 1.400 . S
C978 C982 1.377 . S
C979 C977 1.364 . S
C979 C980 1.374 . S
C980 H971 0.930 . S
C980 C979 1.374 . S
C980 C981 1.383 . S
C981 O975 1.412 . S
C981 C980 1.383 . S
C981 C982 1.394 . S
C982 H972 0.929 . S
C982 C978 1.377 . S
C982 C981 1.394 . S
H983 C990 0.929 . S
H984 C993 0.930 . S
H985 C995 0.929 . S
H986 C987 0.969 . S
C987 H986 0.969 . S
C987 O988 1.550 . S
C987 H989 0.973 . S
O988 C987 1.550 . S
O988 C994 1.412 . S
H989 C987 0.973 . S
C990 H983 0.929 . S
C990 C991 1.400 . S
C990 C992 1.364 . S
C991 C990 1.400 . S
C991 C995 1.377 . S
C992 C990 1.364 . S
C992 C993 1.374 . S
C993 H984 0.930 . S
C993 C992 1.374 . S
C993 C994 1.383 . S
C994 O988 1.412 . S
C994 C993 1.383 . S
C994 C995 1.394 . S
C995 H985 0.929 . S
C995 C991 1.377 . S
C995 C994 1.394 . S
H996 C1003 0.929 . S
H997 C1006 0.930 . S
H998 C1008 0.929 . S
H999 C1000 0.969 . S
C1000 H999 0.969 . S
C1000 O1001 1.550 . S
C1000 H1002 0.973 . S
O1001 C1000 1.550 . S
O1001 C1007 1.412 . S
H1002 C1000 0.973 . S
C1003 H996 0.929 . S
C1003 C1004 1.400 . S
C1003 C1005 1.364 . S
C1004 C1003 1.400 . S
C1004 C1008 1.377 . S
C1005 C1003 1.364 . S
C1005 C1006 1.374 . S
C1006 H997 0.930 . S
C1006 C1005 1.374 . S
C1006 C1007 1.383 . S
C1007 O1001 1.412 . S
C1007 C1006 1.383 . S
C1007 C1008 1.394 . S
C1008 H998 0.929 . S
C1008 C1004 1.377 . S
C1008 C1007 1.394 . S
H1009 C1016 0.929 . S
H1010 C1019 0.930 . S
H1011 C1021 0.929 . S
H1012 C1013 0.969 . S
C1013 H1012 0.969 . S
C1013 O1014 1.550 . S
C1013 H1015 0.973 . S
O1014 C1013 1.550 . S
O1014 C1020 1.412 . S
H1015 C1013 0.973 . S
C1016 H1009 0.929 . S
C1016 C1017 1.400 . S
C1016 C1018 1.364 . S
C1017 C1016 1.400 . S
C1017 C1021 1.377 . S
C1018 C1016 1.364 . S
C1018 C1019 1.374 . S
C1019 H1010 0.930 . S
C1019 C1018 1.374 . S
C1019 C1020 1.383 . S
C1020 O1014 1.412 . S
C1020 C1019 1.383 . S
C1020 C1021 1.394 . S
C1021 H1011 0.929 . S
C1021 C1017 1.377 . S
C1021 C1020 1.394 . S
H1022 C1029 0.929 . S
H1023 C1032 0.930 . S
H1024 C1034 0.929 . S
H1025 C1026 0.969 . S
C1026 H1025 0.969 . S
C1026 O1027 1.550 . S
C1026 H1028 0.973 . S
O1027 C1026 1.550 . S
O1027 C1033 1.412 . S
H1028 C1026 0.973 . S
C1029 H1022 0.929 . S
C1029 C1030 1.400 . S
C1029 C1031 1.364 . S
C1030 C1029 1.400 . S
C1030 C1034 1.377 . S
C1031 C1029 1.364 . S
C1031 C1032 1.374 . S
C1032 H1023 0.930 . S
C1032 C1031 1.374 . S
C1032 C1033 1.383 . S
C1033 O1027 1.412 . S
C1033 C1032 1.383 . S
C1033 C1034 1.394 . S
C1034 H1024 0.929 . S
C1034 C1030 1.377 . S
C1034 C1033 1.394 . S
H1035 C1042 0.929 . S
H1036 C1045 0.930 . S
H1037 C1047 0.929 . S
H1038 C1039 0.969 . S
C1039 H1038 0.969 . S
C1039 O1040 1.550 . S
C1039 H1041 0.973 . S
O1040 C1039 1.550 . S
O1040 C1046 1.412 . S
H1041 C1039 0.973 . S
C1042 H1035 0.929 . S
C1042 C1043 1.400 . S
C1042 C1044 1.364 . S
C1043 C1042 1.400 . S
C1043 C1047 1.377 . S
C1044 C1042 1.364 . S
C1044 C1045 1.374 . S
C1045 H1036 0.930 . S
C1045 C1044 1.374 . S
C1045 C1046 1.383 . S
C1046 O1040 1.412 . S
C1046 C1045 1.383 . S
C1046 C1047 1.394 . S
C1047 H1037 0.929 . S
C1047 C1043 1.377 . S
C1047 C1046 1.394 . S
H1048 C1055 0.929 . S
H1049 C1058 0.930 . S
H1050 C1060 0.929 . S
H1051 C1052 0.969 . S
C1052 H1051 0.969 . S
C1052 O1053 1.550 . S
C1052 H1054 0.973 . S
O1053 C1052 1.550 . S
O1053 C1059 1.412 . S
H1054 C1052 0.973 . S
C1055 H1048 0.929 . S
C1055 C1056 1.400 . S
C1055 C1057 1.364 . S
C1056 C1055 1.400 . S
C1056 C1060 1.377 . S
C1057 C1055 1.364 . S
C1057 C1058 1.374 . S
C1058 H1049 0.930 . S
C1058 C1057 1.374 . S
C1058 C1059 1.383 . S
C1059 O1053 1.412 . S
C1059 C1058 1.383 . S
C1059 C1060 1.394 . S
C1060 H1050 0.929 . S
C1060 C1056 1.377 . S
C1060 C1059 1.394 . S
H1061 C1068 0.929 . S
H1062 C1071 0.930 . S
H1063 C1073 0.929 . S
H1064 C1065 0.969 . S
C1065 H1064 0.969 . S
C1065 O1066 1.550 . S
C1065 H1067 0.973 . S
O1066 C1065 1.550 . S
O1066 C1072 1.412 . S
H1067 C1065 0.973 . S
C1068 H1061 0.929 . S
C1068 C1069 1.400 . S
C1068 C1070 1.364 . S
C1069 C1068 1.400 . S
C1069 C1073 1.377 . S
C1070 C1068 1.364 . S
C1070 C1071 1.374 . S
C1071 H1062 0.930 . S
C1071 C1070 1.374 . S
C1071 C1072 1.383 . S
C1072 O1066 1.412 . S
C1072 C1071 1.383 . S
C1072 C1073 1.394 . S
C1073 H1063 0.929 . S
C1073 C1069 1.377 . S
C1073 C1072 1.394 . S
H1074 C1081 0.929 . S
H1075 C1084 0.930 . S
H1076 C1086 0.929 . S
H1077 C1078 0.969 . S
C1078 H1077 0.969 . S
C1078 O1079 1.550 . S
C1078 H1080 0.973 . S
O1079 C1078 1.550 . S
O1079 C1085 1.412 . S
H1080 C1078 0.973 . S
C1081 H1074 0.929 . S
C1081 C1082 1.400 . S
C1081 C1083 1.364 . S
C1082 C1081 1.400 . S
C1082 C1086 1.377 . S
C1083 C1081 1.364 . S
C1083 C1084 1.374 . S
C1084 H1075 0.930 . S
C1084 C1083 1.374 . S
C1084 C1085 1.383 . S
C1085 O1079 1.412 . S
C1085 C1084 1.383 . S
C1085 C1086 1.394 . S
C1086 H1076 0.929 . S
C1086 C1082 1.377 . S
C1086 C1085 1.394 . S
H1087 C1094 0.929 . S
H1088 C1097 0.930 . S
H1089 C1099 0.929 . S
H1090 C1091 0.969 . S
C1091 H1090 0.969 . S
C1091 O1092 1.550 . S
C1091 H1093 0.973 . S
O1092 C1091 1.550 . S
O1092 C1098 1.412 . S
H1093 C1091 0.973 . S
C1094 H1087 0.929 . S
C1094 C1095 1.400 . S
C1094 C1096 1.364 . S
C1095 C1094 1.400 . S
C1095 C1099 1.377 . S
C1096 C1094 1.364 . S
C1096 C1097 1.374 . S
C1097 H1088 0.930 . S
C1097 C1096 1.374 . S
C1097 C1098 1.383 . S
C1098 O1092 1.412 . S
C1098 C1097 1.383 . S
C1098 C1099 1.394 . S
C1099 H1089 0.929 . S
C1099 C1095 1.377 . S
C1099 C1098 1.394 . S
H1100 C1107 0.929 . S
H1101 C1110 0.930 . S
H1102 C1112 0.929 . S
H1103 C1104 0.969 . S
C1104 H1103 0.969 . S
C1104 O1105 1.550 . S
C1104 H1106 0.973 . S
O1105 C1104 1.550 . S
O1105 C1111 1.412 . S
H1106 C1104 0.973 . S
C1107 H1100 0.929 . S
C1107 C1108 1.400 . S
C1107 C1109 1.364 . S
C1108 C1107 1.400 . S
C1108 C1112 1.377 . S
C1109 C1107 1.364 . S
C1109 C1110 1.374 . S
C1110 H1101 0.930 . S
C1110 C1109 1.374 . S
C1110 C1111 1.383 . S
C1111 O1105 1.412 . S
C1111 C1110 1.383 . S
C1111 C1112 1.394 . S
C1112 H1102 0.929 . S
C1112 C1108 1.377 . S
C1112 C1111 1.394 . S
H1113 C1120 0.929 . S
H1114 C1123 0.930 . S
H1115 C1125 0.929 . S
H1116 C1117 0.969 . S
C1117 H1116 0.969 . S
C1117 O1118 1.550 . S
C1117 H1119 0.973 . S
O1118 C1117 1.550 . S
O1118 C1124 1.412 . S
H1119 C1117 0.973 . S
C1120 H1113 0.929 . S
C1120 C1121 1.400 . S
C1120 C1122 1.364 . S
C1121 C1120 1.400 . S
C1121 C1125 1.377 . S
C1122 C1120 1.364 . S
C1122 C1123 1.374 . S
C1123 H1114 0.930 . S
C1123 C1122 1.374 . S
C1123 C1124 1.383 . S
C1124 O1118 1.412 . S
C1124 C1123 1.383 . S
C1124 C1125 1.394 . S
C1125 H1115 0.929 . S
C1125 C1121 1.377 . S
C1125 C1124 1.394 . S
H1126 C1133 0.929 . S
H1127 C1136 0.930 . S
H1128 C1138 0.929 . S
H1129 C1130 0.969 . S
C1130 H1129 0.969 . S
C1130 O1131 1.550 . S
C1130 H1132 0.973 . S
O1131 C1130 1.550 . S
O1131 C1137 1.412 . S
H1132 C1130 0.973 . S
C1133 H1126 0.929 . S
C1133 C1134 1.400 . S
C1133 C1135 1.364 . S
C1134 C1133 1.400 . S
C1134 C1138 1.377 . S
C1135 C1133 1.364 . S
C1135 C1136 1.374 . S
C1136 H1127 0.930 . S
C1136 C1135 1.374 . S
C1136 C1137 1.383 . S
C1137 O1131 1.412 . S
C1137 C1136 1.383 . S
C1137 C1138 1.394 . S
C1138 H1128 0.929 . S
C1138 C1134 1.377 . S
C1138 C1137 1.394 . S
H1139 C1146 0.929 . S
H1140 C1149 0.930 . S
H1141 C1151 0.929 . S
H1142 C1143 0.969 . S
C1143 H1142 0.969 . S
C1143 O1144 1.550 . S
C1143 H1145 0.973 . S
O1144 C1143 1.550 . S
O1144 C1150 1.412 . S
H1145 C1143 0.973 . S
C1146 H1139 0.929 . S
C1146 C1147 1.400 . S
C1146 C1148 1.364 . S
C1147 C1146 1.400 . S
C1147 C1151 1.377 . S
C1148 C1146 1.364 . S
C1148 C1149 1.374 . S
C1149 H1140 0.930 . S
C1149 C1148 1.374 . S
C1149 C1150 1.383 . S
C1150 O1144 1.412 . S
C1150 C1149 1.383 . S
C1150 C1151 1.394 . S
C1151 H1141 0.929 . S
C1151 C1147 1.377 . S
C1151 C1150 1.394 . S
H1152 C1164 0.930 . S
H1153 C1166 0.930 . S
H1154 C1167 0.930 . S
H1155 C1171 0.959 . S
H1156 C1171 0.959 . S
H1157 C1171 0.961 . S
H1158 C1172 0.960 . S
H1159 C1172 0.961 . S
H1160 C1172 0.959 . S
H1161 C1175 0.929 . S
H1162 C1176 0.931 . S
H1163 C1178 0.930 . S
C1164 H1152 0.930 . S
C1164 C1165 1.399 . S
C1164 C1169 1.399 . S
C1165 C1164 1.399 . S
C1165 C1166 1.376 . S
C1166 H1153 0.930 . S
C1166 C1165 1.376 . S
C1166 C1167 1.388 . S
C1167 H1154 0.930 . S
C1167 C1166 1.388 . S
C1167 C1168 1.390 . S
C1168 C1167 1.390 . S
C1168 C1169 1.394 . S
C1168 C1174 1.465 . S
C1169 C1164 1.399 . S
C1169 C1168 1.394 . S
C1169 C1170 1.516 . S
C1170 C1169 1.516 . S
C1170 C1171 1.502 . S
C1170 C1172 1.561 . S
C1170 C1173 1.526 . S
C1171 H1155 0.959 . S
C1171 H1156 0.959 . S
C1171 H1157 0.961 . S
C1171 C1170 1.502 . S
C1172 H1158 0.960 . S
C1172 H1159 0.961 . S
C1172 H1160 0.959 . S
C1172 C1170 1.561 . S
C1173 C1170 1.526 . S
C1173 C1174 1.396 . S
C1173 C1178 1.390 . S
C1174 C1168 1.465 . S
C1174 C1173 1.396 . S
C1174 C1175 1.399 . S
C1175 H1161 0.929 . S
C1175 C1174 1.399 . S
C1175 C1176 1.385 . S
C1176 H1162 0.931 . S
C1176 C1175 1.385 . S
C1176 C1177 1.389 . S
C1177 C1176 1.389 . S
C1177 C1178 1.387 . S
C1178 H1163 0.930 . S
C1178 C1173 1.390 . S
C1178 C1177 1.387 . S
H1179 C1191 0.930 . S
H1180 C1193 0.930 . S
H1181 C1194 0.930 . S
H1182 C1198 0.959 . S
H1183 C1198 0.959 . S
H1184 C1198 0.961 . S
H1185 C1199 0.960 . S
H1186 C1199 0.961 . S
H1187 C1199 0.959 . S
H1188 C1202 0.929 . S
H1189 C1203 0.931 . S
H1190 C1205 0.930 . S
C1191 H1179 0.930 . S
C1191 C1192 1.399 . S
C1191 C1196 1.399 . S
C1192 C1191 1.399 . S
C1192 C1193 1.376 . S
C1193 H1180 0.930 . S
C1193 C1192 1.376 . S
C1193 C1194 1.388 . S
C1194 H1181 0.930 . S
C1194 C1193 1.388 . S
C1194 C1195 1.390 . S
C1195 C1194 1.390 . S
C1195 C1196 1.394 . S
C1195 C1201 1.465 . S
C1196 C1191 1.399 . S
C1196 C1195 1.394 . S
C1196 C1197 1.516 . S
C1197 C1196 1.516 . S
C1197 C1198 1.502 . S
C1197 C1199 1.561 . S
C1197 C1200 1.526 . S
C1198 H1182 0.959 . S
C1198 H1183 0.959 . S
C1198 H1184 0.961 . S
C1198 C1197 1.502 . S
C1199 H1185 0.960 . S
C1199 H1186 0.961 . S
C1199 H1187 0.959 . S
C1199 C1197 1.561 . S
C1200 C1197 1.526 . S
C1200 C1201 1.396 . S
C1200 C1205 1.390 . S
C1201 C1195 1.465 . S
C1201 C1200 1.396 . S
C1201 C1202 1.399 . S
C1202 H1188 0.929 . S
C1202 C1201 1.399 . S
C1202 C1203 1.385 . S
C1203 H1189 0.931 . S
C1203 C1202 1.385 . S
C1203 C1204 1.389 . S
C1204 C1203 1.389 . S
C1204 C1205 1.387 . S
C1205 H1190 0.930 . S
C1205 C1200 1.390 . S
C1205 C1204 1.387 . S
H1206 C1218 0.930 . S
H1207 C1220 0.930 . S
H1208 C1221 0.930 . S
H1209 C1225 0.959 . S
H1210 C1225 0.959 . S
H1211 C1225 0.961 . S
H1212 C1226 0.960 . S
H1213 C1226 0.961 . S
H1214 C1226 0.959 . S
H1215 C1229 0.929 . S
H1216 C1230 0.931 . S
H1217 C1232 0.930 . S
C1218 H1206 0.930 . S
C1218 C1219 1.399 . S
C1218 C1223 1.399 . S
C1219 C1218 1.399 . S
C1219 C1220 1.376 . S
C1220 H1207 0.930 . S
C1220 C1219 1.376 . S
C1220 C1221 1.388 . S
C1221 H1208 0.930 . S
C1221 C1220 1.388 . S
C1221 C1222 1.390 . S
C1222 C1221 1.390 . S
C1222 C1223 1.394 . S
C1222 C1228 1.465 . S
C1223 C1218 1.399 . S
C1223 C1222 1.394 . S
C1223 C1224 1.516 . S
C1224 C1223 1.516 . S
C1224 C1225 1.502 . S
C1224 C1226 1.561 . S
C1224 C1227 1.526 . S
C1225 H1209 0.959 . S
C1225 H1210 0.959 . S
C1225 H1211 0.961 . S
C1225 C1224 1.502 . S
C1226 H1212 0.960 . S
C1226 H1213 0.961 . S
C1226 H1214 0.959 . S
C1226 C1224 1.561 . S
C1227 C1224 1.526 . S
C1227 C1228 1.396 . S
C1227 C1232 1.390 . S
C1228 C1222 1.465 . S
C1228 C1227 1.396 . S
C1228 C1229 1.399 . S
C1229 H1215 0.929 . S
C1229 C1228 1.399 . S
C1229 C1230 1.385 . S
C1230 H1216 0.931 . S
C1230 C1229 1.385 . S
C1230 C1231 1.389 . S
C1231 C1230 1.389 . S
C1231 C1232 1.387 . S
C1232 H1217 0.930 . S
C1232 C1227 1.390 . S
C1232 C1231 1.387 . S
H1233 C1245 0.930 . S
H1234 C1247 0.930 . S
H1235 C1248 0.930 . S
H1236 C1252 0.959 . S
H1237 C1252 0.959 . S
H1238 C1252 0.961 . S
H1239 C1253 0.960 . S
H1240 C1253 0.961 . S
H1241 C1253 0.959 . S
H1242 C1256 0.929 . S
H1243 C1257 0.931 . S
H1244 C1259 0.930 . S
C1245 H1233 0.930 . S
C1245 C1246 1.399 . S
C1245 C1250 1.399 . S
C1246 C1245 1.399 . S
C1246 C1247 1.376 . S
C1247 H1234 0.930 . S
C1247 C1246 1.376 . S
C1247 C1248 1.388 . S
C1248 H1235 0.930 . S
C1248 C1247 1.388 . S
C1248 C1249 1.390 . S
C1249 C1248 1.390 . S
C1249 C1250 1.394 . S
C1249 C1255 1.465 . S
C1250 C1245 1.399 . S
C1250 C1249 1.394 . S
C1250 C1251 1.516 . S
C1251 C1250 1.516 . S
C1251 C1252 1.502 . S
C1251 C1253 1.561 . S
C1251 C1254 1.526 . S
C1252 H1236 0.959 . S
C1252 H1237 0.959 . S
C1252 H1238 0.961 . S
C1252 C1251 1.502 . S
C1253 H1239 0.960 . S
C1253 H1240 0.961 . S
C1253 H1241 0.959 . S
C1253 C1251 1.561 . S
C1254 C1251 1.526 . S
C1254 C1255 1.396 . S
C1254 C1259 1.390 . S
C1255 C1249 1.465 . S
C1255 C1254 1.396 . S
C1255 C1256 1.399 . S
C1256 H1242 0.929 . S
C1256 C1255 1.399 . S
C1256 C1257 1.385 . S
C1257 H1243 0.931 . S
C1257 C1256 1.385 . S
C1257 C1258 1.389 . S
C1258 C1257 1.389 . S
C1258 C1259 1.387 . S
C1259 H1244 0.930 . S
C1259 C1254 1.390 . S
C1259 C1258 1.387 . S
H1260 C1272 0.930 . S
H1261 C1274 0.930 . S
H1262 C1275 0.930 . S
H1263 C1279 0.959 . S
H1264 C1279 0.959 . S
H1265 C1279 0.961 . S
H1266 C1280 0.960 . S
H1267 C1280 0.961 . S
H1268 C1280 0.959 . S
H1269 C1283 0.929 . S
H1270 C1284 0.931 . S
H1271 C1286 0.930 . S
C1272 H1260 0.930 . S
C1272 C1273 1.399 . S
C1272 C1277 1.399 . S
C1273 C1272 1.399 . S
C1273 C1274 1.376 . S
C1274 H1261 0.930 . S
C1274 C1273 1.376 . S
C1274 C1275 1.388 . S
C1275 H1262 0.930 . S
C1275 C1274 1.388 . S
C1275 C1276 1.390 . S
C1276 C1275 1.390 . S
C1276 C1277 1.394 . S
C1276 C1282 1.465 . S
C1277 C1272 1.399 . S
C1277 C1276 1.394 . S
C1277 C1278 1.516 . S
C1278 C1277 1.516 . S
C1278 C1279 1.502 . S
C1278 C1280 1.561 . S
C1278 C1281 1.526 . S
C1279 H1263 0.959 . S
C1279 H1264 0.959 . S
C1279 H1265 0.961 . S
C1279 C1278 1.502 . S
C1280 H1266 0.960 . S
C1280 H1267 0.961 . S
C1280 H1268 0.959 . S
C1280 C1278 1.561 . S
C1281 C1278 1.526 . S
C1281 C1282 1.396 . S
C1281 C1286 1.390 . S
C1282 C1276 1.465 . S
C1282 C1281 1.396 . S
C1282 C1283 1.399 . S
C1283 H1269 0.929 . S
C1283 C1282 1.399 . S
C1283 C1284 1.385 . S
C1284 H1270 0.931 . S
C1284 C1283 1.385 . S
C1284 C1285 1.389 . S
C1285 C1284 1.389 . S
C1285 C1286 1.387 . S
C1286 H1271 0.930 . S
C1286 C1281 1.390 . S
C1286 C1285 1.387 . S
H1287 C1299 0.930 . S
H1288 C1301 0.930 . S
H1289 C1302 0.930 . S
H1290 C1306 0.959 . S
H1291 C1306 0.959 . S
H1292 C1306 0.961 . S
H1293 C1307 0.960 . S
H1294 C1307 0.961 . S
H1295 C1307 0.959 . S
H1296 C1310 0.929 . S
H1297 C1311 0.931 . S
H1298 C1313 0.930 . S
C1299 H1287 0.930 . S
C1299 C1300 1.399 . S
C1299 C1304 1.399 . S
C1300 C1299 1.399 . S
C1300 C1301 1.376 . S
C1301 H1288 0.930 . S
C1301 C1300 1.376 . S
C1301 C1302 1.388 . S
C1302 H1289 0.930 . S
C1302 C1301 1.388 . S
C1302 C1303 1.390 . S
C1303 C1302 1.390 . S
C1303 C1304 1.394 . S
C1303 C1309 1.465 . S
C1304 C1299 1.399 . S
C1304 C1303 1.394 . S
C1304 C1305 1.516 . S
C1305 C1304 1.516 . S
C1305 C1306 1.502 . S
C1305 C1307 1.561 . S
C1305 C1308 1.526 . S
C1306 H1290 0.959 . S
C1306 H1291 0.959 . S
C1306 H1292 0.961 . S
C1306 C1305 1.502 . S
C1307 H1293 0.960 . S
C1307 H1294 0.961 . S
C1307 H1295 0.959 . S
C1307 C1305 1.561 . S
C1308 C1305 1.526 . S
C1308 C1309 1.396 . S
C1308 C1313 1.390 . S
C1309 C1303 1.465 . S
C1309 C1308 1.396 . S
C1309 C1310 1.399 . S
C1310 H1296 0.929 . S
C1310 C1309 1.399 . S
C1310 C1311 1.385 . S
C1311 H1297 0.931 . S
C1311 C1310 1.385 . S
C1311 C1312 1.389 . S
C1312 C1311 1.389 . S
C1312 C1313 1.387 . S
C1313 H1298 0.930 . S
C1313 C1308 1.390 . S
C1313 C1312 1.387 . S
H1314 C1326 0.930 . S
H1315 C1328 0.930 . S
H1316 C1329 0.930 . S
H1317 C1333 0.959 . S
H1318 C1333 0.959 . S
H1319 C1333 0.961 . S
H1320 C1334 0.960 . S
H1321 C1334 0.961 . S
H1322 C1334 0.959 . S
H1323 C1337 0.929 . S
H1324 C1338 0.931 . S
H1325 C1340 0.930 . S
C1326 H1314 0.930 . S
C1326 C1327 1.399 . S
C1326 C1331 1.399 . S
C1327 C1326 1.399 . S
C1327 C1328 1.376 . S
C1328 H1315 0.930 . S
C1328 C1327 1.376 . S
C1328 C1329 1.388 . S
C1329 H1316 0.930 . S
C1329 C1328 1.388 . S
C1329 C1330 1.390 . S
C1330 C1329 1.390 . S
C1330 C1331 1.394 . S
C1330 C1336 1.465 . S
C1331 C1326 1.399 . S
C1331 C1330 1.394 . S
C1331 C1332 1.516 . S
C1332 C1331 1.516 . S
C1332 C1333 1.502 . S
C1332 C1334 1.561 . S
C1332 C1335 1.526 . S
C1333 H1317 0.959 . S
C1333 H1318 0.959 . S
C1333 H1319 0.961 . S
C1333 C1332 1.502 . S
C1334 H1320 0.960 . S
C1334 H1321 0.961 . S
C1334 H1322 0.959 . S
C1334 C1332 1.561 . S
C1335 C1332 1.526 . S
C1335 C1336 1.396 . S
C1335 C1340 1.390 . S
C1336 C1330 1.465 . S
C1336 C1335 1.396 . S
C1336 C1337 1.399 . S
C1337 H1323 0.929 . S
C1337 C1336 1.399 . S
C1337 C1338 1.385 . S
C1338 H1324 0.931 . S
C1338 C1337 1.385 . S
C1338 C1339 1.389 . S
C1339 C1338 1.389 . S
C1339 C1340 1.387 . S
C1340 H1325 0.930 . S
C1340 C1335 1.390 . S
C1340 C1339 1.387 . S
H1341 C1353 0.930 . S
H1342 C1355 0.930 . S
H1343 C1356 0.930 . S
H1344 C1360 0.959 . S
H1345 C1360 0.959 . S
H1346 C1360 0.961 . S
H1347 C1361 0.960 . S
H1348 C1361 0.961 . S
H1349 C1361 0.959 . S
H1350 C1364 0.929 . S
H1351 C1365 0.931 . S
H1352 C1367 0.930 . S
C1353 H1341 0.930 . S
C1353 C1354 1.399 . S
C1353 C1358 1.399 . S
C1354 C1353 1.399 . S
C1354 C1355 1.376 . S
C1355 H1342 0.930 . S
C1355 C1354 1.376 . S
C1355 C1356 1.388 . S
C1356 H1343 0.930 . S
C1356 C1355 1.388 . S
C1356 C1357 1.390 . S
C1357 C1356 1.390 . S
C1357 C1358 1.394 . S
C1357 C1363 1.465 . S
C1358 C1353 1.399 . S
C1358 C1357 1.394 . S
C1358 C1359 1.516 . S
C1359 C1358 1.516 . S
C1359 C1360 1.502 . S
C1359 C1361 1.561 . S
C1359 C1362 1.526 . S
C1360 H1344 0.959 . S
C1360 H1345 0.959 . S
C1360 H1346 0.961 . S
C1360 C1359 1.502 . S
C1361 H1347 0.960 . S
C1361 H1348 0.961 . S
C1361 H1349 0.959 . S
C1361 C1359 1.561 . S
C1362 C1359 1.526 . S
C1362 C1363 1.396 . S
C1362 C1367 1.390 . S
C1363 C1357 1.465 . S
C1363 C1362 1.396 . S
C1363 C1364 1.399 . S
C1364 H1350 0.929 . S
C1364 C1363 1.399 . S
C1364 C1365 1.385 . S
C1365 H1351 0.931 . S
C1365 C1364 1.385 . S
C1365 C1366 1.389 . S
C1366 C1365 1.389 . S
C1366 C1367 1.387 . S
C1367 H1352 0.930 . S
C1367 C1362 1.390 . S
C1367 C1366 1.387 . S
H1368 C1380 0.930 . S
H1369 C1382 0.930 . S
H1370 C1383 0.930 . S
H1371 C1387 0.959 . S
H1372 C1387 0.959 . S
H1373 C1387 0.961 . S
H1374 C1388 0.960 . S
H1375 C1388 0.961 . S
H1376 C1388 0.959 . S
H1377 C1391 0.929 . S
H1378 C1392 0.931 . S
H1379 C1394 0.930 . S
C1380 H1368 0.930 . S
C1380 C1381 1.399 . S
C1380 C1385 1.399 . S
C1381 C1380 1.399 . S
C1381 C1382 1.376 . S
C1382 H1369 0.930 . S
C1382 C1381 1.376 . S
C1382 C1383 1.388 . S
C1383 H1370 0.930 . S
C1383 C1382 1.388 . S
C1383 C1384 1.390 . S
C1384 C1383 1.390 . S
C1384 C1385 1.394 . S
C1384 C1390 1.465 . S
C1385 C1380 1.399 . S
C1385 C1384 1.394 . S
C1385 C1386 1.516 . S
C1386 C1385 1.516 . S
C1386 C1387 1.502 . S
C1386 C1388 1.561 . S
C1386 C1389 1.526 . S
C1387 H1371 0.959 . S
C1387 H1372 0.959 . S
C1387 H1373 0.961 . S
C1387 C1386 1.502 . S
C1388 H1374 0.960 . S
C1388 H1375 0.961 . S
C1388 H1376 0.959 . S
C1388 C1386 1.561 . S
C1389 C1386 1.526 . S
C1389 C1390 1.396 . S
C1389 C1394 1.390 . S
C1390 C1384 1.465 . S
C1390 C1389 1.396 . S
C1390 C1391 1.399 . S
C1391 H1377 0.929 . S
C1391 C1390 1.399 . S
C1391 C1392 1.385 . S
C1392 H1378 0.931 . S
C1392 C1391 1.385 . S
C1392 C1393 1.389 . S
C1393 C1392 1.389 . S
C1393 C1394 1.387 . S
C1394 H1379 0.930 . S
C1394 C1389 1.390 . S
C1394 C1393 1.387 . S
H1395 C1407 0.930 . S
H1396 C1409 0.930 . S
H1397 C1410 0.930 . S
H1398 C1414 0.959 . S
H1399 C1414 0.959 . S
H1400 C1414 0.961 . S
H1401 C1415 0.960 . S
H1402 C1415 0.961 . S
H1403 C1415 0.959 . S
H1404 C1418 0.929 . S
H1405 C1419 0.931 . S
H1406 C1421 0.930 . S
C1407 H1395 0.930 . S
C1407 C1408 1.399 . S
C1407 C1412 1.399 . S
C1408 C1407 1.399 . S
C1408 C1409 1.376 . S
C1409 H1396 0.930 . S
C1409 C1408 1.376 . S
C1409 C1410 1.388 . S
C1410 H1397 0.930 . S
C1410 C1409 1.388 . S
C1410 C1411 1.390 . S
C1411 C1410 1.390 . S
C1411 C1412 1.394 . S
C1411 C1417 1.465 . S
C1412 C1407 1.399 . S
C1412 C1411 1.394 . S
C1412 C1413 1.516 . S
C1413 C1412 1.516 . S
C1413 C1414 1.502 . S
C1413 C1415 1.561 . S
C1413 C1416 1.526 . S
C1414 H1398 0.959 . S
C1414 H1399 0.959 . S
C1414 H1400 0.961 . S
C1414 C1413 1.502 . S
C1415 H1401 0.960 . S
C1415 H1402 0.961 . S
C1415 H1403 0.959 . S
C1415 C1413 1.561 . S
C1416 C1413 1.526 . S
C1416 C1417 1.396 . S
C1416 C1421 1.390 . S
C1417 C1411 1.465 . S
C1417 C1416 1.396 . S
C1417 C1418 1.399 . S
C1418 H1404 0.929 . S
C1418 C1417 1.399 . S
C1418 C1419 1.385 . S
C1419 H1405 0.931 . S
C1419 C1418 1.385 . S
C1419 C1420 1.389 . S
C1420 C1419 1.389 . S
C1420 C1421 1.387 . S
C1421 H1406 0.930 . S
C1421 C1416 1.390 . S
C1421 C1420 1.387 . S
H1422 C1434 0.930 . S
H1423 C1436 0.930 . S
H1424 C1437 0.930 . S
H1425 C1441 0.959 . S
H1426 C1441 0.959 . S
H1427 C1441 0.961 . S
H1428 C1442 0.960 . S
H1429 C1442 0.961 . S
H1430 C1442 0.959 . S
H1431 C1445 0.929 . S
H1432 C1446 0.931 . S
H1433 C1448 0.930 . S
C1434 H1422 0.930 . S
C1434 C1435 1.399 . S
C1434 C1439 1.399 . S
C1435 C1434 1.399 . S
C1435 C1436 1.376 . S
C1436 H1423 0.930 . S
C1436 C1435 1.376 . S
C1436 C1437 1.388 . S
C1437 H1424 0.930 . S
C1437 C1436 1.388 . S
C1437 C1438 1.390 . S
C1438 C1437 1.390 . S
C1438 C1439 1.394 . S
C1438 C1444 1.465 . S
C1439 C1434 1.399 . S
C1439 C1438 1.394 . S
C1439 C1440 1.516 . S
C1440 C1439 1.516 . S
C1440 C1441 1.502 . S
C1440 C1442 1.561 . S
C1440 C1443 1.526 . S
C1441 H1425 0.959 . S
C1441 H1426 0.959 . S
C1441 H1427 0.961 . S
C1441 C1440 1.502 . S
C1442 H1428 0.960 . S
C1442 H1429 0.961 . S
C1442 H1430 0.959 . S
C1442 C1440 1.561 . S
C1443 C1440 1.526 . S
C1443 C1444 1.396 . S
C1443 C1448 1.390 . S
C1444 C1438 1.465 . S
C1444 C1443 1.396 . S
C1444 C1445 1.399 . S
C1445 H1431 0.929 . S
C1445 C1444 1.399 . S
C1445 C1446 1.385 . S
C1446 H1432 0.931 . S
C1446 C1445 1.385 . S
C1446 C1447 1.389 . S
C1447 C1446 1.389 . S
C1447 C1448 1.387 . S
C1448 H1433 0.930 . S
C1448 C1443 1.390 . S
C1448 C1447 1.387 . S
H1449 C1461 0.930 . S
H1450 C1463 0.930 . S
H1451 C1464 0.930 . S
H1452 C1468 0.959 . S
H1453 C1468 0.959 . S
H1454 C1468 0.961 . S
H1455 C1469 0.960 . S
H1456 C1469 0.961 . S
H1457 C1469 0.959 . S
H1458 C1472 0.929 . S
H1459 C1473 0.931 . S
H1460 C1475 0.930 . S
C1461 H1449 0.930 . S
C1461 C1462 1.399 . S
C1461 C1466 1.399 . S
C1462 C1461 1.399 . S
C1462 C1463 1.376 . S
C1463 H1450 0.930 . S
C1463 C1462 1.376 . S
C1463 C1464 1.388 . S
C1464 H1451 0.930 . S
C1464 C1463 1.388 . S
C1464 C1465 1.390 . S
C1465 C1464 1.390 . S
C1465 C1466 1.394 . S
C1465 C1471 1.465 . S
C1466 C1461 1.399 . S
C1466 C1465 1.394 . S
C1466 C1467 1.516 . S
C1467 C1466 1.516 . S
C1467 C1468 1.502 . S
C1467 C1469 1.561 . S
C1467 C1470 1.526 . S
C1468 H1452 0.959 . S
C1468 H1453 0.959 . S
C1468 H1454 0.961 . S
C1468 C1467 1.502 . S
C1469 H1455 0.960 . S
C1469 H1456 0.961 . S
C1469 H1457 0.959 . S
C1469 C1467 1.561 . S
C1470 C1467 1.526 . S
C1470 C1471 1.396 . S
C1470 C1475 1.390 . S
C1471 C1465 1.465 . S
C1471 C1470 1.396 . S
C1471 C1472 1.399 . S
C1472 H1458 0.929 . S
C1472 C1471 1.399 . S
C1472 C1473 1.385 . S
C1473 H1459 0.931 . S
C1473 C1472 1.385 . S
C1473 C1474 1.389 . S
C1474 C1473 1.389 . S
C1474 C1475 1.387 . S
C1475 H1460 0.930 . S
C1475 C1470 1.390 . S
C1475 C1474 1.387 . S
H1476 C1488 0.930 . S
H1477 C1490 0.930 . S
H1478 C1491 0.930 . S
H1479 C1495 0.959 . S
H1480 C1495 0.959 . S
H1481 C1495 0.961 . S
H1482 C1496 0.960 . S
H1483 C1496 0.961 . S
H1484 C1496 0.959 . S
H1485 C1499 0.929 . S
H1486 C1500 0.931 . S
H1487 C1502 0.930 . S
C1488 H1476 0.930 . S
C1488 C1489 1.399 . S
C1488 C1493 1.399 . S
C1489 C1488 1.399 . S
C1489 C1490 1.376 . S
C1490 H1477 0.930 . S
C1490 C1489 1.376 . S
C1490 C1491 1.388 . S
C1491 H1478 0.930 . S
C1491 C1490 1.388 . S
C1491 C1492 1.390 . S
C1492 C1491 1.390 . S
C1492 C1493 1.394 . S
C1492 C1498 1.465 . S
C1493 C1488 1.399 . S
C1493 C1492 1.394 . S
C1493 C1494 1.516 . S
C1494 C1493 1.516 . S
C1494 C1495 1.502 . S
C1494 C1496 1.561 . S
C1494 C1497 1.526 . S
C1495 H1479 0.959 . S
C1495 H1480 0.959 . S
C1495 H1481 0.961 . S
C1495 C1494 1.502 . S
C1496 H1482 0.960 . S
C1496 H1483 0.961 . S
C1496 H1484 0.959 . S
C1496 C1494 1.561 . S
C1497 C1494 1.526 . S
C1497 C1498 1.396 . S
C1497 C1502 1.390 . S
C1498 C1492 1.465 . S
C1498 C1497 1.396 . S
C1498 C1499 1.399 . S
C1499 H1485 0.929 . S
C1499 C1498 1.399 . S
C1499 C1500 1.385 . S
C1500 H1486 0.931 . S
C1500 C1499 1.385 . S
C1500 C1501 1.389 . S
C1501 C1500 1.389 . S
C1501 C1502 1.387 . S
C1502 H1487 0.930 . S
C1502 C1497 1.390 . S
C1502 C1501 1.387 . S
H1503 C1515 0.930 . S
H1504 C1517 0.930 . S
H1505 C1518 0.930 . S
H1506 C1522 0.959 . S
H1507 C1522 0.959 . S
H1508 C1522 0.961 . S
H1509 C1523 0.960 . S
H1510 C1523 0.961 . S
H1511 C1523 0.959 . S
H1512 C1526 0.929 . S
H1513 C1527 0.931 . S
H1514 C1529 0.930 . S
C1515 H1503 0.930 . S
C1515 C1516 1.399 . S
C1515 C1520 1.399 . S
C1516 C1515 1.399 . S
C1516 C1517 1.376 . S
C1517 H1504 0.930 . S
C1517 C1516 1.376 . S
C1517 C1518 1.388 . S
C1518 H1505 0.930 . S
C1518 C1517 1.388 . S
C1518 C1519 1.390 . S
C1519 C1518 1.390 . S
C1519 C1520 1.394 . S
C1519 C1525 1.465 . S
C1520 C1515 1.399 . S
C1520 C1519 1.394 . S
C1520 C1521 1.516 . S
C1521 C1520 1.516 . S
C1521 C1522 1.502 . S
C1521 C1523 1.561 . S
C1521 C1524 1.526 . S
C1522 H1506 0.959 . S
C1522 H1507 0.959 . S
C1522 H1508 0.961 . S
C1522 C1521 1.502 . S
C1523 H1509 0.960 . S
C1523 H1510 0.961 . S
C1523 H1511 0.959 . S
C1523 C1521 1.561 . S
C1524 C1521 1.526 . S
C1524 C1525 1.396 . S
C1524 C1529 1.390 . S
C1525 C1519 1.465 . S
C1525 C1524 1.396 . S
C1525 C1526 1.399 . S
C1526 H1512 0.929 . S
C1526 C1525 1.399 . S
C1526 C1527 1.385 . S
C1527 H1513 0.931 . S
C1527 C1526 1.385 . S
C1527 C1528 1.389 . S
C1528 C1527 1.389 . S
C1528 C1529 1.387 . S
C1529 H1514 0.930 . S
C1529 C1524 1.390 . S
C1529 C1528 1.387 . S
H1530 C1542 0.930 . S
H1531 C1544 0.930 . S
H1532 C1545 0.930 . S
H1533 C1549 0.959 . S
H1534 C1549 0.959 . S
H1535 C1549 0.961 . S
H1536 C1550 0.960 . S
H1537 C1550 0.961 . S
H1538 C1550 0.959 . S
H1539 C1553 0.929 . S
H1540 C1554 0.931 . S
H1541 C1556 0.930 . S
C1542 H1530 0.930 . S
C1542 C1543 1.399 . S
C1542 C1547 1.399 . S
C1543 C1542 1.399 . S
C1543 C1544 1.376 . S
C1544 H1531 0.930 . S
C1544 C1543 1.376 . S
C1544 C1545 1.388 . S
C1545 H1532 0.930 . S
C1545 C1544 1.388 . S
C1545 C1546 1.390 . S
C1546 C1545 1.390 . S
C1546 C1547 1.394 . S
C1546 C1552 1.465 . S
C1547 C1542 1.399 . S
C1547 C1546 1.394 . S
C1547 C1548 1.516 . S
C1548 C1547 1.516 . S
C1548 C1549 1.502 . S
C1548 C1550 1.561 . S
C1548 C1551 1.526 . S
C1549 H1533 0.959 . S
C1549 H1534 0.959 . S
C1549 H1535 0.961 . S
C1549 C1548 1.502 . S
C1550 H1536 0.960 . S
C1550 H1537 0.961 . S
C1550 H1538 0.959 . S
C1550 C1548 1.561 . S
C1551 C1548 1.526 . S
C1551 C1552 1.396 . S
C1551 C1556 1.390 . S
C1552 C1546 1.465 . S
C1552 C1551 1.396 . S
C1552 C1553 1.399 . S
C1553 H1539 0.929 . S
C1553 C1552 1.399 . S
C1553 C1554 1.385 . S
C1554 H1540 0.931 . S
C1554 C1553 1.385 . S
C1554 C1555 1.389 . S
C1555 C1554 1.389 . S
C1555 C1556 1.387 . S
C1556 H1541 0.930 . S
C1556 C1551 1.390 . S
C1556 C1555 1.387 . S
H1557 C1569 0.930 . S
H1558 C1571 0.930 . S
H1559 C1572 0.930 . S
H1560 C1576 0.959 . S
H1561 C1576 0.959 . S
H1562 C1576 0.961 . S
H1563 C1577 0.960 . S
H1564 C1577 0.961 . S
H1565 C1577 0.959 . S
H1566 C1580 0.929 . S
H1567 C1581 0.931 . S
H1568 C1583 0.930 . S
C1569 H1557 0.930 . S
C1569 C1570 1.399 . S
C1569 C1574 1.399 . S
C1570 C1569 1.399 . S
C1570 C1571 1.376 . S
C1571 H1558 0.930 . S
C1571 C1570 1.376 . S
C1571 C1572 1.388 . S
C1572 H1559 0.930 . S
C1572 C1571 1.388 . S
C1572 C1573 1.390 . S
C1573 C1572 1.390 . S
C1573 C1574 1.394 . S
C1573 C1579 1.465 . S
C1574 C1569 1.399 . S
C1574 C1573 1.394 . S
C1574 C1575 1.516 . S
C1575 C1574 1.516 . S
C1575 C1576 1.502 . S
C1575 C1577 1.561 . S
C1575 C1578 1.526 . S
C1576 H1560 0.959 . S
C1576 H1561 0.959 . S
C1576 H1562 0.961 . S
C1576 C1575 1.502 . S
C1577 H1563 0.960 . S
C1577 H1564 0.961 . S
C1577 H1565 0.959 . S
C1577 C1575 1.561 . S
C1578 C1575 1.526 . S
C1578 C1579 1.396 . S
C1578 C1583 1.390 . S
C1579 C1573 1.465 . S
C1579 C1578 1.396 . S
C1579 C1580 1.399 . S
C1580 H1566 0.929 . S
C1580 C1579 1.399 . S
C1580 C1581 1.385 . S
C1581 H1567 0.931 . S
C1581 C1580 1.385 . S
C1581 C1582 1.389 . S
C1582 C1581 1.389 . S
C1582 C1583 1.387 . S
C1583 H1568 0.930 . S
C1583 C1578 1.390 . S
C1583 C1582 1.387 . S
H1584 C1596 0.930 . S
H1585 C1598 0.930 . S
H1586 C1599 0.930 . S
H1587 C1603 0.959 . S
H1588 C1603 0.959 . S
H1589 C1603 0.961 . S
H1590 C1604 0.960 . S
H1591 C1604 0.961 . S
H1592 C1604 0.959 . S
H1593 C1607 0.929 . S
H1594 C1608 0.931 . S
H1595 C1610 0.930 . S
C1596 H1584 0.930 . S
C1596 C1597 1.399 . S
C1596 C1601 1.399 . S
C1597 C1596 1.399 . S
C1597 C1598 1.376 . S
C1598 H1585 0.930 . S
C1598 C1597 1.376 . S
C1598 C1599 1.388 . S
C1599 H1586 0.930 . S
C1599 C1598 1.388 . S
C1599 C1600 1.390 . S
C1600 C1599 1.390 . S
C1600 C1601 1.394 . S
C1600 C1606 1.465 . S
C1601 C1596 1.399 . S
C1601 C1600 1.394 . S
C1601 C1602 1.516 . S
C1602 C1601 1.516 . S
C1602 C1603 1.502 . S
C1602 C1604 1.561 . S
C1602 C1605 1.526 . S
C1603 H1587 0.959 . S
C1603 H1588 0.959 . S
C1603 H1589 0.961 . S
C1603 C1602 1.502 . S
C1604 H1590 0.960 . S
C1604 H1591 0.961 . S
C1604 H1592 0.959 . S
C1604 C1602 1.561 . S
C1605 C1602 1.526 . S
C1605 C1606 1.396 . S
C1605 C1610 1.390 . S
C1606 C1600 1.465 . S
C1606 C1605 1.396 . S
C1606 C1607 1.399 . S
C1607 H1593 0.929 . S
C1607 C1606 1.399 . S
C1607 C1608 1.385 . S
C1608 H1594 0.931 . S
C1608 C1607 1.385 . S
C1608 C1609 1.389 . S
C1609 C1608 1.389 . S
C1609 C1610 1.387 . S
C1610 H1595 0.930 . S
C1610 C1605 1.390 . S
C1610 C1609 1.387 . S
H1611 C1623 0.930 . S
H1612 C1625 0.930 . S
H1613 C1626 0.930 . S
H1614 C1630 0.959 . S
H1615 C1630 0.959 . S
H1616 C1630 0.961 . S
H1617 C1631 0.960 . S
H1618 C1631 0.961 . S
H1619 C1631 0.959 . S
H1620 C1634 0.929 . S
H1621 C1635 0.931 . S
H1622 C1637 0.930 . S
C1623 H1611 0.930 . S
C1623 C1624 1.399 . S
C1623 C1628 1.399 . S
C1624 C1623 1.399 . S
C1624 C1625 1.376 . S
C1625 H1612 0.930 . S
C1625 C1624 1.376 . S
C1625 C1626 1.388 . S
C1626 H1613 0.930 . S
C1626 C1625 1.388 . S
C1626 C1627 1.390 . S
C1627 C1626 1.390 . S
C1627 C1628 1.394 . S
C1627 C1633 1.465 . S
C1628 C1623 1.399 . S
C1628 C1627 1.394 . S
C1628 C1629 1.516 . S
C1629 C1628 1.516 . S
C1629 C1630 1.502 . S
C1629 C1631 1.561 . S
C1629 C1632 1.526 . S
C1630 H1614 0.959 . S
C1630 H1615 0.959 . S
C1630 H1616 0.961 . S
C1630 C1629 1.502 . S
C1631 H1617 0.960 . S
C1631 H1618 0.961 . S
C1631 H1619 0.959 . S
C1631 C1629 1.561 . S
C1632 C1629 1.526 . S
C1632 C1633 1.396 . S
C1632 C1637 1.390 . S
C1633 C1627 1.465 . S
C1633 C1632 1.396 . S
C1633 C1634 1.399 . S
C1634 H1620 0.929 . S
C1634 C1633 1.399 . S
C1634 C1635 1.385 . S
C1635 H1621 0.931 . S
C1635 C1634 1.385 . S
C1635 C1636 1.389 . S
C1636 C1635 1.389 . S
C1636 C1637 1.387 . S
C1637 H1622 0.930 . S
C1637 C1632 1.390 . S
C1637 C1636 1.387 . S
H1638 C1650 0.930 . S
H1639 C1652 0.930 . S
H1640 C1653 0.930 . S
H1641 C1657 0.959 . S
H1642 C1657 0.959 . S
H1643 C1657 0.961 . S
H1644 C1658 0.960 . S
H1645 C1658 0.961 . S
H1646 C1658 0.959 . S
H1647 C1661 0.929 . S
H1648 C1662 0.931 . S
H1649 C1664 0.930 . S
C1650 H1638 0.930 . S
C1650 C1651 1.399 . S
C1650 C1655 1.399 . S
C1651 C1650 1.399 . S
C1651 C1652 1.376 . S
C1652 H1639 0.930 . S
C1652 C1651 1.376 . S
C1652 C1653 1.388 . S
C1653 H1640 0.930 . S
C1653 C1652 1.388 . S
C1653 C1654 1.390 . S
C1654 C1653 1.390 . S
C1654 C1655 1.394 . S
C1654 C1660 1.465 . S
C1655 C1650 1.399 . S
C1655 C1654 1.394 . S
C1655 C1656 1.516 . S
C1656 C1655 1.516 . S
C1656 C1657 1.502 . S
C1656 C1658 1.561 . S
C1656 C1659 1.526 . S
C1657 H1641 0.959 . S
C1657 H1642 0.959 . S
C1657 H1643 0.961 . S
C1657 C1656 1.502 . S
C1658 H1644 0.960 . S
C1658 H1645 0.961 . S
C1658 H1646 0.959 . S
C1658 C1656 1.561 . S
C1659 C1656 1.526 . S
C1659 C1660 1.396 . S
C1659 C1664 1.390 . S
C1660 C1654 1.465 . S
C1660 C1659 1.396 . S
C1660 C1661 1.399 . S
C1661 H1647 0.929 . S
C1661 C1660 1.399 . S
C1661 C1662 1.385 . S
C1662 H1648 0.931 . S
C1662 C1661 1.385 . S
C1662 C1663 1.389 . S
C1663 C1662 1.389 . S
C1663 C1664 1.387 . S
C1664 H1649 0.930 . S
C1664 C1659 1.390 . S
C1664 C1663 1.387 . S
H1665 C1677 0.930 . S
H1666 C1679 0.930 . S
H1667 C1680 0.930 . S
H1668 C1684 0.959 . S
H1669 C1684 0.959 . S
H1670 C1684 0.961 . S
H1671 C1685 0.960 . S
H1672 C1685 0.961 . S
H1673 C1685 0.959 . S
H1674 C1688 0.929 . S
H1675 C1689 0.931 . S
H1676 C1691 0.930 . S
C1677 H1665 0.930 . S
C1677 C1678 1.399 . S
C1677 C1682 1.399 . S
C1678 C1677 1.399 . S
C1678 C1679 1.376 . S
C1679 H1666 0.930 . S
C1679 C1678 1.376 . S
C1679 C1680 1.388 . S
C1680 H1667 0.930 . S
C1680 C1679 1.388 . S
C1680 C1681 1.390 . S
C1681 C1680 1.390 . S
C1681 C1682 1.394 . S
C1681 C1687 1.465 . S
C1682 C1677 1.399 . S
C1682 C1681 1.394 . S
C1682 C1683 1.516 . S
C1683 C1682 1.516 . S
C1683 C1684 1.502 . S
C1683 C1685 1.561 . S
C1683 C1686 1.526 . S
C1684 H1668 0.959 . S
C1684 H1669 0.959 . S
C1684 H1670 0.961 . S
C1684 C1683 1.502 . S
C1685 H1671 0.960 . S
C1685 H1672 0.961 . S
C1685 H1673 0.959 . S
C1685 C1683 1.561 . S
C1686 C1683 1.526 . S
C1686 C1687 1.396 . S
C1686 C1691 1.390 . S
C1687 C1681 1.465 . S
C1687 C1686 1.396 . S
C1687 C1688 1.399 . S
C1688 H1674 0.929 . S
C1688 C1687 1.399 . S
C1688 C1689 1.385 . S
C1689 H1675 0.931 . S
C1689 C1688 1.385 . S
C1689 C1690 1.389 . S
C1690 C1689 1.389 . S
C1690 C1691 1.387 . S
C1691 H1676 0.930 . S
C1691 C1686 1.390 . S
C1691 C1690 1.387 . S
H1692 C1704 0.930 . S
H1693 C1706 0.930 . S
H1694 C1707 0.930 . S
H1695 C1711 0.959 . S
H1696 C1711 0.959 . S
H1697 C1711 0.961 . S
H1698 C1712 0.960 . S
H1699 C1712 0.961 . S
H1700 C1712 0.959 . S
H1701 C1715 0.929 . S
H1702 C1716 0.931 . S
H1703 C1718 0.930 . S
C1704 H1692 0.930 . S
C1704 C1705 1.399 . S
C1704 C1709 1.399 . S
C1705 C1704 1.399 . S
C1705 C1706 1.376 . S
C1706 H1693 0.930 . S
C1706 C1705 1.376 . S
C1706 C1707 1.388 . S
C1707 H1694 0.930 . S
C1707 C1706 1.388 . S
C1707 C1708 1.390 . S
C1708 C1707 1.390 . S
C1708 C1709 1.394 . S
C1708 C1714 1.465 . S
C1709 C1704 1.399 . S
C1709 C1708 1.394 . S
C1709 C1710 1.516 . S
C1710 C1709 1.516 . S
C1710 C1711 1.502 . S
C1710 C1712 1.561 . S
C1710 C1713 1.526 . S
C1711 H1695 0.959 . S
C1711 H1696 0.959 . S
C1711 H1697 0.961 . S
C1711 C1710 1.502 . S
C1712 H1698 0.960 . S
C1712 H1699 0.961 . S
C1712 H1700 0.959 . S
C1712 C1710 1.561 . S
C1713 C1710 1.526 . S
C1713 C1714 1.396 . S
C1713 C1718 1.390 . S
C1714 C1708 1.465 . S
C1714 C1713 1.396 . S
C1714 C1715 1.399 . S
C1715 H1701 0.929 . S
C1715 C1714 1.399 . S
C1715 C1716 1.385 . S
C1716 H1702 0.931 . S
C1716 C1715 1.385 . S
C1716 C1717 1.389 . S
C1717 C1716 1.389 . S
C1717 C1718 1.387 . S
C1718 H1703 0.930 . S
C1718 C1713 1.390 . S
C1718 C1717 1.387 . S
H1719 C1731 0.930 . S
H1720 C1733 0.930 . S
H1721 C1734 0.930 . S
H1722 C1738 0.959 . S
H1723 C1738 0.959 . S
H1724 C1738 0.961 . S
H1725 C1739 0.960 . S
H1726 C1739 0.961 . S
H1727 C1739 0.959 . S
H1728 C1742 0.929 . S
H1729 C1743 0.931 . S
H1730 C1745 0.930 . S
C1731 H1719 0.930 . S
C1731 C1732 1.399 . S
C1731 C1736 1.399 . S
C1732 C1731 1.399 . S
C1732 C1733 1.376 . S
C1733 H1720 0.930 . S
C1733 C1732 1.376 . S
C1733 C1734 1.388 . S
C1734 H1721 0.930 . S
C1734 C1733 1.388 . S
C1734 C1735 1.390 . S
C1735 C1734 1.390 . S
C1735 C1736 1.394 . S
C1735 C1741 1.465 . S
C1736 C1731 1.399 . S
C1736 C1735 1.394 . S
C1736 C1737 1.516 . S
C1737 C1736 1.516 . S
C1737 C1738 1.502 . S
C1737 C1739 1.561 . S
C1737 C1740 1.526 . S
C1738 H1722 0.959 . S
C1738 H1723 0.959 . S
C1738 H1724 0.961 . S
C1738 C1737 1.502 . S
C1739 H1725 0.960 . S
C1739 H1726 0.961 . S
C1739 H1727 0.959 . S
C1739 C1737 1.561 . S
C1740 C1737 1.526 . S
C1740 C1741 1.396 . S
C1740 C1745 1.390 . S
C1741 C1735 1.465 . S
C1741 C1740 1.396 . S
C1741 C1742 1.399 . S
C1742 H1728 0.929 . S
C1742 C1741 1.399 . S
C1742 C1743 1.385 . S
C1743 H1729 0.931 . S
C1743 C1742 1.385 . S
C1743 C1744 1.389 . S
C1744 C1743 1.389 . S
C1744 C1745 1.387 . S
C1745 H1730 0.930 . S
C1745 C1740 1.390 . S
C1745 C1744 1.387 . S
H1746 C1758 0.930 . S
H1747 C1760 0.930 . S
H1748 C1761 0.930 . S
H1749 C1765 0.959 . S
H1750 C1765 0.959 . S
H1751 C1765 0.961 . S
H1752 C1766 0.960 . S
H1753 C1766 0.961 . S
H1754 C1766 0.959 . S
H1755 C1769 0.929 . S
H1756 C1770 0.931 . S
H1757 C1772 0.930 . S
C1758 H1746 0.930 . S
C1758 C1759 1.399 . S
C1758 C1763 1.399 . S
C1759 C1758 1.399 . S
C1759 C1760 1.376 . S
C1760 H1747 0.930 . S
C1760 C1759 1.376 . S
C1760 C1761 1.388 . S
C1761 H1748 0.930 . S
C1761 C1760 1.388 . S
C1761 C1762 1.390 . S
C1762 C1761 1.390 . S
C1762 C1763 1.394 . S
C1762 C1768 1.465 . S
C1763 C1758 1.399 . S
C1763 C1762 1.394 . S
C1763 C1764 1.516 . S
C1764 C1763 1.516 . S
C1764 C1765 1.502 . S
C1764 C1766 1.561 . S
C1764 C1767 1.526 . S
C1765 H1749 0.959 . S
C1765 H1750 0.959 . S
C1765 H1751 0.961 . S
C1765 C1764 1.502 . S
C1766 H1752 0.960 . S
C1766 H1753 0.961 . S
C1766 H1754 0.959 . S
C1766 C1764 1.561 . S
C1767 C1764 1.526 . S
C1767 C1768 1.396 . S
C1767 C1772 1.390 . S
C1768 C1762 1.465 . S
C1768 C1767 1.396 . S
C1768 C1769 1.399 . S
C1769 H1755 0.929 . S
C1769 C1768 1.399 . S
C1769 C1770 1.385 . S
C1770 H1756 0.931 . S
C1770 C1769 1.385 . S
C1770 C1771 1.389 . S
C1771 C1770 1.389 . S
C1771 C1772 1.387 . S
C1772 H1757 0.930 . S
C1772 C1767 1.390 . S
C1772 C1771 1.387 . S
H1773 C1785 0.930 . S
H1774 C1787 0.930 . S
H1775 C1788 0.930 . S
H1776 C1792 0.959 . S
H1777 C1792 0.959 . S
H1778 C1792 0.961 . S
H1779 C1793 0.960 . S
H1780 C1793 0.961 . S
H1781 C1793 0.959 . S
H1782 C1796 0.929 . S
H1783 C1797 0.931 . S
H1784 C1799 0.930 . S
C1785 H1773 0.930 . S
C1785 C1786 1.399 . S
C1785 C1790 1.399 . S
C1786 C1785 1.399 . S
C1786 C1787 1.376 . S
C1787 H1774 0.930 . S
C1787 C1786 1.376 . S
C1787 C1788 1.388 . S
C1788 H1775 0.930 . S
C1788 C1787 1.388 . S
C1788 C1789 1.390 . S
C1789 C1788 1.390 . S
C1789 C1790 1.394 . S
C1789 C1795 1.465 . S
C1790 C1785 1.399 . S
C1790 C1789 1.394 . S
C1790 C1791 1.516 . S
C1791 C1790 1.516 . S
C1791 C1792 1.502 . S
C1791 C1793 1.561 . S
C1791 C1794 1.526 . S
C1792 H1776 0.959 . S
C1792 H1777 0.959 . S
C1792 H1778 0.961 . S
C1792 C1791 1.502 . S
C1793 H1779 0.960 . S
C1793 H1780 0.961 . S
C1793 H1781 0.959 . S
C1793 C1791 1.561 . S
C1794 C1791 1.526 . S
C1794 C1795 1.396 . S
C1794 C1799 1.390 . S
C1795 C1789 1.465 . S
C1795 C1794 1.396 . S
C1795 C1796 1.399 . S
C1796 H1782 0.929 . S
C1796 C1795 1.399 . S
C1796 C1797 1.385 . S
C1797 H1783 0.931 . S
C1797 C1796 1.385 . S
C1797 C1798 1.389 . S
C1798 C1797 1.389 . S
C1798 C1799 1.387 . S
C1799 H1784 0.930 . S
C1799 C1794 1.390 . S
C1799 C1798 1.387 . S
H1800 C1812 0.930 . S
H1801 C1814 0.930 . S
H1802 C1815 0.930 . S
H1803 C1819 0.959 . S
H1804 C1819 0.959 . S
H1805 C1819 0.961 . S
H1806 C1820 0.960 . S
H1807 C1820 0.961 . S
H1808 C1820 0.959 . S
H1809 C1823 0.929 . S
H1810 C1824 0.931 . S
H1811 C1826 0.930 . S
C1812 H1800 0.930 . S
C1812 C1813 1.399 . S
C1812 C1817 1.399 . S
C1813 C1812 1.399 . S
C1813 C1814 1.376 . S
C1814 H1801 0.930 . S
C1814 C1813 1.376 . S
C1814 C1815 1.388 . S
C1815 H1802 0.930 . S
C1815 C1814 1.388 . S
C1815 C1816 1.390 . S
C1816 C1815 1.390 . S
C1816 C1817 1.394 . S
C1816 C1822 1.465 . S
C1817 C1812 1.399 . S
C1817 C1816 1.394 . S
C1817 C1818 1.516 . S
C1818 C1817 1.516 . S
C1818 C1819 1.502 . S
C1818 C1820 1.561 . S
C1818 C1821 1.526 . S
C1819 H1803 0.959 . S
C1819 H1804 0.959 . S
C1819 H1805 0.961 . S
C1819 C1818 1.502 . S
C1820 H1806 0.960 . S
C1820 H1807 0.961 . S
C1820 H1808 0.959 . S
C1820 C1818 1.561 . S
C1821 C1818 1.526 . S
C1821 C1822 1.396 . S
C1821 C1826 1.390 . S
C1822 C1816 1.465 . S
C1822 C1821 1.396 . S
C1822 C1823 1.399 . S
C1823 H1809 0.929 . S
C1823 C1822 1.399 . S
C1823 C1824 1.385 . S
C1824 H1810 0.931 . S
C1824 C1823 1.385 . S
C1824 C1825 1.389 . S
C1825 C1824 1.389 . S
C1825 C1826 1.387 . S
C1826 H1811 0.930 . S
C1826 C1821 1.390 . S
C1826 C1825 1.387 . S
H1827 C1839 0.930 . S
H1828 C1841 0.930 . S
H1829 C1842 0.930 . S
H1830 C1846 0.959 . S
H1831 C1846 0.959 . S
H1832 C1846 0.961 . S
H1833 C1847 0.960 . S
H1834 C1847 0.961 . S
H1835 C1847 0.959 . S
H1836 C1850 0.929 . S
H1837 C1851 0.931 . S
H1838 C1853 0.930 . S
C1839 H1827 0.930 . S
C1839 C1840 1.399 . S
C1839 C1844 1.399 . S
C1840 C1839 1.399 . S
C1840 C1841 1.376 . S
C1841 H1828 0.930 . S
C1841 C1840 1.376 . S
C1841 C1842 1.388 . S
C1842 H1829 0.930 . S
C1842 C1841 1.388 . S
C1842 C1843 1.390 . S
C1843 C1842 1.390 . S
C1843 C1844 1.394 . S
C1843 C1849 1.465 . S
C1844 C1839 1.399 . S
C1844 C1843 1.394 . S
C1844 C1845 1.516 . S
C1845 C1844 1.516 . S
C1845 C1846 1.502 . S
C1845 C1847 1.561 . S
C1845 C1848 1.526 . S
C1846 H1830 0.959 . S
C1846 H1831 0.959 . S
C1846 H1832 0.961 . S
C1846 C1845 1.502 . S
C1847 H1833 0.960 . S
C1847 H1834 0.961 . S
C1847 H1835 0.959 . S
C1847 C1845 1.561 . S
C1848 C1845 1.526 . S
C1848 C1849 1.396 . S
C1848 C1853 1.390 . S
C1849 C1843 1.465 . S
C1849 C1848 1.396 . S
C1849 C1850 1.399 . S
C1850 H1836 0.929 . S
C1850 C1849 1.399 . S
C1850 C1851 1.385 . S
C1851 H1837 0.931 . S
C1851 C1850 1.385 . S
C1851 C1852 1.389 . S
C1852 C1851 1.389 . S
C1852 C1853 1.387 . S
C1853 H1838 0.930 . S
C1853 C1848 1.390 . S
C1853 C1852 1.387 . S
H1854 C1866 0.930 . S
H1855 C1868 0.930 . S
H1856 C1869 0.930 . S
H1857 C1873 0.959 . S
H1858 C1873 0.959 . S
H1859 C1873 0.961 . S
H1860 C1874 0.960 . S
H1861 C1874 0.961 . S
H1862 C1874 0.959 . S
H1863 C1877 0.929 . S
H1864 C1878 0.931 . S
H1865 C1880 0.930 . S
C1866 H1854 0.930 . S
C1866 C1867 1.399 . S
C1866 C1871 1.399 . S
C1867 C1866 1.399 . S
C1867 C1868 1.376 . S
C1868 H1855 0.930 . S
C1868 C1867 1.376 . S
C1868 C1869 1.388 . S
C1869 H1856 0.930 . S
C1869 C1868 1.388 . S
C1869 C1870 1.390 . S
C1870 C1869 1.390 . S
C1870 C1871 1.394 . S
C1870 C1876 1.465 . S
C1871 C1866 1.399 . S
C1871 C1870 1.394 . S
C1871 C1872 1.516 . S
C1872 C1871 1.516 . S
C1872 C1873 1.502 . S
C1872 C1874 1.561 . S
C1872 C1875 1.526 . S
C1873 H1857 0.959 . S
C1873 H1858 0.959 . S
C1873 H1859 0.961 . S
C1873 C1872 1.502 . S
C1874 H1860 0.960 . S
C1874 H1861 0.961 . S
C1874 H1862 0.959 . S
C1874 C1872 1.561 . S
C1875 C1872 1.526 . S
C1875 C1876 1.396 . S
C1875 C1880 1.390 . S
C1876 C1870 1.465 . S
C1876 C1875 1.396 . S
C1876 C1877 1.399 . S
C1877 H1863 0.929 . S
C1877 C1876 1.399 . S
C1877 C1878 1.385 . S
C1878 H1864 0.931 . S
C1878 C1877 1.385 . S
C1878 C1879 1.389 . S
C1879 C1878 1.389 . S
C1879 C1880 1.387 . S
C1880 H1865 0.930 . S
C1880 C1875 1.390 . S
C1880 C1879 1.387 . S
H1881 C1893 0.930 . S
H1882 C1895 0.930 . S
H1883 C1896 0.930 . S
H1884 C1900 0.959 . S
H1885 C1900 0.959 . S
H1886 C1900 0.961 . S
H1887 C1901 0.960 . S
H1888 C1901 0.961 . S
H1889 C1901 0.959 . S
H1890 C1904 0.929 . S
H1891 C1905 0.931 . S
H1892 C1907 0.930 . S
C1893 H1881 0.930 . S
C1893 C1894 1.399 . S
C1893 C1898 1.399 . S
C1894 C1893 1.399 . S
C1894 C1895 1.376 . S
C1895 H1882 0.930 . S
C1895 C1894 1.376 . S
C1895 C1896 1.388 . S
C1896 H1883 0.930 . S
C1896 C1895 1.388 . S
C1896 C1897 1.390 . S
C1897 C1896 1.390 . S
C1897 C1898 1.394 . S
C1897 C1903 1.465 . S
C1898 C1893 1.399 . S
C1898 C1897 1.394 . S
C1898 C1899 1.516 . S
C1899 C1898 1.516 . S
C1899 C1900 1.502 . S
C1899 C1901 1.561 . S
C1899 C1902 1.526 . S
C1900 H1884 0.959 . S
C1900 H1885 0.959 . S
C1900 H1886 0.961 . S
C1900 C1899 1.502 . S
C1901 H1887 0.960 . S
C1901 H1888 0.961 . S
C1901 H1889 0.959 . S
C1901 C1899 1.561 . S
C1902 C1899 1.526 . S
C1902 C1903 1.396 . S
C1902 C1907 1.390 . S
C1903 C1897 1.465 . S
C1903 C1902 1.396 . S
C1903 C1904 1.399 . S
C1904 H1890 0.929 . S
C1904 C1903 1.399 . S
C1904 C1905 1.385 . S
C1905 H1891 0.931 . S
C1905 C1904 1.385 . S
C1905 C1906 1.389 . S
C1906 C1905 1.389 . S
C1906 C1907 1.387 . S
C1907 H1892 0.930 . S
C1907 C1902 1.390 . S
C1907 C1906 1.387 . S
H1908 C1920 0.930 . S
H1909 C1922 0.930 . S
H1910 C1923 0.930 . S
H1911 C1927 0.959 . S
H1912 C1927 0.959 . S
H1913 C1927 0.961 . S
H1914 C1928 0.960 . S
H1915 C1928 0.961 . S
H1916 C1928 0.959 . S
H1917 C1931 0.929 . S
H1918 C1932 0.931 . S
H1919 C1934 0.930 . S
C1920 H1908 0.930 . S
C1920 C1921 1.399 . S
C1920 C1925 1.399 . S
C1921 C1920 1.399 . S
C1921 C1922 1.376 . S
C1922 H1909 0.930 . S
C1922 C1921 1.376 . S
C1922 C1923 1.388 . S
C1923 H1910 0.930 . S
C1923 C1922 1.388 . S
C1923 C1924 1.390 . S
C1924 C1923 1.390 . S
C1924 C1925 1.394 . S
C1924 C1930 1.465 . S
C1925 C1920 1.399 . S
C1925 C1924 1.394 . S
C1925 C1926 1.516 . S
C1926 C1925 1.516 . S
C1926 C1927 1.502 . S
C1926 C1928 1.561 . S
C1926 C1929 1.526 . S
C1927 H1911 0.959 . S
C1927 H1912 0.959 . S
C1927 H1913 0.961 . S
C1927 C1926 1.502 . S
C1928 H1914 0.960 . S
C1928 H1915 0.961 . S
C1928 H1916 0.959 . S
C1928 C1926 1.561 . S
C1929 C1926 1.526 . S
C1929 C1930 1.396 . S
C1929 C1934 1.390 . S
C1930 C1924 1.465 . S
C1930 C1929 1.396 . S
C1930 C1931 1.399 . S
C1931 H1917 0.929 . S
C1931 C1930 1.399 . S
C1931 C1932 1.385 . S
C1932 H1918 0.931 . S
C1932 C1931 1.385 . S
C1932 C1933 1.389 . S
C1933 C1932 1.389 . S
C1933 C1934 1.387 . S
C1934 H1919 0.930 . S
C1934 C1929 1.390 . S
C1934 C1933 1.387 . S
H1935 C1947 0.930 . S
H1936 C1949 0.930 . S
H1937 C1950 0.930 . S
H1938 C1954 0.959 . S
H1939 C1954 0.959 . S
H1940 C1954 0.961 . S
H1941 C1955 0.960 . S
H1942 C1955 0.961 . S
H1943 C1955 0.959 . S
H1944 C1958 0.929 . S
H1945 C1959 0.931 . S
H1946 C1961 0.930 . S
C1947 H1935 0.930 . S
C1947 C1948 1.399 . S
C1947 C1952 1.399 . S
C1948 C1947 1.399 . S
C1948 C1949 1.376 . S
C1949 H1936 0.930 . S
C1949 C1948 1.376 . S
C1949 C1950 1.388 . S
C1950 H1937 0.930 . S
C1950 C1949 1.388 . S
C1950 C1951 1.390 . S
C1951 C1950 1.390 . S
C1951 C1952 1.394 . S
C1951 C1957 1.465 . S
C1952 C1947 1.399 . S
C1952 C1951 1.394 . S
C1952 C1953 1.516 . S
C1953 C1952 1.516 . S
C1953 C1954 1.502 . S
C1953 C1955 1.561 . S
C1953 C1956 1.526 . S
C1954 H1938 0.959 . S
C1954 H1939 0.959 . S
C1954 H1940 0.961 . S
C1954 C1953 1.502 . S
C1955 H1941 0.960 . S
C1955 H1942 0.961 . S
C1955 H1943 0.959 . S
C1955 C1953 1.561 . S
C1956 C1953 1.526 . S
C1956 C1957 1.396 . S
C1956 C1961 1.390 . S
C1957 C1951 1.465 . S
C1957 C1956 1.396 . S
C1957 C1958 1.399 . S
C1958 H1944 0.929 . S
C1958 C1957 1.399 . S
C1958 C1959 1.385 . S
C1959 H1945 0.931 . S
C1959 C1958 1.385 . S
C1959 C1960 1.389 . S
C1960 C1959 1.389 . S
C1960 C1961 1.387 . S
C1961 H1946 0.930 . S
C1961 C1956 1.390 . S
C1961 C1960 1.387 . S
H1962 C1974 0.930 . S
H1963 C1976 0.930 . S
H1964 C1977 0.930 . S
H1965 C1981 0.959 . S
H1966 C1981 0.959 . S
H1967 C1981 0.961 . S
H1968 C1982 0.960 . S
H1969 C1982 0.961 . S
H1970 C1982 0.959 . S
H1971 C1985 0.929 . S
H1972 C1986 0.931 . S
H1973 C1988 0.930 . S
C1974 H1962 0.930 . S
C1974 C1975 1.399 . S
C1974 C1979 1.399 . S
C1975 C1974 1.399 . S
C1975 C1976 1.376 . S
C1976 H1963 0.930 . S
C1976 C1975 1.376 . S
C1976 C1977 1.388 . S
C1977 H1964 0.930 . S
C1977 C1976 1.388 . S
C1977 C1978 1.390 . S
C1978 C1977 1.390 . S
C1978 C1979 1.394 . S
C1978 C1984 1.465 . S
C1979 C1974 1.399 . S
C1979 C1978 1.394 . S
C1979 C1980 1.516 . S
C1980 C1979 1.516 . S
C1980 C1981 1.502 . S
C1980 C1982 1.561 . S
C1980 C1983 1.526 . S
C1981 H1965 0.959 . S
C1981 H1966 0.959 . S
C1981 H1967 0.961 . S
C1981 C1980 1.502 . S
C1982 H1968 0.960 . S
C1982 H1969 0.961 . S
C1982 H1970 0.959 . S
C1982 C1980 1.561 . S
C1983 C1980 1.526 . S
C1983 C1984 1.396 . S
C1983 C1988 1.390 . S
C1984 C1978 1.465 . S
C1984 C1983 1.396 . S
C1984 C1985 1.399 . S
C1985 H1971 0.929 . S
C1985 C1984 1.399 . S
C1985 C1986 1.385 . S
C1986 H1972 0.931 . S
C1986 C1985 1.385 . S
C1986 C1987 1.389 . S
C1987 C1986 1.389 . S
C1987 C1988 1.387 . S
C1988 H1973 0.930 . S
C1988 C1983 1.390 . S
C1988 C1987 1.387 . S
H1989 C2001 0.930 . S
H1990 C2003 0.930 . S
H1991 C2004 0.930 . S
H1992 C2008 0.959 . S
H1993 C2008 0.959 . S
H1994 C2008 0.961 . S
H1995 C2009 0.960 . S
H1996 C2009 0.961 . S
H1997 C2009 0.959 . S
H1998 C2012 0.929 . S
H1999 C2013 0.931 . S
H2000 C2015 0.930 . S
C2001 H1989 0.930 . S
C2001 C2002 1.399 . S
C2001 C2006 1.399 . S
C2002 C2001 1.399 . S
C2002 C2003 1.376 . S
C2003 H1990 0.930 . S
C2003 C2002 1.376 . S
C2003 C2004 1.388 . S
C2004 H1991 0.930 . S
C2004 C2003 1.388 . S
C2004 C2005 1.390 . S
C2005 C2004 1.390 . S
C2005 C2006 1.394 . S
C2005 C2011 1.465 . S
C2006 C2001 1.399 . S
C2006 C2005 1.394 . S
C2006 C2007 1.516 . S
C2007 C2006 1.516 . S
C2007 C2008 1.502 . S
C2007 C2009 1.561 . S
C2007 C2010 1.526 . S
C2008 H1992 0.959 . S
C2008 H1993 0.959 . S
C2008 H1994 0.961 . S
C2008 C2007 1.502 . S
C2009 H1995 0.960 . S
C2009 H1996 0.961 . S
C2009 H1997 0.959 . S
C2009 C2007 1.561 . S
C2010 C2007 1.526 . S
C2010 C2011 1.396 . S
C2010 C2015 1.390 . S
C2011 C2005 1.465 . S
C2011 C2010 1.396 . S
C2011 C2012 1.399 . S
C2012 H1998 0.929 . S
C2012 C2011 1.399 . S
C2012 C2013 1.385 . S
C2013 H1999 0.931 . S
C2013 C2012 1.385 . S
C2013 C2014 1.389 . S
C2014 C2013 1.389 . S
C2014 C2015 1.387 . S
C2015 H2000 0.930 . S
C2015 C2010 1.390 . S
C2015 C2014 1.387 . S
H2016 C2028 0.930 . S
H2017 C2030 0.930 . S
H2018 C2031 0.930 . S
H2019 C2035 0.959 . S
H2020 C2035 0.959 . S
H2021 C2035 0.961 . S
H2022 C2036 0.960 . S
H2023 C2036 0.961 . S
H2024 C2036 0.959 . S
H2025 C2039 0.929 . S
H2026 C2040 0.931 . S
H2027 C2042 0.930 . S
C2028 H2016 0.930 . S
C2028 C2029 1.399 . S
C2028 C2033 1.399 . S
C2029 C2028 1.399 . S
C2029 C2030 1.376 . S
C2030 H2017 0.930 . S
C2030 C2029 1.376 . S
C2030 C2031 1.388 . S
C2031 H2018 0.930 . S
C2031 C2030 1.388 . S
C2031 C2032 1.390 . S
C2032 C2031 1.390 . S
C2032 C2033 1.394 . S
C2032 C2038 1.465 . S
C2033 C2028 1.399 . S
C2033 C2032 1.394 . S
C2033 C2034 1.516 . S
C2034 C2033 1.516 . S
C2034 C2035 1.502 . S
C2034 C2036 1.561 . S
C2034 C2037 1.526 . S
C2035 H2019 0.959 . S
C2035 H2020 0.959 . S
C2035 H2021 0.961 . S
C2035 C2034 1.502 . S
C2036 H2022 0.960 . S
C2036 H2023 0.961 . S
C2036 H2024 0.959 . S
C2036 C2034 1.561 . S
C2037 C2034 1.526 . S
C2037 C2038 1.396 . S
C2037 C2042 1.390 . S
C2038 C2032 1.465 . S
C2038 C2037 1.396 . S
C2038 C2039 1.399 . S
C2039 H2025 0.929 . S
C2039 C2038 1.399 . S
C2039 C2040 1.385 . S
C2040 H2026 0.931 . S
C2040 C2039 1.385 . S
C2040 C2041 1.389 . S
C2041 C2040 1.389 . S
C2041 C2042 1.387 . S
C2042 H2027 0.930 . S
C2042 C2037 1.390 . S
C2042 C2041 1.387 . S
H2043 C2055 0.930 . S
H2044 C2057 0.930 . S
H2045 C2058 0.930 . S
H2046 C2062 0.959 . S
H2047 C2062 0.959 . S
H2048 C2062 0.961 . S
H2049 C2063 0.960 . S
H2050 C2063 0.961 . S
H2051 C2063 0.959 . S
H2052 C2066 0.929 . S
H2053 C2067 0.931 . S
H2054 C2069 0.930 . S
C2055 H2043 0.930 . S
C2055 C2056 1.399 . S
C2055 C2060 1.399 . S
C2056 C2055 1.399 . S
C2056 C2057 1.376 . S
C2057 H2044 0.930 . S
C2057 C2056 1.376 . S
C2057 C2058 1.388 . S
C2058 H2045 0.930 . S
C2058 C2057 1.388 . S
C2058 C2059 1.390 . S
C2059 C2058 1.390 . S
C2059 C2060 1.394 . S
C2059 C2065 1.465 . S
C2060 C2055 1.399 . S
C2060 C2059 1.394 . S
C2060 C2061 1.516 . S
C2061 C2060 1.516 . S
C2061 C2062 1.502 . S
C2061 C2063 1.561 . S
C2061 C2064 1.526 . S
C2062 H2046 0.959 . S
C2062 H2047 0.959 . S
C2062 H2048 0.961 . S
C2062 C2061 1.502 . S
C2063 H2049 0.960 . S
C2063 H2050 0.961 . S
C2063 H2051 0.959 . S
C2063 C2061 1.561 . S
C2064 C2061 1.526 . S
C2064 C2065 1.396 . S
C2064 C2069 1.390 . S
C2065 C2059 1.465 . S
C2065 C2064 1.396 . S
C2065 C2066 1.399 . S
C2066 H2052 0.929 . S
C2066 C2065 1.399 . S
C2066 C2067 1.385 . S
C2067 H2053 0.931 . S
C2067 C2066 1.385 . S
C2067 C2068 1.389 . S
C2068 C2067 1.389 . S
C2068 C2069 1.387 . S
C2069 H2054 0.930 . S
C2069 C2064 1.390 . S
C2069 C2068 1.387 . S
H2070 C2082 0.930 . S
H2071 C2084 0.930 . S
H2072 C2085 0.930 . S
H2073 C2089 0.959 . S
H2074 C2089 0.959 . S
H2075 C2089 0.961 . S
H2076 C2090 0.960 . S
H2077 C2090 0.961 . S
H2078 C2090 0.959 . S
H2079 C2093 0.929 . S
H2080 C2094 0.931 . S
H2081 C2096 0.930 . S
C2082 H2070 0.930 . S
C2082 C2083 1.399 . S
C2082 C2087 1.399 . S
C2083 C2082 1.399 . S
C2083 C2084 1.376 . S
C2084 H2071 0.930 . S
C2084 C2083 1.376 . S
C2084 C2085 1.388 . S
C2085 H2072 0.930 . S
C2085 C2084 1.388 . S
C2085 C2086 1.390 . S
C2086 C2085 1.390 . S
C2086 C2087 1.394 . S
C2086 C2092 1.465 . S
C2087 C2082 1.399 . S
C2087 C2086 1.394 . S
C2087 C2088 1.516 . S
C2088 C2087 1.516 . S
C2088 C2089 1.502 . S
C2088 C2090 1.561 . S
C2088 C2091 1.526 . S
C2089 H2073 0.959 . S
C2089 H2074 0.959 . S
C2089 H2075 0.961 . S
C2089 C2088 1.502 . S
C2090 H2076 0.960 . S
C2090 H2077 0.961 . S
C2090 H2078 0.959 . S
C2090 C2088 1.561 . S
C2091 C2088 1.526 . S
C2091 C2092 1.396 . S
C2091 C2096 1.390 . S
C2092 C2086 1.465 . S
C2092 C2091 1.396 . S
C2092 C2093 1.399 . S
C2093 H2079 0.929 . S
C2093 C2092 1.399 . S
C2093 C2094 1.385 . S
C2094 H2080 0.931 . S
C2094 C2093 1.385 . S
C2094 C2095 1.389 . S
C2095 C2094 1.389 . S
C2095 C2096 1.387 . S
C2096 H2081 0.930 . S
C2096 C2091 1.390 . S
C2096 C2095 1.387 . S
H2097 C2109 0.930 . S
H2098 C2111 0.930 . S
H2099 C2112 0.930 . S
H2100 C2116 0.959 . S
H2101 C2116 0.959 . S
H2102 C2116 0.961 . S
H2103 C2117 0.960 . S
H2104 C2117 0.961 . S
H2105 C2117 0.959 . S
H2106 C2120 0.929 . S
H2107 C2121 0.931 . S
H2108 C2123 0.930 . S
C2109 H2097 0.930 . S
C2109 C2110 1.399 . S
C2109 C2114 1.399 . S
C2110 C2109 1.399 . S
C2110 C2111 1.376 . S
C2111 H2098 0.930 . S
C2111 C2110 1.376 . S
C2111 C2112 1.388 . S
C2112 H2099 0.930 . S
C2112 C2111 1.388 . S
C2112 C2113 1.390 . S
C2113 C2112 1.390 . S
C2113 C2114 1.394 . S
C2113 C2119 1.465 . S
C2114 C2109 1.399 . S
C2114 C2113 1.394 . S
C2114 C2115 1.516 . S
C2115 C2114 1.516 . S
C2115 C2116 1.502 . S
C2115 C2117 1.561 . S
C2115 C2118 1.526 . S
C2116 H2100 0.959 . S
C2116 H2101 0.959 . S
C2116 H2102 0.961 . S
C2116 C2115 1.502 . S
C2117 H2103 0.960 . S
C2117 H2104 0.961 . S
C2117 H2105 0.959 . S
C2117 C2115 1.561 . S
C2118 C2115 1.526 . S
C2118 C2119 1.396 . S
C2118 C2123 1.390 . S
C2119 C2113 1.465 . S
C2119 C2118 1.396 . S
C2119 C2120 1.399 . S
C2120 H2106 0.929 . S
C2120 C2119 1.399 . S
C2120 C2121 1.385 . S
C2121 H2107 0.931 . S
C2121 C2120 1.385 . S
C2121 C2122 1.389 . S
C2122 C2121 1.389 . S
C2122 C2123 1.387 . S
C2123 H2108 0.930 . S
C2123 C2118 1.390 . S
C2123 C2122 1.387 . S
H2124 C2136 0.930 . S
H2125 C2138 0.930 . S
H2126 C2139 0.930 . S
H2127 C2143 0.959 . S
H2128 C2143 0.959 . S
H2129 C2143 0.961 . S
H2130 C2144 0.960 . S
H2131 C2144 0.961 . S
H2132 C2144 0.959 . S
H2133 C2147 0.929 . S
H2134 C2148 0.931 . S
H2135 C2150 0.930 . S
C2136 H2124 0.930 . S
C2136 C2137 1.399 . S
C2136 C2141 1.399 . S
C2137 C2136 1.399 . S
C2137 C2138 1.376 . S
C2138 H2125 0.930 . S
C2138 C2137 1.376 . S
C2138 C2139 1.388 . S
C2139 H2126 0.930 . S
C2139 C2138 1.388 . S
C2139 C2140 1.390 . S
C2140 C2139 1.390 . S
C2140 C2141 1.394 . S
C2140 C2146 1.465 . S
C2141 C2136 1.399 . S
C2141 C2140 1.394 . S
C2141 C2142 1.516 . S
C2142 C2141 1.516 . S
C2142 C2143 1.502 . S
C2142 C2144 1.561 . S
C2142 C2145 1.526 . S
C2143 H2127 0.959 . S
C2143 H2128 0.959 . S
C2143 H2129 0.961 . S
C2143 C2142 1.502 . S
C2144 H2130 0.960 . S
C2144 H2131 0.961 . S
C2144 H2132 0.959 . S
C2144 C2142 1.561 . S
C2145 C2142 1.526 . S
C2145 C2146 1.396 . S
C2145 C2150 1.390 . S
C2146 C2140 1.465 . S
C2146 C2145 1.396 . S
C2146 C2147 1.399 . S
C2147 H2133 0.929 . S
C2147 C2146 1.399 . S
C2147 C2148 1.385 . S
C2148 H2134 0.931 . S
C2148 C2147 1.385 . S
C2148 C2149 1.389 . S
C2149 C2148 1.389 . S
C2149 C2150 1.387 . S
C2150 H2135 0.930 . S
C2150 C2145 1.390 . S
C2150 C2149 1.387 . S
H2151 C2163 0.930 . S
H2152 C2165 0.930 . S
H2153 C2166 0.930 . S
H2154 C2170 0.959 . S
H2155 C2170 0.959 . S
H2156 C2170 0.961 . S
H2157 C2171 0.960 . S
H2158 C2171 0.961 . S
H2159 C2171 0.959 . S
H2160 C2174 0.929 . S
H2161 C2175 0.931 . S
H2162 C2177 0.930 . S
C2163 H2151 0.930 . S
C2163 C2164 1.399 . S
C2163 C2168 1.399 . S
C2164 C2163 1.399 . S
C2164 C2165 1.376 . S
C2165 H2152 0.930 . S
C2165 C2164 1.376 . S
C2165 C2166 1.388 . S
C2166 H2153 0.930 . S
C2166 C2165 1.388 . S
C2166 C2167 1.390 . S
C2167 C2166 1.390 . S
C2167 C2168 1.394 . S
C2167 C2173 1.465 . S
C2168 C2163 1.399 . S
C2168 C2167 1.394 . S
C2168 C2169 1.516 . S
C2169 C2168 1.516 . S
C2169 C2170 1.502 . S
C2169 C2171 1.561 . S
C2169 C2172 1.526 . S
C2170 H2154 0.959 . S
C2170 H2155 0.959 . S
C2170 H2156 0.961 . S
C2170 C2169 1.502 . S
C2171 H2157 0.960 . S
C2171 H2158 0.961 . S
C2171 H2159 0.959 . S
C2171 C2169 1.561 . S
C2172 C2169 1.526 . S
C2172 C2173 1.396 . S
C2172 C2177 1.390 . S
C2173 C2167 1.465 . S
C2173 C2172 1.396 . S
C2173 C2174 1.399 . S
C2174 H2160 0.929 . S
C2174 C2173 1.399 . S
C2174 C2175 1.385 . S
C2175 H2161 0.931 . S
C2175 C2174 1.385 . S
C2175 C2176 1.389 . S
C2176 C2175 1.389 . S
C2176 C2177 1.387 . S
C2177 H2162 0.930 . S
C2177 C2172 1.390 . S
C2177 C2176 1.387 . S
H2178 C2190 0.930 . S
H2179 C2192 0.930 . S
H2180 C2193 0.930 . S
H2181 C2197 0.959 . S
H2182 C2197 0.959 . S
H2183 C2197 0.961 . S
H2184 C2198 0.960 . S
H2185 C2198 0.961 . S
H2186 C2198 0.959 . S
H2187 C2201 0.929 . S
H2188 C2202 0.931 . S
H2189 C2204 0.930 . S
C2190 H2178 0.930 . S
C2190 C2191 1.399 . S
C2190 C2195 1.399 . S
C2191 C2190 1.399 . S
C2191 C2192 1.376 . S
C2192 H2179 0.930 . S
C2192 C2191 1.376 . S
C2192 C2193 1.388 . S
C2193 H2180 0.930 . S
C2193 C2192 1.388 . S
C2193 C2194 1.390 . S
C2194 C2193 1.390 . S
C2194 C2195 1.394 . S
C2194 C2200 1.465 . S
C2195 C2190 1.399 . S
C2195 C2194 1.394 . S
C2195 C2196 1.516 . S
C2196 C2195 1.516 . S
C2196 C2197 1.502 . S
C2196 C2198 1.561 . S
C2196 C2199 1.526 . S
C2197 H2181 0.959 . S
C2197 H2182 0.959 . S
C2197 H2183 0.961 . S
C2197 C2196 1.502 . S
C2198 H2184 0.960 . S
C2198 H2185 0.961 . S
C2198 H2186 0.959 . S
C2198 C2196 1.561 . S
C2199 C2196 1.526 . S
C2199 C2200 1.396 . S
C2199 C2204 1.390 . S
C2200 C2194 1.465 . S
C2200 C2199 1.396 . S
C2200 C2201 1.399 . S
C2201 H2187 0.929 . S
C2201 C2200 1.399 . S
C2201 C2202 1.385 . S
C2202 H2188 0.931 . S
C2202 C2201 1.385 . S
C2202 C2203 1.389 . S
C2203 C2202 1.389 . S
C2203 C2204 1.387 . S
C2204 H2189 0.930 . S
C2204 C2199 1.390 . S
C2204 C2203 1.387 . S
H2205 C2217 0.930 . S
H2206 C2219 0.930 . S
H2207 C2220 0.930 . S
H2208 C2224 0.959 . S
H2209 C2224 0.959 . S
H2210 C2224 0.961 . S
H2211 C2225 0.960 . S
H2212 C2225 0.961 . S
H2213 C2225 0.959 . S
H2214 C2228 0.929 . S
H2215 C2229 0.931 . S
H2216 C2231 0.930 . S
C2217 H2205 0.930 . S
C2217 C2218 1.399 . S
C2217 C2222 1.399 . S
C2218 C2217 1.399 . S
C2218 C2219 1.376 . S
C2219 H2206 0.930 . S
C2219 C2218 1.376 . S
C2219 C2220 1.388 . S
C2220 H2207 0.930 . S
C2220 C2219 1.388 . S
C2220 C2221 1.390 . S
C2221 C2220 1.390 . S
C2221 C2222 1.394 . S
C2221 C2227 1.465 . S
C2222 C2217 1.399 . S
C2222 C2221 1.394 . S
C2222 C2223 1.516 . S
C2223 C2222 1.516 . S
C2223 C2224 1.502 . S
C2223 C2225 1.561 . S
C2223 C2226 1.526 . S
C2224 H2208 0.959 . S
C2224 H2209 0.959 . S
C2224 H2210 0.961 . S
C2224 C2223 1.502 . S
C2225 H2211 0.960 . S
C2225 H2212 0.961 . S
C2225 H2213 0.959 . S
C2225 C2223 1.561 . S
C2226 C2223 1.526 . S
C2226 C2227 1.396 . S
C2226 C2231 1.390 . S
C2227 C2221 1.465 . S
C2227 C2226 1.396 . S
C2227 C2228 1.399 . S
C2228 H2214 0.929 . S
C2228 C2227 1.399 . S
C2228 C2229 1.385 . S
C2229 H2215 0.931 . S
C2229 C2228 1.385 . S
C2229 C2230 1.389 . S
C2230 C2229 1.389 . S
C2230 C2231 1.387 . S
C2231 H2216 0.930 . S
C2231 C2226 1.390 . S
C2231 C2230 1.387 . S
H2232 C2244 0.930 . S
H2233 C2246 0.930 . S
H2234 C2247 0.930 . S
H2235 C2251 0.959 . S
H2236 C2251 0.959 . S
H2237 C2251 0.961 . S
H2238 C2252 0.960 . S
H2239 C2252 0.961 . S
H2240 C2252 0.959 . S
H2241 C2255 0.929 . S
H2242 C2256 0.931 . S
H2243 C2258 0.930 . S
C2244 H2232 0.930 . S
C2244 C2245 1.399 . S
C2244 C2249 1.399 . S
C2245 C2244 1.399 . S
C2245 C2246 1.376 . S
C2246 H2233 0.930 . S
C2246 C2245 1.376 . S
C2246 C2247 1.388 . S
C2247 H2234 0.930 . S
C2247 C2246 1.388 . S
C2247 C2248 1.390 . S
C2248 C2247 1.390 . S
C2248 C2249 1.394 . S
C2248 C2254 1.465 . S
C2249 C2244 1.399 . S
C2249 C2248 1.394 . S
C2249 C2250 1.516 . S
C2250 C2249 1.516 . S
C2250 C2251 1.502 . S
C2250 C2252 1.561 . S
C2250 C2253 1.526 . S
C2251 H2235 0.959 . S
C2251 H2236 0.959 . S
C2251 H2237 0.961 . S
C2251 C2250 1.502 . S
C2252 H2238 0.960 . S
C2252 H2239 0.961 . S
C2252 H2240 0.959 . S
C2252 C2250 1.561 . S
C2253 C2250 1.526 . S
C2253 C2254 1.396 . S
C2253 C2258 1.390 . S
C2254 C2248 1.465 . S
C2254 C2253 1.396 . S
C2254 C2255 1.399 . S
C2255 H2241 0.929 . S
C2255 C2254 1.399 . S
C2255 C2256 1.385 . S
C2256 H2242 0.931 . S
C2256 C2255 1.385 . S
C2256 C2257 1.389 . S
C2257 C2256 1.389 . S
C2257 C2258 1.387 . S
C2258 H2243 0.930 . S
C2258 C2253 1.390 . S
C2258 C2257 1.387 . S
H2259 C2271 0.930 . S
H2260 C2273 0.930 . S
H2261 C2274 0.930 . S
H2262 C2278 0.959 . S
H2263 C2278 0.959 . S
H2264 C2278 0.961 . S
H2265 C2279 0.960 . S
H2266 C2279 0.961 . S
H2267 C2279 0.959 . S
H2268 C2282 0.929 . S
H2269 C2283 0.931 . S
H2270 C2285 0.930 . S
C2271 H2259 0.930 . S
C2271 C2272 1.399 . S
C2271 C2276 1.399 . S
C2272 C2271 1.399 . S
C2272 C2273 1.376 . S
C2273 H2260 0.930 . S
C2273 C2272 1.376 . S
C2273 C2274 1.388 . S
C2274 H2261 0.930 . S
C2274 C2273 1.388 . S
C2274 C2275 1.390 . S
C2275 C2274 1.390 . S
C2275 C2276 1.394 . S
C2275 C2281 1.465 . S
C2276 C2271 1.399 . S
C2276 C2275 1.394 . S
C2276 C2277 1.516 . S
C2277 C2276 1.516 . S
C2277 C2278 1.502 . S
C2277 C2279 1.561 . S
C2277 C2280 1.526 . S
C2278 H2262 0.959 . S
C2278 H2263 0.959 . S
C2278 H2264 0.961 . S
C2278 C2277 1.502 . S
C2279 H2265 0.960 . S
C2279 H2266 0.961 . S
C2279 H2267 0.959 . S
C2279 C2277 1.561 . S
C2280 C2277 1.526 . S
C2280 C2281 1.396 . S
C2280 C2285 1.390 . S
C2281 C2275 1.465 . S
C2281 C2280 1.396 . S
C2281 C2282 1.399 . S
C2282 H2268 0.929 . S
C2282 C2281 1.399 . S
C2282 C2283 1.385 . S
C2283 H2269 0.931 . S
C2283 C2282 1.385 . S
C2283 C2284 1.389 . S
C2284 C2283 1.389 . S
C2284 C2285 1.387 . S
C2285 H2270 0.930 . S
C2285 C2280 1.390 . S
C2285 C2284 1.387 . S
H2286 C2298 0.930 . S
H2287 C2300 0.930 . S
H2288 C2301 0.930 . S
H2289 C2305 0.959 . S
H2290 C2305 0.959 . S
H2291 C2305 0.961 . S
H2292 C2306 0.960 . S
H2293 C2306 0.961 . S
H2294 C2306 0.959 . S
H2295 C2309 0.929 . S
H2296 C2310 0.931 . S
H2297 C2312 0.930 . S
C2298 H2286 0.930 . S
C2298 C2299 1.399 . S
C2298 C2303 1.399 . S
C2299 C2298 1.399 . S
C2299 C2300 1.376 . S
C2300 H2287 0.930 . S
C2300 C2299 1.376 . S
C2300 C2301 1.388 . S
C2301 H2288 0.930 . S
C2301 C2300 1.388 . S
C2301 C2302 1.390 . S
C2302 C2301 1.390 . S
C2302 C2303 1.394 . S
C2302 C2308 1.465 . S
C2303 C2298 1.399 . S
C2303 C2302 1.394 . S
C2303 C2304 1.516 . S
C2304 C2303 1.516 . S
C2304 C2305 1.502 . S
C2304 C2306 1.561 . S
C2304 C2307 1.526 . S
C2305 H2289 0.959 . S
C2305 H2290 0.959 . S
C2305 H2291 0.961 . S
C2305 C2304 1.502 . S
C2306 H2292 0.960 . S
C2306 H2293 0.961 . S
C2306 H2294 0.959 . S
C2306 C2304 1.561 . S
C2307 C2304 1.526 . S
C2307 C2308 1.396 . S
C2307 C2312 1.390 . S
C2308 C2302 1.465 . S
C2308 C2307 1.396 . S
C2308 C2309 1.399 . S
C2309 H2295 0.929 . S
C2309 C2308 1.399 . S
C2309 C2310 1.385 . S
C2310 H2296 0.931 . S
C2310 C2309 1.385 . S
C2310 C2311 1.389 . S
C2311 C2310 1.389 . S
C2311 C2312 1.387 . S
C2312 H2297 0.930 . S
C2312 C2307 1.390 . S
C2312 C2311 1.387 . S
H2313 C2325 0.930 . S
H2314 C2327 0.930 . S
H2315 C2328 0.930 . S
H2316 C2332 0.959 . S
H2317 C2332 0.959 . S
H2318 C2332 0.961 . S
H2319 C2333 0.960 . S
H2320 C2333 0.961 . S
H2321 C2333 0.959 . S
H2322 C2336 0.929 . S
H2323 C2337 0.931 . S
H2324 C2339 0.930 . S
C2325 H2313 0.930 . S
C2325 C2326 1.399 . S
C2325 C2330 1.399 . S
C2326 C2325 1.399 . S
C2326 C2327 1.376 . S
C2327 H2314 0.930 . S
C2327 C2326 1.376 . S
C2327 C2328 1.388 . S
C2328 H2315 0.930 . S
C2328 C2327 1.388 . S
C2328 C2329 1.390 . S
C2329 C2328 1.390 . S
C2329 C2330 1.394 . S
C2329 C2335 1.465 . S
C2330 C2325 1.399 . S
C2330 C2329 1.394 . S
C2330 C2331 1.516 . S
C2331 C2330 1.516 . S
C2331 C2332 1.502 . S
C2331 C2333 1.561 . S
C2331 C2334 1.526 . S
C2332 H2316 0.959 . S
C2332 H2317 0.959 . S
C2332 H2318 0.961 . S
C2332 C2331 1.502 . S
C2333 H2319 0.960 . S
C2333 H2320 0.961 . S
C2333 H2321 0.959 . S
C2333 C2331 1.561 . S
C2334 C2331 1.526 . S
C2334 C2335 1.396 . S
C2334 C2339 1.390 . S
C2335 C2329 1.465 . S
C2335 C2334 1.396 . S
C2335 C2336 1.399 . S
C2336 H2322 0.929 . S
C2336 C2335 1.399 . S
C2336 C2337 1.385 . S
C2337 H2323 0.931 . S
C2337 C2336 1.385 . S
C2337 C2338 1.389 . S
C2338 C2337 1.389 . S
C2338 C2339 1.387 . S
C2339 H2324 0.930 . S
C2339 C2334 1.390 . S
C2339 C2338 1.387 . S
H2340 C2352 0.930 . S
H2341 C2354 0.930 . S
H2342 C2355 0.930 . S
H2343 C2359 0.959 . S
H2344 C2359 0.959 . S
H2345 C2359 0.961 . S
H2346 C2360 0.960 . S
H2347 C2360 0.961 . S
H2348 C2360 0.959 . S
H2349 C2363 0.929 . S
H2350 C2364 0.931 . S
H2351 C2366 0.930 . S
C2352 H2340 0.930 . S
C2352 C2353 1.399 . S
C2352 C2357 1.399 . S
C2353 C2352 1.399 . S
C2353 C2354 1.376 . S
C2354 H2341 0.930 . S
C2354 C2353 1.376 . S
C2354 C2355 1.388 . S
C2355 H2342 0.930 . S
C2355 C2354 1.388 . S
C2355 C2356 1.390 . S
C2356 C2355 1.390 . S
C2356 C2357 1.394 . S
C2356 C2362 1.465 . S
C2357 C2352 1.399 . S
C2357 C2356 1.394 . S
C2357 C2358 1.516 . S
C2358 C2357 1.516 . S
C2358 C2359 1.502 . S
C2358 C2360 1.561 . S
C2358 C2361 1.526 . S
C2359 H2343 0.959 . S
C2359 H2344 0.959 . S
C2359 H2345 0.961 . S
C2359 C2358 1.502 . S
C2360 H2346 0.960 . S
C2360 H2347 0.961 . S
C2360 H2348 0.959 . S
C2360 C2358 1.561 . S
C2361 C2358 1.526 . S
C2361 C2362 1.396 . S
C2361 C2366 1.390 . S
C2362 C2356 1.465 . S
C2362 C2361 1.396 . S
C2362 C2363 1.399 . S
C2363 H2349 0.929 . S
C2363 C2362 1.399 . S
C2363 C2364 1.385 . S
C2364 H2350 0.931 . S
C2364 C2363 1.385 . S
C2364 C2365 1.389 . S
C2365 C2364 1.389 . S
C2365 C2366 1.387 . S
C2366 H2351 0.930 . S
C2366 C2361 1.390 . S
C2366 C2365 1.387 . S
H2367 C2379 0.930 . S
H2368 C2381 0.930 . S
H2369 C2382 0.930 . S
H2370 C2386 0.959 . S
H2371 C2386 0.959 . S
H2372 C2386 0.961 . S
H2373 C2387 0.960 . S
H2374 C2387 0.961 . S
H2375 C2387 0.959 . S
H2376 C2390 0.929 . S
H2377 C2391 0.931 . S
H2378 C2393 0.930 . S
C2379 H2367 0.930 . S
C2379 C2380 1.399 . S
C2379 C2384 1.399 . S
C2380 C2379 1.399 . S
C2380 C2381 1.376 . S
C2381 H2368 0.930 . S
C2381 C2380 1.376 . S
C2381 C2382 1.388 . S
C2382 H2369 0.930 . S
C2382 C2381 1.388 . S
C2382 C2383 1.390 . S
C2383 C2382 1.390 . S
C2383 C2384 1.394 . S
C2383 C2389 1.465 . S
C2384 C2379 1.399 . S
C2384 C2383 1.394 . S
C2384 C2385 1.516 . S
C2385 C2384 1.516 . S
C2385 C2386 1.502 . S
C2385 C2387 1.561 . S
C2385 C2388 1.526 . S
C2386 H2370 0.959 . S
C2386 H2371 0.959 . S
C2386 H2372 0.961 . S
C2386 C2385 1.502 . S
C2387 H2373 0.960 . S
C2387 H2374 0.961 . S
C2387 H2375 0.959 . S
C2387 C2385 1.561 . S
C2388 C2385 1.526 . S
C2388 C2389 1.396 . S
C2388 C2393 1.390 . S
C2389 C2383 1.465 . S
C2389 C2388 1.396 . S
C2389 C2390 1.399 . S
C2390 H2376 0.929 . S
C2390 C2389 1.399 . S
C2390 C2391 1.385 . S
C2391 H2377 0.931 . S
C2391 C2390 1.385 . S
C2391 C2392 1.389 . S
C2392 C2391 1.389 . S
C2392 C2393 1.387 . S
C2393 H2378 0.930 . S
C2393 C2388 1.390 . S
C2393 C2392 1.387 . S
H2394 C2406 0.930 . S
H2395 C2408 0.930 . S
H2396 C2409 0.930 . S
H2397 C2413 0.959 . S
H2398 C2413 0.959 . S
H2399 C2413 0.961 . S
H2400 C2414 0.960 . S
H2401 C2414 0.961 . S
H2402 C2414 0.959 . S
H2403 C2417 0.929 . S
H2404 C2418 0.931 . S
H2405 C2420 0.930 . S
C2406 H2394 0.930 . S
C2406 C2407 1.399 . S
C2406 C2411 1.399 . S
C2407 C2406 1.399 . S
C2407 C2408 1.376 . S
C2408 H2395 0.930 . S
C2408 C2407 1.376 . S
C2408 C2409 1.388 . S
C2409 H2396 0.930 . S
C2409 C2408 1.388 . S
C2409 C2410 1.390 . S
C2410 C2409 1.390 . S
C2410 C2411 1.394 . S
C2410 C2416 1.465 . S
C2411 C2406 1.399 . S
C2411 C2410 1.394 . S
C2411 C2412 1.516 . S
C2412 C2411 1.516 . S
C2412 C2413 1.502 . S
C2412 C2414 1.561 . S
C2412 C2415 1.526 . S
C2413 H2397 0.959 . S
C2413 H2398 0.959 . S
C2413 H2399 0.961 . S
C2413 C2412 1.502 . S
C2414 H2400 0.960 . S
C2414 H2401 0.961 . S
C2414 H2402 0.959 . S
C2414 C2412 1.561 . S
C2415 C2412 1.526 . S
C2415 C2416 1.396 . S
C2415 C2420 1.390 . S
C2416 C2410 1.465 . S
C2416 C2415 1.396 . S
C2416 C2417 1.399 . S
C2417 H2403 0.929 . S
C2417 C2416 1.399 . S
C2417 C2418 1.385 . S
C2418 H2404 0.931 . S
C2418 C2417 1.385 . S
C2418 C2419 1.389 . S
C2419 C2418 1.389 . S
C2419 C2420 1.387 . S
C2420 H2405 0.930 . S
C2420 C2415 1.390 . S
C2420 C2419 1.387 . S
H2421 C2433 0.930 . S
H2422 C2435 0.930 . S
H2423 C2436 0.930 . S
H2424 C2440 0.959 . S
H2425 C2440 0.959 . S
H2426 C2440 0.961 . S
H2427 C2441 0.960 . S
H2428 C2441 0.961 . S
H2429 C2441 0.959 . S
H2430 C2444 0.929 . S
H2431 C2445 0.931 . S
H2432 C2447 0.930 . S
C2433 H2421 0.930 . S
C2433 C2434 1.399 . S
C2433 C2438 1.399 . S
C2434 C2433 1.399 . S
C2434 C2435 1.376 . S
C2435 H2422 0.930 . S
C2435 C2434 1.376 . S
C2435 C2436 1.388 . S
C2436 H2423 0.930 . S
C2436 C2435 1.388 . S
C2436 C2437 1.390 . S
C2437 C2436 1.390 . S
C2437 C2438 1.394 . S
C2437 C2443 1.465 . S
C2438 C2433 1.399 . S
C2438 C2437 1.394 . S
C2438 C2439 1.516 . S
C2439 C2438 1.516 . S
C2439 C2440 1.502 . S
C2439 C2441 1.561 . S
C2439 C2442 1.526 . S
C2440 H2424 0.959 . S
C2440 H2425 0.959 . S
C2440 H2426 0.961 . S
C2440 C2439 1.502 . S
C2441 H2427 0.960 . S
C2441 H2428 0.961 . S
C2441 H2429 0.959 . S
C2441 C2439 1.561 . S
C2442 C2439 1.526 . S
C2442 C2443 1.396 . S
C2442 C2447 1.390 . S
C2443 C2437 1.465 . S
C2443 C2442 1.396 . S
C2443 C2444 1.399 . S
C2444 H2430 0.929 . S
C2444 C2443 1.399 . S
C2444 C2445 1.385 . S
C2445 H2431 0.931 . S
C2445 C2444 1.385 . S
C2445 C2446 1.389 . S
C2446 C2445 1.389 . S
C2446 C2447 1.387 . S
C2447 H2432 0.930 . S
C2447 C2442 1.390 . S
C2447 C2446 1.387 . S
H2448 C2460 0.930 . S
H2449 C2462 0.930 . S
H2450 C2463 0.930 . S
H2451 C2467 0.959 . S
H2452 C2467 0.959 . S
H2453 C2467 0.961 . S
H2454 C2468 0.960 . S
H2455 C2468 0.961 . S
H2456 C2468 0.959 . S
H2457 C2471 0.929 . S
H2458 C2472 0.931 . S
H2459 C2474 0.930 . S
C2460 H2448 0.930 . S
C2460 C2461 1.399 . S
C2460 C2465 1.399 . S
C2461 C2460 1.399 . S
C2461 C2462 1.376 . S
C2462 H2449 0.930 . S
C2462 C2461 1.376 . S
C2462 C2463 1.388 . S
C2463 H2450 0.930 . S
C2463 C2462 1.388 . S
C2463 C2464 1.390 . S
C2464 C2463 1.390 . S
C2464 C2465 1.394 . S
C2464 C2470 1.465 . S
C2465 C2460 1.399 . S
C2465 C2464 1.394 . S
C2465 C2466 1.516 . S
C2466 C2465 1.516 . S
C2466 C2467 1.502 . S
C2466 C2468 1.561 . S
C2466 C2469 1.526 . S
C2467 H2451 0.959 . S
C2467 H2452 0.959 . S
C2467 H2453 0.961 . S
C2467 C2466 1.502 . S
C2468 H2454 0.960 . S
C2468 H2455 0.961 . S
C2468 H2456 0.959 . S
C2468 C2466 1.561 . S
C2469 C2466 1.526 . S
C2469 C2470 1.396 . S
C2469 C2474 1.390 . S
C2470 C2464 1.465 . S
C2470 C2469 1.396 . S
C2470 C2471 1.399 . S
C2471 H2457 0.929 . S
C2471 C2470 1.399 . S
C2471 C2472 1.385 . S
C2472 H2458 0.931 . S
C2472 C2471 1.385 . S
C2472 C2473 1.389 . S
C2473 C2472 1.389 . S
C2473 C2474 1.387 . S
C2474 H2459 0.930 . S
C2474 C2469 1.390 . S
C2474 C2473 1.387 . S
H2475 C2487 0.930 . S
H2476 C2489 0.930 . S
H2477 C2490 0.930 . S
H2478 C2494 0.959 . S
H2479 C2494 0.959 . S
H2480 C2494 0.961 . S
H2481 C2495 0.960 . S
H2482 C2495 0.961 . S
H2483 C2495 0.959 . S
H2484 C2498 0.929 . S
H2485 C2499 0.931 . S
H2486 C2501 0.930 . S
C2487 H2475 0.930 . S
C2487 C2488 1.399 . S
C2487 C2492 1.399 . S
C2488 C2487 1.399 . S
C2488 C2489 1.376 . S
C2489 H2476 0.930 . S
C2489 C2488 1.376 . S
C2489 C2490 1.388 . S
C2490 H2477 0.930 . S
C2490 C2489 1.388 . S
C2490 C2491 1.390 . S
C2491 C2490 1.390 . S
C2491 C2492 1.394 . S
C2491 C2497 1.465 . S
C2492 C2487 1.399 . S
C2492 C2491 1.394 . S
C2492 C2493 1.516 . S
C2493 C2492 1.516 . S
C2493 C2494 1.502 . S
C2493 C2495 1.561 . S
C2493 C2496 1.526 . S
C2494 H2478 0.959 . S
C2494 H2479 0.959 . S
C2494 H2480 0.961 . S
C2494 C2493 1.502 . S
C2495 H2481 0.960 . S
C2495 H2482 0.961 . S
C2495 H2483 0.959 . S
C2495 C2493 1.561 . S
C2496 C2493 1.526 . S
C2496 C2497 1.396 . S
C2496 C2501 1.390 . S
C2497 C2491 1.465 . S
C2497 C2496 1.396 . S
C2497 C2498 1.399 . S
C2498 H2484 0.929 . S
C2498 C2497 1.399 . S
C2498 C2499 1.385 . S
C2499 H2485 0.931 . S
C2499 C2498 1.385 . S
C2499 C2500 1.389 . S
C2500 C2499 1.389 . S
C2500 C2501 1.387 . S
C2501 H2486 0.930 . S
C2501 C2496 1.390 . S
C2501 C2500 1.387 . S
H2502 C2514 0.930 . S
H2503 C2516 0.930 . S
H2504 C2517 0.930 . S
H2505 C2521 0.959 . S
H2506 C2521 0.959 . S
H2507 C2521 0.961 . S
H2508 C2522 0.960 . S
H2509 C2522 0.961 . S
H2510 C2522 0.959 . S
H2511 C2525 0.929 . S
H2512 C2526 0.931 . S
H2513 C2528 0.930 . S
C2514 H2502 0.930 . S
C2514 C2515 1.399 . S
C2514 C2519 1.399 . S
C2515 C2514 1.399 . S
C2515 C2516 1.376 . S
C2516 H2503 0.930 . S
C2516 C2515 1.376 . S
C2516 C2517 1.388 . S
C2517 H2504 0.930 . S
C2517 C2516 1.388 . S
C2517 C2518 1.390 . S
C2518 C2517 1.390 . S
C2518 C2519 1.394 . S
C2518 C2524 1.465 . S
C2519 C2514 1.399 . S
C2519 C2518 1.394 . S
C2519 C2520 1.516 . S
C2520 C2519 1.516 . S
C2520 C2521 1.502 . S
C2520 C2522 1.561 . S
C2520 C2523 1.526 . S
C2521 H2505 0.959 . S
C2521 H2506 0.959 . S
C2521 H2507 0.961 . S
C2521 C2520 1.502 . S
C2522 H2508 0.960 . S
C2522 H2509 0.961 . S
C2522 H2510 0.959 . S
C2522 C2520 1.561 . S
C2523 C2520 1.526 . S
C2523 C2524 1.396 . S
C2523 C2528 1.390 . S
C2524 C2518 1.465 . S
C2524 C2523 1.396 . S
C2524 C2525 1.399 . S
C2525 H2511 0.929 . S
C2525 C2524 1.399 . S
C2525 C2526 1.385 . S
C2526 H2512 0.931 . S
C2526 C2525 1.385 . S
C2526 C2527 1.389 . S
C2527 C2526 1.389 . S
C2527 C2528 1.387 . S
C2528 H2513 0.930 . S
C2528 C2523 1.390 . S
C2528 C2527 1.387 . S
H2529 C2541 0.930 . S
H2530 C2543 0.930 . S
H2531 C2544 0.930 . S
H2532 C2548 0.959 . S
H2533 C2548 0.959 . S
H2534 C2548 0.961 . S
H2535 C2549 0.960 . S
H2536 C2549 0.961 . S
H2537 C2549 0.959 . S
H2538 C2552 0.929 . S
H2539 C2553 0.931 . S
H2540 C2555 0.930 . S
C2541 H2529 0.930 . S
C2541 C2542 1.399 . S
C2541 C2546 1.399 . S
C2542 C2541 1.399 . S
C2542 C2543 1.376 . S
C2543 H2530 0.930 . S
C2543 C2542 1.376 . S
C2543 C2544 1.388 . S
C2544 H2531 0.930 . S
C2544 C2543 1.388 . S
C2544 C2545 1.390 . S
C2545 C2544 1.390 . S
C2545 C2546 1.394 . S
C2545 C2551 1.465 . S
C2546 C2541 1.399 . S
C2546 C2545 1.394 . S
C2546 C2547 1.516 . S
C2547 C2546 1.516 . S
C2547 C2548 1.502 . S
C2547 C2549 1.561 . S
C2547 C2550 1.526 . S
C2548 H2532 0.959 . S
C2548 H2533 0.959 . S
C2548 H2534 0.961 . S
C2548 C2547 1.502 . S
C2549 H2535 0.960 . S
C2549 H2536 0.961 . S
C2549 H2537 0.959 . S
C2549 C2547 1.561 . S
C2550 C2547 1.526 . S
C2550 C2551 1.396 . S
C2550 C2555 1.390 . S
C2551 C2545 1.465 . S
C2551 C2550 1.396 . S
C2551 C2552 1.399 . S
C2552 H2538 0.929 . S
C2552 C2551 1.399 . S
C2552 C2553 1.385 . S
C2553 H2539 0.931 . S
C2553 C2552 1.385 . S
C2553 C2554 1.389 . S
C2554 C2553 1.389 . S
C2554 C2555 1.387 . S
C2555 H2540 0.930 . S
C2555 C2550 1.390 . S
C2555 C2554 1.387 . S
H2556 C2568 0.930 . S
H2557 C2570 0.930 . S
H2558 C2571 0.930 . S
H2559 C2575 0.959 . S
H2560 C2575 0.959 . S
H2561 C2575 0.961 . S
H2562 C2576 0.960 . S
H2563 C2576 0.961 . S
H2564 C2576 0.959 . S
H2565 C2579 0.929 . S
H2566 C2580 0.931 . S
H2567 C2582 0.930 . S
C2568 H2556 0.930 . S
C2568 C2569 1.399 . S
C2568 C2573 1.399 . S
C2569 C2568 1.399 . S
C2569 C2570 1.376 . S
C2570 H2557 0.930 . S
C2570 C2569 1.376 . S
C2570 C2571 1.388 . S
C2571 H2558 0.930 . S
C2571 C2570 1.388 . S
C2571 C2572 1.390 . S
C2572 C2571 1.390 . S
C2572 C2573 1.394 . S
C2572 C2578 1.465 . S
C2573 C2568 1.399 . S
C2573 C2572 1.394 . S
C2573 C2574 1.516 . S
C2574 C2573 1.516 . S
C2574 C2575 1.502 . S
C2574 C2576 1.561 . S
C2574 C2577 1.526 . S
C2575 H2559 0.959 . S
C2575 H2560 0.959 . S
C2575 H2561 0.961 . S
C2575 C2574 1.502 . S
C2576 H2562 0.960 . S
C2576 H2563 0.961 . S
C2576 H2564 0.959 . S
C2576 C2574 1.561 . S
C2577 C2574 1.526 . S
C2577 C2578 1.396 . S
C2577 C2582 1.390 . S
C2578 C2572 1.465 . S
C2578 C2577 1.396 . S
C2578 C2579 1.399 . S
C2579 H2565 0.929 . S
C2579 C2578 1.399 . S
C2579 C2580 1.385 . S
C2580 H2566 0.931 . S
C2580 C2579 1.385 . S
C2580 C2581 1.389 . S
C2581 C2580 1.389 . S
C2581 C2582 1.387 . S
C2582 H2567 0.930 . S
C2582 C2577 1.390 . S
C2582 C2581 1.387 . S
H2583 C2595 0.930 . S
H2584 C2597 0.930 . S
H2585 C2598 0.930 . S
H2586 C2602 0.959 . S
H2587 C2602 0.959 . S
H2588 C2602 0.961 . S
H2589 C2603 0.960 . S
H2590 C2603 0.961 . S
H2591 C2603 0.959 . S
H2592 C2606 0.929 . S
H2593 C2607 0.931 . S
H2594 C2609 0.930 . S
C2595 H2583 0.930 . S
C2595 C2596 1.399 . S
C2595 C2600 1.399 . S
C2596 C2595 1.399 . S
C2596 C2597 1.376 . S
C2597 H2584 0.930 . S
C2597 C2596 1.376 . S
C2597 C2598 1.388 . S
C2598 H2585 0.930 . S
C2598 C2597 1.388 . S
C2598 C2599 1.390 . S
C2599 C2598 1.390 . S
C2599 C2600 1.394 . S
C2599 C2605 1.465 . S
C2600 C2595 1.399 . S
C2600 C2599 1.394 . S
C2600 C2601 1.516 . S
C2601 C2600 1.516 . S
C2601 C2602 1.502 . S
C2601 C2603 1.561 . S
C2601 C2604 1.526 . S
C2602 H2586 0.959 . S
C2602 H2587 0.959 . S
C2602 H2588 0.961 . S
C2602 C2601 1.502 . S
C2603 H2589 0.960 . S
C2603 H2590 0.961 . S
C2603 H2591 0.959 . S
C2603 C2601 1.561 . S
C2604 C2601 1.526 . S
C2604 C2605 1.396 . S
C2604 C2609 1.390 . S
C2605 C2599 1.465 . S
C2605 C2604 1.396 . S
C2605 C2606 1.399 . S
C2606 H2592 0.929 . S
C2606 C2605 1.399 . S
C2606 C2607 1.385 . S
C2607 H2593 0.931 . S
C2607 C2606 1.385 . S
C2607 C2608 1.389 . S
C2608 C2607 1.389 . S
C2608 C2609 1.387 . S
C2609 H2594 0.930 . S
C2609 C2604 1.390 . S
C2609 C2608 1.387 . S
H2610 C2622 0.930 . S
H2611 C2624 0.930 . S
H2612 C2625 0.930 . S
H2613 C2629 0.959 . S
H2614 C2629 0.959 . S
H2615 C2629 0.961 . S
H2616 C2630 0.960 . S
H2617 C2630 0.961 . S
H2618 C2630 0.959 . S
H2619 C2633 0.929 . S
H2620 C2634 0.931 . S
H2621 C2636 0.930 . S
C2622 H2610 0.930 . S
C2622 C2623 1.399 . S
C2622 C2627 1.399 . S
C2623 C2622 1.399 . S
C2623 C2624 1.376 . S
C2624 H2611 0.930 . S
C2624 C2623 1.376 . S
C2624 C2625 1.388 . S
C2625 H2612 0.930 . S
C2625 C2624 1.388 . S
C2625 C2626 1.390 . S
C2626 C2625 1.390 . S
C2626 C2627 1.394 . S
C2626 C2632 1.465 . S
C2627 C2622 1.399 . S
C2627 C2626 1.394 . S
C2627 C2628 1.516 . S
C2628 C2627 1.516 . S
C2628 C2629 1.502 . S
C2628 C2630 1.561 . S
C2628 C2631 1.526 . S
C2629 H2613 0.959 . S
C2629 H2614 0.959 . S
C2629 H2615 0.961 . S
C2629 C2628 1.502 . S
C2630 H2616 0.960 . S
C2630 H2617 0.961 . S
C2630 H2618 0.959 . S
C2630 C2628 1.561 . S
C2631 C2628 1.526 . S
C2631 C2632 1.396 . S
C2631 C2636 1.390 . S
C2632 C2626 1.465 . S
C2632 C2631 1.396 . S
C2632 C2633 1.399 . S
C2633 H2619 0.929 . S
C2633 C2632 1.399 . S
C2633 C2634 1.385 . S
C2634 H2620 0.931 . S
C2634 C2633 1.385 . S
C2634 C2635 1.389 . S
C2635 C2634 1.389 . S
C2635 C2636 1.387 . S
C2636 H2621 0.930 . S
C2636 C2631 1.390 . S
C2636 C2635 1.387 . S
H2637 C2649 0.930 . S
H2638 C2651 0.930 . S
H2639 C2652 0.930 . S
H2640 C2656 0.959 . S
H2641 C2656 0.959 . S
H2642 C2656 0.961 . S
H2643 C2657 0.960 . S
H2644 C2657 0.961 . S
H2645 C2657 0.959 . S
H2646 C2660 0.929 . S
H2647 C2661 0.931 . S
H2648 C2663 0.930 . S
C2649 H2637 0.930 . S
C2649 C2650 1.399 . S
C2649 C2654 1.399 . S
C2650 C2649 1.399 . S
C2650 C2651 1.376 . S
C2651 H2638 0.930 . S
C2651 C2650 1.376 . S
C2651 C2652 1.388 . S
C2652 H2639 0.930 . S
C2652 C2651 1.388 . S
C2652 C2653 1.390 . S
C2653 C2652 1.390 . S
C2653 C2654 1.394 . S
C2653 C2659 1.465 . S
C2654 C2649 1.399 . S
C2654 C2653 1.394 . S
C2654 C2655 1.516 . S
C2655 C2654 1.516 . S
C2655 C2656 1.502 . S
C2655 C2657 1.561 . S
C2655 C2658 1.526 . S
C2656 H2640 0.959 . S
C2656 H2641 0.959 . S
C2656 H2642 0.961 . S
C2656 C2655 1.502 . S
C2657 H2643 0.960 . S
C2657 H2644 0.961 . S
C2657 H2645 0.959 . S
C2657 C2655 1.561 . S
C2658 C2655 1.526 . S
C2658 C2659 1.396 . S
C2658 C2663 1.390 . S
C2659 C2653 1.465 . S
C2659 C2658 1.396 . S
C2659 C2660 1.399 . S
C2660 H2646 0.929 . S
C2660 C2659 1.399 . S
C2660 C2661 1.385 . S
C2661 H2647 0.931 . S
C2661 C2660 1.385 . S
C2661 C2662 1.389 . S
C2662 C2661 1.389 . S
C2662 C2663 1.387 . S
C2663 H2648 0.930 . S
C2663 C2658 1.390 . S
C2663 C2662 1.387 . S
H2664 C2676 0.930 . S
H2665 C2678 0.930 . S
H2666 C2679 0.930 . S
H2667 C2683 0.959 . S
H2668 C2683 0.959 . S
H2669 C2683 0.961 . S
H2670 C2684 0.960 . S
H2671 C2684 0.961 . S
H2672 C2684 0.959 . S
H2673 C2687 0.929 . S
H2674 C2688 0.931 . S
H2675 C2690 0.930 . S
C2676 H2664 0.930 . S
C2676 C2677 1.399 . S
C2676 C2681 1.399 . S
C2677 C2676 1.399 . S
C2677 C2678 1.376 . S
C2678 H2665 0.930 . S
C2678 C2677 1.376 . S
C2678 C2679 1.388 . S
C2679 H2666 0.930 . S
C2679 C2678 1.388 . S
C2679 C2680 1.390 . S
C2680 C2679 1.390 . S
C2680 C2681 1.394 . S
C2680 C2686 1.465 . S
C2681 C2676 1.399 . S
C2681 C2680 1.394 . S
C2681 C2682 1.516 . S
C2682 C2681 1.516 . S
C2682 C2683 1.502 . S
C2682 C2684 1.561 . S
C2682 C2685 1.526 . S
C2683 H2667 0.959 . S
C2683 H2668 0.959 . S
C2683 H2669 0.961 . S
C2683 C2682 1.502 . S
C2684 H2670 0.960 . S
C2684 H2671 0.961 . S
C2684 H2672 0.959 . S
C2684 C2682 1.561 . S
C2685 C2682 1.526 . S
C2685 C2686 1.396 . S
C2685 C2690 1.390 . S
C2686 C2680 1.465 . S
C2686 C2685 1.396 . S
C2686 C2687 1.399 . S
C2687 H2673 0.929 . S
C2687 C2686 1.399 . S
C2687 C2688 1.385 . S
C2688 H2674 0.931 . S
C2688 C2687 1.385 . S
C2688 C2689 1.389 . S
C2689 C2688 1.389 . S
C2689 C2690 1.387 . S
C2690 H2675 0.930 . S
C2690 C2685 1.390 . S
C2690 C2689 1.387 . S
H2691 C2703 0.930 . S
H2692 C2705 0.930 . S
H2693 C2706 0.930 . S
H2694 C2710 0.959 . S
H2695 C2710 0.959 . S
H2696 C2710 0.961 . S
H2697 C2711 0.960 . S
H2698 C2711 0.961 . S
H2699 C2711 0.959 . S
H2700 C2714 0.929 . S
H2701 C2715 0.931 . S
H2702 C2717 0.930 . S
C2703 H2691 0.930 . S
C2703 C2704 1.399 . S
C2703 C2708 1.399 . S
C2704 C2703 1.399 . S
C2704 C2705 1.376 . S
C2705 H2692 0.930 . S
C2705 C2704 1.376 . S
C2705 C2706 1.388 . S
C2706 H2693 0.930 . S
C2706 C2705 1.388 . S
C2706 C2707 1.390 . S
C2707 C2706 1.390 . S
C2707 C2708 1.394 . S
C2707 C2713 1.465 . S
C2708 C2703 1.399 . S
C2708 C2707 1.394 . S
C2708 C2709 1.516 . S
C2709 C2708 1.516 . S
C2709 C2710 1.502 . S
C2709 C2711 1.561 . S
C2709 C2712 1.526 . S
C2710 H2694 0.959 . S
C2710 H2695 0.959 . S
C2710 H2696 0.961 . S
C2710 C2709 1.502 . S
C2711 H2697 0.960 . S
C2711 H2698 0.961 . S
C2711 H2699 0.959 . S
C2711 C2709 1.561 . S
C2712 C2709 1.526 . S
C2712 C2713 1.396 . S
C2712 C2717 1.390 . S
C2713 C2707 1.465 . S
C2713 C2712 1.396 . S
C2713 C2714 1.399 . S
C2714 H2700 0.929 . S
C2714 C2713 1.399 . S
C2714 C2715 1.385 . S
C2715 H2701 0.931 . S
C2715 C2714 1.385 . S
C2715 C2716 1.389 . S
C2716 C2715 1.389 . S
C2716 C2717 1.387 . S
C2717 H2702 0.930 . S
C2717 C2712 1.390 . S
C2717 C2716 1.387 . S
H2718 C2730 0.930 . S
H2719 C2732 0.930 . S
H2720 C2733 0.930 . S
H2721 C2737 0.959 . S
H2722 C2737 0.959 . S
H2723 C2737 0.961 . S
H2724 C2738 0.960 . S
H2725 C2738 0.961 . S
H2726 C2738 0.959 . S
H2727 C2741 0.929 . S
H2728 C2742 0.931 . S
H2729 C2744 0.930 . S
C2730 H2718 0.930 . S
C2730 C2731 1.399 . S
C2730 C2735 1.399 . S
C2731 C2730 1.399 . S
C2731 C2732 1.376 . S
C2732 H2719 0.930 . S
C2732 C2731 1.376 . S
C2732 C2733 1.388 . S
C2733 H2720 0.930 . S
C2733 C2732 1.388 . S
C2733 C2734 1.390 . S
C2734 C2733 1.390 . S
C2734 C2735 1.394 . S
C2734 C2740 1.465 . S
C2735 C2730 1.399 . S
C2735 C2734 1.394 . S
C2735 C2736 1.516 . S
C2736 C2735 1.516 . S
C2736 C2737 1.502 . S
C2736 C2738 1.561 . S
C2736 C2739 1.526 . S
C2737 H2721 0.959 . S
C2737 H2722 0.959 . S
C2737 H2723 0.961 . S
C2737 C2736 1.502 . S
C2738 H2724 0.960 . S
C2738 H2725 0.961 . S
C2738 H2726 0.959 . S
C2738 C2736 1.561 . S
C2739 C2736 1.526 . S
C2739 C2740 1.396 . S
C2739 C2744 1.390 . S
C2740 C2734 1.465 . S
C2740 C2739 1.396 . S
C2740 C2741 1.399 . S
C2741 H2727 0.929 . S
C2741 C2740 1.399 . S
C2741 C2742 1.385 . S
C2742 H2728 0.931 . S
C2742 C2741 1.385 . S
C2742 C2743 1.389 . S
C2743 C2742 1.389 . S
C2743 C2744 1.387 . S
C2744 H2729 0.930 . S
C2744 C2739 1.390 . S
C2744 C2743 1.387 . S
H2745 C2757 0.930 . S
H2746 C2759 0.930 . S
H2747 C2760 0.930 . S
H2748 C2764 0.959 . S
H2749 C2764 0.959 . S
H2750 C2764 0.961 . S
H2751 C2765 0.960 . S
H2752 C2765 0.961 . S
H2753 C2765 0.959 . S
H2754 C2768 0.929 . S
H2755 C2769 0.931 . S
H2756 C2771 0.930 . S
C2757 H2745 0.930 . S
C2757 C2758 1.399 . S
C2757 C2762 1.399 . S
C2758 C2757 1.399 . S
C2758 C2759 1.376 . S
C2759 H2746 0.930 . S
C2759 C2758 1.376 . S
C2759 C2760 1.388 . S
C2760 H2747 0.930 . S
C2760 C2759 1.388 . S
C2760 C2761 1.390 . S
C2761 C2760 1.390 . S
C2761 C2762 1.394 . S
C2761 C2767 1.465 . S
C2762 C2757 1.399 . S
C2762 C2761 1.394 . S
C2762 C2763 1.516 . S
C2763 C2762 1.516 . S
C2763 C2764 1.502 . S
C2763 C2765 1.561 . S
C2763 C2766 1.526 . S
C2764 H2748 0.959 . S
C2764 H2749 0.959 . S
C2764 H2750 0.961 . S
C2764 C2763 1.502 . S
C2765 H2751 0.960 . S
C2765 H2752 0.961 . S
C2765 H2753 0.959 . S
C2765 C2763 1.561 . S
C2766 C2763 1.526 . S
C2766 C2767 1.396 . S
C2766 C2771 1.390 . S
C2767 C2761 1.465 . S
C2767 C2766 1.396 . S
C2767 C2768 1.399 . S
C2768 H2754 0.929 . S
C2768 C2767 1.399 . S
C2768 C2769 1.385 . S
C2769 H2755 0.931 . S
C2769 C2768 1.385 . S
C2769 C2770 1.389 . S
C2770 C2769 1.389 . S
C2770 C2771 1.387 . S
C2771 H2756 0.930 . S
C2771 C2766 1.390 . S
C2771 C2770 1.387 . S
H2772 C2784 0.930 . S
H2773 C2786 0.930 . S
H2774 C2787 0.930 . S
H2775 C2791 0.959 . S
H2776 C2791 0.959 . S
H2777 C2791 0.961 . S
H2778 C2792 0.960 . S
H2779 C2792 0.961 . S
H2780 C2792 0.959 . S
H2781 C2795 0.929 . S
H2782 C2796 0.931 . S
H2783 C2798 0.930 . S
C2784 H2772 0.930 . S
C2784 C2785 1.399 . S
C2784 C2789 1.399 . S
C2785 C2784 1.399 . S
C2785 C2786 1.376 . S
C2786 H2773 0.930 . S
C2786 C2785 1.376 . S
C2786 C2787 1.388 . S
C2787 H2774 0.930 . S
C2787 C2786 1.388 . S
C2787 C2788 1.390 . S
C2788 C2787 1.390 . S
C2788 C2789 1.394 . S
C2788 C2794 1.465 . S
C2789 C2784 1.399 . S
C2789 C2788 1.394 . S
C2789 C2790 1.516 . S
C2790 C2789 1.516 . S
C2790 C2791 1.502 . S
C2790 C2792 1.561 . S
C2790 C2793 1.526 . S
C2791 H2775 0.959 . S
C2791 H2776 0.959 . S
C2791 H2777 0.961 . S
C2791 C2790 1.502 . S
C2792 H2778 0.960 . S
C2792 H2779 0.961 . S
C2792 H2780 0.959 . S
C2792 C2790 1.561 . S
C2793 C2790 1.526 . S
C2793 C2794 1.396 . S
C2793 C2798 1.390 . S
C2794 C2788 1.465 . S
C2794 C2793 1.396 . S
C2794 C2795 1.399 . S
C2795 H2781 0.929 . S
C2795 C2794 1.399 . S
C2795 C2796 1.385 . S
C2796 H2782 0.931 . S
C2796 C2795 1.385 . S
C2796 C2797 1.389 . S
C2797 C2796 1.389 . S
C2797 C2798 1.387 . S
C2798 H2783 0.930 . S
C2798 C2793 1.390 . S
C2798 C2797 1.387 . S
H2799 C2811 0.930 . S
H2800 C2813 0.930 . S
H2801 C2814 0.930 . S
H2802 C2818 0.959 . S
H2803 C2818 0.959 . S
H2804 C2818 0.961 . S
H2805 C2819 0.960 . S
H2806 C2819 0.961 . S
H2807 C2819 0.959 . S
H2808 C2822 0.929 . S
H2809 C2823 0.931 . S
H2810 C2825 0.930 . S
C2811 H2799 0.930 . S
C2811 C2812 1.399 . S
C2811 C2816 1.399 . S
C2812 C2811 1.399 . S
C2812 C2813 1.376 . S
C2813 H2800 0.930 . S
C2813 C2812 1.376 . S
C2813 C2814 1.388 . S
C2814 H2801 0.930 . S
C2814 C2813 1.388 . S
C2814 C2815 1.390 . S
C2815 C2814 1.390 . S
C2815 C2816 1.394 . S
C2815 C2821 1.465 . S
C2816 C2811 1.399 . S
C2816 C2815 1.394 . S
C2816 C2817 1.516 . S
C2817 C2816 1.516 . S
C2817 C2818 1.502 . S
C2817 C2819 1.561 . S
C2817 C2820 1.526 . S
C2818 H2802 0.959 . S
C2818 H2803 0.959 . S
C2818 H2804 0.961 . S
C2818 C2817 1.502 . S
C2819 H2805 0.960 . S
C2819 H2806 0.961 . S
C2819 H2807 0.959 . S
C2819 C2817 1.561 . S
C2820 C2817 1.526 . S
C2820 C2821 1.396 . S
C2820 C2825 1.390 . S
C2821 C2815 1.465 . S
C2821 C2820 1.396 . S
C2821 C2822 1.399 . S
C2822 H2808 0.929 . S
C2822 C2821 1.399 . S
C2822 C2823 1.385 . S
C2823 H2809 0.931 . S
C2823 C2822 1.385 . S
C2823 C2824 1.389 . S
C2824 C2823 1.389 . S
C2824 C2825 1.387 . S
C2825 H2810 0.930 . S
C2825 C2820 1.390 . S
C2825 C2824 1.387 . S
H2826 C2838 0.930 . S
H2827 C2840 0.930 . S
H2828 C2841 0.930 . S
H2829 C2845 0.959 . S
H2830 C2845 0.959 . S
H2831 C2845 0.961 . S
H2832 C2846 0.960 . S
H2833 C2846 0.961 . S
H2834 C2846 0.959 . S
H2835 C2849 0.929 . S
H2836 C2850 0.931 . S
H2837 C2852 0.930 . S
C2838 H2826 0.930 . S
C2838 C2839 1.399 . S
C2838 C2843 1.399 . S
C2839 C2838 1.399 . S
C2839 C2840 1.376 . S
C2840 H2827 0.930 . S
C2840 C2839 1.376 . S
C2840 C2841 1.388 . S
C2841 H2828 0.930 . S
C2841 C2840 1.388 . S
C2841 C2842 1.390 . S
C2842 C2841 1.390 . S
C2842 C2843 1.394 . S
C2842 C2848 1.465 . S
C2843 C2838 1.399 . S
C2843 C2842 1.394 . S
C2843 C2844 1.516 . S
C2844 C2843 1.516 . S
C2844 C2845 1.502 . S
C2844 C2846 1.561 . S
C2844 C2847 1.526 . S
C2845 H2829 0.959 . S
C2845 H2830 0.959 . S
C2845 H2831 0.961 . S
C2845 C2844 1.502 . S
C2846 H2832 0.960 . S
C2846 H2833 0.961 . S
C2846 H2834 0.959 . S
C2846 C2844 1.561 . S
C2847 C2844 1.526 . S
C2847 C2848 1.396 . S
C2847 C2852 1.390 . S
C2848 C2842 1.465 . S
C2848 C2847 1.396 . S
C2848 C2849 1.399 . S
C2849 H2835 0.929 . S
C2849 C2848 1.399 . S
C2849 C2850 1.385 . S
C2850 H2836 0.931 . S
C2850 C2849 1.385 . S
C2850 C2851 1.389 . S
C2851 C2850 1.389 . S
C2851 C2852 1.387 . S
C2852 H2837 0.930 . S
C2852 C2847 1.390 . S
C2852 C2851 1.387 . S
H2853 C2865 0.930 . S
H2854 C2867 0.930 . S
H2855 C2868 0.930 . S
H2856 C2872 0.959 . S
H2857 C2872 0.959 . S
H2858 C2872 0.961 . S
H2859 C2873 0.960 . S
H2860 C2873 0.961 . S
H2861 C2873 0.959 . S
H2862 C2876 0.929 . S
H2863 C2877 0.931 . S
H2864 C2879 0.930 . S
C2865 H2853 0.930 . S
C2865 C2866 1.399 . S
C2865 C2870 1.399 . S
C2866 C2865 1.399 . S
C2866 C2867 1.376 . S
C2867 H2854 0.930 . S
C2867 C2866 1.376 . S
C2867 C2868 1.388 . S
C2868 H2855 0.930 . S
C2868 C2867 1.388 . S
C2868 C2869 1.390 . S
C2869 C2868 1.390 . S
C2869 C2870 1.394 . S
C2869 C2875 1.465 . S
C2870 C2865 1.399 . S
C2870 C2869 1.394 . S
C2870 C2871 1.516 . S
C2871 C2870 1.516 . S
C2871 C2872 1.502 . S
C2871 C2873 1.561 . S
C2871 C2874 1.526 . S
C2872 H2856 0.959 . S
C2872 H2857 0.959 . S
C2872 H2858 0.961 . S
C2872 C2871 1.502 . S
C2873 H2859 0.960 . S
C2873 H2860 0.961 . S
C2873 H2861 0.959 . S
C2873 C2871 1.561 . S
C2874 C2871 1.526 . S
C2874 C2875 1.396 . S
C2874 C2879 1.390 . S
C2875 C2869 1.465 . S
C2875 C2874 1.396 . S
C2875 C2876 1.399 . S
C2876 H2862 0.929 . S
C2876 C2875 1.399 . S
C2876 C2877 1.385 . S
C2877 H2863 0.931 . S
C2877 C2876 1.385 . S
C2877 C2878 1.389 . S
C2878 C2877 1.389 . S
C2878 C2879 1.387 . S
C2879 H2864 0.930 . S
C2879 C2874 1.390 . S
C2879 C2878 1.387 . S
H2880 C2892 0.930 . S
H2881 C2894 0.930 . S
H2882 C2895 0.930 . S
H2883 C2899 0.959 . S
H2884 C2899 0.959 . S
H2885 C2899 0.961 . S
H2886 C2900 0.960 . S
H2887 C2900 0.961 . S
H2888 C2900 0.959 . S
H2889 C2903 0.929 . S
H2890 C2904 0.931 . S
H2891 C2906 0.930 . S
C2892 H2880 0.930 . S
C2892 C2893 1.399 . S
C2892 C2897 1.399 . S
C2893 C2892 1.399 . S
C2893 C2894 1.376 . S
C2894 H2881 0.930 . S
C2894 C2893 1.376 . S
C2894 C2895 1.388 . S
C2895 H2882 0.930 . S
C2895 C2894 1.388 . S
C2895 C2896 1.390 . S
C2896 C2895 1.390 . S
C2896 C2897 1.394 . S
C2896 C2902 1.465 . S
C2897 C2892 1.399 . S
C2897 C2896 1.394 . S
C2897 C2898 1.516 . S
C2898 C2897 1.516 . S
C2898 C2899 1.502 . S
C2898 C2900 1.561 . S
C2898 C2901 1.526 . S
C2899 H2883 0.959 . S
C2899 H2884 0.959 . S
C2899 H2885 0.961 . S
C2899 C2898 1.502 . S
C2900 H2886 0.960 . S
C2900 H2887 0.961 . S
C2900 H2888 0.959 . S
C2900 C2898 1.561 . S
C2901 C2898 1.526 . S
C2901 C2902 1.396 . S
C2901 C2906 1.390 . S
C2902 C2896 1.465 . S
C2902 C2901 1.396 . S
C2902 C2903 1.399 . S
C2903 H2889 0.929 . S
C2903 C2902 1.399 . S
C2903 C2904 1.385 . S
C2904 H2890 0.931 . S
C2904 C2903 1.385 . S
C2904 C2905 1.389 . S
C2905 C2904 1.389 . S
C2905 C2906 1.387 . S
C2906 H2891 0.930 . S
C2906 C2901 1.390 . S
C2906 C2905 1.387 . S
H2907 C2919 0.930 . S
H2908 C2921 0.930 . S
H2909 C2922 0.930 . S
H2910 C2926 0.959 . S
H2911 C2926 0.959 . S
H2912 C2926 0.961 . S
H2913 C2927 0.960 . S
H2914 C2927 0.961 . S
H2915 C2927 0.959 . S
H2916 C2930 0.929 . S
H2917 C2931 0.931 . S
H2918 C2933 0.930 . S
C2919 H2907 0.930 . S
C2919 C2920 1.399 . S
C2919 C2924 1.399 . S
C2920 C2919 1.399 . S
C2920 C2921 1.376 . S
C2921 H2908 0.930 . S
C2921 C2920 1.376 . S
C2921 C2922 1.388 . S
C2922 H2909 0.930 . S
C2922 C2921 1.388 . S
C2922 C2923 1.390 . S
C2923 C2922 1.390 . S
C2923 C2924 1.394 . S
C2923 C2929 1.465 . S
C2924 C2919 1.399 . S
C2924 C2923 1.394 . S
C2924 C2925 1.516 . S
C2925 C2924 1.516 . S
C2925 C2926 1.502 . S
C2925 C2927 1.561 . S
C2925 C2928 1.526 . S
C2926 H2910 0.959 . S
C2926 H2911 0.959 . S
C2926 H2912 0.961 . S
C2926 C2925 1.502 . S
C2927 H2913 0.960 . S
C2927 H2914 0.961 . S
C2927 H2915 0.959 . S
C2927 C2925 1.561 . S
C2928 C2925 1.526 . S
C2928 C2929 1.396 . S
C2928 C2933 1.390 . S
C2929 C2923 1.465 . S
C2929 C2928 1.396 . S
C2929 C2930 1.399 . S
C2930 H2916 0.929 . S
C2930 C2929 1.399 . S
C2930 C2931 1.385 . S
C2931 H2917 0.931 . S
C2931 C2930 1.385 . S
C2931 C2932 1.389 . S
C2932 C2931 1.389 . S
C2932 C2933 1.387 . S
C2933 H2918 0.930 . S
C2933 C2928 1.390 . S
C2933 C2932 1.387 . S
H2934 C2946 0.930 . S
H2935 C2948 0.930 . S
H2936 C2949 0.930 . S
H2937 C2953 0.959 . S
H2938 C2953 0.959 . S
H2939 C2953 0.961 . S
H2940 C2954 0.960 . S
H2941 C2954 0.961 . S
H2942 C2954 0.959 . S
H2943 C2957 0.929 . S
H2944 C2958 0.931 . S
H2945 C2960 0.930 . S
C2946 H2934 0.930 . S
C2946 C2947 1.399 . S
C2946 C2951 1.399 . S
C2947 C2946 1.399 . S
C2947 C2948 1.376 . S
C2948 H2935 0.930 . S
C2948 C2947 1.376 . S
C2948 C2949 1.388 . S
C2949 H2936 0.930 . S
C2949 C2948 1.388 . S
C2949 C2950 1.390 . S
C2950 C2949 1.390 . S
C2950 C2951 1.394 . S
C2950 C2956 1.465 . S
C2951 C2946 1.399 . S
C2951 C2950 1.394 . S
C2951 C2952 1.516 . S
C2952 C2951 1.516 . S
C2952 C2953 1.502 . S
C2952 C2954 1.561 . S
C2952 C2955 1.526 . S
C2953 H2937 0.959 . S
C2953 H2938 0.959 . S
C2953 H2939 0.961 . S
C2953 C2952 1.502 . S
C2954 H2940 0.960 . S
C2954 H2941 0.961 . S
C2954 H2942 0.959 . S
C2954 C2952 1.561 . S
C2955 C2952 1.526 . S
C2955 C2956 1.396 . S
C2955 C2960 1.390 . S
C2956 C2950 1.465 . S
C2956 C2955 1.396 . S
C2956 C2957 1.399 . S
C2957 H2943 0.929 . S
C2957 C2956 1.399 . S
C2957 C2958 1.385 . S
C2958 H2944 0.931 . S
C2958 C2957 1.385 . S
C2958 C2959 1.389 . S
C2959 C2958 1.389 . S
C2959 C2960 1.387 . S
C2960 H2945 0.930 . S
C2960 C2955 1.390 . S
C2960 C2959 1.387 . S
H2961 C2973 0.930 . S
H2962 C2975 0.930 . S
H2963 C2976 0.930 . S
H2964 C2980 0.959 . S
H2965 C2980 0.959 . S
H2966 C2980 0.961 . S
H2967 C2981 0.960 . S
H2968 C2981 0.961 . S
H2969 C2981 0.959 . S
H2970 C2984 0.929 . S
H2971 C2985 0.931 . S
H2972 C2987 0.930 . S
C2973 H2961 0.930 . S
C2973 C2974 1.399 . S
C2973 C2978 1.399 . S
C2974 C2973 1.399 . S
C2974 C2975 1.376 . S
C2975 H2962 0.930 . S
C2975 C2974 1.376 . S
C2975 C2976 1.388 . S
C2976 H2963 0.930 . S
C2976 C2975 1.388 . S
C2976 C2977 1.390 . S
C2977 C2976 1.390 . S
C2977 C2978 1.394 . S
C2977 C2983 1.465 . S
C2978 C2973 1.399 . S
C2978 C2977 1.394 . S
C2978 C2979 1.516 . S
C2979 C2978 1.516 . S
C2979 C2980 1.502 . S
C2979 C2981 1.561 . S
C2979 C2982 1.526 . S
C2980 H2964 0.959 . S
C2980 H2965 0.959 . S
C2980 H2966 0.961 . S
C2980 C2979 1.502 . S
C2981 H2967 0.960 . S
C2981 H2968 0.961 . S
C2981 H2969 0.959 . S
C2981 C2979 1.561 . S
C2982 C2979 1.526 . S
C2982 C2983 1.396 . S
C2982 C2987 1.390 . S
C2983 C2977 1.465 . S
C2983 C2982 1.396 . S
C2983 C2984 1.399 . S
C2984 H2970 0.929 . S
C2984 C2983 1.399 . S
C2984 C2985 1.385 . S
C2985 H2971 0.931 . S
C2985 C2984 1.385 . S
C2985 C2986 1.389 . S
C2986 C2985 1.389 . S
C2986 C2987 1.387 . S
C2987 H2972 0.930 . S
C2987 C2982 1.390 . S
C2987 C2986 1.387 . S
H2988 C3000 0.930 . S
H2989 C3002 0.930 . S
H2990 C3003 0.930 . S
H2991 C3007 0.959 . S
H2992 C3007 0.959 . S
H2993 C3007 0.961 . S
H2994 C3008 0.960 . S
H2995 C3008 0.961 . S
H2996 C3008 0.959 . S
H2997 C3011 0.929 . S
H2998 C3012 0.931 . S
H2999 C3014 0.930 . S
C3000 H2988 0.930 . S
C3000 C3001 1.399 . S
C3000 C3005 1.399 . S
C3001 C3000 1.399 . S
C3001 C3002 1.376 . S
C3002 H2989 0.930 . S
C3002 C3001 1.376 . S
C3002 C3003 1.388 . S
C3003 H2990 0.930 . S
C3003 C3002 1.388 . S
C3003 C3004 1.390 . S
C3004 C3003 1.390 . S
C3004 C3005 1.394 . S
C3004 C3010 1.465 . S
C3005 C3000 1.399 . S
C3005 C3004 1.394 . S
C3005 C3006 1.516 . S
C3006 C3005 1.516 . S
C3006 C3007 1.502 . S
C3006 C3008 1.561 . S
C3006 C3009 1.526 . S
C3007 H2991 0.959 . S
C3007 H2992 0.959 . S
C3007 H2993 0.961 . S
C3007 C3006 1.502 . S
C3008 H2994 0.960 . S
C3008 H2995 0.961 . S
C3008 H2996 0.959 . S
C3008 C3006 1.561 . S
C3009 C3006 1.526 . S
C3009 C3010 1.396 . S
C3009 C3014 1.390 . S
C3010 C3004 1.465 . S
C3010 C3009 1.396 . S
C3010 C3011 1.399 . S
C3011 H2997 0.929 . S
C3011 C3010 1.399 . S
C3011 C3012 1.385 . S
C3012 H2998 0.931 . S
C3012 C3011 1.385 . S
C3012 C3013 1.389 . S
C3013 C3012 1.389 . S
C3013 C3014 1.387 . S
C3014 H2999 0.930 . S
C3014 C3009 1.390 . S
C3014 C3013 1.387 . S
H3015 C3027 0.930 . S
H3016 C3029 0.930 . S
H3017 C3030 0.930 . S
H3018 C3034 0.959 . S
H3019 C3034 0.959 . S
H3020 C3034 0.961 . S
H3021 C3035 0.960 . S
H3022 C3035 0.961 . S
H3023 C3035 0.959 . S
H3024 C3038 0.929 . S
H3025 C3039 0.931 . S
H3026 C3041 0.930 . S
C3027 H3015 0.930 . S
C3027 C3028 1.399 . S
C3027 C3032 1.399 . S
C3028 C3027 1.399 . S
C3028 C3029 1.376 . S
C3029 H3016 0.930 . S
C3029 C3028 1.376 . S
C3029 C3030 1.388 . S
C3030 H3017 0.930 . S
C3030 C3029 1.388 . S
C3030 C3031 1.390 . S
C3031 C3030 1.390 . S
C3031 C3032 1.394 . S
C3031 C3037 1.465 . S
C3032 C3027 1.399 . S
C3032 C3031 1.394 . S
C3032 C3033 1.516 . S
C3033 C3032 1.516 . S
C3033 C3034 1.502 . S
C3033 C3035 1.561 . S
C3033 C3036 1.526 . S
C3034 H3018 0.959 . S
C3034 H3019 0.959 . S
C3034 H3020 0.961 . S
C3034 C3033 1.502 . S
C3035 H3021 0.960 . S
C3035 H3022 0.961 . S
C3035 H3023 0.959 . S
C3035 C3033 1.561 . S
C3036 C3033 1.526 . S
C3036 C3037 1.396 . S
C3036 C3041 1.390 . S
C3037 C3031 1.465 . S
C3037 C3036 1.396 . S
C3037 C3038 1.399 . S
C3038 H3024 0.929 . S
C3038 C3037 1.399 . S
C3038 C3039 1.385 . S
C3039 H3025 0.931 . S
C3039 C3038 1.385 . S
C3039 C3040 1.389 . S
C3040 C3039 1.389 . S
C3040 C3041 1.387 . S
C3041 H3026 0.930 . S
C3041 C3036 1.390 . S
C3041 C3040 1.387 . S
H3042 C3054 0.930 . S
H3043 C3056 0.930 . S
H3044 C3057 0.930 . S
H3045 C3061 0.959 . S
H3046 C3061 0.959 . S
H3047 C3061 0.961 . S
H3048 C3062 0.960 . S
H3049 C3062 0.961 . S
H3050 C3062 0.959 . S
H3051 C3065 0.929 . S
H3052 C3066 0.931 . S
H3053 C3068 0.930 . S
C3054 H3042 0.930 . S
C3054 C3055 1.399 . S
C3054 C3059 1.399 . S
C3055 C3054 1.399 . S
C3055 C3056 1.376 . S
C3056 H3043 0.930 . S
C3056 C3055 1.376 . S
C3056 C3057 1.388 . S
C3057 H3044 0.930 . S
C3057 C3056 1.388 . S
C3057 C3058 1.390 . S
C3058 C3057 1.390 . S
C3058 C3059 1.394 . S
C3058 C3064 1.465 . S
C3059 C3054 1.399 . S
C3059 C3058 1.394 . S
C3059 C3060 1.516 . S
C3060 C3059 1.516 . S
C3060 C3061 1.502 . S
C3060 C3062 1.561 . S
C3060 C3063 1.526 . S
C3061 H3045 0.959 . S
C3061 H3046 0.959 . S
C3061 H3047 0.961 . S
C3061 C3060 1.502 . S
C3062 H3048 0.960 . S
C3062 H3049 0.961 . S
C3062 H3050 0.959 . S
C3062 C3060 1.561 . S
C3063 C3060 1.526 . S
C3063 C3064 1.396 . S
C3063 C3068 1.390 . S
C3064 C3058 1.465 . S
C3064 C3063 1.396 . S
C3064 C3065 1.399 . S
C3065 H3051 0.929 . S
C3065 C3064 1.399 . S
C3065 C3066 1.385 . S
C3066 H3052 0.931 . S
C3066 C3065 1.385 . S
C3066 C3067 1.389 . S
C3067 C3066 1.389 . S
C3067 C3068 1.387 . S
C3068 H3053 0.930 . S
C3068 C3063 1.390 . S
C3068 C3067 1.387 . S
H3069 C3081 0.930 . S
H3070 C3083 0.930 . S
H3071 C3084 0.930 . S
H3072 C3088 0.959 . S
H3073 C3088 0.959 . S
H3074 C3088 0.961 . S
H3075 C3089 0.960 . S
H3076 C3089 0.961 . S
H3077 C3089 0.959 . S
H3078 C3092 0.929 . S
H3079 C3093 0.931 . S
H3080 C3095 0.930 . S
C3081 H3069 0.930 . S
C3081 C3082 1.399 . S
C3081 C3086 1.399 . S
C3082 C3081 1.399 . S
C3082 C3083 1.376 . S
C3083 H3070 0.930 . S
C3083 C3082 1.376 . S
C3083 C3084 1.388 . S
C3084 H3071 0.930 . S
C3084 C3083 1.388 . S
C3084 C3085 1.390 . S
C3085 C3084 1.390 . S
C3085 C3086 1.394 . S
C3085 C3091 1.465 . S
C3086 C3081 1.399 . S
C3086 C3085 1.394 . S
C3086 C3087 1.516 . S
C3087 C3086 1.516 . S
C3087 C3088 1.502 . S
C3087 C3089 1.561 . S
C3087 C3090 1.526 . S
C3088 H3072 0.959 . S
C3088 H3073 0.959 . S
C3088 H3074 0.961 . S
C3088 C3087 1.502 . S
C3089 H3075 0.960 . S
C3089 H3076 0.961 . S
C3089 H3077 0.959 . S
C3089 C3087 1.561 . S
C3090 C3087 1.526 . S
C3090 C3091 1.396 . S
C3090 C3095 1.390 . S
C3091 C3085 1.465 . S
C3091 C3090 1.396 . S
C3091 C3092 1.399 . S
C3092 H3078 0.929 . S
C3092 C3091 1.399 . S
C3092 C3093 1.385 . S
C3093 H3079 0.931 . S
C3093 C3092 1.385 . S
C3093 C3094 1.389 . S
C3094 C3093 1.389 . S
C3094 C3095 1.387 . S
C3095 H3080 0.930 . S
C3095 C3090 1.390 . S
C3095 C3094 1.387 . S
H3096 C3108 0.930 . S
H3097 C3110 0.930 . S
H3098 C3111 0.930 . S
H3099 C3115 0.959 . S
H3100 C3115 0.959 . S
H3101 C3115 0.961 . S
H3102 C3116 0.960 . S
H3103 C3116 0.961 . S
H3104 C3116 0.959 . S
H3105 C3119 0.929 . S
H3106 C3120 0.931 . S
H3107 C3122 0.930 . S
C3108 H3096 0.930 . S
C3108 C3109 1.399 . S
C3108 C3113 1.399 . S
C3109 C3108 1.399 . S
C3109 C3110 1.376 . S
C3110 H3097 0.930 . S
C3110 C3109 1.376 . S
C3110 C3111 1.388 . S
C3111 H3098 0.930 . S
C3111 C3110 1.388 . S
C3111 C3112 1.390 . S
C3112 C3111 1.390 . S
C3112 C3113 1.394 . S
C3112 C3118 1.465 . S
C3113 C3108 1.399 . S
C3113 C3112 1.394 . S
C3113 C3114 1.516 . S
C3114 C3113 1.516 . S
C3114 C3115 1.502 . S
C3114 C3116 1.561 . S
C3114 C3117 1.526 . S
C3115 H3099 0.959 . S
C3115 H3100 0.959 . S
C3115 H3101 0.961 . S
C3115 C3114 1.502 . S
C3116 H3102 0.960 . S
C3116 H3103 0.961 . S
C3116 H3104 0.959 . S
C3116 C3114 1.561 . S
C3117 C3114 1.526 . S
C3117 C3118 1.396 . S
C3117 C3122 1.390 . S
C3118 C3112 1.465 . S
C3118 C3117 1.396 . S
C3118 C3119 1.399 . S
C3119 H3105 0.929 . S
C3119 C3118 1.399 . S
C3119 C3120 1.385 . S
C3120 H3106 0.931 . S
C3120 C3119 1.385 . S
C3120 C3121 1.389 . S
C3121 C3120 1.389 . S
C3121 C3122 1.387 . S
C3122 H3107 0.930 . S
C3122 C3117 1.390 . S
C3122 C3121 1.387 . S
H3123 C3135 0.930 . S
H3124 C3137 0.930 . S
H3125 C3138 0.930 . S
H3126 C3142 0.959 . S
H3127 C3142 0.959 . S
H3128 C3142 0.961 . S
H3129 C3143 0.960 . S
H3130 C3143 0.961 . S
H3131 C3143 0.959 . S
H3132 C3146 0.929 . S
H3133 C3147 0.931 . S
H3134 C3149 0.930 . S
C3135 H3123 0.930 . S
C3135 C3136 1.399 . S
C3135 C3140 1.399 . S
C3136 C3135 1.399 . S
C3136 C3137 1.376 . S
C3137 H3124 0.930 . S
C3137 C3136 1.376 . S
C3137 C3138 1.388 . S
C3138 H3125 0.930 . S
C3138 C3137 1.388 . S
C3138 C3139 1.390 . S
C3139 C3138 1.390 . S
C3139 C3140 1.394 . S
C3139 C3145 1.465 . S
C3140 C3135 1.399 . S
C3140 C3139 1.394 . S
C3140 C3141 1.516 . S
C3141 C3140 1.516 . S
C3141 C3142 1.502 . S
C3141 C3143 1.561 . S
C3141 C3144 1.526 . S
C3142 H3126 0.959 . S
C3142 H3127 0.959 . S
C3142 H3128 0.961 . S
C3142 C3141 1.502 . S
C3143 H3129 0.960 . S
C3143 H3130 0.961 . S
C3143 H3131 0.959 . S
C3143 C3141 1.561 . S
C3144 C3141 1.526 . S
C3144 C3145 1.396 . S
C3144 C3149 1.390 . S
C3145 C3139 1.465 . S
C3145 C3144 1.396 . S
C3145 C3146 1.399 . S
C3146 H3132 0.929 . S
C3146 C3145 1.399 . S
C3146 C3147 1.385 . S
C3147 H3133 0.931 . S
C3147 C3146 1.385 . S
C3147 C3148 1.389 . S
C3148 C3147 1.389 . S
C3148 C3149 1.387 . S
C3149 H3134 0.930 . S
C3149 C3144 1.390 . S
C3149 C3148 1.387 . S
H3150 C3162 0.930 . S
H3151 C3164 0.930 . S
H3152 C3165 0.930 . S
H3153 C3169 0.959 . S
H3154 C3169 0.959 . S
H3155 C3169 0.961 . S
H3156 C3170 0.960 . S
H3157 C3170 0.961 . S
H3158 C3170 0.959 . S
H3159 C3173 0.929 . S
H3160 C3174 0.931 . S
H3161 C3176 0.930 . S
C3162 H3150 0.930 . S
C3162 C3163 1.399 . S
C3162 C3167 1.399 . S
C3163 C3162 1.399 . S
C3163 C3164 1.376 . S
C3164 H3151 0.930 . S
C3164 C3163 1.376 . S
C3164 C3165 1.388 . S
C3165 H3152 0.930 . S
C3165 C3164 1.388 . S
C3165 C3166 1.390 . S
C3166 C3165 1.390 . S
C3166 C3167 1.394 . S
C3166 C3172 1.465 . S
C3167 C3162 1.399 . S
C3167 C3166 1.394 . S
C3167 C3168 1.516 . S
C3168 C3167 1.516 . S
C3168 C3169 1.502 . S
C3168 C3170 1.561 . S
C3168 C3171 1.526 . S
C3169 H3153 0.959 . S
C3169 H3154 0.959 . S
C3169 H3155 0.961 . S
C3169 C3168 1.502 . S
C3170 H3156 0.960 . S
C3170 H3157 0.961 . S
C3170 H3158 0.959 . S
C3170 C3168 1.561 . S
C3171 C3168 1.526 . S
C3171 C3172 1.396 . S
C3171 C3176 1.390 . S
C3172 C3166 1.465 . S
C3172 C3171 1.396 . S
C3172 C3173 1.399 . S
C3173 H3159 0.929 . S
C3173 C3172 1.399 . S
C3173 C3174 1.385 . S
C3174 H3160 0.931 . S
C3174 C3173 1.385 . S
C3174 C3175 1.389 . S
C3175 C3174 1.389 . S
C3175 C3176 1.387 . S
C3176 H3161 0.930 . S
C3176 C3171 1.390 . S
C3176 C3175 1.387 . S
H3177 C3189 0.930 . S
H3178 C3191 0.930 . S
H3179 C3192 0.930 . S
H3180 C3196 0.959 . S
H3181 C3196 0.959 . S
H3182 C3196 0.961 . S
H3183 C3197 0.960 . S
H3184 C3197 0.961 . S
H3185 C3197 0.959 . S
H3186 C3200 0.929 . S
H3187 C3201 0.931 . S
H3188 C3203 0.930 . S
C3189 H3177 0.930 . S
C3189 C3190 1.399 . S
C3189 C3194 1.399 . S
C3190 C3189 1.399 . S
C3190 C3191 1.376 . S
C3191 H3178 0.930 . S
C3191 C3190 1.376 . S
C3191 C3192 1.388 . S
C3192 H3179 0.930 . S
C3192 C3191 1.388 . S
C3192 C3193 1.390 . S
C3193 C3192 1.390 . S
C3193 C3194 1.394 . S
C3193 C3199 1.465 . S
C3194 C3189 1.399 . S
C3194 C3193 1.394 . S
C3194 C3195 1.516 . S
C3195 C3194 1.516 . S
C3195 C3196 1.502 . S
C3195 C3197 1.561 . S
C3195 C3198 1.526 . S
C3196 H3180 0.959 . S
C3196 H3181 0.959 . S
C3196 H3182 0.961 . S
C3196 C3195 1.502 . S
C3197 H3183 0.960 . S
C3197 H3184 0.961 . S
C3197 H3185 0.959 . S
C3197 C3195 1.561 . S
C3198 C3195 1.526 . S
C3198 C3199 1.396 . S
C3198 C3203 1.390 . S
C3199 C3193 1.465 . S
C3199 C3198 1.396 . S
C3199 C3200 1.399 . S
C3200 H3186 0.929 . S
C3200 C3199 1.399 . S
C3200 C3201 1.385 . S
C3201 H3187 0.931 . S
C3201 C3200 1.385 . S
C3201 C3202 1.389 . S
C3202 C3201 1.389 . S
C3202 C3203 1.387 . S
C3203 H3188 0.930 . S
C3203 C3198 1.390 . S
C3203 C3202 1.387 . S
H3204 C3216 0.930 . S
H3205 C3218 0.930 . S
H3206 C3219 0.930 . S
H3207 C3223 0.959 . S
H3208 C3223 0.959 . S
H3209 C3223 0.961 . S
H3210 C3224 0.960 . S
H3211 C3224 0.961 . S
H3212 C3224 0.959 . S
H3213 C3227 0.929 . S
H3214 C3228 0.931 . S
H3215 C3230 0.930 . S
C3216 H3204 0.930 . S
C3216 C3217 1.399 . S
C3216 C3221 1.399 . S
C3217 C3216 1.399 . S
C3217 C3218 1.376 . S
C3218 H3205 0.930 . S
C3218 C3217 1.376 . S
C3218 C3219 1.388 . S
C3219 H3206 0.930 . S
C3219 C3218 1.388 . S
C3219 C3220 1.390 . S
C3220 C3219 1.390 . S
C3220 C3221 1.394 . S
C3220 C3226 1.465 . S
C3221 C3216 1.399 . S
C3221 C3220 1.394 . S
C3221 C3222 1.516 . S
C3222 C3221 1.516 . S
C3222 C3223 1.502 . S
C3222 C3224 1.561 . S
C3222 C3225 1.526 . S
C3223 H3207 0.959 . S
C3223 H3208 0.959 . S
C3223 H3209 0.961 . S
C3223 C3222 1.502 . S
C3224 H3210 0.960 . S
C3224 H3211 0.961 . S
C3224 H3212 0.959 . S
C3224 C3222 1.561 . S
C3225 C3222 1.526 . S
C3225 C3226 1.396 . S
C3225 C3230 1.390 . S
C3226 C3220 1.465 . S
C3226 C3225 1.396 . S
C3226 C3227 1.399 . S
C3227 H3213 0.929 . S
C3227 C3226 1.399 . S
C3227 C3228 1.385 . S
C3228 H3214 0.931 . S
C3228 C3227 1.385 . S
C3228 C3229 1.389 . S
C3229 C3228 1.389 . S
C3229 C3230 1.387 . S
C3230 H3215 0.930 . S
C3230 C3225 1.390 . S
C3230 C3229 1.387 . S
H3231 C3243 0.930 . S
H3232 C3245 0.930 . S
H3233 C3246 0.930 . S
H3234 C3250 0.959 . S
H3235 C3250 0.959 . S
H3236 C3250 0.961 . S
H3237 C3251 0.960 . S
H3238 C3251 0.961 . S
H3239 C3251 0.959 . S
H3240 C3254 0.929 . S
H3241 C3255 0.931 . S
H3242 C3257 0.930 . S
C3243 H3231 0.930 . S
C3243 C3244 1.399 . S
C3243 C3248 1.399 . S
C3244 C3243 1.399 . S
C3244 C3245 1.376 . S
C3245 H3232 0.930 . S
C3245 C3244 1.376 . S
C3245 C3246 1.388 . S
C3246 H3233 0.930 . S
C3246 C3245 1.388 . S
C3246 C3247 1.390 . S
C3247 C3246 1.390 . S
C3247 C3248 1.394 . S
C3247 C3253 1.465 . S
C3248 C3243 1.399 . S
C3248 C3247 1.394 . S
C3248 C3249 1.516 . S
C3249 C3248 1.516 . S
C3249 C3250 1.502 . S
C3249 C3251 1.561 . S
C3249 C3252 1.526 . S
C3250 H3234 0.959 . S
C3250 H3235 0.959 . S
C3250 H3236 0.961 . S
C3250 C3249 1.502 . S
C3251 H3237 0.960 . S
C3251 H3238 0.961 . S
C3251 H3239 0.959 . S
C3251 C3249 1.561 . S
C3252 C3249 1.526 . S
C3252 C3253 1.396 . S
C3252 C3257 1.390 . S
C3253 C3247 1.465 . S
C3253 C3252 1.396 . S
C3253 C3254 1.399 . S
C3254 H3240 0.929 . S
C3254 C3253 1.399 . S
C3254 C3255 1.385 . S
C3255 H3241 0.931 . S
C3255 C3254 1.385 . S
C3255 C3256 1.389 . S
C3256 C3255 1.389 . S
C3256 C3257 1.387 . S
C3257 H3242 0.930 . S
C3257 C3252 1.390 . S
C3257 C3256 1.387 . S
H3258 C3270 0.930 . S
H3259 C3272 0.917 1_556 S
H3260 C3273 0.930 . S
H3261 C3277 0.959 . S
H3262 C3277 0.959 . S
H3263 C3277 0.961 . S
H3264 C3278 0.960 . S
H3265 C3278 0.961 . S
H3266 C3278 0.959 . S
H3267 C3281 0.929 . S
H3268 C3282 0.931 . S
H3269 C3284 0.930 . S
C3270 H3258 0.930 . S
C3270 C3271 1.399 . S
C3270 C3275 1.399 . S
C3271 C3270 1.399 . S
C3271 C3272 1.376 . S
C3272 H3259 0.917 1_554 S
C3272 C3271 1.376 . S
C3272 C3273 1.388 . S
C3273 H3260 0.930 . S
C3273 C3272 1.388 . S
C3273 C3274 1.390 . S
C3274 C3273 1.390 . S
C3274 C3275 1.394 . S
C3274 C3280 1.465 . S
C3275 C3270 1.399 . S
C3275 C3274 1.394 . S
C3275 C3276 1.516 . S
C3276 C3275 1.516 . S
C3276 C3277 1.502 . S
C3276 C3278 1.561 . S
C3276 C3279 1.526 . S
C3277 H3261 0.959 . S
C3277 H3262 0.959 . S
C3277 H3263 0.961 . S
C3277 C3276 1.502 . S
C3278 H3264 0.960 . S
C3278 H3265 0.961 . S
C3278 H3266 0.959 . S
C3278 C3276 1.561 . S
C3279 C3276 1.526 . S
C3279 C3280 1.396 . S
C3279 C3284 1.390 . S
C3280 C3274 1.465 . S
C3280 C3279 1.396 . S
C3280 C3281 1.399 . S
C3281 H3267 0.929 . S
C3281 C3280 1.399 . S
C3281 C3282 1.385 . S
C3282 H3268 0.931 . S
C3282 C3281 1.385 . S
C3282 C3283 1.389 . S
C3283 C3282 1.389 . S
C3283 C3284 1.387 . S
C3284 H3269 0.930 . S
C3284 C3279 1.390 . S
C3284 C3283 1.387 . S
H3285 C3297 0.930 . S
H3286 C3299 0.930 . S
H3287 C3300 0.930 . S
H3288 C3304 0.959 . S
H3289 C3304 0.959 . S
H3290 C3304 0.961 . S
H3291 C3305 0.960 . S
H3292 C3305 0.961 . S
H3293 C3305 0.959 . S
H3294 C3308 0.929 . S
H3295 C3309 0.931 . S
H3296 C3311 0.930 . S
C3297 H3285 0.930 . S
C3297 C3298 1.399 . S
C3297 C3302 1.399 . S
C3298 C3297 1.399 . S
C3298 C3299 1.376 . S
C3299 H3286 0.930 . S
C3299 C3298 1.376 . S
C3299 C3300 1.388 . S
C3300 H3287 0.930 . S
C3300 C3299 1.388 . S
C3300 C3301 1.390 . S
C3301 C3300 1.390 . S
C3301 C3302 1.394 . S
C3301 C3307 1.465 . S
C3302 C3297 1.399 . S
C3302 C3301 1.394 . S
C3302 C3303 1.516 . S
C3303 C3302 1.516 . S
C3303 C3304 1.502 . S
C3303 C3305 1.561 . S
C3303 C3306 1.526 . S
C3304 H3288 0.959 . S
C3304 H3289 0.959 . S
C3304 H3290 0.961 . S
C3304 C3303 1.502 . S
C3305 H3291 0.960 . S
C3305 H3292 0.961 . S
C3305 H3293 0.959 . S
C3305 C3303 1.561 . S
C3306 C3303 1.526 . S
C3306 C3307 1.396 . S
C3306 C3311 1.390 . S
C3307 C3301 1.465 . S
C3307 C3306 1.396 . S
C3307 C3308 1.399 . S
C3308 H3294 0.929 . S
C3308 C3307 1.399 . S
C3308 C3309 1.385 . S
C3309 H3295 0.931 . S
C3309 C3308 1.385 . S
C3309 C3310 1.389 . S
C3310 C3309 1.389 . S
C3310 C3311 1.387 . S
C3311 H3296 0.930 . S
C3311 C3306 1.390 . S
C3311 C3310 1.387 . S
H3312 C3324 0.930 . S
H3313 C3326 0.930 . S
H3314 C3327 0.930 . S
H3315 C3331 0.959 . S
H3316 C3331 0.959 . S
H3317 C3331 0.961 . S
H3318 C3332 0.960 . S
H3319 C3332 0.961 . S
H3320 C3332 0.959 . S
H3321 C3335 0.929 . S
H3322 C3336 0.931 . S
H3323 C3338 0.930 . S
C3324 H3312 0.930 . S
C3324 C3325 1.399 . S
C3324 C3329 1.399 . S
C3325 C3324 1.399 . S
C3325 C3326 1.376 . S
C3326 H3313 0.930 . S
C3326 C3325 1.376 . S
C3326 C3327 1.388 . S
C3327 H3314 0.930 . S
C3327 C3326 1.388 . S
C3327 C3328 1.390 . S
C3328 C3327 1.390 . S
C3328 C3329 1.394 . S
C3328 C3334 1.465 . S
C3329 C3324 1.399 . S
C3329 C3328 1.394 . S
C3329 C3330 1.516 . S
C3330 C3329 1.516 . S
C3330 C3331 1.502 . S
C3330 C3332 1.561 . S
C3330 C3333 1.526 . S
C3331 H3315 0.959 . S
C3331 H3316 0.959 . S
C3331 H3317 0.961 . S
C3331 C3330 1.502 . S
C3332 H3318 0.960 . S
C3332 H3319 0.961 . S
C3332 H3320 0.959 . S
C3332 C3330 1.561 . S
C3333 C3330 1.526 . S
C3333 C3334 1.396 . S
C3333 C3338 1.390 . S
C3334 C3328 1.465 . S
C3334 C3333 1.396 . S
C3334 C3335 1.399 . S
C3335 H3321 0.929 . S
C3335 C3334 1.399 . S
C3335 C3336 1.385 . S
C3336 H3322 0.931 . S
C3336 C3335 1.385 . S
C3336 C3337 1.389 . S
C3337 C3336 1.389 . S
C3337 C3338 1.387 . S
C3338 H3323 0.930 . S
C3338 C3333 1.390 . S
C3338 C3337 1.387 . S
H3339 C3351 0.930 . S
H3340 C3353 0.930 . S
H3341 C3354 0.930 . S
H3342 C3358 0.959 . S
H3343 C3358 0.959 . S
H3344 C3358 0.961 . S
H3345 C3359 0.960 . S
H3346 C3359 0.961 . S
H3347 C3359 0.959 . S
H3348 C3362 0.929 . S
H3349 C3363 0.931 . S
H3350 C3365 0.930 . S
C3351 H3339 0.930 . S
C3351 C3352 1.399 . S
C3351 C3356 1.399 . S
C3352 C3351 1.399 . S
C3352 C3353 1.376 . S
C3353 H3340 0.930 . S
C3353 C3352 1.376 . S
C3353 C3354 1.388 . S
C3354 H3341 0.930 . S
C3354 C3353 1.388 . S
C3354 C3355 1.390 . S
C3355 C3354 1.390 . S
C3355 C3356 1.394 . S
C3355 C3361 1.465 . S
C3356 C3351 1.399 . S
C3356 C3355 1.394 . S
C3356 C3357 1.516 . S
C3357 C3356 1.516 . S
C3357 C3358 1.502 . S
C3357 C3359 1.561 . S
C3357 C3360 1.526 . S
C3358 H3342 0.959 . S
C3358 H3343 0.959 . S
C3358 H3344 0.961 . S
C3358 C3357 1.502 . S
C3359 H3345 0.960 . S
C3359 H3346 0.961 . S
C3359 H3347 0.959 . S
C3359 C3357 1.561 . S
C3360 C3357 1.526 . S
C3360 C3361 1.396 . S
C3360 C3365 1.390 . S
C3361 C3355 1.465 . S
C3361 C3360 1.396 . S
C3361 C3362 1.399 . S
C3362 H3348 0.929 . S
C3362 C3361 1.399 . S
C3362 C3363 1.385 . S
C3363 H3349 0.931 . S
C3363 C3362 1.385 . S
C3363 C3364 1.389 . S
C3364 C3363 1.389 . S
C3364 C3365 1.387 . S
C3365 H3350 0.930 . S
C3365 C3360 1.390 . S
C3365 C3364 1.387 . S
H3366 C3378 0.930 . S
H3367 C3380 0.930 . S
H3368 C3381 0.930 . S
H3369 C3385 0.959 . S
H3370 C3385 0.959 . S
H3371 C3385 0.961 . S
H3372 C3386 0.960 . S
H3373 C3386 0.961 . S
H3374 C3386 0.959 . S
H3375 C3389 0.929 . S
H3376 C3390 0.931 . S
H3377 C3392 0.930 . S
C3378 H3366 0.930 . S
C3378 C3379 1.399 . S
C3378 C3383 1.399 . S
C3379 C3378 1.399 . S
C3379 C3380 1.376 . S
C3380 H3367 0.930 . S
C3380 C3379 1.376 . S
C3380 C3381 1.388 . S
C3381 H3368 0.930 . S
C3381 C3380 1.388 . S
C3381 C3382 1.390 . S
C3382 C3381 1.390 . S
C3382 C3383 1.394 . S
C3382 C3388 1.465 . S
C3383 C3378 1.399 . S
C3383 C3382 1.394 . S
C3383 C3384 1.516 . S
C3384 C3383 1.516 . S
C3384 C3385 1.502 . S
C3384 C3386 1.561 . S
C3384 C3387 1.526 . S
C3385 H3369 0.959 . S
C3385 H3370 0.959 . S
C3385 H3371 0.961 . S
C3385 C3384 1.502 . S
C3386 H3372 0.960 . S
C3386 H3373 0.961 . S
C3386 H3374 0.959 . S
C3386 C3384 1.561 . S
C3387 C3384 1.526 . S
C3387 C3388 1.396 . S
C3387 C3392 1.390 . S
C3388 C3382 1.465 . S
C3388 C3387 1.396 . S
C3388 C3389 1.399 . S
C3389 H3375 0.929 . S
C3389 C3388 1.399 . S
C3389 C3390 1.385 . S
C3390 H3376 0.931 . S
C3390 C3389 1.385 . S
C3390 C3391 1.389 . S
C3391 C3390 1.389 . S
C3391 C3392 1.387 . S
C3392 H3377 0.930 . S
C3392 C3387 1.390 . S
C3392 C3391 1.387 . S
H3393 C3405 0.930 . S
H3394 C3407 0.930 . S
H3395 C3408 0.930 . S
H3396 C3412 0.959 . S
H3397 C3412 0.959 . S
H3398 C3412 0.961 . S
H3399 C3413 0.960 . S
H3400 C3413 0.961 . S
H3401 C3413 0.959 . S
H3402 C3416 0.929 . S
H3403 C3417 0.931 . S
H3404 C3419 0.930 . S
C3405 H3393 0.930 . S
C3405 C3406 1.399 . S
C3405 C3410 1.399 . S
C3406 C3405 1.399 . S
C3406 C3407 1.376 . S
C3407 H3394 0.930 . S
C3407 C3406 1.376 . S
C3407 C3408 1.388 . S
C3408 H3395 0.930 . S
C3408 C3407 1.388 . S
C3408 C3409 1.390 . S
C3409 C3408 1.390 . S
C3409 C3410 1.394 . S
C3409 C3415 1.465 . S
C3410 C3405 1.399 . S
C3410 C3409 1.394 . S
C3410 C3411 1.516 . S
C3411 C3410 1.516 . S
C3411 C3412 1.502 . S
C3411 C3413 1.561 . S
C3411 C3414 1.526 . S
C3412 H3396 0.959 . S
C3412 H3397 0.959 . S
C3412 H3398 0.961 . S
C3412 C3411 1.502 . S
C3413 H3399 0.960 . S
C3413 H3400 0.961 . S
C3413 H3401 0.959 . S
C3413 C3411 1.561 . S
C3414 C3411 1.526 . S
C3414 C3415 1.396 . S
C3414 C3419 1.390 . S
C3415 C3409 1.465 . S
C3415 C3414 1.396 . S
C3415 C3416 1.399 . S
C3416 H3402 0.929 . S
C3416 C3415 1.399 . S
C3416 C3417 1.385 . S
C3417 H3403 0.931 . S
C3417 C3416 1.385 . S
C3417 C3418 1.389 . S
C3418 C3417 1.389 . S
C3418 C3419 1.387 . S
C3419 H3404 0.930 . S
C3419 C3414 1.390 . S
C3419 C3418 1.387 . S
H3420 C3432 0.930 . S
H3421 C3434 0.930 . S
H3422 C3435 0.930 . S
H3423 C3439 0.959 . S
H3424 C3439 0.959 . S
H3425 C3439 0.961 . S
H3426 C3440 0.960 . S
H3427 C3440 0.961 . S
H3428 C3440 0.959 . S
H3429 C3443 0.929 . S
H3430 C3444 0.931 . S
H3431 C3446 0.930 . S
C3432 H3420 0.930 . S
C3432 C3433 1.399 . S
C3432 C3437 1.399 1_455 S
C3433 C3432 1.399 . S
C3433 C3434 1.376 . S
C3434 H3421 0.930 . S
C3434 C3433 1.376 . S
C3434 C3435 1.388 1_455 S
C3435 H3422 0.930 . S
C3435 C3434 1.388 1_655 S
C3435 C3436 1.390 . S
C3436 C3435 1.390 . S
C3436 C3437 1.394 . S
C3436 C3442 1.465 . S
C3437 C3432 1.399 1_655 S
C3437 C3436 1.394 . S
C3437 C3438 1.516 . S
C3438 C3437 1.516 . S
C3438 C3439 1.502 . S
C3438 C3440 1.561 . S
C3438 C3441 1.526 . S
C3439 H3423 0.959 . S
C3439 H3424 0.959 . S
C3439 H3425 0.961 . S
C3439 C3438 1.502 . S
C3440 H3426 0.960 . S
C3440 H3427 0.961 . S
C3440 H3428 0.959 . S
C3440 C3438 1.561 . S
C3441 C3438 1.526 . S
C3441 C3442 1.396 . S
C3441 C3446 1.390 . S
C3442 C3436 1.465 . S
C3442 C3441 1.396 . S
C3442 C3443 1.399 . S
C3443 H3429 0.929 . S
C3443 C3442 1.399 . S
C3443 C3444 1.385 . S
C3444 H3430 0.931 . S
C3444 C3443 1.385 . S
C3444 C3445 1.389 . S
C3445 C3444 1.389 . S
C3445 C3446 1.387 . S
C3446 H3431 0.930 . S
C3446 C3441 1.390 . S
C3446 C3445 1.387 . S
H3447 C3459 0.930 . S
H3448 C3461 0.930 . S
H3449 C3462 0.930 . S
H3450 C3466 0.959 . S
H3451 C3466 0.959 . S
H3452 C3466 0.961 . S
H3453 C3467 0.960 . S
H3454 C3467 0.961 . S
H3455 C3467 0.959 . S
H3456 C3470 0.929 . S
H3457 C3471 0.931 . S
H3458 C3473 0.930 . S
C3459 H3447 0.930 . S
C3459 C3460 1.399 . S
C3459 C3464 1.399 . S
C3460 C3459 1.399 . S
C3460 C3461 1.376 . S
C3461 H3448 0.930 . S
C3461 C3460 1.376 . S
C3461 C3462 1.388 . S
C3462 H3449 0.930 . S
C3462 C3461 1.388 . S
C3462 C3463 1.390 . S
C3463 C3462 1.390 . S
C3463 C3464 1.394 . S
C3463 C3469 1.465 . S
C3464 C3459 1.399 . S
C3464 C3463 1.394 . S
C3464 C3465 1.516 . S
C3465 C3464 1.516 . S
C3465 C3466 1.502 . S
C3465 C3467 1.561 . S
C3465 C3468 1.526 . S
C3466 H3450 0.959 . S
C3466 H3451 0.959 . S
C3466 H3452 0.961 . S
C3466 C3465 1.502 . S
C3467 H3453 0.960 . S
C3467 H3454 0.961 . S
C3467 H3455 0.959 . S
C3467 C3465 1.561 . S
C3468 C3465 1.526 . S
C3468 C3469 1.396 . S
C3468 C3473 1.390 . S
C3469 C3463 1.465 . S
C3469 C3468 1.396 . S
C3469 C3470 1.399 . S
C3470 H3456 0.929 . S
C3470 C3469 1.399 . S
C3470 C3471 1.385 . S
C3471 H3457 0.931 . S
C3471 C3470 1.385 . S
C3471 C3472 1.389 . S
C3472 C3471 1.389 . S
C3472 C3473 1.387 . S
C3473 H3458 0.930 . S
C3473 C3468 1.390 . S
C3473 C3472 1.387 . S
H3474 C3486 0.930 . S
H3475 C3488 0.930 . S
H3476 C3489 0.930 . S
H3477 C3493 0.959 . S
H3478 C3493 0.959 . S
H3479 C3493 0.961 . S
H3480 C3494 0.960 . S
H3481 C3494 0.961 . S
H3482 C3494 0.959 . S
H3483 C3497 0.929 . S
H3484 C3498 0.931 . S
H3485 C3500 0.930 . S
C3486 H3474 0.930 . S
C3486 C3487 1.399 . S
C3486 C3491 1.399 . S
C3487 C3486 1.399 . S
C3487 C3488 1.376 . S
C3488 H3475 0.930 . S
C3488 C3487 1.376 . S
C3488 C3489 1.388 . S
C3489 H3476 0.930 . S
C3489 C3488 1.388 . S
C3489 C3490 1.390 . S
C3490 C3489 1.390 . S
C3490 C3491 1.394 . S
C3490 C3496 1.465 . S
C3491 C3486 1.399 . S
C3491 C3490 1.394 . S
C3491 C3492 1.516 . S
C3492 C3491 1.516 . S
C3492 C3493 1.502 . S
C3492 C3494 1.561 . S
C3492 C3495 1.526 . S
C3493 H3477 0.959 . S
C3493 H3478 0.959 . S
C3493 H3479 0.961 . S
C3493 C3492 1.502 . S
C3494 H3480 0.960 . S
C3494 H3481 0.961 . S
C3494 H3482 0.959 . S
C3494 C3492 1.561 . S
C3495 C3492 1.526 . S
C3495 C3496 1.396 . S
C3495 C3500 1.390 . S
C3496 C3490 1.465 . S
C3496 C3495 1.396 . S
C3496 C3497 1.399 . S
C3497 H3483 0.929 . S
C3497 C3496 1.399 . S
C3497 C3498 1.385 . S
C3498 H3484 0.931 . S
C3498 C3497 1.385 . S
C3498 C3499 1.389 . S
C3499 C3498 1.389 . S
C3499 C3500 1.387 . S
C3500 H3485 0.930 . S
C3500 C3495 1.390 . S
C3500 C3499 1.387 . S
H3501 C3513 0.930 . S
H3502 C3515 0.930 . S
H3503 C3516 0.930 . S
H3504 C3520 0.959 . S
H3505 C3520 0.959 . S
H3506 C3520 0.961 . S
H3507 C3521 0.960 . S
H3508 C3521 0.961 . S
H3509 C3521 0.959 . S
H3510 C3524 0.929 . S
H3511 C3525 0.931 . S
H3512 C3527 0.930 . S
C3513 H3501 0.930 . S
C3513 C3514 1.399 . S
C3513 C3518 1.399 . S
C3514 C3513 1.399 . S
C3514 C3515 1.376 . S
C3515 H3502 0.930 . S
C3515 C3514 1.376 . S
C3515 C3516 1.388 . S
C3516 H3503 0.930 . S
C3516 C3515 1.388 . S
C3516 C3517 1.390 . S
C3517 C3516 1.390 . S
C3517 C3518 1.394 . S
C3517 C3523 1.465 . S
C3518 C3513 1.399 . S
C3518 C3517 1.394 . S
C3518 C3519 1.516 . S
C3519 C3518 1.516 . S
C3519 C3520 1.502 . S
C3519 C3521 1.561 . S
C3519 C3522 1.526 . S
C3520 H3504 0.959 . S
C3520 H3505 0.959 . S
C3520 H3506 0.961 . S
C3520 C3519 1.502 . S
C3521 H3507 0.960 . S
C3521 H3508 0.961 . S
C3521 H3509 0.959 . S
C3521 C3519 1.561 . S
C3522 C3519 1.526 . S
C3522 C3523 1.396 . S
C3522 C3527 1.390 . S
C3523 C3517 1.465 . S
C3523 C3522 1.396 . S
C3523 C3524 1.399 . S
C3524 H3510 0.929 . S
C3524 C3523 1.399 . S
C3524 C3525 1.385 . S
C3525 H3511 0.931 . S
C3525 C3524 1.385 . S
C3525 C3526 1.389 . S
C3526 C3525 1.389 . S
C3526 C3527 1.387 . S
C3527 H3512 0.930 . S
C3527 C3522 1.390 . S
C3527 C3526 1.387 . S
H3528 C3540 0.930 . S
H3529 C3542 0.930 . S
H3530 C3543 0.930 . S
H3531 C3547 0.959 . S
H3532 C3547 0.959 . S
H3533 C3547 0.961 . S
H3534 C3548 0.960 . S
H3535 C3548 0.961 . S
H3536 C3548 0.959 . S
H3537 C3551 0.929 . S
H3538 C3552 0.931 . S
H3539 C3554 0.930 . S
C3540 H3528 0.930 . S
C3540 C3541 1.399 . S
C3540 C3545 1.399 . S
C3541 C3540 1.399 . S
C3541 C3542 1.376 . S
C3542 H3529 0.930 . S
C3542 C3541 1.376 . S
C3542 C3543 1.388 . S
C3543 H3530 0.930 . S
C3543 C3542 1.388 . S
C3543 C3544 1.390 . S
C3544 C3543 1.390 . S
C3544 C3545 1.394 . S
C3544 C3550 1.465 . S
C3545 C3540 1.399 . S
C3545 C3544 1.394 . S
C3545 C3546 1.516 . S
C3546 C3545 1.516 . S
C3546 C3547 1.502 . S
C3546 C3548 1.561 . S
C3546 C3549 1.526 . S
C3547 H3531 0.959 . S
C3547 H3532 0.959 . S
C3547 H3533 0.961 . S
C3547 C3546 1.502 . S
C3548 H3534 0.960 . S
C3548 H3535 0.961 . S
C3548 H3536 0.959 . S
C3548 C3546 1.561 . S
C3549 C3546 1.526 . S
C3549 C3550 1.396 . S
C3549 C3554 1.390 . S
C3550 C3544 1.465 . S
C3550 C3549 1.396 . S
C3550 C3551 1.399 . S
C3551 H3537 0.929 . S
C3551 C3550 1.399 . S
C3551 C3552 1.385 . S
C3552 H3538 0.931 . S
C3552 C3551 1.385 . S
C3552 C3553 1.389 . S
C3553 C3552 1.389 . S
C3553 C3554 1.387 . S
C3554 H3539 0.930 . S
C3554 C3549 1.390 . S
C3554 C3553 1.387 . S
H3555 C3567 0.930 . S
H3556 C3569 0.930 . S
H3557 C3570 0.930 . S
H3558 C3574 0.959 . S
H3559 C3574 0.959 . S
H3560 C3574 0.961 . S
H3561 C3575 0.960 . S
H3562 C3575 0.961 . S
H3563 C3575 0.959 . S
H3564 C3578 0.929 . S
H3565 C3579 0.931 . S
H3566 C3581 0.930 . S
C3567 H3555 0.930 . S
C3567 C3568 1.399 . S
C3567 C3572 1.399 . S
C3568 C3567 1.399 . S
C3568 C3569 1.376 . S
C3569 H3556 0.930 . S
C3569 C3568 1.376 . S
C3569 C3570 1.388 . S
C3570 H3557 0.930 . S
C3570 C3569 1.388 . S
C3570 C3571 1.390 . S
C3571 C3570 1.390 . S
C3571 C3572 1.394 . S
C3571 C3577 1.465 . S
C3572 C3567 1.399 . S
C3572 C3571 1.394 . S
C3572 C3573 1.516 . S
C3573 C3572 1.516 . S
C3573 C3574 1.502 . S
C3573 C3575 1.561 . S
C3573 C3576 1.526 . S
C3574 H3558 0.959 . S
C3574 H3559 0.959 . S
C3574 H3560 0.961 . S
C3574 C3573 1.502 . S
C3575 H3561 0.960 . S
C3575 H3562 0.961 . S
C3575 H3563 0.959 . S
C3575 C3573 1.561 . S
C3576 C3573 1.526 . S
C3576 C3577 1.396 . S
C3576 C3581 1.390 . S
C3577 C3571 1.465 . S
C3577 C3576 1.396 . S
C3577 C3578 1.399 . S
C3578 H3564 0.929 . S
C3578 C3577 1.399 . S
C3578 C3579 1.385 . S
C3579 H3565 0.931 . S
C3579 C3578 1.385 . S
C3579 C3580 1.389 . S
C3580 C3579 1.389 . S
C3580 C3581 1.387 . S
C3581 H3566 0.930 . S
C3581 C3576 1.390 . S
C3581 C3580 1.387 . S
H3582 C3594 0.930 . S
H3583 C3596 0.930 . S
H3584 C3597 0.930 . S
H3585 C3601 0.959 . S
H3586 C3601 0.959 . S
H3587 C3601 0.961 . S
H3588 C3602 0.960 . S
H3589 C3602 0.961 . S
H3590 C3602 0.959 . S
H3591 C3605 0.929 . S
H3592 C3606 0.931 . S
H3593 C3608 0.930 . S
C3594 H3582 0.930 . S
C3594 C3595 1.399 . S
C3594 C3599 1.399 . S
C3595 C3594 1.399 . S
C3595 C3596 1.376 . S
C3596 H3583 0.930 . S
C3596 C3595 1.376 . S
C3596 C3597 1.388 . S
C3597 H3584 0.930 . S
C3597 C3596 1.388 . S
C3597 C3598 1.390 . S
C3598 C3597 1.390 . S
C3598 C3599 1.394 . S
C3598 C3604 1.465 . S
C3599 C3594 1.399 . S
C3599 C3598 1.394 . S
C3599 C3600 1.516 . S
C3600 C3599 1.516 . S
C3600 C3601 1.502 . S
C3600 C3602 1.561 . S
C3600 C3603 1.526 . S
C3601 H3585 0.959 . S
C3601 H3586 0.959 . S
C3601 H3587 0.961 . S
C3601 C3600 1.502 . S
C3602 H3588 0.960 . S
C3602 H3589 0.961 . S
C3602 H3590 0.959 . S
C3602 C3600 1.561 . S
C3603 C3600 1.526 . S
C3603 C3604 1.396 . S
C3603 C3608 1.390 . S
C3604 C3598 1.465 . S
C3604 C3603 1.396 . S
C3604 C3605 1.399 . S
C3605 H3591 0.929 . S
C3605 C3604 1.399 . S
C3605 C3606 1.385 . S
C3606 H3592 0.931 . S
C3606 C3605 1.385 . S
C3606 C3607 1.389 . S
C3607 C3606 1.389 . S
C3607 C3608 1.387 . S
C3608 H3593 0.930 . S
C3608 C3603 1.390 . S
C3608 C3607 1.387 . S
H3609 C3621 0.930 . S
H3610 C3623 0.930 . S
H3611 C3624 0.930 . S
H3612 C3628 0.959 . S
H3613 C3628 0.959 . S
H3614 C3628 0.961 . S
H3615 C3629 0.960 . S
H3616 C3629 0.961 . S
H3617 C3629 0.959 . S
H3618 C3632 0.929 . S
H3619 C3633 0.931 . S
H3620 C3635 0.930 . S
C3621 H3609 0.930 . S
C3621 C3622 1.399 . S
C3621 C3626 1.399 . S
C3622 C3621 1.399 . S
C3622 C3623 1.376 . S
C3623 H3610 0.930 . S
C3623 C3622 1.376 . S
C3623 C3624 1.388 . S
C3624 H3611 0.930 . S
C3624 C3623 1.388 . S
C3624 C3625 1.390 . S
C3625 C3624 1.390 . S
C3625 C3626 1.394 . S
C3625 C3631 1.465 . S
C3626 C3621 1.399 . S
C3626 C3625 1.394 . S
C3626 C3627 1.516 . S
C3627 C3626 1.516 . S
C3627 C3628 1.502 . S
C3627 C3629 1.561 . S
C3627 C3630 1.526 . S
C3628 H3612 0.959 . S
C3628 H3613 0.959 . S
C3628 H3614 0.961 . S
C3628 C3627 1.502 . S
C3629 H3615 0.960 . S
C3629 H3616 0.961 . S
C3629 H3617 0.959 . S
C3629 C3627 1.561 . S
C3630 C3627 1.526 . S
C3630 C3631 1.396 . S
C3630 C3635 1.390 . S
C3631 C3625 1.465 . S
C3631 C3630 1.396 . S
C3631 C3632 1.399 . S
C3632 H3618 0.929 . S
C3632 C3631 1.399 . S
C3632 C3633 1.385 . S
C3633 H3619 0.931 . S
C3633 C3632 1.385 . S
C3633 C3634 1.389 . S
C3634 C3633 1.389 . S
C3634 C3635 1.387 . S
C3635 H3620 0.930 . S
C3635 C3630 1.390 . S
C3635 C3634 1.387 . S
H3636 C3648 0.930 . S
H3637 C3650 0.930 . S
H3638 C3651 0.930 . S
H3639 C3655 0.959 . S
H3640 C3655 0.959 . S
H3641 C3655 0.961 . S
H3642 C3656 0.960 . S
H3643 C3656 0.961 . S
H3644 C3656 0.959 . S
H3645 C3659 0.929 . S
H3646 C3660 0.931 . S
H3647 C3662 0.930 . S
C3648 H3636 0.930 . S
C3648 C3649 1.399 . S
C3648 C3653 1.399 . S
C3649 C3648 1.399 . S
C3649 C3650 1.376 . S
C3650 H3637 0.930 . S
C3650 C3649 1.376 . S
C3650 C3651 1.388 . S
C3651 H3638 0.930 . S
C3651 C3650 1.388 . S
C3651 C3652 1.390 . S
C3652 C3651 1.390 . S
C3652 C3653 1.394 . S
C3652 C3658 1.465 . S
C3653 C3648 1.399 . S
C3653 C3652 1.394 . S
C3653 C3654 1.516 . S
C3654 C3653 1.516 . S
C3654 C3655 1.502 . S
C3654 C3656 1.561 . S
C3654 C3657 1.526 . S
C3655 H3639 0.959 . S
C3655 H3640 0.959 . S
C3655 H3641 0.961 . S
C3655 C3654 1.502 . S
C3656 H3642 0.960 . S
C3656 H3643 0.961 . S
C3656 H3644 0.959 . S
C3656 C3654 1.561 . S
C3657 C3654 1.526 . S
C3657 C3658 1.396 . S
C3657 C3662 1.390 . S
C3658 C3652 1.465 . S
C3658 C3657 1.396 . S
C3658 C3659 1.399 . S
C3659 H3645 0.929 . S
C3659 C3658 1.399 . S
C3659 C3660 1.385 . S
C3660 H3646 0.931 . S
C3660 C3659 1.385 . S
C3660 C3661 1.389 . S
C3661 C3660 1.389 . S
C3661 C3662 1.387 . S
C3662 H3647 0.930 . S
C3662 C3657 1.390 . S
C3662 C3661 1.387 . S
H3663 C3675 0.930 . S
H3664 C3677 0.930 . S
H3665 C3678 0.930 . S
H3666 C3682 0.959 . S
H3667 C3682 0.959 . S
H3668 C3682 0.961 . S
H3669 C3683 0.960 . S
H3670 C3683 0.961 . S
H3671 C3683 0.959 . S
H3672 C3686 0.929 . S
H3673 C3687 0.931 . S
H3674 C3689 0.930 . S
C3675 H3663 0.930 . S
C3675 C3676 1.399 . S
C3675 C3680 1.399 . S
C3676 C3675 1.399 . S
C3676 C3677 1.376 . S
C3677 H3664 0.930 . S
C3677 C3676 1.376 . S
C3677 C3678 1.388 . S
C3678 H3665 0.930 . S
C3678 C3677 1.388 . S
C3678 C3679 1.390 . S
C3679 C3678 1.390 . S
C3679 C3680 1.394 . S
C3679 C3685 1.465 . S
C3680 C3675 1.399 . S
C3680 C3679 1.394 . S
C3680 C3681 1.516 . S
C3681 C3680 1.516 . S
C3681 C3682 1.502 . S
C3681 C3683 1.561 . S
C3681 C3684 1.526 . S
C3682 H3666 0.959 . S
C3682 H3667 0.959 . S
C3682 H3668 0.961 . S
C3682 C3681 1.502 . S
C3683 H3669 0.960 . S
C3683 H3670 0.961 . S
C3683 H3671 0.959 . S
C3683 C3681 1.561 . S
C3684 C3681 1.526 . S
C3684 C3685 1.396 . S
C3684 C3689 1.390 . S
C3685 C3679 1.465 . S
C3685 C3684 1.396 . S
C3685 C3686 1.399 . S
C3686 H3672 0.929 . S
C3686 C3685 1.399 . S
C3686 C3687 1.385 . S
C3687 H3673 0.931 . S
C3687 C3686 1.385 . S
C3687 C3688 1.389 . S
C3688 C3687 1.389 . S
C3688 C3689 1.387 . S
C3689 H3674 0.930 . S
C3689 C3684 1.390 . S
C3689 C3688 1.387 . S
H3690 C3702 0.930 . S
H3691 C3704 0.930 . S
H3692 C3705 0.930 . S
H3693 C3709 0.959 . S
H3694 C3709 0.959 . S
H3695 C3709 0.961 . S
H3696 C3710 0.960 . S
H3697 C3710 0.961 . S
H3698 C3710 0.959 . S
H3699 C3713 0.929 . S
H3700 C3714 0.931 . S
H3701 C3716 0.930 . S
C3702 H3690 0.930 . S
C3702 C3703 1.399 . S
C3702 C3707 1.399 . S
C3703 C3702 1.399 . S
C3703 C3704 1.376 . S
C3704 H3691 0.930 . S
C3704 C3703 1.376 . S
C3704 C3705 1.388 . S
C3705 H3692 0.930 . S
C3705 C3704 1.388 . S
C3705 C3706 1.390 . S
C3706 C3705 1.390 . S
C3706 C3707 1.394 . S
C3706 C3712 1.465 . S
C3707 C3702 1.399 . S
C3707 C3706 1.394 . S
C3707 C3708 1.516 . S
C3708 C3707 1.516 . S
C3708 C3709 1.502 . S
C3708 C3710 1.561 . S
C3708 C3711 1.526 . S
C3709 H3693 0.959 . S
C3709 H3694 0.959 . S
C3709 H3695 0.961 . S
C3709 C3708 1.502 . S
C3710 H3696 0.960 . S
C3710 H3697 0.961 . S
C3710 H3698 0.959 . S
C3710 C3708 1.561 . S
C3711 C3708 1.526 . S
C3711 C3712 1.396 . S
C3711 C3716 1.390 . S
C3712 C3706 1.465 . S
C3712 C3711 1.396 . S
C3712 C3713 1.399 . S
C3713 H3699 0.929 . S
C3713 C3712 1.399 . S
C3713 C3714 1.385 . S
C3714 H3700 0.931 . S
C3714 C3713 1.385 . S
C3714 C3715 1.389 . S
C3715 C3714 1.389 . S
C3715 C3716 1.387 . S
C3716 H3701 0.930 . S
C3716 C3711 1.390 . S
C3716 C3715 1.387 . S
H3717 C3729 0.930 . S
H3718 C3731 0.930 . S
H3719 C3732 0.930 . S
H3720 C3736 0.959 . S
H3721 C3736 0.959 . S
H3722 C3736 0.961 . S
H3723 C3737 0.960 . S
H3724 C3737 0.961 . S
H3725 C3737 0.959 . S
H3726 C3740 0.929 . S
H3727 C3741 0.931 . S
H3728 C3743 0.930 . S
C3729 H3717 0.930 . S
C3729 C3730 1.399 . S
C3729 C3734 1.399 . S
C3730 C3729 1.399 . S
C3730 C3731 1.376 . S
C3731 H3718 0.930 . S
C3731 C3730 1.376 . S
C3731 C3732 1.388 . S
C3732 H3719 0.930 . S
C3732 C3731 1.388 . S
C3732 C3733 1.390 . S
C3733 C3732 1.390 . S
C3733 C3734 1.394 . S
C3733 C3739 1.465 . S
C3734 C3729 1.399 . S
C3734 C3733 1.394 . S
C3734 C3735 1.516 . S
C3735 C3734 1.516 . S
C3735 C3736 1.502 . S
C3735 C3737 1.561 . S
C3735 C3738 1.526 . S
C3736 H3720 0.959 . S
C3736 H3721 0.959 . S
C3736 H3722 0.961 . S
C3736 C3735 1.502 . S
C3737 H3723 0.960 . S
C3737 H3724 0.961 . S
C3737 H3725 0.959 . S
C3737 C3735 1.561 . S
C3738 C3735 1.526 . S
C3738 C3739 1.396 . S
C3738 C3743 1.390 . S
C3739 C3733 1.465 . S
C3739 C3738 1.396 . S
C3739 C3740 1.399 . S
C3740 H3726 0.929 . S
C3740 C3739 1.399 . S
C3740 C3741 1.385 . S
C3741 H3727 0.931 . S
C3741 C3740 1.385 . S
C3741 C3742 1.389 . S
C3742 C3741 1.389 . S
C3742 C3743 1.387 . S
C3743 H3728 0.930 . S
C3743 C3738 1.390 . S
C3743 C3742 1.387 . S
H3744 C3756 0.930 . S
H3745 C3758 0.930 . S
H3746 C3759 0.930 . S
H3747 C3763 0.959 . S
H3748 C3763 0.959 . S
H3749 C3763 0.961 . S
H3750 C3764 0.960 . S
H3751 C3764 0.961 . S
H3752 C3764 0.959 . S
H3753 C3767 0.929 . S
H3754 C3768 0.931 . S
H3755 C3770 0.930 . S
C3756 H3744 0.930 . S
C3756 C3757 1.399 . S
C3756 C3761 1.399 . S
C3757 C3756 1.399 . S
C3757 C3758 1.376 . S
C3758 H3745 0.930 . S
C3758 C3757 1.376 . S
C3758 C3759 1.388 . S
C3759 H3746 0.930 . S
C3759 C3758 1.388 . S
C3759 C3760 1.390 . S
C3760 C3759 1.390 . S
C3760 C3761 1.394 . S
C3760 C3766 1.465 . S
C3761 C3756 1.399 . S
C3761 C3760 1.394 . S
C3761 C3762 1.516 . S
C3762 C3761 1.516 . S
C3762 C3763 1.502 . S
C3762 C3764 1.561 . S
C3762 C3765 1.526 . S
C3763 H3747 0.959 . S
C3763 H3748 0.959 . S
C3763 H3749 0.961 . S
C3763 C3762 1.502 . S
C3764 H3750 0.960 . S
C3764 H3751 0.961 . S
C3764 H3752 0.959 . S
C3764 C3762 1.561 . S
C3765 C3762 1.526 . S
C3765 C3766 1.396 . S
C3765 C3770 1.390 . S
C3766 C3760 1.465 . S
C3766 C3765 1.396 . S
C3766 C3767 1.399 . S
C3767 H3753 0.929 . S
C3767 C3766 1.399 . S
C3767 C3768 1.385 . S
C3768 H3754 0.931 . S
C3768 C3767 1.385 . S
C3768 C3769 1.389 . S
C3769 C3768 1.389 . S
C3769 C3770 1.387 . S
C3770 H3755 0.930 . S
C3770 C3765 1.390 . S
C3770 C3769 1.387 . S
H3771 C3783 0.930 . S
H3772 C3785 0.930 . S
H3773 C3786 0.930 . S
H3774 C3790 0.959 . S
H3775 C3790 0.959 . S
H3776 C3790 0.961 . S
H3777 C3791 0.960 . S
H3778 C3791 0.961 . S
H3779 C3791 0.959 . S
H3780 C3794 0.929 . S
H3781 C3795 0.931 . S
H3782 C3797 0.930 . S
C3783 H3771 0.930 . S
C3783 C3784 1.399 . S
C3783 C3788 1.399 . S
C3784 C3783 1.399 . S
C3784 C3785 1.376 . S
C3785 H3772 0.930 . S
C3785 C3784 1.376 . S
C3785 C3786 1.388 . S
C3786 H3773 0.930 . S
C3786 C3785 1.388 . S
C3786 C3787 1.390 . S
C3787 C3786 1.390 . S
C3787 C3788 1.394 . S
C3787 C3793 1.465 . S
C3788 C3783 1.399 . S
C3788 C3787 1.394 . S
C3788 C3789 1.516 . S
C3789 C3788 1.516 . S
C3789 C3790 1.502 . S
C3789 C3791 1.561 . S
C3789 C3792 1.526 . S
C3790 H3774 0.959 . S
C3790 H3775 0.959 . S
C3790 H3776 0.961 . S
C3790 C3789 1.502 . S
C3791 H3777 0.960 . S
C3791 H3778 0.961 . S
C3791 H3779 0.959 . S
C3791 C3789 1.561 . S
C3792 C3789 1.526 . S
C3792 C3793 1.396 . S
C3792 C3797 1.390 . S
C3793 C3787 1.465 . S
C3793 C3792 1.396 . S
C3793 C3794 1.399 . S
C3794 H3780 0.929 . S
C3794 C3793 1.399 . S
C3794 C3795 1.385 . S
C3795 H3781 0.931 . S
C3795 C3794 1.385 . S
C3795 C3796 1.389 . S
C3796 C3795 1.389 . S
C3796 C3797 1.387 . S
C3797 H3782 0.930 . S
C3797 C3792 1.390 . S
C3797 C3796 1.387 . S
H3798 C3810 0.904 1_556 S
H3799 C3812 0.930 . S
H3800 C3813 0.930 . S
H3801 C3817 0.959 . S
H3802 C3817 0.959 . S
H3803 C3817 0.961 . S
H3804 C3818 0.906 1_556 S
H3805 C3818 0.961 . S
H3806 C3818 0.959 . S
H3807 C3821 0.929 . S
H3808 C3822 0.931 . S
H3809 C3824 0.930 . S
C3810 H3798 0.904 1_554 S
C3810 C3811 1.381 1_554 S
C3810 C3815 1.433 . S
C3811 C3810 1.381 1_556 S
C3811 C3812 1.332 1_556 S
C3812 H3799 0.930 . S
C3812 C3811 1.332 1_554 S
C3812 C3813 1.388 . S
C3813 H3800 0.930 . S
C3813 C3812 1.388 . S
C3813 C3814 1.390 . S
C3814 C3813 1.390 . S
C3814 C3815 1.394 . S
C3814 C3820 1.465 . S
C3815 C3810 1.433 . S
C3815 C3814 1.394 . S
C3815 C3816 1.516 . S
C3816 C3815 1.516 . S
C3816 C3817 1.502 . S
C3816 C3818 1.561 . S
C3816 C3819 1.526 . S
C3817 H3801 0.959 . S
C3817 H3802 0.959 . S
C3817 H3803 0.961 . S
C3817 C3816 1.502 . S
C3818 H3804 0.906 1_554 S
C3818 H3805 0.961 . S
C3818 H3806 0.959 . S
C3818 C3816 1.561 . S
C3819 C3816 1.526 . S
C3819 C3820 1.396 . S
C3819 C3824 1.390 . S
C3820 C3814 1.465 . S
C3820 C3819 1.396 . S
C3820 C3821 1.399 . S
C3821 H3807 0.929 . S
C3821 C3820 1.399 . S
C3821 C3822 1.385 . S
C3822 H3808 0.931 . S
C3822 C3821 1.385 . S
C3822 C3823 1.389 . S
C3823 C3822 1.389 . S
C3823 C3824 1.387 . S
C3824 H3809 0.930 . S
C3824 C3819 1.390 . S
C3824 C3823 1.387 . S
H3825 C3837 0.930 . S
H3826 C3839 0.930 . S
H3827 C3840 0.930 . S
H3828 C3844 0.959 . S
H3829 C3844 0.959 . S
H3830 C3844 0.961 . S
H3831 C3845 0.960 . S
H3832 C3845 0.961 . S
H3833 C3845 0.959 . S
H3834 C3848 0.929 . S
H3835 C3849 0.931 . S
H3836 C3851 0.930 . S
C3837 H3825 0.930 . S
C3837 C3838 1.399 . S
C3837 C3842 1.399 . S
C3838 C3837 1.399 . S
C3838 C3839 1.376 . S
C3839 H3826 0.930 . S
C3839 C3838 1.376 . S
C3839 C3840 1.388 . S
C3840 H3827 0.930 . S
C3840 C3839 1.388 . S
C3840 C3841 1.390 . S
C3841 C3840 1.390 . S
C3841 C3842 1.394 . S
C3841 C3847 1.465 . S
C3842 C3837 1.399 . S
C3842 C3841 1.394 . S
C3842 C3843 1.516 . S
C3843 C3842 1.516 . S
C3843 C3844 1.502 . S
C3843 C3845 1.561 . S
C3843 C3846 1.526 . S
C3844 H3828 0.959 . S
C3844 H3829 0.959 . S
C3844 H3830 0.961 . S
C3844 C3843 1.502 . S
C3845 H3831 0.960 . S
C3845 H3832 0.961 . S
C3845 H3833 0.959 . S
C3845 C3843 1.561 . S
C3846 C3843 1.526 . S
C3846 C3847 1.396 . S
C3846 C3851 1.390 . S
C3847 C3841 1.465 . S
C3847 C3846 1.396 . S
C3847 C3848 1.399 . S
C3848 H3834 0.929 . S
C3848 C3847 1.399 . S
C3848 C3849 1.385 . S
C3849 H3835 0.931 . S
C3849 C3848 1.385 . S
C3849 C3850 1.389 . S
C3850 C3849 1.389 . S
C3850 C3851 1.387 . S
C3851 H3836 0.930 . S
C3851 C3846 1.390 . S
C3851 C3850 1.387 . S
H3852 C3864 0.930 . S
H3853 C3866 0.930 . S
H3854 C3867 0.930 . S
H3855 C3871 0.959 . S
H3856 C3871 0.959 . S
H3857 C3871 0.961 . S
H3858 C3872 0.960 . S
H3859 C3872 0.961 . S
H3860 C3872 0.959 . S
H3861 C3875 0.929 . S
H3862 C3876 0.931 . S
H3863 C3878 0.930 . S
C3864 H3852 0.930 . S
C3864 C3865 1.399 . S
C3864 C3869 1.399 1_554 S
C3865 C3864 1.399 . S
C3865 C3866 1.376 . S
C3866 H3853 0.930 . S
C3866 C3865 1.376 . S
C3866 C3867 1.388 . S
C3867 H3854 0.930 . S
C3867 C3866 1.388 . S
C3867 C3868 1.390 . S
C3868 C3867 1.390 . S
C3868 C3869 1.394 1_554 S
C3868 C3874 1.465 1_554 S
C3869 C3864 1.399 1_556 S
C3869 C3868 1.394 1_556 S
C3869 C3870 1.516 . S
C3870 C3869 1.516 . S
C3870 C3871 1.502 . S
C3870 C3872 1.561 . S
C3870 C3873 1.526 . S
C3871 H3855 0.959 . S
C3871 H3856 0.959 . S
C3871 H3857 0.961 . S
C3871 C3870 1.502 . S
C3872 H3858 0.960 . S
C3872 H3859 0.961 . S
C3872 H3860 0.959 . S
C3872 C3870 1.561 . S
C3873 C3870 1.526 . S
C3873 C3874 1.396 . S
C3873 C3878 1.390 . S
C3874 C3868 1.465 1_556 S
C3874 C3873 1.396 . S
C3874 C3875 1.399 . S
C3875 H3861 0.929 . S
C3875 C3874 1.399 . S
C3875 C3876 1.385 . S
C3876 H3862 0.931 . S
C3876 C3875 1.385 . S
C3876 C3877 1.389 . S
C3877 C3876 1.389 . S
C3877 C3878 1.387 . S
C3878 H3863 0.930 . S
C3878 C3873 1.390 . S
C3878 C3877 1.387 . S
H3879 C3891 0.930 . S
H3880 C3893 0.930 . S
H3881 C3894 0.930 . S
H3882 C3898 0.959 . S
H3883 C3898 0.959 . S
H3884 C3898 0.961 . S
H3885 C3899 0.960 . S
H3886 C3899 0.961 . S
H3887 C3899 0.959 . S
H3888 C3902 0.929 . S
H3889 C3903 0.931 . S
H3890 C3905 0.930 . S
C3891 H3879 0.930 . S
C3891 C3892 1.399 . S
C3891 C3896 1.399 . S
C3892 C3891 1.399 . S
C3892 C3893 1.376 . S
C3893 H3880 0.930 . S
C3893 C3892 1.376 . S
C3893 C3894 1.388 . S
C3894 H3881 0.930 . S
C3894 C3893 1.388 . S
C3894 C3895 1.390 . S
C3895 C3894 1.390 . S
C3895 C3896 1.394 . S
C3895 C3901 1.465 . S
C3896 C3891 1.399 . S
C3896 C3895 1.394 . S
C3896 C3897 1.516 . S
C3897 C3896 1.516 . S
C3897 C3898 1.502 . S
C3897 C3899 1.561 . S
C3897 C3900 1.526 . S
C3898 H3882 0.959 . S
C3898 H3883 0.959 . S
C3898 H3884 0.961 . S
C3898 C3897 1.502 . S
C3899 H3885 0.960 . S
C3899 H3886 0.961 . S
C3899 H3887 0.959 . S
C3899 C3897 1.561 . S
C3900 C3897 1.526 . S
C3900 C3901 1.396 . S
C3900 C3905 1.390 . S
C3901 C3895 1.465 . S
C3901 C3900 1.396 . S
C3901 C3902 1.399 . S
C3902 H3888 0.929 . S
C3902 C3901 1.399 . S
C3902 C3903 1.385 . S
C3903 H3889 0.931 . S
C3903 C3902 1.385 . S
C3903 C3904 1.389 . S
C3904 C3903 1.389 . S
C3904 C3905 1.387 . S
C3905 H3890 0.930 . S
C3905 C3900 1.390 . S
C3905 C3904 1.387 . S
H3906 C3918 0.930 . S
H3907 C3920 0.930 . S
H3908 C3921 0.930 . S
H3909 C3925 0.959 . S
H3910 C3925 0.959 . S
H3911 C3925 0.961 . S
H3912 C3926 0.960 . S
H3913 C3926 0.961 . S
H3914 C3926 0.959 . S
H3915 C3929 0.929 . S
H3916 C3930 0.931 . S
H3917 C3932 0.930 . S
C3918 H3906 0.930 . S
C3918 C3919 1.399 . S
C3918 C3923 1.399 . S
C3919 C3918 1.399 . S
C3919 C3920 1.376 . S
C3920 H3907 0.930 . S
C3920 C3919 1.376 . S
C3920 C3921 1.388 . S
C3921 H3908 0.930 . S
C3921 C3920 1.388 . S
C3921 C3922 1.390 . S
C3922 C3921 1.390 . S
C3922 C3923 1.394 . S
C3922 C3928 1.465 . S
C3923 C3918 1.399 . S
C3923 C3922 1.394 . S
C3923 C3924 1.516 . S
C3924 C3923 1.516 . S
C3924 C3925 1.502 . S
C3924 C3926 1.561 . S
C3924 C3927 1.526 . S
C3925 H3909 0.959 . S
C3925 H3910 0.959 . S
C3925 H3911 0.961 . S
C3925 C3924 1.502 . S
C3926 H3912 0.960 . S
C3926 H3913 0.961 . S
C3926 H3914 0.959 . S
C3926 C3924 1.561 . S
C3927 C3924 1.526 . S
C3927 C3928 1.396 . S
C3927 C3932 1.390 . S
C3928 C3922 1.465 . S
C3928 C3927 1.396 . S
C3928 C3929 1.399 . S
C3929 H3915 0.929 . S
C3929 C3928 1.399 . S
C3929 C3930 1.385 . S
C3930 H3916 0.931 . S
C3930 C3929 1.385 . S
C3930 C3931 1.389 . S
C3931 C3930 1.389 . S
C3931 C3932 1.387 . S
C3932 H3917 0.930 . S
C3932 C3927 1.390 . S
C3932 C3931 1.387 . S
H3933 C3945 0.930 . S
H3934 C3947 0.930 . S
H3935 C3948 0.930 . S
H3936 C3952 0.959 . S
H3937 C3952 0.959 . S
H3938 C3952 0.961 . S
H3939 C3953 0.960 . S
H3940 C3953 0.961 . S
H3941 C3953 0.959 . S
H3942 C3956 0.929 . S
H3943 C3957 0.931 . S
H3944 C3959 0.930 . S
C3945 H3933 0.930 . S
C3945 C3946 1.399 . S
C3945 C3950 1.399 . S
C3946 C3945 1.399 . S
C3946 C3947 1.376 . S
C3947 H3934 0.930 . S
C3947 C3946 1.376 . S
C3947 C3948 1.388 . S
C3948 H3935 0.930 . S
C3948 C3947 1.388 . S
C3948 C3949 1.390 . S
C3949 C3948 1.390 . S
C3949 C3950 1.394 . S
C3949 C3955 1.465 . S
C3950 C3945 1.399 . S
C3950 C3949 1.394 . S
C3950 C3951 1.516 . S
C3951 C3950 1.516 . S
C3951 C3952 1.502 . S
C3951 C3953 1.561 . S
C3951 C3954 1.526 . S
C3952 H3936 0.959 . S
C3952 H3937 0.959 . S
C3952 H3938 0.961 . S
C3952 C3951 1.502 . S
C3953 H3939 0.960 . S
C3953 H3940 0.961 . S
C3953 H3941 0.959 . S
C3953 C3951 1.561 . S
C3954 C3951 1.526 . S
C3954 C3955 1.396 . S
C3954 C3959 1.390 . S
C3955 C3949 1.465 . S
C3955 C3954 1.396 . S
C3955 C3956 1.399 . S
C3956 H3942 0.929 . S
C3956 C3955 1.399 . S
C3956 C3957 1.385 . S
C3957 H3943 0.931 . S
C3957 C3956 1.385 . S
C3957 C3958 1.389 . S
C3958 C3957 1.389 . S
C3958 C3959 1.387 . S
C3959 H3944 0.930 . S
C3959 C3954 1.390 . S
C3959 C3958 1.387 . S
H3960 C3972 0.930 . S
H3961 C3974 0.930 . S
H3962 C3975 0.930 . S
H3963 C3979 0.959 . S
H3964 C3979 0.959 . S
H3965 C3979 0.961 . S
H3966 C3980 0.960 . S
H3967 C3980 0.961 . S
H3968 C3980 0.959 . S
H3969 C3983 0.929 . S
H3970 C3984 0.931 . S
H3971 C3986 0.930 . S
C3972 H3960 0.930 . S
C3972 C3973 1.399 . S
C3972 C3977 1.399 . S
C3973 C3972 1.399 . S
C3973 C3974 1.376 . S
C3974 H3961 0.930 . S
C3974 C3973 1.376 . S
C3974 C3975 1.388 . S
C3975 H3962 0.930 . S
C3975 C3974 1.388 . S
C3975 C3976 1.390 . S
C3976 C3975 1.390 . S
C3976 C3977 1.394 . S
C3976 C3982 1.465 . S
C3977 C3972 1.399 . S
C3977 C3976 1.394 . S
C3977 C3978 1.516 . S
C3978 C3977 1.516 . S
C3978 C3979 1.502 . S
C3978 C3980 1.561 . S
C3978 C3981 1.526 . S
C3979 H3963 0.959 . S
C3979 H3964 0.959 . S
C3979 H3965 0.961 . S
C3979 C3978 1.502 . S
C3980 H3966 0.960 . S
C3980 H3967 0.961 . S
C3980 H3968 0.959 . S
C3980 C3978 1.561 . S
C3981 C3978 1.526 . S
C3981 C3982 1.396 . S
C3981 C3986 1.390 . S
C3982 C3976 1.465 . S
C3982 C3981 1.396 . S
C3982 C3983 1.399 . S
C3983 H3969 0.929 . S
C3983 C3982 1.399 . S
C3983 C3984 1.385 . S
C3984 H3970 0.931 . S
C3984 C3983 1.385 . S
C3984 C3985 1.389 . S
C3985 C3984 1.389 . S
C3985 C3986 1.387 . S
C3986 H3971 0.930 . S
C3986 C3981 1.390 . S
C3986 C3985 1.387 . S
H3987 C3999 0.930 . S
H3988 C4001 0.930 . S
H3989 C4002 0.930 . S
H3990 C4006 0.959 . S
H3991 C4006 0.959 . S
H3992 C4006 0.961 . S
H3993 C4007 0.960 . S
H3994 C4007 0.961 . S
H3995 C4007 0.959 . S
H3996 C4010 0.929 . S
H3997 C4011 0.931 . S
H3998 C4013 0.930 . S
C3999 H3987 0.930 . S
C3999 C4000 1.399 . S
C3999 C4004 1.399 . S
C4000 C3999 1.399 . S
C4000 C4001 1.376 . S
C4001 H3988 0.930 . S
C4001 C4000 1.376 . S
C4001 C4002 1.388 . S
C4002 H3989 0.930 . S
C4002 C4001 1.388 . S
C4002 C4003 1.390 . S
C4003 C4002 1.390 . S
C4003 C4004 1.394 . S
C4003 C4009 1.465 . S
C4004 C3999 1.399 . S
C4004 C4003 1.394 . S
C4004 C4005 1.516 . S
C4005 C4004 1.516 . S
C4005 C4006 1.502 . S
C4005 C4007 1.561 . S
C4005 C4008 1.526 . S
C4006 H3990 0.959 . S
C4006 H3991 0.959 . S
C4006 H3992 0.961 . S
C4006 C4005 1.502 . S
C4007 H3993 0.960 . S
C4007 H3994 0.961 . S
C4007 H3995 0.959 . S
C4007 C4005 1.561 . S
C4008 C4005 1.526 . S
C4008 C4009 1.396 . S
C4008 C4013 1.390 . S
C4009 C4003 1.465 . S
C4009 C4008 1.396 . S
C4009 C4010 1.399 . S
C4010 H3996 0.929 . S
C4010 C4009 1.399 . S
C4010 C4011 1.385 . S
C4011 H3997 0.931 . S
C4011 C4010 1.385 . S
C4011 C4012 1.389 . S
C4012 C4011 1.389 . S
C4012 C4013 1.387 . S
C4013 H3998 0.930 . S
C4013 C4008 1.390 . S
C4013 C4012 1.387 . S
H4014 C4026 0.930 . S
H4015 C4028 0.891 1_455 S
H4016 C4029 0.930 . S
H4017 C4033 0.959 . S
H4018 C4033 0.959 . S
H4019 C4033 0.961 . S
H4020 C4034 0.960 . S
H4021 C4034 0.961 . S
H4022 C4034 0.959 . S
H4023 C4037 0.929 . S
H4024 C4038 0.931 . S
H4025 C4040 0.930 . S
C4026 H4014 0.930 . S
C4026 C4027 1.399 . S
C4026 C4031 1.399 . S
C4027 C4026 1.399 . S
C4027 C4028 1.376 . S
C4028 H4015 0.891 1_655 S
C4028 C4027 1.376 . S
C4028 C4029 1.388 . S
C4029 H4016 0.930 . S
C4029 C4028 1.388 . S
C4029 C4030 1.390 . S
C4030 C4029 1.390 . S
C4030 C4031 1.394 . S
C4030 C4036 1.465 . S
C4031 C4026 1.399 . S
C4031 C4030 1.394 . S
C4031 C4032 1.516 . S
C4032 C4031 1.516 . S
C4032 C4033 1.502 . S
C4032 C4034 1.561 . S
C4032 C4035 1.526 . S
C4033 H4017 0.959 . S
C4033 H4018 0.959 . S
C4033 H4019 0.961 . S
C4033 C4032 1.502 . S
C4034 H4020 0.960 . S
C4034 H4021 0.961 . S
C4034 H4022 0.959 . S
C4034 C4032 1.561 . S
C4035 C4032 1.526 . S
C4035 C4036 1.396 . S
C4035 C4040 1.390 . S
C4036 C4030 1.465 . S
C4036 C4035 1.396 . S
C4036 C4037 1.399 . S
C4037 H4023 0.929 . S
C4037 C4036 1.399 . S
C4037 C4038 1.385 . S
C4038 H4024 0.931 . S
C4038 C4037 1.385 . S
C4038 C4039 1.389 . S
C4039 C4038 1.389 . S
C4039 C4040 1.387 . S
C4040 H4025 0.930 . S
C4040 C4035 1.390 . S
C4040 C4039 1.387 . S
H4041 C4053 0.930 . S
H4042 C4055 0.930 . S
H4043 C4056 0.930 . S
H4044 C4060 0.959 . S
H4045 C4060 0.959 . S
H4046 C4060 0.961 . S
H4047 C4061 0.960 . S
H4048 C4061 0.961 . S
H4049 C4061 0.959 . S
H4050 C4064 0.929 . S
H4051 C4065 0.931 . S
H4052 C4067 0.930 . S
C4053 H4041 0.930 . S
C4053 C4054 1.399 . S
C4053 C4058 1.399 . S
C4054 C4053 1.399 . S
C4054 C4055 1.376 . S
C4055 H4042 0.930 . S
C4055 C4054 1.376 . S
C4055 C4056 1.388 . S
C4056 H4043 0.930 . S
C4056 C4055 1.388 . S
C4056 C4057 1.390 . S
C4057 C4056 1.390 . S
C4057 C4058 1.394 . S
C4057 C4063 1.465 . S
C4058 C4053 1.399 . S
C4058 C4057 1.394 . S
C4058 C4059 1.516 . S
C4059 C4058 1.516 . S
C4059 C4060 1.502 . S
C4059 C4061 1.561 . S
C4059 C4062 1.526 . S
C4060 H4044 0.959 . S
C4060 H4045 0.959 . S
C4060 H4046 0.961 . S
C4060 C4059 1.502 . S
C4061 H4047 0.960 . S
C4061 H4048 0.961 . S
C4061 H4049 0.959 . S
C4061 C4059 1.561 . S
C4062 C4059 1.526 . S
C4062 C4063 1.396 . S
C4062 C4067 1.390 . S
C4063 C4057 1.465 . S
C4063 C4062 1.396 . S
C4063 C4064 1.399 . S
C4064 H4050 0.929 . S
C4064 C4063 1.399 . S
C4064 C4065 1.385 . S
C4065 H4051 0.931 . S
C4065 C4064 1.385 . S
C4065 C4066 1.389 . S
C4066 C4065 1.389 . S
C4066 C4067 1.387 . S
C4067 H4052 0.930 . S
C4067 C4062 1.390 . S
C4067 C4066 1.387 . S
H4068 C4080 0.930 . S
H4069 C4082 0.930 . S
H4070 C4083 0.930 . S
H4071 C4087 0.959 . S
H4072 C4087 0.959 . S
H4073 C4087 0.961 . S
H4074 C4088 0.960 . S
H4075 C4088 0.961 . S
H4076 C4088 0.959 . S
H4077 C4091 0.929 . S
H4078 C4092 0.931 . S
H4079 C4094 0.930 . S
C4080 H4068 0.930 . S
C4080 C4081 1.399 . S
C4080 C4085 1.399 . S
C4081 C4080 1.399 . S
C4081 C4082 1.376 . S
C4082 H4069 0.930 . S
C4082 C4081 1.376 . S
C4082 C4083 1.388 . S
C4083 H4070 0.930 . S
C4083 C4082 1.388 . S
C4083 C4084 1.390 . S
C4084 C4083 1.390 . S
C4084 C4085 1.394 . S
C4084 C4090 1.465 . S
C4085 C4080 1.399 . S
C4085 C4084 1.394 . S
C4085 C4086 1.516 . S
C4086 C4085 1.516 . S
C4086 C4087 1.502 . S
C4086 C4088 1.561 . S
C4086 C4089 1.526 . S
C4087 H4071 0.959 . S
C4087 H4072 0.959 . S
C4087 H4073 0.961 . S
C4087 C4086 1.502 . S
C4088 H4074 0.960 . S
C4088 H4075 0.961 . S
C4088 H4076 0.959 . S
C4088 C4086 1.561 . S
C4089 C4086 1.526 . S
C4089 C4090 1.396 . S
C4089 C4094 1.390 . S
C4090 C4084 1.465 . S
C4090 C4089 1.396 . S
C4090 C4091 1.399 . S
C4091 H4077 0.929 . S
C4091 C4090 1.399 . S
C4091 C4092 1.385 . S
C4092 H4078 0.931 . S
C4092 C4091 1.385 . S
C4092 C4093 1.389 . S
C4093 C4092 1.389 . S
C4093 C4094 1.387 . S
C4094 H4079 0.930 . S
C4094 C4089 1.390 . S
C4094 C4093 1.387 . S
H4095 C4107 0.930 . S
H4096 C4109 0.930 . S
H4097 C4110 0.930 . S
H4098 C4114 0.959 . S
H4099 C4114 0.959 . S
H4100 C4114 0.961 . S
H4101 C4115 0.960 . S
H4102 C4115 0.961 . S
H4103 C4115 0.959 . S
H4104 C4118 0.929 . S
H4105 C4119 0.931 . S
H4106 C4121 0.930 . S
C4107 H4095 0.930 . S
C4107 C4108 1.399 . S
C4107 C4112 1.399 . S
C4108 C4107 1.399 . S
C4108 C4109 1.376 . S
C4109 H4096 0.930 . S
C4109 C4108 1.376 . S
C4109 C4110 1.388 . S
C4110 H4097 0.930 . S
C4110 C4109 1.388 . S
C4110 C4111 1.390 . S
C4111 C4110 1.390 . S
C4111 C4112 1.394 . S
C4111 C4117 1.465 . S
C4112 C4107 1.399 . S
C4112 C4111 1.394 . S
C4112 C4113 1.516 . S
C4113 C4112 1.516 . S
C4113 C4114 1.502 . S
C4113 C4115 1.561 . S
C4113 C4116 1.526 . S
C4114 H4098 0.959 . S
C4114 H4099 0.959 . S
C4114 H4100 0.961 . S
C4114 C4113 1.502 . S
C4115 H4101 0.960 . S
C4115 H4102 0.961 . S
C4115 H4103 0.959 . S
C4115 C4113 1.561 . S
C4116 C4113 1.526 . S
C4116 C4117 1.396 . S
C4116 C4121 1.390 . S
C4117 C4111 1.465 . S
C4117 C4116 1.396 . S
C4117 C4118 1.399 . S
C4118 H4104 0.929 . S
C4118 C4117 1.399 . S
C4118 C4119 1.385 . S
C4119 H4105 0.931 . S
C4119 C4118 1.385 . S
C4119 C4120 1.389 . S
C4120 C4119 1.389 . S
C4120 C4121 1.387 . S
C4121 H4106 0.930 . S
C4121 C4116 1.390 . S
C4121 C4120 1.387 . S
H4122 C4134 0.930 . S
H4123 C4136 0.930 . S
H4124 C4137 0.930 . S
H4125 C4141 0.959 . S
H4126 C4141 0.959 1_655 S
H4127 C4141 0.961 . S
H4128 C4142 0.960 . S
H4129 C4142 0.961 . S
H4130 C4142 0.959 . S
H4131 C4145 0.929 . S
H4132 C4146 0.931 . S
H4133 C4148 0.930 . S
C4134 H4122 0.930 . S
C4134 C4135 1.399 . S
C4134 C4139 1.403 . S
C4135 C4134 1.399 . S
C4135 C4136 1.376 . S
C4136 H4123 0.930 . S
C4136 C4135 1.376 . S
C4136 C4137 1.388 1_455 S
C4137 H4124 0.930 . S
C4137 C4136 1.388 1_655 S
C4137 C4138 1.390 . S
C4138 C4137 1.390 . S
C4138 C4139 1.390 1_655 S
C4138 C4144 1.465 . S
C4139 C4134 1.403 . S
C4139 C4138 1.390 1_455 S
C4139 C4140 1.515 1_455 S
C4140 C4139 1.515 1_655 S
C4140 C4141 1.502 1_655 S
C4140 C4142 1.561 . S
C4140 C4143 1.526 . S
C4141 H4125 0.959 . S
C4141 H4126 0.959 1_455 S
C4141 H4127 0.961 . S
C4141 C4140 1.502 1_455 S
C4142 H4128 0.960 . S
C4142 H4129 0.961 . S
C4142 H4130 0.959 . S
C4142 C4140 1.561 . S
C4143 C4140 1.526 . S
C4143 C4144 1.396 . S
C4143 C4148 1.390 . S
C4144 C4138 1.465 . S
C4144 C4143 1.396 . S
C4144 C4145 1.399 . S
C4145 H4131 0.929 . S
C4145 C4144 1.399 . S
C4145 C4146 1.385 . S
C4146 H4132 0.931 . S
C4146 C4145 1.385 . S
C4146 C4147 1.389 . S
C4147 C4146 1.389 . S
C4147 C4148 1.387 . S
C4148 H4133 0.930 . S
C4148 C4143 1.390 . S
C4148 C4147 1.387 . S
H4149 C4161 0.930 . S
H4150 C4163 0.930 . S
H4151 C4164 0.930 . S
H4152 C4168 0.959 . S
H4153 C4168 0.959 . S
H4154 C4168 0.961 . S
H4155 C4169 0.960 . S
H4156 C4169 0.961 . S
H4157 C4169 0.959 . S
H4158 C4172 0.929 . S
H4159 C4173 0.931 . S
H4160 C4175 0.930 . S
C4161 H4149 0.930 . S
C4161 C4162 1.399 . S
C4161 C4166 1.399 . S
C4162 C4161 1.399 . S
C4162 C4163 1.376 . S
C4163 H4150 0.930 . S
C4163 C4162 1.376 . S
C4163 C4164 1.388 . S
C4164 H4151 0.930 . S
C4164 C4163 1.388 . S
C4164 C4165 1.390 . S
C4165 C4164 1.390 . S
C4165 C4166 1.394 . S
C4165 C4171 1.465 . S
C4166 C4161 1.399 . S
C4166 C4165 1.394 . S
C4166 C4167 1.516 . S
C4167 C4166 1.516 . S
C4167 C4168 1.502 . S
C4167 C4169 1.561 . S
C4167 C4170 1.526 . S
C4168 H4152 0.959 . S
C4168 H4153 0.959 . S
C4168 H4154 0.961 . S
C4168 C4167 1.502 . S
C4169 H4155 0.960 . S
C4169 H4156 0.961 . S
C4169 H4157 0.959 . S
C4169 C4167 1.561 . S
C4170 C4167 1.526 . S
C4170 C4171 1.396 . S
C4170 C4175 1.390 . S
C4171 C4165 1.465 . S
C4171 C4170 1.396 . S
C4171 C4172 1.399 . S
C4172 H4158 0.929 . S
C4172 C4171 1.399 . S
C4172 C4173 1.385 . S
C4173 H4159 0.931 . S
C4173 C4172 1.385 . S
C4173 C4174 1.389 . S
C4174 C4173 1.389 . S
C4174 C4175 1.387 . S
C4175 H4160 0.930 . S
C4175 C4170 1.390 . S
C4175 C4174 1.387 . S
H4176 C4188 0.930 . S
H4177 C4190 0.930 . S
H4178 C4191 0.930 . S
H4179 C4195 0.959 . S
H4180 C4195 0.959 . S
H4181 C4195 0.961 . S
H4182 C4196 0.960 . S
H4183 C4196 0.961 . S
H4184 C4196 0.959 . S
H4185 C4199 0.929 . S
H4186 C4200 0.931 . S
H4187 C4202 0.930 . S
C4188 H4176 0.930 . S
C4188 C4189 1.399 . S
C4188 C4193 1.399 . S
C4189 C4188 1.399 . S
C4189 C4190 1.376 . S
C4190 H4177 0.930 . S
C4190 C4189 1.376 . S
C4190 C4191 1.388 . S
C4191 H4178 0.930 . S
C4191 C4190 1.388 . S
C4191 C4192 1.390 . S
C4192 C4191 1.390 . S
C4192 C4193 1.394 . S
C4192 C4198 1.465 . S
C4193 C4188 1.399 . S
C4193 C4192 1.394 . S
C4193 C4194 1.516 . S
C4194 C4193 1.516 . S
C4194 C4195 1.502 . S
C4194 C4196 1.561 . S
C4194 C4197 1.526 . S
C4195 H4179 0.959 . S
C4195 H4180 0.959 . S
C4195 H4181 0.961 . S
C4195 C4194 1.502 . S
C4196 H4182 0.960 . S
C4196 H4183 0.961 . S
C4196 H4184 0.959 . S
C4196 C4194 1.561 . S
C4197 C4194 1.526 . S
C4197 C4198 1.396 . S
C4197 C4202 1.390 . S
C4198 C4192 1.465 . S
C4198 C4197 1.396 . S
C4198 C4199 1.399 . S
C4199 H4185 0.929 . S
C4199 C4198 1.399 . S
C4199 C4200 1.385 . S
C4200 H4186 0.931 . S
C4200 C4199 1.385 . S
C4200 C4201 1.389 . S
C4201 C4200 1.389 . S
C4201 C4202 1.387 . S
C4202 H4187 0.930 . S
C4202 C4197 1.390 . S
C4202 C4201 1.387 . S
H4203 C4215 0.930 . S
H4204 C4217 0.930 . S
H4205 C4218 0.930 . S
H4206 C4222 0.959 . S
H4207 C4222 0.959 . S
H4208 C4222 0.961 . S
H4209 C4223 0.960 . S
H4210 C4223 0.961 . S
H4211 C4223 0.959 . S
H4212 C4226 0.929 . S
H4213 C4227 0.931 . S
H4214 C4229 0.930 . S
C4215 H4203 0.930 . S
C4215 C4216 1.399 . S
C4215 C4220 1.399 . S
C4216 C4215 1.399 . S
C4216 C4217 1.376 . S
C4217 H4204 0.930 . S
C4217 C4216 1.376 . S
C4217 C4218 1.388 . S
C4218 H4205 0.930 . S
C4218 C4217 1.388 . S
C4218 C4219 1.390 . S
C4219 C4218 1.390 . S
C4219 C4220 1.394 . S
C4219 C4225 1.465 . S
C4220 C4215 1.399 . S
C4220 C4219 1.394 . S
C4220 C4221 1.516 . S
C4221 C4220 1.516 . S
C4221 C4222 1.502 . S
C4221 C4223 1.561 . S
C4221 C4224 1.526 . S
C4222 H4206 0.959 . S
C4222 H4207 0.959 . S
C4222 H4208 0.961 . S
C4222 C4221 1.502 . S
C4223 H4209 0.960 . S
C4223 H4210 0.961 . S
C4223 H4211 0.959 . S
C4223 C4221 1.561 . S
C4224 C4221 1.526 . S
C4224 C4225 1.396 . S
C4224 C4229 1.390 . S
C4225 C4219 1.465 . S
C4225 C4224 1.396 . S
C4225 C4226 1.399 . S
C4226 H4212 0.929 . S
C4226 C4225 1.399 . S
C4226 C4227 1.385 . S
C4227 H4213 0.931 . S
C4227 C4226 1.385 . S
C4227 C4228 1.389 . S
C4228 C4227 1.389 . S
C4228 C4229 1.387 . S
C4229 H4214 0.930 . S
C4229 C4224 1.390 . S
C4229 C4228 1.387 . S
H4230 C4242 0.930 . S
H4231 C4244 0.930 . S
H4232 C4245 0.930 . S
H4233 C4249 0.959 . S
H4234 C4249 0.959 . S
H4235 C4249 0.961 . S
H4236 C4250 0.960 . S
H4237 C4250 0.961 . S
H4238 C4250 0.959 . S
H4239 C4253 0.929 . S
H4240 C4254 0.931 . S
H4241 C4256 0.930 . S
C4242 H4230 0.930 . S
C4242 C4243 1.399 . S
C4242 C4247 1.399 . S
C4243 C4242 1.399 . S
C4243 C4244 1.376 . S
C4244 H4231 0.930 . S
C4244 C4243 1.376 . S
C4244 C4245 1.388 . S
C4245 H4232 0.930 . S
C4245 C4244 1.388 . S
C4245 C4246 1.390 . S
C4246 C4245 1.390 . S
C4246 C4247 1.394 . S
C4246 C4252 1.465 . S
C4247 C4242 1.399 . S
C4247 C4246 1.394 . S
C4247 C4248 1.516 . S
C4248 C4247 1.516 . S
C4248 C4249 1.502 . S
C4248 C4250 1.561 . S
C4248 C4251 1.526 . S
C4249 H4233 0.959 . S
C4249 H4234 0.959 . S
C4249 H4235 0.961 . S
C4249 C4248 1.502 . S
C4250 H4236 0.960 . S
C4250 H4237 0.961 . S
C4250 H4238 0.959 . S
C4250 C4248 1.561 . S
C4251 C4248 1.526 . S
C4251 C4252 1.396 . S
C4251 C4256 1.390 . S
C4252 C4246 1.465 . S
C4252 C4251 1.396 . S
C4252 C4253 1.399 . S
C4253 H4239 0.929 . S
C4253 C4252 1.399 . S
C4253 C4254 1.385 . S
C4254 H4240 0.931 . S
C4254 C4253 1.385 . S
C4254 C4255 1.389 . S
C4255 C4254 1.389 . S
C4255 C4256 1.387 . S
C4256 H4241 0.930 . S
C4256 C4251 1.390 . S
C4256 C4255 1.387 . S
H4257 C4269 0.930 . S
H4258 C4271 0.930 . S
H4259 C4272 0.930 . S
H4260 C4276 0.959 . S
H4261 C4276 0.959 . S
H4262 C4276 0.961 . S
H4263 C4277 0.960 . S
H4264 C4277 0.961 . S
H4265 C4277 0.959 . S
H4266 C4280 0.929 . S
H4267 C4281 0.931 . S
H4268 C4283 0.930 . S
C4269 H4257 0.930 . S
C4269 C4270 1.399 . S
C4269 C4274 1.399 . S
C4270 C4269 1.399 . S
C4270 C4271 1.376 . S
C4271 H4258 0.930 . S
C4271 C4270 1.376 . S
C4271 C4272 1.388 . S
C4272 H4259 0.930 . S
C4272 C4271 1.388 . S
C4272 C4273 1.390 . S
C4273 C4272 1.390 . S
C4273 C4274 1.394 . S
C4273 C4279 1.465 . S
C4274 C4269 1.399 . S
C4274 C4273 1.394 . S
C4274 C4275 1.516 . S
C4275 C4274 1.516 . S
C4275 C4276 1.502 . S
C4275 C4277 1.561 . S
C4275 C4278 1.526 . S
C4276 H4260 0.959 . S
C4276 H4261 0.959 . S
C4276 H4262 0.961 . S
C4276 C4275 1.502 . S
C4277 H4263 0.960 . S
C4277 H4264 0.961 . S
C4277 H4265 0.959 . S
C4277 C4275 1.561 . S
C4278 C4275 1.526 . S
C4278 C4279 1.396 . S
C4278 C4283 1.390 . S
C4279 C4273 1.465 . S
C4279 C4278 1.396 . S
C4279 C4280 1.399 . S
C4280 H4266 0.929 . S
C4280 C4279 1.399 . S
C4280 C4281 1.385 . S
C4281 H4267 0.931 . S
C4281 C4280 1.385 . S
C4281 C4282 1.389 . S
C4282 C4281 1.389 . S
C4282 C4283 1.387 . S
C4283 H4268 0.930 . S
C4283 C4278 1.390 . S
C4283 C4282 1.387 . S
H4284 C4296 0.930 . S
H4285 C4298 0.930 . S
H4286 C4299 0.930 . S
H4287 C4303 0.959 . S
H4288 C4303 0.959 . S
H4289 C4303 0.961 . S
H4290 C4304 0.960 . S
H4291 C4304 0.961 . S
H4292 C4304 0.959 . S
H4293 C4307 0.929 . S
H4294 C4308 0.931 . S
H4295 C4310 0.930 . S
C4296 H4284 0.930 . S
C4296 C4297 1.399 . S
C4296 C4301 1.399 . S
C4297 C4296 1.399 . S
C4297 C4298 1.376 . S
C4298 H4285 0.930 . S
C4298 C4297 1.376 . S
C4298 C4299 1.388 . S
C4299 H4286 0.930 . S
C4299 C4298 1.388 . S
C4299 C4300 1.390 . S
C4300 C4299 1.390 . S
C4300 C4301 1.394 . S
C4300 C4306 1.465 . S
C4301 C4296 1.399 . S
C4301 C4300 1.394 . S
C4301 C4302 1.516 . S
C4302 C4301 1.516 . S
C4302 C4303 1.502 . S
C4302 C4304 1.561 . S
C4302 C4305 1.526 . S
C4303 H4287 0.959 . S
C4303 H4288 0.959 . S
C4303 H4289 0.961 . S
C4303 C4302 1.502 . S
C4304 H4290 0.960 . S
C4304 H4291 0.961 . S
C4304 H4292 0.959 . S
C4304 C4302 1.561 . S
C4305 C4302 1.526 . S
C4305 C4306 1.396 . S
C4305 C4310 1.390 . S
C4306 C4300 1.465 . S
C4306 C4305 1.396 . S
C4306 C4307 1.399 . S
C4307 H4293 0.929 . S
C4307 C4306 1.399 . S
C4307 C4308 1.385 . S
C4308 H4294 0.931 . S
C4308 C4307 1.385 . S
C4308 C4309 1.389 . S
C4309 C4308 1.389 . S
C4309 C4310 1.387 . S
C4310 H4295 0.930 . S
C4310 C4305 1.390 . S
C4310 C4309 1.387 . S
H4311 C4323 0.930 . S
H4312 C4325 0.930 . S
H4313 C4326 0.930 . S
H4314 C4330 0.959 . S
H4315 C4330 0.959 . S
H4316 C4330 0.961 . S
H4317 C4331 0.960 . S
H4318 C4331 0.961 . S
H4319 C4331 0.959 . S
H4320 C4334 0.929 . S
H4321 C4335 0.931 . S
H4322 C4337 0.930 . S
C4323 H4311 0.930 . S
C4323 C4324 1.399 . S
C4323 C4328 1.399 . S
C4324 C4323 1.399 . S
C4324 C4325 1.376 . S
C4325 H4312 0.930 . S
C4325 C4324 1.376 . S
C4325 C4326 1.388 . S
C4326 H4313 0.930 . S
C4326 C4325 1.388 . S
C4326 C4327 1.390 . S
C4327 C4326 1.390 . S
C4327 C4328 1.394 . S
C4327 C4333 1.465 . S
C4328 C4323 1.399 . S
C4328 C4327 1.394 . S
C4328 C4329 1.516 . S
C4329 C4328 1.516 . S
C4329 C4330 1.502 . S
C4329 C4331 1.561 . S
C4329 C4332 1.526 . S
C4330 H4314 0.959 . S
C4330 H4315 0.959 . S
C4330 H4316 0.961 . S
C4330 C4329 1.502 . S
C4331 H4317 0.960 . S
C4331 H4318 0.961 . S
C4331 H4319 0.959 . S
C4331 C4329 1.561 . S
C4332 C4329 1.526 . S
C4332 C4333 1.396 . S
C4332 C4337 1.390 . S
C4333 C4327 1.465 . S
C4333 C4332 1.396 . S
C4333 C4334 1.399 . S
C4334 H4320 0.929 . S
C4334 C4333 1.399 . S
C4334 C4335 1.385 . S
C4335 H4321 0.931 . S
C4335 C4334 1.385 . S
C4335 C4336 1.389 . S
C4336 C4335 1.389 . S
C4336 C4337 1.387 . S
C4337 H4322 0.930 . S
C4337 C4332 1.390 . S
C4337 C4336 1.387 . S
H4338 C4350 0.930 . S
H4339 C4352 0.930 . S
H4340 C4353 0.930 . S
H4341 C4357 0.959 . S
H4342 C4357 0.959 . S
H4343 C4357 0.961 . S
H4344 C4358 0.960 . S
H4345 C4358 0.961 . S
H4346 C4358 0.959 . S
H4347 C4361 0.929 . S
H4348 C4362 0.931 . S
H4349 C4364 0.930 . S
C4350 H4338 0.930 . S
C4350 C4351 1.399 . S
C4350 C4355 1.399 . S
C4351 C4350 1.399 . S
C4351 C4352 1.376 . S
C4352 H4339 0.930 . S
C4352 C4351 1.376 . S
C4352 C4353 1.388 . S
C4353 H4340 0.930 . S
C4353 C4352 1.388 . S
C4353 C4354 1.390 . S
C4354 C4353 1.390 . S
C4354 C4355 1.394 . S
C4354 C4360 1.465 . S
C4355 C4350 1.399 . S
C4355 C4354 1.394 . S
C4355 C4356 1.516 . S
C4356 C4355 1.516 . S
C4356 C4357 1.502 . S
C4356 C4358 1.561 . S
C4356 C4359 1.526 . S
C4357 H4341 0.959 . S
C4357 H4342 0.959 . S
C4357 H4343 0.961 . S
C4357 C4356 1.502 . S
C4358 H4344 0.960 . S
C4358 H4345 0.961 . S
C4358 H4346 0.959 . S
C4358 C4356 1.561 . S
C4359 C4356 1.526 . S
C4359 C4360 1.396 . S
C4359 C4364 1.390 . S
C4360 C4354 1.465 . S
C4360 C4359 1.396 . S
C4360 C4361 1.399 . S
C4361 H4347 0.929 . S
C4361 C4360 1.399 . S
C4361 C4362 1.385 . S
C4362 H4348 0.931 . S
C4362 C4361 1.385 . S
C4362 C4363 1.389 . S
C4363 C4362 1.389 . S
C4363 C4364 1.387 . S
C4364 H4349 0.930 . S
C4364 C4359 1.390 . S
C4364 C4363 1.387 . S
H4365 C4377 0.930 . S
H4366 C4379 0.930 . S
H4367 C4380 0.930 . S
H4368 C4384 0.959 . S
H4369 C4384 0.959 . S
H4370 C4384 0.961 . S
H4371 C4385 0.960 . S
H4372 C4385 0.961 . S
H4373 C4385 0.959 . S
H4374 C4388 0.929 . S
H4375 C4389 0.931 . S
H4376 C4391 0.930 . S
C4377 H4365 0.930 . S
C4377 C4378 1.399 . S
C4377 C4382 1.399 . S
C4378 C4377 1.399 . S
C4378 C4379 1.376 . S
C4379 H4366 0.930 . S
C4379 C4378 1.376 . S
C4379 C4380 1.388 . S
C4380 H4367 0.930 . S
C4380 C4379 1.388 . S
C4380 C4381 1.390 . S
C4381 C4380 1.390 . S
C4381 C4382 1.394 . S
C4381 C4387 1.465 . S
C4382 C4377 1.399 . S
C4382 C4381 1.394 . S
C4382 C4383 1.516 . S
C4383 C4382 1.516 . S
C4383 C4384 1.502 . S
C4383 C4385 1.561 . S
C4383 C4386 1.526 . S
C4384 H4368 0.959 . S
C4384 H4369 0.959 . S
C4384 H4370 0.961 . S
C4384 C4383 1.502 . S
C4385 H4371 0.960 . S
C4385 H4372 0.961 . S
C4385 H4373 0.959 . S
C4385 C4383 1.561 . S
C4386 C4383 1.526 . S
C4386 C4387 1.396 . S
C4386 C4391 1.390 . S
C4387 C4381 1.465 . S
C4387 C4386 1.396 . S
C4387 C4388 1.399 . S
C4388 H4374 0.929 . S
C4388 C4387 1.399 . S
C4388 C4389 1.385 . S
C4389 H4375 0.931 . S
C4389 C4388 1.385 . S
C4389 C4390 1.389 . S
C4390 C4389 1.389 . S
C4390 C4391 1.387 . S
C4391 H4376 0.930 . S
C4391 C4386 1.390 . S
C4391 C4390 1.387 . S
H4392 C4404 0.930 . S
H4393 C4406 0.930 . S
H4394 C4407 0.930 . S
H4395 C4411 0.959 . S
H4396 C4411 0.959 . S
H4397 C4411 0.961 . S
H4398 C4412 0.960 . S
H4399 C4412 0.961 . S
H4400 C4412 0.959 . S
H4401 C4415 0.929 . S
H4402 C4416 0.931 . S
H4403 C4418 0.930 . S
C4404 H4392 0.930 . S
C4404 C4405 1.399 . S
C4404 C4409 1.399 . S
C4405 C4404 1.399 . S
C4405 C4406 1.376 . S
C4406 H4393 0.930 . S
C4406 C4405 1.376 . S
C4406 C4407 1.388 . S
C4407 H4394 0.930 . S
C4407 C4406 1.388 . S
C4407 C4408 1.390 . S
C4408 C4407 1.390 . S
C4408 C4409 1.394 . S
C4408 C4414 1.465 . S
C4409 C4404 1.399 . S
C4409 C4408 1.394 . S
C4409 C4410 1.516 . S
C4410 C4409 1.516 . S
C4410 C4411 1.502 . S
C4410 C4412 1.561 . S
C4410 C4413 1.526 . S
C4411 H4395 0.959 . S
C4411 H4396 0.959 . S
C4411 H4397 0.961 . S
C4411 C4410 1.502 . S
C4412 H4398 0.960 . S
C4412 H4399 0.961 . S
C4412 H4400 0.959 . S
C4412 C4410 1.561 . S
C4413 C4410 1.526 . S
C4413 C4414 1.396 . S
C4413 C4418 1.390 . S
C4414 C4408 1.465 . S
C4414 C4413 1.396 . S
C4414 C4415 1.399 . S
C4415 H4401 0.929 . S
C4415 C4414 1.399 . S
C4415 C4416 1.385 . S
C4416 H4402 0.931 . S
C4416 C4415 1.385 . S
C4416 C4417 1.389 . S
C4417 C4416 1.389 . S
C4417 C4418 1.387 . S
C4418 H4403 0.930 . S
C4418 C4413 1.390 . S
C4418 C4417 1.387 . S
H4419 C4431 0.930 . S
H4420 C4433 0.930 . S
H4421 C4434 0.930 . S
H4422 C4438 0.959 . S
H4423 C4438 0.959 . S
H4424 C4438 0.961 . S
H4425 C4439 0.960 . S
H4426 C4439 0.961 . S
H4427 C4439 0.959 . S
H4428 C4442 0.929 . S
H4429 C4443 0.931 . S
H4430 C4445 0.930 . S
C4431 H4419 0.930 . S
C4431 C4432 1.399 . S
C4431 C4436 1.399 . S
C4432 C4431 1.399 . S
C4432 C4433 1.376 . S
C4433 H4420 0.930 . S
C4433 C4432 1.376 . S
C4433 C4434 1.388 . S
C4434 H4421 0.930 . S
C4434 C4433 1.388 . S
C4434 C4435 1.390 . S
C4435 C4434 1.390 . S
C4435 C4436 1.394 . S
C4435 C4441 1.465 . S
C4436 C4431 1.399 . S
C4436 C4435 1.394 . S
C4436 C4437 1.516 . S
C4437 C4436 1.516 . S
C4437 C4438 1.502 . S
C4437 C4439 1.561 . S
C4437 C4440 1.526 . S
C4438 H4422 0.959 . S
C4438 H4423 0.959 . S
C4438 H4424 0.961 . S
C4438 C4437 1.502 . S
C4439 H4425 0.960 . S
C4439 H4426 0.961 . S
C4439 H4427 0.959 . S
C4439 C4437 1.561 . S
C4440 C4437 1.526 . S
C4440 C4441 1.396 . S
C4440 C4445 1.390 . S
C4441 C4435 1.465 . S
C4441 C4440 1.396 . S
C4441 C4442 1.399 . S
C4442 H4428 0.929 . S
C4442 C4441 1.399 . S
C4442 C4443 1.385 . S
C4443 H4429 0.931 . S
C4443 C4442 1.385 . S
C4443 C4444 1.389 . S
C4444 C4443 1.389 . S
C4444 C4445 1.387 . S
C4445 H4430 0.930 . S
C4445 C4440 1.390 . S
C4445 C4444 1.387 . S
H4446 C4458 0.930 . S
H4447 C4460 0.930 . S
H4448 C4461 0.930 . S
H4449 C4465 0.959 . S
H4450 C4465 0.959 . S
H4451 C4465 0.961 . S
H4452 C4466 0.960 . S
H4453 C4466 0.961 . S
H4454 C4466 0.959 . S
H4455 C4469 0.934 . S
H4456 C4470 0.931 . S
H4457 C4472 0.930 . S
C4458 H4446 0.930 . S
C4458 C4459 1.399 . S
C4458 C4463 1.399 . S
C4459 C4458 1.399 . S
C4459 C4460 1.376 . S
C4460 H4447 0.930 . S
C4460 C4459 1.376 . S
C4460 C4461 1.388 . S
C4461 H4448 0.930 . S
C4461 C4460 1.388 . S
C4461 C4462 1.390 . S
C4462 C4461 1.390 . S
C4462 C4463 1.394 . S
C4462 C4468 1.416 1_554 S
C4463 C4458 1.399 . S
C4463 C4462 1.394 . S
C4463 C4464 1.516 1_554 S
C4464 C4463 1.516 1_556 S
C4464 C4465 1.502 . S
C4464 C4466 1.561 . S
C4464 C4467 1.526 . S
C4465 H4449 0.959 . S
C4465 H4450 0.959 . S
C4465 H4451 0.961 . S
C4465 C4464 1.502 . S
C4466 H4452 0.960 . S
C4466 H4453 0.961 . S
C4466 H4454 0.959 . S
C4466 C4464 1.561 . S
C4467 C4464 1.526 . S
C4467 C4468 1.452 . S
C4467 C4472 1.390 . S
C4468 C4462 1.416 1_556 S
C4468 C4467 1.452 . S
C4468 C4469 1.403 1_556 S
C4469 H4455 0.934 . S
C4469 C4468 1.403 1_554 S
C4469 C4470 1.380 1_554 S
C4470 H4456 0.931 . S
C4470 C4469 1.380 1_556 S
C4470 C4471 1.389 . S
C4471 C4470 1.389 . S
C4471 C4472 1.387 . S
C4472 H4457 0.930 . S
C4472 C4467 1.390 . S
C4472 C4471 1.387 . S
H4473 C4485 0.930 . S
H4474 C4487 0.930 . S
H4475 C4488 0.930 . S
H4476 C4492 0.959 . S
H4477 C4492 0.959 . S
H4478 C4492 0.961 . S
H4479 C4493 0.960 . S
H4480 C4493 0.961 . S
H4481 C4493 0.959 . S
H4482 C4496 0.929 . S
H4483 C4497 0.931 . S
H4484 C4499 0.930 . S
C4485 H4473 0.930 . S
C4485 C4486 1.399 . S
C4485 C4490 1.399 . S
C4486 C4485 1.399 . S
C4486 C4487 1.376 . S
C4487 H4474 0.930 . S
C4487 C4486 1.376 . S
C4487 C4488 1.388 . S
C4488 H4475 0.930 . S
C4488 C4487 1.388 . S
C4488 C4489 1.390 . S
C4489 C4488 1.390 . S
C4489 C4490 1.394 . S
C4489 C4495 1.465 . S
C4490 C4485 1.399 . S
C4490 C4489 1.394 . S
C4490 C4491 1.516 . S
C4491 C4490 1.516 . S
C4491 C4492 1.502 . S
C4491 C4493 1.561 . S
C4491 C4494 1.526 . S
C4492 H4476 0.959 . S
C4492 H4477 0.959 . S
C4492 H4478 0.961 . S
C4492 C4491 1.502 . S
C4493 H4479 0.960 . S
C4493 H4480 0.961 . S
C4493 H4481 0.959 . S
C4493 C4491 1.561 . S
C4494 C4491 1.526 . S
C4494 C4495 1.396 . S
C4494 C4499 1.390 . S
C4495 C4489 1.465 . S
C4495 C4494 1.396 . S
C4495 C4496 1.399 . S
C4496 H4482 0.929 . S
C4496 C4495 1.399 . S
C4496 C4497 1.385 . S
C4497 H4483 0.931 . S
C4497 C4496 1.385 . S
C4497 C4498 1.389 . S
C4498 C4497 1.389 . S
C4498 C4499 1.387 . S
C4499 H4484 0.930 . S
C4499 C4494 1.390 . S
C4499 C4498 1.387 . S
H4500 C4512 0.930 . S
H4501 C4514 0.930 . S
H4502 C4515 0.930 . S
H4503 C4519 0.959 . S
H4504 C4519 0.959 . S
H4505 C4519 0.961 . S
H4506 C4520 0.960 . S
H4507 C4520 0.961 . S
H4508 C4520 0.959 . S
H4509 C4523 0.929 . S
H4510 C4524 0.931 . S
H4511 C4526 0.930 . S
C4512 H4500 0.930 . S
C4512 C4513 1.399 . S
C4512 C4517 1.399 . S
C4513 C4512 1.399 . S
C4513 C4514 1.376 . S
C4514 H4501 0.930 . S
C4514 C4513 1.376 . S
C4514 C4515 1.388 . S
C4515 H4502 0.930 . S
C4515 C4514 1.388 . S
C4515 C4516 1.390 . S
C4516 C4515 1.390 . S
C4516 C4517 1.394 . S
C4516 C4522 1.465 1_556 S
C4517 C4512 1.399 . S
C4517 C4516 1.394 . S
C4517 C4518 1.516 . S
C4518 C4517 1.516 . S
C4518 C4519 1.502 . S
C4518 C4520 1.561 . S
C4518 C4521 1.526 1_556 S
C4519 H4503 0.959 . S
C4519 H4504 0.959 . S
C4519 H4505 0.961 . S
C4519 C4518 1.502 . S
C4520 H4506 0.960 . S
C4520 H4507 0.961 . S
C4520 H4508 0.959 . S
C4520 C4518 1.561 . S
C4521 C4518 1.526 1_554 S
C4521 C4522 1.396 . S
C4521 C4526 1.390 . S
C4522 C4516 1.465 1_554 S
C4522 C4521 1.396 . S
C4522 C4523 1.399 . S
C4523 H4509 0.929 . S
C4523 C4522 1.399 . S
C4523 C4524 1.385 . S
C4524 H4510 0.931 . S
C4524 C4523 1.385 . S
C4524 C4525 1.389 . S
C4525 C4524 1.389 . S
C4525 C4526 1.387 . S
C4526 H4511 0.930 . S
C4526 C4521 1.390 . S
C4526 C4525 1.387 . S
H4527 C4539 0.930 . S
H4528 C4541 0.930 . S
H4529 C4542 0.930 . S
H4530 C4546 0.959 . S
H4531 C4546 0.959 . S
H4532 C4546 0.961 . S
H4533 C4547 0.960 . S
H4534 C4547 0.961 . S
H4535 C4547 0.959 . S
H4536 C4550 0.929 . S
H4537 C4551 0.931 . S
H4538 C4553 0.930 . S
C4539 H4527 0.930 . S
C4539 C4540 1.399 . S
C4539 C4544 1.399 . S
C4540 C4539 1.399 . S
C4540 C4541 1.376 . S
C4541 H4528 0.930 . S
C4541 C4540 1.376 . S
C4541 C4542 1.388 . S
C4542 H4529 0.930 . S
C4542 C4541 1.388 . S
C4542 C4543 1.390 . S
C4543 C4542 1.390 . S
C4543 C4544 1.394 . S
C4543 C4549 1.465 . S
C4544 C4539 1.399 . S
C4544 C4543 1.394 . S
C4544 C4545 1.516 . S
C4545 C4544 1.516 . S
C4545 C4546 1.502 . S
C4545 C4547 1.561 . S
C4545 C4548 1.526 . S
C4546 H4530 0.959 . S
C4546 H4531 0.959 . S
C4546 H4532 0.961 . S
C4546 C4545 1.502 . S
C4547 H4533 0.960 . S
C4547 H4534 0.961 . S
C4547 H4535 0.959 . S
C4547 C4545 1.561 . S
C4548 C4545 1.526 . S
C4548 C4549 1.396 . S
C4548 C4553 1.390 . S
C4549 C4543 1.465 . S
C4549 C4548 1.396 . S
C4549 C4550 1.399 . S
C4550 H4536 0.929 . S
C4550 C4549 1.399 . S
C4550 C4551 1.385 . S
C4551 H4537 0.931 . S
C4551 C4550 1.385 . S
C4551 C4552 1.389 . S
C4552 C4551 1.389 . S
C4552 C4553 1.387 . S
C4553 H4538 0.930 . S
C4553 C4548 1.390 . S
C4553 C4552 1.387 . S
H4554 C4566 0.930 . S
H4555 C4568 0.930 . S
H4556 C4569 0.930 . S
H4557 C4573 0.959 . S
H4558 C4573 0.959 . S
H4559 C4573 0.961 . S
H4560 C4574 0.960 . S
H4561 C4574 0.961 . S
H4562 C4574 0.959 . S
H4563 C4577 0.929 . S
H4564 C4578 0.931 . S
H4565 C4580 0.930 . S
C4566 H4554 0.930 . S
C4566 C4567 1.399 . S
C4566 C4571 1.399 . S
C4567 C4566 1.399 . S
C4567 C4568 1.376 . S
C4568 H4555 0.930 . S
C4568 C4567 1.376 . S
C4568 C4569 1.388 . S
C4569 H4556 0.930 . S
C4569 C4568 1.388 . S
C4569 C4570 1.390 . S
C4570 C4569 1.390 . S
C4570 C4571 1.394 . S
C4570 C4576 1.465 . S
C4571 C4566 1.399 . S
C4571 C4570 1.394 . S
C4571 C4572 1.516 . S
C4572 C4571 1.516 . S
C4572 C4573 1.502 . S
C4572 C4574 1.561 . S
C4572 C4575 1.526 . S
C4573 H4557 0.959 . S
C4573 H4558 0.959 . S
C4573 H4559 0.961 . S
C4573 C4572 1.502 . S
C4574 H4560 0.960 . S
C4574 H4561 0.961 . S
C4574 H4562 0.959 . S
C4574 C4572 1.561 . S
C4575 C4572 1.526 . S
C4575 C4576 1.396 . S
C4575 C4580 1.390 . S
C4576 C4570 1.465 . S
C4576 C4575 1.396 . S
C4576 C4577 1.399 . S
C4577 H4563 0.929 . S
C4577 C4576 1.399 . S
C4577 C4578 1.385 . S
C4578 H4564 0.931 . S
C4578 C4577 1.385 . S
C4578 C4579 1.389 . S
C4579 C4578 1.389 . S
C4579 C4580 1.387 . S
C4580 H4565 0.930 . S
C4580 C4575 1.390 . S
C4580 C4579 1.387 . S
H4581 C4593 0.930 . S
H4582 C4595 0.930 . S
H4583 C4596 0.930 . S
H4584 C4600 0.959 . S
H4585 C4600 0.959 . S
H4586 C4600 0.961 . S
H4587 C4601 0.960 . S
H4588 C4601 0.961 . S
H4589 C4601 0.959 . S
H4590 C4604 0.929 . S
H4591 C4605 0.931 . S
H4592 C4607 0.930 . S
C4593 H4581 0.930 . S
C4593 C4594 1.399 . S
C4593 C4598 1.399 . S
C4594 C4593 1.399 . S
C4594 C4595 1.376 . S
C4595 H4582 0.930 . S
C4595 C4594 1.376 . S
C4595 C4596 1.388 . S
C4596 H4583 0.930 . S
C4596 C4595 1.388 . S
C4596 C4597 1.390 . S
C4597 C4596 1.390 . S
C4597 C4598 1.394 . S
C4597 C4603 1.465 . S
C4598 C4593 1.399 . S
C4598 C4597 1.394 . S
C4598 C4599 1.516 . S
C4599 C4598 1.516 . S
C4599 C4600 1.502 . S
C4599 C4601 1.561 . S
C4599 C4602 1.526 . S
C4600 H4584 0.959 . S
C4600 H4585 0.959 . S
C4600 H4586 0.961 . S
C4600 C4599 1.502 . S
C4601 H4587 0.960 . S
C4601 H4588 0.961 . S
C4601 H4589 0.959 . S
C4601 C4599 1.561 . S
C4602 C4599 1.526 . S
C4602 C4603 1.396 . S
C4602 C4607 1.390 . S
C4603 C4597 1.465 . S
C4603 C4602 1.396 . S
C4603 C4604 1.399 . S
C4604 H4590 0.929 . S
C4604 C4603 1.399 . S
C4604 C4605 1.385 . S
C4605 H4591 0.931 . S
C4605 C4604 1.385 . S
C4605 C4606 1.389 . S
C4606 C4605 1.389 . S
C4606 C4607 1.387 . S
C4607 H4592 0.930 . S
C4607 C4602 1.390 . S
C4607 C4606 1.387 . S
H4608 C4620 0.930 . S
H4609 C4622 0.930 . S
H4610 C4623 0.930 . S
H4611 C4627 0.959 . S
H4612 C4627 0.959 . S
H4613 C4627 0.961 . S
H4614 C4628 0.960 . S
H4615 C4628 0.961 . S
H4616 C4628 0.959 . S
H4617 C4631 0.929 . S
H4618 C4632 0.931 . S
H4619 C4634 0.930 . S
C4620 H4608 0.930 . S
C4620 C4621 1.399 . S
C4620 C4625 1.399 . S
C4621 C4620 1.399 . S
C4621 C4622 1.376 . S
C4622 H4609 0.930 . S
C4622 C4621 1.376 . S
C4622 C4623 1.388 . S
C4623 H4610 0.930 . S
C4623 C4622 1.388 . S
C4623 C4624 1.390 . S
C4624 C4623 1.390 . S
C4624 C4625 1.394 . S
C4624 C4630 1.465 . S
C4625 C4620 1.399 . S
C4625 C4624 1.394 . S
C4625 C4626 1.516 . S
C4626 C4625 1.516 . S
C4626 C4627 1.502 . S
C4626 C4628 1.561 . S
C4626 C4629 1.526 . S
C4627 H4611 0.959 . S
C4627 H4612 0.959 . S
C4627 H4613 0.961 . S
C4627 C4626 1.502 . S
C4628 H4614 0.960 . S
C4628 H4615 0.961 . S
C4628 H4616 0.959 . S
C4628 C4626 1.561 . S
C4629 C4626 1.526 . S
C4629 C4630 1.396 . S
C4629 C4634 1.390 . S
C4630 C4624 1.465 . S
C4630 C4629 1.396 . S
C4630 C4631 1.399 . S
C4631 H4617 0.929 . S
C4631 C4630 1.399 . S
C4631 C4632 1.385 . S
C4632 H4618 0.931 . S
C4632 C4631 1.385 . S
C4632 C4633 1.389 . S
C4633 C4632 1.389 . S
C4633 C4634 1.387 . S
C4634 H4619 0.930 . S
C4634 C4629 1.390 . S
C4634 C4633 1.387 . S
H4635 C4647 0.930 . S
H4636 C4649 0.930 . S
H4637 C4650 0.930 . S
H4638 C4654 0.959 . S
H4639 C4654 0.959 . S
H4640 C4654 0.961 . S
H4641 C4655 0.960 . S
H4642 C4655 0.961 . S
H4643 C4655 0.959 . S
H4644 C4658 0.929 . S
H4645 C4659 0.931 . S
H4646 C4661 0.930 . S
C4647 H4635 0.930 . S
C4647 C4648 1.399 . S
C4647 C4652 1.399 . S
C4648 C4647 1.399 . S
C4648 C4649 1.376 . S
C4649 H4636 0.930 . S
C4649 C4648 1.376 . S
C4649 C4650 1.388 . S
C4650 H4637 0.930 . S
C4650 C4649 1.388 . S
C4650 C4651 1.390 . S
C4651 C4650 1.390 . S
C4651 C4652 1.394 . S
C4651 C4657 1.465 . S
C4652 C4647 1.399 . S
C4652 C4651 1.394 . S
C4652 C4653 1.516 . S
C4653 C4652 1.516 . S
C4653 C4654 1.502 . S
C4653 C4655 1.561 . S
C4653 C4656 1.526 . S
C4654 H4638 0.959 . S
C4654 H4639 0.959 . S
C4654 H4640 0.961 . S
C4654 C4653 1.502 . S
C4655 H4641 0.960 . S
C4655 H4642 0.961 . S
C4655 H4643 0.959 . S
C4655 C4653 1.561 . S
C4656 C4653 1.526 . S
C4656 C4657 1.396 . S
C4656 C4661 1.390 . S
C4657 C4651 1.465 . S
C4657 C4656 1.396 . S
C4657 C4658 1.399 . S
C4658 H4644 0.929 . S
C4658 C4657 1.399 . S
C4658 C4659 1.385 . S
C4659 H4645 0.931 . S
C4659 C4658 1.385 . S
C4659 C4660 1.389 . S
C4660 C4659 1.389 . S
C4660 C4661 1.387 . S
C4661 H4646 0.930 . S
C4661 C4656 1.390 . S
C4661 C4660 1.387 . S
H4662 C4674 0.930 . S
H4663 C4676 0.930 . S
H4664 C4677 0.930 . S
H4665 C4681 0.959 . S
H4666 C4681 0.959 . S
H4667 C4681 0.961 . S
H4668 C4682 0.960 . S
H4669 C4682 0.961 . S
H4670 C4682 0.959 . S
H4671 C4685 0.929 . S
H4672 C4686 0.931 . S
H4673 C4688 0.930 . S
C4674 H4662 0.930 . S
C4674 C4675 1.399 . S
C4674 C4679 1.399 . S
C4675 C4674 1.399 . S
C4675 C4676 1.376 . S
C4676 H4663 0.930 . S
C4676 C4675 1.376 . S
C4676 C4677 1.388 . S
C4677 H4664 0.930 . S
C4677 C4676 1.388 . S
C4677 C4678 1.390 . S
C4678 C4677 1.390 . S
C4678 C4679 1.394 . S
C4678 C4684 1.465 . S
C4679 C4674 1.399 . S
C4679 C4678 1.394 . S
C4679 C4680 1.516 . S
C4680 C4679 1.516 . S
C4680 C4681 1.502 . S
C4680 C4682 1.561 . S
C4680 C4683 1.526 . S
C4681 H4665 0.959 . S
C4681 H4666 0.959 . S
C4681 H4667 0.961 . S
C4681 C4680 1.502 . S
C4682 H4668 0.960 . S
C4682 H4669 0.961 . S
C4682 H4670 0.959 . S
C4682 C4680 1.561 . S
C4683 C4680 1.526 . S
C4683 C4684 1.396 . S
C4683 C4688 1.390 . S
C4684 C4678 1.465 . S
C4684 C4683 1.396 . S
C4684 C4685 1.399 . S
C4685 H4671 0.929 . S
C4685 C4684 1.399 . S
C4685 C4686 1.385 . S
C4686 H4672 0.931 . S
C4686 C4685 1.385 . S
C4686 C4687 1.389 . S
C4687 C4686 1.389 . S
C4687 C4688 1.387 . S
C4688 H4673 0.930 . S
C4688 C4683 1.390 . S
C4688 C4687 1.387 . S
H4689 C4701 0.930 . S
H4690 C4703 0.930 . S
H4691 C4704 0.930 . S
H4692 C4708 0.959 . S
H4693 C4708 0.959 . S
H4694 C4708 0.961 . S
H4695 C4709 0.960 . S
H4696 C4709 0.961 . S
H4697 C4709 0.959 . S
H4698 C4712 0.929 . S
H4699 C4713 0.931 . S
H4700 C4715 0.930 . S
C4701 H4689 0.930 . S
C4701 C4702 1.399 . S
C4701 C4706 1.399 . S
C4702 C4701 1.399 . S
C4702 C4703 1.376 . S
C4703 H4690 0.930 . S
C4703 C4702 1.376 . S
C4703 C4704 1.388 . S
C4704 H4691 0.930 . S
C4704 C4703 1.388 . S
C4704 C4705 1.390 . S
C4705 C4704 1.390 . S
C4705 C4706 1.394 . S
C4705 C4711 1.465 . S
C4706 C4701 1.399 . S
C4706 C4705 1.394 . S
C4706 C4707 1.516 . S
C4707 C4706 1.516 . S
C4707 C4708 1.502 . S
C4707 C4709 1.561 . S
C4707 C4710 1.526 . S
C4708 H4692 0.959 . S
C4708 H4693 0.959 . S
C4708 H4694 0.961 . S
C4708 C4707 1.502 . S
C4709 H4695 0.960 . S
C4709 H4696 0.961 . S
C4709 H4697 0.959 . S
C4709 C4707 1.561 . S
C4710 C4707 1.526 . S
C4710 C4711 1.396 . S
C4710 C4715 1.390 . S
C4711 C4705 1.465 . S
C4711 C4710 1.396 . S
C4711 C4712 1.399 . S
C4712 H4698 0.929 . S
C4712 C4711 1.399 . S
C4712 C4713 1.385 . S
C4713 H4699 0.931 . S
C4713 C4712 1.385 . S
C4713 C4714 1.389 . S
C4714 C4713 1.389 . S
C4714 C4715 1.387 . S
C4715 H4700 0.930 . S
C4715 C4710 1.390 . S
C4715 C4714 1.387 . S
H4716 C4728 0.930 . S
H4717 C4730 0.930 . S
H4718 C4731 0.930 . S
H4719 C4735 0.959 . S
H4720 C4735 0.959 . S
H4721 C4735 0.961 . S
H4722 C4736 0.960 . S
H4723 C4736 0.961 . S
H4724 C4736 0.959 . S
H4725 C4739 0.929 . S
H4726 C4740 0.931 . S
H4727 C4742 0.930 . S
C4728 H4716 0.930 . S
C4728 C4729 1.399 . S
C4728 C4733 1.399 . S
C4729 C4728 1.399 . S
C4729 C4730 1.376 . S
C4730 H4717 0.930 . S
C4730 C4729 1.376 . S
C4730 C4731 1.388 . S
C4731 H4718 0.930 . S
C4731 C4730 1.388 . S
C4731 C4732 1.390 . S
C4732 C4731 1.390 . S
C4732 C4733 1.394 . S
C4732 C4738 1.465 . S
C4733 C4728 1.399 . S
C4733 C4732 1.394 . S
C4733 C4734 1.516 . S
C4734 C4733 1.516 . S
C4734 C4735 1.502 . S
C4734 C4736 1.561 . S
C4734 C4737 1.526 . S
C4735 H4719 0.959 . S
C4735 H4720 0.959 . S
C4735 H4721 0.961 . S
C4735 C4734 1.502 . S
C4736 H4722 0.960 . S
C4736 H4723 0.961 . S
C4736 H4724 0.959 . S
C4736 C4734 1.561 . S
C4737 C4734 1.526 . S
C4737 C4738 1.396 . S
C4737 C4742 1.390 . S
C4738 C4732 1.465 . S
C4738 C4737 1.396 . S
C4738 C4739 1.399 . S
C4739 H4725 0.929 . S
C4739 C4738 1.399 . S
C4739 C4740 1.385 . S
C4740 H4726 0.931 . S
C4740 C4739 1.385 . S
C4740 C4741 1.389 . S
C4741 C4740 1.389 . S
C4741 C4742 1.387 . S
C4742 H4727 0.930 . S
C4742 C4737 1.390 . S
C4742 C4741 1.387 . S
H4743 C4755 0.930 . S
H4744 C4757 0.930 . S
H4745 C4758 0.930 . S
H4746 C4762 0.959 . S
H4747 C4762 0.959 . S
H4748 C4762 0.961 . S
H4749 C4763 0.960 . S
H4750 C4763 0.961 . S
H4751 C4763 0.959 . S
H4752 C4766 0.929 . S
H4753 C4767 0.931 . S
H4754 C4769 0.930 . S
C4755 H4743 0.930 . S
C4755 C4756 1.399 . S
C4755 C4760 1.399 . S
C4756 C4755 1.399 . S
C4756 C4757 1.376 . S
C4757 H4744 0.930 . S
C4757 C4756 1.376 . S
C4757 C4758 1.388 . S
C4758 H4745 0.930 . S
C4758 C4757 1.388 . S
C4758 C4759 1.390 . S
C4759 C4758 1.390 . S
C4759 C4760 1.394 . S
C4759 C4765 1.465 . S
C4760 C4755 1.399 . S
C4760 C4759 1.394 . S
C4760 C4761 1.516 . S
C4761 C4760 1.516 . S
C4761 C4762 1.502 . S
C4761 C4763 1.561 . S
C4761 C4764 1.526 . S
C4762 H4746 0.959 . S
C4762 H4747 0.959 . S
C4762 H4748 0.961 . S
C4762 C4761 1.502 . S
C4763 H4749 0.960 . S
C4763 H4750 0.961 . S
C4763 H4751 0.959 . S
C4763 C4761 1.561 . S
C4764 C4761 1.526 . S
C4764 C4765 1.396 . S
C4764 C4769 1.390 . S
C4765 C4759 1.465 . S
C4765 C4764 1.396 . S
C4765 C4766 1.399 . S
C4766 H4752 0.929 . S
C4766 C4765 1.399 . S
C4766 C4767 1.385 . S
C4767 H4753 0.931 . S
C4767 C4766 1.385 . S
C4767 C4768 1.389 . S
C4768 C4767 1.389 . S
C4768 C4769 1.387 . S
C4769 H4754 0.930 . S
C4769 C4764 1.390 . S
C4769 C4768 1.387 . S
H4770 C4782 0.930 . S
H4771 C4784 0.930 . S
H4772 C4785 0.930 . S
H4773 C4789 0.959 . S
H4774 C4789 0.959 . S
H4775 C4789 0.961 . S
H4776 C4790 0.960 . S
H4777 C4790 0.961 . S
H4778 C4790 0.959 . S
H4779 C4793 0.929 1_655 S
H4780 C4794 0.931 . S
H4781 C4796 0.930 . S
C4782 H4770 0.930 . S
C4782 C4783 1.399 . S
C4782 C4787 1.399 . S
C4783 C4782 1.399 . S
C4783 C4784 1.376 . S
C4784 H4771 0.930 . S
C4784 C4783 1.376 . S
C4784 C4785 1.388 . S
C4785 H4772 0.930 . S
C4785 C4784 1.388 . S
C4785 C4786 1.390 . S
C4786 C4785 1.390 . S
C4786 C4787 1.394 . S
C4786 C4792 1.513 . S
C4787 C4782 1.399 . S
C4787 C4786 1.394 . S
C4787 C4788 1.516 1_655 S
C4788 C4787 1.516 1_455 S
C4788 C4789 1.502 . S
C4788 C4790 1.561 . S
C4788 C4791 1.526 . S
C4789 H4773 0.959 . S
C4789 H4774 0.959 . S
C4789 H4775 0.961 . S
C4789 C4788 1.502 . S
C4790 H4776 0.960 . S
C4790 H4777 0.961 . S
C4790 H4778 0.959 . S
C4790 C4788 1.561 . S
C4791 C4788 1.526 . S
C4791 C4792 1.344 1_455 S
C4791 C4796 1.390 . S
C4792 C4786 1.513 . S
C4792 C4791 1.344 1_655 S
C4792 C4793 1.398 1_655 S
C4793 H4779 0.929 1_455 S
C4793 C4792 1.398 1_455 S
C4793 C4794 1.385 . S
C4794 H4780 0.931 . S
C4794 C4793 1.385 . S
C4794 C4795 1.389 . S
C4795 C4794 1.389 . S
C4795 C4796 1.387 . S
C4796 H4781 0.930 . S
C4796 C4791 1.390 . S
C4796 C4795 1.387 . S
H4797 C4809 0.930 . S
H4798 C4811 0.930 . S
H4799 C4812 0.930 . S
H4800 C4816 0.959 . S
H4801 C4816 0.959 . S
H4802 C4816 0.961 . S
H4803 C4817 0.960 . S
H4804 C4817 0.961 . S
H4805 C4817 0.959 . S
H4806 C4820 0.929 . S
H4807 C4821 0.931 . S
H4808 C4823 0.930 . S
C4809 H4797 0.930 . S
C4809 C4810 1.399 . S
C4809 C4814 1.399 . S
C4810 C4809 1.399 . S
C4810 C4811 1.376 . S
C4811 H4798 0.930 . S
C4811 C4810 1.376 . S
C4811 C4812 1.388 . S
C4812 H4799 0.930 . S
C4812 C4811 1.388 . S
C4812 C4813 1.390 . S
C4813 C4812 1.390 . S
C4813 C4814 1.394 . S
C4813 C4819 1.465 . S
C4814 C4809 1.399 . S
C4814 C4813 1.394 . S
C4814 C4815 1.516 . S
C4815 C4814 1.516 . S
C4815 C4816 1.502 . S
C4815 C4817 1.561 . S
C4815 C4818 1.526 . S
C4816 H4800 0.959 . S
C4816 H4801 0.959 . S
C4816 H4802 0.961 . S
C4816 C4815 1.502 . S
C4817 H4803 0.960 . S
C4817 H4804 0.961 . S
C4817 H4805 0.959 . S
C4817 C4815 1.561 . S
C4818 C4815 1.526 . S
C4818 C4819 1.396 . S
C4818 C4823 1.390 . S
C4819 C4813 1.465 . S
C4819 C4818 1.396 . S
C4819 C4820 1.399 . S
C4820 H4806 0.929 . S
C4820 C4819 1.399 . S
C4820 C4821 1.385 . S
C4821 H4807 0.931 . S
C4821 C4820 1.385 . S
C4821 C4822 1.389 . S
C4822 C4821 1.389 . S
C4822 C4823 1.387 . S
C4823 H4808 0.930 . S
C4823 C4818 1.390 . S
C4823 C4822 1.387 . S
H4824 C4836 0.930 . S
H4825 C4838 0.930 . S
H4826 C4839 0.930 . S
H4827 C4843 0.959 . S
H4828 C4843 0.959 . S
H4829 C4843 0.961 . S
H4830 C4844 0.960 . S
H4831 C4844 0.961 . S
H4832 C4844 0.959 . S
H4833 C4847 0.929 . S
H4834 C4848 0.931 . S
H4835 C4850 0.930 . S
C4836 H4824 0.930 . S
C4836 C4837 1.399 . S
C4836 C4841 1.399 . S
C4837 C4836 1.399 . S
C4837 C4838 1.376 . S
C4838 H4825 0.930 . S
C4838 C4837 1.376 . S
C4838 C4839 1.388 . S
C4839 H4826 0.930 . S
C4839 C4838 1.388 . S
C4839 C4840 1.390 . S
C4840 C4839 1.390 . S
C4840 C4841 1.394 . S
C4840 C4846 1.465 . S
C4841 C4836 1.399 . S
C4841 C4840 1.394 . S
C4841 C4842 1.516 . S
C4842 C4841 1.516 . S
C4842 C4843 1.502 . S
C4842 C4844 1.561 . S
C4842 C4845 1.526 . S
C4843 H4827 0.959 . S
C4843 H4828 0.959 . S
C4843 H4829 0.961 . S
C4843 C4842 1.502 . S
C4844 H4830 0.960 . S
C4844 H4831 0.961 . S
C4844 H4832 0.959 . S
C4844 C4842 1.561 . S
C4845 C4842 1.526 . S
C4845 C4846 1.396 . S
C4845 C4850 1.390 . S
C4846 C4840 1.465 . S
C4846 C4845 1.396 . S
C4846 C4847 1.399 . S
C4847 H4833 0.929 . S
C4847 C4846 1.399 . S
C4847 C4848 1.385 . S
C4848 H4834 0.931 . S
C4848 C4847 1.385 . S
C4848 C4849 1.389 . S
C4849 C4848 1.389 . S
C4849 C4850 1.387 . S
C4850 H4835 0.930 . S
C4850 C4845 1.390 . S
C4850 C4849 1.387 . S
H4851 C4863 0.930 . S
H4852 C4865 0.930 . S
H4853 C4866 0.930 . S
H4854 C4870 0.959 . S
H4855 C4870 0.959 . S
H4856 C4870 0.961 . S
H4857 C4871 0.960 . S
H4858 C4871 0.961 . S
H4859 C4871 0.959 . S
H4860 C4874 0.929 . S
H4861 C4875 0.931 . S
H4862 C4877 0.930 . S
C4863 H4851 0.930 . S
C4863 C4864 1.399 . S
C4863 C4868 1.399 . S
C4864 C4863 1.399 . S
C4864 C4865 1.376 . S
C4865 H4852 0.930 . S
C4865 C4864 1.376 . S
C4865 C4866 1.388 . S
C4866 H4853 0.930 . S
C4866 C4865 1.388 . S
C4866 C4867 1.390 . S
C4867 C4866 1.390 . S
C4867 C4868 1.394 . S
C4867 C4873 1.465 . S
C4868 C4863 1.399 . S
C4868 C4867 1.394 . S
C4868 C4869 1.516 . S
C4869 C4868 1.516 . S
C4869 C4870 1.502 . S
C4869 C4871 1.561 . S
C4869 C4872 1.526 . S
C4870 H4854 0.959 . S
C4870 H4855 0.959 . S
C4870 H4856 0.961 . S
C4870 C4869 1.502 . S
C4871 H4857 0.960 . S
C4871 H4858 0.961 . S
C4871 H4859 0.959 . S
C4871 C4869 1.561 . S
C4872 C4869 1.526 . S
C4872 C4873 1.396 . S
C4872 C4877 1.390 . S
C4873 C4867 1.465 . S
C4873 C4872 1.396 . S
C4873 C4874 1.399 . S
C4874 H4860 0.929 . S
C4874 C4873 1.399 . S
C4874 C4875 1.385 . S
C4875 H4861 0.931 . S
C4875 C4874 1.385 . S
C4875 C4876 1.389 . S
C4876 C4875 1.389 . S
C4876 C4877 1.387 . S
C4877 H4862 0.930 . S
C4877 C4872 1.390 . S
C4877 C4876 1.387 . S
H4878 C4890 0.930 . S
H4879 C4892 0.930 . S
H4880 C4893 0.930 . S
H4881 C4897 0.959 . S
H4882 C4897 0.959 . S
H4883 C4897 0.961 . S
H4884 C4898 0.960 . S
H4885 C4898 0.961 . S
H4886 C4898 0.959 . S
H4887 C4901 0.929 . S
H4888 C4902 0.931 . S
H4889 C4904 0.930 . S
C4890 H4878 0.930 . S
C4890 C4891 1.399 . S
C4890 C4895 1.399 . S
C4891 C4890 1.399 . S
C4891 C4892 1.376 . S
C4892 H4879 0.930 . S
C4892 C4891 1.376 . S
C4892 C4893 1.388 . S
C4893 H4880 0.930 . S
C4893 C4892 1.388 . S
C4893 C4894 1.390 . S
C4894 C4893 1.390 . S
C4894 C4895 1.394 . S
C4894 C4900 1.465 . S
C4895 C4890 1.399 . S
C4895 C4894 1.394 . S
C4895 C4896 1.516 . S
C4896 C4895 1.516 . S
C4896 C4897 1.502 . S
C4896 C4898 1.561 . S
C4896 C4899 1.526 . S
C4897 H4881 0.959 . S
C4897 H4882 0.959 . S
C4897 H4883 0.961 . S
C4897 C4896 1.502 . S
C4898 H4884 0.960 . S
C4898 H4885 0.961 . S
C4898 H4886 0.959 . S
C4898 C4896 1.561 . S
C4899 C4896 1.526 . S
C4899 C4900 1.396 . S
C4899 C4904 1.390 . S
C4900 C4894 1.465 . S
C4900 C4899 1.396 . S
C4900 C4901 1.399 . S
C4901 H4887 0.929 . S
C4901 C4900 1.399 . S
C4901 C4902 1.385 . S
C4902 H4888 0.931 . S
C4902 C4901 1.385 . S
C4902 C4903 1.389 . S
C4903 C4902 1.389 . S
C4903 C4904 1.387 . S
C4904 H4889 0.930 . S
C4904 C4899 1.390 . S
C4904 C4903 1.387 . S
H4905 C4917 0.930 . S
H4906 C4919 0.930 . S
H4907 C4920 0.930 . S
H4908 C4924 0.959 . S
H4909 C4924 0.959 . S
H4910 C4924 0.961 . S
H4911 C4925 0.960 . S
H4912 C4925 0.961 . S
H4913 C4925 0.959 . S
H4914 C4928 0.929 . S
H4915 C4929 0.931 . S
H4916 C4931 0.930 . S
C4917 H4905 0.930 . S
C4917 C4918 1.399 . S
C4917 C4922 1.399 . S
C4918 C4917 1.399 . S
C4918 C4919 1.376 . S
C4919 H4906 0.930 . S
C4919 C4918 1.376 . S
C4919 C4920 1.388 . S
C4920 H4907 0.930 . S
C4920 C4919 1.388 . S
C4920 C4921 1.390 . S
C4921 C4920 1.390 . S
C4921 C4922 1.394 . S
C4921 C4927 1.465 . S
C4922 C4917 1.399 . S
C4922 C4921 1.394 . S
C4922 C4923 1.516 . S
C4923 C4922 1.516 . S
C4923 C4924 1.502 . S
C4923 C4925 1.561 . S
C4923 C4926 1.526 . S
C4924 H4908 0.959 . S
C4924 H4909 0.959 . S
C4924 H4910 0.961 . S
C4924 C4923 1.502 . S
C4925 H4911 0.960 . S
C4925 H4912 0.961 . S
C4925 H4913 0.959 . S
C4925 C4923 1.561 . S
C4926 C4923 1.526 . S
C4926 C4927 1.396 . S
C4926 C4931 1.390 . S
C4927 C4921 1.465 . S
C4927 C4926 1.396 . S
C4927 C4928 1.399 . S
C4928 H4914 0.929 . S
C4928 C4927 1.399 . S
C4928 C4929 1.385 . S
C4929 H4915 0.931 . S
C4929 C4928 1.385 . S
C4929 C4930 1.389 . S
C4930 C4929 1.389 . S
C4930 C4931 1.387 . S
C4931 H4916 0.930 . S
C4931 C4926 1.390 . S
C4931 C4930 1.387 . S
H4932 C4944 0.930 . S
H4933 C4946 0.930 . S
H4934 C4947 0.930 . S
H4935 C4951 0.959 . S
H4936 C4951 0.959 . S
H4937 C4951 0.961 . S
H4938 C4952 0.960 . S
H4939 C4952 0.961 . S
H4940 C4952 0.959 . S
H4941 C4955 0.929 . S
H4942 C4956 0.931 . S
H4943 C4958 0.930 . S
C4944 H4932 0.930 . S
C4944 C4945 1.399 . S
C4944 C4949 1.399 . S
C4945 C4944 1.399 . S
C4945 C4946 1.376 . S
C4946 H4933 0.930 . S
C4946 C4945 1.376 . S
C4946 C4947 1.388 . S
C4947 H4934 0.930 . S
C4947 C4946 1.388 . S
C4947 C4948 1.390 . S
C4948 C4947 1.390 . S
C4948 C4949 1.394 . S
C4948 C4954 1.465 . S
C4949 C4944 1.399 . S
C4949 C4948 1.394 . S
C4949 C4950 1.516 . S
C4950 C4949 1.516 . S
C4950 C4951 1.502 . S
C4950 C4952 1.561 . S
C4950 C4953 1.526 . S
C4951 H4935 0.959 . S
C4951 H4936 0.959 . S
C4951 H4937 0.961 . S
C4951 C4950 1.502 . S
C4952 H4938 0.960 . S
C4952 H4939 0.961 . S
C4952 H4940 0.959 . S
C4952 C4950 1.561 . S
C4953 C4950 1.526 . S
C4953 C4954 1.396 . S
C4953 C4958 1.390 . S
C4954 C4948 1.465 . S
C4954 C4953 1.396 . S
C4954 C4955 1.399 . S
C4955 H4941 0.929 . S
C4955 C4954 1.399 . S
C4955 C4956 1.385 . S
C4956 H4942 0.931 . S
C4956 C4955 1.385 . S
C4956 C4957 1.389 . S
C4957 C4956 1.389 . S
C4957 C4958 1.387 . S
C4958 H4943 0.930 . S
C4958 C4953 1.390 . S
C4958 C4957 1.387 . S
H4959 C4971 0.930 . S
H4960 C4973 0.930 . S
H4961 C4974 0.930 . S
H4962 C4978 0.959 . S
H4963 C4978 0.959 . S
H4964 C4978 0.961 . S
H4965 C4979 0.960 . S
H4966 C4979 0.961 . S
H4967 C4979 0.959 . S
H4968 C4982 0.929 . S
H4969 C4983 0.931 . S
H4970 C4985 0.930 . S
C4971 H4959 0.930 . S
C4971 C4972 1.399 . S
C4971 C4976 1.399 . S
C4972 C4971 1.399 . S
C4972 C4973 1.376 . S
C4973 H4960 0.930 . S
C4973 C4972 1.376 . S
C4973 C4974 1.388 . S
C4974 H4961 0.930 . S
C4974 C4973 1.388 . S
C4974 C4975 1.390 . S
C4975 C4974 1.390 . S
C4975 C4976 1.394 . S
C4975 C4981 1.465 . S
C4976 C4971 1.399 . S
C4976 C4975 1.394 . S
C4976 C4977 1.516 . S
C4977 C4976 1.516 . S
C4977 C4978 1.502 . S
C4977 C4979 1.561 . S
C4977 C4980 1.526 . S
C4978 H4962 0.959 . S
C4978 H4963 0.959 . S
C4978 H4964 0.961 . S
C4978 C4977 1.502 . S
C4979 H4965 0.960 . S
C4979 H4966 0.961 . S
C4979 H4967 0.959 . S
C4979 C4977 1.561 . S
C4980 C4977 1.526 . S
C4980 C4981 1.396 . S
C4980 C4985 1.390 . S
C4981 C4975 1.465 . S
C4981 C4980 1.396 . S
C4981 C4982 1.399 . S
C4982 H4968 0.929 . S
C4982 C4981 1.399 . S
C4982 C4983 1.385 . S
C4983 H4969 0.931 . S
C4983 C4982 1.385 . S
C4983 C4984 1.389 . S
C4984 C4983 1.389 . S
C4984 C4985 1.387 . S
C4985 H4970 0.930 . S
C4985 C4980 1.390 . S
C4985 C4984 1.387 . S
H4986 C4998 0.930 . S
H4987 C5000 0.930 . S
H4988 C5001 0.930 . S
H4989 C5005 0.959 . S
H4990 C5005 0.959 . S
H4991 C5005 0.961 . S
H4992 C5006 0.960 . S
H4993 C5006 0.961 . S
H4994 C5006 0.959 . S
H4995 C5009 0.929 . S
H4996 C5010 0.931 . S
H4997 C5012 0.930 . S
C4998 H4986 0.930 . S
C4998 C4999 1.399 . S
C4998 C5003 1.399 . S
C4999 C4998 1.399 . S
C4999 C5000 1.376 . S
C5000 H4987 0.930 . S
C5000 C4999 1.376 . S
C5000 C5001 1.388 . S
C5001 H4988 0.930 . S
C5001 C5000 1.388 . S
C5001 C5002 1.390 . S
C5002 C5001 1.390 . S
C5002 C5003 1.394 . S
C5002 C5008 1.465 . S
C5003 C4998 1.399 . S
C5003 C5002 1.394 . S
C5003 C5004 1.516 . S
C5004 C5003 1.516 . S
C5004 C5005 1.502 . S
C5004 C5006 1.561 . S
C5004 C5007 1.526 . S
C5005 H4989 0.959 . S
C5005 H4990 0.959 . S
C5005 H4991 0.961 . S
C5005 C5004 1.502 . S
C5006 H4992 0.960 . S
C5006 H4993 0.961 . S
C5006 H4994 0.959 . S
C5006 C5004 1.561 . S
C5007 C5004 1.526 . S
C5007 C5008 1.396 . S
C5007 C5012 1.390 . S
C5008 C5002 1.465 . S
C5008 C5007 1.396 . S
C5008 C5009 1.399 . S
C5009 H4995 0.929 . S
C5009 C5008 1.399 . S
C5009 C5010 1.385 . S
C5010 H4996 0.931 . S
C5010 C5009 1.385 . S
C5010 C5011 1.389 . S
C5011 C5010 1.389 . S
C5011 C5012 1.387 . S
C5012 H4997 0.930 . S
C5012 C5007 1.390 . S
C5012 C5011 1.387 . S
H5013 C5025 0.930 . S
H5014 C5027 0.930 . S
H5015 C5028 0.930 . S
H5016 C5032 0.959 . S
H5017 C5032 0.959 . S
H5018 C5032 0.961 . S
H5019 C5033 0.960 . S
H5020 C5033 0.961 . S
H5021 C5033 0.959 . S
H5022 C5036 0.929 . S
H5023 C5037 0.931 . S
H5024 C5039 0.930 . S
C5025 H5013 0.930 . S
C5025 C5026 1.399 . S
C5025 C5030 1.399 . S
C5026 C5025 1.399 . S
C5026 C5027 1.376 . S
C5027 H5014 0.930 . S
C5027 C5026 1.376 . S
C5027 C5028 1.388 . S
C5028 H5015 0.930 . S
C5028 C5027 1.388 . S
C5028 C5029 1.390 . S
C5029 C5028 1.390 . S
C5029 C5030 1.394 . S
C5029 C5035 1.465 . S
C5030 C5025 1.399 . S
C5030 C5029 1.394 . S
C5030 C5031 1.516 . S
C5031 C5030 1.516 . S
C5031 C5032 1.502 . S
C5031 C5033 1.561 . S
C5031 C5034 1.526 . S
C5032 H5016 0.959 . S
C5032 H5017 0.959 . S
C5032 H5018 0.961 . S
C5032 C5031 1.502 . S
C5033 H5019 0.960 . S
C5033 H5020 0.961 . S
C5033 H5021 0.959 . S
C5033 C5031 1.561 . S
C5034 C5031 1.526 . S
C5034 C5035 1.396 . S
C5034 C5039 1.390 . S
C5035 C5029 1.465 . S
C5035 C5034 1.396 . S
C5035 C5036 1.399 . S
C5036 H5022 0.929 . S
C5036 C5035 1.399 . S
C5036 C5037 1.385 . S
C5037 H5023 0.931 . S
C5037 C5036 1.385 . S
C5037 C5038 1.389 . S
C5038 C5037 1.389 . S
C5038 C5039 1.387 . S
C5039 H5024 0.930 . S
C5039 C5034 1.390 . S
C5039 C5038 1.387 . S
C1165 C491 1.559 . S
C1177 C537 1.611 . S
C1192 C271 1.534 . S
C1204 C550 1.527 . S
C1231 C563 1.448 . S
C1219 C513 1.402 . S
C1246 C293 1.581 . S
C1258 C576 1.584 . S
C1273 C524 1.585 . S
C1285 C589 1.596 . S
C1300 C260 1.547 . S
C1312 C602 1.633 . S
C1327 C502 1.546 . S
C1339 C615 1.549 . S
C1354 C282 1.367 . S
C1366 C628 1.405 . S
C1381 C183 1.543 . S
C1393 C641 1.652 . S
C1408 C447 1.475 . S
C1420 C654 1.503 . S
C1435 C205 1.497 . S
C1447 C667 1.505 . S
C1462 C436 1.455 . S
C1474 C680 1.510 . S
C1489 C249 1.532 . S
C1501 C693 1.500 . S
C1528 C706 1.680 . S
C1516 C458 1.577 . S
C1555 C719 1.605 . S
C1543 C227 1.588 . S
C1570 C315 1.454 . S
C1582 C732 1.442 . S
C1609 C745 1.662 . S
C1597 C216 1.613 . S
C1636 C758 1.611 . S
C1624 C469 1.504 . S
C1651 C238 1.393 . S
C1663 C771 1.446 . S
C1678 C326 1.429 . S
C1690 C784 1.544 . S
C1717 C797 1.602 . S
C1705 C304 1.479 . S
C1732 C392 1.483 . S
C1744 C810 1.449 . S
C1771 C823 1.652 . S
C1759 C106 1.583 . S
C1798 C836 1.647 . S
C1786 C414 1.581 . S
C1825 C849 1.622 . S
C1813 C128 1.580 . S
C1852 C862 1.579 . S
C1840 C425 1.598 . S
C1867 C95 1.470 . S
C1879 C875 1.426 . S
C1906 C888 1.568 . S
C1894 C403 1.507 . S
C1921 C117 1.561 . S
C1933 C901 1.639 . S
C1960 C914 1.615 . S
C1948 C18 1.594 . S
C1987 C927 1.587 . S
C1975 C348 1.551 . S
C2002 C40 1.509 . S
C2014 C940 1.525 . S
C2041 C953 1.418 . S
C2029 C337 1.416 . S
C2068 C966 1.460 . S
C2056 C84 1.439 . S
C2083 C359 1.508 . S
C2095 C979 1.568 . S
C2122 C992 1.472 . S
C2110 C62 1.453 . S
C2149 C1005 1.573 . S
C2137 C150 1.445 . S
C2164 C51 1.606 . S
C2176 C1018 1.578 . S
C2203 C1031 1.525 . S
C2191 C370 1.532 . S
C2218 C73 1.468 . S
C2230 C1044 1.581 . S
C2257 C1057 1.478 . S
C2245 C161 1.484 . S
C2272 C139 1.607 . S
C2284 C1070 1.575 . S
C2299 C194 1.435 . S
C2311 C1083 1.464 . S
C2338 C1096 1.517 . S
C2326 C172 1.489 . S
C2353 C480 1.502 . S
C2365 C1109 1.555 . S
C2380 C29 1.589 . S
C2392 C1122 1.580 . S
C2419 C1135 1.434 . S
C2407 C7 1.427 . S
C2446 C1148 1.466 . S
C2434 C381 1.363 . S
C2461 C368 1.491 1_554 S
C2473 C536 1.603 . S
C2488 C151 1.562 . S
C2500 C549 1.565 . S
C2515 C379 1.320 . S
C2527 C558 1.494 . S
C2554 C575 1.529 . S
C2542 C360 1.540 . S
C2569 C159 1.301 . S
C2581 C584 1.505 . S
C2596 C338 1.426 . S
C2608 C597 1.414 . S
C2635 C610 1.638 . S
C2623 C140 1.659 1_556 S
C2650 C346 1.431 . S
C2662 C627 1.531 . S
C2677 C349 1.602 . S
C2689 C640 1.592 . S
C2716 C649 1.398 . S
C2704 C162 1.498 . S
C2731 C335 1.235 . S
C2743 C662 1.280 . S
C2770 C675 1.472 . S
C2758 C137 1.483 . S
C2785 C148 1.235 1_455 S
C2797 C688 1.500 . S
C2812 C382 1.596 . S
C2824 C705 1.623 . S
C2851 C714 1.494 . S
C2839 C357 1.481 . S
C2878 C731 1.537 . S
C2866 C371 1.550 . S
C2893 C129 1.609 . S
C2905 C679 1.602 . S
C2920 C393 1.524 . S
C2932 C740 1.520 . S
C2947 C401 1.395 . S
C2959 C757 1.633 . S
C2986 C766 1.413 . S
C2974 C412 1.148 . S
C3013 C692 1.534 . S
C3001 C126 1.413 . S
C3028 C107 1.567 . S
C3040 C653 1.544 . S
C3055 C415 1.426 . S
C3067 C783 1.448 . S
C3094 C792 1.452 . S
C3082 C390 1.518 . S
C3121 C809 1.495 . S
C3109 C467 1.136 . S
C3136 C316 1.459 . S
C3148 C822 1.463 . S
C3175 C831 1.499 . S
C3163 C478 1.300 . S
C3202 C848 1.694 . S
C3190 C459 1.654 . S
C3217 C324 1.345 . S
C3229 C857 1.625 . S
C3244 C434 1.230 . S
C3256 C870 1.435 . S
C3271 C305 1.432 1_554 S
C3283 C883 1.381 . S
C3310 C900 1.610 . S
C3298 C448 1.622 . S
C3337 C913 1.626 . S
C3325 C445 1.494 1_655 S
C3352 C327 1.539 . S
C3364 C922 1.492 . S
C3391 C939 1.421 . S
C3379 C437 1.422 . S
C3406 C302 1.126 . S
C3418 C948 1.394 . S
C3445 C961 1.397 . S
C3433 C313 1.164 . S
C3460 C481 1.541 . S
C3472 C978 1.497 . S
C3499 C987 1.613 . S
C3487 C456 1.339 . S
C3514 C470 1.459 . S
C3526 C1000 1.474 . S
C3541 C294 1.491 . S
C3553 C952 1.504 . S
C3568 C492 1.543 . S
C3580 C1013 1.553 . S
C3595 C500 1.334 . S
C3607 C1030 1.556 . S
C3634 C1043 1.403 . S
C3622 C514 1.358 . S
C3649 C291 1.319 . S
C3661 C965 1.531 . S
C3676 C272 1.540 1_545 S
C3688 C926 1.539 . S
C3715 C1052 1.389 . S
C3703 C511 1.196 . S
C3730 C489 1.315 . S
C3742 C1065 1.685 . S
C3769 C601 1.560 . S
C3757 C60 1.459 . S
C3796 C614 1.617 . S
C3784 C74 1.517 . S
C3823 C623 1.496 . S
C3811 C82 1.382 . S
C3850 C588 1.593 . S
C3838 C52 1.625 . S
C3877 C571 1.508 . S
C3865 C38 1.210 . S
C3892 C8 1.423 . S
C3904 C532 1.415 . S
C3919 C19 1.636 . S
C3931 C545 1.608 . S
C3946 C27 1.352 . S
C3958 C562 1.483 . S
C3973 C30 1.556 . S
C3985 C796 1.521 . S
C4000 C41 1.448 . S
C4012 C1078 1.476 . S
C4027 C5 1.224 . S
C4039 C779 1.350 . S
C4054 C16 1.475 . S
C4066 C1091 1.492 . S
C4081 C71 1.229 . S
C4093 C1104 1.548 . S
C4120 C744 1.548 . S
C4108 C85 1.555 . S
C4135 C49 1.500 . S
C4147 C753 1.491 . S
C4162 C63 1.522 . S
C4174 C770 1.526 . S
C4201 C1095 1.571 . S
C4189 C426 1.577 . S
C4216 C96 1.566 . S
C4228 C701 1.495 . S
C4243 C104 1.431 . S
C4255 C718 1.667 . S
C4270 C115 1.159 . S
C4282 C727 1.427 . S
C4309 C1108 1.543 . S
C4297 C423 1.433 . S
C4336 C1082 1.524 . S
C4324 C404 1.484 . S
C4363 C666 1.441 . S
C4351 C118 1.435 . S
C4378 C93 1.604 . S
C4390 C636 1.598 . S
C4405 C225 1.173 . S
C4417 C874 1.503 . S
C4432 C239 1.395 . S
C4444 C887 1.403 . S
C4459 C247 1.345 . S
C4471 C896 1.456 . S
C4486 C217 1.611 . S
C4498 C861 1.696 . S
C4525 C844 1.615 . S
C4513 C203 1.349 . S
C4552 C805 1.334 . S
C4540 C170 1.306 . S
C4579 C818 1.406 . S
C4567 C184 1.505 . S
C4594 C195 1.606 . S
C4606 C835 1.596 . S
C4633 C1069 1.595 . S
C4621 C192 1.426 . S
C4648 C206 1.552 . S
C4660 C1117 1.505 . S
C4675 C173 1.374 . S
C4687 C1056 1.369 . S
C4714 C1130 1.485 . S
C4702 C181 1.332 . S
C4729 C236 1.193 . S
C4741 C1143 1.274 . S
C4768 C1017 1.556 . S
C4756 C250 1.550 . S
C4783 C214 1.237 . S
C4795 C1026 1.569 . S
C4810 C228 1.504 . S
C4822 C1039 1.423 . S
C4837 C522 1.286 . S
C4849 C1134 1.582 . S
C4876 C974 1.497 . S
C4864 C261 1.530 . S
C4891 C269 1.426 . S
C4903 C991 1.545 . S
C4918 C283 1.336 . S
C4930 C1004 1.372 . S
C4945 C525 1.442 . S
C4957 C1147 1.465 . S
C4972 C503 1.519 . S
C4984 C1121 1.526 . S
C5011 C935 1.249 . S
C4999 C280 1.119 . S
C5038 C909 1.643 . S
C5026 C258 1.255 . S
