# Generated by pormake.
# Topology sqc, (4,8)-cn, num edge types: 1
# Building blocks:
#     Node 0, Type 0, BuildingBlock: MIFKUJ_clean_linker_1, # of connection points: 4
#     Node 1, Type 0, BuildingBlock: MIFKUJ_clean_linker_1, # of connection points: 4
#     Node 2, Type 0, BuildingBlock: MIFKUJ_clean_linker_1, # of connection points: 4
#     Node 3, Type 0, BuildingBlock: MIFKUJ_clean_linker_1, # of connection points: 4
#     Node 4, Type 0, BuildingBlock: MIFKUJ_clean_linker_1, # of connection points: 4
#     Node 5, Type 0, BuildingBlock: MIFKUJ_clean_linker_1, # of connection points: 4
#     Node 6, Type 0, BuildingBlock: MIFKUJ_clean_linker_1, # of connection points: 4
#     Node 7, Type 0, BuildingBlock: MIFKUJ_clean_linker_1, # of connection points: 4
#     Node 8, Type 1, BuildingBlock: TAGTUT_clean_sbu_3, # of connection points: 8
#     Node 9, Type 1, BuildingBlock: TAGTUT_clean_sbu_3, # of connection points: 8
#     Node 10, Type 1, BuildingBlock: TAGTUT_clean_sbu_3, # of connection points: 8
#     Node 11, Type 1, BuildingBlock: TAGTUT_clean_sbu_3, # of connection points: 8
#     Edge 12, Type (0, 1), None
#     Edge 13, Type (0, 1), None
#     Edge 14, Type (0, 1), None
#     Edge 15, Type (0, 1), None
#     Edge 16, Type (0, 1), None
#     Edge 17, Type (0, 1), None
#     Edge 18, Type (0, 1), None
#     Edge 19, Type (0, 1), None
#     Edge 20, Type (0, 1), None
#     Edge 21, Type (0, 1), None
#     Edge 22, Type (0, 1), None
#     Edge 23, Type (0, 1), None
#     Edge 24, Type (0, 1), None
#     Edge 25, Type (0, 1), None
#     Edge 26, Type (0, 1), None
#     Edge 27, Type (0, 1), None
#     Edge 28, Type (0, 1), None
#     Edge 29, Type (0, 1), None
#     Edge 30, Type (0, 1), None
#     Edge 31, Type (0, 1), None
#     Edge 32, Type (0, 1), None
#     Edge 33, Type (0, 1), None
#     Edge 34, Type (0, 1), None
#     Edge 35, Type (0, 1), None
#     Edge 36, Type (0, 1), None
#     Edge 37, Type (0, 1), None
#     Edge 38, Type (0, 1), None
#     Edge 39, Type (0, 1), None
#     Edge 40, Type (0, 1), None
#     Edge 41, Type (0, 1), None
#     Edge 42, Type (0, 1), None
#     Edge 43, Type (0, 1), None
# Relax obj value: 0.143
# Max RMSD: 0.256
# Mean RMSD: 0.177
data_MOF--net-sqc--node1-TAGTUT_clean_sbu_3--node2-MIFKUJ_clean_linker_1--edge1-none
_symmetry_space_group_name_H-M    P1
_symmetry_Int_Tables_number       1
_symmetry_cell_setting            triclinic
loop_
_symmetry_equiv_pos_as_xyz
'x, y, z'
_cell_length_a     16.340676
_cell_length_b     16.277491
_cell_length_c     48.129706
_cell_angle_alpha  91.13203
_cell_angle_beta   89.932411
_cell_angle_gamma 90.254647
loop_
_atom_site_label
_atom_site_type_symbol
_atom_site_fract_x
_atom_site_fract_y
_atom_site_fract_z
_atom_type_partial_charge
H0 H 0.83046 0.88603 0.49132 0.0
H1 H 0.72285 0.82786 0.46139 0.0
H2 H 0.79013 -0.0047 0.39692 0.0
H3 H 0.89707 0.05398 0.42681 0.0
H4 H 0.02083 0.94417 0.4404 0.0
H5 H 0.92406 0.96451 0.55353 0.0
H6 H 0.82196 0.0136 0.58695 0.0
H7 H 0.71924 0.1702 0.52492 0.0
H8 H 0.82287 0.12216 0.4914 0.0
H9 H 0.15037 0.17889 0.51673 0.0
H10 H 0.27101 0.21917 0.54331 0.0
H11 H 0.36233 0.97106 0.53707 0.0
H12 H 0.23863 0.92958 0.51154 0.0
H13 H 0.03666 0.07108 0.53459 0.0
H14 H 0.23605 0.07934 0.45765 0.0
H15 H 0.35711 0.032 0.43201 0.0
H16 H 0.25368 0.78759 0.42674 0.0
H17 H 0.13506 0.83396 0.45347 0.0
C18 C 0.87245 0.97361 0.46113 0.0
C19 C 0.81918 0.91334 0.47135 0.0
C20 C 0.75685 0.8809 0.45439 0.0
C21 C 0.7475 0.90816 0.42707 0.0
C22 C 0.79478 0.9748 0.41815 0.0
C23 C 0.85685 0.00725 0.43504 0.0
C24 C 0.95126 -0.00802 0.47523 0.0
C25 C 0.02428 0.97243 0.46098 0.0
C26 C 0.95568 0.02458 0.50258 0.0
C27 C 0.88195 0.04034 0.52004 0.0
C28 C 0.87798 0.00736 0.54674 0.0
C29 C 0.81889 0.03446 0.56572 0.0
C30 C 0.76206 0.09457 0.55834 0.0
C31 C 0.76095 0.12206 0.53085 0.0
C32 C 0.82077 0.09528 0.5118 0.0
C33 C 0.18491 0.05112 0.51235 0.0
C34 C 0.19689 0.1333 0.52063 0.0
C35 C 0.26689 0.15673 0.5353 0.0
C36 C 0.32723 0.09881 0.54175 0.0
C37 C 0.31801 0.01752 0.53181 0.0
C38 C 0.24681 -0.00642 0.51752 0.0
C39 C 0.10593 0.02642 0.49935 0.0
C40 C 0.03305 0.04325 0.51395 0.0
C41 C 0.10163 0.98764 0.47288 0.0
C42 C 0.17622 0.96021 0.45757 0.0
C43 C 0.24043 0.01506 0.45162 0.0
C44 C 0.31006 0.98778 0.43719 0.0
C45 C 0.31568 0.90572 0.42775 0.0
C46 C 0.25188 0.85086 0.4341 0.0
C47 C 0.1833 0.87765 0.44899 0.0
H48 H 0.40316 0.89368 0.75716 0.0
H49 H 0.36215 0.01814 0.78314 0.0
H50 H 0.11985 0.91569 0.79315 0.0
H51 H 0.16016 0.79359 0.76692 0.0
H52 H 0.27031 0.68901 0.78601 0.0
H53 H 0.49323 0.78303 0.699 0.0
H54 H 0.51602 0.88252 0.66281 0.0
H55 H 0.2623 0.95564 0.668 0.0
H56 H 0.23863 0.85228 0.70361 0.0
H57 H 0.25994 0.50628 0.69667 0.0
H58 H 0.30021 0.39649 0.66461 0.0
H59 H 0.54609 0.40548 0.69775 0.0
H60 H 0.50396 0.51523 0.73053 0.0
H61 H 0.40049 0.65674 0.69352 0.0
H62 H 0.22181 0.47136 0.74415 0.0
H63 H 0.17356 0.36754 0.77633 0.0
H64 H 0.32589 0.47399 0.84072 0.0
H65 H 0.37719 0.57583 0.80817 0.0
C66 C 0.28506 0.83364 0.76056 0.0
C67 C 0.34034 0.89957 0.7641 0.0
C68 C 0.31665 0.97112 0.77871 0.0
C69 C 0.23763 0.9771 0.79016 0.0
C70 C 0.18085 0.91374 0.78437 0.0
C71 C 0.20423 0.84301 0.76974 0.0
C72 C 0.31218 0.75236 0.74954 0.0
C73 C 0.2992 0.68222 0.7658 0.0
C74 C 0.35035 0.7428 0.72336 0.0
C75 C 0.36452 0.811 0.70421 0.0
C76 C 0.44232 0.82024 0.69231 0.0
C77 C 0.45495 0.8762 0.67133 0.0
C78 C 0.39034 0.9253 0.6622 0.0
C79 C 0.31273 0.91757 0.67449 0.0
C80 C 0.29959 0.85986 0.69516 0.0
C81 C 0.37828 0.5162 0.71653 0.0
C82 C 0.32151 0.4821 0.69785 0.0
C83 C 0.34512 0.42051 0.67923 0.0
C84 C 0.42662 0.39353 0.67849 0.0
C85 C 0.48322 0.42625 0.69769 0.0
C86 C 0.45898 0.48739 0.71671 0.0
C87 C 0.35866 0.59524 0.72982 0.0
C88 C 0.37331 0.66452 0.71402 0.0
C89 C 0.3216 0.60324 0.7561 0.0
C90 C 0.30394 0.53115 0.7736 0.0
C91 C 0.24884 0.46956 0.76462 0.0
C92 C 0.22145 0.40974 0.783 0.0
C93 C 0.24744 0.41184 0.81076 0.0
C94 C 0.30662 0.46996 0.81919 0.0
C95 C 0.33492 0.52888 0.80074 0.0
H96 H 0.48272 0.06399 0.01158 0.0
H97 H 0.37722 0.0489 0.04745 0.0
H98 H 0.43546 0.79091 0.05283 0.0
H99 H 0.53785 0.80544 0.01652 0.0
H100 H 0.66367 0.89255 0.02904 0.0
H101 H 0.56102 0.1393 0.94951 0.0
H102 H 0.4592 0.16521 0.91404 0.0
H103 H 0.37548 0.91339 0.91856 0.0
H104 H 0.48049 0.88666 0.95351 0.0
H105 H 0.86639 0.89905 0.95396 0.0
H106 H 0.97449 0.94162 0.92253 0.0
H107 H 0.90723 0.19613 0.9363 0.0
H108 H 0.79864 0.15217 0.96789 0.0
H109 H 0.68107 0.04845 0.94201 0.0
H110 H 0.79234 0.79567 0.01425 0.0
H111 H 0.89965 0.7626 0.04764 0.0
H112 H 0.95884 0.02133 0.05607 0.0
H113 H 0.85227 0.05331 0.02287 0.0
C114 C 0.51786 0.93571 0.01144 0.0
C115 C 0.47059 0.00368 0.01982 0.0
C116 C 0.41175 -0.00451 0.04066 0.0
C117 C 0.40112 0.91971 0.0536 0.0
C118 C 0.44486 0.85083 0.0439 0.0
C119 C 0.50212 0.85862 0.0228 0.0
C120 C 0.59489 0.94854 -0.0037 0.0
C121 C 0.66701 0.92486 0.00955 0.0
C122 C 0.59978 -0.00738 0.97145 0.0
C123 C 0.52809 0.01114 0.95419 0.0
C124 C 0.52068 0.0896 0.94293 0.0
C125 C 0.46336 0.10397 0.92234 0.0
C126 C 0.41113 0.04057 0.91304 0.0
C127 C 0.41608 0.96287 0.92512 0.0
C128 C 0.47478 0.94802 0.94543 0.0
C129 C 0.82521 0.02262 0.96308 0.0
C130 C 0.87665 0.96403 0.95081 0.0
C131 C 0.93748 0.98869 0.93253 0.0
C132 C 0.9475 0.07237 0.92626 0.0
C133 C 0.89928 0.13129 0.9401 0.0
C134 C 0.83836 0.10645 0.95841 0.0
C135 C 0.74795 -0.0039 0.97552 0.0
C136 C 0.67649 0.01587 0.96143 0.0
C137 C 0.74349 0.94762 -0.00067 0.0
C138 C 0.81562 0.92674 0.01589 0.0
C139 C 0.82946 0.84485 0.02314 0.0
C140 C 0.88979 0.82617 0.04245 0.0
C141 C 0.93671 0.88931 0.05482 0.0
C142 C 0.92355 0.97111 0.047 0.0
C143 C 0.86346 0.98962 0.02772 0.0
H144 H 0.27456 0.13626 0.26596 0.0
H145 H 0.29059 0.03163 0.30144 0.0
H146 H 0.55009 0.08316 0.30472 0.0
H147 H 0.53487 0.18383 0.26834 0.0
H148 H 0.45613 0.31614 0.27604 0.0
H149 H 0.19046 0.19864 0.20614 0.0
H150 H 0.14183 0.07647 0.18094 0.0
H151 H 0.38384 0.97157 0.18479 0.0
H152 H 0.43262 0.09466 0.20982 0.0
H153 H 0.42909 0.46638 0.17697 0.0
H154 H 0.36493 0.56963 0.14746 0.0
H155 H 0.15555 0.57599 0.20195 0.0
H156 H 0.21686 0.47004 0.23022 0.0
H157 H 0.2934 0.30851 0.18927 0.0
H158 H 0.55366 0.45096 0.25608 0.0
H159 H 0.58421 0.55825 0.29116 0.0
H160 H 0.32461 0.59253 0.30448 0.0
H161 H 0.29546 0.48488 0.27046 0.0
C162 C 0.40379 0.16693 0.26424 0.0
C163 C 0.33522 0.12318 0.27371 0.0
C164 C 0.34404 0.06473 0.29429 0.0
C165 C 0.42101 0.05153 0.30621 0.0
C166 C 0.48965 0.09412 0.29635 0.0
C167 C 0.48124 0.15068 0.27534 0.0
C168 C 0.39337 0.23839 0.24626 0.0
C169 C 0.42308 0.31379 0.25647 0.0
C170 C 0.34678 0.23554 0.22157 0.0
C171 C 0.31557 0.15672 0.20942 0.0
C172 C 0.23292 0.14899 0.2019 0.0
C173 C 0.20497 0.0786 0.1878 0.0
C174 C 0.25911 0.01441 0.1808 0.0
C175 C 0.34043 0.01941 0.19017 0.0
C176 C 0.36853 0.09021 0.20424 0.0
C177 C 0.32828 0.46171 0.20605 0.0
C178 C 0.37101 0.49282 0.1832 0.0
C179 C 0.33507 0.55261 0.16664 0.0
C180 C 0.25679 0.5827 0.17309 0.0
C181 C 0.21742 0.55628 0.19727 0.0
C182 C 0.25222 0.49528 0.21334 0.0
C183 C 0.35576 0.38571 0.21942 0.0
C184 C 0.32943 0.30967 0.20819 0.0
C185 C 0.40336 0.38731 0.24379 0.0
C186 C 0.42214 0.46313 0.25966 0.0
C187 C 0.50366 0.48362 0.26607 0.0
C188 C 0.52097 0.54357 0.28644 0.0
C189 C 0.45682 0.58348 0.30062 0.0
C190 C 0.37547 0.56349 0.29375 0.0
C191 C 0.35843 0.50332 0.27372 0.0
H192 H 0.76912 0.34694 0.2181 0.0
H193 H 0.78446 0.45189 0.18249 0.0
H194 H 0.04279 0.39792 0.17692 0.0
H195 H 0.02816 0.2968 0.21315 0.0
H196 H 0.94175 0.16538 0.20409 0.0
H197 H 0.6932 0.27829 0.2795 0.0
H198 H 0.64607 0.39907 0.30552 0.0
H199 H 0.88665 0.50826 0.29905 0.0
H200 H 0.93383 0.38646 0.27296 0.0
H201 H 0.91702 0.04629 0.31367 0.0
H202 H 0.85589 0.94327 0.34389 0.0
H203 H 0.69078 0.86957 0.27822 0.0
H204 H 0.74813 0.97503 0.24872 0.0
H205 H 0.80401 0.17105 0.2958 0.0
H206 H 0.04455 0.01715 0.23087 0.0
H207 H 0.07709 0.91062 0.19565 0.0
H208 H 0.82297 0.90445 0.1707 0.0
H209 H 0.79228 0.01199 0.20483 0.0
C210 C 0.89776 0.31484 0.21841 0.0
C211 C 0.82935 0.35957 0.20975 0.0
C212 C 0.83777 0.4182 0.18912 0.0
C213 C 0.91412 0.43062 0.17647 0.0
C214 C 0.98268 0.38748 0.18576 0.0
C215 C 0.9747 0.33072 0.20673 0.0
C216 C 0.88772 0.24235 0.23593 0.0
C217 C 0.91354 0.16721 0.22455 0.0
C218 C 0.84746 0.24447 0.26188 0.0
C219 C 0.81742 0.32251 0.27472 0.0
C220 C 0.73563 0.32859 0.28334 0.0
C221 C 0.70857 0.39815 0.29797 0.0
C222 C 0.76279 0.46318 0.30446 0.0
C223 C 0.8432 0.45971 0.29412 0.0
C224 C 0.8704 0.38972 0.27943 0.0
C225 C 0.83823 0.01778 0.27868 0.0
C226 C 0.87024 0.00543 0.30532 0.0
C227 C 0.83625 0.94576 0.32242 0.0
C228 C 0.77041 0.89705 0.31302 0.0
C229 C 0.74373 0.90404 0.2855 0.0
C230 C 0.77659 0.96475 0.26858 0.0
C231 C 0.85855 0.09418 0.26383 0.0
C232 C 0.83469 0.1701 0.2758 0.0
C233 C 0.89792 0.09349 0.23777 0.0
C234 C 0.91505 0.01836 0.22152 0.0
C235 C -0.00421 0.99073 0.21829 0.0
C236 C 0.0145 0.93144 0.19785 0.0
C237 C 0.95242 0.89936 0.18056 0.0
C238 C 0.87182 0.92733 0.18398 0.0
C239 C 0.85369 0.98727 0.20394 0.0
H240 H 0.66036 0.9433 0.72629 0.0
H241 H 0.60692 0.04771 0.69542 0.0
H242 H 0.84788 0.08256 0.66085 0.0
H243 H 0.90227 0.97918 0.69264 0.0
H244 H 0.74633 0.79603 0.7003 0.0
H245 H 0.76394 0.00273 0.77214 0.0
H246 H 0.80211 0.11381 0.80403 0.0
H247 H 0.05804 0.06183 0.78926 0.0
H248 H 0.01852 0.95003 0.75697 0.0
H249 H 7e-05 0.69809 0.78005 0.0
H250 H 0.02359 0.59934 0.81644 0.0
H251 H 0.76653 0.53571 0.81613 0.0
H252 H 0.74205 0.63864 0.78068 0.0
H253 H 0.92154 0.82748 0.78372 0.0
H254 H 0.8964 0.59263 0.72495 0.0
H255 H 0.85467 0.4673 0.69982 0.0
H256 H 0.60943 0.5626 0.69318 0.0
H257 H 0.65048 0.68618 0.7189 0.0
C258 C 0.78488 0.95318 0.71146 0.0
C259 C 0.7023 0.9755 0.71281 0.0
C260 C 0.67219 0.03598 0.69552 0.0
C261 C 0.72388 0.07427 0.67632 0.0
C262 C 0.80764 0.05568 0.67613 0.0
C263 C 0.83826 -0.0041 0.6939 0.0
C264 C 0.81296 0.8808 0.72678 0.0
C265 C 0.78462 0.80227 0.71862 0.0
C266 C 0.86508 0.88889 0.74987 0.0
C267 C 0.88854 0.96892 0.76215 0.0
C268 C 0.82823 0.01718 0.77497 0.0
C269 C 0.85039 0.0798 0.79359 0.0
C270 C 0.93335 0.09479 0.79984 0.0
C271 C -0.00622 0.04997 0.78548 0.0
C272 C 0.97142 0.98726 0.76676 0.0
C273 C 0.86952 0.67494 0.77733 0.0
C274 C 0.94853 0.6634 0.78792 0.0
C275 C 0.96173 0.6078 0.80897 0.0
C276 C 0.89646 0.56129 0.81937 0.0
C277 C 0.81755 0.57166 0.80856 0.0
C278 C 0.80392 0.62911 0.78795 0.0
C279 C 0.85481 0.74173 0.75765 0.0
C280 C 0.88564 0.81954 0.76487 0.0
C281 C 0.80523 0.73199 0.73375 0.0
C282 C 0.77695 0.64979 0.72341 0.0
C283 C 0.8328 0.58515 0.71908 0.0
C284 C 0.80872 0.51296 0.70489 0.0
C285 C 0.72873 0.50486 0.69447 0.0
C286 C 0.67136 0.56652 0.70109 0.0
C287 C 0.69514 0.63804 0.71542 0.0
H288 H 0.32346 0.35866 -0.00866 0.0
H289 H 0.21877 0.31065 0.95817 0.0
H290 H 0.31426 0.4759 0.89709 0.0
H291 H 0.41784 0.52451 0.93015 0.0
H292 H 0.53224 0.41308 0.94706 0.0
H293 H 0.40062 0.42995 0.05637 0.0
H294 H 0.29443 0.4869 0.08682 0.0
H295 H 0.22248 0.65245 0.0226 0.0
H296 H 0.32956 0.59622 -0.00787 0.0
H297 H 0.63765 0.6483 0.02741 0.0
H298 H 0.75607 0.6941 0.05438 0.0
H299 H 0.85712 0.44957 0.04893 0.0
H300 H 0.73618 0.4028 0.02291 0.0
H301 H 0.52392 0.53776 0.04168 0.0
H302 H 0.73862 0.55255 0.96954 0.0
H303 H 0.86124 0.51125 0.94355 0.0
H304 H 0.7652 0.26436 0.93576 0.0
H305 H 0.64541 0.30447 0.96284 0.0
C306 C 0.37917 0.44438 0.96306 0.0
C307 C 0.31942 0.38737 0.97128 0.0
C308 C 0.25892 0.36073 0.95246 0.0
C309 C 0.25792 0.39062 0.92528 0.0
C310 C 0.3128 0.45327 0.91812 0.0
C311 C 0.37277 0.48003 0.93685 0.0
C312 C 0.45409 0.45936 0.97988 0.0
C313 C 0.53042 0.44037 0.96781 0.0
C314 C 0.45161 0.49129 0.00732 0.0
C315 C 0.37374 0.50951 0.0221 0.0
C316 C 0.35971 0.476 0.04834 0.0
C317 C 0.29806 0.50745 0.06557 0.0
C318 C 0.24937 0.57284 0.05683 0.0
C319 C 0.2575 0.60025 0.02947 0.0
C320 C 0.31951 0.5689 0.01219 0.0
C321 C 0.67758 0.522 0.02323 0.0
C322 C 0.68546 0.60451 0.03183 0.0
C323 C 0.7539 0.63098 0.04686 0.0
C324 C 0.81671 0.57581 0.05336 0.0
C325 C 0.81071 0.49395 0.04368 0.0
C326 C 0.74119 0.467 0.02904 0.0
C327 C 0.60211 0.49471 0.00842 0.0
C328 C 0.52572 0.50997 0.02101 0.0
C329 C 0.60447 0.45637 0.98184 0.0
C330 C 0.68249 0.43163 0.96813 0.0
C331 C 0.74538 0.48881 0.9631 0.0
C332 C 0.81594 0.46497 0.94848 0.0
C333 C 0.82368 0.38414 0.93799 0.0
C334 C 0.76206 0.32656 0.94406 0.0
C335 C 0.69266 0.34987 0.9591 0.0
H336 H 0.98036 0.42314 0.47566 0.0
H337 H 0.87418 0.43539 0.43996 0.0
H338 H 0.93086 0.6939 0.4334 0.0
H339 H 0.034 0.68215 0.4695 0.0
H340 H 0.15912 0.5943 0.45555 0.0
H341 H 0.06419 0.35162 0.53762 0.0
H342 H 0.96273 0.32468 0.57319 0.0
H343 H 0.87713 0.57507 0.56824 0.0
H344 H 0.98191 0.60285 0.53316 0.0
H345 H 0.37061 0.58875 0.52873 0.0
H346 H 0.48093 0.54426 0.55873 0.0
H347 H 0.40798 0.29078 0.54493 0.0
H348 H 0.29733 0.33676 0.5147 0.0
H349 H 0.18437 0.44335 0.54335 0.0
H350 H 0.29253 0.69059 0.46841 0.0
H351 H 0.39956 0.72091 0.43444 0.0
H352 H 0.45001 0.46083 0.42577 0.0
H353 H 0.3438 0.43158 0.45963 0.0
C354 C 0.0149 0.55183 0.47515 0.0
C355 C 0.9676 0.48298 0.46725 0.0
C356 C 0.90833 0.48956 0.44652 0.0
C357 C 0.89733 0.56462 0.43321 0.0
C358 C 0.94057 0.63451 0.44262 0.0
C359 C -0.00175 0.62833 0.46361 0.0
C360 C 0.09326 0.54032 0.48954 0.0
C361 C 0.16416 0.56306 0.4752 0.0
C362 C 0.10044 0.49772 0.51463 0.0
C363 C 0.03024 0.4791 0.53266 0.0
C364 C 0.02373 0.40088 0.54421 0.0
C365 C 0.96653 0.38593 0.56485 0.0
C366 C 0.91347 0.44847 0.57395 0.0
C367 C 0.91824 0.52621 0.56184 0.0
C368 C 0.9768 0.54164 0.54145 0.0
C369 C 0.32629 0.46584 0.51978 0.0
C370 C 0.38011 0.52357 0.53152 0.0
C371 C 0.44232 0.4978 0.54897 0.0
C372 C 0.45125 0.41385 0.55494 0.0
C373 C 0.40099 0.35578 0.54136 0.0
C374 C 0.33873 0.38175 0.52388 0.0
C375 C 0.24798 0.49328 0.50856 0.0
C376 C 0.17799 0.47498 0.52382 0.0
C377 C 0.24137 0.54017 0.48448 0.0
C378 C 0.31182 0.55908 0.46678 0.0
C379 C 0.32752 0.6405 0.45928 0.0
C380 C 0.38763 0.65759 0.43964 0.0
C381 C 0.43235 0.59331 0.42718 0.0
C382 C 0.41655 0.51185 0.43496 0.0
C383 C 0.3567 0.49493 0.45459 0.0
C384 C 0.20454 0.612 0.15074 0.0
C385 C 0.92536 0.49228 0.15507 0.0
C386 C 0.87798 0.59957 0.07467 0.0
Mg387 Mg 0.27811 0.77424 0.12337 0.0
Mg388 Mg 0.16949 0.92883 0.10024 0.0
O389 O 0.18126 0.81583 0.10315 0.0
Mg390 Mg 0.09668 0.73869 0.11594 0.0
O391 O 0.01945 0.65379 0.1286 0.0
Mg392 Mg 0.05929 0.55646 0.10692 0.0
Mg393 Mg 0.90725 0.66668 0.13333 0.0
C394 C 0.00209 0.87081 0.07472 0.0
O395 O 0.04144 0.8262 0.14959 0.0
O396 O 0.35345 0.85168 0.09319 0.0
O397 O 0.91024 0.784 0.15426 0.0
O398 O 0.27431 0.88564 0.15587 0.0
O399 O 0.27431 0.94949 0.07485 0.0
O400 O 0.18559 0.97886 0.14062 0.0
O401 O 0.14381 0.64509 0.08244 0.0
O402 O 0.27651 0.67153 0.09102 0.0
C403 C 0.2203 0.63119 0.07819 0.0
C404 C 0.34124 0.90941 0.07592 0.0
O405 O 0.00865 0.79778 0.0843 0.0
O406 O 0.98256 0.48039 0.13716 0.0
O407 O 0.0528 0.92878 0.08055 0.0
O408 O 0.94647 0.56125 0.07621 0.0
O409 O 0.88672 0.56012 0.15758 0.0
O410 O 0.85443 0.65006 0.09356 0.0
O411 O 0.19022 0.68884 0.14761 0.0
O412 O 0.16323 0.55608 0.13798 0.0
C413 C 0.23561 0.95394 0.15884 0.0
C414 C 0.96921 0.83363 0.16001 0.0
C415 C 0.71999 0.84855 0.40587 0.0
C416 C 0.83867 0.57293 0.41045 0.0
C417 C 0.74001 0.52369 0.32649 0.0
Mg418 Mg 0.56286 0.92395 0.37597 0.0
Mg419 Mg 0.41138 0.81447 0.34869 0.0
O420 O 0.52356 0.82711 0.35376 0.0
Mg421 Mg 0.59851 0.74148 0.36701 0.0
O422 O 0.68108 0.66383 0.38053 0.0
Mg423 Mg 0.78049 0.70503 0.36145 0.0
Mg424 Mg 0.66915 0.55113 0.38462 0.0
C425 C 0.47301 0.64827 0.32169 0.0
O426 O 0.50733 0.68301 0.3978 0.0
O427 O 0.48955 0.00095 0.34528 0.0
O428 O 0.55015 0.55233 0.40282 0.0
O429 O 0.44717 0.91973 0.40573 0.0
O430 O 0.39268 0.92182 0.32484 0.0
O431 O 0.35593 0.82992 0.38813 0.0
O432 O 0.69589 0.79077 0.33633 0.0
O433 O 0.66987 0.92368 0.34597 0.0
C434 C 0.71153 0.86765 0.33353 0.0
C435 C 0.43229 0.98942 0.32738 0.0
O436 O 0.54445 0.65467 0.33281 0.0
O437 O 0.85274 0.62876 0.3926 0.0
O438 O 0.41451 0.69824 0.32717 0.0
O439 O 0.77813 0.59281 0.32912 0.0
O440 O 0.77115 0.53324 0.41151 0.0
O441 O 0.68982 0.49882 0.34479 0.0
O442 O 0.64388 0.83439 0.40091 0.0
O443 O 0.77703 0.80817 0.39365 0.0
C444 C 0.37833 0.88126 0.40697 0.0
C445 C 0.49923 0.61046 0.40767 0.0
C446 C 0.68526 0.10915 0.65181 0.0
C447 C 0.40788 0.99082 0.64255 0.0
C448 C 0.38509 0.11815 0.56454 0.0
Mg449 Mg 0.76862 0.27753 0.632 0.0
Mg450 Mg 0.66692 0.43744 0.61016 0.0
O451 O 0.67986 0.32426 0.60901 0.0
Mg452 Mg 0.59129 0.24512 0.61636 0.0
O453 O 0.5104 0.15802 0.62371 0.0
Mg454 Mg 0.5561 0.06534 0.60118 0.0
Mg455 Mg 0.39781 0.17022 0.6253 0.0
C456 C 0.51187 0.38847 0.57564 0.0
O457 O 0.52538 0.32525 0.64986 0.0
O458 O 0.85393 0.36373 0.60786 0.0
O459 O 0.39384 0.28178 0.64914 0.0
O460 O 0.75363 0.38131 0.66726 0.0
O461 O 0.78032 0.4685 0.59139 0.0
O462 O 0.66458 0.47432 0.65223 0.0
O463 O 0.64886 0.15925 0.58244 0.0
O464 O 0.77794 0.1825 0.59676 0.0
C465 C 0.72635 0.1459 0.5807 0.0
C466 C 0.84709 0.42849 0.59324 0.0
O467 O 0.51456 0.31306 0.58329 0.0
O468 O 0.46996 0.98235 0.62637 0.0
O469 O 0.56001 0.44421 0.5853 0.0
O470 O 0.45245 0.07819 0.567 0.0
O471 O 0.36958 0.05864 0.6456 0.0
O472 O 0.35741 0.16453 0.58393 0.0
O473 O 0.67282 0.1868 0.65005 0.0
O474 O 0.64887 0.05682 0.63591 0.0
C475 C 0.71125 0.44711 0.67103 0.0
C476 C 0.45043 0.33023 0.65796 0.0
C477 C 0.22471 0.33844 0.90274 0.0
C478 C 0.34617 0.0591 0.89315 0.0
C479 C 0.22033 0.03501 0.81353 0.0
Mg480 Mg 0.05824 0.41913 0.88068 0.0
Mg481 Mg 0.90121 0.31459 0.85493 0.0
O482 O 0.01395 0.32738 0.85714 0.0
Mg483 Mg 0.09297 0.23975 0.8653 0.0
O484 O 0.1801 0.16054 0.87362 0.0
Mg485 Mg 0.27272 0.20704 0.85219 0.0
Mg486 Mg 0.16859 0.04737 0.87394 0.0
C487 C 0.95532 0.15674 0.82134 0.0
O488 O 0.01219 0.17171 0.89745 0.0
O489 O 0.97584 0.50324 0.85488 0.0
O490 O 0.0584 0.04114 0.89708 0.0
O491 O 0.95053 0.40553 0.91354 0.0
O492 O 0.87462 0.42764 0.83548 0.0
O493 O 0.85714 0.31774 0.89605 0.0
O494 O 0.18017 0.29852 0.83298 0.0
O495 O 0.15649 0.42821 0.84758 0.0
C496 C 0.19447 0.37625 0.83205 0.0
C497 C 0.91374 0.49527 0.83872 0.0
O498 O 0.02917 0.16059 0.83069 0.0
O499 O 0.3549 0.12212 0.87778 0.0
O500 O 0.89849 0.20508 0.82979 0.0
O501 O 0.26118 0.10235 0.81693 0.0
O502 O 0.27891 0.01935 0.89488 0.0
O503 O 0.17353 0.0075 0.83236 0.0
O504 O 0.14751 0.32441 0.90007 0.0
O505 O 0.27811 0.30214 0.8874 0.0
C506 C 0.88302 0.36496 0.91557 0.0
C507 C 0.0089 0.0968 0.90561 0.0
loop_
_geom_bond_atom_site_label_1
_geom_bond_atom_site_label_2
_geom_bond_distance
_geom_bond_site_symmetry_2
_ccdc_geom_bond_type
H0 C19 0.949 . S
H1 C20 0.950 . S
H2 C22 0.950 1_545 S
H3 C23 0.962 . S
H4 C25 0.950 . S
H5 C28 0.950 1_565 S
H6 C29 0.950 . S
H7 C31 0.951 . S
H8 C32 0.949 . S
H9 C34 0.949 . S
H10 C35 0.950 . S
H11 C37 0.950 1_565 S
H12 C38 0.940 1_565 S
H13 C40 0.950 . S
H14 C43 0.950 1_545 S
H15 C44 0.950 . S
H16 C46 0.951 . S
H17 C47 0.949 . S
C18 C19 1.376 . S
C18 C23 1.378 1_565 S
C18 C24 1.483 . S
C19 H0 0.949 . S
C19 C18 1.376 . S
C19 C20 1.397 . S
C20 H1 0.950 . S
C20 C19 1.397 . S
C20 C21 1.391 . S
C21 C20 1.391 . S
C21 C22 1.405 . S
C22 H2 0.950 1_565 S
C22 C21 1.405 . S
C22 C23 1.364 1_565 S
C23 H3 0.962 . S
C23 C18 1.378 1_545 S
C23 C22 1.364 1_545 S
C24 C18 1.483 . S
C24 C25 1.382 1_655 S
C24 C26 1.403 1_565 S
C25 H4 0.950 . S
C25 C24 1.382 1_455 S
C25 C41 1.411 . S
C26 C24 1.403 1_545 S
C26 C27 1.489 . S
C26 C40 1.411 1_655 S
C27 C26 1.489 . S
C27 C28 1.383 . S
C27 C32 1.382 . S
C28 H5 0.950 1_545 S
C28 C27 1.383 . S
C28 C29 1.395 . S
C29 H6 0.950 . S
C29 C28 1.395 . S
C29 C30 1.288 . S
C30 C29 1.288 . S
C30 C31 1.392 . S
C31 H7 0.951 . S
C31 C30 1.392 . S
C31 C32 1.392 . S
C32 H8 0.949 . S
C32 C27 1.382 . S
C32 C31 1.392 . S
C33 C34 1.376 . S
C33 C38 1.393 . S
C33 C39 1.483 . S
C34 H9 0.949 . S
C34 C33 1.376 . S
C34 C35 1.397 . S
C35 H10 0.950 . S
C35 C34 1.397 . S
C35 C36 1.391 . S
C36 C35 1.391 . S
C36 C37 1.405 . S
C37 H11 0.950 1_545 S
C37 C36 1.405 . S
C37 C38 1.370 . S
C38 H12 0.940 1_545 S
C38 C33 1.393 . S
C38 C37 1.370 . S
C39 C33 1.483 . S
C39 C40 1.382 . S
C39 C41 1.403 1_545 S
C40 H13 0.950 . S
C40 C26 1.411 1_455 S
C40 C39 1.382 . S
C41 C25 1.411 . S
C41 C39 1.403 1_565 S
C41 C42 1.489 . S
C42 C41 1.489 . S
C42 C43 1.383 . S
C42 C47 1.382 . S
C43 H14 0.950 1_565 S
C43 C42 1.383 . S
C43 C44 1.395 . S
C44 H15 0.950 . S
C44 C43 1.395 . S
C44 C45 1.288 . S
C45 C44 1.288 . S
C45 C46 1.392 . S
C46 H16 0.951 . S
C46 C45 1.392 . S
C46 C47 1.392 . S
C47 H17 0.949 . S
C47 C42 1.382 . S
C47 C46 1.392 . S
H48 C67 0.949 . S
H49 C68 0.950 . S
H50 C70 0.950 . S
H51 C71 0.950 . S
H52 C73 0.950 . S
H53 C76 0.950 . S
H54 C77 0.950 . S
H55 C79 0.951 . S
H56 C80 0.949 . S
H57 C82 0.949 . S
H58 C83 0.950 . S
H59 C85 0.950 . S
H60 C86 0.950 . S
H61 C88 0.950 . S
H62 C91 0.950 . S
H63 C92 0.950 . S
H64 C94 0.951 . S
H65 C95 0.949 . S
C66 C67 1.376 . S
C66 C71 1.386 . S
C66 C72 1.483 . S
C67 H48 0.949 . S
C67 C66 1.376 . S
C67 C68 1.397 . S
C68 H49 0.950 . S
C68 C67 1.397 . S
C68 C69 1.391 . S
C69 C68 1.391 . S
C69 C70 1.405 . S
C70 H50 0.950 . S
C70 C69 1.405 . S
C70 C71 1.367 . S
C71 H51 0.950 . S
C71 C66 1.386 . S
C71 C70 1.367 . S
C72 C66 1.483 . S
C72 C73 1.382 . S
C72 C74 1.403 . S
C73 H52 0.950 . S
C73 C72 1.382 . S
C73 C89 1.411 . S
C74 C72 1.403 . S
C74 C75 1.489 . S
C74 C88 1.411 . S
C75 C74 1.489 . S
C75 C76 1.383 . S
C75 C80 1.382 . S
C76 H53 0.950 . S
C76 C75 1.383 . S
C76 C77 1.395 . S
C77 H54 0.950 . S
C77 C76 1.395 . S
C77 C78 1.288 . S
C78 C77 1.288 . S
C78 C79 1.392 . S
C79 H55 0.951 . S
C79 C78 1.392 . S
C79 C80 1.392 . S
C80 H56 0.949 . S
C80 C75 1.382 . S
C80 C79 1.392 . S
C81 C82 1.376 . S
C81 C86 1.386 . S
C81 C87 1.483 . S
C82 H57 0.949 . S
C82 C81 1.376 . S
C82 C83 1.397 . S
C83 H58 0.950 . S
C83 C82 1.397 . S
C83 C84 1.391 . S
C84 C83 1.391 . S
C84 C85 1.405 . S
C85 H59 0.950 . S
C85 C84 1.405 . S
C85 C86 1.367 . S
C86 H60 0.950 . S
C86 C81 1.386 . S
C86 C85 1.367 . S
C87 C81 1.483 . S
C87 C88 1.382 . S
C87 C89 1.403 . S
C88 H61 0.950 . S
C88 C74 1.411 . S
C88 C87 1.382 . S
C89 C73 1.411 . S
C89 C87 1.403 . S
C89 C90 1.489 . S
C90 C89 1.489 . S
C90 C91 1.383 . S
C90 C95 1.382 . S
C91 H62 0.950 . S
C91 C90 1.383 . S
C91 C92 1.395 . S
C92 H63 0.950 . S
C92 C91 1.395 . S
C92 C93 1.288 . S
C93 C92 1.288 . S
C93 C94 1.392 . S
C94 H64 0.951 . S
C94 C93 1.392 . S
C94 C95 1.392 . S
C95 H65 0.949 . S
C95 C90 1.382 . S
C95 C94 1.392 . S
H96 C115 0.949 1_545 S
H97 C116 0.950 . S
H98 C118 0.950 . S
H99 C119 0.950 1_556 S
H100 C121 0.950 . S
H101 C124 0.950 1_554 S
H102 C125 0.950 . S
H103 C127 0.951 . S
H104 C128 0.949 1_565 S
H105 C130 0.949 1_565 S
H106 C131 0.950 . S
H107 C133 0.950 1_455 S
H108 C134 0.950 1_554 S
H109 C136 0.950 . S
H110 C139 0.950 1_556 S
H111 C140 0.950 1_455 S
H112 C142 0.951 . S
H113 C143 0.949 1_545 S
C114 C115 1.376 . S
C114 C119 1.386 . S
C114 C120 1.483 . S
C115 H96 0.949 1_565 S
C115 C114 1.376 . S
C115 C116 1.397 . S
C116 H97 0.950 . S
C116 C115 1.397 . S
C116 C117 1.391 . S
C117 C116 1.391 . S
C117 C118 1.405 . S
C118 H98 0.950 . S
C118 C117 1.405 . S
C118 C119 1.367 . S
C119 H99 0.950 1_554 S
C119 C114 1.386 . S
C119 C118 1.367 . S
C120 C114 1.483 . S
C120 C121 1.382 . S
C120 C122 1.403 1_564 S
C121 H100 0.950 . S
C121 C120 1.382 . S
C121 C137 1.411 . S
C122 C120 1.403 1_546 S
C122 C123 1.489 . S
C122 C136 1.411 . S
C123 C122 1.489 . S
C123 C124 1.383 . S
C123 C128 1.382 . S
C124 H101 0.950 1_556 S
C124 C123 1.383 . S
C124 C125 1.395 . S
C125 H102 0.950 . S
C125 C124 1.395 . S
C125 C126 1.288 . S
C126 C125 1.288 . S
C126 C127 1.392 . S
C127 H103 0.951 . S
C127 C126 1.392 . S
C127 C128 1.392 . S
C128 H104 0.949 1_545 S
C128 C123 1.382 . S
C128 C127 1.392 . S
C129 C130 1.376 . S
C129 C134 1.386 . S
C129 C135 1.483 . S
C130 H105 0.949 1_545 S
C130 C129 1.376 . S
C130 C131 1.397 . S
C131 H106 0.950 . S
C131 C130 1.397 . S
C131 C132 1.385 1_655 S
C132 C131 1.385 1_455 S
C132 C133 1.403 1_455 S
C133 H107 0.950 1_655 S
C133 C132 1.403 1_655 S
C133 C134 1.367 . S
C134 H108 0.950 1_556 S
C134 C129 1.386 . S
C134 C133 1.367 . S
C135 C129 1.483 . S
C135 C136 1.382 . S
C135 C137 1.403 1_546 S
C136 H109 0.950 . S
C136 C122 1.411 . S
C136 C135 1.382 . S
C137 C121 1.411 . S
C137 C135 1.403 1_564 S
C137 C138 1.489 . S
C138 C137 1.489 . S
C138 C139 1.383 . S
C138 C143 1.382 . S
C139 H110 0.950 1_554 S
C139 C138 1.383 . S
C139 C140 1.395 . S
C140 H111 0.950 1_655 S
C140 C139 1.395 . S
C140 C141 1.290 . S
C141 C140 1.290 . S
C141 C142 1.400 . S
C142 H112 0.951 . S
C142 C141 1.400 . S
C142 C143 1.392 . S
C143 H113 0.949 1_565 S
C143 C138 1.382 . S
C143 C142 1.392 . S
H144 C163 0.949 . S
H145 C164 0.950 . S
H146 C166 0.950 . S
H147 C167 0.950 . S
H148 C169 0.950 . S
H149 C172 0.950 . S
H150 C173 0.950 . S
H151 C175 0.951 . S
H152 C176 0.949 . S
H153 C178 0.949 . S
H154 C179 0.950 . S
H155 C181 0.950 . S
H156 C182 0.950 . S
H157 C184 0.950 . S
H158 C187 0.950 . S
H159 C188 0.950 . S
H160 C190 0.951 . S
H161 C191 0.949 . S
C162 C163 1.376 . S
C162 C167 1.386 . S
C162 C168 1.483 . S
C163 H144 0.949 . S
C163 C162 1.376 . S
C163 C164 1.397 . S
C164 H145 0.950 . S
C164 C163 1.397 . S
C164 C165 1.391 . S
C165 C164 1.391 . S
C165 C166 1.405 . S
C166 H146 0.950 . S
C166 C165 1.405 . S
C166 C167 1.367 . S
C167 H147 0.950 . S
C167 C162 1.386 . S
C167 C166 1.367 . S
C168 C162 1.483 . S
C168 C169 1.382 . S
C168 C170 1.403 . S
C169 H148 0.950 . S
C169 C168 1.382 . S
C169 C185 1.411 . S
C170 C168 1.403 . S
C170 C171 1.489 . S
C170 C184 1.411 . S
C171 C170 1.489 . S
C171 C172 1.383 . S
C171 C176 1.382 . S
C172 H149 0.950 . S
C172 C171 1.383 . S
C172 C173 1.395 . S
C173 H150 0.950 . S
C173 C172 1.395 . S
C173 C174 1.288 . S
C174 C173 1.288 . S
C174 C175 1.392 . S
C175 H151 0.951 . S
C175 C174 1.392 . S
C175 C176 1.392 . S
C176 H152 0.949 . S
C176 C171 1.382 . S
C176 C175 1.392 . S
C177 C178 1.376 . S
C177 C182 1.386 . S
C177 C183 1.483 . S
C178 H153 0.949 . S
C178 C177 1.376 . S
C178 C179 1.397 . S
C179 H154 0.950 . S
C179 C178 1.397 . S
C179 C180 1.391 . S
C180 C179 1.391 . S
C180 C181 1.405 . S
C181 H155 0.950 . S
C181 C180 1.405 . S
C181 C182 1.367 . S
C182 H156 0.950 . S
C182 C177 1.386 . S
C182 C181 1.367 . S
C183 C177 1.483 . S
C183 C184 1.382 . S
C183 C185 1.403 . S
C184 H157 0.950 . S
C184 C170 1.411 . S
C184 C183 1.382 . S
C185 C169 1.411 . S
C185 C183 1.403 . S
C185 C186 1.489 . S
C186 C185 1.489 . S
C186 C187 1.383 . S
C186 C191 1.382 . S
C187 H158 0.950 . S
C187 C186 1.383 . S
C187 C188 1.395 . S
C188 H159 0.950 . S
C188 C187 1.395 . S
C188 C189 1.288 . S
C189 C188 1.288 . S
C189 C190 1.392 . S
C190 H160 0.951 . S
C190 C189 1.392 . S
C190 C191 1.392 . S
C191 H161 0.949 . S
C191 C186 1.382 . S
C191 C190 1.392 . S
H192 C211 0.949 . S
H193 C212 0.950 . S
H194 C214 0.950 1_455 S
H195 C215 0.950 . S
H196 C217 0.950 . S
H197 C220 0.950 . S
H198 C221 0.950 . S
H199 C223 0.951 . S
H200 C224 0.949 . S
H201 C226 0.949 1_545 S
H202 C227 0.950 . S
H203 C229 0.950 . S
H204 C230 0.950 . S
H205 C232 0.950 . S
H206 C235 0.950 . S
H207 C236 0.947 1_455 S
H208 C238 0.951 . S
H209 C239 0.949 1_545 S
C210 C211 1.376 . S
C210 C215 1.386 . S
C210 C216 1.483 . S
C211 H192 0.949 . S
C211 C210 1.376 . S
C211 C212 1.397 . S
C212 H193 0.950 . S
C212 C211 1.397 . S
C212 C213 1.391 . S
C213 C212 1.391 . S
C213 C214 1.405 . S
C214 H194 0.950 1_655 S
C214 C213 1.405 . S
C214 C215 1.367 . S
C215 H195 0.950 . S
C215 C210 1.386 . S
C215 C214 1.367 . S
C216 C210 1.483 . S
C216 C217 1.382 . S
C216 C218 1.403 . S
C217 H196 0.950 . S
C217 C216 1.382 . S
C217 C233 1.411 . S
C218 C216 1.403 . S
C218 C219 1.489 . S
C218 C232 1.411 . S
C219 C218 1.489 . S
C219 C220 1.383 . S
C219 C224 1.382 . S
C220 H197 0.950 . S
C220 C219 1.383 . S
C220 C221 1.395 . S
C221 H198 0.950 . S
C221 C220 1.395 . S
C221 C222 1.288 . S
C222 C221 1.288 . S
C222 C223 1.392 . S
C223 H199 0.951 . S
C223 C222 1.392 . S
C223 C224 1.392 . S
C224 H200 0.949 . S
C224 C219 1.382 . S
C224 C223 1.392 . S
C225 C226 1.376 1_545 S
C225 C230 1.386 1_545 S
C225 C231 1.483 . S
C226 H201 0.949 1_565 S
C226 C225 1.376 1_565 S
C226 C227 1.397 . S
C227 H202 0.950 . S
C227 C226 1.397 . S
C227 C228 1.391 . S
C228 C227 1.391 . S
C228 C229 1.405 . S
C229 H203 0.950 . S
C229 C228 1.405 . S
C229 C230 1.367 . S
C230 H204 0.950 . S
C230 C225 1.386 1_565 S
C230 C229 1.367 . S
C231 C225 1.483 . S
C231 C232 1.382 . S
C231 C233 1.403 . S
C232 H205 0.950 . S
C232 C218 1.411 . S
C232 C231 1.382 . S
C233 C217 1.411 . S
C233 C231 1.403 . S
C233 C234 1.489 . S
C234 C233 1.489 . S
C234 C235 1.383 1_545 S
C234 C239 1.382 1_545 S
C235 H206 0.950 . S
C235 C234 1.383 1_565 S
C235 C236 1.395 . S
C236 H207 0.947 1_655 S
C236 C235 1.395 . S
C236 C237 1.288 . S
C237 C236 1.288 . S
C237 C238 1.392 . S
C238 H208 0.951 . S
C238 C237 1.392 . S
C238 C239 1.392 . S
C239 H209 0.949 1_565 S
C239 C234 1.382 1_565 S
C239 C238 1.392 . S
H240 C259 0.949 1_565 S
H241 C260 0.950 . S
H242 C262 0.950 . S
H243 C263 0.950 . S
H244 C265 0.950 . S
H245 C268 0.950 . S
H246 C269 0.950 . S
H247 C271 0.951 . S
H248 C272 0.940 1_465 S
H249 C274 0.949 1_455 S
H250 C275 0.950 . S
H251 C277 0.950 . S
H252 C278 0.950 . S
H253 C280 0.950 . S
H254 C283 0.950 . S
H255 C284 0.950 . S
H256 C286 0.951 . S
H257 C287 0.949 . S
C258 C259 1.376 1_565 S
C258 C263 1.386 1_565 S
C258 C264 1.483 . S
C259 H240 0.949 1_545 S
C259 C258 1.376 1_545 S
C259 C260 1.397 . S
C260 H241 0.950 . S
C260 C259 1.397 . S
C260 C261 1.391 . S
C261 C260 1.391 . S
C261 C262 1.405 . S
C262 H242 0.950 . S
C262 C261 1.405 . S
C262 C263 1.367 . S
C263 H243 0.950 . S
C263 C258 1.386 1_545 S
C263 C262 1.367 . S
C264 C258 1.483 . S
C264 C265 1.382 . S
C264 C266 1.403 . S
C265 H244 0.950 . S
C265 C264 1.382 . S
C265 C281 1.411 . S
C266 C264 1.403 . S
C266 C267 1.489 . S
C266 C280 1.411 . S
C267 C266 1.489 . S
C267 C268 1.383 1_565 S
C267 C272 1.380 1_565 S
C268 H245 0.950 . S
C268 C267 1.383 1_545 S
C268 C269 1.395 . S
C269 H246 0.950 . S
C269 C268 1.395 . S
C269 C270 1.288 . S
C270 C269 1.288 . S
C270 C271 1.392 1_655 S
C271 H247 0.951 . S
C271 C270 1.392 1_455 S
C271 C272 1.403 1_455 S
C272 H248 0.940 1_645 S
C272 C267 1.380 1_545 S
C272 C271 1.403 1_655 S
C273 C274 1.376 . S
C273 C278 1.386 . S
C273 C279 1.483 . S
C274 H249 0.949 1_655 S
C274 C273 1.376 . S
C274 C275 1.397 1_655 S
C275 H250 0.950 . S
C275 C274 1.397 1_455 S
C275 C276 1.391 1_455 S
C276 C275 1.391 1_655 S
C276 C277 1.405 . S
C277 H251 0.950 . S
C277 C276 1.405 . S
C277 C278 1.367 . S
C278 H252 0.950 . S
C278 C273 1.386 . S
C278 C277 1.367 . S
C279 C273 1.483 . S
C279 C280 1.382 . S
C279 C281 1.403 . S
C280 H253 0.950 . S
C280 C266 1.411 . S
C280 C279 1.382 . S
C281 C265 1.411 . S
C281 C279 1.403 . S
C281 C282 1.489 . S
C282 C281 1.489 . S
C282 C283 1.383 . S
C282 C287 1.382 . S
C283 H254 0.950 . S
C283 C282 1.383 . S
C283 C284 1.395 . S
C284 H255 0.950 . S
C284 C283 1.395 . S
C284 C285 1.288 . S
C285 C284 1.288 . S
C285 C286 1.392 . S
C286 H256 0.951 . S
C286 C285 1.392 . S
C286 C287 1.392 . S
C287 H257 0.949 . S
C287 C282 1.382 . S
C287 C286 1.392 . S
H288 C307 0.949 . S
H289 C308 0.950 . S
H290 C310 0.950 . S
H291 C311 0.950 . S
H292 C313 0.950 . S
H293 C316 0.950 . S
H294 C317 0.950 . S
H295 C319 0.951 . S
H296 C320 0.949 . S
H297 C322 0.949 . S
H298 C323 0.950 . S
H299 C325 0.950 . S
H300 C326 0.950 . S
H301 C328 0.950 . S
H302 C331 0.950 . S
H303 C332 0.950 . S
H304 C334 0.951 . S
H305 C335 0.949 . S
C306 C307 1.376 . S
C306 C311 1.386 . S
C306 C312 1.483 . S
C307 H288 0.949 . S
C307 C306 1.376 . S
C307 C308 1.397 . S
C308 H289 0.950 . S
C308 C307 1.397 . S
C308 C309 1.391 . S
C309 C308 1.391 . S
C309 C310 1.405 . S
C310 H290 0.950 . S
C310 C309 1.405 . S
C310 C311 1.367 . S
C311 H291 0.950 . S
C311 C306 1.386 . S
C311 C310 1.367 . S
C312 C306 1.483 . S
C312 C313 1.382 . S
C312 C314 1.403 1_556 S
C313 H292 0.950 . S
C313 C312 1.382 . S
C313 C329 1.411 . S
C314 C312 1.403 1_554 S
C314 C315 1.489 . S
C314 C328 1.411 . S
C315 C314 1.489 . S
C315 C316 1.383 . S
C315 C320 1.382 . S
C316 H293 0.950 . S
C316 C315 1.383 . S
C316 C317 1.395 . S
C317 H294 0.950 . S
C317 C316 1.395 . S
C317 C318 1.288 . S
C318 C317 1.288 . S
C318 C319 1.392 . S
C319 H295 0.951 . S
C319 C318 1.392 . S
C319 C320 1.392 . S
C320 H296 0.949 . S
C320 C315 1.382 . S
C320 C319 1.392 . S
C321 C322 1.376 . S
C321 C326 1.386 . S
C321 C327 1.483 . S
C322 H297 0.949 . S
C322 C321 1.376 . S
C322 C323 1.397 . S
C323 H298 0.950 . S
C323 C322 1.397 . S
C323 C324 1.391 . S
C324 C323 1.391 . S
C324 C325 1.405 . S
C325 H299 0.950 . S
C325 C324 1.405 . S
C325 C326 1.367 . S
C326 H300 0.950 . S
C326 C321 1.386 . S
C326 C325 1.367 . S
C327 C321 1.483 . S
C327 C328 1.382 . S
C327 C329 1.403 1_554 S
C328 H301 0.950 . S
C328 C314 1.411 . S
C328 C327 1.382 . S
C329 C313 1.411 . S
C329 C327 1.403 1_556 S
C329 C330 1.489 . S
C330 C329 1.489 . S
C330 C331 1.383 . S
C330 C335 1.382 . S
C331 H302 0.950 . S
C331 C330 1.383 . S
C331 C332 1.395 . S
C332 H303 0.950 . S
C332 C331 1.395 . S
C332 C333 1.288 . S
C333 C332 1.288 . S
C333 C334 1.392 . S
C334 H304 0.951 . S
C334 C333 1.392 . S
C334 C335 1.392 . S
C335 H305 0.949 . S
C335 C330 1.382 . S
C335 C334 1.392 . S
H336 C355 0.949 . S
H337 C356 0.950 . S
H338 C358 0.950 . S
H339 C359 0.950 1_455 S
H340 C361 0.950 . S
H341 C364 0.950 . S
H342 C365 0.950 . S
H343 C367 0.951 . S
H344 C368 0.949 . S
H345 C370 0.949 . S
H346 C371 0.950 . S
H347 C373 0.950 . S
H348 C374 0.950 . S
H349 C376 0.950 . S
H350 C379 0.950 . S
H351 C380 0.950 . S
H352 C382 0.951 . S
H353 C383 0.949 . S
C354 C355 1.376 . S
C354 C359 1.386 1_455 S
C354 C360 1.483 . S
C355 H336 0.949 . S
C355 C354 1.376 . S
C355 C356 1.397 1_455 S
C356 H337 0.950 . S
C356 C355 1.397 1_655 S
C356 C357 1.391 . S
C357 C356 1.391 . S
C357 C358 1.405 . S
C358 H338 0.950 . S
C358 C357 1.405 . S
C358 C359 1.367 . S
C359 H339 0.950 1_655 S
C359 C354 1.386 1_655 S
C359 C358 1.367 . S
C360 C354 1.483 . S
C360 C361 1.382 . S
C360 C362 1.403 . S
C361 H340 0.950 . S
C361 C360 1.382 . S
C361 C377 1.411 . S
C362 C360 1.403 . S
C362 C363 1.489 . S
C362 C376 1.411 . S
C363 C362 1.489 . S
C363 C364 1.383 1_455 S
C363 C368 1.382 . S
C364 H341 0.950 . S
C364 C363 1.383 1_655 S
C364 C365 1.395 . S
C365 H342 0.950 . S
C365 C364 1.395 . S
C365 C366 1.288 . S
C366 C365 1.288 . S
C366 C367 1.392 . S
C367 H343 0.951 . S
C367 C366 1.392 . S
C367 C368 1.392 1_655 S
C368 H344 0.949 . S
C368 C363 1.382 . S
C368 C367 1.392 1_455 S
C369 C370 1.376 . S
C369 C374 1.386 . S
C369 C375 1.483 . S
C370 H345 0.949 . S
C370 C369 1.376 . S
C370 C371 1.397 . S
C371 H346 0.950 . S
C371 C370 1.397 . S
C371 C372 1.391 . S
C372 C371 1.391 . S
C372 C373 1.405 . S
C373 H347 0.950 . S
C373 C372 1.405 . S
C373 C374 1.367 . S
C374 H348 0.950 . S
C374 C369 1.386 . S
C374 C373 1.367 . S
C375 C369 1.483 . S
C375 C376 1.382 . S
C375 C377 1.403 . S
C376 H349 0.950 . S
C376 C362 1.411 . S
C376 C375 1.382 . S
C377 C361 1.411 . S
C377 C375 1.403 . S
C377 C378 1.489 . S
C378 C377 1.489 . S
C378 C379 1.383 . S
C378 C383 1.382 . S
C379 H350 0.950 . S
C379 C378 1.383 . S
C379 C380 1.395 . S
C380 H351 0.950 . S
C380 C379 1.395 . S
C380 C381 1.288 . S
C381 C380 1.288 . S
C381 C382 1.392 . S
C382 H352 0.951 . S
C382 C381 1.392 . S
C382 C383 1.392 . S
C383 H353 0.949 . S
C383 C378 1.382 . S
C383 C382 1.392 . S
C384 O411 1.312 . S
C384 O412 1.208 . S
C385 O406 1.331 . S
C385 O409 1.244 . S
C386 O408 1.264 . S
C386 O410 1.273 . S
Mg387 O389 1.936 . S
Mg387 O396 2.081 . S
Mg387 O398 2.023 . S
Mg387 O402 2.031 . S
Mg387 O411 2.291 . S
Mg388 O389 1.963 . S
Mg388 O399 1.942 . S
Mg388 O400 1.955 . S
Mg388 O407 1.986 . S
O389 Mg387 1.936 . S
O389 Mg388 1.963 . S
O389 Mg390 1.915 . S
Mg390 O389 1.915 . S
Mg390 O391 1.915 . S
Mg390 O395 2.013 . S
Mg390 O401 2.114 . S
Mg390 O405 2.013 . S
Mg390 O411 2.114 . S
O391 Mg390 1.915 . S
O391 Mg392 1.936 . S
O391 Mg393 1.963 1_455 S
Mg392 O391 1.936 . S
Mg392 O401 2.291 . S
Mg392 O406 2.081 1_455 S
Mg392 O408 2.023 1_455 S
Mg392 O412 2.031 . S
Mg393 O391 1.963 1_655 S
Mg393 O397 1.986 . S
Mg393 O409 1.942 . S
Mg393 O410 1.955 . S
C394 O405 1.191 . S
C394 O407 1.307 . S
O395 Mg390 2.013 . S
O395 C414 1.191 1_455 S
O396 Mg387 2.081 . S
O396 C404 1.331 . S
O397 Mg393 1.986 . S
O397 C414 1.307 . S
O398 Mg387 2.023 . S
O398 C413 1.264 . S
O399 Mg388 1.942 . S
O399 C404 1.244 . S
O400 Mg388 1.955 . S
O400 C413 1.273 . S
O401 Mg390 2.114 . S
O401 Mg392 2.291 . S
O401 C403 1.312 . S
O402 Mg387 2.031 . S
O402 C403 1.208 . S
C403 O401 1.312 . S
C403 O402 1.208 . S
C404 O396 1.331 . S
C404 O399 1.244 . S
O405 Mg390 2.013 . S
O405 C394 1.191 . S
O406 C385 1.331 . S
O406 Mg392 2.081 1_655 S
O407 Mg388 1.986 . S
O407 C394 1.307 . S
O408 C386 1.264 . S
O408 Mg392 2.023 1_655 S
O409 C385 1.244 . S
O409 Mg393 1.942 . S
O410 C386 1.273 . S
O410 Mg393 1.955 . S
O411 C384 1.312 . S
O411 Mg387 2.291 . S
O411 Mg390 2.114 . S
O412 C384 1.208 . S
O412 Mg392 2.031 . S
C413 O398 1.264 . S
C413 O400 1.273 . S
C414 O395 1.191 1_655 S
C414 O397 1.307 . S
C415 O442 1.312 . S
C415 O443 1.208 . S
C416 O437 1.331 . S
C416 O440 1.244 . S
C417 O439 1.264 . S
C417 O441 1.273 . S
Mg418 O420 1.936 . S
Mg418 O427 2.081 . S
Mg418 O429 2.023 . S
Mg418 O433 2.031 . S
Mg418 O442 2.291 . S
Mg419 O420 1.963 . S
Mg419 O430 1.942 . S
Mg419 O431 1.955 . S
Mg419 O438 1.986 . S
O420 Mg418 1.936 . S
O420 Mg419 1.963 . S
O420 Mg421 1.915 . S
Mg421 O420 1.915 . S
Mg421 O422 1.915 . S
Mg421 O426 2.013 . S
Mg421 O432 2.114 . S
Mg421 O436 2.013 . S
Mg421 O442 2.114 . S
O422 Mg421 1.915 . S
O422 Mg423 1.936 . S
O422 Mg424 1.963 . S
Mg423 O422 1.936 . S
Mg423 O432 2.291 . S
Mg423 O437 2.081 . S
Mg423 O439 2.023 . S
Mg423 O443 2.031 . S
Mg424 O422 1.963 . S
Mg424 O428 1.986 . S
Mg424 O440 1.942 . S
Mg424 O441 1.955 . S
C425 O436 1.191 . S
C425 O438 1.307 . S
O426 Mg421 2.013 . S
O426 C445 1.191 . S
O427 Mg418 2.081 . S
O427 C435 1.331 . S
O428 Mg424 1.986 . S
O428 C445 1.307 . S
O429 Mg418 2.023 . S
O429 C444 1.264 . S
O430 Mg419 1.942 . S
O430 C435 1.244 . S
O431 Mg419 1.955 . S
O431 C444 1.273 . S
O432 Mg421 2.114 . S
O432 Mg423 2.291 . S
O432 C434 1.312 . S
O433 Mg418 2.031 . S
O433 C434 1.208 . S
C434 O432 1.312 . S
C434 O433 1.208 . S
C435 O427 1.331 . S
C435 O430 1.244 . S
O436 Mg421 2.013 . S
O436 C425 1.191 . S
O437 C416 1.331 . S
O437 Mg423 2.081 . S
O438 Mg419 1.986 . S
O438 C425 1.307 . S
O439 C417 1.264 . S
O439 Mg423 2.023 . S
O440 C416 1.244 . S
O440 Mg424 1.942 . S
O441 C417 1.273 . S
O441 Mg424 1.955 . S
O442 C415 1.312 . S
O442 Mg418 2.291 . S
O442 Mg421 2.114 . S
O443 C415 1.208 . S
O443 Mg423 2.031 . S
C444 O429 1.264 . S
C444 O431 1.273 . S
C445 O426 1.191 . S
C445 O428 1.307 . S
C446 O473 1.312 . S
C446 O474 1.208 . S
C447 O468 1.331 . S
C447 O471 1.244 . S
C448 O470 1.264 . S
C448 O472 1.273 . S
Mg449 O451 1.936 . S
Mg449 O458 2.081 . S
Mg449 O460 2.023 . S
Mg449 O464 2.031 . S
Mg449 O473 2.291 . S
Mg450 O451 1.963 . S
Mg450 O461 1.942 . S
Mg450 O462 1.955 . S
Mg450 O469 1.986 . S
O451 Mg449 1.936 . S
O451 Mg450 1.963 . S
O451 Mg452 1.915 . S
Mg452 O451 1.915 . S
Mg452 O453 1.915 . S
Mg452 O457 2.013 . S
Mg452 O463 2.114 . S
Mg452 O467 2.013 . S
Mg452 O473 2.114 . S
O453 Mg452 1.915 . S
O453 Mg454 1.936 . S
O453 Mg455 1.963 . S
Mg454 O453 1.936 . S
Mg454 O463 2.291 . S
Mg454 O468 2.081 . S
Mg454 O470 2.023 . S
Mg454 O474 2.031 . S
Mg455 O453 1.963 . S
Mg455 O459 1.986 . S
Mg455 O471 1.942 . S
Mg455 O472 1.955 . S
C456 O467 1.191 . S
C456 O469 1.307 . S
O457 Mg452 2.013 . S
O457 C476 1.191 . S
O458 Mg449 2.081 . S
O458 C466 1.331 . S
O459 Mg455 1.986 . S
O459 C476 1.307 . S
O460 Mg449 2.023 . S
O460 C475 1.264 . S
O461 Mg450 1.942 . S
O461 C466 1.244 . S
O462 Mg450 1.955 . S
O462 C475 1.273 . S
O463 Mg452 2.114 . S
O463 Mg454 2.291 . S
O463 C465 1.312 . S
O464 Mg449 2.031 . S
O464 C465 1.208 . S
C465 O463 1.312 . S
C465 O464 1.208 . S
C466 O458 1.331 . S
C466 O461 1.244 . S
O467 Mg452 2.013 . S
O467 C456 1.191 . S
O468 C447 1.331 . S
O468 Mg454 2.081 . S
O469 Mg450 1.986 . S
O469 C456 1.307 . S
O470 C448 1.264 . S
O470 Mg454 2.023 . S
O471 C447 1.244 . S
O471 Mg455 1.942 . S
O472 C448 1.273 . S
O472 Mg455 1.955 . S
O473 C446 1.312 . S
O473 Mg449 2.291 . S
O473 Mg452 2.114 . S
O474 C446 1.208 . S
O474 Mg454 2.031 . S
C475 O460 1.264 . S
C475 O462 1.273 . S
C476 O457 1.191 . S
C476 O459 1.307 . S
C477 O504 1.312 . S
C477 O505 1.208 . S
C478 O499 1.331 . S
C478 O502 1.244 . S
C479 O501 1.264 . S
C479 O503 1.273 . S
Mg480 O482 1.936 . S
Mg480 O489 2.081 1_455 S
Mg480 O491 2.023 1_455 S
Mg480 O495 2.031 . S
Mg480 O504 2.291 . S
Mg481 O482 1.963 1_655 S
Mg481 O492 1.942 . S
Mg481 O493 1.955 . S
Mg481 O500 1.986 . S
O482 Mg480 1.936 . S
O482 Mg481 1.963 1_455 S
O482 Mg483 1.915 . S
Mg483 O482 1.915 . S
Mg483 O484 1.915 . S
Mg483 O488 2.013 . S
Mg483 O494 2.114 . S
Mg483 O498 2.013 . S
Mg483 O504 2.114 . S
O484 Mg483 1.915 . S
O484 Mg485 1.936 . S
O484 Mg486 1.963 . S
Mg485 O484 1.936 . S
Mg485 O494 2.291 . S
Mg485 O499 2.081 . S
Mg485 O501 2.023 . S
Mg485 O505 2.031 . S
Mg486 O484 1.963 . S
Mg486 O490 1.986 . S
Mg486 O502 1.942 . S
Mg486 O503 1.955 . S
C487 O498 1.191 1_655 S
C487 O500 1.307 . S
O488 Mg483 2.013 . S
O488 C507 1.191 . S
O489 Mg480 2.081 1_655 S
O489 C497 1.331 . S
O490 Mg486 1.986 . S
O490 C507 1.307 . S
O491 Mg480 2.023 1_655 S
O491 C506 1.264 . S
O492 Mg481 1.942 . S
O492 C497 1.244 . S
O493 Mg481 1.955 . S
O493 C506 1.273 . S
O494 Mg483 2.114 . S
O494 Mg485 2.291 . S
O494 C496 1.312 . S
O495 Mg480 2.031 . S
O495 C496 1.208 . S
C496 O494 1.312 . S
C496 O495 1.208 . S
C497 O489 1.331 . S
C497 O492 1.244 . S
O498 Mg483 2.013 . S
O498 C487 1.191 1_455 S
O499 C478 1.331 . S
O499 Mg485 2.081 . S
O500 Mg481 1.986 . S
O500 C487 1.307 . S
O501 C479 1.264 . S
O501 Mg485 2.023 . S
O502 C478 1.244 . S
O502 Mg486 1.942 . S
O503 C479 1.273 . S
O503 Mg486 1.955 . S
O504 C477 1.312 . S
O504 Mg480 2.291 . S
O504 Mg483 2.114 . S
O505 C477 1.208 . S
O505 Mg485 2.031 . S
C506 O491 1.264 . S
C506 O493 1.273 . S
C507 O488 1.191 . S
C507 O490 1.307 . S
C444 C45 2.238 . S
C78 C447 2.019 1_565 S
C126 C478 2.004 . S
C413 C174 2.094 1_565 S
C448 C36 2.197 . S
C479 C69 2.136 1_545 S
C404 C117 2.054 . S
C435 C165 2.070 1_565 S
C30 C465 1.589 . S
C228 C434 1.618 . S
C141 C394 1.459 1_655 S
C487 C270 1.524 . S
C415 C21 1.632 . S
C237 C414 1.481 . S
C132 C507 1.538 . S
C446 C261 1.634 . S
C333 C506 2.234 . S
C213 C385 2.071 . S
C357 C416 2.051 . S
C285 C475 2.221 . S
C386 C324 2.200 . S
C222 C417 2.094 . S
C366 C466 2.008 . S
C497 C276 2.123 . S
C318 C403 1.583 . S
C93 C496 1.547 . S
C372 C456 1.532 . S
C425 C189 1.480 . S
C477 C309 1.639 . S
C476 C84 1.548 . S
C445 C381 1.466 . S
C384 C180 1.616 . S
