# Generated by pormake.
# Topology sqc, (4,8)-cn, num edge types: 1
# Building blocks:
#     Node 0, Type 0, BuildingBlock: MIFKUJ_clean_linker_1, # of connection points: 4
#     Node 1, Type 0, BuildingBlock: MIFKUJ_clean_linker_1, # of connection points: 4
#     Node 2, Type 0, BuildingBlock: MIFKUJ_clean_linker_1, # of connection points: 4
#     Node 3, Type 0, BuildingBlock: MIFKUJ_clean_linker_1, # of connection points: 4
#     Node 4, Type 0, BuildingBlock: MIFKUJ_clean_linker_1, # of connection points: 4
#     Node 5, Type 0, BuildingBlock: MIFKUJ_clean_linker_1, # of connection points: 4
#     Node 6, Type 0, BuildingBlock: MIFKUJ_clean_linker_1, # of connection points: 4
#     Node 7, Type 0, BuildingBlock: MIFKUJ_clean_linker_1, # of connection points: 4
#     Node 8, Type 1, BuildingBlock: TAGTUT_clean_sbu_3, # of connection points: 8
#     Node 9, Type 1, BuildingBlock: TAGTUT_clean_sbu_3, # of connection points: 8
#     Node 10, Type 1, BuildingBlock: TAGTUT_clean_sbu_3, # of connection points: 8
#     Node 11, Type 1, BuildingBlock: TAGTUT_clean_sbu_3, # of connection points: 8
#     Edge 12, Type (0, 1), BuildingBlock: UVAHIK_clean_linker_0, # of connection points: 2
#     Edge 13, Type (0, 1), BuildingBlock: UVAHIK_clean_linker_0, # of connection points: 2
#     Edge 14, Type (0, 1), BuildingBlock: UVAHIK_clean_linker_0, # of connection points: 2
#     Edge 15, Type (0, 1), BuildingBlock: UVAHIK_clean_linker_0, # of connection points: 2
#     Edge 16, Type (0, 1), BuildingBlock: UVAHIK_clean_linker_0, # of connection points: 2
#     Edge 17, Type (0, 1), BuildingBlock: UVAHIK_clean_linker_0, # of connection points: 2
#     Edge 18, Type (0, 1), BuildingBlock: UVAHIK_clean_linker_0, # of connection points: 2
#     Edge 19, Type (0, 1), BuildingBlock: UVAHIK_clean_linker_0, # of connection points: 2
#     Edge 20, Type (0, 1), BuildingBlock: UVAHIK_clean_linker_0, # of connection points: 2
#     Edge 21, Type (0, 1), BuildingBlock: UVAHIK_clean_linker_0, # of connection points: 2
#     Edge 22, Type (0, 1), BuildingBlock: UVAHIK_clean_linker_0, # of connection points: 2
#     Edge 23, Type (0, 1), BuildingBlock: UVAHIK_clean_linker_0, # of connection points: 2
#     Edge 24, Type (0, 1), BuildingBlock: UVAHIK_clean_linker_0, # of connection points: 2
#     Edge 25, Type (0, 1), BuildingBlock: UVAHIK_clean_linker_0, # of connection points: 2
#     Edge 26, Type (0, 1), BuildingBlock: UVAHIK_clean_linker_0, # of connection points: 2
#     Edge 27, Type (0, 1), BuildingBlock: UVAHIK_clean_linker_0, # of connection points: 2
#     Edge 28, Type (0, 1), BuildingBlock: UVAHIK_clean_linker_0, # of connection points: 2
#     Edge 29, Type (0, 1), BuildingBlock: UVAHIK_clean_linker_0, # of connection points: 2
#     Edge 30, Type (0, 1), BuildingBlock: UVAHIK_clean_linker_0, # of connection points: 2
#     Edge 31, Type (0, 1), BuildingBlock: UVAHIK_clean_linker_0, # of connection points: 2
#     Edge 32, Type (0, 1), BuildingBlock: UVAHIK_clean_linker_0, # of connection points: 2
#     Edge 33, Type (0, 1), BuildingBlock: UVAHIK_clean_linker_0, # of connection points: 2
#     Edge 34, Type (0, 1), BuildingBlock: UVAHIK_clean_linker_0, # of connection points: 2
#     Edge 35, Type (0, 1), BuildingBlock: UVAHIK_clean_linker_0, # of connection points: 2
#     Edge 36, Type (0, 1), BuildingBlock: UVAHIK_clean_linker_0, # of connection points: 2
#     Edge 37, Type (0, 1), BuildingBlock: UVAHIK_clean_linker_0, # of connection points: 2
#     Edge 38, Type (0, 1), BuildingBlock: UVAHIK_clean_linker_0, # of connection points: 2
#     Edge 39, Type (0, 1), BuildingBlock: UVAHIK_clean_linker_0, # of connection points: 2
#     Edge 40, Type (0, 1), BuildingBlock: UVAHIK_clean_linker_0, # of connection points: 2
#     Edge 41, Type (0, 1), BuildingBlock: UVAHIK_clean_linker_0, # of connection points: 2
#     Edge 42, Type (0, 1), BuildingBlock: UVAHIK_clean_linker_0, # of connection points: 2
#     Edge 43, Type (0, 1), BuildingBlock: UVAHIK_clean_linker_0, # of connection points: 2
# Relax obj value: 0.150
# Max RMSD: 0.263
# Mean RMSD: 0.182
data_MOF--net-sqc--node1-TAGTUT_clean_sbu_3--node2-MIFKUJ_clean_linker_1--edge1-UVAHIK_clean_linker_0
_symmetry_space_group_name_H-M    P1
_symmetry_Int_Tables_number       1
_symmetry_cell_setting            triclinic
loop_
_symmetry_equiv_pos_as_xyz
'x, y, z'
_cell_length_a     34.905536
_cell_length_b     34.90225
_cell_length_c     104.18313
_cell_angle_alpha  91.024807
_cell_angle_beta   90.069131
_cell_angle_gamma 90.006108
loop_
_atom_site_label
_atom_site_type_symbol
_atom_site_fract_x
_atom_site_fract_y
_atom_site_fract_z
_atom_type_partial_charge
H0 H 0.97384 0.90543 0.48973 0.0
H1 H 0.91256 0.89241 0.47885 0.0
H2 H 0.89983 0.01313 0.47149 0.0
H3 H 0.96076 0.02595 0.4824 0.0
H4 H 0.04188 0.94218 0.48037 0.0
H5 H 0.95148 0.95382 0.51372 0.0
H6 H 0.89043 0.97345 0.52316 0.0
H7 H 0.92371 0.09222 0.52003 0.0
H8 H 0.98424 0.07231 0.51013 0.0
H9 H 0.09731 0.07334 0.50915 0.0
H10 H 0.1569 0.09915 0.51818 0.0
H11 H 0.20191 0.98456 0.52118 0.0
H12 H 0.14146 0.95845 0.51282 0.0
H13 H 0.0439 0.03044 0.51826 0.0
H14 H 0.13436 0.01277 0.48212 0.0
H15 H 0.19213 0.98705 0.47182 0.0
H16 H 0.15831 0.87263 0.48235 0.0
H17 H 0.1003 0.89852 0.49229 0.0
C18 C 0.97168 0.96662 0.48687 0.0
C19 C 0.95784 0.92898 0.48573 0.0
C20 C 0.92278 0.92166 0.47963 0.0
C21 C 0.9015 0.95182 0.47438 0.0
C22 C 0.91575 0.98938 0.4754 0.0
C23 C 0.95045 0.99672 0.48164 0.0
C24 C 0.00786 0.97506 0.49379 0.0
C25 C 0.04242 0.96104 0.48876 0.0
C26 C 0.00837 -0.00059 0.50475 0.0
C27 C 0.97226 0.01162 0.51111 0.0
C28 C 0.94551 0.9841 0.51499 0.0
C29 C 0.91072 0.99536 0.52047 0.0
C30 C 0.90209 0.03441 0.52229 0.0
C31 C 0.92919 0.06192 0.51855 0.0
C32 C 0.96399 0.05062 0.51304 0.0
C33 C 0.11493 0.01392 0.51011 0.0
C34 C 0.1198 0.05364 0.51185 0.0
C35 C 0.15385 0.06841 0.51695 0.0
C36 C 0.18394 0.04379 0.52024 0.0
C37 C 0.17924 0.00408 0.51853 0.0
C38 C 0.14478 0.98922 0.5137 0.0
C39 C 0.0785 -0.00118 0.50456 0.0
C40 C 0.04362 0.01147 0.50989 0.0
C41 C 0.07775 0.9726 0.494 0.0
C42 C 0.11315 0.95751 0.48796 0.0
C43 C 0.13957 0.98218 0.48222 0.0
C44 C 0.17268 0.96744 0.47642 0.0
C45 C 0.17989 0.92774 0.47624 0.0
C46 C 0.15341 0.90325 0.48212 0.0
C47 C 0.12028 0.91798 0.48784 0.0
H48 H 0.32299 0.79667 0.77266 0.0
H49 H 0.3032 0.86049 0.78035 0.0
H50 H 0.21444 0.8623 0.75145 0.0
H51 H 0.23445 0.7986 0.74377 0.0
H52 H 0.28206 0.72635 0.77006 0.0
H53 H 0.34548 0.81887 0.74431 0.0
H54 H 0.35773 0.87021 0.72919 0.0
H55 H 0.29332 0.80871 0.70005 0.0
H56 H 0.27961 0.75807 0.71534 0.0
H57 H 0.29099 0.64869 0.72078 0.0
H58 H 0.31513 0.59037 0.71048 0.0
H59 H 0.39438 0.57534 0.74194 0.0
H60 H 0.3713 0.63498 0.75188 0.0
H61 H 0.32905 0.71264 0.72529 0.0
H62 H 0.25932 0.62407 0.75072 0.0
H63 H 0.25475 0.56623 0.76345 0.0
H64 H 0.33263 0.61595 0.79141 0.0
H65 H 0.33678 0.67406 0.77862 0.0
C66 C 0.28025 0.79307 0.75764 0.0
C67 C 0.2991 0.81074 0.76806 0.0
C68 C 0.28801 0.84725 0.77235 0.0
C69 C 0.25747 0.86636 0.76642 0.0
C70 C 0.238 0.84815 0.7562 0.0
C71 C 0.24941 0.81187 0.75181 0.0
C72 C 0.29387 0.75575 0.75246 0.0
C73 C 0.2926 0.72342 0.7603 0.0
C74 C 0.30695 0.75175 0.73966 0.0
C75 C 0.31123 0.78477 0.73102 0.0
C76 C 0.3329 0.81695 0.73482 0.0
C77 C 0.34008 0.84616 0.72616 0.0
C78 C 0.32649 0.84318 0.7135 0.0
C79 C 0.30422 0.81144 0.70976 0.0
C80 C 0.29643 0.7826 0.71848 0.0
C81 C 0.32921 0.64611 0.73711 0.0
C82 C 0.31348 0.63276 0.72548 0.0
C83 C 0.32706 0.59915 0.71967 0.0
C84 C 0.35662 0.57805 0.72541 0.0
C85 C 0.37185 0.59109 0.73721 0.0
C86 C 0.3584 0.62495 0.74297 0.0
C87 C 0.31628 0.68323 0.74271 0.0
C88 C 0.31801 0.71556 0.73499 0.0
C89 C 0.30315 0.68707 0.75549 0.0
C90 C 0.29861 0.65319 0.76369 0.0
C91 C 0.27542 0.62248 0.75959 0.0
C92 C 0.27308 0.58933 0.76683 0.0
C93 C 0.29372 0.5863 0.77836 0.0
C94 C 0.31628 0.61748 0.7826 0.0
C95 C 0.31862 0.6507 0.77533 0.0
H96 H 0.54943 0.03527 0.0264 0.0
H97 H 0.49519 0.01329 0.03916 0.0
H98 H 0.47246 0.92424 0.01082 0.0
H99 H 0.52697 0.9463 -0.00189 0.0
H100 H 0.61153 0.98559 0.02113 0.0
H101 H 0.52187 0.06461 -0.00314 0.0
H102 H 0.46739 0.07949 0.98291 0.0
H103 H 0.50431 0.9916 0.95594 0.0
H104 H 0.55853 0.97684 0.9699 0.0
H105 H 0.67337 0.98873 0.96945 0.0
H106 H 0.73078 0.00757 0.95782 0.0
H107 H 0.76412 0.08104 0.98977 0.0
H108 H 0.70582 0.06301 0.0012 0.0
H109 H 0.61522 0.03066 0.97631 0.0
H110 H 0.70468 0.95405 -0.00301 0.0
H111 H 0.75873 0.92951 0.00928 0.0
H112 H 0.72253 0.99655 0.0423 0.0
H113 H 0.66919 0.02236 0.02986 0.0
C114 C 0.542 0.99245 0.01133 0.0
C115 C 0.53224 0.01152 0.02282 0.0
C116 C 0.50121 -0.00096 0.03006 0.0
C117 C 0.47981 0.96697 0.02598 0.0
C118 C 0.48872 0.94886 0.0142 0.0
C119 C 0.51957 0.96159 0.00691 0.0
C120 C 0.57813 0.00196 0.00479 0.0
C121 C 0.61251 0.99636 0.01143 0.0
C122 C 0.57919 0.01357 0.99192 0.0
C123 C 0.54406 0.01967 0.98436 0.0
C124 C 0.51775 0.04814 0.98805 0.0
C125 C 0.48688 0.05674 0.98007 0.0
C126 C 0.48182 0.03673 0.96836 0.0
C127 C 0.50737 0.00718 0.96497 0.0
C128 C 0.5384 -0.00111 0.97288 0.0
C129 C 0.68535 0.02446 0.98618 0.0
C130 C 0.69312 0.0088 0.97397 0.0
C131 C 0.72613 0.01929 0.96739 0.0
C132 C 0.75199 0.04575 0.9729 0.0
C133 C 0.74455 0.06084 0.98525 0.0
C134 C 0.71145 0.05032 0.99182 0.0
C135 C 0.64904 0.01508 0.99273 0.0
C136 C 0.61457 0.02044 0.98608 0.0
C137 C 0.64804 0.002 0.00548 0.0
C138 C 0.68308 0.99044 0.01245 0.0
C139 C 0.709 0.96451 0.00674 0.0
C140 C 0.73974 0.95031 0.01377 0.0
C141 C 0.74453 0.96114 0.0267 0.0
C142 C 0.71917 0.98767 0.03235 0.0
C143 C 0.6888 0.00237 0.02525 0.0
H144 H 0.27737 0.22438 0.26983 0.0
H145 H 0.28564 0.16877 0.28353 0.0
H146 H 0.3772 0.12818 0.25883 0.0
H147 H 0.36739 0.18292 0.24496 0.0
H148 H 0.34781 0.27461 0.26459 0.0
H149 H 0.23658 0.21364 0.24182 0.0
H150 H 0.21065 0.15279 0.23349 0.0
H151 H 0.31174 0.13725 0.21009 0.0
H152 H 0.33733 0.19836 0.2184 0.0
H153 H 0.35155 0.3316 0.21287 0.0
H154 H 0.34706 0.39306 0.20199 0.0
H155 H 0.27753 0.43782 0.23316 0.0
H156 H 0.28316 0.37688 0.24407 0.0
H157 H 0.29434 0.28077 0.22051 0.0
H158 H 0.3925 0.3585 0.23946 0.0
H159 H 0.42549 0.41041 0.25116 0.0
H160 H 0.35616 0.3889 0.28453 0.0
H161 H 0.322 0.33832 0.27271 0.0
C162 C 0.32178 0.2075 0.25644 0.0
C163 C 0.29862 0.20295 0.26728 0.0
C164 C 0.30363 0.17134 0.27513 0.0
C165 C 0.33241 0.14417 0.27238 0.0
C166 C 0.35444 0.14816 0.26117 0.0
C167 C 0.34905 0.17953 0.25325 0.0
C168 C 0.32032 0.24341 0.24925 0.0
C169 C 0.33559 0.27639 0.25504 0.0
C170 C 0.30576 0.24482 0.23667 0.0
C171 C 0.2886 0.21042 0.2306 0.0
C172 C 0.25277 0.19736 0.23473 0.0
C173 C 0.23807 0.16268 0.22999 0.0
C174 C 0.2593 0.14033 0.2212 0.0
C175 C 0.29499 0.15382 0.21695 0.0
C176 C 0.30944 0.18877 0.22157 0.0
C177 C 0.31784 0.34983 0.22928 0.0
C178 C 0.33541 0.35477 0.21733 0.0
C179 C 0.33279 0.38989 0.21114 0.0
C180 C 0.31213 0.42054 0.21673 0.0
C181 C 0.29444 0.41525 0.2287 0.0
C182 C 0.29731 0.38029 0.23491 0.0
C183 C 0.32107 0.313 0.23601 0.0
C184 C 0.30641 0.27954 0.2301 0.0
C185 C 0.33636 0.31124 0.24859 0.0
C186 C 0.3545 0.34465 0.25517 0.0
C187 C 0.38366 0.36559 0.24917 0.0
C188 C 0.40268 0.395 0.25587 0.0
C189 C 0.39343 0.4032 0.26873 0.0
C190 C 0.36397 0.38271 0.27465 0.0
C191 C 0.3445 0.35389 0.2679 0.0
H192 H 0.78747 0.26556 0.21927 0.0
H193 H 0.80136 0.32354 0.20724 0.0
H194 H 0.86996 0.36669 0.23886 0.0
H195 H 0.85576 0.3086 0.25092 0.0
H196 H 0.84339 0.21431 0.22808 0.0
H197 H 0.74521 0.29577 0.2437 0.0
H198 H 0.72259 0.35719 0.25247 0.0
H199 H 0.78061 0.33501 0.28815 0.0
H200 H 0.80531 0.2744 0.27911 0.0
H201 H 0.83084 0.15633 0.2791 0.0
H202 H 0.8229 0.0943 0.28942 0.0
H203 H 0.76056 0.05196 0.25622 0.0
H204 H 0.76778 0.11422 0.24613 0.0
H205 H 0.7771 0.20937 0.27014 0.0
H206 H 0.87819 0.12826 0.25279 0.0
H207 H 0.90539 0.07176 0.2419 0.0
H208 H 0.83713 0.09557 0.20832 0.0
H209 H 0.80912 0.15091 0.2194 0.0
C210 C 0.82063 0.28297 0.23594 0.0
C211 C 0.80518 0.28771 0.22364 0.0
C212 C 0.81285 0.32088 0.21685 0.0
C213 C 0.83663 0.34946 0.22217 0.0
C214 C 0.8516 0.34494 0.23457 0.0
C215 C 0.84349 0.31195 0.24145 0.0
C216 C 0.8141 0.24688 0.24277 0.0
C217 C 0.82849 0.21311 0.23721 0.0
C218 C 0.79519 0.24579 0.25476 0.0
C219 C 0.77788 0.28086 0.26062 0.0
C220 C 0.75357 0.30424 0.25335 0.0
C221 C 0.74049 0.3392 0.25836 0.0
C222 C 0.75032 0.35076 0.27089 0.0
C223 C 0.77287 0.32658 0.27843 0.0
C224 C 0.78678 0.29197 0.2733 0.0
C225 C 0.80004 0.13976 0.26185 0.0
C226 C 0.81525 0.13372 0.27411 0.0
C227 C 0.8111 0.09816 0.27991 0.0
C228 C 0.79137 0.06817 0.27358 0.0
C229 C 0.77574 0.07454 0.26136 0.0
C230 C 0.77996 0.11003 0.25557 0.0
C231 C 0.8063 0.17662 0.25537 0.0
C232 C 0.79199 0.21059 0.26103 0.0
C233 C 0.82493 0.17801 0.24335 0.0
C234 C 0.84132 0.14351 0.23695 0.0
C235 C 0.86877 0.12094 0.24315 0.0
C236 C 0.88456 0.08893 0.23687 0.0
C237 C 0.87329 0.0791 0.22427 0.0
C238 C 0.84593 0.10194 0.2181 0.0
C239 C 0.83014 0.13379 0.22438 0.0
H240 H 0.73757 0.85071 0.74042 0.0
H241 H 0.71867 0.91331 0.73241 0.0
H242 H 0.82981 0.92498 0.71454 0.0
H243 H 0.84884 0.86311 0.72308 0.0
H244 H 0.76679 0.78185 0.72743 0.0
H245 H 0.8031 0.87825 0.75891 0.0
H246 H 0.83458 0.93425 0.76852 0.0
H247 H 0.94461 0.88966 0.7565 0.0
H248 H 0.91281 0.83358 0.74688 0.0
H249 H 0.89967 0.71508 0.75293 0.0
H250 H 0.91652 0.66297 0.76727 0.0
H251 H 0.79745 0.65186 0.77796 0.0
H252 H 0.78081 0.70361 0.76351 0.0
H253 H 0.86968 0.78203 0.76036 0.0
H254 H 0.83751 0.68394 0.73094 0.0
H255 H 0.80988 0.62296 0.72391 0.0
H256 H 0.69632 0.66751 0.73127 0.0
H257 H 0.7244 0.72835 0.73874 0.0
C258 C 0.79452 0.85243 0.73232 0.0
C259 C 0.75764 0.86671 0.73467 0.0
C260 C 0.74694 0.90251 0.73009 0.0
C261 C 0.77278 0.92441 0.72288 0.0
C262 C 0.80946 0.9094 0.72029 0.0
C263 C 0.82026 0.87383 0.72502 0.0
C264 C 0.80702 0.81642 0.73826 0.0
C265 C 0.78907 0.78181 0.7347 0.0
C266 C 0.83694 0.8163 0.7474 0.0
C267 C 0.85561 0.85196 0.75209 0.0
C268 C 0.8339 0.88098 0.75807 0.0
C269 C 0.85195 0.91297 0.76356 0.0
C270 C 0.89209 0.91633 0.76327 0.0
C271 C 0.91368 0.88766 0.75698 0.0
C272 C 0.89558 0.85572 0.75146 0.0
C273 C 0.83901 0.71304 0.75712 0.0
C274 C 0.87719 0.70104 0.75825 0.0
C275 C 0.88677 0.67146 0.76649 0.0
C276 C 0.85834 0.65354 0.77381 0.0
C277 C 0.81994 0.66479 0.77234 0.0
C278 C 0.81038 0.69435 0.76408 0.0
C279 C 0.82947 0.74735 0.74963 0.0
C280 C 0.84784 0.78178 0.75293 0.0
C281 C 0.80039 0.74706 0.74016 0.0
C282 C 0.78305 0.71061 0.73547 0.0
C283 C 0.80667 0.68054 0.73113 0.0
C284 C 0.7908 0.64577 0.72701 0.0
C285 C 0.75088 0.64037 0.72703 0.0
C286 C 0.72719 0.67062 0.73129 0.0
C287 C 0.74315 0.70551 0.73543 0.0
H288 H 0.47585 0.40902 0.99042 0.0
H289 H 0.41449 0.39297 0.98003 0.0
H290 H 0.39897 0.51197 0.97055 0.0
H291 H 0.46011 0.52765 0.98082 0.0
H292 H 0.54306 0.4462 0.97974 0.0
H293 H 0.46077 0.46031 0.0165 0.0
H294 H 0.4 0.47786 0.0265 0.0
H295 H 0.41468 0.59434 0.01379 0.0
H296 H 0.47655 0.57664 0.0044 0.0
H297 H 0.59724 0.58176 0.00696 0.0
H298 H 0.65636 0.60871 0.01601 0.0
H299 H 0.7023 0.4948 0.01995 0.0
H300 H 0.64235 0.46761 0.01161 0.0
H301 H 0.54415 0.53926 0.01635 0.0
H302 H 0.63346 0.5198 0.98018 0.0
H303 H 0.69253 0.49503 0.97037 0.0
H304 H 0.66238 0.38074 0.98201 0.0
H305 H 0.60355 0.40569 0.99183 0.0
C306 C 0.47237 0.46947 0.98638 0.0
C307 C 0.4592 0.43151 0.98606 0.0
C308 C 0.42408 0.42249 0.98024 0.0
C309 C 0.40199 0.45127 0.97451 0.0
C310 C 0.41549 0.48919 0.9748 0.0
C311 C 0.45032 0.49819 0.9807 0.0
C312 C 0.50877 0.47984 0.99286 0.0
C313 C 0.54346 0.46613 0.98785 0.0
C314 C 0.50916 0.50573 0.0034 0.0
C315 C 0.47309 0.51726 0.0098 0.0
C316 C 0.45092 0.48968 0.01598 0.0
C317 C 0.41592 0.49972 0.02155 0.0
C318 C 0.40208 0.53753 0.0209 0.0
C319 C 0.42457 0.56511 0.01467 0.0
C320 C 0.45992 0.55511 0.00927 0.0
C321 C 0.6154 0.52261 0.00839 0.0
C322 C 0.61986 0.56248 0.00984 0.0
C323 C 0.65363 0.57789 0.01495 0.0
C324 C 0.68382 0.55375 0.01852 0.0
C325 C 0.67954 0.51393 0.01707 0.0
C326 C 0.64538 0.49845 0.01224 0.0
C327 C 0.57914 0.50667 0.00299 0.0
C328 C 0.54417 0.51929 0.00825 0.0
C329 C 0.57868 0.47923 0.99277 0.0
C330 C 0.61429 0.46456 0.98676 0.0
C331 C 0.63971 0.48945 0.98064 0.0
C332 C 0.67331 0.47527 0.97502 0.0
C333 C 0.68209 0.43599 0.97549 0.0
C334 C 0.6566 0.4112 0.98166 0.0
C335 C 0.62286 0.42533 0.98716 0.0
H336 H 0.03802 0.47118 0.47562 0.0
H337 H 0.97924 0.4918 0.46506 0.0
H338 H 0.96556 0.58197 0.49365 0.0
H339 H 0.02467 0.56096 0.50425 0.0
H340 H 0.10045 0.52489 0.47829 0.0
H341 H 0.01608 0.44817 0.50383 0.0
H342 H 0.96629 0.43194 0.51932 0.0
H343 H 0.0247 0.49899 0.54854 0.0
H344 H 0.07367 0.51656 0.53294 0.0
H345 H 0.18688 0.51909 0.52506 0.0
H346 H 0.24869 0.49755 0.53341 0.0
H347 H 0.25864 0.41676 0.5017 0.0
H348 H 0.19687 0.43876 0.49328 0.0
H349 H 0.12268 0.47258 0.52159 0.0
H350 H 0.20017 0.55573 0.49848 0.0
H351 H 0.25124 0.57958 0.48482 0.0
H352 H 0.20685 0.5119 0.45298 0.0
H353 H 0.15661 0.48689 0.46688 0.0
C354 C 0.03547 0.51457 0.49068 0.0
C355 C 0.02186 0.49484 0.47977 0.0
C356 C 0.98823 0.50652 0.4738 0.0
C357 C 0.96795 0.53851 0.47855 0.0
C358 C 0.98081 0.55732 0.48979 0.0
C359 C 0.01432 0.54528 0.49587 0.0
C360 C 0.0739 0.50565 0.49566 0.0
C361 C 0.10528 0.51285 0.48768 0.0
C362 C 0.08012 0.49196 0.50817 0.0
C363 C 0.04838 0.48404 0.51716 0.0
C364 C 0.01766 0.46031 0.51345 0.0
C365 C 0.9894 0.4508 0.52232 0.0
C366 C 0.99191 0.46419 0.53508 0.0
C367 C 0.0224 0.48814 0.53876 0.0
C368 C 0.05027 0.49817 0.52986 0.0
C369 C 0.18751 0.48046 0.50859 0.0
C370 C 0.20265 0.4971 0.51984 0.0
C371 C 0.23796 0.48499 0.52453 0.0
C372 C 0.25827 0.45561 0.51815 0.0
C373 C 0.2434 0.43944 0.50676 0.0
C374 C 0.20832 0.45201 0.50195 0.0
C375 C 0.14897 0.49133 0.50415 0.0
C376 C 0.11771 0.48457 0.5122 0.0
C377 C 0.14281 0.50656 0.49188 0.0
C378 C 0.17491 0.51915 0.48373 0.0
C379 C 0.2019 0.54539 0.48863 0.0
C380 C 0.23075 0.55942 0.48077 0.0
C381 C 0.23292 0.54776 0.46781 0.0
C382 C 0.20614 0.5211 0.46296 0.0
C383 C 0.17731 0.50698 0.47086 0.0
C384 C 0.11913 0.67298 0.14117 0.0
C385 C 0.97897 0.62316 0.13375 0.0
C386 C 0.99042 0.6785 0.09705 0.0
Mg387 Mg 0.16205 0.74667 0.12936 0.0
Mg388 Mg 0.11447 0.82195 0.11903 0.0
O389 O 0.12045 0.76887 0.11837 0.0
Mg390 Mg 0.0774 0.73423 0.1231 0.0
O391 O 0.03748 0.6961 0.12773 0.0
Mg392 Mg 0.05858 0.65022 0.11821 0.0
Mg393 Mg 0.98585 0.70731 0.12472 0.0
C394 C 0.03917 0.79838 0.10388 0.0
O395 O 0.04801 0.77625 0.13738 0.0
O396 O 0.20401 0.78673 0.11856 0.0
O397 O 0.9852 0.76191 0.13507 0.0
O398 O 0.15461 0.7937 0.14537 0.0
O399 O 0.16938 0.8364 0.11137 0.0
O400 O 0.11381 0.83858 0.1388 0.0
O401 O 0.10331 0.69038 0.10909 0.0
O402 O 0.16543 0.70028 0.11358 0.0
C403 C 0.13884 0.68225 0.10746 0.0
C404 C 0.20112 0.81833 0.11246 0.0
O405 O 0.04055 0.76377 0.10787 0.0
O406 O 0.01192 0.61591 0.12877 0.0
O407 O 0.063 0.82454 0.10742 0.0
O408 O 0.01743 0.65647 0.10075 0.0
O409 O 0.96328 0.65633 0.13329 0.0
O410 O 0.97618 0.70421 0.10445 0.0
O411 O 0.11581 0.70833 0.13826 0.0
O412 O 0.09937 0.64679 0.13545 0.0
C413 C 0.13512 0.82431 0.14744 0.0
C414 C 0.01238 0.78266 0.1398 0.0
C415 C 0.63681 0.80426 0.38871 0.0
C416 C 0.69955 0.66854 0.38513 0.0
C417 C 0.64158 0.66381 0.34804 0.0
Mg418 Mg 0.55898 0.83643 0.37607 0.0
Mg419 Mg 0.48955 0.78033 0.36503 0.0
O420 O 0.54185 0.79136 0.3653 0.0
Mg421 Mg 0.57993 0.75301 0.37125 0.0
O422 O 0.62138 0.71836 0.37711 0.0
Mg423 Mg 0.66522 0.74055 0.36714 0.0
Mg424 Mg 0.61526 0.66537 0.37599 0.0
C425 C 0.52186 0.70559 0.35127 0.0
O426 O 0.53929 0.72295 0.38537 0.0
O427 O 0.51588 0.8725 0.36416 0.0
O428 O 0.56009 0.66166 0.38526 0.0
O429 O 0.51131 0.82687 0.39145 0.0
O430 O 0.47046 0.83235 0.35651 0.0
O431 O 0.47101 0.78128 0.3845 0.0
O432 O 0.62192 0.7801 0.35732 0.0
O433 O 0.60616 0.84163 0.36096 0.0
C434 C 0.62723 0.81598 0.35549 0.0
C435 C 0.48527 0.86583 0.35761 0.0
O436 O 0.55541 0.71079 0.35609 0.0
O437 O 0.70409 0.69987 0.37898 0.0
O438 O 0.49314 0.72735 0.35387 0.0
O439 O 0.66102 0.69433 0.35042 0.0
O440 O 0.66757 0.65056 0.38537 0.0
O441 O 0.61943 0.64955 0.35639 0.0
O442 O 0.60163 0.7961 0.38625 0.0
O443 O 0.66467 0.78643 0.3832 0.0
C444 C 0.48229 0.80501 0.39316 0.0
C445 C 0.53592 0.6877 0.38859 0.0
C446 C 0.61438 0.18359 0.64136 0.0
C447 C 0.47971 0.12857 0.6308 0.0
C448 C 0.49202 0.18557 0.59484 0.0
Mg449 Mg 0.65529 0.26084 0.63302 0.0
Mg450 Mg 0.60825 0.33625 0.62326 0.0
O451 O 0.61612 0.28373 0.62128 0.0
Mg452 Mg 0.57343 0.24634 0.62345 0.0
O453 O 0.53455 0.20548 0.62588 0.0
Mg454 Mg 0.56001 0.16124 0.6167 0.0
Mg455 Mg 0.48274 0.21381 0.62258 0.0
C456 C 0.539 0.3147 0.60484 0.0
O457 O 0.53836 0.28398 0.63755 0.0
O458 O 0.69867 0.30443 0.62452 0.0
O459 O 0.47691 0.26714 0.63358 0.0
O460 O 0.64246 0.30376 0.64993 0.0
O461 O 0.66387 0.35362 0.61715 0.0
O462 O 0.60277 0.34925 0.64318 0.0
O463 O 0.60471 0.20561 0.60936 0.0
O464 O 0.66426 0.2186 0.61626 0.0
C465 C 0.64111 0.20026 0.60878 0.0
C466 C 0.69599 0.33666 0.61878 0.0
O467 O 0.54058 0.27879 0.60752 0.0
O468 O 0.51315 0.1228 0.62594 0.0
O469 O 0.56007 0.34014 0.61042 0.0
O470 O 0.52098 0.16636 0.59866 0.0
O471 O 0.46323 0.16138 0.63072 0.0
O472 O 0.47457 0.20927 0.60223 0.0
O473 O 0.60828 0.21914 0.6394 0.0
O474 O 0.59838 0.15737 0.63446 0.0
C475 C 0.62195 0.33363 0.65209 0.0
C476 C 0.50209 0.28832 0.63927 0.0
C477 C 0.13657 0.30109 0.88902 0.0
C478 C 0.20116 0.16797 0.87931 0.0
C479 C 0.14081 0.1749 0.84326 0.0
Mg480 Mg 0.0572 0.33601 0.8786 0.0
Mg481 Mg 0.98642 0.28243 0.86727 0.0
O482 O 0.03868 0.29357 0.86689 0.0
Mg483 Mg 0.07818 0.25409 0.87065 0.0
O484 O 0.12108 0.21834 0.87442 0.0
Mg485 Mg 0.16342 0.24514 0.86501 0.0
Mg486 Mg 0.1156 0.16587 0.87109 0.0
C487 C 0.01616 0.21163 0.85066 0.0
O488 O 0.04104 0.2189 0.88436 0.0
O489 O 0.01249 0.37477 0.86847 0.0
O490 O 0.06231 0.15819 0.88153 0.0
O491 O 0.01192 0.32243 0.89437 0.0
O492 O 0.96657 0.33623 0.86028 0.0
O493 O 0.9703 0.27881 0.88693 0.0
O494 O 0.1179 0.28619 0.85713 0.0
O495 O 0.10211 0.34615 0.86306 0.0
C496 C 0.12264 0.32255 0.85645 0.0
C497 C 0.98134 0.3695 0.86207 0.0
O498 O 0.05088 0.2161 0.85461 0.0
O499 O 0.20422 0.20169 0.87464 0.0
O500 O 0.98809 0.23221 0.85476 0.0
O501 O 0.15951 0.20467 0.84697 0.0
O502 O 0.16967 0.14906 0.87907 0.0
O503 O 0.11853 0.15721 0.85081 0.0
O504 O 0.10133 0.29308 0.8867 0.0
O505 O 0.16401 0.28558 0.88259 0.0
C506 C 0.98302 0.30038 0.89599 0.0
C507 C 0.03887 0.18274 0.88646 0.0
C508 C 0.2111 0.87755 0.46225 0.0
C509 C 0.21409 0.9117 0.46954 0.0
C510 C 0.24262 0.86302 0.45554 0.0
C511 C 0.34835 0.86914 0.45256 0.0
H512 H 0.32765 0.8307 0.41811 0.0
C513 C 0.46437 0.84122 0.41337 0.0
C514 C 0.45808 0.81038 0.40474 0.0
C515 C 0.4373 0.85027 0.42286 0.0
C516 C 0.33393 0.84072 0.42778 0.0
H517 H 0.25309 0.95675 0.47577 0.0
H518 H 0.30794 0.93191 0.46371 0.0
H519 H 0.27512 0.85356 0.43139 0.0
H520 H 0.41981 0.76311 0.40002 0.0
H521 H 0.3735 0.77824 0.4167 0.0
H522 H 0.40755 0.85688 0.44872 0.0
C523 C 0.28124 0.91614 0.46334 0.0
C524 C 0.30374 0.85388 0.43541 0.0
C525 C 0.24965 0.93064 0.47011 0.0
C526 C 0.42554 0.78726 0.40641 0.0
C527 C 0.39876 0.7961 0.41592 0.0
C528 C 0.37872 0.85601 0.44488 0.0
C529 C 0.27793 0.88239 0.45585 0.0
C530 C 0.31049 0.86816 0.4479 0.0
C531 C 0.40354 0.82856 0.42392 0.0
C532 C 0.37176 0.84153 0.43241 0.0
H533 H 0.1841 0.86239 0.46146 0.0
H534 H 0.2392 0.83665 0.45002 0.0
H535 H 0.35447 0.87969 0.46218 0.0
H536 H 0.48914 0.85963 0.41238 0.0
H537 H 0.44179 0.8755 0.42888 0.0
C538 C 0.33274 0.91104 0.70657 0.0
C539 C 0.33782 0.87183 0.70398 0.0
C540 C 0.34549 0.93809 0.69783 0.0
C541 C 0.38044 0.94869 0.66422 0.0
H542 H 0.42335 0.04289 0.67834 0.0
C543 C 0.47293 0.05904 0.6363 0.0
C544 C 0.4604 0.0972 0.63762 0.0
C545 C 0.45609 0.03023 0.64357 0.0
C546 C 0.41129 0.01674 0.67429 0.0
H547 H 0.36006 0.82984 0.69037 0.0
H548 H 0.38371 0.87693 0.67533 0.0
H549 H 0.39757 0.99531 0.69275 0.0
H550 H 0.41983 0.13484 0.64741 0.0
H551 H 0.39126 0.08474 0.6602 0.0
H552 H 0.39577 0.97011 0.64573 0.0
C553 C 0.36883 0.88702 0.68385 0.0
C554 C 0.39621 0.98958 0.68252 0.0
C555 C 0.35546 0.86001 0.69248 0.0
C556 C 0.43019 0.10577 0.64612 0.0
C557 C 0.41389 0.07719 0.6535 0.0
C558 C 0.39618 0.97569 0.65599 0.0
C559 C 0.36431 0.92645 0.68646 0.0
C560 C 0.38029 0.95531 0.6776 0.0
C561 C 0.42699 0.03933 0.6524 0.0
C562 C 0.4114 0.01002 0.66098 0.0
H563 H 0.3189 0.92073 0.71534 0.0
H564 H 0.34068 0.96813 0.70004 0.0
H565 H 0.36797 0.92291 0.66007 0.0
H566 H 0.49604 0.05154 0.6298 0.0
H567 H 0.46664 0.00113 0.64262 0.0
C568 C 0.44764 0.0872 0.95616 0.0
C569 C 0.45183 0.04841 0.95922 0.0
C570 C 0.42166 0.09815 0.94673 0.0
C571 C 0.33449 0.06873 0.93001 0.0
H572 H 0.3688 0.13856 0.90383 0.0
C573 C 0.23459 0.11226 0.88906 0.0
C574 C 0.23421 0.15136 0.88609 0.0
C575 C 0.26347 0.09738 0.89678 0.0
C576 C 0.35868 0.11931 0.91113 0.0
H577 H 0.43164 0.99075 0.95513 0.0
H578 H 0.38569 0.01003 0.93869 0.0
H579 H 0.41358 0.11767 0.9203 0.0
H580 H 0.26461 0.20525 0.88846 0.0
H581 H 0.31444 0.17955 0.90218 0.0
H582 H 0.27935 0.07117 0.92117 0.0
C583 C 0.40266 0.03184 0.94356 0.0
C584 C 0.38432 0.10735 0.92053 0.0
C585 C 0.42897 0.02083 0.9529 0.0
C586 C 0.26418 0.17496 0.89054 0.0
C587 C 0.29285 0.16016 0.89837 0.0
C588 C 0.30874 0.08097 0.92069 0.0
C589 C 0.39918 0.07054 0.94028 0.0
C590 C 0.37235 0.08219 0.9301 0.0
C591 C 0.29236 0.12137 0.9018 0.0
C592 C 0.32047 0.10661 0.91119 0.0
H593 H 0.46524 0.10897 0.96079 0.0
H594 H 0.41917 0.12822 0.94446 0.0
H595 H 0.3245 0.04959 0.93736 0.0
H596 H 0.21212 0.09323 0.88564 0.0
H597 H 0.26275 0.06719 0.89899 0.0
C598 C 0.26832 0.07027 0.21665 0.0
C599 C 0.24456 0.10272 0.21663 0.0
C600 C 0.25466 0.03488 0.21216 0.0
C601 C 0.16511 0.98275 0.20279 0.0
H602 H 0.23466 0.92345 0.18132 0.0
C603 C 0.11896 0.8797 0.16202 0.0
C604 C 0.14092 0.84661 0.15952 0.0
C605 C 0.12887 0.90495 0.17201 0.0
C606 C 0.21507 0.93919 0.18751 0.0
H607 H 0.1879 0.12371 0.21203 0.0
H608 H 0.16433 0.06232 0.20376 0.0
H609 H 0.25805 0.9801 0.19268 0.0
H610 H 0.18895 0.81278 0.16617 0.0
H611 H 0.20662 0.85739 0.18351 0.0
H612 H 0.12163 0.94265 0.19693 0.0
C613 C 0.19318 0.06377 0.20757 0.0
C614 C 0.22848 0.97176 0.19405 0.0
C615 C 0.20672 0.09905 0.21221 0.0
C616 C 0.17149 0.83806 0.16779 0.0
C617 C 0.18173 0.86365 0.17769 0.0
C618 C 0.1516 0.95032 0.19613 0.0
C619 C 0.21707 0.03127 0.20739 0.0
C620 C 0.20352 0.99443 0.20156 0.0
C621 C 0.16128 0.89796 0.1796 0.0
C622 C 0.17632 0.92865 0.18824 0.0
H623 H 0.29743 0.07223 0.22022 0.0
H624 H 0.27365 0.01037 0.2124 0.0
H625 H 0.14525 -0.00095 0.20871 0.0
H626 H 0.09519 0.8872 0.15586 0.0
H627 H 0.11267 0.93125 0.1732 0.0
C628 C 0.21838 0.08375 0.53664 0.0
C629 C 0.21977 0.05968 0.52574 0.0
C630 C 0.25197 0.09912 0.54187 0.0
C631 C 0.35834 0.08792 0.54157 0.0
H632 H 0.352 0.18546 0.55975 0.0
C633 C 0.47102 0.13596 0.57888 0.0
C634 C 0.47349 0.17478 0.58254 0.0
C635 C 0.44524 0.12403 0.56933 0.0
C636 C 0.35493 0.15862 0.55448 0.0
H637 H 0.25701 0.033 0.51161 0.0
H638 H 0.31584 0.06119 0.52036 0.0
H639 H 0.29696 0.16164 0.54813 0.0
H640 H 0.45412 0.23186 0.57819 0.0
H641 H 0.41147 0.21178 0.56088 0.0
H642 H 0.41698 0.08583 0.54745 0.0
C643 C 0.28901 0.06737 0.52516 0.0
C644 C 0.32275 0.14443 0.54801 0.0
C645 C 0.25535 0.05133 0.52009 0.0
C646 C 0.4525 0.20179 0.57565 0.0
C647 C 0.42759 0.19004 0.56583 0.0
C648 C 0.39089 0.10257 0.54781 0.0
C649 C 0.28781 0.09152 0.53614 0.0
C650 C 0.32355 0.10831 0.54181 0.0
C651 C 0.422 0.15079 0.563 0.0
C652 C 0.38938 0.13765 0.55469 0.0
H653 H 0.19125 0.09021 0.54124 0.0
H654 H 0.24972 0.11655 0.55053 0.0
H655 H 0.36028 0.05997 0.53695 0.0
H656 H 0.48659 0.1144 0.58412 0.0
H657 H 0.44185 0.09355 0.56761 0.0
C658 C 0.27351 0.93386 0.77301 0.0
C659 C 0.2459 0.90515 0.77093 0.0
C660 C 0.26273 0.97009 0.77765 0.0
C661 C 0.17735 0.03256 0.78388 0.0
H662 H 0.24269 0.07701 0.81033 0.0
C663 C 0.12527 0.12755 0.82576 0.0
C664 C 0.14901 0.157 0.83056 0.0
C665 C 0.13673 0.10478 0.81532 0.0
C666 C 0.2245 0.06551 0.80276 0.0
H667 H 0.18541 0.89179 0.77193 0.0
H668 H 0.16661 0.95445 0.78044 0.0
H669 H 0.26409 0.02056 0.79842 0.0
H670 H 0.20237 0.18743 0.82754 0.0
H671 H 0.22281 0.14698 0.80939 0.0
H672 H 0.13676 0.07644 0.78891 0.0
C673 C 0.19648 0.94958 0.77816 0.0
C674 C 0.23676 0.03304 0.7959 0.0
C675 C 0.20723 0.91353 0.77336 0.0
C676 C 0.18336 0.16496 0.82409 0.0
C677 C 0.19518 0.14172 0.81374 0.0
C678 C 0.16492 0.06482 0.79086 0.0
C679 C 0.22413 0.97827 0.78048 0.0
C680 C 0.21296 0.01554 0.78659 0.0
C681 C 0.17253 0.1106 0.80956 0.0
C682 C 0.18802 0.08107 0.80057 0.0
H683 H 0.30347 0.92829 0.77102 0.0
H684 H 0.28473 0.99162 0.77909 0.0
H685 H 0.15862 0.02043 0.77658 0.0
H686 H 0.09881 0.12053 0.83054 0.0
H687 H 0.11877 0.08085 0.8124 0.0
C688 C 0.42415 0.97453 0.04094 0.0
C689 C 0.45055 0.95065 0.03455 0.0
C690 C 0.39877 0.95939 0.04987 0.0
C691 C 0.35664 0.86817 0.06078 0.0
H692 H 0.33546 0.92792 0.09172 0.0
C693 C 0.26532 0.80944 0.10212 0.0
C694 C 0.23489 0.83362 0.10577 0.0
C695 C 0.29483 0.82313 0.09439 0.0
C696 C 0.34116 0.91097 0.08312 0.0
H697 H 0.47121 0.89232 0.03243 0.0
H698 H 0.4273 0.8659 0.04812 0.0
H699 H 0.37957 0.95288 0.07576 0.0
H700 H 0.21256 0.89154 0.10481 0.0
H701 H 0.26422 0.91541 0.09147 0.0
H702 H 0.31823 0.82623 0.06821 0.0
C703 C 0.42556 0.89616 0.04607 0.0
C704 C 0.36616 0.92533 0.07394 0.0
C705 C 0.45069 0.91126 0.03707 0.0
C706 C 0.23551 0.87215 0.10208 0.0
C707 C 0.26518 0.88591 0.09451 0.0
C708 C 0.33189 0.85368 0.07002 0.0
C709 C 0.39957 0.92011 0.05267 0.0
C710 C 0.37382 0.90431 0.06259 0.0
C711 C 0.29465 0.86134 0.09036 0.0
C712 C 0.32359 0.87515 0.08119 0.0
H713 H 0.42328 0.00496 0.03908 0.0
H714 H 0.37856 0.97849 0.05458 0.0
H715 H 0.36154 0.85145 0.05208 0.0
H716 H 0.26556 0.77959 0.10479 0.0
H717 H 0.31745 0.80372 0.09138 0.0
C718 C 0.34084 0.12186 0.29497 0.0
C719 C 0.34175 0.11377 0.28169 0.0
C720 C 0.35335 0.09477 0.30373 0.0
C721 C 0.42045 0.01622 0.30628 0.0
H722 H 0.3646 0.99033 0.33712 0.0
C723 C 0.48821 0.92973 0.3471 0.0
C724 C 0.467 0.89733 0.35059 0.0
C725 C 0.4717 0.95761 0.33938 0.0
C726 C 0.38045 -0.00258 0.32855 0.0
H727 H 0.35478 0.06999 0.26728 0.0
H728 H 0.37766 0.02309 0.28262 0.0
H729 H 0.33621 0.03461 0.32178 0.0
H730 H 0.41143 0.86961 0.34927 0.0
H731 H 0.38255 0.91866 0.33597 0.0
H732 H 0.46477 0.97927 0.31305 0.0
C733 C 0.36736 0.05057 0.28618 0.0
C734 C 0.36431 0.02272 0.31982 0.0
C735 C 0.35437 0.07746 0.27742 0.0
C736 C 0.42856 0.89416 0.34667 0.0
C737 C 0.41194 0.92228 0.33913 0.0
C738 C 0.43681 0.99139 0.31509 0.0
C739 C 0.36747 0.05924 0.29939 0.0
C740 C 0.38409 0.03211 0.30858 0.0
C741 C 0.43357 0.95386 0.33522 0.0
C742 C 0.41689 0.98165 0.32626 0.0
H743 H 0.332 0.14971 0.29862 0.0
H744 H 0.35348 0.10223 0.31387 0.0
H745 H 0.43643 0.02338 0.29774 0.0
H746 H 0.5179 0.93291 0.34996 0.0
H747 H 0.48884 0.98191 0.33655 0.0
C748 C 0.84521 0.07836 0.52389 0.0
C749 C 0.8654 0.0464 0.52836 0.0
C750 C 0.81221 0.09125 0.53019 0.0
C751 C 0.76731 0.12882 0.55182 0.0
H752 H 0.69355 0.06293 0.56846 0.0
C753 C 0.69764 0.16739 0.59913 0.0
C754 C 0.65804 0.1748 0.59878 0.0
C755 C 0.71563 0.14849 0.58894 0.0
C756 C 0.71354 0.08162 0.56367 0.0
H757 H 0.866 0.00223 0.54276 0.0
H758 H 0.80859 0.02481 0.55377 0.0
H759 H 0.73846 0.0355 0.55263 0.0
H760 H 0.60585 0.16571 0.58779 0.0
H761 H 0.63787 0.13169 0.56986 0.0
H762 H 0.74382 0.17444 0.56334 0.0
C763 C 0.81792 0.03957 0.54527 0.0
C764 C 0.73939 0.06599 0.55472 0.0
C765 C 0.85094 0.02671 0.53897 0.0
C766 C 0.63641 0.16056 0.58832 0.0
C767 C 0.6546 0.14119 0.57809 0.0
C768 C 0.7418 0.14426 0.5608 0.0
C769 C 0.79864 0.07246 0.54111 0.0
C770 C 0.76722 0.08932 0.54897 0.0
C771 C 0.6945 0.13613 0.57823 0.0
C772 C 0.71545 0.12064 0.56702 0.0
H773 H 0.85515 0.09368 0.51558 0.0
H774 H 0.7977 0.11641 0.52667 0.0
H775 H 0.78862 0.14751 0.54771 0.0
H776 H 0.71522 0.17739 0.60708 0.0
H777 H 0.7464 0.14444 0.58927 0.0
C778 C 0.75002 0.01267 0.27951 0.0
C779 C 0.78592 0.03081 0.27989 0.0
C780 C 0.74385 0.979 0.28622 0.0
C781 C 0.73887 0.90124 0.29821 0.0
H782 H 0.77433 0.90719 0.33346 0.0
C783 C 0.67303 0.80635 0.33712 0.0
C784 C 0.65907 0.82903 0.34736 0.0
C785 C 0.69953 0.82159 0.32849 0.0
C786 C 0.76459 0.90479 0.3236 0.0
H787 H 0.84415 0.02672 0.28699 0.0
H788 H 0.83339 0.96769 0.29874 0.0
H789 H 0.79905 0.95208 0.31793 0.0
H790 H 0.66405 0.88402 0.35726 0.0
H791 H 0.70978 0.91037 0.34236 0.0
H792 H 0.70204 0.85593 0.30419 0.0
C793 C 0.80985 0.97988 0.2934 0.0
C794 C 0.77901 0.93033 0.31465 0.0
C795 C 0.81598 0.01372 0.28672 0.0
C796 C 0.67391 0.86604 0.34934 0.0
C797 C 0.70055 0.88099 0.34087 0.0
C798 C 0.72431 0.87578 0.30719 0.0
C799 C 0.77348 0.96253 0.29343 0.0
C800 C 0.76495 0.93003 0.302 0.0
C801 C 0.71289 0.85942 0.33015 0.0
C802 C 0.73566 0.87859 0.32011 0.0
H803 H 0.72616 0.02536 0.27447 0.0
H804 H 0.71526 0.96695 0.28623 0.0
H805 H 0.72811 0.89971 0.28846 0.0
H806 H 0.66213 0.77764 0.33542 0.0
H807 H 0.7087 0.80427 0.32033 0.0
C808 C 0.81242 0.94126 0.03023 0.0
C809 C 0.77437 0.9428 0.0345 0.0
C810 C 0.84029 0.92282 0.03749 0.0
C811 C 0.85881 0.88723 0.07028 0.0
H812 H 0.94156 0.8325 0.0532 0.0
C813 C 0.97052 0.79769 0.09746 0.0
C814 C 0.00835 0.80907 0.09508 0.0
C815 C 0.94081 0.81043 0.08963 0.0
C816 C 0.91851 0.84766 0.05805 0.0
H817 H 0.73511 0.92575 0.04943 0.0
H818 H 0.78336 0.89248 0.06193 0.0
H819 H 0.89134 0.86209 0.0404 0.0
H820 H 0.04535 0.8417 0.08269 0.0
H821 H 0.99339 0.86332 0.06877 0.0
H822 H 0.88591 0.87213 0.08793 0.0
C823 C 0.79216 0.90648 0.05323 0.0
C824 C 0.88994 0.86486 0.05075 0.0
C825 C 0.76448 0.92543 0.04607 0.0
C826 C 0.0163 0.83255 0.08464 0.0
C827 C 0.98674 0.84467 0.07667 0.0
C828 C 0.88704 0.86951 0.07755 0.0
C829 C 0.83044 0.90501 0.04905 0.0
C830 C 0.86 0.8853 0.05678 0.0
C831 C 0.94873 0.83417 0.07922 0.0
C832 C 0.91733 0.85003 0.07149 0.0
H833 H 0.82064 0.95465 0.02135 0.0
H834 H 0.86959 0.92292 0.0341 0.0
H835 H 0.83662 0.90326 0.07525 0.0
H836 H 0.96378 0.78014 0.10562 0.0
H837 H 0.91165 0.80204 0.09176 0.0
C838 C 0.89648 0.98554 0.77005 0.0
C839 C 0.91133 0.94814 0.77034 0.0
C840 C 0.91243 0.01461 0.77773 0.0
C841 C 0.96525 0.02743 0.80784 0.0
H842 H 0.9774 0.13209 0.79666 0.0
C843 C 0.02641 0.14623 0.84119 0.0
C844 C 0.00783 0.18179 0.8409 0.0
C845 C 0.01773 0.11775 0.83205 0.0
C846 C 0.97388 0.10304 0.79995 0.0
H847 H 0.95514 0.91213 0.77868 0.0
H848 H 0.98329 0.96303 0.79194 0.0
H849 H 0.95748 0.08246 0.78124 0.0
H850 H 0.96529 0.21558 0.83102 0.0
H851 H 0.95 0.16589 0.81506 0.0
H852 H 0.98076 0.04798 0.82659 0.0
C853 C 0.95912 0.96976 0.78585 0.0
C854 C 0.96256 0.07465 0.79111 0.0
C855 C 0.94326 0.94073 0.77815 0.0
C856 C 0.98022 0.18841 0.83139 0.0
C857 C 0.97174 0.16009 0.82219 0.0
C858 C 0.97644 0.0558 0.81668 0.0
C859 C 0.94343 0.00682 0.7859 0.0
C860 C 0.95781 0.03662 0.795 0.0
C861 C 0.99042 0.12443 0.82242 0.0
C862 C 0.98051 0.09399 0.81286 0.0
H863 H 0.87211 0.99216 0.76403 0.0
H864 H 0.89956 0.04284 0.77763 0.0
H865 H 0.96124 -0.00151 0.81118 0.0
H866 H 0.04695 0.14012 0.84866 0.0
H867 H 0.03258 0.09056 0.83249 0.0
C868 C 0.85844 0.95949 0.45542 0.0
C869 C 0.86494 0.94413 0.46758 0.0
C870 C 0.82464 0.95132 0.44874 0.0
C871 C 0.7466 0.8796 0.44715 0.0
H872 H 0.70628 0.94981 0.42205 0.0
C873 C 0.63151 0.83162 0.41091 0.0
C874 C 0.64668 0.83351 0.39847 0.0
C875 C 0.64847 0.85267 0.42099 0.0
C876 C 0.7169 0.93014 0.42915 0.0
H877 H 0.8407 0.90941 0.48255 0.0
H878 H 0.78101 0.89587 0.47107 0.0
H879 H 0.75535 0.97179 0.43719 0.0
H880 H 0.68874 0.86092 0.38646 0.0
H881 H 0.71742 0.89867 0.40391 0.0
H882 H 0.70848 0.83785 0.43891 0.0
C883 C 0.80242 0.91342 0.4665 0.0
C884 C 0.7453 0.94252 0.43774 0.0
C885 C 0.83656 0.92118 0.4731 0.0
C886 C 0.67659 0.85916 0.396 0.0
C887 C 0.69288 0.88081 0.40597 0.0
C888 C 0.71779 0.86745 0.43869 0.0
C889 C 0.7962 0.92799 0.45415 0.0
C890 C 0.76161 0.91696 0.44652 0.0
C891 C 0.68011 0.87649 0.41864 0.0
C892 C 0.70367 0.89218 0.42932 0.0
H893 H 0.88005 0.97696 0.45089 0.0
H894 H 0.82146 0.96236 0.43915 0.0
H895 H 0.7586 0.8589 0.45364 0.0
H896 H 0.60867 0.81168 0.41302 0.0
H897 H 0.63814 0.84892 0.43068 0.0
C898 C 0.92965 0.0378 0.21819 0.0
C899 C 0.89018 0.04552 0.21743 0.0
C900 C 0.94568 0.00746 0.21108 0.0
C901 C 0.91963 0.9186 0.19296 0.0
H902 H 0.01429 0.93678 0.17456 0.0
C903 C 0.96389 0.8273 0.14936 0.0
C904 C 0.00185 0.81396 0.14886 0.0
C905 C 0.95292 0.85468 0.15853 0.0
C906 C 0.98808 0.93119 0.17976 0.0
H907 H 0.83641 0.02657 0.20901 0.0
H908 H 0.86435 0.97458 0.19638 0.0
H909 H 0.99004 0.9855 0.18961 0.0
H910 H 0.05795 0.8188 0.15766 0.0
H911 H 0.03886 0.86751 0.1736 0.0
H912 H 0.91705 0.86488 0.1828 0.0
C913 C 0.88298 0.99155 0.20256 0.0
C914 C 0.97424 0.95897 0.18841 0.0
C915 C 0.86699 0.02172 0.20967 0.0
C916 C 0.02877 0.82917 0.15761 0.0
C917 C 0.01781 0.85682 0.16677 0.0
C918 C 0.93327 0.89107 0.18426 0.0
C919 C 0.92255 0.98422 0.20308 0.0
C920 C 0.93944 0.95329 0.19492 0.0
C921 C 0.97964 0.86942 0.16741 0.0
C922 C 0.96719 0.89741 0.17739 0.0
H923 H 0.94832 0.0558 0.22401 0.0
H924 H 0.9762 0.00233 0.21179 0.0
H925 H 0.89325 0.9129 0.19804 0.0
H926 H 0.94246 0.81632 0.14272 0.0
H927 H 0.92343 0.86435 0.15869 0.0
C928 C 0.80658 0.03293 0.95783 0.0
C929 C 0.78542 0.05896 0.96543 0.0
C930 C 0.83572 0.04592 0.94985 0.0
C931 C 0.89967 0.1276 0.94384 0.0
H932 H 0.89902 0.08776 0.90884 0.0
C933 C 0.99083 0.1942 0.90391 0.0
C934 C 0.00913 0.1688 0.8953 0.0
C935 C 0.96386 0.18076 0.91263 0.0
C936 C 0.8999 0.09883 0.91862 0.0
H937 H 0.77879 0.1189 0.97086 0.0
H938 H 0.82991 0.14152 0.95699 0.0
H939 H 0.8529 0.06366 0.92425 0.0
H940 H 0.01356 0.10929 0.88908 0.0
H941 H 0.96692 0.08576 0.90439 0.0
H942 H 0.94673 0.16275 0.93821 0.0
C943 C 0.82413 0.11106 0.95728 0.0
C944 C 0.87351 0.085 0.92744 0.0
C945 C 0.79491 0.09808 0.96524 0.0
C946 C -0.00014 0.12965 0.89556 0.0
C947 C 0.97294 0.11619 0.90428 0.0
C948 C 0.92618 0.14135 0.93502 0.0
C949 C 0.84433 0.08517 0.94934 0.0
C950 C 0.87311 0.09926 0.94014 0.0
C951 C 0.95472 0.14158 0.91293 0.0
C952 C 0.92654 0.12713 0.92231 0.0
H953 H 0.80034 0.00254 0.95794 0.0
H954 H 0.85131 0.02526 0.944 0.0
H955 H 0.90022 0.13883 0.9536 0.0
H956 H -0.00206 0.22435 0.90413 0.0
H957 H 0.9501 0.20109 0.9191 0.0
C958 C 0.78803 0.99251 0.71711 0.0
C959 C 0.76134 0.96236 0.71785 0.0
C960 C 0.77787 0.02721 0.71154 0.0
C961 C 0.69549 0.08578 0.70142 0.0
H962 H 0.75888 0.11213 0.67233 0.0
C963 C 0.66385 0.13868 0.64917 0.0
C964 C 0.64189 0.17187 0.65124 0.0
C965 C 0.68636 0.12415 0.65899 0.0
C966 C 0.74133 0.10567 0.68058 0.0
H967 H 0.70269 0.94571 0.71356 0.0
H968 H 0.68491 0.00636 0.70415 0.0
H969 H 0.78161 0.06473 0.68754 0.0
H970 H 0.6275 0.21713 0.6649 0.0
H971 H 0.66611 0.1906 0.6824 0.0
H972 H 0.65422 0.12505 0.694 0.0
C973 C 0.71361 0.00319 0.70796 0.0
C974 C 0.75435 0.07868 0.6893 0.0
C975 C 0.72385 0.96837 0.71336 0.0
C976 C 0.64424 0.19144 0.66311 0.0
C977 C 0.66619 0.17632 0.67309 0.0
C978 C 0.68266 0.11311 0.69277 0.0
C979 C 0.74067 0.03269 0.70679 0.0
C980 C 0.73078 0.06724 0.69946 0.0
C981 C 0.68683 0.14212 0.67115 0.0
C982 C 0.70474 0.12195 0.68197 0.0
H983 H 0.81692 0.98922 0.72072 0.0
H984 H 0.79921 0.04961 0.7108 0.0
H985 H 0.67696 0.07767 0.70925 0.0
H986 H 0.66276 0.12329 0.64005 0.0
H987 H 0.70162 0.09752 0.65727 0.0
C988 C 0.72619 0.43137 0.95661 0.0
C989 C 0.71699 0.42058 0.96915 0.0
C990 C 0.75762 0.41511 0.95028 0.0
C991 C 0.80666 0.35492 0.93683 0.0
H992 H 0.90779 0.34868 0.95216 0.0
C993 C 0.92751 0.28082 0.90955 0.0
C994 C 0.96009 0.30395 0.90792 0.0
C995 C 0.9007 0.28969 0.91907 0.0
C996 C 0.87964 0.35008 0.94781 0.0
H997 H 0.73421 0.38537 0.98509 0.0
H998 H 0.78956 0.35706 0.97401 0.0
H999 H 0.85471 0.37715 0.96448 0.0
H1000 H 0.99185 0.3523 0.91588 0.0
H1001 H 0.94477 0.3679 0.93245 0.0
H1002 H 0.83126 0.32862 0.92012 0.0
C1003 C 0.77227 0.37799 0.96909 0.0
C1004 C 0.84931 0.3662 0.95486 0.0
C1005 C 0.7405 0.39395 0.97538 0.0
C1006 C 0.96697 0.33401 0.9168 0.0
C1007 C 0.94004 0.34292 0.92634 0.0
C1008 C 0.83671 0.33849 0.92987 0.0
C1009 C 0.78074 0.38799 0.95641 0.0
C1010 C 0.81269 0.36929 0.94934 0.0
C1011 C 0.90582 0.32188 0.92717 0.0
C1012 C 0.87363 0.33623 0.93521 0.0
H1013 H 0.70845 0.45161 0.95154 0.0
H1014 H 0.76375 0.42361 0.94055 0.0
H1015 H 0.77863 0.35656 0.93239 0.0
H1016 H 0.9215 0.2571 0.90301 0.0
H1017 H 0.87497 0.27245 0.91967 0.0
C1018 C 0.82071 0.40324 0.20753 0.0
C1019 C 0.84812 0.38234 0.21434 0.0
C1020 C 0.83216 0.43203 0.19922 0.0
C1021 C 0.91658 0.49107 0.19018 0.0
H1022 H 0.86347 0.49772 0.15755 0.0
C1023 C 0.98222 0.56347 0.14651 0.0
C1024 C 0.96028 0.59336 0.14142 0.0
C1025 C 0.96607 0.53835 0.15523 0.0
C1026 C 0.87831 0.49624 0.16667 0.0
H1027 H 0.90876 0.37499 0.21795 0.0
H1028 H 0.92894 0.42427 0.20323 0.0
H1029 H 0.8398 0.45411 0.17382 0.0
H1030 H 0.90369 0.61905 0.1409 0.0
H1031 H 0.87518 0.57416 0.15596 0.0
H1032 H 0.95599 0.53203 0.18272 0.0
C1033 C 0.89855 0.4195 0.20452 0.0
C1034 C 0.86469 0.47154 0.17603 0.0
C1035 C 0.88706 0.39115 0.21294 0.0
C1036 C 0.92132 0.59637 0.14471 0.0
C1037 C 0.90499 0.57074 0.15328 0.0
C1038 C 0.9305 0.5152 0.18075 0.0
C1039 C 0.87128 0.44003 0.19744 0.0
C1040 C 0.88393 0.46835 0.18785 0.0
C1041 C 0.92756 0.54222 0.15884 0.0
C1042 C 0.91171 0.51765 0.16889 0.0
H1043 H 0.79046 0.39705 0.20855 0.0
H1044 H 0.81036 0.44775 0.19411 0.0
H1045 H 0.93159 0.49007 0.19927 0.0
H1046 H 0.01234 0.56046 0.1442 0.0
H1047 H 0.98385 0.51625 0.15933 0.0
C1048 C 0.90824 0.52969 0.46553 0.0
C1049 C 0.93601 0.5542 0.47095 0.0
C1050 C 0.88153 0.54364 0.45681 0.0
C1051 C 0.87153 0.61823 0.43303 0.0
H1052 H 0.76438 0.58906 0.43296 0.0
C1053 C 0.76021 0.67914 0.39754 0.0
C1054 C 0.73097 0.65435 0.39326 0.0
C1055 C 0.78637 0.66728 0.40682 0.0
C1056 C 0.79436 0.59703 0.43274 0.0
H1057 H 0.95694 0.61269 0.47185 0.0
H1058 H 0.91001 0.63715 0.45663 0.0
H1059 H 0.80581 0.5689 0.45043 0.0
H1060 H 0.70783 0.59687 0.39466 0.0
H1061 H 0.75403 0.57587 0.41053 0.0
H1062 H 0.86033 0.64577 0.41522 0.0
C1063 C 0.90908 0.60714 0.4591 0.0
C1064 C 0.81797 0.58565 0.44279 0.0
C1065 C 0.93559 0.59325 0.46791 0.0
C1066 C 0.72975 0.61681 0.39789 0.0
C1067 C 0.75603 0.60488 0.40706 0.0
C1068 C 0.84796 0.62941 0.42292 0.0
C1069 C 0.88234 0.58229 0.45327 0.0
C1070 C 0.85679 0.59601 0.443 0.0
C1071 C 0.78392 0.63031 0.41192 0.0
C1072 C 0.80916 0.61872 0.42263 0.0
H1073 H 0.90791 0.49949 0.46777 0.0
H1074 H 0.86132 0.52382 0.45241 0.0
H1075 H 0.90154 0.62612 0.43286 0.0
H1076 H 0.76178 0.70831 0.3942 0.0
H1077 H 0.80741 0.68763 0.4104 0.0
C1078 C 0.74942 0.58505 0.7114 0.0
C1079 C 0.73426 0.60348 0.72236 0.0
C1080 C 0.73438 0.55022 0.70699 0.0
C1081 C 0.64757 0.49096 0.70751 0.0
H1082 H 0.71636 0.41566 0.69235 0.0
C1083 C 0.60428 0.3884 0.6667 0.0
C1084 C 0.6244 0.3539 0.6647 0.0
C1085 C 0.61278 0.41232 0.67719 0.0
C1086 C 0.6966 0.43579 0.69678 0.0
H1087 H 0.69141 0.59961 0.73734 0.0
H1088 H 0.66487 0.53856 0.72956 0.0
H1089 H 0.74253 0.47043 0.70404 0.0
H1090 H 0.6663 0.31555 0.67294 0.0
H1091 H 0.6808 0.35717 0.69138 0.0
H1092 H 0.6016 0.45645 0.70009 0.0
C1093 C 0.68834 0.55132 0.72436 0.0
C1094 C 0.7117 0.4676 0.70333 0.0
C1095 C 0.70346 0.5863 0.72878 0.0
C1096 C 0.65062 0.34216 0.67409 0.0
C1097 C 0.65911 0.36614 0.68462 0.0
C1098 C 0.63241 0.45899 0.70099 0.0
C1099 C 0.70376 0.53283 0.71343 0.0
C1100 C 0.68743 0.49626 0.70835 0.0
C1101 C 0.64157 0.40232 0.68596 0.0
C1102 C 0.6568 0.43172 0.69515 0.0
H1103 H 0.77262 0.59787 0.70607 0.0
H1104 H 0.74631 0.53729 0.69836 0.0
H1105 H 0.62807 0.51249 0.71128 0.0
H1106 H 0.58358 0.39824 0.65974 0.0
H1107 H 0.59872 0.43994 0.67783 0.0
C1108 C 0.75505 0.56214 0.01861 0.0
C1109 C 0.71923 0.57013 0.02413 0.0
C1110 C 0.78847 0.57769 0.024 0.0
C1111 C 0.82205 0.65115 0.04827 0.0
H1112 H 0.91456 0.58989 0.04762 0.0
C1113 C 0.9515 0.69928 0.07824 0.0
C1114 C 0.97091 0.67022 0.08473 0.0
C1115 C 0.92662 0.69019 0.06811 0.0
C1116 C 0.88895 0.60733 0.04801 0.0
H1117 H 0.68994 0.59986 0.03963 0.0
H1118 H 0.74801 0.62525 0.0495 0.0
H1119 H 0.85833 0.56742 0.0361 0.0
H1120 H 0.98119 0.60909 0.08531 0.0
H1121 H 0.93663 0.5929 0.06822 0.0
H1122 H 0.85132 0.68934 0.06107 0.0
C1123 C 0.75067 0.6085 0.0407 0.0
C1124 C 0.85668 0.59469 0.04118 0.0
C1125 C 0.71729 0.59367 0.03514 0.0
C1126 C 0.96681 0.63214 0.08041 0.0
C1127 C 0.9412 0.62291 0.07052 0.0
C1128 C 0.85395 0.6633 0.05534 0.0
C1129 C 0.78682 0.60087 0.0352 0.0
C1130 C 0.82245 0.61602 0.04143 0.0
C1131 C 0.91971 0.65168 0.06449 0.0
C1132 C 0.88768 0.6412 0.05555 0.0
H1133 H 0.7571 0.54424 0.01003 0.0
H1134 H 0.81552 0.57163 0.01932 0.0
H1135 H 0.79675 0.66907 0.04843 0.0
H1136 H 0.95454 0.72893 0.08128 0.0
H1137 H 0.91177 0.71336 0.06345 0.0
C1138 C 0.7141 0.39019 0.28697 0.0
C1139 C 0.7373 0.38823 0.27601 0.0
C1140 C 0.70138 0.42563 0.29172 0.0
C1141 C 0.727 0.5235 0.29581 0.0
H1142 H 0.61852 0.54209 0.30092 0.0
C1143 C 0.67495 0.65187 0.32683 0.0
C1144 C 0.647 0.64176 0.33587 0.0
C1145 C 0.68328 0.6272 0.31642 0.0
C1146 C 0.64894 0.5374 0.2996 0.0
H1147 H 0.76596 0.4212 0.26145 0.0
H1148 H 0.74482 0.48371 0.27013 0.0
H1149 H 0.63944 0.48471 0.28917 0.0
H1150 H 0.6048 0.59856 0.34065 0.0
H1151 H 0.61919 0.55626 0.32289 0.0
H1152 H 0.73688 0.57438 0.30706 0.0
C1153 C 0.73597 0.45776 0.27485 0.0
C1154 C 0.6608 0.50465 0.29282 0.0
C1155 C 0.74794 0.4222 0.26991 0.0
C1156 C 0.62625 0.60765 0.33386 0.0
C1157 C 0.63445 0.58324 0.32355 0.0
C1158 C 0.71518 0.55593 0.30283 0.0
C1159 C 0.71238 0.45966 0.28574 0.0
C1160 C 0.69991 0.49694 0.29119 0.0
C1161 C 0.66374 0.59207 0.31485 0.0
C1162 C 0.676 0.56257 0.30519 0.0
H1163 H 0.70553 0.36428 0.29178 0.0
H1164 H 0.68344 0.42655 0.3002 0.0
H1165 H 0.75735 0.51798 0.29465 0.0
H1166 H 0.69139 0.67799 0.32807 0.0
H1167 H 0.70571 0.63514 0.3098 0.0
C1168 C 0.9754 0.43608 0.55622 0.0
C1169 C 0.96343 0.45216 0.54464 0.0
C1170 C 0.94847 0.42344 0.56509 0.0
C1171 C 0.84591 0.39644 0.5674 0.0
H1172 H 0.86332 0.40786 0.60408 0.0
C1173 C 0.72598 0.38353 0.60407 0.0
C1174 C 0.73029 0.35318 0.61266 0.0
C1175 C 0.75687 0.3959 0.59681 0.0
C1176 C 0.85841 0.40432 0.59386 0.0
H1177 H 0.91439 0.4688 0.53331 0.0
H1178 H 0.8672 0.44821 0.54896 0.0
H1179 H 0.9122 0.4296 0.58902 0.0
H1180 H 0.77114 0.31373 0.62096 0.0
H1181 H 0.8257 0.33633 0.60832 0.0
H1182 H 0.79146 0.37266 0.5723 0.0
C1183 C 0.89727 0.44403 0.55108 0.0
C1184 C 0.88632 0.41657 0.58523 0.0
C1185 C 0.9242 0.45607 0.54213 0.0
C1186 C 0.76685 0.33704 0.61438 0.0
C1187 C 0.79803 0.34993 0.60721 0.0
C1188 C 0.81789 0.38487 0.57601 0.0
C1189 C 0.90905 0.42713 0.56261 0.0
C1190 C 0.8802 0.4131 0.57188 0.0
C1191 C 0.79285 0.37868 0.59813 0.0
C1192 C 0.8238 0.38903 0.58927 0.0
H1193 H 0.00561 0.43248 0.55828 0.0
H1194 H 0.9586 0.41008 0.57376 0.0
H1195 H 0.8406 0.39229 0.55723 0.0
H1196 H 0.69834 0.39678 0.60251 0.0
H1197 H 0.75246 0.41835 0.58991 0.0
C1198 C 0.90109 0.63055 0.79137 0.0
C1199 C 0.8689 0.6247 0.78346 0.0
C1200 C 0.91047 0.60417 0.80077 0.0
C1201 C 0.89598 0.50374 0.80956 0.0
H1202 H 0.93169 0.53896 0.84303 0.0
C1203 C 0.92784 0.39758 0.84936 0.0
C1204 C 0.96333 0.40228 0.85559 0.0
C1205 C 0.91306 0.42653 0.84176 0.0
C1206 C 0.92193 0.52875 0.8337 0.0
H1207 H 0.82149 0.58644 0.77912 0.0
H1208 H 0.83755 0.54058 0.79569 0.0
H1209 H 0.91242 0.58565 0.82706 0.0
H1210 H 0.01007 0.442 0.8593 0.0
H1211 H 0.9843 0.49249 0.8459 0.0
H1212 H 0.90583 0.44694 0.8161 0.0
C1213 C 0.85571 0.56544 0.79453 0.0
C1214 C 0.91098 0.55543 0.82456 0.0
C1215 C 0.84633 0.59184 0.78512 0.0
C1216 C 0.98268 0.43743 0.85462 0.0
C1217 C 0.96787 0.46642 0.84697 0.0
C1218 C 0.90685 0.47712 0.81869 0.0
C1219 C 0.88785 0.57138 0.80247 0.0
C1220 C 0.89815 0.54318 0.81236 0.0
C1221 C 0.93343 0.4608 0.84019 0.0
C1222 C 0.92012 0.48933 0.83083 0.0
H1223 H 0.91875 0.65587 0.79044 0.0
H1224 H 0.93569 0.6093 0.80662 0.0
H1225 H 0.88682 0.49342 0.80018 0.0
H1226 H 0.9119 0.37106 0.85003 0.0
H1227 H 0.88605 0.42172 0.83685 0.0
C1228 C 0.33419 0.52191 0.02721 0.0
C1229 C 0.36487 0.54816 0.02699 0.0
C1230 C 0.30038 0.53086 0.03379 0.0
C1231 C 0.24329 0.61036 0.04716 0.0
H1232 H 0.21679 0.54098 0.07444 0.0
C1233 C 0.13244 0.65216 0.08562 0.0
C1234 C 0.1505 0.65367 0.09768 0.0
C1235 C 0.14925 0.63162 0.07542 0.0
C1236 C 0.22338 0.56024 0.06671 0.0
H1237 H 0.38323 0.60489 0.03333 0.0
H1238 H 0.32386 0.62078 0.0444 0.0
H1239 H 0.26524 0.52205 0.05859 0.0
H1240 H 0.19792 0.63241 0.10892 0.0
H1241 H 0.22654 0.59568 0.09128 0.0
H1242 H 0.20273 0.64925 0.05561 0.0
C1243 C 0.32614 0.59329 0.03946 0.0
C1244 C 0.25097 0.54942 0.05764 0.0
C1245 C 0.36016 0.58415 0.03308 0.0
C1246 C 0.18357 0.63173 0.09969 0.0
C1247 C 0.19981 0.61058 0.08962 0.0
C1248 C 0.21529 0.62093 0.05611 0.0
C1249 C 0.29621 0.5665 0.04006 0.0
C1250 C 0.26217 0.57499 0.04808 0.0
C1251 C 0.18371 0.61159 0.07727 0.0
C1252 C 0.20612 0.59655 0.06624 0.0
H1253 H 0.33634 0.49427 0.02239 0.0
H1254 H 0.27758 0.50983 0.03406 0.0
H1255 H 0.25131 0.63045 0.03982 0.0
H1256 H 0.107 0.66905 0.08384 0.0
H1257 H 0.13632 0.63276 0.06598 0.0
C1258 C 0.28991 0.51469 0.78004 0.0
C1259 C 0.29067 0.55108 0.78607 0.0
C1260 C 0.28358 0.4818 0.78719 0.0
C1261 C 0.23788 0.42565 0.80309 0.0
H1262 H 0.27264 0.41631 0.83825 0.0
C1263 C 0.16955 0.37423 0.85215 0.0
C1264 C 0.15414 0.3383 0.84875 0.0
C1265 C 0.19662 0.39157 0.84438 0.0
C1266 C 0.26299 0.41829 0.8284 0.0
H1267 H 0.2866 0.58128 0.80438 0.0
H1268 H 0.27546 0.5241 0.81684 0.0
H1269 H 0.30193 0.46397 0.82448 0.0
H1270 H 0.15638 0.29133 0.83488 0.0
H1271 H 0.20353 0.32236 0.82097 0.0
H1272 H 0.19767 0.38125 0.80721 0.0
C1273 C 0.28031 0.52083 0.80661 0.0
C1274 C 0.27963 0.44565 0.82054 0.0
C1275 C 0.2866 0.55368 0.79946 0.0
C1276 C 0.1677 0.31915 0.83768 0.0
C1277 C 0.19455 0.33688 0.82974 0.0
C1278 C 0.22128 0.39823 0.81095 0.0
C1279 C 0.27798 0.48459 0.80053 0.0
C1280 C 0.26613 0.45071 0.80797 0.0
C1281 C 0.20873 0.37358 0.83293 0.0
C1282 C 0.23255 0.39544 0.82385 0.0
H1283 H 0.29371 0.51169 0.76975 0.0
H1284 H 0.28241 0.45424 0.78226 0.0
H1285 H 0.22664 0.42895 0.79348 0.0
H1286 H 0.16002 0.38946 0.86072 0.0
H1287 H 0.20659 0.42003 0.84702 0.0
C1288 C 0.29613 0.40058 0.52626 0.0
C1289 C 0.29325 0.44 0.52401 0.0
C1290 C 0.32644 0.38633 0.53349 0.0
C1291 C 0.39426 0.41941 0.55838 0.0
H1292 H 0.43821 0.31811 0.55353 0.0
C1293 C 0.51752 0.3646 0.58955 0.0
C1294 C 0.51277 0.3279 0.59469 0.0
C1295 C 0.49288 0.37764 0.58006 0.0
C1296 C 0.42599 0.34639 0.55499 0.0
H1297 H 0.32075 0.49514 0.52672 0.0
H1298 H 0.37457 0.4702 0.539 0.0
H1299 H 0.39325 0.34259 0.53764 0.0
H1300 H 0.47822 0.27658 0.59401 0.0
H1301 H 0.4349 0.29936 0.57728 0.0
H1302 H 0.42713 0.42326 0.57568 0.0
C1303 C 0.35283 0.45039 0.53555 0.0
C1304 C 0.40027 0.36041 0.54593 0.0
C1305 C 0.32224 0.46467 0.52847 0.0
C1306 C 0.48292 0.30454 0.59007 0.0
C1307 C 0.45825 0.31756 0.58052 0.0
C1308 C 0.4202 0.40558 0.56734 0.0
C1309 C 0.35462 0.41124 0.5385 0.0
C1310 C 0.38392 0.39701 0.54757 0.0
C1311 C 0.46298 0.35429 0.57548 0.0
C1312 C 0.4361 0.36889 0.56577 0.0
H1313 H 0.27385 0.38107 0.52301 0.0
H1314 H 0.32665 0.35613 0.53569 0.0
H1315 H 0.38154 0.44731 0.56014 0.0
H1316 H 0.54039 0.38337 0.59281 0.0
H1317 H 0.4973 0.40599 0.57625 0.0
C1318 C 0.41772 0.47003 0.27193 0.0
C1319 C 0.41506 0.43225 0.27618 0.0
C1320 C 0.43564 0.49805 0.27957 0.0
C1321 C 0.4619 0.51709 0.31354 0.0
H1322 H 0.5136 0.60504 0.29933 0.0
C1323 C 0.52954 0.63679 0.34509 0.0
C1324 C 0.51598 0.67346 0.34222 0.0
C1325 C 0.52243 0.60597 0.33668 0.0
C1326 C 0.4993 0.58052 0.30339 0.0
H1327 H 0.4307 0.39327 0.29124 0.0
H1328 H 0.46334 0.44168 0.30438 0.0
H1329 H 0.49282 0.5527 0.28505 0.0
H1330 H 0.48516 0.70731 0.32839 0.0
H1331 H 0.47351 0.6535 0.31348 0.0
H1332 H 0.46865 0.54497 0.33186 0.0
C1333 C 0.45046 0.45024 0.29542 0.0
C1334 C 0.48719 0.55067 0.29524 0.0
C1335 C 0.43198 0.42246 0.28789 0.0
C1336 C 0.49587 0.67916 0.33075 0.0
C1337 C 0.4895 0.64856 0.32222 0.0
C1338 C 0.47451 0.54663 0.32168 0.0
C1339 C 0.45174 0.4886 0.29151 0.0
C1340 C 0.46771 0.51889 0.30019 0.0
C1341 C 0.50239 0.61165 0.32518 0.0
C1342 C 0.49268 0.57887 0.31665 0.0
H1343 H 0.40469 0.47813 0.26293 0.0
H1344 H 0.43558 0.52734 0.27632 0.0
H1345 H 0.44636 0.49353 0.3177 0.0
H1346 H 0.54459 0.63177 0.354 0.0
H1347 H 0.53247 0.57769 0.33918 0.0
C1348 C 0.35785 0.45654 0.95571 0.0
C1349 C 0.36546 0.44182 0.9679 0.0
C1350 C 0.32394 0.44726 0.94927 0.0
C1351 C 0.24817 0.37356 0.94802 0.0
H1352 H 0.20363 0.44394 0.92377 0.0
C1353 C 0.13288 0.32437 0.91178 0.0
C1354 C 0.14696 0.32858 0.89928 0.0
C1355 C 0.14987 0.3446 0.92204 0.0
C1356 C 0.21544 0.42418 0.93063 0.0
H1357 H 0.34309 0.40668 0.98309 0.0
H1358 H 0.28331 0.39084 0.97194 0.0
H1359 H 0.25284 0.46669 0.93873 0.0
H1360 H 0.18715 0.35911 0.8874 0.0
H1361 H 0.21588 0.39533 0.90517 0.0
H1362 H 0.21122 0.3309 0.93967 0.0
C1363 C 0.30392 0.40901 0.96723 0.0
C1364 C 0.24387 0.43703 0.93912 0.0
C1365 C 0.33813 0.41805 0.97363 0.0
C1366 C 0.17588 0.35549 0.89699 0.0
C1367 C 0.19218 0.37629 0.90715 0.0
C1368 C 0.21936 0.36086 0.93964 0.0
C1369 C 0.29652 0.42328 0.95492 0.0
C1370 C 0.26173 0.41148 0.94755 0.0
C1371 C 0.18041 0.36993 0.91982 0.0
C1372 C 0.20378 0.38569 0.93055 0.0
H1373 H 0.37863 0.47452 0.95098 0.0
H1374 H 0.31983 0.45804 0.93969 0.0
H1375 H 0.26136 0.35295 0.95428 0.0
H1376 H 0.11077 0.30348 0.91373 0.0
H1377 H 0.14033 0.33926 0.93173 0.0
C1378 C 0.41241 0.53731 0.71848 0.0
C1379 C 0.37266 0.54379 0.71869 0.0
C1380 C 0.42777 0.50717 0.71114 0.0
C1381 C 0.40144 0.41785 0.69313 0.0
H1382 H 0.49331 0.44036 0.67374 0.0
C1383 C 0.44975 0.32819 0.6491 0.0
C1384 C 0.48862 0.31769 0.64863 0.0
C1385 C 0.43673 0.35453 0.65834 0.0
C1386 C 0.46784 0.43359 0.67919 0.0
H1387 H 0.31777 0.52241 0.71189 0.0
H1388 H 0.34455 0.47093 0.69873 0.0
H1389 H 0.46855 0.48773 0.68907 0.0
H1390 H 0.54387 0.3258 0.65776 0.0
H1391 H 0.52133 0.3727 0.67367 0.0
H1392 H 0.4002 0.36417 0.68285 0.0
C1393 C 0.36393 0.48872 0.70435 0.0
C1394 C 0.45374 0.4606 0.68803 0.0
C1395 C 0.34856 0.51862 0.71177 0.0
C1396 C 0.51411 0.33419 0.6576 0.0
C1397 C 0.50116 0.3608 0.66676 0.0
C1398 C 0.41531 0.39106 0.68418 0.0
C1399 C 0.40377 0.483 0.70378 0.0
C1400 C 0.42016 0.4532 0.69503 0.0
C1401 C 0.46232 0.37104 0.66725 0.0
C1402 C 0.44844 0.39884 0.67706 0.0
H1403 H 0.43185 0.5563 0.72361 0.0
H1404 H 0.45854 0.50319 0.7111 0.0
H1405 H 0.37597 0.41088 0.69853 0.0
H1406 H 0.4293 0.31598 0.64235 0.0
H1407 H 0.40666 0.36224 0.65845 0.0
C1408 C 0.28197 0.54074 0.45039 0.0
C1409 C 0.26247 0.56414 0.45933 0.0
C1410 C 0.30978 0.5563 0.44241 0.0
C1411 C 0.37593 0.63743 0.44 0.0
H1412 H 0.3804 0.60662 0.40409 0.0
C1413 C 0.48448 0.70236 0.40463 0.0
C1414 C 0.50272 0.67612 0.39632 0.0
C1415 C 0.45345 0.6908 0.41209 0.0
C1416 C 0.37967 0.61528 0.41412 0.0
H1417 H 0.2562 0.62232 0.46674 0.0
H1418 H 0.30502 0.64939 0.45285 0.0
H1419 H 0.32936 0.58208 0.41762 0.0
H1420 H 0.50302 0.61729 0.38923 0.0
H1421 H 0.44917 0.59709 0.40227 0.0
H1422 H 0.42659 0.67016 0.43656 0.0
C1423 C 0.29911 0.61896 0.45214 0.0
C1424 C 0.35048 0.60123 0.42185 0.0
C1425 C 0.27124 0.60343 0.4601 0.0
C1426 C 0.48945 0.63817 0.39556 0.0
C1427 C 0.45839 0.62669 0.40294 0.0
C1428 C 0.4052 0.65143 0.43227 0.0
C1429 C 0.31865 0.59554 0.44323 0.0
C1430 C 0.34858 0.61183 0.4349 0.0
C1431 C 0.44004 0.65286 0.41128 0.0
C1432 C 0.40763 0.64011 0.41929 0.0
H1433 H 0.27617 0.51029 0.4497 0.0
H1434 H 0.32482 0.53747 0.43575 0.0
H1435 H 0.37536 0.64579 0.45006 0.0
H1436 H 0.49467 0.73155 0.40557 0.0
H1437 H 0.43988 0.71156 0.41845 0.0
C1438 C 0.30068 0.45705 0.19654 0.0
C1439 C 0.30708 0.4572 0.20987 0.0
C1440 C 0.29116 0.49084 0.19031 0.0
C1441 C 0.23919 0.5781 0.19693 0.0
H1442 H 0.26711 0.60176 0.16192 0.0
C1443 C 0.13514 0.63148 0.15942 0.0
C1444 C 0.14581 0.66128 0.15131 0.0
C1445 C 0.161 0.6172 0.1683 0.0
C1446 C 0.25963 0.59612 0.1718 0.0
H1447 H 0.31141 0.49367 0.22691 0.0
H1448 H 0.29364 0.55252 0.21605 0.0
H1449 H 0.30535 0.55568 0.17393 0.0
H1450 H 0.19145 0.70024 0.14624 0.0
H1451 H 0.23773 0.6739 0.16161 0.0
H1452 H 0.19194 0.61645 0.19448 0.0
C1453 C 0.29587 0.52611 0.21047 0.0
C1454 C 0.28126 0.56958 0.17862 0.0
C1455 C 0.30576 0.49236 0.21669 0.0
C1456 C 0.18257 0.67737 0.15246 0.0
C1457 C 0.20896 0.66232 0.16119 0.0
C1458 C 0.21735 0.60424 0.19007 0.0
C1459 C 0.28755 0.52549 0.19728 0.0
C1460 C 0.27036 0.55928 0.19107 0.0
C1461 C 0.19837 0.63188 0.16909 0.0
C1462 C 0.22656 0.61235 0.17729 0.0
H1463 H 0.30098 0.43052 0.19099 0.0
H1464 H 0.28435 0.48935 0.18017 0.0
H1465 H 0.22992 0.57055 0.20648 0.0
H1466 H 0.10688 0.61872 0.15873 0.0
H1467 H 0.1523 0.59339 0.17417 0.0
loop_
_geom_bond_atom_site_label_1
_geom_bond_atom_site_label_2
_geom_bond_distance
_geom_bond_site_symmetry_2
_ccdc_geom_bond_type
H0 C19 0.949 . S
H1 C20 0.950 . S
H2 C22 0.950 1_545 S
H3 C23 0.977 . S
H4 C25 0.950 . S
H5 C28 0.950 1_565 S
H6 C29 0.950 . S
H7 C31 0.951 . S
H8 C32 0.949 . S
H9 C34 0.949 . S
H10 C35 0.950 . S
H11 C37 0.950 1_565 S
H12 C38 0.947 . S
H13 C40 0.950 . S
H14 C43 0.950 1_545 S
H15 C44 0.953 . S
H16 C46 0.951 . S
H17 C47 0.949 . S
C18 C19 1.376 . S
C18 C23 1.368 1_565 S
C18 C24 1.483 . S
C19 H0 0.949 . S
C19 C18 1.376 . S
C19 C20 1.397 . S
C20 H1 0.950 . S
C20 C19 1.397 . S
C20 C21 1.391 . S
C21 C20 1.391 . S
C21 C22 1.405 . S
C22 H2 0.950 1_565 S
C22 C21 1.405 . S
C22 C23 1.359 1_565 S
C23 H3 0.977 . S
C23 C18 1.368 1_545 S
C23 C22 1.359 1_545 S
C24 C18 1.483 . S
C24 C25 1.382 1_655 S
C24 C26 1.403 1_565 S
C25 H4 0.950 . S
C25 C24 1.382 1_455 S
C25 C41 1.411 . S
C26 C24 1.403 1_545 S
C26 C27 1.489 . S
C26 C40 1.411 1_655 S
C27 C26 1.489 . S
C27 C28 1.383 . S
C27 C32 1.382 . S
C28 H5 0.950 1_545 S
C28 C27 1.383 . S
C28 C29 1.395 . S
C29 H6 0.950 . S
C29 C28 1.395 . S
C29 C30 1.288 . S
C30 C29 1.288 . S
C30 C31 1.392 . S
C31 H7 0.951 . S
C31 C30 1.392 . S
C31 C32 1.392 . S
C32 H8 0.949 . S
C32 C27 1.382 . S
C32 C31 1.392 . S
C33 C34 1.376 . S
C33 C38 1.388 1_545 S
C33 C39 1.483 . S
C34 H9 0.949 . S
C34 C33 1.376 . S
C34 C35 1.397 . S
C35 H10 0.950 . S
C35 C34 1.397 . S
C35 C36 1.391 . S
C36 C35 1.391 . S
C36 C37 1.405 . S
C37 H11 0.950 1_545 S
C37 C36 1.405 . S
C37 C38 1.368 1_545 S
C38 H12 0.947 . S
C38 C33 1.388 1_565 S
C38 C37 1.368 1_565 S
C39 C33 1.483 . S
C39 C40 1.382 . S
C39 C41 1.403 1_545 S
C40 H13 0.950 . S
C40 C26 1.411 1_455 S
C40 C39 1.382 . S
C41 C25 1.411 . S
C41 C39 1.403 1_565 S
C41 C42 1.489 . S
C42 C41 1.489 . S
C42 C43 1.383 . S
C42 C47 1.382 . S
C43 H14 0.950 1_565 S
C43 C42 1.383 . S
C43 C44 1.395 . S
C44 H15 0.953 . S
C44 C43 1.395 . S
C44 C45 1.288 . S
C45 C44 1.288 . S
C45 C46 1.392 . S
C46 H16 0.951 . S
C46 C45 1.392 . S
C46 C47 1.392 . S
C47 H17 0.949 . S
C47 C42 1.382 . S
C47 C46 1.392 . S
H48 C67 0.949 . S
H49 C68 0.950 . S
H50 C70 0.950 . S
H51 C71 0.950 . S
H52 C73 0.950 . S
H53 C76 0.950 . S
H54 C77 0.950 . S
H55 C79 0.951 . S
H56 C80 0.949 . S
H57 C82 0.949 . S
H58 C83 0.950 . S
H59 C85 0.950 . S
H60 C86 0.950 . S
H61 C88 0.950 . S
H62 C91 0.950 . S
H63 C92 0.950 . S
H64 C94 0.951 . S
H65 C95 0.949 . S
C66 C67 1.376 . S
C66 C71 1.386 . S
C66 C72 1.483 . S
C67 H48 0.949 . S
C67 C66 1.376 . S
C67 C68 1.397 . S
C68 H49 0.950 . S
C68 C67 1.397 . S
C68 C69 1.391 . S
C69 C68 1.391 . S
C69 C70 1.405 . S
C70 H50 0.950 . S
C70 C69 1.405 . S
C70 C71 1.367 . S
C71 H51 0.950 . S
C71 C66 1.386 . S
C71 C70 1.367 . S
C72 C66 1.483 . S
C72 C73 1.382 . S
C72 C74 1.403 . S
C73 H52 0.950 . S
C73 C72 1.382 . S
C73 C89 1.411 . S
C74 C72 1.403 . S
C74 C75 1.489 . S
C74 C88 1.411 . S
C75 C74 1.489 . S
C75 C76 1.383 . S
C75 C80 1.382 . S
C76 H53 0.950 . S
C76 C75 1.383 . S
C76 C77 1.395 . S
C77 H54 0.950 . S
C77 C76 1.395 . S
C77 C78 1.288 . S
C78 C77 1.288 . S
C78 C79 1.392 . S
C79 H55 0.951 . S
C79 C78 1.392 . S
C79 C80 1.392 . S
C80 H56 0.949 . S
C80 C75 1.382 . S
C80 C79 1.392 . S
C81 C82 1.376 . S
C81 C86 1.386 . S
C81 C87 1.483 . S
C82 H57 0.949 . S
C82 C81 1.376 . S
C82 C83 1.397 . S
C83 H58 0.950 . S
C83 C82 1.397 . S
C83 C84 1.391 . S
C84 C83 1.391 . S
C84 C85 1.405 . S
C85 H59 0.950 . S
C85 C84 1.405 . S
C85 C86 1.367 . S
C86 H60 0.950 . S
C86 C81 1.386 . S
C86 C85 1.367 . S
C87 C81 1.483 . S
C87 C88 1.382 . S
C87 C89 1.403 . S
C88 H61 0.950 . S
C88 C74 1.411 . S
C88 C87 1.382 . S
C89 C73 1.411 . S
C89 C87 1.403 . S
C89 C90 1.489 . S
C90 C89 1.489 . S
C90 C91 1.383 . S
C90 C95 1.382 . S
C91 H62 0.950 . S
C91 C90 1.383 . S
C91 C92 1.395 . S
C92 H63 0.950 . S
C92 C91 1.395 . S
C92 C93 1.288 . S
C93 C92 1.288 . S
C93 C94 1.392 . S
C94 H64 0.951 . S
C94 C93 1.392 . S
C94 C95 1.392 . S
C95 H65 0.949 . S
C95 C90 1.382 . S
C95 C94 1.392 . S
H96 C115 0.949 1_545 S
H97 C116 0.950 . S
H98 C118 0.950 . S
H99 C119 0.950 1_556 S
H100 C121 0.950 . S
H101 C124 0.950 1_554 S
H102 C125 0.950 . S
H103 C127 0.951 . S
H104 C128 0.949 1_565 S
H105 C130 0.949 1_565 S
H106 C131 0.950 . S
H107 C133 0.950 . S
H108 C134 0.950 1_554 S
H109 C136 0.950 . S
H110 C139 0.898 1_556 S
H111 C140 0.950 . S
H112 C142 0.951 . S
H113 C143 0.949 1_545 S
C114 C115 1.376 . S
C114 C119 1.386 . S
C114 C120 1.483 . S
C115 H96 0.949 1_565 S
C115 C114 1.376 . S
C115 C116 1.397 . S
C116 H97 0.950 . S
C116 C115 1.397 . S
C116 C117 1.391 . S
C117 C116 1.391 . S
C117 C118 1.405 . S
C118 H98 0.950 . S
C118 C117 1.405 . S
C118 C119 1.367 . S
C119 H99 0.950 1_554 S
C119 C114 1.386 . S
C119 C118 1.367 . S
C120 C114 1.483 . S
C120 C121 1.382 . S
C120 C122 1.403 1_564 S
C121 H100 0.950 . S
C121 C120 1.382 . S
C121 C137 1.411 . S
C122 C120 1.403 1_546 S
C122 C123 1.489 . S
C122 C136 1.411 . S
C123 C122 1.489 . S
C123 C124 1.383 . S
C123 C128 1.382 . S
C124 H101 0.950 1_556 S
C124 C123 1.383 . S
C124 C125 1.395 . S
C125 H102 0.950 . S
C125 C124 1.395 . S
C125 C126 1.288 . S
C126 C125 1.288 . S
C126 C127 1.392 . S
C127 H103 0.951 . S
C127 C126 1.392 . S
C127 C128 1.392 . S
C128 H104 0.949 1_545 S
C128 C123 1.382 . S
C128 C127 1.392 . S
C129 C130 1.376 . S
C129 C134 1.386 . S
C129 C135 1.483 . S
C130 H105 0.949 1_545 S
C130 C129 1.376 . S
C130 C131 1.397 . S
C131 H106 0.950 . S
C131 C130 1.397 . S
C131 C132 1.391 . S
C132 C131 1.391 . S
C132 C133 1.405 . S
C133 H107 0.950 . S
C133 C132 1.405 . S
C133 C134 1.367 . S
C134 H108 0.950 1_556 S
C134 C129 1.386 . S
C134 C133 1.367 . S
C135 C129 1.483 . S
C135 C136 1.382 . S
C135 C137 1.403 1_546 S
C136 H109 0.950 . S
C136 C122 1.411 . S
C136 C135 1.382 . S
C137 C121 1.411 . S
C137 C135 1.403 1_564 S
C137 C138 1.489 . S
C138 C137 1.489 . S
C138 C139 1.383 . S
C138 C143 1.382 . S
C139 H110 0.898 1_554 S
C139 C138 1.383 . S
C139 C140 1.395 . S
C140 H111 0.950 . S
C140 C139 1.395 . S
C140 C141 1.288 . S
C141 C140 1.288 . S
C141 C142 1.392 . S
C142 H112 0.951 . S
C142 C141 1.392 . S
C142 C143 1.392 . S
C143 H113 0.949 1_565 S
C143 C138 1.382 . S
C143 C142 1.392 . S
H144 C163 0.949 . S
H145 C164 0.950 . S
H146 C166 0.950 . S
H147 C167 0.950 . S
H148 C169 0.950 . S
H149 C172 0.950 . S
H150 C173 0.950 . S
H151 C175 0.951 . S
H152 C176 0.949 . S
H153 C178 0.949 . S
H154 C179 0.950 . S
H155 C181 0.950 . S
H156 C182 0.950 . S
H157 C184 0.950 . S
H158 C187 0.950 . S
H159 C188 0.950 . S
H160 C190 0.951 . S
H161 C191 0.949 . S
C162 C163 1.376 . S
C162 C167 1.386 . S
C162 C168 1.483 . S
C163 H144 0.949 . S
C163 C162 1.376 . S
C163 C164 1.397 . S
C164 H145 0.950 . S
C164 C163 1.397 . S
C164 C165 1.391 . S
C165 C164 1.391 . S
C165 C166 1.405 . S
C166 H146 0.950 . S
C166 C165 1.405 . S
C166 C167 1.367 . S
C167 H147 0.950 . S
C167 C162 1.386 . S
C167 C166 1.367 . S
C168 C162 1.483 . S
C168 C169 1.382 . S
C168 C170 1.403 . S
C169 H148 0.950 . S
C169 C168 1.382 . S
C169 C185 1.411 . S
C170 C168 1.403 . S
C170 C171 1.489 . S
C170 C184 1.411 . S
C171 C170 1.489 . S
C171 C172 1.383 . S
C171 C176 1.382 . S
C172 H149 0.950 . S
C172 C171 1.383 . S
C172 C173 1.395 . S
C173 H150 0.950 . S
C173 C172 1.395 . S
C173 C174 1.288 . S
C174 C173 1.288 . S
C174 C175 1.392 . S
C175 H151 0.951 . S
C175 C174 1.392 . S
C175 C176 1.392 . S
C176 H152 0.949 . S
C176 C171 1.382 . S
C176 C175 1.392 . S
C177 C178 1.376 . S
C177 C182 1.386 . S
C177 C183 1.483 . S
C178 H153 0.949 . S
C178 C177 1.376 . S
C178 C179 1.397 . S
C179 H154 0.950 . S
C179 C178 1.397 . S
C179 C180 1.391 . S
C180 C179 1.391 . S
C180 C181 1.405 . S
C181 H155 0.950 . S
C181 C180 1.405 . S
C181 C182 1.367 . S
C182 H156 0.950 . S
C182 C177 1.386 . S
C182 C181 1.367 . S
C183 C177 1.483 . S
C183 C184 1.382 . S
C183 C185 1.403 . S
C184 H157 0.950 . S
C184 C170 1.411 . S
C184 C183 1.382 . S
C185 C169 1.411 . S
C185 C183 1.403 . S
C185 C186 1.489 . S
C186 C185 1.489 . S
C186 C187 1.383 . S
C186 C191 1.382 . S
C187 H158 0.950 . S
C187 C186 1.383 . S
C187 C188 1.395 . S
C188 H159 0.950 . S
C188 C187 1.395 . S
C188 C189 1.288 . S
C189 C188 1.288 . S
C189 C190 1.392 . S
C190 H160 0.951 . S
C190 C189 1.392 . S
C190 C191 1.392 . S
C191 H161 0.949 . S
C191 C186 1.382 . S
C191 C190 1.392 . S
H192 C211 0.949 . S
H193 C212 0.950 . S
H194 C214 0.950 . S
H195 C215 0.950 . S
H196 C217 0.950 . S
H197 C220 0.950 . S
H198 C221 0.950 . S
H199 C223 0.951 . S
H200 C224 0.949 . S
H201 C226 0.949 . S
H202 C227 0.950 . S
H203 C229 0.950 . S
H204 C230 0.950 . S
H205 C232 0.950 . S
H206 C235 0.950 . S
H207 C236 0.950 . S
H208 C238 0.951 . S
H209 C239 0.949 . S
C210 C211 1.376 . S
C210 C215 1.386 . S
C210 C216 1.483 . S
C211 H192 0.949 . S
C211 C210 1.376 . S
C211 C212 1.397 . S
C212 H193 0.950 . S
C212 C211 1.397 . S
C212 C213 1.391 . S
C213 C212 1.391 . S
C213 C214 1.405 . S
C214 H194 0.950 . S
C214 C213 1.405 . S
C214 C215 1.367 . S
C215 H195 0.950 . S
C215 C210 1.386 . S
C215 C214 1.367 . S
C216 C210 1.483 . S
C216 C217 1.382 . S
C216 C218 1.403 . S
C217 H196 0.950 . S
C217 C216 1.382 . S
C217 C233 1.411 . S
C218 C216 1.403 . S
C218 C219 1.489 . S
C218 C232 1.411 . S
C219 C218 1.489 . S
C219 C220 1.383 . S
C219 C224 1.382 . S
C220 H197 0.950 . S
C220 C219 1.383 . S
C220 C221 1.395 . S
C221 H198 0.950 . S
C221 C220 1.395 . S
C221 C222 1.288 . S
C222 C221 1.288 . S
C222 C223 1.392 . S
C223 H199 0.951 . S
C223 C222 1.392 . S
C223 C224 1.392 . S
C224 H200 0.949 . S
C224 C219 1.382 . S
C224 C223 1.392 . S
C225 C226 1.376 . S
C225 C230 1.386 . S
C225 C231 1.483 . S
C226 H201 0.949 . S
C226 C225 1.376 . S
C226 C227 1.397 . S
C227 H202 0.950 . S
C227 C226 1.397 . S
C227 C228 1.391 . S
C228 C227 1.391 . S
C228 C229 1.405 . S
C229 H203 0.950 . S
C229 C228 1.405 . S
C229 C230 1.367 . S
C230 H204 0.950 . S
C230 C225 1.386 . S
C230 C229 1.367 . S
C231 C225 1.483 . S
C231 C232 1.382 . S
C231 C233 1.403 . S
C232 H205 0.950 . S
C232 C218 1.411 . S
C232 C231 1.382 . S
C233 C217 1.411 . S
C233 C231 1.403 . S
C233 C234 1.489 . S
C234 C233 1.489 . S
C234 C235 1.383 . S
C234 C239 1.382 . S
C235 H206 0.950 . S
C235 C234 1.383 . S
C235 C236 1.395 . S
C236 H207 0.950 . S
C236 C235 1.395 . S
C236 C237 1.288 . S
C237 C236 1.288 . S
C237 C238 1.392 . S
C238 H208 0.951 . S
C238 C237 1.392 . S
C238 C239 1.392 . S
C239 H209 0.949 . S
C239 C234 1.382 . S
C239 C238 1.392 . S
H240 C259 0.949 . S
H241 C260 0.950 . S
H242 C262 0.950 . S
H243 C263 0.950 . S
H244 C265 0.950 . S
H245 C268 0.950 . S
H246 C269 0.950 . S
H247 C271 0.951 . S
H248 C272 0.949 . S
H249 C274 0.949 . S
H250 C275 0.950 . S
H251 C277 0.950 . S
H252 C278 0.950 . S
H253 C280 0.950 . S
H254 C283 0.950 . S
H255 C284 0.950 . S
H256 C286 0.951 . S
H257 C287 0.949 . S
C258 C259 1.376 . S
C258 C263 1.386 . S
C258 C264 1.483 . S
C259 H240 0.949 . S
C259 C258 1.376 . S
C259 C260 1.397 . S
C260 H241 0.950 . S
C260 C259 1.397 . S
C260 C261 1.391 . S
C261 C260 1.391 . S
C261 C262 1.405 . S
C262 H242 0.950 . S
C262 C261 1.405 . S
C262 C263 1.367 . S
C263 H243 0.950 . S
C263 C258 1.386 . S
C263 C262 1.367 . S
C264 C258 1.483 . S
C264 C265 1.382 . S
C264 C266 1.403 . S
C265 H244 0.950 . S
C265 C264 1.382 . S
C265 C281 1.411 . S
C266 C264 1.403 . S
C266 C267 1.489 . S
C266 C280 1.411 . S
C267 C266 1.489 . S
C267 C268 1.383 . S
C267 C272 1.382 . S
C268 H245 0.950 . S
C268 C267 1.383 . S
C268 C269 1.395 . S
C269 H246 0.950 . S
C269 C268 1.395 . S
C269 C270 1.288 . S
C270 C269 1.288 . S
C270 C271 1.392 . S
C271 H247 0.951 . S
C271 C270 1.392 . S
C271 C272 1.392 . S
C272 H248 0.949 . S
C272 C267 1.382 . S
C272 C271 1.392 . S
C273 C274 1.376 . S
C273 C278 1.386 . S
C273 C279 1.483 . S
C274 H249 0.949 . S
C274 C273 1.376 . S
C274 C275 1.397 . S
C275 H250 0.950 . S
C275 C274 1.397 . S
C275 C276 1.391 . S
C276 C275 1.391 . S
C276 C277 1.405 . S
C277 H251 0.950 . S
C277 C276 1.405 . S
C277 C278 1.367 . S
C278 H252 0.950 . S
C278 C273 1.386 . S
C278 C277 1.367 . S
C279 C273 1.483 . S
C279 C280 1.382 . S
C279 C281 1.403 . S
C280 H253 0.950 . S
C280 C266 1.411 . S
C280 C279 1.382 . S
C281 C265 1.411 . S
C281 C279 1.403 . S
C281 C282 1.489 . S
C282 C281 1.489 . S
C282 C283 1.383 . S
C282 C287 1.382 . S
C283 H254 0.950 . S
C283 C282 1.383 . S
C283 C284 1.395 . S
C284 H255 0.950 . S
C284 C283 1.395 . S
C284 C285 1.288 . S
C285 C284 1.288 . S
C285 C286 1.392 . S
C286 H256 0.951 . S
C286 C285 1.392 . S
C286 C287 1.392 . S
C287 H257 0.949 . S
C287 C282 1.382 . S
C287 C286 1.392 . S
H288 C307 0.949 . S
H289 C308 0.950 . S
H290 C310 0.950 . S
H291 C311 0.950 . S
H292 C313 0.950 . S
H293 C316 0.950 . S
H294 C317 0.950 . S
H295 C319 0.951 . S
H296 C320 0.949 . S
H297 C322 0.949 . S
H298 C323 0.950 . S
H299 C325 0.950 . S
H300 C326 0.950 . S
H301 C328 0.950 . S
H302 C331 0.950 . S
H303 C332 0.950 . S
H304 C334 0.951 . S
H305 C335 0.949 . S
C306 C307 1.376 . S
C306 C311 1.386 . S
C306 C312 1.483 . S
C307 H288 0.949 . S
C307 C306 1.376 . S
C307 C308 1.397 . S
C308 H289 0.950 . S
C308 C307 1.397 . S
C308 C309 1.391 . S
C309 C308 1.391 . S
C309 C310 1.405 . S
C310 H290 0.950 . S
C310 C309 1.405 . S
C310 C311 1.367 . S
C311 H291 0.950 . S
C311 C306 1.386 . S
C311 C310 1.367 . S
C312 C306 1.483 . S
C312 C313 1.382 . S
C312 C314 1.403 1_556 S
C313 H292 0.950 . S
C313 C312 1.382 . S
C313 C329 1.411 . S
C314 C312 1.403 1_554 S
C314 C315 1.489 . S
C314 C328 1.411 . S
C315 C314 1.489 . S
C315 C316 1.383 . S
C315 C320 1.382 . S
C316 H293 0.950 . S
C316 C315 1.383 . S
C316 C317 1.395 . S
C317 H294 0.950 . S
C317 C316 1.395 . S
C317 C318 1.288 . S
C318 C317 1.288 . S
C318 C319 1.392 . S
C319 H295 0.951 . S
C319 C318 1.392 . S
C319 C320 1.392 . S
C320 H296 0.949 . S
C320 C315 1.382 . S
C320 C319 1.392 . S
C321 C322 1.376 . S
C321 C326 1.386 . S
C321 C327 1.483 . S
C322 H297 0.949 . S
C322 C321 1.376 . S
C322 C323 1.397 . S
C323 H298 0.950 . S
C323 C322 1.397 . S
C323 C324 1.391 . S
C324 C323 1.391 . S
C324 C325 1.405 . S
C325 H299 0.950 . S
C325 C324 1.405 . S
C325 C326 1.367 . S
C326 H300 0.950 . S
C326 C321 1.386 . S
C326 C325 1.367 . S
C327 C321 1.483 . S
C327 C328 1.382 . S
C327 C329 1.403 1_554 S
C328 H301 0.950 . S
C328 C314 1.411 . S
C328 C327 1.382 . S
C329 C313 1.411 . S
C329 C327 1.403 1_556 S
C329 C330 1.489 . S
C330 C329 1.489 . S
C330 C331 1.383 . S
C330 C335 1.382 . S
C331 H302 0.950 . S
C331 C330 1.383 . S
C331 C332 1.395 . S
C332 H303 0.950 . S
C332 C331 1.395 . S
C332 C333 1.288 . S
C333 C332 1.288 . S
C333 C334 1.392 . S
C334 H304 0.951 . S
C334 C333 1.392 . S
C334 C335 1.392 . S
C335 H305 0.949 . S
C335 C330 1.382 . S
C335 C334 1.392 . S
H336 C355 0.949 . S
H337 C356 0.950 . S
H338 C358 0.950 1_655 S
H339 C359 0.950 . S
H340 C361 0.950 . S
H341 C364 0.950 . S
H342 C365 0.950 1_655 S
H343 C367 0.951 . S
H344 C368 0.949 . S
H345 C370 0.949 . S
H346 C371 0.950 . S
H347 C373 0.950 . S
H348 C374 0.950 . S
H349 C376 0.950 . S
H350 C379 0.950 . S
H351 C380 0.950 . S
H352 C382 0.951 . S
H353 C383 0.949 . S
C354 C355 1.376 . S
C354 C359 1.386 . S
C354 C360 1.483 . S
C355 H336 0.949 . S
C355 C354 1.376 . S
C355 C356 1.397 . S
C356 H337 0.950 . S
C356 C355 1.397 . S
C356 C357 1.391 . S
C357 C356 1.391 . S
C357 C358 1.405 . S
C358 H338 0.950 1_455 S
C358 C357 1.405 . S
C358 C359 1.367 . S
C359 H339 0.950 . S
C359 C354 1.386 . S
C359 C358 1.367 . S
C360 C354 1.483 . S
C360 C361 1.382 . S
C360 C362 1.403 . S
C361 H340 0.950 . S
C361 C360 1.382 . S
C361 C377 1.411 . S
C362 C360 1.403 . S
C362 C363 1.489 . S
C362 C376 1.411 . S
C363 C362 1.489 . S
C363 C364 1.383 . S
C363 C368 1.382 . S
C364 H341 0.950 . S
C364 C363 1.383 . S
C364 C365 1.395 . S
C365 H342 0.950 1_455 S
C365 C364 1.395 . S
C365 C366 1.288 . S
C366 C365 1.288 . S
C366 C367 1.392 . S
C367 H343 0.951 . S
C367 C366 1.392 . S
C367 C368 1.392 . S
C368 H344 0.949 . S
C368 C363 1.382 . S
C368 C367 1.392 . S
C369 C370 1.376 . S
C369 C374 1.386 . S
C369 C375 1.483 . S
C370 H345 0.949 . S
C370 C369 1.376 . S
C370 C371 1.397 . S
C371 H346 0.950 . S
C371 C370 1.397 . S
C371 C372 1.391 . S
C372 C371 1.391 . S
C372 C373 1.405 . S
C373 H347 0.950 . S
C373 C372 1.405 . S
C373 C374 1.367 . S
C374 H348 0.950 . S
C374 C369 1.386 . S
C374 C373 1.367 . S
C375 C369 1.483 . S
C375 C376 1.382 . S
C375 C377 1.403 . S
C376 H349 0.950 . S
C376 C362 1.411 . S
C376 C375 1.382 . S
C377 C361 1.411 . S
C377 C375 1.403 . S
C377 C378 1.489 . S
C378 C377 1.489 . S
C378 C379 1.383 . S
C378 C383 1.382 . S
C379 H350 0.950 . S
C379 C378 1.383 . S
C379 C380 1.395 . S
C380 H351 0.950 . S
C380 C379 1.395 . S
C380 C381 1.288 . S
C381 C380 1.288 . S
C381 C382 1.392 . S
C382 H352 0.951 . S
C382 C381 1.392 . S
C382 C383 1.392 . S
C383 H353 0.949 . S
C383 C378 1.382 . S
C383 C382 1.392 . S
C384 O411 1.312 . S
C384 O412 1.208 . S
C385 O406 1.331 1_655 S
C385 O409 1.244 . S
C386 O408 1.264 1_655 S
C386 O410 1.273 . S
Mg387 O389 1.936 . S
Mg387 O396 2.081 . S
Mg387 O398 2.023 . S
Mg387 O402 2.031 . S
Mg387 O411 2.291 . S
Mg388 O389 1.963 . S
Mg388 O399 1.942 . S
Mg388 O400 1.955 . S
Mg388 O407 1.986 . S
O389 Mg387 1.936 . S
O389 Mg388 1.963 . S
O389 Mg390 1.915 . S
Mg390 O389 1.915 . S
Mg390 O391 1.915 . S
Mg390 O395 2.013 . S
Mg390 O401 2.114 . S
Mg390 O405 2.013 . S
Mg390 O411 2.114 . S
O391 Mg390 1.915 . S
O391 Mg392 1.936 . S
O391 Mg393 1.963 1_455 S
Mg392 O391 1.936 . S
Mg392 O401 2.291 . S
Mg392 O406 2.081 . S
Mg392 O408 2.023 . S
Mg392 O412 2.031 . S
Mg393 O391 1.963 1_655 S
Mg393 O397 1.986 . S
Mg393 O409 1.942 . S
Mg393 O410 1.955 . S
C394 O405 1.191 . S
C394 O407 1.307 . S
O395 Mg390 2.013 . S
O395 C414 1.191 . S
O396 Mg387 2.081 . S
O396 C404 1.331 . S
O397 Mg393 1.986 . S
O397 C414 1.307 1_655 S
O398 Mg387 2.023 . S
O398 C413 1.264 . S
O399 Mg388 1.942 . S
O399 C404 1.244 . S
O400 Mg388 1.955 . S
O400 C413 1.273 . S
O401 Mg390 2.114 . S
O401 Mg392 2.291 . S
O401 C403 1.312 . S
O402 Mg387 2.031 . S
O402 C403 1.208 . S
C403 O401 1.312 . S
C403 O402 1.208 . S
C404 O396 1.331 . S
C404 O399 1.244 . S
O405 Mg390 2.013 . S
O405 C394 1.191 . S
O406 C385 1.331 1_455 S
O406 Mg392 2.081 . S
O407 Mg388 1.986 . S
O407 C394 1.307 . S
O408 C386 1.264 1_455 S
O408 Mg392 2.023 . S
O409 C385 1.244 . S
O409 Mg393 1.942 . S
O410 C386 1.273 . S
O410 Mg393 1.955 . S
O411 C384 1.312 . S
O411 Mg387 2.291 . S
O411 Mg390 2.114 . S
O412 C384 1.208 . S
O412 Mg392 2.031 . S
C413 O398 1.264 . S
C413 O400 1.273 . S
C414 O395 1.191 . S
C414 O397 1.307 1_455 S
C415 O442 1.312 . S
C415 O443 1.208 . S
C416 O437 1.331 . S
C416 O440 1.244 . S
C417 O439 1.264 . S
C417 O441 1.273 . S
Mg418 O420 1.936 . S
Mg418 O427 2.081 . S
Mg418 O429 2.023 . S
Mg418 O433 2.031 . S
Mg418 O442 2.291 . S
Mg419 O420 1.963 . S
Mg419 O430 1.942 . S
Mg419 O431 1.955 . S
Mg419 O438 1.986 . S
O420 Mg418 1.936 . S
O420 Mg419 1.963 . S
O420 Mg421 1.915 . S
Mg421 O420 1.915 . S
Mg421 O422 1.915 . S
Mg421 O426 2.013 . S
Mg421 O432 2.114 . S
Mg421 O436 2.013 . S
Mg421 O442 2.114 . S
O422 Mg421 1.915 . S
O422 Mg423 1.936 . S
O422 Mg424 1.963 . S
Mg423 O422 1.936 . S
Mg423 O432 2.291 . S
Mg423 O437 2.081 . S
Mg423 O439 2.023 . S
Mg423 O443 2.031 . S
Mg424 O422 1.963 . S
Mg424 O428 1.986 . S
Mg424 O440 1.942 . S
Mg424 O441 1.955 . S
C425 O436 1.191 . S
C425 O438 1.307 . S
O426 Mg421 2.013 . S
O426 C445 1.191 . S
O427 Mg418 2.081 . S
O427 C435 1.331 . S
O428 Mg424 1.986 . S
O428 C445 1.307 . S
O429 Mg418 2.023 . S
O429 C444 1.264 . S
O430 Mg419 1.942 . S
O430 C435 1.244 . S
O431 Mg419 1.955 . S
O431 C444 1.273 . S
O432 Mg421 2.114 . S
O432 Mg423 2.291 . S
O432 C434 1.312 . S
O433 Mg418 2.031 . S
O433 C434 1.208 . S
C434 O432 1.312 . S
C434 O433 1.208 . S
C435 O427 1.331 . S
C435 O430 1.244 . S
O436 Mg421 2.013 . S
O436 C425 1.191 . S
O437 C416 1.331 . S
O437 Mg423 2.081 . S
O438 Mg419 1.986 . S
O438 C425 1.307 . S
O439 C417 1.264 . S
O439 Mg423 2.023 . S
O440 C416 1.244 . S
O440 Mg424 1.942 . S
O441 C417 1.273 . S
O441 Mg424 1.955 . S
O442 C415 1.312 . S
O442 Mg418 2.291 . S
O442 Mg421 2.114 . S
O443 C415 1.208 . S
O443 Mg423 2.031 . S
C444 O429 1.264 . S
C444 O431 1.273 . S
C445 O426 1.191 . S
C445 O428 1.307 . S
C446 O473 1.312 . S
C446 O474 1.208 . S
C447 O468 1.331 . S
C447 O471 1.244 . S
C448 O470 1.264 . S
C448 O472 1.273 . S
Mg449 O451 1.936 . S
Mg449 O458 2.081 . S
Mg449 O460 2.023 . S
Mg449 O464 2.031 . S
Mg449 O473 2.291 . S
Mg450 O451 1.963 . S
Mg450 O461 1.942 . S
Mg450 O462 1.955 . S
Mg450 O469 1.986 . S
O451 Mg449 1.936 . S
O451 Mg450 1.963 . S
O451 Mg452 1.915 . S
Mg452 O451 1.915 . S
Mg452 O453 1.915 . S
Mg452 O457 2.013 . S
Mg452 O463 2.114 . S
Mg452 O467 2.013 . S
Mg452 O473 2.114 . S
O453 Mg452 1.915 . S
O453 Mg454 1.936 . S
O453 Mg455 1.963 . S
Mg454 O453 1.936 . S
Mg454 O463 2.291 . S
Mg454 O468 2.081 . S
Mg454 O470 2.023 . S
Mg454 O474 2.031 . S
Mg455 O453 1.963 . S
Mg455 O459 1.986 . S
Mg455 O471 1.942 . S
Mg455 O472 1.955 . S
C456 O467 1.191 . S
C456 O469 1.307 . S
O457 Mg452 2.013 . S
O457 C476 1.191 . S
O458 Mg449 2.081 . S
O458 C466 1.331 . S
O459 Mg455 1.986 . S
O459 C476 1.307 . S
O460 Mg449 2.023 . S
O460 C475 1.264 . S
O461 Mg450 1.942 . S
O461 C466 1.244 . S
O462 Mg450 1.955 . S
O462 C475 1.273 . S
O463 Mg452 2.114 . S
O463 Mg454 2.291 . S
O463 C465 1.312 . S
O464 Mg449 2.031 . S
O464 C465 1.208 . S
C465 O463 1.312 . S
C465 O464 1.208 . S
C466 O458 1.331 . S
C466 O461 1.244 . S
O467 Mg452 2.013 . S
O467 C456 1.191 . S
O468 C447 1.331 . S
O468 Mg454 2.081 . S
O469 Mg450 1.986 . S
O469 C456 1.307 . S
O470 C448 1.264 . S
O470 Mg454 2.023 . S
O471 C447 1.244 . S
O471 Mg455 1.942 . S
O472 C448 1.273 . S
O472 Mg455 1.955 . S
O473 C446 1.312 . S
O473 Mg449 2.291 . S
O473 Mg452 2.114 . S
O474 C446 1.208 . S
O474 Mg454 2.031 . S
C475 O460 1.264 . S
C475 O462 1.273 . S
C476 O457 1.191 . S
C476 O459 1.307 . S
C477 O504 1.312 . S
C477 O505 1.208 . S
C478 O499 1.331 . S
C478 O502 1.244 . S
C479 O501 1.264 . S
C479 O503 1.273 . S
Mg480 O482 1.936 . S
Mg480 O489 2.081 . S
Mg480 O491 2.023 . S
Mg480 O495 2.031 . S
Mg480 O504 2.291 . S
Mg481 O482 1.963 1_655 S
Mg481 O492 1.942 . S
Mg481 O493 1.955 . S
Mg481 O500 1.986 . S
O482 Mg480 1.936 . S
O482 Mg481 1.963 1_455 S
O482 Mg483 1.915 . S
Mg483 O482 1.915 . S
Mg483 O484 1.915 . S
Mg483 O488 2.013 . S
Mg483 O494 2.114 . S
Mg483 O498 2.013 . S
Mg483 O504 2.114 . S
O484 Mg483 1.915 . S
O484 Mg485 1.936 . S
O484 Mg486 1.963 . S
Mg485 O484 1.936 . S
Mg485 O494 2.291 . S
Mg485 O499 2.081 . S
Mg485 O501 2.023 . S
Mg485 O505 2.031 . S
Mg486 O484 1.963 . S
Mg486 O490 1.986 . S
Mg486 O502 1.942 . S
Mg486 O503 1.955 . S
C487 O498 1.191 . S
C487 O500 1.307 1_455 S
O488 Mg483 2.013 . S
O488 C507 1.191 . S
O489 Mg480 2.081 . S
O489 C497 1.331 1_455 S
O490 Mg486 1.986 . S
O490 C507 1.307 . S
O491 Mg480 2.023 . S
O491 C506 1.264 1_455 S
O492 Mg481 1.942 . S
O492 C497 1.244 . S
O493 Mg481 1.955 . S
O493 C506 1.273 . S
O494 Mg483 2.114 . S
O494 Mg485 2.291 . S
O494 C496 1.312 . S
O495 Mg480 2.031 . S
O495 C496 1.208 . S
C496 O494 1.312 . S
C496 O495 1.208 . S
C497 O489 1.331 1_655 S
C497 O492 1.244 . S
O498 Mg483 2.013 . S
O498 C487 1.191 . S
O499 C478 1.331 . S
O499 Mg485 2.081 . S
O500 Mg481 1.986 . S
O500 C487 1.307 1_655 S
O501 C479 1.264 . S
O501 Mg485 2.023 . S
O502 C478 1.244 . S
O502 Mg486 1.942 . S
O503 C479 1.273 . S
O503 Mg486 1.955 . S
O504 C477 1.312 . S
O504 Mg480 2.291 . S
O504 Mg483 2.114 . S
O505 C477 1.208 . S
O505 Mg485 2.031 . S
C506 O491 1.264 1_655 S
C506 O493 1.273 . S
C507 O488 1.191 . S
C507 O490 1.307 . S
C508 C509 1.349 . S
C508 C510 1.327 . S
C508 H533 0.950 . S
C509 C508 1.349 . S
C509 C525 1.349 . S
C510 C508 1.327 . S
C510 C529 1.429 . S
C510 H534 0.950 . S
C511 C528 1.574 . S
C511 C530 1.368 . S
C511 H535 0.949 . S
H512 C516 0.949 . S
C513 C514 1.349 . S
C513 C515 1.327 . S
C513 H536 0.950 . S
C514 C513 1.349 . S
C514 C526 1.349 . S
C515 C513 1.327 . S
C515 C531 1.429 . S
C515 H537 0.950 . S
C516 H512 0.949 . S
C516 C524 1.574 . S
C516 C532 1.368 . S
H517 C525 0.950 . S
H518 C523 0.950 . S
H519 C524 0.949 . S
H520 C526 0.950 . S
H521 C527 0.950 . S
H522 C528 0.949 . S
C523 H518 0.950 . S
C523 C525 1.327 . S
C523 C529 1.429 . S
C524 C516 1.574 . S
C524 H519 0.949 . S
C524 C530 1.368 . S
C525 C509 1.349 . S
C525 H517 0.950 . S
C525 C523 1.327 . S
C526 C514 1.349 . S
C526 H520 0.950 . S
C526 C527 1.327 . S
C527 H521 0.950 . S
C527 C526 1.327 . S
C527 C531 1.429 . S
C528 C511 1.574 . S
C528 H522 0.949 . S
C528 C532 1.368 . S
C529 C510 1.429 . S
C529 C523 1.429 . S
C529 C530 1.523 . S
C530 C511 1.368 . S
C530 C524 1.368 . S
C530 C529 1.523 . S
C531 C515 1.429 . S
C531 C527 1.429 . S
C531 C532 1.523 . S
C532 C516 1.368 . S
C532 C528 1.368 . S
C532 C531 1.523 . S
H533 C508 0.950 . S
H534 C510 0.950 . S
H535 C511 0.949 . S
H536 C513 0.950 . S
H537 C515 0.950 . S
C538 C539 1.349 . S
C538 C540 1.327 . S
C538 H563 0.950 . S
C539 C538 1.349 . S
C539 C555 1.349 . S
C540 C538 1.327 . S
C540 C559 1.429 . S
C540 H564 0.950 . S
C541 C558 1.574 . S
C541 C560 1.368 . S
C541 H565 0.949 . S
H542 C546 0.949 . S
C543 C544 1.349 . S
C543 C545 1.327 . S
C543 H566 0.950 . S
C544 C543 1.349 . S
C544 C556 1.349 . S
C545 C543 1.327 . S
C545 C561 1.429 . S
C545 H567 0.950 . S
C546 H542 0.949 . S
C546 C554 1.574 1_545 S
C546 C562 1.368 . S
H547 C555 0.950 . S
H548 C553 0.950 . S
H549 C554 0.949 . S
H550 C556 0.950 . S
H551 C557 0.950 . S
H552 C558 0.949 . S
C553 H548 0.950 . S
C553 C555 1.327 . S
C553 C559 1.429 . S
C554 C546 1.574 1_565 S
C554 H549 0.949 . S
C554 C560 1.368 . S
C555 C539 1.349 . S
C555 H547 0.950 . S
C555 C553 1.327 . S
C556 C544 1.349 . S
C556 H550 0.950 . S
C556 C557 1.327 . S
C557 H551 0.950 . S
C557 C556 1.327 . S
C557 C561 1.429 . S
C558 C541 1.574 . S
C558 H552 0.949 . S
C558 C562 1.368 1_565 S
C559 C540 1.429 . S
C559 C553 1.429 . S
C559 C560 1.523 . S
C560 C541 1.368 . S
C560 C554 1.368 . S
C560 C559 1.523 . S
C561 C545 1.429 . S
C561 C557 1.429 . S
C561 C562 1.523 . S
C562 C546 1.368 . S
C562 C558 1.368 1_545 S
C562 C561 1.523 . S
H563 C538 0.950 . S
H564 C540 0.950 . S
H565 C541 0.949 . S
H566 C543 0.950 . S
H567 C545 0.950 . S
C568 C569 1.349 . S
C568 C570 1.327 . S
C568 H593 0.950 . S
C569 C568 1.349 . S
C569 C585 1.349 . S
C570 C568 1.327 . S
C570 C589 1.429 . S
C570 H594 0.950 . S
C571 C588 1.574 . S
C571 C590 1.368 . S
C571 H595 0.949 . S
H572 C576 0.949 . S
C573 C574 1.349 . S
C573 C575 1.327 . S
C573 H596 0.950 . S
C574 C573 1.349 . S
C574 C586 1.349 . S
C575 C573 1.327 . S
C575 C591 1.429 . S
C575 H597 0.950 . S
C576 H572 0.949 . S
C576 C584 1.574 . S
C576 C592 1.368 . S
H577 C585 0.950 . S
H578 C583 0.950 . S
H579 C584 0.949 . S
H580 C586 0.950 . S
H581 C587 0.950 . S
H582 C588 0.949 . S
C583 H578 0.950 . S
C583 C585 1.327 . S
C583 C589 1.429 . S
C584 C576 1.574 . S
C584 H579 0.949 . S
C584 C590 1.368 . S
C585 C569 1.349 . S
C585 H577 0.950 . S
C585 C583 1.327 . S
C586 C574 1.349 . S
C586 H580 0.950 . S
C586 C587 1.327 . S
C587 H581 0.950 . S
C587 C586 1.327 . S
C587 C591 1.429 . S
C588 C571 1.574 . S
C588 H582 0.949 . S
C588 C592 1.368 . S
C589 C570 1.429 . S
C589 C583 1.429 . S
C589 C590 1.523 . S
C590 C571 1.368 . S
C590 C584 1.368 . S
C590 C589 1.523 . S
C591 C575 1.429 . S
C591 C587 1.429 . S
C591 C592 1.523 . S
C592 C576 1.368 . S
C592 C588 1.368 . S
C592 C591 1.523 . S
H593 C568 0.950 . S
H594 C570 0.950 . S
H595 C571 0.949 . S
H596 C573 0.950 . S
H597 C575 0.950 . S
C598 C599 1.349 . S
C598 C600 1.327 . S
C598 H623 0.950 . S
C599 C598 1.349 . S
C599 C615 1.349 . S
C600 C598 1.327 . S
C600 C619 1.429 . S
C600 H624 0.950 . S
C601 C618 1.574 1_545 S
C601 C620 1.368 . S
C601 H625 0.949 . S
H602 C606 0.949 . S
C603 C604 1.349 . S
C603 C605 1.327 . S
C603 H626 0.950 . S
C604 C603 1.349 . S
C604 C616 1.349 . S
C605 C603 1.327 . S
C605 C621 1.429 . S
C605 H627 0.950 . S
C606 H602 0.949 . S
C606 C614 1.574 1_565 S
C606 C622 1.368 . S
H607 C615 0.950 . S
H608 C613 0.950 . S
H609 C614 0.949 . S
H610 C616 0.950 . S
H611 C617 0.950 . S
H612 C618 0.949 . S
C613 H608 0.950 . S
C613 C615 1.327 . S
C613 C619 1.429 . S
C614 C606 1.574 1_545 S
C614 H609 0.949 . S
C614 C620 1.368 . S
C615 C599 1.349 . S
C615 H607 0.950 . S
C615 C613 1.327 . S
C616 C604 1.349 . S
C616 H610 0.950 . S
C616 C617 1.327 . S
C617 H611 0.950 . S
C617 C616 1.327 . S
C617 C621 1.429 . S
C618 C601 1.574 1_565 S
C618 H612 0.949 . S
C618 C622 1.368 . S
C619 C600 1.429 . S
C619 C613 1.429 . S
C619 C620 1.523 . S
C620 C601 1.368 . S
C620 C614 1.368 . S
C620 C619 1.523 . S
C621 C605 1.429 . S
C621 C617 1.429 . S
C621 C622 1.523 . S
C622 C606 1.368 . S
C622 C618 1.368 . S
C622 C621 1.523 . S
H623 C598 0.950 . S
H624 C600 0.950 . S
H625 C601 0.949 . S
H626 C603 0.950 . S
H627 C605 0.950 . S
C628 C629 1.349 . S
C628 C630 1.327 . S
C628 H653 0.950 . S
C629 C628 1.349 . S
C629 C645 1.349 . S
C630 C628 1.327 . S
C630 C649 1.429 . S
C630 H654 0.950 . S
C631 C648 1.574 . S
C631 C650 1.368 . S
C631 H655 0.949 . S
H632 C636 0.949 . S
C633 C634 1.349 . S
C633 C635 1.327 . S
C633 H656 0.950 . S
C634 C633 1.349 . S
C634 C646 1.349 . S
C635 C633 1.327 . S
C635 C651 1.429 . S
C635 H657 0.950 . S
C636 H632 0.949 . S
C636 C644 1.574 . S
C636 C652 1.368 . S
H637 C645 0.950 . S
H638 C643 0.950 . S
H639 C644 0.949 . S
H640 C646 0.950 . S
H641 C647 0.950 . S
H642 C648 0.949 . S
C643 H638 0.950 . S
C643 C645 1.327 . S
C643 C649 1.429 . S
C644 C636 1.574 . S
C644 H639 0.949 . S
C644 C650 1.368 . S
C645 C629 1.349 . S
C645 H637 0.950 . S
C645 C643 1.327 . S
C646 C634 1.349 . S
C646 H640 0.950 . S
C646 C647 1.327 . S
C647 H641 0.950 . S
C647 C646 1.327 . S
C647 C651 1.429 . S
C648 C631 1.574 . S
C648 H642 0.949 . S
C648 C652 1.368 . S
C649 C630 1.429 . S
C649 C643 1.429 . S
C649 C650 1.523 . S
C650 C631 1.368 . S
C650 C644 1.368 . S
C650 C649 1.523 . S
C651 C635 1.429 . S
C651 C647 1.429 . S
C651 C652 1.523 . S
C652 C636 1.368 . S
C652 C648 1.368 . S
C652 C651 1.523 . S
H653 C628 0.950 . S
H654 C630 0.950 . S
H655 C631 0.949 . S
H656 C633 0.950 . S
H657 C635 0.950 . S
C658 C659 1.349 . S
C658 C660 1.327 . S
C658 H683 0.950 . S
C659 C658 1.349 . S
C659 C675 1.349 . S
C660 C658 1.327 . S
C660 C679 1.429 . S
C660 H684 0.950 . S
C661 C678 1.574 1_565 S
C661 C680 1.368 . S
C661 H685 0.949 . S
H662 C666 0.949 . S
C663 C664 1.349 . S
C663 C665 1.327 . S
C663 H686 0.950 . S
C664 C663 1.349 . S
C664 C676 1.349 . S
C665 C663 1.327 . S
C665 C681 1.429 . S
C665 H687 0.950 . S
C666 H662 0.949 . S
C666 C674 1.574 1_545 S
C666 C682 1.368 . S
H667 C675 0.950 . S
H668 C673 0.950 . S
H669 C674 0.949 . S
H670 C676 0.950 . S
H671 C677 0.950 . S
H672 C678 0.949 . S
C673 H668 0.950 . S
C673 C675 1.327 . S
C673 C679 1.429 . S
C674 C666 1.574 1_565 S
C674 H669 0.949 . S
C674 C680 1.368 . S
C675 C659 1.349 . S
C675 H667 0.950 . S
C675 C673 1.327 . S
C676 C664 1.349 . S
C676 H670 0.950 . S
C676 C677 1.327 . S
C677 H671 0.950 . S
C677 C676 1.327 . S
C677 C681 1.429 . S
C678 C661 1.574 1_545 S
C678 H672 0.949 . S
C678 C682 1.368 . S
C679 C660 1.429 . S
C679 C673 1.429 . S
C679 C680 1.523 . S
C680 C661 1.368 . S
C680 C674 1.368 . S
C680 C679 1.523 . S
C681 C665 1.429 . S
C681 C677 1.429 . S
C681 C682 1.523 . S
C682 C666 1.368 . S
C682 C678 1.368 . S
C682 C681 1.523 . S
H683 C658 0.950 . S
H684 C660 0.950 . S
H685 C661 0.949 . S
H686 C663 0.950 . S
H687 C665 0.950 . S
C688 C689 1.349 . S
C688 C690 1.327 . S
C688 H713 0.950 . S
C689 C688 1.349 . S
C689 C705 1.349 . S
C690 C688 1.327 . S
C690 C709 1.429 . S
C690 H714 0.950 . S
C691 C708 1.574 . S
C691 C710 1.368 . S
C691 H715 0.949 . S
H692 C696 0.949 . S
C693 C694 1.349 . S
C693 C695 1.327 . S
C693 H716 0.950 . S
C694 C693 1.349 . S
C694 C706 1.349 . S
C695 C693 1.327 . S
C695 C711 1.429 . S
C695 H717 0.950 . S
C696 H692 0.949 . S
C696 C704 1.574 . S
C696 C712 1.368 . S
H697 C705 0.950 . S
H698 C703 0.950 . S
H699 C704 0.949 . S
H700 C706 0.950 . S
H701 C707 0.950 . S
H702 C708 0.949 . S
C703 H698 0.950 . S
C703 C705 1.327 . S
C703 C709 1.429 . S
C704 C696 1.574 . S
C704 H699 0.949 . S
C704 C710 1.368 . S
C705 C689 1.349 . S
C705 H697 0.950 . S
C705 C703 1.327 . S
C706 C694 1.349 . S
C706 H700 0.950 . S
C706 C707 1.327 . S
C707 H701 0.950 . S
C707 C706 1.327 . S
C707 C711 1.429 . S
C708 C691 1.574 . S
C708 H702 0.949 . S
C708 C712 1.368 . S
C709 C690 1.429 . S
C709 C703 1.429 . S
C709 C710 1.523 . S
C710 C691 1.368 . S
C710 C704 1.368 . S
C710 C709 1.523 . S
C711 C695 1.429 . S
C711 C707 1.429 . S
C711 C712 1.523 . S
C712 C696 1.368 . S
C712 C708 1.368 . S
C712 C711 1.523 . S
H713 C688 0.950 . S
H714 C690 0.950 . S
H715 C691 0.949 . S
H716 C693 0.950 . S
H717 C695 0.950 . S
C718 C719 1.349 . S
C718 C720 1.327 . S
C718 H743 0.950 . S
C719 C718 1.349 . S
C719 C735 1.349 . S
C720 C718 1.327 . S
C720 C739 1.429 . S
C720 H744 0.950 . S
C721 C738 1.574 1_545 S
C721 C740 1.368 . S
C721 H745 0.949 . S
H722 C726 0.949 . S
C723 C724 1.349 . S
C723 C725 1.327 . S
C723 H746 0.950 . S
C724 C723 1.349 . S
C724 C736 1.349 . S
C725 C723 1.327 . S
C725 C741 1.429 . S
C725 H747 0.950 . S
C726 H722 0.949 . S
C726 C734 1.572 1_565 S
C726 C742 1.369 . S
H727 C735 0.950 . S
H728 C733 0.950 . S
H729 C734 0.949 . S
H730 C736 0.950 . S
H731 C737 0.950 . S
H732 C738 0.949 . S
C733 H728 0.950 . S
C733 C735 1.327 . S
C733 C739 1.429 . S
C734 C726 1.572 1_545 S
C734 H729 0.949 . S
C734 C740 1.368 . S
C735 C719 1.349 . S
C735 H727 0.950 . S
C735 C733 1.327 . S
C736 C724 1.349 . S
C736 H730 0.950 . S
C736 C737 1.327 . S
C737 H731 0.950 . S
C737 C736 1.327 . S
C737 C741 1.429 . S
C738 C721 1.574 1_565 S
C738 H732 0.949 . S
C738 C742 1.368 . S
C739 C720 1.429 . S
C739 C733 1.429 . S
C739 C740 1.523 . S
C740 C721 1.368 . S
C740 C734 1.368 . S
C740 C739 1.523 . S
C741 C725 1.429 . S
C741 C737 1.429 . S
C741 C742 1.523 . S
C742 C726 1.369 . S
C742 C738 1.368 . S
C742 C741 1.523 . S
H743 C718 0.950 . S
H744 C720 0.950 . S
H745 C721 0.949 . S
H746 C723 0.950 . S
H747 C725 0.950 . S
C748 C749 1.349 . S
C748 C750 1.327 . S
C748 H773 0.950 . S
C749 C748 1.349 . S
C749 C765 1.349 . S
C750 C748 1.327 . S
C750 C769 1.429 . S
C750 H774 0.950 . S
C751 C768 1.574 . S
C751 C770 1.368 . S
C751 H775 0.949 . S
H752 C756 0.949 . S
C753 C754 1.349 . S
C753 C755 1.327 . S
C753 H776 0.950 . S
C754 C753 1.349 . S
C754 C766 1.349 . S
C755 C753 1.327 . S
C755 C771 1.429 . S
C755 H777 0.950 . S
C756 H752 0.949 . S
C756 C764 1.574 . S
C756 C772 1.368 . S
H757 C765 0.950 . S
H758 C763 0.950 . S
H759 C764 0.949 . S
H760 C766 0.950 . S
H761 C767 0.950 . S
H762 C768 0.949 . S
C763 H758 0.950 . S
C763 C765 1.327 . S
C763 C769 1.429 . S
C764 C756 1.574 . S
C764 H759 0.949 . S
C764 C770 1.368 . S
C765 C749 1.349 . S
C765 H757 0.950 . S
C765 C763 1.327 . S
C766 C754 1.349 . S
C766 H760 0.950 . S
C766 C767 1.327 . S
C767 H761 0.950 . S
C767 C766 1.327 . S
C767 C771 1.429 . S
C768 C751 1.574 . S
C768 H762 0.949 . S
C768 C772 1.368 . S
C769 C750 1.429 . S
C769 C763 1.429 . S
C769 C770 1.523 . S
C770 C751 1.368 . S
C770 C764 1.368 . S
C770 C769 1.523 . S
C771 C755 1.429 . S
C771 C767 1.429 . S
C771 C772 1.523 . S
C772 C756 1.368 . S
C772 C768 1.368 . S
C772 C771 1.523 . S
H773 C748 0.950 . S
H774 C750 0.950 . S
H775 C751 0.949 . S
H776 C753 0.950 . S
H777 C755 0.950 . S
C778 C779 1.349 . S
C778 C780 1.327 . S
C778 H803 0.950 . S
C779 C778 1.349 . S
C779 C795 1.349 1_545 S
C780 C778 1.327 . S
C780 C799 1.429 1_545 S
C780 H804 0.950 . S
C781 C798 1.574 . S
C781 C800 1.368 . S
C781 H805 0.949 . S
H782 C786 0.949 . S
C783 C784 1.349 . S
C783 C785 1.327 . S
C783 H806 0.950 . S
C784 C783 1.349 . S
C784 C796 1.349 . S
C785 C783 1.327 . S
C785 C801 1.429 . S
C785 H807 0.950 . S
C786 H782 0.949 . S
C786 C794 1.574 . S
C786 C802 1.368 . S
H787 C795 0.950 . S
H788 C793 0.950 . S
H789 C794 0.949 . S
H790 C796 0.950 . S
H791 C797 0.950 . S
H792 C798 0.949 . S
C793 H788 0.950 . S
C793 C795 1.327 . S
C793 C799 1.429 . S
C794 C786 1.574 . S
C794 H789 0.949 . S
C794 C800 1.368 . S
C795 C779 1.349 1_565 S
C795 H787 0.950 . S
C795 C793 1.327 . S
C796 C784 1.349 . S
C796 H790 0.950 . S
C796 C797 1.327 . S
C797 H791 0.950 . S
C797 C796 1.327 . S
C797 C801 1.429 . S
C798 C781 1.574 . S
C798 H792 0.949 . S
C798 C802 1.368 . S
C799 C780 1.429 1_565 S
C799 C793 1.429 . S
C799 C800 1.523 . S
C800 C781 1.368 . S
C800 C794 1.368 . S
C800 C799 1.523 . S
C801 C785 1.429 . S
C801 C797 1.429 . S
C801 C802 1.523 . S
C802 C786 1.368 . S
C802 C798 1.368 . S
C802 C801 1.523 . S
H803 C778 0.950 . S
H804 C780 0.950 . S
H805 C781 0.949 . S
H806 C783 0.950 . S
H807 C785 0.950 . S
C808 C809 1.349 . S
C808 C810 1.327 . S
C808 H833 0.950 . S
C809 C808 1.349 . S
C809 C825 1.349 . S
C810 C808 1.327 . S
C810 C829 1.429 . S
C810 H834 0.950 . S
C811 C828 1.574 . S
C811 C830 1.368 . S
C811 H835 0.949 . S
H812 C816 0.949 . S
C813 C814 1.349 1_655 S
C813 C815 1.327 . S
C813 H836 0.950 . S
C814 C813 1.349 1_455 S
C814 C826 1.349 . S
C815 C813 1.327 . S
C815 C831 1.429 . S
C815 H837 0.950 . S
C816 H812 0.949 . S
C816 C824 1.574 . S
C816 C832 1.368 . S
H817 C825 0.950 . S
H818 C823 0.950 . S
H819 C824 0.949 . S
H820 C826 0.950 . S
H821 C827 0.950 . S
H822 C828 0.949 . S
C823 H818 0.950 . S
C823 C825 1.327 . S
C823 C829 1.429 . S
C824 C816 1.574 . S
C824 H819 0.949 . S
C824 C830 1.368 . S
C825 C809 1.349 . S
C825 H817 0.950 . S
C825 C823 1.327 . S
C826 C814 1.349 . S
C826 H820 0.950 . S
C826 C827 1.328 . S
C827 H821 0.950 . S
C827 C826 1.328 . S
C827 C831 1.427 1_455 S
C828 C811 1.574 . S
C828 H822 0.949 . S
C828 C832 1.368 . S
C829 C810 1.429 . S
C829 C823 1.429 . S
C829 C830 1.523 . S
C830 C811 1.368 . S
C830 C824 1.368 . S
C830 C829 1.523 . S
C831 C815 1.429 . S
C831 C827 1.427 1_655 S
C831 C832 1.523 . S
C832 C816 1.368 . S
C832 C828 1.368 . S
C832 C831 1.523 . S
H833 C808 0.950 . S
H834 C810 0.950 . S
H835 C811 0.949 . S
H836 C813 0.950 . S
H837 C815 0.950 . S
C838 C839 1.349 1_545 S
C838 C840 1.327 . S
C838 H863 0.950 . S
C839 C838 1.349 1_565 S
C839 C855 1.349 . S
C840 C838 1.327 . S
C840 C859 1.429 . S
C840 H864 0.950 . S
C841 C858 1.574 . S
C841 C860 1.368 . S
C841 H865 0.949 . S
H842 C846 0.949 . S
C843 C844 1.349 . S
C843 C845 1.327 . S
C843 H866 0.950 . S
C844 C843 1.349 . S
C844 C856 1.349 . S
C845 C843 1.327 . S
C845 C861 1.429 1_455 S
C845 H867 0.950 . S
C846 H842 0.949 . S
C846 C854 1.574 . S
C846 C862 1.368 . S
H847 C855 0.950 . S
H848 C853 0.950 . S
H849 C854 0.949 . S
H850 C856 0.950 . S
H851 C857 0.950 . S
H852 C858 0.949 . S
C853 H848 0.950 . S
C853 C855 1.327 . S
C853 C859 1.429 1_565 S
C854 C846 1.574 . S
C854 H849 0.949 . S
C854 C860 1.368 . S
C855 C839 1.349 . S
C855 H847 0.950 . S
C855 C853 1.327 . S
C856 C844 1.349 . S
C856 H850 0.950 . S
C856 C857 1.327 1_455 S
C857 H851 0.950 . S
C857 C856 1.327 1_655 S
C857 C861 1.429 . S
C858 C841 1.574 . S
C858 H852 0.949 . S
C858 C862 1.368 . S
C859 C840 1.429 . S
C859 C853 1.429 1_545 S
C859 C860 1.523 . S
C860 C841 1.368 . S
C860 C854 1.368 . S
C860 C859 1.523 . S
C861 C845 1.429 1_655 S
C861 C857 1.429 . S
C861 C862 1.523 . S
C862 C846 1.368 . S
C862 C858 1.368 . S
C862 C861 1.523 . S
H863 C838 0.950 . S
H864 C840 0.950 . S
H865 C841 0.949 . S
H866 C843 0.950 . S
H867 C845 0.950 . S
C868 C869 1.349 . S
C868 C870 1.327 . S
C868 H893 0.950 . S
C869 C868 1.349 . S
C869 C885 1.349 . S
C870 C868 1.327 . S
C870 C889 1.429 . S
C870 H894 0.950 . S
C871 C888 1.574 . S
C871 C890 1.368 . S
C871 H895 0.949 . S
H872 C876 0.949 . S
C873 C874 1.349 . S
C873 C875 1.327 . S
C873 H896 0.950 . S
C874 C873 1.349 . S
C874 C886 1.349 . S
C875 C873 1.327 . S
C875 C891 1.429 . S
C875 H897 0.950 . S
C876 H872 0.949 . S
C876 C884 1.574 . S
C876 C892 1.368 . S
H877 C885 0.950 . S
H878 C883 0.950 . S
H879 C884 0.949 . S
H880 C886 0.950 . S
H881 C887 0.950 . S
H882 C888 0.949 . S
C883 H878 0.950 . S
C883 C885 1.327 . S
C883 C889 1.429 . S
C884 C876 1.574 . S
C884 H879 0.949 . S
C884 C890 1.368 . S
C885 C869 1.349 . S
C885 H877 0.950 . S
C885 C883 1.327 . S
C886 C874 1.349 . S
C886 H880 0.950 . S
C886 C887 1.327 . S
C887 H881 0.950 . S
C887 C886 1.327 . S
C887 C891 1.429 . S
C888 C871 1.574 . S
C888 H882 0.949 . S
C888 C892 1.368 . S
C889 C870 1.429 . S
C889 C883 1.429 . S
C889 C890 1.523 . S
C890 C871 1.368 . S
C890 C884 1.368 . S
C890 C889 1.523 . S
C891 C875 1.429 . S
C891 C887 1.429 . S
C891 C892 1.523 . S
C892 C876 1.368 . S
C892 C888 1.368 . S
C892 C891 1.523 . S
H893 C868 0.950 . S
H894 C870 0.950 . S
H895 C871 0.949 . S
H896 C873 0.950 . S
H897 C875 0.950 . S
C898 C899 1.349 . S
C898 C900 1.327 . S
C898 H923 0.950 . S
C899 C898 1.349 . S
C899 C915 1.349 1_545 S
C900 C898 1.327 . S
C900 C919 1.429 1_545 S
C900 H924 0.950 . S
C901 C918 1.574 . S
C901 C920 1.368 . S
C901 H925 0.949 . S
H902 C906 0.948 . S
C903 C904 1.349 1_655 S
C903 C905 1.327 . S
C903 H926 0.950 . S
C904 C903 1.349 1_455 S
C904 C916 1.349 . S
C905 C903 1.327 . S
C905 C921 1.429 . S
C905 H927 0.950 . S
C906 H902 0.948 . S
C906 C914 1.574 . S
C906 C922 1.368 . S
H907 C915 0.950 . S
H908 C913 0.950 . S
H909 C914 0.949 . S
H910 C916 0.950 . S
H911 C917 0.950 . S
H912 C918 0.949 . S
C913 H908 0.950 . S
C913 C915 1.327 . S
C913 C919 1.429 . S
C914 C906 1.574 . S
C914 H909 0.949 . S
C914 C920 1.368 . S
C915 C899 1.349 1_565 S
C915 H907 0.950 . S
C915 C913 1.327 . S
C916 C904 1.349 . S
C916 H910 0.950 . S
C916 C917 1.327 . S
C917 H911 0.950 . S
C917 C916 1.327 . S
C917 C921 1.429 1_455 S
C918 C901 1.574 . S
C918 H912 0.949 . S
C918 C922 1.368 . S
C919 C900 1.429 1_565 S
C919 C913 1.429 . S
C919 C920 1.523 . S
C920 C901 1.368 . S
C920 C914 1.368 . S
C920 C919 1.523 . S
C921 C905 1.429 . S
C921 C917 1.429 1_655 S
C921 C922 1.523 . S
C922 C906 1.368 . S
C922 C918 1.368 . S
C922 C921 1.523 . S
H923 C898 0.950 . S
H924 C900 0.950 . S
H925 C901 0.949 . S
H926 C903 0.950 . S
H927 C905 0.950 . S
C928 C929 1.349 . S
C928 C930 1.327 . S
C928 H953 0.950 . S
C929 C928 1.349 . S
C929 C945 1.349 . S
C930 C928 1.327 . S
C930 C949 1.429 . S
C930 H954 0.950 . S
C931 C948 1.574 . S
C931 C950 1.368 . S
C931 H955 0.949 . S
H932 C936 0.949 . S
C933 C934 1.349 1_655 S
C933 C935 1.327 . S
C933 H956 0.947 1_655 S
C934 C933 1.349 1_455 S
C934 C946 1.349 . S
C935 C933 1.327 . S
C935 C951 1.429 . S
C935 H957 0.950 . S
C936 H932 0.949 . S
C936 C944 1.574 . S
C936 C952 1.368 . S
H937 C945 0.950 . S
H938 C943 0.950 . S
H939 C944 0.949 . S
H940 C946 0.950 . S
H941 C947 0.950 . S
H942 C948 0.949 . S
C943 H938 0.950 . S
C943 C945 1.327 . S
C943 C949 1.429 . S
C944 C936 1.574 . S
C944 H939 0.949 . S
C944 C950 1.368 . S
C945 C929 1.349 . S
C945 H937 0.950 . S
C945 C943 1.327 . S
C946 C934 1.349 . S
C946 H940 0.950 . S
C946 C947 1.327 1_455 S
C947 H941 0.950 . S
C947 C946 1.327 1_655 S
C947 C951 1.429 . S
C948 C931 1.574 . S
C948 H942 0.949 . S
C948 C952 1.368 . S
C949 C930 1.429 . S
C949 C943 1.429 . S
C949 C950 1.523 . S
C950 C931 1.368 . S
C950 C944 1.368 . S
C950 C949 1.523 . S
C951 C935 1.429 . S
C951 C947 1.429 . S
C951 C952 1.523 . S
C952 C936 1.368 . S
C952 C948 1.368 . S
C952 C951 1.523 . S
H953 C928 0.950 . S
H954 C930 0.950 . S
H955 C931 0.949 . S
H956 C933 0.947 1_455 S
H957 C935 0.950 . S
C958 C959 1.349 1_545 S
C958 C960 1.327 . S
C958 H983 0.950 . S
C959 C958 1.349 1_565 S
C959 C975 1.349 . S
C960 C958 1.327 . S
C960 C979 1.429 . S
C960 H984 0.950 . S
C961 C978 1.574 . S
C961 C980 1.368 . S
C961 H985 0.949 . S
H962 C966 0.949 . S
C963 C964 1.349 . S
C963 C965 1.327 . S
C963 H986 0.950 . S
C964 C963 1.349 . S
C964 C976 1.349 . S
C965 C963 1.327 . S
C965 C981 1.429 . S
C965 H987 0.950 . S
C966 H962 0.949 . S
C966 C974 1.574 . S
C966 C982 1.368 . S
H967 C975 0.950 . S
H968 C973 0.950 . S
H969 C974 0.949 . S
H970 C976 0.950 . S
H971 C977 0.950 . S
H972 C978 0.949 . S
C973 H968 0.950 . S
C973 C975 1.327 . S
C973 C979 1.429 1_565 S
C974 C966 1.574 . S
C974 H969 0.949 . S
C974 C980 1.368 . S
C975 C959 1.349 . S
C975 H967 0.950 . S
C975 C973 1.327 . S
C976 C964 1.349 . S
C976 H970 0.950 . S
C976 C977 1.327 . S
C977 H971 0.950 . S
C977 C976 1.327 . S
C977 C981 1.429 . S
C978 C961 1.574 . S
C978 H972 0.949 . S
C978 C982 1.368 . S
C979 C960 1.429 . S
C979 C973 1.429 1_545 S
C979 C980 1.523 . S
C980 C961 1.368 . S
C980 C974 1.368 . S
C980 C979 1.523 . S
C981 C965 1.429 . S
C981 C977 1.429 . S
C981 C982 1.523 . S
C982 C966 1.368 . S
C982 C978 1.368 . S
C982 C981 1.523 . S
H983 C958 0.950 . S
H984 C960 0.950 . S
H985 C961 0.949 . S
H986 C963 0.950 . S
H987 C965 0.950 . S
C988 C989 1.349 . S
C988 C990 1.327 . S
C988 H1013 0.950 . S
C989 C988 1.349 . S
C989 C1005 1.349 . S
C990 C988 1.327 . S
C990 C1009 1.429 . S
C990 H1014 0.950 . S
C991 C1008 1.574 . S
C991 C1010 1.368 . S
C991 H1015 0.949 . S
H992 C996 0.949 . S
C993 C994 1.349 . S
C993 C995 1.327 . S
C993 H1016 0.950 . S
C994 C993 1.349 . S
C994 C1006 1.349 . S
C995 C993 1.327 . S
C995 C1011 1.429 . S
C995 H1017 0.950 . S
C996 H992 0.949 . S
C996 C1004 1.574 . S
C996 C1012 1.368 . S
H997 C1005 0.950 . S
H998 C1003 0.950 . S
H999 C1004 0.949 . S
H1000 C1006 0.950 . S
H1001 C1007 0.950 . S
H1002 C1008 0.949 . S
C1003 H998 0.950 . S
C1003 C1005 1.327 . S
C1003 C1009 1.429 . S
C1004 C996 1.574 . S
C1004 H999 0.949 . S
C1004 C1010 1.368 . S
C1005 C989 1.349 . S
C1005 H997 0.950 . S
C1005 C1003 1.327 . S
C1006 C994 1.349 . S
C1006 H1000 0.950 . S
C1006 C1007 1.327 . S
C1007 H1001 0.950 . S
C1007 C1006 1.327 . S
C1007 C1011 1.429 . S
C1008 C991 1.574 . S
C1008 H1002 0.949 . S
C1008 C1012 1.368 . S
C1009 C990 1.429 . S
C1009 C1003 1.429 . S
C1009 C1010 1.523 . S
C1010 C991 1.368 . S
C1010 C1004 1.368 . S
C1010 C1009 1.523 . S
C1011 C995 1.429 . S
C1011 C1007 1.429 . S
C1011 C1012 1.523 . S
C1012 C996 1.368 . S
C1012 C1008 1.368 . S
C1012 C1011 1.523 . S
H1013 C988 0.950 . S
H1014 C990 0.950 . S
H1015 C991 0.949 . S
H1016 C993 0.950 . S
H1017 C995 0.950 . S
C1018 C1019 1.349 . S
C1018 C1020 1.327 . S
C1018 H1043 0.950 . S
C1019 C1018 1.349 . S
C1019 C1035 1.349 . S
C1020 C1018 1.327 . S
C1020 C1039 1.429 . S
C1020 H1044 0.950 . S
C1021 C1038 1.574 . S
C1021 C1040 1.368 . S
C1021 H1045 0.949 . S
H1022 C1026 0.949 . S
C1023 C1024 1.349 . S
C1023 C1025 1.327 . S
C1023 H1046 0.950 1_655 S
C1024 C1023 1.349 . S
C1024 C1036 1.349 . S
C1025 C1023 1.327 . S
C1025 C1041 1.429 . S
C1025 H1047 0.956 . S
C1026 H1022 0.949 . S
C1026 C1034 1.574 . S
C1026 C1042 1.368 . S
H1027 C1035 0.950 . S
H1028 C1033 0.950 . S
H1029 C1034 0.949 . S
H1030 C1036 0.950 . S
H1031 C1037 0.950 . S
H1032 C1038 0.949 . S
C1033 H1028 0.950 . S
C1033 C1035 1.327 . S
C1033 C1039 1.429 . S
C1034 C1026 1.574 . S
C1034 H1029 0.949 . S
C1034 C1040 1.368 . S
C1035 C1019 1.349 . S
C1035 H1027 0.950 . S
C1035 C1033 1.327 . S
C1036 C1024 1.349 . S
C1036 H1030 0.950 . S
C1036 C1037 1.327 . S
C1037 H1031 0.950 . S
C1037 C1036 1.327 . S
C1037 C1041 1.429 . S
C1038 C1021 1.574 . S
C1038 H1032 0.949 . S
C1038 C1042 1.368 . S
C1039 C1020 1.429 . S
C1039 C1033 1.429 . S
C1039 C1040 1.523 . S
C1040 C1021 1.368 . S
C1040 C1034 1.368 . S
C1040 C1039 1.523 . S
C1041 C1025 1.429 . S
C1041 C1037 1.429 . S
C1041 C1042 1.523 . S
C1042 C1026 1.368 . S
C1042 C1038 1.368 . S
C1042 C1041 1.523 . S
H1043 C1018 0.950 . S
H1044 C1020 0.950 . S
H1045 C1021 0.949 . S
H1046 C1023 0.950 1_455 S
H1047 C1025 0.956 . S
C1048 C1049 1.349 . S
C1048 C1050 1.327 . S
C1048 H1073 0.950 . S
C1049 C1048 1.349 . S
C1049 C1065 1.349 . S
C1050 C1048 1.327 . S
C1050 C1069 1.429 . S
C1050 H1074 0.950 . S
C1051 C1068 1.574 . S
C1051 C1070 1.368 . S
C1051 H1075 0.949 . S
H1052 C1056 0.949 . S
C1053 C1054 1.349 . S
C1053 C1055 1.327 . S
C1053 H1076 0.950 . S
C1054 C1053 1.349 . S
C1054 C1066 1.349 . S
C1055 C1053 1.327 . S
C1055 C1071 1.429 . S
C1055 H1077 0.950 . S
C1056 H1052 0.949 . S
C1056 C1064 1.574 . S
C1056 C1072 1.368 . S
H1057 C1065 0.950 . S
H1058 C1063 0.950 . S
H1059 C1064 0.949 . S
H1060 C1066 0.950 . S
H1061 C1067 0.950 . S
H1062 C1068 0.949 . S
C1063 H1058 0.950 . S
C1063 C1065 1.327 . S
C1063 C1069 1.429 . S
C1064 C1056 1.574 . S
C1064 H1059 0.949 . S
C1064 C1070 1.368 . S
C1065 C1049 1.349 . S
C1065 H1057 0.950 . S
C1065 C1063 1.327 . S
C1066 C1054 1.349 . S
C1066 H1060 0.950 . S
C1066 C1067 1.327 . S
C1067 H1061 0.950 . S
C1067 C1066 1.327 . S
C1067 C1071 1.429 . S
C1068 C1051 1.574 . S
C1068 H1062 0.949 . S
C1068 C1072 1.368 . S
C1069 C1050 1.429 . S
C1069 C1063 1.429 . S
C1069 C1070 1.523 . S
C1070 C1051 1.368 . S
C1070 C1064 1.368 . S
C1070 C1069 1.523 . S
C1071 C1055 1.429 . S
C1071 C1067 1.429 . S
C1071 C1072 1.523 . S
C1072 C1056 1.368 . S
C1072 C1068 1.368 . S
C1072 C1071 1.523 . S
H1073 C1048 0.950 . S
H1074 C1050 0.950 . S
H1075 C1051 0.949 . S
H1076 C1053 0.950 . S
H1077 C1055 0.950 . S
C1078 C1079 1.349 . S
C1078 C1080 1.327 . S
C1078 H1103 0.950 . S
C1079 C1078 1.349 . S
C1079 C1095 1.349 . S
C1080 C1078 1.327 . S
C1080 C1099 1.429 . S
C1080 H1104 0.950 . S
C1081 C1098 1.574 . S
C1081 C1100 1.368 . S
C1081 H1105 0.949 . S
H1082 C1086 0.949 . S
C1083 C1084 1.349 . S
C1083 C1085 1.327 . S
C1083 H1106 0.950 . S
C1084 C1083 1.349 . S
C1084 C1096 1.349 . S
C1085 C1083 1.327 . S
C1085 C1101 1.429 . S
C1085 H1107 0.950 . S
C1086 H1082 0.949 . S
C1086 C1094 1.574 . S
C1086 C1102 1.368 . S
H1087 C1095 0.950 . S
H1088 C1093 0.950 . S
H1089 C1094 0.949 . S
H1090 C1096 0.950 . S
H1091 C1097 0.950 . S
H1092 C1098 0.949 . S
C1093 H1088 0.950 . S
C1093 C1095 1.327 . S
C1093 C1099 1.429 . S
C1094 C1086 1.574 . S
C1094 H1089 0.949 . S
C1094 C1100 1.368 . S
C1095 C1079 1.349 . S
C1095 H1087 0.950 . S
C1095 C1093 1.327 . S
C1096 C1084 1.349 . S
C1096 H1090 0.950 . S
C1096 C1097 1.327 . S
C1097 H1091 0.950 . S
C1097 C1096 1.327 . S
C1097 C1101 1.429 . S
C1098 C1081 1.574 . S
C1098 H1092 0.949 . S
C1098 C1102 1.368 . S
C1099 C1080 1.429 . S
C1099 C1093 1.429 . S
C1099 C1100 1.523 . S
C1100 C1081 1.368 . S
C1100 C1094 1.368 . S
C1100 C1099 1.523 . S
C1101 C1085 1.429 . S
C1101 C1097 1.429 . S
C1101 C1102 1.523 . S
C1102 C1086 1.368 . S
C1102 C1098 1.368 . S
C1102 C1101 1.523 . S
H1103 C1078 0.950 . S
H1104 C1080 0.950 . S
H1105 C1081 0.949 . S
H1106 C1083 0.950 . S
H1107 C1085 0.950 . S
C1108 C1109 1.349 . S
C1108 C1110 1.327 . S
C1108 H1133 0.950 . S
C1109 C1108 1.349 . S
C1109 C1125 1.349 . S
C1110 C1108 1.327 . S
C1110 C1129 1.429 . S
C1110 H1134 0.950 . S
C1111 C1128 1.574 . S
C1111 C1130 1.368 . S
C1111 H1135 0.949 . S
H1112 C1116 0.949 . S
C1113 C1114 1.349 . S
C1113 C1115 1.327 . S
C1113 H1136 0.950 . S
C1114 C1113 1.349 . S
C1114 C1126 1.349 . S
C1115 C1113 1.327 . S
C1115 C1131 1.429 . S
C1115 H1137 0.950 . S
C1116 H1112 0.949 . S
C1116 C1124 1.574 . S
C1116 C1132 1.368 . S
H1117 C1125 0.950 . S
H1118 C1123 0.950 . S
H1119 C1124 0.949 . S
H1120 C1126 0.950 . S
H1121 C1127 0.950 . S
H1122 C1128 0.949 . S
C1123 H1118 0.950 . S
C1123 C1125 1.327 . S
C1123 C1129 1.429 . S
C1124 C1116 1.574 . S
C1124 H1119 0.949 . S
C1124 C1130 1.368 . S
C1125 C1109 1.349 . S
C1125 H1117 0.950 . S
C1125 C1123 1.327 . S
C1126 C1114 1.349 . S
C1126 H1120 0.950 . S
C1126 C1127 1.327 . S
C1127 H1121 0.950 . S
C1127 C1126 1.327 . S
C1127 C1131 1.429 . S
C1128 C1111 1.574 . S
C1128 H1122 0.949 . S
C1128 C1132 1.368 . S
C1129 C1110 1.429 . S
C1129 C1123 1.429 . S
C1129 C1130 1.523 . S
C1130 C1111 1.368 . S
C1130 C1124 1.368 . S
C1130 C1129 1.523 . S
C1131 C1115 1.429 . S
C1131 C1127 1.429 . S
C1131 C1132 1.523 . S
C1132 C1116 1.368 . S
C1132 C1128 1.368 . S
C1132 C1131 1.523 . S
H1133 C1108 0.950 . S
H1134 C1110 0.950 . S
H1135 C1111 0.949 . S
H1136 C1113 0.950 . S
H1137 C1115 0.950 . S
C1138 C1139 1.349 . S
C1138 C1140 1.327 . S
C1138 H1163 0.950 . S
C1139 C1138 1.349 . S
C1139 C1155 1.349 . S
C1140 C1138 1.327 . S
C1140 C1159 1.429 . S
C1140 H1164 0.950 . S
C1141 C1158 1.574 . S
C1141 C1160 1.368 . S
C1141 H1165 0.949 . S
H1142 C1146 0.949 . S
C1143 C1144 1.349 . S
C1143 C1145 1.327 . S
C1143 H1166 0.950 . S
C1144 C1143 1.349 . S
C1144 C1156 1.349 . S
C1145 C1143 1.327 . S
C1145 C1161 1.429 . S
C1145 H1167 0.950 . S
C1146 H1142 0.949 . S
C1146 C1154 1.574 . S
C1146 C1162 1.368 . S
H1147 C1155 0.950 . S
H1148 C1153 0.950 . S
H1149 C1154 0.949 . S
H1150 C1156 0.950 . S
H1151 C1157 0.950 . S
H1152 C1158 0.949 . S
C1153 H1148 0.950 . S
C1153 C1155 1.327 . S
C1153 C1159 1.429 . S
C1154 C1146 1.574 . S
C1154 H1149 0.949 . S
C1154 C1160 1.368 . S
C1155 C1139 1.349 . S
C1155 H1147 0.950 . S
C1155 C1153 1.327 . S
C1156 C1144 1.349 . S
C1156 H1150 0.950 . S
C1156 C1157 1.327 . S
C1157 H1151 0.950 . S
C1157 C1156 1.327 . S
C1157 C1161 1.429 . S
C1158 C1141 1.574 . S
C1158 H1152 0.949 . S
C1158 C1162 1.368 . S
C1159 C1140 1.429 . S
C1159 C1153 1.429 . S
C1159 C1160 1.523 . S
C1160 C1141 1.368 . S
C1160 C1154 1.368 . S
C1160 C1159 1.523 . S
C1161 C1145 1.429 . S
C1161 C1157 1.429 . S
C1161 C1162 1.523 . S
C1162 C1146 1.368 . S
C1162 C1158 1.368 . S
C1162 C1161 1.523 . S
H1163 C1138 0.950 . S
H1164 C1140 0.950 . S
H1165 C1141 0.949 . S
H1166 C1143 0.950 . S
H1167 C1145 0.950 . S
C1168 C1169 1.349 . S
C1168 C1170 1.327 . S
C1168 H1193 0.950 . S
C1169 C1168 1.349 . S
C1169 C1185 1.349 . S
C1170 C1168 1.327 . S
C1170 C1189 1.429 . S
C1170 H1194 0.950 . S
C1171 C1188 1.574 . S
C1171 C1190 1.368 . S
C1171 H1195 0.949 . S
H1172 C1176 0.949 . S
C1173 C1174 1.349 . S
C1173 C1175 1.327 . S
C1173 H1196 0.950 . S
C1174 C1173 1.349 . S
C1174 C1186 1.349 . S
C1175 C1173 1.327 . S
C1175 C1191 1.429 . S
C1175 H1197 0.950 . S
C1176 H1172 0.949 . S
C1176 C1184 1.574 . S
C1176 C1192 1.368 . S
H1177 C1185 0.950 . S
H1178 C1183 0.950 . S
H1179 C1184 0.949 . S
H1180 C1186 0.950 . S
H1181 C1187 0.950 . S
H1182 C1188 0.949 . S
C1183 H1178 0.950 . S
C1183 C1185 1.327 . S
C1183 C1189 1.429 . S
C1184 C1176 1.574 . S
C1184 H1179 0.949 . S
C1184 C1190 1.368 . S
C1185 C1169 1.349 . S
C1185 H1177 0.950 . S
C1185 C1183 1.327 . S
C1186 C1174 1.349 . S
C1186 H1180 0.950 . S
C1186 C1187 1.327 . S
C1187 H1181 0.950 . S
C1187 C1186 1.327 . S
C1187 C1191 1.429 . S
C1188 C1171 1.574 . S
C1188 H1182 0.949 . S
C1188 C1192 1.368 . S
C1189 C1170 1.429 . S
C1189 C1183 1.429 . S
C1189 C1190 1.523 . S
C1190 C1171 1.368 . S
C1190 C1184 1.368 . S
C1190 C1189 1.523 . S
C1191 C1175 1.429 . S
C1191 C1187 1.429 . S
C1191 C1192 1.523 . S
C1192 C1176 1.368 . S
C1192 C1188 1.368 . S
C1192 C1191 1.523 . S
H1193 C1168 0.950 . S
H1194 C1170 0.950 . S
H1195 C1171 0.949 . S
H1196 C1173 0.950 . S
H1197 C1175 0.950 . S
C1198 C1199 1.349 . S
C1198 C1200 1.327 . S
C1198 H1223 0.950 . S
C1199 C1198 1.349 . S
C1199 C1215 1.349 . S
C1200 C1198 1.327 . S
C1200 C1219 1.429 . S
C1200 H1224 0.950 . S
C1201 C1218 1.574 . S
C1201 C1220 1.368 . S
C1201 H1225 0.949 . S
H1202 C1206 0.949 . S
C1203 C1204 1.349 . S
C1203 C1205 1.327 . S
C1203 H1226 0.950 . S
C1204 C1203 1.349 . S
C1204 C1216 1.349 . S
C1205 C1203 1.327 . S
C1205 C1221 1.429 . S
C1205 H1227 0.950 . S
C1206 H1202 0.949 . S
C1206 C1214 1.574 . S
C1206 C1222 1.368 . S
H1207 C1215 0.950 . S
H1208 C1213 0.950 . S
H1209 C1214 0.949 . S
H1210 C1216 0.950 1_455 S
H1211 C1217 0.950 . S
H1212 C1218 0.949 . S
C1213 H1208 0.950 . S
C1213 C1215 1.327 . S
C1213 C1219 1.429 . S
C1214 C1206 1.574 . S
C1214 H1209 0.949 . S
C1214 C1220 1.368 . S
C1215 C1199 1.349 . S
C1215 H1207 0.950 . S
C1215 C1213 1.327 . S
C1216 C1204 1.349 . S
C1216 H1210 0.950 1_655 S
C1216 C1217 1.327 . S
C1217 H1211 0.950 . S
C1217 C1216 1.327 . S
C1217 C1221 1.429 . S
C1218 C1201 1.574 . S
C1218 H1212 0.949 . S
C1218 C1222 1.368 . S
C1219 C1200 1.429 . S
C1219 C1213 1.429 . S
C1219 C1220 1.523 . S
C1220 C1201 1.368 . S
C1220 C1214 1.368 . S
C1220 C1219 1.523 . S
C1221 C1205 1.429 . S
C1221 C1217 1.429 . S
C1221 C1222 1.523 . S
C1222 C1206 1.368 . S
C1222 C1218 1.368 . S
C1222 C1221 1.523 . S
H1223 C1198 0.950 . S
H1224 C1200 0.950 . S
H1225 C1201 0.949 . S
H1226 C1203 0.950 . S
H1227 C1205 0.950 . S
C1228 C1229 1.349 . S
C1228 C1230 1.327 . S
C1228 H1253 0.950 . S
C1229 C1228 1.349 . S
C1229 C1245 1.349 . S
C1230 C1228 1.327 . S
C1230 C1249 1.429 . S
C1230 H1254 0.950 . S
C1231 C1248 1.574 . S
C1231 C1250 1.368 . S
C1231 H1255 0.949 . S
H1232 C1236 0.949 . S
C1233 C1234 1.349 . S
C1233 C1235 1.327 . S
C1233 H1256 0.950 . S
C1234 C1233 1.349 . S
C1234 C1246 1.349 . S
C1235 C1233 1.327 . S
C1235 C1251 1.429 . S
C1235 H1257 0.950 . S
C1236 H1232 0.949 . S
C1236 C1244 1.574 . S
C1236 C1252 1.368 . S
H1237 C1245 0.950 . S
H1238 C1243 0.950 . S
H1239 C1244 0.949 . S
H1240 C1246 0.950 . S
H1241 C1247 0.950 . S
H1242 C1248 0.949 . S
C1243 H1238 0.950 . S
C1243 C1245 1.327 . S
C1243 C1249 1.429 . S
C1244 C1236 1.574 . S
C1244 H1239 0.949 . S
C1244 C1250 1.368 . S
C1245 C1229 1.349 . S
C1245 H1237 0.950 . S
C1245 C1243 1.327 . S
C1246 C1234 1.349 . S
C1246 H1240 0.950 . S
C1246 C1247 1.327 . S
C1247 H1241 0.950 . S
C1247 C1246 1.327 . S
C1247 C1251 1.429 . S
C1248 C1231 1.574 . S
C1248 H1242 0.949 . S
C1248 C1252 1.368 . S
C1249 C1230 1.429 . S
C1249 C1243 1.429 . S
C1249 C1250 1.523 . S
C1250 C1231 1.368 . S
C1250 C1244 1.368 . S
C1250 C1249 1.523 . S
C1251 C1235 1.429 . S
C1251 C1247 1.429 . S
C1251 C1252 1.523 . S
C1252 C1236 1.368 . S
C1252 C1248 1.368 . S
C1252 C1251 1.523 . S
H1253 C1228 0.950 . S
H1254 C1230 0.950 . S
H1255 C1231 0.949 . S
H1256 C1233 0.950 . S
H1257 C1235 0.950 . S
C1258 C1259 1.349 . S
C1258 C1260 1.327 . S
C1258 H1283 0.950 . S
C1259 C1258 1.349 . S
C1259 C1275 1.349 . S
C1260 C1258 1.327 . S
C1260 C1279 1.429 . S
C1260 H1284 0.950 . S
C1261 C1278 1.574 . S
C1261 C1280 1.368 . S
C1261 H1285 0.949 . S
H1262 C1266 0.949 . S
C1263 C1264 1.349 . S
C1263 C1265 1.327 . S
C1263 H1286 0.950 . S
C1264 C1263 1.349 . S
C1264 C1276 1.349 . S
C1265 C1263 1.327 . S
C1265 C1281 1.429 . S
C1265 H1287 0.950 . S
C1266 H1262 0.949 . S
C1266 C1274 1.574 . S
C1266 C1282 1.368 . S
H1267 C1275 0.950 . S
H1268 C1273 0.950 . S
H1269 C1274 0.949 . S
H1270 C1276 0.950 . S
H1271 C1277 0.950 . S
H1272 C1278 0.949 . S
C1273 H1268 0.950 . S
C1273 C1275 1.327 . S
C1273 C1279 1.429 . S
C1274 C1266 1.574 . S
C1274 H1269 0.949 . S
C1274 C1280 1.368 . S
C1275 C1259 1.349 . S
C1275 H1267 0.950 . S
C1275 C1273 1.327 . S
C1276 C1264 1.349 . S
C1276 H1270 0.950 . S
C1276 C1277 1.327 . S
C1277 H1271 0.950 . S
C1277 C1276 1.327 . S
C1277 C1281 1.429 . S
C1278 C1261 1.574 . S
C1278 H1272 0.949 . S
C1278 C1282 1.368 . S
C1279 C1260 1.429 . S
C1279 C1273 1.429 . S
C1279 C1280 1.523 . S
C1280 C1261 1.368 . S
C1280 C1274 1.368 . S
C1280 C1279 1.523 . S
C1281 C1265 1.429 . S
C1281 C1277 1.429 . S
C1281 C1282 1.523 . S
C1282 C1266 1.368 . S
C1282 C1278 1.368 . S
C1282 C1281 1.523 . S
H1283 C1258 0.950 . S
H1284 C1260 0.950 . S
H1285 C1261 0.949 . S
H1286 C1263 0.950 . S
H1287 C1265 0.950 . S
C1288 C1289 1.349 . S
C1288 C1290 1.327 . S
C1288 H1313 0.950 . S
C1289 C1288 1.349 . S
C1289 C1305 1.349 . S
C1290 C1288 1.327 . S
C1290 C1309 1.429 . S
C1290 H1314 0.950 . S
C1291 C1308 1.574 . S
C1291 C1310 1.368 . S
C1291 H1315 0.949 . S
H1292 C1296 0.949 . S
C1293 C1294 1.349 . S
C1293 C1295 1.327 . S
C1293 H1316 0.950 . S
C1294 C1293 1.349 . S
C1294 C1306 1.349 . S
C1295 C1293 1.327 . S
C1295 C1311 1.429 . S
C1295 H1317 0.950 . S
C1296 H1292 0.949 . S
C1296 C1304 1.574 . S
C1296 C1312 1.368 . S
H1297 C1305 0.950 . S
H1298 C1303 0.950 . S
H1299 C1304 0.949 . S
H1300 C1306 0.950 . S
H1301 C1307 0.950 . S
H1302 C1308 0.949 . S
C1303 H1298 0.950 . S
C1303 C1305 1.327 . S
C1303 C1309 1.429 . S
C1304 C1296 1.574 . S
C1304 H1299 0.949 . S
C1304 C1310 1.368 . S
C1305 C1289 1.349 . S
C1305 H1297 0.950 . S
C1305 C1303 1.327 . S
C1306 C1294 1.349 . S
C1306 H1300 0.950 . S
C1306 C1307 1.327 . S
C1307 H1301 0.950 . S
C1307 C1306 1.327 . S
C1307 C1311 1.429 . S
C1308 C1291 1.574 . S
C1308 H1302 0.949 . S
C1308 C1312 1.368 . S
C1309 C1290 1.429 . S
C1309 C1303 1.429 . S
C1309 C1310 1.523 . S
C1310 C1291 1.368 . S
C1310 C1304 1.368 . S
C1310 C1309 1.523 . S
C1311 C1295 1.429 . S
C1311 C1307 1.429 . S
C1311 C1312 1.523 . S
C1312 C1296 1.368 . S
C1312 C1308 1.368 . S
C1312 C1311 1.523 . S
H1313 C1288 0.950 . S
H1314 C1290 0.950 . S
H1315 C1291 0.949 . S
H1316 C1293 0.950 . S
H1317 C1295 0.950 . S
C1318 C1319 1.349 . S
C1318 C1320 1.327 . S
C1318 H1343 0.950 . S
C1319 C1318 1.349 . S
C1319 C1335 1.349 . S
C1320 C1318 1.327 . S
C1320 C1339 1.429 . S
C1320 H1344 0.950 . S
C1321 C1338 1.574 . S
C1321 C1340 1.368 . S
C1321 H1345 0.949 . S
H1322 C1326 0.949 . S
C1323 C1324 1.349 . S
C1323 C1325 1.327 . S
C1323 H1346 0.950 . S
C1324 C1323 1.349 . S
C1324 C1336 1.349 . S
C1325 C1323 1.327 . S
C1325 C1341 1.429 . S
C1325 H1347 0.950 . S
C1326 H1322 0.949 . S
C1326 C1334 1.574 . S
C1326 C1342 1.368 . S
H1327 C1335 0.950 . S
H1328 C1333 0.950 . S
H1329 C1334 0.949 . S
H1330 C1336 0.950 . S
H1331 C1337 0.950 . S
H1332 C1338 0.949 . S
C1333 H1328 0.950 . S
C1333 C1335 1.327 . S
C1333 C1339 1.429 . S
C1334 C1326 1.574 . S
C1334 H1329 0.949 . S
C1334 C1340 1.368 . S
C1335 C1319 1.349 . S
C1335 H1327 0.950 . S
C1335 C1333 1.327 . S
C1336 C1324 1.349 . S
C1336 H1330 0.950 . S
C1336 C1337 1.327 . S
C1337 H1331 0.950 . S
C1337 C1336 1.327 . S
C1337 C1341 1.429 . S
C1338 C1321 1.574 . S
C1338 H1332 0.949 . S
C1338 C1342 1.368 . S
C1339 C1320 1.429 . S
C1339 C1333 1.429 . S
C1339 C1340 1.523 . S
C1340 C1321 1.368 . S
C1340 C1334 1.368 . S
C1340 C1339 1.523 . S
C1341 C1325 1.429 . S
C1341 C1337 1.429 . S
C1341 C1342 1.523 . S
C1342 C1326 1.368 . S
C1342 C1338 1.368 . S
C1342 C1341 1.523 . S
H1343 C1318 0.950 . S
H1344 C1320 0.950 . S
H1345 C1321 0.949 . S
H1346 C1323 0.950 . S
H1347 C1325 0.950 . S
C1348 C1349 1.349 . S
C1348 C1350 1.327 . S
C1348 H1373 0.950 . S
C1349 C1348 1.349 . S
C1349 C1365 1.349 . S
C1350 C1348 1.327 . S
C1350 C1369 1.429 . S
C1350 H1374 0.950 . S
C1351 C1368 1.574 . S
C1351 C1370 1.368 . S
C1351 H1375 0.949 . S
H1352 C1356 0.949 . S
C1353 C1354 1.349 . S
C1353 C1355 1.327 . S
C1353 H1376 0.950 . S
C1354 C1353 1.349 . S
C1354 C1366 1.349 . S
C1355 C1353 1.327 . S
C1355 C1371 1.429 . S
C1355 H1377 0.950 . S
C1356 H1352 0.949 . S
C1356 C1364 1.574 . S
C1356 C1372 1.368 . S
H1357 C1365 0.950 . S
H1358 C1363 0.950 . S
H1359 C1364 0.949 . S
H1360 C1366 0.950 . S
H1361 C1367 0.950 . S
H1362 C1368 0.949 . S
C1363 H1358 0.950 . S
C1363 C1365 1.327 . S
C1363 C1369 1.429 . S
C1364 C1356 1.574 . S
C1364 H1359 0.949 . S
C1364 C1370 1.368 . S
C1365 C1349 1.349 . S
C1365 H1357 0.950 . S
C1365 C1363 1.327 . S
C1366 C1354 1.349 . S
C1366 H1360 0.950 . S
C1366 C1367 1.327 . S
C1367 H1361 0.950 . S
C1367 C1366 1.327 . S
C1367 C1371 1.429 . S
C1368 C1351 1.574 . S
C1368 H1362 0.949 . S
C1368 C1372 1.368 . S
C1369 C1350 1.429 . S
C1369 C1363 1.429 . S
C1369 C1370 1.523 . S
C1370 C1351 1.368 . S
C1370 C1364 1.368 . S
C1370 C1369 1.523 . S
C1371 C1355 1.429 . S
C1371 C1367 1.429 . S
C1371 C1372 1.523 . S
C1372 C1356 1.368 . S
C1372 C1368 1.368 . S
C1372 C1371 1.523 . S
H1373 C1348 0.950 . S
H1374 C1350 0.950 . S
H1375 C1351 0.949 . S
H1376 C1353 0.950 . S
H1377 C1355 0.950 . S
C1378 C1379 1.349 . S
C1378 C1380 1.327 . S
C1378 H1403 0.950 . S
C1379 C1378 1.349 . S
C1379 C1395 1.349 . S
C1380 C1378 1.327 . S
C1380 C1399 1.429 . S
C1380 H1404 0.950 . S
C1381 C1398 1.574 . S
C1381 C1400 1.368 . S
C1381 H1405 0.949 . S
H1382 C1386 0.949 . S
C1383 C1384 1.349 . S
C1383 C1385 1.327 . S
C1383 H1406 0.950 . S
C1384 C1383 1.349 . S
C1384 C1396 1.349 . S
C1385 C1383 1.327 . S
C1385 C1401 1.429 . S
C1385 H1407 0.950 . S
C1386 H1382 0.949 . S
C1386 C1394 1.574 . S
C1386 C1402 1.368 . S
H1387 C1395 0.950 . S
H1388 C1393 0.950 . S
H1389 C1394 0.949 . S
H1390 C1396 0.950 . S
H1391 C1397 0.950 . S
H1392 C1398 0.949 . S
C1393 H1388 0.950 . S
C1393 C1395 1.327 . S
C1393 C1399 1.429 . S
C1394 C1386 1.574 . S
C1394 H1389 0.949 . S
C1394 C1400 1.368 . S
C1395 C1379 1.349 . S
C1395 H1387 0.950 . S
C1395 C1393 1.327 . S
C1396 C1384 1.349 . S
C1396 H1390 0.950 . S
C1396 C1397 1.327 . S
C1397 H1391 0.950 . S
C1397 C1396 1.327 . S
C1397 C1401 1.429 . S
C1398 C1381 1.574 . S
C1398 H1392 0.949 . S
C1398 C1402 1.368 . S
C1399 C1380 1.429 . S
C1399 C1393 1.429 . S
C1399 C1400 1.523 . S
C1400 C1381 1.368 . S
C1400 C1394 1.368 . S
C1400 C1399 1.523 . S
C1401 C1385 1.429 . S
C1401 C1397 1.429 . S
C1401 C1402 1.523 . S
C1402 C1386 1.368 . S
C1402 C1398 1.368 . S
C1402 C1401 1.523 . S
H1403 C1378 0.950 . S
H1404 C1380 0.950 . S
H1405 C1381 0.949 . S
H1406 C1383 0.950 . S
H1407 C1385 0.950 . S
C1408 C1409 1.349 . S
C1408 C1410 1.327 . S
C1408 H1433 0.950 . S
C1409 C1408 1.349 . S
C1409 C1425 1.349 . S
C1410 C1408 1.327 . S
C1410 C1429 1.429 . S
C1410 H1434 0.950 . S
C1411 C1428 1.574 . S
C1411 C1430 1.368 . S
C1411 H1435 0.949 . S
H1412 C1416 0.949 . S
C1413 C1414 1.349 . S
C1413 C1415 1.327 . S
C1413 H1436 0.950 . S
C1414 C1413 1.349 . S
C1414 C1426 1.349 . S
C1415 C1413 1.327 . S
C1415 C1431 1.429 . S
C1415 H1437 0.950 . S
C1416 H1412 0.949 . S
C1416 C1424 1.574 . S
C1416 C1432 1.368 . S
H1417 C1425 0.950 . S
H1418 C1423 0.950 . S
H1419 C1424 0.949 . S
H1420 C1426 0.950 . S
H1421 C1427 0.950 . S
H1422 C1428 0.949 . S
C1423 H1418 0.950 . S
C1423 C1425 1.327 . S
C1423 C1429 1.429 . S
C1424 C1416 1.574 . S
C1424 H1419 0.949 . S
C1424 C1430 1.368 . S
C1425 C1409 1.349 . S
C1425 H1417 0.950 . S
C1425 C1423 1.327 . S
C1426 C1414 1.349 . S
C1426 H1420 0.950 . S
C1426 C1427 1.327 . S
C1427 H1421 0.950 . S
C1427 C1426 1.327 . S
C1427 C1431 1.429 . S
C1428 C1411 1.574 . S
C1428 H1422 0.949 . S
C1428 C1432 1.368 . S
C1429 C1410 1.429 . S
C1429 C1423 1.429 . S
C1429 C1430 1.523 . S
C1430 C1411 1.368 . S
C1430 C1424 1.368 . S
C1430 C1429 1.523 . S
C1431 C1415 1.429 . S
C1431 C1427 1.429 . S
C1431 C1432 1.523 . S
C1432 C1416 1.368 . S
C1432 C1428 1.368 . S
C1432 C1431 1.523 . S
H1433 C1408 0.950 . S
H1434 C1410 0.950 . S
H1435 C1411 0.949 . S
H1436 C1413 0.950 . S
H1437 C1415 0.950 . S
C1438 C1439 1.349 . S
C1438 C1440 1.327 . S
C1438 H1463 0.950 . S
C1439 C1438 1.349 . S
C1439 C1455 1.349 . S
C1440 C1438 1.327 . S
C1440 C1459 1.429 . S
C1440 H1464 0.950 . S
C1441 C1458 1.574 . S
C1441 C1460 1.368 . S
C1441 H1465 0.949 . S
H1442 C1446 0.949 . S
C1443 C1444 1.349 . S
C1443 C1445 1.327 . S
C1443 H1466 0.950 . S
C1444 C1443 1.349 . S
C1444 C1456 1.349 . S
C1445 C1443 1.327 . S
C1445 C1461 1.429 . S
C1445 H1467 0.950 . S
C1446 H1442 0.949 . S
C1446 C1454 1.574 . S
C1446 C1462 1.368 . S
H1447 C1455 0.950 . S
H1448 C1453 0.950 . S
H1449 C1454 0.949 . S
H1450 C1456 0.950 . S
H1451 C1457 0.950 . S
H1452 C1458 0.949 . S
C1453 H1448 0.950 . S
C1453 C1455 1.327 . S
C1453 C1459 1.429 . S
C1454 C1446 1.574 . S
C1454 H1449 0.949 . S
C1454 C1460 1.368 . S
C1455 C1439 1.349 . S
C1455 H1447 0.950 . S
C1455 C1453 1.327 . S
C1456 C1444 1.349 . S
C1456 H1450 0.950 . S
C1456 C1457 1.327 . S
C1457 H1451 0.950 . S
C1457 C1456 1.327 . S
C1457 C1461 1.429 . S
C1458 C1441 1.574 . S
C1458 H1452 0.949 . S
C1458 C1462 1.368 . S
C1459 C1440 1.429 . S
C1459 C1453 1.429 . S
C1459 C1460 1.523 . S
C1460 C1441 1.368 . S
C1460 C1454 1.368 . S
C1460 C1459 1.523 . S
C1461 C1445 1.429 . S
C1461 C1457 1.429 . S
C1461 C1462 1.523 . S
C1462 C1446 1.368 . S
C1462 C1458 1.368 . S
C1462 C1461 1.523 . S
H1463 C1438 0.950 . S
H1464 C1440 0.950 . S
H1465 C1441 0.949 . S
H1466 C1443 0.950 . S
H1467 C1445 0.950 . S
C514 C444 1.828 . S
C509 C45 1.881 . S
C539 C78 1.789 . S
C544 C447 1.764 . S
C569 C126 1.765 . S
C574 C478 1.737 . S
C604 C413 1.801 . S
C599 C174 1.846 . S
C634 C448 1.829 . S
C629 C36 1.886 . S
C664 C479 1.805 . S
C659 C69 1.860 . S
C694 C404 1.743 . S
C689 C117 1.781 . S
C724 C435 1.766 . S
C719 C165 1.803 . S
C749 C30 1.222 . S
C754 C465 1.157 . S
C779 C228 1.215 . S
C784 C434 1.143 . S
C809 C141 1.126 . S
C814 C394 1.123 . S
C844 C487 1.138 . S
C839 C270 1.142 . S
C874 C415 1.156 . S
C869 C21 1.231 . S
C899 C237 1.145 . S
C904 C414 1.141 . S
C929 C132 1.139 . S
C934 C507 1.128 . S
C964 C446 1.145 . S
C959 C261 1.217 . S
C989 C333 1.879 . S
C994 C506 1.825 . S
C1019 C213 1.803 . S
C1024 C385 1.767 . S
C1049 C357 1.779 1_655 S
C1054 C416 1.741 . S
C1079 C285 1.855 . S
C1084 C475 1.799 . S
C1114 C386 1.831 . S
C1109 C324 1.888 . S
C1139 C222 1.846 . S
C1144 C417 1.802 . S
C1169 C366 1.767 1_655 S
C1174 C466 1.740 . S
C1204 C497 1.769 . S
C1199 C276 1.809 . S
C1229 C318 1.220 . S
C1234 C403 1.154 . S
C1259 C93 1.202 . S
C1264 C496 1.140 . S
C1289 C372 1.137 . S
C1294 C456 1.125 . S
C1324 C425 1.141 . S
C1319 C189 1.144 . S
C1354 C477 1.159 . S
C1349 C309 1.234 . S
C1384 C476 1.144 . S
C1379 C84 1.156 . S
C1414 C445 1.125 . S
C1409 C381 1.128 . S
C1444 C384 1.142 . S
C1439 C180 1.214 . S
