# Generated by pormake.
# Topology nom, (4,4)-cn, num edge types: 1
# Building blocks:
#     Node 0, Type 0, BuildingBlock: MUDLON_clean_linker_0, # of connection points: 4
#     Node 1, Type 0, BuildingBlock: MUDLON_clean_linker_0, # of connection points: 4
#     Node 2, Type 0, BuildingBlock: MUDLON_clean_linker_0, # of connection points: 4
#     Node 3, Type 0, BuildingBlock: MUDLON_clean_linker_0, # of connection points: 4
#     Node 4, Type 0, BuildingBlock: MUDLON_clean_linker_0, # of connection points: 4
#     Node 5, Type 0, BuildingBlock: MUDLON_clean_linker_0, # of connection points: 4
#     Node 6, Type 1, BuildingBlock: GALJAG_clean_sbu_0, # of connection points: 4
#     Node 7, Type 1, BuildingBlock: GALJAG_clean_sbu_0, # of connection points: 4
#     Node 8, Type 1, BuildingBlock: GALJAG_clean_sbu_0, # of connection points: 4
#     Node 9, Type 1, BuildingBlock: GALJAG_clean_sbu_0, # of connection points: 4
#     Node 10, Type 1, BuildingBlock: GALJAG_clean_sbu_0, # of connection points: 4
#     Node 11, Type 1, BuildingBlock: GALJAG_clean_sbu_0, # of connection points: 4
#     Edge 12, Type (0, 1), BuildingBlock: OJICUG_clean_linker_0, # of connection points: 2
#     Edge 13, Type (0, 1), BuildingBlock: OJICUG_clean_linker_0, # of connection points: 2
#     Edge 14, Type (0, 1), BuildingBlock: OJICUG_clean_linker_0, # of connection points: 2
#     Edge 15, Type (0, 1), BuildingBlock: OJICUG_clean_linker_0, # of connection points: 2
#     Edge 16, Type (0, 1), BuildingBlock: OJICUG_clean_linker_0, # of connection points: 2
#     Edge 17, Type (0, 1), BuildingBlock: OJICUG_clean_linker_0, # of connection points: 2
#     Edge 18, Type (0, 1), BuildingBlock: OJICUG_clean_linker_0, # of connection points: 2
#     Edge 19, Type (0, 1), BuildingBlock: OJICUG_clean_linker_0, # of connection points: 2
#     Edge 20, Type (0, 1), BuildingBlock: OJICUG_clean_linker_0, # of connection points: 2
#     Edge 21, Type (0, 1), BuildingBlock: OJICUG_clean_linker_0, # of connection points: 2
#     Edge 22, Type (0, 1), BuildingBlock: OJICUG_clean_linker_0, # of connection points: 2
#     Edge 23, Type (0, 1), BuildingBlock: OJICUG_clean_linker_0, # of connection points: 2
#     Edge 24, Type (0, 1), BuildingBlock: OJICUG_clean_linker_0, # of connection points: 2
#     Edge 25, Type (0, 1), BuildingBlock: OJICUG_clean_linker_0, # of connection points: 2
#     Edge 26, Type (0, 1), BuildingBlock: OJICUG_clean_linker_0, # of connection points: 2
#     Edge 27, Type (0, 1), BuildingBlock: OJICUG_clean_linker_0, # of connection points: 2
#     Edge 28, Type (0, 1), BuildingBlock: OJICUG_clean_linker_0, # of connection points: 2
#     Edge 29, Type (0, 1), BuildingBlock: OJICUG_clean_linker_0, # of connection points: 2
#     Edge 30, Type (0, 1), BuildingBlock: OJICUG_clean_linker_0, # of connection points: 2
#     Edge 31, Type (0, 1), BuildingBlock: OJICUG_clean_linker_0, # of connection points: 2
#     Edge 32, Type (0, 1), BuildingBlock: OJICUG_clean_linker_0, # of connection points: 2
#     Edge 33, Type (0, 1), BuildingBlock: OJICUG_clean_linker_0, # of connection points: 2
#     Edge 34, Type (0, 1), BuildingBlock: OJICUG_clean_linker_0, # of connection points: 2
#     Edge 35, Type (0, 1), BuildingBlock: OJICUG_clean_linker_0, # of connection points: 2
# Relax obj value: 0.016
# Max RMSD: 0.121
# Mean RMSD: 0.085
data_MOF--net-nom--node1-GALJAG_clean_sbu_0--node2-MUDLON_clean_linker_0--edge1-OJICUG_clean_linker_0
_symmetry_space_group_name_H-M    P1
_symmetry_Int_Tables_number       1
_symmetry_cell_setting            triclinic
loop_
_symmetry_equiv_pos_as_xyz
'x, y, z'
_cell_length_a     48.00368
_cell_length_b     48.871971
_cell_length_c     50.049535
_cell_angle_alpha  90.452397
_cell_angle_beta   89.799243
_cell_angle_gamma 120.7346
loop_
_atom_site_label
_atom_site_type_symbol
_atom_site_fract_x
_atom_site_fract_y
_atom_site_fract_z
_atom_type_partial_charge
H0 H 0.1384 0.58473 0.31601 0.0
N1 N 0.12031 0.6185 0.34785 0.0
H2 H 0.1843 0.60721 0.28472 0.0
H3 H 0.15763 0.67901 0.3346 0.0
H4 H 0.20308 0.70169 0.30319 0.0
H5 H 0.1271 0.6522 0.3916 0.0
H6 H 0.14725 0.64783 0.43517 0.0
H7 H 0.13389 0.57271 0.36233 0.0
H8 H 0.15301 0.56732 0.40604 0.0
H9 H 0.08136 0.55363 0.34458 0.0
H10 H 0.08524 0.64231 0.33048 0.0
H11 H 0.02463 0.52426 0.33058 0.0
H12 H 0.02941 0.61351 0.3147 0.0
H13 H 0.87135 0.44356 0.27096 0.0
H14 H 0.85289 0.41776 0.22729 0.0
H15 H 0.87565 0.50781 0.19316 0.0
H16 H 0.8939 0.53335 0.23701 0.0
H17 H 0.85031 0.52628 0.29163 0.0
H18 H 0.80346 0.50379 0.32169 0.0
H19 H 0.82555 0.43263 0.34689 0.0
H20 H 0.87306 0.45599 0.31719 0.0
H21 H 0.93249 0.48256 0.27885 0.0
H22 H 0.98841 0.50912 0.29457 0.0
H23 H 0.97671 0.58383 0.3297 0.0
N24 N 0.8909 0.50557 0.28311 0.0
H25 H 0.9218 0.55833 0.31208 0.0
C26 C 0.14512 0.63043 0.32779 0.0
C27 C 0.15244 0.61023 0.31322 0.0
C28 C 0.17853 0.62308 0.29534 0.0
C29 C 0.19722 0.6562 0.29151 0.0
C30 C 0.18889 0.67608 0.30543 0.0
C31 C 0.16315 0.66327 0.32347 0.0
C32 C 0.12886 0.6128 0.37386 0.0
C33 C 0.13231 0.63337 0.39484 0.0
C34 C 0.14367 0.63068 0.41973 0.0
C35 C 0.15175 0.60715 0.42418 0.0
C36 C 0.14739 0.58592 0.40323 0.0
C37 C 0.13615 0.58878 0.37826 0.0
C38 C 0.08723 0.60022 0.33905 0.0
C39 C 0.07001 0.56679 0.33842 0.0
C40 C 0.03759 0.55001 0.3301 0.0
C41 C 0.02207 0.5664 0.32177 0.0
C42 C 0.03999 0.59992 0.32172 0.0
C43 C 0.07204 0.61653 0.33048 0.0
C44 C 0.8837 0.49041 0.25721 0.0
C45 C 0.87263 0.4578 0.25407 0.0
C46 C 0.86206 0.44306 0.22909 0.0
C47 C 0.86269 0.46071 0.20682 0.0
C48 C 0.8752 0.49361 0.20985 0.0
C49 C 0.88551 0.50824 0.23485 0.0
C50 C 0.86472 0.49256 0.30203 0.0
C51 C 0.84516 0.50605 0.30388 0.0
C52 C 0.81861 0.49329 0.3211 0.0
C53 C 0.81096 0.46649 0.33657 0.0
C54 C 0.83088 0.45318 0.33502 0.0
C55 C 0.85785 0.46637 0.31806 0.0
C56 C 0.92313 0.5189 0.29381 0.0
C57 C 0.94201 0.50475 0.28975 0.0
C58 C 0.97402 0.51987 0.29905 0.0
C59 C 0.98748 0.54901 0.3131 0.0
C60 C 0.96776 0.56206 0.31822 0.0
C61 C 0.93618 0.54736 0.30843 0.0
H62 H 0.42898 0.87275 0.469 0.0
N63 N 0.39335 0.89654 0.44769 0.0
H64 H 0.40922 0.828 0.49968 0.0
H65 H 0.33622 0.86652 0.47176 0.0
H66 H 0.31582 0.82116 0.50196 0.0
H67 H 0.34978 0.87254 0.40899 0.0
H68 H 0.35532 0.85394 0.36491 0.0
H69 H 0.44849 0.90076 0.42757 0.0
H70 H 0.45445 0.88234 0.38336 0.0
H71 H 0.45403 0.92896 0.46984 0.0
H72 H 0.37424 0.93825 0.44265 0.0
H73 H 0.48348 0.98513 0.48329 0.0
H74 H 0.40322 0.99428 0.45625 0.0
H75 H 0.55601 0.13117 0.52572 0.0
H76 H 0.58274 0.14876 0.56921 0.0
H77 H 0.49828 0.14799 0.60055 0.0
H78 H 0.47169 0.12988 0.55713 0.0
H79 H 0.4733 0.1595 0.5042 0.0
H80 H 0.49807 0.20837 0.47785 0.0
H81 H 0.5754 0.19219 0.455 0.0
H82 H 0.55018 0.14312 0.48126 0.0
H83 H 0.49892 0.0712 0.53594 0.0
H84 H 0.47762 0.01823 0.51796 0.0
H85 H 0.45039 0.04573 0.44539 0.0
N86 N 0.49602 0.12094 0.51254 0.0
H87 H 0.47129 0.09902 0.46335 0.0
C88 C 0.38393 0.87289 0.46811 0.0
C89 C 0.40451 0.86209 0.47653 0.0
C90 C 0.39307 0.83631 0.49395 0.0
C91 C 0.36085 0.82082 0.50316 0.0
C92 C 0.34086 0.83272 0.49557 0.0
C93 C 0.35236 0.8585 0.47822 0.0
C94 C 0.39858 0.88793 0.42144 0.0
C95 C 0.37276 0.87501 0.40334 0.0
C96 C 0.37607 0.86457 0.37818 0.0
C97 C 0.4054 0.86679 0.3706 0.0
C98 C 0.4315 0.88011 0.38871 0.0
C99 C 0.42816 0.89073 0.41393 0.0
C100 C 0.41182 0.9295 0.45538 0.0
C101 C 0.44287 0.94308 0.46673 0.0
C102 C 0.45964 0.97518 0.47445 0.0
C103 C 0.44574 0.99419 0.47075 0.0
C104 C 0.41487 0.98049 0.45898 0.0
C105 C 0.39815 0.94848 0.4514 0.0
C106 C 0.5118 0.12928 0.53828 0.0
C107 C 0.54329 0.13474 0.54199 0.0
C108 C 0.55853 0.14479 0.56688 0.0
C109 C 0.54266 0.14975 0.58842 0.0
C110 C 0.51101 0.14383 0.58461 0.0
C111 C 0.49581 0.13368 0.5598 0.0
C112 C 0.50997 0.14792 0.49485 0.0
C113 C 0.49535 0.16635 0.49319 0.0
C114 C 0.50946 0.19412 0.47805 0.0
C115 C 0.53873 0.20415 0.4644 0.0
C116 C 0.55303 0.18522 0.46555 0.0
C117 C 0.5387 0.15723 0.48055 0.0
C118 C 0.48831 0.0905 0.50075 0.0
C119 C 0.48956 0.06676 0.51577 0.0
C120 C 0.47715 0.03601 0.50549 0.0
C121 C 0.46243 0.02778 0.48022 0.0
C122 C 0.4615 0.0513 0.465 0.0
C123 C 0.47394 0.08206 0.47521 0.0
H124 H 0.43033 0.57932 0.67111 0.0
N125 N 0.3995 0.51654 0.68588 0.0
H126 H 0.40893 0.6037 0.64181 0.0
H127 H 0.34511 0.48734 0.6576 0.0
H128 H 0.32273 0.51178 0.62893 0.0
H129 H 0.35485 0.49549 0.72386 0.0
H130 H 0.35932 0.51797 0.76858 0.0
H131 H 0.45424 0.56673 0.70784 0.0
H132 H 0.45903 0.58939 0.75257 0.0
H133 H 0.4563 0.55168 0.65775 0.0
H134 H 0.39482 0.46117 0.69543 0.0
H135 H 0.49399 0.5347 0.64475 0.0
H136 H 0.43334 0.44441 0.68367 0.0
H137 H 0.61627 0.46573 0.61608 0.0
H138 H 0.62957 0.45917 0.57033 0.0
H139 H 0.53142 0.42866 0.54618 0.0
H140 H 0.5179 0.43319 0.59199 0.0
H141 H 0.52306 0.38671 0.62222 0.0
H142 H 0.52579 0.34344 0.64378 0.0
H143 H 0.5904 0.40934 0.70356 0.0
H144 H 0.58776 0.45272 0.68169 0.0
H145 H 0.57166 0.50761 0.65031 0.0
H146 H 0.53325 0.52442 0.66252 0.0
H147 H 0.45379 0.42876 0.64745 0.0
N148 N 0.55865 0.44994 0.63579 0.0
H149 H 0.49238 0.41207 0.63653 0.0
C150 C 0.38927 0.53132 0.66651 0.0
C151 C 0.40717 0.56423 0.66158 0.0
C152 C 0.39472 0.57824 0.64495 0.0
C153 C 0.36394 0.55979 0.63316 0.0
C154 C 0.34666 0.5267 0.63737 0.0
C155 C 0.35929 0.51268 0.65385 0.0
C156 C 0.40403 0.52939 0.71257 0.0
C157 C 0.37772 0.51578 0.73017 0.0
C158 C 0.38041 0.52857 0.75571 0.0
C159 C 0.40958 0.55543 0.76412 0.0
C160 C 0.43619 0.56884 0.74657 0.0
C161 C 0.4335 0.55587 0.72102 0.0
C162 C 0.42232 0.50741 0.6773 0.0
C163 C 0.45077 0.5281 0.66323 0.0
C164 C 0.47262 0.51844 0.65604 0.0
C165 C 0.4668 0.48813 0.66312 0.0
C166 C 0.4384 0.46766 0.67738 0.0
C167 C 0.41642 0.47722 0.68428 0.0
C168 C 0.56626 0.45016 0.60776 0.0
C169 C 0.59779 0.45804 0.60078 0.0
C170 C 0.60535 0.45439 0.57451 0.0
C171 C 0.58154 0.44318 0.55438 0.0
C172 C 0.55025 0.43666 0.56117 0.0
C173 C 0.54255 0.4397 0.58756 0.0
C174 C 0.55568 0.42312 0.65021 0.0
C175 C 0.53736 0.3918 0.64021 0.0
C176 C 0.53896 0.36709 0.65252 0.0
C177 C 0.5585 0.37313 0.6752 0.0
C178 C 0.57498 0.40398 0.68621 0.0
C179 C 0.57363 0.42876 0.67372 0.0
C180 C 0.53503 0.45874 0.64253 0.0
C181 C 0.54593 0.49036 0.64974 0.0
C182 C 0.52389 0.49992 0.65649 0.0
C183 C 0.49032 0.47799 0.65591 0.0
C184 C 0.47943 0.44622 0.64856 0.0
C185 C 0.50152 0.43663 0.64213 0.0
H186 H 0.15318 0.5823 0.79965 0.0
N187 N 0.11727 0.51917 0.78544 0.0
H188 H 0.20043 0.60659 0.82882 0.0
H189 H 0.13943 0.48953 0.81509 0.0
H190 H 0.18735 0.51379 0.84398 0.0
H191 H 0.14132 0.49811 0.74829 0.0
H192 H 0.16174 0.52059 0.70409 0.0
H193 H 0.11498 0.56897 0.76304 0.0
H194 H 0.13519 0.59159 0.71878 0.0
H195 H 0.09819 0.55462 0.815 0.0
H196 H 0.06338 0.46549 0.7732 0.0
H197 H 0.04299 0.53899 0.82717 0.0
H198 H 0.00767 0.45027 0.78396 0.0
H199 H 0.8522 0.47781 0.85362 0.0
H200 H 0.83107 0.46948 0.89908 0.0
H201 H 0.88659 0.42527 0.9191 0.0
H202 H 0.90558 0.43165 0.87343 0.0
H203 H 0.85776 0.39322 0.83671 0.0
H204 H 0.81125 0.3546 0.8102 0.0
H205 H 0.81739 0.43115 0.76307 0.0
H206 H 0.86419 0.46969 0.78962 0.0
H207 H 0.93844 0.51592 0.82126 0.0
H208 H 0.99419 0.53153 0.80983 0.0
H209 H 0.96982 0.43375 0.81868 0.0
N210 N 0.88945 0.45809 0.83203 0.0
H211 H 0.91411 0.41836 0.82856 0.0
C212 C 0.14272 0.53393 0.80513 0.0
C213 C 0.16001 0.56704 0.80958 0.0
C214 C 0.18724 0.58098 0.82617 0.0
C215 C 0.19787 0.56218 0.83855 0.0
C216 C 0.17966 0.52895 0.835 0.0
C217 C 0.15236 0.51503 0.81844 0.0
C218 C 0.12672 0.53179 0.75889 0.0
C219 C 0.13961 0.51829 0.74178 0.0
C220 C 0.1511 0.53109 0.71654 0.0
C221 C 0.15002 0.55785 0.70793 0.0
C222 C 0.13659 0.57114 0.72496 0.0
C223 C 0.12492 0.55816 0.75021 0.0
C224 C 0.08503 0.51089 0.79347 0.0
C225 C 0.07875 0.53164 0.80842 0.0
C226 C 0.04693 0.52277 0.81513 0.0
C227 C 0.02068 0.49329 0.80663 0.0
C228 C 0.02716 0.47284 0.7914 0.0
C229 C 0.05897 0.48154 0.78505 0.0
C230 C 0.88065 0.45569 0.85992 0.0
C231 C 0.85997 0.46658 0.86796 0.0
C232 C 0.84809 0.46195 0.89406 0.0
C233 C 0.85701 0.44662 0.91297 0.0
C234 C 0.8786 0.43659 0.90507 0.0
C235 C 0.88994 0.44066 0.8788 0.0
C236 C 0.86446 0.43441 0.81502 0.0
C237 C 0.84965 0.40164 0.82026 0.0
C238 C 0.82307 0.37958 0.80508 0.0
C239 C 0.81065 0.38991 0.78464 0.0
C240 C 0.82631 0.42256 0.77883 0.0
C241 C 0.85303 0.44454 0.79385 0.0
C242 C 0.92213 0.46615 0.82584 0.0
C243 C 0.94527 0.49796 0.82064 0.0
C244 C 0.97717 0.50682 0.81434 0.0
C245 C 0.9867 0.48395 0.81339 0.0
C246 C 0.96336 0.45198 0.81875 0.0
C247 C 0.93138 0.44312 0.82465 0.0
H248 H 0.58194 0.15541 0.97182 0.0
N249 N 0.6163 0.12957 0.95125 0.0
H250 H 0.60326 0.20223 0.00097 0.0
H251 H 0.67363 0.15949 0.97507 0.0
H252 H 0.69551 0.20673 0.00379 0.0
H253 H 0.6597 0.15262 0.91245 0.0
H254 H 0.65376 0.16961 0.86811 0.0
H255 H 0.56095 0.12435 0.93106 0.0
H256 H 0.55453 0.14113 0.88652 0.0
H257 H 0.55715 0.09872 0.97599 0.0
H258 H 0.63376 0.08681 0.94403 0.0
H259 H 0.52735 0.04262 0.98931 0.0
H260 H 0.60432 0.03086 0.95721 0.0
H261 H 0.45556 0.8969 0.02887 0.0
H262 H 0.42923 0.87745 0.0722 0.0
H263 H 0.51268 0.87396 0.09962 0.0
H264 H 0.53889 0.894 0.05645 0.0
H265 H 0.53834 0.86841 0.00264 0.0
H266 H 0.513 0.81896 0.97651 0.0
H267 H 0.43262 0.83202 0.95839 0.0
H268 H 0.4584 0.88169 0.98446 0.0
H269 H 0.51479 0.95588 0.03964 0.0
H270 H 0.53541 0.00895 0.02262 0.0
H271 H 0.55462 0.9801 0.94642 0.0
N272 N 0.5144 0.90556 0.01359 0.0
H273 H 0.53417 0.92673 0.96323 0.0
C274 C 0.62635 0.15406 0.9713 0.0
C275 C 0.60648 0.16603 0.9792 0.0
C276 C 0.6188 0.19297 0.99572 0.0
C277 C 0.65118 0.2084 0.00457 0.0
C278 C 0.67038 0.19528 0.99765 0.0
C279 C 0.65802 0.16839 0.98117 0.0
C280 C 0.6109 0.13734 0.92489 0.0
C281 C 0.63662 0.1498 0.90674 0.0
C282 C 0.63308 0.15931 0.88143 0.0
C283 C 0.60359 0.15657 0.87375 0.0
C284 C 0.57759 0.14372 0.89194 0.0
C285 C 0.58118 0.13406 0.91733 0.0
C286 C 0.59783 0.09685 0.95923 0.0
C287 C 0.56755 0.08405 0.97186 0.0
C288 C 0.55056 0.05201 0.97944 0.0
C289 C 0.56342 0.03229 0.97418 0.0
C290 C 0.5935 0.04524 0.96117 0.0
C291 C 0.61048 0.07719 0.95383 0.0
C292 C 0.49925 0.89686 0.03954 0.0
C293 C 0.46818 0.8921 0.0443 0.0
C294 C 0.45317 0.88095 0.06906 0.0
C295 C 0.46882 0.87411 0.08942 0.0
C296 C 0.50014 0.87951 0.08464 0.0
C297 C 0.51513 0.89079 0.05996 0.0
C298 C 0.50023 0.87852 0.99563 0.0
C299 C 0.51552 0.8608 0.99265 0.0
C300 C 0.50104 0.83265 0.97766 0.0
C301 C 0.47075 0.82154 0.96546 0.0
C302 C 0.45579 0.83982 0.96783 0.0
C303 C 0.47046 0.86817 0.98269 0.0
C304 C 0.52118 0.93587 0.00255 0.0
C305 C 0.52208 0.96006 0.01891 0.0
C306 C 0.53414 0.99084 0.00921 0.0
C307 C 0.54652 0.9987 0.98318 0.0
C308 C 0.54526 0.97477 0.96663 0.0
C309 C 0.53308 0.94396 0.97623 0.0
H310 H 0.59372 0.44992 0.17371 0.0
N311 N 0.61546 0.51226 0.18722 0.0
H312 H 0.62003 0.43089 0.14373 0.0
H313 H 0.6659 0.54698 0.15562 0.0
H314 H 0.69155 0.52813 0.12402 0.0
H315 H 0.65802 0.53338 0.2269 0.0
H316 H 0.65235 0.50919 0.27075 0.0
H317 H 0.56117 0.45921 0.20623 0.0
H318 H 0.55529 0.43481 0.24999 0.0
H319 H 0.56109 0.4746 0.15717 0.0
H320 H 0.61492 0.56519 0.19756 0.0
H321 H 0.52113 0.48814 0.14266 0.0
H322 H 0.5744 0.57852 0.18413 0.0
H323 H 0.39092 0.54816 0.112 0.0
H324 H 0.37815 0.55581 0.06658 0.0
H325 H 0.47764 0.59089 0.04352 0.0
H326 H 0.49053 0.58505 0.08907 0.0
H327 H 0.48243 0.62953 0.11945 0.0
H328 H 0.47752 0.6717 0.14134 0.0
H329 H 0.41393 0.6048 0.20041 0.0
H330 H 0.41861 0.56236 0.17813 0.0
H331 H 0.43837 0.50935 0.14592 0.0
H332 H 0.4785 0.49523 0.15909 0.0
H333 H 0.55496 0.59256 0.14621 0.0
N334 N 0.44877 0.56622 0.13234 0.0
H335 H 0.51473 0.60652 0.13413 0.0
C336 C 0.62831 0.50006 0.16739 0.0
C337 C 0.61505 0.46723 0.16305 0.0
C338 C 0.62999 0.45632 0.14549 0.0
C339 C 0.65819 0.47792 0.13148 0.0
C340 C 0.67036 0.51075 0.13488 0.0
C341 C 0.65562 0.52162 0.15275 0.0
C342 C 0.61021 0.49818 0.21333 0.0
C343 C 0.63545 0.51205 0.23198 0.0
C344 C 0.63207 0.49828 0.257 0.0
C345 C 0.60333 0.47011 0.26381 0.0
C346 C 0.57779 0.45638 0.24522 0.0
C347 C 0.5811 0.47038 0.22024 0.0
C348 C 0.59126 0.51918 0.17823 0.0
C349 C 0.56432 0.49742 0.16293 0.0
C350 C 0.54129 0.50511 0.15485 0.0
C351 C 0.54455 0.5345 0.16212 0.0
C352 C 0.5714 0.55596 0.17767 0.0
C353 C 0.59448 0.54835 0.18554 0.0
C354 C 0.44153 0.56588 0.10425 0.0
C355 C 0.4098 0.55698 0.09698 0.0
C356 C 0.40256 0.56129 0.07091 0.0
C357 C 0.42691 0.57427 0.05125 0.0
C358 C 0.45838 0.58154 0.0582 0.0
C359 C 0.46573 0.57776 0.08441 0.0
C360 C 0.4504 0.59256 0.147 0.0
C361 C 0.46784 0.62394 0.13733 0.0
C362 C 0.46501 0.64804 0.14983 0.0
C363 C 0.44515 0.64139 0.1724 0.0
C364 C 0.42954 0.61057 0.18311 0.0
C365 C 0.43207 0.58635 0.1704 0.0
C366 C 0.47339 0.55885 0.13912 0.0
C367 C 0.46383 0.52753 0.14597 0.0
C368 C 0.48683 0.51952 0.1533 0.0
C369 C 0.52002 0.54276 0.15376 0.0
C370 C 0.5296 0.57415 0.14656 0.0
C371 C 0.50656 0.58217 0.13947 0.0
In372 In 0.62624 0.39158 0.40517 0.0
O373 O 0.68053 0.42761 0.40596 0.0
O374 O 0.66405 0.38615 0.38186 0.0
C375 C 0.61174 0.41159 0.45069 0.0
C376 C 0.6082 0.41296 0.36268 0.0
C377 C 0.60005 0.33001 0.41899 0.0
O378 O 0.64053 0.42093 0.44374 0.0
O379 O 0.59035 0.3925 0.43456 0.0
O380 O 0.58528 0.33958 0.40447 0.0
O381 O 0.62811 0.35141 0.42614 0.0
C382 C 0.68775 0.41226 0.38978 0.0
O383 O 0.6029 0.38493 0.36385 0.0
O384 O 0.62141 0.42961 0.38322 0.0
In385 In 0.25663 0.63587 0.56669 0.0
O386 O 0.27545 0.60126 0.56426 0.0
O387 O 0.29731 0.63951 0.59226 0.0
C388 C 0.21798 0.61777 0.52322 0.0
C389 C 0.21649 0.61304 0.60902 0.0
C390 C 0.29568 0.6973 0.5528 0.0
O391 O 0.24129 0.61285 0.52524 0.0
O392 O 0.21383 0.63102 0.54331 0.0
O393 O 0.27315 0.68885 0.56968 0.0
O394 O 0.29881 0.67494 0.54357 0.0
C395 C 0.29615 0.61502 0.58263 0.0
O396 O 0.2372 0.64231 0.60657 0.0
O397 O 0.21561 0.59568 0.58986 0.0
In398 In 0.62381 0.25263 0.72968 0.0
O399 O 0.67886 0.27269 0.72928 0.0
O400 O 0.66126 0.30027 0.7475 0.0
C401 C 0.60235 0.21218 0.68775 0.0
C402 C 0.60849 0.21536 0.77314 0.0
C403 C 0.59727 0.28673 0.71362 0.0
O404 O 0.63122 0.23521 0.68936 0.0
O405 O 0.5848 0.209 0.70772 0.0
O406 O 0.59175 0.27436 0.73659 0.0
O407 O 0.61598 0.2819 0.69923 0.0
C408 C 0.68548 0.29791 0.74166 0.0
O409 O 0.59667 0.23291 0.76917 0.0
O410 O 0.62726 0.2163 0.75503 0.0
In411 In 0.38351 0.63292 0.90603 0.0
O412 O 0.32825 0.60284 0.90932 0.0
O413 O 0.34842 0.63638 0.87785 0.0
C414 C 0.39775 0.61107 0.95021 0.0
C415 C 0.40189 0.61051 0.8641 0.0
C416 C 0.40929 0.69455 0.92062 0.0
O417 O 0.36903 0.60023 0.94228 0.0
O418 O 0.41919 0.63264 0.93577 0.0
O419 O 0.424 0.68509 0.90571 0.0
O420 O 0.38146 0.67298 0.92793 0.0
C421 C 0.32316 0.61485 0.88902 0.0
O422 O 0.41026 0.63944 0.86645 0.0
O423 O 0.38523 0.59326 0.88324 0.0
In424 In 0.76041 0.39682 0.06259 0.0
O425 O 0.76731 0.38786 0.10618 0.0
O426 O 0.80848 0.42275 0.08504 0.0
C427 C 0.72016 0.33508 0.04984 0.0
C428 C 0.72723 0.42569 0.07709 0.0
C429 C 0.79508 0.41617 0.01682 0.0
O430 O 0.74274 0.34386 0.06673 0.0
O431 O 0.71764 0.35738 0.03989 0.0
O432 O 0.77914 0.4284 0.02548 0.0
O433 O 0.79392 0.39472 0.0314 0.0
C434 C 0.79703 0.4088 0.10691 0.0
O435 O 0.75755 0.44067 0.07412 0.0
O436 O 0.71349 0.39631 0.07203 0.0
In437 In 0.38393 0.76614 0.22759 0.0
O438 O 0.4139 0.74222 0.23427 0.0
O439 O 0.38813 0.73362 0.19766 0.0
C440 C 0.39993 0.80473 0.27072 0.0
C441 C 0.40795 0.80681 0.1864 0.0
C442 C 0.32132 0.72467 0.23985 0.0
O443 O 0.41084 0.78626 0.26727 0.0
O444 O 0.38182 0.80407 0.25224 0.0
O445 O 0.32961 0.74804 0.2246 0.0
O446 O 0.34445 0.7219 0.24827 0.0
C447 C 0.40673 0.72849 0.21169 0.0
O448 O 0.37855 0.78487 0.18757 0.0
O449 O 0.42493 0.80863 0.20631 0.0
C450 C 0.23409 0.6959 0.25761 0.0
C451 C 0.22688 0.67049 0.2748 0.0
H452 H 0.26959 0.73273 0.23264 0.0
C453 C 0.24974 0.66096 0.278 0.0
H454 H 0.21676 0.70353 0.25458 0.0
C455 C 0.27997 0.67772 0.26557 0.0
C456 C 0.28781 0.70417 0.24952 0.0
H457 H 0.24495 0.64164 0.29129 0.0
H458 H 0.29764 0.67069 0.26936 0.0
C459 C 0.26424 0.7125 0.24497 0.0
C460 C 0.58836 0.25661 0.45415 0.0
C461 C 0.55506 0.23519 0.45041 0.0
H462 H 0.62867 0.30343 0.44719 0.0
C463 C 0.53714 0.24454 0.43472 0.0
H464 H 0.60274 0.25022 0.46636 0.0
C465 C 0.55201 0.27502 0.4237 0.0
C466 C 0.58502 0.29682 0.42834 0.0
H467 H 0.51151 0.22842 0.43127 0.0
H468 H 0.53743 0.28178 0.41218 0.0
C469 C 0.60316 0.28715 0.44331 0.0
C470 C 0.3292 0.56062 0.59583 0.0
C471 C 0.34885 0.57526 0.61839 0.0
H472 H 0.29724 0.56183 0.56663 0.0
C473 C 0.3525 0.6041 0.62783 0.0
H474 H 0.32618 0.53861 0.58782 0.0
C475 C 0.33624 0.61748 0.61556 0.0
C476 C 0.31577 0.60231 0.59361 0.0
H477 H 0.36696 0.61581 0.6454 0.0
H478 H 0.33897 0.63928 0.62382 0.0
C479 C 0.31279 0.574 0.58357 0.0
C480 C 0.7551 0.37447 0.76914 0.0
C481 C 0.77973 0.36714 0.77123 0.0
H482 H 0.70604 0.35827 0.75819 0.0
C483 C 0.77376 0.33737 0.76196 0.0
H484 H 0.75886 0.39706 0.77641 0.0
C485 C 0.74346 0.31515 0.75127 0.0
C486 C 0.71854 0.32219 0.75013 0.0
H487 H 0.7924 0.33118 0.76326 0.0
H488 H 0.73922 0.29214 0.74474 0.0
C489 C 0.7248 0.35219 0.75885 0.0
C490 C 0.47161 0.78085 0.93504 0.0
C491 C 0.45418 0.79007 0.95174 0.0
H492 H 0.47099 0.7435 0.91187 0.0
C493 C 0.42127 0.76818 0.95672 0.0
H494 H 0.49691 0.79731 0.93062 0.0
C495 C 0.40645 0.73736 0.94605 0.0
C496 C 0.42418 0.72786 0.93005 0.0
H497 H 0.40728 0.77446 0.96972 0.0
H498 H 0.3813 0.72075 0.95084 0.0
C499 C 0.45673 0.75009 0.92423 0.0
C500 C 0.70996 0.48294 0.11434 0.0
C501 C 0.67583 0.46619 0.11482 0.0
H502 H 0.75287 0.48344 0.10173 0.0
C503 C 0.65891 0.43714 0.10071 0.0
H504 H 0.72393 0.5051 0.12524 0.0
C505 C 0.67562 0.42441 0.0877 0.0
C506 C 0.70962 0.44069 0.0881 0.0
H507 H 0.63268 0.42388 0.10008 0.0
H508 H 0.6619 0.40153 0.07773 0.0
C509 C 0.72663 0.47043 0.10096 0.0
C510 C 0.32453 0.78388 0.53912 0.0
C511 C 0.34712 0.79071 0.5185 0.0
H512 H 0.29068 0.749 0.56639 0.0
C513 C 0.35455 0.76736 0.51103 0.0
H514 H 0.31859 0.8015 0.54559 0.0
C515 C 0.33875 0.73747 0.52302 0.0
C516 C 0.31511 0.73018 0.54274 0.0
H517 H 0.37148 0.7716 0.495 0.0
H518 H 0.34425 0.71969 0.51613 0.0
C519 C 0.30868 0.7539 0.55114 0.0
C520 C 0.56452 0.3427 0.71289 0.0
C521 C 0.56483 0.34842 0.68536 0.0
H522 H 0.57398 0.31796 0.74353 0.0
C523 C 0.57384 0.33212 0.66736 0.0
H524 H 0.55762 0.35496 0.72715 0.0
C525 C 0.58356 0.31149 0.67668 0.0
C526 C 0.58405 0.30633 0.70418 0.0
H527 H 0.5747 0.33635 0.64607 0.0
H528 H 0.59128 0.29999 0.66232 0.0
C529 C 0.57374 0.32151 0.72222 0.0
C530 C 0.25641 0.60452 0.84276 0.0
C531 C 0.22921 0.57732 0.8532 0.0
H532 H 0.30728 0.63772 0.84596 0.0
C533 C 0.23282 0.56377 0.87666 0.0
H534 H 0.25462 0.6153 0.82451 0.0
C535 C 0.26317 0.5766 0.88893 0.0
C536 C 0.29048 0.60314 0.8779 0.0
H537 H 0.21227 0.54301 0.88535 0.0
H538 H 0.26538 0.56524 0.90663 0.0
C539 C 0.28667 0.61727 0.85496 0.0
C540 C 0.65934 0.26305 0.01016 0.0
C541 C 0.66591 0.23959 0.01875 0.0
H542 H 0.67125 0.31153 0.01333 0.0
C543 C 0.68867 0.2472 0.03934 0.0
H544 H 0.6423 0.25818 0.99413 0.0
C545 C 0.70548 0.27795 0.05024 0.0
C546 C 0.69988 0.3017 0.04075 0.0
H547 H 0.69399 0.22955 0.04664 0.0
H548 H 0.72353 0.28335 0.06552 0.0
C549 C 0.67613 0.29374 0.02104 0.0
C550 C 0.42765 0.68071 0.16505 0.0
C551 C 0.43783 0.66547 0.18282 0.0
H552 H 0.40965 0.71235 0.16038 0.0
C553 C 0.43898 0.67203 0.21033 0.0
H554 H 0.42615 0.67578 0.14379 0.0
C555 C 0.42985 0.69337 0.21986 0.0
C556 C 0.41875 0.70781 0.20204 0.0
H557 H 0.44675 0.66053 0.2244 0.0
H558 H 0.43059 0.69786 0.24114 0.0
C559 C 0.41799 0.70145 0.17457 0.0
C560 C 0.77411 0.47062 0.36972 0.0
C561 C 0.78121 0.45171 0.35307 0.0
H562 H 0.73907 0.47276 0.39484 0.0
C563 C 0.75841 0.41907 0.35049 0.0
H564 H 0.7914 0.49582 0.37216 0.0
C565 C 0.72835 0.40593 0.36322 0.0
C566 C 0.72077 0.42513 0.37904 0.0
H567 H 0.76323 0.40404 0.33761 0.0
H568 H 0.71071 0.38095 0.36007 0.0
C569 C 0.74425 0.4574 0.38275 0.0
C570 C 0.15585 0.61283 0.4742 0.0
C571 C 0.16635 0.60614 0.45006 0.0
H572 H 0.16383 0.62156 0.51623 0.0
C573 C 0.19237 0.60058 0.4507 0.0
H574 H 0.13551 0.61662 0.47455 0.0
C575 C 0.20833 0.60298 0.47471 0.0
C576 C 0.19874 0.61119 0.49853 0.0
H577 H 0.20135 0.59571 0.43249 0.0
H578 H 0.22897 0.59965 0.47441 0.0
C579 C 0.17194 0.61545 0.49813 0.0
C580 C 0.59214 0.18726 0.61511 0.0
C581 C 0.55944 0.16271 0.61439 0.0
H582 H 0.63152 0.22198 0.63901 0.0
C583 C 0.54226 0.15231 0.63857 0.0
H584 H 0.60604 0.19605 0.59686 0.0
C585 C 0.55678 0.16739 0.66267 0.0
C586 C 0.58888 0.19303 0.66314 0.0
H587 H 0.51726 0.13301 0.63881 0.0
H588 H 0.54249 0.15963 0.68081 0.0
C589 C 0.60674 0.20221 0.63926 0.0
C590 C 0.39709 0.55082 0.81315 0.0
C591 C 0.41142 0.57008 0.79066 0.0
H592 H 0.38326 0.5486 0.85411 0.0
C593 C 0.42544 0.60323 0.79331 0.0
H594 H 0.38655 0.52527 0.81183 0.0
C595 C 0.42365 0.61663 0.81759 0.0
C596 C 0.40791 0.59715 0.83967 0.0
H597 H 0.43646 0.61867 0.7763 0.0
H598 H 0.43352 0.6421 0.81875 0.0
C599 C 0.39539 0.56422 0.8374 0.0
C600 C 0.83491 0.46079 0.95325 0.0
C601 C 0.8427 0.43982 0.94035 0.0
H602 H 0.81354 0.46966 0.98746 0.0
C603 C 0.83557 0.41159 0.95348 0.0
H604 H 0.84055 0.48305 0.9441 0.0
C605 C 0.82089 0.40443 0.97861 0.0
C606 C 0.8124 0.42498 0.99104 0.0
H607 H 0.84045 0.39444 0.9441 0.0
H608 H 0.81534 0.38228 0.98796 0.0
C609 C 0.81964 0.45329 0.9782 0.0
C610 C 0.41909 0.83573 0.11517 0.0
C611 C 0.45205 0.85965 0.115 0.0
H612 H 0.37921 0.80042 0.13798 0.0
C613 C 0.46941 0.86798 0.13919 0.0
H614 H 0.40506 0.82848 0.09687 0.0
C615 C 0.45467 0.85162 0.16267 0.0
C616 C 0.42219 0.82676 0.1625 0.0
H617 H 0.49464 0.88672 0.1399 0.0
H618 H 0.46899 0.8579 0.18078 0.0
C619 C 0.40429 0.81952 0.1387 0.0
C620 C 0.58896 0.42172 0.29106 0.0
C621 C 0.60081 0.45461 0.28981 0.0
H622 H 0.58195 0.38264 0.3152 0.0
C623 C 0.61225 0.47296 0.31331 0.0
H624 H 0.58019 0.40701 0.27323 0.0
C625 C 0.61316 0.45902 0.33729 0.0
C626 C 0.60284 0.42647 0.33825 0.0
H627 H 0.6211 0.49827 0.31303 0.0
H628 H 0.62303 0.47403 0.35486 0.0
C629 C 0.59006 0.40779 0.31505 0.0
C630 C 0.39408 0.85908 0.32147 0.0
C631 C 0.40794 0.8541 0.34423 0.0
H632 H 0.38102 0.84762 0.2804 0.0
C633 C 0.42204 0.83506 0.34191 0.0
H634 H 0.38356 0.87409 0.32248 0.0
C635 C 0.42076 0.81997 0.31765 0.0
C636 C 0.40537 0.82371 0.29533 0.0
H637 H 0.43274 0.83063 0.35913 0.0
H638 H 0.43067 0.80444 0.31668 0.0
C639 C 0.39278 0.84403 0.29732 0.0
C640 C 0.61991 0.45524 0.51567 0.0
C641 C 0.58882 0.43655 0.52687 0.0
H642 H 0.65158 0.46186 0.48288 0.0
C643 C 0.56508 0.41043 0.51204 0.0
H644 H 0.63867 0.4759 0.52616 0.0
C645 C 0.57232 0.40296 0.48695 0.0
C646 C 0.60362 0.42103 0.47629 0.0
H647 H 0.54107 0.39502 0.52008 0.0
H648 H 0.55365 0.38237 0.47628 0.0
C649 C 0.6273 0.44736 0.49077 0.0
C650 C 0.1844 0.60564 0.67943 0.0
C651 C 0.16421 0.57246 0.68173 0.0
H652 H 0.21682 0.64459 0.65452 0.0
C653 C 0.15934 0.55315 0.65922 0.0
H654 H 0.18882 0.62113 0.69648 0.0
C655 C 0.1754 0.56655 0.63528 0.0
C656 C 0.1967 0.59956 0.63333 0.0
H657 H 0.14354 0.52756 0.66026 0.0
H658 H 0.17179 0.55091 0.61853 0.0
C659 C 0.20054 0.61907 0.65545 0.0
C660 C 0.61486 0.16283 0.8246 0.0
C661 C 0.60081 0.16827 0.84717 0.0
H662 H 0.62802 0.17325 0.78351 0.0
C663 C 0.58637 0.18692 0.84447 0.0
H664 H 0.62562 0.14807 0.8259 0.0
C665 C 0.58753 0.20122 0.82003 0.0
C666 C 0.60318 0.19711 0.79792 0.0
H667 H 0.57552 0.19169 0.86153 0.0
H668 H 0.57736 0.21649 0.81876 0.0
C669 C 0.61609 0.17714 0.80028 0.0
C670 C 0.38949 0.56342 0.01212 0.0
C671 C 0.42002 0.58224 0.02428 0.0
H672 H 0.35844 0.55786 0.97925 0.0
C673 C 0.44348 0.60988 0.01107 0.0
H674 H 0.37099 0.54169 0.02138 0.0
C675 C 0.43646 0.61868 0.98667 0.0
C676 C 0.40567 0.6004 0.97507 0.0
H677 H 0.46702 0.62541 0.01994 0.0
H678 H 0.45489 0.64039 0.9773 0.0
C679 C 0.38232 0.57255 0.98789 0.0
C680 C 0.81752 0.41662 0.18047 0.0
C681 C 0.84806 0.44471 0.181 0.0
H682 H 0.77742 0.3831 0.15652 0.0
C683 C 0.86308 0.45882 0.15669 0.0
H684 H 0.8052 0.40533 0.19888 0.0
C685 C 0.84718 0.44605 0.13244 0.0
C686 C 0.81586 0.41904 0.13203 0.0
H687 H 0.88677 0.48026 0.15647 0.0
H688 H 0.85889 0.45815 0.1141 0.0
C689 C 0.80154 0.40395 0.15622 0.0
loop_
_geom_bond_atom_site_label_1
_geom_bond_atom_site_label_2
_geom_bond_distance
_geom_bond_site_symmetry_2
_ccdc_geom_bond_type
H0 C27 0.929 . S
N1 C26 1.433 . S
N1 C32 1.435 . S
N1 C38 1.423 . S
H2 C28 0.930 . S
H3 C31 0.931 . S
H4 C30 0.929 . S
H5 C33 0.930 . S
H6 C34 0.932 . S
H7 C37 0.929 . S
H8 C36 0.931 . S
H9 C39 0.929 . S
H10 C43 0.932 . S
H11 C40 0.931 . S
H12 C42 0.929 . S
H13 C45 0.929 . S
H14 C46 0.930 . S
H15 C48 0.929 . S
H16 C49 0.931 . S
H17 C51 0.930 . S
H18 C52 0.932 . S
H19 C54 0.931 . S
H20 C55 0.929 . S
H21 C57 0.929 . S
H22 C58 0.931 . S
H23 C60 0.929 . S
N24 C44 1.433 . S
N24 C50 1.435 . S
N24 C56 1.423 . S
H25 C61 0.932 . S
C26 N1 1.433 . S
C26 C27 1.363 . S
C26 C31 1.370 . S
C27 H0 0.929 . S
C27 C26 1.363 . S
C27 C28 1.385 . S
C28 H2 0.930 . S
C28 C27 1.385 . S
C28 C29 1.357 . S
C29 C28 1.357 . S
C29 C30 1.406 . S
C30 H4 0.929 . S
C30 C29 1.406 . S
C30 C31 1.391 . S
C31 H3 0.931 . S
C31 C26 1.370 . S
C31 C30 1.391 . S
C32 N1 1.435 . S
C32 C33 1.358 . S
C32 C37 1.371 . S
C33 H5 0.930 . S
C33 C32 1.358 . S
C33 C34 1.405 . S
C34 H6 0.932 . S
C34 C33 1.405 . S
C34 C35 1.383 . S
C35 C34 1.383 . S
C35 C36 1.393 . S
C36 H8 0.931 . S
C36 C35 1.393 . S
C36 C37 1.382 . S
C37 H7 0.929 . S
C37 C32 1.371 . S
C37 C36 1.382 . S
C38 N1 1.423 . S
C38 C39 1.362 . S
C38 C43 1.388 . S
C39 H9 0.929 . S
C39 C38 1.362 . S
C39 C40 1.376 . S
C40 H11 0.931 . S
C40 C39 1.376 . S
C40 C41 1.396 . S
C41 C40 1.396 . S
C41 C42 1.348 . S
C41 C59 1.472 1_455 S
C42 H12 0.929 . S
C42 C41 1.348 . S
C42 C43 1.443 . S
C43 H10 0.932 . S
C43 C38 1.388 . S
C43 C42 1.443 . S
C44 N24 1.433 . S
C44 C45 1.363 . S
C44 C49 1.370 . S
C45 H13 0.929 . S
C45 C44 1.363 . S
C45 C46 1.385 . S
C46 H14 0.930 . S
C46 C45 1.385 . S
C46 C47 1.357 . S
C47 C46 1.357 . S
C47 C48 1.406 . S
C48 H15 0.929 . S
C48 C47 1.406 . S
C48 C49 1.391 . S
C49 H16 0.931 . S
C49 C44 1.370 . S
C49 C48 1.391 . S
C50 N24 1.435 . S
C50 C51 1.358 . S
C50 C55 1.371 . S
C51 H17 0.930 . S
C51 C50 1.358 . S
C51 C52 1.405 . S
C52 H18 0.932 . S
C52 C51 1.405 . S
C52 C53 1.383 . S
C53 C52 1.383 . S
C53 C54 1.393 . S
C54 H19 0.931 . S
C54 C53 1.393 . S
C54 C55 1.382 . S
C55 H20 0.929 . S
C55 C50 1.371 . S
C55 C54 1.382 . S
C56 N24 1.423 . S
C56 C57 1.362 . S
C56 C61 1.388 . S
C57 H21 0.929 . S
C57 C56 1.362 . S
C57 C58 1.376 . S
C58 H22 0.931 . S
C58 C57 1.376 . S
C58 C59 1.396 . S
C59 C41 1.472 1_655 S
C59 C58 1.396 . S
C59 C60 1.348 . S
C60 H23 0.929 . S
C60 C59 1.348 . S
C60 C61 1.443 . S
C61 H25 0.932 . S
C61 C56 1.388 . S
C61 C60 1.443 . S
H62 C89 0.929 . S
N63 C88 1.433 . S
N63 C94 1.435 . S
N63 C100 1.423 . S
H64 C90 0.930 . S
H65 C93 0.931 . S
H66 C92 0.929 . S
H67 C95 0.930 . S
H68 C96 0.932 . S
H69 C99 0.929 . S
H70 C98 0.931 . S
H71 C101 0.929 . S
H72 C105 0.932 . S
H73 C102 0.931 . S
H74 C104 0.929 1_545 S
H75 C107 0.929 . S
H76 C108 0.930 . S
H77 C110 0.929 . S
H78 C111 0.931 . S
H79 C113 0.930 . S
H80 C114 0.932 . S
H81 C116 0.931 . S
H82 C117 0.929 . S
H83 C119 0.929 . S
H84 C120 0.931 . S
H85 C122 0.929 . S
N86 C106 1.433 . S
N86 C112 1.435 . S
N86 C118 1.423 . S
H87 C123 0.932 . S
C88 N63 1.433 . S
C88 C89 1.363 . S
C88 C93 1.370 . S
C89 H62 0.929 . S
C89 C88 1.363 . S
C89 C90 1.385 . S
C90 H64 0.930 . S
C90 C89 1.385 . S
C90 C91 1.357 . S
C91 C90 1.357 . S
C91 C92 1.406 . S
C92 H66 0.929 . S
C92 C91 1.406 . S
C92 C93 1.391 . S
C93 H65 0.931 . S
C93 C88 1.370 . S
C93 C92 1.391 . S
C94 N63 1.435 . S
C94 C95 1.358 . S
C94 C99 1.371 . S
C95 H67 0.930 . S
C95 C94 1.358 . S
C95 C96 1.405 . S
C96 H68 0.932 . S
C96 C95 1.405 . S
C96 C97 1.383 . S
C97 C96 1.383 . S
C97 C98 1.393 . S
C98 H70 0.931 . S
C98 C97 1.393 . S
C98 C99 1.382 . S
C99 H69 0.929 . S
C99 C94 1.371 . S
C99 C98 1.382 . S
C100 N63 1.423 . S
C100 C101 1.362 . S
C100 C105 1.388 . S
C101 H71 0.929 . S
C101 C100 1.362 . S
C101 C102 1.376 . S
C102 H73 0.931 . S
C102 C101 1.376 . S
C102 C103 1.396 1_565 S
C103 C102 1.396 1_545 S
C103 C104 1.348 1_545 S
C103 C121 1.472 . S
C104 H74 0.929 1_565 S
C104 C103 1.348 1_565 S
C104 C105 1.443 . S
C105 H72 0.932 . S
C105 C100 1.388 . S
C105 C104 1.443 . S
C106 N86 1.433 . S
C106 C107 1.363 . S
C106 C111 1.370 . S
C107 H75 0.929 . S
C107 C106 1.363 . S
C107 C108 1.385 . S
C108 H76 0.930 . S
C108 C107 1.385 . S
C108 C109 1.357 . S
C109 C108 1.357 . S
C109 C110 1.406 . S
C110 H77 0.929 . S
C110 C109 1.406 . S
C110 C111 1.391 . S
C111 H78 0.931 . S
C111 C106 1.370 . S
C111 C110 1.391 . S
C112 N86 1.435 . S
C112 C113 1.358 . S
C112 C117 1.371 . S
C113 H79 0.930 . S
C113 C112 1.358 . S
C113 C114 1.405 . S
C114 H80 0.932 . S
C114 C113 1.405 . S
C114 C115 1.383 . S
C115 C114 1.383 . S
C115 C116 1.393 . S
C116 H81 0.931 . S
C116 C115 1.393 . S
C116 C117 1.382 . S
C117 H82 0.929 . S
C117 C112 1.371 . S
C117 C116 1.382 . S
C118 N86 1.423 . S
C118 C119 1.362 . S
C118 C123 1.388 . S
C119 H83 0.929 . S
C119 C118 1.362 . S
C119 C120 1.376 . S
C120 H84 0.931 . S
C120 C119 1.376 . S
C120 C121 1.396 . S
C121 C103 1.472 . S
C121 C120 1.396 . S
C121 C122 1.348 . S
C122 H85 0.929 . S
C122 C121 1.348 . S
C122 C123 1.443 . S
C123 H87 0.932 . S
C123 C118 1.388 . S
C123 C122 1.443 . S
H124 C151 0.929 . S
N125 C150 1.433 . S
N125 C156 1.435 . S
N125 C162 1.423 . S
H126 C152 0.930 . S
H127 C155 0.931 . S
H128 C154 0.929 . S
H129 C157 0.930 . S
H130 C158 0.932 . S
H131 C161 0.929 . S
H132 C160 0.931 . S
H133 C163 0.929 . S
H134 C167 0.932 . S
H135 C164 0.931 . S
H136 C166 0.929 . S
H137 C169 0.929 . S
H138 C170 0.930 . S
H139 C172 0.929 . S
H140 C173 0.931 . S
H141 C175 0.930 . S
H142 C176 0.932 . S
H143 C178 0.931 . S
H144 C179 0.929 . S
H145 C181 0.929 . S
H146 C182 0.931 . S
H147 C184 0.929 . S
N148 C168 1.433 . S
N148 C174 1.435 . S
N148 C180 1.423 . S
H149 C185 0.932 . S
C150 N125 1.433 . S
C150 C151 1.363 . S
C150 C155 1.370 . S
C151 H124 0.929 . S
C151 C150 1.363 . S
C151 C152 1.385 . S
C152 H126 0.930 . S
C152 C151 1.385 . S
C152 C153 1.357 . S
C153 C152 1.357 . S
C153 C154 1.406 . S
C154 H128 0.929 . S
C154 C153 1.406 . S
C154 C155 1.391 . S
C155 H127 0.931 . S
C155 C150 1.370 . S
C155 C154 1.391 . S
C156 N125 1.435 . S
C156 C157 1.358 . S
C156 C161 1.371 . S
C157 H129 0.930 . S
C157 C156 1.358 . S
C157 C158 1.405 . S
C158 H130 0.932 . S
C158 C157 1.405 . S
C158 C159 1.383 . S
C159 C158 1.383 . S
C159 C160 1.393 . S
C160 H132 0.931 . S
C160 C159 1.393 . S
C160 C161 1.382 . S
C161 H131 0.929 . S
C161 C156 1.371 . S
C161 C160 1.382 . S
C162 N125 1.423 . S
C162 C163 1.362 . S
C162 C167 1.388 . S
C163 H133 0.929 . S
C163 C162 1.362 . S
C163 C164 1.376 . S
C164 H135 0.931 . S
C164 C163 1.376 . S
C164 C165 1.396 . S
C165 C164 1.396 . S
C165 C166 1.348 . S
C165 C183 1.472 . S
C166 H136 0.929 . S
C166 C165 1.348 . S
C166 C167 1.443 . S
C167 H134 0.932 . S
C167 C162 1.388 . S
C167 C166 1.443 . S
C168 N148 1.433 . S
C168 C169 1.363 . S
C168 C173 1.370 . S
C169 H137 0.929 . S
C169 C168 1.363 . S
C169 C170 1.385 . S
C170 H138 0.930 . S
C170 C169 1.385 . S
C170 C171 1.357 . S
C171 C170 1.357 . S
C171 C172 1.406 . S
C172 H139 0.929 . S
C172 C171 1.406 . S
C172 C173 1.391 . S
C173 H140 0.931 . S
C173 C168 1.370 . S
C173 C172 1.391 . S
C174 N148 1.435 . S
C174 C175 1.358 . S
C174 C179 1.371 . S
C175 H141 0.930 . S
C175 C174 1.358 . S
C175 C176 1.405 . S
C176 H142 0.932 . S
C176 C175 1.405 . S
C176 C177 1.383 . S
C177 C176 1.383 . S
C177 C178 1.393 . S
C178 H143 0.931 . S
C178 C177 1.393 . S
C178 C179 1.382 . S
C179 H144 0.929 . S
C179 C174 1.371 . S
C179 C178 1.382 . S
C180 N148 1.423 . S
C180 C181 1.362 . S
C180 C185 1.388 . S
C181 H145 0.929 . S
C181 C180 1.362 . S
C181 C182 1.376 . S
C182 H146 0.931 . S
C182 C181 1.376 . S
C182 C183 1.396 . S
C183 C165 1.472 . S
C183 C182 1.396 . S
C183 C184 1.348 . S
C184 H147 0.929 . S
C184 C183 1.348 . S
C184 C185 1.443 . S
C185 H149 0.932 . S
C185 C180 1.388 . S
C185 C184 1.443 . S
H186 C213 0.929 . S
N187 C212 1.433 . S
N187 C218 1.435 . S
N187 C224 1.423 . S
H188 C214 0.930 . S
H189 C217 0.931 . S
H190 C216 0.929 . S
H191 C219 0.930 . S
H192 C220 0.932 . S
H193 C223 0.929 . S
H194 C222 0.931 . S
H195 C225 0.929 . S
H196 C229 0.932 . S
H197 C226 0.931 . S
H198 C228 0.929 . S
H199 C231 0.929 . S
H200 C232 0.930 . S
H201 C234 0.929 . S
H202 C235 0.931 . S
H203 C237 0.930 . S
H204 C238 0.932 . S
H205 C240 0.931 . S
H206 C241 0.929 . S
H207 C243 0.929 . S
H208 C244 0.931 . S
H209 C246 0.929 . S
N210 C230 1.433 . S
N210 C236 1.435 . S
N210 C242 1.423 . S
H211 C247 0.932 . S
C212 N187 1.433 . S
C212 C213 1.363 . S
C212 C217 1.370 . S
C213 H186 0.929 . S
C213 C212 1.363 . S
C213 C214 1.385 . S
C214 H188 0.930 . S
C214 C213 1.385 . S
C214 C215 1.357 . S
C215 C214 1.357 . S
C215 C216 1.406 . S
C216 H190 0.929 . S
C216 C215 1.406 . S
C216 C217 1.391 . S
C217 H189 0.931 . S
C217 C212 1.370 . S
C217 C216 1.391 . S
C218 N187 1.435 . S
C218 C219 1.358 . S
C218 C223 1.371 . S
C219 H191 0.930 . S
C219 C218 1.358 . S
C219 C220 1.405 . S
C220 H192 0.932 . S
C220 C219 1.405 . S
C220 C221 1.383 . S
C221 C220 1.383 . S
C221 C222 1.393 . S
C222 H194 0.931 . S
C222 C221 1.393 . S
C222 C223 1.382 . S
C223 H193 0.929 . S
C223 C218 1.371 . S
C223 C222 1.382 . S
C224 N187 1.423 . S
C224 C225 1.362 . S
C224 C229 1.388 . S
C225 H195 0.929 . S
C225 C224 1.362 . S
C225 C226 1.376 . S
C226 H197 0.931 . S
C226 C225 1.376 . S
C226 C227 1.396 . S
C227 C226 1.396 . S
C227 C228 1.348 . S
C227 C245 1.472 1_455 S
C228 H198 0.929 . S
C228 C227 1.348 . S
C228 C229 1.443 . S
C229 H196 0.932 . S
C229 C224 1.388 . S
C229 C228 1.443 . S
C230 N210 1.433 . S
C230 C231 1.363 . S
C230 C235 1.370 . S
C231 H199 0.929 . S
C231 C230 1.363 . S
C231 C232 1.385 . S
C232 H200 0.930 . S
C232 C231 1.385 . S
C232 C233 1.357 . S
C233 C232 1.357 . S
C233 C234 1.406 . S
C234 H201 0.929 . S
C234 C233 1.406 . S
C234 C235 1.391 . S
C235 H202 0.931 . S
C235 C230 1.370 . S
C235 C234 1.391 . S
C236 N210 1.435 . S
C236 C237 1.358 . S
C236 C241 1.371 . S
C237 H203 0.930 . S
C237 C236 1.358 . S
C237 C238 1.405 . S
C238 H204 0.932 . S
C238 C237 1.405 . S
C238 C239 1.383 . S
C239 C238 1.383 . S
C239 C240 1.393 . S
C240 H205 0.931 . S
C240 C239 1.393 . S
C240 C241 1.382 . S
C241 H206 0.929 . S
C241 C236 1.371 . S
C241 C240 1.382 . S
C242 N210 1.423 . S
C242 C243 1.362 . S
C242 C247 1.388 . S
C243 H207 0.929 . S
C243 C242 1.362 . S
C243 C244 1.376 . S
C244 H208 0.931 . S
C244 C243 1.376 . S
C244 C245 1.396 . S
C245 C227 1.472 1_655 S
C245 C244 1.396 . S
C245 C246 1.348 . S
C246 H209 0.929 . S
C246 C245 1.348 . S
C246 C247 1.443 . S
C247 H211 0.932 . S
C247 C242 1.388 . S
C247 C246 1.443 . S
H248 C275 0.929 . S
N249 C274 1.433 . S
N249 C280 1.435 . S
N249 C286 1.423 . S
H250 C276 0.930 . S
H251 C279 0.931 . S
H252 C278 0.929 . S
H253 C281 0.930 . S
H254 C282 0.932 . S
H255 C285 0.929 . S
H256 C284 0.931 . S
H257 C287 0.929 . S
H258 C291 0.932 . S
H259 C288 0.931 . S
H260 C290 0.929 . S
H261 C293 0.929 . S
H262 C294 0.930 . S
H263 C296 0.929 . S
H264 C297 0.931 . S
H265 C299 0.930 . S
H266 C300 0.932 . S
H267 C302 0.931 . S
H268 C303 0.929 . S
H269 C305 0.929 . S
H270 C306 0.931 . S
H271 C308 0.929 . S
N272 C292 1.433 . S
N272 C298 1.423 1_554 S
N272 C304 1.423 . S
H273 C309 0.932 . S
C274 N249 1.433 . S
C274 C275 1.363 . S
C274 C279 1.370 . S
C275 H248 0.929 . S
C275 C274 1.363 . S
C275 C276 1.385 . S
C276 H250 0.930 . S
C276 C275 1.385 . S
C276 C277 1.357 1_556 S
C277 C276 1.357 1_554 S
C277 C278 1.406 . S
C278 H252 0.929 . S
C278 C277 1.406 . S
C278 C279 1.391 1_554 S
C279 H251 0.931 . S
C279 C274 1.370 . S
C279 C278 1.391 1_556 S
C280 N249 1.435 . S
C280 C281 1.358 . S
C280 C285 1.371 . S
C281 H253 0.930 . S
C281 C280 1.358 . S
C281 C282 1.405 . S
C282 H254 0.932 . S
C282 C281 1.405 . S
C282 C283 1.383 . S
C283 C282 1.383 . S
C283 C284 1.393 . S
C284 H256 0.931 . S
C284 C283 1.393 . S
C284 C285 1.382 . S
C285 H255 0.929 . S
C285 C280 1.371 . S
C285 C284 1.382 . S
C286 N249 1.423 . S
C286 C287 1.362 . S
C286 C291 1.388 . S
C287 H257 0.929 . S
C287 C286 1.362 . S
C287 C288 1.376 . S
C288 H259 0.931 . S
C288 C287 1.376 . S
C288 C289 1.396 . S
C289 C288 1.396 . S
C289 C290 1.348 . S
C289 C307 1.472 1_545 S
C290 H260 0.929 . S
C290 C289 1.348 . S
C290 C291 1.443 . S
C291 H258 0.932 . S
C291 C286 1.388 . S
C291 C290 1.443 . S
C292 N272 1.433 . S
C292 C293 1.363 . S
C292 C297 1.370 . S
C293 H261 0.929 . S
C293 C292 1.363 . S
C293 C294 1.385 . S
C294 H262 0.930 . S
C294 C293 1.385 . S
C294 C295 1.357 . S
C295 C294 1.357 . S
C295 C296 1.406 . S
C296 H263 0.929 . S
C296 C295 1.406 . S
C296 C297 1.391 . S
C297 H264 0.931 . S
C297 C292 1.370 . S
C297 C296 1.391 . S
C298 N272 1.423 1_556 S
C298 C299 1.353 1_556 S
C298 C303 1.389 . S
C299 H265 0.930 . S
C299 C298 1.353 1_554 S
C299 C300 1.405 1_554 S
C300 H266 0.932 . S
C300 C299 1.405 1_556 S
C300 C301 1.383 . S
C301 C300 1.383 . S
C301 C302 1.393 . S
C302 H267 0.931 . S
C302 C301 1.393 . S
C302 C303 1.382 . S
C303 H268 0.929 . S
C303 C298 1.389 . S
C303 C302 1.382 . S
C304 N272 1.423 . S
C304 C305 1.362 . S
C304 C309 1.388 1_554 S
C305 H269 0.929 . S
C305 C304 1.362 . S
C305 C306 1.376 . S
C306 H270 0.931 . S
C306 C305 1.376 . S
C306 C307 1.396 1_554 S
C307 C289 1.472 1_565 S
C307 C306 1.396 1_556 S
C307 C308 1.348 . S
C308 H271 0.929 . S
C308 C307 1.348 . S
C308 C309 1.443 . S
C309 H273 0.932 . S
C309 C304 1.388 1_556 S
C309 C308 1.443 . S
H310 C337 0.929 . S
N311 C336 1.433 . S
N311 C342 1.435 . S
N311 C348 1.423 . S
H312 C338 0.930 . S
H313 C341 0.931 . S
H314 C340 0.929 . S
H315 C343 0.930 . S
H316 C344 0.932 . S
H317 C347 0.929 . S
H318 C346 0.931 . S
H319 C349 0.929 . S
H320 C353 0.932 . S
H321 C350 0.931 . S
H322 C352 0.929 . S
H323 C355 0.929 . S
H324 C356 0.930 . S
H325 C358 0.929 . S
H326 C359 0.931 . S
H327 C361 0.930 . S
H328 C362 0.932 . S
H329 C364 0.931 . S
H330 C365 0.929 . S
H331 C367 0.929 . S
H332 C368 0.931 . S
H333 C370 0.929 . S
N334 C354 1.433 . S
N334 C360 1.435 . S
N334 C366 1.423 . S
H335 C371 0.932 . S
C336 N311 1.433 . S
C336 C337 1.363 . S
C336 C341 1.370 . S
C337 H310 0.929 . S
C337 C336 1.363 . S
C337 C338 1.385 . S
C338 H312 0.930 . S
C338 C337 1.385 . S
C338 C339 1.357 . S
C339 C338 1.357 . S
C339 C340 1.406 . S
C340 H314 0.929 . S
C340 C339 1.406 . S
C340 C341 1.391 . S
C341 H313 0.931 . S
C341 C336 1.370 . S
C341 C340 1.391 . S
C342 N311 1.435 . S
C342 C343 1.358 . S
C342 C347 1.371 . S
C343 H315 0.930 . S
C343 C342 1.358 . S
C343 C344 1.405 . S
C344 H316 0.932 . S
C344 C343 1.405 . S
C344 C345 1.383 . S
C345 C344 1.383 . S
C345 C346 1.393 . S
C346 H318 0.931 . S
C346 C345 1.393 . S
C346 C347 1.382 . S
C347 H317 0.929 . S
C347 C342 1.371 . S
C347 C346 1.382 . S
C348 N311 1.423 . S
C348 C349 1.362 . S
C348 C353 1.388 . S
C349 H319 0.929 . S
C349 C348 1.362 . S
C349 C350 1.376 . S
C350 H321 0.931 . S
C350 C349 1.376 . S
C350 C351 1.396 . S
C351 C350 1.396 . S
C351 C352 1.348 . S
C351 C369 1.472 . S
C352 H322 0.929 . S
C352 C351 1.348 . S
C352 C353 1.443 . S
C353 H320 0.932 . S
C353 C348 1.388 . S
C353 C352 1.443 . S
C354 N334 1.433 . S
C354 C355 1.363 . S
C354 C359 1.370 . S
C355 H323 0.929 . S
C355 C354 1.363 . S
C355 C356 1.385 . S
C356 H324 0.930 . S
C356 C355 1.385 . S
C356 C357 1.357 . S
C357 C356 1.357 . S
C357 C358 1.406 . S
C358 H325 0.929 . S
C358 C357 1.406 . S
C358 C359 1.391 . S
C359 H326 0.931 . S
C359 C354 1.370 . S
C359 C358 1.391 . S
C360 N334 1.435 . S
C360 C361 1.358 . S
C360 C365 1.371 . S
C361 H327 0.930 . S
C361 C360 1.358 . S
C361 C362 1.405 . S
C362 H328 0.932 . S
C362 C361 1.405 . S
C362 C363 1.383 . S
C363 C362 1.383 . S
C363 C364 1.393 . S
C364 H329 0.931 . S
C364 C363 1.393 . S
C364 C365 1.382 . S
C365 H330 0.929 . S
C365 C360 1.371 . S
C365 C364 1.382 . S
C366 N334 1.423 . S
C366 C367 1.362 . S
C366 C371 1.388 . S
C367 H331 0.929 . S
C367 C366 1.362 . S
C367 C368 1.376 . S
C368 H332 0.931 . S
C368 C367 1.376 . S
C368 C369 1.396 . S
C369 C351 1.472 . S
C369 C368 1.396 . S
C369 C370 1.348 . S
C370 H333 0.929 . S
C370 C369 1.348 . S
C370 C371 1.443 . S
C371 H335 0.932 . S
C371 C366 1.388 . S
C371 C370 1.443 . S
In372 O373 2.294 . S
In372 O374 2.326 . S
In372 O378 2.266 . S
In372 O379 2.326 . S
In372 O380 2.266 . S
In372 O381 2.326 . S
In372 O383 2.294 . S
In372 O384 2.326 . S
O373 In372 2.294 . S
O373 C382 1.240 . S
O374 In372 2.326 . S
O374 C382 1.252 . S
C375 O378 1.252 . S
C375 O379 1.260 . S
C376 O383 1.240 . S
C376 O384 1.252 . S
C377 O380 1.252 . S
C377 O381 1.260 . S
O378 In372 2.266 . S
O378 C375 1.252 . S
O379 In372 2.326 . S
O379 C375 1.260 . S
O380 In372 2.266 . S
O380 C377 1.252 . S
O381 In372 2.326 . S
O381 C377 1.260 . S
C382 O373 1.240 . S
C382 O374 1.252 . S
O383 In372 2.294 . S
O383 C376 1.240 . S
O384 In372 2.326 . S
O384 C376 1.252 . S
In385 O386 2.294 . S
In385 O387 2.326 . S
In385 O391 2.266 . S
In385 O392 2.326 . S
In385 O393 2.266 . S
In385 O394 2.326 . S
In385 O396 2.294 . S
In385 O397 2.326 . S
O386 In385 2.294 . S
O386 C395 1.240 . S
O387 In385 2.326 . S
O387 C395 1.252 . S
C388 O391 1.252 . S
C388 O392 1.260 . S
C389 O396 1.240 . S
C389 O397 1.252 . S
C390 O393 1.252 . S
C390 O394 1.260 . S
O391 In385 2.266 . S
O391 C388 1.252 . S
O392 In385 2.326 . S
O392 C388 1.260 . S
O393 In385 2.266 . S
O393 C390 1.252 . S
O394 In385 2.326 . S
O394 C390 1.260 . S
C395 O386 1.240 . S
C395 O387 1.252 . S
O396 In385 2.294 . S
O396 C389 1.240 . S
O397 In385 2.326 . S
O397 C389 1.252 . S
In398 O399 2.294 . S
In398 O400 2.326 . S
In398 O404 2.266 . S
In398 O405 2.326 . S
In398 O406 2.266 . S
In398 O407 2.326 . S
In398 O409 2.294 . S
In398 O410 2.326 . S
O399 In398 2.294 . S
O399 C408 1.240 . S
O400 In398 2.326 . S
O400 C408 1.252 . S
C401 O404 1.252 . S
C401 O405 1.260 . S
C402 O409 1.240 . S
C402 O410 1.252 . S
C403 O406 1.252 . S
C403 O407 1.260 . S
O404 In398 2.266 . S
O404 C401 1.252 . S
O405 In398 2.326 . S
O405 C401 1.260 . S
O406 In398 2.266 . S
O406 C403 1.252 . S
O407 In398 2.326 . S
O407 C403 1.260 . S
C408 O399 1.240 . S
C408 O400 1.252 . S
O409 In398 2.294 . S
O409 C402 1.240 . S
O410 In398 2.326 . S
O410 C402 1.252 . S
In411 O412 2.294 . S
In411 O413 2.326 . S
In411 O417 2.266 . S
In411 O418 2.326 . S
In411 O419 2.266 . S
In411 O420 2.326 . S
In411 O422 2.294 . S
In411 O423 2.326 . S
O412 In411 2.294 . S
O412 C421 1.240 . S
O413 In411 2.326 . S
O413 C421 1.252 . S
C414 O417 1.252 . S
C414 O418 1.260 . S
C415 O422 1.240 . S
C415 O423 1.252 . S
C416 O419 1.252 . S
C416 O420 1.260 . S
O417 In411 2.266 . S
O417 C414 1.252 . S
O418 In411 2.326 . S
O418 C414 1.260 . S
O419 In411 2.266 . S
O419 C416 1.252 . S
O420 In411 2.326 . S
O420 C416 1.260 . S
C421 O412 1.240 . S
C421 O413 1.252 . S
O422 In411 2.294 . S
O422 C415 1.240 . S
O423 In411 2.326 . S
O423 C415 1.252 . S
In424 O425 2.294 . S
In424 O426 2.326 . S
In424 O430 2.266 . S
In424 O431 2.326 . S
In424 O432 2.266 . S
In424 O433 2.326 . S
In424 O435 2.294 . S
In424 O436 2.326 . S
O425 In424 2.294 . S
O425 C434 1.240 . S
O426 In424 2.326 . S
O426 C434 1.252 . S
C427 O430 1.252 . S
C427 O431 1.260 . S
C428 O435 1.240 . S
C428 O436 1.252 . S
C429 O432 1.252 . S
C429 O433 1.260 . S
O430 In424 2.266 . S
O430 C427 1.252 . S
O431 In424 2.326 . S
O431 C427 1.260 . S
O432 In424 2.266 . S
O432 C429 1.252 . S
O433 In424 2.326 . S
O433 C429 1.260 . S
C434 O425 1.240 . S
C434 O426 1.252 . S
O435 In424 2.294 . S
O435 C428 1.240 . S
O436 In424 2.326 . S
O436 C428 1.252 . S
In437 O438 2.294 . S
In437 O439 2.326 . S
In437 O443 2.266 . S
In437 O444 2.326 . S
In437 O445 2.266 . S
In437 O446 2.326 . S
In437 O448 2.294 . S
In437 O449 2.326 . S
O438 In437 2.294 . S
O438 C447 1.240 . S
O439 In437 2.326 . S
O439 C447 1.252 . S
C440 O443 1.252 . S
C440 O444 1.260 . S
C441 O448 1.240 . S
C441 O449 1.252 . S
C442 O445 1.252 . S
C442 O446 1.260 . S
O443 In437 2.266 . S
O443 C440 1.252 . S
O444 In437 2.326 . S
O444 C440 1.260 . S
O445 In437 2.266 . S
O445 C442 1.252 . S
O446 In437 2.326 . S
O446 C442 1.260 . S
C447 O438 1.240 . S
C447 O439 1.252 . S
O448 In437 2.294 . S
O448 C441 1.240 . S
O449 In437 2.326 . S
O449 C441 1.252 . S
C450 C451 1.387 . S
C450 H454 0.950 . S
C450 C459 1.390 . S
C451 C450 1.387 . S
C451 C453 1.387 . S
H452 C459 0.950 . S
C453 C451 1.387 . S
C453 C455 1.390 . S
C453 H457 0.950 . S
H454 C450 0.950 . S
C455 C453 1.390 . S
C455 C456 1.387 . S
C455 H458 0.950 . S
C456 C455 1.387 . S
C456 C459 1.387 . S
H457 C453 0.950 . S
H458 C455 0.950 . S
C459 C450 1.390 . S
C459 H452 0.950 . S
C459 C456 1.387 . S
C460 C461 1.387 . S
C460 H464 0.950 . S
C460 C469 1.390 . S
C461 C460 1.387 . S
C461 C463 1.387 . S
H462 C469 0.950 . S
C463 C461 1.387 . S
C463 C465 1.390 . S
C463 H467 0.950 . S
H464 C460 0.950 . S
C465 C463 1.390 . S
C465 C466 1.387 . S
C465 H468 0.950 . S
C466 C465 1.387 . S
C466 C469 1.387 . S
H467 C463 0.950 . S
H468 C465 0.950 . S
C469 C460 1.390 . S
C469 H462 0.950 . S
C469 C466 1.387 . S
C470 C471 1.387 . S
C470 H474 0.950 . S
C470 C479 1.390 . S
C471 C470 1.387 . S
C471 C473 1.387 . S
H472 C479 0.950 . S
C473 C471 1.387 . S
C473 C475 1.390 . S
C473 H477 0.950 . S
H474 C470 0.950 . S
C475 C473 1.390 . S
C475 C476 1.387 . S
C475 H478 0.950 . S
C476 C475 1.387 . S
C476 C479 1.387 . S
H477 C473 0.950 . S
H478 C475 0.950 . S
C479 C470 1.390 . S
C479 H472 0.950 . S
C479 C476 1.387 . S
C480 C481 1.387 . S
C480 H484 0.950 . S
C480 C489 1.390 . S
C481 C480 1.387 . S
C481 C483 1.387 . S
H482 C489 0.950 . S
C483 C481 1.387 . S
C483 C485 1.390 . S
C483 H487 0.950 . S
H484 C480 0.950 . S
C485 C483 1.390 . S
C485 C486 1.387 . S
C485 H488 0.950 . S
C486 C485 1.387 . S
C486 C489 1.387 . S
H487 C483 0.950 . S
H488 C485 0.950 . S
C489 C480 1.390 . S
C489 H482 0.950 . S
C489 C486 1.387 . S
C490 C491 1.387 . S
C490 H494 0.950 . S
C490 C499 1.390 . S
C491 C490 1.387 . S
C491 C493 1.387 . S
H492 C499 0.950 . S
C493 C491 1.387 . S
C493 C495 1.390 . S
C493 H497 0.950 . S
H494 C490 0.950 . S
C495 C493 1.390 . S
C495 C496 1.387 . S
C495 H498 0.950 . S
C496 C495 1.387 . S
C496 C499 1.387 . S
H497 C493 0.950 . S
H498 C495 0.950 . S
C499 C490 1.390 . S
C499 H492 0.950 . S
C499 C496 1.387 . S
C500 C501 1.387 . S
C500 H504 0.950 . S
C500 C509 1.390 . S
C501 C500 1.387 . S
C501 C503 1.387 . S
H502 C509 0.950 . S
C503 C501 1.387 . S
C503 C505 1.390 . S
C503 H507 0.950 . S
H504 C500 0.950 . S
C505 C503 1.390 . S
C505 C506 1.387 . S
C505 H508 0.950 . S
C506 C505 1.387 . S
C506 C509 1.387 . S
H507 C503 0.950 . S
H508 C505 0.950 . S
C509 C500 1.390 . S
C509 H502 0.950 . S
C509 C506 1.387 . S
C510 C511 1.387 . S
C510 H514 0.950 . S
C510 C519 1.390 . S
C511 C510 1.387 . S
C511 C513 1.387 . S
H512 C519 0.950 . S
C513 C511 1.387 . S
C513 C515 1.390 . S
C513 H517 0.950 . S
H514 C510 0.950 . S
C515 C513 1.390 . S
C515 C516 1.387 . S
C515 H518 0.950 . S
C516 C515 1.387 . S
C516 C519 1.387 . S
H517 C513 0.950 . S
H518 C515 0.950 . S
C519 C510 1.390 . S
C519 H512 0.950 . S
C519 C516 1.387 . S
C520 C521 1.387 . S
C520 H524 0.950 . S
C520 C529 1.390 . S
C521 C520 1.387 . S
C521 C523 1.387 . S
H522 C529 0.950 . S
C523 C521 1.387 . S
C523 C525 1.390 . S
C523 H527 0.950 . S
H524 C520 0.950 . S
C525 C523 1.390 . S
C525 C526 1.387 . S
C525 H528 0.950 . S
C526 C525 1.387 . S
C526 C529 1.387 . S
H527 C523 0.950 . S
H528 C525 0.950 . S
C529 C520 1.390 . S
C529 H522 0.950 . S
C529 C526 1.387 . S
C530 C531 1.387 . S
C530 H534 0.950 . S
C530 C539 1.390 . S
C531 C530 1.387 . S
C531 C533 1.387 . S
H532 C539 0.950 . S
C533 C531 1.387 . S
C533 C535 1.390 . S
C533 H537 0.950 . S
H534 C530 0.950 . S
C535 C533 1.390 . S
C535 C536 1.387 . S
C535 H538 0.950 . S
C536 C535 1.387 . S
C536 C539 1.387 . S
H537 C533 0.950 . S
H538 C535 0.950 . S
C539 C530 1.390 . S
C539 H532 0.950 . S
C539 C536 1.387 . S
C540 C541 1.387 . S
C540 H544 0.950 1_554 S
C540 C549 1.390 . S
C541 C540 1.387 . S
C541 C543 1.387 . S
H542 C549 0.950 . S
C543 C541 1.387 . S
C543 C545 1.390 . S
C543 H547 0.950 . S
H544 C540 0.950 1_556 S
C545 C543 1.390 . S
C545 C546 1.387 . S
C545 H548 0.950 . S
C546 C545 1.387 . S
C546 C549 1.387 . S
H547 C543 0.950 . S
H548 C545 0.950 . S
C549 C540 1.390 . S
C549 H542 0.950 . S
C549 C546 1.387 . S
C550 C551 1.387 . S
C550 H554 0.950 . S
C550 C559 1.390 . S
C551 C550 1.387 . S
C551 C553 1.387 . S
H552 C559 0.950 . S
C553 C551 1.387 . S
C553 C555 1.390 . S
C553 H557 0.950 . S
H554 C550 0.950 . S
C555 C553 1.390 . S
C555 C556 1.387 . S
C555 H558 0.950 . S
C556 C555 1.387 . S
C556 C559 1.387 . S
H557 C553 0.950 . S
H558 C555 0.950 . S
C559 C550 1.390 . S
C559 H552 0.950 . S
C559 C556 1.387 . S
C560 C561 1.387 . S
C560 H564 0.950 . S
C560 C569 1.390 . S
C561 C560 1.387 . S
C561 C563 1.387 . S
H562 C569 0.950 . S
C563 C561 1.387 . S
C563 C565 1.390 . S
C563 H567 0.950 . S
H564 C560 0.950 . S
C565 C563 1.390 . S
C565 C566 1.387 . S
C565 H568 0.950 . S
C566 C565 1.387 . S
C566 C569 1.387 . S
H567 C563 0.950 . S
H568 C565 0.950 . S
C569 C560 1.390 . S
C569 H562 0.950 . S
C569 C566 1.387 . S
C570 C571 1.387 . S
C570 H574 0.950 . S
C570 C579 1.390 . S
C571 C570 1.387 . S
C571 C573 1.387 . S
H572 C579 0.950 . S
C573 C571 1.387 . S
C573 C575 1.390 . S
C573 H577 0.950 . S
H574 C570 0.950 . S
C575 C573 1.390 . S
C575 C576 1.387 . S
C575 H578 0.950 . S
C576 C575 1.387 . S
C576 C579 1.387 . S
H577 C573 0.950 . S
H578 C575 0.950 . S
C579 C570 1.390 . S
C579 H572 0.950 . S
C579 C576 1.387 . S
C580 C581 1.387 . S
C580 H584 0.950 . S
C580 C589 1.390 . S
C581 C580 1.387 . S
C581 C583 1.387 . S
H582 C589 0.950 . S
C583 C581 1.387 . S
C583 C585 1.390 . S
C583 H587 0.950 . S
H584 C580 0.950 . S
C585 C583 1.390 . S
C585 C586 1.387 . S
C585 H588 0.950 . S
C586 C585 1.387 . S
C586 C589 1.387 . S
H587 C583 0.950 . S
H588 C585 0.950 . S
C589 C580 1.390 . S
C589 H582 0.950 . S
C589 C586 1.387 . S
C590 C591 1.387 . S
C590 H594 0.950 . S
C590 C599 1.390 . S
C591 C590 1.387 . S
C591 C593 1.387 . S
H592 C599 0.950 . S
C593 C591 1.387 . S
C593 C595 1.390 . S
C593 H597 0.950 . S
H594 C590 0.950 . S
C595 C593 1.390 . S
C595 C596 1.387 . S
C595 H598 0.950 . S
C596 C595 1.387 . S
C596 C599 1.387 . S
H597 C593 0.950 . S
H598 C595 0.950 . S
C599 C590 1.390 . S
C599 H592 0.950 . S
C599 C596 1.387 . S
C600 C601 1.387 . S
C600 H604 0.950 . S
C600 C609 1.390 . S
C601 C600 1.387 . S
C601 C603 1.387 . S
H602 C609 0.950 . S
C603 C601 1.387 . S
C603 C605 1.390 . S
C603 H607 0.950 . S
H604 C600 0.950 . S
C605 C603 1.390 . S
C605 C606 1.387 . S
C605 H608 0.950 . S
C606 C605 1.387 . S
C606 C609 1.387 . S
H607 C603 0.950 . S
H608 C605 0.950 . S
C609 C600 1.390 . S
C609 H602 0.950 . S
C609 C606 1.387 . S
C610 C611 1.387 . S
C610 H614 0.950 . S
C610 C619 1.390 . S
C611 C610 1.387 . S
C611 C613 1.387 . S
H612 C619 0.950 . S
C613 C611 1.387 . S
C613 C615 1.390 . S
C613 H617 0.950 . S
H614 C610 0.950 . S
C615 C613 1.390 . S
C615 C616 1.387 . S
C615 H618 0.950 . S
C616 C615 1.387 . S
C616 C619 1.387 . S
H617 C613 0.950 . S
H618 C615 0.950 . S
C619 C610 1.390 . S
C619 H612 0.950 . S
C619 C616 1.387 . S
C620 C621 1.387 . S
C620 H624 0.950 . S
C620 C629 1.390 . S
C621 C620 1.387 . S
C621 C623 1.387 . S
H622 C629 0.950 . S
C623 C621 1.387 . S
C623 C625 1.390 . S
C623 H627 0.950 . S
H624 C620 0.950 . S
C625 C623 1.390 . S
C625 C626 1.387 . S
C625 H628 0.950 . S
C626 C625 1.387 . S
C626 C629 1.387 . S
H627 C623 0.950 . S
H628 C625 0.950 . S
C629 C620 1.390 . S
C629 H622 0.950 . S
C629 C626 1.387 . S
C630 C631 1.387 . S
C630 H634 0.950 . S
C630 C639 1.390 . S
C631 C630 1.387 . S
C631 C633 1.387 . S
H632 C639 0.950 . S
C633 C631 1.387 . S
C633 C635 1.390 . S
C633 H637 0.950 . S
H634 C630 0.950 . S
C635 C633 1.390 . S
C635 C636 1.387 . S
C635 H638 0.950 . S
C636 C635 1.387 . S
C636 C639 1.387 . S
H637 C633 0.950 . S
H638 C635 0.950 . S
C639 C630 1.390 . S
C639 H632 0.950 . S
C639 C636 1.387 . S
C640 C641 1.387 . S
C640 H644 0.950 . S
C640 C649 1.390 . S
C641 C640 1.387 . S
C641 C643 1.387 . S
H642 C649 0.950 . S
C643 C641 1.387 . S
C643 C645 1.390 . S
C643 H647 0.950 . S
H644 C640 0.950 . S
C645 C643 1.390 . S
C645 C646 1.387 . S
C645 H648 0.950 . S
C646 C645 1.387 . S
C646 C649 1.387 . S
H647 C643 0.950 . S
H648 C645 0.950 . S
C649 C640 1.390 . S
C649 H642 0.950 . S
C649 C646 1.387 . S
C650 C651 1.387 . S
C650 H654 0.950 . S
C650 C659 1.390 . S
C651 C650 1.387 . S
C651 C653 1.387 . S
H652 C659 0.950 . S
C653 C651 1.387 . S
C653 C655 1.390 . S
C653 H657 0.950 . S
H654 C650 0.950 . S
C655 C653 1.390 . S
C655 C656 1.387 . S
C655 H658 0.950 . S
C656 C655 1.387 . S
C656 C659 1.387 . S
H657 C653 0.950 . S
H658 C655 0.950 . S
C659 C650 1.390 . S
C659 H652 0.950 . S
C659 C656 1.387 . S
C660 C661 1.387 . S
C660 H664 0.950 . S
C660 C669 1.390 . S
C661 C660 1.387 . S
C661 C663 1.387 . S
H662 C669 0.950 . S
C663 C661 1.387 . S
C663 C665 1.390 . S
C663 H667 0.950 . S
H664 C660 0.950 . S
C665 C663 1.390 . S
C665 C666 1.387 . S
C665 H668 0.950 . S
C666 C665 1.387 . S
C666 C669 1.387 . S
H667 C663 0.950 . S
H668 C665 0.950 . S
C669 C660 1.390 . S
C669 H662 0.950 . S
C669 C666 1.387 . S
C670 C671 1.379 1_556 S
C670 H674 0.942 1_556 S
C670 C679 1.407 . S
C671 C670 1.379 1_554 S
C671 C673 1.388 . S
H672 C679 0.950 . S
C673 C671 1.388 . S
C673 C675 1.389 1_554 S
C673 H677 0.950 . S
H674 C670 0.942 1_554 S
C675 C673 1.389 1_556 S
C675 C676 1.387 . S
C675 H678 0.950 . S
C676 C675 1.387 . S
C676 C679 1.387 . S
H677 C673 0.950 . S
H678 C675 0.950 . S
C679 C670 1.407 . S
C679 H672 0.950 . S
C679 C676 1.387 . S
C680 C681 1.387 . S
C680 H684 0.950 . S
C680 C689 1.390 . S
C681 C680 1.387 . S
C681 C683 1.387 . S
H682 C689 0.950 . S
C683 C681 1.387 . S
C683 C685 1.390 . S
C683 H687 0.950 . S
H684 C680 0.950 . S
C685 C683 1.390 . S
C685 C686 1.387 . S
C685 H688 0.950 . S
C686 C685 1.387 . S
C686 C689 1.387 . S
H687 C683 0.950 . S
H688 C685 0.950 . S
C689 C680 1.390 . S
C689 H682 0.950 . S
C689 C686 1.387 . S
C456 C442 1.625 . S
C451 C29 1.532 . S
C461 C115 1.546 . S
C466 C377 1.552 . S
C471 C153 1.546 . S
C476 C395 1.642 . S
C481 C239 1.541 . S
C486 C408 1.542 . S
C496 C416 1.587 . S
C491 C301 1.575 . S
C501 C339 1.737 . S
C506 C428 1.859 . S
C511 C91 1.549 . S
C516 C390 1.649 . S
C521 C177 1.545 . S
C526 C403 1.551 . S
C531 C215 1.529 . S
C536 C421 1.623 . S
C546 C427 1.865 . S
C541 C277 1.740 . S
C556 C447 1.576 . S
C551 C363 1.564 . S
C566 C382 1.546 . S
C561 C53 1.547 . S
C571 C35 1.689 . S
C576 C388 1.737 . S
C581 C109 1.499 . S
C586 C401 1.650 . S
C596 C415 1.610 . S
C591 C159 1.585 . S
C601 C233 1.691 . S
C606 C429 1.847 1_556 S
C616 C441 1.702 . S
C611 C295 1.506 . S
C626 C376 1.617 . S
C621 C345 1.591 . S
C636 C440 1.620 . S
C631 C97 1.590 . S
C641 C171 1.498 . S
C646 C375 1.646 . S
C656 C389 1.732 . S
C651 C221 1.688 . S
C661 C283 1.591 . S
C666 C402 1.617 . S
C671 C357 1.518 . S
C676 C414 1.710 . S
C681 C47 1.682 . S
C686 C434 1.842 . S
