# Generated by pormake.
# Topology anh, (6,3)-cn, num edge types: 1
# Building blocks:
#     Node 0, Type 0, BuildingBlock: BETFAJ_clean_sbu_0, # of connection points: 6
#     Node 1, Type 0, BuildingBlock: BETFAJ_clean_sbu_0, # of connection points: 6
#     Node 2, Type 0, BuildingBlock: BETFAJ_clean_sbu_0, # of connection points: 6
#     Node 3, Type 1, BuildingBlock: KAKCAD_clean_linker_0, # of connection points: 3
#     Node 4, Type 1, BuildingBlock: KAKCAD_clean_linker_0, # of connection points: 3
#     Node 5, Type 1, BuildingBlock: KAKCAD_clean_linker_0, # of connection points: 3
#     Node 6, Type 1, BuildingBlock: KAKCAD_clean_linker_0, # of connection points: 3
#     Node 7, Type 1, BuildingBlock: KAKCAD_clean_linker_0, # of connection points: 3
#     Node 8, Type 1, BuildingBlock: KAKCAD_clean_linker_0, # of connection points: 3
#     Edge 9, Type (0, 1), BuildingBlock: MIFKUJ_clean_linker_0, # of connection points: 2
#     Edge 10, Type (0, 1), BuildingBlock: MIFKUJ_clean_linker_0, # of connection points: 2
#     Edge 11, Type (0, 1), BuildingBlock: MIFKUJ_clean_linker_0, # of connection points: 2
#     Edge 12, Type (0, 1), BuildingBlock: MIFKUJ_clean_linker_0, # of connection points: 2
#     Edge 13, Type (0, 1), BuildingBlock: MIFKUJ_clean_linker_0, # of connection points: 2
#     Edge 14, Type (0, 1), BuildingBlock: MIFKUJ_clean_linker_0, # of connection points: 2
#     Edge 15, Type (0, 1), BuildingBlock: MIFKUJ_clean_linker_0, # of connection points: 2
#     Edge 16, Type (0, 1), BuildingBlock: MIFKUJ_clean_linker_0, # of connection points: 2
#     Edge 17, Type (0, 1), BuildingBlock: MIFKUJ_clean_linker_0, # of connection points: 2
#     Edge 18, Type (0, 1), BuildingBlock: MIFKUJ_clean_linker_0, # of connection points: 2
#     Edge 19, Type (0, 1), BuildingBlock: MIFKUJ_clean_linker_0, # of connection points: 2
#     Edge 20, Type (0, 1), BuildingBlock: MIFKUJ_clean_linker_0, # of connection points: 2
#     Edge 21, Type (0, 1), BuildingBlock: MIFKUJ_clean_linker_0, # of connection points: 2
#     Edge 22, Type (0, 1), BuildingBlock: MIFKUJ_clean_linker_0, # of connection points: 2
#     Edge 23, Type (0, 1), BuildingBlock: MIFKUJ_clean_linker_0, # of connection points: 2
#     Edge 24, Type (0, 1), BuildingBlock: MIFKUJ_clean_linker_0, # of connection points: 2
#     Edge 25, Type (0, 1), BuildingBlock: MIFKUJ_clean_linker_0, # of connection points: 2
#     Edge 26, Type (0, 1), BuildingBlock: MIFKUJ_clean_linker_0, # of connection points: 2
# Relax obj value: 0.164
# Max RMSD: 0.198
# Mean RMSD: 0.149
data_MOF--net-anh--node1-BETFAJ_clean_sbu_0--node2-KAKCAD_clean_linker_0--edge1-MIFKUJ_clean_linker_0
_symmetry_space_group_name_H-M    P1
_symmetry_Int_Tables_number       1
_symmetry_cell_setting            triclinic
loop_
_symmetry_equiv_pos_as_xyz
'x, y, z'
_cell_length_a     48.283026
_cell_length_b     52.94167
_cell_length_c     82.770513
_cell_angle_alpha  92.286996
_cell_angle_beta   89.835967
_cell_angle_gamma 127.41305
loop_
_atom_site_label
_atom_site_type_symbol
_atom_site_fract_x
_atom_site_fract_y
_atom_site_fract_z
_atom_type_partial_charge
Sm0 Sm 0.05333 0.51005 0.14771 0.0
Sm1 Sm 1.01171 0.53738 0.15722 0.0
C2 C 0.08302 0.48525 0.13585 0.0
C3 C 0.11674 0.49173 0.13933 0.0
C4 C 0.14114 0.50231 0.12709 0.0
C5 C 0.17406 0.5105 0.13048 0.0
C6 C 0.18306 0.50799 0.14616 0.0
C7 C 0.15847 0.49717 0.15838 0.0
C8 C 0.12571 0.48926 0.15502 0.0
C9 C 0.05162 0.52223 0.18008 0.0
C10 C 0.09774 0.58751 0.1534 0.0
C11 C 0.98115 0.55527 0.17553 0.0
C12 C 0.95333 0.53874 0.18729 0.0
C13 C 0.94632 0.55576 0.19755 0.0
C14 C 0.91656 0.5395 0.20696 0.0
C15 C 0.89301 0.50595 0.20598 0.0
C16 C 0.90183 0.48917 0.19654 0.0
C17 C 0.93182 0.50545 0.18741 0.0
C18 C 0.01903 0.53697 0.12385 0.0
C19 C 0.96728 0.45984 0.15078 0.0
O20 O 0.08462 0.50784 0.12882 0.0
O21 O 0.06004 0.47228 0.14728 0.0
O22 O 0.02669 0.51031 0.16997 0.0
O23 O 0.07846 0.52656 0.17335 0.0
O24 O 0.09741 0.56408 0.1468 0.0
O25 O 0.06931 0.58261 0.15927 0.0
O26 O 1.01089 0.56131 0.1797 0.0
O27 O 0.97131 0.54434 0.16049 0.0
O28 O 0.02979 0.52831 0.13445 0.0
O29 O 1.00315 0.54704 0.131 0.0
O30 O 0.96775 0.48336 0.15727 0.0
O31 O 0.99557 0.46483 0.14462 0.0
H32 H 0.1349 0.50468 0.11495 0.0
H33 H 0.19256 0.51909 0.12084 0.0
H34 H 0.16433 0.49439 0.1705 0.0
H35 H 0.10755 0.48137 0.16478 0.0
H36 H 0.96306 0.58154 0.19781 0.0
H37 H 0.91127 0.5533 0.21444 0.0
H38 H 0.88447 0.46344 0.19518 0.0
H39 H 0.93707 0.49189 0.17972 0.0
Sm40 Sm 0.55148 0.00582 0.4808 0.0
Sm41 Sm 0.50917 0.02867 0.4768 0.0
C42 C 0.57876 0.97741 0.48984 0.0
C43 C 0.56993 0.94572 0.49223 0.0
C44 C 0.54408 0.92442 0.50294 0.0
C45 C 0.53838 0.89573 0.50593 0.0
C46 C 0.55837 0.88772 0.49828 0.0
C47 C 0.58349 0.90874 0.48722 0.0
C48 C 0.58926 0.9374 0.4843 0.0
C49 C 0.54586 0.01742 0.44937 0.0
C50 C 0.46578 0.95291 0.47493 0.0
C51 C 0.4827 0.05877 0.46986 0.0
C52 C 0.48886 0.08919 0.47461 0.0
C53 C 0.51763 0.11847 0.46906 0.0
C54 C 0.52277 0.14684 0.47363 0.0
C55 C 0.4993 0.14666 0.48387 0.0
C56 C 0.47054 0.11731 0.48937 0.0
C57 C 0.46532 0.08897 0.48474 0.0
C58 C 0.5169 0.01898 0.50846 0.0
C59 C 0.59575 0.08173 0.47956 0.0
O60 O 0.56645 0.98773 0.49999 0.0
O61 O 0.57904 0.98497 0.47497 0.0
O62 O 0.52098 1.00327 0.45905 0.0
O63 O 0.57458 0.0252 0.45598 0.0
O64 O 0.49425 0.95914 0.48175 0.0
O65 O 0.46629 0.97616 0.4693 0.0
O66 O 0.50611 0.06009 0.46109 0.0
O67 O 0.47025 0.03764 0.48089 0.0
O68 O 0.54091 0.03247 0.49836 0.0
O69 O 0.48793 0.01089 0.50211 0.0
O70 O 0.56578 0.07516 0.4748 0.0
O71 O 0.59699 0.05913 0.48468 0.0
H72 H 0.52873 0.93015 0.50925 0.0
H73 H 0.51903 0.88032 0.51462 0.0
H74 H 0.59891 0.90315 0.48086 0.0
H75 H 0.60932 0.9534 0.47599 0.0
H76 H 0.53617 0.11953 0.46114 0.0
H77 H 0.54493 0.16888 0.46896 0.0
H78 H 0.45219 0.11619 0.49746 0.0
H79 H 0.44283 0.06681 0.48916 0.0
Sm80 Sm 0.57117 0.55854 0.8485 0.0
Sm81 Sm 0.52468 0.48841 0.85087 0.0
C82 C 0.60141 0.6174 0.83931 0.0
C83 C 0.59363 0.63994 0.83606 0.0
C84 C 0.56894 0.63304 0.82412 0.0
C85 C 0.56389 0.65568 0.82054 0.0
C86 C 0.58334 0.68576 0.82882 0.0
C87 C 0.60749 0.69226 0.84098 0.0
C88 C 0.61262 0.66969 0.8445 0.0
C89 C 0.56265 0.53953 0.87951 0.0
C90 C 0.48326 0.52106 0.85196 0.0
C91 C 0.49555 0.42844 0.8573 0.0
C92 C 0.50162 0.40459 0.85313 0.0
C93 C 0.53208 0.4089 0.85822 0.0
C94 C 0.53721 0.38611 0.85395 0.0
C95 C 0.51208 0.3585 0.84444 0.0
C96 C 0.4817 0.3544 0.83936 0.0
C97 C 0.4765 0.37703 0.84372 0.0
C98 C 0.53401 0.50757 0.81972 0.0
C99 C 0.61325 0.52642 0.85029 0.0
O100 O 0.58854 0.59285 0.82917 0.0
O101 O 0.60108 0.61059 0.85436 0.0
O102 O 0.53851 0.52723 0.86889 0.0
O103 O 0.59219 0.56372 0.87421 0.0
O104 O 0.51432 0.54668 0.84737 0.0
O105 O 0.4811 0.49564 0.85589 0.0
O106 O 0.51819 0.45269 0.86709 0.0
O107 O 0.48482 0.43644 0.84548 0.0
O108 O 0.55797 0.5196 0.83043 0.0
O109 O 0.50433 0.48415 0.82518 0.0
O110 O 0.58102 0.49964 0.85223 0.0
O111 O 0.61678 0.55302 0.8477 0.0
H112 H 0.55389 0.61035 0.81734 0.0
H113 H 0.54534 0.64985 0.81098 0.0
H114 H 0.62252 0.71484 0.84784 0.0
H115 H 0.63185 0.67567 0.85374 0.0
H116 H 0.55203 0.42986 0.8655 0.0
H117 H 0.56074 0.39003 0.85828 0.0
H118 H 0.46201 0.33388 0.83178 0.0
H119 H 0.45281 0.37307 0.83959 0.0
C120 C 0.54627 0.05463 0.26825 0.0
C121 C 0.53573 0.02748 0.27644 0.0
C122 C 0.547 0.05439 0.25133 0.0
C123 C 0.5377 0.02711 0.2422 0.0
C124 C 0.52762 1.00011 0.2505 0.0
C125 C 0.52642 1.00022 0.26739 0.0
C126 C 0.53805 0.02668 0.22412 0.0
C127 C 0.56365 0.054 0.216 0.0
C128 C 0.56382 0.05432 0.19898 0.0
C129 C 0.53787 0.02596 0.18994 0.0
C130 C 0.51223 0.99802 0.19794 0.0
C131 C 0.51255 0.99894 0.21493 0.0
C132 C 0.48431 0.96731 0.18916 0.0
C133 C 0.45955 0.96491 0.17892 0.0
C134 C 0.47921 0.93913 0.19304 0.0
C135 C 0.44954 0.90928 0.18739 0.0
C136 C 0.42378 0.90658 0.17777 0.0
C137 C 0.59164 0.0847 0.19121 0.0
C138 C 0.601 0.11397 0.19776 0.0
C139 C 0.61125 0.08533 0.17839 0.0
C140 C 0.64034 0.11452 0.17282 0.0
C141 C 0.65045 0.14386 0.17984 0.0
C142 C 0.62988 0.14296 0.19224 0.0
C143 C 0.42953 0.93489 0.17336 0.0
H144 H 0.55328 0.07589 0.27491 0.0
H145 H 0.5543 0.07546 0.24543 0.0
H146 H 0.52096 0.97887 0.24398 0.0
H147 H 0.51868 0.9791 0.2734 0.0
H148 H 0.58415 0.07515 0.223 0.0
H149 H 0.49214 0.97789 0.22102 0.0
H150 H 0.53759 0.02562 0.17685 0.0
H151 H 0.46252 0.98614 0.17589 0.0
H152 H 0.49767 0.94017 0.20102 0.0
H153 H 0.44605 0.8882 0.19121 0.0
H154 H 0.58637 0.11452 0.20754 0.0
H155 H 0.60495 0.06332 0.17309 0.0
H156 H 0.4105 0.93382 0.16585 0.0
H157 H 0.63672 0.16473 0.19817 0.0
H158 H 0.65508 0.11406 0.16309 0.0
C159 C 0.53004 0.53513 0.63909 0.0
C160 C 0.55389 0.53268 0.64712 0.0
C161 C 0.5284 0.53432 0.62219 0.0
C162 C 0.55042 0.53083 0.61292 0.0
C163 C 0.57445 0.5286 0.62094 0.0
C164 C 0.57626 0.52965 0.63785 0.0
C165 C 0.548 0.52916 0.59493 0.0
C166 C 0.54486 0.55009 0.58678 0.0
C167 C 0.54197 0.54844 0.5698 0.0
C168 C 0.54236 0.52538 0.56093 0.0
C169 C 0.54547 0.50412 0.56889 0.0
C170 C 0.54831 0.50632 0.58589 0.0
C171 C 0.54496 0.47905 0.55966 0.0
C172 C 0.52112 0.46119 0.54666 0.0
C173 C 0.56735 0.4718 0.56427 0.0
C174 C 0.56538 0.44687 0.55639 0.0
C175 C 0.54098 0.42847 0.54366 0.0
C176 C 0.53889 0.57116 0.5615 0.0
C177 C 0.51749 0.57873 0.56775 0.0
C178 C 0.5583 0.58645 0.54773 0.0
C179 C 0.55709 0.60941 0.54069 0.0
C180 C 0.53628 0.61749 0.54718 0.0
C181 C 0.5162 0.60156 0.56069 0.0
C182 C 0.51912 0.43618 0.53878 0.0
H183 H 0.51267 0.53778 0.64588 0.0
H184 H 0.50943 0.53585 0.61638 0.0
H185 H 0.59198 0.52619 0.61414 0.0
H186 H 0.59472 0.52745 0.64367 0.0
H187 H 0.54546 0.56825 0.59369 0.0
H188 H 0.54966 0.48951 0.59217 0.0
H189 H 0.54013 0.52391 0.54785 0.0
H190 H 0.50332 0.46595 0.54286 0.0
H191 H 0.58631 0.4853 0.57409 0.0
H192 H 0.58242 0.4415 0.5606 0.0
H193 H 0.50187 0.56713 0.57823 0.0
H194 H 0.5752 0.58132 0.54267 0.0
H195 H 0.50031 0.42279 0.52889 0.0
H196 H 0.50012 0.60733 0.56612 0.0
H197 H 0.57259 0.62094 0.53018 0.0
C198 C 0.07344 0.54078 0.94207 0.0
C199 C 0.04117 0.52307 0.94976 0.0
C200 C 0.07493 0.5407 0.92515 0.0
C201 C 0.04418 0.52262 0.91543 0.0
C202 C 1.01193 0.50455 0.92318 0.0
C203 C 1.01045 0.50492 0.94009 0.0
C204 C 0.04573 0.52296 0.89732 0.0
C205 C 0.07185 0.52346 0.88935 0.0
C206 C 0.07543 0.52473 0.87243 0.0
C207 C 0.04916 0.52452 0.86325 0.0
C208 C 0.02138 0.52375 0.87132 0.0
C209 C 0.02129 0.5232 0.88827 0.0
C210 C 0.99124 0.5235 0.86387 0.0
C211 C 0.99474 0.55195 0.86214 0.0
C212 C 0.95599 0.4955 0.86354 0.0
C213 C 0.92657 0.49579 0.86153 0.0
C214 C 0.92987 0.52427 0.86001 0.0
C215 C 0.10809 0.52726 0.8663 0.0
C216 C 0.14141 0.54966 0.87406 0.0
C217 C 0.10642 0.50433 0.85583 0.0
C218 C 0.13579 0.5037 0.85363 0.0
C219 C 0.16877 0.5256 0.86195 0.0
C220 C 0.17039 0.5489 0.87201 0.0
C221 C 0.96531 0.55232 0.86014 0.0
H222 H 0.09759 0.55532 0.94915 0.0
H223 H 0.10026 0.55535 0.91971 0.0
H224 H 0.98768 0.48984 0.91618 0.0
H225 H 0.98517 0.49065 0.94562 0.0
H226 H 0.08981 0.52249 0.8966 0.0
H227 H 1.00179 0.52345 0.89463 0.0
H228 H 0.05057 0.52538 0.85022 0.0
H229 H 0.02059 0.57452 0.86307 0.0
H230 H 0.95089 0.47298 0.86564 0.0
H231 H 0.90089 0.47322 0.86187 0.0
H232 H 0.14493 0.56774 0.88242 0.0
H233 H 0.0818 0.4858 0.8498 0.0
H234 H 0.97079 0.57522 0.85897 0.0
H235 H 0.19439 0.56697 0.87858 0.0
H236 H 0.13199 0.48498 0.84575 0.0
C237 C 1.00026 0.50726 0.36215 0.0
C238 C 0.02893 0.51351 0.35359 0.0
C239 C 0.99969 0.50621 0.37903 0.0
C240 C 0.02797 0.51185 0.38779 0.0
C241 C 0.05659 0.51803 0.37932 0.0
C242 C 0.05694 0.51858 0.36243 0.0
C243 C 0.0279 0.51193 0.40574 0.0
C244 C 0.99902 0.48683 0.41374 0.0
C245 C 0.99803 0.48685 0.43078 0.0
C246 C 0.02708 0.51317 0.43982 0.0
C247 C 0.05655 0.53857 0.43184 0.0
C248 C 0.05656 0.53741 0.41485 0.0
C249 C 0.0876 0.56724 0.44062 0.0
C250 C 0.08462 0.58784 0.45033 0.0
C251 C 0.1212 0.57684 0.43715 0.0
C252 C 0.15105 0.60673 0.44268 0.0
C253 C 0.14823 0.62815 0.45169 0.0
C254 C 0.96656 0.45874 0.43857 0.0
C255 C 0.93305 0.44382 0.43167 0.0
C256 C 0.96964 0.44465 0.45182 0.0
C257 C 0.94028 0.41572 0.45746 0.0
C258 C 0.90698 0.40003 0.45001 0.0
C259 C 0.90393 0.41496 0.43717 0.0
C260 C 0.11458 0.61803 0.45572 0.0
H261 H 0.97845 0.50379 0.35589 0.0
H262 H 0.97745 0.50173 0.38528 0.0
H263 H 0.07857 0.52211 0.38577 0.0
H264 H 0.07914 0.52273 0.35633 0.0
H265 H 0.97751 0.46673 0.40656 0.0
H266 H 0.07871 0.55705 0.40864 0.0
H267 H 0.02682 0.51393 0.45291 0.0
H268 H 0.05911 0.58131 0.45302 0.0
H269 H 0.12435 0.56162 0.42957 0.0
H270 H 0.17634 0.61363 0.43918 0.0
H271 H 0.92933 0.45409 0.42163 0.0
H272 H 0.99495 0.4553 0.45744 0.0
H273 H 0.11136 0.63371 0.46278 0.0
H274 H 0.87919 0.40388 0.43087 0.0
H275 H 0.94387 0.40554 0.46757 0.0
C276 C 0.52595 0.9938 0.69005 0.0
C277 C 0.54783 0.02218 0.68188 0.0
C278 C 0.52691 0.99411 0.70695 0.0
C279 C 0.54961 0.02284 0.71613 0.0
C280 C 0.57157 0.05121 0.70797 0.0
C281 C 0.57079 0.05087 0.69105 0.0
C282 C 0.55014 0.02317 0.73415 0.0
C283 C 0.54923 0.99982 0.74218 0.0
C284 C 0.54907 0.99941 0.75918 0.0
C285 C 0.55009 0.0232 0.7682 0.0
C286 C 0.55121 0.047 0.76036 0.0
C287 C 0.55117 0.04662 0.74334 0.0
C288 C 0.55176 0.0721 0.76968 0.0
C289 C 0.5298 0.06448 0.78282 0.0
C290 C 0.57308 0.10376 0.76489 0.0
C291 C 0.5718 0.12696 0.77269 0.0
C292 C 0.54916 0.11924 0.78555 0.0
C293 C 0.54822 0.97417 0.76726 0.0
C294 C 0.52736 0.94265 0.7607 0.0
C295 C 0.56941 0.98147 0.781 0.0
C296 C 0.57047 0.95809 0.78767 0.0
C297 C 0.55028 0.92676 0.78081 0.0
C298 C 0.52842 0.91935 0.76734 0.0
C299 C 0.52844 0.08773 0.79062 0.0
H300 H 0.5082 0.97126 0.68335 0.0
H301 H 0.50945 0.97187 0.71286 0.0
H302 H 0.58958 0.0737 0.71467 0.0
H303 H 0.58777 0.07319 0.68515 0.0
H304 H 0.54947 0.98227 0.73512 0.0
H305 H 0.55091 0.06414 0.73716 0.0
H306 H 0.54997 0.02317 0.78129 0.0
H307 H 0.51287 0.04032 0.78678 0.0
H308 H 0.59062 0.11061 0.75494 0.0
H309 H 0.58793 0.15082 0.76831 0.0
H310 H 0.51033 0.93598 0.75026 0.0
H311 H 0.58596 0.00549 0.78633 0.0
H312 H 0.51101 0.08097 0.80061 0.0
H313 H 0.51274 0.89568 0.76158 0.0
H314 H 0.58725 0.96463 0.79818 0.0
C315 C 0.52626 0.42421 0.0499 0.0
C316 C 0.53642 0.45296 0.04367 0.0
C317 C 0.52187 0.41969 0.06654 0.0
C318 C 0.52692 0.44364 0.07713 0.0
C319 C 0.53754 0.4725 0.07091 0.0
C320 C 0.54242 0.47718 0.05437 0.0
C321 C 0.51962 0.43829 0.09455 0.0
C322 C 0.53562 0.42881 0.10411 0.0
C323 C 0.53032 0.4261 0.12088 0.0
C324 C 0.50746 0.43129 0.12775 0.0
C325 C 0.492 0.44137 0.11846 0.0
C326 C 0.49803 0.44468 0.10184 0.0
C327 C 0.47236 0.45122 0.12655 0.0
C328 C 0.44862 0.43291 0.13864 0.0
C329 C 0.47923 0.48026 0.12308 0.0
C330 C 0.4629 0.49092 0.13161 0.0
C331 C 0.43936 0.47274 0.14378 0.0
C332 C 0.55113 0.42138 0.13172 0.0
C333 C 0.558 0.39968 0.12761 0.0
C334 C 0.56446 0.43916 0.14652 0.0
C335 C 0.58367 0.43512 0.15706 0.0
C336 C 0.591 0.41379 0.15297 0.0
C337 C 0.57778 0.39589 0.13817 0.0
C338 C 0.43224 0.44355 0.14716 0.0
H339 H 0.52163 0.40523 0.04189 0.0
H340 H 0.51356 0.39721 0.07108 0.0
H341 H 0.54181 0.4914 0.07886 0.0
H342 H 0.54996 0.49946 0.0499 0.0
H343 H 0.55365 0.42543 0.09865 0.0
H344 H 0.486 0.45237 0.09456 0.0
H345 H 0.50308 0.4291 0.14063 0.0
H346 H 0.44278 0.41038 0.14153 0.0
H347 H 0.49779 0.49509 0.11399 0.0
H348 H 0.46833 0.51321 0.12852 0.0
H349 H 0.54801 0.3856 0.11632 0.0
H350 H 0.56044 0.45665 0.14996 0.0
H351 H 0.41417 0.42905 0.15647 0.0
H352 H 0.58328 0.37947 0.13462 0.0
H353 H 0.59297 0.44896 0.16844 0.0
H354 H 0.21828 0.4937 0.12703 0.0
H355 H 0.27252 0.50207 0.13344 0.0
H356 H 0.27954 0.54617 0.17978 0.0
H357 H 0.22534 0.53857 0.17328 0.0
H358 H 0.33953 0.55502 0.14139 0.0
H359 H 0.31115 0.51767 0.20636 0.0
H360 H 0.26188 0.48915 0.22493 0.0
H361 H 0.19201 0.43071 0.18499 0.0
H362 H 0.24094 0.45863 0.16626 0.0
H363 H 0.46623 0.53258 0.15602 0.0
H364 H 0.43315 0.55152 0.16516 0.0
H365 H 0.33751 0.45582 0.15919 0.0
H366 H 0.37022 0.43684 0.15017 0.0
H367 H 0.33339 0.48859 0.18405 0.0
H368 H 0.37124 0.50489 0.12742 0.0
H369 H 0.41699 0.52817 0.107 0.0
H370 H 0.46226 0.62196 0.1274 0.0
H371 H 0.41698 0.59911 0.14807 0.0
C372 C 0.2317 0.50589 0.13842 0.0
C373 C 0.21742 0.51537 0.14966 0.0
C374 C 0.26269 0.51062 0.14208 0.0
C375 C 0.27991 0.52468 0.15708 0.0
C376 C 0.26646 0.53514 0.16817 0.0
C377 C 0.23543 0.53055 0.16448 0.0
C378 C 0.31026 0.52571 0.16127 0.0
C379 C 0.33868 0.54118 0.15098 0.0
C380 C 0.30911 0.50772 0.17381 0.0
C381 C 0.27956 0.49053 0.18492 0.0
C382 C 0.28526 0.49871 0.20157 0.0
C383 C 0.25741 0.48265 0.21212 0.0
C384 C 0.22381 0.45823 0.20613 0.0
C385 C 0.21801 0.44972 0.1896 0.0
C386 C 0.24578 0.46567 0.17902 0.0
C387 C 0.4382 0.51555 0.15698 0.0
C388 C 0.42067 0.48335 0.15211 0.0
C389 C 0.41943 0.52634 0.16232 0.0
C390 C 0.3829 0.50512 0.16263 0.0
C391 C 0.36572 0.47257 0.15911 0.0
C392 C 0.38444 0.46175 0.15388 0.0
C393 C 0.36187 0.51682 0.16373 0.0
C394 C 0.33523 0.5038 0.175 0.0
C395 C 0.36425 0.53661 0.1519 0.0
C396 C 0.39106 0.55032 0.13936 0.0
C397 C 0.39106 0.53046 0.12757 0.0
C398 C 0.41689 0.54357 0.11596 0.0
C399 C 0.44258 0.57653 0.11593 0.0
C400 C 0.44241 0.59644 0.12747 0.0
C401 C 0.41669 0.58343 0.13913 0.0
H402 H 0.46256 0.58664 0.10694 0.0
H403 H 0.20229 0.44585 0.21431 0.0
H404 H 0.60303 0.13355 0.46848 0.0
H405 H 0.65667 0.18695 0.4649 0.0
H406 H 0.71699 0.15916 0.48407 0.0
H407 H 0.66317 0.10547 0.48782 0.0
H408 H 0.74339 0.2188 0.4953 0.0
H409 H 0.71343 0.16473 0.44404 0.0
H410 H 0.67516 0.13138 0.42061 0.0
H411 H 0.66015 0.20125 0.41041 0.0
H412 H 0.69801 0.2349 0.43396 0.0
H413 H 0.90481 0.35049 0.46165 0.0
H414 H 0.85361 0.29735 0.46823 0.0
H415 H 0.78666 0.32214 0.4556 0.0
H416 H 0.83751 0.37572 0.44977 0.0
H417 H 0.76551 0.26302 0.44096 0.0
H418 H 0.79843 0.317 0.49384 0.0
H419 H 0.83887 0.34831 0.51703 0.0
H420 H 0.85184 0.2759 0.52335 0.0
H421 H 0.81183 0.24435 0.50003 0.0
C422 C 0.62761 0.1387 0.47205 0.0
C423 C 0.62858 0.11492 0.47838 0.0
C424 C 0.65841 0.16936 0.46992 0.0
C425 C 0.69113 0.17719 0.47399 0.0
C426 C 0.69218 0.15384 0.48079 0.0
C427 C 0.6613 0.12304 0.48289 0.0
C428 C 0.72405 0.20942 0.47068 0.0
C429 C 0.7484 0.22825 0.48336 0.0
C430 C 0.73082 0.22206 0.45513 0.0
C431 C 0.70832 0.20221 0.44085 0.0
C432 C 0.70178 0.17291 0.43687 0.0
C433 C 0.68021 0.15396 0.42357 0.0
C434 C 0.66523 0.16419 0.41405 0.0
C435 C 0.6718 0.19339 0.4178 0.0
C436 C 0.69335 0.21243 0.43112 0.0
C437 C 0.87935 0.34506 0.46057 0.0
C438 C 0.87577 0.36785 0.45503 0.0
C439 C 0.84995 0.31441 0.46423 0.0
C440 C 0.81612 0.30555 0.46235 0.0
C441 C 0.81239 0.3282 0.45702 0.0
C442 C 0.84172 0.35894 0.45358 0.0
C443 C 0.78455 0.27259 0.46564 0.0
C444 C 0.76048 0.25356 0.4529 0.0
C445 C 0.77846 0.25958 0.48105 0.0
C446 C 0.80244 0.27849 0.49508 0.0
C447 C 0.81016 0.30789 0.50008 0.0
C448 C 0.83295 0.32565 0.51327 0.0
C449 C 0.848 0.31415 0.52163 0.0
C450 C 0.84021 0.28481 0.51684 0.0
C451 C 0.81746 0.26697 0.50365 0.0
H452 H 0.86563 0.32793 0.53184 0.0
H453 H 0.64868 0.14949 0.40373 0.0
H454 H 0.52304 0.67745 0.8203 0.0
H455 H 0.51666 0.71795 0.81285 0.0
H456 H 0.62726 0.79074 0.82045 0.0
H457 H 0.63403 0.75043 0.82762 0.0
H458 H 0.59063 0.80959 0.83359 0.0
H459 H 0.59234 0.76436 0.78255 0.0
H460 H 0.5736 0.72119 0.76216 0.0
H461 H 0.47043 0.69552 0.76085 0.0
H462 H 0.48844 0.7383 0.78142 0.0
H463 H 0.60849 0.93435 0.79224 0.0
H464 H 0.61271 0.89349 0.80148 0.0
H465 H 0.50211 0.82217 0.79289 0.0
H466 H 0.49752 0.86293 0.78387 0.0
H467 H 0.53763 0.80204 0.78062 0.0
H468 H 0.53631 0.84816 0.83125 0.0
H469 H 0.55516 0.89138 0.85162 0.0
H470 H 0.65759 0.91548 0.85372 0.0
H471 H 0.63948 0.87266 0.83318 0.0
C472 C 0.54611 0.70201 0.82025 0.0
C473 C 0.57909 0.7105 0.82456 0.0
C474 C 0.54238 0.7252 0.81603 0.0
C475 C 0.57152 0.75745 0.81596 0.0
C476 C 0.60435 0.76607 0.82047 0.0
C477 C 0.60813 0.74291 0.82464 0.0
C478 C 0.56787 0.78218 0.8111 0.0
C479 C 0.57942 0.80813 0.82193 0.0
C480 C 0.55254 0.78001 0.79603 0.0
C481 C 0.54164 0.75431 0.78365 0.0
C482 C 0.56558 0.74934 0.77802 0.0
C483 C 0.5551 0.72497 0.76641 0.0
C484 C 0.52082 0.70556 0.76025 0.0
C485 C 0.49696 0.71054 0.76565 0.0
C486 C 0.50729 0.73486 0.77728 0.0
C487 C 0.58491 0.91009 0.79257 0.0
C488 C 0.55265 0.90208 0.78727 0.0
C489 C 0.5874 0.88667 0.79782 0.0
C490 C 0.5577 0.85468 0.79798 0.0
C491 C 0.52544 0.84662 0.79282 0.0
C492 C 0.5229 0.87002 0.78761 0.0
C493 C 0.56042 0.8295 0.8031 0.0
C494 C 0.54874 0.80348 0.79231 0.0
C495 C 0.57564 0.83162 0.8182 0.0
C496 C 0.58663 0.8574 0.83055 0.0
C497 C 0.56294 0.86285 0.83595 0.0
C498 C 0.57347 0.88724 0.84755 0.0
C499 C 0.60758 0.90623 0.85393 0.0
C500 C 0.6312 0.90079 0.84875 0.0
C501 C 0.6208 0.87644 0.83714 0.0
H502 H 0.61568 0.9251 0.86291 0.0
H503 H 0.51276 0.68672 0.75126 0.0
H504 H 0.85003 0.44528 0.21743 0.0
H505 H 0.78632 0.4123 0.21825 0.0
H506 H 0.79091 0.49471 0.2104 0.0
H507 H 0.85351 0.52714 0.20843 0.0
H508 H 0.73389 0.44887 0.22945 0.0
H509 H 0.79371 0.45864 0.17934 0.0
H510 H 0.82925 0.45132 0.16129 0.0
H511 H 0.76007 0.35056 0.16749 0.0
H512 H 0.72474 0.35747 0.18607 0.0
H513 H 0.64947 0.46272 0.16941 0.0
H514 H 0.68648 0.46033 0.18796 0.0
H515 H 0.62289 0.3584 0.17963 0.0
H516 H 0.5845 0.36044 0.16116 0.0
H517 H 0.69402 0.38966 0.17612 0.0
H518 H 0.62259 0.38415 0.21679 0.0
H519 H 0.58691 0.39662 0.2309 0.0
H520 H 0.67762 0.4934 0.23985 0.0
H521 H 0.71379 0.48172 0.22558 0.0
C522 C 0.83753 0.4565 0.21611 0.0
C523 C 0.85705 0.48871 0.21223 0.0
C524 C 0.80118 0.43765 0.21681 0.0
C525 C 0.78404 0.45102 0.21408 0.0
C526 C 0.80372 0.48395 0.21254 0.0
C527 C 0.83983 0.5026 0.21146 0.0
C528 C 0.74666 0.43094 0.20937 0.0
C529 C 0.7247 0.43531 0.21797 0.0
C530 C 0.73452 0.41256 0.19457 0.0
C531 C 0.75702 0.40864 0.18434 0.0
C532 C 0.78653 0.43502 0.17715 0.0
C533 C 0.80658 0.43094 0.1668 0.0
C534 C 0.79695 0.40051 0.16329 0.0
C535 C 0.76758 0.37414 0.17031 0.0
C536 C 0.74764 0.37813 0.18082 0.0
C537 C 0.64269 0.43961 0.17176 0.0
C538 C 0.61369 0.4117 0.16396 0.0
C539 C 0.66389 0.43829 0.18242 0.0
C540 C 0.65683 0.40908 0.18553 0.0
C541 C 0.62832 0.38109 0.17759 0.0
C542 C 0.60672 0.38236 0.16694 0.0
C543 C 0.68205 0.40926 0.19571 0.0
C544 C 0.7019 0.40128 0.18812 0.0
C545 C 0.69242 0.42474 0.21128 0.0
C546 C 0.67096 0.43197 0.22013 0.0
C547 C 0.63494 0.40813 0.22172 0.0
C548 C 0.61462 0.41506 0.22975 0.0
C549 C 0.63 0.44576 0.23629 0.0
C550 C 0.66576 0.46959 0.23482 0.0
C551 C 0.68621 0.4628 0.2268 0.0
H552 H 0.61421 0.45109 0.24248 0.0
H553 H 0.81196 0.39733 0.15493 0.0
H554 H 0.4562 0.89784 0.48224 0.0
H555 H 0.40263 0.843 0.47935 0.0
H556 H 0.34752 0.87679 0.46112 0.0
H557 H 0.4009 0.93166 0.46401 0.0
H558 H 0.30877 0.83116 0.48294 0.0
H559 H 0.37316 0.84273 0.43562 0.0
H560 H 0.42447 0.85547 0.42097 0.0
H561 H 0.42009 0.7832 0.44549 0.0
H562 H 0.369 0.77031 0.46046 0.0
H563 H 0.15681 0.68431 0.4501 0.0
H564 H 0.21001 0.73863 0.45507 0.0
H565 H 0.2657 0.70205 0.46782 0.0
H566 H 0.21263 0.64764 0.46259 0.0
H567 H 0.30483 0.74914 0.4495 0.0
H568 H 0.2407 0.73637 0.49657 0.0
H569 H 0.1903 0.72366 0.51206 0.0
H570 H 0.19496 0.79766 0.48937 0.0
H571 H 0.24513 0.81055 0.47358 0.0
C572 C 0.43272 0.89368 0.47761 0.0
C573 C 0.43309 0.91936 0.4733 0.0
C574 C 0.40203 0.86219 0.47591 0.0
C575 C 0.37088 0.85552 0.46987 0.0
C576 C 0.37108 0.88115 0.4658 0.0
C577 C 0.40178 0.91261 0.4674 0.0
C578 C 0.33818 0.82192 0.46772 0.0
C579 C 0.30781 0.81333 0.47547 0.0
C580 C 0.33693 0.79822 0.45834 0.0
C581 C 0.36747 0.80578 0.44928 0.0
C582 C 0.38329 0.82972 0.43798 0.0
C583 C 0.41231 0.83693 0.4296 0.0
C584 C 0.42559 0.82021 0.43233 0.0
C585 C 0.40981 0.79616 0.44341 0.0
C586 C 0.3808 0.78887 0.45183 0.0
C587 C 0.18021 0.68775 0.45422 0.0
C588 C 0.1802 0.66139 0.45598 0.0
C589 C 0.21078 0.71898 0.45707 0.0
C590 C 0.24216 0.72481 0.46204 0.0
C591 C 0.24208 0.69848 0.46397 0.0
C592 C 0.21159 0.66725 0.46098 0.0
C593 C 0.27518 0.75822 0.46472 0.0
C594 C 0.30568 0.76684 0.45704 0.0
C595 C 0.27661 0.78187 0.47429 0.0
C596 C 0.24646 0.77421 0.48377 0.0
C597 C 0.23081 0.74978 0.49479 0.0
C598 C 0.20231 0.74257 0.50364 0.0
C599 C 0.18938 0.75979 0.50167 0.0
C600 C 0.20498 0.78431 0.49087 0.0
C601 C 0.23347 0.7916 0.48198 0.0
H602 H 0.16731 0.75417 0.50854 0.0
H603 H 0.44805 0.82584 0.42583 0.0
H604 H 0.57334 0.36803 0.83668 0.0
H605 H 0.58138 0.32814 0.82834 0.0
H606 H 0.47101 0.2539 0.83234 0.0
H607 H 0.46301 0.29336 0.84154 0.0
H608 H 0.505 0.2343 0.84369 0.0
H609 H 0.51099 0.28396 0.79505 0.0
H610 H 0.53305 0.32888 0.77752 0.0
H611 H 0.63567 0.35351 0.78048 0.0
H612 H 0.6143 0.30896 0.79821 0.0
H613 H 0.49033 0.11187 0.79542 0.0
H614 H 0.48584 0.15259 0.80672 0.0
H615 H 0.5973 0.22317 0.8041 0.0
H616 H 0.60204 0.18254 0.79288 0.0
H617 H 0.56466 0.2454 0.79259 0.0
H618 H 0.55724 0.19368 0.8405 0.0
H619 H 0.53417 0.14814 0.85769 0.0
H620 H 0.43293 0.12659 0.85568 0.0
H621 H 0.45529 0.17176 0.83829 0.0
C622 C 0.55078 0.3432 0.83603 0.0
C623 C 0.51742 0.33413 0.83969 0.0
C624 C 0.55538 0.32037 0.83104 0.0
C625 C 0.52671 0.28792 0.82938 0.0
C626 C 0.49356 0.27873 0.8334 0.0
C627 C 0.48897 0.30148 0.8385 0.0
C628 C 0.53104 0.26352 0.82335 0.0
C629 C 0.51771 0.2366 0.83242 0.0
C630 C 0.54826 0.26665 0.80881 0.0
C631 C 0.56112 0.29333 0.79808 0.0
C632 C 0.53831 0.29909 0.79205 0.0
C633 C 0.55069 0.32446 0.78207 0.0
C634 C 0.58576 0.34409 0.77793 0.0
C635 C 0.60852 0.33832 0.78372 0.0
C636 C 0.59629 0.313 0.79372 0.0
C637 C 0.51399 0.13593 0.79748 0.0
C638 C 0.54657 0.1438 0.79323 0.0
C639 C 0.51137 0.15927 0.80392 0.0
C640 C 0.54126 0.19103 0.80641 0.0
C641 C 0.57382 0.19892 0.80227 0.0
C642 C 0.57647 0.17561 0.79581 0.0
C643 C 0.53849 0.21614 0.81289 0.0
C644 C 0.55208 0.24318 0.8039 0.0
C645 C 0.52135 0.21303 0.82745 0.0
C646 C 0.50788 0.18593 0.83797 0.0
C647 C 0.53 0.17908 0.84362 0.0
C648 C 0.51706 0.15336 0.85342 0.0
C649 C 0.48209 0.13443 0.85775 0.0
C650 C 0.46 0.14125 0.85231 0.0
C651 C 0.4728 0.16693 0.84249 0.0
H652 H 0.47212 0.11453 0.86534 0.0
H653 H 0.59529 0.36372 0.7702 0.0
H654 H 0.4976 0.82836 0.50369 0.0
H655 H 0.49116 0.7806 0.51075 0.0
H656 H 0.60252 0.8322 0.50861 0.0
H657 H 0.60929 0.88009 0.50184 0.0
H658 H 0.56764 0.77345 0.49356 0.0
H659 H 0.56348 0.81805 0.5446 0.0
H660 H 0.54123 0.83831 0.56379 0.0
H661 H 0.43959 0.74786 0.56039 0.0
H662 H 0.46114 0.72719 0.541 0.0
H663 H 0.59215 0.67496 0.53668 0.0
H664 H 0.59279 0.71816 0.52679 0.0
H665 H 0.48155 0.66189 0.53249 0.0
H666 H 0.48069 0.61848 0.54238 0.0
H667 H 0.51275 0.72071 0.54468 0.0
H668 H 0.51707 0.67485 0.49483 0.0
H669 H 0.53875 0.65426 0.47551 0.0
H670 H 0.63885 0.74615 0.47624 0.0
H671 H 0.61792 0.7672 0.49576 0.0
C672 C 0.52077 0.82965 0.50484 0.0
C673 C 0.55398 0.85819 0.50218 0.0
C674 C 0.51702 0.80226 0.50882 0.0
C675 C 0.54639 0.80284 0.51031 0.0
C676 C 0.57947 0.83111 0.50746 0.0
C677 C 0.58326 0.85848 0.50351 0.0
C678 C 0.54289 0.77421 0.51505 0.0
C679 C 0.55594 0.76209 0.50481 0.0
C680 C 0.52679 0.75883 0.52952 0.0
C681 C 0.51383 0.77119 0.54121 0.0
C682 C 0.53632 0.80256 0.54784 0.0
C683 C 0.52385 0.81411 0.55877 0.0
C684 C 0.489 0.79442 0.56327 0.0
C685 C 0.46657 0.7631 0.55687 0.0
C686 C 0.4789 0.75145 0.54592 0.0
C687 C 0.56771 0.67152 0.53558 0.0
C688 C 0.53636 0.64316 0.54031 0.0
C689 C 0.56812 0.69631 0.52994 0.0
C690 C 0.53716 0.69324 0.52874 0.0
C691 C 0.50578 0.66488 0.53333 0.0
C692 C 0.50536 0.6401 0.53902 0.0
C693 C 0.53778 0.72005 0.52325 0.0
C694 C 0.52421 0.73186 0.53336 0.0
C695 C 0.55331 0.73507 0.50862 0.0
C696 C 0.566 0.72252 0.49687 0.0
C697 C 0.54379 0.6906 0.49097 0.0
C698 C 0.55593 0.67886 0.47997 0.0
C699 C 0.59018 0.69886 0.47468 0.0
C700 C 0.61234 0.73068 0.48036 0.0
C701 C 0.60034 0.74253 0.49138 0.0
H702 H 0.59953 0.68973 0.46616 0.0
H703 H 0.47939 0.8034 0.57173 0.0
H704 H 0.61668 0.4751 0.84768 0.0
H705 H 0.66657 0.47412 0.84829 0.0
H706 H 0.73577 0.57601 0.85634 0.0
H707 H 0.68564 0.57701 0.85446 0.0
H708 H 0.7748 0.5688 0.84255 0.0
H709 H 0.70564 0.50169 0.88692 0.0
H710 H 0.65261 0.45606 0.89928 0.0
H711 H 0.6489 0.39164 0.86453 0.0
H712 H 0.7021 0.43678 0.85208 0.0
H713 H 0.92447 0.57486 0.86527 0.0
H714 H 0.87431 0.57527 0.86371 0.0
H715 H 0.80782 0.47524 0.85039 0.0
H716 H 0.8579 0.47456 0.85199 0.0
H717 H 0.76766 0.48108 0.86673 0.0
H718 H 0.83783 0.54636 0.82363 0.0
H719 H 0.89063 0.59079 0.81065 0.0
H720 H 0.89171 0.65797 0.84204 0.0
H721 H 0.83912 0.6139 0.85533 0.0
C722 C 0.64241 0.49754 0.84961 0.0
C723 C 0.64572 0.52614 0.85104 0.0
C724 C 0.67181 0.49696 0.85027 0.0
C725 C 0.70694 0.52487 0.85301 0.0
C726 C 0.71015 0.55354 0.8543 0.0
C727 C 0.68075 0.55417 0.85326 0.0
C728 C 0.73968 0.52451 0.85417 0.0
C729 C 0.77274 0.54961 0.84818 0.0
C730 C 0.73924 0.49963 0.86092 0.0
C731 C 0.70759 0.47258 0.8685 0.0
C732 C 0.69345 0.47779 0.88191 0.0
C733 C 0.66339 0.45204 0.88893 0.0
C734 C 0.64728 0.42105 0.88263 0.0
C735 C 0.66137 0.41567 0.86939 0.0
C736 C 0.69154 0.44129 0.86239 0.0
C737 C 0.89956 0.55269 0.86177 0.0
C738 C 0.89722 0.5247 0.85873 0.0
C739 C 0.86996 0.55299 0.8608 0.0
C740 C 0.83551 0.52541 0.85656 0.0
C741 C 0.83301 0.49737 0.8537 0.0
C742 C 0.86259 0.49703 0.85468 0.0
C743 C 0.80271 0.52555 0.85533 0.0
C744 C 0.7697 0.50037 0.86124 0.0
C745 C 0.80319 0.55032 0.8485 0.0
C746 C 0.83478 0.57683 0.84058 0.0
C747 C 0.84947 0.5706 0.82783 0.0
C748 C 0.87933 0.59572 0.82041 0.0
C749 C 0.89457 0.62718 0.82555 0.0
C750 C 0.87992 0.63359 0.8381 0.0
C751 C 0.85008 0.60856 0.84557 0.0
H752 H 0.91769 0.64659 0.81979 0.0
H753 H 0.62394 0.40118 0.88805 0.0
H754 H 0.10817 0.64347 0.16208 0.0
H755 H 0.16334 0.69719 0.16483 0.0
H756 H 0.21923 0.66061 0.15057 0.0
H757 H 0.16409 0.60671 0.14776 0.0
H758 H 0.25054 0.70228 0.17697 0.0
H759 H 0.20838 0.70177 0.12452 0.0
H760 H 0.16559 0.69413 0.10469 0.0
H761 H 0.16396 0.76494 0.13079 0.0
H762 H 0.20641 0.77268 0.15092 0.0
H763 H 0.41502 0.85177 0.1679 0.0
H764 H 0.3605 0.79839 0.16262 0.0
H765 H 0.30211 0.83432 0.17229 0.0
H766 H 0.35665 0.8879 0.17744 0.0
H767 H 0.2721 0.79251 0.14778 0.0
H768 H 0.31234 0.79235 0.20056 0.0
H769 H 0.3541 0.79982 0.221 0.0
H770 H 0.35811 0.73019 0.19515 0.0
H771 H 0.31671 0.72263 0.17443 0.0
C772 C 0.13213 0.64675 0.15945 0.0
C773 C 0.13144 0.62053 0.15464 0.0
C774 C 0.16376 0.67763 0.16099 0.0
C775 C 0.19565 0.68321 0.1578 0.0
C776 C 0.19509 0.65708 0.15308 0.0
C777 C 0.16342 0.6262 0.15141 0.0
C778 C 0.2295 0.71614 0.15964 0.0
C779 C 0.25543 0.72189 0.17039 0.0
C780 C 0.23576 0.7421 0.15142 0.0
C781 C 0.21032 0.73758 0.13932 0.0
C782 C 0.19869 0.71552 0.12611 0.0
C783 C 0.17453 0.71121 0.1148 0.0
C784 C 0.16199 0.72898 0.1165 0.0
C785 C 0.17366 0.75116 0.1295 0.0
C786 C 0.19779 0.75554 0.14085 0.0
C787 C 0.3906 0.84838 0.16892 0.0
C788 C 0.39045 0.87433 0.17322 0.0
C789 C 0.35931 0.8177 0.16592 0.0
C790 C 0.32684 0.81189 0.16735 0.0
C791 C 0.32663 0.83793 0.17112 0.0
C792 C 0.35796 0.8687 0.17402 0.0
C793 C 0.29325 0.77873 0.16514 0.0
C794 C 0.26731 0.77293 0.15434 0.0
C795 C 0.28686 0.75272 0.17341 0.0
C796 C 0.31171 0.75718 0.18586 0.0
C797 C 0.32233 0.77881 0.19917 0.0
C798 C 0.3459 0.78304 0.21082 0.0
C799 C 0.35882 0.76556 0.20935 0.0
C800 C 0.34812 0.74376 0.19626 0.0
C801 C 0.32459 0.73948 0.18456 0.0
H802 H 0.37707 0.76885 0.21838 0.0
H803 H 0.1433 0.72561 0.10773 0.0
H804 H 0.56108 0.20561 0.49138 0.0
H805 H 0.56953 0.2546 0.49996 0.0
H806 H 0.45835 0.20502 0.49694 0.0
H807 H 0.44979 0.15636 0.48758 0.0
H808 H 0.49068 0.26169 0.48518 0.0
H809 H 0.50306 0.22195 0.53366 0.0
H810 H 0.52747 0.20274 0.55107 0.0
H811 H 0.62951 0.29188 0.54808 0.0
H812 H 0.60576 0.31147 0.53047 0.0
H813 H 0.48115 0.36974 0.5342 0.0
H814 H 0.47571 0.32367 0.52265 0.0
H815 H 0.58767 0.3779 0.5243 0.0
H816 H 0.59336 0.42423 0.53572 0.0
H817 H 0.55673 0.32017 0.53618 0.0
H818 H 0.54307 0.36045 0.48843 0.0
H819 H 0.51774 0.37921 0.47135 0.0
H820 H 0.41693 0.28851 0.47338 0.0
H821 H 0.44157 0.26933 0.49067 0.0
C822 C 0.53842 0.20517 0.49232 0.0
C823 C 0.5047 0.17684 0.48886 0.0
C824 C 0.54328 0.23318 0.49742 0.0
C825 C 0.51454 0.23346 0.49938 0.0
C826 C 0.48095 0.20543 0.49562 0.0
C827 C 0.47607 0.17747 0.49043 0.0
C828 C 0.51934 0.26282 0.50546 0.0
C829 C 0.50479 0.27425 0.49643 0.0
C830 C 0.53839 0.27972 0.51997 0.0
C831 C 0.55269 0.26805 0.53061 0.0
C832 C 0.53074 0.23737 0.53662 0.0
C833 C 0.54445 0.22643 0.54654 0.0
C834 C 0.58003 0.24605 0.55064 0.0
C835 C 0.60196 0.27669 0.54487 0.0
C836 C 0.58839 0.28774 0.53493 0.0
C837 C 0.50468 0.37209 0.53186 0.0
C838 C 0.53771 0.4008 0.53589 0.0
C839 C 0.50151 0.34565 0.52528 0.0
C840 C 0.5313 0.34733 0.52247 0.0
C841 C 0.5643 0.37598 0.52639 0.0
C842 C 0.5675 0.40243 0.53297 0.0
C843 C 0.52796 0.31895 0.51593 0.0
C844 C 0.54276 0.30769 0.52489 0.0
C845 C 0.50899 0.30212 0.50141 0.0
C846 C 0.49412 0.31356 0.49097 0.0
C847 C 0.51545 0.34458 0.48534 0.0
C848 C 0.50122 0.35528 0.4756 0.0
C849 C 0.46573 0.33509 0.47131 0.0
C850 C 0.44441 0.30413 0.47673 0.0
C851 C 0.4585 0.29333 0.48648 0.0
H852 H 0.45477 0.34341 0.46377 0.0
H853 H 0.59059 0.23753 0.55832 0.0
H854 H 0.4745 0.56644 0.842 0.0
H855 H 0.42371 0.56666 0.84342 0.0
H856 H 0.36496 0.47597 0.86526 0.0
H857 H 0.41568 0.47579 0.86387 0.0
H858 H 0.36076 0.53792 0.83179 0.0
H859 H 0.2948 0.46044 0.88679 0.0
H860 H 0.31074 0.44777 0.91185 0.0
H861 H 0.4129 0.53759 0.912 0.0
H862 H 0.39744 0.55095 0.88707 0.0
H863 H 0.18792 0.50079 0.83673 0.0
H864 H 0.23785 0.49954 0.83484 0.0
H865 H 0.27466 0.54618 0.88206 0.0
H866 H 0.22472 0.54708 0.8841 0.0
H867 H 0.29136 0.50842 0.88127 0.0
H868 H 0.31413 0.58206 0.8418 0.0
H869 H 0.30245 0.6007 0.81778 0.0
H870 H 0.29245 0.52701 0.7881 0.0
H871 H 0.30367 0.5077 0.81199 0.0
C872 C 0.45093 0.54638 0.84718 0.0
C873 C 0.45064 0.52115 0.85285 0.0
C874 C 0.42115 0.54646 0.84796 0.0
C875 C 0.38892 0.52157 0.8547 0.0
C876 C 0.3886 0.49624 0.86026 0.0
C877 C 0.41827 0.49602 0.85935 0.0
C878 C 0.35646 0.52217 0.85586 0.0
C879 C 0.34571 0.5311 0.84268 0.0
C880 C 0.33563 0.51417 0.86993 0.0
C881 C 0.34506 0.50651 0.88498 0.0
C882 C 0.32063 0.47752 0.89221 0.0
C883 C 0.32958 0.47021 0.90638 0.0
C884 C 0.36285 0.49181 0.91348 0.0
C885 C 0.38719 0.52083 0.90646 0.0
C886 C 0.37835 0.52826 0.8923 0.0
C887 C 0.20633 0.51086 0.84686 0.0
C888 C 0.20077 0.52434 0.86056 0.0
C889 C 0.23586 0.51041 0.84568 0.0
C890 C 0.26208 0.5232 0.85816 0.0
C891 C 0.25614 0.53606 0.87196 0.0
C892 C 0.22689 0.53682 0.87307 0.0
C893 C 0.29491 0.52314 0.85701 0.0
C894 C 0.30599 0.51467 0.87027 0.0
C895 C 0.31618 0.53177 0.84306 0.0
C896 C 0.30936 0.54324 0.82871 0.0
C897 C 0.30919 0.5697 0.83017 0.0
C898 C 0.3027 0.58041 0.81658 0.0
C899 C 0.29661 0.565 0.80143 0.0
C900 C 0.2971 0.53889 0.79984 0.0
C901 C 0.30354 0.52807 0.8134 0.0
H902 H 0.2916 0.57333 0.79092 0.0
H903 H 0.36974 0.4861 0.92444 0.0
H904 H 0.90238 0.44064 0.15934 0.0
H905 H 0.85001 0.38675 0.16306 0.0
H906 H 0.9046 0.34907 0.14849 0.0
H907 H 0.95729 0.40317 0.1444 0.0
H908 H 0.84187 0.31064 0.13668 0.0
H909 H 0.88754 0.35904 0.18931 0.0
H910 H 0.90964 0.40012 0.21138 0.0
H911 H 0.81045 0.38265 0.21279 0.0
H912 H 0.78796 0.34194 0.19055 0.0
H913 H 0.71375 0.15861 0.1707 0.0
H914 H 0.76726 0.21064 0.1644 0.0
H915 H 0.71486 0.25297 0.1718 0.0
H916 H 0.66113 0.20108 0.1777 0.0
H917 H 0.77791 0.28784 0.18765 0.0
H918 H 0.73416 0.2408 0.13386 0.0
H919 H 0.71309 0.1996 0.11194 0.0
H920 H 0.81018 0.2131 0.11403 0.0
H921 H 0.83165 0.25411 0.13612 0.0
C922 C 0.90336 0.42098 0.15677 0.0
C923 C 0.93439 0.42652 0.15162 0.0
C924 C 0.8732 0.38999 0.15898 0.0
C925 C 0.87311 0.36351 0.15637 0.0
C926 C 0.90373 0.36888 0.15069 0.0
C927 C 0.93397 0.39996 0.14835 0.0
C928 C 0.84129 0.33052 0.15979 0.0
C929 C 0.82829 0.30568 0.14795 0.0
C930 C 0.82291 0.32365 0.17441 0.0
C931 C 0.83621 0.34774 0.18806 0.0
C932 C 0.87052 0.36415 0.19423 0.0
C933 C 0.88314 0.38739 0.20678 0.0
C934 C 0.86155 0.39415 0.21342 0.0
C935 C 0.82725 0.37759 0.20757 0.0
C936 C 0.81455 0.35443 0.19498 0.0
C937 C 0.71328 0.17879 0.1707 0.0
C938 C 0.68277 0.17529 0.17482 0.0
C939 C 0.74411 0.2087 0.16715 0.0
C940 C 0.74533 0.23597 0.1676 0.0
C941 C 0.71485 0.23248 0.17147 0.0
C942 C 0.68403 0.20263 0.17492 0.0
C943 C 0.7784 0.26826 0.16448 0.0
C944 C 0.79165 0.29291 0.17642 0.0
C945 C 0.7972 0.27482 0.15007 0.0
C946 C 0.78437 0.25028 0.13675 0.0
C947 C 0.75091 0.2348 0.12973 0.0
C948 C 0.73891 0.21152 0.11726 0.0
C949 C 0.76024 0.20368 0.11163 0.0
C950 C 0.79366 0.21917 0.11843 0.0
C951 C 0.80577 0.24245 0.13091 0.0
H952 H 0.75091 0.18564 0.10198 0.0
H953 H 0.87136 0.41211 0.22315 0.0
H954 H 0.98899 0.54804 0.10027 0.0
H955 H 0.99363 0.54441 0.07093 0.0
H956 H 0.06178 0.51852 0.07791 0.0
H957 H 0.05702 0.52201 0.10735 0.0
H958 H 0.08558 0.56418 0.0547 0.0
H959 H 0.97997 0.46232 0.06628 0.0
H960 H 0.92187 0.42558 0.07789 0.0
H961 H 0.88265 0.46397 0.04921 0.0
H962 H 0.94068 0.50129 0.0376 0.0
H963 H 0.08004 0.51851 0.97187 0.0
H964 H 0.07716 0.51971 0.00139 0.0
H965 H 0.99624 0.53118 -0.00204 0.0
H966 H 0.99847 0.52919 0.96845 0.0
H967 H 0.97967 0.49108 0.01981 0.0
H968 H 0.08476 0.5944 0.00907 0.0
H969 H 0.14286 0.63255 -0.00227 0.0
H970 H 0.18311 0.59335 0.02489 0.0
H971 H 0.12511 0.55468 0.03624 0.0
C972 C 1.00498 0.54158 0.09556 0.0
C973 C 0.02255 0.53517 0.10611 0.0
C974 C 1.00752 0.53941 0.07878 0.0
C975 C 0.02781 0.53091 0.07218 0.0
C976 C 0.04592 0.52506 0.08271 0.0
C977 C 0.0431 0.52695 0.09952 0.0
C978 C 0.02992 0.5281 0.05429 0.0
C979 C 0.06251 0.54786 0.04707 0.0
C980 C 0.99975 0.50734 0.04428 0.0
C981 C 0.96477 0.48481 0.05118 0.0
C982 C 0.95903 0.46311 0.06254 0.0
C983 C 0.9261 0.44215 0.06911 0.0
C984 C 0.89861 0.44249 0.06432 0.0
C985 C 0.90398 0.46375 0.05292 0.0
C986 C 0.93688 0.4848 0.04633 0.0
C987 C 0.06176 0.52146 0.97742 0.0
C988 C 0.03954 0.52383 0.96778 0.0
C989 C 0.06018 0.52222 0.99433 0.0
C990 C 0.03684 0.52604 0.00204 0.0
C991 C 1.01447 0.52818 0.99239 0.0
C992 C 1.01574 0.52702 0.97549 0.0
C993 C 0.03536 0.52749 0.02009 0.0
C994 C 1.00284 0.5074 0.02738 0.0
C995 C 0.0656 0.54815 0.03015 0.0
C996 C 0.10051 0.57144 0.02337 0.0
C997 C 0.10594 0.59377 0.01253 0.0
C998 C 0.13886 0.61551 0.00612 0.0
C999 C 0.16663 0.61532 0.01055 0.0
C1000 C 0.16156 0.59344 0.02145 0.0
C1001 C 0.12868 0.57162 0.02789 0.0
H1002 H 0.1921 0.63217 0.00557 0.0
H1003 H 0.87312 0.42624 0.06941 0.0
H1004 H 0.59712 0.05787 0.42901 0.0
H1005 H 0.59164 0.06115 0.39986 0.0
H1006 H 0.48083 0.98654 0.40138 0.0
H1007 H 0.48603 0.98377 0.43067 0.0
H1008 H 0.51865 0.97748 0.37719 0.0
H1009 H 0.50384 0.05461 0.39684 0.0
H1010 H 0.51916 0.10223 0.41253 0.0
H1011 H 0.61235 0.16106 0.38549 0.0
H1012 H 0.59833 0.11365 0.37004 0.0
H1013 H 0.48282 0.98249 0.29509 0.0
H1014 H 0.48118 0.98194 0.32462 0.0
H1015 H 0.58456 0.07159 0.32783 0.0
H1016 H 0.58572 0.07267 0.29827 0.0
H1017 H 0.54725 0.07235 0.3501 0.0
H1018 H 0.56774 0.99748 0.33299 0.0
H1019 H 0.55633 0.95096 0.31767 0.0
H1020 H 0.45703 0.88977 0.33996 0.0
H1021 H 0.46766 0.93602 0.35526 0.0
C1022 C 0.57156 0.04238 0.42314 0.0
C1023 C 0.54201 0.02048 0.43203 0.0
C1024 C 0.56846 0.04434 0.40652 0.0
C1025 C 0.53584 0.02409 0.39849 0.0
C1026 C 0.50622 1.00237 0.40739 0.0
C1027 C 0.5092 1.00087 0.42408 0.0
C1028 C 0.53306 0.0246 0.38069 0.0
C1029 C 0.52432 0.998 0.37124 0.0
C1030 C 0.54156 0.05182 0.37301 0.0
C1031 C 0.55023 0.08041 0.38241 0.0
C1032 C 0.5279 0.0776 0.3944 0.0
C1033 C 0.53635 0.10459 0.40325 0.0
C1034 C 0.56681 0.13464 0.40007 0.0
C1035 C 0.58883 0.13775 0.38799 0.0
C1036 C 0.58071 0.11081 0.37922 0.0
C1037 C 0.50519 1.00205 0.30212 0.0
C1038 C 0.5345 0.02751 0.29439 0.0
C1039 C 0.50428 1.0017 0.319 0.0
C1040 C 0.53302 0.02644 0.32853 0.0
C1041 C 0.56205 0.0522 0.3208 0.0
C1042 C 0.56274 0.0528 0.30391 0.0
C1043 C 0.53308 0.02524 0.3465 0.0
C1044 C 0.54139 0.05173 0.35601 0.0
C1045 C 0.52477 0.99812 0.35428 0.0
C1046 C 0.51834 0.97026 0.34513 0.0
C1047 C 0.54336 0.97414 0.33453 0.0
C1048 C 0.53705 0.94782 0.32587 0.0
C1049 C 0.50593 0.91744 0.32781 0.0
C1050 C 0.4811 0.91332 0.33845 0.0
C1051 C 0.48726 0.93958 0.34713 0.0
H1052 H 0.5011 0.89709 0.3211 0.0
H1053 H 0.57329 0.15552 0.40691 0.0
H1054 H 0.48449 0.48235 0.79586 0.0
H1055 H 0.49278 0.48993 0.7669 0.0
H1056 H 0.60427 0.55501 0.77514 0.0
H1057 H 0.59601 0.54783 0.8044 0.0
H1058 H 0.58271 0.5759 0.75228 0.0
H1059 H 0.56708 0.47981 0.76154 0.0
H1060 H 0.53895 0.42674 0.77224 0.0
H1061 H 0.44564 0.39 0.74443 0.0
H1062 H 0.47303 0.44299 0.73373 0.0
H1063 H 0.61123 0.56424 0.66769 0.0
H1064 H 0.61224 0.56295 0.69725 0.0
H1065 H 0.49976 0.4997 0.69665 0.0
H1066 H 0.49856 0.5005 0.66716 0.0
H1067 H 0.52806 0.47932 0.71582 0.0
H1068 H 0.54386 0.57722 0.7079 0.0
H1069 H 0.57303 0.63053 0.69728 0.0
H1070 H 0.66806 0.66384 0.72246 0.0
H1071 H 0.63957 0.61057 0.73306 0.0
C1072 C 0.5108 0.49841 0.79154 0.0
C1073 C 0.53963 0.51423 0.80236 0.0
C1074 C 0.5155 0.50263 0.77497 0.0
C1075 C 0.54917 0.52253 0.7688 0.0
C1076 C 0.57807 0.53937 0.77963 0.0
C1077 C 0.57334 0.53521 0.79631 0.0
C1078 C 0.55377 0.52494 0.75102 0.0
C1079 C 0.5713 0.55485 0.74431 0.0
C1080 C 0.53858 0.49745 0.74059 0.0
C1081 C 0.52203 0.46546 0.74693 0.0
C1082 C 0.54047 0.46048 0.75779 0.0
C1083 C 0.52467 0.4304 0.76384 0.0
C1084 C 0.49051 0.40503 0.75904 0.0
C1085 C 0.47209 0.40968 0.74814 0.0
C1086 C 0.48776 0.43973 0.74207 0.0
C1087 C 0.58673 0.54998 0.67387 0.0
C1088 C 0.5548 0.53253 0.66508 0.0
C1089 C 0.58735 0.54945 0.69076 0.0
C1090 C 0.55607 0.5314 0.69917 0.0
C1091 C 0.52421 0.51385 0.69042 0.0
C1092 C 0.52356 0.51452 0.67357 0.0
C1093 C 0.55627 0.53015 0.71707 0.0
C1094 C 0.53971 0.5004 0.72379 0.0
C1095 C 0.57258 0.5578 0.72746 0.0
C1096 C 0.5897 0.58982 0.72112 0.0
C1097 C 0.57107 0.59584 0.71105 0.0
C1098 C 0.58746 0.62606 0.70506 0.0
C1099 C 0.62241 0.65053 0.70915 0.0
C1100 C 0.64101 0.64485 0.71928 0.0
C1101 C 0.62475 0.61465 0.72529 0.0
H1102 H 0.63505 0.67391 0.70451 0.0
H1103 H 0.47832 0.38176 0.76374 0.0
H1104 H 0.46692 0.9888 0.53092 0.0
H1105 H 0.47478 0.98967 0.56011 0.0
H1106 H 0.5864 0.04887 0.55496 0.0
H1107 H 0.57851 0.04727 0.52553 0.0
H1108 H 0.56717 0.00588 0.57683 0.0
H1109 H 0.54488 0.08067 0.56794 0.0
H1110 H 0.51345 0.09977 0.55706 0.0
H1111 H 0.4225 0.02989 0.58305 0.0
H1112 H 0.45324 0.01007 0.59391 0.0
H1113 H 0.60234 0.05436 0.66114 0.0
H1114 H 0.59943 0.05426 0.63159 0.0
H1115 H 0.48712 0.98908 0.63237 0.0
H1116 H 0.4898 0.98949 0.66189 0.0
H1117 H 0.51013 0.03818 0.61275 0.0
H1118 H 0.53352 0.96307 0.6211 0.0
H1119 H 0.56631 0.94536 0.63201 0.0
H1120 H 0.65744 0.01845 0.60721 0.0
H1121 H 0.6253 0.03688 0.59633 0.0
C1122 C 0.49314 1.00189 0.53599 0.0
C1123 C 0.52212 0.01825 0.52598 0.0
C1124 C 0.49763 1.00251 0.55271 0.0
C1125 C 0.53123 0.01994 0.55983 0.0
C1126 C 0.56023 0.03543 0.54978 0.0
C1127 C 0.55572 0.03457 0.53298 0.0
C1128 C 0.53584 0.02229 0.57776 0.0
C1129 C 0.55514 0.01342 0.58467 0.0
C1130 C 0.5198 0.03174 0.58806 0.0
C1131 C 0.50128 0.04372 0.58163 0.0
C1132 C 0.5181 0.06923 0.57125 0.0
C1133 C 0.50042 0.08021 0.5651 0.0
C1134 C 0.46597 0.066 0.56933 0.0
C1135 C 0.44917 0.04085 0.57977 0.0
C1136 C 0.46672 0.02976 0.58594 0.0
C1137 C 0.57702 0.04012 0.65502 0.0
C1138 C 0.54629 0.02188 0.66389 0.0
C1139 C 0.57541 0.03988 0.63812 0.0
C1140 C 0.54306 0.02145 0.62974 0.0
C1141 C 0.51237 1.0034 0.63857 0.0
C1142 C 0.51396 1.00348 0.65544 0.0
C1143 C 0.54101 0.02134 0.6118 0.0
C1144 C 0.52225 0.03075 0.6049 0.0
C1145 C 0.55779 0.01267 0.60154 0.0
C1146 C 0.57711 1.00156 0.60804 0.0
C1147 C 0.56063 0.97554 0.61809 0.0
C1148 C 0.57909 0.96533 0.62424 0.0
C1149 C 0.61397 0.98083 0.62034 0.0
C1150 C 0.63043 0.0065 0.61024 0.0
C1151 C 0.61211 0.01682 0.60407 0.0
H1152 H 0.62821 0.97289 0.62512 0.0
H1153 H 0.45233 0.07453 0.56455 0.0
H1154 H 0.61007 0.56785 0.90448 0.0
H1155 H 0.60324 0.54883 0.93167 0.0
H1156 H 0.49828 0.46644 0.91888 0.0
H1157 H 0.50465 0.48604 0.89173 0.0
H1158 H 0.50054 0.48933 0.94829 0.0
H1159 H 0.56601 0.46201 0.92053 0.0
H1160 H 0.61347 0.4722 0.90352 0.0
H1161 H 0.68918 0.53922 0.93984 0.0
H1162 H 0.64217 0.53011 0.9569 0.0
H1163 H 0.48983 0.41239 0.01959 0.0
H1164 H 0.49254 0.42251 0.99074 0.0
H1165 H 0.59236 0.51417 -0.00075 0.0
H1166 H 0.5898 0.50419 0.02806 0.0
H1167 H 0.58927 0.48063 0.97109 0.0
H1168 H 0.52291 0.51104 0.99717 0.0
H1169 H 0.47495 0.50189 0.01344 0.0
H1170 H 0.39988 0.42688 0.97959 0.0
H1171 H 0.44744 0.43529 0.96323 0.0
C1172 C 0.5855 0.54574 0.90749 0.0
C1173 C 0.55794 0.52831 0.89601 0.0
C1174 C 0.58168 0.53479 0.923 0.0
C1175 C 0.55048 0.50587 0.92722 0.0
C1176 C 0.52263 0.48873 0.91586 0.0
C1177 C 0.52632 0.49988 0.90036 0.0
C1178 C 0.54714 0.49369 0.94352 0.0
C1179 C 0.51957 0.48684 0.95315 0.0
C1180 C 0.5722 0.49076 0.94994 0.0
C1181 C 0.60053 0.49553 0.93996 0.0
C1182 C 0.59278 0.47904 0.92487 0.0
C1183 C 0.61962 0.48465 0.9152 0.0
C1184 C 0.65434 0.50636 0.92059 0.0
C1185 C 0.66227 0.52242 0.93568 0.0
C1186 C 0.63553 0.51706 0.94535 0.0
C1187 C 0.51259 0.43445 0.01523 0.0
C1188 C 0.53956 0.45758 0.02603 0.0
C1189 C 0.514 0.44027 -0.0012 0.0
C1190 C 0.54253 0.46918 0.99292 0.0
C1191 C 0.57013 0.49173 0.00357 0.0
C1192 C 0.56855 0.48608 0.02 0.0
C1193 C 0.543 0.47676 0.97585 0.0
C1194 C 0.57002 0.48272 0.9661 0.0
C1195 C 0.51729 0.4786 0.96926 0.0
C1196 C 0.48871 0.47352 0.9791 0.0
C1197 C 0.49617 0.49239 0.99328 0.0
C1198 C 0.46907 0.48738 0.0025 0.0
C1199 C 0.43439 0.46374 0.99758 0.0
C1200 C 0.42675 0.44512 0.98341 0.0
C1201 C 0.45377 0.45001 0.97416 0.0
H1202 H 0.41344 0.45992 0.00473 0.0
H1203 H 0.67511 0.51074 0.91308 0.0
H1204 H 0.99258 0.49979 0.19697 0.0
H1205 H 0.98704 0.49941 0.22639 0.0
H1206 H 0.09819 0.55026 0.23237 0.0
H1207 H 0.10353 0.54964 0.20301 0.0
H1208 H 0.06769 0.5043 0.25139 0.0
H1209 H 0.05618 0.5854 0.24063 0.0
H1210 H 0.03301 0.61098 0.22833 0.0
H1211 H 0.93166 0.53963 0.24651 0.0
H1212 H 0.95414 0.51339 0.2588 0.0
H1213 H 0.08565 0.55247 0.33468 0.0
H1214 H 0.08725 0.55371 0.30524 0.0
H1215 H 0.97599 0.48081 0.30197 0.0
H1216 H 0.97414 0.47808 0.33141 0.0
H1217 H 1.00418 0.53632 0.28196 0.0
H1218 H 0.02021 0.45725 0.2936 0.0
H1219 H 0.04814 0.43729 0.30742 0.0
H1220 H 0.14687 0.51135 0.28797 0.0
H1221 H 0.11961 0.53205 0.27423 0.0
C1222 C 1.01583 0.51113 0.20459 0.0
C1223 C 0.04848 0.52461 0.19774 0.0
C1224 C 1.01269 0.51105 0.22142 0.0
C1225 C 0.04223 0.52495 0.23169 0.0
C1226 C 0.07496 0.5392 0.22476 0.0
C1227 C 0.07803 0.53896 0.20798 0.0
C1228 C 0.03901 0.52329 0.24961 0.0
C1229 C 0.05417 0.51174 0.25803 0.0
C1230 C 0.02075 0.53229 0.25837 0.0
C1231 C 1.0068 0.54731 0.25054 0.0
C1232 C 0.02886 0.57497 0.24187 0.0
C1233 C 1.01589 0.58965 0.23495 0.0
C1234 C 0.98096 0.57704 0.23673 0.0
C1235 C 0.95878 0.54947 0.24524 0.0
C1236 C 0.97161 0.53468 0.25219 0.0
C1237 C 0.06149 0.53628 0.32778 0.0
C1238 C 0.02978 0.51498 0.33557 0.0
C1239 C 0.06247 0.53729 0.31092 0.0
C1240 C 0.03176 0.51732 0.30145 0.0
C1241 C 0.99996 0.49653 0.30909 0.0
C1242 C 0.99899 0.49515 0.32596 0.0
C1243 C 0.03314 0.51772 0.28355 0.0
C1244 C 1.01757 0.52888 0.27519 0.0
C1245 C 0.05155 0.50893 0.27485 0.0
C1246 C 0.06793 0.49638 0.28302 0.0
C1247 C 0.04794 0.46945 0.29239 0.0
C1248 C 0.06364 0.45797 0.30019 0.0
C1249 C 0.09928 0.47309 0.29861 0.0
C1250 C 0.11928 0.49968 0.2892 0.0
C1251 C 0.10371 0.51128 0.28139 0.0
H1252 H 0.11139 0.46417 0.30466 0.0
H1253 H 0.97111 0.58868 0.23152 0.0
loop_
_geom_bond_atom_site_label_1
_geom_bond_atom_site_label_2
_geom_bond_distance
_geom_bond_site_symmetry_2
_ccdc_geom_bond_type
Sm0 C2 2.846 . S
Sm0 O20 2.543 . S
Sm0 O21 2.450 . S
Sm0 O22 2.681 . S
Sm0 O23 2.464 . S
Sm0 O24 2.396 . S
Sm0 O28 2.386 . S
Sm0 O31 2.408 1_455 S
Sm1 C11 2.846 . S
Sm1 O22 2.386 1_655 S
Sm1 O25 2.408 1_655 S
Sm1 O26 2.543 . S
Sm1 O27 2.450 . S
Sm1 O28 2.681 1_655 S
Sm1 O29 2.464 1_655 S
Sm1 O30 2.396 . S
C2 Sm0 2.846 . S
C2 C3 1.506 . S
C2 O20 1.261 . S
C2 O21 1.242 . S
C3 C2 1.506 . S
C3 C4 1.358 . S
C3 C8 1.382 . S
C4 C3 1.358 . S
C4 C5 1.385 . S
C4 H32 0.930 . S
C5 C4 1.385 . S
C5 C6 1.395 . S
C5 H33 0.929 . S
C6 C5 1.395 . S
C6 C7 1.335 . S
C7 C6 1.335 . S
C7 C8 1.398 . S
C7 H34 0.930 . S
C8 C3 1.382 . S
C8 C7 1.398 . S
C8 H35 0.929 . S
C9 O22 1.271 . S
C9 O23 1.251 . S
C10 O24 1.252 . S
C10 O25 1.272 . S
C11 Sm1 2.846 . S
C11 C12 1.506 . S
C11 O26 1.261 . S
C11 O27 1.242 . S
C12 C11 1.506 . S
C12 C13 1.358 . S
C12 C17 1.382 . S
C13 C12 1.358 . S
C13 C14 1.385 . S
C13 H36 0.930 . S
C14 C13 1.385 . S
C14 C15 1.395 . S
C14 H37 0.929 . S
C15 C14 1.395 . S
C15 C16 1.335 . S
C16 C15 1.335 . S
C16 C17 1.398 . S
C16 H38 0.930 . S
C17 C12 1.382 . S
C17 C16 1.398 . S
C17 H39 0.929 . S
C18 O28 1.271 . S
C18 O29 1.251 . S
C19 O30 1.252 . S
C19 O31 1.272 . S
O20 Sm0 2.543 . S
O20 C2 1.261 . S
O21 Sm0 2.450 . S
O21 C2 1.242 . S
O22 Sm0 2.681 . S
O22 Sm1 2.386 1_455 S
O22 C9 1.271 . S
O23 Sm0 2.464 . S
O23 C9 1.251 . S
O24 Sm0 2.396 . S
O24 C10 1.252 . S
O25 Sm1 2.408 1_455 S
O25 C10 1.272 . S
O26 Sm1 2.543 . S
O26 C11 1.261 . S
O27 Sm1 2.450 . S
O27 C11 1.242 . S
O28 Sm0 2.386 . S
O28 Sm1 2.681 1_455 S
O28 C18 1.271 . S
O29 Sm1 2.464 1_455 S
O29 C18 1.251 . S
O30 Sm1 2.396 . S
O30 C19 1.252 . S
O31 Sm0 2.408 1_655 S
O31 C19 1.272 . S
H32 C4 0.930 . S
H33 C5 0.929 . S
H34 C7 0.930 . S
H35 C8 0.929 . S
H36 C13 0.930 . S
H37 C14 0.929 . S
H38 C16 0.930 . S
H39 C17 0.929 . S
Sm40 C42 2.846 . S
Sm40 O60 2.543 . S
Sm40 O61 2.450 . S
Sm40 O62 2.681 1_565 S
Sm40 O63 2.464 . S
Sm40 O64 2.396 . S
Sm40 O68 2.386 1_565 S
Sm40 O71 2.408 1_565 S
Sm41 C51 2.846 . S
Sm41 O62 2.386 . S
Sm41 O65 2.408 1_545 S
Sm41 O66 2.543 . S
Sm41 O67 2.450 . S
Sm41 O68 2.681 . S
Sm41 O69 2.464 . S
Sm41 O70 2.396 . S
C42 Sm40 2.846 . S
C42 C43 1.506 . S
C42 O60 1.261 . S
C42 O61 1.242 . S
C43 C42 1.506 . S
C43 C44 1.358 . S
C43 C48 1.382 . S
C44 C43 1.358 . S
C44 C45 1.385 . S
C44 H72 0.930 . S
C45 C44 1.385 . S
C45 C46 1.395 . S
C45 H73 0.929 . S
C46 C45 1.395 . S
C46 C47 1.335 . S
C47 C46 1.335 . S
C47 C48 1.398 . S
C47 H74 0.930 . S
C48 C43 1.382 . S
C48 C47 1.398 . S
C48 H75 0.929 . S
C49 O62 1.271 . S
C49 O63 1.251 1_545 S
C50 O64 1.252 . S
C50 O65 1.272 . S
C51 Sm41 2.846 . S
C51 C52 1.506 . S
C51 O66 1.261 . S
C51 O67 1.242 . S
C52 C51 1.506 . S
C52 C53 1.358 . S
C52 C57 1.382 . S
C53 C52 1.358 . S
C53 C54 1.385 . S
C53 H76 0.930 . S
C54 C53 1.385 . S
C54 C55 1.395 . S
C54 H77 0.929 . S
C55 C54 1.395 . S
C55 C56 1.335 . S
C56 C55 1.335 . S
C56 C57 1.398 . S
C56 H78 0.930 . S
C57 C52 1.382 . S
C57 C56 1.398 . S
C57 H79 0.929 . S
C58 O68 1.271 . S
C58 O69 1.251 . S
C59 O70 1.252 . S
C59 O71 1.272 . S
O60 Sm40 2.543 . S
O60 C42 1.261 . S
O61 Sm40 2.450 . S
O61 C42 1.242 . S
O62 Sm40 2.681 1_545 S
O62 Sm41 2.386 . S
O62 C49 1.271 . S
O63 Sm40 2.464 . S
O63 C49 1.251 1_565 S
O64 Sm40 2.396 . S
O64 C50 1.252 . S
O65 Sm41 2.408 1_565 S
O65 C50 1.272 . S
O66 Sm41 2.543 . S
O66 C51 1.261 . S
O67 Sm41 2.450 . S
O67 C51 1.242 . S
O68 Sm40 2.386 1_545 S
O68 Sm41 2.681 . S
O68 C58 1.271 . S
O69 Sm41 2.464 . S
O69 C58 1.251 . S
O70 Sm41 2.396 . S
O70 C59 1.252 . S
O71 Sm40 2.408 1_545 S
O71 C59 1.272 . S
H72 C44 0.930 . S
H73 C45 0.929 . S
H74 C47 0.930 . S
H75 C48 0.929 . S
H76 C53 0.930 . S
H77 C54 0.929 . S
H78 C56 0.930 . S
H79 C57 0.929 . S
Sm80 C82 2.846 . S
Sm80 O100 2.543 . S
Sm80 O101 2.450 . S
Sm80 O102 2.681 . S
Sm80 O103 2.464 . S
Sm80 O104 2.396 . S
Sm80 O108 2.386 . S
Sm80 O111 2.408 . S
Sm81 C91 2.846 . S
Sm81 O102 2.386 . S
Sm81 O105 2.408 . S
Sm81 O106 2.543 . S
Sm81 O107 2.450 . S
Sm81 O108 2.681 . S
Sm81 O109 2.464 . S
Sm81 O110 2.396 . S
C82 Sm80 2.846 . S
C82 C83 1.506 . S
C82 O100 1.261 . S
C82 O101 1.242 . S
C83 C82 1.506 . S
C83 C84 1.358 . S
C83 C88 1.382 . S
C84 C83 1.358 . S
C84 C85 1.385 . S
C84 H112 0.930 . S
C85 C84 1.385 . S
C85 C86 1.395 . S
C85 H113 0.929 . S
C86 C85 1.395 . S
C86 C87 1.335 . S
C87 C86 1.335 . S
C87 C88 1.398 . S
C87 H114 0.930 . S
C88 C83 1.382 . S
C88 C87 1.398 . S
C88 H115 0.929 . S
C89 O102 1.271 . S
C89 O103 1.251 . S
C90 O104 1.252 . S
C90 O105 1.272 . S
C91 Sm81 2.846 . S
C91 C92 1.506 . S
C91 O106 1.261 . S
C91 O107 1.242 . S
C92 C91 1.506 . S
C92 C93 1.358 . S
C92 C97 1.382 . S
C93 C92 1.358 . S
C93 C94 1.385 . S
C93 H116 0.930 . S
C94 C93 1.385 . S
C94 C95 1.395 . S
C94 H117 0.929 . S
C95 C94 1.395 . S
C95 C96 1.335 . S
C96 C95 1.335 . S
C96 C97 1.398 . S
C96 H118 0.930 . S
C97 C92 1.382 . S
C97 C96 1.398 . S
C97 H119 0.929 . S
C98 O108 1.271 . S
C98 O109 1.251 . S
C99 O110 1.252 . S
C99 O111 1.272 . S
O100 Sm80 2.543 . S
O100 C82 1.261 . S
O101 Sm80 2.450 . S
O101 C82 1.242 . S
O102 Sm80 2.681 . S
O102 Sm81 2.386 . S
O102 C89 1.271 . S
O103 Sm80 2.464 . S
O103 C89 1.251 . S
O104 Sm80 2.396 . S
O104 C90 1.252 . S
O105 Sm81 2.408 . S
O105 C90 1.272 . S
O106 Sm81 2.543 . S
O106 C91 1.261 . S
O107 Sm81 2.450 . S
O107 C91 1.242 . S
O108 Sm80 2.386 . S
O108 Sm81 2.681 . S
O108 C98 1.271 . S
O109 Sm81 2.464 . S
O109 C98 1.251 . S
O110 Sm81 2.396 . S
O110 C99 1.252 . S
O111 Sm80 2.408 . S
O111 C99 1.272 . S
H112 C84 0.930 . S
H113 C85 0.929 . S
H114 C87 0.930 . S
H115 C88 0.929 . S
H116 C93 0.930 . S
H117 C94 0.929 . S
H118 C96 0.930 . S
H119 C97 0.929 . S
C120 C121 1.386 . S
C120 C122 1.397 . S
C120 H144 0.931 . S
C121 C120 1.386 . S
C121 C125 1.397 1_545 S
C122 C120 1.397 . S
C122 C123 1.384 . S
C122 H145 0.930 . S
C123 C122 1.384 . S
C123 C124 1.377 1_545 S
C123 C126 1.481 . S
C124 C123 1.377 1_565 S
C124 C125 1.389 . S
C124 H146 0.929 . S
C125 C121 1.397 1_565 S
C125 C124 1.389 . S
C125 H147 0.931 . S
C126 C123 1.481 . S
C126 C127 1.387 . S
C126 C131 1.390 1_545 S
C127 C126 1.387 . S
C127 C128 1.401 . S
C127 H148 0.930 . S
C128 C127 1.401 . S
C128 C129 1.376 . S
C128 C137 1.511 . S
C129 C128 1.376 . S
C129 C130 1.392 1_545 S
C129 H150 0.931 . S
C130 C129 1.392 1_565 S
C130 C131 1.361 . S
C130 C132 1.500 . S
C131 C126 1.390 1_565 S
C131 C130 1.361 . S
C131 H149 0.931 . S
C132 C130 1.500 . S
C132 C133 1.371 . S
C132 C134 1.365 . S
C133 C132 1.371 . S
C133 C143 1.386 . S
C133 H151 0.931 . S
C134 C132 1.365 . S
C134 C135 1.409 . S
C134 H152 0.929 . S
C135 C134 1.409 . S
C135 C136 1.380 . S
C135 H153 0.930 . S
C136 C135 1.380 . S
C136 C143 1.357 . S
C137 C128 1.511 . S
C137 C138 1.341 . S
C137 C139 1.371 . S
C138 C137 1.341 . S
C138 C142 1.394 . S
C138 H154 0.930 . S
C139 C137 1.371 . S
C139 C140 1.392 . S
C139 H155 0.931 . S
C140 C139 1.392 . S
C140 C141 1.331 . S
C140 H158 0.932 . S
C141 C140 1.331 . S
C141 C142 1.336 . S
C142 C138 1.394 . S
C142 C141 1.336 . S
C142 H157 0.929 . S
C143 C133 1.386 . S
C143 C136 1.357 . S
C143 H156 0.928 . S
H144 C120 0.931 . S
H145 C122 0.930 . S
H146 C124 0.929 . S
H147 C125 0.931 . S
H148 C127 0.930 . S
H149 C131 0.931 . S
H150 C129 0.931 . S
H151 C133 0.931 . S
H152 C134 0.929 . S
H153 C135 0.930 . S
H154 C138 0.930 . S
H155 C139 0.931 . S
H156 C143 0.928 . S
H157 C142 0.929 . S
H158 C140 0.932 . S
C159 C160 1.386 . S
C159 C161 1.397 . S
C159 H183 0.931 . S
C160 C159 1.386 . S
C160 C164 1.397 . S
C161 C159 1.397 . S
C161 C162 1.384 . S
C161 H184 0.930 . S
C162 C161 1.384 . S
C162 C163 1.377 . S
C162 C165 1.481 . S
C163 C162 1.377 . S
C163 C164 1.389 . S
C163 H185 0.929 . S
C164 C160 1.397 . S
C164 C163 1.389 . S
C164 H186 0.931 . S
C165 C162 1.481 . S
C165 C166 1.387 . S
C165 C170 1.390 . S
C166 C165 1.387 . S
C166 C167 1.401 . S
C166 H187 0.930 . S
C167 C166 1.401 . S
C167 C168 1.376 . S
C167 C176 1.511 . S
C168 C167 1.376 . S
C168 C169 1.392 . S
C168 H189 0.931 . S
C169 C168 1.392 . S
C169 C170 1.361 . S
C169 C171 1.500 . S
C170 C165 1.390 . S
C170 C169 1.361 . S
C170 H188 0.931 . S
C171 C169 1.500 . S
C171 C172 1.371 . S
C171 C173 1.365 . S
C172 C171 1.371 . S
C172 C182 1.386 . S
C172 H190 0.931 . S
C173 C171 1.365 . S
C173 C174 1.409 . S
C173 H191 0.929 . S
C174 C173 1.409 . S
C174 C175 1.380 . S
C174 H192 0.930 . S
C175 C174 1.380 . S
C175 C182 1.357 . S
C176 C167 1.511 . S
C176 C177 1.341 . S
C176 C178 1.371 . S
C177 C176 1.341 . S
C177 C181 1.394 . S
C177 H193 0.930 . S
C178 C176 1.371 . S
C178 C179 1.392 . S
C178 H194 0.931 . S
C179 C178 1.392 . S
C179 C180 1.331 . S
C179 H197 0.932 . S
C180 C179 1.331 . S
C180 C181 1.336 . S
C181 C177 1.394 . S
C181 C180 1.336 . S
C181 H196 0.929 . S
C182 C172 1.386 . S
C182 C175 1.357 . S
C182 H195 0.928 . S
H183 C159 0.931 . S
H184 C161 0.930 . S
H185 C163 0.929 . S
H186 C164 0.931 . S
H187 C166 0.930 . S
H188 C170 0.931 . S
H189 C168 0.931 . S
H190 C172 0.931 . S
H191 C173 0.929 . S
H192 C174 0.930 . S
H193 C177 0.930 . S
H194 C178 0.931 . S
H195 C182 0.928 . S
H196 C181 0.929 . S
H197 C179 0.932 . S
C198 C199 1.386 . S
C198 C200 1.397 . S
C198 H222 0.931 . S
C199 C198 1.386 . S
C199 C203 1.397 . S
C200 C198 1.397 . S
C200 C201 1.384 . S
C200 H223 0.930 . S
C201 C200 1.384 . S
C201 C202 1.377 . S
C201 C204 1.481 . S
C202 C201 1.377 . S
C202 C203 1.389 . S
C202 H224 0.929 1_455 S
C203 C199 1.397 . S
C203 C202 1.389 . S
C203 H225 0.931 1_455 S
C204 C201 1.481 . S
C204 C205 1.387 . S
C204 C209 1.390 . S
C205 C204 1.387 . S
C205 C206 1.401 . S
C205 H226 0.930 . S
C206 C205 1.401 . S
C206 C207 1.376 . S
C206 C215 1.511 . S
C207 C206 1.376 . S
C207 C208 1.392 . S
C207 H228 0.931 . S
C208 C207 1.392 . S
C208 C209 1.361 . S
C208 C210 1.500 1_455 S
C209 C204 1.390 . S
C209 C208 1.361 . S
C209 H227 0.931 . S
C210 C208 1.500 1_655 S
C210 C211 1.369 . S
C210 C212 1.365 . S
C211 C210 1.369 . S
C211 C221 1.406 . S
C211 H229 0.913 1_655 S
C212 C210 1.365 . S
C212 C213 1.409 . S
C212 H230 0.929 . S
C213 C212 1.409 . S
C213 C214 1.380 . S
C213 H231 0.930 . S
C214 C213 1.380 . S
C214 C221 1.357 . S
C215 C206 1.511 . S
C215 C216 1.341 . S
C215 C217 1.371 . S
C216 C215 1.341 . S
C216 C220 1.394 . S
C216 H232 0.930 . S
C217 C215 1.371 . S
C217 C218 1.392 . S
C217 H233 0.931 . S
C218 C217 1.392 . S
C218 C219 1.331 . S
C218 H236 0.932 . S
C219 C218 1.331 . S
C219 C220 1.336 . S
C220 C216 1.394 . S
C220 C219 1.336 . S
C220 H235 0.929 . S
C221 C211 1.406 . S
C221 C214 1.357 . S
C221 H234 0.928 . S
H222 C198 0.931 . S
H223 C200 0.930 . S
H224 C202 0.929 1_655 S
H225 C203 0.931 1_655 S
H226 C205 0.930 . S
H227 C209 0.931 . S
H228 C207 0.931 . S
H229 C211 0.913 1_455 S
H230 C212 0.929 . S
H231 C213 0.930 . S
H232 C216 0.930 . S
H233 C217 0.931 . S
H234 C221 0.928 . S
H235 C220 0.929 . S
H236 C218 0.932 . S
C237 C238 1.403 . S
C237 C239 1.397 . S
C237 H261 0.931 . S
C238 C237 1.403 . S
C238 C242 1.381 1_655 S
C239 C237 1.397 . S
C239 C240 1.384 . S
C239 H262 0.930 . S
C240 C239 1.384 . S
C240 C241 1.377 1_655 S
C240 C243 1.481 . S
C241 C240 1.377 1_455 S
C241 C242 1.389 . S
C241 H263 0.929 . S
C242 C238 1.381 1_455 S
C242 C241 1.389 . S
C242 H264 0.931 . S
C243 C240 1.481 . S
C243 C244 1.387 . S
C243 C248 1.390 1_655 S
C244 C243 1.387 . S
C244 C245 1.401 . S
C244 H265 0.930 . S
C245 C244 1.401 . S
C245 C246 1.387 . S
C245 C254 1.511 . S
C246 C245 1.387 . S
C246 C247 1.381 1_655 S
C246 H267 0.931 . S
C247 C246 1.381 1_455 S
C247 C248 1.361 . S
C247 C249 1.500 . S
C248 C243 1.390 1_455 S
C248 C247 1.361 . S
C248 H266 0.931 . S
C249 C247 1.500 . S
C249 C250 1.371 . S
C249 C251 1.365 . S
C250 C249 1.371 . S
C250 C260 1.386 . S
C250 H268 0.931 . S
C251 C249 1.365 . S
C251 C252 1.409 . S
C251 H269 0.929 . S
C252 C251 1.409 . S
C252 C253 1.380 . S
C252 H270 0.930 . S
C253 C252 1.380 . S
C253 C260 1.357 . S
C254 C245 1.511 . S
C254 C255 1.341 . S
C254 C256 1.371 . S
C255 C254 1.341 . S
C255 C259 1.394 . S
C255 H271 0.930 . S
C256 C254 1.371 . S
C256 C257 1.392 . S
C256 H272 0.931 . S
C257 C256 1.392 . S
C257 C258 1.331 . S
C257 H275 0.932 . S
C258 C257 1.331 . S
C258 C259 1.336 . S
C259 C255 1.394 . S
C259 C258 1.336 . S
C259 H274 0.929 . S
C260 C250 1.386 . S
C260 C253 1.357 . S
C260 H273 0.928 . S
H261 C237 0.931 . S
H262 C239 0.930 . S
H263 C241 0.929 . S
H264 C242 0.931 . S
H265 C244 0.930 . S
H266 C248 0.931 . S
H267 C246 0.931 . S
H268 C250 0.931 . S
H269 C251 0.929 . S
H270 C252 0.930 . S
H271 C255 0.930 . S
H272 C256 0.931 . S
H273 C260 0.928 . S
H274 C259 0.929 . S
H275 C257 0.932 . S
C276 C277 1.386 . S
C276 C278 1.397 . S
C276 H300 0.931 . S
C277 C276 1.386 . S
C277 C281 1.397 1_565 S
C278 C276 1.397 . S
C278 C279 1.374 1_565 S
C278 H301 0.930 . S
C279 C278 1.374 1_545 S
C279 C280 1.388 . S
C279 C282 1.480 . S
C280 C279 1.388 . S
C280 C281 1.389 . S
C280 H302 0.929 . S
C281 C277 1.397 1_545 S
C281 C280 1.389 . S
C281 H303 0.931 . S
C282 C279 1.480 . S
C282 C283 1.387 1_545 S
C282 C287 1.390 . S
C283 C282 1.387 1_565 S
C283 C284 1.401 . S
C283 H304 0.930 . S
C284 C283 1.401 . S
C284 C285 1.376 1_565 S
C284 C293 1.511 . S
C285 C284 1.376 1_545 S
C285 C286 1.392 . S
C285 H306 0.931 . S
C286 C285 1.392 . S
C286 C287 1.361 . S
C286 C288 1.500 . S
C287 C282 1.390 . S
C287 C286 1.361 . S
C287 H305 0.931 . S
C288 C286 1.500 . S
C288 C289 1.371 . S
C288 C290 1.365 . S
C289 C288 1.371 . S
C289 C299 1.386 . S
C289 H307 0.931 . S
C290 C288 1.365 . S
C290 C291 1.409 . S
C290 H308 0.929 . S
C291 C290 1.409 . S
C291 C292 1.380 . S
C291 H309 0.930 . S
C292 C291 1.380 . S
C292 C299 1.357 . S
C293 C284 1.511 . S
C293 C294 1.341 . S
C293 C295 1.371 . S
C294 C293 1.341 . S
C294 C298 1.394 . S
C294 H310 0.930 . S
C295 C293 1.371 . S
C295 C296 1.392 . S
C295 H311 0.931 . S
C296 C295 1.392 . S
C296 C297 1.331 . S
C296 H314 0.932 . S
C297 C296 1.331 . S
C297 C298 1.336 . S
C298 C294 1.394 . S
C298 C297 1.336 . S
C298 H313 0.929 . S
C299 C289 1.386 . S
C299 C292 1.357 . S
C299 H312 0.928 . S
H300 C276 0.931 . S
H301 C278 0.930 . S
H302 C280 0.929 . S
H303 C281 0.931 . S
H304 C283 0.930 . S
H305 C287 0.931 . S
H306 C285 0.931 . S
H307 C289 0.931 . S
H308 C290 0.929 . S
H309 C291 0.930 . S
H310 C294 0.930 . S
H311 C295 0.931 . S
H312 C299 0.928 . S
H313 C298 0.929 . S
H314 C296 0.932 . S
C315 C316 1.386 . S
C315 C317 1.397 . S
C315 H339 0.931 . S
C316 C315 1.386 . S
C316 C320 1.397 . S
C317 C315 1.397 . S
C317 C318 1.384 . S
C317 H340 0.930 . S
C318 C317 1.384 . S
C318 C319 1.377 . S
C318 C321 1.481 . S
C319 C318 1.377 . S
C319 C320 1.389 . S
C319 H341 0.929 . S
C320 C316 1.397 . S
C320 C319 1.389 . S
C320 H342 0.931 . S
C321 C318 1.481 . S
C321 C322 1.387 . S
C321 C326 1.390 . S
C322 C321 1.387 . S
C322 C323 1.401 . S
C322 H343 0.930 . S
C323 C322 1.401 . S
C323 C324 1.376 . S
C323 C332 1.511 . S
C324 C323 1.376 . S
C324 C325 1.392 . S
C324 H345 0.931 . S
C325 C324 1.392 . S
C325 C326 1.361 . S
C325 C327 1.500 . S
C326 C321 1.390 . S
C326 C325 1.361 . S
C326 H344 0.931 . S
C327 C325 1.500 . S
C327 C328 1.371 . S
C327 C329 1.365 . S
C328 C327 1.371 . S
C328 C338 1.386 . S
C328 H346 0.931 . S
C329 C327 1.365 . S
C329 C330 1.409 . S
C329 H347 0.929 . S
C330 C329 1.409 . S
C330 C331 1.380 . S
C330 H348 0.930 . S
C331 C330 1.380 . S
C331 C338 1.357 . S
C332 C323 1.511 . S
C332 C333 1.341 . S
C332 C334 1.371 . S
C333 C332 1.341 . S
C333 C337 1.394 . S
C333 H349 0.930 . S
C334 C332 1.371 . S
C334 C335 1.392 . S
C334 H350 0.931 . S
C335 C334 1.392 . S
C335 C336 1.331 . S
C335 H353 0.932 . S
C336 C335 1.331 . S
C336 C337 1.336 . S
C337 C333 1.394 . S
C337 C336 1.336 . S
C337 H352 0.929 . S
C338 C328 1.386 . S
C338 C331 1.357 . S
C338 H351 0.928 . S
H339 C315 0.931 . S
H340 C317 0.930 . S
H341 C319 0.929 . S
H342 C320 0.931 . S
H343 C322 0.930 . S
H344 C326 0.931 . S
H345 C324 0.931 . S
H346 C328 0.931 . S
H347 C329 0.929 . S
H348 C330 0.930 . S
H349 C333 0.930 . S
H350 C334 0.931 . S
H351 C338 0.928 . S
H352 C337 0.929 . S
H353 C335 0.932 . S
H354 C372 0.951 . S
H355 C374 0.951 . S
H356 C376 0.950 . S
H357 C377 0.950 . S
H358 C379 0.950 . S
H359 C382 0.950 . S
H360 C383 0.950 . S
H361 C385 0.950 . S
H362 C386 0.950 . S
H363 C387 0.951 . S
H364 C389 0.951 . S
H365 C391 0.950 . S
H366 C392 0.950 . S
H367 C394 0.950 . S
H368 C397 0.950 . S
H369 C398 0.950 . S
H370 C400 0.950 . S
H371 C401 0.950 . S
C372 H354 0.951 . S
C372 C373 1.366 . S
C372 C374 1.388 . S
C373 C372 1.366 . S
C373 C377 1.385 . S
C374 H355 0.951 . S
C374 C372 1.388 . S
C374 C375 1.366 . S
C375 C374 1.366 . S
C375 C376 1.414 . S
C375 C378 1.499 . S
C376 H356 0.950 . S
C376 C375 1.414 . S
C376 C377 1.374 . S
C377 H357 0.950 . S
C377 C373 1.385 . S
C377 C376 1.374 . S
C378 C375 1.499 . S
C378 C379 1.373 . S
C378 C380 1.389 . S
C379 H358 0.950 . S
C379 C378 1.373 . S
C379 C395 1.377 . S
C380 C378 1.389 . S
C380 C381 1.524 . S
C380 C394 1.377 . S
C381 C380 1.524 . S
C381 C382 1.397 . S
C381 C386 1.363 . S
C382 H359 0.950 . S
C382 C381 1.397 . S
C382 C383 1.334 . S
C383 H360 0.950 . S
C383 C382 1.334 . S
C383 C384 1.287 . S
C384 C383 1.287 . S
C384 C385 1.524 . S
C384 H403 0.913 . S
C385 H361 0.950 . S
C385 C384 1.524 . S
C385 C386 1.415 . S
C386 H362 0.950 . S
C386 C381 1.363 . S
C386 C385 1.415 . S
C387 H363 0.951 . S
C387 C388 1.366 . S
C387 C389 1.388 . S
C388 C387 1.366 . S
C388 C392 1.385 . S
C389 H364 0.951 . S
C389 C387 1.388 . S
C389 C390 1.366 . S
C390 C389 1.366 . S
C390 C391 1.414 . S
C390 C393 1.499 . S
C391 H365 0.950 . S
C391 C390 1.414 . S
C391 C392 1.374 . S
C392 H366 0.950 . S
C392 C388 1.385 . S
C392 C391 1.374 . S
C393 C390 1.499 . S
C393 C394 1.373 . S
C393 C395 1.389 . S
C394 H367 0.950 . S
C394 C380 1.377 . S
C394 C393 1.373 . S
C395 C379 1.377 . S
C395 C393 1.389 . S
C395 C396 1.524 . S
C396 C395 1.524 . S
C396 C397 1.397 . S
C396 C401 1.363 . S
C397 H368 0.950 . S
C397 C396 1.397 . S
C397 C398 1.334 . S
C398 H369 0.950 . S
C398 C397 1.334 . S
C398 C399 1.287 . S
C399 C398 1.287 . S
C399 C400 1.524 . S
C399 H402 0.999 . S
C400 H370 0.950 . S
C400 C399 1.524 . S
C400 C401 1.415 . S
C401 H371 0.950 . S
C401 C396 1.363 . S
C401 C400 1.415 . S
H402 C399 0.999 . S
H403 C384 0.913 . S
H404 C422 0.951 . S
H405 C424 0.951 . S
H406 C426 0.950 . S
H407 C427 0.950 . S
H408 C429 0.950 . S
H409 C432 0.950 . S
H410 C433 0.950 . S
H411 C435 0.950 . S
H412 C436 0.950 . S
H413 C437 0.951 . S
H414 C439 0.951 . S
H415 C441 0.950 . S
H416 C442 0.950 . S
H417 C444 0.950 . S
H418 C447 0.950 . S
H419 C448 0.950 . S
H420 C450 0.950 . S
H421 C451 0.950 . S
C422 H404 0.951 . S
C422 C423 1.366 . S
C422 C424 1.388 . S
C423 C422 1.366 . S
C423 C427 1.385 . S
C424 H405 0.951 . S
C424 C422 1.388 . S
C424 C425 1.366 . S
C425 C424 1.366 . S
C425 C426 1.414 . S
C425 C428 1.499 . S
C426 H406 0.950 . S
C426 C425 1.414 . S
C426 C427 1.374 . S
C427 H407 0.950 . S
C427 C423 1.385 . S
C427 C426 1.374 . S
C428 C425 1.499 . S
C428 C429 1.373 . S
C428 C430 1.389 . S
C429 H408 0.950 . S
C429 C428 1.373 . S
C429 C445 1.377 . S
C430 C428 1.389 . S
C430 C431 1.524 . S
C430 C444 1.377 . S
C431 C430 1.524 . S
C431 C432 1.397 . S
C431 C436 1.363 . S
C432 H409 0.950 . S
C432 C431 1.397 . S
C432 C433 1.334 . S
C433 H410 0.950 . S
C433 C432 1.334 . S
C433 C434 1.287 . S
C434 C433 1.287 . S
C434 C435 1.524 . S
C434 H453 0.913 . S
C435 H411 0.950 . S
C435 C434 1.524 . S
C435 C436 1.415 . S
C436 H412 0.950 . S
C436 C431 1.363 . S
C436 C435 1.415 . S
C437 H413 0.951 . S
C437 C438 1.366 . S
C437 C439 1.388 . S
C438 C437 1.366 . S
C438 C442 1.385 . S
C439 H414 0.951 . S
C439 C437 1.388 . S
C439 C440 1.366 . S
C440 C439 1.366 . S
C440 C441 1.414 . S
C440 C443 1.499 . S
C441 H415 0.950 . S
C441 C440 1.414 . S
C441 C442 1.374 . S
C442 H416 0.950 . S
C442 C438 1.385 . S
C442 C441 1.374 . S
C443 C440 1.499 . S
C443 C444 1.373 . S
C443 C445 1.389 . S
C444 H417 0.950 . S
C444 C430 1.377 . S
C444 C443 1.373 . S
C445 C429 1.377 . S
C445 C443 1.389 . S
C445 C446 1.524 . S
C446 C445 1.524 . S
C446 C447 1.397 . S
C446 C451 1.363 . S
C447 H418 0.950 . S
C447 C446 1.397 . S
C447 C448 1.334 . S
C448 H419 0.950 . S
C448 C447 1.334 . S
C448 C449 1.287 . S
C449 C448 1.287 . S
C449 C450 1.524 . S
C449 H452 0.999 . S
C450 H420 0.950 . S
C450 C449 1.524 . S
C450 C451 1.415 . S
C451 H421 0.950 . S
C451 C446 1.363 . S
C451 C450 1.415 . S
H452 C449 0.999 . S
H453 C434 0.913 . S
H454 C472 0.951 . S
H455 C474 0.951 . S
H456 C476 0.950 . S
H457 C477 0.950 . S
H458 C479 0.950 . S
H459 C482 0.950 . S
H460 C483 0.950 . S
H461 C485 0.950 . S
H462 C486 0.950 . S
H463 C487 0.951 . S
H464 C489 0.951 . S
H465 C491 0.950 . S
H466 C492 0.950 . S
H467 C494 0.950 . S
H468 C497 0.950 . S
H469 C498 0.950 . S
H470 C500 0.950 . S
H471 C501 0.950 . S
C472 H454 0.951 . S
C472 C473 1.366 . S
C472 C474 1.388 . S
C473 C472 1.366 . S
C473 C477 1.385 . S
C474 H455 0.951 . S
C474 C472 1.388 . S
C474 C475 1.366 . S
C475 C474 1.366 . S
C475 C476 1.414 . S
C475 C478 1.499 . S
C476 H456 0.950 . S
C476 C475 1.414 . S
C476 C477 1.374 . S
C477 H457 0.950 . S
C477 C473 1.385 . S
C477 C476 1.374 . S
C478 C475 1.499 . S
C478 C479 1.373 . S
C478 C480 1.389 . S
C479 H458 0.950 . S
C479 C478 1.373 . S
C479 C495 1.377 . S
C480 C478 1.389 . S
C480 C481 1.524 . S
C480 C494 1.377 . S
C481 C480 1.524 . S
C481 C482 1.397 . S
C481 C486 1.363 . S
C482 H459 0.950 . S
C482 C481 1.397 . S
C482 C483 1.334 . S
C483 H460 0.950 . S
C483 C482 1.334 . S
C483 C484 1.287 . S
C484 C483 1.287 . S
C484 C485 1.524 . S
C484 H503 0.913 . S
C485 H461 0.950 . S
C485 C484 1.524 . S
C485 C486 1.415 . S
C486 H462 0.950 . S
C486 C481 1.363 . S
C486 C485 1.415 . S
C487 H463 0.951 . S
C487 C488 1.366 . S
C487 C489 1.388 . S
C488 C487 1.366 . S
C488 C492 1.385 . S
C489 H464 0.951 . S
C489 C487 1.388 . S
C489 C490 1.366 . S
C490 C489 1.366 . S
C490 C491 1.414 . S
C490 C493 1.499 . S
C491 H465 0.950 . S
C491 C490 1.414 . S
C491 C492 1.374 . S
C492 H466 0.950 . S
C492 C488 1.385 . S
C492 C491 1.374 . S
C493 C490 1.499 . S
C493 C494 1.373 . S
C493 C495 1.389 . S
C494 H467 0.950 . S
C494 C480 1.377 . S
C494 C493 1.373 . S
C495 C479 1.377 . S
C495 C493 1.389 . S
C495 C496 1.524 . S
C496 C495 1.524 . S
C496 C497 1.397 . S
C496 C501 1.363 . S
C497 H468 0.950 . S
C497 C496 1.397 . S
C497 C498 1.334 . S
C498 H469 0.950 . S
C498 C497 1.334 . S
C498 C499 1.287 . S
C499 C498 1.287 . S
C499 C500 1.524 . S
C499 H502 0.999 . S
C500 H470 0.950 . S
C500 C499 1.524 . S
C500 C501 1.415 . S
C501 H471 0.950 . S
C501 C496 1.363 . S
C501 C500 1.415 . S
H502 C499 0.999 . S
H503 C484 0.913 . S
H504 C522 0.951 . S
H505 C524 0.951 . S
H506 C526 0.950 . S
H507 C527 0.950 . S
H508 C529 0.950 . S
H509 C532 0.950 . S
H510 C533 0.950 . S
H511 C535 0.950 . S
H512 C536 0.950 . S
H513 C537 0.951 . S
H514 C539 0.951 . S
H515 C541 0.950 . S
H516 C542 0.950 . S
H517 C544 0.950 . S
H518 C547 0.950 . S
H519 C548 0.950 . S
H520 C550 0.950 . S
H521 C551 0.950 . S
C522 H504 0.951 . S
C522 C523 1.366 . S
C522 C524 1.388 . S
C523 C522 1.366 . S
C523 C527 1.385 . S
C524 H505 0.951 . S
C524 C522 1.388 . S
C524 C525 1.366 . S
C525 C524 1.366 . S
C525 C526 1.414 . S
C525 C528 1.499 . S
C526 H506 0.950 . S
C526 C525 1.414 . S
C526 C527 1.374 . S
C527 H507 0.950 . S
C527 C523 1.385 . S
C527 C526 1.374 . S
C528 C525 1.499 . S
C528 C529 1.373 . S
C528 C530 1.389 . S
C529 H508 0.950 . S
C529 C528 1.373 . S
C529 C545 1.377 . S
C530 C528 1.389 . S
C530 C531 1.524 . S
C530 C544 1.377 . S
C531 C530 1.524 . S
C531 C532 1.397 . S
C531 C536 1.363 . S
C532 H509 0.950 . S
C532 C531 1.397 . S
C532 C533 1.334 . S
C533 H510 0.950 . S
C533 C532 1.334 . S
C533 C534 1.287 . S
C534 C533 1.287 . S
C534 C535 1.524 . S
C534 H553 0.913 . S
C535 H511 0.950 . S
C535 C534 1.524 . S
C535 C536 1.415 . S
C536 H512 0.950 . S
C536 C531 1.363 . S
C536 C535 1.415 . S
C537 H513 0.951 . S
C537 C538 1.366 . S
C537 C539 1.388 . S
C538 C537 1.366 . S
C538 C542 1.385 . S
C539 H514 0.951 . S
C539 C537 1.388 . S
C539 C540 1.366 . S
C540 C539 1.366 . S
C540 C541 1.414 . S
C540 C543 1.499 . S
C541 H515 0.950 . S
C541 C540 1.414 . S
C541 C542 1.374 . S
C542 H516 0.950 . S
C542 C538 1.385 . S
C542 C541 1.374 . S
C543 C540 1.499 . S
C543 C544 1.373 . S
C543 C545 1.389 . S
C544 H517 0.950 . S
C544 C530 1.377 . S
C544 C543 1.373 . S
C545 C529 1.377 . S
C545 C543 1.389 . S
C545 C546 1.524 . S
C546 C545 1.524 . S
C546 C547 1.397 . S
C546 C551 1.363 . S
C547 H518 0.950 . S
C547 C546 1.397 . S
C547 C548 1.334 . S
C548 H519 0.950 . S
C548 C547 1.334 . S
C548 C549 1.287 . S
C549 C548 1.287 . S
C549 C550 1.524 . S
C549 H552 0.999 . S
C550 H520 0.950 . S
C550 C549 1.524 . S
C550 C551 1.415 . S
C551 H521 0.950 . S
C551 C546 1.363 . S
C551 C550 1.415 . S
H552 C549 0.999 . S
H553 C534 0.913 . S
H554 C572 0.951 . S
H555 C574 0.951 . S
H556 C576 0.950 . S
H557 C577 0.950 . S
H558 C579 0.950 . S
H559 C582 0.950 . S
H560 C583 0.950 . S
H561 C585 0.950 . S
H562 C586 0.950 . S
H563 C587 0.951 . S
H564 C589 0.951 . S
H565 C591 0.950 . S
H566 C592 0.950 . S
H567 C594 0.950 . S
H568 C597 0.950 . S
H569 C598 0.950 . S
H570 C600 0.950 . S
H571 C601 0.950 . S
C572 H554 0.951 . S
C572 C573 1.366 . S
C572 C574 1.388 . S
C573 C572 1.366 . S
C573 C577 1.385 . S
C574 H555 0.951 . S
C574 C572 1.388 . S
C574 C575 1.366 . S
C575 C574 1.366 . S
C575 C576 1.414 . S
C575 C578 1.499 . S
C576 H556 0.950 . S
C576 C575 1.414 . S
C576 C577 1.374 . S
C577 H557 0.950 . S
C577 C573 1.385 . S
C577 C576 1.374 . S
C578 C575 1.499 . S
C578 C579 1.373 . S
C578 C580 1.389 . S
C579 H558 0.950 . S
C579 C578 1.373 . S
C579 C595 1.377 . S
C580 C578 1.389 . S
C580 C581 1.524 . S
C580 C594 1.377 . S
C581 C580 1.524 . S
C581 C582 1.397 . S
C581 C586 1.363 . S
C582 H559 0.950 . S
C582 C581 1.397 . S
C582 C583 1.334 . S
C583 H560 0.950 . S
C583 C582 1.334 . S
C583 C584 1.287 . S
C584 C583 1.287 . S
C584 C585 1.524 . S
C584 H603 0.913 . S
C585 H561 0.950 . S
C585 C584 1.524 . S
C585 C586 1.415 . S
C586 H562 0.950 . S
C586 C581 1.363 . S
C586 C585 1.415 . S
C587 H563 0.951 . S
C587 C588 1.366 . S
C587 C589 1.388 . S
C588 C587 1.366 . S
C588 C592 1.385 . S
C589 H564 0.951 . S
C589 C587 1.388 . S
C589 C590 1.366 . S
C590 C589 1.366 . S
C590 C591 1.414 . S
C590 C593 1.499 . S
C591 H565 0.950 . S
C591 C590 1.414 . S
C591 C592 1.374 . S
C592 H566 0.950 . S
C592 C588 1.385 . S
C592 C591 1.374 . S
C593 C590 1.499 . S
C593 C594 1.373 . S
C593 C595 1.389 . S
C594 H567 0.950 . S
C594 C580 1.377 . S
C594 C593 1.373 . S
C595 C579 1.377 . S
C595 C593 1.389 . S
C595 C596 1.524 . S
C596 C595 1.524 . S
C596 C597 1.397 . S
C596 C601 1.363 . S
C597 H568 0.950 . S
C597 C596 1.397 . S
C597 C598 1.334 . S
C598 H569 0.950 . S
C598 C597 1.334 . S
C598 C599 1.287 . S
C599 C598 1.287 . S
C599 C600 1.524 . S
C599 H602 0.999 . S
C600 H570 0.950 . S
C600 C599 1.524 . S
C600 C601 1.415 . S
C601 H571 0.950 . S
C601 C596 1.363 . S
C601 C600 1.415 . S
H602 C599 0.999 . S
H603 C584 0.913 . S
H604 C622 0.951 . S
H605 C624 0.951 . S
H606 C626 0.950 . S
H607 C627 0.950 . S
H608 C629 0.950 . S
H609 C632 0.950 . S
H610 C633 0.950 . S
H611 C635 0.950 . S
H612 C636 0.950 . S
H613 C637 0.951 . S
H614 C639 0.951 . S
H615 C641 0.950 . S
H616 C642 0.950 . S
H617 C644 0.950 . S
H618 C647 0.950 . S
H619 C648 0.950 . S
H620 C650 0.950 . S
H621 C651 0.950 . S
C622 H604 0.951 . S
C622 C623 1.366 . S
C622 C624 1.388 . S
C623 C622 1.366 . S
C623 C627 1.385 . S
C624 H605 0.951 . S
C624 C622 1.388 . S
C624 C625 1.366 . S
C625 C624 1.366 . S
C625 C626 1.414 . S
C625 C628 1.499 . S
C626 H606 0.950 . S
C626 C625 1.414 . S
C626 C627 1.374 . S
C627 H607 0.950 . S
C627 C623 1.385 . S
C627 C626 1.374 . S
C628 C625 1.499 . S
C628 C629 1.373 . S
C628 C630 1.389 . S
C629 H608 0.950 . S
C629 C628 1.373 . S
C629 C645 1.377 . S
C630 C628 1.389 . S
C630 C631 1.524 . S
C630 C644 1.377 . S
C631 C630 1.524 . S
C631 C632 1.397 . S
C631 C636 1.363 . S
C632 H609 0.950 . S
C632 C631 1.397 . S
C632 C633 1.334 . S
C633 H610 0.950 . S
C633 C632 1.334 . S
C633 C634 1.287 . S
C634 C633 1.287 . S
C634 C635 1.524 . S
C634 H653 0.913 . S
C635 H611 0.950 . S
C635 C634 1.524 . S
C635 C636 1.415 . S
C636 H612 0.950 . S
C636 C631 1.363 . S
C636 C635 1.415 . S
C637 H613 0.951 . S
C637 C638 1.366 . S
C637 C639 1.388 . S
C638 C637 1.366 . S
C638 C642 1.385 . S
C639 H614 0.951 . S
C639 C637 1.388 . S
C639 C640 1.366 . S
C640 C639 1.366 . S
C640 C641 1.414 . S
C640 C643 1.499 . S
C641 H615 0.950 . S
C641 C640 1.414 . S
C641 C642 1.374 . S
C642 H616 0.950 . S
C642 C638 1.385 . S
C642 C641 1.374 . S
C643 C640 1.499 . S
C643 C644 1.373 . S
C643 C645 1.389 . S
C644 H617 0.950 . S
C644 C630 1.377 . S
C644 C643 1.373 . S
C645 C629 1.377 . S
C645 C643 1.389 . S
C645 C646 1.524 . S
C646 C645 1.524 . S
C646 C647 1.397 . S
C646 C651 1.363 . S
C647 H618 0.950 . S
C647 C646 1.397 . S
C647 C648 1.334 . S
C648 H619 0.950 . S
C648 C647 1.334 . S
C648 C649 1.287 . S
C649 C648 1.287 . S
C649 C650 1.524 . S
C649 H652 0.999 . S
C650 H620 0.950 . S
C650 C649 1.524 . S
C650 C651 1.415 . S
C651 H621 0.950 . S
C651 C646 1.363 . S
C651 C650 1.415 . S
H652 C649 0.999 . S
H653 C634 0.913 . S
H654 C672 0.951 . S
H655 C674 0.951 . S
H656 C676 0.950 . S
H657 C677 0.950 . S
H658 C679 0.950 . S
H659 C682 0.950 . S
H660 C683 0.950 . S
H661 C685 0.950 . S
H662 C686 0.950 . S
H663 C687 0.951 . S
H664 C689 0.951 . S
H665 C691 0.950 . S
H666 C692 0.950 . S
H667 C694 0.950 . S
H668 C697 0.950 . S
H669 C698 0.950 . S
H670 C700 0.950 . S
H671 C701 0.950 . S
C672 H654 0.951 . S
C672 C673 1.366 . S
C672 C674 1.388 . S
C673 C672 1.366 . S
C673 C677 1.385 . S
C674 H655 0.951 . S
C674 C672 1.388 . S
C674 C675 1.366 . S
C675 C674 1.366 . S
C675 C676 1.414 . S
C675 C678 1.499 . S
C676 H656 0.950 . S
C676 C675 1.414 . S
C676 C677 1.374 . S
C677 H657 0.950 . S
C677 C673 1.385 . S
C677 C676 1.374 . S
C678 C675 1.499 . S
C678 C679 1.373 . S
C678 C680 1.389 . S
C679 H658 0.950 . S
C679 C678 1.373 . S
C679 C695 1.377 . S
C680 C678 1.389 . S
C680 C681 1.524 . S
C680 C694 1.377 . S
C681 C680 1.524 . S
C681 C682 1.397 . S
C681 C686 1.363 . S
C682 H659 0.950 . S
C682 C681 1.397 . S
C682 C683 1.334 . S
C683 H660 0.950 . S
C683 C682 1.334 . S
C683 C684 1.287 . S
C684 C683 1.287 . S
C684 C685 1.524 . S
C684 H703 0.913 . S
C685 H661 0.950 . S
C685 C684 1.524 . S
C685 C686 1.415 . S
C686 H662 0.950 . S
C686 C681 1.363 . S
C686 C685 1.415 . S
C687 H663 0.951 . S
C687 C688 1.366 . S
C687 C689 1.388 . S
C688 C687 1.366 . S
C688 C692 1.385 . S
C689 H664 0.951 . S
C689 C687 1.388 . S
C689 C690 1.366 . S
C690 C689 1.366 . S
C690 C691 1.414 . S
C690 C693 1.499 . S
C691 H665 0.950 . S
C691 C690 1.414 . S
C691 C692 1.374 . S
C692 H666 0.950 . S
C692 C688 1.385 . S
C692 C691 1.374 . S
C693 C690 1.499 . S
C693 C694 1.373 . S
C693 C695 1.389 . S
C694 H667 0.950 . S
C694 C680 1.377 . S
C694 C693 1.373 . S
C695 C679 1.377 . S
C695 C693 1.389 . S
C695 C696 1.524 . S
C696 C695 1.524 . S
C696 C697 1.397 . S
C696 C701 1.363 . S
C697 H668 0.950 . S
C697 C696 1.397 . S
C697 C698 1.334 . S
C698 H669 0.950 . S
C698 C697 1.334 . S
C698 C699 1.287 . S
C699 C698 1.287 . S
C699 C700 1.524 . S
C699 H702 0.999 . S
C700 H670 0.950 . S
C700 C699 1.524 . S
C700 C701 1.415 . S
C701 H671 0.950 . S
C701 C696 1.363 . S
C701 C700 1.415 . S
H702 C699 0.999 . S
H703 C684 0.913 . S
H704 C722 0.951 . S
H705 C724 0.951 . S
H706 C726 0.950 . S
H707 C727 0.950 . S
H708 C729 0.950 . S
H709 C732 0.950 . S
H710 C733 0.950 . S
H711 C735 0.950 . S
H712 C736 0.950 . S
H713 C737 0.951 . S
H714 C739 0.951 . S
H715 C741 0.950 . S
H716 C742 0.950 . S
H717 C744 0.950 . S
H718 C747 0.950 . S
H719 C748 0.950 . S
H720 C750 0.950 . S
H721 C751 0.950 . S
C722 H704 0.951 . S
C722 C723 1.366 . S
C722 C724 1.388 . S
C723 C722 1.366 . S
C723 C727 1.385 . S
C724 H705 0.951 . S
C724 C722 1.388 . S
C724 C725 1.366 . S
C725 C724 1.366 . S
C725 C726 1.414 . S
C725 C728 1.499 . S
C726 H706 0.950 . S
C726 C725 1.414 . S
C726 C727 1.374 . S
C727 H707 0.950 . S
C727 C723 1.385 . S
C727 C726 1.374 . S
C728 C725 1.499 . S
C728 C729 1.373 . S
C728 C730 1.389 . S
C729 H708 0.950 . S
C729 C728 1.373 . S
C729 C745 1.377 . S
C730 C728 1.389 . S
C730 C731 1.524 . S
C730 C744 1.377 . S
C731 C730 1.524 . S
C731 C732 1.397 . S
C731 C736 1.363 . S
C732 H709 0.950 . S
C732 C731 1.397 . S
C732 C733 1.334 . S
C733 H710 0.950 . S
C733 C732 1.334 . S
C733 C734 1.287 . S
C734 C733 1.287 . S
C734 C735 1.524 . S
C734 H753 0.913 . S
C735 H711 0.950 . S
C735 C734 1.524 . S
C735 C736 1.415 . S
C736 H712 0.950 . S
C736 C731 1.363 . S
C736 C735 1.415 . S
C737 H713 0.951 . S
C737 C738 1.366 . S
C737 C739 1.388 . S
C738 C737 1.366 . S
C738 C742 1.385 . S
C739 H714 0.951 . S
C739 C737 1.388 . S
C739 C740 1.366 . S
C740 C739 1.366 . S
C740 C741 1.414 . S
C740 C743 1.499 . S
C741 H715 0.950 . S
C741 C740 1.414 . S
C741 C742 1.374 . S
C742 H716 0.950 . S
C742 C738 1.385 . S
C742 C741 1.374 . S
C743 C740 1.499 . S
C743 C744 1.373 . S
C743 C745 1.389 . S
C744 H717 0.950 . S
C744 C730 1.377 . S
C744 C743 1.373 . S
C745 C729 1.377 . S
C745 C743 1.389 . S
C745 C746 1.524 . S
C746 C745 1.524 . S
C746 C747 1.397 . S
C746 C751 1.363 . S
C747 H718 0.950 . S
C747 C746 1.397 . S
C747 C748 1.334 . S
C748 H719 0.950 . S
C748 C747 1.334 . S
C748 C749 1.287 . S
C749 C748 1.287 . S
C749 C750 1.524 . S
C749 H752 0.999 . S
C750 H720 0.950 . S
C750 C749 1.524 . S
C750 C751 1.415 . S
C751 H721 0.950 . S
C751 C746 1.363 . S
C751 C750 1.415 . S
H752 C749 0.999 . S
H753 C734 0.913 . S
H754 C772 0.951 . S
H755 C774 0.951 . S
H756 C776 0.950 . S
H757 C777 0.950 . S
H758 C779 0.950 . S
H759 C782 0.950 . S
H760 C783 0.950 . S
H761 C785 0.950 . S
H762 C786 0.950 . S
H763 C787 0.951 . S
H764 C789 0.951 . S
H765 C791 0.950 . S
H766 C792 0.950 . S
H767 C794 0.950 . S
H768 C797 0.950 . S
H769 C798 0.950 . S
H770 C800 0.950 . S
H771 C801 0.950 . S
C772 H754 0.951 . S
C772 C773 1.366 . S
C772 C774 1.388 . S
C773 C772 1.366 . S
C773 C777 1.385 . S
C774 H755 0.951 . S
C774 C772 1.388 . S
C774 C775 1.366 . S
C775 C774 1.366 . S
C775 C776 1.414 . S
C775 C778 1.499 . S
C776 H756 0.950 . S
C776 C775 1.414 . S
C776 C777 1.374 . S
C777 H757 0.950 . S
C777 C773 1.385 . S
C777 C776 1.374 . S
C778 C775 1.499 . S
C778 C779 1.373 . S
C778 C780 1.389 . S
C779 H758 0.950 . S
C779 C778 1.373 . S
C779 C795 1.377 . S
C780 C778 1.389 . S
C780 C781 1.524 . S
C780 C794 1.377 . S
C781 C780 1.524 . S
C781 C782 1.397 . S
C781 C786 1.363 . S
C782 H759 0.950 . S
C782 C781 1.397 . S
C782 C783 1.334 . S
C783 H760 0.950 . S
C783 C782 1.334 . S
C783 C784 1.287 . S
C784 C783 1.287 . S
C784 C785 1.524 . S
C784 H803 0.913 . S
C785 H761 0.950 . S
C785 C784 1.524 . S
C785 C786 1.415 . S
C786 H762 0.950 . S
C786 C781 1.363 . S
C786 C785 1.415 . S
C787 H763 0.951 . S
C787 C788 1.366 . S
C787 C789 1.388 . S
C788 C787 1.366 . S
C788 C792 1.385 . S
C789 H764 0.951 . S
C789 C787 1.388 . S
C789 C790 1.366 . S
C790 C789 1.366 . S
C790 C791 1.414 . S
C790 C793 1.499 . S
C791 H765 0.950 . S
C791 C790 1.414 . S
C791 C792 1.374 . S
C792 H766 0.950 . S
C792 C788 1.385 . S
C792 C791 1.374 . S
C793 C790 1.499 . S
C793 C794 1.373 . S
C793 C795 1.389 . S
C794 H767 0.950 . S
C794 C780 1.377 . S
C794 C793 1.373 . S
C795 C779 1.377 . S
C795 C793 1.389 . S
C795 C796 1.524 . S
C796 C795 1.524 . S
C796 C797 1.397 . S
C796 C801 1.363 . S
C797 H768 0.950 . S
C797 C796 1.397 . S
C797 C798 1.334 . S
C798 H769 0.950 . S
C798 C797 1.334 . S
C798 C799 1.287 . S
C799 C798 1.287 . S
C799 C800 1.524 . S
C799 H802 0.999 . S
C800 H770 0.950 . S
C800 C799 1.524 . S
C800 C801 1.415 . S
C801 H771 0.950 . S
C801 C796 1.363 . S
C801 C800 1.415 . S
H802 C799 0.999 . S
H803 C784 0.913 . S
H804 C822 0.951 . S
H805 C824 0.951 . S
H806 C826 0.950 . S
H807 C827 0.950 . S
H808 C829 0.950 . S
H809 C832 0.950 . S
H810 C833 0.950 . S
H811 C835 0.950 . S
H812 C836 0.950 . S
H813 C837 0.951 . S
H814 C839 0.951 . S
H815 C841 0.950 . S
H816 C842 0.950 . S
H817 C844 0.950 . S
H818 C847 0.950 . S
H819 C848 0.950 . S
H820 C850 0.950 . S
H821 C851 0.950 . S
C822 H804 0.951 . S
C822 C823 1.366 . S
C822 C824 1.388 . S
C823 C822 1.366 . S
C823 C827 1.385 . S
C824 H805 0.951 . S
C824 C822 1.388 . S
C824 C825 1.366 . S
C825 C824 1.366 . S
C825 C826 1.414 . S
C825 C828 1.499 . S
C826 H806 0.950 . S
C826 C825 1.414 . S
C826 C827 1.374 . S
C827 H807 0.950 . S
C827 C823 1.385 . S
C827 C826 1.374 . S
C828 C825 1.499 . S
C828 C829 1.373 . S
C828 C830 1.389 . S
C829 H808 0.950 . S
C829 C828 1.373 . S
C829 C845 1.377 . S
C830 C828 1.389 . S
C830 C831 1.524 . S
C830 C844 1.377 . S
C831 C830 1.524 . S
C831 C832 1.397 . S
C831 C836 1.363 . S
C832 H809 0.950 . S
C832 C831 1.397 . S
C832 C833 1.334 . S
C833 H810 0.950 . S
C833 C832 1.334 . S
C833 C834 1.287 . S
C834 C833 1.287 . S
C834 C835 1.524 . S
C834 H853 0.913 . S
C835 H811 0.950 . S
C835 C834 1.524 . S
C835 C836 1.415 . S
C836 H812 0.950 . S
C836 C831 1.363 . S
C836 C835 1.415 . S
C837 H813 0.951 . S
C837 C838 1.366 . S
C837 C839 1.388 . S
C838 C837 1.366 . S
C838 C842 1.385 . S
C839 H814 0.951 . S
C839 C837 1.388 . S
C839 C840 1.366 . S
C840 C839 1.366 . S
C840 C841 1.414 . S
C840 C843 1.499 . S
C841 H815 0.950 . S
C841 C840 1.414 . S
C841 C842 1.374 . S
C842 H816 0.950 . S
C842 C838 1.385 . S
C842 C841 1.374 . S
C843 C840 1.499 . S
C843 C844 1.373 . S
C843 C845 1.389 . S
C844 H817 0.950 . S
C844 C830 1.377 . S
C844 C843 1.373 . S
C845 C829 1.377 . S
C845 C843 1.389 . S
C845 C846 1.524 . S
C846 C845 1.524 . S
C846 C847 1.397 . S
C846 C851 1.363 . S
C847 H818 0.950 . S
C847 C846 1.397 . S
C847 C848 1.334 . S
C848 H819 0.950 . S
C848 C847 1.334 . S
C848 C849 1.287 . S
C849 C848 1.287 . S
C849 C850 1.524 . S
C849 H852 0.999 . S
C850 H820 0.950 . S
C850 C849 1.524 . S
C850 C851 1.415 . S
C851 H821 0.950 . S
C851 C846 1.363 . S
C851 C850 1.415 . S
H852 C849 0.999 . S
H853 C834 0.913 . S
H854 C872 0.951 . S
H855 C874 0.951 . S
H856 C876 0.950 . S
H857 C877 0.950 . S
H858 C879 0.950 . S
H859 C882 0.950 . S
H860 C883 0.950 . S
H861 C885 0.950 . S
H862 C886 0.950 . S
H863 C887 0.951 . S
H864 C889 0.951 . S
H865 C891 0.950 . S
H866 C892 0.950 . S
H867 C894 0.950 . S
H868 C897 0.950 . S
H869 C898 0.950 . S
H870 C900 0.950 . S
H871 C901 0.950 . S
C872 H854 0.951 . S
C872 C873 1.366 . S
C872 C874 1.388 . S
C873 C872 1.366 . S
C873 C877 1.385 . S
C874 H855 0.951 . S
C874 C872 1.388 . S
C874 C875 1.366 . S
C875 C874 1.366 . S
C875 C876 1.414 . S
C875 C878 1.499 . S
C876 H856 0.950 . S
C876 C875 1.414 . S
C876 C877 1.374 . S
C877 H857 0.950 . S
C877 C873 1.385 . S
C877 C876 1.374 . S
C878 C875 1.499 . S
C878 C879 1.373 . S
C878 C880 1.389 . S
C879 H858 0.950 . S
C879 C878 1.373 . S
C879 C895 1.377 . S
C880 C878 1.389 . S
C880 C881 1.524 . S
C880 C894 1.377 . S
C881 C880 1.524 . S
C881 C882 1.397 . S
C881 C886 1.363 . S
C882 H859 0.950 . S
C882 C881 1.397 . S
C882 C883 1.334 . S
C883 H860 0.950 . S
C883 C882 1.334 . S
C883 C884 1.287 . S
C884 C883 1.287 . S
C884 C885 1.524 . S
C884 H903 0.913 . S
C885 H861 0.950 . S
C885 C884 1.524 . S
C885 C886 1.415 . S
C886 H862 0.950 . S
C886 C881 1.363 . S
C886 C885 1.415 . S
C887 H863 0.951 . S
C887 C888 1.366 . S
C887 C889 1.388 . S
C888 C887 1.366 . S
C888 C892 1.385 . S
C889 H864 0.951 . S
C889 C887 1.388 . S
C889 C890 1.366 . S
C890 C889 1.366 . S
C890 C891 1.414 . S
C890 C893 1.499 . S
C891 H865 0.950 . S
C891 C890 1.414 . S
C891 C892 1.374 . S
C892 H866 0.950 . S
C892 C888 1.385 . S
C892 C891 1.374 . S
C893 C890 1.499 . S
C893 C894 1.373 . S
C893 C895 1.389 . S
C894 H867 0.950 . S
C894 C880 1.377 . S
C894 C893 1.373 . S
C895 C879 1.377 . S
C895 C893 1.389 . S
C895 C896 1.524 . S
C896 C895 1.524 . S
C896 C897 1.397 . S
C896 C901 1.363 . S
C897 H868 0.950 . S
C897 C896 1.397 . S
C897 C898 1.334 . S
C898 H869 0.950 . S
C898 C897 1.334 . S
C898 C899 1.287 . S
C899 C898 1.287 . S
C899 C900 1.524 . S
C899 H902 0.999 . S
C900 H870 0.950 . S
C900 C899 1.524 . S
C900 C901 1.415 . S
C901 H871 0.950 . S
C901 C896 1.363 . S
C901 C900 1.415 . S
H902 C899 0.999 . S
H903 C884 0.913 . S
H904 C922 0.951 . S
H905 C924 0.951 . S
H906 C926 0.950 . S
H907 C927 0.950 . S
H908 C929 0.950 . S
H909 C932 0.950 . S
H910 C933 0.950 . S
H911 C935 0.950 . S
H912 C936 0.950 . S
H913 C937 0.951 . S
H914 C939 0.951 . S
H915 C941 0.950 . S
H916 C942 0.950 . S
H917 C944 0.950 . S
H918 C947 0.950 . S
H919 C948 0.950 . S
H920 C950 0.950 . S
H921 C951 0.950 . S
C922 H904 0.951 . S
C922 C923 1.366 . S
C922 C924 1.388 . S
C923 C922 1.366 . S
C923 C927 1.385 . S
C924 H905 0.951 . S
C924 C922 1.388 . S
C924 C925 1.366 . S
C925 C924 1.366 . S
C925 C926 1.414 . S
C925 C928 1.499 . S
C926 H906 0.950 . S
C926 C925 1.414 . S
C926 C927 1.374 . S
C927 H907 0.950 . S
C927 C923 1.385 . S
C927 C926 1.374 . S
C928 C925 1.499 . S
C928 C929 1.373 . S
C928 C930 1.389 . S
C929 H908 0.950 . S
C929 C928 1.373 . S
C929 C945 1.377 . S
C930 C928 1.389 . S
C930 C931 1.524 . S
C930 C944 1.377 . S
C931 C930 1.524 . S
C931 C932 1.397 . S
C931 C936 1.363 . S
C932 H909 0.950 . S
C932 C931 1.397 . S
C932 C933 1.334 . S
C933 H910 0.950 . S
C933 C932 1.334 . S
C933 C934 1.287 . S
C934 C933 1.287 . S
C934 C935 1.524 . S
C934 H953 0.913 . S
C935 H911 0.950 . S
C935 C934 1.524 . S
C935 C936 1.415 . S
C936 H912 0.950 . S
C936 C931 1.363 . S
C936 C935 1.415 . S
C937 H913 0.951 . S
C937 C938 1.366 . S
C937 C939 1.388 . S
C938 C937 1.366 . S
C938 C942 1.385 . S
C939 H914 0.951 . S
C939 C937 1.388 . S
C939 C940 1.366 . S
C940 C939 1.366 . S
C940 C941 1.414 . S
C940 C943 1.499 . S
C941 H915 0.950 . S
C941 C940 1.414 . S
C941 C942 1.374 . S
C942 H916 0.950 . S
C942 C938 1.385 . S
C942 C941 1.374 . S
C943 C940 1.499 . S
C943 C944 1.373 . S
C943 C945 1.389 . S
C944 H917 0.950 . S
C944 C930 1.377 . S
C944 C943 1.373 . S
C945 C929 1.377 . S
C945 C943 1.389 . S
C945 C946 1.524 . S
C946 C945 1.524 . S
C946 C947 1.397 . S
C946 C951 1.363 . S
C947 H918 0.950 . S
C947 C946 1.397 . S
C947 C948 1.334 . S
C948 H919 0.950 . S
C948 C947 1.334 . S
C948 C949 1.287 . S
C949 C948 1.287 . S
C949 C950 1.524 . S
C949 H952 0.999 . S
C950 H920 0.950 . S
C950 C949 1.524 . S
C950 C951 1.415 . S
C951 H921 0.950 . S
C951 C946 1.363 . S
C951 C950 1.415 . S
H952 C949 0.999 . S
H953 C934 0.913 . S
H954 C972 0.951 . S
H955 C974 0.951 . S
H956 C976 0.950 . S
H957 C977 0.950 . S
H958 C979 0.950 . S
H959 C982 0.950 . S
H960 C983 0.950 . S
H961 C985 0.950 . S
H962 C986 0.950 . S
H963 C987 0.951 . S
H964 C989 0.951 . S
H965 C991 0.950 . S
H966 C992 0.950 . S
H967 C994 0.950 1_655 S
H968 C997 0.950 . S
H969 C998 0.950 . S
H970 C1000 0.950 . S
H971 C1001 0.950 . S
C972 H954 0.951 . S
C972 C973 1.366 . S
C972 C974 1.388 . S
C973 C972 1.366 . S
C973 C977 1.385 . S
C974 H955 0.951 . S
C974 C972 1.388 . S
C974 C975 1.366 . S
C975 C974 1.366 . S
C975 C976 1.414 . S
C975 C978 1.499 . S
C976 H956 0.950 . S
C976 C975 1.414 . S
C976 C977 1.374 . S
C977 H957 0.950 . S
C977 C973 1.385 . S
C977 C976 1.374 . S
C978 C975 1.499 . S
C978 C979 1.373 . S
C978 C980 1.389 . S
C979 H958 0.950 . S
C979 C978 1.373 . S
C979 C995 1.377 . S
C980 C978 1.389 . S
C980 C981 1.524 1_455 S
C980 C994 1.377 . S
C981 C980 1.524 1_655 S
C981 C982 1.397 . S
C981 C986 1.363 . S
C982 H959 0.950 . S
C982 C981 1.397 . S
C982 C983 1.334 . S
C983 H960 0.950 . S
C983 C982 1.334 . S
C983 C984 1.287 . S
C984 C983 1.287 . S
C984 C985 1.524 . S
C984 H1003 0.913 . S
C985 H961 0.950 . S
C985 C984 1.524 . S
C985 C986 1.415 . S
C986 H962 0.950 . S
C986 C981 1.363 . S
C986 C985 1.415 . S
C987 H963 0.951 . S
C987 C988 1.366 . S
C987 C989 1.388 1_556 S
C988 C987 1.366 . S
C988 C992 1.385 . S
C989 H964 0.951 . S
C989 C987 1.388 1_554 S
C989 C990 1.366 . S
C990 C989 1.366 . S
C990 C991 1.414 . S
C990 C993 1.499 . S
C991 H965 0.950 . S
C991 C990 1.414 . S
C991 C992 1.374 1_554 S
C992 H966 0.950 . S
C992 C988 1.385 . S
C992 C991 1.374 1_556 S
C993 C990 1.499 . S
C993 C994 1.373 . S
C993 C995 1.389 . S
C994 H967 0.950 1_455 S
C994 C980 1.377 . S
C994 C993 1.373 . S
C995 C979 1.377 . S
C995 C993 1.389 . S
C995 C996 1.524 . S
C996 C995 1.524 . S
C996 C997 1.397 . S
C996 C1001 1.363 . S
C997 H968 0.950 . S
C997 C996 1.397 . S
C997 C998 1.334 . S
C998 H969 0.950 . S
C998 C997 1.334 . S
C998 C999 1.287 . S
C999 C998 1.287 . S
C999 C1000 1.524 . S
C999 H1002 0.999 . S
C1000 H970 0.950 . S
C1000 C999 1.524 . S
C1000 C1001 1.415 . S
C1001 H971 0.950 . S
C1001 C996 1.363 . S
C1001 C1000 1.415 . S
H1002 C999 0.999 . S
H1003 C984 0.913 . S
H1004 C1022 0.951 . S
H1005 C1024 0.951 . S
H1006 C1026 0.950 . S
H1007 C1027 0.950 . S
H1008 C1029 0.950 . S
H1009 C1032 0.950 . S
H1010 C1033 0.950 . S
H1011 C1035 0.950 . S
H1012 C1036 0.950 . S
H1013 C1037 0.951 . S
H1014 C1039 0.951 . S
H1015 C1041 0.950 . S
H1016 C1042 0.950 . S
H1017 C1044 0.950 . S
H1018 C1047 0.950 . S
H1019 C1048 0.950 . S
H1020 C1050 0.950 . S
H1021 C1051 0.950 . S
C1022 H1004 0.951 . S
C1022 C1023 1.366 . S
C1022 C1024 1.388 . S
C1023 C1022 1.366 . S
C1023 C1027 1.385 1_545 S
C1024 H1005 0.951 . S
C1024 C1022 1.388 . S
C1024 C1025 1.366 . S
C1025 C1024 1.366 . S
C1025 C1026 1.414 1_545 S
C1025 C1028 1.499 . S
C1026 H1006 0.950 . S
C1026 C1025 1.414 1_565 S
C1026 C1027 1.374 . S
C1027 H1007 0.950 . S
C1027 C1023 1.385 1_565 S
C1027 C1026 1.374 . S
C1028 C1025 1.499 . S
C1028 C1029 1.373 1_545 S
C1028 C1030 1.389 . S
C1029 H1008 0.950 . S
C1029 C1028 1.373 1_565 S
C1029 C1045 1.377 . S
C1030 C1028 1.389 . S
C1030 C1031 1.524 . S
C1030 C1044 1.377 . S
C1031 C1030 1.524 . S
C1031 C1032 1.397 . S
C1031 C1036 1.363 . S
C1032 H1009 0.950 . S
C1032 C1031 1.397 . S
C1032 C1033 1.334 . S
C1033 H1010 0.950 . S
C1033 C1032 1.334 . S
C1033 C1034 1.287 . S
C1034 C1033 1.287 . S
C1034 C1035 1.524 . S
C1034 H1053 0.913 . S
C1035 H1011 0.950 . S
C1035 C1034 1.524 . S
C1035 C1036 1.415 . S
C1036 H1012 0.950 . S
C1036 C1031 1.363 . S
C1036 C1035 1.415 . S
C1037 H1013 0.951 . S
C1037 C1038 1.366 1_565 S
C1037 C1039 1.388 . S
C1038 C1037 1.366 1_545 S
C1038 C1042 1.385 . S
C1039 H1014 0.951 . S
C1039 C1037 1.388 . S
C1039 C1040 1.366 1_565 S
C1040 C1039 1.366 1_545 S
C1040 C1041 1.414 . S
C1040 C1043 1.499 . S
C1041 H1015 0.950 . S
C1041 C1040 1.414 . S
C1041 C1042 1.374 . S
C1042 H1016 0.950 . S
C1042 C1038 1.385 . S
C1042 C1041 1.374 . S
C1043 C1040 1.499 . S
C1043 C1044 1.373 . S
C1043 C1045 1.389 1_545 S
C1044 H1017 0.950 . S
C1044 C1030 1.377 . S
C1044 C1043 1.373 . S
C1045 C1029 1.377 . S
C1045 C1043 1.389 1_565 S
C1045 C1046 1.524 . S
C1046 C1045 1.524 . S
C1046 C1047 1.397 . S
C1046 C1051 1.363 . S
C1047 H1018 0.950 . S
C1047 C1046 1.397 . S
C1047 C1048 1.334 . S
C1048 H1019 0.950 . S
C1048 C1047 1.334 . S
C1048 C1049 1.287 . S
C1049 C1048 1.287 . S
C1049 C1050 1.524 . S
C1049 H1052 0.999 . S
C1050 H1020 0.950 . S
C1050 C1049 1.524 . S
C1050 C1051 1.415 . S
C1051 H1021 0.950 . S
C1051 C1046 1.363 . S
C1051 C1050 1.415 . S
H1052 C1049 0.999 . S
H1053 C1034 0.913 . S
H1054 C1072 0.951 . S
H1055 C1074 0.951 . S
H1056 C1076 0.950 . S
H1057 C1077 0.950 . S
H1058 C1079 0.950 . S
H1059 C1082 0.950 . S
H1060 C1083 0.950 . S
H1061 C1085 0.950 . S
H1062 C1086 0.950 . S
H1063 C1087 0.951 . S
H1064 C1089 0.951 . S
H1065 C1091 0.950 . S
H1066 C1092 0.950 . S
H1067 C1094 0.950 . S
H1068 C1097 0.950 . S
H1069 C1098 0.950 . S
H1070 C1100 0.950 . S
H1071 C1101 0.950 . S
C1072 H1054 0.951 . S
C1072 C1073 1.366 . S
C1072 C1074 1.388 . S
C1073 C1072 1.366 . S
C1073 C1077 1.385 . S
C1074 H1055 0.951 . S
C1074 C1072 1.388 . S
C1074 C1075 1.366 . S
C1075 C1074 1.366 . S
C1075 C1076 1.414 . S
C1075 C1078 1.499 . S
C1076 H1056 0.950 . S
C1076 C1075 1.414 . S
C1076 C1077 1.374 . S
C1077 H1057 0.950 . S
C1077 C1073 1.385 . S
C1077 C1076 1.374 . S
C1078 C1075 1.499 . S
C1078 C1079 1.373 . S
C1078 C1080 1.389 . S
C1079 H1058 0.950 . S
C1079 C1078 1.373 . S
C1079 C1095 1.377 . S
C1080 C1078 1.389 . S
C1080 C1081 1.524 . S
C1080 C1094 1.377 . S
C1081 C1080 1.524 . S
C1081 C1082 1.397 . S
C1081 C1086 1.363 . S
C1082 H1059 0.950 . S
C1082 C1081 1.397 . S
C1082 C1083 1.334 . S
C1083 H1060 0.950 . S
C1083 C1082 1.334 . S
C1083 C1084 1.287 . S
C1084 C1083 1.287 . S
C1084 C1085 1.524 . S
C1084 H1103 0.913 . S
C1085 H1061 0.950 . S
C1085 C1084 1.524 . S
C1085 C1086 1.415 . S
C1086 H1062 0.950 . S
C1086 C1081 1.363 . S
C1086 C1085 1.415 . S
C1087 H1063 0.951 . S
C1087 C1088 1.366 . S
C1087 C1089 1.388 . S
C1088 C1087 1.366 . S
C1088 C1092 1.385 . S
C1089 H1064 0.951 . S
C1089 C1087 1.388 . S
C1089 C1090 1.366 . S
C1090 C1089 1.366 . S
C1090 C1091 1.414 . S
C1090 C1093 1.499 . S
C1091 H1065 0.950 . S
C1091 C1090 1.414 . S
C1091 C1092 1.374 . S
C1092 H1066 0.950 . S
C1092 C1088 1.385 . S
C1092 C1091 1.374 . S
C1093 C1090 1.499 . S
C1093 C1094 1.373 . S
C1093 C1095 1.389 . S
C1094 H1067 0.950 . S
C1094 C1080 1.377 . S
C1094 C1093 1.373 . S
C1095 C1079 1.377 . S
C1095 C1093 1.389 . S
C1095 C1096 1.524 . S
C1096 C1095 1.524 . S
C1096 C1097 1.397 . S
C1096 C1101 1.363 . S
C1097 H1068 0.950 . S
C1097 C1096 1.397 . S
C1097 C1098 1.334 . S
C1098 H1069 0.950 . S
C1098 C1097 1.334 . S
C1098 C1099 1.287 . S
C1099 C1098 1.287 . S
C1099 C1100 1.524 . S
C1099 H1102 0.999 . S
C1100 H1070 0.950 . S
C1100 C1099 1.524 . S
C1100 C1101 1.415 . S
C1101 H1071 0.950 . S
C1101 C1096 1.363 . S
C1101 C1100 1.415 . S
H1102 C1099 0.999 . S
H1103 C1084 0.913 . S
H1104 C1122 0.951 . S
H1105 C1124 0.951 . S
H1106 C1126 0.950 . S
H1107 C1127 0.950 . S
H1108 C1129 0.950 . S
H1109 C1132 0.953 . S
H1110 C1133 0.950 1_545 S
H1111 C1135 0.950 . S
H1112 C1136 0.950 . S
H1113 C1137 0.951 . S
H1114 C1139 0.951 . S
H1115 C1141 0.950 . S
H1116 C1142 0.950 . S
H1117 C1144 0.950 . S
H1118 C1147 0.950 1_565 S
H1119 C1148 0.948 1_565 S
H1120 C1150 0.950 . S
H1121 C1151 0.950 . S
C1122 H1104 0.951 . S
C1122 C1123 1.366 1_565 S
C1122 C1124 1.388 . S
C1123 C1122 1.366 1_545 S
C1123 C1127 1.385 . S
C1124 H1105 0.951 . S
C1124 C1122 1.388 . S
C1124 C1125 1.366 1_565 S
C1125 C1124 1.366 1_545 S
C1125 C1126 1.414 . S
C1125 C1128 1.499 . S
C1126 H1106 0.950 . S
C1126 C1125 1.414 . S
C1126 C1127 1.374 . S
C1127 H1107 0.950 . S
C1127 C1123 1.385 . S
C1127 C1126 1.374 . S
C1128 C1125 1.499 . S
C1128 C1129 1.373 . S
C1128 C1130 1.389 1_545 S
C1129 H1108 0.950 . S
C1129 C1128 1.373 . S
C1129 C1145 1.377 . S
C1130 C1128 1.389 1_565 S
C1130 C1131 1.524 . S
C1130 C1144 1.377 . S
C1131 C1130 1.524 . S
C1131 C1132 1.391 1_565 S
C1131 C1136 1.363 . S
C1132 H1109 0.953 . S
C1132 C1131 1.391 1_545 S
C1132 C1133 1.336 1_545 S
C1133 H1110 0.950 1_565 S
C1133 C1132 1.336 1_565 S
C1133 C1134 1.287 . S
C1134 C1133 1.287 . S
C1134 C1135 1.524 . S
C1134 H1153 0.913 . S
C1135 H1111 0.950 . S
C1135 C1134 1.524 . S
C1135 C1136 1.415 . S
C1136 H1112 0.950 . S
C1136 C1131 1.363 . S
C1136 C1135 1.415 . S
C1137 H1113 0.951 . S
C1137 C1138 1.347 1_545 S
C1137 C1139 1.388 . S
C1138 C1137 1.347 1_565 S
C1138 C1142 1.402 . S
C1139 H1114 0.951 . S
C1139 C1137 1.388 . S
C1139 C1140 1.382 . S
C1140 C1139 1.382 . S
C1140 C1141 1.396 1_545 S
C1140 C1143 1.499 . S
C1141 H1115 0.950 . S
C1141 C1140 1.396 1_565 S
C1141 C1142 1.374 . S
C1142 H1116 0.950 . S
C1142 C1138 1.402 . S
C1142 C1141 1.374 . S
C1143 C1140 1.499 . S
C1143 C1144 1.380 1_545 S
C1143 C1145 1.387 . S
C1144 H1117 0.950 . S
C1144 C1130 1.377 . S
C1144 C1143 1.380 1_565 S
C1145 C1129 1.377 . S
C1145 C1143 1.387 . S
C1145 C1146 1.524 . S
C1146 C1145 1.524 . S
C1146 C1147 1.397 . S
C1146 C1151 1.363 . S
C1147 H1118 0.950 1_545 S
C1147 C1146 1.397 . S
C1147 C1148 1.334 . S
C1148 H1119 0.948 1_545 S
C1148 C1147 1.334 . S
C1148 C1149 1.287 . S
C1149 C1148 1.287 . S
C1149 C1150 1.524 . S
C1149 H1152 0.999 . S
C1150 H1120 0.950 . S
C1150 C1149 1.524 . S
C1150 C1151 1.415 . S
C1151 H1121 0.950 . S
C1151 C1146 1.363 . S
C1151 C1150 1.415 . S
H1152 C1149 0.999 . S
H1153 C1134 0.913 . S
H1154 C1172 0.951 . S
H1155 C1174 0.951 . S
H1156 C1176 0.950 . S
H1157 C1177 0.950 . S
H1158 C1179 0.950 . S
H1159 C1182 0.950 . S
H1160 C1183 0.950 . S
H1161 C1185 0.950 . S
H1162 C1186 0.950 . S
H1163 C1187 0.951 . S
H1164 C1189 0.951 . S
H1165 C1191 0.950 . S
H1166 C1192 0.950 . S
H1167 C1194 0.950 . S
H1168 C1197 0.950 . S
H1169 C1198 0.950 . S
H1170 C1200 0.950 . S
H1171 C1201 0.950 . S
C1172 H1154 0.951 . S
C1172 C1173 1.366 . S
C1172 C1174 1.388 . S
C1173 C1172 1.366 . S
C1173 C1177 1.385 . S
C1174 H1155 0.951 . S
C1174 C1172 1.388 . S
C1174 C1175 1.366 . S
C1175 C1174 1.366 . S
C1175 C1176 1.414 . S
C1175 C1178 1.499 . S
C1176 H1156 0.950 . S
C1176 C1175 1.414 . S
C1176 C1177 1.374 . S
C1177 H1157 0.950 . S
C1177 C1173 1.385 . S
C1177 C1176 1.374 . S
C1178 C1175 1.499 . S
C1178 C1179 1.373 . S
C1178 C1180 1.389 . S
C1179 H1158 0.950 . S
C1179 C1178 1.373 . S
C1179 C1195 1.377 . S
C1180 C1178 1.389 . S
C1180 C1181 1.524 . S
C1180 C1194 1.377 . S
C1181 C1180 1.524 . S
C1181 C1182 1.397 . S
C1181 C1186 1.363 . S
C1182 H1159 0.950 . S
C1182 C1181 1.397 . S
C1182 C1183 1.334 . S
C1183 H1160 0.950 . S
C1183 C1182 1.334 . S
C1183 C1184 1.287 . S
C1184 C1183 1.287 . S
C1184 C1185 1.524 . S
C1184 H1203 0.913 . S
C1185 H1161 0.950 . S
C1185 C1184 1.524 . S
C1185 C1186 1.415 . S
C1186 H1162 0.950 . S
C1186 C1181 1.363 . S
C1186 C1185 1.415 . S
C1187 H1163 0.951 . S
C1187 C1188 1.366 . S
C1187 C1189 1.388 1_554 S
C1188 C1187 1.366 . S
C1188 C1192 1.385 . S
C1189 H1164 0.951 . S
C1189 C1187 1.388 1_556 S
C1189 C1190 1.366 . S
C1190 C1189 1.366 . S
C1190 C1191 1.414 . S
C1190 C1193 1.499 . S
C1191 H1165 0.950 . S
C1191 C1190 1.414 . S
C1191 C1192 1.374 1_556 S
C1192 H1166 0.950 . S
C1192 C1188 1.385 . S
C1192 C1191 1.374 1_554 S
C1193 C1190 1.499 . S
C1193 C1194 1.373 . S
C1193 C1195 1.389 . S
C1194 H1167 0.950 . S
C1194 C1180 1.377 . S
C1194 C1193 1.373 . S
C1195 C1179 1.377 . S
C1195 C1193 1.389 . S
C1195 C1196 1.524 . S
C1196 C1195 1.524 . S
C1196 C1197 1.397 . S
C1196 C1201 1.363 . S
C1197 H1168 0.950 . S
C1197 C1196 1.397 . S
C1197 C1198 1.334 . S
C1198 H1169 0.950 . S
C1198 C1197 1.334 . S
C1198 C1199 1.287 . S
C1199 C1198 1.287 . S
C1199 C1200 1.524 . S
C1199 H1202 0.999 . S
C1200 H1170 0.950 . S
C1200 C1199 1.524 . S
C1200 C1201 1.415 . S
C1201 H1171 0.950 . S
C1201 C1196 1.363 . S
C1201 C1200 1.415 . S
H1202 C1199 0.999 . S
H1203 C1184 0.913 . S
H1204 C1222 0.951 . S
H1205 C1224 0.951 . S
H1206 C1226 0.950 . S
H1207 C1227 0.950 . S
H1208 C1229 0.950 . S
H1209 C1232 0.950 . S
H1210 C1233 0.950 . S
H1211 C1235 0.950 . S
H1212 C1236 0.950 . S
H1213 C1237 0.951 . S
H1214 C1239 0.951 . S
H1215 C1241 0.950 . S
H1216 C1242 0.950 . S
H1217 C1244 0.950 . S
H1218 C1247 0.950 . S
H1219 C1248 0.950 . S
H1220 C1250 0.950 . S
H1221 C1251 0.950 . S
C1222 H1204 0.951 . S
C1222 C1223 1.366 1_655 S
C1222 C1224 1.388 . S
C1223 C1222 1.366 1_455 S
C1223 C1227 1.385 . S
C1224 H1205 0.951 . S
C1224 C1222 1.388 . S
C1224 C1225 1.366 1_655 S
C1225 C1224 1.366 1_455 S
C1225 C1226 1.414 . S
C1225 C1228 1.499 . S
C1226 H1206 0.950 . S
C1226 C1225 1.414 . S
C1226 C1227 1.374 . S
C1227 H1207 0.950 . S
C1227 C1223 1.385 . S
C1227 C1226 1.374 . S
C1228 C1225 1.499 . S
C1228 C1229 1.373 . S
C1228 C1230 1.389 1_455 S
C1229 H1208 0.950 . S
C1229 C1228 1.373 . S
C1229 C1245 1.377 . S
C1230 C1228 1.389 1_655 S
C1230 C1231 1.524 . S
C1230 C1244 1.377 . S
C1231 C1230 1.524 . S
C1231 C1232 1.397 . S
C1231 C1236 1.363 . S
C1232 H1209 0.950 . S
C1232 C1231 1.397 . S
C1232 C1233 1.334 . S
C1233 H1210 0.950 . S
C1233 C1232 1.334 . S
C1233 C1234 1.287 . S
C1234 C1233 1.287 . S
C1234 C1235 1.524 . S
C1234 H1253 0.913 . S
C1235 H1211 0.950 . S
C1235 C1234 1.524 . S
C1235 C1236 1.415 . S
C1236 H1212 0.950 . S
C1236 C1231 1.363 . S
C1236 C1235 1.415 . S
C1237 H1213 0.951 . S
C1237 C1238 1.382 . S
C1237 C1239 1.388 . S
C1238 C1237 1.382 . S
C1238 C1242 1.371 1_455 S
C1239 H1214 0.951 . S
C1239 C1237 1.388 . S
C1239 C1240 1.366 . S
C1240 C1239 1.366 . S
C1240 C1241 1.414 1_455 S
C1240 C1243 1.499 . S
C1241 H1215 0.950 . S
C1241 C1240 1.414 1_655 S
C1241 C1242 1.374 . S
C1242 H1216 0.950 . S
C1242 C1238 1.371 1_655 S
C1242 C1241 1.374 . S
C1243 C1240 1.499 . S
C1243 C1244 1.373 1_455 S
C1243 C1245 1.389 . S
C1244 H1217 0.950 . S
C1244 C1230 1.377 . S
C1244 C1243 1.373 1_655 S
C1245 C1229 1.377 . S
C1245 C1243 1.389 . S
C1245 C1246 1.524 . S
C1246 C1245 1.524 . S
C1246 C1247 1.397 . S
C1246 C1251 1.363 . S
C1247 H1218 0.950 . S
C1247 C1246 1.397 . S
C1247 C1248 1.334 . S
C1248 H1219 0.950 . S
C1248 C1247 1.334 . S
C1248 C1249 1.287 . S
C1249 C1248 1.287 . S
C1249 C1250 1.524 . S
C1249 H1252 0.999 . S
C1250 H1220 0.950 . S
C1250 C1249 1.524 . S
C1250 C1251 1.415 . S
C1251 H1221 0.950 . S
C1251 C1246 1.363 . S
C1251 C1250 1.415 . S
H1252 C1249 0.999 . S
H1253 C1234 0.913 . S
C373 C6 0.455 . S
C388 C331 0.441 . S
C423 C59 1.869 . S
C438 C258 1.841 . S
C473 C86 1.155 . S
C488 C297 1.156 . S
C523 C15 0.328 . S
C538 C336 0.229 . S
C588 C253 1.926 . S
C573 C50 1.953 . S
C638 C292 1.254 . S
C623 C95 1.254 . S
C673 C46 1.160 . S
C688 C180 1.160 . S
C723 C99 3.068 . S
C738 C214 3.024 . S
C773 C10 1.980 . S
C788 C136 1.960 . S
C838 C175 1.239 . S
C823 C55 1.233 . S
C888 C219 2.901 . S
C873 C90 2.917 . S
C923 C19 1.861 . S
C938 C141 1.837 . S
C988 C199 1.759 . S
C973 C18 1.691 . S
C1023 C49 1.335 . S
C1038 C121 1.382 . S
C1073 C98 1.454 . S
C1088 C160 1.507 . S
C1138 C277 1.491 . S
C1123 C58 1.444 . S
C1188 C316 1.115 . S
C1173 C89 1.094 . S
C1223 C9 1.331 . S
C1238 C238 1.371 1_455 S
