# Generated by pormake.
# Topology pth, (4,4)-cn, num edge types: 1
# Building blocks:
#     Node 0, Type 0, BuildingBlock: UXUYUI_clean_sbu_0, # of connection points: 4
#     Node 1, Type 0, BuildingBlock: UXUYUI_clean_sbu_0, # of connection points: 4
#     Node 2, Type 0, BuildingBlock: UXUYUI_clean_sbu_0, # of connection points: 4
#     Node 3, Type 1, BuildingBlock: AZAVOO_clean_linker_0, # of connection points: 4
#     Node 4, Type 1, BuildingBlock: AZAVOO_clean_linker_0, # of connection points: 4
#     Node 5, Type 1, BuildingBlock: AZAVOO_clean_linker_0, # of connection points: 4
#     Edge 6, Type (0, 1), BuildingBlock: XIVTED_clean_linker_0, # of connection points: 2
#     Edge 7, Type (0, 1), BuildingBlock: XIVTED_clean_linker_0, # of connection points: 2
#     Edge 8, Type (0, 1), BuildingBlock: XIVTED_clean_linker_0, # of connection points: 2
#     Edge 9, Type (0, 1), BuildingBlock: XIVTED_clean_linker_0, # of connection points: 2
#     Edge 10, Type (0, 1), BuildingBlock: XIVTED_clean_linker_0, # of connection points: 2
#     Edge 11, Type (0, 1), BuildingBlock: XIVTED_clean_linker_0, # of connection points: 2
#     Edge 12, Type (0, 1), BuildingBlock: XIVTED_clean_linker_0, # of connection points: 2
#     Edge 13, Type (0, 1), BuildingBlock: XIVTED_clean_linker_0, # of connection points: 2
#     Edge 14, Type (0, 1), BuildingBlock: XIVTED_clean_linker_0, # of connection points: 2
#     Edge 15, Type (0, 1), BuildingBlock: XIVTED_clean_linker_0, # of connection points: 2
#     Edge 16, Type (0, 1), BuildingBlock: XIVTED_clean_linker_0, # of connection points: 2
#     Edge 17, Type (0, 1), BuildingBlock: XIVTED_clean_linker_0, # of connection points: 2
# Relax obj value: 0.175
# Max RMSD: 0.231
# Mean RMSD: 0.228
data_MOF--net-pth--node1-UXUYUI_clean_sbu_0--node2-AZAVOO_clean_linker_0--edge1-XIVTED_clean_linker_0
_symmetry_space_group_name_H-M    P1
_symmetry_Int_Tables_number       1
_symmetry_cell_setting            triclinic
loop_
_symmetry_equiv_pos_as_xyz
'x, y, z'
_cell_length_a     31.530984
_cell_length_b     31.551322
_cell_length_c     85.051448
_cell_angle_alpha  91.344639
_cell_angle_beta   89.106668
_cell_angle_gamma 120.00479
loop_
_atom_site_label
_atom_site_type_symbol
_atom_site_fract_x
_atom_site_fract_y
_atom_site_fract_z
_atom_type_partial_charge
Li0 Li 0.10175 0.08345 0.05546 0.0
Li1 Li 0.03345 0.06501 0.07329 0.0
Li2 Li 0.05986 0.00593 0.06798 0.0
Li3 Li 0.01801 0.02583 0.04809 0.0
C4 C 0.14117 0.1076 0.08331 0.0
N5 N 0.231 0.18446 0.0926 0.0
C6 C 0.14409 0.14845 0.09112 0.0
C7 C 0.18395 0.10578 0.08028 0.0
C8 C 0.18985 0.18692 0.09572 0.0
C9 C 0.22901 0.14504 0.08504 0.0
C10 C 0.02993 0.11189 0.041 0.0
C11 C 0.96388 0.11673 0.02888 0.0
N12 N 0.99325 0.13897 0.0163 0.0
C13 C 0.05956 0.13503 0.02799 0.0
C14 C 0.9818 0.1029 0.04152 0.0
C15 C 0.0403 0.14837 0.01561 0.0
C16 C 0.18622 0.12027 0.03683 0.0
N17 N 0.16196 0.13307 0.04749 0.0
C18 C 0.22029 0.21781 0.04459 0.0
C19 C 0.17809 0.18061 0.05155 0.0
C20 C 0.24542 0.20583 0.03314 0.0
C21 C 0.22827 0.15622 0.02948 0.0
H22 H 0.17189 0.08224 0.03359 0.0
H23 H 0.15742 0.18963 0.05988 0.0
C24 C 0.01285 0.0773 0.10447 0.0
N25 N 0.01291 0.09214 0.0896 0.0
C26 C 0.00707 0.10233 0.11728 0.0
C27 C 0.00065 0.15684 0.09916 0.0
C28 C 0.006 0.13039 0.08668 0.0
C29 C 0.00247 0.14357 0.11468 0.0
H30 H 0.02021 0.04786 0.10641 0.0
H31 H 0.00742 0.14202 0.07474 0.0
C32 C 0.08348 0.98068 0.04133 0.0
N33 N 0.09571 0.90159 0.03414 0.0
C34 C 0.04632 0.93936 0.03367 0.0
C35 C 0.12692 0.98185 0.0453 0.0
C36 C 0.05322 0.89976 0.03013 0.0
C37 C 0.13236 0.94145 0.04159 0.0
C38 C 0.95569 0.98005 0.07932 0.0
C39 C 0.95563 0.95447 0.09253 0.0
C40 C 0.91918 0.99239 0.07767 0.0
C41 C 0.91921 0.94209 0.10397 0.0
C42 C 0.88344 0.97941 0.08938 0.0
N43 N 0.88421 0.95476 0.10217 0.0
C44 C 0.10192 0.97083 0.08871 0.0
C45 C 0.03718 0.90833 0.07371 0.0
C46 C 0.10701 0.93625 0.09705 0.0
N47 N 0.06734 0.95641 0.07738 0.0
C48 C 0.04107 0.87233 0.08175 0.0
C49 C 0.076 0.88621 0.09375 0.0
H50 H 0.12453 0.00916 0.09167 0.0
H51 H 0.00938 0.89796 0.06482 0.0
C52 C -0.00179 0.01527 0.01611 0.0
N53 N 0.97647 0.00187 0.03045 0.0
C54 C 0.97054 -0.00336 0.00247 0.0
C55 C 0.89855 0.95069 0.01865 0.0
C56 C 0.92763 0.97059 0.032 0.0
C57 C 0.92013 0.9632 0.00362 0.0
H58 H 0.03732 0.03976 0.0153 0.0
H59 H 0.91155 0.96003 0.04358 0.0
O60 O 0.09677 0.06974 0.07853 0.0
O61 O 0.04784 0.09783 0.05313 0.0
O62 O 0.07721 0.01958 0.0451 0.0
O63 O 0.9913 0.99291 0.06807 0.0
H64 H 0.11153 0.15075 0.0935 0.0
H65 H 0.18244 0.07465 0.07412 0.0
H66 H 0.19265 0.21882 0.10173 0.0
H67 H 0.26242 0.14424 0.08268 0.0
H68 H 0.92661 0.10973 0.02908 0.0
H69 H 0.09685 0.14215 0.02738 0.0
H70 H 0.95842 0.08508 0.0515 0.0
H71 H 0.06271 0.16606 0.00542 0.0
H72 H 0.2324 0.25552 0.04786 0.0
H73 H 0.24568 0.14523 0.02048 0.0
H74 H 0.00953 0.09157 0.12908 0.0
H75 H -0.00285 0.18851 0.09673 0.0
H76 H 0.01233 0.93764 0.0306 0.0
H77 H 0.15589 0.01339 0.05134 0.0
H78 H 0.02472 0.86747 0.02424 0.0
H79 H 0.16566 0.94174 0.04467 0.0
H80 H 0.98364 0.94468 0.09402 0.0
H81 H 0.9187 0.01217 0.06752 0.0
H82 H 0.91884 0.92251 0.11429 0.0
H83 H 0.85513 0.98899 0.08829 0.0
H84 H 0.13358 0.94866 0.10645 0.0
H85 H 0.01653 0.83416 0.0788 0.0
H86 H 0.98862 0.00773 0.99116 0.0
H87 H 0.86001 0.92438 0.0201 0.0
Li88 Li 0.01972 0.96872 0.38743 0.0
Li89 Li 0.08007 0.03745 0.40284 0.0
Li90 Li 0.99178 0.00747 0.40556 0.0
Li91 Li 0.03567 0.05159 0.38187 0.0
C92 C 0.02565 0.93056 0.41341 0.0
N93 N 0.02146 0.84207 0.41784 0.0
C94 C 0.06875 0.92827 0.41385 0.0
C95 C 0.98043 0.88791 0.41531 0.0
C96 C 0.06586 0.88317 0.41609 0.0
C97 C 0.97909 0.84351 0.41751 0.0
C98 C 0.12258 0.05661 0.37144 0.0
C99 C 0.19312 0.13638 0.36749 0.0
N100 N 0.20292 0.11991 0.35376 0.0
C101 C 0.13337 0.0404 0.35732 0.0
C102 C 0.15266 0.10491 0.37659 0.0
C103 C 0.17416 0.07298 0.34854 0.0
C104 C 0.9622 0.87064 0.37577 0.0
N105 N 0.00815 0.90884 0.37822 0.0
C106 C 0.04354 0.86247 0.368 0.0
C107 C 0.04847 0.90557 0.37453 0.0
C108 C -0.00342 0.82224 0.36526 0.0
C109 C 0.95551 0.82664 0.36929 0.0
H110 H 0.93082 0.87427 0.37891 0.0
H111 H 0.08453 0.93661 0.37668 0.0
C112 C 0.12894 0.06567 0.4307 0.0
N113 N 0.13704 0.06091 0.41522 0.0
C114 C 0.16502 0.07597 0.44173 0.0
C115 C 0.21748 0.07571 0.42073 0.0
C116 C 0.18029 0.06589 0.41002 0.0
C117 C 0.20953 0.07979 0.43687 0.0
H118 H 0.09343 0.05899 0.43459 0.0
H119 H 0.18507 0.05974 0.39773 0.0
C120 C 0.92379 0.97864 0.38426 0.0
N121 N 0.82799 0.95797 0.38741 0.0
C122 C 0.9092 0.0096 0.37778 0.0
C123 C 0.88955 0.93688 0.3922 0.0
C124 C 0.86062 -0.00142 0.37952 0.0
C125 C 0.84133 0.92717 0.39372 0.0
C126 C 0.0661 0.11697 0.41287 0.0
C127 C 0.05261 0.11466 0.42871 0.0
C128 C 0.09977 0.16215 0.40652 0.0
C129 C 0.07376 0.15736 0.43799 0.0
C130 C 0.12006 0.20405 0.41618 0.0
N131 N 0.1068 0.2008 0.43159 0.0
C132 C 0.93968 0.97576 0.43386 0.0
C133 C 0.92614 0.03219 0.41995 0.0
C134 C 0.91349 0.97876 0.44677 0.0
N135 N 0.94594 0.00275 0.42092 0.0
C136 C 0.89946 0.03613 0.43255 0.0
C137 C 0.89393 0.01011 0.44635 0.0
H138 H 0.95725 0.95395 0.43449 0.0
H139 H 0.93299 0.05428 0.40966 0.0
C140 C 0.05265 0.09493 0.3517 0.0
N141 N 0.03984 0.09682 0.36692 0.0
C142 C 0.05538 0.12926 0.34104 0.0
C143 C 0.03089 0.16601 0.36192 0.0
C144 C 0.02856 0.13103 0.37212 0.0
C145 C 0.04465 0.16556 0.34617 0.0
H146 H 0.06063 0.06677 0.34783 0.0
H147 H 0.01733 0.13084 0.38421 0.0
O148 O 0.02765 0.97412 0.41076 0.0
O149 O 0.08221 0.02538 0.37999 0.0
O150 O 0.97132 0.9891 0.38282 0.0
O151 O 0.04517 0.07558 0.40352 0.0
H152 H 0.10403 0.96081 0.41228 0.0
H153 H 0.9467 0.88895 0.41489 0.0
H154 H 0.0989 0.88081 0.41636 0.0
H155 H 0.94434 0.81016 0.41889 0.0
H156 H 0.21676 0.17386 0.37135 0.0
H157 H 0.11027 0.00311 0.35314 0.0
H158 H 0.14513 0.11773 0.38757 0.0
H159 H 0.18289 0.06098 0.33756 0.0
H160 H 0.07624 0.86116 0.3648 0.0
H161 H 0.91867 0.79644 0.36749 0.0
H162 H 0.15741 0.07922 0.45402 0.0
H163 H 0.25092 0.07751 0.41652 0.0
H164 H 0.93509 0.04183 0.37148 0.0
H165 H 0.90026 0.91267 0.39736 0.0
H166 H 0.84886 0.02232 0.37462 0.0
H167 H 0.81456 0.89521 0.39995 0.0
H168 H 0.02649 0.08021 0.43386 0.0
H169 H 0.10987 0.16508 0.39422 0.0
H170 H 0.06388 0.15596 0.45028 0.0
H171 H 0.14622 0.23919 0.41141 0.0
H172 H 0.91086 0.95871 0.45725 0.0
H173 H 0.88453 0.0603 0.43167 0.0
H174 H 0.06627 0.12773 0.329 0.0
H175 H 0.02128 0.19267 0.36627 0.0
Li176 Li 0.11395 0.04875 0.72266 0.0
Li177 Li 0.1146 0.11819 0.7376 0.0
Li178 Li 0.05325 0.03295 0.7426 0.0
Li179 Li 0.05202 0.07198 0.71745 0.0
C180 C 0.13036 0.04783 0.75932 0.0
N181 N 0.13941 0.01191 0.78762 0.0
C182 C 0.14504 0.0779 0.77279 0.0
C183 C 0.12091 -0.00031 0.7602 0.0
C184 C 0.14927 0.05902 0.787 0.0
C185 C 0.12549 0.98214 0.77463 0.0
C186 C 0.13772 0.14673 0.70348 0.0
C187 C 0.14714 0.22324 0.69482 0.0
N188 N 0.1655 0.21745 0.68088 0.0
C189 C 0.15725 0.14184 0.68914 0.0
C190 C 0.1331 0.188 0.70642 0.0
C191 C 0.17085 0.17786 0.67783 0.0
C192 C 0.1543 0.01968 0.69757 0.0
N193 N 0.15649 0.02913 0.71329 0.0
C194 C 0.22791 0.02171 0.71554 0.0
C195 C 0.19194 0.02975 0.72235 0.0
C196 C 0.22733 0.01311 0.69926 0.0
C197 C 0.18933 0.01115 0.69028 0.0
H198 H 0.12657 0.02076 0.69057 0.0
H199 H 0.19342 0.03831 0.73477 0.0
C200 C 0.14824 0.19571 0.76058 0.0
N201 N 0.15798 0.18052 0.74661 0.0
C202 C 0.18412 0.23847 0.76795 0.0
C203 C 0.23871 0.24996 0.74614 0.0
C204 C 0.20195 0.20685 0.73927 0.0
C205 C 0.23049 0.26564 0.76088 0.0
H206 H 0.11374 0.17331 0.76646 0.0
H207 H 0.20915 0.19337 0.72834 0.0
C208 C 0.03746 0.96797 0.71128 0.0
N209 N 0.02972 0.89296 0.69188 0.0
C210 C 0.02505 0.96585 0.69546 0.0
C211 C 0.0453 0.93161 0.71728 0.0
C212 C 0.02146 0.9277 0.68583 0.0
C213 C 0.04142 0.8941 0.70727 0.0
C214 C 0.02897 0.12113 0.74534 0.0
C215 C 0.01509 0.11901 0.76112 0.0
C216 C 0.02752 0.15538 0.73557 0.0
C217 C 0.00119 0.15205 0.76696 0.0
C218 C 0.01335 0.18776 0.74184 0.0
N219 N 0.00067 0.1855 0.75729 0.0
C220 C 0.01522 0.00051 0.7734 0.0
C221 C 0.97639 0.94339 0.7525 0.0
C222 C 0.98263 0.96721 0.78426 0.0
N223 N 0.01157 0.988 0.75787 0.0
C224 C 0.94294 0.9091 0.76291 0.0
C225 C 0.94566 0.92086 0.77903 0.0
H226 H 0.0431 0.03648 0.77734 0.0
H227 H 0.97369 0.93473 0.74006 0.0
C228 C 0.02195 0.08594 0.68726 0.0
N229 N 0.0092 0.07443 0.70257 0.0
C230 C 0.98847 0.08618 0.67677 0.0
C231 C 0.92914 0.06176 0.69791 0.0
C232 C 0.9638 0.06216 0.70799 0.0
C233 C 0.94134 0.07389 0.68207 0.0
H234 H 0.05766 0.094 0.6831 0.0
H235 H 0.95451 0.05258 0.72019 0.0
O236 O 0.12569 0.06556 0.74531 0.0
O237 O 0.12411 0.11168 0.71466 0.0
O238 O 0.04145 0.0052 0.72086 0.0
O239 O 0.04236 0.08878 0.73943 0.0
H240 H 0.15288 0.11533 0.7723 0.0
H241 H 0.11004 0.97612 0.74986 0.0
H242 H 0.16035 0.08181 0.79753 0.0
H243 H 0.118 0.94487 0.7755 0.0
H244 H 0.14363 0.2553 0.69694 0.0
H245 H 0.16157 0.11041 0.68672 0.0
H246 H 0.11942 0.19311 0.7176 0.0
H247 H 0.18569 0.17436 0.66664 0.0
H248 H 0.25652 0.02339 0.72287 0.0
H249 H 0.18808 0.00559 0.67765 0.0
H250 H 0.17644 0.24854 0.77946 0.0
H251 H 0.2737 0.26995 0.74019 0.0
H252 H 0.01858 0.9935 0.69064 0.0
H253 H 0.05433 0.93236 0.72952 0.0
H254 H 0.01216 0.92576 0.67354 0.0
H255 H 0.04766 0.86587 0.71174 0.0
H256 H 0.01542 0.0924 0.76882 0.0
H257 H 0.03667 0.15665 0.72323 0.0
H258 H 0.99076 0.15107 0.77918 0.0
H259 H 0.01222 0.21454 0.73441 0.0
H260 H 0.98636 0.97769 0.79659 0.0
H261 H 0.91448 0.87424 0.75829 0.0
H262 H -0.00098 0.09489 0.66457 0.0
H263 H 0.89335 0.05246 0.70251 0.0
H264 H 0.04049 0.48172 0.12589 0.0
H265 H 0.11354 0.84822 0.25606 0.0
H266 H 0.97405 0.42919 0.21266 0.0
H267 H 0.96627 0.3573 0.19855 0.0
H268 H 0.11796 0.40547 0.20838 0.0
H269 H 0.12528 0.47749 0.22259 0.0
H270 H -0.0047 0.51789 0.19009 0.0
H271 H 0.00058 0.5004 0.16216 0.0
H272 H 0.14582 0.5227 0.16955 0.0
H273 H 0.14026 0.54077 0.1974 0.0
H274 H -0.00164 0.60834 0.20891 0.0
H275 H 0.0022 0.65859 0.18691 0.0
H276 H 0.14921 0.68873 0.17625 0.0
H277 H 0.14571 0.64024 0.19876 0.0
H278 H 0.98715 0.60579 0.24506 0.0
H279 H 0.98989 0.68157 0.25378 0.0
H280 H 0.14365 0.76325 0.24151 0.0
H281 H 0.14053 0.68708 0.23302 0.0
H282 H 0.97123 0.51112 0.26144 0.0
H283 H 0.95292 0.53382 0.28733 0.0
H284 H 0.10311 0.65109 0.29112 0.0
H285 H 0.12123 0.62744 0.2654 0.0
H286 H 0.976 0.42541 0.24611 0.0
H287 H 0.97295 0.36529 0.2645 0.0
H288 H 0.12153 0.46754 0.2787 0.0
H289 H 0.12406 0.52733 0.26035 0.0
O290 O 0.03918 0.48881 0.13697 0.0
O291 O 0.11343 0.5 0.14145 0.0
O292 O 0.03237 0.774 0.25887 0.0
O293 O 0.11142 0.81772 0.25269 0.0
C294 C 0.05692 0.50609 0.22396 0.0
C295 C 0.06407 0.54113 0.21268 0.0
C296 C 0.06695 0.58559 0.21747 0.0
C297 C 0.06221 0.59478 0.23354 0.0
C298 C 0.05565 0.55973 0.24484 0.0
C299 C 0.0537 0.5157 0.24005 0.0
C300 C 0.05021 0.45831 0.21856 0.0
C301 C 0.0051 0.42331 0.21218 0.0
C302 C 0.00072 0.38229 0.20419 0.0
C303 C 0.04161 0.37606 0.20232 0.0
C304 C 0.086 0.40968 0.20959 0.0
C305 C 0.0902 0.45053 0.21775 0.0
C306 C 0.06737 0.53054 0.19573 0.0
C307 C 0.02825 0.51911 0.18562 0.0
C308 C 0.03135 0.50906 0.16969 0.0
C309 C 0.07362 0.51011 0.16362 0.0
C310 C 0.11274 0.52154 0.17384 0.0
C311 C 0.10964 0.53176 0.18975 0.0
C312 C 0.07177 0.62082 0.2054 0.0
C313 C 0.03174 0.62674 0.20202 0.0
C314 C 0.03378 0.65485 0.18931 0.0
C315 C 0.07578 0.67712 0.17969 0.0
C316 C 0.11648 0.67241 0.18348 0.0
C317 C 0.11452 0.64463 0.19628 0.0
C318 C 0.0637 0.64097 0.23849 0.0
C319 C 0.02141 0.64008 0.24432 0.0
C320 C 0.02306 0.68342 0.24926 0.0
C321 C 0.06703 0.7285 0.24836 0.0
C322 C 0.10922 0.7292 0.24238 0.0
C323 C 0.10754 0.68579 0.23749 0.0
C324 C 0.04743 0.56793 0.26155 0.0
C325 C 0.00044 0.5408 0.26809 0.0
C326 C 0.98999 0.554 0.2828 0.0
C327 C 0.02646 0.59448 0.29118 0.0
C328 C 0.07436 0.61943 0.28503 0.0
C329 C 0.08475 0.60622 0.27031 0.0
C330 C 0.05034 0.48048 0.25188 0.0
C331 C 0.00776 0.43473 0.25324 0.0
C332 C 0.00619 0.40047 0.26368 0.0
C333 C 0.04711 0.41163 0.27298 0.0
C334 C 0.08928 0.45804 0.27182 0.0
C335 C 0.09085 0.49216 0.26134 0.0
C336 C 0.07679 0.49936 0.1467 0.0
C337 C 0.06902 0.77464 0.25363 0.0
H338 H 0.61089 0.05421 0.46174 0.0
H339 H 0.31978 0.13282 0.59185 0.0
H340 H 0.599 -0.00136 0.54692 0.0
H341 H 0.66056 0.98845 0.53241 0.0
H342 H 0.7695 0.13765 0.54442 0.0
H343 H 0.70671 0.1477 0.55869 0.0
H344 H 0.53144 0.01763 0.52574 0.0
H345 H 0.55288 0.01956 0.49788 0.0
H346 H 0.67743 0.1647 0.5049 0.0
H347 H 0.65518 0.16247 0.5327 0.0
H348 H 0.44778 0.01859 0.54456 0.0
H349 H 0.3946 0.02111 0.52449 0.0
H350 H 0.50281 0.17152 0.51506 0.0
H351 H 0.5562 0.16826 0.5351 0.0
H352 H 0.44094 0.01133 0.58066 0.0
H353 H 0.36711 0.0123 0.58937 0.0
H354 H 0.4353 0.16531 0.5776 0.0
H355 H 0.50919 0.16398 0.56915 0.0
H356 H 0.52274 -0.00126 0.59682 0.0
H357 H 0.48039 0.9796 0.62222 0.0
H358 H 0.50807 0.12813 0.62644 0.0
H359 H 0.55161 0.14722 0.60127 0.0
H360 H 0.60963 0.00291 0.58193 0.0
H361 H 0.6679 0.0014 0.60035 0.0
H362 H 0.71679 0.15182 0.61378 0.0
H363 H 0.659 0.15312 0.59517 0.0
O364 O 0.60278 0.05442 0.47275 0.0
O365 O 0.6664 0.12891 0.47699 0.0
O366 O 0.31535 0.0529 0.59453 0.0
O367 O 0.34856 0.13144 0.58852 0.0
C368 C 0.60864 0.08218 0.55935 0.0
C369 C 0.57943 0.08811 0.54819 0.0
C370 C 0.53793 0.09066 0.55317 0.0
C371 C 0.52551 0.08714 0.56928 0.0
C372 C 0.5554 0.08211 0.58048 0.0
C373 C 0.59738 0.08037 0.5755 0.0
C374 C 0.64853 0.07392 0.55373 0.0
C375 C 0.63648 0.02866 0.54676 0.0
C376 C 0.67183 0.0229 0.53854 0.0
C377 C 0.71991 0.06239 0.53716 0.0
C378 C 0.73261 0.10679 0.54511 0.0
C379 C 0.69704 0.11251 0.55336 0.0
C380 C 0.59164 0.08999 0.53118 0.0
C381 C 0.56307 0.04995 0.52119 0.0
C382 C 0.57553 0.05109 0.50531 0.0
C383 C 0.6169 0.09228 0.49916 0.0
C384 C 0.64534 0.13242 0.50925 0.0
C385 C 0.63274 0.13127 0.52512 0.0
C386 C 0.5055 0.09335 0.54133 0.0
C387 C 0.45975 0.05216 0.53823 0.0
C388 C 0.42946 0.05376 0.5268 0.0
C389 C 0.44441 0.09664 0.51826 0.0
C390 C 0.49049 0.13787 0.52136 0.0
C391 C 0.52083 0.13621 0.53283 0.0
C392 C 0.48047 0.08766 0.57437 0.0
C393 C 0.43992 0.04507 0.58005 0.0
C394 C 0.39777 0.0457 0.58498 0.0
C395 C 0.39532 0.08893 0.5842 0.0
C396 C 0.43597 0.13144 0.57838 0.0
C397 C 0.47818 0.13079 0.57351 0.0
C398 C 0.53989 0.07425 0.59719 0.0
C399 C 0.52111 0.02755 0.60351 0.0
C400 C 0.49653 0.01656 0.61792 0.0
C401 C 0.4903 0.05215 0.62622 0.0
C402 C 0.51255 0.09999 0.62041 0.0
C403 C 0.53725 0.11097 0.606 0.0
C404 C 0.63044 0.0782 0.5872 0.0
C405 C 0.63291 0.03541 0.5889 0.0
C406 C 0.66594 0.03456 0.59946 0.0
C407 C 0.69706 0.07659 0.60844 0.0
C408 C 0.69378 0.11912 0.60686 0.0
C409 C 0.66064 0.11985 0.59635 0.0
C410 C 0.63033 0.09318 0.48232 0.0
C411 C 0.35061 0.0898 0.5894 0.0
H412 H 0.61584 0.64369 -0.00137 0.0
H413 H 0.33412 0.23553 0.87951 0.0
H414 H 0.59399 0.66928 0.90695 0.0
H415 H 0.65267 0.74885 0.91839 0.0
H416 H 0.7625 0.70487 0.91845 0.0
H417 H 0.70398 0.62634 0.90628 0.0
H418 H 0.53589 0.58925 0.93501 0.0
H419 H 0.55818 0.61486 0.96247 0.0
H420 H 0.68017 0.58903 0.95743 0.0
H421 H 0.65719 0.56319 0.93003 0.0
H422 H 0.45019 0.48707 0.92028 0.0
H423 H 0.40648 0.43871 0.94317 0.0
H424 H 0.52878 0.41762 0.95304 0.0
H425 H 0.57131 0.46448 0.9297 0.0
H426 H 0.43777 0.47884 0.88391 0.0
H427 H 0.36692 0.39887 0.87753 0.0
H428 H 0.44827 0.32873 0.89115 0.0
H429 H 0.51905 0.409 0.8973 0.0
H430 H 0.51394 0.57407 0.86501 0.0
H431 H 0.47216 0.54563 0.83975 0.0
H432 H 0.50687 0.42921 0.83833 0.0
H433 H 0.55032 0.45926 0.86329 0.0
H434 H 0.59571 0.65935 0.87517 0.0
H435 H 0.65223 0.71626 0.85565 0.0
H436 H 0.71797 0.62508 0.84941 0.0
H437 H 0.66066 0.56814 0.86865 0.0
O438 O 0.60768 0.63346 0.98775 0.0
O439 O 0.67003 0.61986 0.98451 0.0
O440 O 0.3214 0.30547 0.87503 0.0
O441 O 0.36158 0.26761 0.88194 0.0
C442 C 0.60677 0.59177 0.90177 0.0
C443 C 0.58131 0.55894 0.91395 0.0
C444 C 0.54167 0.51204 0.91037 0.0
C445 C 0.52681 0.49829 0.89461 0.0
C446 C 0.5528 0.53122 0.88238 0.0
C447 C 0.59344 0.57751 0.88599 0.0
C448 C 0.64494 0.64234 0.90586 0.0
C449 C 0.63123 0.67759 0.90901 0.0
C450 C 0.66463 0.72275 0.91569 0.0
C451 C 0.71207 0.73298 0.91957 0.0
C452 C 0.72647 0.69848 0.91548 0.0
C453 C 0.69311 0.65349 0.9086 0.0
C454 C 0.59504 0.57456 0.93058 0.0
C455 C 0.56738 0.58916 0.93989 0.0
C456 C 0.58022 0.60378 0.95555 0.0
C457 C 0.621 0.60405 0.96215 0.0
C458 C 0.6486 0.58932 0.95272 0.0
C459 C 0.63565 0.57464 0.93707 0.0
C460 C 0.51371 0.47902 0.92336 0.0
C461 C 0.46708 0.47126 0.92725 0.0
C462 C 0.44255 0.44422 0.94044 0.0
C463 C 0.46446 0.42485 0.95003 0.0
C464 C 0.5108 0.43177 0.94584 0.0
C465 C 0.53519 0.4586 0.93258 0.0
C466 C 0.48357 0.44967 0.89099 0.0
C467 C 0.44025 0.44615 0.88545 0.0
C468 C 0.39982 0.40044 0.88185 0.0
C469 C 0.40195 0.35738 0.88382 0.0
C470 C 0.44539 0.36112 0.88949 0.0
C471 C 0.48584 0.40689 0.89304 0.0
C472 C 0.53496 0.51859 0.86598 0.0
C473 C 0.51376 0.54333 0.85899 0.0
C474 C 0.48944 0.52669 0.84466 0.0
C475 C 0.48565 0.4848 0.83713 0.0
C476 C 0.50947 0.46183 0.84374 0.0
C477 C 0.53407 0.47872 0.85804 0.0
C478 C 0.62434 0.60986 0.87328 0.0
C479 C 0.62209 0.65162 0.86945 0.0
C480 C 0.65456 0.68414 0.85838 0.0
C481 C 0.6898 0.67534 0.85103 0.0
C482 C 0.69093 0.63265 0.85468 0.0
C483 C 0.65839 0.60018 0.8657 0.0
C484 C 0.63453 0.61957 0.97879 0.0
C485 C 0.35914 0.30872 0.87998 0.0
H486 H 0.95322 0.11785 0.14287 0.0
H487 H 0.10692 0.38853 0.17913 0.0
H488 H 0.06057 0.24234 0.11696 0.0
H489 H 0.9704 0.27937 0.19953 0.0
H490 H 0.09768 0.3302 0.15826 0.0
H491 H 0.96468 0.17244 0.16548 0.0
C492 C 0.97894 0.15668 0.14194 0.0
C493 C 0.00566 0.17581 0.12803 0.0
C494 C 0.06991 0.31884 0.16737 0.0
C495 C 0.01954 0.23787 0.15375 0.0
C496 C 0.07548 0.35189 0.17939 0.0
C497 C 0.0394 0.33861 0.19107 0.0
C498 C 0.02806 0.2721 0.16706 0.0
C499 C -0.00113 0.29099 0.19066 0.0
C500 C 0.98546 0.18769 0.1548 0.0
C501 C 0.03863 0.22627 0.12739 0.0
N502 N 0.99418 0.25935 0.17879 0.0
N503 N 0.04483 0.2555 0.1401 0.0
H504 H 0.83281 0.94223 0.4677 0.0
H505 H 0.7824 0.13116 0.5165 0.0
H506 H 0.90318 0.09634 0.4576 0.0
H507 H 0.73474 0.98451 0.53188 0.0
H508 H 0.82909 0.11994 0.49536 0.0
H509 H 0.79708 0.95702 0.49142 0.0
C510 C 0.84089 0.97919 0.47049 0.0
C511 C 0.87075 0.01803 0.46057 0.0
C512 C 0.8089 0.09039 0.50347 0.0
C513 C 0.82977 0.03515 0.48764 0.0
C514 C 0.7826 0.09695 0.51566 0.0
C515 C 0.75439 0.05861 0.52596 0.0
C516 C 0.80666 0.04502 0.50145 0.0
C517 C 0.75533 0.01475 0.52406 0.0
C518 C 0.82047 0.9876 0.48403 0.0
C519 C 0.87954 0.06509 0.4647 0.0
N520 N 0.7806 0.00896 0.51193 0.0
N521 N 0.859 0.07228 0.47789 0.0
H522 H 0.90155 0.93955 0.8042 0.0
H523 H 0.72501 0.65708 0.82354 0.0
H524 H 0.90619 0.82118 0.77921 0.0
H525 H 0.73844 0.77551 0.85352 0.0
H526 H 0.78823 0.71683 0.8063 0.0
H527 H 0.8393 0.88013 0.82177 0.0
C528 C 0.88986 0.90114 0.80249 0.0
C529 C 0.90916 0.88539 0.79018 0.0
C530 C 0.77732 0.72974 0.81665 0.0
C531 C 0.83718 0.81708 0.81008 0.0
C532 C 0.74132 0.69564 0.82653 0.0
C533 C 0.72642 0.71126 0.84003 0.0
C534 C 0.79853 0.77991 0.82025 0.0
C535 C 0.74826 0.76178 0.84313 0.0
C536 C 0.85404 0.8672 0.81246 0.0
C537 C 0.89186 0.83499 0.78837 0.0
N538 N 0.78325 0.79429 0.83333 0.0
N539 N 0.85678 0.80266 0.79818 0.0
H540 H 0.15697 0.88716 0.10555 0.0
H541 H 0.00148 0.65283 0.15879 0.0
H542 H -0.00098 0.80137 0.10493 0.0
H543 H 0.15193 0.76217 0.16811 0.0
H544 H 0.00253 0.69881 0.13596 0.0
H545 H 0.15822 0.83254 0.12519 0.0
C546 C 0.12257 0.85664 0.10945 0.0
C547 C 0.07778 0.84925 0.10373 0.0
C548 C 0.03533 0.7126 0.14299 0.0
C549 C 0.07905 0.78649 0.12609 0.0
C550 C 0.03468 0.68662 0.15609 0.0
C551 C 0.07652 0.70399 0.16552 0.0
C552 C 0.07819 0.75612 0.13919 0.0
C553 C 0.11892 0.74724 0.16116 0.0
C554 C 0.12335 0.82548 0.12064 0.0
C555 C 0.03442 0.8084 0.10893 0.0
N556 N 0.1186 0.77194 0.14834 0.0
N557 N 0.03612 0.77878 0.11992 0.0
H558 H 0.18986 0.03284 0.46482 0.0
H559 H 0.4688 0.13772 0.48899 0.0
H560 H 0.31041 0.13469 0.43599 0.0
H561 H 0.34546 0.05868 0.52011 0.0
H562 H 0.41278 0.1359 0.46897 0.0
H563 H 0.24763 0.0398 0.48462 0.0
C564 C 0.22856 0.0572 0.46272 0.0
C565 C 0.24524 0.08384 0.4488 0.0
C566 C 0.39812 0.11914 0.48021 0.0
C567 C 0.31201 0.09119 0.47143 0.0
C568 C 0.43004 0.12036 0.49166 0.0
C569 C 0.4117 0.09798 0.5062 0.0
C570 C 0.34761 0.09525 0.48335 0.0
C571 C 0.36113 0.07555 0.50897 0.0
C572 C 0.26162 0.06092 0.47403 0.0
C573 C 0.29597 0.11346 0.44654 0.0
N574 N 0.33092 0.07462 0.49764 0.0
N575 N 0.32767 0.1164 0.45777 0.0
H576 H 0.22756 0.3366 0.77951 0.0
H577 H 0.50097 0.44242 0.81067 0.0
H578 H 0.3264 0.2886 0.76217 0.0
H579 H 0.39555 0.47497 0.83236 0.0
H580 H 0.44192 0.39648 0.78987 0.0
H581 H 0.29328 0.39804 0.79606 0.0
C582 C 0.26313 0.33918 0.77909 0.0
C583 C 0.27127 0.30706 0.76952 0.0
C584 C 0.43196 0.41417 0.7991 0.0
C585 C 0.34669 0.37742 0.78836 0.0
C586 C 0.46559 0.44025 0.81099 0.0
C587 C 0.4531 0.46228 0.82335 0.0
C588 C 0.38543 0.40993 0.79959 0.0
C589 C 0.40701 0.45899 0.82301 0.0
C590 C 0.30068 0.37438 0.78849 0.0
C591 C 0.31842 0.31276 0.76924 0.0
N592 N 0.37471 0.43291 0.81141 0.0
N593 N 0.35416 0.34691 0.77862 0.0
H594 H 0.84382 0.00588 0.67971 0.0
H595 H 0.79279 0.14759 0.6124 0.0
H596 H 0.95593 0.14059 0.65955 0.0
H597 H 0.68428 0.00526 0.62891 0.0
H598 H 0.85237 0.14701 0.63027 0.0
H599 H 0.7841 0.00628 0.66183 0.0
C600 C 0.85582 0.03566 0.67156 0.0
C601 C 0.90491 0.07333 0.67113 0.0
C602 C 0.81555 0.11587 0.62999 0.0
C603 C 0.83684 0.07384 0.65057 0.0
C604 C 0.78145 0.11632 0.61986 0.0
C605 C 0.73348 0.07646 0.61921 0.0
C606 C 0.80158 0.07535 0.6396 0.0
C607 C 0.721 0.03655 0.62895 0.0
C608 C 0.82178 0.03571 0.6613 0.0
C609 C 0.91857 0.11059 0.66017 0.0
N610 N 0.75481 0.03707 0.63878 0.0
N611 N 0.88468 0.10998 0.65036 0.0
H612 H 0.82533 0.93894 -0.0027 0.0
H613 H 0.81221 0.79229 0.91782 0.0
H614 H 0.94826 0.93146 0.97733 0.0
H615 H 0.6854 0.77255 0.94407 0.0
H616 H 0.86467 0.85665 0.93662 0.0
H617 H 0.77565 0.89095 0.97487 0.0
C618 C 0.84197 0.92746 0.98818 0.0
C619 C 0.89093 0.93884 0.98932 0.0
C620 C 0.8253 0.83857 0.93811 0.0
C621 C 0.83446 0.88442 0.96354 0.0
C622 C 0.79536 0.80174 0.92743 0.0
C623 C 0.7443 0.77664 0.92941 0.0
C624 C 0.80402 0.85039 0.95085 0.0
C625 C 0.72448 0.79114 0.94193 0.0
C626 C 0.81366 0.90029 0.97534 0.0
C627 C 0.91083 0.92392 0.97694 0.0
N628 N 0.75438 0.82674 0.95223 0.0
N629 N 0.88241 0.89715 0.96464 0.0
H630 H 0.92997 0.76481 0.34275 0.0
H631 H 0.07724 0.62973 0.31882 0.0
H632 H 0.05067 0.77722 0.36974 0.0
H633 H 0.94694 0.60624 0.29515 0.0
H634 H 0.06202 0.67536 0.33965 0.0
H635 H 0.92865 0.69788 0.32748 0.0
C636 C 0.95564 0.75291 0.34568 0.0
C637 C 0.99102 0.77727 0.35739 0.0
C638 C 0.0363 0.65951 0.33003 0.0
C639 C 0.9904 0.70121 0.33968 0.0
C640 C 0.04507 0.6336 0.31814 0.0
C641 C 0.01357 0.61457 0.30518 0.0
C642 C -0.00392 0.66692 0.32884 0.0
C643 C 0.97206 0.62005 0.30496 0.0
C644 C 0.95506 0.7148 0.33687 0.0
C645 C 0.0236 0.76038 0.36053 0.0
N646 N 0.96491 0.64632 0.31649 0.0
N647 N 0.02294 0.72385 0.35159 0.0
H648 H 0.32542 0.07109 0.7048 0.0
H649 H 0.4006 0.96992 0.62889 0.0
H650 H 0.22269 0.95033 0.67564 0.0
H651 H 0.5003 0.10299 0.65392 0.0
H652 H 0.3388 0.95283 0.6491 0.0
H653 H 0.39278 0.07367 0.68946 0.0
C654 C 0.31705 0.04448 0.69536 0.0
C655 C 0.26834 0.01068 0.69139 0.0
C656 C 0.37439 0.98545 0.6503 0.0
C657 C 0.34524 0.01394 0.67366 0.0
C658 C 0.40993 0.99504 0.63883 0.0
C659 C 0.45568 0.03813 0.63967 0.0
C660 C 0.38449 0.01926 0.6627 0.0
C661 C 0.46527 0.06972 0.6527 0.0
C662 C 0.35554 0.04622 0.68654 0.0
C663 C 0.25968 0.97748 0.67892 0.0
N664 N 0.42979 0.05987 0.66364 0.0
N665 N 0.29775 0.9802 0.67042 0.0
H666 H 0.32922 0.20819 0.02231 0.0
H667 H 0.41237 0.44703 0.97139 0.0
H668 H 0.25433 0.29141 0.02272 0.0
H669 H 0.45919 0.34176 0.96153 0.0
H670 H 0.36598 0.39922 0.994 0.0
H671 H 0.38921 0.26632 0.00385 0.0
C672 C 0.32557 0.23884 0.01864 0.0
C673 C 0.28624 0.2445 0.02394 0.0
C674 C 0.38664 0.38676 0.98693 0.0
C675 C 0.355 0.31128 0.00299 0.0
C676 C 0.41285 0.41382 0.97397 0.0
C677 C 0.43904 0.39792 0.9644 0.0
C678 C 0.38674 0.34357 0.99042 0.0
C679 C 0.43957 0.35542 0.96859 0.0
C680 C 0.3599 0.27203 0.00815 0.0
C681 C 0.28411 0.28561 0.01907 0.0
N682 N 0.41346 0.32948 0.98124 0.0
N683 N 0.31775 0.31718 0.00877 0.0
H684 H 0.08196 0.26356 0.35175 0.0
H685 H 0.01056 0.31378 0.26707 0.0
H686 H 0.013 0.15182 0.31563 0.0
H687 H 0.08214 0.42549 0.30304 0.0
H688 H 0.01077 0.25373 0.28466 0.0
H689 H 0.08263 0.32343 0.33396 0.0
C690 C 0.06684 0.2516 0.34008 0.0
C691 C 0.04717 0.20256 0.33519 0.0
C692 C 0.02643 0.29138 0.28871 0.0
C693 C 0.04811 0.27102 0.3147 0.0
C694 C 0.02601 0.32559 0.27872 0.0
C695 C 0.04628 0.37469 0.28362 0.0
C696 C 0.04718 0.30632 0.30373 0.0
C697 C 0.06658 0.38813 0.29873 0.0
C698 C 0.06743 0.28585 0.3299 0.0
C699 C 0.02889 0.18932 0.31983 0.0
N700 N 0.06644 0.35412 0.30825 0.0
N701 N 0.02962 0.22333 0.31015 0.0
loop_
_geom_bond_atom_site_label_1
_geom_bond_atom_site_label_2
_geom_bond_distance
_geom_bond_site_symmetry_2
_ccdc_geom_bond_type
Li0 N17 1.990 . S
Li0 O60 1.956 . S
Li0 O61 1.970 . S
Li0 O62 1.961 . S
Li1 N25 1.990 . S
Li1 O60 1.970 . S
Li1 O61 1.956 . S
Li1 O63 1.961 . S
Li2 N47 1.990 1_545 S
Li2 O60 1.961 . S
Li2 O62 1.956 . S
Li2 O63 1.970 . S
Li3 N53 1.990 1_445 S
Li3 O61 1.961 . S
Li3 O62 1.970 . S
Li3 O63 1.956 . S
C4 C6 1.348 . S
C4 C7 1.356 . S
C4 O60 1.325 . S
N5 C8 1.314 . S
N5 C9 1.279 . S
C6 C4 1.348 . S
C6 C8 1.353 . S
C6 H64 0.929 . S
C7 C4 1.356 . S
C7 C9 1.358 . S
C7 H65 0.930 . S
C8 N5 1.314 . S
C8 C6 1.353 . S
C8 H66 0.930 . S
C9 N5 1.279 . S
C9 C7 1.358 . S
C9 H67 0.930 . S
C10 C13 1.348 . S
C10 C14 1.356 1_455 S
C10 O61 1.325 . S
C11 N12 1.279 1_655 S
C11 C14 1.358 . S
C11 H68 0.930 . S
N12 C11 1.279 1_455 S
N12 C15 1.314 . S
C13 C10 1.348 . S
C13 C15 1.353 . S
C13 H69 0.929 . S
C14 C10 1.356 1_655 S
C14 C11 1.358 . S
C14 H70 0.930 . S
C15 N12 1.314 . S
C15 C13 1.353 . S
C15 H71 0.930 . S
C16 N17 1.314 . S
C16 C21 1.353 . S
C16 H22 0.930 . S
N17 Li0 1.990 . S
N17 C16 1.314 . S
N17 C19 1.279 . S
C18 C19 1.358 . S
C18 C20 1.356 . S
C18 H72 0.930 . S
C19 N17 1.279 . S
C19 C18 1.358 . S
C19 H23 0.930 . S
C20 C18 1.356 . S
C20 C21 1.348 . S
C21 C16 1.353 . S
C21 C20 1.348 . S
C21 H73 0.929 . S
H22 C16 0.930 . S
H23 C19 0.930 . S
C24 N25 1.314 . S
C24 C26 1.353 . S
C24 H30 0.930 . S
N25 Li1 1.990 . S
N25 C24 1.314 . S
N25 C28 1.279 . S
C26 C24 1.353 . S
C26 C29 1.348 . S
C26 H74 0.929 1_455 S
C27 C28 1.358 . S
C27 C29 1.356 . S
C27 H75 0.930 . S
C28 N25 1.279 . S
C28 C27 1.358 . S
C28 H31 0.930 . S
C29 C26 1.348 . S
C29 C27 1.356 . S
H30 C24 0.930 . S
H31 C28 0.930 . S
C32 C34 1.348 . S
C32 C35 1.356 . S
C32 O62 1.325 1_565 S
N33 C36 1.314 . S
N33 C37 1.279 . S
C34 C32 1.348 . S
C34 C36 1.353 . S
C34 H76 0.929 . S
C35 C32 1.356 . S
C35 C37 1.358 . S
C35 H77 0.930 1_565 S
C36 N33 1.314 . S
C36 C34 1.353 . S
C36 H78 0.930 . S
C37 N33 1.279 . S
C37 C35 1.358 . S
C37 H79 0.930 . S
C38 C39 1.348 . S
C38 C40 1.356 . S
C38 O63 1.325 1_665 S
C39 C38 1.348 . S
C39 C41 1.353 . S
C39 H80 0.929 . S
C40 C38 1.356 . S
C40 C42 1.358 . S
C40 H81 0.930 1_565 S
C41 C39 1.353 . S
C41 N43 1.314 . S
C41 H82 0.930 . S
C42 C40 1.358 . S
C42 N43 1.279 . S
C42 H83 0.930 . S
N43 C41 1.314 . S
N43 C42 1.279 . S
C44 C46 1.353 . S
C44 N47 1.314 . S
C44 H50 0.930 1_565 S
C45 N47 1.279 . S
C45 C48 1.358 . S
C45 H51 0.930 . S
C46 C44 1.353 . S
C46 C49 1.348 . S
C46 H84 0.929 . S
N47 Li2 1.990 1_565 S
N47 C44 1.314 . S
N47 C45 1.279 . S
C48 C45 1.358 . S
C48 C49 1.356 . S
C48 H85 0.930 . S
C49 C46 1.348 . S
C49 C48 1.356 . S
H50 C44 0.930 1_545 S
H51 C45 0.930 . S
C52 N53 1.314 . S
C52 C54 1.353 . S
C52 H58 0.930 1_565 S
N53 Li3 1.990 1_665 S
N53 C52 1.314 . S
N53 C56 1.279 . S
C54 C52 1.353 . S
C54 C57 1.348 . S
C54 H86 0.929 . S
C55 C56 1.358 . S
C55 C57 1.356 . S
C55 H87 0.930 . S
C56 N53 1.279 . S
C56 C55 1.358 . S
C56 H59 0.930 . S
C57 C54 1.348 . S
C57 C55 1.356 . S
H58 C52 0.930 1_545 S
H59 C56 0.930 . S
O60 Li0 1.956 . S
O60 Li1 1.970 . S
O60 Li2 1.961 . S
O60 C4 1.325 . S
O61 Li0 1.970 . S
O61 Li1 1.956 . S
O61 Li3 1.961 . S
O61 C10 1.325 . S
O62 Li0 1.961 . S
O62 Li2 1.956 . S
O62 Li3 1.970 . S
O62 C32 1.325 1_545 S
O63 Li1 1.961 . S
O63 Li2 1.970 . S
O63 Li3 1.956 . S
O63 C38 1.325 1_445 S
H64 C6 0.929 . S
H65 C7 0.930 . S
H66 C8 0.930 . S
H67 C9 0.930 . S
H68 C11 0.930 . S
H69 C13 0.929 . S
H70 C14 0.930 . S
H71 C15 0.930 . S
H72 C18 0.930 . S
H73 C21 0.929 . S
H74 C26 0.929 1_655 S
H75 C27 0.930 . S
H76 C34 0.929 . S
H77 C35 0.930 1_545 S
H78 C36 0.930 . S
H79 C37 0.930 . S
H80 C39 0.929 . S
H81 C40 0.930 1_545 S
H82 C41 0.930 . S
H83 C42 0.930 . S
H84 C46 0.929 . S
H85 C48 0.930 . S
H86 C54 0.929 . S
H87 C55 0.930 . S
Li88 N105 1.990 . S
Li88 O148 1.956 . S
Li88 O149 1.970 1_565 S
Li88 O150 1.961 1_465 S
Li89 N113 1.990 . S
Li89 O148 1.970 1_545 S
Li89 O149 1.956 . S
Li89 O151 1.961 . S
Li90 N135 1.981 1_445 S
Li90 O148 1.971 1_545 S
Li90 O150 1.956 1_455 S
Li90 O151 1.976 . S
Li91 N141 1.990 . S
Li91 O149 1.961 . S
Li91 O150 1.970 1_455 S
Li91 O151 1.956 . S
C92 C94 1.348 . S
C92 C95 1.356 1_455 S
C92 O148 1.325 . S
N93 C96 1.314 . S
N93 C97 1.279 1_455 S
C94 C92 1.348 . S
C94 C96 1.353 . S
C94 H152 0.929 . S
C95 C92 1.356 1_655 S
C95 C97 1.358 . S
C95 H153 0.930 . S
C96 N93 1.314 . S
C96 C94 1.353 . S
C96 H154 0.930 . S
C97 N93 1.279 1_655 S
C97 C95 1.358 . S
C97 H155 0.930 . S
C98 C101 1.348 . S
C98 C102 1.356 . S
C98 O149 1.325 . S
C99 N100 1.279 . S
C99 C102 1.358 . S
C99 H156 0.930 . S
N100 C99 1.279 . S
N100 C103 1.314 . S
C101 C98 1.348 . S
C101 C103 1.353 . S
C101 H157 0.929 1_545 S
C102 C98 1.356 . S
C102 C99 1.358 . S
C102 H158 0.930 . S
C103 N100 1.314 . S
C103 C101 1.353 . S
C103 H159 0.930 1_545 S
C104 N105 1.314 . S
C104 C109 1.353 1_455 S
C104 H110 0.930 . S
N105 Li88 1.990 . S
N105 C104 1.314 . S
N105 C107 1.279 . S
C106 C107 1.358 . S
C106 C108 1.356 1_455 S
C106 H160 0.930 . S
C107 N105 1.279 . S
C107 C106 1.358 . S
C107 H111 0.930 . S
C108 C106 1.356 1_655 S
C108 C109 1.348 . S
C109 C104 1.353 1_655 S
C109 C108 1.348 . S
C109 H161 0.929 . S
H110 C104 0.930 . S
H111 C107 0.930 . S
C112 N113 1.314 . S
C112 C114 1.353 . S
C112 H118 0.930 . S
N113 Li89 1.990 . S
N113 C112 1.314 . S
N113 C116 1.279 . S
C114 C112 1.353 . S
C114 C117 1.348 . S
C114 H162 0.929 . S
C115 C116 1.358 . S
C115 C117 1.356 . S
C115 H163 0.930 . S
C116 N113 1.279 . S
C116 C115 1.358 . S
C116 H119 0.930 . S
C117 C114 1.348 . S
C117 C115 1.356 . S
H118 C112 0.930 . S
H119 C116 0.930 . S
C120 C122 1.348 1_565 S
C120 C123 1.356 . S
C120 O150 1.325 1_565 S
N121 C124 1.314 1_565 S
N121 C125 1.279 . S
C122 C120 1.348 1_545 S
C122 C124 1.353 . S
C122 H164 0.929 . S
C123 C120 1.356 . S
C123 C125 1.358 . S
C123 H165 0.930 . S
C124 N121 1.314 1_545 S
C124 C122 1.353 . S
C124 H166 0.930 . S
C125 N121 1.279 . S
C125 C123 1.358 . S
C125 H167 0.930 . S
C126 C127 1.348 . S
C126 C128 1.356 . S
C126 O151 1.325 . S
C127 C126 1.348 . S
C127 C129 1.353 . S
C127 H168 0.929 . S
C128 C126 1.356 . S
C128 C130 1.358 . S
C128 H169 0.930 . S
C129 C127 1.353 . S
C129 N131 1.314 . S
C129 H170 0.930 . S
C130 C128 1.358 . S
C130 N131 1.279 . S
C130 H171 0.930 . S
N131 C129 1.314 . S
N131 C130 1.279 . S
C132 C134 1.353 . S
C132 N135 1.314 . S
C132 H138 0.930 . S
C133 N135 1.279 . S
C133 C136 1.358 . S
C133 H139 0.930 . S
C134 C132 1.353 . S
C134 C137 1.348 . S
C134 H172 0.929 . S
N135 Li90 1.981 1_665 S
N135 C132 1.314 . S
N135 C133 1.279 . S
C136 C133 1.358 . S
C136 C137 1.356 . S
C136 H173 0.930 . S
C137 C134 1.348 . S
C137 C136 1.356 . S
H138 C132 0.930 . S
H139 C133 0.930 . S
C140 N141 1.314 . S
C140 C142 1.353 . S
C140 H146 0.930 . S
N141 Li91 1.990 . S
N141 C140 1.314 . S
N141 C144 1.279 . S
C142 C140 1.353 . S
C142 C145 1.348 . S
C142 H174 0.929 . S
C143 C144 1.358 . S
C143 C145 1.356 . S
C143 H175 0.930 . S
C144 N141 1.279 . S
C144 C143 1.358 . S
C144 H147 0.930 . S
C145 C142 1.348 . S
C145 C143 1.356 . S
H146 C140 0.930 . S
H147 C144 0.930 . S
O148 Li88 1.956 . S
O148 Li89 1.970 1_565 S
O148 Li90 1.971 1_565 S
O148 C92 1.325 . S
O149 Li88 1.970 1_545 S
O149 Li89 1.956 . S
O149 Li91 1.961 . S
O149 C98 1.325 . S
O150 Li88 1.961 1_645 S
O150 Li90 1.956 1_655 S
O150 Li91 1.970 1_655 S
O150 C120 1.325 1_545 S
O151 Li89 1.961 . S
O151 Li90 1.976 . S
O151 Li91 1.956 . S
O151 C126 1.325 . S
H152 C94 0.929 . S
H153 C95 0.930 . S
H154 C96 0.930 . S
H155 C97 0.930 . S
H156 C99 0.930 . S
H157 C101 0.929 1_565 S
H158 C102 0.930 . S
H159 C103 0.930 1_565 S
H160 C106 0.930 . S
H161 C109 0.929 . S
H162 C114 0.929 . S
H163 C115 0.930 . S
H164 C122 0.929 . S
H165 C123 0.930 . S
H166 C124 0.930 . S
H167 C125 0.930 . S
H168 C127 0.929 . S
H169 C128 0.930 . S
H170 C129 0.930 . S
H171 C130 0.930 . S
H172 C134 0.929 . S
H173 C136 0.930 . S
H174 C142 0.929 . S
H175 C143 0.930 . S
Li176 N193 1.990 . S
Li176 O236 1.956 . S
Li176 O237 1.970 . S
Li176 O238 1.961 . S
Li177 N201 1.990 . S
Li177 O236 1.970 . S
Li177 O237 1.956 . S
Li177 O239 1.961 . S
Li178 N223 1.990 1_545 S
Li178 O236 1.961 . S
Li178 O238 1.956 . S
Li178 O239 1.970 . S
Li179 N229 1.990 . S
Li179 O237 1.961 . S
Li179 O238 1.970 . S
Li179 O239 1.956 . S
C180 C182 1.348 . S
C180 C183 1.356 . S
C180 O236 1.325 . S
N181 C184 1.314 . S
N181 C185 1.279 . S
C182 C180 1.348 . S
C182 C184 1.353 . S
C182 H240 0.929 . S
C183 C180 1.356 . S
C183 C185 1.358 . S
C183 H241 0.930 1_545 S
C184 N181 1.314 . S
C184 C182 1.353 . S
C184 H242 0.930 . S
C185 N181 1.279 . S
C185 C183 1.358 . S
C185 H243 0.930 1_545 S
C186 C189 1.348 . S
C186 C190 1.356 . S
C186 O237 1.325 . S
C187 N188 1.279 . S
C187 C190 1.358 . S
C187 H244 0.930 . S
N188 C187 1.279 . S
N188 C191 1.314 . S
C189 C186 1.348 . S
C189 C191 1.353 . S
C189 H245 0.929 . S
C190 C186 1.356 . S
C190 C187 1.358 . S
C190 H246 0.930 . S
C191 N188 1.314 . S
C191 C189 1.353 . S
C191 H247 0.930 . S
C192 N193 1.314 . S
C192 C197 1.353 . S
C192 H198 0.930 . S
N193 Li176 1.990 . S
N193 C192 1.314 . S
N193 C195 1.279 . S
C194 C195 1.358 . S
C194 C196 1.356 . S
C194 H248 0.930 . S
C195 N193 1.279 . S
C195 C194 1.358 . S
C195 H199 0.930 . S
C196 C194 1.356 . S
C196 C197 1.348 . S
C197 C192 1.353 . S
C197 C196 1.348 . S
C197 H249 0.929 . S
H198 C192 0.930 . S
H199 C195 0.930 . S
C200 N201 1.314 . S
C200 C202 1.353 . S
C200 H206 0.930 . S
N201 Li177 1.990 . S
N201 C200 1.314 . S
N201 C204 1.279 . S
C202 C200 1.353 . S
C202 C205 1.348 . S
C202 H250 0.929 . S
C203 C204 1.358 . S
C203 C205 1.356 . S
C203 H251 0.930 . S
C204 N201 1.279 . S
C204 C203 1.358 . S
C204 H207 0.930 . S
C205 C202 1.348 . S
C205 C203 1.356 . S
H206 C200 0.930 . S
H207 C204 0.930 . S
C208 C210 1.348 . S
C208 C211 1.356 . S
C208 O238 1.325 1_565 S
N209 C212 1.314 . S
N209 C213 1.279 1_655 S
C210 C208 1.348 . S
C210 C212 1.353 1_455 S
C210 H252 0.929 1_465 S
C211 C208 1.356 . S
C211 C213 1.358 . S
C211 H253 0.930 . S
C212 N209 1.314 . S
C212 C210 1.353 1_655 S
C212 H254 0.930 . S
C213 N209 1.279 1_455 S
C213 C211 1.358 . S
C213 H255 0.930 . S
C214 C215 1.348 . S
C214 C216 1.356 . S
C214 O239 1.325 . S
C215 C214 1.348 . S
C215 C217 1.353 1_455 S
C215 H256 0.929 1_455 S
C216 C214 1.356 . S
C216 C218 1.358 . S
C216 H257 0.930 . S
C217 C215 1.353 1_655 S
C217 N219 1.314 . S
C217 H258 0.930 . S
C218 C216 1.358 . S
C218 N219 1.279 1_455 S
C218 H259 0.930 . S
N219 C217 1.314 . S
N219 C218 1.279 1_655 S
C220 C222 1.353 . S
C220 N223 1.314 . S
C220 H226 0.930 1_565 S
C221 N223 1.279 1_655 S
C221 C224 1.358 . S
C221 H227 0.930 . S
C222 C220 1.353 . S
C222 C225 1.348 1_455 S
C222 H260 0.929 . S
N223 Li178 1.990 1_565 S
N223 C220 1.314 . S
N223 C221 1.279 1_455 S
C224 C221 1.358 . S
C224 C225 1.356 . S
C224 H261 0.930 . S
C225 C222 1.348 1_655 S
C225 C224 1.356 . S
H226 C220 0.930 1_545 S
H227 C221 0.930 . S
C228 N229 1.314 . S
C228 C230 1.353 . S
C228 H234 0.930 . S
N229 Li179 1.990 . S
N229 C228 1.314 . S
N229 C232 1.279 1_455 S
C230 C228 1.353 . S
C230 C233 1.348 1_455 S
C230 H262 0.929 . S
C231 C232 1.358 . S
C231 C233 1.356 . S
C231 H263 0.930 . S
C232 N229 1.279 1_655 S
C232 C231 1.358 . S
C232 H235 0.930 . S
C233 C230 1.348 1_655 S
C233 C231 1.356 . S
H234 C228 0.930 . S
H235 C232 0.930 . S
O236 Li176 1.956 . S
O236 Li177 1.970 . S
O236 Li178 1.961 . S
O236 C180 1.325 . S
O237 Li176 1.970 . S
O237 Li177 1.956 . S
O237 Li179 1.961 . S
O237 C186 1.325 . S
O238 Li176 1.961 . S
O238 Li178 1.956 . S
O238 Li179 1.970 . S
O238 C208 1.325 1_545 S
O239 Li177 1.961 . S
O239 Li178 1.970 . S
O239 Li179 1.956 . S
O239 C214 1.325 . S
H240 C182 0.929 . S
H241 C183 0.930 1_565 S
H242 C184 0.930 . S
H243 C185 0.930 1_565 S
H244 C187 0.930 . S
H245 C189 0.929 . S
H246 C190 0.930 . S
H247 C191 0.930 . S
H248 C194 0.930 . S
H249 C197 0.929 . S
H250 C202 0.929 . S
H251 C203 0.930 . S
H252 C210 0.929 1_645 S
H253 C211 0.930 . S
H254 C212 0.930 . S
H255 C213 0.930 . S
H256 C215 0.929 1_655 S
H257 C216 0.930 . S
H258 C217 0.930 . S
H259 C218 0.930 . S
H260 C222 0.929 . S
H261 C224 0.930 . S
H262 C230 0.929 . S
H263 C231 0.930 . S
H264 O290 0.856 . S
H265 O293 0.854 . S
H266 C301 0.930 1_655 S
H267 C302 0.913 1_655 S
H268 C304 0.930 . S
H269 C305 0.930 . S
H270 C307 0.931 . S
H271 C308 0.930 . S
H272 C310 0.930 . S
H273 C311 0.929 . S
H274 C313 0.913 1_655 S
H275 C314 0.931 . S
H276 C316 0.930 . S
H277 C317 0.929 . S
H278 C319 0.931 1_655 S
H279 C320 0.930 1_655 S
H280 C322 0.930 . S
H281 C323 0.932 . S
H282 C325 0.930 1_655 S
H283 C326 0.945 . S
H284 C328 0.931 . S
H285 C329 0.930 . S
H286 C331 0.929 1_655 S
H287 C332 0.931 1_655 S
H288 C334 0.930 . S
H289 C335 0.929 . S
O290 H264 0.856 . S
O290 C336 1.300 . S
O291 C336 1.209 . S
O292 C337 1.199 . S
O293 H265 0.854 . S
O293 C337 1.297 . S
C294 C295 1.404 . S
C294 C299 1.397 . S
C294 C300 1.492 . S
C295 C294 1.404 . S
C295 C296 1.396 . S
C295 C306 1.492 . S
C296 C295 1.396 . S
C296 C297 1.397 . S
C296 C312 1.509 . S
C297 C296 1.397 . S
C297 C298 1.412 . S
C297 C318 1.485 . S
C298 C297 1.412 . S
C298 C299 1.388 . S
C298 C324 1.490 . S
C299 C294 1.397 . S
C299 C298 1.388 . S
C299 C330 1.519 . S
C300 C294 1.492 . S
C300 C301 1.363 . S
C300 C305 1.390 . S
C301 H266 0.930 1_455 S
C301 C300 1.363 . S
C301 C302 1.363 . S
C302 H267 0.913 1_455 S
C302 C301 1.363 . S
C302 C303 1.410 . S
C303 C302 1.410 . S
C303 C304 1.395 . S
C304 H268 0.930 . S
C304 C303 1.395 . S
C304 C305 1.362 . S
C305 H269 0.930 . S
C305 C300 1.390 . S
C305 C304 1.362 . S
C306 C295 1.492 . S
C306 C307 1.377 . S
C306 C311 1.397 . S
C307 H270 0.931 . S
C307 C306 1.377 . S
C307 C308 1.376 . S
C308 H271 0.930 . S
C308 C307 1.376 . S
C308 C309 1.376 . S
C309 C308 1.376 . S
C309 C310 1.378 . S
C309 C336 1.486 . S
C310 H272 0.930 . S
C310 C309 1.378 . S
C310 C311 1.376 . S
C311 H273 0.929 . S
C311 C306 1.397 . S
C311 C310 1.376 . S
C312 C296 1.509 . S
C312 C313 1.391 . S
C312 C317 1.386 . S
C313 H274 0.913 1_455 S
C313 C312 1.391 . S
C313 C314 1.375 . S
C314 H275 0.931 . S
C314 C313 1.375 . S
C314 C315 1.375 . S
C315 C314 1.375 . S
C315 C316 1.361 . S
C316 H276 0.930 . S
C316 C315 1.361 . S
C316 C317 1.399 . S
C317 H277 0.929 . S
C317 C312 1.386 . S
C317 C316 1.399 . S
C318 C297 1.485 . S
C318 C319 1.394 . S
C318 C323 1.360 . S
C319 H278 0.931 1_455 S
C319 C318 1.394 . S
C319 C320 1.372 . S
C320 H279 0.930 1_455 S
C320 C319 1.372 . S
C320 C321 1.397 . S
C321 C320 1.397 . S
C321 C322 1.390 . S
C321 C337 1.476 . S
C322 H280 0.930 . S
C322 C321 1.390 . S
C322 C323 1.366 . S
C323 H281 0.932 . S
C323 C318 1.360 . S
C323 C322 1.366 . S
C324 C298 1.490 . S
C324 C325 1.380 . S
C324 C329 1.386 . S
C325 H282 0.930 1_455 S
C325 C324 1.380 . S
C325 C326 1.376 1_455 S
C326 H283 0.945 . S
C326 C325 1.376 1_655 S
C326 C327 1.362 1_655 S
C327 C326 1.362 1_455 S
C327 C328 1.380 . S
C328 H284 0.931 . S
C328 C327 1.380 . S
C328 C329 1.387 . S
C329 H285 0.930 . S
C329 C324 1.386 . S
C329 C328 1.387 . S
C330 C299 1.519 . S
C330 C331 1.377 . S
C330 C335 1.361 . S
C331 H286 0.929 1_455 S
C331 C330 1.377 . S
C331 C332 1.386 . S
C332 H287 0.931 1_455 S
C332 C331 1.386 . S
C332 C333 1.363 . S
C333 C332 1.363 . S
C333 C334 1.385 . S
C334 H288 0.930 . S
C334 C333 1.385 . S
C334 C335 1.396 . S
C335 H289 0.929 . S
C335 C330 1.361 . S
C335 C334 1.396 . S
C336 O290 1.300 . S
C336 O291 1.209 . S
C336 C309 1.486 . S
C337 O292 1.199 . S
C337 O293 1.297 . S
C337 C321 1.476 . S
H338 O364 0.856 . S
H339 O367 0.854 . S
H340 C375 0.930 1_565 S
H341 C376 0.930 1_565 S
H342 C378 0.930 . S
H343 C379 0.930 . S
H344 C381 0.931 . S
H345 C382 0.930 . S
H346 C384 0.930 . S
H347 C385 0.929 . S
H348 C387 0.930 . S
H349 C388 0.931 . S
H350 C390 0.930 . S
H351 C391 0.929 . S
H352 C393 0.931 . S
H353 C394 0.930 . S
H354 C396 0.930 . S
H355 C397 0.932 . S
H356 C399 0.927 1_565 S
H357 C400 0.929 1_565 S
H358 C402 0.931 . S
H359 C403 0.930 . S
H360 C405 0.929 . S
H361 C406 0.931 . S
H362 C408 0.930 . S
H363 C409 0.929 . S
O364 H338 0.856 . S
O364 C410 1.300 . S
O365 C410 1.209 . S
O366 C411 1.199 . S
O367 H339 0.854 . S
O367 C411 1.297 . S
C368 C369 1.404 . S
C368 C373 1.397 . S
C368 C374 1.492 . S
C369 C368 1.404 . S
C369 C370 1.396 . S
C369 C380 1.492 . S
C370 C369 1.396 . S
C370 C371 1.397 . S
C370 C386 1.509 . S
C371 C370 1.397 . S
C371 C372 1.412 . S
C371 C392 1.485 . S
C372 C371 1.412 . S
C372 C373 1.388 . S
C372 C398 1.490 . S
C373 C368 1.397 . S
C373 C372 1.388 . S
C373 C404 1.519 . S
C374 C368 1.492 . S
C374 C375 1.363 . S
C374 C379 1.390 . S
C375 H340 0.930 1_545 S
C375 C374 1.363 . S
C375 C376 1.372 . S
C376 H341 0.930 1_545 S
C376 C375 1.372 . S
C376 C377 1.383 . S
C377 C376 1.383 . S
C377 C378 1.395 . S
C378 H342 0.930 . S
C378 C377 1.395 . S
C378 C379 1.362 . S
C379 H343 0.930 . S
C379 C374 1.390 . S
C379 C378 1.362 . S
C380 C369 1.492 . S
C380 C381 1.377 . S
C380 C385 1.397 . S
C381 H344 0.931 . S
C381 C380 1.377 . S
C381 C382 1.376 . S
C382 H345 0.930 . S
C382 C381 1.376 . S
C382 C383 1.376 . S
C383 C382 1.376 . S
C383 C384 1.378 . S
C383 C410 1.486 . S
C384 H346 0.930 . S
C384 C383 1.378 . S
C384 C385 1.376 . S
C385 H347 0.929 . S
C385 C380 1.397 . S
C385 C384 1.376 . S
C386 C370 1.509 . S
C386 C387 1.391 . S
C386 C391 1.386 . S
C387 H348 0.930 . S
C387 C386 1.391 . S
C387 C388 1.375 . S
C388 H349 0.931 . S
C388 C387 1.375 . S
C388 C389 1.375 . S
C389 C388 1.375 . S
C389 C390 1.361 . S
C390 H350 0.930 . S
C390 C389 1.361 . S
C390 C391 1.399 . S
C391 H351 0.929 . S
C391 C386 1.386 . S
C391 C390 1.399 . S
C392 C371 1.485 . S
C392 C393 1.394 . S
C392 C397 1.360 . S
C393 H352 0.931 . S
C393 C392 1.394 . S
C393 C394 1.372 . S
C394 H353 0.930 . S
C394 C393 1.372 . S
C394 C395 1.397 . S
C395 C394 1.397 . S
C395 C396 1.390 . S
C395 C411 1.476 . S
C396 H354 0.930 . S
C396 C395 1.390 . S
C396 C397 1.366 . S
C397 H355 0.932 . S
C397 C392 1.360 . S
C397 C396 1.366 . S
C398 C372 1.490 . S
C398 C399 1.380 . S
C398 C403 1.386 . S
C399 H356 0.927 1_545 S
C399 C398 1.380 . S
C399 C400 1.381 . S
C400 H357 0.929 1_545 S
C400 C399 1.381 . S
C400 C401 1.371 . S
C401 C400 1.371 . S
C401 C402 1.380 . S
C402 H358 0.931 . S
C402 C401 1.380 . S
C402 C403 1.387 . S
C403 H359 0.930 . S
C403 C398 1.386 . S
C403 C402 1.387 . S
C404 C373 1.519 . S
C404 C405 1.377 . S
C404 C409 1.361 . S
C405 H360 0.929 . S
C405 C404 1.377 . S
C405 C406 1.386 . S
C406 H361 0.931 . S
C406 C405 1.386 . S
C406 C407 1.363 . S
C407 C406 1.363 . S
C407 C408 1.385 . S
C408 H362 0.930 . S
C408 C407 1.385 . S
C408 C409 1.396 . S
C409 H363 0.929 . S
C409 C404 1.361 . S
C409 C408 1.396 . S
C410 O364 1.300 . S
C410 O365 1.209 . S
C410 C383 1.486 . S
C411 O366 1.199 . S
C411 O367 1.297 . S
C411 C395 1.476 . S
H412 O438 0.856 . S
H413 O441 0.854 . S
H414 C449 0.930 . S
H415 C450 0.930 . S
H416 C452 0.930 . S
H417 C453 0.930 . S
H418 C455 0.931 . S
H419 C456 0.930 . S
H420 C458 0.930 . S
H421 C459 0.929 . S
H422 C461 0.930 . S
H423 C462 0.931 . S
H424 C464 0.930 . S
H425 C465 0.929 . S
H426 C467 0.931 . S
H427 C468 0.930 . S
H428 C470 0.930 . S
H429 C471 0.932 . S
H430 C473 0.930 . S
H431 C474 0.929 . S
H432 C476 0.931 . S
H433 C477 0.930 . S
H434 C479 0.929 . S
H435 C480 0.931 . S
H436 C482 0.930 . S
H437 C483 0.929 . S
O438 H412 0.856 . S
O438 C484 1.300 1_554 S
O439 C484 1.199 1_554 S
O440 C485 1.199 . S
O441 H413 0.854 . S
O441 C485 1.297 . S
C442 C443 1.404 . S
C442 C447 1.397 . S
C442 C448 1.492 . S
C443 C442 1.404 . S
C443 C444 1.396 . S
C443 C454 1.492 . S
C444 C443 1.396 . S
C444 C445 1.397 . S
C444 C460 1.509 . S
C445 C444 1.397 . S
C445 C446 1.412 . S
C445 C466 1.485 . S
C446 C445 1.412 . S
C446 C447 1.388 . S
C446 C472 1.490 . S
C447 C442 1.397 . S
C447 C446 1.388 . S
C447 C478 1.519 . S
C448 C442 1.492 . S
C448 C449 1.363 . S
C448 C453 1.390 . S
C449 H414 0.930 . S
C449 C448 1.363 . S
C449 C450 1.372 . S
C450 H415 0.930 . S
C450 C449 1.372 . S
C450 C451 1.383 . S
C451 C450 1.383 . S
C451 C452 1.395 . S
C452 H416 0.930 . S
C452 C451 1.395 . S
C452 C453 1.362 . S
C453 H417 0.930 . S
C453 C448 1.390 . S
C453 C452 1.362 . S
C454 C443 1.492 . S
C454 C455 1.377 . S
C454 C459 1.397 . S
C455 H418 0.931 . S
C455 C454 1.377 . S
C455 C456 1.376 . S
C456 H419 0.930 . S
C456 C455 1.376 . S
C456 C457 1.376 . S
C457 C456 1.376 . S
C457 C458 1.378 . S
C457 C484 1.486 . S
C458 H420 0.930 . S
C458 C457 1.378 . S
C458 C459 1.376 . S
C459 H421 0.929 . S
C459 C454 1.397 . S
C459 C458 1.376 . S
C460 C444 1.509 . S
C460 C461 1.391 . S
C460 C465 1.386 . S
C461 H422 0.930 . S
C461 C460 1.391 . S
C461 C462 1.375 . S
C462 H423 0.931 . S
C462 C461 1.375 . S
C462 C463 1.375 . S
C463 C462 1.375 . S
C463 C464 1.361 . S
C464 H424 0.930 . S
C464 C463 1.361 . S
C464 C465 1.399 . S
C465 H425 0.929 . S
C465 C460 1.386 . S
C465 C464 1.399 . S
C466 C445 1.485 . S
C466 C467 1.394 . S
C466 C471 1.360 . S
C467 H426 0.931 . S
C467 C466 1.394 . S
C467 C468 1.372 . S
C468 H427 0.930 . S
C468 C467 1.372 . S
C468 C469 1.397 . S
C469 C468 1.397 . S
C469 C470 1.390 . S
C469 C485 1.476 . S
C470 H428 0.930 . S
C470 C469 1.390 . S
C470 C471 1.366 . S
C471 H429 0.932 . S
C471 C466 1.360 . S
C471 C470 1.366 . S
C472 C446 1.490 . S
C472 C473 1.380 . S
C472 C477 1.386 . S
C473 H430 0.930 . S
C473 C472 1.380 . S
C473 C474 1.381 . S
C474 H431 0.929 . S
C474 C473 1.381 . S
C474 C475 1.371 . S
C475 C474 1.371 . S
C475 C476 1.380 . S
C476 H432 0.931 . S
C476 C475 1.380 . S
C476 C477 1.387 . S
C477 H433 0.930 . S
C477 C472 1.386 . S
C477 C476 1.387 . S
C478 C447 1.519 . S
C478 C479 1.377 . S
C478 C483 1.361 . S
C479 H434 0.929 . S
C479 C478 1.377 . S
C479 C480 1.386 . S
C480 H435 0.931 . S
C480 C479 1.386 . S
C480 C481 1.363 . S
C481 C480 1.363 . S
C481 C482 1.385 . S
C482 H436 0.930 . S
C482 C481 1.385 . S
C482 C483 1.396 . S
C483 H437 0.929 . S
C483 C478 1.361 . S
C483 C482 1.396 . S
C484 O438 1.300 1_556 S
C484 O439 1.199 1_556 S
C484 C457 1.486 . S
C485 O440 1.199 . S
C485 O441 1.297 . S
C485 C469 1.476 . S
H486 C492 0.930 . S
H487 C496 0.930 . S
H488 C501 0.929 . S
H489 C499 0.929 1_655 S
H490 C494 0.929 . S
H491 C500 0.929 . S
C492 H486 0.930 . S
C492 C493 1.367 1_655 S
C492 C500 1.378 . S
C493 C492 1.367 1_455 S
C493 C501 1.433 . S
C494 H490 0.929 . S
C494 C496 1.378 . S
C494 C498 1.350 . S
C495 C498 1.463 . S
C495 C500 1.350 1_455 S
C495 N503 1.427 . S
C496 H487 0.930 . S
C496 C494 1.378 . S
C496 C497 1.367 . S
C497 C496 1.367 . S
C497 C499 1.433 . S
C498 C494 1.350 . S
C498 C495 1.463 . S
C498 N502 1.427 1_455 S
C499 H489 0.929 1_455 S
C499 C497 1.433 . S
C499 N502 1.384 1_455 S
C500 H491 0.929 . S
C500 C492 1.378 . S
C500 C495 1.350 1_655 S
C501 H488 0.929 . S
C501 C493 1.433 . S
C501 N503 1.384 . S
N502 C498 1.427 1_655 S
N502 C499 1.384 1_655 S
N503 C495 1.427 . S
N503 C501 1.384 . S
H504 C510 0.930 . S
H505 C514 0.930 . S
H506 C519 0.929 . S
H507 C517 0.929 . S
H508 C512 0.929 . S
H509 C518 0.929 . S
C510 H504 0.930 . S
C510 C511 1.367 . S
C510 C518 1.378 . S
C511 C510 1.367 . S
C511 C519 1.433 1_565 S
C512 H508 0.929 . S
C512 C514 1.378 . S
C512 C516 1.350 . S
C513 C516 1.463 1_565 S
C513 C518 1.350 . S
C513 N521 1.427 1_565 S
C514 H505 0.930 . S
C514 C512 1.378 . S
C514 C515 1.367 . S
C515 C514 1.367 . S
C515 C517 1.433 1_545 S
C516 C512 1.350 . S
C516 C513 1.463 1_545 S
C516 N520 1.427 1_545 S
C517 H507 0.929 . S
C517 C515 1.433 1_565 S
C517 N520 1.384 . S
C518 H509 0.929 . S
C518 C510 1.378 . S
C518 C513 1.350 . S
C519 H506 0.929 . S
C519 C511 1.433 1_545 S
C519 N521 1.384 . S
N520 C516 1.427 1_565 S
N520 C517 1.384 . S
N521 C513 1.427 1_545 S
N521 C519 1.384 . S
H522 C528 0.930 . S
H523 C532 0.930 . S
H524 C537 0.929 . S
H525 C535 0.929 . S
H526 C530 0.929 . S
H527 C536 0.929 . S
C528 H522 0.930 . S
C528 C529 1.367 . S
C528 C536 1.378 . S
C529 C528 1.367 . S
C529 C537 1.433 . S
C530 H526 0.929 . S
C530 C532 1.378 . S
C530 C534 1.350 . S
C531 C534 1.463 . S
C531 C536 1.350 . S
C531 N539 1.427 . S
C532 H523 0.930 . S
C532 C530 1.378 . S
C532 C533 1.367 . S
C533 C532 1.367 . S
C533 C535 1.433 . S
C534 C530 1.350 . S
C534 C531 1.463 . S
C534 N538 1.427 . S
C535 H525 0.929 . S
C535 C533 1.433 . S
C535 N538 1.384 . S
C536 H527 0.929 . S
C536 C528 1.378 . S
C536 C531 1.350 . S
C537 H524 0.929 . S
C537 C529 1.433 . S
C537 N539 1.384 . S
N538 C534 1.427 . S
N538 C535 1.384 . S
N539 C531 1.427 . S
N539 C537 1.384 . S
H540 C546 0.930 . S
H541 C550 0.930 . S
H542 C555 0.929 . S
H543 C553 0.929 . S
H544 C548 0.929 . S
H545 C554 0.929 . S
C546 H540 0.930 . S
C546 C547 1.367 . S
C546 C554 1.378 . S
C547 C546 1.367 . S
C547 C555 1.433 . S
C548 H544 0.929 . S
C548 C550 1.378 . S
C548 C552 1.350 . S
C549 C552 1.463 . S
C549 C554 1.350 . S
C549 N557 1.427 . S
C550 H541 0.930 . S
C550 C548 1.378 . S
C550 C551 1.367 . S
C551 C550 1.367 . S
C551 C553 1.433 . S
C552 C548 1.350 . S
C552 C549 1.463 . S
C552 N556 1.427 . S
C553 H543 0.929 . S
C553 C551 1.433 . S
C553 N556 1.384 . S
C554 H545 0.929 . S
C554 C546 1.378 . S
C554 C549 1.350 . S
C555 H542 0.929 . S
C555 C547 1.433 . S
C555 N557 1.384 . S
N556 C552 1.427 . S
N556 C553 1.384 . S
N557 C549 1.427 . S
N557 C555 1.384 . S
H558 C564 0.930 . S
H559 C568 0.930 . S
H560 C573 0.929 . S
H561 C571 0.929 . S
H562 C566 0.929 . S
H563 C572 0.929 . S
C564 H558 0.930 . S
C564 C565 1.367 . S
C564 C572 1.378 . S
C565 C564 1.367 . S
C565 C573 1.433 . S
C566 H562 0.929 . S
C566 C568 1.378 . S
C566 C570 1.350 . S
C567 C570 1.463 . S
C567 C572 1.350 . S
C567 N575 1.427 . S
C568 H559 0.930 . S
C568 C566 1.378 . S
C568 C569 1.367 . S
C569 C568 1.367 . S
C569 C571 1.433 . S
C570 C566 1.350 . S
C570 C567 1.463 . S
C570 N574 1.427 . S
C571 H561 0.929 . S
C571 C569 1.433 . S
C571 N574 1.384 . S
C572 H563 0.929 . S
C572 C564 1.378 . S
C572 C567 1.350 . S
C573 H560 0.929 . S
C573 C565 1.433 . S
C573 N575 1.384 . S
N574 C570 1.427 . S
N574 C571 1.384 . S
N575 C567 1.427 . S
N575 C573 1.384 . S
H576 C582 0.930 . S
H577 C586 0.930 . S
H578 C591 0.929 . S
H579 C589 0.929 . S
H580 C584 0.929 . S
H581 C590 0.929 . S
C582 H576 0.930 . S
C582 C583 1.367 . S
C582 C590 1.378 . S
C583 C582 1.367 . S
C583 C591 1.433 . S
C584 H580 0.929 . S
C584 C586 1.378 . S
C584 C588 1.350 . S
C585 C588 1.463 . S
C585 C590 1.350 . S
C585 N593 1.427 . S
C586 H577 0.930 . S
C586 C584 1.378 . S
C586 C587 1.367 . S
C587 C586 1.367 . S
C587 C589 1.433 . S
C588 C584 1.350 . S
C588 C585 1.463 . S
C588 N592 1.427 . S
C589 H579 0.929 . S
C589 C587 1.433 . S
C589 N592 1.384 . S
C590 H581 0.929 . S
C590 C582 1.378 . S
C590 C585 1.350 . S
C591 H578 0.929 . S
C591 C583 1.433 . S
C591 N593 1.384 . S
N592 C588 1.427 . S
N592 C589 1.384 . S
N593 C585 1.427 . S
N593 C591 1.384 . S
H594 C600 0.930 . S
H595 C604 0.930 . S
H596 C609 0.929 . S
H597 C607 0.929 . S
H598 C602 0.929 . S
H599 C608 0.929 . S
C600 H594 0.930 . S
C600 C601 1.367 . S
C600 C608 1.378 . S
C601 C600 1.367 . S
C601 C609 1.433 . S
C602 H598 0.929 . S
C602 C604 1.378 . S
C602 C606 1.350 . S
C603 C606 1.463 . S
C603 C608 1.350 . S
C603 N611 1.427 . S
C604 H595 0.930 . S
C604 C602 1.378 . S
C604 C605 1.367 . S
C605 C604 1.367 . S
C605 C607 1.433 . S
C606 C602 1.350 . S
C606 C603 1.463 . S
C606 N610 1.427 . S
C607 H597 0.929 . S
C607 C605 1.433 . S
C607 N610 1.384 . S
C608 H599 0.929 . S
C608 C600 1.378 . S
C608 C603 1.350 . S
C609 H596 0.929 . S
C609 C601 1.433 . S
C609 N611 1.384 . S
N610 C606 1.427 . S
N610 C607 1.384 . S
N611 C603 1.427 . S
N611 C609 1.384 . S
H612 C618 0.930 . S
H613 C622 0.930 . S
H614 C627 0.933 . S
H615 C625 0.929 . S
H616 C620 0.929 . S
H617 C626 0.929 . S
C618 H612 0.930 . S
C618 C619 1.367 . S
C618 C626 1.378 1_554 S
C619 C618 1.367 . S
C619 C627 1.433 1_554 S
C620 H616 0.929 . S
C620 C622 1.378 . S
C620 C624 1.350 . S
C621 C624 1.463 . S
C621 C626 1.350 . S
C621 N629 1.427 . S
C622 H613 0.930 . S
C622 C620 1.378 . S
C622 C623 1.367 . S
C623 C622 1.367 . S
C623 C625 1.433 . S
C624 C620 1.350 . S
C624 C621 1.463 . S
C624 N628 1.427 . S
C625 H615 0.929 . S
C625 C623 1.433 . S
C625 N628 1.384 . S
C626 H617 0.929 . S
C626 C618 1.378 1_556 S
C626 C621 1.350 . S
C627 H614 0.933 . S
C627 C619 1.433 1_556 S
C627 N629 1.384 . S
N628 C624 1.427 . S
N628 C625 1.384 . S
N629 C621 1.427 . S
N629 C627 1.384 . S
H630 C636 0.930 . S
H631 C640 0.930 . S
H632 C645 0.930 . S
H633 C643 0.929 . S
H634 C638 0.929 . S
H635 C644 0.928 . S
C636 H630 0.930 . S
C636 C637 1.367 . S
C636 C644 1.380 . S
C637 C636 1.367 . S
C637 C645 1.421 1_655 S
C638 H634 0.929 . S
C638 C640 1.378 . S
C638 C642 1.350 . S
C639 C642 1.463 . S
C639 C644 1.347 1_455 S
C639 N647 1.427 . S
C640 H631 0.930 . S
C640 C638 1.378 . S
C640 C641 1.367 . S
C641 C640 1.367 . S
C641 C643 1.433 . S
C642 C638 1.350 . S
C642 C639 1.463 . S
C642 N646 1.427 . S
C643 H633 0.929 . S
C643 C641 1.433 . S
C643 N646 1.384 . S
C644 H635 0.928 . S
C644 C636 1.380 . S
C644 C639 1.347 1_655 S
C645 H632 0.930 . S
C645 C637 1.421 1_455 S
C645 N647 1.395 . S
N646 C642 1.427 . S
N646 C643 1.384 . S
N647 C639 1.427 . S
N647 C645 1.395 . S
H648 C654 0.930 . S
H649 C658 0.930 . S
H650 C663 0.929 1_565 S
H651 C661 0.929 . S
H652 C656 0.929 . S
H653 C662 0.929 . S
C654 H648 0.930 . S
C654 C655 1.367 . S
C654 C662 1.378 . S
C655 C654 1.367 . S
C655 C663 1.433 . S
C656 H652 0.929 . S
C656 C658 1.378 . S
C656 C660 1.350 . S
C657 C660 1.463 . S
C657 C662 1.350 . S
C657 N665 1.427 . S
C658 H649 0.930 . S
C658 C656 1.378 . S
C658 C659 1.367 . S
C659 C658 1.367 . S
C659 C661 1.433 . S
C660 C656 1.350 . S
C660 C657 1.463 . S
C660 N664 1.427 . S
C661 H651 0.929 . S
C661 C659 1.433 . S
C661 N664 1.384 . S
C662 H653 0.929 . S
C662 C654 1.378 . S
C662 C657 1.350 . S
C663 H650 0.929 1_545 S
C663 C655 1.433 . S
C663 N665 1.384 . S
N664 C660 1.427 . S
N664 C661 1.384 . S
N665 C657 1.427 . S
N665 C663 1.384 . S
H666 C672 0.930 . S
H667 C676 0.930 . S
H668 C681 0.929 . S
H669 C679 0.929 . S
H670 C674 0.929 1_554 S
H671 C680 0.929 . S
C672 H666 0.930 . S
C672 C673 1.367 . S
C672 C680 1.378 1_554 S
C673 C672 1.367 . S
C673 C681 1.433 . S
C674 H670 0.929 1_556 S
C674 C676 1.378 . S
C674 C678 1.350 . S
C675 C678 1.485 . S
C675 C680 1.360 . S
C675 N683 1.395 1_556 S
C676 H667 0.930 . S
C676 C674 1.378 . S
C676 C677 1.367 . S
C677 C676 1.367 . S
C677 C679 1.433 . S
C678 C674 1.350 . S
C678 C675 1.485 . S
C678 N682 1.427 . S
C679 H669 0.929 . S
C679 C677 1.433 . S
C679 N682 1.384 . S
C680 H671 0.929 . S
C680 C672 1.378 1_556 S
C680 C675 1.360 . S
C681 H668 0.929 . S
C681 C673 1.433 . S
C681 N683 1.384 . S
N682 C678 1.427 . S
N682 C679 1.384 . S
N683 C675 1.395 1_554 S
N683 C681 1.384 . S
H684 C690 0.930 . S
H685 C694 0.930 . S
H686 C699 0.929 . S
H687 C697 0.929 . S
H688 C692 0.929 . S
H689 C698 0.929 . S
C690 H684 0.930 . S
C690 C691 1.367 . S
C690 C698 1.378 . S
C691 C690 1.367 . S
C691 C699 1.433 . S
C692 H688 0.929 . S
C692 C694 1.378 . S
C692 C696 1.350 . S
C693 C696 1.463 . S
C693 C698 1.350 . S
C693 N701 1.427 . S
C694 H685 0.930 . S
C694 C692 1.378 . S
C694 C695 1.367 . S
C695 C694 1.367 . S
C695 C697 1.433 . S
C696 C692 1.350 . S
C696 C693 1.463 . S
C696 N700 1.427 . S
C697 H687 0.929 . S
C697 C695 1.433 . S
C697 N700 1.384 . S
C698 H689 0.929 . S
C698 C690 1.378 . S
C698 C693 1.350 . S
C699 H686 0.929 . S
C699 C691 1.433 . S
C699 N701 1.384 . S
N700 C696 1.427 . S
N700 C697 1.384 . S
N701 C693 1.427 . S
N701 C699 1.384 . S
C497 C303 1.348 . S
C493 C29 1.412 . S
C511 C137 1.423 . S
C515 C377 1.369 . S
C529 C225 2.149 . S
C533 C481 2.176 . S
C547 C49 0.674 . S
C551 C315 0.661 . S
C569 C389 0.619 . S
C565 C117 0.616 . S
C583 C205 1.358 . S
C587 C475 1.299 . S
C605 C407 2.183 . S
C601 C233 2.157 . S
C619 C57 1.426 . S
C623 C451 1.370 . S
C641 C327 1.346 . S
C637 C108 1.394 . S
C659 C401 1.293 . S
C655 C196 1.361 . S
C677 C463 0.668 . S
C673 C20 0.671 . S
C691 C145 2.167 . S
C695 C333 2.182 . S
