# Generated by pormake.
# Topology zzz, (3,6)-cn, num edge types: 1
# Building blocks:
#     Node 0, Type 0, BuildingBlock: PAMTOO_clean_linker_0, # of connection points: 3
#     Node 1, Type 0, BuildingBlock: PAMTOO_clean_linker_0, # of connection points: 3
#     Node 2, Type 0, BuildingBlock: PAMTOO_clean_linker_0, # of connection points: 3
#     Node 3, Type 0, BuildingBlock: PAMTOO_clean_linker_0, # of connection points: 3
#     Node 4, Type 0, BuildingBlock: PAMTOO_clean_linker_0, # of connection points: 3
#     Node 5, Type 0, BuildingBlock: PAMTOO_clean_linker_0, # of connection points: 3
#     Node 6, Type 0, BuildingBlock: PAMTOO_clean_linker_0, # of connection points: 3
#     Node 7, Type 0, BuildingBlock: PAMTOO_clean_linker_0, # of connection points: 3
#     Node 8, Type 1, BuildingBlock: MIFKUJ_clean_sbu_0, # of connection points: 6
#     Node 9, Type 1, BuildingBlock: MIFKUJ_clean_sbu_0, # of connection points: 6
#     Node 10, Type 1, BuildingBlock: MIFKUJ_clean_sbu_0, # of connection points: 6
#     Node 11, Type 1, BuildingBlock: MIFKUJ_clean_sbu_0, # of connection points: 6
#     Edge 12, Type (0, 1), BuildingBlock: TEMPAE_clean_linker_10, # of connection points: 2
#     Edge 13, Type (0, 1), BuildingBlock: TEMPAE_clean_linker_10, # of connection points: 2
#     Edge 14, Type (0, 1), BuildingBlock: TEMPAE_clean_linker_10, # of connection points: 2
#     Edge 15, Type (0, 1), BuildingBlock: TEMPAE_clean_linker_10, # of connection points: 2
#     Edge 16, Type (0, 1), BuildingBlock: TEMPAE_clean_linker_10, # of connection points: 2
#     Edge 17, Type (0, 1), BuildingBlock: TEMPAE_clean_linker_10, # of connection points: 2
#     Edge 18, Type (0, 1), BuildingBlock: TEMPAE_clean_linker_10, # of connection points: 2
#     Edge 19, Type (0, 1), BuildingBlock: TEMPAE_clean_linker_10, # of connection points: 2
#     Edge 20, Type (0, 1), BuildingBlock: TEMPAE_clean_linker_10, # of connection points: 2
#     Edge 21, Type (0, 1), BuildingBlock: TEMPAE_clean_linker_10, # of connection points: 2
#     Edge 22, Type (0, 1), BuildingBlock: TEMPAE_clean_linker_10, # of connection points: 2
#     Edge 23, Type (0, 1), BuildingBlock: TEMPAE_clean_linker_10, # of connection points: 2
#     Edge 24, Type (0, 1), BuildingBlock: TEMPAE_clean_linker_10, # of connection points: 2
#     Edge 25, Type (0, 1), BuildingBlock: TEMPAE_clean_linker_10, # of connection points: 2
#     Edge 26, Type (0, 1), BuildingBlock: TEMPAE_clean_linker_10, # of connection points: 2
#     Edge 27, Type (0, 1), BuildingBlock: TEMPAE_clean_linker_10, # of connection points: 2
#     Edge 28, Type (0, 1), BuildingBlock: TEMPAE_clean_linker_10, # of connection points: 2
#     Edge 29, Type (0, 1), BuildingBlock: TEMPAE_clean_linker_10, # of connection points: 2
#     Edge 30, Type (0, 1), BuildingBlock: TEMPAE_clean_linker_10, # of connection points: 2
#     Edge 31, Type (0, 1), BuildingBlock: TEMPAE_clean_linker_10, # of connection points: 2
#     Edge 32, Type (0, 1), BuildingBlock: TEMPAE_clean_linker_10, # of connection points: 2
#     Edge 33, Type (0, 1), BuildingBlock: TEMPAE_clean_linker_10, # of connection points: 2
#     Edge 34, Type (0, 1), BuildingBlock: TEMPAE_clean_linker_10, # of connection points: 2
#     Edge 35, Type (0, 1), BuildingBlock: TEMPAE_clean_linker_10, # of connection points: 2
# Relax obj value: 0.115
# Max RMSD: 0.119
# Mean RMSD: 0.083
data_MOF--net-zzz--node1-MIFKUJ_clean_sbu_0--node2-PAMTOO_clean_linker_0--edge1-TEMPAE_clean_linker_10
_symmetry_space_group_name_H-M    P1
_symmetry_Int_Tables_number       1
_symmetry_cell_setting            triclinic
loop_
_symmetry_equiv_pos_as_xyz
'x, y, z'
_cell_length_a     51.38483
_cell_length_b     51.111748
_cell_length_c     16.114743
_cell_angle_alpha  89.876504
_cell_angle_beta   90.01486
_cell_angle_gamma 89.880016
loop_
_atom_site_label
_atom_site_type_symbol
_atom_site_fract_x
_atom_site_fract_y
_atom_site_fract_z
_atom_type_partial_charge
H0 H 0.7901 0.49741 0.02582 0.0
H1 H 0.71134 0.49242 0.94151 0.0
H2 H 0.72794 0.49038 0.20377 0.0
H3 H 0.66559 0.46632 0.14033 0.0
C4 C 0.67491 0.47097 0.0799 0.0
O5 O 0.69066 0.49267 0.0906 0.0
H6 H 0.68655 0.45354 0.06111 0.0
C7 C 0.76956 0.49591 0.0405 0.0
C8 C 0.76164 0.49324 0.12319 0.0
C9 C 0.75177 0.49471 0.97524 0.0
C10 C 0.72518 0.49347 0.99208 0.0
C11 C 0.71653 0.49271 0.07474 0.0
C12 C 0.73474 0.4921 0.1404 0.0
H13 H 0.97234 0.7958 0.00937 0.0
H14 H 0.98433 0.71702 0.92683 0.0
H15 H 0.97546 0.73322 0.18789 0.0
H16 H 0.00918 0.67403 0.13466 0.0
C17 C 0.00511 0.68228 0.07214 0.0
O18 O 0.98201 0.69619 0.07588 0.0
H19 H 0.02172 0.69521 0.05517 0.0
C20 C 0.97382 0.77507 0.02348 0.0
C21 C 0.97248 0.76675 0.10608 0.0
C22 C 0.97801 0.75742 0.95876 0.0
C23 C 0.98108 0.73083 0.97667 0.0
C24 C 0.98018 0.72208 0.05938 0.0
C25 C 0.97624 0.74008 0.12429 0.0
H26 H 0.71573 0.02136 0.14543 0.0
H27 H 0.78255 0.01299 0.98717 0.0
H28 H 0.78184 0.97705 0.22919 0.0
H29 H 0.83898 0.99211 0.17492 0.0
C30 C 0.83206 0.99886 0.1131 0.0
O31 O 0.80966 0.98526 0.09332 0.0
H32 H 0.82812 0.02025 0.11772 0.0
C33 C 0.73558 0.01472 0.13572 0.0
C34 C 0.74744 0.9993 0.19676 0.0
C35 C 0.74788 0.01968 0.05977 0.0
C36 C 0.77297 0.0097 0.0461 0.0
C37 C 0.78553 0.99491 0.10787 0.0
C38 C 0.77255 0.98928 0.18284 0.0
H39 H 0.5167 0.70786 0.06354 0.0
H40 H 0.52422 0.78451 0.95645 0.0
H41 H 0.55495 0.76877 0.20066 0.0
H42 H 0.54418 0.83409 0.16644 0.0
C43 C 0.53427 0.82531 0.11199 0.0
O44 O 0.54904 0.8045 0.08383 0.0
H45 H 0.51474 0.8186 0.13323 0.0
C46 C 0.52314 0.72803 0.06852 0.0
C47 C 0.53655 0.73606 0.13944 0.0
C48 C 0.5184 0.74531 0.00294 0.0
C49 C 0.52721 0.77115 0.00789 0.0
C50 C 0.54006 0.77971 0.07984 0.0
C51 C 0.54462 0.76221 0.14594 0.0
H52 H 0.1955 0.5458 0.18027 0.0
H53 H 0.27359 0.53227 0.26355 0.0
H54 H 0.25674 0.5342 0.00172 0.0
H55 H 0.31306 0.49944 0.05553 0.0
C56 C 0.3046 0.50396 0.11733 0.0
O57 O 0.29371 0.52871 0.11467 0.0
H58 H 0.28962 0.48868 0.12962 0.0
C59 C 0.21599 0.54334 0.16575 0.0
C60 C 0.22387 0.54138 0.08287 0.0
C61 C 0.23366 0.53978 0.23068 0.0
C62 C 0.25991 0.53525 0.2133 0.0
C63 C 0.26829 0.53342 0.13072 0.0
C64 C 0.25024 0.53613 0.06536 0.0
H65 H 0.00744 0.20059 0.11634 0.0
H66 H 0.00531 0.27316 0.25048 0.0
H67 H 0.04718 0.26788 0.01933 0.0
H68 H 0.06985 0.31501 0.14001 0.0
C69 C 0.05584 0.30638 0.18485 0.0
O70 O 0.03372 0.29886 0.14248 0.0
H71 H 0.06585 0.28932 0.21414 0.0
C72 C 0.01236 0.2212 0.12085 0.0
C73 C 0.02825 0.2324 0.06009 0.0
C74 C 0.00381 0.23563 0.1893 0.0
C75 C 0.01113 0.26192 0.19663 0.0
C76 C 0.02652 0.2736 0.13478 0.0
C77 C 0.03495 0.2589 0.06609 0.0
H78 H 0.31978 0.97221 0.14065 0.0
H79 H 0.24259 0.96972 0.24249 0.0
H80 H 0.2555 0.00271 -0.00054 0.0
H81 H 0.20317 0.02625 0.0846 0.0
C82 C 0.20937 0.01478 0.13985 0.0
O83 O 0.22019 0.99145 0.11337 0.0
H84 H 0.22391 0.02701 0.17336 0.0
C85 C 0.29905 0.97581 0.13404 0.0
C86 C 0.28988 0.98839 0.06265 0.0
C87 C 0.28228 0.9689 0.19885 0.0
C88 C 0.25566 0.97434 0.19182 0.0
C89 C 0.24594 0.98619 0.11941 0.0
C90 C 0.26302 0.99307 0.05443 0.0
H91 H 0.49955 0.30504 0.17616 0.0
H92 H 0.50896 0.22506 0.25143 0.0
H93 H 0.52679 0.248 0.0003 0.0
H94 H 0.5104 0.18216 0.02001 0.0
C95 C 0.50539 0.18988 0.08242 0.0
O96 O 0.5237 0.20834 0.10477 0.0
H97 H 0.48557 0.19865 0.07697 0.0
C98 C 0.50464 0.28501 0.1607 0.0
C99 C 0.51403 0.27925 0.08139 0.0
C100 C 0.50273 0.26574 0.22198 0.0
C101 C 0.5097 0.23996 0.2036 0.0
C102 C 0.5175 0.23341 0.12272 0.0
C103 C 0.51978 0.25305 0.06159 0.0
Zn104 Zn 0.01199 0.03666 0.59702 0.0
Zn105 Zn 0.00607 0.95757 0.55666 0.0
C106 C 0.01128 0.07832 0.70835 0.0
O107 O 0.98637 0.07336 0.6992 0.0
C108 C 0.99902 0.93347 0.40112 0.0
O109 O 0.02433 0.93699 0.40008 0.0
O110 O 0.99249 0.05973 0.5175 0.0
O111 O 0.04155 0.01853 0.53807 0.0
O112 O 0.03876 0.97579 0.51643 0.0
C113 C 0.00639 0.07255 0.46665 0.0
O114 O 0.03125 0.06686 0.46036 0.0
O115 O 0.02777 0.06371 0.6722 0.0
C116 C 0.99911 0.9065 0.60992 0.0
O117 O 0.97555 0.91334 0.58712 0.0
O118 O 0.01726 0.92336 0.6084 0.0
O119 O 0.98198 0.97373 0.64236 0.0
O120 O 0.98628 0.01627 0.66549 0.0
O121 O 0.98572 0.94457 0.45758 0.0
C122 C 0.05095 0.99732 0.50986 0.0
C123 C 0.97551 0.99445 0.68088 0.0
Zn124 Zn 0.48389 0.99574 0.58101 0.0
Zn125 Zn 0.54966 0.01749 0.63329 0.0
C126 C 0.45003 0.98908 0.71544 0.0
O127 O 0.45688 0.96486 0.69898 0.0
C128 C 0.58256 0.00412 0.49418 0.0
O129 O 0.57091 0.02457 0.46141 0.0
O130 O 0.45672 0.9767 0.51548 0.0
O131 O 0.49529 0.02694 0.51244 0.0
O132 O 0.53189 0.0442 0.5605 0.0
C133 C 0.43974 0.99118 0.48102 0.0
O134 O 0.4428 0.01667 0.4815 0.0
O135 O 0.46131 0.00763 0.6768 0.0
C136 C 0.58709 0.02217 0.75663 0.0
O137 O 0.57957 0.99777 0.76524 0.0
O138 O 0.57552 0.03665 0.70406 0.0
O139 O 0.5284 0.99493 0.71182 0.0
O140 O 0.51017 0.96893 0.62043 0.0
O141 O 0.57478 0.99563 0.56422 0.0
C142 C 0.51236 0.04492 0.51209 0.0
C143 C 0.52058 0.97232 0.69101 0.0
Zn144 Zn 0.49857 0.47042 0.5952 0.0
Zn145 Zn 0.49141 0.54568 0.60484 0.0
C146 C 0.51814 0.44004 0.71929 0.0
O147 O 0.53679 0.44234 0.66403 0.0
C148 C 0.49852 0.57838 0.46766 0.0
O149 O 0.47305 0.57621 0.46979 0.0
O150 O 0.50462 0.43817 0.52569 0.0
O151 O 0.46421 0.48399 0.55076 0.0
O152 O 0.46081 0.52728 0.55286 0.0
C153 C 0.48829 0.42048 0.54546 0.0
O154 O 0.46952 0.42618 0.59777 0.0
O155 O 0.4976 0.45378 0.70974 0.0
C156 C 0.48608 0.58325 0.73816 0.0
O157 O 0.50193 0.56736 0.77776 0.0
O158 O 0.47745 0.57665 0.66746 0.0
O159 O 0.51572 0.52554 0.68003 0.0
O160 O 0.52919 0.49527 0.59324 0.0
O161 O 0.51208 0.56449 0.517 0.0
C162 C 0.45166 0.5049 0.53497 0.0
C163 C 0.53198 0.50783 0.66067 0.0
Zn164 Zn 0.03185 0.505 0.62032 0.0
Zn165 Zn 0.95599 0.48594 0.61359 0.0
C166 C 0.06168 0.53192 0.73382 0.0
O167 O 0.05757 0.5489 0.67387 0.0
C168 C 0.91959 0.4776 0.49123 0.0
O169 O 0.9251 0.45409 0.51942 0.0
O170 O 0.06157 0.51373 0.54386 0.0
O171 O 0.02427 0.46743 0.59146 0.0
O172 O 0.98207 0.45828 0.57907 0.0
C173 C 0.08238 0.50197 0.56545 0.0
O174 O 0.08152 0.48468 0.62585 0.0
O175 O 0.04886 0.51059 0.73309 0.0
C176 C 0.91862 0.47852 0.74725 0.0
O177 O 0.93092 0.4976 0.78493 0.0
O178 O 0.9283 0.46862 0.68208 0.0
O179 O 0.96903 0.51666 0.67992 0.0
O180 O 1.00172 0.52942 0.60248 0.0
O181 O 0.93343 0.49678 0.51568 0.0
C182 C 0.00594 0.45169 0.57356 0.0
C183 C 0.98702 0.53293 0.66468 0.0
C184 C 0.16109 0.00964 0.16454 0.0
C185 C 0.18649 0.00956 0.19618 0.0
C186 C 0.13955 0.0062 0.21714 0.0
C187 C 0.14354 0.0023 0.30334 0.0
C188 C 0.16926 0.00122 0.33499 0.0
C189 C 0.19043 0.00482 0.28094 0.0
C190 C 0.11249 0.00742 0.18077 0.0
C191 C 0.17438 0.9969 0.42623 0.0
C192 C 0.08807 0.02221 0.44644 0.0
C193 C 0.07578 0.99819 0.46219 0.0
C194 C 0.11031 0.02372 0.39599 0.0
C195 C 0.12076 0.00064 0.36064 0.0
C196 C 0.10894 0.97623 0.37805 0.0
C197 C 0.08659 0.97529 0.42839 0.0
C198 C 0.12225 0.05017 0.37885 0.0
C199 C 0.11958 0.95115 0.34205 0.0
H200 H 0.15808 0.01296 0.09877 0.0
H201 H 0.21012 0.00446 0.30511 0.0
H202 H 0.10148 0.9895 0.19722 0.0
H203 H 0.10177 0.0243 0.20739 0.0
H204 H 0.11273 0.00948 0.11213 0.0
H205 H 0.19548 0.99497 0.44013 0.0
H206 H 0.16646 0.01357 0.46235 0.0
H207 H 0.16429 0.97899 0.44799 0.0
H208 H 0.08003 0.04004 0.47218 0.0
H209 H 0.07737 0.9566 0.44019 0.0
H210 H 0.1213 0.0545 0.31141 0.0
H211 H 0.14309 0.05009 0.39677 0.0
H212 H 0.11224 0.06617 0.41288 0.0
H213 H 0.11813 0.95175 0.27338 0.0
H214 H 0.10899 0.93364 0.36492 0.0
H215 H 0.14049 0.94901 0.35786 0.0
C216 C 0.48999 0.17032 0.21756 0.0
C217 C 0.50514 0.16809 0.14563 0.0
C218 C 0.49035 0.15068 0.27869 0.0
C219 C 0.50617 0.12824 0.2673 0.0
C220 C 0.52148 0.12591 0.19454 0.0
C221 C 0.52095 0.146 0.13491 0.0
C222 C 0.47399 0.15406 0.35574 0.0
C223 C 0.53851 0.10226 0.17986 0.0
C224 C 0.52727 0.08805 0.45461 0.0
C225 C 0.51 0.06681 0.45157 0.0
C226 C 0.52596 0.10835 0.39586 0.0
C227 C 0.50706 0.10736 0.33198 0.0
C228 C 0.4894 0.08615 0.32898 0.0
C229 C 0.49102 0.0662 0.38888 0.0
C230 C 0.545 0.13074 0.40163 0.0
C231 C 0.46906 0.08431 0.26159 0.0
H232 H 0.47793 0.18753 0.22602 0.0
H233 H 0.53289 0.14446 0.07968 0.0
H234 H 0.46016 0.13752 0.36179 0.0
H235 H 0.48663 0.15378 0.41158 0.0
H236 H 0.46277 0.17266 0.35511 0.0
H237 H 0.54872 0.10315 0.11916 0.0
H238 H 0.55328 0.10063 0.22984 0.0
H239 H 0.52658 0.0842 0.18187 0.0
H240 H 0.54196 0.0888 0.50279 0.0
H241 H 0.47765 0.04987 0.3856 0.0
H242 H 0.53435 0.14962 0.40497 0.0
H243 H 0.55729 0.13136 0.34506 0.0
H244 H 0.55792 0.12908 0.45668 0.0
H245 H 0.45662 0.10207 0.26179 0.0
H246 H 0.45642 0.06685 0.26896 0.0
H247 H 0.47867 0.08334 0.20001 0.0
C248 C 0.35113 0.50963 0.164 0.0
C249 C 0.32542 0.50294 0.18338 0.0
C250 C 0.37066 0.50926 0.22506 0.0
C251 C 0.3642 0.50251 0.30791 0.0
C252 C 0.33814 0.4961 0.32798 0.0
C253 C 0.31908 0.49631 0.26536 0.0
C254 C 0.39821 0.51609 0.20087 0.0
C255 C 0.33038 0.48915 0.41561 0.0
C256 C 0.42032 0.48009 0.44519 0.0
C257 C 0.42727 0.50342 0.48536 0.0
C258 C 0.39938 0.47932 0.38906 0.0
C259 C 0.3848 0.50235 0.37325 0.0
C260 C 0.39091 0.52563 0.41654 0.0
C261 C 0.41211 0.52592 0.47167 0.0
C262 C 0.3936 0.45414 0.34393 0.0
C263 C 0.37564 0.55051 0.40241 0.0
H264 H 0.35595 0.51506 0.10078 0.0
H265 H 0.29914 0.4913 0.28041 0.0
H266 H 0.40483 0.53343 0.23633 0.0
H267 H 0.41147 0.49967 0.21674 0.0
H268 H 0.4001 0.52041 0.13354 0.0
H269 H 0.30923 0.48499 0.42118 0.0
H270 H 0.34141 0.4717 0.43684 0.0
H271 H 0.33534 0.50544 0.4581 0.0
H272 H 0.43188 0.46259 0.45498 0.0
H273 H 0.41719 0.54402 0.50257 0.0
H274 H 0.39737 0.45676 0.27662 0.0
H275 H 0.37278 0.44893 0.35095 0.0
H276 H 0.40567 0.43757 0.36685 0.0
H277 H 0.37876 0.55753 0.33799 0.0
H278 H 0.38142 0.56631 0.44589 0.0
H279 H 0.3545 0.54678 0.40976 0.0
C280 C 0.04549 0.35249 0.22762 0.0
C281 C 0.04863 0.32619 0.24982 0.0
C282 C 0.03822 0.37123 0.28676 0.0
C283 C 0.03386 0.36339 0.37001 0.0
C284 C 0.03666 0.33673 0.39247 0.0
C285 C 0.04385 0.31838 0.33181 0.0
C286 C 0.03521 0.39942 0.26009 0.0
C287 C 0.03215 0.32764 0.48047 0.0
C288 C 0.03889 0.41885 0.52517 0.0
C289 C 0.01273 0.4264 0.53367 0.0
C290 C 0.04595 0.39746 0.47548 0.0
C291 C 0.02643 0.3833 0.43302 0.0
C292 C 0.99991 0.3898 0.44526 0.0
C293 C 0.99337 0.41121 0.49565 0.0
C294 C 0.07443 0.39096 0.46477 0.0
C295 C 0.9785 0.37516 0.40117 0.0
H296 H 0.04876 0.35836 0.16377 0.0
H297 H 0.04584 0.2979 0.3484 0.0
H298 H 0.01518 0.40634 0.27367 0.0
H299 H 0.0488 0.41194 0.29577 0.0
H300 H 0.0391 0.40222 0.19285 0.0
H301 H 0.03505 0.3062 0.48767 0.0
H302 H 0.04564 0.33791 0.52308 0.0
H303 H 0.01206 0.33263 0.50017 0.0
H304 H 0.05402 0.43028 0.55469 0.0
H305 H 0.9731 0.41677 0.50184 0.0
H306 H 0.08056 0.39576 0.40049 0.0
H307 H 0.0778 0.36972 0.47422 0.0
H308 H 0.08697 0.40199 0.50857 0.0
H309 H 0.97949 0.37933 0.33364 0.0
H310 H 0.95887 0.3808 0.42393 0.0
H311 H 0.98101 0.35375 0.4093 0.0
C312 C 0.84763 0.00149 0.96462 0.0
C313 C 0.85269 0.99478 0.04744 0.0
C314 C 0.86721 0.99989 0.90388 0.0
C315 C 0.89259 0.99167 0.92671 0.0
C316 C 0.89768 0.98446 0.01012 0.0
C317 C 0.87768 0.98613 0.06946 0.0
C318 C 0.86091 0.00768 0.81571 0.0
C319 C 0.92446 0.97574 0.03723 0.0
C320 C 0.93994 0.97049 0.75712 0.0
C321 C 0.95457 0.99336 0.74478 0.0
C322 C 0.91976 0.9696 0.81614 0.0
C323 C 0.91412 0.99204 0.86441 0.0
C324 C 0.92898 0.01507 0.85287 0.0
C325 C 0.94892 0.01546 0.7933 0.0
C326 C 0.90433 0.9447 0.82638 0.0
C327 C 0.92377 0.03939 0.90334 0.0
H328 H 0.82844 0.00849 0.94769 0.0
H329 H 0.88174 0.98116 0.1336 0.0
H330 H 0.87226 0.02531 0.79836 0.0
H331 H 0.86659 0.99183 0.77239 0.0
H332 H 0.83989 0.01203 0.80699 0.0
H333 H 0.9249 0.96947 0.10328 0.0
H334 H 0.93126 0.95925 0.99812 0.0
H335 H 0.93848 0.99201 0.02884 0.0
H336 H 0.94407 0.9533 0.72009 0.0
H337 H 0.96012 0.0332 0.78489 0.0
H338 H 0.88348 0.94853 0.81298 0.0
H339 H 0.90559 0.93773 0.8915 0.0
H340 H 0.91128 0.92887 0.78473 0.0
H341 H 0.90354 0.04623 0.89262 0.0
H342 H 0.93731 0.05559 0.88768 0.0
H343 H 0.92565 0.03492 0.97047 0.0
C344 C 0.50806 0.85939 0.03474 0.0
C345 C 0.53162 0.84591 0.0451 0.0
C346 C 0.50567 0.87963 0.97607 0.0
C347 C 0.5274 0.88657 0.92672 0.0
C348 C 0.55124 0.87297 0.93688 0.0
C349 C 0.55314 0.85301 0.9966 0.0
C350 C 0.48001 0.89388 0.96784 0.0
C351 C 0.57484 0.87972 0.88532 0.0
C352 C 0.51577 0.92476 0.72706 0.0
C353 C 0.52219 0.95033 0.75114 0.0
C354 C 0.5174 0.90382 0.78348 0.0
C355 C 0.52544 0.90855 0.86614 0.0
C356 C 0.53177 0.93432 0.89098 0.0
C357 C 0.53015 0.95485 0.8332 0.0
C358 C 0.51066 0.87658 0.75453 0.0
C359 C 0.54024 0.94023 0.97871 0.0
H360 H 0.49154 0.85427 0.07325 0.0
H361 H 0.57154 0.84298 0.00569 0.0
H362 H 0.48269 0.9149 0.9825 0.0
H363 H 0.47289 0.89271 0.90297 0.0
H364 H 0.46485 0.88577 0.00969 0.0
H365 H 0.5916 0.8666 0.89851 0.0
H366 H 0.57003 0.8784 0.81833 0.0
H367 H 0.58081 0.90019 0.89771 0.0
H368 H 0.50963 0.92105 0.66384 0.0
H369 H 0.53502 0.97453 0.85264 0.0
H370 H 0.4945 0.86859 0.79248 0.0
H371 H 0.52763 0.8634 0.76317 0.0
H372 H 0.5048 0.87615 0.68819 0.0
H373 H 0.52492 0.93403 0.02305 0.0
H374 H 0.54424 0.96136 0.98831 0.0
H375 H 0.5581 0.92898 0.99399 0.0
C376 C 0.63456 0.45689 0.00339 0.0
C377 C 0.65394 0.47582 0.01523 0.0
C378 C 0.6147 0.46047 0.94429 0.0
C379 C 0.61431 0.48351 0.89531 0.0
C380 C 0.63406 0.5025 0.90588 0.0
C381 C 0.65356 0.49849 0.96568 0.0
C382 C 0.59395 0.43977 0.93502 0.0
C383 C 0.63442 0.52728 0.85465 0.0
C384 C 0.57487 0.48665 0.69514 0.0
C385 C 0.55279 0.50067 0.72058 0.0
C386 C 0.59484 0.4804 0.75164 0.0
C387 C 0.59268 0.48844 0.83548 0.0
C388 C 0.57026 0.50227 0.86165 0.0
C389 C 0.55067 0.50827 0.80396 0.0
C390 C 0.61844 0.46562 0.72134 0.0
C391 C 0.56711 0.51108 0.9505 0.0
H392 H 0.63489 0.4393 0.04109 0.0
H393 H 0.66837 0.5133 0.97363 0.0
H394 H 0.5746 0.4482 0.94994 0.0
H395 H 0.59312 0.43289 0.86982 0.0
H396 H 0.59742 0.42264 0.97613 0.0
H397 H 0.65173 0.53958 0.86784 0.0
H398 H 0.63429 0.52243 0.78758 0.0
H399 H 0.61666 0.53897 0.86743 0.0
H400 H 0.57671 0.48082 0.63076 0.0
H401 H 0.53361 0.51896 0.8244 0.0
H402 H 0.62136 0.44768 0.75906 0.0
H403 H 0.63607 0.47788 0.72896 0.0
H404 H 0.61673 0.45995 0.65505 0.0
H405 H 0.56884 0.49407 0.99307 0.0
H406 H 0.54806 0.52079 0.96157 0.0
H407 H 0.58284 0.52498 0.96682 0.0
C408 C 0.02352 0.64158 0.00655 0.0
C409 C 0.00349 0.66023 0.00955 0.0
C410 C 0.02283 0.62082 0.94948 0.0
C411 C 1.00163 0.61878 0.89375 0.0
C412 C 0.98162 0.63784 0.89523 0.0
C413 C 0.98277 0.6583 0.95296 0.0
C414 C 0.04456 0.60086 0.94967 0.0
C415 C 0.95872 0.63641 0.83658 0.0
C416 C 0.00578 0.57683 0.6994 0.0
C417 C 0.99196 0.55449 0.72384 0.0
C418 C 0.0098 0.59764 0.7548 0.0
C419 C 0.99957 0.59611 0.83629 0.0
C420 C 0.98597 0.57341 0.86162 0.0
C421 C 0.98228 0.55293 0.80509 0.0
C422 C 0.02442 0.62152 0.72554 0.0
C423 C 0.97482 0.57095 0.94801 0.0
H424 H 0.03967 0.64318 0.04954 0.0
H425 H 0.9672 0.67259 0.95385 0.0
H426 H 0.03671 0.58135 0.96651 0.0
H427 H 0.05311 0.59912 0.8867 0.0
H428 H 0.06028 0.60594 0.99411 0.0
H429 H 0.94534 0.65338 0.84327 0.0
H430 H 0.96565 0.63565 0.77143 0.0
H431 H 0.94757 0.61821 0.84837 0.0
H432 H 0.0131 0.57823 0.63647 0.0
H433 H 0.97171 0.53566 0.82466 0.0
H434 H 0.04063 0.62595 0.76873 0.0
H435 H 0.01122 0.63873 0.72535 0.0
H436 H 0.03251 0.619 0.66212 0.0
H437 H 0.9903 0.57406 0.99493 0.0
H438 H 0.96581 0.55152 0.95915 0.0
H439 H 0.95982 0.58627 0.95787 0.0
C440 C 0.96969 0.20482 0.23617 0.0
C441 C 0.99061 0.22117 0.25648 0.0
C442 C 0.96488 0.18204 0.28211 0.0
C443 C 0.98136 0.17583 0.34966 0.0
C444 C 0.99935 0.19469 0.37879 0.0
C445 C 0.00384 0.21729 0.33138 0.0
C446 C 0.9449 0.1629 0.25064 0.0
C447 C 0.01655 0.18926 0.45274 0.0
C448 C 0.97695 0.11157 0.46832 0.0
C449 C 0.99655 0.09697 0.42905 0.0
C450 C 0.97096 0.1371 0.44182 0.0
C451 C 0.98482 0.14802 0.3743 0.0
C452 C 0.0035 0.13268 0.33146 0.0
C453 C 0.00924 0.10742 0.35981 0.0
C454 C 0.95099 0.15274 0.48931 0.0
C455 C 0.01834 0.14331 0.2577 0.0
H456 H 0.95924 0.20809 0.17855 0.0
H457 H 0.01991 0.23005 0.34741 0.0
H458 H 0.95475 0.14788 0.21207 0.0
H459 H 0.9351 0.15269 0.30277 0.0
H460 H 0.92995 0.17278 0.21176 0.0
H461 H 0.02545 0.20748 0.47715 0.0
H462 H 0.00539 0.17967 0.50318 0.0
H463 H 0.03245 0.17577 0.43406 0.0
H464 H 0.96729 0.10365 0.52263 0.0
H465 H 0.0243 0.0961 0.32924 0.0
H466 H 0.93952 0.16563 0.44755 0.0
H467 H 0.96111 0.16538 0.5349 0.0
H468 H 0.93743 0.13981 0.52394 0.0
H469 H 0.00461 0.15055 0.20966 0.0
H470 H 0.03123 0.12838 0.22903 0.0
H471 H 0.03052 0.16011 0.27732 0.0
C472 C 0.29563 0.97674 0.34373 0.0
C473 C 0.29433 0.95953 0.27647 0.0
C474 C 0.31708 0.97605 0.39763 0.0
C475 C 0.33741 0.95793 0.38242 0.0
C476 C 0.33355 0.93752 0.32462 0.0
C477 C 0.31182 0.9385 0.27221 0.0
C478 C 0.31986 0.99723 0.46199 0.0
C479 C 0.35429 0.91724 0.30854 0.0
C480 C 0.40372 0.98989 0.37953 0.0
C481 C 0.41496 0.98025 0.45229 0.0
C482 C 0.37878 0.98206 0.35537 0.0
C483 C 0.36439 0.9648 0.40703 0.0
C484 C 0.3758 0.95481 0.48057 0.0
C485 C 0.40118 0.96249 0.50195 0.0
C486 C 0.3677 0.99269 0.27505 0.0
C487 C 0.36095 0.93717 0.53885 0.0
H488 H 0.28192 0.99286 0.34755 0.0
H489 H 0.31052 0.92498 0.22058 0.0
H490 H 0.3294 0.98952 0.5188 0.0
H491 H 0.33225 0.01314 0.43677 0.0
H492 H 0.30068 0.00574 0.47897 0.0
H493 H 0.34623 0.89988 0.27617 0.0
H494 H 0.36965 0.92592 0.26868 0.0
H495 H 0.36356 0.91079 0.36731 0.0
H496 H 0.41445 0.00375 0.34174 0.0
H497 H 0.40975 0.9556 0.55952 0.0
H498 H 0.35006 0.00456 0.28791 0.0
H499 H 0.36186 0.97633 0.23398 0.0
H500 H 0.38184 0.00513 0.24093 0.0
H501 H 0.34819 0.92342 0.50467 0.0
H502 H 0.34836 0.94936 0.57929 0.0
H503 H 0.37428 0.92575 0.57941 0.0
C504 C 0.47208 0.28761 0.31603 0.0
C505 C 0.49581 0.27452 0.30592 0.0
C506 C 0.46977 0.30804 0.37323 0.0
C507 C 0.49161 0.31488 0.42208 0.0
C508 C 0.51397 0.29866 0.42202 0.0
C509 C 0.5159 0.27859 0.36306 0.0
C510 C 0.4454 0.32459 0.37207 0.0
C511 C 0.53716 0.30463 0.47605 0.0
C512 C 0.50204 0.38802 0.43871 0.0
C513 C 0.49104 0.39337 0.51611 0.0
C514 C 0.50286 0.36234 0.40836 0.0
C515 C 0.49299 0.34157 0.45777 0.0
C516 C 0.48293 0.34679 0.53759 0.0
C517 C 0.48193 0.37271 0.56566 0.0
C518 C 0.5134 0.3576 0.32209 0.0
C519 C 0.47305 0.3251 0.59294 0.0
H520 H 0.4566 0.28433 0.27147 0.0
H521 H 0.53426 0.2684 0.35503 0.0
H522 H 0.43952 0.33016 0.43584 0.0
H523 H 0.44926 0.3429 0.33702 0.0
H524 H 0.42891 0.3143 0.34184 0.0
H525 H 0.55001 0.28725 0.48321 0.0
H526 H 0.54869 0.32056 0.44715 0.0
H527 H 0.53094 0.31136 0.53837 0.0
H528 H 0.50912 0.40402 0.40068 0.0
H529 H 0.47396 0.37681 0.62658 0.0
H530 H 0.49794 0.34916 0.28222 0.0
H531 H 0.52961 0.34325 0.32444 0.0
H532 H 0.52061 0.37582 0.29233 0.0
H533 H 0.45905 0.31253 0.55915 0.0
H534 H 0.46341 0.33274 0.64962 0.0
H535 H 0.48959 0.31246 0.61196 0.0
C536 C 0.21078 0.5571 0.35387 0.0
C537 C 0.2228 0.53601 0.31395 0.0
C538 C 0.19096 0.55276 0.41199 0.0
C539 C 0.18262 0.52683 0.42742 0.0
C540 C 0.19676 0.50549 0.39411 0.0
C541 C 0.21704 0.51041 0.33835 0.0
C542 C 0.17709 0.57596 0.44931 0.0
C543 C 0.18834 0.47753 0.40821 0.0
C544 C 0.12981 0.50947 0.58176 0.0
C545 C 0.10769 0.50947 0.53069 0.0
C546 C 0.15429 0.51615 0.54991 0.0
C547 C 0.15669 0.52211 0.46465 0.0
C548 C 0.13432 0.52232 0.41299 0.0
C549 C 0.10994 0.51643 0.44715 0.0
C550 C 0.17755 0.51676 0.6071 0.0
C551 C 0.13622 0.52806 0.32114 0.0
H552 H 0.2152 0.57688 0.33403 0.0
H553 H 0.2262 0.4942 0.30616 0.0
H554 H 0.15897 0.57988 0.41393 0.0
H555 H 0.17156 0.57202 0.5147 0.0
H556 H 0.18933 0.59384 0.44703 0.0
H557 H 0.20355 0.46334 0.38867 0.0
H558 H 0.18365 0.474 0.4744 0.0
H559 H 0.17044 0.47368 0.37166 0.0
H560 H 0.12792 0.5045 0.64693 0.0
H561 H 0.09277 0.5164 0.40801 0.0
H562 H 0.18638 0.53655 0.60624 0.0
H563 H 0.19265 0.50283 0.58551 0.0
H564 H 0.1723 0.51175 0.67193 0.0
H565 H 0.14428 0.54793 0.31113 0.0
H566 H 0.11704 0.52689 0.28953 0.0
H567 H 0.1497 0.51395 0.29126 0.0
C568 C 0.96112 0.78547 0.84624 0.0
C569 C 0.9804 0.76819 0.87419 0.0
C570 C 0.96672 0.80424 0.78575 0.0
C571 C 0.99199 0.80507 0.75083 0.0
C572 C 0.01016 0.78506 0.76963 0.0
C573 C 0.00425 0.76689 0.8324 0.0
C574 C 0.94654 0.82495 0.76661 0.0
C575 C 0.03661 0.78435 0.72929 0.0
C576 C 0.99496 0.85873 0.59023 0.0
C577 C 0.00352 0.87969 0.63888 0.0
C578 C 0.99354 0.83338 0.62328 0.0
C579 C 1.00027 0.82928 0.70741 0.0
C580 C 0.01068 0.85019 0.75484 0.0
C581 C 0.0125 0.87519 0.71935 0.0
C582 C 0.98373 0.81133 0.56951 0.0
C583 C 0.01747 0.84682 0.84548 0.0
H584 H 0.94256 0.78612 0.87826 0.0
H585 H 0.0191 0.75335 0.85377 0.0
H586 H 0.95324 0.84414 0.79063 0.0
H587 H 0.94388 0.82699 0.69862 0.0
H588 H 0.92736 0.82045 0.79502 0.0
H589 H 0.04583 0.76476 0.73553 0.0
H590 H 0.03519 0.78948 0.66248 0.0
H591 H 0.04949 0.79892 0.75935 0.0
H592 H 0.98847 0.86239 0.52728 0.0
H593 H 0.01895 0.89159 0.75663 0.0
H594 H 0.96866 0.79969 0.60205 0.0
H595 H 1.00014 0.79793 0.55526 0.0
H596 H 0.97539 0.81855 0.51019 0.0
H597 H 0.99951 0.84265 0.88144 0.0
H598 H 0.02679 0.86454 0.87191 0.0
H599 H 0.03083 0.82998 0.85404 0.0
C600 C 0.71628 0.05323 0.00972 0.0
C601 C 0.73221 0.0316 0.99242 0.0
C602 C 0.69427 0.05857 0.96114 0.0
C603 C 0.68828 0.04186 0.89399 0.0
C604 C 0.70649 0.02258 0.869 0.0
C605 C 0.72834 0.01761 0.91884 0.0
C606 C 0.67577 0.07984 0.98837 0.0
C607 C 0.70118 0.00486 0.79615 0.0
C608 C 0.61912 0.01813 0.87081 0.0
C609 C 0.61112 0.03082 0.79817 0.0
C610 C 0.64378 0.02266 0.90458 0.0
C611 C 0.66102 0.0401 0.86392 0.0
C612 C 0.65255 0.05407 0.79289 0.0
C613 C 0.62755 0.04931 0.76087 0.0
C614 C 0.65176 0.00776 0.98174 0.0
C615 C 0.67027 0.07282 0.74783 0.0
H616 H 0.71958 0.06437 0.06594 0.0
H617 H 0.7407 0.00096 0.90498 0.0
H618 H 0.66702 0.08994 0.93408 0.0
H619 H 0.65971 0.07098 0.02483 0.0
H620 H 0.68566 0.09453 0.02803 0.0
H621 H 0.71904 0.99441 0.77566 0.0
H622 H 0.68644 0.99006 0.81423 0.0
H623 H 0.69322 0.01614 0.74301 0.0
H624 H 0.60634 0.00399 0.90002 0.0
H625 H 0.62146 0.05902 0.70418 0.0
H626 H 0.65874 0.02149 0.03007 0.0
H627 H 0.66806 0.99428 0.96689 0.0
H628 H 0.63553 0.99608 0.00813 0.0
H629 H 0.6823 0.08424 0.79192 0.0
H630 H 0.65909 0.08661 0.70802 0.0
H631 H 0.68369 0.06156 0.70743 0.0
C632 C 0.48029 0.72599 0.9337 0.0
C633 C 0.50615 0.73438 0.9283 0.0
C634 C 0.47161 0.70469 0.88659 0.0
C635 C 0.48946 0.69152 0.83442 0.0
C636 C 0.51432 0.70254 0.81961 0.0
C637 C 0.52239 0.72402 0.86698 0.0
C638 C 0.44461 0.69417 0.90151 0.0
C639 C 0.53373 0.68945 0.76296 0.0
C640 C 0.49191 0.61766 0.84574 0.0
C641 C 0.48277 0.61049 0.7672 0.0
C642 C 0.49309 0.64398 0.86932 0.0
C643 C 0.48488 0.66367 0.81284 0.0
C644 C 0.47418 0.65651 0.73532 0.0
C645 C 0.47327 0.62995 0.71331 0.0
C646 C 0.50434 0.65073 0.95335 0.0
C647 C 0.46503 0.67679 0.67359 0.0
H648 H 0.46781 0.73403 0.98163 0.0
H649 H 0.54246 0.73048 0.8635 0.0
H650 H 0.43603 0.68653 0.84324 0.0
H651 H 0.44566 0.67777 0.94662 0.0
H652 H 0.43151 0.70943 0.92738 0.0
H653 H 0.55013 0.70267 0.74705 0.0
H654 H 0.5418 0.67186 0.79436 0.0
H655 H 0.52424 0.68293 0.70479 0.0
H656 H 0.49908 0.60273 0.88787 0.0
H657 H 0.4662 0.6246 0.65228 0.0
H658 H 0.49044 0.663 0.98883 0.0
H659 H 0.52247 0.66224 0.94534 0.0
H660 H 0.50896 0.63307 0.99089 0.0
H661 H 0.4511 0.66835 0.62826 0.0
H662 H 0.48202 0.68432 0.63849 0.0
H663 H 0.45563 0.69363 0.70503 0.0
C664 C 0.76958 0.46456 0.87273 0.0
C665 C 0.7627 0.49036 0.89227 0.0
C666 C 0.79256 0.45932 0.82896 0.0
C667 C 0.80828 0.48047 0.80317 0.0
C668 C 0.79854 0.50634 0.80827 0.0
C669 C 0.77584 0.51108 0.85409 0.0
C670 C 0.80176 0.43142 0.82083 0.0
C671 C 0.81388 0.52922 0.77525 0.0
C672 C 0.88079 0.47897 0.84362 0.0
C673 C 0.89075 0.47446 0.7643 0.0
C674 C 0.85387 0.47946 0.85742 0.0
C675 C 0.83654 0.47632 0.78946 0.0
C676 C 0.84654 0.47078 0.70968 0.0
C677 C 0.87356 0.46952 0.69841 0.0
C678 C 0.84402 0.48434 0.94442 0.0
C679 C 0.82934 0.4672 0.63466 0.0
H680 H 0.75927 0.44856 0.90235 0.0
H681 H 0.7704 0.53103 0.86906 0.0
H682 H 0.80992 0.42797 0.75804 0.0
H683 H 0.81748 0.42769 0.86667 0.0
H684 H 0.78579 0.41723 0.83221 0.0
H685 H 0.80156 0.547 0.7689 0.0
H686 H 0.83007 0.53368 0.81855 0.0
H687 H 0.82249 0.52442 0.71392 0.0
H688 H 0.89407 0.4827 0.89453 0.0
H689 H 0.88115 0.46623 0.63659 0.0
H690 H 0.82917 0.46953 0.96146 0.0
H691 H 0.83462 0.50387 0.94744 0.0
H692 H 0.85988 0.48367 0.99125 0.0
H693 H 0.80824 0.46822 0.64855 0.0
H694 H 0.83361 0.44793 0.60603 0.0
H695 H 0.83405 0.48241 0.58772 0.0
C696 C 0.05099 0.19221 0.01502 0.0
C697 C 0.03777 0.21521 0.99309 0.0
C698 C 0.05199 0.17089 0.96074 0.0
C699 C 0.03969 0.17285 0.88241 0.0
C700 C 0.02926 0.19721 0.8561 0.0
C701 C 0.02827 0.2182 0.91228 0.0
C702 C 0.06326 0.14537 0.99172 0.0
C703 C 0.01654 0.20026 0.77224 0.0
C704 C 0.04325 0.11414 0.73758 0.0
C705 C 0.0195 0.10176 0.75482 0.0
C706 C 0.05008 0.13759 0.77753 0.0
C707 C 0.03294 0.14851 0.83691 0.0
C708 C 0.00917 0.13575 0.85545 0.0
C709 C 0.00267 0.1127 0.81361 0.0
C710 C 0.07536 0.15085 0.75544 0.0
C711 C 0.99055 0.14641 0.91971 0.0
H712 H 0.05834 0.19002 0.07779 0.0
H713 H 0.01797 0.23599 0.89558 0.0
H714 H 0.04716 0.13225 0.01097 0.0
H715 H 0.07435 0.13528 0.94216 0.0
H716 H 0.07627 0.14832 0.04598 0.0
H717 H 0.01441 0.22118 0.75455 0.0
H718 H 0.02792 0.19002 0.7236 0.0
H719 H 0.99688 0.19134 0.77398 0.0
H720 H 0.05616 0.10587 0.6913 0.0
H721 H 0.98434 0.10313 0.82723 0.0
H722 H 0.08741 0.15359 0.81186 0.0
H723 H 0.07132 0.17059 0.72962 0.0
H724 H 0.08679 0.13954 0.70924 0.0
H725 H 1.0005 0.14807 0.98059 0.0
H726 H 0.97309 0.13387 0.92763 0.0
H727 H 0.98402 0.16632 0.90157 0.0
C728 C 0.30893 0.98724 0.91922 0.0
C729 C 0.30939 0.99696 0.00038 0.0
C730 C 0.33089 0.98964 0.86741 0.0
C731 C 0.35373 0.00187 0.89807 0.0
C732 C 0.35339 0.01355 0.97757 0.0
C733 C 0.33119 0.01109 0.02742 0.0
C734 C 0.33034 0.9773 0.78243 0.0
C735 C 0.37722 0.02666 0.01315 0.0
C736 C 0.4185 0.97469 0.82362 0.0
C737 C 0.42673 0.9939 0.76734 0.0
C738 C 0.39492 0.97724 0.86678 0.0
C739 C 0.37889 0.99938 0.85247 0.0
C740 C 0.38723 0.01905 0.79649 0.0
C741 C 0.41117 0.01618 0.75497 0.0
C742 C 0.38707 0.95602 0.92717 0.0
C743 C 0.37058 0.0428 0.77905 0.0
H744 H 0.29216 0.97622 0.89838 0.0
H745 H 0.33149 0.01874 0.09016 0.0
H746 H 0.33889 0.99068 0.73552 0.0
H747 H 0.34228 0.95919 0.78296 0.0
H748 H 0.31026 0.97215 0.76297 0.0
H749 H 0.39212 0.01159 0.02777 0.0
H750 H 0.38588 0.04033 0.9674 0.0
H751 H 0.37276 0.03761 0.07093 0.0
H752 H 0.43043 0.95744 0.83338 0.0
H753 H 0.41724 0.03091 0.71055 0.0
H754 H 0.36846 0.94706 0.90706 0.0
H755 H 0.38382 0.96453 0.98962 0.0
H756 H 0.40198 0.94033 0.93244 0.0
H757 H 0.35172 0.0366 0.75203 0.0
H758 H 0.38011 0.05664 0.73542 0.0
H759 H 0.36619 0.05325 0.83767 0.0
C760 C 0.52962 0.32455 0.05306 0.0
C761 C 0.51842 0.30136 0.02301 0.0
C762 C 0.53018 0.34736 0.00496 0.0
C763 C 0.51999 0.34687 0.92354 0.0
C764 C 0.51008 0.32315 0.89075 0.0
C765 C 0.50928 0.30062 0.94117 0.0
C766 C 0.54085 0.37221 0.04248 0.0
C767 C 0.4996 0.32182 0.8034 0.0
C768 C 0.49767 0.41124 0.82756 0.0
C769 C 0.5192 0.41787 0.77854 0.0
C770 C 0.4977 0.38821 0.87548 0.0
C771 C 0.51962 0.37133 0.87335 0.0
C772 C 0.54157 0.37822 0.82527 0.0
C773 C 0.54119 0.4015 0.77924 0.0
C774 C 0.47417 0.38178 0.9277 0.0
C775 C 0.56526 0.36073 0.82098 0.0
H776 H 0.53727 0.32508 0.11577 0.0
H777 H 0.50059 0.2828 0.91773 0.0
H778 H 0.55697 0.37993 0.00386 0.0
H779 H 0.52542 0.38743 0.04386 0.0
H780 H 0.54816 0.36921 0.1067 0.0
H781 H 0.49416 0.3016 0.78531 0.0
H782 H 0.48215 0.33452 0.79789 0.0
H783 H 0.51427 0.3293 0.75879 0.0
H784 H 0.4806 0.42373 0.82717 0.0
H785 H 0.55799 0.40645 0.74175 0.0
H786 H 0.48003 0.37919 0.99351 0.0
H787 H 0.46555 0.36303 0.90682 0.0
H788 H 0.45899 0.39726 0.92429 0.0
H789 H 0.57361 0.35793 0.88385 0.0
H790 H 0.58063 0.36881 0.77983 0.0
H791 H 0.55963 0.34113 0.79763 0.0
C792 C 0.18413 0.56206 0.02232 0.0
C793 C 0.20344 0.54265 0.01772 0.0
C794 C 0.16139 0.56053 0.97453 0.0
C795 C 0.15799 0.53929 0.91942 0.0
C796 C 0.17806 0.52033 0.91116 0.0
C797 C 0.20056 0.52226 0.96053 0.0
C798 C 0.1404 0.58092 0.98639 0.0
C799 C 0.1757 0.49709 0.85405 0.0
C800 C 0.08868 0.52071 0.85916 0.0
C801 C 0.08558 0.53444 0.7845 0.0
C802 C 0.11219 0.5221 0.90387 0.0
C803 C 0.13321 0.53699 0.87191 0.0
C804 C 0.13033 0.55029 0.79545 0.0
C805 C 0.10644 0.54929 0.75366 0.0
C806 C 0.11465 0.50751 0.98497 0.0
C807 C 0.15253 0.56544 0.75727 0.0
H808 H 0.18633 0.57789 0.06647 0.0
H809 H 0.2152 0.50698 0.95756 0.0
H810 H 0.13582 0.59055 0.9264 0.0
H811 H 0.12228 0.5714 0.00858 0.0
H812 H 0.14609 0.5962 0.03177 0.0
H813 H 0.17324 0.47912 0.89202 0.0
H814 H 0.15912 0.49852 0.81029 0.0
H815 H 0.19394 0.49468 0.81786 0.0
H816 H 0.07273 0.509 0.88268 0.0
H817 H 0.10446 0.55949 0.69494 0.0
H818 H 0.12024 0.52124 0.03519 0.0
H819 H 0.13032 0.49262 0.97997 0.0
H820 H 0.09629 0.49755 0.00284 0.0
H821 H 0.15557 0.58381 0.79241 0.0
H822 H 0.14871 0.57056 0.69132 0.0
H823 H 0.17088 0.55399 0.76064 0.0
C824 C 0.98625 0.79012 0.23523 0.0
C825 C 0.96835 0.78703 0.17052 0.0
C826 C 0.98722 0.81361 0.28037 0.0
C827 C 0.97026 0.83451 0.25871 0.0
C828 C 0.95056 0.83044 0.19892 0.0
C829 C 0.94957 0.80655 0.15665 0.0
C830 C 0.00795 0.81661 0.34597 0.0
C831 C 0.9321 0.85208 0.17396 0.0
C832 C 0.96742 0.8965 0.38907 0.0
C833 C 0.98811 0.91093 0.35544 0.0
C834 C 0.96134 0.87147 0.35905 0.0
C835 C 0.97524 0.86138 0.29025 0.0
C836 C 0.99455 0.87695 0.25143 0.0
C837 C 1.00112 0.90127 0.28557 0.0
C838 C 0.94058 0.85587 0.40322 0.0
C839 C 0.00888 0.86759 0.17519 0.0
H840 H 1.00076 0.77508 0.24639 0.0
H841 H 0.9354 0.80394 0.10749 0.0
H842 H 0.02642 0.82267 0.31594 0.0
H843 H 0.0027 0.83155 0.3929 0.0
H844 H 0.01159 0.79769 0.37804 0.0
H845 H 0.92148 0.8594 0.22908 0.0
H846 H 0.94328 0.86873 0.14777 0.0
H847 H 0.91766 0.84558 0.12706 0.0
H848 H 0.95695 0.90395 0.44231 0.0
H849 H 0.01696 0.91246 0.25883 0.0
H850 H 0.94315 0.83446 0.39556 0.0
H851 H 0.92125 0.86143 0.37808 0.0
H852 H 0.94041 0.86039 0.47065 0.0
H853 H 0.02187 0.85105 0.19206 0.0
H854 H 0.0209 0.88327 0.14677 0.0
H855 H 0.99489 0.86037 0.12802 0.0
C856 C 0.72362 0.01221 0.3239 0.0
C857 C 0.73144 0.99231 0.26972 0.0
C858 C 0.70108 0.00956 0.37239 0.0
C859 C 0.68588 0.98656 0.36561 0.0
C860 C 0.69526 0.96534 0.31759 0.0
C861 C 0.71799 0.9685 0.26993 0.0
C862 C 0.69209 0.03254 0.42368 0.0
C863 C 0.67991 0.94036 0.30951 0.0
C864 C 0.62664 0.98313 0.50785 0.0
C865 C 0.60751 0.99497 0.45795 0.0
C866 C 0.65206 0.97905 0.47777 0.0
C867 C 0.6584 0.98684 0.39581 0.0
C868 C 0.63868 0.99725 0.34371 0.0
C869 C 0.61357 0.00128 0.37552 0.0
C870 C 0.67243 0.96791 0.5354 0.0
C871 C 0.64441 0.00554 0.25547 0.0
H872 H 0.73384 0.03075 0.3227 0.0
H873 H 0.72378 0.95329 0.22688 0.0
H874 H 0.6755 0.04229 0.39202 0.0
H875 H 0.6852 0.02595 0.48547 0.0
H876 H 0.70779 0.04719 0.43249 0.0
H877 H 0.69198 0.92419 0.28415 0.0
H878 H 0.67187 0.93424 0.37041 0.0
H879 H 0.66325 0.94367 0.26687 0.0
H880 H 0.62219 0.97838 0.57189 0.0
H881 H 0.59887 0.01029 0.3365 0.0
H882 H 0.68495 0.95354 0.50266 0.0
H883 H 0.66356 0.95826 0.59035 0.0
H884 H 0.68516 0.98394 0.55762 0.0
H885 H 0.65815 0.02226 0.25565 0.0
H886 H 0.62656 0.01152 0.22137 0.0
H887 H 0.65386 0.98932 0.22105 0.0
C888 C 0.55451 0.69302 0.1817 0.0
C889 C 0.54169 0.71619 0.20418 0.0
C890 C 0.55245 0.6704 0.2305 0.0
C891 C 0.5372 0.67105 0.30355 0.0
C892 C 0.52653 0.69516 0.33096 0.0
C893 C 0.52885 0.71754 0.28059 0.0
C894 C 0.56427 0.64525 0.199 0.0
C895 C 0.51046 0.69674 0.40917 0.0
C896 C 0.49662 0.6112 0.35354 0.0
C897 C 0.51038 0.6 0.41975 0.0
C898 C 0.50557 0.63394 0.31418 0.0
C899 C 0.52869 0.64606 0.34254 0.0
C900 C 0.54313 0.63443 0.4078 0.0
C901 C 0.53387 0.61139 0.4454 0.0
C902 C 0.48987 0.64536 0.24345 0.0
C903 C 0.5678 0.64681 0.4398 0.0
H904 H 0.56441 0.69204 0.12233 0.0
H905 H 0.51878 0.73541 0.29753 0.0
H906 H 0.57318 0.63389 0.25042 0.0
H907 H 0.54875 0.63299 0.17121 0.0
H908 H 0.5793 0.6489 0.15083 0.0
H909 H 0.50725 0.7173 0.42899 0.0
H910 H 0.49121 0.68757 0.39814 0.0
H911 H 0.52 0.68585 0.46051 0.0
H912 H 0.47851 0.60241 0.33338 0.0
H913 H 0.54444 0.60297 0.49724 0.0
H914 H 0.50225 0.64746 0.18744 0.0
H915 H 0.48282 0.66518 0.26035 0.0
H916 H 0.47279 0.63308 0.22729 0.0
H917 H 0.57792 0.6342 0.48589 0.0
H918 H 0.56308 0.66579 0.46963 0.0
H919 H 0.58133 0.65098 0.38782 0.0
C920 C 0.78092 0.50303 0.2646 0.0
C921 C 0.78225 0.49018 0.18787 0.0
C922 C 0.80211 0.50223 0.32034 0.0
C923 C 0.82526 0.48883 0.29767 0.0
C924 C 0.82636 0.47536 0.22127 0.0
C925 C 0.8047 0.47559 0.16882 0.0
C926 C 0.79991 0.51594 0.40285 0.0
C927 C 0.85061 0.46095 0.19396 0.0
C928 C 0.8913 0.50383 0.39403 0.0
C929 C 0.89521 0.48163 0.44365 0.0
C930 C 0.86815 0.507 0.34815 0.0
C931 C 0.84826 0.48785 0.354 0.0
C932 C 0.85177 0.46599 0.40673 0.0
C933 C 0.87525 0.46301 0.45002 0.0
C934 C 0.86545 0.53019 0.29067 0.0
C935 C 0.8309 0.44541 0.41615 0.0
H936 H 0.76367 0.51423 0.28009 0.0
H937 H 0.80562 0.4647 0.11124 0.0
H938 H 0.80425 0.50204 0.45403 0.0
H939 H 0.81446 0.53189 0.40647 0.0
H940 H 0.78023 0.52441 0.41291 0.0
H941 H 0.84867 0.45256 0.13071 0.0
H942 H 0.86752 0.47442 0.19434 0.0
H943 H 0.85501 0.44481 0.23789 0.0
H944 H 0.9066 0.51832 0.38922 0.0
H945 H 0.87787 0.44602 0.48957 0.0
H946 H 0.84696 0.5407 0.30308 0.0
H947 H 0.86473 0.52328 0.22545 0.0
H948 H 0.88186 0.54415 0.29706 0.0
H949 H 0.81259 0.45465 0.43805 0.0
H950 H 0.83653 0.42975 0.46055 0.0
H951 H 0.8267 0.43623 0.35532 0.0
loop_
_geom_bond_atom_site_label_1
_geom_bond_atom_site_label_2
_geom_bond_distance
_geom_bond_site_symmetry_2
_ccdc_geom_bond_type
H0 C7 0.929 . S
H1 C10 0.930 . S
H2 C12 0.929 . S
H3 C4 0.969 . S
C4 H3 0.969 . S
C4 O5 1.550 1_556 S
C4 H6 0.973 . S
O5 C4 1.550 1_554 S
O5 C11 1.412 . S
H6 C4 0.973 . S
C7 H0 0.929 . S
C7 C8 1.400 . S
C7 C9 1.364 1_554 S
C8 C7 1.400 . S
C8 C12 1.377 . S
C9 C7 1.364 1_556 S
C9 C10 1.374 . S
C10 H1 0.930 . S
C10 C9 1.374 . S
C10 C11 1.383 1_556 S
C11 O5 1.412 . S
C11 C10 1.383 1_554 S
C11 C12 1.394 . S
C12 H2 0.929 . S
C12 C8 1.377 . S
C12 C11 1.394 . S
H13 C20 0.929 . S
H14 C23 0.930 . S
H15 C25 0.929 . S
H16 C17 0.969 . S
C17 H16 0.969 . S
C17 O18 1.550 1_556 S
C17 H19 0.973 . S
O18 C17 1.550 1_554 S
O18 C24 1.412 . S
H19 C17 0.973 . S
C20 H13 0.929 . S
C20 C21 1.400 . S
C20 C22 1.364 1_554 S
C21 C20 1.400 . S
C21 C25 1.377 . S
C22 C20 1.364 1_556 S
C22 C23 1.374 . S
C23 H14 0.930 . S
C23 C22 1.374 . S
C23 C24 1.383 1_556 S
C24 O18 1.412 . S
C24 C23 1.383 1_554 S
C24 C25 1.394 . S
C25 H15 0.929 . S
C25 C21 1.377 . S
C25 C24 1.394 . S
H26 C33 0.928 1_565 S
H27 C36 0.931 . S
H28 C38 0.928 1_565 S
H29 C30 0.969 . S
C30 H29 0.969 . S
C30 O31 1.550 1_546 S
C30 H32 0.973 1_545 S
O31 C30 1.550 1_564 S
O31 C37 1.405 1_565 S
H32 C30 0.973 1_565 S
C33 H26 0.928 1_545 S
C33 C34 1.399 . S
C33 C35 1.364 1_554 S
C34 C33 1.399 . S
C34 C38 1.377 . S
C35 C33 1.364 1_556 S
C35 C36 1.374 1_545 S
C36 H27 0.931 . S
C36 C35 1.374 1_565 S
C36 C37 1.382 1_566 S
C37 O31 1.405 1_545 S
C37 C36 1.382 1_544 S
C37 C38 1.394 . S
C38 H28 0.928 1_545 S
C38 C34 1.377 . S
C38 C37 1.394 . S
H39 C46 0.929 . S
H40 C49 0.930 . S
H41 C51 0.929 . S
H42 C43 0.969 . S
C43 H42 0.969 . S
C43 O44 1.550 1_556 S
C43 H45 0.973 . S
O44 C43 1.550 1_554 S
O44 C50 1.412 . S
H45 C43 0.973 . S
C46 H39 0.929 . S
C46 C47 1.400 . S
C46 C48 1.364 1_554 S
C47 C46 1.400 . S
C47 C51 1.377 . S
C48 C46 1.364 1_556 S
C48 C49 1.374 . S
C49 H40 0.930 . S
C49 C48 1.374 . S
C49 C50 1.383 1_556 S
C50 O44 1.412 . S
C50 C49 1.383 1_554 S
C50 C51 1.394 . S
C51 H41 0.929 . S
C51 C47 1.377 . S
C51 C50 1.394 . S
H52 C59 0.929 . S
H53 C62 0.930 . S
H54 C64 0.929 . S
H55 C56 0.969 . S
C56 H55 0.969 . S
C56 O57 1.550 . S
C56 H58 0.973 . S
O57 C56 1.550 . S
O57 C63 1.412 . S
H58 C56 0.973 . S
C59 H52 0.929 . S
C59 C60 1.400 . S
C59 C61 1.364 . S
C60 C59 1.400 . S
C60 C64 1.377 . S
C61 C59 1.364 . S
C61 C62 1.374 . S
C62 H53 0.930 . S
C62 C61 1.374 . S
C62 C63 1.383 . S
C63 O57 1.412 . S
C63 C62 1.383 . S
C63 C64 1.394 . S
C64 H54 0.929 . S
C64 C60 1.377 . S
C64 C63 1.394 . S
H65 C72 0.929 . S
H66 C75 0.930 . S
H67 C77 0.929 . S
H68 C69 0.969 . S
C69 H68 0.969 . S
C69 O70 1.550 . S
C69 H71 0.973 . S
O70 C69 1.550 . S
O70 C76 1.412 . S
H71 C69 0.973 . S
C72 H65 0.929 . S
C72 C73 1.400 . S
C72 C74 1.364 . S
C73 C72 1.400 . S
C73 C77 1.377 . S
C74 C72 1.364 . S
C74 C75 1.374 . S
C75 H66 0.930 . S
C75 C74 1.374 . S
C75 C76 1.383 . S
C76 O70 1.412 . S
C76 C75 1.383 . S
C76 C77 1.394 . S
C77 H67 0.929 . S
C77 C73 1.377 . S
C77 C76 1.394 . S
H78 C85 0.928 1_565 S
H79 C88 0.930 . S
H80 C90 0.928 1_565 S
H81 C82 0.969 . S
C82 H81 0.969 . S
C82 O83 1.550 1_545 S
C82 H84 0.973 1_545 S
O83 C82 1.550 1_565 S
O83 C89 1.402 1_565 S
H84 C82 0.973 1_565 S
C85 H78 0.928 1_545 S
C85 C86 1.400 . S
C85 C87 1.364 . S
C86 C85 1.400 . S
C86 C90 1.377 . S
C87 C85 1.364 . S
C87 C88 1.374 1_545 S
C88 H79 0.930 . S
C88 C87 1.374 1_565 S
C88 C89 1.382 1_565 S
C89 O83 1.402 1_545 S
C89 C88 1.382 1_545 S
C89 C90 1.394 . S
C90 H80 0.928 1_545 S
C90 C86 1.377 . S
C90 C89 1.394 . S
H91 C98 0.929 . S
H92 C101 0.930 . S
H93 C103 0.929 . S
H94 C95 0.969 . S
C95 H94 0.969 . S
C95 O96 1.550 . S
C95 H97 0.973 . S
O96 C95 1.550 . S
O96 C102 1.412 . S
H97 C95 0.973 . S
C98 H91 0.929 . S
C98 C99 1.400 . S
C98 C100 1.364 . S
C99 C98 1.400 . S
C99 C103 1.377 . S
C100 C98 1.364 . S
C100 C101 1.374 . S
C101 H92 0.930 . S
C101 C100 1.374 . S
C101 C102 1.383 . S
C102 O96 1.412 . S
C102 C101 1.383 . S
C102 C103 1.394 . S
C103 H93 0.929 . S
C103 C99 1.377 . S
C103 C102 1.394 . S
Zn104 O110 1.969 1_455 S
Zn104 O111 1.965 . S
Zn104 O115 2.024 . S
Zn104 O120 1.969 1_455 S
Zn105 O112 1.986 . S
Zn105 O118 1.976 . S
Zn105 O119 1.957 1_455 S
Zn105 O121 2.013 1_455 S
C106 O107 1.229 . S
C106 O115 1.058 . S
O107 C106 1.229 . S
C108 O109 1.229 1_655 S
C108 O121 1.058 . S
O109 C108 1.229 1_455 S
O110 Zn104 1.969 1_655 S
O110 C113 1.267 1_655 S
O111 Zn104 1.965 . S
O111 C122 1.260 1_545 S
O112 Zn105 1.986 . S
O112 C122 1.258 . S
C113 O110 1.267 1_455 S
C113 O114 1.228 . S
O114 C113 1.228 . S
O115 Zn104 2.024 . S
O115 C106 1.058 . S
C116 O117 1.228 . S
C116 O118 1.267 1_655 S
O117 C116 1.228 . S
O118 Zn105 1.976 . S
O118 C116 1.267 1_455 S
O119 Zn105 1.957 1_655 S
O119 C123 1.260 1_565 S
O120 Zn104 1.969 1_655 S
O120 C123 1.258 . S
O121 Zn105 2.013 1_655 S
O121 C108 1.058 . S
C122 O111 1.260 1_565 S
C122 O112 1.258 . S
C123 O119 1.260 1_545 S
C123 O120 1.258 . S
Zn124 O130 1.969 . S
Zn124 O131 1.965 1_565 S
Zn124 O135 2.024 1_565 S
Zn124 O140 1.969 . S
Zn125 O132 1.969 . S
Zn125 O138 1.969 . S
Zn125 O139 1.965 1_545 S
Zn125 O141 2.024 1_545 S
C126 O127 1.229 1_545 S
C126 O135 1.058 . S
O127 C126 1.229 1_565 S
C128 O129 1.229 1_565 S
C128 O141 1.058 . S
O129 C128 1.229 1_545 S
O130 Zn124 1.969 . S
O130 C133 1.267 . S
O131 Zn124 1.965 1_545 S
O131 C142 1.260 . S
O132 Zn125 1.969 . S
O132 C142 1.258 . S
C133 O130 1.267 . S
C133 O134 1.228 1_565 S
O134 C133 1.228 1_545 S
O135 Zn124 2.024 1_545 S
O135 C126 1.058 . S
C136 O137 1.228 1_545 S
C136 O138 1.267 . S
O137 C136 1.228 1_565 S
O138 Zn125 1.969 . S
O138 C136 1.267 . S
O139 Zn125 1.965 1_565 S
O139 C143 1.260 . S
O140 Zn124 1.969 . S
O140 C143 1.258 . S
O141 Zn125 2.024 1_565 S
O141 C128 1.058 . S
C142 O131 1.260 . S
C142 O132 1.258 . S
C143 O139 1.260 . S
C143 O140 1.258 . S
Zn144 O150 1.969 . S
Zn144 O151 1.965 . S
Zn144 O155 2.024 . S
Zn144 O160 1.969 . S
Zn145 O152 1.969 . S
Zn145 O158 1.969 . S
Zn145 O159 1.965 . S
Zn145 O161 2.024 . S
C146 O147 1.229 . S
C146 O155 1.058 . S
O147 C146 1.229 . S
C148 O149 1.229 . S
C148 O161 1.058 . S
O149 C148 1.229 . S
O150 Zn144 1.969 . S
O150 C153 1.267 . S
O151 Zn144 1.965 . S
O151 C162 1.260 . S
O152 Zn145 1.969 . S
O152 C162 1.258 . S
C153 O150 1.267 . S
C153 O154 1.228 . S
O154 C153 1.228 . S
O155 Zn144 2.024 . S
O155 C146 1.058 . S
C156 O157 1.228 . S
C156 O158 1.267 . S
O157 C156 1.228 . S
O158 Zn145 1.969 . S
O158 C156 1.267 . S
O159 Zn145 1.965 . S
O159 C163 1.260 . S
O160 Zn144 1.969 . S
O160 C163 1.258 . S
O161 Zn145 2.024 . S
O161 C148 1.058 . S
C162 O151 1.260 . S
C162 O152 1.258 . S
C163 O159 1.260 . S
C163 O160 1.258 . S
Zn164 O170 1.969 . S
Zn164 O171 1.965 . S
Zn164 O175 2.024 . S
Zn164 O180 1.969 . S
Zn165 O172 1.969 . S
Zn165 O178 1.969 . S
Zn165 O179 1.965 . S
Zn165 O181 2.024 . S
C166 O167 1.229 . S
C166 O175 1.058 . S
O167 C166 1.229 . S
C168 O169 1.229 . S
C168 O181 1.058 . S
O169 C168 1.229 . S
O170 Zn164 1.969 . S
O170 C173 1.267 . S
O171 Zn164 1.965 . S
O171 C182 1.260 . S
O172 Zn165 1.969 . S
O172 C182 1.258 1_655 S
C173 O170 1.267 . S
C173 O174 1.228 . S
O174 C173 1.228 . S
O175 Zn164 2.024 . S
O175 C166 1.058 . S
C176 O177 1.228 . S
C176 O178 1.267 . S
O177 C176 1.228 . S
O178 Zn165 1.969 . S
O178 C176 1.267 . S
O179 Zn165 1.965 . S
O179 C183 1.260 1_655 S
O180 Zn164 1.969 . S
O180 C183 1.258 . S
O181 Zn165 2.024 . S
O181 C168 1.058 . S
C182 O171 1.260 . S
C182 O172 1.258 1_455 S
C183 O179 1.260 1_455 S
C183 O180 1.258 . S
C184 C185 1.391 . S
C184 C186 1.394 . S
C184 H200 0.931 . S
C185 C184 1.391 . S
C185 C189 1.376 1_565 S
C186 C184 1.394 . S
C186 C187 1.369 . S
C186 C190 1.531 . S
C187 C186 1.369 . S
C187 C188 1.410 1_565 S
C187 C195 1.503 . S
C188 C187 1.410 1_545 S
C188 C189 1.392 . S
C188 C191 1.511 . S
C189 C185 1.376 1_545 S
C189 C188 1.392 . S
C189 H201 0.929 . S
C190 C186 1.531 . S
C190 H202 0.960 . S
C190 H203 0.962 . S
C190 H204 0.960 . S
C191 C188 1.511 . S
C191 H205 0.961 . S
C191 H206 0.961 . S
C191 H207 0.961 . S
C192 C193 1.370 1_545 S
C192 C194 1.363 . S
C192 H208 0.931 . S
C193 C192 1.370 1_565 S
C193 C197 1.408 . S
C194 C192 1.363 . S
C194 C195 1.370 1_545 S
C194 C198 1.524 . S
C195 C187 1.503 . S
C195 C194 1.370 1_565 S
C195 C196 1.403 . S
C196 C195 1.403 . S
C196 C197 1.404 . S
C196 C199 1.539 . S
C197 C193 1.408 . S
C197 C196 1.404 . S
C197 H209 0.930 . S
C198 C194 1.524 . S
C198 H210 0.956 . S
C198 H211 0.961 . S
C198 H212 0.961 . S
C199 C196 1.539 . S
C199 H213 0.958 . S
C199 H214 0.961 . S
C199 H215 0.960 . S
H200 C184 0.931 . S
H201 C189 0.929 . S
H202 C190 0.960 . S
H203 C190 0.962 . S
H204 C190 0.960 . S
H205 C191 0.961 . S
H206 C191 0.961 . S
H207 C191 0.961 . S
H208 C192 0.931 . S
H209 C197 0.930 . S
H210 C198 0.956 . S
H211 C198 0.961 . S
H212 C198 0.961 . S
H213 C199 0.958 . S
H214 C199 0.961 . S
H215 C199 0.960 . S
C216 C217 1.391 . S
C216 C218 1.394 . S
C216 H232 0.931 . S
C217 C216 1.391 . S
C217 C221 1.376 . S
C218 C216 1.394 . S
C218 C219 1.369 . S
C218 C222 1.531 . S
C219 C218 1.369 . S
C219 C220 1.410 . S
C219 C227 1.503 . S
C220 C219 1.410 . S
C220 C221 1.392 . S
C220 C223 1.511 . S
C221 C217 1.376 . S
C221 C220 1.392 . S
C221 H233 0.929 . S
C222 C218 1.531 . S
C222 H234 0.960 . S
C222 H235 0.962 . S
C222 H236 0.960 . S
C223 C220 1.511 . S
C223 H237 0.961 . S
C223 H238 0.961 . S
C223 H239 0.961 . S
C224 C225 1.370 . S
C224 C226 1.363 . S
C224 H240 0.931 . S
C225 C224 1.370 . S
C225 C229 1.408 . S
C226 C224 1.363 . S
C226 C227 1.370 . S
C226 C230 1.524 . S
C227 C219 1.503 . S
C227 C226 1.370 . S
C227 C228 1.403 . S
C228 C227 1.403 . S
C228 C229 1.404 . S
C228 C231 1.539 . S
C229 C225 1.408 . S
C229 C228 1.404 . S
C229 H241 0.930 . S
C230 C226 1.524 . S
C230 H242 0.956 . S
C230 H243 0.961 . S
C230 H244 0.961 . S
C231 C228 1.539 . S
C231 H245 0.958 . S
C231 H246 0.961 . S
C231 H247 0.960 . S
H232 C216 0.931 . S
H233 C221 0.929 . S
H234 C222 0.960 . S
H235 C222 0.962 . S
H236 C222 0.960 . S
H237 C223 0.961 . S
H238 C223 0.961 . S
H239 C223 0.961 . S
H240 C224 0.931 . S
H241 C229 0.930 . S
H242 C230 0.956 . S
H243 C230 0.961 . S
H244 C230 0.961 . S
H245 C231 0.958 . S
H246 C231 0.961 . S
H247 C231 0.960 . S
C248 C249 1.391 . S
C248 C250 1.394 . S
C248 H264 0.931 . S
C249 C248 1.391 . S
C249 C253 1.376 . S
C250 C248 1.394 . S
C250 C251 1.369 . S
C250 C254 1.531 . S
C251 C250 1.369 . S
C251 C252 1.410 . S
C251 C259 1.503 . S
C252 C251 1.410 . S
C252 C253 1.392 . S
C252 C255 1.511 . S
C253 C249 1.376 . S
C253 C252 1.392 . S
C253 H265 0.929 . S
C254 C250 1.531 . S
C254 H266 0.960 . S
C254 H267 0.962 . S
C254 H268 0.960 . S
C255 C252 1.511 . S
C255 H269 0.961 . S
C255 H270 0.961 . S
C255 H271 0.961 . S
C256 C257 1.370 . S
C256 C258 1.363 . S
C256 H272 0.931 . S
C257 C256 1.370 . S
C257 C261 1.408 . S
C258 C256 1.363 . S
C258 C259 1.370 . S
C258 C262 1.524 . S
C259 C251 1.503 . S
C259 C258 1.370 . S
C259 C260 1.403 . S
C260 C259 1.403 . S
C260 C261 1.404 . S
C260 C263 1.539 . S
C261 C257 1.408 . S
C261 C260 1.404 . S
C261 H273 0.930 . S
C262 C258 1.524 . S
C262 H274 0.956 . S
C262 H275 0.961 . S
C262 H276 0.961 . S
C263 C260 1.539 . S
C263 H277 0.958 . S
C263 H278 0.961 . S
C263 H279 0.960 . S
H264 C248 0.931 . S
H265 C253 0.929 . S
H266 C254 0.960 . S
H267 C254 0.962 . S
H268 C254 0.960 . S
H269 C255 0.961 . S
H270 C255 0.961 . S
H271 C255 0.961 . S
H272 C256 0.931 . S
H273 C261 0.930 . S
H274 C262 0.956 . S
H275 C262 0.961 . S
H276 C262 0.961 . S
H277 C263 0.958 . S
H278 C263 0.961 . S
H279 C263 0.960 . S
C280 C281 1.391 . S
C280 C282 1.394 . S
C280 H296 0.931 . S
C281 C280 1.391 . S
C281 C285 1.376 . S
C282 C280 1.394 . S
C282 C283 1.369 . S
C282 C286 1.531 1_455 S
C283 C282 1.369 . S
C283 C284 1.410 . S
C283 C291 1.503 . S
C284 C283 1.410 . S
C284 C285 1.392 . S
C284 C287 1.511 . S
C285 C281 1.376 . S
C285 C284 1.392 . S
C285 H297 0.929 . S
C286 C282 1.531 1_655 S
C286 H298 0.960 . S
C286 H299 0.962 1_655 S
C286 H300 0.960 . S
C287 C284 1.511 . S
C287 H301 0.961 . S
C287 H302 0.961 . S
C287 H303 0.961 . S
C288 C289 1.370 . S
C288 C290 1.363 . S
C288 H304 0.931 . S
C289 C288 1.370 . S
C289 C293 1.408 1_455 S
C290 C288 1.363 . S
C290 C291 1.370 . S
C290 C294 1.524 . S
C291 C283 1.503 . S
C291 C290 1.370 . S
C291 C292 1.403 . S
C292 C291 1.403 . S
C292 C293 1.404 1_455 S
C292 C295 1.539 1_455 S
C293 C289 1.408 1_655 S
C293 C292 1.404 1_655 S
C293 H305 0.930 . S
C294 C290 1.524 . S
C294 H306 0.956 . S
C294 H307 0.961 . S
C294 H308 0.961 . S
C295 C292 1.539 1_655 S
C295 H309 0.958 . S
C295 H310 0.961 . S
C295 H311 0.960 . S
H296 C280 0.931 . S
H297 C285 0.929 . S
H298 C286 0.960 . S
H299 C286 0.962 1_455 S
H300 C286 0.960 . S
H301 C287 0.961 . S
H302 C287 0.961 . S
H303 C287 0.961 . S
H304 C288 0.931 . S
H305 C293 0.930 . S
H306 C294 0.956 . S
H307 C294 0.961 . S
H308 C294 0.961 . S
H309 C295 0.958 . S
H310 C295 0.961 . S
H311 C295 0.960 . S
C312 C313 1.391 1_565 S
C312 C314 1.394 . S
C312 H328 0.931 . S
C313 C312 1.391 1_545 S
C313 C317 1.376 . S
C314 C312 1.394 . S
C314 C315 1.369 1_565 S
C314 C318 1.531 . S
C315 C314 1.369 1_545 S
C315 C316 1.410 . S
C315 C323 1.503 . S
C316 C315 1.410 . S
C316 C317 1.392 . S
C316 C319 1.511 . S
C317 C313 1.376 . S
C317 C316 1.392 . S
C317 H329 0.929 1_556 S
C318 C314 1.531 . S
C318 H330 0.960 . S
C318 H331 0.962 . S
C318 H332 0.960 . S
C319 C316 1.511 . S
C319 H333 0.961 . S
C319 H334 0.961 . S
C319 H335 0.961 . S
C320 C321 1.370 1_565 S
C320 C322 1.363 . S
C320 H336 0.931 . S
C321 C320 1.370 1_545 S
C321 C325 1.408 . S
C322 C320 1.363 . S
C322 C323 1.370 1_565 S
C322 C326 1.524 . S
C323 C315 1.503 . S
C323 C322 1.370 1_545 S
C323 C324 1.403 . S
C324 C323 1.403 . S
C324 C325 1.404 . S
C324 C327 1.539 . S
C325 C321 1.408 . S
C325 C324 1.404 . S
C325 H337 0.930 . S
C326 C322 1.524 . S
C326 H338 0.956 . S
C326 H339 0.961 . S
C326 H340 0.961 . S
C327 C324 1.539 . S
C327 H341 0.958 . S
C327 H342 0.961 . S
C327 H343 0.960 . S
H328 C312 0.931 . S
H329 C317 0.929 1_554 S
H330 C318 0.960 . S
H331 C318 0.962 . S
H332 C318 0.960 . S
H333 C319 0.961 . S
H334 C319 0.961 . S
H335 C319 0.961 . S
H336 C320 0.931 . S
H337 C325 0.930 . S
H338 C326 0.956 . S
H339 C326 0.961 . S
H340 C326 0.961 . S
H341 C327 0.958 . S
H342 C327 0.961 . S
H343 C327 0.960 . S
C344 C345 1.391 . S
C344 C346 1.394 . S
C344 H360 0.931 1_556 S
C345 C344 1.391 . S
C345 C349 1.376 . S
C346 C344 1.394 . S
C346 C347 1.369 . S
C346 C350 1.531 . S
C347 C346 1.369 . S
C347 C348 1.410 . S
C347 C355 1.503 . S
C348 C347 1.410 . S
C348 C349 1.392 . S
C348 C351 1.511 . S
C349 C345 1.376 . S
C349 C348 1.392 . S
C349 H361 0.929 . S
C350 C346 1.531 . S
C350 H362 0.960 . S
C350 H363 0.962 . S
C350 H364 0.960 . S
C351 C348 1.511 . S
C351 H365 0.961 . S
C351 H366 0.961 . S
C351 H367 0.961 . S
C352 C353 1.370 . S
C352 C354 1.363 . S
C352 H368 0.931 . S
C353 C352 1.370 . S
C353 C357 1.408 . S
C354 C352 1.363 . S
C354 C355 1.370 . S
C354 C358 1.524 . S
C355 C347 1.503 . S
C355 C354 1.370 . S
C355 C356 1.403 . S
C356 C355 1.403 . S
C356 C357 1.404 . S
C356 C359 1.539 . S
C357 C353 1.408 . S
C357 C356 1.404 . S
C357 H369 0.930 . S
C358 C354 1.524 . S
C358 H370 0.956 . S
C358 H371 0.961 . S
C358 H372 0.961 . S
C359 C356 1.539 . S
C359 H373 0.958 . S
C359 H374 0.961 . S
C359 H375 0.960 . S
H360 C344 0.931 1_554 S
H361 C349 0.929 . S
H362 C350 0.960 . S
H363 C350 0.962 . S
H364 C350 0.960 . S
H365 C351 0.961 . S
H366 C351 0.961 . S
H367 C351 0.961 . S
H368 C352 0.931 . S
H369 C357 0.930 . S
H370 C358 0.956 . S
H371 C358 0.961 . S
H372 C358 0.961 . S
H373 C359 0.958 . S
H374 C359 0.961 . S
H375 C359 0.960 . S
C376 C377 1.391 . S
C376 C378 1.394 . S
C376 H392 0.931 . S
C377 C376 1.391 . S
C377 C381 1.376 . S
C378 C376 1.394 . S
C378 C379 1.369 . S
C378 C382 1.531 . S
C379 C378 1.369 . S
C379 C380 1.410 . S
C379 C387 1.503 . S
C380 C379 1.410 . S
C380 C381 1.392 . S
C380 C383 1.511 . S
C381 C377 1.376 . S
C381 C380 1.392 . S
C381 H393 0.929 . S
C382 C378 1.531 . S
C382 H394 0.960 . S
C382 H395 0.962 . S
C382 H396 0.960 . S
C383 C380 1.511 . S
C383 H397 0.961 . S
C383 H398 0.961 . S
C383 H399 0.961 . S
C384 C385 1.370 . S
C384 C386 1.363 . S
C384 H400 0.931 . S
C385 C384 1.370 . S
C385 C389 1.408 . S
C386 C384 1.363 . S
C386 C387 1.370 . S
C386 C390 1.524 . S
C387 C379 1.503 . S
C387 C386 1.370 . S
C387 C388 1.403 . S
C388 C387 1.403 . S
C388 C389 1.404 . S
C388 C391 1.539 . S
C389 C385 1.408 . S
C389 C388 1.404 . S
C389 H401 0.930 . S
C390 C386 1.524 . S
C390 H402 0.956 . S
C390 H403 0.961 . S
C390 H404 0.961 . S
C391 C388 1.539 . S
C391 H405 0.958 . S
C391 H406 0.961 . S
C391 H407 0.960 . S
H392 C376 0.931 . S
H393 C381 0.929 . S
H394 C382 0.960 . S
H395 C382 0.962 . S
H396 C382 0.960 . S
H397 C383 0.961 . S
H398 C383 0.961 . S
H399 C383 0.961 . S
H400 C384 0.931 . S
H401 C389 0.930 . S
H402 C390 0.956 . S
H403 C390 0.961 . S
H404 C390 0.961 . S
H405 C391 0.958 . S
H406 C391 0.961 . S
H407 C391 0.960 . S
C408 C409 1.391 . S
C408 C410 1.394 . S
C408 H424 0.931 . S
C409 C408 1.391 . S
C409 C413 1.376 . S
C410 C408 1.394 . S
C410 C411 1.369 . S
C410 C414 1.531 1_655 S
C411 C410 1.369 . S
C411 C412 1.410 . S
C411 C419 1.503 . S
C412 C411 1.410 . S
C412 C413 1.392 . S
C412 C415 1.511 . S
C413 C409 1.376 . S
C413 C412 1.392 . S
C413 H425 0.936 . S
C414 C410 1.531 1_455 S
C414 H426 0.960 . S
C414 H427 0.962 . S
C414 H428 0.960 . S
C415 C412 1.511 . S
C415 H429 0.961 . S
C415 H430 0.961 . S
C415 H431 0.961 . S
C416 C417 1.370 . S
C416 C418 1.363 . S
C416 H432 0.931 . S
C417 C416 1.370 . S
C417 C421 1.408 1_655 S
C418 C416 1.363 . S
C418 C419 1.370 . S
C418 C422 1.524 . S
C419 C411 1.503 . S
C419 C418 1.370 . S
C419 C420 1.403 1_655 S
C420 C419 1.403 1_455 S
C420 C421 1.404 . S
C420 C423 1.539 . S
C421 C417 1.408 1_455 S
C421 C420 1.404 . S
C421 H433 0.930 . S
C422 C418 1.524 . S
C422 H434 0.956 . S
C422 H435 0.961 . S
C422 H436 0.961 . S
C423 C420 1.539 . S
C423 H437 0.958 . S
C423 H438 0.961 . S
C423 H439 0.960 . S
H424 C408 0.931 . S
H425 C413 0.936 . S
H426 C414 0.960 . S
H427 C414 0.962 . S
H428 C414 0.960 . S
H429 C415 0.961 . S
H430 C415 0.961 . S
H431 C415 0.961 . S
H432 C416 0.931 . S
H433 C421 0.930 . S
H434 C422 0.956 . S
H435 C422 0.961 . S
H436 C422 0.961 . S
H437 C423 0.958 . S
H438 C423 0.961 . S
H439 C423 0.960 . S
C440 C441 1.391 . S
C440 C442 1.394 . S
C440 H456 0.931 . S
C441 C440 1.391 . S
C441 C445 1.376 . S
C442 C440 1.394 . S
C442 C443 1.369 . S
C442 C446 1.531 1_455 S
C443 C442 1.369 . S
C443 C444 1.410 . S
C443 C451 1.503 . S
C444 C443 1.410 . S
C444 C445 1.392 . S
C444 C447 1.511 . S
C445 C441 1.376 . S
C445 C444 1.392 . S
C445 H457 0.929 . S
C446 C442 1.531 1_655 S
C446 H458 0.960 . S
C446 H459 0.962 . S
C446 H460 0.960 . S
C447 C444 1.511 . S
C447 H461 0.961 . S
C447 H462 0.961 . S
C447 H463 0.961 . S
C448 C449 1.370 . S
C448 C450 1.363 . S
C448 H464 0.931 . S
C449 C448 1.370 . S
C449 C453 1.408 . S
C450 C448 1.363 . S
C450 C451 1.370 . S
C450 C454 1.524 . S
C451 C443 1.503 . S
C451 C450 1.370 . S
C451 C452 1.403 . S
C452 C451 1.403 . S
C452 C453 1.404 . S
C452 C455 1.539 . S
C453 C449 1.408 . S
C453 C452 1.404 . S
C453 H465 0.930 . S
C454 C450 1.524 . S
C454 H466 0.956 . S
C454 H467 0.961 . S
C454 H468 0.961 . S
C455 C452 1.539 . S
C455 H469 0.958 . S
C455 H470 0.961 . S
C455 H471 0.960 . S
H456 C440 0.931 . S
H457 C445 0.929 . S
H458 C446 0.960 . S
H459 C446 0.962 . S
H460 C446 0.960 . S
H461 C447 0.961 . S
H462 C447 0.961 . S
H463 C447 0.961 . S
H464 C448 0.931 . S
H465 C453 0.930 . S
H466 C454 0.956 . S
H467 C454 0.961 . S
H468 C454 0.961 . S
H469 C455 0.958 . S
H470 C455 0.961 . S
H471 C455 0.960 . S
C472 C473 1.391 . S
C472 C474 1.394 . S
C472 H488 0.931 . S
C473 C472 1.391 . S
C473 C477 1.376 1_545 S
C474 C472 1.394 . S
C474 C475 1.386 . S
C474 C478 1.531 . S
C475 C474 1.386 . S
C475 C476 1.395 1_545 S
C475 C483 1.498 1_545 S
C476 C475 1.395 1_565 S
C476 C477 1.392 . S
C476 C479 1.511 . S
C477 C473 1.376 1_565 S
C477 C476 1.392 . S
C477 H489 0.929 . S
C478 C474 1.531 . S
C478 H490 0.960 . S
C478 H491 0.962 . S
C478 H492 0.960 . S
C479 C476 1.511 . S
C479 H493 0.961 . S
C479 H494 0.961 . S
C479 H495 0.961 . S
C480 C481 1.370 . S
C480 C482 1.363 . S
C480 H496 0.931 . S
C481 C480 1.370 . S
C481 C485 1.408 1_565 S
C482 C480 1.363 . S
C482 C483 1.370 . S
C482 C486 1.524 . S
C483 C475 1.498 1_565 S
C483 C482 1.370 . S
C483 C484 1.403 1_565 S
C484 C483 1.403 1_545 S
C484 C485 1.404 . S
C484 C487 1.539 . S
C485 C481 1.408 1_545 S
C485 C484 1.404 . S
C485 H497 0.930 . S
C486 C482 1.524 . S
C486 H498 0.956 . S
C486 H499 0.961 . S
C486 H500 0.961 . S
C487 C484 1.539 . S
C487 H501 0.958 . S
C487 H502 0.961 . S
C487 H503 0.960 . S
H488 C472 0.931 . S
H489 C477 0.929 . S
H490 C478 0.960 . S
H491 C478 0.962 . S
H492 C478 0.960 . S
H493 C479 0.961 . S
H494 C479 0.961 . S
H495 C479 0.961 . S
H496 C480 0.931 . S
H497 C485 0.930 . S
H498 C486 0.956 . S
H499 C486 0.961 . S
H500 C486 0.961 . S
H501 C487 0.958 . S
H502 C487 0.961 . S
H503 C487 0.960 . S
C504 C505 1.391 . S
C504 C506 1.394 . S
C504 H520 0.931 . S
C505 C504 1.391 . S
C505 C509 1.376 . S
C506 C504 1.394 . S
C506 C507 1.369 . S
C506 C510 1.531 . S
C507 C506 1.369 . S
C507 C508 1.410 . S
C507 C515 1.503 . S
C508 C507 1.410 . S
C508 C509 1.392 . S
C508 C511 1.511 . S
C509 C505 1.376 . S
C509 C508 1.392 . S
C509 H521 0.929 . S
C510 C506 1.531 . S
C510 H522 0.960 . S
C510 H523 0.962 . S
C510 H524 0.960 . S
C511 C508 1.511 . S
C511 H525 0.961 . S
C511 H526 0.961 . S
C511 H527 0.961 . S
C512 C513 1.370 . S
C512 C514 1.363 . S
C512 H528 0.931 . S
C513 C512 1.370 . S
C513 C517 1.408 . S
C514 C512 1.363 . S
C514 C515 1.370 . S
C514 C518 1.524 . S
C515 C507 1.503 . S
C515 C514 1.370 . S
C515 C516 1.403 . S
C516 C515 1.403 . S
C516 C517 1.404 . S
C516 C519 1.539 . S
C517 C513 1.408 . S
C517 C516 1.404 . S
C517 H529 0.930 . S
C518 C514 1.524 . S
C518 H530 0.956 . S
C518 H531 0.961 . S
C518 H532 0.961 . S
C519 C516 1.539 . S
C519 H533 0.958 . S
C519 H534 0.961 . S
C519 H535 0.960 . S
H520 C504 0.931 . S
H521 C509 0.929 . S
H522 C510 0.960 . S
H523 C510 0.962 . S
H524 C510 0.960 . S
H525 C511 0.961 . S
H526 C511 0.961 . S
H527 C511 0.961 . S
H528 C512 0.931 . S
H529 C517 0.930 . S
H530 C518 0.956 . S
H531 C518 0.961 . S
H532 C518 0.961 . S
H533 C519 0.958 . S
H534 C519 0.961 . S
H535 C519 0.960 . S
C536 C537 1.391 . S
C536 C538 1.394 . S
C536 H552 0.931 . S
C537 C536 1.391 . S
C537 C541 1.376 . S
C538 C536 1.394 . S
C538 C539 1.369 . S
C538 C542 1.531 . S
C539 C538 1.369 . S
C539 C540 1.410 . S
C539 C547 1.503 . S
C540 C539 1.410 . S
C540 C541 1.392 . S
C540 C543 1.511 . S
C541 C537 1.376 . S
C541 C540 1.392 . S
C541 H553 0.929 . S
C542 C538 1.531 . S
C542 H554 0.960 . S
C542 H555 0.962 . S
C542 H556 0.960 . S
C543 C540 1.511 . S
C543 H557 0.961 . S
C543 H558 0.961 . S
C543 H559 0.961 . S
C544 C545 1.370 . S
C544 C546 1.363 . S
C544 H560 0.931 . S
C545 C544 1.370 . S
C545 C549 1.408 . S
C546 C544 1.363 . S
C546 C547 1.370 . S
C546 C550 1.524 . S
C547 C539 1.503 . S
C547 C546 1.370 . S
C547 C548 1.403 . S
C548 C547 1.403 . S
C548 C549 1.404 . S
C548 C551 1.539 . S
C549 C545 1.408 . S
C549 C548 1.404 . S
C549 H561 0.930 . S
C550 C546 1.524 . S
C550 H562 0.956 . S
C550 H563 0.961 . S
C550 H564 0.961 . S
C551 C548 1.539 . S
C551 H565 0.958 . S
C551 H566 0.961 . S
C551 H567 0.960 . S
H552 C536 0.931 . S
H553 C541 0.929 . S
H554 C542 0.960 . S
H555 C542 0.962 . S
H556 C542 0.960 . S
H557 C543 0.961 . S
H558 C543 0.961 . S
H559 C543 0.961 . S
H560 C544 0.931 . S
H561 C549 0.930 . S
H562 C550 0.956 . S
H563 C550 0.961 . S
H564 C550 0.961 . S
H565 C551 0.958 . S
H566 C551 0.961 . S
H567 C551 0.960 . S
C568 C569 1.391 . S
C568 C570 1.394 . S
C568 H584 0.931 1_556 S
C569 C568 1.391 . S
C569 C573 1.376 . S
C570 C568 1.394 . S
C570 C571 1.369 . S
C570 C574 1.525 1_556 S
C571 C570 1.369 . S
C571 C572 1.410 . S
C571 C579 1.503 . S
C572 C571 1.410 . S
C572 C573 1.392 . S
C572 C575 1.511 1_655 S
C573 C569 1.376 . S
C573 C572 1.392 . S
C573 H585 0.929 . S
C574 C570 1.525 1_554 S
C574 H586 0.958 1_554 S
C574 H587 0.958 1_554 S
C574 H588 0.972 . S
C575 C572 1.511 1_455 S
C575 H589 0.961 1_455 S
C575 H590 0.956 1_455 S
C575 H591 0.961 . S
C576 C577 1.351 1_655 S
C576 C578 1.363 . S
C576 H592 0.931 . S
C577 C576 1.351 1_455 S
C577 C581 1.422 . S
C578 C576 1.363 . S
C578 C579 1.370 . S
C578 C582 1.524 . S
C579 C571 1.503 . S
C579 C578 1.370 . S
C579 C580 1.403 1_655 S
C580 C579 1.403 1_455 S
C580 C581 1.404 . S
C580 C583 1.539 . S
C581 C577 1.422 . S
C581 C580 1.404 . S
C581 H593 0.930 . S
C582 C578 1.524 . S
C582 H594 0.956 . S
C582 H595 0.961 . S
C582 H596 0.961 . S
C583 C580 1.539 . S
C583 H597 0.958 . S
C583 H598 0.961 . S
C583 H599 0.960 . S
H584 C568 0.931 1_554 S
H585 C573 0.929 . S
H586 C574 0.958 1_556 S
H587 C574 0.958 1_556 S
H588 C574 0.972 . S
H589 C575 0.961 1_655 S
H590 C575 0.956 1_655 S
H591 C575 0.961 . S
H592 C576 0.931 . S
H593 C581 0.930 . S
H594 C582 0.956 . S
H595 C582 0.961 . S
H596 C582 0.961 . S
H597 C583 0.958 . S
H598 C583 0.961 . S
H599 C583 0.960 . S
C600 C601 1.391 . S
C600 C602 1.394 . S
C600 H616 0.931 1_556 S
C601 C600 1.391 . S
C601 C605 1.376 1_545 S
C602 C600 1.394 . S
C602 C603 1.369 . S
C602 C606 1.531 1_556 S
C603 C602 1.369 . S
C603 C604 1.410 . S
C603 C611 1.503 . S
C604 C603 1.410 . S
C604 C605 1.392 1_545 S
C604 C607 1.511 1_545 S
C605 C601 1.376 1_565 S
C605 C604 1.392 1_565 S
C605 H617 0.929 . S
C606 C602 1.531 1_554 S
C606 H618 0.960 1_554 S
C606 H619 0.962 . S
C606 H620 0.960 . S
C607 C604 1.511 1_565 S
C607 H621 0.961 . S
C607 H622 0.961 . S
C607 H623 0.961 1_565 S
C608 C609 1.370 1_565 S
C608 C610 1.363 . S
C608 H624 0.931 . S
C609 C608 1.370 1_545 S
C609 C613 1.408 . S
C610 C608 1.363 . S
C610 C611 1.370 1_565 S
C610 C614 1.524 . S
C611 C603 1.503 . S
C611 C610 1.370 1_545 S
C611 C612 1.403 . S
C612 C611 1.403 . S
C612 C613 1.404 . S
C612 C615 1.539 . S
C613 C609 1.408 . S
C613 C612 1.404 . S
C613 H625 0.930 . S
C614 C610 1.524 . S
C614 H626 0.956 . S
C614 H627 0.961 . S
C614 H628 0.961 . S
C615 C612 1.539 . S
C615 H629 0.958 . S
C615 H630 0.961 . S
C615 H631 0.960 . S
H616 C600 0.931 1_554 S
H617 C605 0.929 . S
H618 C606 0.960 1_556 S
H619 C606 0.962 . S
H620 C606 0.960 . S
H621 C607 0.961 . S
H622 C607 0.961 . S
H623 C607 0.961 1_545 S
H624 C608 0.931 . S
H625 C613 0.930 . S
H626 C614 0.956 . S
H627 C614 0.961 . S
H628 C614 0.961 . S
H629 C615 0.958 . S
H630 C615 0.961 . S
H631 C615 0.960 . S
C632 C633 1.391 . S
C632 C634 1.394 . S
C632 H648 0.931 . S
C633 C632 1.391 . S
C633 C637 1.376 . S
C634 C632 1.394 . S
C634 C635 1.369 . S
C634 C638 1.531 . S
C635 C634 1.369 . S
C635 C636 1.410 . S
C635 C643 1.503 . S
C636 C635 1.410 . S
C636 C637 1.392 . S
C636 C639 1.511 . S
C637 C633 1.376 . S
C637 C636 1.392 . S
C637 H649 0.929 . S
C638 C634 1.531 . S
C638 H650 0.960 . S
C638 H651 0.962 . S
C638 H652 0.960 . S
C639 C636 1.511 . S
C639 H653 0.961 . S
C639 H654 0.961 . S
C639 H655 0.961 . S
C640 C641 1.370 . S
C640 C642 1.363 . S
C640 H656 0.931 . S
C641 C640 1.370 . S
C641 C645 1.408 . S
C642 C640 1.363 . S
C642 C643 1.370 . S
C642 C646 1.524 . S
C643 C635 1.503 . S
C643 C642 1.370 . S
C643 C644 1.403 . S
C644 C643 1.403 . S
C644 C645 1.404 . S
C644 C647 1.539 . S
C645 C641 1.408 . S
C645 C644 1.404 . S
C645 H657 0.930 . S
C646 C642 1.524 . S
C646 H658 0.956 . S
C646 H659 0.961 . S
C646 H660 0.961 . S
C647 C644 1.539 . S
C647 H661 0.958 . S
C647 H662 0.961 . S
C647 H663 0.960 . S
H648 C632 0.931 . S
H649 C637 0.929 . S
H650 C638 0.960 . S
H651 C638 0.962 . S
H652 C638 0.960 . S
H653 C639 0.961 . S
H654 C639 0.961 . S
H655 C639 0.961 . S
H656 C640 0.931 . S
H657 C645 0.930 . S
H658 C646 0.956 . S
H659 C646 0.961 . S
H660 C646 0.961 . S
H661 C647 0.958 . S
H662 C647 0.961 . S
H663 C647 0.960 . S
C664 C665 1.391 1_554 S
C664 C666 1.394 1_554 S
C664 H680 0.931 . S
C665 C664 1.391 1_556 S
C665 C669 1.376 . S
C666 C664 1.394 1_556 S
C666 C667 1.369 . S
C666 C670 1.531 1_556 S
C667 C666 1.369 . S
C667 C668 1.410 . S
C667 C675 1.503 . S
C668 C667 1.410 . S
C668 C669 1.392 . S
C668 C671 1.511 . S
C669 C665 1.376 . S
C669 C668 1.392 . S
C669 H681 0.929 . S
C670 C666 1.531 1_554 S
C670 H682 0.960 1_554 S
C670 H683 0.962 . S
C670 H684 0.960 . S
C671 C668 1.511 . S
C671 H685 0.961 . S
C671 H686 0.961 . S
C671 H687 0.961 . S
C672 C673 1.370 . S
C672 C674 1.363 . S
C672 H688 0.931 . S
C673 C672 1.370 . S
C673 C677 1.408 . S
C674 C672 1.363 . S
C674 C675 1.370 . S
C674 C678 1.524 . S
C675 C667 1.503 . S
C675 C674 1.370 . S
C675 C676 1.403 . S
C676 C675 1.403 . S
C676 C677 1.404 . S
C676 C679 1.539 . S
C677 C673 1.408 . S
C677 C676 1.404 . S
C677 H689 0.930 . S
C678 C674 1.524 . S
C678 H690 0.956 . S
C678 H691 0.961 . S
C678 H692 0.961 . S
C679 C676 1.539 . S
C679 H693 0.958 . S
C679 H694 0.961 . S
C679 H695 0.960 . S
H680 C664 0.931 . S
H681 C669 0.929 . S
H682 C670 0.960 1_556 S
H683 C670 0.962 . S
H684 C670 0.960 . S
H685 C671 0.961 . S
H686 C671 0.961 . S
H687 C671 0.961 . S
H688 C672 0.931 . S
H689 C677 0.930 . S
H690 C678 0.956 . S
H691 C678 0.961 . S
H692 C678 0.961 . S
H693 C679 0.958 . S
H694 C679 0.961 . S
H695 C679 0.960 . S
C696 C697 1.391 . S
C696 C698 1.394 1_554 S
C696 H712 0.931 . S
C697 C696 1.391 . S
C697 C701 1.376 1_554 S
C698 C696 1.394 1_556 S
C698 C699 1.369 . S
C698 C702 1.531 1_556 S
C699 C698 1.369 . S
C699 C700 1.410 . S
C699 C707 1.503 . S
C700 C699 1.410 . S
C700 C701 1.392 . S
C700 C703 1.511 1_455 S
C701 C697 1.376 1_556 S
C701 C700 1.392 . S
C701 H713 0.929 . S
C702 C698 1.531 1_554 S
C702 H714 0.960 . S
C702 H715 0.962 1_554 S
C702 H716 0.960 . S
C703 C700 1.511 1_655 S
C703 H717 0.961 . S
C703 H718 0.963 . S
C703 H719 0.961 . S
C704 C705 1.370 . S
C704 C706 1.363 . S
C704 H720 0.931 . S
C705 C704 1.370 . S
C705 C709 1.408 . S
C706 C704 1.363 . S
C706 C707 1.370 . S
C706 C710 1.524 . S
C707 C699 1.503 . S
C707 C706 1.370 . S
C707 C708 1.403 . S
C708 C707 1.403 . S
C708 C709 1.404 . S
C708 C711 1.539 1_556 S
C709 C705 1.408 . S
C709 C708 1.404 . S
C709 H721 0.930 . S
C710 C706 1.524 . S
C710 H722 0.956 . S
C710 H723 0.961 . S
C710 H724 0.961 . S
C711 C708 1.539 1_554 S
C711 H725 0.958 . S
C711 H726 0.961 1_455 S
C711 H727 0.960 1_455 S
H712 C696 0.931 . S
H713 C701 0.929 . S
H714 C702 0.960 . S
H715 C702 0.962 1_556 S
H716 C702 0.960 . S
H717 C703 0.961 . S
H718 C703 0.963 . S
H719 C703 0.961 . S
H720 C704 0.931 . S
H721 C709 0.930 . S
H722 C710 0.956 . S
H723 C710 0.961 . S
H724 C710 0.961 . S
H725 C711 0.958 . S
H726 C711 0.961 1_655 S
H727 C711 0.960 1_655 S
C728 C729 1.391 1_566 S
C728 C730 1.394 1_565 S
C728 H744 0.931 . S
C729 C728 1.391 1_544 S
C729 C733 1.376 . S
C730 C728 1.394 1_545 S
C730 C731 1.367 . S
C730 C734 1.532 1_545 S
C731 C730 1.367 . S
C731 C732 1.410 1_556 S
C731 C739 1.503 . S
C732 C731 1.410 1_554 S
C732 C733 1.392 . S
C732 C735 1.511 . S
C733 C729 1.376 . S
C733 C732 1.392 . S
C733 H745 0.929 . S
C734 C730 1.532 1_565 S
C734 H746 0.960 1_565 S
C734 H747 0.962 . S
C734 H748 0.960 . S
C735 C732 1.511 . S
C735 H749 0.961 . S
C735 H750 0.961 . S
C735 H751 0.961 . S
C736 C737 1.370 1_565 S
C736 C738 1.363 . S
C736 H752 0.931 . S
C737 C736 1.370 1_545 S
C737 C741 1.408 . S
C738 C736 1.363 . S
C738 C739 1.370 1_565 S
C738 C742 1.524 . S
C739 C731 1.503 . S
C739 C738 1.370 1_545 S
C739 C740 1.403 . S
C740 C739 1.403 . S
C740 C741 1.404 . S
C740 C743 1.539 . S
C741 C737 1.408 . S
C741 C740 1.404 . S
C741 H753 0.930 . S
C742 C738 1.524 . S
C742 H754 0.956 . S
C742 H755 0.961 . S
C742 H756 0.961 . S
C743 C740 1.539 . S
C743 H757 0.958 . S
C743 H758 0.961 . S
C743 H759 0.960 . S
H744 C728 0.931 . S
H745 C733 0.929 . S
H746 C734 0.960 1_545 S
H747 C734 0.962 . S
H748 C734 0.960 . S
H749 C735 0.961 . S
H750 C735 0.961 . S
H751 C735 0.961 . S
H752 C736 0.931 . S
H753 C741 0.930 . S
H754 C742 0.956 . S
H755 C742 0.961 . S
H756 C742 0.961 . S
H757 C743 0.958 . S
H758 C743 0.961 . S
H759 C743 0.960 . S
C760 C761 1.391 . S
C760 C762 1.394 . S
C760 H776 0.931 . S
C761 C760 1.391 . S
C761 C765 1.376 1_554 S
C762 C760 1.394 . S
C762 C763 1.369 1_554 S
C762 C766 1.531 . S
C763 C762 1.369 1_556 S
C763 C764 1.410 . S
C763 C771 1.503 . S
C764 C763 1.410 . S
C764 C765 1.392 . S
C764 C767 1.511 . S
C765 C761 1.376 1_556 S
C765 C764 1.392 . S
C765 H777 0.929 . S
C766 C762 1.531 . S
C766 H778 0.960 . S
C766 H779 0.962 . S
C766 H780 0.960 . S
C767 C764 1.511 . S
C767 H781 0.961 . S
C767 H782 0.961 . S
C767 H783 0.961 . S
C768 C769 1.370 . S
C768 C770 1.363 . S
C768 H784 0.931 . S
C769 C768 1.370 . S
C769 C773 1.408 . S
C770 C768 1.363 . S
C770 C771 1.370 . S
C770 C774 1.524 . S
C771 C763 1.503 . S
C771 C770 1.370 . S
C771 C772 1.403 . S
C772 C771 1.403 . S
C772 C773 1.404 . S
C772 C775 1.539 . S
C773 C769 1.408 . S
C773 C772 1.404 . S
C773 H785 0.930 . S
C774 C770 1.524 . S
C774 H786 0.956 . S
C774 H787 0.961 . S
C774 H788 0.961 . S
C775 C772 1.539 . S
C775 H789 0.958 . S
C775 H790 0.961 . S
C775 H791 0.960 . S
H776 C760 0.931 . S
H777 C765 0.929 . S
H778 C766 0.960 . S
H779 C766 0.962 . S
H780 C766 0.960 . S
H781 C767 0.961 . S
H782 C767 0.961 . S
H783 C767 0.961 . S
H784 C768 0.931 . S
H785 C773 0.930 . S
H786 C774 0.956 . S
H787 C774 0.961 . S
H788 C774 0.961 . S
H789 C775 0.958 . S
H790 C775 0.961 . S
H791 C775 0.960 . S
C792 C793 1.391 . S
C792 C794 1.394 1_554 S
C792 H808 0.931 . S
C793 C792 1.391 . S
C793 C797 1.376 1_554 S
C794 C792 1.394 1_556 S
C794 C795 1.369 . S
C794 C798 1.531 1_556 S
C795 C794 1.369 . S
C795 C796 1.410 . S
C795 C803 1.503 . S
C796 C795 1.410 . S
C796 C797 1.392 . S
C796 C799 1.511 . S
C797 C793 1.376 1_556 S
C797 C796 1.392 . S
C797 H809 0.929 . S
C798 C794 1.531 1_554 S
C798 H810 0.960 1_554 S
C798 H811 0.962 . S
C798 H812 0.960 . S
C799 C796 1.511 . S
C799 H813 0.961 . S
C799 H814 0.961 . S
C799 H815 0.961 . S
C800 C801 1.370 . S
C800 C802 1.363 . S
C800 H816 0.931 . S
C801 C800 1.370 . S
C801 C805 1.408 . S
C802 C800 1.363 . S
C802 C803 1.370 . S
C802 C806 1.524 . S
C803 C795 1.503 . S
C803 C802 1.370 . S
C803 C804 1.403 . S
C804 C803 1.403 . S
C804 C805 1.404 . S
C804 C807 1.539 . S
C805 C801 1.408 . S
C805 C804 1.404 . S
C805 H817 0.930 . S
C806 C802 1.524 . S
C806 H818 0.956 . S
C806 H819 0.961 . S
C806 H820 0.961 . S
C807 C804 1.539 . S
C807 H821 0.958 . S
C807 H822 0.961 . S
C807 H823 0.960 . S
H808 C792 0.931 . S
H809 C797 0.929 . S
H810 C798 0.960 1_556 S
H811 C798 0.962 . S
H812 C798 0.960 . S
H813 C799 0.961 . S
H814 C799 0.961 . S
H815 C799 0.961 . S
H816 C800 0.931 . S
H817 C805 0.930 . S
H818 C806 0.956 . S
H819 C806 0.961 . S
H820 C806 0.961 . S
H821 C807 0.958 . S
H822 C807 0.961 . S
H823 C807 0.960 . S
C824 C825 1.391 . S
C824 C826 1.394 . S
C824 H840 0.931 . S
C825 C824 1.391 . S
C825 C829 1.376 . S
C826 C824 1.394 . S
C826 C827 1.369 . S
C826 C830 1.531 . S
C827 C826 1.369 . S
C827 C828 1.410 . S
C827 C835 1.503 . S
C828 C827 1.410 . S
C828 C829 1.392 . S
C828 C831 1.511 . S
C829 C825 1.376 . S
C829 C828 1.392 . S
C829 H841 0.929 . S
C830 C826 1.531 . S
C830 H842 0.960 . S
C830 H843 0.962 . S
C830 H844 0.960 . S
C831 C828 1.511 . S
C831 H845 0.961 . S
C831 H846 0.961 . S
C831 H847 0.961 . S
C832 C833 1.370 . S
C832 C834 1.363 . S
C832 H848 0.931 . S
C833 C832 1.370 . S
C833 C837 1.408 1_655 S
C834 C832 1.363 . S
C834 C835 1.370 . S
C834 C838 1.524 . S
C835 C827 1.503 . S
C835 C834 1.370 . S
C835 C836 1.363 1_655 S
C836 C835 1.363 1_455 S
C836 C837 1.408 . S
C836 C839 1.576 . S
C837 C833 1.408 1_455 S
C837 C836 1.408 . S
C837 H849 0.930 . S
C838 C834 1.524 . S
C838 H850 0.956 . S
C838 H851 0.961 . S
C838 H852 0.961 . S
C839 C836 1.576 . S
C839 H853 0.958 . S
C839 H854 0.961 . S
C839 H855 0.960 . S
H840 C824 0.931 . S
H841 C829 0.929 . S
H842 C830 0.960 . S
H843 C830 0.962 . S
H844 C830 0.960 . S
H845 C831 0.961 . S
H846 C831 0.961 . S
H847 C831 0.961 . S
H848 C832 0.931 . S
H849 C837 0.930 . S
H850 C838 0.956 . S
H851 C838 0.961 . S
H852 C838 0.961 . S
H853 C839 0.958 . S
H854 C839 0.961 . S
H855 C839 0.960 . S
C856 C857 1.391 1_545 S
C856 C858 1.397 . S
C856 H872 0.931 . S
C857 C856 1.391 1_565 S
C857 C861 1.376 . S
C858 C856 1.397 . S
C858 C859 1.359 1_545 S
C858 C862 1.538 . S
C859 C858 1.359 1_565 S
C859 C860 1.410 . S
C859 C867 1.503 . S
C860 C859 1.410 . S
C860 C861 1.392 . S
C860 C863 1.511 . S
C861 C857 1.376 . S
C861 C860 1.392 . S
C861 H873 0.929 . S
C862 C858 1.538 . S
C862 H874 0.960 1_545 S
C862 H875 0.962 . S
C862 H876 0.960 . S
C863 C860 1.511 . S
C863 H877 0.961 . S
C863 H878 0.961 . S
C863 H879 0.961 . S
C864 C865 1.370 1_545 S
C864 C866 1.363 . S
C864 H880 0.931 . S
C865 C864 1.370 1_565 S
C865 C869 1.408 . S
C866 C864 1.363 . S
C866 C867 1.370 1_545 S
C866 C870 1.524 . S
C867 C859 1.503 . S
C867 C866 1.370 1_565 S
C867 C868 1.403 . S
C868 C867 1.403 . S
C868 C869 1.404 . S
C868 C871 1.539 . S
C869 C865 1.408 . S
C869 C868 1.404 . S
C869 H881 0.930 . S
C870 C866 1.524 . S
C870 H882 0.956 . S
C870 H883 0.961 . S
C870 H884 0.961 . S
C871 C868 1.539 . S
C871 H885 0.958 . S
C871 H886 0.961 . S
C871 H887 0.960 . S
H872 C856 0.931 . S
H873 C861 0.929 . S
H874 C862 0.960 1_565 S
H875 C862 0.962 . S
H876 C862 0.960 . S
H877 C863 0.961 . S
H878 C863 0.961 . S
H879 C863 0.961 . S
H880 C864 0.931 . S
H881 C869 0.930 . S
H882 C870 0.956 . S
H883 C870 0.961 . S
H884 C870 0.961 . S
H885 C871 0.958 . S
H886 C871 0.961 . S
H887 C871 0.960 . S
C888 C889 1.391 . S
C888 C890 1.394 . S
C888 H904 0.931 . S
C889 C888 1.391 . S
C889 C893 1.376 . S
C890 C888 1.394 . S
C890 C891 1.369 . S
C890 C894 1.531 . S
C891 C890 1.369 . S
C891 C892 1.410 . S
C891 C899 1.503 . S
C892 C891 1.410 . S
C892 C893 1.392 . S
C892 C895 1.511 . S
C893 C889 1.376 . S
C893 C892 1.392 . S
C893 H905 0.929 . S
C894 C890 1.531 . S
C894 H906 0.960 . S
C894 H907 0.962 . S
C894 H908 0.960 . S
C895 C892 1.511 . S
C895 H909 0.961 . S
C895 H910 0.961 . S
C895 H911 0.961 . S
C896 C897 1.370 . S
C896 C898 1.363 . S
C896 H912 0.931 . S
C897 C896 1.370 . S
C897 C901 1.408 . S
C898 C896 1.363 . S
C898 C899 1.370 . S
C898 C902 1.524 . S
C899 C891 1.503 . S
C899 C898 1.370 . S
C899 C900 1.403 . S
C900 C899 1.403 . S
C900 C901 1.404 . S
C900 C903 1.539 . S
C901 C897 1.408 . S
C901 C900 1.404 . S
C901 H913 0.930 . S
C902 C898 1.524 . S
C902 H914 0.956 . S
C902 H915 0.961 . S
C902 H916 0.961 . S
C903 C900 1.539 . S
C903 H917 0.958 . S
C903 H918 0.961 . S
C903 H919 0.960 . S
H904 C888 0.931 . S
H905 C893 0.929 . S
H906 C894 0.960 . S
H907 C894 0.962 . S
H908 C894 0.960 . S
H909 C895 0.961 . S
H910 C895 0.961 . S
H911 C895 0.961 . S
H912 C896 0.931 . S
H913 C901 0.930 . S
H914 C902 0.956 . S
H915 C902 0.961 . S
H916 C902 0.961 . S
H917 C903 0.958 . S
H918 C903 0.961 . S
H919 C903 0.960 . S
C920 C921 1.391 . S
C920 C922 1.394 . S
C920 H936 0.931 . S
C921 C920 1.391 . S
C921 C925 1.376 . S
C922 C920 1.394 . S
C922 C923 1.369 . S
C922 C926 1.531 . S
C923 C922 1.369 . S
C923 C924 1.410 . S
C923 C931 1.503 . S
C924 C923 1.410 . S
C924 C925 1.392 . S
C924 C927 1.511 . S
C925 C921 1.376 . S
C925 C924 1.392 . S
C925 H937 0.929 . S
C926 C922 1.531 . S
C926 H938 0.960 . S
C926 H939 0.962 . S
C926 H940 0.960 . S
C927 C924 1.511 . S
C927 H941 0.961 . S
C927 H942 0.961 . S
C927 H943 0.961 . S
C928 C929 1.370 . S
C928 C930 1.363 . S
C928 H944 0.931 . S
C929 C928 1.370 . S
C929 C933 1.408 . S
C930 C928 1.363 . S
C930 C931 1.370 . S
C930 C934 1.524 . S
C931 C923 1.503 . S
C931 C930 1.370 . S
C931 C932 1.403 . S
C932 C931 1.403 . S
C932 C933 1.404 . S
C932 C935 1.539 . S
C933 C929 1.408 . S
C933 C932 1.404 . S
C933 H945 0.930 . S
C934 C930 1.524 . S
C934 H946 0.956 . S
C934 H947 0.961 . S
C934 H948 0.961 . S
C935 C932 1.539 . S
C935 H949 0.958 . S
C935 H950 0.961 . S
C935 H951 0.960 . S
H936 C920 0.931 . S
H937 C925 0.929 . S
H938 C926 0.960 . S
H939 C926 0.962 . S
H940 C926 0.960 . S
H941 C927 0.961 . S
H942 C927 0.961 . S
H943 C927 0.961 . S
H944 C928 0.931 . S
H945 C933 0.930 . S
H946 C934 0.956 . S
H947 C934 0.961 . S
H948 C934 0.961 . S
H949 C935 0.958 . S
H950 C935 0.961 . S
H951 C935 0.960 . S
C185 C82 1.366 1_565 S
C193 C122 1.471 . S
C225 C142 1.541 . S
C217 C95 1.503 . S
C257 C162 1.466 . S
C249 C56 1.377 . S
C289 C182 1.554 . S
C281 C69 1.440 . S
C321 C123 1.470 . S
C313 C30 1.325 . S
C345 C43 1.462 . S
C353 C143 1.550 . S
C377 C4 1.409 . S
C385 C163 1.454 . S
C409 C17 1.427 . S
C417 C183 1.538 1_655 S
C449 C113 0.870 . S
C441 C74 0.812 . S
C481 C133 0.811 . S
C473 C87 0.876 . S
C513 C153 0.833 . S
C505 C100 0.913 . S
C537 C61 0.805 . S
C545 C173 0.866 . S
C569 C22 0.817 . S
C577 C116 0.879 1_455 S
C609 C136 0.847 . S
C601 C35 0.854 . S
C641 C156 0.835 . S
C633 C48 0.921 . S
C665 C9 0.849 . S
C673 C176 0.854 . S
C697 C73 1.517 . S
C705 C106 1.500 . S
C729 C86 1.512 . S
C737 C126 1.457 . S
C769 C146 1.479 . S
C761 C99 1.543 . S
C801 C166 1.426 . S
C793 C60 1.514 . S
C825 C21 1.536 . S
C833 C108 1.495 . S
C865 C128 1.463 . S
C857 C34 1.486 1_565 S
C897 C148 1.476 . S
C889 C47 1.574 . S
C921 C8 1.490 . S
C929 C168 1.440 . S
