# Generated by pormake.
# Topology ctn, (3,4)-cn, num edge types: 1
# Building blocks:
#     Node 0, Type 0, BuildingBlock: BELTOD_clean_linker_0, # of connection points: 3
#     Node 1, Type 0, BuildingBlock: BELTOD_clean_linker_0, # of connection points: 3
#     Node 2, Type 0, BuildingBlock: BELTOD_clean_linker_0, # of connection points: 3
#     Node 3, Type 0, BuildingBlock: BELTOD_clean_linker_0, # of connection points: 3
#     Node 4, Type 0, BuildingBlock: BELTOD_clean_linker_0, # of connection points: 3
#     Node 5, Type 0, BuildingBlock: BELTOD_clean_linker_0, # of connection points: 3
#     Node 6, Type 0, BuildingBlock: BELTOD_clean_linker_0, # of connection points: 3
#     Node 7, Type 0, BuildingBlock: BELTOD_clean_linker_0, # of connection points: 3
#     Node 8, Type 0, BuildingBlock: BELTOD_clean_linker_0, # of connection points: 3
#     Node 9, Type 0, BuildingBlock: BELTOD_clean_linker_0, # of connection points: 3
#     Node 10, Type 0, BuildingBlock: BELTOD_clean_linker_0, # of connection points: 3
#     Node 11, Type 0, BuildingBlock: BELTOD_clean_linker_0, # of connection points: 3
#     Node 12, Type 0, BuildingBlock: BELTOD_clean_linker_0, # of connection points: 3
#     Node 13, Type 0, BuildingBlock: BELTOD_clean_linker_0, # of connection points: 3
#     Node 14, Type 0, BuildingBlock: BELTOD_clean_linker_0, # of connection points: 3
#     Node 15, Type 0, BuildingBlock: BELTOD_clean_linker_0, # of connection points: 3
#     Node 16, Type 1, BuildingBlock: QUQFOY_clean_sbu_1, # of connection points: 4
#     Node 17, Type 1, BuildingBlock: QUQFOY_clean_sbu_1, # of connection points: 4
#     Node 18, Type 1, BuildingBlock: QUQFOY_clean_sbu_1, # of connection points: 4
#     Node 19, Type 1, BuildingBlock: QUQFOY_clean_sbu_1, # of connection points: 4
#     Node 20, Type 1, BuildingBlock: QUQFOY_clean_sbu_1, # of connection points: 4
#     Node 21, Type 1, BuildingBlock: QUQFOY_clean_sbu_1, # of connection points: 4
#     Node 22, Type 1, BuildingBlock: QUQFOY_clean_sbu_1, # of connection points: 4
#     Node 23, Type 1, BuildingBlock: QUQFOY_clean_sbu_1, # of connection points: 4
#     Node 24, Type 1, BuildingBlock: QUQFOY_clean_sbu_1, # of connection points: 4
#     Node 25, Type 1, BuildingBlock: QUQFOY_clean_sbu_1, # of connection points: 4
#     Node 26, Type 1, BuildingBlock: QUQFOY_clean_sbu_1, # of connection points: 4
#     Node 27, Type 1, BuildingBlock: QUQFOY_clean_sbu_1, # of connection points: 4
#     Edge 28, Type (0, 1), BuildingBlock: EZIPEK_clean_linker_0, # of connection points: 2
#     Edge 29, Type (0, 1), BuildingBlock: EZIPEK_clean_linker_0, # of connection points: 2
#     Edge 30, Type (0, 1), BuildingBlock: EZIPEK_clean_linker_0, # of connection points: 2
#     Edge 31, Type (0, 1), BuildingBlock: EZIPEK_clean_linker_0, # of connection points: 2
#     Edge 32, Type (0, 1), BuildingBlock: EZIPEK_clean_linker_0, # of connection points: 2
#     Edge 33, Type (0, 1), BuildingBlock: EZIPEK_clean_linker_0, # of connection points: 2
#     Edge 34, Type (0, 1), BuildingBlock: EZIPEK_clean_linker_0, # of connection points: 2
#     Edge 35, Type (0, 1), BuildingBlock: EZIPEK_clean_linker_0, # of connection points: 2
#     Edge 36, Type (0, 1), BuildingBlock: EZIPEK_clean_linker_0, # of connection points: 2
#     Edge 37, Type (0, 1), BuildingBlock: EZIPEK_clean_linker_0, # of connection points: 2
#     Edge 38, Type (0, 1), BuildingBlock: EZIPEK_clean_linker_0, # of connection points: 2
#     Edge 39, Type (0, 1), BuildingBlock: EZIPEK_clean_linker_0, # of connection points: 2
#     Edge 40, Type (0, 1), BuildingBlock: EZIPEK_clean_linker_0, # of connection points: 2
#     Edge 41, Type (0, 1), BuildingBlock: EZIPEK_clean_linker_0, # of connection points: 2
#     Edge 42, Type (0, 1), BuildingBlock: EZIPEK_clean_linker_0, # of connection points: 2
#     Edge 43, Type (0, 1), BuildingBlock: EZIPEK_clean_linker_0, # of connection points: 2
#     Edge 44, Type (0, 1), BuildingBlock: EZIPEK_clean_linker_0, # of connection points: 2
#     Edge 45, Type (0, 1), BuildingBlock: EZIPEK_clean_linker_0, # of connection points: 2
#     Edge 46, Type (0, 1), BuildingBlock: EZIPEK_clean_linker_0, # of connection points: 2
#     Edge 47, Type (0, 1), BuildingBlock: EZIPEK_clean_linker_0, # of connection points: 2
#     Edge 48, Type (0, 1), BuildingBlock: EZIPEK_clean_linker_0, # of connection points: 2
#     Edge 49, Type (0, 1), BuildingBlock: EZIPEK_clean_linker_0, # of connection points: 2
#     Edge 50, Type (0, 1), BuildingBlock: EZIPEK_clean_linker_0, # of connection points: 2
#     Edge 51, Type (0, 1), BuildingBlock: EZIPEK_clean_linker_0, # of connection points: 2
#     Edge 52, Type (0, 1), BuildingBlock: EZIPEK_clean_linker_0, # of connection points: 2
#     Edge 53, Type (0, 1), BuildingBlock: EZIPEK_clean_linker_0, # of connection points: 2
#     Edge 54, Type (0, 1), BuildingBlock: EZIPEK_clean_linker_0, # of connection points: 2
#     Edge 55, Type (0, 1), BuildingBlock: EZIPEK_clean_linker_0, # of connection points: 2
#     Edge 56, Type (0, 1), BuildingBlock: EZIPEK_clean_linker_0, # of connection points: 2
#     Edge 57, Type (0, 1), BuildingBlock: EZIPEK_clean_linker_0, # of connection points: 2
#     Edge 58, Type (0, 1), BuildingBlock: EZIPEK_clean_linker_0, # of connection points: 2
#     Edge 59, Type (0, 1), BuildingBlock: EZIPEK_clean_linker_0, # of connection points: 2
#     Edge 60, Type (0, 1), BuildingBlock: EZIPEK_clean_linker_0, # of connection points: 2
#     Edge 61, Type (0, 1), BuildingBlock: EZIPEK_clean_linker_0, # of connection points: 2
#     Edge 62, Type (0, 1), BuildingBlock: EZIPEK_clean_linker_0, # of connection points: 2
#     Edge 63, Type (0, 1), BuildingBlock: EZIPEK_clean_linker_0, # of connection points: 2
#     Edge 64, Type (0, 1), BuildingBlock: EZIPEK_clean_linker_0, # of connection points: 2
#     Edge 65, Type (0, 1), BuildingBlock: EZIPEK_clean_linker_0, # of connection points: 2
#     Edge 66, Type (0, 1), BuildingBlock: EZIPEK_clean_linker_0, # of connection points: 2
#     Edge 67, Type (0, 1), BuildingBlock: EZIPEK_clean_linker_0, # of connection points: 2
#     Edge 68, Type (0, 1), BuildingBlock: EZIPEK_clean_linker_0, # of connection points: 2
#     Edge 69, Type (0, 1), BuildingBlock: EZIPEK_clean_linker_0, # of connection points: 2
#     Edge 70, Type (0, 1), BuildingBlock: EZIPEK_clean_linker_0, # of connection points: 2
#     Edge 71, Type (0, 1), BuildingBlock: EZIPEK_clean_linker_0, # of connection points: 2
#     Edge 72, Type (0, 1), BuildingBlock: EZIPEK_clean_linker_0, # of connection points: 2
#     Edge 73, Type (0, 1), BuildingBlock: EZIPEK_clean_linker_0, # of connection points: 2
#     Edge 74, Type (0, 1), BuildingBlock: EZIPEK_clean_linker_0, # of connection points: 2
#     Edge 75, Type (0, 1), BuildingBlock: EZIPEK_clean_linker_0, # of connection points: 2
# Relax obj value: 0.038
# Max RMSD: 0.153
# Mean RMSD: 0.068
data_MOF--net-ctn--node1-QUQFOY_clean_sbu_1--node2-BELTOD_clean_linker_0--edge1-EZIPEK_clean_linker_0
_symmetry_space_group_name_H-M    P1
_symmetry_Int_Tables_number       1
_symmetry_cell_setting            triclinic
loop_
_symmetry_equiv_pos_as_xyz
'x, y, z'
_cell_length_a     47.422964
_cell_length_b     47.794113
_cell_length_c     47.390971
_cell_angle_alpha  92.328746
_cell_angle_beta   90.175721
_cell_angle_gamma 95.932532
loop_
_atom_site_label
_atom_site_type_symbol
_atom_site_fract_x
_atom_site_fract_y
_atom_site_fract_z
_atom_type_partial_charge
P0 P 0.07433 0.11071 0.10292 0.0
H1 H 0.06746 0.07553 0.15174 0.0
H2 H 0.02718 0.06317 0.18292 0.0
H3 H 0.97647 0.11589 0.13676 0.0
H4 H 0.01657 0.12841 0.10567 0.0
H5 H 0.13221 0.10251 0.08711 0.0
H6 H 0.15519 0.06068 0.07228 0.0
H7 H 0.07566 0.00905 0.07985 0.0
H8 H 0.05247 0.05103 0.09424 0.0
H9 H 0.0832 0.16833 0.0836 0.0
H10 H 0.03863 0.08891 0.05502 0.0
O11 O 0.09805 0.13307 0.12063 0.0
H12 H 0.06201 0.19161 0.04483 0.0
H13 H 0.01719 0.11235 0.01631 0.0
C14 C 0.04481 0.10224 0.12592 0.0
C15 C 0.04766 0.08435 0.14824 0.0
C16 C 0.0248 0.07738 0.16603 0.0
C17 C 0.99892 0.08845 0.16184 0.0
C18 C 0.99627 0.107 0.14005 0.0
C19 C 0.01914 0.11398 0.12227 0.0
C20 C 0.09083 0.07974 0.09236 0.0
C21 C 0.11972 0.0822 0.08571 0.0
C22 C 0.1328 0.05841 0.07724 0.0
C23 C 0.1171 0.03186 0.07513 0.0
C24 C 0.08808 0.02939 0.08149 0.0
C25 C 0.07495 0.05328 0.08977 0.0
C26 C 0.06264 0.12687 0.07198 0.0
C27 C 0.06935 0.1558 0.06868 0.0
C28 C 0.05728 0.16909 0.04662 0.0
C29 C 0.03815 0.15363 0.02778 0.0
C30 C 0.03209 0.12451 0.03056 0.0
C31 C 0.04433 0.11119 0.05255 0.0
P32 P 0.30841 0.69511 0.1926 0.0
H33 H 0.32368 0.72465 0.14137 0.0
H34 H 0.3023 0.76157 0.11686 0.0
H35 H 0.24058 0.76592 0.18311 0.0
H36 H 0.262 0.72891 0.20776 0.0
H37 H 0.35142 0.66586 0.21886 0.0
H38 H 0.38369 0.67847 0.25898 0.0
H39 H 0.35586 0.76162 0.2643 0.0
H40 H 0.3232 0.74888 0.22444 0.0
H41 H 0.2601 0.65913 0.16947 0.0
H42 H 0.29403 0.68515 0.2522 0.0
O43 O 0.32248 0.67512 0.16779 0.0
H44 H 0.2219 0.62897 0.19145 0.0
H45 H 0.25639 0.65457 0.27391 0.0
C46 C 0.29409 0.72378 0.17606 0.0
C47 C 0.30563 0.73358 0.1507 0.0
C48 C 0.29348 0.75458 0.13675 0.0
C49 C 0.26982 0.76618 0.14816 0.0
C50 C 0.25877 0.75703 0.17401 0.0
C51 C 0.27096 0.73597 0.18798 0.0
C52 C 0.33538 0.70661 0.21839 0.0
C53 C 0.3527 0.687 0.22826 0.0
C54 C 0.37092 0.69408 0.25119 0.0
C55 C 0.37208 0.72093 0.26447 0.0
C56 C 0.35524 0.74083 0.25418 0.0
C57 C 0.33679 0.73362 0.23137 0.0
C58 C 0.28018 0.67389 0.20911 0.0
C59 C 0.25936 0.65832 0.19227 0.0
C60 C 0.2376 0.64127 0.20475 0.0
C61 C 0.23653 0.63959 0.23423 0.0
C62 C 0.25699 0.65566 0.25113 0.0
C63 C 0.27857 0.67293 0.23865 0.0
P64 P 0.98053 0.49874 0.04079 0.0
H65 H 0.94225 0.47563 0.99478 0.0
H66 H 0.9347 0.42897 0.9711 0.0
H67 H 0.99735 0.39948 0.02562 0.0
H68 H 0.00338 0.44543 0.05069 0.0
H69 H 0.97827 0.55924 0.04214 0.0
H70 H 0.93909 0.58869 0.03866 0.0
H71 H 0.87927 0.5142 0.03564 0.0
H72 H 0.91832 0.4849 0.04098 0.0
H73 H 0.03696 0.49624 0.06426 0.0
H74 H 0.95179 0.49791 0.09564 0.0
O75 O 0.00643 0.51468 0.02161 0.0
H76 H 0.0551 0.49813 0.11288 0.0
H77 H 0.97009 0.50034 0.14436 0.0
C78 C 0.97249 0.46378 0.02535 0.0
C79 C 0.9535 0.45887 0.00249 0.0
C80 C 0.94941 0.43234 0.98874 0.0
C81 C 0.96543 0.41078 0.99667 0.0
C82 C 0.98459 0.41576 0.01937 0.0
C83 C 0.98799 0.44202 0.03368 0.0
C84 C 0.95124 0.51985 0.04038 0.0
C85 C 0.95671 0.54925 0.04091 0.0
C86 C 0.93443 0.56604 0.03906 0.0
C87 C 0.90639 0.55355 0.03623 0.0
C88 C 0.90081 0.52418 0.03736 0.0
C89 C 0.9231 0.50747 0.04002 0.0
C90 C 0.99316 0.49763 0.07645 0.0
C91 C 0.02218 0.49687 0.08159 0.0
C92 C 0.03249 0.49775 0.10923 0.0
C93 C 0.01389 0.49946 0.13205 0.0
C94 C 0.98468 0.49897 0.12694 0.0
C95 C 0.97433 0.49781 0.09921 0.0
P96 P 0.67569 0.82843 0.20921 0.0
H97 H 0.7063 0.87402 0.17953 0.0
H98 H 0.74239 0.9123 0.19481 0.0
H99 H 0.74156 0.88015 0.27855 0.0
H100 H 0.70564 0.84181 0.26335 0.0
H101 H 0.65775 0.79653 0.15749 0.0
H102 H 0.67912 0.76061 0.12894 0.0
H103 H 0.74757 0.76252 0.18932 0.0
H104 H 0.72652 0.79931 0.21773 0.0
H105 H 0.62758 0.84823 0.23853 0.0
H106 H 0.68094 0.78103 0.24639 0.0
O107 O 0.6536 0.84293 0.18801 0.0
H108 H 0.60042 0.83191 0.27964 0.0
H109 H 0.65378 0.76486 0.28786 0.0
C110 C 0.70296 0.85547 0.22044 0.0
C111 C 0.71389 0.87521 0.20117 0.0
C112 C 0.7344 0.89696 0.20982 0.0
C113 C 0.7443 0.89905 0.23782 0.0
C114 C 0.73393 0.87887 0.25692 0.0
C115 C 0.71344 0.85709 0.24824 0.0
C116 C 0.69082 0.80086 0.18945 0.0
C117 C 0.67739 0.78937 0.16463 0.0
C118 C 0.6895 0.76885 0.14838 0.0
C119 C 0.71501 0.75925 0.15693 0.0
C120 C 0.72798 0.76992 0.18235 0.0
C121 C 0.71601 0.79083 0.19845 0.0
C122 C 0.65576 0.81541 0.23898 0.0
C123 C 0.63331 0.82985 0.24894 0.0
C124 C 0.61795 0.82067 0.27244 0.0
C125 C 0.62502 0.79709 0.28649 0.0
C126 C 0.64796 0.78297 0.27704 0.0
C127 C 0.66329 0.79212 0.25335 0.0
P128 P 0.06587 0.94453 0.43691 0.0
H129 H 0.10857 0.97714 0.40453 0.0
H130 H 0.14397 0.01684 0.41748 0.0
H131 H 0.11686 0.01348 0.50416 0.0
H132 H 0.08147 0.9738 0.4913 0.0
H133 H 0.0927 0.89987 0.46288 0.0
H134 H 0.07925 0.86986 0.5026 0.0
H135 H 0.00456 0.91293 0.51587 0.0
H136 H 0.01795 0.94297 0.47633 0.0
H137 H 0.04112 0.99722 0.45062 0.0
H138 H 0.02398 0.92476 0.39349 0.0
O139 O 0.07871 0.9242 0.4116 0.0
H140 H 0.00101 0.01842 0.43034 0.0
H141 H 0.98395 0.94604 0.37323 0.0
C142 C 0.09292 0.97219 0.44707 0.0
C143 C 0.11049 0.98471 0.42638 0.0
C144 C 0.13053 0.00735 0.43369 0.0
C145 C 0.13298 0.01783 0.46175 0.0
C146 C 0.11529 0.00544 0.48245 0.0
C147 C 0.09526 0.98278 0.47512 0.0
C148 C 0.05599 0.92315 0.46631 0.0
C149 C 0.07342 0.90283 0.47432 0.0
C150 C 0.06588 0.88585 0.49696 0.0
C151 C 0.0409 0.88921 0.51192 0.0
C152 C 0.02387 0.91008 0.50443 0.0
C153 C 0.03144 0.92706 0.4818 0.0
C154 C 0.03589 0.95974 0.42302 0.0
C155 C 0.02881 0.98592 0.43371 0.0
C156 C 0.00591 0.99795 0.42231 0.0
C157 C 0.98982 0.98383 0.4002 0.0
C158 C 0.99631 0.95723 0.3902 0.0
C159 C 0.01916 0.9452 0.40164 0.0
P160 P 0.25471 0.78119 0.77679 0.0
H161 H 0.29047 0.80375 0.82405 0.0
H162 H 0.27988 0.82455 0.87059 0.0
H163 H 0.19038 0.81016 0.85188 0.0
H164 H 0.20079 0.78898 0.80569 0.0
H165 H 0.29355 0.75026 0.74304 0.0
H166 H 0.31144 0.70423 0.74809 0.0
H167 H 0.25929 0.69033 0.82159 0.0
H168 H 0.24133 0.73629 0.81656 0.0
H169 H 0.23106 0.8251 0.74664 0.0
H170 H 0.20975 0.73663 0.75977 0.0
O171 O 0.28086 0.8025 0.76324 0.0
H172 H 0.18512 0.82692 0.72308 0.0
H173 H 0.16391 0.73851 0.73612 0.0
C174 C 0.24652 0.79537 0.8112 0.0
C175 C 0.26858 0.80498 0.83 0.0
C176 C 0.26256 0.81672 0.85649 0.0
C177 C 0.23437 0.81888 0.86451 0.0
C178 C 0.21224 0.80863 0.84599 0.0
C179 C 0.21827 0.79671 0.81956 0.0
C180 C 0.26656 0.74685 0.77973 0.0
C181 C 0.28595 0.73732 0.76022 0.0
C182 C 0.29612 0.71113 0.76305 0.0
C183 C 0.2868 0.69413 0.78533 0.0
C184 C 0.2668 0.70332 0.80439 0.0
C185 C 0.25664 0.72951 0.80154 0.0
C186 C 0.224 0.78062 0.75441 0.0
C187 C 0.21688 0.80593 0.74371 0.0
C188 C 0.1907 0.80704 0.73044 0.0
C189 C 0.17135 0.78283 0.72788 0.0
C190 C 0.17879 0.7573 0.73778 0.0
C191 C 0.20495 0.75623 0.75113 0.0
P192 P 0.99156 0.52257 0.54148 0.0
H193 H 0.03168 0.56316 0.51273 0.0
H194 H 0.05211 0.56241 0.46538 0.0
H195 H 0.01097 0.47852 0.44898 0.0
H196 H 0.98918 0.47984 0.49586 0.0
H197 H 0.00064 0.54597 0.5991 0.0
H198 H 0.99794 0.59338 0.6203 0.0
H199 H 0.97705 0.62304 0.53888 0.0
H200 H 0.97938 0.57569 0.51769 0.0
H201 H 0.95697 0.47829 0.57054 0.0
H202 H 0.94629 0.53557 0.50413 0.0
O203 O 0.00885 0.5032 0.56287 0.0
H204 H 0.90698 0.45933 0.56522 0.0
H205 H 0.8962 0.51713 0.49942 0.0
C206 C 0.00807 0.52194 0.5074 0.0
C207 C 0.02652 0.54482 0.49884 0.0
C208 C 0.03837 0.54434 0.47191 0.0
C209 C 0.03275 0.52054 0.45363 0.0
C210 C 0.01524 0.49718 0.46269 0.0
C211 C 0.00289 0.49795 0.48937 0.0
C212 C 0.99102 0.55755 0.5567 0.0
C213 C 0.99569 0.56268 0.58575 0.0
C214 C 0.99395 0.58957 0.59788 0.0
C215 C 0.9874 0.61148 0.58102 0.0
C216 C 0.98221 0.60627 0.55208 0.0
C217 C 0.9837 0.57935 0.54004 0.0
C218 C 0.95527 0.50819 0.53761 0.0
C219 C 0.94393 0.48679 0.55489 0.0
C220 C 0.91549 0.47608 0.55196 0.0
C221 C 0.89815 0.48697 0.53199 0.0
C222 C 0.90939 0.50863 0.51497 0.0
C223 C 0.93787 0.51908 0.51768 0.0
P224 P 0.81851 0.86013 0.84201 0.0
H225 H 0.85335 0.89161 0.80143 0.0
H226 H 0.885 0.87723 0.76374 0.0
H227 H 0.86224 0.7901 0.78179 0.0
H228 H 0.83009 0.80431 0.81879 0.0
H229 H 0.79179 0.91091 0.8569 0.0
H230 H 0.74864 0.9291 0.84016 0.0
H231 H 0.73338 0.85779 0.78141 0.0
H232 H 0.7772 0.83973 0.79782 0.0
H233 H 0.852 0.82748 0.87705 0.0
H234 H 0.76338 0.82972 0.85701 0.0
O235 O 0.83792 0.8853 0.86102 0.0
H236 H 0.83953 0.7875 0.90724 0.0
H237 H 0.75111 0.78995 0.88711 0.0
C238 C 0.83991 0.84908 0.81326 0.0
C239 C 0.85505 0.86942 0.79713 0.0
C240 C 0.87303 0.86126 0.77571 0.0
C241 C 0.87612 0.83266 0.77032 0.0
C242 C 0.86024 0.81228 0.78586 0.0
C243 C 0.84203 0.82043 0.80705 0.0
C244 C 0.78783 0.87422 0.82828 0.0
C245 C 0.77948 0.89935 0.84014 0.0
C246 C 0.75486 0.90968 0.83067 0.0
C247 C 0.73808 0.89484 0.80948 0.0
C248 C 0.74629 0.86958 0.79763 0.0
C249 C 0.77121 0.85939 0.8069 0.0
C250 C 0.80869 0.83154 0.86475 0.0
C251 C 0.82993 0.81947 0.87921 0.0
C252 C 0.82288 0.79671 0.89632 0.0
C253 C 0.79445 0.78588 0.89921 0.0
C254 C 0.77316 0.79807 0.88496 0.0
C255 C 0.78023 0.82077 0.86779 0.0
P256 P 0.3197 0.3592 0.33143 0.0
H257 H 0.34914 0.3882 0.28567 0.0
H258 H 0.38113 0.37276 0.24875 0.0
H259 H 0.36791 0.28794 0.2774 0.0
H260 H 0.33566 0.30307 0.31379 0.0
H261 H 0.29093 0.40775 0.34925 0.0
H262 H 0.24749 0.42584 0.33308 0.0
H263 H 0.23525 0.35808 0.26991 0.0
H264 H 0.27936 0.34017 0.28577 0.0
H265 H 0.35273 0.33412 0.3735 0.0
H266 H 0.26681 0.32278 0.34146 0.0
O267 O 0.33972 0.38507 0.34891 0.0
H268 H 0.34158 0.29488 0.4049 0.0
H269 H 0.25573 0.28387 0.37298 0.0
C270 C 0.34036 0.3469 0.30266 0.0
C271 C 0.35288 0.36623 0.28377 0.0
C272 C 0.37106 0.35748 0.26279 0.0
C273 C 0.37696 0.32931 0.26064 0.0
C274 C 0.36364 0.30978 0.2789 0.0
C275 C 0.34532 0.3185 0.29972 0.0
C276 C 0.28856 0.37297 0.31834 0.0
C277 C 0.2792 0.39697 0.33167 0.0
C278 C 0.25442 0.40722 0.32253 0.0
C279 C 0.23844 0.39339 0.3002 0.0
C280 C 0.24754 0.36912 0.28701 0.0
C281 C 0.27263 0.35903 0.29598 0.0
C282 C 0.31052 0.33164 0.35549 0.0
C283 C 0.33145 0.32343 0.37345 0.0
C284 C 0.32517 0.30106 0.39121 0.0
C285 C 0.29786 0.28667 0.39119 0.0
C286 C 0.2769 0.29485 0.37324 0.0
C287 C 0.28324 0.31712 0.35535 0.0
P288 P 0.48258 0.00782 0.54081 0.0
H289 H 0.51785 0.97634 0.50369 0.0
H290 H 0.51049 0.9293 0.48055 0.0
H291 H 0.42706 0.91676 0.51676 0.0
H292 H 0.43422 0.96413 0.5397 0.0
H293 H 0.45982 0.04654 0.58268 0.0
H294 H 0.4196 0.07491 0.58101 0.0
H295 H 0.39697 0.03865 0.49823 0.0
H296 H 0.43733 0.01051 0.49962 0.0
H297 H 0.52279 0.04305 0.5768 0.0
H298 H 0.47025 0.96417 0.58248 0.0
O299 O 0.5072 0.02743 0.52314 0.0
H300 H 0.54028 0.0384 0.62493 0.0
H301 H 0.48819 0.95936 0.63048 0.0
C302 C 0.47636 0.97385 0.52291 0.0
C303 C 0.49783 0.96367 0.5064 0.0
C304 C 0.49371 0.93688 0.4933 0.0
C305 C 0.46821 0.91983 0.49691 0.0
C306 C 0.44679 0.92982 0.51368 0.0
C307 C 0.45085 0.95677 0.52662 0.0
C308 C 0.45116 0.02589 0.54152 0.0
C309 C 0.44597 0.04425 0.56437 0.0
C310 C 0.42312 0.06049 0.56345 0.0
C311 C 0.40535 0.0586 0.5396 0.0
C312 C 0.41038 0.04008 0.5169 0.0
C313 C 0.43328 0.024 0.51776 0.0
C314 C 0.49563 0.00373 0.57589 0.0
C315 C 0.51521 0.02464 0.58826 0.0
C316 C 0.52512 0.02204 0.61567 0.0
C317 C 0.51549 0.99853 0.63108 0.0
C318 C 0.49582 0.97761 0.61879 0.0
C319 C 0.48571 0.98035 0.59141 0.0
P320 P 0.17026 0.32984 0.7094 0.0
H321 H 0.19858 0.37606 0.67883 0.0
H322 H 0.23457 0.41494 0.69278 0.0
H323 H 0.23693 0.38359 0.77672 0.0
H324 H 0.20114 0.34465 0.76281 0.0
H325 H 0.14388 0.28422 0.67317 0.0
H326 H 0.16324 0.24992 0.64064 0.0
H327 H 0.24805 0.28127 0.66739 0.0
H328 H 0.22872 0.31563 0.70004 0.0
H329 H 0.12215 0.34648 0.74121 0.0
H330 H 0.1795 0.28223 0.74464 0.0
O331 O 0.14653 0.34342 0.68934 0.0
H332 H 0.09653 0.3269 0.78192 0.0
H333 H 0.15379 0.26265 0.7857 0.0
C334 C 0.19688 0.35784 0.71992 0.0
C335 C 0.20678 0.37761 0.70025 0.0
C336 C 0.22725 0.3997 0.70815 0.0
C337 C 0.23809 0.40213 0.7358 0.0
C338 C 0.22857 0.38206 0.75535 0.0
C339 C 0.20815 0.35992 0.74741 0.0
C340 C 0.18489 0.30278 0.68848 0.0
C341 C 0.16662 0.28351 0.67228 0.0
C342 C 0.1776 0.26391 0.65388 0.0
C343 C 0.20699 0.26329 0.65162 0.0
C344 C 0.22529 0.28156 0.66894 0.0
C345 C 0.21426 0.30122 0.68737 0.0
C346 C 0.15219 0.31534 0.73956 0.0
C347 C 0.12914 0.32811 0.75066 0.0
C348 C 0.11465 0.31705 0.7739 0.0
C349 C 0.12318 0.29323 0.78649 0.0
C350 C 0.14685 0.28092 0.77601 0.0
C351 C 0.16135 0.29199 0.75261 0.0
P352 P 0.80311 0.19461 0.68959 0.0
H353 H 0.82678 0.23308 0.64787 0.0
H354 H 0.80747 0.27116 0.62317 0.0
H355 H 0.73098 0.25955 0.67213 0.0
H356 H 0.75031 0.22167 0.69709 0.0
H357 H 0.8445 0.16302 0.71544 0.0
H358 H 0.8776 0.17408 0.75519 0.0
H359 H 0.85428 0.25898 0.7608 0.0
H360 H 0.82078 0.24781 0.72133 0.0
H361 H 0.75739 0.15463 0.66702 0.0
H362 H 0.78617 0.18905 0.749 0.0
O363 O 0.81636 0.17495 0.66399 0.0
H364 H 0.71951 0.12461 0.68965 0.0
H365 H 0.74883 0.15862 0.77149 0.0
C366 C 0.7898 0.22428 0.6739 0.0
C367 C 0.80597 0.23888 0.65348 0.0
C368 C 0.79502 0.26056 0.63946 0.0
C369 C 0.7678 0.26789 0.6458 0.0
C370 C 0.75199 0.25401 0.66699 0.0
C371 C 0.76302 0.23239 0.6811 0.0
C372 C 0.83066 0.20475 0.71516 0.0
C373 C 0.84696 0.18419 0.72483 0.0
C374 C 0.86568 0.19041 0.74752 0.0
C375 C 0.86833 0.21732 0.76078 0.0
C376 C 0.85253 0.23814 0.75067 0.0
C377 C 0.8336 0.23181 0.72809 0.0
C378 C 0.77497 0.17347 0.70634 0.0
C379 C 0.7556 0.15567 0.68981 0.0
C380 C 0.734 0.13871 0.70265 0.0
C381 C 0.7316 0.13942 0.73218 0.0
C382 C 0.75048 0.15783 0.74868 0.0
C383 C 0.77188 0.17499 0.73581 0.0
P384 P 0.57518 0.61033 0.60321 0.0
H385 H 0.55674 0.63609 0.65619 0.0
H386 H 0.51629 0.62393 0.6872 0.0
H387 H 0.48642 0.55496 0.62964 0.0
H388 H 0.52679 0.56712 0.59855 0.0
H389 H 0.60988 0.59781 0.5545 0.0
H390 H 0.63452 0.55675 0.54052 0.0
H391 H 0.60082 0.51366 0.61319 0.0
H392 H 0.57678 0.55495 0.62767 0.0
H393 H 0.58364 0.66934 0.58806 0.0
H394 H 0.53966 0.59165 0.55411 0.0
O395 O 0.5999 0.63116 0.62132 0.0
H396 H 0.56361 0.69499 0.55033 0.0
H397 H 0.51913 0.6175 0.51665 0.0
C398 C 0.54506 0.60207 0.62545 0.0
C399 C 0.5415 0.61839 0.65019 0.0
C400 C 0.5184 0.61161 0.66777 0.0
C401 C 0.49857 0.58853 0.66066 0.0
C402 C 0.50157 0.57284 0.63539 0.0
C403 C 0.52462 0.5797 0.61779 0.0
C404 C 0.59084 0.57913 0.59166 0.0
C405 C 0.60745 0.57942 0.56724 0.0
C406 C 0.62156 0.5561 0.55931 0.0
C407 C 0.61929 0.53226 0.57579 0.0
C408 C 0.60258 0.53185 0.60016 0.0
C409 C 0.58876 0.55534 0.60827 0.0
C410 C 0.56323 0.62858 0.57374 0.0
C411 C 0.57002 0.65774 0.5723 0.0
C412 C 0.55861 0.67238 0.55084 0.0
C413 C 0.53997 0.65808 0.53077 0.0
C414 C 0.53359 0.62882 0.53189 0.0
C415 C 0.54522 0.61414 0.55325 0.0
P416 P 0.56049 0.44714 0.93518 0.0
H417 H 0.6102 0.47551 0.90827 0.0
H418 H 0.64552 0.51404 0.92449 0.0
H419 H 0.60273 0.51932 0.0044 0.0
H420 H 0.56772 0.48031 0.98847 0.0
H421 H 0.59108 0.40557 0.96156 0.0
H422 H 0.57958 0.3741 0.00056 0.0
H423 H 0.49919 0.40783 0.01104 0.0
H424 H 0.51062 0.43933 0.97213 0.0
H425 H 0.53203 0.49718 0.95167 0.0
H426 H 0.52124 0.4287 0.88906 0.0
O427 O 0.57445 0.42829 0.90936 0.0
H428 H 0.49175 0.51784 0.93121 0.0
H429 H 0.48099 0.44948 0.86864 0.0
C430 C 0.58666 0.47485 0.94735 0.0
C431 C 0.60856 0.48472 0.92938 0.0
C432 C 0.62862 0.50668 0.93855 0.0
C433 C 0.62666 0.51927 0.96562 0.0
C434 C 0.60454 0.50966 0.9835 0.0
C435 C 0.5847 0.48745 0.97443 0.0
C436 C 0.55147 0.42431 0.96365 0.0
C437 C 0.57095 0.40612 0.9722 0.0
C438 C 0.5645 0.38833 0.99444 0.0
C439 C 0.53855 0.38871 0.00846 0.0
C440 C 0.51929 0.40732 0.00032 0.0
C441 C 0.52577 0.42513 0.97807 0.0
C442 C 0.53005 0.46175 0.92142 0.0
C443 C 0.52109 0.48659 0.93357 0.0
C444 C 0.49805 0.49832 0.92205 0.0
C445 C 0.48368 0.48521 0.89837 0.0
C446 C 0.492 0.45987 0.88687 0.0
C447 C 0.51497 0.44813 0.89843 0.0
P448 P 0.75773 0.27752 0.27756 0.0
H449 H 0.79203 0.30314 0.32464 0.0
H450 H 0.77982 0.32456 0.37039 0.0
H451 H 0.69092 0.30457 0.35113 0.0
H452 H 0.70298 0.28278 0.30569 0.0
H453 H 0.79729 0.24623 0.24522 0.0
H454 H 0.81494 0.20024 0.25131 0.0
H455 H 0.76087 0.18709 0.32357 0.0
H456 H 0.74312 0.23297 0.31748 0.0
H457 H 0.73506 0.32151 0.24675 0.0
H458 H 0.71312 0.23305 0.25942 0.0
O459 O 0.78435 0.29866 0.26457 0.0
H460 H 0.68963 0.32356 0.22231 0.0
H461 H 0.66776 0.23515 0.23492 0.0
C462 C 0.74848 0.29197 0.31152 0.0
C463 C 0.76993 0.30327 0.33029 0.0
C464 C 0.763 0.31535 0.35635 0.0
C465 C 0.73449 0.31612 0.36396 0.0
C466 C 0.713 0.30411 0.34553 0.0
C467 C 0.71996 0.29187 0.31954 0.0
C468 C 0.76933 0.24317 0.28121 0.0
C469 C 0.78921 0.23345 0.26235 0.0
C470 C 0.79926 0.2073 0.26579 0.0
C471 C 0.78935 0.19053 0.28803 0.0
C472 C 0.76885 0.1999 0.30642 0.0
C473 C 0.75881 0.22605 0.30296 0.0
C474 C 0.72765 0.27702 0.25436 0.0
C475 C 0.72087 0.30238 0.24352 0.0
C476 C 0.69498 0.30362 0.22975 0.0
C477 C 0.67555 0.2795 0.22686 0.0
C478 C 0.6827 0.25389 0.23685 0.0
C479 C 0.70859 0.25268 0.25068 0.0
P480 P 0.49283 0.01583 0.04265 0.0
H481 H 0.54983 0.01842 0.01988 0.0
H482 H 0.56811 0.01972 0.97141 0.0
H483 H 0.48262 0.01443 0.93892 0.0
H484 H 0.46429 0.0135 0.98724 0.0
H485 H 0.50463 0.03945 0.09973 0.0
H486 H 0.50547 0.08763 0.12019 0.0
H487 H 0.48951 0.11796 0.03778 0.0
H488 H 0.48888 0.06996 0.01725 0.0
H489 H 0.46357 0.96019 0.03042 0.0
H490 H 0.44074 0.04276 0.05551 0.0
O491 O 0.51123 0.99555 0.06198 0.0
H492 H 0.41303 0.94234 0.02831 0.0
H493 H 0.39063 0.02485 0.05342 0.0
C494 C 0.50576 0.01518 0.00708 0.0
C495 C 0.53503 0.01729 0.00232 0.0
C496 C 0.54543 0.01814 0.97481 0.0
C497 C 0.52662 0.01701 0.95181 0.0
C498 C 0.49734 0.01514 0.95652 0.0
C499 C 0.48695 0.01444 0.98406 0.0
C500 C 0.49741 0.05134 0.05693 0.0
C501 C 0.5019 0.05654 0.08599 0.0
C502 C 0.50219 0.08386 0.09766 0.0
C503 C 0.49756 0.10609 0.08038 0.0
C504 C 0.4932 0.10094 0.0513 0.0
C505 C 0.49309 0.07366 0.03963 0.0
C506 C 0.45596 0.00266 0.04333 0.0
C507 C 0.44779 0.97434 0.03575 0.0
C508 C 0.41911 0.96422 0.03447 0.0
C509 C 0.39837 0.98237 0.0408 0.0
C510 C 0.40649 0.01063 0.0486 0.0
C511 C 0.43514 0.02076 0.04979 0.0
O512 O 0.23658 0.86221 0.99336 0.0
Cd513 Cd 0.24605 0.87725 0.03397 0.0
Cd514 Cd 0.22207 0.92318 0.01438 0.0
O515 O 0.2148 0.89766 0.97844 0.0
O516 O 0.26064 0.84448 0.0513 0.0
O517 O 0.22388 0.86456 0.06836 0.0
C518 C 0.24151 0.84587 0.0703 0.0
C519 C 0.18641 0.94751 0.03383 0.0
C520 C 0.22398 0.87382 0.97399 0.0
C521 C 0.2833 0.93169 0.03099 0.0
O522 O 0.26264 0.94257 0.02032 0.0
O523 O 0.28061 0.90647 0.03865 0.0
O524 O 0.19867 0.95498 0.0107 0.0
O525 O 0.19352 0.92526 0.0455 0.0
O526 O 0.15591 0.53953 0.29232 0.0
Cd527 Cd 0.1302 0.50428 0.30344 0.0
Cd528 Cd 0.08999 0.53598 0.28295 0.0
O529 O 0.12388 0.56456 0.27492 0.0
O530 O 0.15889 0.47988 0.31557 0.0
O531 O 0.13093 0.46914 0.27832 0.0
C532 C 0.15144 0.46324 0.29426 0.0
C533 C 0.0636 0.52112 0.24326 0.0
C534 C 0.14948 0.56131 0.28034 0.0
C535 C 0.08332 0.5195 0.34256 0.0
O536 O 0.07413 0.53385 0.3232 0.0
O537 O 0.10444 0.50559 0.33833 0.0
O538 O 0.05963 0.54432 0.25685 0.0
O539 O 0.08137 0.50526 0.25336 0.0
O540 O 0.7481 0.69328 0.9894 0.0
Cd541 Cd 0.73752 0.66538 0.02077 0.0
Cd542 Cd 0.77317 0.63473 0.99054 0.0
O543 O 0.78008 0.67012 0.96735 0.0
O544 O 0.71819 0.68824 0.04902 0.0
O545 O 0.75898 0.67115 0.05767 0.0
C546 C 0.73899 0.6859 0.06597 0.0
C547 C 0.81215 0.6148 0.00729 0.0
C548 C 0.76665 0.69166 0.97029 0.0
C549 C 0.71299 0.60979 0.99549 0.0
O550 O 0.73673 0.60816 0.9836 0.0
O551 O 0.70911 0.63034 0.01235 0.0
O552 O 0.80414 0.6112 0.98126 0.0
O553 O 0.79812 0.63021 0.02401 0.0
O554 O 0.90651 0.01588 0.30753 0.0
Cd555 Cd 0.88406 0.02348 0.272 0.0
Cd556 Cd 0.84818 0.04018 0.31208 0.0
O557 O 0.87997 0.03404 0.34035 0.0
O558 O 0.91206 0.01945 0.24132 0.0
O559 O 0.89464 0.05968 0.25258 0.0
C560 C 0.9117 0.04594 0.23759 0.0
C561 C 0.83317 0.08403 0.30586 0.0
C562 C 0.9019 0.02236 0.33322 0.0
C563 C 0.82679 0.9909 0.27457 0.0
O564 O 0.82245 0.00545 0.29688 0.0
O565 O 0.84939 0.99576 0.26049 0.0
O566 O 0.82414 0.06924 0.32683 0.0
O567 O 0.85125 0.07419 0.28877 0.0
O568 O 0.24889 0.19614 0.48115 0.0
Cd569 Cd 0.23578 0.16973 0.51288 0.0
Cd570 Cd 0.2761 0.13916 0.48951 0.0
O571 O 0.28459 0.17386 0.46539 0.0
O572 O 0.21339 0.19357 0.53737 0.0
O573 O 0.25321 0.17767 0.55154 0.0
C574 C 0.23238 0.19248 0.55666 0.0
C575 C 0.31352 0.12088 0.51113 0.0
C576 C 0.2699 0.19457 0.46486 0.0
C577 C 0.21611 0.11219 0.48895 0.0
O578 O 0.24125 0.1109 0.48022 0.0
O579 O 0.20951 0.13346 0.50343 0.0
O580 O 0.30904 0.11719 0.48435 0.0
O581 O 0.297 0.13553 0.52589 0.0
O582 O 0.40102 0.5166 0.80471 0.0
Cd583 Cd 0.37972 0.52497 0.7687 0.0
Cd584 Cd 0.34392 0.54278 0.80811 0.0
O585 O 0.37505 0.5363 0.837 0.0
O586 O 0.40861 0.51951 0.73926 0.0
O587 O 0.39259 0.5607 0.7492 0.0
C588 C 0.40963 0.54606 0.73519 0.0
C589 C 0.32991 0.587 0.80157 0.0
C590 C 0.39648 0.52365 0.83026 0.0
C591 C 0.3219 0.4937 0.77047 0.0
O592 O 0.31778 0.50833 0.79279 0.0
O593 O 0.34461 0.49818 0.75645 0.0
O594 O 0.32026 0.57234 0.8224 0.0
O595 O 0.34804 0.5768 0.78477 0.0
O596 O 0.73702 0.36373 0.49065 0.0
Cd597 Cd 0.74692 0.37997 0.53077 0.0
Cd598 Cd 0.72216 0.42426 0.51014 0.0
O599 O 0.71251 0.39721 0.47574 0.0
O600 O 0.76197 0.34756 0.5484 0.0
O601 O 0.72537 0.36774 0.56569 0.0
C602 C 0.74293 0.34897 0.56748 0.0
C603 C 0.68809 0.44859 0.53222 0.0
C604 C 0.72278 0.37389 0.47154 0.0
C605 C 0.78377 0.434 0.52411 0.0
O606 O 0.76298 0.44374 0.51238 0.0
O607 O 0.78125 0.40964 0.53404 0.0
O608 O 0.6976 0.45528 0.5077 0.0
O609 O 0.69712 0.42723 0.54399 0.0
O610 O 0.65391 0.0408 0.7954 0.0
Cd611 Cd 0.62915 0.00553 0.80764 0.0
Cd612 Cd 0.58802 0.03153 0.78172 0.0
O613 O 0.62104 0.06124 0.77334 0.0
O614 O 0.65779 0.98202 0.82156 0.0
O615 O 0.63079 0.96976 0.78386 0.0
C616 C 0.65098 0.96464 0.80062 0.0
C617 C 0.56419 0.01233 0.74189 0.0
C618 C 0.64665 0.06058 0.78081 0.0
C619 C 0.57868 0.01937 0.84217 0.0
O620 O 0.5692 0.03072 0.82081 0.0
O621 O 0.60164 0.00788 0.84096 0.0
O622 O 0.55896 0.03639 0.75283 0.0
O623 O 0.58187 0.9982 0.75466 0.0
O624 O 0.94923 0.28328 0.93593 0.0
Cd625 Cd 0.95649 0.2442 0.91909 0.0
Cd626 Cd 0.99276 0.27309 0.88611 0.0
O627 O 0.98796 0.30382 0.91692 0.0
O628 O 0.95207 0.2158 0.94866 0.0
O629 O 0.99338 0.23064 0.92944 0.0
C630 C 0.97926 0.21537 0.94756 0.0
C631 C 0.03727 0.27143 0.86615 0.0
C632 C 0.96717 0.30472 0.93366 0.0
C633 C 0.93998 0.24244 0.85945 0.0
O634 O 0.96023 0.2618 0.85754 0.0
O635 O 0.93564 0.22988 0.88238 0.0
O636 O 0.02206 0.2915 0.86132 0.0
O637 O 0.02785 0.2525 0.88339 0.0
O638 O 0.45415 0.79037 0.4407 0.0
Cd639 Cd 0.4619 0.75207 0.42227 0.0
Cd640 Cd 0.49487 0.78369 0.388 0.0
O641 O 0.48873 0.81455 0.41818 0.0
O642 O 0.45721 0.72325 0.45142 0.0
O643 O 0.49867 0.73804 0.43256 0.0
C644 C 0.48436 0.72264 0.45044 0.0
C645 C 0.53929 0.78164 0.36813 0.0
C646 C 0.46959 0.81323 0.43689 0.0
C647 C 0.44319 0.75027 0.36275 0.0
O648 O 0.46238 0.77054 0.36019 0.0
O649 O 0.44024 0.7377 0.38583 0.0
O650 O 0.52398 0.80148 0.36262 0.0
O651 O 0.53011 0.76344 0.38623 0.0
O652 O 0.97693 0.78263 0.69876 0.0
Cd653 Cd 0.00884 0.7665 0.67582 0.0
Cd654 Cd 0.97953 0.78439 0.63174 0.0
O655 O 0.95378 0.79828 0.66308 0.0
O656 O 0.03898 0.76052 0.70343 0.0
O657 O 0.04556 0.78967 0.66819 0.0
C658 C 0.05568 0.77779 0.68945 0.0
C659 C -0.0006 0.81573 0.59969 0.0
C660 C 0.95654 0.79493 0.68936 0.0
C661 C 0.98702 0.7232 0.63141 0.0
O662 O 0.97593 0.74245 0.61902 0.0
O663 O 0.00099 0.72844 0.6542 0.0
O664 O 0.97322 0.80542 0.59743 0.0
O665 O 0.01434 0.80863 0.62058 0.0
O666 O 0.48131 0.27962 0.19505 0.0
Cd667 Cd 0.51356 0.26245 0.17376 0.0
Cd668 Cd 0.48639 0.27924 0.12762 0.0
O669 O 0.45824 0.29166 0.15755 0.0
O670 O 0.5435 0.25791 0.20203 0.0
O671 O 0.55029 0.28525 0.16535 0.0
C672 C 0.56031 0.27441 0.18732 0.0
C673 C 0.5039 0.31168 0.09549 0.0
C674 C 0.4605 0.29014 0.18415 0.0
C675 C 0.49517 0.21818 0.12942 0.0
O676 O 0.48631 0.23744 0.11515 0.0
O677 O 0.50585 0.22352 0.15385 0.0
O678 O 0.47868 0.29889 0.0928 0.0
O679 O 0.51929 0.30628 0.11675 0.0
C680 C 0.23544 0.86281 0.89506 0.0
C681 C 0.22832 0.83334 0.89177 0.0
C682 C 0.21185 0.83213 0.94071 0.0
C683 C 0.22307 0.86068 0.94512 0.0
N684 N 0.25055 0.90179 0.92739 0.0
N685 N 0.21234 0.78901 0.91202 0.0
C686 C 0.23597 0.87581 0.92249 0.0
C687 C 0.21702 0.8177 0.9147 0.0
N688 N 0.24145 0.87845 0.8719 0.0
N689 N 0.19576 0.81904 0.96116 0.0
H690 H 0.2158 0.77772 0.89327 0.0
H691 H 0.20713 0.77627 0.92893 0.0
H692 H 0.19114 0.82922 0.98022 0.0
H693 H 0.18477 0.79911 0.95816 0.0
H694 H 0.24393 0.90039 0.87281 0.0
H695 H 0.24115 0.86964 0.85138 0.0
H696 H 0.26294 0.91217 0.91213 0.0
H697 H 0.25281 0.91188 0.94728 0.0
C698 C 0.02794 0.51814 0.40065 0.0
C699 C 0.04554 0.51999 0.42508 0.0
C700 C 0.08758 0.52542 0.3953 0.0
C701 C 0.07014 0.51985 0.37087 0.0
N702 N 0.02378 0.50488 0.35091 0.0
N703 N 0.0922 0.51896 0.44534 0.0
C704 C 0.04028 0.51454 0.37367 0.0
C705 C 0.07542 0.52171 0.42233 0.0
N706 N -0.00039 0.52077 0.40308 0.0
N707 N 0.11544 0.53562 0.39289 0.0
H708 H 0.08408 0.51544 0.46546 0.0
H709 H 0.11389 0.51728 0.44386 0.0
H710 H 0.12496 0.54028 0.3736 0.0
H711 H 0.12822 0.54251 0.41025 0.0
H712 H 0.98643 0.52241 0.38572 0.0
H713 H 0.98983 0.52411 0.42243 0.0
H714 H 0.00227 0.49809 0.35254 0.0
H715 H 0.03204 0.5008 0.33098 0.0
C716 C 0.78791 0.76602 0.94714 0.0
C717 C 0.78698 0.76174 0.91736 0.0
C718 C 0.7699 0.71204 0.92232 0.0
C719 C 0.77351 0.71574 0.95201 0.0
N720 N 0.79115 0.74486 0.9924 0.0
N721 N 0.78152 0.73012 0.87627 0.0
C722 C 0.78387 0.74238 0.9644 0.0
C723 C 0.77921 0.73457 0.90482 0.0
N724 N 0.79196 0.79273 0.95893 0.0
N725 N 0.75657 0.68741 0.91092 0.0
H726 H 0.78813 0.74615 0.86273 0.0
H727 H 0.77916 0.7102 0.86628 0.0
H728 H 0.74909 0.67054 0.92309 0.0
H729 H 0.75063 0.68458 0.88974 0.0
H730 H 0.78973 0.79733 0.98042 0.0
H731 H 0.79512 0.81062 0.94695 0.0
H732 H 0.80157 0.7631 0.00192 0.0
H733 H 0.78931 0.72788 0.00564 0.0
C734 C 0.93811 0.98753 0.3922 0.0
C735 C 0.96675 0.99716 0.38654 0.0
C736 C 0.95121 0.02934 0.35215 0.0
C737 C 0.92307 0.01647 0.35453 0.0
N738 N 0.88946 0.982 0.37534 0.0
N739 N 0.00119 0.02573 0.35981 0.0
C740 C 0.9163 0.99549 0.37447 0.0
C741 C 0.9735 0.01793 0.36638 0.0
N742 N 0.93187 0.97094 0.41462 0.0
N743 N 0.95647 0.05273 0.33654 0.0
H744 H 0.01821 0.0181 0.36995 0.0
H745 H 0.00733 0.03821 0.34294 0.0
H746 H 0.94044 0.06177 0.32615 0.0
H747 H 0.97607 0.06471 0.33609 0.0
H748 H 0.91131 0.96547 0.42159 0.0
H749 H 0.94746 0.96465 0.42787 0.0
H750 H 0.88407 0.96425 0.38699 0.0
H751 H 0.87283 0.98736 0.3629 0.0
C752 C 0.22677 0.25741 0.6031 0.0
C753 C 0.21833 0.24535 0.62902 0.0
C754 C 0.22286 0.19804 0.60862 0.0
C755 C 0.23127 0.21022 0.58278 0.0
N756 N 0.24832 0.25108 0.5573 0.0
N757 N 0.21386 0.20546 0.6587 0.0
C758 C 0.23553 0.23983 0.58068 0.0
C759 C 0.21823 0.216 0.63251 0.0
N760 N 0.22502 0.28543 0.59941 0.0
N761 N 0.21805 0.16943 0.60988 0.0
H762 H 0.21025 0.21818 0.67648 0.0
H763 H 0.21604 0.18469 0.66333 0.0
H764 H 0.22195 0.15576 0.59294 0.0
H765 H 0.20879 0.15923 0.62706 0.0
H766 H 0.22749 0.29469 0.57995 0.0
H767 H 0.21911 0.29924 0.6154 0.0
H768 H 0.25469 0.27246 0.55564 0.0
H769 H 0.25504 0.23869 0.5405 0.0
C770 C 0.48239 0.56527 0.705 0.0
C771 C 0.47568 0.57953 0.68059 0.0
C772 C 0.42508 0.57255 0.69207 0.0
C773 C 0.43206 0.55955 0.71718 0.0
N774 N 0.46745 0.5499 0.75114 0.0
N775 N 0.44173 0.60143 0.65328 0.0
C776 C 0.46077 0.55781 0.72472 0.0
C777 C 0.4473 0.58463 0.67485 0.0
N778 N 0.50919 0.55784 0.70883 0.0
N779 N 0.39733 0.57228 0.6841 0.0
H780 H 0.45753 0.61043 0.6402 0.0
H781 H 0.42195 0.60832 0.64977 0.0
H782 H 0.38054 0.56381 0.69631 0.0
H783 H 0.39096 0.57861 0.66452 0.0
H784 H 0.51444 0.54459 0.72451 0.0
H785 H 0.52575 0.56289 0.69491 0.0
H786 H 0.48815 0.55109 0.75886 0.0
H787 H 0.45222 0.54484 0.76647 0.0
C788 C 0.74033 0.28034 0.60369 0.0
C789 C 0.75554 0.28913 0.6289 0.0
C790 C 0.75637 0.33851 0.61669 0.0
C791 C 0.74225 0.32959 0.59096 0.0
N792 N 0.71456 0.29379 0.56281 0.0
N793 N 0.77226 0.32595 0.66288 0.0
C794 C 0.7321 0.30099 0.58547 0.0
C795 C 0.76154 0.31811 0.63659 0.0
N796 N 0.73496 0.25226 0.5966 0.0
N797 N 0.76614 0.36625 0.62131 0.0
H798 H 0.77658 0.31137 0.67769 0.0
H799 H 0.77479 0.34666 0.67087 0.0
H800 H 0.76174 0.38182 0.60762 0.0
H801 H 0.77957 0.37377 0.63794 0.0
H802 H 0.72701 0.24441 0.57704 0.0
H803 H 0.73981 0.23653 0.6099 0.0
H804 H 0.70433 0.27369 0.55878 0.0
H805 H 0.70823 0.30871 0.54926 0.0
C806 C 0.55514 0.99123 0.66386 0.0
C807 C 0.52646 0.99616 0.66011 0.0
C808 C 0.52125 0.00188 0.7113 0.0
C809 C 0.55103 0.00235 0.71448 0.0
N810 N 0.59715 0.00029 0.69311 0.0
N811 N 0.48219 0.00806 0.67992 0.0
C812 C 0.56824 0.99727 0.69069 0.0
C813 C 0.50932 0.00163 0.68376 0.0
N814 N 0.56982 0.98081 0.64171 0.0
N815 N 0.5044 0.00135 0.73465 0.0
H816 H 0.4726 0.00803 0.66009 0.0
H817 H 0.46987 0.01544 0.69622 0.0
H818 H 0.51258 0.00092 0.75509 0.0
H819 H 0.48234 0.99843 0.73365 0.0
H820 H 0.58995 0.9742 0.64384 0.0
H821 H 0.56073 0.97617 0.62177 0.0
H822 H 0.6106 0.00013 0.67579 0.0
H823 H 0.60795 0.00535 0.7121 0.0
C824 C 0.91656 0.2248 0.78354 0.0
C825 C 0.88667 0.22323 0.78617 0.0
C826 C 0.89168 0.23572 0.8367 0.0
C827 C 0.92141 0.23473 0.83458 0.0
N828 N 0.9615 0.2223 0.80719 0.0
N829 N 0.84546 0.22111 0.8161 0.0
C830 C 0.93371 0.22756 0.80831 0.0
C831 C 0.87411 0.22687 0.81303 0.0
N832 N 0.92862 0.22452 0.75738 0.0
N833 N 0.88027 0.24643 0.86077 0.0
H834 H 0.83184 0.21431 0.79932 0.0
H835 H 0.83558 0.22051 0.8357 0.0
H836 H 0.8924 0.25397 0.87838 0.0
H837 H 0.85913 0.25041 0.86227 0.0
H838 H 0.95035 0.22863 0.75417 0.0
H839 H 0.91674 0.22267 0.73872 0.0
H840 H 0.9708 0.2143 0.78912 0.0
H841 H 0.97454 0.22315 0.82502 0.0
C842 C 0.45237 0.88751 0.45578 0.0
C843 C 0.46444 0.89126 0.48325 0.0
C844 C 0.47402 0.84176 0.48246 0.0
C845 C 0.46506 0.839 0.45379 0.0
N846 N 0.4455 0.85827 0.4127 0.0
N847 N 0.48703 0.87302 0.52318 0.0
C848 C 0.45395 0.86157 0.44038 0.0
C849 C 0.47503 0.86855 0.49687 0.0
N850 N 0.43921 0.90876 0.44463 0.0
N851 N 0.48174 0.81881 0.49575 0.0
H852 H 0.487 0.89202 0.53482 0.0
H853 H 0.49821 0.85854 0.5331 0.0
H854 H 0.48258 0.79921 0.48548 0.0
H855 H 0.48565 0.81849 0.51733 0.0
H856 H 0.42752 0.90667 0.42592 0.0
H857 H 0.43826 0.92824 0.45513 0.0
H858 H 0.44048 0.87467 0.40047 0.0
H859 H 0.44452 0.83901 0.40137 0.0
C860 C 0.08468 0.259 0.80497 0.0
C861 C 0.10644 0.2813 0.81032 0.0
C862 C 0.08704 0.29098 0.85707 0.0
C863 C 0.06418 0.27012 0.85085 0.0
N864 N 0.04494 0.22911 0.82331 0.0
N865 N 0.13317 0.31316 0.84341 0.0
C866 C 0.06446 0.25218 0.82635 0.0
C867 C 0.10928 0.29542 0.83721 0.0
N868 N 0.08231 0.24568 0.77885 0.0
N869 N 0.08669 0.30723 0.88145 0.0
H870 H 0.1497 0.31658 0.82907 0.0
H871 H 0.13773 0.32262 0.86329 0.0
H872 H 0.07142 0.30327 0.897 0.0
H873 H 0.10082 0.325 0.88596 0.0
H874 H 0.065 0.23171 0.77236 0.0
H875 H 0.09715 0.24965 0.76294 0.0
H876 H 0.04537 0.2138 0.80711 0.0
H877 H 0.02964 0.22391 0.8385 0.0
C878 C 0.50487 0.6917 0.51921 0.0
C879 C 0.5256 0.67415 0.50983 0.0
C880 C 0.5173 0.68617 0.46089 0.0
C881 C 0.49884 0.70599 0.47069 0.0
N882 N 0.48033 0.73223 0.50992 0.0
N883 N 0.55506 0.65794 0.47247 0.0
C884 C 0.49402 0.71002 0.50007 0.0
C885 C 0.53284 0.67229 0.48084 0.0
N886 N 0.49491 0.69033 0.54622 0.0
N887 N 0.51909 0.67971 0.43263 0.0
H888 H 0.56689 0.64749 0.4865 0.0
H889 H 0.56327 0.65839 0.45212 0.0
H890 H 0.50757 0.68894 0.4174 0.0
H891 H 0.52993 0.66335 0.42448 0.0
H892 H 0.47764 0.70046 0.55321 0.0
H893 H 0.50204 0.67691 0.56089 0.0
H894 H 0.47894 0.73782 0.53131 0.0
H895 H 0.47297 0.74693 0.4968 0.0
C896 C 0.92618 0.83007 0.75412 0.0
C897 C 0.89665 0.82397 0.74896 0.0
C898 C 0.90637 0.79703 0.70567 0.0
C899 C 0.9358 0.80548 0.7094 0.0
N900 N 0.97306 0.83538 0.73384 0.0
N901 N 0.85847 0.80662 0.71709 0.0
C902 C 0.94555 0.82354 0.73269 0.0
C903 C 0.88667 0.80895 0.72387 0.0
N904 N 0.9358 0.84113 0.77985 0.0
N905 N 0.89725 0.77656 0.68576 0.0
H906 H 0.84342 0.81529 0.72982 0.0
H907 H 0.85043 0.79843 0.69765 0.0
H908 H 0.91097 0.76647 0.67262 0.0
H909 H 0.8763 0.76758 0.68418 0.0
H910 H 0.95713 0.84313 0.78573 0.0
H911 H 0.92234 0.84588 0.79633 0.0
H912 H 0.98051 0.85091 0.74889 0.0
H913 H 0.98776 0.83192 0.71808 0.0
C914 C 0.01944 0.84235 0.52755 0.0
C915 C 0.03183 0.87001 0.53472 0.0
C916 C 0.02298 0.86234 0.58489 0.0
C917 C 0.01215 0.83413 0.57779 0.0
N918 N 0.00609 0.79533 0.54337 0.0
N919 N 0.05025 0.90493 0.57001 0.0
C920 C 0.01212 0.82355 0.54938 0.0
C921 C 0.03511 0.87959 0.56338 0.0
N922 N 0.01375 0.83432 0.49991 0.0
N923 N 0.02047 0.87305 0.61185 0.0
H924 H 0.05919 0.91818 0.55474 0.0
H925 H 0.05595 0.91177 0.59058 0.0
H926 H 0.01162 0.86112 0.62817 0.0
H927 H 0.02508 0.89429 0.61761 0.0
H928 H 0.00178 0.81558 0.49368 0.0
H929 H 0.01894 0.8474 0.4832 0.0
H930 H 0.00862 0.78599 0.52342 0.0
H931 H 0.00125 0.78075 0.55889 0.0
C932 C 0.13574 0.77624 0.68835 0.0
C933 C 0.14235 0.78459 0.71684 0.0
C934 C 0.09335 0.79479 0.72472 0.0
C935 C 0.08596 0.78292 0.69748 0.0
N936 N 0.09917 0.7597 0.65402 0.0
N937 N 0.12753 0.7997 0.76318 0.0
C938 C 0.10694 0.77323 0.67927 0.0
C939 C 0.12121 0.79349 0.7353 0.0
N940 N 0.15705 0.77142 0.66998 0.0
N941 N 0.07384 0.8079 0.74016 0.0
H942 H 0.14784 0.79958 0.77166 0.0
H943 H 0.1123 0.80307 0.77838 0.0
H944 H 0.05332 0.80949 0.7328 0.0
H945 H 0.07866 0.81943 0.75897 0.0
H946 H 0.15398 0.76817 0.64828 0.0
H947 H 0.17832 0.773 0.67613 0.0
H948 H 0.11298 0.74923 0.64138 0.0
H949 H 0.07834 0.75706 0.64651 0.0
C950 C 0.96105 0.64928 0.60359 0.0
C951 C 0.98693 0.64027 0.59353 0.0
C952 C 0.01175 0.68674 0.60539 0.0
C953 C 0.98647 0.69496 0.61765 0.0
N954 N 0.93782 0.684 0.63129 0.0
N955 N 0.03751 0.64871 0.58724 0.0
C956 C 0.96123 0.67627 0.61741 0.0
C957 C 0.01248 0.65853 0.5951 0.0
N958 N 0.93632 0.63214 0.59952 0.0
N959 N 0.03474 0.70623 0.60265 0.0
H960 H 0.03879 0.62848 0.57854 0.0
H961 H 0.05728 0.65985 0.59106 0.0
H962 H 0.03504 0.72717 0.60989 0.0
H963 H 0.05272 0.70242 0.59116 0.0
H964 H 0.91635 0.63854 0.60351 0.0
H965 H 0.93557 0.61186 0.59034 0.0
H966 H 0.91971 0.67033 0.63461 0.0
H967 H 0.93716 0.70379 0.64126 0.0
C968 C 0.75678 0.94993 0.25207 0.0
C969 C 0.76543 0.92261 0.24722 0.0
C970 C 0.81356 0.9396 0.26306 0.0
C971 C 0.80561 0.96745 0.26523 0.0
N972 N 0.77108 4e-05 0.25715 0.0
N973 N 0.80278 0.89207 0.24348 0.0
C974 C 0.77757 0.9729 0.25852 0.0
C975 C 0.79406 0.91761 0.25138 0.0
N976 N 0.72862 0.95379 0.25124 0.0
N977 N 0.83925 0.93392 0.27334 0.0
H978 H 0.78906 0.87536 0.23498 0.0
H979 H 0.824 0.8882 0.24308 0.0
H980 H 0.85394 0.94932 0.28268 0.0
H981 H 0.84494 0.91359 0.27507 0.0
H982 H 0.72078 0.97259 0.25763 0.0
H983 H 0.71276 0.93749 0.24644 0.0
H984 H 0.75182 0.00534 0.24946 0.0
H985 H 0.78585 0.01747 0.26125 0.0
C986 C 0.7844 0.13773 0.28367 0.0
C987 C 0.80074 0.1632 0.2923 0.0
C988 C 0.83944 0.13678 0.30746 0.0
C989 C 0.82219 0.11128 0.30094 0.0
N990 N 0.77742 0.08682 0.28547 0.0
N991 N 0.84193 0.18741 0.31584 0.0
C992 C 0.79437 0.11157 0.28987 0.0
C993 C 0.82782 0.16287 0.30506 0.0
N994 N 0.75984 0.13861 0.26867 0.0
N995 N 0.86699 0.13603 0.31577 0.0
H996 H 0.83417 0.20694 0.31434 0.0
H997 H 0.86024 0.1883 0.32816 0.0
H998 H 0.87586 0.11732 0.31899 0.0
H999 H 0.88166 0.15379 0.31768 0.0
H1000 H 0.74848 0.12096 0.25904 0.0
H1001 H 0.7518 0.15739 0.26391 0.0
H1002 H 0.75589 0.08572 0.28067 0.0
H1003 H 0.78442 0.06714 0.28831 0.0
C1004 C 0.35284 0.96375 0.06318 0.0
C1005 C 0.36801 0.97183 0.03858 0.0
C1006 C 0.32694 0.95503 0.00887 0.0
C1007 C 0.31141 0.94791 0.03357 0.0
N1008 N 0.30709 0.95049 0.08423 0.0
N1009 N 0.36836 0.98076 0.98886 0.0
C1010 C 0.32364 0.9538 0.06077 0.0
C1011 C 0.35465 0.96927 0.01166 0.0
N1012 N 0.36662 0.96469 0.08865 0.0
N1013 N 0.31588 0.94682 0.98278 0.0
H1014 H 0.38889 0.991 0.99006 0.0
H1015 H 0.35861 0.98227 0.96935 0.0
H1016 H 0.29565 0.93633 0.97973 0.0
H1017 H 0.32752 0.94844 0.96422 0.0
H1018 H 0.35759 0.95608 0.10676 0.0
H1019 H 0.3879 0.97237 0.09132 0.0
H1020 H 0.31399 0.95703 0.10454 0.0
H1021 H 0.28552 0.94348 0.08312 0.0
C1022 C 0.21262 0.42431 0.27011 0.0
C1023 C 0.2118 0.40454 0.29165 0.0
C1024 C 0.16445 0.41593 0.30545 0.0
C1025 C 0.16784 0.4392 0.28784 0.0
N1026 N 0.19303 0.46487 0.25146 0.0
N1027 N 0.18648 0.37877 0.32791 0.0
C1028 C 0.19098 0.44275 0.26901 0.0
C1029 C 0.18724 0.39911 0.30838 0.0
N1030 N 0.2344 0.42573 0.25122 0.0
N1031 N 0.13949 0.41039 0.31948 0.0
H1032 H 0.20234 0.3653 0.32948 0.0
H1033 H 0.17071 0.37557 0.343 0.0
H1034 H 0.12261 0.42255 0.31722 0.0
H1035 H 0.13455 0.39278 0.33141 0.0
H1036 H 0.23529 0.43807 0.23361 0.0
H1037 H 0.25076 0.41278 0.25198 0.0
H1038 H 0.21087 0.47098 0.23961 0.0
H1039 H 0.17683 0.47786 0.24937 0.0
C1040 C 0.14841 0.0696 0.46229 0.0
C1041 C 0.15395 0.04213 0.46936 0.0
C1042 C 0.19854 0.06123 0.49229 0.0
C1043 C 0.19443 0.08825 0.48261 0.0
N1044 N 0.16785 0.11752 0.45449 0.0
N1045 N 0.18592 0.01084 0.48726 0.0
C1046 C 0.16994 0.09233 0.46662 0.0
C1047 C 0.17949 0.03765 0.48331 0.0
N1048 N 0.12232 0.07405 0.45205 0.0
N1049 N 0.21996 0.05828 0.51098 0.0
H1050 H 0.17236 0.993 0.48119 0.0
H1051 H 0.20562 0.00619 0.49441 0.0
H1052 H 0.23402 0.07516 0.51856 0.0
H1053 H 0.2222 0.03966 0.52105 0.0
H1054 H 0.11599 0.09401 0.44942 0.0
H1055 H 0.10605 0.05786 0.44844 0.0
H1056 H 0.15199 0.12073 0.44008 0.0
H1057 H 0.18336 0.1346 0.4568 0.0
C1058 C 0.6865 0.12964 0.75953 0.0
C1059 C 0.71027 0.11961 0.74583 0.0
C1060 C 0.69112 0.07107 0.75328 0.0
C1061 C 0.66879 0.08108 0.76946 0.0
N1062 N 0.6479 0.1199 0.7923 0.0
N1063 N 0.73857 0.08134 0.73539 0.0
C1064 C 0.6672 0.11041 0.77383 0.0
C1065 C 0.71363 0.09048 0.74449 0.0
N1066 N 0.68184 0.1573 0.75808 0.0
N1067 N 0.69009 0.04327 0.74483 0.0
H1068 H 0.75579 0.09496 0.72904 0.0
H1069 H 0.74315 0.06058 0.73681 0.0
H1070 H 0.67324 0.02841 0.74941 0.0
H1071 H 0.70442 0.03551 0.73064 0.0
H1072 H 0.66329 0.16516 0.76508 0.0
H1073 H 0.69548 0.17198 0.74772 0.0
H1074 H 0.64766 0.14103 0.79849 0.0
H1075 H 0.63377 0.10639 0.8035 0.0
C1076 C 0.35449 0.06722 0.54568 0.0
C1077 C 0.38232 0.07711 0.53737 0.0
C1078 C 0.36515 0.11983 0.51978 0.0
C1079 C 0.33699 0.10797 0.52422 0.0
N1080 N 0.30397 0.07065 0.54091 0.0
N1081 N 0.41487 0.11234 0.51638 0.0
C1082 C 0.33139 0.08192 0.53748 0.0
C1083 C 0.38793 0.1035 0.5247 0.0
N1084 N 0.35028 0.0438 0.5614 0.0
N1085 N 0.36995 0.14684 0.51112 0.0
H1086 H 0.43227 0.10145 0.52061 0.0
H1087 H 0.41989 0.12963 0.50401 0.0
H1088 H 0.35354 0.15924 0.50745 0.0
H1089 H 0.39 0.15783 0.50989 0.0
H1090 H 0.33098 0.03692 0.57047 0.0
H1091 H 0.36678 0.03235 0.56728 0.0
H1092 H 0.29829 0.05025 0.54723 0.0
H1093 H 0.2866 0.08132 0.53603 0.0
C1094 C 0.66232 0.50628 0.57994 0.0
C1095 C 0.63524 0.50806 0.56771 0.0
C1096 C 0.64048 0.46608 0.5374 0.0
C1097 C 0.66883 0.46654 0.54705 0.0
N1098 N 0.70779 0.48737 0.57628 0.0
N1099 N 0.59813 0.49047 0.5348 0.0
C1100 C 0.67993 0.48644 0.56833 0.0
C1101 C 0.62408 0.48801 0.54658 0.0
N1102 N 0.6712 0.52364 0.6026 0.0
N1103 N 0.62922 0.44434 0.51983 0.0
H1104 H 0.58499 0.50543 0.54198 0.0
H1105 H 0.59008 0.47869 0.51709 0.0
H1106 H 0.64082 0.42799 0.51292 0.0
H1107 H 0.60796 0.44115 0.5139 0.0
H1108 H 0.68924 0.52137 0.6145 0.0
H1109 H 0.65943 0.53925 0.61092 0.0
H1110 H 0.71826 0.5035 0.58895 0.0
H1111 H 0.72116 0.47275 0.56884 0.0
C1112 C 0.73275 0.36084 0.39267 0.0
C1113 C 0.72742 0.33113 0.39059 0.0
C1114 C 0.71176 0.33088 0.43981 0.0
C1115 C 0.72149 0.35993 0.44303 0.0
N1116 N 0.74622 0.40155 0.42333 0.0
N1117 N 0.71409 0.28712 0.4126 0.0
C1118 C 0.73303 0.37481 0.41962 0.0
C1119 C 0.71728 0.31589 0.41422 0.0
N1120 N 0.73743 0.37574 0.36881 0.0
N1121 N 0.69683 0.31781 0.46105 0.0
H1122 H 0.71777 0.27542 0.39416 0.0
H1123 H 0.70983 0.27483 0.43003 0.0
H1124 H 0.69206 0.3284 0.47985 0.0
H1125 H 0.6869 0.29735 0.45898 0.0
H1126 H 0.73856 0.39764 0.36884 0.0
H1127 H 0.73731 0.36617 0.34862 0.0
H1128 H 0.7577 0.41195 0.40746 0.0
H1129 H 0.74833 0.41246 0.44282 0.0
C1130 C 0.54081 0.99216 0.90737 0.0
C1131 C 0.53777 0.01776 0.9227 0.0
C1132 C 0.56083 0.04474 0.88475 0.0
C1133 C 0.56286 0.01917 0.86895 0.0
N1134 N 0.54994 0.96922 0.86223 0.0
N1135 N 0.53986 0.0684 0.9245 0.0
C1136 C 0.55142 0.99304 0.8794 0.0
C1137 C 0.54618 0.04408 0.91087 0.0
N1138 N 0.53431 0.96704 0.91989 0.0
N1139 N 0.57412 0.06942 0.87552 0.0
H1140 H 0.52968 0.06872 0.94398 0.0
H1141 H 0.54264 0.08804 0.91557 0.0
H1142 H 0.58503 0.07081 0.85646 0.0
H1143 H 0.57623 0.08819 0.88763 0.0
H1144 H 0.5392 0.94781 0.91113 0.0
H1145 H 0.52569 0.96551 0.94006 0.0
H1146 H 0.53924 0.95005 0.86753 0.0
H1147 H 0.55728 0.96917 0.84149 0.0
C1148 C 0.28856 0.26842 0.43948 0.0
C1149 C 0.29117 0.26292 0.41003 0.0
C1150 C 0.27814 0.2126 0.41622 0.0
C1151 C 0.27794 0.21784 0.4459 0.0
N1152 N 0.28905 0.24971 0.48615 0.0
N1153 N 0.29365 0.22957 0.37074 0.0
C1154 C 0.28484 0.24549 0.45767 0.0
C1155 C 0.28749 0.23492 0.39848 0.0
N1156 N 0.28879 0.29551 0.45 0.0
N1157 N 0.26826 0.18665 0.40489 0.0
H1158 H 0.30058 0.24539 0.35708 0.0
H1159 H 0.29429 0.20934 0.3619 0.0
H1160 H 0.2609 0.16983 0.41716 0.0
H1161 H 0.26501 0.18248 0.38332 0.0
H1162 H 0.28386 0.3006 0.47086 0.0
H1163 H 0.29144 0.31292 0.43733 0.0
H1164 H 0.29686 0.26903 0.49561 0.0
H1165 H 0.28753 0.2333 0.50009 0.0
C1166 C 0.43199 0.48847 0.88912 0.0
C1167 C 0.46074 0.49858 0.88453 0.0
C1168 C 0.4458 0.53052 0.84946 0.0
C1169 C 0.41754 0.51785 0.85172 0.0
N1170 N 0.38308 0.48578 0.87481 0.0
N1171 N 0.49568 0.528 0.85927 0.0
C1172 C 0.41042 0.49743 0.87206 0.0
C1173 C 0.46784 0.51958 0.86465 0.0
N1174 N 0.4245 0.46959 0.90923 0.0
N1175 N 0.45133 0.55344 0.83323 0.0
H1176 H 0.51244 0.52098 0.87037 0.0
H1177 H 0.50239 0.54057 0.84264 0.0
H1178 H 0.43551 0.56215 0.8222 0.0
H1179 H 0.47092 0.56541 0.83266 0.0
H1180 H 0.43887 0.46192 0.92298 0.0
H1181 H 0.43887 0.46192 0.92298 0.0
H1182 H 0.37724 0.47044 0.88936 0.0
H1183 H 0.36637 0.49129 0.86254 0.0
C1184 C 0.74848 0.74769 0.11848 0.0
C1185 C 0.72783 0.73823 0.13851 0.0
C1186 C 0.72356 0.6909 0.11592 0.0
C1187 C 0.74032 0.70171 0.09341 0.0
N1188 N 0.77051 0.7391 0.07315 0.0
N1189 N 0.69723 0.7009 0.15846 0.0
C1190 C 0.75385 0.7296 0.09498 0.0
C1191 C 0.71619 0.70964 0.13814 0.0
N1192 N 0.76247 0.77412 0.12177 0.0
N1193 N 0.71473 0.66274 0.11573 0.0
H1194 H 0.69262 0.71385 0.17574 0.0
H1195 H 0.68546 0.68128 0.15797 0.0
H1196 H 0.72016 0.64879 0.0996 0.0
H1197 H 0.70403 0.65279 0.13227 0.0
H1198 H 0.77951 0.78159 0.10944 0.0
H1199 H 0.75838 0.78817 0.13829 0.0
H1200 H 0.77831 0.76005 0.07096 0.0
H1201 H 0.7759 0.72589 0.0564 0.0
C1202 C 0.95308 0.059 0.17051 0.0
C1203 C 0.97449 0.08018 0.1802 0.0
C1204 C 0.95341 0.08065 0.22731 0.0
C1205 C 0.93147 0.0601 0.21736 0.0
N1206 N 0.90661 0.03444 0.17844 0.0
N1207 N 0.99182 0.11563 0.21541 0.0
C1208 C 0.93014 0.05074 0.18858 0.0
C1209 C 0.97357 0.09248 0.20786 0.0
N1210 N 0.95529 0.046 0.14448 0.0
N1211 N 0.95608 0.08762 0.25554 0.0
H1212 H 0.00703 0.12465 0.20171 0.0
H1213 H 0.99027 0.12735 0.23425 0.0
H1214 H 0.94193 0.0794 0.27061 0.0
H1215 H 0.97356 0.09989 0.26439 0.0
H1216 H 0.94218 0.02821 0.13756 0.0
H1217 H 0.97156 0.05174 0.13044 0.0
H1218 H 0.90307 0.02919 0.1571 0.0
H1219 H 0.88927 0.02836 0.19112 0.0
C1220 C 0.26468 0.81652 0.13791 0.0
C1221 C 0.25645 0.78745 0.13224 0.0
C1222 C 0.23163 0.79792 0.08914 0.0
C1223 C 0.24109 0.8268 0.09405 0.0
N1224 N 0.26023 0.86477 0.12565 0.0
N1225 N 0.2266 0.75079 0.10714 0.0
C1226 C 0.25532 0.83649 0.11948 0.0
C1227 C 0.23797 0.77828 0.10937 0.0
N1228 N 0.28265 0.82481 0.16 0.0
N1229 N 0.21758 0.78927 0.06457 0.0
H1230 H 0.23105 0.73596 0.12165 0.0
H1231 H 0.21111 0.74311 0.09241 0.0
H1232 H 0.21129 0.80342 0.05017 0.0
H1233 H 0.21305 0.76828 0.0579 0.0
H1234 H 0.29221 0.84527 0.16343 0.0
H1235 H 0.28923 0.81078 0.17435 0.0
H1236 H 0.26833 0.87336 0.14489 0.0
H1237 H 0.25395 0.87982 0.11226 0.0
C1238 C 0.04033 0.53136 0.16826 0.0
C1239 C 0.02553 0.50473 0.16105 0.0
C1240 C 0.03337 0.48927 0.20891 0.0
C1241 C 0.05066 0.51486 0.21499 0.0
N1242 N 0.07618 0.55728 0.19802 0.0
N1243 N 0.01102 0.4568 0.17281 0.0
C1244 C 0.05567 0.53513 0.19401 0.0
C1245 C 0.02286 0.48319 0.18092 0.0
N1246 N 0.03917 0.55332 0.15081 0.0
N1247 N 0.02619 0.47131 0.23005 0.0
H1248 H 0.0029 0.45172 0.15254 0.0
H1249 H 0.0112 0.43947 0.18541 0.0
H1250 H 0.03335 0.47524 0.25081 0.0
H1251 H 0.01132 0.45376 0.22757 0.0
H1252 H 0.04708 0.57393 0.15652 0.0
H1253 H 0.02786 0.55157 0.13179 0.0
H1254 H 0.08266 0.57094 0.18217 0.0
H1255 H 0.08894 0.56029 0.21607 0.0
C1256 C 0.37752 0.73093 0.31672 0.0
C1257 C 0.39023 0.72781 0.28985 0.0
C1258 C 0.43728 0.73437 0.31193 0.0
C1259 C 0.42471 0.74112 0.33816 0.0
N1260 N 0.38295 0.75062 0.3645 0.0
N1261 N 0.4322 0.73097 0.26103 0.0
C1262 C 0.39482 0.74059 0.34037 0.0
C1263 C 0.42014 0.73074 0.2872 0.0
N1264 N 0.34904 0.72391 0.31982 0.0
N1265 N 0.4654 0.73034 0.31081 0.0
H1266 H 0.42033 0.72859 0.24236 0.0
H1267 H 0.45381 0.73605 0.25781 0.0
H1268 H 0.47847 0.73181 0.32866 0.0
H1269 H 0.47505 0.7227 0.29278 0.0
H1270 H 0.33918 0.72293 0.33941 0.0
H1271 H 0.33565 0.7165 0.30304 0.0
H1272 H 0.36154 0.75355 0.36608 0.0
H1273 H 0.39483 0.75853 0.38214 0.0
C1274 C 0.95526 0.35799 0.99363 0.0
C1275 C 0.96353 0.38351 0.98018 0.0
C1276 C 0.96708 0.35707 0.93532 0.0
C1277 C 0.96371 0.33146 0.94967 0.0
N1278 N 0.9595 0.30806 0.99404 0.0
N1279 N 0.98331 0.40659 0.93909 0.0
C1280 C 0.95892 0.33195 0.97927 0.0
C1281 C 0.97105 0.3829 0.95121 0.0
N1282 N 0.94344 0.35857 0.01987 0.0
N1283 N 0.96562 0.35684 0.9065 0.0
H1284 H 0.98796 0.42579 0.95021 0.0
H1285 H 0.99164 0.40635 0.91876 0.0
H1286 H 0.96118 0.3384 0.89405 0.0
H1287 H 0.96548 0.37514 0.89528 0.0
H1288 H 0.9346 0.3405 0.02947 0.0
H1289 H 0.93984 0.37726 0.03076 0.0
H1290 H 0.95897 0.30806 0.01603 0.0
H1291 H 0.96346 0.28877 0.98471 0.0
C1292 C 0.61095 0.8034 0.33689 0.0
C1293 C 0.60779 0.78748 0.31098 0.0
C1294 C 0.56576 0.75998 0.3291 0.0
C1295 C 0.56587 0.77949 0.35245 0.0
N1296 N 0.58879 0.8186 0.38024 0.0
N1297 N 0.58272 0.75044 0.2818 0.0
C1298 C 0.58883 0.80061 0.35706 0.0
C1299 C 0.5857 0.76525 0.30713 0.0
N1300 N 0.63507 0.82117 0.34194 0.0
N1301 N 0.5462 0.73685 0.3277 0.0
H1302 H 0.59723 0.75331 0.26542 0.0
H1303 H 0.56511 0.73641 0.27631 0.0
H1304 H 0.53109 0.73268 0.34331 0.0
H1305 H 0.54649 0.72052 0.31253 0.0
H1306 H 0.63986 0.83183 0.36122 0.0
H1307 H 0.65156 0.82342 0.3274 0.0
H1308 H 0.60298 0.83658 0.38333 0.0
H1309 H 0.57367 0.81591 0.39613 0.0
C1310 C 0.02919 0.16631 0.9777 0.0
C1311 C 0.02255 0.16849 0.00682 0.0
C1312 C 0.98951 0.20307 0.99722 0.0
C1313 C 0.99405 0.19895 0.96779 0.0
N1314 N 0.01424 0.17274 0.92964 0.0
N1315 N 0.99201 0.18411 0.0436 0.0
C1316 C 0.01285 0.1795 0.95788 0.0
C1317 C 0.00136 0.1854 0.01636 0.0
N1318 N 0.05156 0.1523 0.96909 0.0
N1319 N 0.9752 0.22483 0.00711 0.0
H1320 H 1e-05 0.17126 0.05831 0.0
H1321 H 0.97448 0.19369 0.05081 0.0
H1322 H 0.96704 0.23906 0.994 0.0
H1323 H 0.97399 0.23057 0.02848 0.0
H1324 H 0.05937 0.15262 0.94858 0.0
H1325 H 0.06383 0.1422 0.98302 0.0
H1326 H 0.02539 0.15662 0.92145 0.0
H1327 H 0.00208 0.18139 0.91453 0.0
C1328 C 0.42739 0.32897 0.24492 0.0
C1329 C 0.39817 0.32037 0.24015 0.0
C1330 C 0.40986 0.29054 0.19952 0.0
C1331 C 0.43885 0.30109 0.20281 0.0
N1332 N 0.47428 0.33514 0.22469 0.0
N1333 N 0.361 0.29741 0.20998 0.0
C1334 C 0.44738 0.3217 0.22439 0.0
C1335 C 0.38921 0.3025 0.21651 0.0
N1336 N 0.4362 0.34318 0.26953 0.0
N1337 N 0.40216 0.26816 0.18123 0.0
H1338 H 0.34528 0.30589 0.22196 0.0
H1339 H 0.3534 0.28695 0.19134 0.0
H1340 H 0.41667 0.25823 0.16893 0.0
H1341 H 0.38176 0.25774 0.1802 0.0
H1342 H 0.45746 0.34719 0.27543 0.0
H1343 H 0.42228 0.34877 0.28528 0.0
H1344 H 0.48072 0.35235 0.23822 0.0
H1345 H 0.48938 0.33103 0.20953 0.0
C1346 C 0.53296 0.37851 0.05978 0.0
C1347 C 0.53109 0.36882 0.03108 0.0
C1348 C 0.51647 0.32092 0.04543 0.0
C1349 C 0.51503 0.3312 0.07383 0.0
N1350 N 0.51848 0.37026 0.10801 0.0
N1351 N 0.5175 0.33185 0.99598 0.0
C1352 C 0.52255 0.36012 0.0811 0.0
C1353 C 0.52192 0.34028 0.02371 0.0
N1354 N 0.54516 0.4051 0.06666 0.0
N1355 N 0.51362 0.29254 0.03933 0.0
H1356 H 0.52144 0.34535 0.97938 0.0
H1357 H 0.50773 0.3121 0.98953 0.0
H1358 H 0.51023 0.27764 0.05478 0.0
H1359 H 0.51739 0.2837 0.01942 0.0
H1360 H 0.5499 0.41238 0.08731 0.0
H1361 H 0.55272 0.41922 0.05153 0.0
H1362 H 0.52054 0.39162 0.11382 0.0
H1363 H 0.5108 0.35749 0.1242 0.0
C1364 C 0.6255 0.29079 0.23345 0.0
C1365 C 0.64675 0.28142 0.2154 0.0
C1366 C 0.61168 0.26973 0.17759 0.0
C1367 C 0.59057 0.27981 0.1954 0.0
N1368 N 0.5783 0.30577 0.23741 0.0
N1369 N 0.66185 0.26755 0.1689 0.0
C1370 C 0.5978 0.29217 0.22248 0.0
C1371 C 0.64039 0.27272 0.18696 0.0
N1372 N 0.63152 0.29733 0.26133 0.0
N1373 N 0.60413 0.25582 0.15248 0.0
H1374 H 0.68306 0.26915 0.17527 0.0
H1375 H 0.65899 0.26402 0.14721 0.0
H1376 H 0.58341 0.25326 0.14471 0.0
H1377 H 0.61799 0.24502 0.14023 0.0
H1378 H 0.61615 0.30106 0.27626 0.0
H1379 H 0.65169 0.2971 0.27011 0.0
H1380 H 0.58304 0.31762 0.25606 0.0
H1381 H 0.55792 0.30748 0.22971 0.0
C1382 C 0.47071 0.14366 0.10242 0.0
C1383 C 0.49684 0.13487 0.09282 0.0
C1384 C 0.52185 0.1804 0.10797 0.0
C1385 C 0.49552 0.18965 0.11648 0.0
N1386 N 0.44459 0.18205 0.11935 0.0
N1387 N 0.54657 0.14502 0.08296 0.0
C1388 C 0.46982 0.17185 0.11291 0.0
C1389 C 0.52226 0.15328 0.09467 0.0
N1390 N 0.44696 0.12476 0.10213 0.0
N1391 N 0.54648 0.19756 0.11278 0.0
H1392 H 0.54786 0.12498 0.0738 0.0
H1393 H 0.56508 0.1584 0.08061 0.0
H1394 H 0.54697 0.21835 0.1205 0.0
H1395 H 0.5666 0.19096 0.11048 0.0
H1396 H 0.42794 0.12872 0.1116 0.0
H1397 H 0.44666 0.10417 0.09383 0.0
H1398 H 0.42486 0.17137 0.11436 0.0
H1399 H 0.44326 0.20215 0.12835 0.0
C1400 C 0.25131 0.45321 0.74899 0.0
C1401 C 0.2596 0.42573 0.7443 0.0
C1402 C 0.30811 0.44243 0.75915 0.0
C1403 C 0.30046 0.47039 0.76127 0.0
N1404 N 0.26617 0.50326 0.75338 0.0
N1405 N 0.29664 0.39488 0.73991 0.0
C1406 C 0.2724 0.47606 0.7549 0.0
C1407 C 0.28825 0.42053 0.7479 0.0
N1408 N 0.22321 0.45735 0.74861 0.0
N1409 N 0.33384 0.43654 0.76914 0.0
H1410 H 0.28267 0.37825 0.73164 0.0
H1411 H 0.3178 0.39085 0.73913 0.0
H1412 H 0.34879 0.45182 0.77822 0.0
H1413 H 0.33932 0.41613 0.77092 0.0
H1414 H 0.21568 0.47632 0.75492 0.0
H1415 H 0.20713 0.44115 0.74425 0.0
H1416 H 0.24687 0.50868 0.74591 0.0
H1417 H 0.28116 0.52058 0.75714 0.0
C1418 C 0.31975 0.66488 0.80967 0.0
C1419 C 0.29839 0.66679 0.78899 0.0
C1420 C 0.30014 0.61713 0.77451 0.0
C1421 C 0.31977 0.61466 0.79673 0.0
N1422 N 0.34651 0.6349 0.83725 0.0
N1423 N 0.26551 0.64455 0.75402 0.0
C1424 C 0.32904 0.63818 0.81487 0.0
C1425 C 0.28791 0.64288 0.77192 0.0
N1426 N 0.33178 0.68879 0.82365 0.0
N1427 N 0.29327 0.59486 0.75584 0.0
H1428 H 0.25618 0.66311 0.75139 0.0
H1429 H 0.25472 0.6272 0.74331 0.0
H1430 H 0.30069 0.57524 0.75781 0.0
H1431 H 0.28172 0.59624 0.73733 0.0
H1432 H 0.34953 0.6894 0.83671 0.0
H1433 H 0.32538 0.70868 0.82054 0.0
H1434 H 0.35131 0.65024 0.85324 0.0
H1435 H 0.35501 0.61607 0.84084 0.0
C1436 C 0.86115 0.45373 0.5072 0.0
C1437 C 0.86824 0.47511 0.52842 0.0
C1438 C 0.81861 0.47303 0.54331 0.0
C1439 C 0.81212 0.44982 0.52398 0.0
N1440 N 0.82615 0.41746 0.48756 0.0
N1441 N 0.85499 0.50498 0.56731 0.0
C1442 C 0.83308 0.44011 0.50579 0.0
C1443 C 0.84726 0.48489 0.54655 0.0
N1444 N 0.88125 0.44674 0.48825 0.0
N1445 N 0.79732 0.48365 0.55845 0.0
H1446 H 0.87556 0.51494 0.56952 0.0
H1447 H 0.84157 0.51093 0.58329 0.0
H1448 H 0.77627 0.47484 0.55721 0.0
H1449 H 0.79994 0.50219 0.57088 0.0
H1450 H 0.87693 0.43365 0.47036 0.0
H1451 H 0.90235 0.4554 0.48935 0.0
H1452 H 0.8409 0.40695 0.47626 0.0
H1453 H 0.8054 0.40823 0.48441 0.0
C1454 C 0.71185 0.92428 0.77814 0.0
C1455 C 0.71142 0.90588 0.80088 0.0
C1456 C 0.66447 0.91838 0.81476 0.0
C1457 C 0.66754 0.94045 0.79566 0.0
N1458 N 0.69215 0.96375 0.75744 0.0
N1459 N 0.68689 0.88276 0.83927 0.0
C1460 C 0.6903 0.94274 0.77629 0.0
C1461 C 0.68726 0.90172 0.81839 0.0
N1462 N 0.73316 0.92434 0.75877 0.0
N1463 N 0.63978 0.91375 0.82943 0.0
H1464 H 0.70272 0.86934 0.84146 0.0
H1465 H 0.67153 0.88074 0.85487 0.0
H1466 H 0.62286 0.92576 0.82669 0.0
H1467 H 0.63505 0.8969 0.84242 0.0
H1468 H 0.73368 0.93552 0.74037 0.0
H1469 H 0.74946 0.91136 0.76003 0.0
H1470 H 0.70981 0.96903 0.74504 0.0
H1471 H 0.67603 0.97671 0.7548 0.0
C1472 C 0.67114 0.5374 0.99194 0.0
C1473 C 0.64774 0.54288 0.97503 0.0
C1474 C 0.66538 0.59297 0.97451 0.0
C1475 C 0.68979 0.58713 0.98975 0.0
N1476 N 0.71681 0.55451 0.0129 0.0
N1477 N 0.62224 0.57476 0.94922 0.0
C1478 C 0.69287 0.55953 0.99853 0.0
C1479 C 0.64466 0.57043 0.96621 0.0
N1480 N 0.67227 0.51107 0.00195 0.0
N1481 N 0.66212 0.62008 0.96791 0.0
H1482 H 0.60591 0.55908 0.94394 0.0
H1483 H 0.62017 0.59341 0.93921 0.0
H1484 H 0.67766 0.63687 0.97184 0.0
H1485 H 0.64358 0.62648 0.95971 0.0
H1486 H 0.68698 0.50609 0.01677 0.0
H1487 H 0.65736 0.49407 0.99659 0.0
H1488 H 0.72228 0.53455 0.01701 0.0
H1489 H 0.73212 0.57049 0.02008 0.0
C1490 C 0.19248 0.63006 0.26319 0.0
C1491 C 0.21479 0.61977 0.24726 0.0
C1492 C 0.1931 0.57152 0.25141 0.0
C1493 C 0.17231 0.5815 0.2697 0.0
N1494 N 0.15526 0.61973 0.29729 0.0
N1495 N 0.23998 0.58058 0.2318 0.0
C1496 C 0.17284 0.61066 0.27684 0.0
C1497 C 0.21624 0.59043 0.24312 0.0
N1498 N 0.1895 0.65822 0.2645 0.0
N1499 N 0.18995 0.54441 0.24054 0.0
H1500 H 0.25761 0.59379 0.22572 0.0
H1501 H 0.24327 0.55934 0.23108 0.0
H1502 H 0.17251 0.53009 0.24469 0.0
H1503 H 0.20307 0.53701 0.22494 0.0
H1504 H 0.17192 0.66658 0.27327 0.0
H1505 H 0.20343 0.67307 0.25467 0.0
H1506 H 0.15669 0.64043 0.30535 0.0
H1507 H 0.141 0.60604 0.30815 0.0
C1508 C 0.86026 0.57229 0.04949 0.0
C1509 C 0.88306 0.57104 0.03031 0.0
C1510 C 0.86216 0.60418 0.00053 0.0
C1511 C 0.83725 0.60172 0.01709 0.0
N1512 N 0.8108 0.57937 0.05514 0.0
N1513 N 0.90266 0.58151 0.98438 0.0
C1514 C 0.8358 0.58485 0.04117 0.0
C1515 C 0.88326 0.58588 0.00496 0.0
N1516 N 0.86215 0.56194 0.07581 0.0
N1517 N 0.86608 0.62452 0.98105 0.0
H1518 H 0.91783 0.56735 0.98608 0.0
H1519 H 0.90176 0.58975 0.96441 0.0
H1520 H 0.85165 0.63922 0.97807 0.0
H1521 H 0.88507 0.6288 0.97028 0.0
H1522 H 0.84732 0.56476 0.09157 0.0
H1523 H 0.87996 0.553 0.08276 0.0
H1524 H 0.80802 0.5648 0.07092 0.0
H1525 H 0.79204 0.58721 0.04925 0.0
C1526 C 0.15125 0.99674 0.08482 0.0
C1527 C 0.13145 0.0068 0.06624 0.0
C1528 C 0.14232 0.97156 0.03001 0.0
C1529 C 0.16541 0.96498 0.04673 0.0
N1530 N 0.19398 0.97363 0.08917 0.0
N1531 N 0.10954 0.0056 0.0201 0.0
C1532 C 0.17026 0.97785 0.07411 0.0
C1533 C 0.1271 0.99451 0.03861 0.0
N1534 N 0.15173 0.00517 0.11274 0.0
N1535 N 0.13466 0.95551 0.00616 0.0
H1536 H 0.09795 0.02239 0.02555 0.0
H1537 H 0.10811 -0.0004 0.99873 0.0
H1538 H 0.14505 0.93817 -0.00035 0.0
H1539 H 0.11638 0.95756 0.99451 0.0
H1540 H 0.16373 0.99642 0.12788 0.0
H1541 H 0.13803 0.01899 0.12123 0.0
H1542 H 0.20023 0.9851 0.1077 0.0
H1543 H 0.20884 0.9604 0.08211 0.0
loop_
_geom_bond_atom_site_label_1
_geom_bond_atom_site_label_2
_geom_bond_distance
_geom_bond_site_symmetry_2
_ccdc_geom_bond_type
P0 O11 1.490 . S
P0 C14 1.812 . S
P0 C20 1.803 . S
P0 C26 1.819 . S
H1 C15 0.941 . S
H2 C16 0.939 . S
H3 C18 0.940 . S
H4 C19 0.940 . S
H5 C21 0.939 . S
H6 C22 0.942 . S
H7 C24 0.940 . S
H8 C25 0.939 . S
H9 C27 0.941 . S
H10 C31 0.939 . S
O11 P0 1.490 . S
H12 C28 0.939 . S
H13 C30 0.940 . S
C14 P0 1.812 . S
C14 C15 1.389 . S
C14 C19 1.391 . S
C15 H1 0.941 . S
C15 C14 1.389 . S
C15 C16 1.397 . S
C16 H2 0.939 . S
C16 C15 1.397 . S
C16 C17 1.378 . S
C17 C16 1.378 . S
C17 C18 1.378 . S
C18 H3 0.940 . S
C18 C17 1.378 . S
C18 C19 1.396 . S
C19 H4 0.940 . S
C19 C14 1.391 . S
C19 C18 1.396 . S
C20 P0 1.803 . S
C20 C21 1.378 . S
C20 C25 1.400 . S
C21 H5 0.939 . S
C21 C20 1.378 . S
C21 C22 1.361 . S
C22 H6 0.942 . S
C22 C21 1.361 . S
C22 C23 1.369 . S
C23 C22 1.369 . S
C23 C24 1.404 . S
C24 H7 0.940 . S
C24 C23 1.404 . S
C24 C25 1.389 . S
C25 H8 0.939 . S
C25 C20 1.400 . S
C25 C24 1.389 . S
C26 P0 1.819 . S
C26 C27 1.391 . S
C26 C31 1.391 . S
C27 H9 0.941 . S
C27 C26 1.391 . S
C27 C28 1.396 . S
C28 H12 0.939 . S
C28 C27 1.396 . S
C28 C29 1.397 . S
C29 C28 1.397 . S
C29 C30 1.385 . S
C30 H13 0.940 . S
C30 C29 1.385 . S
C30 C31 1.388 . S
C31 H10 0.939 . S
C31 C26 1.391 . S
C31 C30 1.388 . S
P32 O43 1.490 . S
P32 C46 1.812 . S
P32 C52 1.803 . S
P32 C58 1.819 . S
H33 C47 0.941 . S
H34 C48 0.939 . S
H35 C50 0.940 . S
H36 C51 0.940 . S
H37 C53 0.939 . S
H38 C54 0.942 . S
H39 C56 0.940 . S
H40 C57 0.939 . S
H41 C59 0.941 . S
H42 C63 0.939 . S
O43 P32 1.490 . S
H44 C60 0.939 . S
H45 C62 0.940 . S
C46 P32 1.812 . S
C46 C47 1.389 . S
C46 C51 1.391 . S
C47 H33 0.941 . S
C47 C46 1.389 . S
C47 C48 1.397 . S
C48 H34 0.939 . S
C48 C47 1.397 . S
C48 C49 1.378 . S
C49 C48 1.378 . S
C49 C50 1.378 . S
C50 H35 0.940 . S
C50 C49 1.378 . S
C50 C51 1.396 . S
C51 H36 0.940 . S
C51 C46 1.391 . S
C51 C50 1.396 . S
C52 P32 1.803 . S
C52 C53 1.378 . S
C52 C57 1.400 . S
C53 H37 0.939 . S
C53 C52 1.378 . S
C53 C54 1.361 . S
C54 H38 0.942 . S
C54 C53 1.361 . S
C54 C55 1.369 . S
C55 C54 1.369 . S
C55 C56 1.404 . S
C56 H39 0.940 . S
C56 C55 1.404 . S
C56 C57 1.389 . S
C57 H40 0.939 . S
C57 C52 1.400 . S
C57 C56 1.389 . S
C58 P32 1.819 . S
C58 C59 1.391 . S
C58 C63 1.391 . S
C59 H41 0.941 . S
C59 C58 1.391 . S
C59 C60 1.396 . S
C60 H44 0.939 . S
C60 C59 1.396 . S
C60 C61 1.397 . S
C61 C60 1.397 . S
C61 C62 1.385 . S
C62 H45 0.940 . S
C62 C61 1.385 . S
C62 C63 1.388 . S
C63 H42 0.939 . S
C63 C58 1.391 . S
C63 C62 1.388 . S
P64 O75 1.490 . S
P64 C78 1.812 . S
P64 C84 1.803 . S
P64 C90 1.819 . S
H65 C79 0.941 . S
H66 C80 0.939 1_556 S
H67 C82 0.940 . S
H68 C83 0.940 . S
H69 C85 0.939 . S
H70 C86 0.942 . S
H71 C88 0.940 . S
H72 C89 0.939 . S
H73 C91 0.941 . S
H74 C95 0.939 . S
O75 P64 1.490 . S
H76 C92 0.939 . S
H77 C94 0.940 . S
C78 P64 1.812 . S
C78 C79 1.389 . S
C78 C83 1.391 . S
C79 H65 0.941 . S
C79 C78 1.389 . S
C79 C80 1.397 . S
C80 H66 0.939 1_554 S
C80 C79 1.397 . S
C80 C81 1.378 . S
C81 C80 1.378 . S
C81 C82 1.378 . S
C82 H67 0.940 . S
C82 C81 1.378 . S
C82 C83 1.396 . S
C83 H68 0.940 . S
C83 C78 1.391 . S
C83 C82 1.396 . S
C84 P64 1.803 . S
C84 C85 1.378 . S
C84 C89 1.400 . S
C85 H69 0.939 . S
C85 C84 1.378 . S
C85 C86 1.361 . S
C86 H70 0.942 . S
C86 C85 1.361 . S
C86 C87 1.369 . S
C87 C86 1.369 . S
C87 C88 1.404 . S
C88 H71 0.940 . S
C88 C87 1.404 . S
C88 C89 1.389 . S
C89 H72 0.939 . S
C89 C84 1.400 . S
C89 C88 1.389 . S
C90 P64 1.819 . S
C90 C91 1.391 . S
C90 C95 1.391 . S
C91 H73 0.941 . S
C91 C90 1.391 . S
C91 C92 1.396 . S
C92 H76 0.939 . S
C92 C91 1.396 . S
C92 C93 1.397 . S
C93 C92 1.397 . S
C93 C94 1.385 . S
C94 H77 0.940 . S
C94 C93 1.385 . S
C94 C95 1.388 . S
C95 H74 0.939 . S
C95 C90 1.391 . S
C95 C94 1.388 . S
P96 O107 1.490 . S
P96 C110 1.812 . S
P96 C116 1.803 . S
P96 C122 1.819 . S
H97 C111 0.941 . S
H98 C112 0.939 . S
H99 C114 0.940 . S
H100 C115 0.940 . S
H101 C117 0.939 . S
H102 C118 0.942 . S
H103 C120 0.940 . S
H104 C121 0.939 . S
H105 C123 0.941 . S
H106 C127 0.939 . S
O107 P96 1.490 . S
H108 C124 0.939 . S
H109 C126 0.940 . S
C110 P96 1.812 . S
C110 C111 1.389 . S
C110 C115 1.391 . S
C111 H97 0.941 . S
C111 C110 1.389 . S
C111 C112 1.397 . S
C112 H98 0.939 . S
C112 C111 1.397 . S
C112 C113 1.378 . S
C113 C112 1.378 . S
C113 C114 1.378 . S
C114 H99 0.940 . S
C114 C113 1.378 . S
C114 C115 1.396 . S
C115 H100 0.940 . S
C115 C110 1.391 . S
C115 C114 1.396 . S
C116 P96 1.803 . S
C116 C117 1.378 . S
C116 C121 1.400 . S
C117 H101 0.939 . S
C117 C116 1.378 . S
C117 C118 1.361 . S
C118 H102 0.942 . S
C118 C117 1.361 . S
C118 C119 1.369 . S
C119 C118 1.369 . S
C119 C120 1.404 . S
C120 H103 0.940 . S
C120 C119 1.404 . S
C120 C121 1.389 . S
C121 H104 0.939 . S
C121 C116 1.400 . S
C121 C120 1.389 . S
C122 P96 1.819 . S
C122 C123 1.391 . S
C122 C127 1.391 . S
C123 H105 0.941 . S
C123 C122 1.391 . S
C123 C124 1.396 . S
C124 H108 0.939 . S
C124 C123 1.396 . S
C124 C125 1.397 . S
C125 C124 1.397 . S
C125 C126 1.385 . S
C126 H109 0.940 . S
C126 C125 1.385 . S
C126 C127 1.388 . S
C127 H106 0.939 . S
C127 C122 1.391 . S
C127 C126 1.388 . S
P128 O139 1.490 . S
P128 C142 1.812 . S
P128 C148 1.803 . S
P128 C154 1.819 . S
H129 C143 0.941 . S
H130 C144 0.939 . S
H131 C146 0.940 . S
H132 C147 0.940 . S
H133 C149 0.939 . S
H134 C150 0.942 . S
H135 C152 0.940 . S
H136 C153 0.939 . S
H137 C155 0.941 . S
H138 C159 0.939 . S
O139 P128 1.490 . S
H140 C156 0.939 . S
H141 C158 0.918 1_655 S
C142 P128 1.812 . S
C142 C143 1.389 . S
C142 C147 1.391 . S
C143 H129 0.941 . S
C143 C142 1.389 . S
C143 C144 1.397 . S
C144 H130 0.939 . S
C144 C143 1.397 . S
C144 C145 1.378 1_565 S
C145 C144 1.378 1_545 S
C145 C146 1.378 . S
C146 H131 0.940 . S
C146 C145 1.378 . S
C146 C147 1.396 1_545 S
C147 H132 0.940 . S
C147 C142 1.391 . S
C147 C146 1.396 1_565 S
C148 P128 1.803 . S
C148 C149 1.378 . S
C148 C153 1.400 . S
C149 H133 0.939 . S
C149 C148 1.378 . S
C149 C150 1.361 . S
C150 H134 0.942 . S
C150 C149 1.361 . S
C150 C151 1.369 . S
C151 C150 1.369 . S
C151 C152 1.404 . S
C152 H135 0.940 . S
C152 C151 1.404 . S
C152 C153 1.389 . S
C153 H136 0.939 . S
C153 C148 1.400 . S
C153 C152 1.389 . S
C154 P128 1.819 . S
C154 C155 1.391 . S
C154 C159 1.391 . S
C155 H137 0.941 . S
C155 C154 1.391 . S
C155 C156 1.396 . S
C156 H140 0.939 . S
C156 C155 1.396 . S
C156 C157 1.397 . S
C157 C156 1.397 . S
C157 C158 1.385 . S
C158 H141 0.918 1_455 S
C158 C157 1.385 . S
C158 C159 1.388 . S
C159 H138 0.939 . S
C159 C154 1.391 . S
C159 C158 1.388 . S
P160 O171 1.490 . S
P160 C174 1.812 . S
P160 C180 1.803 . S
P160 C186 1.819 . S
H161 C175 0.941 . S
H162 C176 0.939 . S
H163 C178 0.940 . S
H164 C179 0.940 . S
H165 C181 0.939 . S
H166 C182 0.942 . S
H167 C184 0.940 . S
H168 C185 0.939 . S
H169 C187 0.941 . S
H170 C191 0.939 . S
O171 P160 1.490 . S
H172 C188 0.939 . S
H173 C190 0.940 . S
C174 P160 1.812 . S
C174 C175 1.389 . S
C174 C179 1.391 . S
C175 H161 0.941 . S
C175 C174 1.389 . S
C175 C176 1.397 . S
C176 H162 0.939 . S
C176 C175 1.397 . S
C176 C177 1.378 . S
C177 C176 1.378 . S
C177 C178 1.378 . S
C178 H163 0.940 . S
C178 C177 1.378 . S
C178 C179 1.396 . S
C179 H164 0.940 . S
C179 C174 1.391 . S
C179 C178 1.396 . S
C180 P160 1.803 . S
C180 C181 1.378 . S
C180 C185 1.400 . S
C181 H165 0.939 . S
C181 C180 1.378 . S
C181 C182 1.361 . S
C182 H166 0.942 . S
C182 C181 1.361 . S
C182 C183 1.369 . S
C183 C182 1.369 . S
C183 C184 1.404 . S
C184 H167 0.940 . S
C184 C183 1.404 . S
C184 C185 1.389 . S
C185 H168 0.939 . S
C185 C180 1.400 . S
C185 C184 1.389 . S
C186 P160 1.819 . S
C186 C187 1.391 . S
C186 C191 1.391 . S
C187 H169 0.941 . S
C187 C186 1.391 . S
C187 C188 1.396 . S
C188 H172 0.939 . S
C188 C187 1.396 . S
C188 C189 1.397 . S
C189 C188 1.397 . S
C189 C190 1.385 . S
C190 H173 0.940 . S
C190 C189 1.385 . S
C190 C191 1.388 . S
C191 H170 0.939 . S
C191 C186 1.391 . S
C191 C190 1.388 . S
P192 O203 1.490 . S
P192 C206 1.812 . S
P192 C212 1.803 . S
P192 C218 1.819 . S
H193 C207 0.941 . S
H194 C208 0.939 1_455 S
H195 C210 0.940 . S
H196 C211 0.940 . S
H197 C213 0.939 . S
H198 C214 0.942 . S
H199 C216 0.940 . S
H200 C217 0.939 . S
H201 C219 0.941 . S
H202 C223 0.939 . S
O203 P192 1.490 . S
H204 C220 0.939 . S
H205 C222 0.940 . S
C206 P192 1.812 . S
C206 C207 1.389 . S
C206 C211 1.391 . S
C207 H193 0.941 . S
C207 C206 1.389 . S
C207 C208 1.397 . S
C208 H194 0.939 1_655 S
C208 C207 1.397 . S
C208 C209 1.378 . S
C209 C208 1.378 . S
C209 C210 1.378 . S
C210 H195 0.940 . S
C210 C209 1.378 . S
C210 C211 1.396 . S
C211 H196 0.940 . S
C211 C206 1.391 . S
C211 C210 1.396 . S
C212 P192 1.803 . S
C212 C213 1.378 . S
C212 C217 1.400 . S
C213 H197 0.939 . S
C213 C212 1.378 . S
C213 C214 1.361 . S
C214 H198 0.942 . S
C214 C213 1.361 . S
C214 C215 1.369 . S
C215 C214 1.369 . S
C215 C216 1.404 . S
C216 H199 0.940 . S
C216 C215 1.404 . S
C216 C217 1.389 . S
C217 H200 0.939 . S
C217 C212 1.400 . S
C217 C216 1.389 . S
C218 P192 1.819 . S
C218 C219 1.391 . S
C218 C223 1.391 . S
C219 H201 0.941 . S
C219 C218 1.391 . S
C219 C220 1.396 . S
C220 H204 0.939 . S
C220 C219 1.396 . S
C220 C221 1.397 . S
C221 C220 1.397 . S
C221 C222 1.385 . S
C222 H205 0.940 . S
C222 C221 1.385 . S
C222 C223 1.388 . S
C223 H202 0.939 . S
C223 C218 1.391 . S
C223 C222 1.388 . S
P224 O235 1.490 . S
P224 C238 1.812 . S
P224 C244 1.803 . S
P224 C250 1.819 . S
H225 C239 0.941 . S
H226 C240 0.939 . S
H227 C242 0.940 . S
H228 C243 0.940 . S
H229 C245 0.939 . S
H230 C246 0.942 . S
H231 C248 0.940 . S
H232 C249 0.939 . S
H233 C251 0.941 . S
H234 C255 0.939 . S
O235 P224 1.490 . S
H236 C252 0.939 . S
H237 C254 0.940 . S
C238 P224 1.812 . S
C238 C239 1.389 . S
C238 C243 1.391 . S
C239 H225 0.941 . S
C239 C238 1.389 . S
C239 C240 1.397 . S
C240 H226 0.939 . S
C240 C239 1.397 . S
C240 C241 1.378 . S
C241 C240 1.378 . S
C241 C242 1.378 . S
C242 H227 0.940 . S
C242 C241 1.378 . S
C242 C243 1.396 . S
C243 H228 0.940 . S
C243 C238 1.391 . S
C243 C242 1.396 . S
C244 P224 1.803 . S
C244 C245 1.378 . S
C244 C249 1.400 . S
C245 H229 0.939 . S
C245 C244 1.378 . S
C245 C246 1.361 . S
C246 H230 0.942 . S
C246 C245 1.361 . S
C246 C247 1.369 . S
C247 C246 1.369 . S
C247 C248 1.404 . S
C248 H231 0.940 . S
C248 C247 1.404 . S
C248 C249 1.389 . S
C249 H232 0.939 . S
C249 C244 1.400 . S
C249 C248 1.389 . S
C250 P224 1.819 . S
C250 C251 1.391 . S
C250 C255 1.391 . S
C251 H233 0.941 . S
C251 C250 1.391 . S
C251 C252 1.396 . S
C252 H236 0.939 . S
C252 C251 1.396 . S
C252 C253 1.397 . S
C253 C252 1.397 . S
C253 C254 1.385 . S
C254 H237 0.940 . S
C254 C253 1.385 . S
C254 C255 1.388 . S
C255 H234 0.939 . S
C255 C250 1.391 . S
C255 C254 1.388 . S
P256 O267 1.490 . S
P256 C270 1.812 . S
P256 C276 1.803 . S
P256 C282 1.819 . S
H257 C271 0.941 . S
H258 C272 0.939 . S
H259 C274 0.940 . S
H260 C275 0.940 . S
H261 C277 0.939 . S
H262 C278 0.942 . S
H263 C280 0.940 . S
H264 C281 0.939 . S
H265 C283 0.941 . S
H266 C287 0.939 . S
O267 P256 1.490 . S
H268 C284 0.939 . S
H269 C286 0.940 . S
C270 P256 1.812 . S
C270 C271 1.389 . S
C270 C275 1.391 . S
C271 H257 0.941 . S
C271 C270 1.389 . S
C271 C272 1.397 . S
C272 H258 0.939 . S
C272 C271 1.397 . S
C272 C273 1.378 . S
C273 C272 1.378 . S
C273 C274 1.378 . S
C274 H259 0.940 . S
C274 C273 1.378 . S
C274 C275 1.396 . S
C275 H260 0.940 . S
C275 C270 1.391 . S
C275 C274 1.396 . S
C276 P256 1.803 . S
C276 C277 1.378 . S
C276 C281 1.400 . S
C277 H261 0.939 . S
C277 C276 1.378 . S
C277 C278 1.361 . S
C278 H262 0.942 . S
C278 C277 1.361 . S
C278 C279 1.369 . S
C279 C278 1.369 . S
C279 C280 1.404 . S
C280 H263 0.940 . S
C280 C279 1.404 . S
C280 C281 1.389 . S
C281 H264 0.939 . S
C281 C276 1.400 . S
C281 C280 1.389 . S
C282 P256 1.819 . S
C282 C283 1.391 . S
C282 C287 1.391 . S
C283 H265 0.941 . S
C283 C282 1.391 . S
C283 C284 1.396 . S
C284 H268 0.939 . S
C284 C283 1.396 . S
C284 C285 1.397 . S
C285 C284 1.397 . S
C285 C286 1.385 . S
C286 H269 0.940 . S
C286 C285 1.385 . S
C286 C287 1.388 . S
C287 H266 0.939 . S
C287 C282 1.391 . S
C287 C286 1.388 . S
P288 O299 1.490 . S
P288 C302 1.812 . S
P288 C308 1.803 . S
P288 C314 1.819 . S
H289 C303 0.941 . S
H290 C304 0.939 . S
H291 C306 0.940 . S
H292 C307 0.940 . S
H293 C309 0.939 1_545 S
H294 C310 0.942 . S
H295 C312 0.940 . S
H296 C313 0.939 . S
H297 C315 0.941 . S
H298 C319 0.939 . S
O299 P288 1.490 . S
H300 C316 0.939 . S
H301 C318 0.940 . S
C302 P288 1.812 . S
C302 C303 1.389 . S
C302 C307 1.391 . S
C303 H289 0.941 . S
C303 C302 1.389 . S
C303 C304 1.397 . S
C304 H290 0.939 . S
C304 C303 1.397 . S
C304 C305 1.378 . S
C305 C304 1.378 . S
C305 C306 1.378 . S
C306 H291 0.940 . S
C306 C305 1.378 . S
C306 C307 1.396 . S
C307 H292 0.940 . S
C307 C302 1.391 . S
C307 C306 1.396 . S
C308 P288 1.803 . S
C308 C309 1.378 . S
C308 C313 1.400 . S
C309 H293 0.939 1_565 S
C309 C308 1.378 . S
C309 C310 1.361 1_565 S
C310 H294 0.942 . S
C310 C309 1.361 1_545 S
C310 C311 1.369 1_545 S
C311 C310 1.369 1_565 S
C311 C312 1.404 . S
C312 H295 0.940 . S
C312 C311 1.404 . S
C312 C313 1.389 . S
C313 H296 0.939 . S
C313 C308 1.400 . S
C313 C312 1.389 . S
C314 P288 1.819 . S
C314 C315 1.391 . S
C314 C319 1.391 . S
C315 H297 0.941 . S
C315 C314 1.391 . S
C315 C316 1.396 . S
C316 H300 0.939 . S
C316 C315 1.396 . S
C316 C317 1.397 . S
C317 C316 1.397 . S
C317 C318 1.385 . S
C318 H301 0.940 . S
C318 C317 1.385 . S
C318 C319 1.388 . S
C319 H298 0.939 . S
C319 C314 1.391 . S
C319 C318 1.388 . S
P320 O331 1.490 . S
P320 C334 1.812 . S
P320 C340 1.803 . S
P320 C346 1.819 . S
H321 C335 0.941 . S
H322 C336 0.939 . S
H323 C338 0.940 . S
H324 C339 0.940 . S
H325 C341 0.939 . S
H326 C342 0.942 . S
H327 C344 0.940 . S
H328 C345 0.939 . S
H329 C347 0.941 . S
H330 C351 0.939 . S
O331 P320 1.490 . S
H332 C348 0.939 . S
H333 C350 0.940 . S
C334 P320 1.812 . S
C334 C335 1.389 . S
C334 C339 1.391 . S
C335 H321 0.941 . S
C335 C334 1.389 . S
C335 C336 1.397 . S
C336 H322 0.939 . S
C336 C335 1.397 . S
C336 C337 1.378 . S
C337 C336 1.378 . S
C337 C338 1.378 . S
C338 H323 0.940 . S
C338 C337 1.378 . S
C338 C339 1.396 . S
C339 H324 0.940 . S
C339 C334 1.391 . S
C339 C338 1.396 . S
C340 P320 1.803 . S
C340 C341 1.378 . S
C340 C345 1.400 . S
C341 H325 0.939 . S
C341 C340 1.378 . S
C341 C342 1.361 . S
C342 H326 0.942 . S
C342 C341 1.361 . S
C342 C343 1.369 . S
C343 C342 1.369 . S
C343 C344 1.404 . S
C344 H327 0.940 . S
C344 C343 1.404 . S
C344 C345 1.389 . S
C345 H328 0.939 . S
C345 C340 1.400 . S
C345 C344 1.389 . S
C346 P320 1.819 . S
C346 C347 1.391 . S
C346 C351 1.391 . S
C347 H329 0.941 . S
C347 C346 1.391 . S
C347 C348 1.396 . S
C348 H332 0.939 . S
C348 C347 1.396 . S
C348 C349 1.397 . S
C349 C348 1.397 . S
C349 C350 1.385 . S
C350 H333 0.940 . S
C350 C349 1.385 . S
C350 C351 1.388 . S
C351 H330 0.939 . S
C351 C346 1.391 . S
C351 C350 1.388 . S
P352 O363 1.490 . S
P352 C366 1.812 . S
P352 C372 1.803 . S
P352 C378 1.819 . S
H353 C367 0.941 . S
H354 C368 0.939 . S
H355 C370 0.940 . S
H356 C371 0.940 . S
H357 C373 0.939 . S
H358 C374 0.942 . S
H359 C376 0.940 . S
H360 C377 0.939 . S
H361 C379 0.941 . S
H362 C383 0.939 . S
O363 P352 1.490 . S
H364 C380 0.939 . S
H365 C382 0.940 . S
C366 P352 1.812 . S
C366 C367 1.389 . S
C366 C371 1.391 . S
C367 H353 0.941 . S
C367 C366 1.389 . S
C367 C368 1.397 . S
C368 H354 0.939 . S
C368 C367 1.397 . S
C368 C369 1.378 . S
C369 C368 1.378 . S
C369 C370 1.378 . S
C370 H355 0.940 . S
C370 C369 1.378 . S
C370 C371 1.396 . S
C371 H356 0.940 . S
C371 C366 1.391 . S
C371 C370 1.396 . S
C372 P352 1.803 . S
C372 C373 1.378 . S
C372 C377 1.400 . S
C373 H357 0.939 . S
C373 C372 1.378 . S
C373 C374 1.361 . S
C374 H358 0.942 . S
C374 C373 1.361 . S
C374 C375 1.369 . S
C375 C374 1.369 . S
C375 C376 1.404 . S
C376 H359 0.940 . S
C376 C375 1.404 . S
C376 C377 1.389 . S
C377 H360 0.939 . S
C377 C372 1.400 . S
C377 C376 1.389 . S
C378 P352 1.819 . S
C378 C379 1.391 . S
C378 C383 1.391 . S
C379 H361 0.941 . S
C379 C378 1.391 . S
C379 C380 1.396 . S
C380 H364 0.939 . S
C380 C379 1.396 . S
C380 C381 1.397 . S
C381 C380 1.397 . S
C381 C382 1.385 . S
C382 H365 0.940 . S
C382 C381 1.385 . S
C382 C383 1.388 . S
C383 H362 0.939 . S
C383 C378 1.391 . S
C383 C382 1.388 . S
P384 O395 1.490 . S
P384 C398 1.812 . S
P384 C404 1.803 . S
P384 C410 1.819 . S
H385 C399 0.941 . S
H386 C400 0.939 . S
H387 C402 0.940 . S
H388 C403 0.940 . S
H389 C405 0.939 . S
H390 C406 0.942 . S
H391 C408 0.940 . S
H392 C409 0.939 . S
H393 C411 0.941 . S
H394 C415 0.939 . S
O395 P384 1.490 . S
H396 C412 0.939 . S
H397 C414 0.940 . S
C398 P384 1.812 . S
C398 C399 1.389 . S
C398 C403 1.391 . S
C399 H385 0.941 . S
C399 C398 1.389 . S
C399 C400 1.397 . S
C400 H386 0.939 . S
C400 C399 1.397 . S
C400 C401 1.378 . S
C401 C400 1.378 . S
C401 C402 1.378 . S
C402 H387 0.940 . S
C402 C401 1.378 . S
C402 C403 1.396 . S
C403 H388 0.940 . S
C403 C398 1.391 . S
C403 C402 1.396 . S
C404 P384 1.803 . S
C404 C405 1.378 . S
C404 C409 1.400 . S
C405 H389 0.939 . S
C405 C404 1.378 . S
C405 C406 1.361 . S
C406 H390 0.942 . S
C406 C405 1.361 . S
C406 C407 1.369 . S
C407 C406 1.369 . S
C407 C408 1.404 . S
C408 H391 0.940 . S
C408 C407 1.404 . S
C408 C409 1.389 . S
C409 H392 0.939 . S
C409 C404 1.400 . S
C409 C408 1.389 . S
C410 P384 1.819 . S
C410 C411 1.391 . S
C410 C415 1.391 . S
C411 H393 0.941 . S
C411 C410 1.391 . S
C411 C412 1.396 . S
C412 H396 0.939 . S
C412 C411 1.396 . S
C412 C413 1.397 . S
C413 C412 1.397 . S
C413 C414 1.385 . S
C414 H397 0.940 . S
C414 C413 1.385 . S
C414 C415 1.388 . S
C415 H394 0.939 . S
C415 C410 1.391 . S
C415 C414 1.388 . S
P416 O427 1.490 . S
P416 C430 1.812 . S
P416 C436 1.803 . S
P416 C442 1.819 . S
H417 C431 0.941 . S
H418 C432 0.939 . S
H419 C434 0.940 . S
H420 C435 0.940 . S
H421 C437 0.939 . S
H422 C438 0.942 . S
H423 C440 0.940 . S
H424 C441 0.939 . S
H425 C443 0.941 . S
H426 C447 0.939 . S
O427 P416 1.490 . S
H428 C444 0.939 . S
H429 C446 0.940 . S
C430 P416 1.812 . S
C430 C431 1.389 . S
C430 C435 1.391 . S
C431 H417 0.941 . S
C431 C430 1.389 . S
C431 C432 1.397 . S
C432 H418 0.939 . S
C432 C431 1.397 . S
C432 C433 1.378 . S
C433 C432 1.378 . S
C433 C434 1.378 . S
C434 H419 0.940 . S
C434 C433 1.378 . S
C434 C435 1.396 . S
C435 H420 0.940 . S
C435 C430 1.391 . S
C435 C434 1.396 . S
C436 P416 1.803 . S
C436 C437 1.378 . S
C436 C441 1.400 . S
C437 H421 0.939 . S
C437 C436 1.378 . S
C437 C438 1.361 . S
C438 H422 0.942 . S
C438 C437 1.361 . S
C438 C439 1.369 . S
C439 C438 1.369 . S
C439 C440 1.404 . S
C440 H423 0.940 . S
C440 C439 1.404 . S
C440 C441 1.389 . S
C441 H424 0.939 . S
C441 C436 1.400 . S
C441 C440 1.389 . S
C442 P416 1.819 . S
C442 C443 1.391 . S
C442 C447 1.391 . S
C443 H425 0.941 . S
C443 C442 1.391 . S
C443 C444 1.396 . S
C444 H428 0.939 . S
C444 C443 1.396 . S
C444 C445 1.397 . S
C445 C444 1.397 . S
C445 C446 1.385 . S
C446 H429 0.940 . S
C446 C445 1.385 . S
C446 C447 1.388 . S
C447 H426 0.939 . S
C447 C442 1.391 . S
C447 C446 1.388 . S
P448 O459 1.490 . S
P448 C462 1.812 . S
P448 C468 1.803 . S
P448 C474 1.819 . S
H449 C463 0.941 . S
H450 C464 0.939 . S
H451 C466 0.940 . S
H452 C467 0.940 . S
H453 C469 0.939 . S
H454 C470 0.942 . S
H455 C472 0.940 . S
H456 C473 0.939 . S
H457 C475 0.941 . S
H458 C479 0.939 . S
O459 P448 1.490 . S
H460 C476 0.939 . S
H461 C478 0.940 . S
C462 P448 1.812 . S
C462 C463 1.389 . S
C462 C467 1.391 . S
C463 H449 0.941 . S
C463 C462 1.389 . S
C463 C464 1.397 . S
C464 H450 0.939 . S
C464 C463 1.397 . S
C464 C465 1.378 . S
C465 C464 1.378 . S
C465 C466 1.378 . S
C466 H451 0.940 . S
C466 C465 1.378 . S
C466 C467 1.396 . S
C467 H452 0.940 . S
C467 C462 1.391 . S
C467 C466 1.396 . S
C468 P448 1.803 . S
C468 C469 1.378 . S
C468 C473 1.400 . S
C469 H453 0.939 . S
C469 C468 1.378 . S
C469 C470 1.361 . S
C470 H454 0.942 . S
C470 C469 1.361 . S
C470 C471 1.369 . S
C471 C470 1.369 . S
C471 C472 1.404 . S
C472 H455 0.940 . S
C472 C471 1.404 . S
C472 C473 1.389 . S
C473 H456 0.939 . S
C473 C468 1.400 . S
C473 C472 1.389 . S
C474 P448 1.819 . S
C474 C475 1.391 . S
C474 C479 1.391 . S
C475 H457 0.941 . S
C475 C474 1.391 . S
C475 C476 1.396 . S
C476 H460 0.939 . S
C476 C475 1.396 . S
C476 C477 1.397 . S
C477 C476 1.397 . S
C477 C478 1.385 . S
C478 H461 0.940 . S
C478 C477 1.385 . S
C478 C479 1.388 . S
C479 H458 0.939 . S
C479 C474 1.391 . S
C479 C478 1.388 . S
P480 O491 1.490 . S
P480 C494 1.812 . S
P480 C500 1.803 . S
P480 C506 1.819 . S
H481 C495 0.941 . S
H482 C496 0.939 . S
H483 C498 0.940 . S
H484 C499 0.940 . S
H485 C501 0.939 . S
H486 C502 0.942 . S
H487 C504 0.940 . S
H488 C505 0.939 . S
H489 C507 0.941 . S
H490 C511 0.939 . S
O491 P480 1.490 . S
H492 C508 0.939 1_565 S
H493 C510 0.940 . S
C494 P480 1.812 . S
C494 C495 1.389 . S
C494 C499 1.391 . S
C495 H481 0.941 . S
C495 C494 1.389 . S
C495 C496 1.397 . S
C496 H482 0.939 . S
C496 C495 1.397 . S
C496 C497 1.378 . S
C497 C496 1.378 . S
C497 C498 1.378 . S
C498 H483 0.940 . S
C498 C497 1.378 . S
C498 C499 1.396 . S
C499 H484 0.940 . S
C499 C494 1.391 . S
C499 C498 1.396 . S
C500 P480 1.803 . S
C500 C501 1.378 1_556 S
C500 C505 1.400 . S
C501 H485 0.939 . S
C501 C500 1.378 1_554 S
C501 C502 1.361 . S
C502 H486 0.942 . S
C502 C501 1.361 . S
C502 C503 1.369 . S
C503 C502 1.369 . S
C503 C504 1.404 1_554 S
C504 H487 0.940 . S
C504 C503 1.404 1_556 S
C504 C505 1.389 . S
C505 H488 0.939 . S
C505 C500 1.400 . S
C505 C504 1.389 . S
C506 P480 1.819 . S
C506 C507 1.391 . S
C506 C511 1.391 . S
C507 H489 0.941 . S
C507 C506 1.391 . S
C507 C508 1.396 . S
C508 H492 0.939 1_545 S
C508 C507 1.396 . S
C508 C509 1.397 . S
C509 C508 1.397 . S
C509 C510 1.385 . S
C510 H493 0.940 . S
C510 C509 1.385 . S
C510 C511 1.388 . S
C511 H490 0.939 . S
C511 C506 1.391 . S
C511 C510 1.388 . S
O512 Cd513 2.223 . S
O512 C520 1.315 . S
Cd513 O512 2.223 . S
Cd513 O516 2.297 . S
Cd513 O517 2.439 . S
Cd513 O523 2.240 . S
Cd514 O515 2.240 . S
Cd514 O522 2.223 . S
Cd514 O524 2.297 . S
Cd514 O525 2.439 . S
O515 Cd514 2.240 . S
O515 C520 1.279 . S
O516 Cd513 2.297 . S
O516 C518 1.247 . S
O517 Cd513 2.439 . S
O517 C518 1.208 . S
C518 O516 1.247 . S
C518 O517 1.208 . S
C519 O524 1.247 . S
C519 O525 1.208 . S
C520 O512 1.315 . S
C520 O515 1.279 . S
C521 O522 1.315 . S
C521 O523 1.279 . S
O522 Cd514 2.223 . S
O522 C521 1.315 . S
O523 Cd513 2.240 . S
O523 C521 1.279 . S
O524 Cd514 2.297 . S
O524 C519 1.247 . S
O525 Cd514 2.439 . S
O525 C519 1.208 . S
O526 Cd527 2.223 . S
O526 C534 1.315 . S
Cd527 O526 2.223 . S
Cd527 O530 2.297 . S
Cd527 O531 2.439 . S
Cd527 O537 2.240 . S
Cd528 O529 2.240 . S
Cd528 O536 2.223 . S
Cd528 O538 2.297 . S
Cd528 O539 2.439 . S
O529 Cd528 2.240 . S
O529 C534 1.279 . S
O530 Cd527 2.297 . S
O530 C532 1.247 . S
O531 Cd527 2.439 . S
O531 C532 1.208 . S
C532 O530 1.247 . S
C532 O531 1.208 . S
C533 O538 1.247 . S
C533 O539 1.208 . S
C534 O526 1.315 . S
C534 O529 1.279 . S
C535 O536 1.315 . S
C535 O537 1.279 . S
O536 Cd528 2.223 . S
O536 C535 1.315 . S
O537 Cd527 2.240 . S
O537 C535 1.279 . S
O538 Cd528 2.297 . S
O538 C533 1.247 . S
O539 Cd528 2.439 . S
O539 C533 1.208 . S
O540 Cd541 2.223 1_556 S
O540 C548 1.315 . S
Cd541 O540 2.223 1_554 S
Cd541 O544 2.297 . S
Cd541 O545 2.439 . S
Cd541 O551 2.240 . S
Cd542 O543 2.240 . S
Cd542 O550 2.223 . S
Cd542 O552 2.297 1_556 S
Cd542 O553 2.439 1_556 S
O543 Cd542 2.240 . S
O543 C548 1.279 . S
O544 Cd541 2.297 . S
O544 C546 1.247 . S
O545 Cd541 2.439 . S
O545 C546 1.208 . S
C546 O544 1.247 . S
C546 O545 1.208 . S
C547 O552 1.247 . S
C547 O553 1.208 . S
C548 O540 1.315 . S
C548 O543 1.279 . S
C549 O550 1.315 . S
C549 O551 1.279 1_556 S
O550 Cd542 2.223 . S
O550 C549 1.315 . S
O551 Cd541 2.240 . S
O551 C549 1.279 1_554 S
O552 Cd542 2.297 1_554 S
O552 C547 1.247 . S
O553 Cd542 2.439 1_554 S
O553 C547 1.208 . S
O554 Cd555 2.223 . S
O554 C562 1.315 . S
Cd555 O554 2.223 . S
Cd555 O558 2.297 . S
Cd555 O559 2.439 . S
Cd555 O565 2.240 . S
Cd556 O557 2.240 . S
Cd556 O564 2.223 . S
Cd556 O566 2.297 . S
Cd556 O567 2.439 . S
O557 Cd556 2.240 . S
O557 C562 1.279 . S
O558 Cd555 2.297 . S
O558 C560 1.247 . S
O559 Cd555 2.439 . S
O559 C560 1.208 . S
C560 O558 1.247 . S
C560 O559 1.208 . S
C561 O566 1.247 . S
C561 O567 1.208 . S
C562 O554 1.315 . S
C562 O557 1.279 . S
C563 O564 1.315 . S
C563 O565 1.279 . S
O564 Cd556 2.223 . S
O564 C563 1.315 . S
O565 Cd555 2.240 . S
O565 C563 1.279 . S
O566 Cd556 2.297 . S
O566 C561 1.247 . S
O567 Cd556 2.439 . S
O567 C561 1.208 . S
O568 Cd569 2.223 . S
O568 C576 1.315 . S
Cd569 O568 2.223 . S
Cd569 O572 2.297 . S
Cd569 O573 2.439 . S
Cd569 O579 2.240 . S
Cd570 O571 2.240 . S
Cd570 O578 2.223 . S
Cd570 O580 2.297 . S
Cd570 O581 2.439 . S
O571 Cd570 2.240 . S
O571 C576 1.279 . S
O572 Cd569 2.297 . S
O572 C574 1.247 . S
O573 Cd569 2.439 . S
O573 C574 1.208 . S
C574 O572 1.247 . S
C574 O573 1.208 . S
C575 O580 1.247 . S
C575 O581 1.208 . S
C576 O568 1.315 . S
C576 O571 1.279 . S
C577 O578 1.315 . S
C577 O579 1.279 . S
O578 Cd570 2.223 . S
O578 C577 1.315 . S
O579 Cd569 2.240 . S
O579 C577 1.279 . S
O580 Cd570 2.297 . S
O580 C575 1.247 . S
O581 Cd570 2.439 . S
O581 C575 1.208 . S
O582 Cd583 2.223 . S
O582 C590 1.315 . S
Cd583 O582 2.223 . S
Cd583 O586 2.297 . S
Cd583 O587 2.439 . S
Cd583 O593 2.240 . S
Cd584 O585 2.240 . S
Cd584 O592 2.223 . S
Cd584 O594 2.297 . S
Cd584 O595 2.439 . S
O585 Cd584 2.240 . S
O585 C590 1.279 . S
O586 Cd583 2.297 . S
O586 C588 1.247 . S
O587 Cd583 2.439 . S
O587 C588 1.208 . S
C588 O586 1.247 . S
C588 O587 1.208 . S
C589 O594 1.247 . S
C589 O595 1.208 . S
C590 O582 1.315 . S
C590 O585 1.279 . S
C591 O592 1.315 . S
C591 O593 1.279 . S
O592 Cd584 2.223 . S
O592 C591 1.315 . S
O593 Cd583 2.240 . S
O593 C591 1.279 . S
O594 Cd584 2.297 . S
O594 C589 1.247 . S
O595 Cd584 2.439 . S
O595 C589 1.208 . S
O596 Cd597 2.223 . S
O596 C604 1.315 . S
Cd597 O596 2.223 . S
Cd597 O600 2.297 . S
Cd597 O601 2.439 . S
Cd597 O607 2.240 . S
Cd598 O599 2.240 . S
Cd598 O606 2.223 . S
Cd598 O608 2.297 . S
Cd598 O609 2.439 . S
O599 Cd598 2.240 . S
O599 C604 1.279 . S
O600 Cd597 2.297 . S
O600 C602 1.247 . S
O601 Cd597 2.439 . S
O601 C602 1.208 . S
C602 O600 1.247 . S
C602 O601 1.208 . S
C603 O608 1.247 . S
C603 O609 1.208 . S
C604 O596 1.315 . S
C604 O599 1.279 . S
C605 O606 1.315 . S
C605 O607 1.279 . S
O606 Cd598 2.223 . S
O606 C605 1.315 . S
O607 Cd597 2.240 . S
O607 C605 1.279 . S
O608 Cd598 2.297 . S
O608 C603 1.247 . S
O609 Cd598 2.439 . S
O609 C603 1.208 . S
O610 Cd611 2.223 1_545 S
O610 C618 1.315 . S
Cd611 O610 2.223 1_565 S
Cd611 O614 2.297 . S
Cd611 O615 2.439 . S
Cd611 O621 2.240 1_565 S
Cd612 O613 2.240 . S
Cd612 O620 2.223 . S
Cd612 O622 2.297 . S
Cd612 O623 2.439 1_545 S
O613 Cd612 2.240 . S
O613 C618 1.279 . S
O614 Cd611 2.297 . S
O614 C616 1.247 . S
O615 Cd611 2.439 . S
O615 C616 1.208 . S
C616 O614 1.247 . S
C616 O615 1.208 . S
C617 O622 1.247 1_565 S
C617 O623 1.208 . S
C618 O610 1.315 . S
C618 O613 1.279 . S
C619 O620 1.315 . S
C619 O621 1.279 . S
O620 Cd612 2.223 . S
O620 C619 1.315 . S
O621 Cd611 2.240 1_545 S
O621 C619 1.279 . S
O622 Cd612 2.297 . S
O622 C617 1.247 1_545 S
O623 Cd612 2.439 1_565 S
O623 C617 1.208 . S
O624 Cd625 2.223 . S
O624 C632 1.315 . S
Cd625 O624 2.223 . S
Cd625 O628 2.297 1_655 S
Cd625 O629 2.439 1_655 S
Cd625 O635 2.240 . S
Cd626 O627 2.240 . S
Cd626 O634 2.223 1_455 S
Cd626 O636 2.297 . S
Cd626 O637 2.439 . S
O627 Cd626 2.240 . S
O627 C632 1.279 1_455 S
O628 Cd625 2.297 1_455 S
O628 C630 1.247 . S
O629 Cd625 2.439 1_455 S
O629 C630 1.208 . S
C630 O628 1.247 . S
C630 O629 1.208 . S
C631 O636 1.247 . S
C631 O637 1.208 . S
C632 O624 1.315 . S
C632 O627 1.279 1_655 S
C633 O634 1.315 . S
C633 O635 1.279 . S
O634 Cd626 2.223 1_655 S
O634 C633 1.315 . S
O635 Cd625 2.240 . S
O635 C633 1.279 . S
O636 Cd626 2.297 . S
O636 C631 1.247 . S
O637 Cd626 2.439 . S
O637 C631 1.208 . S
O638 Cd639 2.223 . S
O638 C646 1.315 . S
Cd639 O638 2.223 . S
Cd639 O642 2.297 . S
Cd639 O643 2.439 . S
Cd639 O649 2.240 . S
Cd640 O641 2.240 . S
Cd640 O648 2.223 . S
Cd640 O650 2.297 . S
Cd640 O651 2.439 . S
O641 Cd640 2.240 . S
O641 C646 1.279 . S
O642 Cd639 2.297 . S
O642 C644 1.247 . S
O643 Cd639 2.439 . S
O643 C644 1.208 . S
C644 O642 1.247 . S
C644 O643 1.208 . S
C645 O650 1.247 . S
C645 O651 1.208 . S
C646 O638 1.315 . S
C646 O641 1.279 . S
C647 O648 1.315 . S
C647 O649 1.279 . S
O648 Cd640 2.223 . S
O648 C647 1.315 . S
O649 Cd639 2.240 . S
O649 C647 1.279 . S
O650 Cd640 2.297 . S
O650 C645 1.247 . S
O651 Cd640 2.439 . S
O651 C645 1.208 . S
O652 Cd653 2.223 1_655 S
O652 C660 1.315 . S
Cd653 O652 2.223 1_455 S
Cd653 O656 2.297 . S
Cd653 O657 2.439 . S
Cd653 O663 2.240 . S
Cd654 O655 2.240 . S
Cd654 O662 2.223 . S
Cd654 O664 2.297 . S
Cd654 O665 2.439 1_655 S
O655 Cd654 2.240 . S
O655 C660 1.279 . S
O656 Cd653 2.297 . S
O656 C658 1.247 . S
O657 Cd653 2.439 . S
O657 C658 1.208 . S
C658 O656 1.247 . S
C658 O657 1.208 . S
C659 O664 1.247 1_455 S
C659 O665 1.208 . S
C660 O652 1.315 . S
C660 O655 1.279 . S
C661 O662 1.315 . S
C661 O663 1.279 1_655 S
O662 Cd654 2.223 . S
O662 C661 1.315 . S
O663 Cd653 2.240 . S
O663 C661 1.279 1_455 S
O664 Cd654 2.297 . S
O664 C659 1.247 1_655 S
O665 Cd654 2.439 1_455 S
O665 C659 1.208 . S
O666 Cd667 2.223 . S
O666 C674 1.315 . S
Cd667 O666 2.223 . S
Cd667 O670 2.297 . S
Cd667 O671 2.439 . S
Cd667 O677 2.240 . S
Cd668 O669 2.240 . S
Cd668 O676 2.223 . S
Cd668 O678 2.297 . S
Cd668 O679 2.439 . S
O669 Cd668 2.240 . S
O669 C674 1.279 . S
O670 Cd667 2.297 . S
O670 C672 1.247 . S
O671 Cd667 2.439 . S
O671 C672 1.208 . S
C672 O670 1.247 . S
C672 O671 1.208 . S
C673 O678 1.247 . S
C673 O679 1.208 . S
C674 O666 1.315 . S
C674 O669 1.279 . S
C675 O676 1.315 . S
C675 O677 1.279 . S
O676 Cd668 2.223 . S
O676 C675 1.315 . S
O677 Cd667 2.240 . S
O677 C675 1.279 . S
O678 Cd668 2.297 . S
O678 C673 1.247 . S
O679 Cd668 2.439 . S
O679 C673 1.208 . S
C680 C681 1.363 . S
C680 C686 1.379 . S
C680 N688 1.356 . S
C681 C680 1.363 . S
C681 C687 1.363 . S
C682 C683 1.363 . S
C682 C687 1.379 . S
C682 N689 1.356 . S
C683 C682 1.363 . S
C683 C686 1.363 . S
N684 C686 1.356 . S
N684 H696 0.984 . S
N684 H697 0.985 . S
N685 C687 1.356 . S
N685 H690 0.984 . S
N685 H691 0.985 . S
C686 C680 1.379 . S
C686 C683 1.363 . S
C686 N684 1.356 . S
C687 C681 1.363 . S
C687 C682 1.379 . S
C687 N685 1.356 . S
N688 C680 1.356 . S
N688 H694 0.984 . S
N688 H695 0.984 . S
N689 C682 1.356 . S
N689 H692 0.984 1_556 S
N689 H693 0.989 . S
H690 N685 0.984 . S
H691 N685 0.985 . S
H692 N689 0.984 1_554 S
H693 N689 0.989 . S
H694 N688 0.984 . S
H695 N688 0.984 . S
H696 N684 0.984 . S
H697 N684 0.985 . S
C698 C699 1.363 1_455 S
C698 C704 1.379 . S
C698 N706 1.356 1_455 S
C699 C698 1.363 1_655 S
C699 C705 1.363 1_655 S
C700 C701 1.363 . S
C700 C705 1.379 . S
C700 N707 1.356 . S
C701 C700 1.363 . S
C701 C704 1.363 . S
N702 C704 1.356 . S
N702 H714 0.984 . S
N702 H715 0.985 . S
N703 C705 1.356 . S
N703 H708 0.984 1_455 S
N703 H709 0.985 . S
C704 C698 1.379 . S
C704 C701 1.363 . S
C704 N702 1.356 . S
C705 C699 1.363 1_455 S
C705 C700 1.379 . S
C705 N703 1.356 . S
N706 C698 1.356 1_655 S
N706 H712 0.984 . S
N706 H713 0.984 . S
N707 C700 1.356 . S
N707 H710 0.984 . S
N707 H711 0.985 . S
H708 N703 0.984 1_655 S
H709 N703 0.985 . S
H710 N707 0.984 . S
H711 N707 0.985 . S
H712 N706 0.984 . S
H713 N706 0.984 . S
H714 N702 0.984 . S
H715 N702 0.985 . S
C716 C717 1.363 . S
C716 C722 1.379 . S
C716 N724 1.356 . S
C717 C716 1.363 . S
C717 C723 1.363 . S
C718 C719 1.363 . S
C718 C723 1.379 . S
C718 N725 1.356 . S
C719 C718 1.363 . S
C719 C722 1.363 . S
N720 C722 1.356 . S
N720 H732 0.984 . S
N720 H733 0.985 . S
N721 C723 1.356 . S
N721 H726 0.984 . S
N721 H727 0.985 . S
C722 C716 1.379 . S
C722 C719 1.363 . S
C722 N720 1.356 . S
C723 C717 1.363 . S
C723 C718 1.379 . S
C723 N721 1.356 . S
N724 C716 1.356 . S
N724 H730 0.984 . S
N724 H731 0.984 . S
N725 C718 1.356 . S
N725 H728 0.984 . S
N725 H729 0.985 . S
H726 N721 0.984 . S
H727 N721 0.985 . S
H728 N725 0.984 . S
H729 N725 0.985 . S
H730 N724 0.984 . S
H731 N724 0.984 . S
H732 N720 0.984 . S
H733 N720 0.985 . S
C734 C735 1.363 . S
C734 C740 1.379 1_565 S
C734 N742 1.356 . S
C735 C734 1.363 . S
C735 C741 1.363 . S
C736 C737 1.364 1_565 S
C736 C741 1.378 . S
C736 N743 1.357 1_565 S
C737 C736 1.364 1_545 S
C737 C740 1.363 . S
N738 C740 1.356 . S
N738 H750 0.984 . S
N738 H751 0.985 . S
N739 C741 1.356 1_455 S
N739 H744 0.984 . S
N739 H745 0.985 . S
C740 C734 1.379 1_545 S
C740 C737 1.363 . S
C740 N738 1.356 . S
C741 C735 1.363 . S
C741 C736 1.378 . S
C741 N739 1.356 1_655 S
N742 C734 1.356 . S
N742 H748 0.984 . S
N742 H749 0.984 1_655 S
N743 C736 1.357 1_545 S
N743 H746 0.984 . S
N743 H747 0.985 . S
H744 N739 0.984 . S
H745 N739 0.985 . S
H746 N743 0.984 . S
H747 N743 0.985 . S
H748 N742 0.984 . S
H749 N742 0.984 1_455 S
H750 N738 0.984 . S
H751 N738 0.985 . S
C752 C753 1.363 . S
C752 C758 1.379 . S
C752 N760 1.356 . S
C753 C752 1.363 . S
C753 C759 1.363 . S
C754 C755 1.363 . S
C754 C759 1.379 . S
C754 N761 1.356 . S
C755 C754 1.363 . S
C755 C758 1.363 . S
N756 C758 1.356 . S
N756 H768 0.984 . S
N756 H769 0.985 . S
N757 C759 1.356 . S
N757 H762 0.984 . S
N757 H763 0.985 . S
C758 C752 1.379 . S
C758 C755 1.363 . S
C758 N756 1.356 . S
C759 C753 1.363 . S
C759 C754 1.379 . S
C759 N757 1.356 . S
N760 C752 1.356 . S
N760 H766 0.984 . S
N760 H767 0.984 . S
N761 C754 1.356 . S
N761 H764 0.984 . S
N761 H765 0.985 . S
H762 N757 0.984 . S
H763 N757 0.985 . S
H764 N761 0.984 . S
H765 N761 0.985 . S
H766 N760 0.984 . S
H767 N760 0.984 . S
H768 N756 0.984 . S
H769 N756 0.985 . S
C770 C771 1.363 . S
C770 C776 1.379 . S
C770 N778 1.356 . S
C771 C770 1.363 . S
C771 C777 1.363 . S
C772 C773 1.363 . S
C772 C777 1.379 . S
C772 N779 1.356 . S
C773 C772 1.363 . S
C773 C776 1.363 . S
N774 C776 1.356 . S
N774 H786 0.984 . S
N774 H787 0.985 . S
N775 C777 1.356 . S
N775 H780 0.984 . S
N775 H781 0.985 . S
C776 C770 1.379 . S
C776 C773 1.363 . S
C776 N774 1.356 . S
C777 C771 1.363 . S
C777 C772 1.379 . S
C777 N775 1.356 . S
N778 C770 1.356 . S
N778 H784 0.984 . S
N778 H785 0.984 . S
N779 C772 1.356 . S
N779 H782 0.984 . S
N779 H783 0.985 . S
H780 N775 0.984 . S
H781 N775 0.985 . S
H782 N779 0.984 . S
H783 N779 0.985 . S
H784 N778 0.984 . S
H785 N778 0.984 . S
H786 N774 0.984 . S
H787 N774 0.985 . S
C788 C789 1.363 . S
C788 C794 1.379 . S
C788 N796 1.356 . S
C789 C788 1.363 . S
C789 C795 1.363 . S
C790 C791 1.363 . S
C790 C795 1.379 . S
C790 N797 1.356 . S
C791 C790 1.363 . S
C791 C794 1.363 . S
N792 C794 1.356 . S
N792 H804 0.984 . S
N792 H805 0.985 . S
N793 C795 1.356 . S
N793 H798 0.984 . S
N793 H799 0.985 . S
C794 C788 1.379 . S
C794 C791 1.363 . S
C794 N792 1.356 . S
C795 C789 1.363 . S
C795 C790 1.379 . S
C795 N793 1.356 . S
N796 C788 1.356 . S
N796 H802 0.984 . S
N796 H803 0.984 . S
N797 C790 1.356 . S
N797 H800 0.984 . S
N797 H801 0.985 . S
H798 N793 0.984 . S
H799 N793 0.985 . S
H800 N797 0.984 . S
H801 N797 0.985 . S
H802 N796 0.984 . S
H803 N796 0.984 . S
H804 N792 0.984 . S
H805 N792 0.985 . S
C806 C807 1.363 . S
C806 C812 1.379 . S
C806 N814 1.356 . S
C807 C806 1.363 . S
C807 C813 1.363 . S
C808 C809 1.363 . S
C808 C813 1.379 . S
C808 N815 1.356 1_565 S
C809 C808 1.363 . S
C809 C812 1.363 . S
N810 C812 1.356 . S
N810 H822 0.984 . S
N810 H823 0.985 . S
N811 C813 1.356 . S
N811 H816 0.984 . S
N811 H817 0.985 1_565 S
C812 C806 1.379 . S
C812 C809 1.363 . S
C812 N810 1.356 . S
C813 C807 1.363 . S
C813 C808 1.379 . S
C813 N811 1.356 . S
N814 C806 1.356 . S
N814 H820 0.984 . S
N814 H821 0.984 . S
N815 C808 1.356 1_545 S
N815 H818 0.984 . S
N815 H819 0.985 . S
H816 N811 0.984 . S
H817 N811 0.985 1_545 S
H818 N815 0.984 . S
H819 N815 0.985 . S
H820 N814 0.984 . S
H821 N814 0.984 . S
H822 N810 0.984 . S
H823 N810 0.985 . S
C824 C825 1.363 . S
C824 C830 1.379 . S
C824 N832 1.356 . S
C825 C824 1.363 . S
C825 C831 1.363 . S
C826 C827 1.363 . S
C826 C831 1.379 . S
C826 N833 1.356 . S
C827 C826 1.363 . S
C827 C830 1.363 . S
N828 C830 1.356 . S
N828 H840 0.984 . S
N828 H841 0.985 . S
N829 C831 1.356 . S
N829 H834 0.984 . S
N829 H835 0.985 . S
C830 C824 1.379 . S
C830 C827 1.363 . S
C830 N828 1.356 . S
C831 C825 1.363 . S
C831 C826 1.379 . S
C831 N829 1.356 . S
N832 C824 1.356 . S
N832 H838 0.984 . S
N832 H839 0.984 . S
N833 C826 1.356 . S
N833 H836 0.984 . S
N833 H837 0.985 . S
H834 N829 0.984 . S
H835 N829 0.985 . S
H836 N833 0.984 . S
H837 N833 0.985 . S
H838 N832 0.984 . S
H839 N832 0.984 . S
H840 N828 0.984 . S
H841 N828 0.985 . S
C842 C843 1.363 . S
C842 C848 1.379 . S
C842 N850 1.356 . S
C843 C842 1.363 . S
C843 C849 1.363 . S
C844 C845 1.363 . S
C844 C849 1.379 . S
C844 N851 1.356 . S
C845 C844 1.363 . S
C845 C848 1.363 . S
N846 C848 1.356 . S
N846 H858 0.984 . S
N846 H859 0.985 . S
N847 C849 1.356 . S
N847 H852 0.984 . S
N847 H853 0.985 . S
C848 C842 1.379 . S
C848 C845 1.363 . S
C848 N846 1.356 . S
C849 C843 1.363 . S
C849 C844 1.379 . S
C849 N847 1.356 . S
N850 C842 1.356 . S
N850 H856 0.984 . S
N850 H857 0.984 . S
N851 C844 1.356 . S
N851 H854 0.984 . S
N851 H855 0.985 . S
H852 N847 0.984 . S
H853 N847 0.985 . S
H854 N851 0.984 . S
H855 N851 0.985 . S
H856 N850 0.984 . S
H857 N850 0.984 . S
H858 N846 0.984 . S
H859 N846 0.985 . S
C860 C861 1.363 . S
C860 C866 1.379 . S
C860 N868 1.356 . S
C861 C860 1.363 . S
C861 C867 1.363 . S
C862 C863 1.363 . S
C862 C867 1.379 . S
C862 N869 1.356 . S
C863 C862 1.363 . S
C863 C866 1.363 . S
N864 C866 1.356 . S
N864 H876 0.984 . S
N864 H877 0.985 . S
N865 C867 1.356 . S
N865 H870 0.984 . S
N865 H871 0.985 . S
C866 C860 1.379 . S
C866 C863 1.363 . S
C866 N864 1.356 . S
C867 C861 1.363 . S
C867 C862 1.379 . S
C867 N865 1.356 . S
N868 C860 1.356 . S
N868 H874 0.984 . S
N868 H875 0.984 . S
N869 C862 1.356 . S
N869 H872 0.984 . S
N869 H873 0.985 . S
H870 N865 0.984 . S
H871 N865 0.985 . S
H872 N869 0.984 . S
H873 N869 0.985 . S
H874 N868 0.984 . S
H875 N868 0.984 . S
H876 N864 0.984 . S
H877 N864 0.985 . S
C878 C879 1.363 . S
C878 C884 1.379 . S
C878 N886 1.356 . S
C879 C878 1.363 . S
C879 C885 1.363 . S
C880 C881 1.363 . S
C880 C885 1.379 . S
C880 N887 1.356 . S
C881 C880 1.363 . S
C881 C884 1.363 . S
N882 C884 1.356 . S
N882 H894 0.984 . S
N882 H895 0.985 . S
N883 C885 1.356 . S
N883 H888 0.984 . S
N883 H889 0.985 . S
C884 C878 1.379 . S
C884 C881 1.363 . S
C884 N882 1.356 . S
C885 C879 1.363 . S
C885 C880 1.379 . S
C885 N883 1.356 . S
N886 C878 1.356 . S
N886 H892 0.984 . S
N886 H893 0.984 . S
N887 C880 1.356 . S
N887 H890 0.984 . S
N887 H891 0.985 . S
H888 N883 0.984 . S
H889 N883 0.985 . S
H890 N887 0.984 . S
H891 N887 0.985 . S
H892 N886 0.984 . S
H893 N886 0.984 . S
H894 N882 0.984 . S
H895 N882 0.985 . S
C896 C897 1.363 . S
C896 C902 1.379 . S
C896 N904 1.356 . S
C897 C896 1.363 . S
C897 C903 1.363 . S
C898 C899 1.363 . S
C898 C903 1.379 . S
C898 N905 1.356 . S
C899 C898 1.363 . S
C899 C902 1.363 . S
N900 C902 1.356 . S
N900 H912 0.984 . S
N900 H913 0.985 . S
N901 C903 1.356 . S
N901 H906 0.984 . S
N901 H907 0.985 . S
C902 C896 1.379 . S
C902 C899 1.363 . S
C902 N900 1.356 . S
C903 C897 1.363 . S
C903 C898 1.379 . S
C903 N901 1.356 . S
N904 C896 1.356 . S
N904 H910 0.984 . S
N904 H911 0.984 . S
N905 C898 1.356 . S
N905 H908 0.984 . S
N905 H909 0.985 . S
H906 N901 0.984 . S
H907 N901 0.985 . S
H908 N905 0.984 . S
H909 N905 0.985 . S
H910 N904 0.984 . S
H911 N904 0.984 . S
H912 N900 0.984 . S
H913 N900 0.985 . S
C914 C915 1.363 . S
C914 C920 1.379 . S
C914 N922 1.356 . S
C915 C914 1.363 . S
C915 C921 1.363 . S
C916 C917 1.363 . S
C916 C921 1.379 . S
C916 N923 1.356 . S
C917 C916 1.363 . S
C917 C920 1.363 . S
N918 C920 1.356 . S
N918 H930 1.001 . S
N918 H931 0.985 . S
N919 C921 1.356 . S
N919 H924 0.984 . S
N919 H925 0.985 . S
C920 C914 1.379 . S
C920 C917 1.363 . S
C920 N918 1.356 . S
C921 C915 1.363 . S
C921 C916 1.379 . S
C921 N919 1.356 . S
N922 C914 1.356 . S
N922 H928 0.984 . S
N922 H929 0.984 . S
N923 C916 1.356 . S
N923 H926 0.984 . S
N923 H927 0.985 . S
H924 N919 0.984 . S
H925 N919 0.985 . S
H926 N923 0.984 . S
H927 N923 0.985 . S
H928 N922 0.984 . S
H929 N922 0.984 . S
H930 N918 1.001 . S
H931 N918 0.985 . S
C932 C933 1.363 . S
C932 C938 1.379 . S
C932 N940 1.356 . S
C933 C932 1.363 . S
C933 C939 1.363 . S
C934 C935 1.363 . S
C934 C939 1.379 . S
C934 N941 1.356 . S
C935 C934 1.363 . S
C935 C938 1.363 . S
N936 C938 1.356 . S
N936 H948 0.984 . S
N936 H949 0.985 . S
N937 C939 1.356 . S
N937 H942 0.984 . S
N937 H943 0.985 . S
C938 C932 1.379 . S
C938 C935 1.363 . S
C938 N936 1.356 . S
C939 C933 1.363 . S
C939 C934 1.379 . S
C939 N937 1.356 . S
N940 C932 1.356 . S
N940 H946 0.984 . S
N940 H947 0.984 . S
N941 C934 1.356 . S
N941 H944 0.984 . S
N941 H945 0.985 . S
H942 N937 0.984 . S
H943 N937 0.985 . S
H944 N941 0.984 . S
H945 N941 0.985 . S
H946 N940 0.984 . S
H947 N940 0.984 . S
H948 N936 0.984 . S
H949 N936 0.985 . S
C950 C951 1.363 . S
C950 C956 1.379 . S
C950 N958 1.356 . S
C951 C950 1.363 . S
C951 C957 1.363 . S
C952 C953 1.363 . S
C952 C957 1.379 . S
C952 N959 1.344 1_655 S
C953 C952 1.363 . S
C953 C956 1.363 . S
N954 C956 1.356 . S
N954 H966 0.984 . S
N954 H967 0.985 . S
N955 C957 1.356 . S
N955 H960 0.984 . S
N955 H961 0.985 . S
C956 C950 1.379 . S
C956 C953 1.363 . S
C956 N954 1.356 . S
C957 C951 1.363 . S
C957 C952 1.379 . S
C957 N955 1.356 . S
N958 C950 1.356 . S
N958 H964 0.984 . S
N958 H965 0.984 . S
N959 C952 1.344 1_455 S
N959 H962 0.984 . S
N959 H963 0.997 . S
H960 N955 0.984 . S
H961 N955 0.985 . S
H962 N959 0.984 . S
H963 N959 0.997 . S
H964 N958 0.984 . S
H965 N958 0.984 . S
H966 N954 0.984 . S
H967 N954 0.985 . S
C968 C969 1.363 . S
C968 C974 1.379 . S
C968 N976 1.356 . S
C969 C968 1.363 . S
C969 C975 1.363 . S
C970 C971 1.363 . S
C970 C975 1.379 . S
C970 N977 1.356 . S
C971 C970 1.363 . S
C971 C974 1.363 . S
N972 C974 1.356 . S
N972 H984 0.984 . S
N972 H985 0.985 . S
N973 C975 1.356 . S
N973 H978 0.984 . S
N973 H979 0.985 . S
C974 C968 1.379 . S
C974 C971 1.363 . S
C974 N972 1.356 . S
C975 C969 1.363 . S
C975 C970 1.379 . S
C975 N973 1.356 . S
N976 C968 1.356 . S
N976 H982 0.984 . S
N976 H983 0.984 . S
N977 C970 1.356 . S
N977 H980 0.984 1_565 S
N977 H981 0.985 . S
H978 N973 0.984 . S
H979 N973 0.985 . S
H980 N977 0.984 1_545 S
H981 N977 0.985 . S
H982 N976 0.984 . S
H983 N976 0.984 . S
H984 N972 0.984 . S
H985 N972 0.985 . S
C986 C987 1.363 . S
C986 C992 1.379 . S
C986 N994 1.356 . S
C987 C986 1.363 . S
C987 C993 1.363 . S
C988 C989 1.363 . S
C988 C993 1.379 . S
C988 N995 1.356 . S
C989 C988 1.363 . S
C989 C992 1.363 . S
N990 C992 1.356 . S
N990 H1002 0.984 . S
N990 H1003 0.985 . S
N991 C993 1.356 . S
N991 H996 0.984 . S
N991 H997 0.985 . S
C992 C986 1.379 . S
C992 C989 1.363 . S
C992 N990 1.356 . S
C993 C987 1.363 . S
C993 C988 1.379 . S
C993 N991 1.356 . S
N994 C986 1.356 . S
N994 H1000 0.984 . S
N994 H1001 0.984 . S
N995 C988 1.356 . S
N995 H998 0.984 . S
N995 H999 0.985 . S
H996 N991 0.984 . S
H997 N991 0.985 . S
H998 N995 0.984 . S
H999 N995 0.985 . S
H1000 N994 0.984 . S
H1001 N994 0.984 . S
H1002 N990 0.984 . S
H1003 N990 0.985 . S
C1004 C1005 1.363 1_554 S
C1004 C1010 1.379 1_545 S
C1004 N1012 1.356 . S
C1005 C1004 1.363 1_556 S
C1005 C1011 1.363 1_545 S
C1006 C1007 1.363 1_556 S
C1006 C1011 1.379 . S
C1006 N1013 1.356 . S
C1007 C1006 1.363 1_554 S
C1007 C1010 1.363 . S
N1008 C1010 1.356 . S
N1008 H1020 0.984 . S
N1008 H1021 0.985 . S
N1009 C1011 1.356 1_545 S
N1009 H1014 0.984 . S
N1009 H1015 0.985 . S
C1010 C1004 1.379 1_565 S
C1010 C1007 1.363 . S
C1010 N1008 1.356 . S
C1011 C1005 1.363 1_565 S
C1011 C1006 1.379 . S
C1011 N1009 1.356 1_565 S
N1012 C1004 1.356 . S
N1012 H1018 0.984 . S
N1012 H1019 0.984 1_554 S
N1013 C1006 1.356 . S
N1013 H1016 0.984 . S
N1013 H1017 0.985 . S
H1014 N1009 0.984 . S
H1015 N1009 0.985 . S
H1016 N1013 0.984 . S
H1017 N1013 0.985 . S
H1018 N1012 0.984 . S
H1019 N1012 0.984 1_556 S
H1020 N1008 0.984 . S
H1021 N1008 0.985 . S
C1022 C1023 1.363 . S
C1022 C1028 1.379 . S
C1022 N1030 1.356 . S
C1023 C1022 1.363 . S
C1023 C1029 1.363 . S
C1024 C1025 1.363 . S
C1024 C1029 1.379 . S
C1024 N1031 1.356 . S
C1025 C1024 1.363 . S
C1025 C1028 1.363 . S
N1026 C1028 1.356 . S
N1026 H1038 0.984 . S
N1026 H1039 0.985 . S
N1027 C1029 1.356 . S
N1027 H1032 0.984 . S
N1027 H1033 0.985 . S
C1028 C1022 1.379 . S
C1028 C1025 1.363 . S
C1028 N1026 1.356 . S
C1029 C1023 1.363 . S
C1029 C1024 1.379 . S
C1029 N1027 1.356 . S
N1030 C1022 1.356 . S
N1030 H1036 0.984 . S
N1030 H1037 0.984 . S
N1031 C1024 1.356 . S
N1031 H1034 0.984 . S
N1031 H1035 0.985 . S
H1032 N1027 0.984 . S
H1033 N1027 0.985 . S
H1034 N1031 0.984 . S
H1035 N1031 0.985 . S
H1036 N1030 0.984 . S
H1037 N1030 0.984 . S
H1038 N1026 0.984 . S
H1039 N1026 0.985 . S
C1040 C1041 1.363 . S
C1040 C1046 1.379 . S
C1040 N1048 1.356 . S
C1041 C1040 1.363 . S
C1041 C1047 1.363 . S
C1042 C1043 1.363 . S
C1042 C1047 1.379 . S
C1042 N1049 1.356 . S
C1043 C1042 1.363 . S
C1043 C1046 1.363 . S
N1044 C1046 1.356 . S
N1044 H1056 0.984 . S
N1044 H1057 0.985 . S
N1045 C1047 1.356 . S
N1045 H1050 0.984 . S
N1045 H1051 0.985 . S
C1046 C1040 1.379 . S
C1046 C1043 1.363 . S
C1046 N1044 1.356 . S
C1047 C1041 1.363 . S
C1047 C1042 1.379 . S
C1047 N1045 1.356 . S
N1048 C1040 1.356 . S
N1048 H1054 0.984 . S
N1048 H1055 0.984 . S
N1049 C1042 1.356 . S
N1049 H1052 0.984 . S
N1049 H1053 0.985 . S
H1050 N1045 0.984 . S
H1051 N1045 0.985 . S
H1052 N1049 0.984 . S
H1053 N1049 0.985 . S
H1054 N1048 0.984 . S
H1055 N1048 0.984 . S
H1056 N1044 0.984 . S
H1057 N1044 0.985 . S
C1058 C1059 1.363 . S
C1058 C1064 1.379 . S
C1058 N1066 1.356 . S
C1059 C1058 1.363 . S
C1059 C1065 1.363 . S
C1060 C1061 1.363 . S
C1060 C1065 1.379 . S
C1060 N1067 1.356 . S
C1061 C1060 1.363 . S
C1061 C1064 1.363 . S
N1062 C1064 1.356 . S
N1062 H1074 0.984 . S
N1062 H1075 0.985 . S
N1063 C1065 1.356 . S
N1063 H1068 0.984 . S
N1063 H1069 0.985 . S
C1064 C1058 1.379 . S
C1064 C1061 1.363 . S
C1064 N1062 1.356 . S
C1065 C1059 1.363 . S
C1065 C1060 1.379 . S
C1065 N1063 1.356 . S
N1066 C1058 1.356 . S
N1066 H1072 0.984 . S
N1066 H1073 0.984 . S
N1067 C1060 1.356 . S
N1067 H1070 0.984 . S
N1067 H1071 0.985 . S
H1068 N1063 0.984 . S
H1069 N1063 0.985 . S
H1070 N1067 0.984 . S
H1071 N1067 0.985 . S
H1072 N1066 0.984 . S
H1073 N1066 0.984 . S
H1074 N1062 0.984 . S
H1075 N1062 0.985 . S
C1076 C1077 1.363 . S
C1076 C1082 1.379 . S
C1076 N1084 1.356 . S
C1077 C1076 1.363 . S
C1077 C1083 1.363 . S
C1078 C1079 1.363 . S
C1078 C1083 1.379 . S
C1078 N1085 1.356 . S
C1079 C1078 1.363 . S
C1079 C1082 1.363 . S
N1080 C1082 1.356 . S
N1080 H1092 0.984 . S
N1080 H1093 0.985 . S
N1081 C1083 1.356 1_565 S
N1081 H1086 0.984 . S
N1081 H1087 0.985 . S
C1082 C1076 1.379 . S
C1082 C1079 1.363 . S
C1082 N1080 1.356 . S
C1083 C1077 1.363 . S
C1083 C1078 1.379 . S
C1083 N1081 1.356 1_545 S
N1084 C1076 1.356 . S
N1084 H1090 0.984 . S
N1084 H1091 0.984 1_545 S
N1085 C1078 1.356 . S
N1085 H1088 0.984 . S
N1085 H1089 0.985 . S
H1086 N1081 0.984 . S
H1087 N1081 0.985 . S
H1088 N1085 0.984 . S
H1089 N1085 0.985 . S
H1090 N1084 0.984 . S
H1091 N1084 0.984 1_565 S
H1092 N1080 0.984 . S
H1093 N1080 0.985 . S
C1094 C1095 1.363 . S
C1094 C1100 1.379 . S
C1094 N1102 1.356 . S
C1095 C1094 1.363 . S
C1095 C1101 1.363 . S
C1096 C1097 1.363 . S
C1096 C1101 1.379 . S
C1096 N1103 1.356 . S
C1097 C1096 1.363 . S
C1097 C1100 1.363 . S
N1098 C1100 1.356 . S
N1098 H1110 0.984 . S
N1098 H1111 0.985 . S
N1099 C1101 1.356 . S
N1099 H1104 0.984 . S
N1099 H1105 0.985 . S
C1100 C1094 1.379 . S
C1100 C1097 1.363 . S
C1100 N1098 1.356 . S
C1101 C1095 1.363 . S
C1101 C1096 1.379 . S
C1101 N1099 1.356 . S
N1102 C1094 1.356 . S
N1102 H1108 0.984 . S
N1102 H1109 0.984 . S
N1103 C1096 1.356 . S
N1103 H1106 0.984 . S
N1103 H1107 0.985 . S
H1104 N1099 0.984 . S
H1105 N1099 0.985 . S
H1106 N1103 0.984 . S
H1107 N1103 0.985 . S
H1108 N1102 0.984 . S
H1109 N1102 0.984 . S
H1110 N1098 0.984 . S
H1111 N1098 0.985 . S
C1112 C1113 1.363 . S
C1112 C1118 1.379 . S
C1112 N1120 1.356 . S
C1113 C1112 1.363 . S
C1113 C1119 1.363 . S
C1114 C1115 1.363 . S
C1114 C1119 1.379 . S
C1114 N1121 1.356 . S
C1115 C1114 1.363 . S
C1115 C1118 1.363 . S
N1116 C1118 1.356 . S
N1116 H1128 0.984 . S
N1116 H1129 0.985 . S
N1117 C1119 1.356 . S
N1117 H1122 0.984 . S
N1117 H1123 0.985 . S
C1118 C1112 1.379 . S
C1118 C1115 1.363 . S
C1118 N1116 1.356 . S
C1119 C1113 1.363 . S
C1119 C1114 1.379 . S
C1119 N1117 1.356 . S
N1120 C1112 1.356 . S
N1120 H1126 0.984 . S
N1120 H1127 0.984 . S
N1121 C1114 1.356 . S
N1121 H1124 0.984 . S
N1121 H1125 0.985 . S
H1122 N1117 0.984 . S
H1123 N1117 0.985 . S
H1124 N1121 0.984 . S
H1125 N1121 0.985 . S
H1126 N1120 0.984 . S
H1127 N1120 0.984 . S
H1128 N1116 0.984 . S
H1129 N1116 0.985 . S
C1130 C1131 1.363 . S
C1130 C1136 1.379 . S
C1130 N1138 1.356 . S
C1131 C1130 1.363 . S
C1131 C1137 1.363 . S
C1132 C1133 1.363 . S
C1132 C1137 1.379 . S
C1132 N1139 1.356 . S
C1133 C1132 1.363 . S
C1133 C1136 1.363 . S
N1134 C1136 1.356 . S
N1134 H1146 0.984 1_545 S
N1134 H1147 0.985 . S
N1135 C1137 1.356 . S
N1135 H1140 0.984 . S
N1135 H1141 0.985 . S
C1136 C1130 1.379 . S
C1136 C1133 1.363 . S
C1136 N1134 1.356 . S
C1137 C1131 1.363 . S
C1137 C1132 1.379 . S
C1137 N1135 1.356 . S
N1138 C1130 1.356 . S
N1138 H1144 0.984 . S
N1138 H1145 0.984 . S
N1139 C1132 1.356 . S
N1139 H1142 0.984 . S
N1139 H1143 0.985 . S
H1140 N1135 0.984 . S
H1141 N1135 0.985 . S
H1142 N1139 0.984 . S
H1143 N1139 0.985 . S
H1144 N1138 0.984 . S
H1145 N1138 0.984 . S
H1146 N1134 0.984 1_565 S
H1147 N1134 0.985 . S
C1148 C1149 1.363 . S
C1148 C1154 1.379 . S
C1148 N1156 1.356 . S
C1149 C1148 1.363 . S
C1149 C1155 1.363 . S
C1150 C1151 1.363 . S
C1150 C1155 1.379 . S
C1150 N1157 1.356 . S
C1151 C1150 1.363 . S
C1151 C1154 1.363 . S
N1152 C1154 1.356 . S
N1152 H1164 0.984 . S
N1152 H1165 0.985 . S
N1153 C1155 1.356 . S
N1153 H1158 0.984 . S
N1153 H1159 0.985 . S
C1154 C1148 1.379 . S
C1154 C1151 1.363 . S
C1154 N1152 1.356 . S
C1155 C1149 1.363 . S
C1155 C1150 1.379 . S
C1155 N1153 1.356 . S
N1156 C1148 1.356 . S
N1156 H1162 0.984 . S
N1156 H1163 0.984 . S
N1157 C1150 1.356 . S
N1157 H1160 0.984 . S
N1157 H1161 0.985 . S
H1158 N1153 0.984 . S
H1159 N1153 0.985 . S
H1160 N1157 0.984 . S
H1161 N1157 0.985 . S
H1162 N1156 0.984 . S
H1163 N1156 0.984 . S
H1164 N1152 0.984 . S
H1165 N1152 0.985 . S
C1166 C1167 1.363 . S
C1166 C1172 1.379 . S
C1166 N1174 1.356 . S
C1167 C1166 1.363 . S
C1167 C1173 1.363 . S
C1168 C1169 1.363 . S
C1168 C1173 1.379 . S
C1168 N1175 1.356 . S
C1169 C1168 1.363 . S
C1169 C1172 1.363 . S
N1170 C1172 1.356 . S
N1170 H1182 0.984 . S
N1170 H1183 0.985 . S
N1171 C1173 1.356 . S
N1171 H1176 0.984 . S
N1171 H1177 0.985 . S
C1172 C1166 1.379 . S
C1172 C1169 1.363 . S
C1172 N1170 1.356 . S
C1173 C1167 1.363 . S
C1173 C1168 1.379 . S
C1173 N1171 1.356 . S
N1174 C1166 1.356 . S
N1174 H1180 0.984 . S
N1174 H1181 0.984 . S
N1175 C1168 1.356 . S
N1175 H1178 0.984 . S
N1175 H1179 0.985 . S
H1176 N1171 0.984 . S
H1177 N1171 0.985 . S
H1178 N1175 0.984 . S
H1179 N1175 0.985 . S
H1180 N1174 0.984 . S
H1181 N1174 0.984 . S
H1182 N1170 0.984 . S
H1183 N1170 0.985 . S
C1184 C1185 1.363 . S
C1184 C1190 1.379 . S
C1184 N1192 1.356 . S
C1185 C1184 1.363 . S
C1185 C1191 1.363 . S
C1186 C1187 1.363 . S
C1186 C1191 1.379 . S
C1186 N1193 1.356 . S
C1187 C1186 1.363 . S
C1187 C1190 1.363 . S
N1188 C1190 1.356 . S
N1188 H1200 0.984 . S
N1188 H1201 0.985 . S
N1189 C1191 1.356 . S
N1189 H1194 0.984 . S
N1189 H1195 0.985 . S
C1190 C1184 1.379 . S
C1190 C1187 1.363 . S
C1190 N1188 1.356 . S
C1191 C1185 1.363 . S
C1191 C1186 1.379 . S
C1191 N1189 1.356 . S
N1192 C1184 1.356 . S
N1192 H1198 0.984 . S
N1192 H1199 0.984 . S
N1193 C1186 1.356 . S
N1193 H1196 0.984 . S
N1193 H1197 0.985 . S
H1194 N1189 0.984 . S
H1195 N1189 0.985 . S
H1196 N1193 0.984 . S
H1197 N1193 0.985 . S
H1198 N1192 0.984 . S
H1199 N1192 0.984 . S
H1200 N1188 0.984 . S
H1201 N1188 0.985 . S
C1202 C1203 1.363 . S
C1202 C1208 1.379 1_455 S
C1202 N1210 1.356 . S
C1203 C1202 1.363 . S
C1203 C1209 1.363 . S
C1204 C1205 1.363 . S
C1204 C1209 1.379 1_655 S
C1204 N1211 1.356 . S
C1205 C1204 1.363 . S
C1205 C1208 1.363 . S
N1206 C1208 1.356 . S
N1206 H1218 0.984 . S
N1206 H1219 0.985 . S
N1207 C1209 1.356 . S
N1207 H1212 0.984 . S
N1207 H1213 0.985 . S
C1208 C1202 1.379 1_655 S
C1208 C1205 1.363 . S
C1208 N1206 1.356 . S
C1209 C1203 1.363 . S
C1209 C1204 1.379 1_455 S
C1209 N1207 1.356 . S
N1210 C1202 1.356 . S
N1210 H1216 0.984 . S
N1210 H1217 0.984 . S
N1211 C1204 1.356 . S
N1211 H1214 0.984 . S
N1211 H1215 0.985 . S
H1212 N1207 0.984 . S
H1213 N1207 0.985 . S
H1214 N1211 0.984 . S
H1215 N1211 0.985 . S
H1216 N1210 0.984 . S
H1217 N1210 0.984 . S
H1218 N1206 0.984 . S
H1219 N1206 0.985 . S
C1220 C1221 1.363 . S
C1220 C1226 1.379 . S
C1220 N1228 1.356 . S
C1221 C1220 1.363 . S
C1221 C1227 1.363 . S
C1222 C1223 1.363 . S
C1222 C1227 1.379 . S
C1222 N1229 1.356 . S
C1223 C1222 1.363 . S
C1223 C1226 1.363 . S
N1224 C1226 1.356 . S
N1224 H1236 0.984 . S
N1224 H1237 0.985 . S
N1225 C1227 1.356 . S
N1225 H1230 0.984 . S
N1225 H1231 0.985 . S
C1226 C1220 1.379 . S
C1226 C1223 1.363 . S
C1226 N1224 1.356 . S
C1227 C1221 1.363 . S
C1227 C1222 1.379 . S
C1227 N1225 1.356 . S
N1228 C1220 1.356 . S
N1228 H1234 0.984 . S
N1228 H1235 0.984 . S
N1229 C1222 1.356 . S
N1229 H1232 0.984 . S
N1229 H1233 0.985 . S
H1230 N1225 0.984 . S
H1231 N1225 0.985 . S
H1232 N1229 0.984 . S
H1233 N1229 0.985 . S
H1234 N1228 0.984 . S
H1235 N1228 0.984 . S
H1236 N1224 0.984 . S
H1237 N1224 0.985 . S
C1238 C1239 1.363 . S
C1238 C1244 1.379 1_655 S
C1238 N1246 1.356 . S
C1239 C1238 1.363 . S
C1239 C1245 1.363 . S
C1240 C1241 1.363 . S
C1240 C1245 1.379 1_455 S
C1240 N1247 1.356 . S
C1241 C1240 1.363 . S
C1241 C1244 1.363 . S
N1242 C1244 1.356 . S
N1242 H1254 0.984 . S
N1242 H1255 0.985 . S
N1243 C1245 1.356 . S
N1243 H1248 0.984 . S
N1243 H1249 0.985 . S
C1244 C1238 1.379 1_455 S
C1244 C1241 1.363 . S
C1244 N1242 1.356 . S
C1245 C1239 1.363 . S
C1245 C1240 1.379 1_655 S
C1245 N1243 1.356 . S
N1246 C1238 1.356 . S
N1246 H1252 0.984 . S
N1246 H1253 0.984 . S
N1247 C1240 1.356 . S
N1247 H1250 0.984 . S
N1247 H1251 0.985 . S
H1248 N1243 0.984 . S
H1249 N1243 0.985 . S
H1250 N1247 0.984 . S
H1251 N1247 0.985 . S
H1252 N1246 0.984 . S
H1253 N1246 0.984 . S
H1254 N1242 0.984 . S
H1255 N1242 0.985 . S
C1256 C1257 1.363 . S
C1256 C1262 1.379 . S
C1256 N1264 1.356 . S
C1257 C1256 1.363 . S
C1257 C1263 1.363 . S
C1258 C1259 1.363 . S
C1258 C1263 1.379 . S
C1258 N1265 1.356 . S
C1259 C1258 1.363 . S
C1259 C1262 1.363 . S
N1260 C1262 1.356 . S
N1260 H1272 0.984 . S
N1260 H1273 0.985 . S
N1261 C1263 1.356 . S
N1261 H1266 0.984 . S
N1261 H1267 0.985 . S
C1262 C1256 1.379 . S
C1262 C1259 1.363 . S
C1262 N1260 1.356 . S
C1263 C1257 1.363 . S
C1263 C1258 1.379 . S
C1263 N1261 1.356 . S
N1264 C1256 1.356 . S
N1264 H1270 0.984 . S
N1264 H1271 0.984 . S
N1265 C1258 1.356 . S
N1265 H1268 0.984 . S
N1265 H1269 0.985 . S
H1266 N1261 0.984 . S
H1267 N1261 0.985 . S
H1268 N1265 0.984 . S
H1269 N1265 0.985 . S
H1270 N1264 0.984 . S
H1271 N1264 0.984 . S
H1272 N1260 0.984 . S
H1273 N1260 0.985 . S
C1274 C1275 1.363 . S
C1274 C1280 1.379 1_554 S
C1274 N1282 1.356 . S
C1275 C1274 1.363 . S
C1275 C1281 1.363 1_554 S
C1276 C1277 1.363 . S
C1276 C1281 1.379 . S
C1276 N1283 1.356 . S
C1277 C1276 1.363 . S
C1277 C1280 1.363 . S
N1278 C1280 1.356 . S
N1278 H1290 0.984 . S
N1278 H1291 0.985 . S
N1279 C1281 1.356 1_554 S
N1279 H1284 0.984 . S
N1279 H1285 0.985 1_554 S
C1280 C1274 1.379 1_556 S
C1280 C1277 1.363 . S
C1280 N1278 1.356 . S
C1281 C1275 1.363 1_556 S
C1281 C1276 1.379 . S
C1281 N1279 1.356 1_556 S
N1282 C1274 1.356 . S
N1282 H1288 0.984 . S
N1282 H1289 0.984 . S
N1283 C1276 1.356 . S
N1283 H1286 0.984 . S
N1283 H1287 0.985 . S
H1284 N1279 0.984 . S
H1285 N1279 0.985 1_556 S
H1286 N1283 0.984 . S
H1287 N1283 0.985 . S
H1288 N1282 0.984 . S
H1289 N1282 0.984 . S
H1290 N1278 0.984 . S
H1291 N1278 0.985 . S
C1292 C1293 1.363 . S
C1292 C1298 1.379 . S
C1292 N1300 1.356 . S
C1293 C1292 1.363 . S
C1293 C1299 1.363 . S
C1294 C1295 1.363 . S
C1294 C1299 1.379 . S
C1294 N1301 1.356 . S
C1295 C1294 1.363 . S
C1295 C1298 1.363 . S
N1296 C1298 1.356 . S
N1296 H1308 0.984 . S
N1296 H1309 0.985 . S
N1297 C1299 1.356 . S
N1297 H1302 0.984 . S
N1297 H1303 0.985 . S
C1298 C1292 1.379 . S
C1298 C1295 1.363 . S
C1298 N1296 1.356 . S
C1299 C1293 1.363 . S
C1299 C1294 1.379 . S
C1299 N1297 1.356 . S
N1300 C1292 1.356 . S
N1300 H1306 0.984 . S
N1300 H1307 0.984 . S
N1301 C1294 1.356 . S
N1301 H1304 0.984 . S
N1301 H1305 0.985 . S
H1302 N1297 0.984 . S
H1303 N1297 0.985 . S
H1304 N1301 0.984 . S
H1305 N1301 0.985 . S
H1306 N1300 0.984 . S
H1307 N1300 0.984 . S
H1308 N1296 0.984 . S
H1309 N1296 0.985 . S
C1310 C1311 1.363 . S
C1310 C1316 1.379 1_554 S
C1310 N1318 1.356 . S
C1311 C1310 1.363 . S
C1311 C1317 1.363 . S
C1312 C1313 1.363 1_554 S
C1312 C1317 1.379 . S
C1312 N1319 1.356 . S
C1313 C1312 1.363 1_556 S
C1313 C1316 1.363 . S
N1314 C1316 1.356 . S
N1314 H1326 0.984 . S
N1314 H1327 0.985 . S
N1315 C1317 1.356 . S
N1315 H1320 0.984 . S
N1315 H1321 0.985 . S
C1316 C1310 1.379 1_556 S
C1316 C1313 1.363 . S
C1316 N1314 1.356 . S
C1317 C1311 1.363 . S
C1317 C1312 1.379 . S
C1317 N1315 1.356 . S
N1318 C1310 1.356 . S
N1318 H1324 0.984 . S
N1318 H1325 0.984 . S
N1319 C1312 1.356 . S
N1319 H1322 0.984 1_554 S
N1319 H1323 0.985 . S
H1320 N1315 0.984 . S
H1321 N1315 0.985 . S
H1322 N1319 0.984 1_556 S
H1323 N1319 0.985 . S
H1324 N1318 0.984 . S
H1325 N1318 0.984 . S
H1326 N1314 0.984 . S
H1327 N1314 0.985 . S
C1328 C1329 1.363 . S
C1328 C1334 1.379 . S
C1328 N1336 1.356 . S
C1329 C1328 1.363 . S
C1329 C1335 1.363 . S
C1330 C1331 1.363 . S
C1330 C1335 1.379 . S
C1330 N1337 1.356 . S
C1331 C1330 1.363 . S
C1331 C1334 1.363 . S
N1332 C1334 1.356 . S
N1332 H1344 0.984 . S
N1332 H1345 0.985 . S
N1333 C1335 1.356 . S
N1333 H1338 0.984 . S
N1333 H1339 0.985 . S
C1334 C1328 1.379 . S
C1334 C1331 1.363 . S
C1334 N1332 1.356 . S
C1335 C1329 1.363 . S
C1335 C1330 1.379 . S
C1335 N1333 1.356 . S
N1336 C1328 1.356 . S
N1336 H1342 0.984 . S
N1336 H1343 0.984 . S
N1337 C1330 1.356 . S
N1337 H1340 0.984 . S
N1337 H1341 0.985 . S
H1338 N1333 0.984 . S
H1339 N1333 0.985 . S
H1340 N1337 0.984 . S
H1341 N1337 0.985 . S
H1342 N1336 0.984 . S
H1343 N1336 0.984 . S
H1344 N1332 0.984 . S
H1345 N1332 0.985 . S
C1346 C1347 1.344 1_554 S
C1346 C1352 1.379 . S
C1346 N1354 1.356 . S
C1347 C1346 1.344 1_556 S
C1347 C1353 1.359 1_556 S
C1348 C1349 1.363 . S
C1348 C1353 1.379 . S
C1348 N1355 1.356 . S
C1349 C1348 1.363 . S
C1349 C1352 1.363 . S
N1350 C1352 1.356 . S
N1350 H1362 0.984 . S
N1350 H1363 0.985 . S
N1351 C1353 1.356 1_556 S
N1351 H1356 0.984 . S
N1351 H1357 0.985 . S
C1352 C1346 1.379 . S
C1352 C1349 1.363 . S
C1352 N1350 1.356 . S
C1353 C1347 1.359 1_554 S
C1353 C1348 1.379 . S
C1353 N1351 1.356 1_554 S
N1354 C1346 1.356 . S
N1354 H1360 0.984 . S
N1354 H1361 0.984 1_554 S
N1355 C1348 1.356 . S
N1355 H1358 0.984 . S
N1355 H1359 0.985 . S
H1356 N1351 0.984 . S
H1357 N1351 0.985 . S
H1358 N1355 0.984 . S
H1359 N1355 0.985 . S
H1360 N1354 0.984 . S
H1361 N1354 0.984 1_556 S
H1362 N1350 0.984 . S
H1363 N1350 0.985 . S
C1364 C1365 1.363 . S
C1364 C1370 1.379 . S
C1364 N1372 1.356 . S
C1365 C1364 1.363 . S
C1365 C1371 1.363 . S
C1366 C1367 1.363 . S
C1366 C1371 1.379 . S
C1366 N1373 1.356 . S
C1367 C1366 1.363 . S
C1367 C1370 1.363 . S
N1368 C1370 1.356 . S
N1368 H1380 0.984 . S
N1368 H1381 0.985 . S
N1369 C1371 1.356 . S
N1369 H1374 0.984 . S
N1369 H1375 0.985 . S
C1370 C1364 1.379 . S
C1370 C1367 1.363 . S
C1370 N1368 1.356 . S
C1371 C1365 1.363 . S
C1371 C1366 1.379 . S
C1371 N1369 1.356 . S
N1372 C1364 1.356 . S
N1372 H1378 0.984 . S
N1372 H1379 0.984 . S
N1373 C1366 1.356 . S
N1373 H1376 0.984 . S
N1373 H1377 0.985 . S
H1374 N1369 0.984 . S
H1375 N1369 0.985 . S
H1376 N1373 0.984 . S
H1377 N1373 0.985 . S
H1378 N1372 0.984 . S
H1379 N1372 0.984 . S
H1380 N1368 0.984 . S
H1381 N1368 0.985 . S
C1382 C1383 1.363 . S
C1382 C1388 1.379 . S
C1382 N1390 1.356 . S
C1383 C1382 1.363 . S
C1383 C1389 1.363 . S
C1384 C1385 1.363 . S
C1384 C1389 1.379 . S
C1384 N1391 1.356 . S
C1385 C1384 1.363 . S
C1385 C1388 1.363 . S
N1386 C1388 1.356 . S
N1386 H1398 0.984 . S
N1386 H1399 0.985 . S
N1387 C1389 1.356 1_556 S
N1387 H1392 0.984 . S
N1387 H1393 0.985 . S
C1388 C1382 1.379 . S
C1388 C1385 1.363 . S
C1388 N1386 1.356 . S
C1389 C1383 1.363 . S
C1389 C1384 1.379 . S
C1389 N1387 1.356 1_554 S
N1390 C1382 1.356 . S
N1390 H1396 0.984 . S
N1390 H1397 0.984 . S
N1391 C1384 1.356 . S
N1391 H1394 0.984 . S
N1391 H1395 0.985 . S
H1392 N1387 0.984 . S
H1393 N1387 0.985 . S
H1394 N1391 0.984 . S
H1395 N1391 0.985 . S
H1396 N1390 0.984 . S
H1397 N1390 0.984 . S
H1398 N1386 0.984 . S
H1399 N1386 0.985 . S
C1400 C1401 1.363 . S
C1400 C1406 1.379 . S
C1400 N1408 1.356 . S
C1401 C1400 1.363 . S
C1401 C1407 1.363 . S
C1402 C1403 1.363 . S
C1402 C1407 1.379 . S
C1402 N1409 1.356 . S
C1403 C1402 1.363 . S
C1403 C1406 1.363 . S
N1404 C1406 1.356 . S
N1404 H1416 0.984 . S
N1404 H1417 0.985 . S
N1405 C1407 1.356 . S
N1405 H1410 0.984 . S
N1405 H1411 0.985 . S
C1406 C1400 1.379 . S
C1406 C1403 1.363 . S
C1406 N1404 1.356 . S
C1407 C1401 1.363 . S
C1407 C1402 1.379 . S
C1407 N1405 1.356 . S
N1408 C1400 1.356 . S
N1408 H1414 0.984 . S
N1408 H1415 0.984 . S
N1409 C1402 1.356 . S
N1409 H1412 0.984 . S
N1409 H1413 0.985 . S
H1410 N1405 0.984 . S
H1411 N1405 0.985 . S
H1412 N1409 0.984 . S
H1413 N1409 0.985 . S
H1414 N1408 0.984 . S
H1415 N1408 0.984 . S
H1416 N1404 0.984 . S
H1417 N1404 0.985 . S
C1418 C1419 1.363 . S
C1418 C1424 1.379 . S
C1418 N1426 1.356 . S
C1419 C1418 1.363 . S
C1419 C1425 1.363 . S
C1420 C1421 1.363 . S
C1420 C1425 1.379 . S
C1420 N1427 1.356 . S
C1421 C1420 1.363 . S
C1421 C1424 1.363 . S
N1422 C1424 1.356 . S
N1422 H1434 0.984 . S
N1422 H1435 0.985 . S
N1423 C1425 1.356 . S
N1423 H1428 0.984 . S
N1423 H1429 0.985 . S
C1424 C1418 1.379 . S
C1424 C1421 1.363 . S
C1424 N1422 1.356 . S
C1425 C1419 1.363 . S
C1425 C1420 1.379 . S
C1425 N1423 1.356 . S
N1426 C1418 1.356 . S
N1426 H1432 0.984 . S
N1426 H1433 0.984 . S
N1427 C1420 1.356 . S
N1427 H1430 0.984 . S
N1427 H1431 0.985 . S
H1428 N1423 0.984 . S
H1429 N1423 0.985 . S
H1430 N1427 0.984 . S
H1431 N1427 0.985 . S
H1432 N1426 0.984 . S
H1433 N1426 0.984 . S
H1434 N1422 0.984 . S
H1435 N1422 0.985 . S
C1436 C1437 1.363 . S
C1436 C1442 1.379 . S
C1436 N1444 1.356 . S
C1437 C1436 1.363 . S
C1437 C1443 1.363 . S
C1438 C1439 1.363 . S
C1438 C1443 1.379 . S
C1438 N1445 1.356 . S
C1439 C1438 1.363 . S
C1439 C1442 1.363 . S
N1440 C1442 1.356 . S
N1440 H1452 0.984 . S
N1440 H1453 0.985 . S
N1441 C1443 1.356 . S
N1441 H1446 0.984 . S
N1441 H1447 0.985 . S
C1442 C1436 1.379 . S
C1442 C1439 1.363 . S
C1442 N1440 1.356 . S
C1443 C1437 1.363 . S
C1443 C1438 1.379 . S
C1443 N1441 1.356 . S
N1444 C1436 1.356 . S
N1444 H1450 0.984 . S
N1444 H1451 0.984 . S
N1445 C1438 1.356 . S
N1445 H1448 0.984 . S
N1445 H1449 0.985 . S
H1446 N1441 0.984 . S
H1447 N1441 0.985 . S
H1448 N1445 0.984 . S
H1449 N1445 0.985 . S
H1450 N1444 0.984 . S
H1451 N1444 0.984 . S
H1452 N1440 0.984 . S
H1453 N1440 0.985 . S
C1454 C1455 1.363 . S
C1454 C1460 1.379 . S
C1454 N1462 1.356 . S
C1455 C1454 1.363 . S
C1455 C1461 1.363 . S
C1456 C1457 1.363 . S
C1456 C1461 1.379 . S
C1456 N1463 1.356 . S
C1457 C1456 1.363 . S
C1457 C1460 1.363 . S
N1458 C1460 1.356 . S
N1458 H1470 0.984 . S
N1458 H1471 0.985 . S
N1459 C1461 1.356 . S
N1459 H1464 0.984 . S
N1459 H1465 0.985 . S
C1460 C1454 1.379 . S
C1460 C1457 1.363 . S
C1460 N1458 1.356 . S
C1461 C1455 1.363 . S
C1461 C1456 1.379 . S
C1461 N1459 1.356 . S
N1462 C1454 1.356 . S
N1462 H1468 0.984 . S
N1462 H1469 0.984 . S
N1463 C1456 1.356 . S
N1463 H1466 0.984 . S
N1463 H1467 0.985 . S
H1464 N1459 0.984 . S
H1465 N1459 0.985 . S
H1466 N1463 0.984 . S
H1467 N1463 0.985 . S
H1468 N1462 0.984 . S
H1469 N1462 0.984 . S
H1470 N1458 0.984 . S
H1471 N1458 0.985 . S
C1472 C1473 1.363 . S
C1472 C1478 1.379 . S
C1472 N1480 1.356 . S
C1473 C1472 1.363 . S
C1473 C1479 1.363 . S
C1474 C1475 1.363 . S
C1474 C1479 1.379 . S
C1474 N1481 1.356 . S
C1475 C1474 1.363 . S
C1475 C1478 1.363 . S
N1476 C1478 1.356 . S
N1476 H1488 0.984 . S
N1476 H1489 0.985 . S
N1477 C1479 1.356 . S
N1477 H1482 0.984 . S
N1477 H1483 0.985 . S
C1478 C1472 1.379 . S
C1478 C1475 1.363 . S
C1478 N1476 1.356 . S
C1479 C1473 1.363 . S
C1479 C1474 1.379 . S
C1479 N1477 1.356 . S
N1480 C1472 1.356 . S
N1480 H1486 0.984 . S
N1480 H1487 0.984 . S
N1481 C1474 1.356 . S
N1481 H1484 0.984 . S
N1481 H1485 0.985 . S
H1482 N1477 0.984 . S
H1483 N1477 0.985 . S
H1484 N1481 0.984 . S
H1485 N1481 0.985 . S
H1486 N1480 0.984 . S
H1487 N1480 0.984 . S
H1488 N1476 0.984 . S
H1489 N1476 0.985 . S
C1490 C1491 1.363 . S
C1490 C1496 1.379 . S
C1490 N1498 1.356 . S
C1491 C1490 1.363 . S
C1491 C1497 1.363 . S
C1492 C1493 1.363 . S
C1492 C1497 1.379 . S
C1492 N1499 1.356 . S
C1493 C1492 1.363 . S
C1493 C1496 1.363 . S
N1494 C1496 1.356 . S
N1494 H1506 0.984 . S
N1494 H1507 0.985 . S
N1495 C1497 1.356 . S
N1495 H1500 0.984 . S
N1495 H1501 0.985 . S
C1496 C1490 1.379 . S
C1496 C1493 1.363 . S
C1496 N1494 1.356 . S
C1497 C1491 1.363 . S
C1497 C1492 1.379 . S
C1497 N1495 1.356 . S
N1498 C1490 1.356 . S
N1498 H1504 0.984 . S
N1498 H1505 0.984 . S
N1499 C1492 1.356 . S
N1499 H1502 0.984 . S
N1499 H1503 0.985 . S
H1500 N1495 0.984 . S
H1501 N1495 0.985 . S
H1502 N1499 0.984 . S
H1503 N1499 0.985 . S
H1504 N1498 0.984 . S
H1505 N1498 0.984 . S
H1506 N1494 0.984 . S
H1507 N1494 0.985 . S
C1508 C1509 1.363 . S
C1508 C1514 1.379 . S
C1508 N1516 1.356 . S
C1509 C1508 1.363 . S
C1509 C1515 1.363 . S
C1510 C1511 1.363 . S
C1510 C1515 1.379 . S
C1510 N1517 1.356 . S
C1511 C1510 1.363 . S
C1511 C1514 1.363 . S
N1512 C1514 1.356 . S
N1512 H1524 0.984 . S
N1512 H1525 0.985 . S
N1513 C1515 1.356 . S
N1513 H1518 0.984 . S
N1513 H1519 0.985 . S
C1514 C1508 1.379 . S
C1514 C1511 1.363 . S
C1514 N1512 1.356 . S
C1515 C1509 1.363 . S
C1515 C1510 1.379 . S
C1515 N1513 1.356 . S
N1516 C1508 1.356 . S
N1516 H1522 0.984 . S
N1516 H1523 0.984 . S
N1517 C1510 1.356 . S
N1517 H1520 0.984 . S
N1517 H1521 0.985 1_554 S
H1518 N1513 0.984 . S
H1519 N1513 0.985 . S
H1520 N1517 0.984 . S
H1521 N1517 0.985 1_556 S
H1522 N1516 0.984 . S
H1523 N1516 0.984 . S
H1524 N1512 0.984 . S
H1525 N1512 0.985 . S
C1526 C1527 1.363 . S
C1526 C1532 1.379 . S
C1526 N1534 1.356 . S
C1527 C1526 1.363 . S
C1527 C1533 1.363 . S
C1528 C1529 1.363 1_545 S
C1528 C1533 1.379 . S
C1528 N1535 1.356 1_545 S
C1529 C1528 1.363 1_565 S
C1529 C1532 1.363 1_565 S
N1530 C1532 1.356 1_565 S
N1530 H1542 0.981 1_565 S
N1530 H1543 0.985 . S
N1531 C1533 1.356 . S
N1531 H1536 0.984 . S
N1531 H1537 0.985 . S
C1532 C1526 1.379 . S
C1532 C1529 1.363 1_545 S
C1532 N1530 1.356 1_545 S
C1533 C1527 1.363 . S
C1533 C1528 1.379 . S
C1533 N1531 1.356 . S
N1534 C1526 1.356 . S
N1534 H1540 0.984 . S
N1534 H1541 0.984 . S
N1535 C1528 1.356 1_565 S
N1535 H1538 0.984 . S
N1535 H1539 0.985 . S
H1536 N1531 0.984 . S
H1537 N1531 0.985 . S
H1538 N1535 0.984 . S
H1539 N1535 0.985 . S
H1540 N1534 0.984 . S
H1541 N1534 0.984 . S
H1542 N1530 0.981 1_545 S
H1543 N1530 0.985 . S
C683 C520 1.564 1_556 S
C681 C177 1.522 . S
C701 C535 1.714 . S
C699 C209 1.659 . S
C717 C253 1.565 . S
C719 C548 1.629 . S
C737 C562 1.574 . S
C735 C157 1.682 1_655 S
C755 C574 1.591 . S
C753 C343 1.651 . S
C773 C588 1.444 . S
C771 C401 1.454 . S
C789 C369 1.672 . S
C791 C602 1.682 . S
C809 C617 1.527 . S
C807 C317 1.402 . S
C825 C375 1.585 . S
C827 C633 1.633 . S
C845 C646 1.587 . S
C843 C305 1.499 . S
C861 C349 1.565 . S
C863 C631 1.537 . S
C881 C644 1.622 . S
C879 C413 1.630 . S
C897 C241 1.719 . S
C899 C660 1.760 . S
C915 C151 1.634 . S
C917 C659 1.593 . S
C933 C189 1.654 . S
C935 C658 1.628 . S
C951 C215 1.563 . S
C953 C661 1.615 . S
C969 C113 1.668 . S
C971 C563 1.658 1_565 S
C987 C471 1.464 . S
C989 C561 1.462 . S
C1007 C521 1.555 . S
C1005 C509 1.480 . S
C1025 C532 1.695 . S
C1023 C279 1.642 . S
C1041 C145 1.644 . S
C1043 C577 1.590 . S
C1061 C618 1.833 . S
C1059 C381 1.785 . S
C1079 C575 1.595 . S
C1077 C311 1.459 1_545 S
C1097 C603 1.604 . S
C1095 C407 1.626 . S
C1115 C604 1.564 . S
C1113 C465 1.522 . S
C1131 C497 1.659 . S
C1133 C619 1.714 . S
C1149 C285 1.565 . S
C1151 C576 1.629 . S
C1169 C590 1.574 . S
C1167 C445 1.682 . S
C1185 C119 1.651 . S
C1187 C546 1.591 . S
C1205 C560 1.444 . S
C1203 C17 1.454 . S
C1223 C518 1.682 . S
C1221 C49 1.672 . S
C1241 C533 1.527 . S
C1239 C93 1.402 . S
C1257 C55 1.585 . S
C1259 C647 1.633 . S
C1275 C81 1.499 . S
C1277 C632 1.587 . S
C1293 C125 1.565 . S
C1295 C645 1.537 . S
C1311 C29 1.630 . S
C1313 C630 1.622 . S
C1331 C674 1.760 . S
C1329 C273 1.719 . S
C1349 C673 1.593 . S
C1347 C439 1.655 . S
C1367 C672 1.628 . S
C1365 C477 1.654 . S
C1383 C503 1.563 . S
C1385 C675 1.615 . S
C1401 C337 1.668 . S
C1403 C591 1.658 . S
C1421 C589 1.462 . S
C1419 C183 1.464 . S
C1439 C605 1.555 . S
C1437 C221 1.480 . S
C1457 C616 1.695 . S
C1455 C247 1.642 . S
C1473 C433 1.644 . S
C1475 C549 1.590 . S
C1493 C534 1.833 . S
C1491 C61 1.785 . S
C1509 C87 1.459 . S
C1511 C547 1.595 . S
C1529 C519 1.604 . S
C1527 C23 1.626 . S
