# Generated by pormake.
# Topology zzz, (3,6)-cn, num edge types: 1
# Building blocks:
#     Node 0, Type 0, BuildingBlock: BETDIP_clean_linker_0, # of connection points: 3
#     Node 1, Type 0, BuildingBlock: BETDIP_clean_linker_0, # of connection points: 3
#     Node 2, Type 0, BuildingBlock: BETDIP_clean_linker_0, # of connection points: 3
#     Node 3, Type 0, BuildingBlock: BETDIP_clean_linker_0, # of connection points: 3
#     Node 4, Type 0, BuildingBlock: BETDIP_clean_linker_0, # of connection points: 3
#     Node 5, Type 0, BuildingBlock: BETDIP_clean_linker_0, # of connection points: 3
#     Node 6, Type 0, BuildingBlock: BETDIP_clean_linker_0, # of connection points: 3
#     Node 7, Type 0, BuildingBlock: BETDIP_clean_linker_0, # of connection points: 3
#     Node 8, Type 1, BuildingBlock: BETDAH_clean_sbu_0, # of connection points: 6
#     Node 9, Type 1, BuildingBlock: BETDAH_clean_sbu_0, # of connection points: 6
#     Node 10, Type 1, BuildingBlock: BETDAH_clean_sbu_0, # of connection points: 6
#     Node 11, Type 1, BuildingBlock: BETDAH_clean_sbu_0, # of connection points: 6
#     Edge 12, Type (0, 1), BuildingBlock: MIFKUJ_clean_linker_0, # of connection points: 2
#     Edge 13, Type (0, 1), BuildingBlock: MIFKUJ_clean_linker_0, # of connection points: 2
#     Edge 14, Type (0, 1), BuildingBlock: MIFKUJ_clean_linker_0, # of connection points: 2
#     Edge 15, Type (0, 1), BuildingBlock: MIFKUJ_clean_linker_0, # of connection points: 2
#     Edge 16, Type (0, 1), BuildingBlock: MIFKUJ_clean_linker_0, # of connection points: 2
#     Edge 17, Type (0, 1), BuildingBlock: MIFKUJ_clean_linker_0, # of connection points: 2
#     Edge 18, Type (0, 1), BuildingBlock: MIFKUJ_clean_linker_0, # of connection points: 2
#     Edge 19, Type (0, 1), BuildingBlock: MIFKUJ_clean_linker_0, # of connection points: 2
#     Edge 20, Type (0, 1), BuildingBlock: MIFKUJ_clean_linker_0, # of connection points: 2
#     Edge 21, Type (0, 1), BuildingBlock: MIFKUJ_clean_linker_0, # of connection points: 2
#     Edge 22, Type (0, 1), BuildingBlock: MIFKUJ_clean_linker_0, # of connection points: 2
#     Edge 23, Type (0, 1), BuildingBlock: MIFKUJ_clean_linker_0, # of connection points: 2
#     Edge 24, Type (0, 1), BuildingBlock: MIFKUJ_clean_linker_0, # of connection points: 2
#     Edge 25, Type (0, 1), BuildingBlock: MIFKUJ_clean_linker_0, # of connection points: 2
#     Edge 26, Type (0, 1), BuildingBlock: MIFKUJ_clean_linker_0, # of connection points: 2
#     Edge 27, Type (0, 1), BuildingBlock: MIFKUJ_clean_linker_0, # of connection points: 2
#     Edge 28, Type (0, 1), BuildingBlock: MIFKUJ_clean_linker_0, # of connection points: 2
#     Edge 29, Type (0, 1), BuildingBlock: MIFKUJ_clean_linker_0, # of connection points: 2
#     Edge 30, Type (0, 1), BuildingBlock: MIFKUJ_clean_linker_0, # of connection points: 2
#     Edge 31, Type (0, 1), BuildingBlock: MIFKUJ_clean_linker_0, # of connection points: 2
#     Edge 32, Type (0, 1), BuildingBlock: MIFKUJ_clean_linker_0, # of connection points: 2
#     Edge 33, Type (0, 1), BuildingBlock: MIFKUJ_clean_linker_0, # of connection points: 2
#     Edge 34, Type (0, 1), BuildingBlock: MIFKUJ_clean_linker_0, # of connection points: 2
#     Edge 35, Type (0, 1), BuildingBlock: MIFKUJ_clean_linker_0, # of connection points: 2
# Relax obj value: 0.226
# Max RMSD: 0.174
# Mean RMSD: 0.160
data_MOF--net-zzz--node1-BETDAH_clean_sbu_0--node2-BETDIP_clean_linker_0--edge1-MIFKUJ_clean_linker_0
_symmetry_space_group_name_H-M    P1
_symmetry_Int_Tables_number       1
_symmetry_cell_setting            triclinic
loop_
_symmetry_equiv_pos_as_xyz
'x, y, z'
_cell_length_a     68.457673
_cell_length_b     68.391884
_cell_length_c     16.98716
_cell_angle_alpha  90.008503
_cell_angle_beta   90.007796
_cell_angle_gamma 90.202279
loop_
_atom_site_label
_atom_site_type_symbol
_atom_site_fract_x
_atom_site_fract_y
_atom_site_fract_z
_atom_type_partial_charge
H0 H 0.75496 0.51332 0.40751 0.0
H1 H 0.73416 0.52899 0.17645 0.0
H2 H 0.79486 0.53554 0.23312 0.0
H3 H 0.70786 0.54268 0.32081 0.0
C4 C 0.70663 0.52756 0.30166 0.0
C5 C 0.75778 0.51913 0.34928 0.0
C6 C 0.77688 0.52522 0.32832 0.0
C7 C 0.74219 0.52113 0.295 0.0
C8 C 0.74593 0.52828 0.21908 0.0
C9 C 0.76487 0.53349 0.19661 0.0
C10 C 0.78007 0.53218 0.25167 0.0
N11 N 0.72289 0.51497 0.31413 0.0
H12 H 0.99705 0.75601 0.39401 0.0
H13 H 0.02392 0.7327 0.18479 0.0
H14 H 0.03901 0.79024 0.26429 0.0
H15 H 0.98038 0.72856 0.19328 0.0
C16 C 0.98757 0.71773 0.22999 0.0
C17 C 1.0074 0.75753 0.34619 0.0
C18 C 0.01831 0.77506 0.33758 0.0
C19 C 1.00954 0.74214 0.29095 0.0
C20 C 0.02254 0.74433 0.22781 0.0
C21 C 0.03346 0.76145 0.21884 0.0
C22 C 0.03142 0.77653 0.27424 0.0
N23 N 0.99836 0.72458 0.29637 0.0
H24 H 0.77231 0.01765 0.39687 0.0
H25 H 0.79224 0.9842 0.19769 0.0
H26 H 0.73201 0.9817 0.26653 0.0
H27 H 0.82043 0.9824 0.32488 0.0
C28 C 0.82086 0.99703 0.29984 0.0
C29 C 0.76936 1.00715 0.3506 0.0
C30 C 0.75012 1.0 0.33911 0.0
C31 C 0.78475 1.00097 0.30069 0.0
C32 C 0.7807 0.98809 0.23838 0.0
C33 C 0.76168 0.98136 0.22473 0.0
C34 C 0.74677 0.98683 0.27704 0.0
N35 N 0.80393 1.009 0.30766 0.0
H36 H 0.52728 0.77175 0.41253 0.0
H37 H 0.49493 0.78542 0.20171 0.0
H38 H 0.48212 0.73292 0.32974 0.0
H39 H 0.53348 0.79229 0.17915 0.0
C40 C 0.53015 0.80397 0.22046 0.0
C41 C 0.51574 0.76829 0.37117 0.0
C42 C 0.50479 0.75081 0.37997 0.0
C43 C 0.51204 0.781 0.30699 0.0
C44 C 0.49759 0.77597 0.25177 0.0
C45 C 0.48663 0.75882 0.26024 0.0
C46 C 0.49007 0.74661 0.32505 0.0
N47 N 0.52294 0.79864 0.29636 0.0
H48 H 0.26773 0.50215 0.03182 0.0
H49 H 0.28094 0.53898 0.23122 0.0
H50 H 0.22276 0.53735 0.13633 0.0
H51 H 0.31061 0.54171 0.1283 0.0
C52 C 0.31241 0.52647 0.14501 0.0
C53 C 0.26316 0.51273 0.07547 0.0
C54 C 0.24364 0.51936 0.07663 0.0
C55 C 0.27681 0.52005 0.13078 0.0
C56 C 0.27064 0.53363 0.18773 0.0
C57 C 0.25122 0.53999 0.19009 0.0
C58 C 0.23792 0.53281 0.13416 0.0
N59 N 0.29652 0.51332 0.13158 0.0
H60 H 0.0245 0.27176 0.98635 0.0
H61 H 0.99572 0.28437 0.2069 0.0
H62 H 0.99891 0.22532 0.12301 0.0
H63 H 0.98571 0.31258 0.09715 0.0
C64 C 1.00111 0.31563 0.10733 0.0
C65 C 0.01645 0.26687 0.03762 0.0
C66 C 0.01216 0.24678 0.04756 0.0
C67 C 1.01015 0.28063 0.09461 0.0
C68 C 0.99997 0.27407 0.16158 0.0
C69 C 0.99637 0.25414 0.1727 0.0
C70 C 1.00213 0.24075 0.11498 0.0
N71 N 0.01494 0.30087 0.08765 0.0
H72 H 0.25621 0.02209 0.987 0.0
H73 H 0.24102 1.00309 0.22173 0.0
H74 H 0.3007 1.00153 0.14606 0.0
H75 H 0.21441 0.98787 0.10078 0.0
C76 C 0.21123 1.00329 0.10947 0.0
C77 C 0.2605 0.01643 0.04396 0.0
C78 C 0.2803 0.01172 0.05872 0.0
C79 C 0.24613 0.0129 0.10256 0.0
C80 C 0.25183 1.00542 0.176 0.0
C81 C 0.27146 1.00178 0.1919 0.0
C82 C 0.2855 1.00475 0.13333 0.0
N83 N 0.22602 0.01718 0.08951 0.0
H84 H 0.50665 0.25596 0.01544 0.0
H85 H 0.53854 0.24326 0.22879 0.0
H86 H 0.54357 0.29977 0.12149 0.0
H87 H 0.54213 0.21239 0.11649 0.0
C88 C 0.52706 0.21133 0.13631 0.0
C89 C 0.51676 0.26041 0.06111 0.0
C90 C 0.52496 0.27944 0.06002 0.0
C91 C 0.52221 0.24699 0.12082 0.0
C92 C 0.53497 0.2531 0.18092 0.0
C93 C 0.54246 0.27209 0.18116 0.0
C94 C 0.53774 0.28498 0.12031 0.0
N95 N 0.51452 0.2276 0.12276 0.0
Ho96 Ho 0.02447 1.00722 0.75629 0.0
Ho97 Ho 1.00137 0.01922 0.6056 0.0
C98 C 1.00946 0.97337 0.6304 0.0
C99 C 0.0371 0.98969 0.88029 0.0
C100 C 0.04025 0.96881 0.89543 0.0
C101 C 0.02734 0.95478 0.8644 0.0
C102 C 0.0319 0.93497 0.86811 0.0
C103 C 0.04934 0.92885 0.90351 0.0
C104 C 0.06191 0.9428 0.93729 0.0
C105 C 0.05744 0.96269 0.93273 0.0
C106 C 0.04619 0.01885 0.63154 0.0
C107 C 0.0141 0.05213 0.73782 0.0
C108 C 0.99343 0.03587 0.47437 0.0
C109 C 0.98407 0.05507 0.46286 0.0
C110 C 0.99076 0.07139 0.50551 0.0
C111 C 0.98047 0.08888 0.50416 0.0
C112 C 0.96338 0.09059 0.45932 0.0
C113 C 0.957 0.0746 0.41399 0.0
C114 C 0.96721 0.05686 0.41635 0.0
C115 C 0.97608 0.0165 0.72961 0.0
O116 O 0.01752 0.9779 0.69928 0.0
O117 O 1.00271 0.9869 0.58163 0.0
O118 O 0.04868 0.99721 0.82707 0.0
O119 O 0.01893 0.99525 0.87193 0.0
O120 O 0.05009 0.02336 0.70416 0.0
O121 O 0.03107 1.00817 0.62903 0.0
O122 O 1.00941 0.04811 0.66368 0.0
O123 O 0.01851 0.03829 0.78913 0.0
O124 O 0.98219 0.02226 0.50484 0.0
O125 O 1.01092 0.03631 0.50604 0.0
O126 O 0.971 0.02099 0.65848 0.0
O127 O 0.99423 0.0135 0.72904 0.0
H128 H 0.01396 0.95911 0.83535 0.0
H129 H 0.02181 0.92442 0.84304 0.0
H130 H 0.07541 0.93836 0.96523 0.0
H131 H 0.06766 0.97333 0.9562 0.0
H132 H 1.00383 0.07066 0.54119 0.0
H133 H 0.98603 0.10119 0.53765 0.0
H134 H 0.94399 0.07573 0.37795 0.0
H135 H 0.9618 0.04448 0.38309 0.0
Ho136 Ho 0.5226 0.02534 0.79469 0.0
Ho137 Ho 0.51284 1.00484 0.64744 0.0
C138 C 0.55746 0.01277 0.67281 0.0
C139 C 0.5402 0.03431 0.92313 0.0
C140 C 0.55976 0.0274 0.94611 0.0
C141 C 0.56409 1.00732 0.94291 0.0
C142 C 0.58338 1.00096 0.94428 0.0
C143 C 0.59879 0.01452 0.94873 0.0
C144 C 0.59444 0.0345 0.95689 0.0
C145 C 0.57507 0.04089 0.95568 0.0
C146 C 0.51218 0.04967 0.67636 0.0
C147 C 0.47753 0.01725 0.76985 0.0
C148 C 0.49659 0.99381 0.51809 0.0
C149 C 0.47574 0.99083 0.50101 0.0
C150 C 0.46203 1.00506 0.52297 0.0
C151 C 0.44214 1.00095 0.51987 0.0
C152 C 0.43548 0.98254 0.49463 0.0
C153 C 0.44916 0.96856 0.46962 0.0
C154 C 0.46915 0.97269 0.47285 0.0
C155 C 0.52396 0.98064 0.7655 0.0
O156 O 0.55224 0.0153 0.74729 0.0
O157 O 0.54405 1.01081 0.61769 0.0
O158 O 0.54 0.04591 0.86197 0.0
O159 O 0.52648 0.02096 0.91979 0.0
O160 O 0.50731 0.05224 0.74949 0.0
O161 O 0.52294 0.03479 0.67043 0.0
O162 O 0.48273 0.01155 0.69822 0.0
O163 O 0.49076 0.0224 0.82252 0.0
O164 O 0.50398 0.98154 0.56882 0.0
O165 O 0.5021 0.01186 0.53127 0.0
O166 O 0.52894 0.97844 0.69235 0.0
O167 O 0.51283 0.99525 0.77186 0.0
H168 H 0.55269 0.9965 0.93433 0.0
H169 H 0.58623 0.98549 0.93715 0.0
H170 H 0.60604 0.04525 0.96175 0.0
H171 H 0.5721 0.05644 0.95756 0.0
H172 H 0.46663 0.01912 0.54596 0.0
H173 H 0.43203 0.01196 0.54059 0.0
H174 H 0.44443 0.95437 0.44849 0.0
H175 H 0.4795 0.96148 0.45608 0.0
Ho176 Ho 0.50228 0.51778 0.77989 0.0
Ho177 Ho 0.52313 0.50887 0.6207 0.0
C178 C 0.51477 0.55412 0.66308 0.0
C179 C 0.49001 0.5331 0.90862 0.0
C180 C 0.48172 0.55275 0.92096 0.0
C181 C 0.49257 0.56957 0.90184 0.0
C182 C 0.48388 0.58795 0.90377 0.0
C183 C 0.4641 0.58998 0.92436 0.0
C184 C 0.45332 0.57317 0.94459 0.0
C185 C 0.46207 0.55474 0.9431 0.0
C186 C 0.47889 0.50829 0.65703 0.0
C187 C 0.51438 0.47388 0.74651 0.0
C188 C 0.52898 0.49756 0.47845 0.0
C189 C 0.54023 0.48118 0.44551 0.0
C190 C 0.53035 0.46647 0.40389 0.0
C191 C 0.53988 0.44917 0.38417 0.0
C192 C 0.55959 0.44633 0.40477 0.0
C193 C 0.56977 0.46159 0.4422 0.0
C194 C 0.56017 0.47883 0.46275 0.0
C195 C 0.55008 0.50947 0.73939 0.0
O196 O 0.50694 0.54829 0.7306 0.0
O197 O 0.52154 0.54163 0.61017 0.0
O198 O 0.47928 0.52133 0.86589 0.0
O199 O 0.50857 0.53234 0.88995 0.0
O200 O 0.47606 0.5024 0.72873 0.0
O201 O 0.49383 0.51916 0.65439 0.0
O202 O 0.51556 0.47887 0.67098 0.0
O203 O 0.51225 0.4871 0.80283 0.0
O204 O 0.53901 0.51174 0.5115 0.0
O205 O 0.51355 0.4924 0.51944 0.0
O206 O 0.55426 0.50576 0.66645 0.0
O207 O 0.53198 0.51238 0.74303 0.0
H208 H 0.50772 0.5686 0.88393 0.0
H209 H 0.49279 0.60061 0.88989 0.0
H210 H 0.43804 0.57421 0.96058 0.0
H211 H 0.45334 0.54196 0.95726 0.0
H212 H 0.51496 0.46795 0.3902 0.0
H213 H 0.53145 0.43766 0.35641 0.0
H214 H 0.58503 0.46001 0.45766 0.0
H215 H 0.56821 0.48994 0.49476 0.0
Ho216 Ho 1.00722 0.50097 0.76036 0.0
Ho217 Ho 0.01695 0.52528 0.62547 0.0
C218 C 0.97256 0.51541 0.64179 0.0
C219 C 0.98876 0.48829 0.88134 0.0
C220 C 0.96842 0.49348 0.90007 0.0
C221 C 0.9625 0.51312 0.89485 0.0
C222 C 0.94277 0.51785 0.89125 0.0
C223 C 0.92849 0.50308 0.8932 0.0
C224 C 0.93436 0.48354 0.90309 0.0
C225 C 0.95419 0.47877 0.90635 0.0
C226 C 0.01847 0.47986 0.63351 0.0
C227 C 0.05198 0.51054 0.74545 0.0
C228 C 0.03393 0.54127 0.50611 0.0
C229 C 0.05375 0.54963 0.49954 0.0
C230 C 0.07011 0.5387 0.52287 0.0
C231 C 0.08842 0.54754 0.52858 0.0
C232 C 0.0908 0.56741 0.51058 0.0
C233 C 0.0747 0.57817 0.48365 0.0
C234 C 0.05625 0.56936 0.47869 0.0
C235 C 1.00499 0.54618 0.75205 0.0
O236 O 0.97753 0.51085 0.71474 0.0
O237 O 0.98613 0.51928 0.58893 0.0
O238 O 0.99077 0.47787 0.81738 0.0
O239 O 1.00149 0.50257 0.88546 0.0
O240 O 0.02352 0.47597 0.70548 0.0
O241 O 1.00734 0.49458 0.63242 0.0
O242 O 0.04695 0.51871 0.67764 0.0
O243 O 0.03869 0.50317 0.79312 0.0
O244 O 0.02218 0.55077 0.55288 0.0
O245 O 0.03272 0.52231 0.51577 0.0
O246 O 0.99997 0.54984 0.68008 0.0
O247 O 0.01652 0.53179 0.7533 0.0
H248 H 0.97307 0.52484 0.88841 0.0
H249 H 0.93878 0.53302 0.88297 0.0
H250 H 0.92364 0.47188 0.90641 0.0
H251 H 0.95841 0.46354 0.90945 0.0
H252 H 0.06873 0.52345 0.53909 0.0
H253 H 0.10077 0.53882 0.54734 0.0
H254 H 0.07632 0.59347 0.46831 0.0
H255 H 0.04384 0.57808 0.46075 0.0
H256 H 0.17967 0.98007 0.12941 0.0
H257 H 0.1504 0.98612 0.20818 0.0
H258 H 0.17201 0.04361 0.26645 0.0
H259 H 0.20139 0.03764 0.18638 0.0
H260 H 0.15955 0.02179 0.39836 0.0
H261 H 0.13384 0.03936 0.14416 0.0
H262 H 0.12663 0.0343 0.00336 0.0
H263 H 0.09304 0.98303 0.05958 0.0
H264 H 0.10022 0.98767 0.20058 0.0
H265 H 0.0754 0.04573 0.61765 0.0
H266 H 0.10175 0.04666 0.52041 0.0
H267 H 0.07755 0.99551 0.40717 0.0
H268 H 0.0505 0.99538 0.50174 0.0
H269 H 0.09157 0.01654 0.29936 0.0
H270 H 0.11862 0.9952 0.54431 0.0
H271 H 0.12629 0.99682 0.68604 0.0
H272 H 0.15811 0.05028 0.64975 0.0
H273 H 0.15041 0.04911 0.50788 0.0
C274 C 0.17804 0.99414 0.15791 0.0
C275 C 0.19277 1.00842 0.1511 0.0
C276 C 0.16127 0.99759 0.20293 0.0
C277 C 0.15884 0.01537 0.24304 0.0
C278 C 0.17348 0.0298 0.23582 0.0
C279 C 0.19021 0.02643 0.18967 0.0
C280 C 0.14154 0.0183 0.29557 0.0
C281 C 0.14467 0.02105 0.37651 0.0
C282 C 0.12209 0.01654 0.26779 0.0
C283 C 0.11769 0.01379 0.18294 0.0
C284 C 0.12503 0.02694 0.12645 0.0
C285 C 0.12091 0.02416 0.04658 0.0
C286 C 0.10939 1.00835 0.02249 0.0
C287 C 0.10194 0.99529 0.07825 0.0
C288 C 0.10601 0.998 0.15817 0.0
C289 C 0.07559 0.03485 0.57131 0.0
C290 C 0.06094 0.02043 0.56762 0.0
C291 C 0.0908 0.03524 0.51603 0.0
C292 C 0.09217 0.02079 0.45721 0.0
C293 C 0.07706 1.0068 0.45183 0.0
C294 C 0.06155 1.00671 0.50604 0.0
C295 C 0.10949 0.01995 0.4028 0.0
C296 C 0.1064 0.0175 0.32147 0.0
C297 C 0.12904 0.02147 0.43047 0.0
C298 C 0.13376 0.02218 0.51565 0.0
C299 C 0.12715 1.00737 0.56666 0.0
C300 C 0.13151 1.0082 0.64699 0.0
C301 C 0.14263 0.02367 0.67692 0.0
C302 C 0.14947 0.03832 0.6265 0.0
C303 C 0.14512 0.03758 0.54613 0.0
H304 H 0.146 0.02429 0.73913 0.0
H305 H 0.10622 1.00622 0.96065 0.0
H306 H 0.49509 0.20604 0.23444 0.0
H307 H 0.48871 0.17793 0.32141 0.0
H308 H 0.54008 0.14925 0.2316 0.0
H309 H 0.54657 0.17724 0.14578 0.0
H310 H 0.50883 0.12351 0.24854 0.0
H311 H 0.54225 0.1732 0.40202 0.0
H312 H 0.54612 0.20617 0.45887 0.0
H313 H 0.49147 0.19982 0.58045 0.0
H314 H 0.48715 0.1669 0.52335 0.0
H315 H 0.53245 0.05282 0.53798 0.0
H316 H 0.5315 0.0796 0.44271 0.0
H317 H 0.4868 0.10806 0.57996 0.0
H318 H 0.48842 0.08166 0.67724 0.0
H319 H 0.51095 0.13426 0.53715 0.0
H320 H 0.47812 0.08388 0.39525 0.0
H321 H 0.4732 0.05103 0.33868 0.0
H322 H 0.52419 0.05851 0.19447 0.0
H323 H 0.52961 0.09129 0.25115 0.0
C324 C 0.50483 0.19361 0.23249 0.0
C325 C 0.52132 0.19382 0.18314 0.0
C326 C 0.50124 0.17759 0.2825 0.0
C327 C 0.51399 0.16145 0.28352 0.0
C328 C 0.53 0.16143 0.23195 0.0
C329 C 0.53371 0.17747 0.18295 0.0
C330 C 0.51141 0.14498 0.34055 0.0
C331 C 0.50939 0.12583 0.31168 0.0
C332 C 0.51161 0.14797 0.42304 0.0
C333 C 0.51427 0.1677 0.4577 0.0
C334 C 0.53098 0.17891 0.44036 0.0
C335 C 0.53327 0.19757 0.47271 0.0
C336 C 0.51902 0.20511 0.52305 0.0
C337 C 0.50248 0.19398 0.54132 0.0
C338 C 0.5001 0.17532 0.50901 0.0
C339 C 0.52231 0.06472 0.54749 0.0
C340 C 0.5105 0.06512 0.61516 0.0
C341 C 0.52168 0.08003 0.4926 0.0
C342 C 0.50885 0.0959 0.50291 0.0
C343 C 0.49685 0.0961 0.57017 0.0
C344 C 0.49771 0.08094 0.62571 0.0
C345 C 0.50852 0.11258 0.44543 0.0
C346 C 0.51009 0.13182 0.47415 0.0
C347 C 0.50765 0.10966 0.36274 0.0
C348 C 0.50435 0.09 0.32796 0.0
C349 C 0.48836 0.07848 0.35185 0.0
C350 C 0.48547 0.05987 0.31973 0.0
C351 C 0.49839 0.05267 0.26312 0.0
C352 C 0.5142 0.0641 0.23838 0.0
C353 C 0.51718 0.0827 0.27045 0.0
H354 H 0.49613 0.03826 0.23833 0.0
H355 H 0.52082 0.21957 0.54805 0.0
H356 H 0.32026 0.49318 0.23235 0.0
H357 H 0.34966 0.48672 0.31147 0.0
H358 H 0.37499 0.54103 0.23174 0.0
H359 H 0.3457 0.54757 0.15364 0.0
H360 H 0.40225 0.51098 0.23521 0.0
H361 H 0.3533 0.5391 0.40641 0.0
H362 H 0.32092 0.54057 0.46979 0.0
H363 H 0.33034 0.48412 0.5735 0.0
H364 H 0.36267 0.48221 0.50973 0.0
H365 H 0.47513 0.53084 0.52436 0.0
H366 H 0.44796 0.53092 0.43054 0.0
H367 H 0.42131 0.48261 0.55445 0.0
H368 H 0.44799 0.48319 0.65026 0.0
H369 H 0.39459 0.50685 0.525 0.0
H370 H 0.44453 0.47921 0.36416 0.0
H371 H 0.47682 0.47702 0.30058 0.0
H372 H 0.46585 0.53044 0.17562 0.0
H373 H 0.43363 0.53316 0.23962 0.0
C374 C 0.33222 0.50357 0.23087 0.0
C375 C 0.33069 0.52089 0.1867 0.0
C376 C 0.34899 0.49992 0.27638 0.0
C377 C 0.36456 0.51345 0.27804 0.0
C378 C 0.36327 0.53034 0.23144 0.0
C379 C 0.34649 0.53408 0.18691 0.0
C380 C 0.38175 0.51072 0.33121 0.0
C381 C 0.40062 0.51017 0.29865 0.0
C382 C 0.37967 0.50922 0.4139 0.0
C383 C 0.36029 0.51041 0.45257 0.0
C384 C 0.34839 0.52694 0.4422 0.0
C385 C 0.33006 0.52786 0.47828 0.0
C386 C 0.32355 0.51242 0.52545 0.0
C387 C 0.33538 0.49605 0.53682 0.0
C388 C 0.35371 0.49504 0.50074 0.0
C389 C 0.46358 0.5201 0.53094 0.0
C390 C 0.4637 0.50701 0.59471 0.0
C391 C 0.44804 0.52007 0.47695 0.0
C392 C 0.4325 0.50661 0.4843 0.0
C393 C 0.43297 0.49321 0.5471 0.0
C394 C 0.44831 0.49347 0.60176 0.0
C395 C 0.41532 0.50709 0.42936 0.0
C396 C 0.39637 0.50735 0.46159 0.0
C397 C 0.41737 0.50812 0.34628 0.0
C398 C 0.43671 0.50647 0.30729 0.0
C399 C 0.44905 0.49057 0.32359 0.0
C400 C 0.46735 0.48923 0.28744 0.0
C401 C 0.4734 0.5036 0.23424 0.0
C402 C 0.46115 0.51933 0.21695 0.0
C403 C 0.44287 0.52078 0.25314 0.0
H404 H 0.48756 0.50253 0.20629 0.0
H405 H 0.30936 0.51316 0.55335 0.0
H406 H 0.03551 0.32539 0.18412 0.0
H407 H 0.04163 0.3546 0.26524 0.0
H408 H 0.98431 0.3763 0.20786 0.0
H409 H 0.97811 0.34717 0.12787 0.0
H410 H 0.01262 0.40572 0.20478 0.0
H411 H 0.99131 0.35356 0.37769 0.0
H412 H 0.99332 0.32068 0.43668 0.0
H413 H 0.05087 0.33364 0.52321 0.0
H414 H 0.0493 0.36652 0.46366 0.0
H415 H 0.99432 0.47555 0.50586 0.0
H416 H 0.99415 0.44894 0.40963 0.0
H417 H 0.04541 0.42437 0.51917 0.0
H418 H 0.04482 0.45037 0.61819 0.0
H419 H 0.02297 0.39639 0.49121 0.0
H420 H 0.04437 0.4491 0.32741 0.0
H421 H 0.04345 0.48183 0.2666 0.0
H422 H 0.98813 0.46827 0.1603 0.0
H423 H 0.98859 0.43554 0.22133 0.0
C424 C 0.02436 0.33653 0.18792 0.0
C425 C 1.00632 0.33401 0.1495 0.0
C426 C 0.02782 0.35318 0.2346 0.0
C427 C 0.01338 0.36766 0.24315 0.0
C428 C 0.9957 0.36543 0.2022 0.0
C429 C 0.99216 0.34875 0.15656 0.0
C430 C 0.01609 0.38464 0.29761 0.0
C431 C 0.0148 0.40372 0.26752 0.0
C432 C 0.01938 0.3821 0.37923 0.0
C433 C 0.02027 0.3624 0.41546 0.0
C434 C 1.00445 0.34933 0.40874 0.0
C435 C 1.0055 0.33071 0.44236 0.0
C436 C 0.02223 0.32505 0.48346 0.0
C437 C 0.03793 0.33803 0.49122 0.0
C438 C 0.03697 0.35666 0.45757 0.0
C439 C 1.00568 0.46459 0.50877 0.0
C440 C 0.01961 0.46507 0.56955 0.0
C441 C 1.00567 0.44937 0.45327 0.0
C442 C 0.01996 0.43459 0.45567 0.0
C443 C 0.03417 0.43543 0.51553 0.0
C444 C 0.03391 0.45039 0.57201 0.0
C445 C 0.01953 0.41775 0.39878 0.0
C446 C 0.02112 0.39859 0.42842 0.0
C447 C 0.01674 0.42027 0.31654 0.0
C448 C 0.01645 0.43992 0.27951 0.0
C449 C 0.03195 0.45314 0.29149 0.0
C450 C 0.03151 0.47169 0.25692 0.0
C451 C 0.01572 0.47714 0.20976 0.0
C452 C 1.00034 0.46403 0.1969 0.0
C453 C 1.00069 0.44547 0.2314 0.0
H454 H 0.01541 0.4915 0.18305 0.0
H455 H 0.02302 0.31063 0.50946 0.0
H456 H 0.85669 0.98057 0.30424 0.0
H457 H 0.8845 0.98631 0.21634 0.0
H458 H 0.85171 0.03062 0.09409 0.0
H459 H 0.8239 0.02517 0.18339 0.0
H460 H 0.86837 1.00195 0.9942 0.0
H461 H 0.88905 0.04467 0.20224 0.0
H462 H 0.89707 0.05376 0.33897 0.0
H463 H 0.94174 1.00988 0.34521 0.0
H464 H 0.93384 1.00036 0.2087 0.0
H465 H 0.94109 0.03427 0.73681 0.0
H466 H 0.91663 0.03288 0.84057 0.0
H467 H 0.95452 0.99615 0.9789 0.0
H468 H 0.9796 0.99814 0.87487 0.0
H469 H 0.93562 0.0207 0.07376 0.0
H470 H 0.91522 0.97715 0.87021 0.0
H471 H 0.9074 0.96682 0.73471 0.0
H472 H 0.86214 1.01001 0.72223 0.0
H473 H 0.86986 0.02079 0.85733 0.0
C474 C 0.85555 0.99182 0.25957 0.0
C475 C 0.83816 1.00252 0.25121 0.0
C476 C 0.87147 0.99509 0.20935 0.0
C477 C 0.87031 1.00896 0.1486 0.0
C478 C 0.85302 0.01989 0.14069 0.0
C479 C 0.83716 0.01686 0.19202 0.0
C480 C 0.88664 1.01102 0.09054 0.0
C481 C 0.88299 1.00638 0.01142 0.0
C482 C 0.90596 0.01602 0.1133 0.0
C483 C 0.9107 0.02165 0.19549 0.0
C484 C 0.90045 0.03682 0.233 0.0
C485 C 0.90501 0.04209 0.3104 0.0
C486 C 0.91984 0.03234 0.35086 0.0
C487 C 0.93021 0.01737 0.31386 0.0
C488 C 0.92572 0.01206 0.23642 0.0
C489 C 0.94433 0.02596 0.78949 0.0
C490 C 0.96227 0.0162 0.79729 0.0
C491 C 0.93022 0.02509 0.84886 0.0
C492 C 0.93336 0.01398 0.91722 0.0
C493 C 0.9516 1.00473 0.92665 0.0
C494 C 0.96596 1.00586 0.86723 0.0
C495 C 0.91731 0.01182 0.97695 0.0
C496 C 0.921 0.01631 0.0564 0.0
C497 C 0.89802 1.00641 0.95481 0.0
C498 C 0.89324 0.99989 0.87368 0.0
C499 C 0.90368 0.98453 0.83839 0.0
C500 C 0.89926 0.97858 0.76168 0.0
C501 C 0.88432 0.98778 0.71982 0.0
C502 C 0.87373 1.00291 0.75469 0.0
C503 C 0.87811 1.00894 0.83137 0.0
H504 H 0.88091 0.98316 0.66043 0.0
H505 H 0.92334 0.03645 0.41078 0.0
H506 H 0.54663 0.81595 0.08492 0.0
H507 H 0.54683 0.84855 0.02655 0.0
H508 H 0.51602 0.87108 0.22834 0.0
H509 H 0.51578 0.83814 0.28738 0.0
H510 H 0.4999 0.88401 0.08986 0.0
H511 H 0.56363 0.88282 0.20062 0.0
H512 H 0.59629 0.86971 0.23065 0.0
H513 H 0.61049 0.86947 0.98447 0.0
H514 H 0.5778 0.88229 0.95277 0.0
H515 H 0.50924 0.97948 0.91623 0.0
H516 H 0.51147 0.95247 0.0112 0.0
H517 H 0.54568 0.91943 0.84489 0.0
H518 H 0.54382 0.94642 0.75109 0.0
H519 H 0.56034 0.91486 0.98642 0.0
H520 H 0.4952 0.91172 0.87566 0.0
H521 H 0.46252 0.92467 0.8446 0.0
H522 H 0.45112 0.93305 0.09087 0.0
H523 H 0.48387 0.92038 0.1233 0.0
C524 C 0.54011 0.82789 0.11749 0.0
C525 C 0.53134 0.82447 0.19103 0.0
C526 C 0.54027 0.84658 0.08405 0.0
C527 C 0.53163 0.86244 0.12315 0.0
C528 C 0.52287 0.85913 0.19705 0.0
C529 C 0.52284 0.84033 0.231 0.0
C530 C 0.53126 0.88214 0.08452 0.0
C531 C 0.51316 0.89097 0.06875 0.0
C532 C 0.54849 0.89117 0.05558 0.0
C533 C 0.56818 0.88339 0.0743 0.0
C534 C 0.57365 0.87982 0.1528 0.0
C535 C 0.59218 0.87246 0.17014 0.0
C536 C 0.60544 0.86872 0.1095 0.0
C537 C 0.6002 0.87236 0.03138 0.0
C538 C 0.58167 0.87969 0.01371 0.0
C539 C 0.51735 0.96649 0.9003 0.0
C540 C 0.52623 0.96503 0.82584 0.0
C541 C 0.51853 0.951 0.95448 0.0
C542 C 0.52849 0.93366 0.9351 0.0
C543 C 0.53786 0.93253 0.86159 0.0
C544 C 0.53674 0.94799 0.80773 0.0
C545 C 0.52896 0.91645 0.98979 0.0
C546 C 0.5471 0.90807 0.00853 0.0
C547 C 0.51177 0.90783 0.02126 0.0
C548 C 0.49206 0.91532 0.00183 0.0
C549 C 0.48578 0.91646 0.92313 0.0
C550 C 0.46724 0.92373 0.90529 0.0
C551 C 0.45477 0.92974 0.96571 0.0
C552 C 0.46081 0.92843 0.04412 0.0
C553 C 0.47935 0.9212 0.06227 0.0
H554 H 0.44043 0.93537 0.95178 0.0
H555 H 0.61979 0.86303 0.12305 0.0
H556 H 0.67141 0.54532 0.30078 0.0
H557 H 0.64346 0.53894 0.21419 0.0
H558 H 0.67478 0.49146 0.10581 0.0
H559 H 0.70267 0.4975 0.19404 0.0
H560 H 0.65922 0.5202 0.99858 0.0
H561 H 0.63777 0.48009 0.21388 0.0
H562 H 0.62969 0.47299 0.3524 0.0
H563 H 0.58529 0.51716 0.3485 0.0
H564 H 0.59333 0.52478 0.21023 0.0
H565 H 0.58485 0.49087 0.74061 0.0
H566 H 0.6098 0.49093 0.84304 0.0
H567 H 0.5733 0.52755 0.988 0.0
H568 H 0.54774 0.52662 0.88616 0.0
H569 H 0.59157 0.50345 0.0796 0.0
H570 H 0.61329 0.54573 0.87356 0.0
H571 H 0.62142 0.55541 0.73758 0.0
H572 H 0.66514 0.51062 0.72689 0.0
H573 H 0.65709 0.5005 0.86251 0.0
C574 C 0.67218 0.53326 0.25954 0.0
C575 C 0.68916 0.52183 0.25466 0.0
C576 C 0.65619 0.52962 0.21011 0.0
C577 C 0.65694 0.51467 0.15358 0.0
C578 C 0.67381 0.50301 0.14923 0.0
C579 C 0.6897 0.50641 0.19993 0.0
C580 C 0.64068 0.51225 0.09564 0.0
C581 C 0.6445 0.51617 0.01606 0.0
C582 C 0.62128 0.50779 0.11884 0.0
C583 C 0.61634 0.50318 0.20189 0.0
C584 C 0.62642 0.48844 0.24274 0.0
C585 C 0.62182 0.48429 0.32118 0.0
C586 C 0.60708 0.49471 0.35933 0.0
C587 C 0.59677 0.50917 0.31893 0.0
C588 C 0.60134 0.5134 0.24049 0.0
C589 C 0.58206 0.49883 0.79457 0.0
C590 C 0.56438 0.50887 0.8051 0.0
C591 C 0.59644 0.49897 0.8531 0.0
C592 C 0.59383 0.50971 0.9229 0.0
C593 C 0.57584 0.51924 0.93471 0.0
C594 C 0.5612 0.51874 0.87649 0.0
C595 C 0.61009 0.5113 0.98195 0.0
C596 C 0.60629 0.50736 0.06181 0.0
C597 C 0.6295 0.51613 0.95938 0.0
C598 C 0.63445 0.52224 0.87793 0.0
C599 C 0.62455 0.53787 0.84203 0.0
C600 C 0.62916 0.54344 0.76504 0.0
C601 C 0.64375 0.53361 0.72356 0.0
C602 C 0.65382 0.51821 0.75906 0.0
C603 C 0.64925 0.51256 0.83601 0.0
H604 H 0.64729 0.53794 0.66395 0.0
H605 H 0.60364 0.49158 0.42021 0.0
H606 H 1.01074 0.68683 0.28012 0.0
H607 H 0.01361 0.65442 0.21811 0.0
H608 H 0.96991 0.67059 0.04738 0.0
H609 H 0.96696 0.70267 0.10916 0.0
H610 H 0.96402 0.63382 0.09355 0.0
H611 H 0.01928 0.67242 0.00652 0.0
H612 H 0.04918 0.69211 0.02505 0.0
H613 H 0.07689 0.64368 0.1402 0.0
H614 H 0.04702 0.62379 0.12336 0.0
H615 H 0.98039 0.57717 0.75409 0.0
H616 H 0.97746 0.60268 0.85386 0.0
H617 H 0.02079 0.57375 0.99614 0.0
H618 H 0.02382 0.54801 0.89545 0.0
H619 H 0.02795 0.61326 0.98458 0.0
H620 H 0.97353 0.57305 0.05131 0.0
H621 H 0.94365 0.55374 0.02689 0.0
H622 H 0.91415 0.60531 0.94655 0.0
H623 H 0.94395 0.62488 0.96904 0.0
C624 C 1.00158 0.68333 0.23005 0.0
C625 C 0.98859 0.69731 0.19954 0.0
C626 C 1.00331 0.66484 0.19426 0.0
C627 C 0.99209 0.66 0.12735 0.0
C628 C 0.97871 0.67381 0.09882 0.0
C629 C 0.97706 0.69221 0.13417 0.0
C630 C 0.99458 0.641 0.0845 0.0
C631 C 0.978 0.62937 0.06959 0.0
C632 C 0.01289 0.63479 0.05466 0.0
C633 C 0.03084 0.64671 0.06462 0.0
C634 C 0.03169 0.66603 0.03639 0.0
C635 C 0.04864 0.67722 0.04649 0.0
C636 C 0.0649 0.66917 0.08402 0.0
C637 C 0.06427 0.64991 0.11133 0.0
C638 C 0.04733 0.63867 0.10153 0.0
C639 C 0.98918 0.5761 0.80692 0.0
C640 C 1.00234 0.56057 0.81679 0.0
C641 C 0.98745 0.5907 0.8642 0.0
C642 C 0.99879 0.59016 0.93312 0.0
C643 C 0.01185 0.57452 0.94363 0.0
C644 C 0.0135 0.55976 0.88628 0.0
C645 C 0.9973 0.60635 0.99211 0.0
C646 C 0.01404 0.61747 0.00986 0.0
C647 C 0.97911 0.61214 0.02432 0.0
C648 C 0.96105 0.60043 0.01151 0.0
C649 C 0.96072 0.58026 0.02794 0.0
C650 C 0.94379 0.56926 0.01446 0.0
C651 C 0.92703 0.5783 0.98513 0.0
C652 C 0.92715 0.59834 0.96928 0.0
C653 C 0.94406 0.6094 0.98246 0.0
H654 H 0.91391 0.5698 0.97483 0.0
H655 H 0.07801 0.67785 0.09174 0.0
H656 H 0.01152 0.22668 0.26745 0.0
H657 H 0.99435 0.20769 0.36563 0.0
H658 H 0.94437 0.24583 0.34512 0.0
H659 H 0.96159 0.26449 0.24211 0.0
H660 H 0.9776 0.20858 0.49797 0.0
H661 H 0.90353 0.21505 0.36327 0.0
H662 H 0.88676 0.22913 0.24771 0.0
H663 H 0.93735 0.21825 0.10514 0.0
H664 H 0.95417 0.20361 0.2194 0.0
H665 H 0.95074 0.11262 0.583 0.0
H666 H 0.94276 0.14751 0.57946 0.0
H667 H 0.9473 0.14663 0.32588 0.0
H668 H 0.95447 0.11178 0.32944 0.0
H669 H 0.92338 0.17386 0.36351 0.0
H670 H 0.98652 0.15196 0.45722 0.0
H671 H 0.01145 0.1379 0.54504 0.0
H672 H 0.99446 0.17743 0.7287 0.0
H673 H 0.9687 0.19101 0.64354 0.0
C674 C 0.99702 0.23127 0.28505 0.0
C675 C 0.98761 0.2466 0.24598 0.0
C676 C 0.98722 0.22054 0.34197 0.0
C677 C 0.96782 0.22502 0.36186 0.0
C678 C 0.95918 0.24187 0.32966 0.0
C679 C 0.96902 0.25255 0.27127 0.0
C680 C 0.95643 0.20989 0.40479 0.0
C681 C 0.96531 0.2012 0.47035 0.0
C682 C 0.94026 0.20039 0.36928 0.0
C683 C 0.93013 0.20852 0.2998 0.0
C684 C 0.91099 0.21558 0.30706 0.0
C685 C 0.90147 0.22358 0.24181 0.0
C686 C 0.91098 0.22455 0.16909 0.0
C687 C 0.92997 0.21736 0.16132 0.0
C688 C 0.93946 0.20915 0.22616 0.0
C689 C 0.94928 0.11982 0.5265 0.0
C690 C 0.95346 0.1097 0.45643 0.0
C691 C 0.94476 0.13972 0.52454 0.0
C692 C 0.94492 0.14983 0.45263 0.0
C693 C 0.9471 0.13921 0.38222 0.0
C694 C 0.95126 0.11927 0.38412 0.0
C695 C 0.94634 0.17149 0.44984 0.0
C696 C 0.93502 0.18154 0.39412 0.0
C697 C 0.96127 0.18176 0.4907 0.0
C698 C 0.9753 0.17213 0.5447 0.0
C699 C 0.98769 0.15726 0.51713 0.0
C700 C 1.002 0.14939 0.56642 0.0
C701 C 1.00441 0.15666 0.64263 0.0
C702 C 0.99235 0.17159 0.67017 0.0
C703 C 0.97779 0.17927 0.62165 0.0
H704 H 0.01578 0.15088 0.67994 0.0
H705 H 0.90364 0.23088 0.11878 0.0
H706 H 0.26492 0.96645 0.26135 0.0
H707 H 0.2831 0.95312 0.37399 0.0
H708 H 0.31125 1.00919 0.40623 0.0
H709 H 0.29319 0.02226 0.29496 0.0
H710 H 0.32074 0.95004 0.35712 0.0
H711 H 0.3301 0.01657 0.57744 0.0
H712 H 0.30907 0.03816 0.65597 0.0
H713 H 0.2619 0.99687 0.6377 0.0
H714 H 0.28277 0.97472 0.56053 0.0
H715 H 0.40562 1.00665 0.45342 0.0
H716 H 0.3708 0.99972 0.45721 0.0
H717 H 0.3822 0.94132 0.5403 0.0
H718 H 0.41745 0.94825 0.53862 0.0
H719 H 0.34613 0.98575 0.58973 0.0
H720 H 0.34455 0.91538 0.42134 0.0
H721 H 0.36548 0.89436 0.3388 0.0
H722 H 0.39516 0.94511 0.24922 0.0
H723 H 0.37428 0.96637 0.33048 0.0
C724 C 0.27439 0.97602 0.29508 0.0
C725 C 0.27787 0.99527 0.2701 0.0
C726 C 0.28471 0.96845 0.35928 0.0
C727 C 0.29844 0.98016 0.39912 0.0
C728 C 0.30044 0.99994 0.37803 0.0
C729 C 0.29028 1.0074 0.31388 0.0
C730 C 0.31405 0.97124 0.44743 0.0
C731 C 0.32587 0.95724 0.4102 0.0
C732 C 0.32078 0.98042 0.51709 0.0
C733 C 0.3081 0.99386 0.56316 0.0
C734 C 0.31533 0.01192 0.59075 0.0
C735 C 0.3034 0.02431 0.63496 0.0
C736 C 0.28416 0.01889 0.65185 0.0
C737 C 0.27681 1.00106 0.6245 0.0
C738 C 0.28868 0.98858 0.58043 0.0
C739 C 0.40082 0.99244 0.47407 0.0
C740 C 0.41431 0.97802 0.49594 0.0
C741 C 0.38091 0.98857 0.4767 0.0
C742 C 0.37404 0.9702 0.50073 0.0
C743 C 0.38733 0.95566 0.52259 0.0
C744 C 0.40739 0.95958 0.5205 0.0
C745 C 0.35295 0.96632 0.49438 0.0
C746 C 0.34029 0.97775 0.53984 0.0
C747 C 0.34542 0.95494 0.43211 0.0
C748 C 0.35807 0.94239 0.38285 0.0
C749 C 0.35557 0.92201 0.38405 0.0
C750 C 0.3674 0.91007 0.33743 0.0
C751 C 0.38171 0.91839 0.28907 0.0
C752 C 0.38415 0.93867 0.28699 0.0
C753 C 0.37233 0.95067 0.33336 0.0
H754 H 0.39085 0.90912 0.25304 0.0
H755 H 0.27495 0.02851 0.68609 0.0
H756 H 0.58189 0.27239 0.19996 0.0
H757 H 0.59985 0.29586 0.2819 0.0
H758 H 0.54538 0.31445 0.38586 0.0
H759 H 0.52788 0.29049 0.30728 0.0
H760 H 0.59481 0.33062 0.24653 0.0
H761 H 0.54816 0.34311 0.5343 0.0
H762 H 0.53705 0.32414 0.64906 0.0
H763 H 0.5819 0.28167 0.60691 0.0
H764 H 0.59359 0.30067 0.49289 0.0
H765 H 0.55479 0.42124 0.28068 0.0
H766 H 0.56531 0.38747 0.2725 0.0
H767 H 0.59672 0.39374 0.49149 0.0
H768 H 0.58496 0.42726 0.50319 0.0
H769 H 0.57642 0.36249 0.49766 0.0
H770 H 0.62187 0.3855 0.31176 0.0
H771 H 0.63417 0.40496 0.19996 0.0
H772 H 0.59454 0.3753 0.04416 0.0
H773 H 0.58181 0.35585 0.155 0.0
C774 C 0.57406 0.2807 0.24407 0.0
C775 C 0.55364 0.27977 0.24806 0.0
C776 C 0.58426 0.29416 0.29057 0.0
C777 C 0.57403 0.3071 0.33994 0.0
C778 C 0.5538 0.30448 0.34992 0.0
C779 C 0.5437 0.29084 0.30451 0.0
C780 C 0.58284 0.32614 0.3628 0.0
C781 C 0.59122 0.33741 0.30233 0.0
C782 C 0.57885 0.33502 0.43632 0.0
C783 C 0.57182 0.32344 0.50496 0.0
C784 C 0.55582 0.32988 0.54997 0.0
C785 C 0.54937 0.31907 0.61483 0.0
C786 C 0.55877 0.3017 0.63532 0.0
C787 C 0.57462 0.29512 0.59093 0.0
C788 C 0.58116 0.30591 0.52609 0.0
C789 C 0.56401 0.41552 0.32703 0.0
C790 C 0.56885 0.42696 0.39292 0.0
C791 C 0.57034 0.39625 0.32159 0.0
C792 C 0.58214 0.38812 0.38071 0.0
C793 C 0.58778 0.39975 0.44482 0.0
C794 C 0.58118 0.419 0.45096 0.0
C795 C 0.58651 0.36692 0.37889 0.0
C796 C 0.58074 0.3554 0.44331 0.0
C797 C 0.59312 0.35772 0.3094 0.0
C798 C 0.60095 0.36914 0.24187 0.0
C799 C 0.61576 0.38314 0.25368 0.0
C800 C 0.6228 0.39419 0.19045 0.0
C801 C 0.61517 0.39135 0.115 0.0
C802 C 0.60049 0.37744 0.10259 0.0
C803 C 0.5934 0.36635 0.16558 0.0
H804 H 0.62062 0.39994 0.06615 0.0
H805 H 0.55376 0.29334 0.68556 0.0
H806 H 0.22677 0.57111 0.1756 0.0
H807 H 0.20846 0.58671 0.28 0.0
H808 H 0.24172 0.55489 0.45372 0.0
H809 H 0.25931 0.53819 0.34808 0.0
H810 H 0.20665 0.54823 0.48004 0.0
H811 H 0.23876 0.60763 0.45452 0.0
H812 H 0.25553 0.63565 0.39286 0.0
H813 H 0.20232 0.65221 0.27741 0.0
H814 H 0.18527 0.62414 0.33717 0.0
H815 H 0.11518 0.56757 0.63758 0.0
H816 H 0.15017 0.57539 0.63665 0.0
H817 H 0.14555 0.59379 0.39445 0.0
H818 H 0.11059 0.58679 0.39629 0.0
H819 H 0.17486 0.61319 0.46732 0.0
H820 H 0.15118 0.54313 0.459 0.0
H821 H 0.13516 0.51539 0.52647 0.0
H822 H 0.17568 0.52051 0.71839 0.0
H823 H 0.19162 0.54856 0.65288 0.0
C824 C 0.23046 0.5677 0.23607 0.0
C825 C 0.24413 0.55308 0.25354 0.0
C826 C 0.22021 0.57694 0.29618 0.0
C827 C 0.22368 0.57211 0.37539 0.0
C828 C 0.23872 0.55888 0.39321 0.0
C829 C 0.24885 0.5494 0.33273 0.0
C830 C 0.20902 0.57776 0.43578 0.0
C831 C 0.2002 0.56269 0.47949 0.0
C832 C 0.20062 0.59666 0.43703 0.0
C833 C 0.2107 0.61374 0.40075 0.0
C834 C 0.23063 0.61719 0.41573 0.0
C835 C 0.2402 0.63309 0.38107 0.0
C836 C 0.22999 0.64571 0.33133 0.0
C837 C 0.21019 0.64245 0.31616 0.0
C838 C 0.20055 0.62657 0.35065 0.0
C839 C 0.1216 0.57394 0.58516 0.0
C840 C 0.1104 0.5763 0.51645 0.0
C841 C 0.14152 0.57843 0.5848 0.0
C842 C 0.15055 0.58469 0.51502 0.0
C843 C 0.13893 0.58892 0.449 0.0
C844 C 0.11896 0.58483 0.44983 0.0
C845 C 0.17199 0.58325 0.50427 0.0
C846 C 0.18203 0.5991 0.47066 0.0
C847 C 0.18176 0.56517 0.51348 0.0
C848 C 0.17246 0.548 0.55147 0.0
C849 C 0.15663 0.53833 0.51564 0.0
C850 C 0.14752 0.52261 0.55368 0.0
C851 C 0.15435 0.51624 0.62686 0.0
C852 C 0.17034 0.52553 0.662 0.0
C853 C 0.17939 0.54135 0.62452 0.0
H854 H 0.14728 0.50409 0.65627 0.0
H855 H 0.23743 0.65801 0.30451 0.0
H856 H 0.06977 0.77772 0.20402 0.0
H857 H 0.07956 0.79784 0.09258 0.0
H858 H 0.03202 0.77423 0.95544 0.0
H859 H 0.02167 0.75463 0.06774 0.0
H860 H 0.08471 0.80431 0.92925 0.0
H861 H 1.00351 0.81064 0.91847 0.0
H862 H 0.97358 0.80036 0.98873 0.0
H863 H 1.00385 0.80429 0.2095 0.0
H864 H 0.034 0.8144 0.14035 0.0
H865 H 0.04916 0.90273 0.78208 0.0
H866 H 0.0533 0.86709 0.79101 0.0
H867 H 0.06336 0.87227 0.04072 0.0
H868 H 0.05968 0.90778 0.03205 0.0
H869 H 0.02793 0.84825 0.96816 0.0
H870 H 0.09902 0.86041 0.97114 0.0
H871 H 0.12931 0.87244 0.90893 0.0
H872 H 0.11972 0.83425 0.71185 0.0
H873 H 0.0892 0.8222 0.77259 0.0
C874 C 0.06198 0.77611 0.14886 0.0
C875 C 0.04447 0.76537 0.14549 0.0
C876 C 0.06772 0.78746 0.08475 0.0
C877 C 0.05602 0.78805 0.01704 0.0
C878 C 0.04101 0.77419 0.00793 0.0
C879 C 0.0351 0.76298 0.07242 0.0
C880 C 0.05526 0.80667 0.97319 0.0
C881 C 0.07212 0.81377 0.93561 0.0
C882 C 0.0389 0.81912 0.9822 0.0
C883 C 0.02097 0.81301 0.02429 0.0
C884 C 1.00376 0.80922 0.98198 0.0
C885 C 0.9868 0.80338 0.02156 0.0
C886 C 0.98689 0.80148 0.10349 0.0
C887 C 1.00391 0.80547 0.14601 0.0
C888 C 0.02092 0.81125 0.10668 0.0
C889 C 0.05265 0.89622 0.83847 0.0
C890 C 0.05405 0.90786 0.90656 0.0
C891 C 0.05513 0.87599 0.84326 0.0
C892 C 0.05875 0.86726 0.91629 0.0
C893 C 0.06082 0.87892 0.98373 0.0
C894 C 0.05869 0.89912 0.97879 0.0
C895 C 0.05745 0.84596 0.92581 0.0
C896 C 0.04015 0.83851 0.95762 0.0
C897 C 0.0734 0.83342 0.91185 0.0
C898 C 0.09173 0.84063 0.8758 0.0
C899 C 0.10326 0.85475 0.91414 0.0
C900 C 0.1205 0.86153 0.87927 0.0
C901 C 0.1264 0.85417 0.80633 0.0
C902 C 0.11511 0.83997 0.76825 0.0
C903 C 0.09785 0.83316 0.80288 0.0
H904 H 0.13975 0.85943 0.77943 0.0
H905 H 0.97374 0.79703 0.13408 0.0
H906 H 0.77492 0.99063 0.07692 0.0
H907 H 0.75496 0.98792 0.95904 0.0
H908 H 0.71493 0.95004 0.08273 0.0
H909 H 0.73563 0.9514 0.19876 0.0
H910 H 0.70788 0.94841 0.9262 0.0
H911 H 0.71662 1.00178 0.12823 0.0
H912 H 0.73765 0.02653 0.19271 0.0
H913 H 0.75242 0.05074 0.96724 0.0
H914 H 0.73165 0.02602 0.9015 0.0
H915 H 0.6157 0.98231 0.0145 0.0
H916 H 0.64917 0.97102 0.99844 0.0
H917 H 0.66147 0.01988 0.84528 0.0
H918 H 0.62795 0.03144 0.86213 0.0
H919 H 0.68755 0.01762 0.95439 0.0
H920 H 0.66132 0.97327 0.77657 0.0
H921 H 0.63932 0.94881 0.71797 0.0
H922 H 0.65543 0.90737 0.89613 0.0
H923 H 0.67747 0.93163 0.95643 0.0
C924 C 0.76264 0.98061 0.07769 0.0
C925 C 0.75618 0.97211 0.14861 0.0
C926 C 0.75112 0.97917 0.00994 0.0
C927 C 0.73286 0.96981 0.01387 0.0
C928 C 0.72868 0.95788 0.07899 0.0
C929 C 0.74045 0.95885 0.1459 0.0
C930 C 0.71617 0.97706 0.96659 0.0
C931 C 0.70341 0.96355 0.93121 0.0
C932 C 0.71066 0.99701 0.9706 0.0
C933 C 0.7228 0.01202 0.0101 0.0
C934 C 0.72437 0.01242 0.0926 0.0
C935 C 0.73624 0.02638 0.1293 0.0
C936 C 0.74637 0.04014 0.08411 0.0
C937 C 0.7446 0.04003 0.00213 0.0
C938 C 0.73281 0.02605 0.96511 0.0
C939 C 0.62545 0.99052 0.97661 0.0
C940 C 0.61922 1.0078 0.93987 0.0
C941 C 0.64454 0.98394 0.96676 0.0
C942 C 0.65773 0.99438 0.91928 0.0
C943 C 0.65149 0.01153 0.88171 0.0
C944 C 0.63242 0.01822 0.89217 0.0
C945 C 0.67859 0.98873 0.91852 0.0
C946 C 0.69213 1.00261 0.94523 0.0
C947 C 0.68459 0.96915 0.90663 0.0
C948 C 0.67127 0.95435 0.87084 0.0
C949 C 0.66025 0.95896 0.8034 0.0
C950 C 0.64772 0.94511 0.76985 0.0
C951 C 0.64601 0.92652 0.80318 0.0
C952 C 0.65683 0.92176 0.87016 0.0
C953 C 0.66942 0.93556 0.9039 0.0
H954 H 0.63627 0.91582 0.77721 0.0
H955 H 0.75557 0.05092 0.11263 0.0
H956 H 0.44973 0.74408 0.27456 0.0
H957 H 0.43448 0.72142 0.18195 0.0
H958 H 0.47902 0.7345 0.01044 0.0
H959 H 0.4945 0.75706 0.10308 0.0
H960 H 0.43695 0.71721 0.95398 0.0
H961 H 0.49722 0.70501 0.1025 0.0
H962 H 0.51817 0.70734 0.22038 0.0
H963 H 0.47322 0.68047 0.35994 0.0
H964 H 0.45183 0.67832 0.24285 0.0
H965 H 0.46979 0.62142 0.82609 0.0
H966 H 0.46209 0.65554 0.85523 0.0
H967 H 0.43048 0.63738 0.06244 0.0
H968 H 0.43882 0.60347 0.03611 0.0
H969 H 0.46304 0.65901 0.09283 0.0
H970 H 0.40796 0.6621 0.9203 0.0
H971 H 0.39041 0.65864 0.79445 0.0
H972 H 0.42807 0.70157 0.68881 0.0
H973 H 0.44597 0.70518 0.81376 0.0
C974 C 0.45572 0.74285 0.21573 0.0
C975 C 0.47357 0.75185 0.19664 0.0
C976 C 0.44686 0.73008 0.16255 0.0
C977 C 0.45581 0.72616 0.09 0.0
C978 C 0.47186 0.73747 0.06604 0.0
C979 C 0.48076 0.75028 0.11935 0.0
C980 C 0.45286 0.7067 0.05463 0.0
C981 C 0.44263 0.7044 0.98363 0.0
C982 C 0.46037 0.69013 0.09364 0.0
C983 C 0.47288 0.69178 0.16446 0.0
C984 C 0.49173 0.69983 0.15856 0.0
C985 C 0.50369 0.70104 0.22501 0.0
C986 C 0.49701 0.69401 0.29735 0.0
C987 C 0.47833 0.68588 0.30369 0.0
C988 C 0.46628 0.68469 0.23738 0.0
C989 C 0.46088 0.62467 0.87712 0.0
C990 C 0.45538 0.60977 0.93004 0.0
C991 C 0.45621 0.64415 0.89284 0.0
C992 C 0.44579 0.64894 0.96113 0.0
C993 C 0.43849 0.63392 0.00925 0.0
C994 C 0.44329 0.61451 0.99404 0.0
C995 C 0.44661 0.66907 0.99243 0.0
C996 C 0.45688 0.6716 0.063 0.0
C997 C 0.43947 0.68563 0.95148 0.0
C998 C 0.42855 0.68367 0.87633 0.0
C999 C 0.41267 0.67065 0.87007 0.0
C1000 C 0.40259 0.66872 0.79889 0.0
C1001 C 0.40818 0.67981 0.73356 0.0
C1002 C 0.42379 0.69294 0.7394 0.0
C1003 C 0.4339 0.69495 0.81047 0.0
H1004 H 0.40036 0.67828 0.6785 0.0
H1005 H 0.50631 0.69489 0.34842 0.0
H1006 H 0.78764 0.56291 0.13893 0.0
H1007 H 0.80686 0.56066 0.01937 0.0
H1008 H 0.77278 0.51069 0.94536 0.0
H1009 H 0.75405 0.51242 0.06741 0.0
H1010 H 0.80762 0.49999 0.97386 0.0
H1011 H 0.78248 0.55032 0.81993 0.0
H1012 H 0.76906 0.58237 0.78302 0.0
H1013 H 0.82322 0.61013 0.84538 0.0
H1014 H 0.83693 0.57832 0.88403 0.0
H1015 H 0.90079 0.48348 0.80705 0.0
H1016 H 0.86593 0.49097 0.7973 0.0
H1017 H 0.87448 0.5419 0.94327 0.0
H1018 H 0.90905 0.53418 0.95551 0.0
H1019 H 0.84683 0.54794 0.82188 0.0
H1020 H 0.86386 0.50058 0.02605 0.0
H1021 H 0.87764 0.46939 0.07254 0.0
H1022 H 0.83765 0.43768 0.92492 0.0
H1023 H 0.82377 0.46872 0.87703 0.0
C1024 C 0.78368 0.552 0.09547 0.0
C1025 C 0.76986 0.53746 0.1134 0.0
C1026 C 0.79456 0.55082 0.02637 0.0
C1027 C 0.79154 0.53524 0.97377 0.0
C1028 C 0.7755 0.5227 0.98554 0.0
C1029 C 0.76473 0.52376 0.05527 0.0
C1030 C 0.80806 0.52898 0.9233 0.0
C1031 C 0.81574 0.5103 0.93789 0.0
C1032 C 0.81894 0.54246 0.87751 0.0
C1033 C 0.81078 0.5618 0.85482 0.0
C1034 C 0.79152 0.56325 0.82642 0.0
C1035 C 0.78386 0.5814 0.80502 0.0
C1036 C 0.79528 0.59827 0.81177 0.0
C1037 C 0.81441 0.59703 0.83994 0.0
C1038 C 0.82216 0.57891 0.86137 0.0
C1039 C 0.89522 0.4963 0.83691 0.0
C1040 C 0.90762 0.50813 0.88291 0.0
C1041 C 0.87539 0.50072 0.83011 0.0
C1042 C 0.8677 0.51704 0.86914 0.0
C1043 C 0.88021 0.5294 0.91167 0.0
C1044 C 0.89995 0.52492 0.91897 0.0
C1045 C 0.84641 0.51969 0.87733 0.0
C1046 C 0.83807 0.53755 0.85484 0.0
C1047 C 0.83491 0.50565 0.91717 0.0
C1048 C 0.84312 0.48697 0.94641 0.0
C1049 C 0.85817 0.48696 0.00281 0.0
C1050 C 0.86595 0.46931 0.02961 0.0
C1051 C 0.85862 0.45156 0.00127 0.0
C1052 C 0.8434 0.45144 0.94642 0.0
C1053 C 0.8356 0.46907 0.9193 0.0
H1054 H 0.86465 0.43791 0.02213 0.0
H1055 H 0.78932 0.61232 0.79519 0.0
H1056 H 0.99491 0.23728 0.90754 0.0
H1057 H 0.99708 0.20552 0.84046 0.0
H1058 H 0.04271 0.18807 0.00058 0.0
H1059 H 0.04072 0.21985 0.06627 0.0
H1060 H 0.04942 0.17205 0.86203 0.0
H1061 H 0.9943 0.17736 0.03342 0.0
H1062 H 0.96365 0.19091 0.08551 0.0
H1063 H 0.93509 0.17943 0.86513 0.0
H1064 H 0.96565 0.16596 0.81138 0.0
H1065 H 0.03505 0.06823 0.85948 0.0
H1066 H 0.03659 0.10264 0.89955 0.0
H1067 H 0.9959 0.11761 0.71559 0.0
H1068 H 0.99438 0.08327 0.67521 0.0
H1069 H 0.98687 0.13519 0.85852 0.0
H1070 H 0.04331 0.12744 0.69288 0.0
H1071 H 0.07412 0.1122 0.65056 0.0
H1072 H 0.10038 0.12646 0.87292 0.0
H1073 H 0.06961 0.14157 0.91711 0.0
C1074 C 1.006 0.22698 0.92585 0.0
C1075 C 0.01791 0.23119 0.99112 0.0
C1076 C 1.00703 0.20867 0.88844 0.0
C1077 C 0.01979 0.1941 0.91636 0.0
C1078 C 0.03272 0.19892 0.9777 0.0
C1079 C 0.03171 0.21719 0.01489 0.0
C1080 C 0.01861 0.17343 0.88689 0.0
C1081 C 0.03574 0.164 0.86185 0.0
C1082 C 1.00078 0.16274 0.88601 0.0
C1083 C 0.98239 0.17097 0.91789 0.0
C1084 C 0.98155 0.17792 0.99574 0.0
C1085 C 0.96416 0.18555 0.02566 0.0
C1086 C 0.94743 0.18612 0.97857 0.0
C1087 C 0.94807 0.17905 0.90146 0.0
C1088 C 0.96543 0.17142 0.87121 0.0
C1089 C 0.02642 0.07884 0.82754 0.0
C1090 C 0.01475 0.07298 0.76347 0.0
C1091 C 0.0274 0.09855 0.85028 0.0
C1092 C 0.01657 0.11285 0.81005 0.0
C1093 C 1.00455 0.10695 0.7472 0.0
C1094 C 1.00378 0.08729 0.72379 0.0
C1095 C 0.01765 0.13389 0.83392 0.0
C1096 C 1.0005 0.14333 0.85818 0.0
C1097 C 0.03551 0.14444 0.83544 0.0
C1098 C 0.05408 0.13552 0.80857 0.0
C1099 C 0.0556 0.12723 0.73301 0.0
C1100 C 0.07307 0.11863 0.70863 0.0
C1101 C 0.08919 0.11833 0.75907 0.0
C1102 C 0.08788 0.12669 0.83393 0.0
C1103 C 0.07043 0.13529 0.85865 0.0
H1104 H 0.10271 0.11165 0.7401 0.0
H1105 H 0.93394 0.19195 0.00188 0.0
H1106 H 0.30135 0.98203 0.99704 0.0
H1107 H 0.33329 0.98428 0.93308 0.0
H1108 H 0.32845 0.04707 0.92724 0.0
H1109 H 0.29628 0.04481 0.99192 0.0
H1110 H 0.34862 0.02991 0.79059 0.0
H1111 H 0.35075 0.0297 0.07412 0.0
H1112 H 0.34116 0.01638 0.20343 0.0
H1113 H 0.36817 0.96165 0.14598 0.0
H1114 H 0.37764 0.97454 0.01569 0.0
H1115 H 0.4604 0.03268 0.90256 0.0
H1116 H 0.42576 0.03302 0.93799 0.0
H1117 H 0.41173 1.00231 0.72347 0.0
H1118 H 0.44634 1.00206 0.68766 0.0
H1119 H 0.40036 1.00562 0.97009 0.0
H1120 H 0.36397 0.0151 0.66323 0.0
H1121 H 0.37118 0.02966 0.53365 0.0
H1122 H 0.4128 0.0686 0.63998 0.0
H1123 H 0.40522 0.05494 0.77074 0.0
C1124 C 0.30675 0.99628 0.97936 0.0
C1125 C 0.29621 0.01323 0.99892 0.0
C1126 C 0.3251 0.99756 0.94328 0.0
C1127 C 0.33348 0.01585 0.92614 0.0
C1128 C 0.32231 0.03278 0.93971 0.0
C1129 C 0.30386 0.03149 0.97621 0.0
C1130 C 0.35461 0.01716 0.9036 0.0
C1131 C 0.35996 0.02458 0.8296 0.0
C1132 C 0.36949 1.01049 0.95497 0.0
C1133 C 0.36478 1.00304 0.0349 0.0
C1134 C 0.35462 0.01481 0.08901 0.0
C1135 C 0.34919 1.00734 0.16246 0.0
C1136 C 0.35402 0.98817 0.18288 0.0
C1137 C 0.36445 0.9765 0.13012 0.0
C1138 C 0.36986 0.98388 0.05645 0.0
C1139 C 0.44998 0.02605 0.86264 0.0
C1140 C 0.45629 0.01755 0.79156 0.0
C1141 C 0.43008 0.02621 0.88315 0.0
C1142 C 0.41587 0.01792 0.83324 0.0
C1143 C 0.42218 1.0092 0.76261 0.0
C1144 C 0.44207 1.00908 0.74202 0.0
C1145 C 0.39461 0.01816 0.85597 0.0
C1146 C 0.38915 1.01097 0.9305 0.0
C1147 C 0.3797 0.02521 0.80509 0.0
C1148 C 0.38424 0.03374 0.72679 0.0
C1149 C 0.37461 0.02682 0.65909 0.0
C1150 C 0.37876 0.03492 0.58539 0.0
C1151 C 0.39262 0.04985 0.57843 0.0
C1152 C 0.40217 0.05692 0.64536 0.0
C1153 C 0.3979 0.04905 0.71936 0.0
H1154 H 0.39587 0.05602 0.52123 0.0
H1155 H 0.34966 0.98238 0.23952 0.0
H1156 H 0.54833 0.29255 0.94189 0.0
H1157 H 0.54577 0.32411 0.87429 0.0
H1158 H 0.48955 0.33344 0.98215 0.0
H1159 H 0.4922 0.30185 0.04991 0.0
H1160 H 0.5235 0.34455 0.77541 0.0
H1161 H 0.4882 0.3794 0.05571 0.0
H1162 H 0.48858 0.37442 0.19966 0.0
H1163 H 0.54372 0.34498 0.18214 0.0
H1164 H 0.54379 0.35003 0.03842 0.0
H1165 H 0.49909 0.44211 0.66936 0.0
H1166 H 0.49978 0.40783 0.71068 0.0
H1167 H 0.53452 0.42386 0.9131 0.0
H1168 H 0.53233 0.45823 0.87504 0.0
H1169 H 0.51306 0.39915 0.96273 0.0
H1170 H 0.55252 0.39745 0.73343 0.0
H1171 H 0.56163 0.40332 0.59507 0.0
H1172 H 0.51345 0.36781 0.51792 0.0
H1173 H 0.50404 0.36172 0.65609 0.0
C1174 C 0.53505 0.30096 0.94827 0.0
C1175 C 0.52029 0.29456 -2e-05 0.0
C1176 C 0.53365 0.31911 0.91007 0.0
C1177 C 0.51761 0.33142 0.92387 0.0
C1178 C 0.50218 0.32436 0.97102 0.0
C1179 C 0.50355 0.30616 0.0089 0.0
C1180 C 0.51795 0.35225 0.89618 0.0
C1181 C 0.52108 0.3565 0.81616 0.0
C1182 C 0.51589 0.36802 0.94963 0.0
C1183 C 0.51583 0.36486 0.03613 0.0
C1184 C 0.5004 0.37188 0.0826 0.0
C1185 C 0.50055 0.36906 0.16417 0.0
C1186 C 0.51613 0.35933 0.19996 0.0
C1187 C 0.53162 0.35244 0.15432 0.0
C1188 C 0.53155 0.35524 0.0728 0.0
C1189 C 0.50689 0.43825 0.72261 0.0
C1190 C 0.51562 0.45288 0.76902 0.0
C1191 C 0.50746 0.41854 0.74603 0.0
C1192 C 0.51751 0.41282 0.81476 0.0
C1193 C 0.5265 0.42757 0.86025 0.0
C1194 C 0.52534 0.44731 0.83828 0.0
C1195 C 0.51817 0.39173 0.84093 0.0
C1196 C 0.51532 0.38735 0.92117 0.0
C1197 C 0.52175 0.37596 0.78827 0.0
C1198 C 0.52745 0.37932 0.70508 0.0
C1199 C 0.54382 0.39096 0.68694 0.0
C1200 C 0.54906 0.3943 0.60853 0.0
C1201 C 0.53807 0.38603 0.54764 0.0
C1202 C 0.52189 0.37429 0.56513 0.0
C1203 C 0.51665 0.37081 0.6435 0.0
H1204 H 0.54215 0.38864 0.48696 0.0
H1205 H 0.51622 0.35717 0.26309 0.0
H1206 H 0.21529 0.49225 0.10172 0.0
H1207 H 0.18486 0.48842 0.02743 0.0
H1208 H 0.20598 0.5294 0.85388 0.0
H1209 H 0.23641 0.53333 0.92923 0.0
H1210 H 0.17088 0.53981 0.90157 0.0
H1211 H 0.19793 0.48029 0.80792 0.0
H1212 H 0.21424 0.44827 0.81611 0.0
H1213 H 0.16728 0.42606 0.95823 0.0
H1214 H 0.15081 0.45804 0.95181 0.0
H1215 H 0.08288 0.53013 0.67883 0.0
H1216 H 0.11732 0.5292 0.71652 0.0
H1217 H 0.10332 0.48928 0.90496 0.0
H1218 H 0.06893 0.48974 0.86571 0.0
H1219 H 0.13639 0.47817 0.83399 0.0
H1220 H 0.11081 0.53901 0.93386 0.0
H1221 H 0.09476 0.57112 0.92342 0.0
H1222 H 0.13978 0.59102 0.76653 0.0
H1223 H 0.15588 0.55884 0.77451 0.0
C1224 C 0.21375 0.49978 0.04596 0.0
C1225 C 0.22842 0.51268 0.02012 0.0
C1226 C 0.19627 0.49769 0.00359 0.0
C1227 C 0.19301 0.50854 0.93445 0.0
C1228 C 0.20807 0.52081 0.90677 0.0
C1229 C 0.22559 0.52285 0.94918 0.0
C1230 C 0.17328 0.50844 0.89588 0.0
C1231 C 0.16353 0.52631 0.88538 0.0
C1232 C 0.16338 0.49089 0.87582 0.0
C1233 C 0.17322 0.47163 0.87991 0.0
C1234 C 0.19116 0.46863 0.84146 0.0
C1235 C 0.20041 0.45047 0.84568 0.0
C1236 C 0.19182 0.43515 0.88781 0.0
C1237 C 0.17393 0.43794 0.92566 0.0
C1238 C 0.16461 0.45608 0.92167 0.0
C1239 C 0.08714 0.52092 0.72745 0.0
C1240 C 0.07304 0.50992 0.76862 0.0
C1241 C 0.10689 0.52053 0.74957 0.0
C1242 C 0.11306 0.50928 0.81421 0.0
C1243 C 0.09904 0.49807 0.85484 0.0
C1244 C 0.0793 0.49844 0.83257 0.0
C1245 C 0.13393 0.50948 0.84101 0.0
C1246 C 0.14386 0.49165 0.84943 0.0
C1247 C 0.14405 0.52708 0.85874 0.0
C1248 C 0.13441 0.54643 0.85398 0.0
C1249 C 0.11719 0.55016 0.89647 0.0
C1250 C 0.10808 0.56837 0.89099 0.0
C1251 C 0.11619 0.58306 0.84396 0.0
C1252 C 0.13347 0.57959 0.80256 0.0
C1253 C 0.14257 0.56136 0.80745 0.0
H1254 H 0.10914 0.59716 0.83986 0.0
H1255 H 0.19901 0.4211 0.891 0.0
H1256 H 0.98381 0.79188 0.38834 0.0
H1257 H 0.97972 0.8246 0.44677 0.0
H1258 H 0.04219 0.832 0.45345 0.0
H1259 H 0.04641 0.79929 0.39845 0.0
H1260 H 1.00085 0.84404 0.5981 0.0
H1261 H 0.0462 0.87621 0.35019 0.0
H1262 H 0.05341 0.87142 0.20898 0.0
H1263 H 0.99624 0.8469 0.17397 0.0
H1264 H 0.98887 0.85121 0.31509 0.0
H1265 H 0.0285 0.94214 0.69698 0.0
H1266 H 0.0278 0.90788 0.65636 0.0
H1267 H 0.98836 0.92231 0.46736 0.0
H1268 H 0.98919 0.9567 0.50726 0.0
H1269 H 0.01509 0.89859 0.414 0.0
H1270 H 0.97402 0.89854 0.644 0.0
H1271 H 0.96635 0.90493 0.78345 0.0
H1272 H 0.01233 0.8663 0.8549 0.0
H1273 H 0.0206 0.86001 0.71588 0.0
C1274 C 0.99667 0.80019 0.40476 0.0
C1275 C 0.01544 0.79287 0.38818 0.0
C1276 C 0.99431 0.81899 0.43751 0.0
C1277 C 1.01066 0.83088 0.45367 0.0
C1278 C 0.02935 0.82321 0.44099 0.0
C1279 C 0.03172 0.80444 0.40945 0.0
C1280 C 1.00849 0.8517 0.47924 0.0
C1281 C 1.00387 0.856 0.55792 0.0
C1282 C 0.01243 0.86735 0.42709 0.0
C1283 C 0.01707 0.86388 0.34312 0.0
C1284 C 0.03525 0.86966 0.31235 0.0
C1285 C 0.03937 0.86699 0.23243 0.0
C1286 C 0.02534 0.85875 0.18263 0.0
C1287 C 1.00718 0.85308 0.21275 0.0
C1288 C 1.00307 0.85551 0.29277 0.0
C1289 C 0.01946 0.93804 0.64737 0.0
C1290 C 1.00873 0.95231 0.60613 0.0
C1291 C 0.01907 0.91834 0.62409 0.0
C1292 C 1.00779 0.91224 0.55927 0.0
C1293 C 0.99717 0.92648 0.51766 0.0
C1294 C 0.99762 0.94622 0.5407 0.0
C1295 C 1.00744 0.89119 0.53344 0.0
C1296 C 0.01185 0.88677 0.45458 0.0
C1297 C 1.00325 0.87549 0.58572 0.0
C1298 C 0.99805 0.87896 0.6694 0.0
C1299 C 0.9826 0.89152 0.68942 0.0
C1300 C 0.97816 0.89513 0.76842 0.0
C1301 C 0.98892 0.8861 0.828 0.0
C1302 C 1.00408 0.87335 0.80869 0.0
C1303 C 1.00865 0.86976 0.72979 0.0
H1304 H 0.98548 0.88892 0.88912 0.0
H1305 H 0.0285 0.85684 0.1207 0.0
H1306 H 0.74651 1.00413 0.50127 0.0
H1307 H 0.71637 1.01016 0.57631 0.0
H1308 H 0.68426 0.01534 0.35873 0.0
H1309 H 0.71414 1.01073 0.28493 0.0
H1310 H 0.66961 0.03957 0.45121 0.0
H1311 H 0.68468 0.96909 0.49063 0.0
H1312 H 0.70652 0.94265 0.53543 0.0
H1313 H 0.71116 0.9698 0.76261 0.0
H1314 H 0.68919 0.99627 0.71932 0.0
H1315 H 0.57307 1.01096 0.52456 0.0
H1316 H 0.60736 0.0117 0.48589 0.0
H1317 H 0.62456 0.01457 0.7294 0.0
H1318 H 0.59002 0.01384 0.76927 0.0
H1319 H 0.64871 0.99033 0.64856 0.0
H1320 H 0.62618 0.05545 0.61672 0.0
H1321 H 0.60393 0.08154 0.57288 0.0
H1322 H 0.61436 0.06599 0.33166 0.0
H1323 H 0.63646 0.0396 0.37407 0.0
C1324 C 0.73308 1.00699 0.46969 0.0
C1325 C 0.73282 1.00658 0.38682 0.0
C1326 C 0.7157 1.0101 0.51267 0.0
C1327 C 0.69764 0.01263 0.47374 0.0
C1328 C 0.69774 0.0133 0.39108 0.0
C1329 C 0.71498 1.01049 0.34855 0.0
C1330 C 0.67843 0.01411 0.51677 0.0
C1331 C 0.66509 0.02867 0.4939 0.0
C1332 C 0.67246 1.00054 0.57537 0.0
C1333 C 0.68538 0.98458 0.60178 0.0
C1334 C 0.69034 0.96934 0.55018 0.0
C1335 C 0.7027 0.95436 0.57535 0.0
C1336 C 0.71016 0.95451 0.65195 0.0
C1337 C 0.70528 0.96965 0.70353 0.0
C1338 C 0.69285 0.98461 0.67877 0.0
C1339 C 0.58406 0.01171 0.57033 0.0
C1340 C 0.57862 0.01246 0.65023 0.0
C1341 C 0.60377 0.01222 0.54795 0.0
C1342 C 0.61869 0.01356 0.60463 0.0
C1343 C 0.61337 0.01371 0.6846 0.0
C1344 C 0.59358 0.01332 0.70722 0.0
C1345 C 0.63969 0.01512 0.5795 0.0
C1346 C 0.65333 1.0013 0.60631 0.0
C1347 C 0.64597 0.02943 0.52457 0.0
C1348 C 0.63289 0.04545 0.49865 0.0
C1349 C 0.62365 0.05752 0.55433 0.0
C1350 C 0.61106 0.07237 0.52974 0.0
C1351 C 0.6077 0.0754 0.44954 0.0
C1352 C 0.61697 0.06362 0.39376 0.0
C1353 C 0.62955 0.04873 0.41805 0.0
H1354 H 0.59794 0.08689 0.43062 0.0
H1355 H 0.71976 0.94293 0.6713 0.0
H1356 H 0.48 0.73391 0.48624 0.0
H1357 H 0.48442 0.70254 0.55348 0.0
H1358 H 0.54375 0.70006 0.46947 0.0
H1359 H 0.53939 0.7316 0.40245 0.0
H1360 H 0.5198 0.66802 0.42362 0.0
H1361 H 0.53476 0.704 0.65907 0.0
H1362 H 0.52954 0.72702 0.76853 0.0
H1363 H 0.47938 0.69412 0.84349 0.0
H1364 H 0.48372 0.67137 0.73245 0.0
H1365 H 0.5402 0.57368 0.5665 0.0
H1366 H 0.54098 0.60852 0.53529 0.0
H1367 H 0.4906 0.61769 0.68346 0.0
H1368 H 0.49066 0.58301 0.71877 0.0
H1369 H 0.51111 0.64718 0.70075 0.0
H1370 H 0.49001 0.61563 0.46679 0.0
H1371 H 0.49043 0.5924 0.35576 0.0
H1372 H 0.54477 0.61676 0.27541 0.0
H1373 H 0.54482 0.63997 0.38661 0.0
C1374 C 0.49425 0.72706 0.48481 0.0
C1375 C 0.5094 0.73536 0.43948 0.0
C1376 C 0.49674 0.70906 0.52314 0.0
C1377 C 0.51441 0.69881 0.51664 0.0
C1378 C 0.53 0.70769 0.47579 0.0
C1379 C 0.52757 0.72584 0.43806 0.0
C1380 C 0.51565 0.67791 0.54262 0.0
C1381 C 0.51819 0.66352 0.48448 0.0
C1382 C 0.51256 0.67184 0.62152 0.0
C1383 C 0.50944 0.68608 0.68643 0.0
C1384 C 0.52236 0.70188 0.69775 0.0
C1385 C 0.51956 0.71489 0.76022 0.0
C1386 C 0.50403 0.71213 0.81252 0.0
C1387 C 0.49126 0.69637 0.80239 0.0
C1388 C 0.49386 0.68344 0.73955 0.0
C1389 C 0.5293 0.58313 0.59253 0.0
C1390 C 0.51529 0.57546 0.6447 0.0
C1391 C 0.52964 0.60313 0.57411 0.0
C1392 C 0.51551 0.61597 0.60494 0.0
C1393 C 0.50168 0.60832 0.65826 0.0
C1394 C 0.50167 0.58839 0.67836 0.0
C1395 C 0.51514 0.63724 0.58153 0.0
C1396 C 0.51268 0.65167 0.63985 0.0
C1397 C 0.51739 0.64342 0.50222 0.0
C1398 C 0.51753 0.62938 0.43561 0.0
C1399 C 0.50214 0.61592 0.42583 0.0
C1400 C 0.50227 0.60278 0.3628 0.0
C1401 C 0.51765 0.60306 0.30871 0.0
C1402 C 0.5329 0.61652 0.31745 0.0
C1403 C 0.53284 0.62968 0.38045 0.0
H1404 H 0.51772 0.59288 0.25991 0.0
H1405 H 0.50197 0.72214 0.86117 0.0
H1406 H 0.78876 0.49446 0.42305 0.0
H1407 H 0.82077 0.4909 0.48827 0.0
H1408 H 0.8366 0.54917 0.41547 0.0
H1409 H 0.80474 0.55306 0.35324 0.0
H1410 H 0.86382 0.51664 0.37046 0.0
H1411 H 0.82898 0.54467 0.59754 0.0
H1412 H 0.80002 0.54229 0.68313 0.0
H1413 H 0.81713 0.48462 0.75429 0.0
H1414 H 0.84603 0.48653 0.66775 0.0
H1415 H 0.95548 0.5378 0.52801 0.0
H1416 H 0.92121 0.53854 0.48871 0.0
H1417 H 0.90777 0.49428 0.6617 0.0
H1418 H 0.9419 0.49479 0.70564 0.0
H1419 H 0.87821 0.51502 0.65666 0.0
H1420 H 0.91345 0.48552 0.44896 0.0
H1421 H 0.93895 0.48115 0.34801 0.0
H1422 H 0.91939 0.53286 0.22879 0.0
H1423 H 0.89396 0.53772 0.32971 0.0
C1424 C 0.79885 0.50669 0.42303 0.0
C1425 C 0.7942 0.52398 0.38217 0.0
C1426 C 0.81722 0.50457 0.45959 0.0
C1427 C 0.83125 0.51967 0.45558 0.0
C1428 C 0.82618 0.53723 0.41848 0.0
C1429 C 0.80788 0.53944 0.38311 0.0
C1430 C 0.85152 0.5172 0.4867 0.0
C1431 C 0.86705 0.51647 0.43299 0.0
C1432 C 0.85566 0.51604 0.56805 0.0
C1433 C 0.83962 0.51574 0.62635 0.0
C1434 C 0.82662 0.53154 0.63196 0.0
C1435 C 0.81018 0.53024 0.68039 0.0
C1436 C 0.80675 0.51332 0.72439 0.0
C1437 C 0.81985 0.49774 0.72049 0.0
C1438 C 0.83628 0.49893 0.67181 0.0
C1439 C 0.94521 0.52826 0.55787 0.0
C1440 C 0.95152 0.51605 0.61919 0.0
C1441 C 0.92554 0.52854 0.53487 0.0
C1442 C 0.91171 0.51594 0.56995 0.0
C1443 C 0.91795 0.50408 0.63288 0.0
C1444 C 0.93756 0.50429 0.65777 0.0
C1445 C 0.89097 0.5151 0.54012 0.0
C1446 C 0.87524 0.51512 0.59397 0.0
C1447 C 0.88657 0.51489 0.45823 0.0
C1448 C 0.9019 0.51208 0.39738 0.0
C1449 C 0.91467 0.49604 0.40154 0.0
C1450 C 0.92911 0.49347 0.34428 0.0
C1451 C 0.93082 0.50675 0.28213 0.0
C1452 C 0.91807 0.52261 0.27703 0.0
C1453 C 0.90363 0.52527 0.33422 0.0
H1454 H 0.94199 0.50472 0.23784 0.0
H1455 H 0.79397 0.51231 0.7617 0.0
loop_
_geom_bond_atom_site_label_1
_geom_bond_atom_site_label_2
_geom_bond_distance
_geom_bond_site_symmetry_2
_ccdc_geom_bond_type
H0 C5 0.930 . S
H1 C8 0.930 . S
H2 C10 0.930 . S
H3 C4 1.016 . S
C4 H3 1.016 . S
C4 N11 1.286 . S
C5 H0 0.930 . S
C5 C6 1.397 . S
C5 C7 1.361 . S
C6 C5 1.397 . S
C6 C10 1.390 . S
C7 C5 1.361 . S
C7 C8 1.393 . S
C7 N11 1.413 . S
C8 H1 0.930 . S
C8 C7 1.393 . S
C8 C9 1.399 . S
C9 C8 1.399 . S
C9 C10 1.381 . S
C10 H2 0.930 . S
C10 C6 1.390 . S
C10 C9 1.381 . S
N11 C4 1.286 . S
N11 C7 1.413 . S
H12 C17 0.930 . S
H13 C20 0.930 . S
H14 C22 0.930 . S
H15 C16 1.035 . S
C16 H15 1.035 . S
C16 N23 1.262 1_655 S
C17 H12 0.930 . S
C17 C18 1.403 . S
C17 C19 1.361 . S
C18 C17 1.403 . S
C18 C22 1.387 1_455 S
C19 C17 1.361 . S
C19 C20 1.393 . S
C19 N23 1.413 . S
C20 H13 0.930 . S
C20 C19 1.393 . S
C20 C21 1.399 . S
C21 C20 1.399 . S
C21 C22 1.381 1_455 S
C22 H14 0.930 . S
C22 C18 1.387 1_655 S
C22 C21 1.381 1_655 S
N23 C16 1.262 1_455 S
N23 C19 1.413 . S
H24 C29 0.930 . S
H25 C32 0.930 . S
H26 C34 0.930 . S
H27 C28 1.037 . S
C28 H27 1.037 . S
C28 N35 1.259 1_565 S
C29 H24 0.930 . S
C29 C30 1.402 . S
C29 C31 1.361 . S
C30 C29 1.402 . S
C30 C34 1.387 1_545 S
C31 C29 1.361 . S
C31 C32 1.393 . S
C31 N35 1.413 . S
C32 H25 0.930 . S
C32 C31 1.393 . S
C32 C33 1.398 . S
C33 C32 1.398 . S
C33 C34 1.381 1_545 S
C34 H26 0.930 . S
C34 C30 1.387 1_565 S
C34 C33 1.381 1_565 S
N35 C28 1.259 1_545 S
N35 C31 1.413 . S
H36 C41 0.930 . S
H37 C44 0.930 . S
H38 C46 0.930 . S
H39 C40 1.016 . S
C40 H39 1.016 . S
C40 N47 1.286 . S
C41 H36 0.930 . S
C41 C42 1.397 . S
C41 C43 1.361 . S
C42 C41 1.397 . S
C42 C46 1.390 . S
C43 C41 1.361 . S
C43 C44 1.393 . S
C43 N47 1.413 . S
C44 H37 0.930 . S
C44 C43 1.393 . S
C44 C45 1.399 . S
C45 C44 1.399 . S
C45 C46 1.381 . S
C46 H38 0.930 . S
C46 C42 1.390 . S
C46 C45 1.381 . S
N47 C40 1.286 . S
N47 C43 1.413 . S
H48 C53 0.930 . S
H49 C56 0.930 . S
H50 C58 0.929 1_556 S
H51 C52 1.016 . S
C52 H51 1.016 . S
C52 N59 1.286 . S
C53 H48 0.930 . S
C53 C54 1.397 . S
C53 C55 1.361 1_556 S
C54 C53 1.397 . S
C54 C58 1.390 1_556 S
C55 C53 1.361 1_554 S
C55 C56 1.393 . S
C55 N59 1.413 . S
C56 H49 0.930 . S
C56 C55 1.393 . S
C56 C57 1.399 . S
C57 C56 1.399 . S
C57 C58 1.381 . S
C58 H50 0.929 1_554 S
C58 C54 1.390 1_554 S
C58 C57 1.381 . S
N59 C52 1.286 . S
N59 C55 1.413 . S
H60 C65 0.930 . S
H61 C68 0.930 . S
H62 C70 0.932 1_556 S
H63 C64 1.011 1_655 S
C64 H63 1.011 1_455 S
C64 N71 1.286 . S
C65 H60 0.930 . S
C65 C66 1.397 . S
C65 C67 1.361 1_556 S
C66 C65 1.397 . S
C66 C70 1.390 1_556 S
C67 C65 1.361 1_554 S
C67 C68 1.393 . S
C67 N71 1.413 . S
C68 H61 0.930 . S
C68 C67 1.393 . S
C68 C69 1.399 . S
C69 C68 1.399 . S
C69 C70 1.381 . S
C70 H62 0.932 1_554 S
C70 C66 1.390 1_554 S
C70 C69 1.381 . S
N71 C64 1.286 . S
N71 C67 1.413 . S
H72 C77 0.930 . S
H73 C80 0.930 . S
H74 C82 0.931 1_556 S
H75 C76 1.011 1_565 S
C76 H75 1.011 1_545 S
C76 N83 1.286 . S
C77 H72 0.930 . S
C77 C78 1.397 . S
C77 C79 1.361 1_556 S
C78 C77 1.397 . S
C78 C82 1.390 1_556 S
C79 C77 1.361 1_554 S
C79 C80 1.393 . S
C79 N83 1.413 . S
C80 H73 0.930 . S
C80 C79 1.393 . S
C80 C81 1.399 . S
C81 C80 1.399 . S
C81 C82 1.381 . S
C82 H74 0.931 1_554 S
C82 C78 1.390 1_554 S
C82 C81 1.381 . S
N83 C76 1.286 . S
N83 C79 1.413 . S
H84 C89 0.930 . S
H85 C92 0.930 . S
H86 C94 0.929 1_556 S
H87 C88 1.016 . S
C88 H87 1.016 . S
C88 N95 1.286 . S
C89 H84 0.930 . S
C89 C90 1.397 . S
C89 C91 1.361 1_556 S
C90 C89 1.397 . S
C90 C94 1.390 1_556 S
C91 C89 1.361 1_554 S
C91 C92 1.393 . S
C91 N95 1.413 . S
C92 H85 0.930 . S
C92 C91 1.393 . S
C92 C93 1.399 . S
C93 C92 1.399 . S
C93 C94 1.381 . S
C94 H86 0.929 1_554 S
C94 C90 1.390 1_554 S
C94 C93 1.381 . S
N95 C88 1.286 . S
N95 C91 1.413 . S
Ho96 C99 2.811 . S
Ho96 O116 2.322 . S
Ho96 O118 2.378 . S
Ho96 O119 2.543 . S
Ho96 O120 2.381 . S
Ho96 O121 2.669 1_565 S
Ho96 O123 2.346 1_565 S
Ho96 O127 2.305 1_455 S
Ho97 C108 2.811 . S
Ho97 O117 2.346 1_545 S
Ho97 O121 2.305 1_655 S
Ho97 O122 2.322 . S
Ho97 O124 2.378 . S
Ho97 O125 2.524 1_655 S
Ho97 O126 2.381 . S
Ho97 O127 2.669 1_545 S
C98 O116 1.259 1_655 S
C98 O117 1.268 . S
C99 Ho96 2.811 . S
C99 C100 1.488 . S
C99 O118 1.215 . S
C99 O119 1.331 . S
C100 C99 1.488 . S
C100 C101 1.348 . S
C100 C105 1.413 . S
C101 C100 1.348 . S
C101 C102 1.442 . S
C101 H128 0.930 1_455 S
C102 C101 1.442 . S
C102 C103 1.381 . S
C102 H129 0.931 1_455 S
C103 C102 1.381 . S
C103 C104 1.321 . S
C104 C103 1.321 . S
C104 C105 1.403 . S
C104 H130 0.934 . S
C105 C100 1.413 . S
C105 C104 1.403 . S
C105 H131 0.930 . S
C106 O120 1.275 1_545 S
C106 O121 1.256 . S
C107 O122 1.259 1_455 S
C107 O123 1.268 . S
C108 Ho97 2.811 . S
C108 C109 1.488 . S
C108 O124 1.215 . S
C108 O125 1.289 1_655 S
C109 C108 1.488 . S
C109 C110 1.324 1_655 S
C109 C114 1.413 . S
C110 C109 1.324 1_455 S
C110 C111 1.439 1_455 S
C110 H132 0.958 . S
C111 C110 1.439 1_655 S
C111 C112 1.381 . S
C111 H133 0.931 1_655 S
C112 C111 1.381 . S
C112 C113 1.321 . S
C113 C112 1.321 . S
C113 C114 1.403 . S
C113 H134 0.934 . S
C114 C109 1.413 . S
C114 C113 1.403 . S
C114 H135 0.930 . S
C115 O126 1.275 . S
C115 O127 1.256 1_545 S
O116 Ho96 2.322 . S
O116 C98 1.259 1_455 S
O117 Ho97 2.346 1_565 S
O117 C98 1.268 . S
O118 Ho96 2.378 . S
O118 C99 1.215 . S
O119 Ho96 2.543 . S
O119 C99 1.331 . S
O120 Ho96 2.381 . S
O120 C106 1.275 1_565 S
O121 Ho96 2.669 1_545 S
O121 Ho97 2.305 1_455 S
O121 C106 1.256 . S
O122 Ho97 2.322 . S
O122 C107 1.259 1_655 S
O123 Ho96 2.346 1_545 S
O123 C107 1.268 . S
O124 Ho97 2.378 . S
O124 C108 1.215 . S
O125 Ho97 2.524 1_455 S
O125 C108 1.289 1_455 S
O126 Ho97 2.381 . S
O126 C115 1.275 . S
O127 Ho96 2.305 1_655 S
O127 Ho97 2.669 1_565 S
O127 C115 1.256 1_565 S
H128 C101 0.930 1_655 S
H129 C102 0.931 1_655 S
H130 C104 0.934 . S
H131 C105 0.930 . S
H132 C110 0.958 . S
H133 C111 0.931 1_455 S
H134 C113 0.934 . S
H135 C114 0.930 . S
Ho136 C139 2.811 . S
Ho136 O156 2.322 . S
Ho136 O158 2.378 . S
Ho136 O159 2.541 . S
Ho136 O160 2.381 . S
Ho136 O161 2.669 . S
Ho136 O163 2.346 . S
Ho136 O167 2.305 1_545 S
Ho137 C148 2.811 . S
Ho137 O157 2.346 . S
Ho137 O161 2.305 1_565 S
Ho137 O162 2.322 . S
Ho137 O164 2.378 . S
Ho137 O165 2.524 1_565 S
Ho137 O166 2.381 . S
Ho137 O167 2.669 . S
C138 O156 1.259 1_565 S
C138 O157 1.268 . S
C139 Ho136 2.811 . S
C139 C140 1.488 . S
C139 O158 1.215 . S
C139 O159 1.327 . S
C140 C139 1.488 . S
C140 C141 1.348 . S
C140 C145 1.413 . S
C141 C140 1.348 . S
C141 C142 1.442 . S
C141 H168 0.930 1_545 S
C142 C141 1.442 . S
C142 C143 1.381 . S
C142 H169 0.931 1_545 S
C143 C142 1.381 . S
C143 C144 1.321 . S
C144 C143 1.321 . S
C144 C145 1.403 . S
C144 H170 0.934 . S
C145 C140 1.413 . S
C145 C144 1.403 . S
C145 H171 0.930 . S
C146 O160 1.275 . S
C146 O161 1.256 . S
C147 O162 1.259 1_545 S
C147 O163 1.268 . S
C148 Ho137 2.811 . S
C148 C149 1.488 . S
C148 O164 1.215 . S
C148 O165 1.289 1_565 S
C149 C148 1.488 . S
C149 C150 1.326 1_565 S
C149 C154 1.413 . S
C150 C149 1.326 1_545 S
C150 C151 1.439 1_545 S
C150 H172 0.955 . S
C151 C150 1.439 1_565 S
C151 C152 1.381 . S
C151 H173 0.931 1_565 S
C152 C151 1.381 . S
C152 C153 1.321 . S
C153 C152 1.321 . S
C153 C154 1.403 . S
C153 H174 0.934 . S
C154 C149 1.413 . S
C154 C153 1.403 . S
C154 H175 0.930 . S
C155 O166 1.275 . S
C155 O167 1.256 . S
O156 Ho136 2.322 . S
O156 C138 1.259 1_545 S
O157 Ho137 2.346 . S
O157 C138 1.268 . S
O158 Ho136 2.378 . S
O158 C139 1.215 . S
O159 Ho136 2.541 . S
O159 C139 1.327 . S
O160 Ho136 2.381 . S
O160 C146 1.275 . S
O161 Ho136 2.669 . S
O161 Ho137 2.305 1_545 S
O161 C146 1.256 . S
O162 Ho137 2.322 . S
O162 C147 1.259 1_565 S
O163 Ho136 2.346 . S
O163 C147 1.268 . S
O164 Ho137 2.378 . S
O164 C148 1.215 . S
O165 Ho137 2.524 1_545 S
O165 C148 1.289 1_545 S
O166 Ho137 2.381 . S
O166 C155 1.275 . S
O167 Ho136 2.305 1_565 S
O167 Ho137 2.669 . S
O167 C155 1.256 . S
H168 C141 0.930 1_565 S
H169 C142 0.931 1_565 S
H170 C144 0.934 . S
H171 C145 0.930 . S
H172 C150 0.955 . S
H173 C151 0.931 1_545 S
H174 C153 0.934 . S
H175 C154 0.930 . S
Ho176 C179 2.811 . S
Ho176 O196 2.322 . S
Ho176 O198 2.378 . S
Ho176 O199 2.524 . S
Ho176 O200 2.381 . S
Ho176 O201 2.669 . S
Ho176 O203 2.346 . S
Ho176 O207 2.305 . S
Ho177 C188 2.811 . S
Ho177 O197 2.346 . S
Ho177 O201 2.305 . S
Ho177 O202 2.322 . S
Ho177 O204 2.378 . S
Ho177 O205 2.524 . S
Ho177 O206 2.381 . S
Ho177 O207 2.669 . S
C178 O196 1.259 . S
C178 O197 1.268 . S
C179 Ho176 2.811 . S
C179 C180 1.488 . S
C179 O198 1.215 . S
C179 O199 1.289 . S
C180 C179 1.488 . S
C180 C181 1.348 . S
C180 C185 1.413 . S
C181 C180 1.348 . S
C181 C182 1.442 . S
C181 H208 0.930 . S
C182 C181 1.442 . S
C182 C183 1.381 . S
C182 H209 0.931 . S
C183 C182 1.381 . S
C183 C184 1.321 . S
C184 C183 1.321 . S
C184 C185 1.403 . S
C184 H210 0.934 . S
C185 C180 1.413 . S
C185 C184 1.403 . S
C185 H211 0.930 . S
C186 O200 1.275 . S
C186 O201 1.256 . S
C187 O202 1.259 . S
C187 O203 1.268 . S
C188 Ho177 2.811 . S
C188 C189 1.488 . S
C188 O204 1.215 . S
C188 O205 1.289 . S
C189 C188 1.488 . S
C189 C190 1.348 . S
C189 C194 1.413 . S
C190 C189 1.348 . S
C190 C191 1.442 . S
C190 H212 0.930 . S
C191 C190 1.442 . S
C191 C192 1.381 . S
C191 H213 0.931 . S
C192 C191 1.381 . S
C192 C193 1.321 . S
C193 C192 1.321 . S
C193 C194 1.403 . S
C193 H214 0.934 . S
C194 C189 1.413 . S
C194 C193 1.403 . S
C194 H215 0.930 . S
C195 O206 1.275 . S
C195 O207 1.256 . S
O196 Ho176 2.322 . S
O196 C178 1.259 . S
O197 Ho177 2.346 . S
O197 C178 1.268 . S
O198 Ho176 2.378 . S
O198 C179 1.215 . S
O199 Ho176 2.524 . S
O199 C179 1.289 . S
O200 Ho176 2.381 . S
O200 C186 1.275 . S
O201 Ho176 2.669 . S
O201 Ho177 2.305 . S
O201 C186 1.256 . S
O202 Ho177 2.322 . S
O202 C187 1.259 . S
O203 Ho176 2.346 . S
O203 C187 1.268 . S
O204 Ho177 2.378 . S
O204 C188 1.215 . S
O205 Ho177 2.524 . S
O205 C188 1.289 . S
O206 Ho177 2.381 . S
O206 C195 1.275 . S
O207 Ho176 2.305 . S
O207 Ho177 2.669 . S
O207 C195 1.256 . S
H208 C181 0.930 . S
H209 C182 0.931 . S
H210 C184 0.934 . S
H211 C185 0.930 . S
H212 C190 0.930 . S
H213 C191 0.931 . S
H214 C193 0.934 . S
H215 C194 0.930 . S
Ho216 C219 2.811 . S
Ho216 O236 2.322 . S
Ho216 O238 2.378 . S
Ho216 O239 2.524 . S
Ho216 O240 2.381 . S
Ho216 O241 2.669 1_655 S
Ho216 O243 2.346 1_655 S
Ho216 O247 2.305 . S
Ho217 C228 2.811 . S
Ho217 O237 2.346 1_455 S
Ho217 O241 2.305 . S
Ho217 O242 2.322 . S
Ho217 O244 2.378 . S
Ho217 O245 2.524 . S
Ho217 O246 2.381 . S
Ho217 O247 2.669 1_455 S
C218 O236 1.259 . S
C218 O237 1.268 . S
C219 Ho216 2.811 . S
C219 C220 1.488 . S
C219 O238 1.215 . S
C219 O239 1.289 . S
C220 C219 1.488 . S
C220 C221 1.348 . S
C220 C225 1.413 . S
C221 C220 1.348 . S
C221 C222 1.442 . S
C221 H248 0.930 . S
C222 C221 1.442 . S
C222 C223 1.381 . S
C222 H249 0.931 . S
C223 C222 1.381 . S
C223 C224 1.321 . S
C224 C223 1.321 . S
C224 C225 1.403 . S
C224 H250 0.934 . S
C225 C220 1.413 . S
C225 C224 1.403 . S
C225 H251 0.930 . S
C226 O240 1.275 1_455 S
C226 O241 1.256 . S
C227 O242 1.259 . S
C227 O243 1.268 . S
C228 Ho217 2.811 . S
C228 C229 1.488 . S
C228 O244 1.215 . S
C228 O245 1.289 . S
C229 C228 1.488 . S
C229 C230 1.348 . S
C229 C234 1.413 . S
C230 C229 1.348 . S
C230 C231 1.442 . S
C230 H252 0.930 . S
C231 C230 1.442 . S
C231 C232 1.381 . S
C231 H253 0.931 . S
C232 C231 1.381 . S
C232 C233 1.321 . S
C233 C232 1.321 . S
C233 C234 1.403 . S
C233 H254 0.934 . S
C234 C229 1.413 . S
C234 C233 1.403 . S
C234 H255 0.930 . S
C235 O246 1.275 . S
C235 O247 1.256 1_455 S
O236 Ho216 2.322 . S
O236 C218 1.259 . S
O237 Ho217 2.346 1_655 S
O237 C218 1.268 . S
O238 Ho216 2.378 . S
O238 C219 1.215 . S
O239 Ho216 2.524 . S
O239 C219 1.289 . S
O240 Ho216 2.381 . S
O240 C226 1.275 1_655 S
O241 Ho216 2.669 1_455 S
O241 Ho217 2.305 . S
O241 C226 1.256 . S
O242 Ho217 2.322 . S
O242 C227 1.259 . S
O243 Ho216 2.346 1_455 S
O243 C227 1.268 . S
O244 Ho217 2.378 . S
O244 C228 1.215 . S
O245 Ho217 2.524 . S
O245 C228 1.289 . S
O246 Ho217 2.381 . S
O246 C235 1.275 . S
O247 Ho216 2.305 . S
O247 Ho217 2.669 1_655 S
O247 C235 1.256 1_655 S
H248 C221 0.930 . S
H249 C222 0.931 . S
H250 C224 0.934 . S
H251 C225 0.930 . S
H252 C230 0.930 . S
H253 C231 0.931 . S
H254 C233 0.934 . S
H255 C234 0.930 . S
H256 C274 0.951 . S
H257 C276 0.951 . S
H258 C278 0.950 . S
H259 C279 0.950 . S
H260 C281 0.950 . S
H261 C284 0.950 . S
H262 C285 0.950 1_545 S
H263 C287 0.950 . S
H264 C288 0.950 . S
H265 C289 0.951 . S
H266 C291 0.951 . S
H267 C293 0.950 . S
H268 C294 0.950 . S
H269 C296 0.950 . S
H270 C299 0.950 1_565 S
H271 C300 0.950 . S
H272 C302 0.950 . S
H273 C303 0.950 . S
C274 H256 0.951 . S
C274 C275 1.366 1_565 S
C274 C276 1.388 . S
C275 C274 1.366 1_545 S
C275 C279 1.385 . S
C276 H257 0.951 . S
C276 C274 1.388 . S
C276 C277 1.366 1_565 S
C277 C276 1.366 1_545 S
C277 C278 1.414 . S
C277 C280 1.499 . S
C278 H258 0.950 . S
C278 C277 1.414 . S
C278 C279 1.374 . S
C279 H259 0.950 . S
C279 C275 1.385 . S
C279 C278 1.374 . S
C280 C277 1.499 . S
C280 C281 1.373 . S
C280 C282 1.389 1_545 S
C281 H260 0.950 . S
C281 C280 1.373 . S
C281 C297 1.377 . S
C282 C280 1.389 1_565 S
C282 C283 1.524 . S
C282 C296 1.377 . S
C283 C282 1.524 . S
C283 C284 1.397 1_565 S
C283 C288 1.363 . S
C284 H261 0.950 . S
C284 C283 1.397 1_545 S
C284 C285 1.334 1_545 S
C285 H262 0.950 1_565 S
C285 C284 1.334 1_565 S
C285 C286 1.287 . S
C286 C285 1.287 . S
C286 C287 1.524 . S
C286 H305 0.913 1_554 S
C287 H263 0.950 . S
C287 C286 1.524 . S
C287 C288 1.415 . S
C288 H264 0.950 . S
C288 C283 1.363 . S
C288 C287 1.415 . S
C289 H265 0.951 . S
C289 C290 1.366 . S
C289 C291 1.388 . S
C290 C289 1.366 . S
C290 C294 1.385 1_545 S
C291 H266 0.951 . S
C291 C289 1.388 . S
C291 C292 1.366 . S
C292 C291 1.366 . S
C292 C293 1.414 1_545 S
C292 C295 1.499 . S
C293 H267 0.950 . S
C293 C292 1.414 1_565 S
C293 C294 1.374 . S
C294 H268 0.950 . S
C294 C290 1.385 1_565 S
C294 C293 1.374 . S
C295 C292 1.499 . S
C295 C296 1.373 1_545 S
C295 C297 1.389 . S
C296 H269 0.950 . S
C296 C282 1.377 . S
C296 C295 1.373 1_565 S
C297 C281 1.377 . S
C297 C295 1.389 . S
C297 C298 1.524 . S
C298 C297 1.524 . S
C298 C299 1.397 . S
C298 C303 1.363 . S
C299 H270 0.950 1_545 S
C299 C298 1.397 . S
C299 C300 1.334 . S
C300 H271 0.950 . S
C300 C299 1.334 . S
C300 C301 1.287 . S
C301 C300 1.287 . S
C301 C302 1.524 . S
C301 H304 0.999 . S
C302 H272 0.950 . S
C302 C301 1.524 . S
C302 C303 1.415 . S
C303 H273 0.950 . S
C303 C298 1.363 . S
C303 C302 1.415 . S
H304 C301 0.999 . S
H305 C286 0.913 1_556 S
H306 C324 0.951 . S
H307 C326 0.951 . S
H308 C328 0.950 . S
H309 C329 0.950 . S
H310 C331 0.950 . S
H311 C334 0.950 . S
H312 C335 0.950 . S
H313 C337 0.950 . S
H314 C338 0.950 . S
H315 C339 0.951 . S
H316 C341 0.951 . S
H317 C343 0.950 . S
H318 C344 0.950 . S
H319 C346 0.950 . S
H320 C349 0.950 . S
H321 C350 0.950 . S
H322 C352 0.950 . S
H323 C353 0.950 . S
C324 H306 0.951 . S
C324 C325 1.366 . S
C324 C326 1.388 . S
C325 C324 1.366 . S
C325 C329 1.385 . S
C326 H307 0.951 . S
C326 C324 1.388 . S
C326 C327 1.366 . S
C327 C326 1.366 . S
C327 C328 1.414 . S
C327 C330 1.499 . S
C328 H308 0.950 . S
C328 C327 1.414 . S
C328 C329 1.374 . S
C329 H309 0.950 . S
C329 C325 1.385 . S
C329 C328 1.374 . S
C330 C327 1.499 . S
C330 C331 1.373 . S
C330 C332 1.389 . S
C331 H310 0.950 . S
C331 C330 1.373 . S
C331 C347 1.377 . S
C332 C330 1.389 . S
C332 C333 1.524 . S
C332 C346 1.377 . S
C333 C332 1.524 . S
C333 C334 1.397 . S
C333 C338 1.363 . S
C334 H311 0.950 . S
C334 C333 1.397 . S
C334 C335 1.334 . S
C335 H312 0.950 . S
C335 C334 1.334 . S
C335 C336 1.287 . S
C336 C335 1.287 . S
C336 C337 1.524 . S
C336 H355 0.913 . S
C337 H313 0.950 . S
C337 C336 1.524 . S
C337 C338 1.415 . S
C338 H314 0.950 . S
C338 C333 1.363 . S
C338 C337 1.415 . S
C339 H315 0.951 . S
C339 C340 1.366 . S
C339 C341 1.388 . S
C340 C339 1.366 . S
C340 C344 1.385 . S
C341 H316 0.951 . S
C341 C339 1.388 . S
C341 C342 1.366 . S
C342 C341 1.366 . S
C342 C343 1.414 . S
C342 C345 1.499 . S
C343 H317 0.950 . S
C343 C342 1.414 . S
C343 C344 1.374 . S
C344 H318 0.950 . S
C344 C340 1.385 . S
C344 C343 1.374 . S
C345 C342 1.499 . S
C345 C346 1.373 . S
C345 C347 1.389 . S
C346 H319 0.950 . S
C346 C332 1.377 . S
C346 C345 1.373 . S
C347 C331 1.377 . S
C347 C345 1.389 . S
C347 C348 1.524 . S
C348 C347 1.524 . S
C348 C349 1.397 . S
C348 C353 1.363 . S
C349 H320 0.950 . S
C349 C348 1.397 . S
C349 C350 1.334 . S
C350 H321 0.950 . S
C350 C349 1.334 . S
C350 C351 1.287 . S
C351 C350 1.287 . S
C351 C352 1.524 . S
C351 H354 0.999 . S
C352 H322 0.950 . S
C352 C351 1.524 . S
C352 C353 1.415 . S
C353 H323 0.950 . S
C353 C348 1.363 . S
C353 C352 1.415 . S
H354 C351 0.999 . S
H355 C336 0.913 . S
H356 C374 0.951 . S
H357 C376 0.951 . S
H358 C378 0.950 . S
H359 C379 0.950 . S
H360 C381 0.950 . S
H361 C384 0.950 . S
H362 C385 0.950 . S
H363 C387 0.950 . S
H364 C388 0.950 . S
H365 C389 0.951 . S
H366 C391 0.951 . S
H367 C393 0.950 . S
H368 C394 0.950 . S
H369 C396 0.950 . S
H370 C399 0.950 . S
H371 C400 0.950 . S
H372 C402 0.950 . S
H373 C403 0.950 . S
C374 H356 0.951 . S
C374 C375 1.366 . S
C374 C376 1.388 . S
C375 C374 1.366 . S
C375 C379 1.385 . S
C376 H357 0.951 . S
C376 C374 1.388 . S
C376 C377 1.366 . S
C377 C376 1.366 . S
C377 C378 1.414 . S
C377 C380 1.499 . S
C378 H358 0.950 . S
C378 C377 1.414 . S
C378 C379 1.374 . S
C379 H359 0.950 . S
C379 C375 1.385 . S
C379 C378 1.374 . S
C380 C377 1.499 . S
C380 C381 1.373 . S
C380 C382 1.389 . S
C381 H360 0.950 . S
C381 C380 1.373 . S
C381 C397 1.377 . S
C382 C380 1.389 . S
C382 C383 1.524 . S
C382 C396 1.377 . S
C383 C382 1.524 . S
C383 C384 1.397 . S
C383 C388 1.363 . S
C384 H361 0.950 . S
C384 C383 1.397 . S
C384 C385 1.334 . S
C385 H362 0.950 . S
C385 C384 1.334 . S
C385 C386 1.287 . S
C386 C385 1.287 . S
C386 C387 1.524 . S
C386 H405 0.913 . S
C387 H363 0.950 . S
C387 C386 1.524 . S
C387 C388 1.415 . S
C388 H364 0.950 . S
C388 C383 1.363 . S
C388 C387 1.415 . S
C389 H365 0.951 . S
C389 C390 1.366 . S
C389 C391 1.388 . S
C390 C389 1.366 . S
C390 C394 1.385 . S
C391 H366 0.951 . S
C391 C389 1.388 . S
C391 C392 1.366 . S
C392 C391 1.366 . S
C392 C393 1.414 . S
C392 C395 1.499 . S
C393 H367 0.950 . S
C393 C392 1.414 . S
C393 C394 1.374 . S
C394 H368 0.950 . S
C394 C390 1.385 . S
C394 C393 1.374 . S
C395 C392 1.499 . S
C395 C396 1.373 . S
C395 C397 1.389 . S
C396 H369 0.950 . S
C396 C382 1.377 . S
C396 C395 1.373 . S
C397 C381 1.377 . S
C397 C395 1.389 . S
C397 C398 1.524 . S
C398 C397 1.524 . S
C398 C399 1.397 . S
C398 C403 1.363 . S
C399 H370 0.950 . S
C399 C398 1.397 . S
C399 C400 1.334 . S
C400 H371 0.950 . S
C400 C399 1.334 . S
C400 C401 1.287 . S
C401 C400 1.287 . S
C401 C402 1.524 . S
C401 H404 0.999 . S
C402 H372 0.950 . S
C402 C401 1.524 . S
C402 C403 1.415 . S
C403 H373 0.950 . S
C403 C398 1.363 . S
C403 C402 1.415 . S
H404 C401 0.999 . S
H405 C386 0.913 . S
H406 C424 0.951 . S
H407 C426 0.951 . S
H408 C428 0.950 . S
H409 C429 0.950 . S
H410 C431 0.950 . S
H411 C434 0.950 . S
H412 C435 0.950 . S
H413 C437 0.950 . S
H414 C438 0.950 . S
H415 C439 0.951 . S
H416 C441 0.951 . S
H417 C443 0.950 . S
H418 C444 0.950 . S
H419 C446 0.950 . S
H420 C449 0.950 1_455 S
H421 C450 0.950 . S
H422 C452 0.950 . S
H423 C453 0.950 . S
C424 H406 0.951 . S
C424 C425 1.366 . S
C424 C426 1.388 . S
C425 C424 1.366 . S
C425 C429 1.385 1_455 S
C426 H407 0.951 . S
C426 C424 1.388 . S
C426 C427 1.366 . S
C427 C426 1.366 . S
C427 C428 1.414 1_455 S
C427 C430 1.499 . S
C428 H408 0.950 . S
C428 C427 1.414 1_655 S
C428 C429 1.374 . S
C429 H409 0.950 . S
C429 C425 1.385 1_655 S
C429 C428 1.374 . S
C430 C427 1.499 . S
C430 C431 1.373 1_455 S
C430 C432 1.389 . S
C431 H410 0.950 . S
C431 C430 1.373 1_655 S
C431 C447 1.377 . S
C432 C430 1.389 . S
C432 C433 1.524 . S
C432 C446 1.377 . S
C433 C432 1.524 . S
C433 C434 1.397 . S
C433 C438 1.363 . S
C434 H411 0.950 . S
C434 C433 1.397 . S
C434 C435 1.334 . S
C435 H412 0.950 . S
C435 C434 1.334 . S
C435 C436 1.287 . S
C436 C435 1.287 . S
C436 C437 1.524 . S
C436 H455 0.913 . S
C437 H413 0.950 . S
C437 C436 1.524 . S
C437 C438 1.415 . S
C438 H414 0.950 . S
C438 C433 1.363 . S
C438 C437 1.415 . S
C439 H415 0.951 . S
C439 C440 1.366 1_655 S
C439 C441 1.388 . S
C440 C439 1.366 1_455 S
C440 C444 1.385 . S
C441 H416 0.951 . S
C441 C439 1.388 . S
C441 C442 1.366 1_655 S
C442 C441 1.366 1_455 S
C442 C443 1.414 . S
C442 C445 1.499 . S
C443 H417 0.950 . S
C443 C442 1.414 . S
C443 C444 1.374 . S
C444 H418 0.950 . S
C444 C440 1.385 . S
C444 C443 1.374 . S
C445 C442 1.499 . S
C445 C446 1.373 . S
C445 C447 1.389 1_455 S
C446 H419 0.950 . S
C446 C432 1.377 . S
C446 C445 1.373 . S
C447 C431 1.377 . S
C447 C445 1.389 1_655 S
C447 C448 1.524 . S
C448 C447 1.524 . S
C448 C449 1.397 . S
C448 C453 1.363 . S
C449 H420 0.950 1_655 S
C449 C448 1.397 . S
C449 C450 1.334 . S
C450 H421 0.950 . S
C450 C449 1.334 . S
C450 C451 1.287 . S
C451 C450 1.287 . S
C451 C452 1.524 . S
C451 H454 0.999 . S
C452 H422 0.950 . S
C452 C451 1.524 . S
C452 C453 1.415 . S
C453 H423 0.950 . S
C453 C448 1.363 . S
C453 C452 1.415 . S
H454 C451 0.999 . S
H455 C436 0.913 . S
H456 C474 0.951 . S
H457 C476 0.951 . S
H458 C478 0.950 . S
H459 C479 0.950 . S
H460 C481 0.950 . S
H461 C484 0.958 . S
H462 C485 0.950 1_545 S
H463 C487 0.950 . S
H464 C488 0.950 . S
H465 C489 0.951 . S
H466 C491 0.951 . S
H467 C493 0.950 . S
H468 C494 0.950 . S
H469 C496 0.950 . S
H470 C499 0.955 1_565 S
H471 C500 0.950 1_565 S
H472 C502 0.950 . S
H473 C503 0.950 . S
C474 H456 0.951 . S
C474 C475 1.378 . S
C474 C476 1.388 . S
C475 C474 1.378 . S
C475 C479 1.372 1_565 S
C476 H457 0.951 . S
C476 C474 1.388 . S
C476 C477 1.358 1_565 S
C477 C476 1.358 1_545 S
C477 C478 1.421 . S
C477 C480 1.498 . S
C478 H458 0.950 . S
C478 C477 1.421 . S
C478 C479 1.374 . S
C479 H459 0.950 . S
C479 C475 1.372 1_545 S
C479 C478 1.374 . S
C480 C477 1.498 . S
C480 C481 1.394 . S
C480 C482 1.368 1_545 S
C481 H460 0.950 . S
C481 C480 1.394 . S
C481 C497 1.377 1_554 S
C482 C480 1.368 1_565 S
C482 C483 1.524 . S
C482 C496 1.377 . S
C483 C482 1.524 . S
C483 C484 1.391 1_565 S
C483 C488 1.363 . S
C484 H461 0.958 . S
C484 C483 1.391 1_545 S
C484 C485 1.332 1_545 S
C485 H462 0.950 1_565 S
C485 C484 1.332 1_565 S
C485 C486 1.287 . S
C486 C485 1.287 . S
C486 C487 1.524 . S
C486 H505 0.913 . S
C487 H463 0.950 . S
C487 C486 1.524 . S
C487 C488 1.415 . S
C488 H464 0.950 . S
C488 C483 1.363 . S
C488 C487 1.415 . S
C489 H465 0.951 . S
C489 C490 1.393 . S
C489 C491 1.388 . S
C490 C489 1.393 . S
C490 C494 1.357 1_545 S
C491 H466 0.951 . S
C491 C489 1.388 . S
C491 C492 1.361 . S
C492 C491 1.361 . S
C492 C493 1.419 1_545 S
C492 C495 1.498 1_545 S
C493 H467 0.950 . S
C493 C492 1.419 1_565 S
C493 C494 1.374 . S
C494 H468 0.950 . S
C494 C490 1.357 1_565 S
C494 C493 1.374 . S
C495 C492 1.498 1_565 S
C495 C496 1.388 1_556 S
C495 C497 1.374 1_565 S
C496 H469 0.950 . S
C496 C482 1.377 . S
C496 C495 1.388 1_554 S
C497 C481 1.377 1_556 S
C497 C495 1.374 1_545 S
C497 C498 1.524 . S
C498 C497 1.524 . S
C498 C499 1.393 . S
C498 C503 1.363 . S
C499 H470 0.955 1_545 S
C499 C498 1.393 . S
C499 C500 1.333 . S
C500 H471 0.950 1_545 S
C500 C499 1.333 . S
C500 C501 1.287 . S
C501 C500 1.287 . S
C501 C502 1.524 . S
C501 H504 0.999 . S
C502 H472 0.950 . S
C502 C501 1.524 . S
C502 C503 1.415 . S
C503 H473 0.950 . S
C503 C498 1.363 . S
C503 C502 1.415 . S
H504 C501 0.999 . S
H505 C486 0.913 . S
H506 C524 0.951 . S
H507 C526 0.951 . S
H508 C528 0.950 . S
H509 C529 0.950 . S
H510 C531 0.950 . S
H511 C534 0.950 . S
H512 C535 0.950 . S
H513 C537 0.950 . S
H514 C538 0.950 . S
H515 C539 0.951 . S
H516 C541 0.951 1_554 S
H517 C543 0.950 . S
H518 C544 0.950 . S
H519 C546 0.950 . S
H520 C549 0.950 1_556 S
H521 C550 0.950 1_556 S
H522 C552 0.950 . S
H523 C553 0.950 . S
C524 H506 0.951 . S
C524 C525 1.366 . S
C524 C526 1.388 . S
C525 C524 1.366 . S
C525 C529 1.385 . S
C526 H507 0.951 . S
C526 C524 1.388 . S
C526 C527 1.366 . S
C527 C526 1.366 . S
C527 C528 1.414 . S
C527 C530 1.499 . S
C528 H508 0.950 . S
C528 C527 1.414 . S
C528 C529 1.374 . S
C529 H509 0.950 . S
C529 C525 1.385 . S
C529 C528 1.374 . S
C530 C527 1.499 . S
C530 C531 1.373 . S
C530 C532 1.389 . S
C531 H510 0.950 . S
C531 C530 1.373 . S
C531 C547 1.377 . S
C532 C530 1.389 . S
C532 C533 1.524 . S
C532 C546 1.377 1_554 S
C533 C532 1.524 . S
C533 C534 1.397 . S
C533 C538 1.363 1_554 S
C534 H511 0.950 . S
C534 C533 1.397 . S
C534 C535 1.334 . S
C535 H512 0.950 . S
C535 C534 1.334 . S
C535 C536 1.287 . S
C536 C535 1.287 . S
C536 C537 1.524 1_554 S
C536 H555 0.913 . S
C537 H513 0.950 . S
C537 C536 1.524 1_556 S
C537 C538 1.415 . S
C538 H514 0.950 . S
C538 C533 1.363 1_556 S
C538 C537 1.415 . S
C539 H515 0.951 . S
C539 C540 1.366 . S
C539 C541 1.388 . S
C540 C539 1.366 . S
C540 C544 1.385 . S
C541 H516 0.951 1_556 S
C541 C539 1.388 . S
C541 C542 1.366 . S
C542 C541 1.366 . S
C542 C543 1.414 . S
C542 C545 1.499 . S
C543 H517 0.950 . S
C543 C542 1.414 . S
C543 C544 1.374 . S
C544 H518 0.950 . S
C544 C540 1.385 . S
C544 C543 1.374 . S
C545 C542 1.499 . S
C545 C546 1.373 . S
C545 C547 1.389 1_556 S
C546 H519 0.950 . S
C546 C532 1.377 1_556 S
C546 C545 1.373 . S
C547 C531 1.377 . S
C547 C545 1.389 1_554 S
C547 C548 1.524 . S
C548 C547 1.524 . S
C548 C549 1.397 . S
C548 C553 1.363 . S
C549 H520 0.950 1_554 S
C549 C548 1.397 . S
C549 C550 1.334 . S
C550 H521 0.950 1_554 S
C550 C549 1.334 . S
C550 C551 1.287 . S
C551 C550 1.287 . S
C551 C552 1.524 . S
C551 H554 0.999 . S
C552 H522 0.950 . S
C552 C551 1.524 . S
C552 C553 1.415 . S
C553 H523 0.950 . S
C553 C548 1.363 . S
C553 C552 1.415 . S
H554 C551 0.999 . S
H555 C536 0.913 . S
H556 C574 0.951 . S
H557 C576 0.951 . S
H558 C578 0.950 . S
H559 C579 0.950 . S
H560 C581 0.950 . S
H561 C584 0.950 . S
H562 C585 0.950 . S
H563 C587 0.950 . S
H564 C588 0.950 . S
H565 C589 0.951 . S
H566 C591 0.951 . S
H567 C593 0.950 . S
H568 C594 0.950 . S
H569 C596 0.950 . S
H570 C599 0.950 . S
H571 C600 0.950 . S
H572 C602 0.950 . S
H573 C603 0.950 . S
C574 H556 0.951 . S
C574 C575 1.366 . S
C574 C576 1.388 . S
C575 C574 1.366 . S
C575 C579 1.385 . S
C576 H557 0.951 . S
C576 C574 1.388 . S
C576 C577 1.366 . S
C577 C576 1.366 . S
C577 C578 1.414 . S
C577 C580 1.499 . S
C578 H558 0.950 . S
C578 C577 1.414 . S
C578 C579 1.374 . S
C579 H559 0.950 . S
C579 C575 1.385 . S
C579 C578 1.374 . S
C580 C577 1.499 . S
C580 C581 1.373 . S
C580 C582 1.389 . S
C581 H560 0.950 . S
C581 C580 1.373 . S
C581 C597 1.377 1_554 S
C582 C580 1.389 . S
C582 C583 1.524 . S
C582 C596 1.377 . S
C583 C582 1.524 . S
C583 C584 1.397 . S
C583 C588 1.363 . S
C584 H561 0.950 . S
C584 C583 1.397 . S
C584 C585 1.334 . S
C585 H562 0.950 . S
C585 C584 1.334 . S
C585 C586 1.287 . S
C586 C585 1.287 . S
C586 C587 1.524 . S
C586 H605 0.913 . S
C587 H563 0.950 . S
C587 C586 1.524 . S
C587 C588 1.415 . S
C588 H564 0.950 . S
C588 C583 1.363 . S
C588 C587 1.415 . S
C589 H565 0.951 . S
C589 C590 1.366 . S
C589 C591 1.388 . S
C590 C589 1.366 . S
C590 C594 1.385 . S
C591 H566 0.951 . S
C591 C589 1.388 . S
C591 C592 1.366 . S
C592 C591 1.366 . S
C592 C593 1.414 . S
C592 C595 1.499 . S
C593 H567 0.950 . S
C593 C592 1.414 . S
C593 C594 1.374 . S
C594 H568 0.950 . S
C594 C590 1.385 . S
C594 C593 1.374 . S
C595 C592 1.499 . S
C595 C596 1.373 1_556 S
C595 C597 1.389 . S
C596 H569 0.950 . S
C596 C582 1.377 . S
C596 C595 1.373 1_554 S
C597 C581 1.377 1_556 S
C597 C595 1.389 . S
C597 C598 1.524 . S
C598 C597 1.524 . S
C598 C599 1.397 . S
C598 C603 1.363 . S
C599 H570 0.950 . S
C599 C598 1.397 . S
C599 C600 1.334 . S
C600 H571 0.950 . S
C600 C599 1.334 . S
C600 C601 1.287 . S
C601 C600 1.287 . S
C601 C602 1.524 . S
C601 H604 0.999 . S
C602 H572 0.950 . S
C602 C601 1.524 . S
C602 C603 1.415 . S
C603 H573 0.950 . S
C603 C598 1.363 . S
C603 C602 1.415 . S
H604 C601 0.999 . S
H605 C586 0.913 . S
H606 C624 0.951 . S
H607 C626 0.951 . S
H608 C628 0.950 . S
H609 C629 0.950 . S
H610 C631 0.950 . S
H611 C634 0.950 . S
H612 C635 0.950 . S
H613 C637 0.950 . S
H614 C638 0.950 . S
H615 C639 0.951 . S
H616 C641 0.951 . S
H617 C643 0.950 1_554 S
H618 C644 0.950 . S
H619 C646 0.950 . S
H620 C649 0.950 . S
H621 C650 0.950 . S
H622 C652 0.950 . S
H623 C653 0.950 . S
C624 H606 0.951 . S
C624 C625 1.360 1_455 S
C624 C626 1.388 . S
C625 C624 1.360 1_655 S
C625 C629 1.390 . S
C626 H607 0.951 . S
C626 C624 1.388 . S
C626 C627 1.388 . S
C627 C626 1.388 . S
C627 C628 1.391 1_455 S
C627 C630 1.499 . S
C628 H608 0.950 . S
C628 C627 1.391 1_655 S
C628 C629 1.374 . S
C629 H609 0.950 . S
C629 C625 1.390 . S
C629 C628 1.374 . S
C630 C627 1.499 . S
C630 C631 1.337 1_455 S
C630 C632 1.425 . S
C631 H610 0.950 . S
C631 C630 1.337 1_655 S
C631 C647 1.377 . S
C632 C630 1.425 . S
C632 C633 1.524 . S
C632 C646 1.377 . S
C633 C632 1.524 . S
C633 C634 1.397 . S
C633 C638 1.363 . S
C634 H611 0.950 . S
C634 C633 1.397 . S
C634 C635 1.334 . S
C635 H612 0.950 . S
C635 C634 1.334 . S
C635 C636 1.287 . S
C636 C635 1.287 . S
C636 C637 1.524 . S
C636 H655 0.913 . S
C637 H613 0.950 . S
C637 C636 1.524 . S
C637 C638 1.415 . S
C638 H614 0.950 . S
C638 C633 1.363 . S
C638 C637 1.415 . S
C639 H615 0.951 . S
C639 C640 1.348 1_655 S
C639 C641 1.388 . S
C640 C639 1.348 1_455 S
C640 C644 1.403 . S
C641 H616 0.951 . S
C641 C639 1.388 . S
C641 C642 1.375 . S
C642 C641 1.375 . S
C642 C643 1.403 1_655 S
C642 C645 1.499 . S
C643 H617 0.950 1_556 S
C643 C642 1.403 1_455 S
C643 C644 1.374 . S
C644 H618 0.950 . S
C644 C640 1.403 . S
C644 C643 1.374 . S
C645 C642 1.499 . S
C645 C646 1.361 1_656 S
C645 C647 1.401 1_556 S
C646 H619 0.950 . S
C646 C632 1.377 . S
C646 C645 1.361 1_454 S
C647 C631 1.377 . S
C647 C645 1.401 1_554 S
C647 C648 1.524 1_554 S
C648 C647 1.524 1_556 S
C648 C649 1.397 1_556 S
C648 C653 1.363 . S
C649 H620 0.950 . S
C649 C648 1.397 1_554 S
C649 C650 1.334 1_554 S
C650 H621 0.950 . S
C650 C649 1.334 1_556 S
C650 C651 1.287 . S
C651 C650 1.287 . S
C651 C652 1.524 . S
C651 H654 0.999 . S
C652 H622 0.950 . S
C652 C651 1.524 . S
C652 C653 1.415 . S
C653 H623 0.950 . S
C653 C648 1.363 . S
C653 C652 1.415 . S
H654 C651 0.999 . S
H655 C636 0.913 . S
H656 C674 0.951 . S
H657 C676 0.958 . S
H658 C678 0.953 . S
H659 C679 0.950 . S
H660 C681 0.950 . S
H661 C684 0.950 . S
H662 C685 0.950 . S
H663 C687 0.950 1_556 S
H664 C688 0.950 . S
H665 C689 0.951 . S
H666 C691 0.951 . S
H667 C693 0.950 . S
H668 C694 0.950 . S
H669 C696 0.950 . S
H670 C699 0.950 . S
H671 C700 0.950 . S
H672 C702 0.950 . S
H673 C703 0.950 . S
C674 H656 0.951 . S
C674 C675 1.366 . S
C674 C676 1.380 1_455 S
C675 C674 1.366 . S
C675 C679 1.385 . S
C676 H657 0.958 . S
C676 C674 1.380 1_655 S
C676 C677 1.369 . S
C677 C676 1.369 . S
C677 C678 1.414 1_655 S
C677 C680 1.499 . S
C678 H658 0.953 . S
C678 C677 1.414 1_455 S
C678 C679 1.374 . S
C679 H659 0.950 . S
C679 C675 1.385 . S
C679 C678 1.374 . S
C680 C677 1.499 . S
C680 C681 1.373 1_655 S
C680 C682 1.389 . S
C681 H660 0.950 . S
C681 C680 1.373 1_455 S
C681 C697 1.377 . S
C682 C680 1.389 . S
C682 C683 1.524 . S
C682 C696 1.377 . S
C683 C682 1.524 . S
C683 C684 1.397 . S
C683 C688 1.363 . S
C684 H661 0.950 . S
C684 C683 1.397 . S
C684 C685 1.334 . S
C685 H662 0.950 . S
C685 C684 1.334 . S
C685 C686 1.287 . S
C686 C685 1.287 . S
C686 C687 1.524 . S
C686 H705 0.913 . S
C687 H663 0.950 1_554 S
C687 C686 1.524 . S
C687 C688 1.415 . S
C688 H664 0.950 . S
C688 C683 1.363 . S
C688 C687 1.415 . S
C689 H665 0.951 . S
C689 C690 1.366 . S
C689 C691 1.388 . S
C690 C689 1.366 . S
C690 C694 1.385 . S
C691 H666 0.951 . S
C691 C689 1.388 . S
C691 C692 1.366 . S
C692 C691 1.366 . S
C692 C693 1.414 . S
C692 C695 1.499 . S
C693 H667 0.950 . S
C693 C692 1.414 . S
C693 C694 1.374 . S
C694 H668 0.950 . S
C694 C690 1.385 . S
C694 C693 1.374 . S
C695 C692 1.499 . S
C695 C696 1.373 . S
C695 C697 1.389 1_655 S
C696 H669 0.950 . S
C696 C682 1.377 . S
C696 C695 1.373 . S
C697 C681 1.377 . S
C697 C695 1.389 1_455 S
C697 C698 1.524 . S
C698 C697 1.524 . S
C698 C699 1.397 . S
C698 C703 1.363 . S
C699 H670 0.950 . S
C699 C698 1.397 . S
C699 C700 1.334 . S
C700 H671 0.950 . S
C700 C699 1.334 . S
C700 C701 1.287 . S
C701 C700 1.287 . S
C701 C702 1.524 . S
C701 H704 0.999 . S
C702 H672 0.950 . S
C702 C701 1.524 . S
C702 C703 1.415 . S
C703 H673 0.950 . S
C703 C698 1.363 . S
C703 C702 1.415 . S
H704 C701 0.999 . S
H705 C686 0.913 . S
H706 C724 0.951 . S
H707 C726 0.951 . S
H708 C728 0.950 . S
H709 C729 0.950 . S
H710 C731 0.950 . S
H711 C734 0.950 . S
H712 C735 0.950 . S
H713 C737 0.950 . S
H714 C738 0.950 1_565 S
H715 C739 0.951 . S
H716 C741 0.951 . S
H717 C743 0.950 . S
H718 C744 0.950 . S
H719 C746 0.950 . S
H720 C749 0.950 . S
H721 C750 0.950 . S
H722 C752 0.950 . S
H723 C753 0.950 . S
C724 H706 0.951 . S
C724 C725 1.366 1_565 S
C724 C726 1.388 . S
C725 C724 1.366 1_545 S
C725 C729 1.385 . S
C726 H707 0.951 . S
C726 C724 1.388 . S
C726 C727 1.367 . S
C727 C726 1.367 . S
C727 C728 1.412 1_565 S
C727 C730 1.499 . S
C728 H708 0.950 . S
C728 C727 1.412 1_545 S
C728 C729 1.374 . S
C729 H709 0.950 . S
C729 C725 1.385 . S
C729 C728 1.374 . S
C730 C727 1.499 . S
C730 C731 1.373 . S
C730 C732 1.395 . S
C731 H710 0.950 . S
C731 C730 1.373 . S
C731 C747 1.377 . S
C732 C730 1.395 . S
C732 C733 1.508 1_565 S
C732 C746 1.386 . S
C733 C732 1.508 1_545 S
C733 C734 1.397 . S
C733 C738 1.363 . S
C734 H711 0.950 . S
C734 C733 1.397 . S
C734 C735 1.334 . S
C735 H712 0.950 . S
C735 C734 1.334 . S
C735 C736 1.287 . S
C736 C735 1.287 . S
C736 C737 1.524 . S
C736 H755 0.913 . S
C737 H713 0.950 . S
C737 C736 1.524 . S
C737 C738 1.415 . S
C738 H714 0.950 1_545 S
C738 C733 1.363 . S
C738 C737 1.415 . S
C739 H715 0.951 . S
C739 C740 1.366 . S
C739 C741 1.388 . S
C740 C739 1.366 . S
C740 C744 1.385 . S
C741 H716 0.951 . S
C741 C739 1.388 . S
C741 C742 1.366 . S
C742 C741 1.366 . S
C742 C743 1.414 . S
C742 C745 1.499 . S
C743 H717 0.950 . S
C743 C742 1.414 . S
C743 C744 1.374 . S
C744 H718 0.950 . S
C744 C740 1.385 . S
C744 C743 1.374 . S
C745 C742 1.499 . S
C745 C746 1.373 . S
C745 C747 1.389 . S
C746 H719 0.950 . S
C746 C732 1.386 . S
C746 C745 1.373 . S
C747 C731 1.377 . S
C747 C745 1.389 . S
C747 C748 1.524 . S
C748 C747 1.524 . S
C748 C749 1.397 . S
C748 C753 1.363 . S
C749 H720 0.950 . S
C749 C748 1.397 . S
C749 C750 1.334 . S
C750 H721 0.950 . S
C750 C749 1.334 . S
C750 C751 1.287 . S
C751 C750 1.287 . S
C751 C752 1.524 . S
C751 H754 0.999 . S
C752 H722 0.950 . S
C752 C751 1.524 . S
C752 C753 1.415 . S
C753 H723 0.950 . S
C753 C748 1.363 . S
C753 C752 1.415 . S
H754 C751 0.999 . S
H755 C736 0.913 . S
H756 C774 0.951 . S
H757 C776 0.951 . S
H758 C778 0.950 . S
H759 C779 0.950 . S
H760 C781 0.950 . S
H761 C784 0.950 . S
H762 C785 0.950 . S
H763 C787 0.950 . S
H764 C788 0.950 . S
H765 C789 0.951 . S
H766 C791 0.951 . S
H767 C793 0.950 . S
H768 C794 0.950 . S
H769 C796 0.950 . S
H770 C799 0.950 . S
H771 C800 0.950 . S
H772 C802 0.950 . S
H773 C803 0.950 . S
C774 H756 0.951 . S
C774 C775 1.366 . S
C774 C776 1.388 . S
C775 C774 1.366 . S
C775 C779 1.385 . S
C776 H757 0.951 . S
C776 C774 1.388 . S
C776 C777 1.366 . S
C777 C776 1.366 . S
C777 C778 1.414 . S
C777 C780 1.499 . S
C778 H758 0.950 . S
C778 C777 1.414 . S
C778 C779 1.374 . S
C779 H759 0.950 . S
C779 C775 1.385 . S
C779 C778 1.374 . S
C780 C777 1.499 . S
C780 C781 1.373 . S
C780 C782 1.389 . S
C781 H760 0.950 . S
C781 C780 1.373 . S
C781 C797 1.377 . S
C782 C780 1.389 . S
C782 C783 1.524 . S
C782 C796 1.377 . S
C783 C782 1.524 . S
C783 C784 1.397 . S
C783 C788 1.363 . S
C784 H761 0.950 . S
C784 C783 1.397 . S
C784 C785 1.334 . S
C785 H762 0.950 . S
C785 C784 1.334 . S
C785 C786 1.287 . S
C786 C785 1.287 . S
C786 C787 1.524 . S
C786 H805 0.913 . S
C787 H763 0.950 . S
C787 C786 1.524 . S
C787 C788 1.415 . S
C788 H764 0.950 . S
C788 C783 1.363 . S
C788 C787 1.415 . S
C789 H765 0.951 . S
C789 C790 1.366 . S
C789 C791 1.388 . S
C790 C789 1.366 . S
C790 C794 1.385 . S
C791 H766 0.951 . S
C791 C789 1.388 . S
C791 C792 1.366 . S
C792 C791 1.366 . S
C792 C793 1.414 . S
C792 C795 1.499 . S
C793 H767 0.950 . S
C793 C792 1.414 . S
C793 C794 1.374 . S
C794 H768 0.950 . S
C794 C790 1.385 . S
C794 C793 1.374 . S
C795 C792 1.499 . S
C795 C796 1.373 . S
C795 C797 1.389 . S
C796 H769 0.950 . S
C796 C782 1.377 . S
C796 C795 1.373 . S
C797 C781 1.377 . S
C797 C795 1.389 . S
C797 C798 1.524 . S
C798 C797 1.524 . S
C798 C799 1.397 . S
C798 C803 1.363 . S
C799 H770 0.950 . S
C799 C798 1.397 . S
C799 C800 1.334 . S
C800 H771 0.950 . S
C800 C799 1.334 . S
C800 C801 1.287 . S
C801 C800 1.287 . S
C801 C802 1.524 . S
C801 H804 0.999 . S
C802 H772 0.950 . S
C802 C801 1.524 . S
C802 C803 1.415 . S
C803 H773 0.950 . S
C803 C798 1.363 . S
C803 C802 1.415 . S
H804 C801 0.999 . S
H805 C786 0.913 . S
H806 C824 0.951 . S
H807 C826 0.951 . S
H808 C828 0.950 . S
H809 C829 0.950 . S
H810 C831 0.950 . S
H811 C834 0.950 . S
H812 C835 0.950 . S
H813 C837 0.950 . S
H814 C838 0.950 . S
H815 C839 0.951 . S
H816 C841 0.951 . S
H817 C843 0.950 . S
H818 C844 0.950 . S
H819 C846 0.950 . S
H820 C849 0.950 . S
H821 C850 0.950 . S
H822 C852 0.950 . S
H823 C853 0.950 . S
C824 H806 0.951 . S
C824 C825 1.366 . S
C824 C826 1.388 . S
C825 C824 1.366 . S
C825 C829 1.385 . S
C826 H807 0.951 . S
C826 C824 1.388 . S
C826 C827 1.366 . S
C827 C826 1.366 . S
C827 C828 1.414 . S
C827 C830 1.499 . S
C828 H808 0.950 . S
C828 C827 1.414 . S
C828 C829 1.374 . S
C829 H809 0.950 . S
C829 C825 1.385 . S
C829 C828 1.374 . S
C830 C827 1.499 . S
C830 C831 1.373 . S
C830 C832 1.389 . S
C831 H810 0.950 . S
C831 C830 1.373 . S
C831 C847 1.377 . S
C832 C830 1.389 . S
C832 C833 1.524 . S
C832 C846 1.377 . S
C833 C832 1.524 . S
C833 C834 1.397 . S
C833 C838 1.363 . S
C834 H811 0.950 . S
C834 C833 1.397 . S
C834 C835 1.334 . S
C835 H812 0.950 . S
C835 C834 1.334 . S
C835 C836 1.287 . S
C836 C835 1.287 . S
C836 C837 1.524 . S
C836 H855 0.913 . S
C837 H813 0.950 . S
C837 C836 1.524 . S
C837 C838 1.415 . S
C838 H814 0.950 . S
C838 C833 1.363 . S
C838 C837 1.415 . S
C839 H815 0.951 . S
C839 C840 1.366 . S
C839 C841 1.388 . S
C840 C839 1.366 . S
C840 C844 1.385 . S
C841 H816 0.951 . S
C841 C839 1.388 . S
C841 C842 1.366 . S
C842 C841 1.366 . S
C842 C843 1.414 . S
C842 C845 1.499 . S
C843 H817 0.950 . S
C843 C842 1.414 . S
C843 C844 1.374 . S
C844 H818 0.950 . S
C844 C840 1.385 . S
C844 C843 1.374 . S
C845 C842 1.499 . S
C845 C846 1.373 . S
C845 C847 1.389 . S
C846 H819 0.950 . S
C846 C832 1.377 . S
C846 C845 1.373 . S
C847 C831 1.377 . S
C847 C845 1.389 . S
C847 C848 1.524 . S
C848 C847 1.524 . S
C848 C849 1.397 . S
C848 C853 1.363 . S
C849 H820 0.950 . S
C849 C848 1.397 . S
C849 C850 1.334 . S
C850 H821 0.950 . S
C850 C849 1.334 . S
C850 C851 1.287 . S
C851 C850 1.287 . S
C851 C852 1.524 . S
C851 H854 0.999 . S
C852 H822 0.950 . S
C852 C851 1.524 . S
C852 C853 1.415 . S
C853 H823 0.950 . S
C853 C848 1.363 . S
C853 C852 1.415 . S
H854 C851 0.999 . S
H855 C836 0.913 . S
H856 C874 0.951 . S
H857 C876 0.951 . S
H858 C878 0.950 . S
H859 C879 0.950 . S
H860 C881 0.950 . S
H861 C884 0.950 . S
H862 C885 0.950 . S
H863 C887 0.950 . S
H864 C888 0.950 . S
H865 C889 0.951 . S
H866 C891 0.951 . S
H867 C893 0.950 . S
H868 C894 0.950 . S
H869 C896 0.950 . S
H870 C899 0.950 1_554 S
H871 C900 0.950 . S
H872 C902 0.950 . S
H873 C903 0.950 . S
C874 H856 0.951 . S
C874 C875 1.366 1_455 S
C874 C876 1.388 . S
C875 C874 1.366 1_655 S
C875 C879 1.385 . S
C876 H857 0.951 . S
C876 C874 1.388 . S
C876 C877 1.366 . S
C877 C876 1.366 . S
C877 C878 1.414 1_455 S
C877 C880 1.499 . S
C878 H858 0.950 . S
C878 C877 1.414 1_655 S
C878 C879 1.374 . S
C879 H859 0.950 . S
C879 C875 1.385 . S
C879 C878 1.374 . S
C880 C877 1.499 . S
C880 C881 1.373 . S
C880 C882 1.389 . S
C881 H860 0.950 . S
C881 C880 1.373 . S
C881 C897 1.377 . S
C882 C880 1.389 . S
C882 C883 1.524 1_455 S
C882 C896 1.377 . S
C883 C882 1.524 1_655 S
C883 C884 1.397 . S
C883 C888 1.363 1_655 S
C884 H861 0.950 . S
C884 C883 1.397 . S
C884 C885 1.334 . S
C885 H862 0.950 . S
C885 C884 1.334 . S
C885 C886 1.287 . S
C886 C885 1.287 . S
C886 C887 1.524 . S
C886 H905 0.913 . S
C887 H863 0.950 . S
C887 C886 1.524 . S
C887 C888 1.415 1_655 S
C888 H864 0.950 . S
C888 C883 1.363 1_455 S
C888 C887 1.415 1_455 S
C889 H865 0.951 . S
C889 C890 1.366 . S
C889 C891 1.388 . S
C890 C889 1.366 . S
C890 C894 1.385 1_556 S
C891 H866 0.951 . S
C891 C889 1.388 . S
C891 C892 1.366 1_556 S
C892 C891 1.366 1_554 S
C892 C893 1.414 . S
C892 C895 1.499 . S
C893 H867 0.950 . S
C893 C892 1.414 . S
C893 C894 1.374 . S
C894 H868 0.950 . S
C894 C890 1.385 1_554 S
C894 C893 1.374 . S
C895 C892 1.499 . S
C895 C896 1.373 . S
C895 C897 1.389 . S
C896 H869 0.950 . S
C896 C882 1.377 . S
C896 C895 1.373 . S
C897 C881 1.377 . S
C897 C895 1.389 . S
C897 C898 1.524 1_554 S
C898 C897 1.524 1_556 S
C898 C899 1.397 . S
C898 C903 1.363 . S
C899 H870 0.950 1_556 S
C899 C898 1.397 . S
C899 C900 1.334 . S
C900 H871 0.950 . S
C900 C899 1.334 . S
C900 C901 1.287 . S
C901 C900 1.287 . S
C901 C902 1.524 . S
C901 H904 0.999 . S
C902 H872 0.950 . S
C902 C901 1.524 . S
C902 C903 1.415 . S
C903 H873 0.950 . S
C903 C898 1.363 . S
C903 C902 1.415 . S
H904 C901 0.999 . S
H905 C886 0.913 . S
H906 C924 0.951 . S
H907 C926 0.951 . S
H908 C928 0.956 . S
H909 C929 0.950 . S
H910 C931 0.950 . S
H911 C934 0.950 . S
H912 C935 0.950 . S
H913 C937 0.950 . S
H914 C938 0.950 . S
H915 C939 0.951 . S
H916 C941 0.951 . S
H917 C943 0.950 . S
H918 C944 0.950 . S
H919 C946 0.950 . S
H920 C949 0.950 . S
H921 C950 0.950 . S
H922 C952 0.950 . S
H923 C953 0.950 . S
C924 H906 0.951 . S
C924 C925 1.366 1_545 S
C924 C926 1.388 . S
C925 C924 1.366 1_565 S
C925 C929 1.385 . S
C926 H907 0.951 . S
C926 C924 1.388 . S
C926 C927 1.366 . S
C927 C926 1.366 . S
C927 C928 1.404 1_545 S
C927 C930 1.499 . S
C928 H908 0.956 . S
C928 C927 1.404 1_565 S
C928 C929 1.380 . S
C929 H909 0.950 . S
C929 C925 1.385 . S
C929 C928 1.380 . S
C930 C927 1.499 . S
C930 C931 1.373 1_545 S
C930 C932 1.389 . S
C931 H910 0.950 . S
C931 C930 1.373 1_565 S
C931 C947 1.377 . S
C932 C930 1.389 . S
C932 C933 1.524 . S
C932 C946 1.377 . S
C933 C932 1.524 . S
C933 C934 1.397 . S
C933 C938 1.363 . S
C934 H911 0.950 . S
C934 C933 1.397 . S
C934 C935 1.334 . S
C935 H912 0.950 . S
C935 C934 1.334 . S
C935 C936 1.287 . S
C936 C935 1.287 . S
C936 C937 1.524 . S
C936 H955 0.913 . S
C937 H913 0.950 . S
C937 C936 1.524 . S
C937 C938 1.415 . S
C938 H914 0.950 . S
C938 C933 1.363 . S
C938 C937 1.415 . S
C939 H915 0.951 . S
C939 C940 1.366 1_554 S
C939 C941 1.388 . S
C940 C939 1.366 1_556 S
C940 C944 1.385 . S
C941 H916 0.951 . S
C941 C939 1.388 . S
C941 C942 1.366 . S
C942 C941 1.366 . S
C942 C943 1.414 1_554 S
C942 C945 1.499 . S
C943 H917 0.950 . S
C943 C942 1.414 1_556 S
C943 C944 1.374 . S
C944 H918 0.950 . S
C944 C940 1.385 . S
C944 C943 1.374 . S
C945 C942 1.499 . S
C945 C946 1.373 . S
C945 C947 1.389 1_545 S
C946 H919 0.950 . S
C946 C932 1.377 . S
C946 C945 1.373 . S
C947 C931 1.377 . S
C947 C945 1.389 1_565 S
C947 C948 1.524 . S
C948 C947 1.524 . S
C948 C949 1.397 . S
C948 C953 1.363 . S
C949 H920 0.950 . S
C949 C948 1.397 . S
C949 C950 1.334 . S
C950 H921 0.950 . S
C950 C949 1.334 . S
C950 C951 1.287 . S
C951 C950 1.287 . S
C951 C952 1.524 . S
C951 H954 0.999 . S
C952 H922 0.950 . S
C952 C951 1.524 . S
C952 C953 1.415 . S
C953 H923 0.950 . S
C953 C948 1.363 . S
C953 C952 1.415 . S
H954 C951 0.999 . S
H955 C936 0.913 . S
H956 C974 0.951 . S
H957 C976 0.951 . S
H958 C978 0.950 . S
H959 C979 0.950 . S
H960 C981 0.950 . S
H961 C984 0.950 . S
H962 C985 0.950 . S
H963 C987 0.950 . S
H964 C988 0.950 . S
H965 C989 0.951 . S
H966 C991 0.951 . S
H967 C993 0.950 . S
H968 C994 0.950 . S
H969 C996 0.950 . S
H970 C999 0.950 . S
H971 C1000 0.950 1_554 S
H972 C1002 0.950 . S
H973 C1003 0.950 . S
C974 H956 0.951 . S
C974 C975 1.366 . S
C974 C976 1.388 . S
C975 C974 1.366 . S
C975 C979 1.385 . S
C976 H957 0.951 . S
C976 C974 1.388 . S
C976 C977 1.366 . S
C977 C976 1.366 . S
C977 C978 1.414 . S
C977 C980 1.499 . S
C978 H958 0.950 . S
C978 C977 1.414 . S
C978 C979 1.374 . S
C979 H959 0.950 . S
C979 C975 1.385 . S
C979 C978 1.374 . S
C980 C977 1.499 . S
C980 C981 1.373 . S
C980 C982 1.389 . S
C981 H960 0.950 . S
C981 C980 1.373 . S
C981 C997 1.377 . S
C982 C980 1.389 . S
C982 C983 1.524 . S
C982 C996 1.377 . S
C983 C982 1.524 . S
C983 C984 1.397 . S
C983 C988 1.363 . S
C984 H961 0.950 . S
C984 C983 1.397 . S
C984 C985 1.334 . S
C985 H962 0.950 . S
C985 C984 1.334 . S
C985 C986 1.287 . S
C986 C985 1.287 . S
C986 C987 1.524 . S
C986 H1005 0.913 . S
C987 H963 0.950 . S
C987 C986 1.524 . S
C987 C988 1.415 . S
C988 H964 0.950 . S
C988 C983 1.363 . S
C988 C987 1.415 . S
C989 H965 0.951 . S
C989 C990 1.366 . S
C989 C991 1.388 . S
C990 C989 1.366 . S
C990 C994 1.385 1_556 S
C991 H966 0.951 . S
C991 C989 1.388 . S
C991 C992 1.366 1_556 S
C992 C991 1.366 1_554 S
C992 C993 1.414 . S
C992 C995 1.499 . S
C993 H967 0.950 . S
C993 C992 1.414 . S
C993 C994 1.374 . S
C994 H968 0.950 . S
C994 C990 1.385 1_554 S
C994 C993 1.374 . S
C995 C992 1.499 . S
C995 C996 1.373 . S
C995 C997 1.389 . S
C996 H969 0.950 . S
C996 C982 1.377 . S
C996 C995 1.373 . S
C997 C981 1.377 . S
C997 C995 1.389 . S
C997 C998 1.524 . S
C998 C997 1.524 . S
C998 C999 1.397 . S
C998 C1003 1.363 1_554 S
C999 H970 0.950 . S
C999 C998 1.397 . S
C999 C1000 1.334 1_554 S
C1000 H971 0.950 1_556 S
C1000 C999 1.334 1_556 S
C1000 C1001 1.287 . S
C1001 C1000 1.287 . S
C1001 C1002 1.524 . S
C1001 H1004 0.999 . S
C1002 H972 0.950 . S
C1002 C1001 1.524 . S
C1002 C1003 1.415 . S
C1003 H973 0.950 . S
C1003 C998 1.363 1_556 S
C1003 C1002 1.415 . S
H1004 C1001 0.999 . S
H1005 C986 0.913 . S
H1006 C1024 0.951 . S
H1007 C1026 0.951 . S
H1008 C1028 0.950 . S
H1009 C1029 0.950 . S
H1010 C1031 0.950 . S
H1011 C1034 0.950 . S
H1012 C1035 0.950 . S
H1013 C1037 0.950 . S
H1014 C1038 0.950 . S
H1015 C1039 0.951 . S
H1016 C1041 0.951 . S
H1017 C1043 0.950 . S
H1018 C1044 0.950 . S
H1019 C1046 0.950 . S
H1020 C1049 0.950 . S
H1021 C1050 0.950 . S
H1022 C1052 0.950 . S
H1023 C1053 0.950 . S
C1024 H1006 0.951 . S
C1024 C1025 1.366 . S
C1024 C1026 1.388 . S
C1025 C1024 1.366 . S
C1025 C1029 1.385 . S
C1026 H1007 0.951 . S
C1026 C1024 1.388 . S
C1026 C1027 1.366 . S
C1027 C1026 1.366 . S
C1027 C1028 1.414 . S
C1027 C1030 1.499 . S
C1028 H1008 0.950 . S
C1028 C1027 1.414 . S
C1028 C1029 1.374 . S
C1029 H1009 0.950 . S
C1029 C1025 1.385 . S
C1029 C1028 1.374 . S
C1030 C1027 1.499 . S
C1030 C1031 1.373 . S
C1030 C1032 1.389 . S
C1031 H1010 0.950 . S
C1031 C1030 1.373 . S
C1031 C1047 1.377 . S
C1032 C1030 1.389 . S
C1032 C1033 1.524 . S
C1032 C1046 1.377 . S
C1033 C1032 1.524 . S
C1033 C1034 1.397 . S
C1033 C1038 1.363 . S
C1034 H1011 0.950 . S
C1034 C1033 1.397 . S
C1034 C1035 1.334 . S
C1035 H1012 0.950 . S
C1035 C1034 1.334 . S
C1035 C1036 1.287 . S
C1036 C1035 1.287 . S
C1036 C1037 1.524 . S
C1036 H1055 0.913 . S
C1037 H1013 0.950 . S
C1037 C1036 1.524 . S
C1037 C1038 1.415 . S
C1038 H1014 0.950 . S
C1038 C1033 1.363 . S
C1038 C1037 1.415 . S
C1039 H1015 0.951 . S
C1039 C1040 1.366 . S
C1039 C1041 1.388 . S
C1040 C1039 1.366 . S
C1040 C1044 1.385 1_556 S
C1041 H1016 0.951 . S
C1041 C1039 1.388 . S
C1041 C1042 1.366 1_556 S
C1042 C1041 1.366 1_554 S
C1042 C1043 1.414 . S
C1042 C1045 1.499 . S
C1043 H1017 0.950 . S
C1043 C1042 1.414 . S
C1043 C1044 1.374 . S
C1044 H1018 0.950 . S
C1044 C1040 1.385 1_554 S
C1044 C1043 1.374 . S
C1045 C1042 1.499 . S
C1045 C1046 1.373 . S
C1045 C1047 1.389 . S
C1046 H1019 0.950 . S
C1046 C1032 1.377 . S
C1046 C1045 1.373 . S
C1047 C1031 1.377 . S
C1047 C1045 1.389 . S
C1047 C1048 1.524 . S
C1048 C1047 1.524 . S
C1048 C1049 1.397 . S
C1048 C1053 1.363 1_554 S
C1049 H1020 0.950 . S
C1049 C1048 1.397 . S
C1049 C1050 1.334 . S
C1050 H1021 0.950 . S
C1050 C1049 1.334 . S
C1050 C1051 1.287 1_554 S
C1051 C1050 1.287 1_556 S
C1051 C1052 1.524 . S
C1051 H1054 0.999 . S
C1052 H1022 0.950 . S
C1052 C1051 1.524 . S
C1052 C1053 1.415 . S
C1053 H1023 0.950 . S
C1053 C1048 1.363 1_556 S
C1053 C1052 1.415 . S
H1054 C1051 0.999 . S
H1055 C1036 0.913 . S
H1056 C1074 0.951 . S
H1057 C1076 0.951 . S
H1058 C1078 0.950 . S
H1059 C1079 0.950 . S
H1060 C1081 0.950 . S
H1061 C1084 0.950 1_554 S
H1062 C1085 0.950 . S
H1063 C1087 0.950 . S
H1064 C1088 0.950 . S
H1065 C1089 0.951 . S
H1066 C1091 0.951 . S
H1067 C1093 0.950 . S
H1068 C1094 0.950 . S
H1069 C1096 0.950 . S
H1070 C1099 0.950 . S
H1071 C1100 0.950 . S
H1072 C1102 0.950 . S
H1073 C1103 0.950 . S
C1074 H1056 0.951 . S
C1074 C1075 1.366 1_655 S
C1074 C1076 1.388 . S
C1075 C1074 1.366 1_455 S
C1075 C1079 1.385 . S
C1076 H1057 0.951 . S
C1076 C1074 1.388 . S
C1076 C1077 1.366 1_655 S
C1077 C1076 1.366 1_455 S
C1077 C1078 1.414 . S
C1077 C1080 1.499 . S
C1078 H1058 0.950 . S
C1078 C1077 1.414 . S
C1078 C1079 1.374 . S
C1079 H1059 0.950 . S
C1079 C1075 1.385 . S
C1079 C1078 1.374 . S
C1080 C1077 1.499 . S
C1080 C1081 1.373 . S
C1080 C1082 1.389 1_455 S
C1081 H1060 0.950 . S
C1081 C1080 1.373 . S
C1081 C1097 1.377 . S
C1082 C1080 1.389 1_655 S
C1082 C1083 1.524 . S
C1082 C1096 1.377 . S
C1083 C1082 1.524 . S
C1083 C1084 1.397 . S
C1083 C1088 1.363 . S
C1084 H1061 0.950 1_556 S
C1084 C1083 1.397 . S
C1084 C1085 1.334 1_556 S
C1085 H1062 0.950 . S
C1085 C1084 1.334 1_554 S
C1085 C1086 1.287 . S
C1086 C1085 1.287 . S
C1086 C1087 1.524 1_554 S
C1086 H1105 0.913 . S
C1087 H1063 0.950 . S
C1087 C1086 1.524 1_556 S
C1087 C1088 1.415 . S
C1088 H1064 0.950 . S
C1088 C1083 1.363 . S
C1088 C1087 1.415 . S
C1089 H1065 0.951 . S
C1089 C1090 1.366 . S
C1089 C1091 1.388 . S
C1090 C1089 1.366 . S
C1090 C1094 1.385 1_455 S
C1091 H1066 0.951 . S
C1091 C1089 1.388 . S
C1091 C1092 1.366 . S
C1092 C1091 1.366 . S
C1092 C1093 1.414 1_455 S
C1092 C1095 1.499 . S
C1093 H1067 0.950 . S
C1093 C1092 1.414 1_655 S
C1093 C1094 1.374 . S
C1094 H1068 0.950 . S
C1094 C1090 1.385 1_655 S
C1094 C1093 1.374 . S
C1095 C1092 1.499 . S
C1095 C1096 1.373 1_455 S
C1095 C1097 1.389 . S
C1096 H1069 0.950 . S
C1096 C1082 1.377 . S
C1096 C1095 1.373 1_655 S
C1097 C1081 1.377 . S
C1097 C1095 1.389 . S
C1097 C1098 1.524 . S
C1098 C1097 1.524 . S
C1098 C1099 1.397 . S
C1098 C1103 1.363 . S
C1099 H1070 0.950 . S
C1099 C1098 1.397 . S
C1099 C1100 1.334 . S
C1100 H1071 0.950 . S
C1100 C1099 1.334 . S
C1100 C1101 1.287 . S
C1101 C1100 1.287 . S
C1101 C1102 1.524 . S
C1101 H1104 0.999 . S
C1102 H1072 0.950 . S
C1102 C1101 1.524 . S
C1102 C1103 1.415 . S
C1103 H1073 0.950 . S
C1103 C1098 1.363 . S
C1103 C1102 1.415 . S
H1104 C1101 0.999 . S
H1105 C1086 0.913 . S
H1106 C1124 0.951 . S
H1107 C1126 0.951 . S
H1108 C1128 0.950 . S
H1109 C1129 0.950 . S
H1110 C1131 0.950 . S
H1111 C1134 1.008 . S
H1112 C1135 0.950 1_545 S
H1113 C1137 0.950 . S
H1114 C1138 0.950 . S
H1115 C1139 0.951 . S
H1116 C1141 0.951 . S
H1117 C1143 0.950 . S
H1118 C1144 0.950 . S
H1119 C1146 0.950 . S
H1120 C1149 0.950 . S
H1121 C1150 0.950 . S
H1122 C1152 0.950 . S
H1123 C1153 0.950 . S
C1124 H1106 0.951 . S
C1124 C1125 1.366 1_565 S
C1124 C1126 1.388 . S
C1125 C1124 1.366 1_545 S
C1125 C1129 1.385 . S
C1126 H1107 0.951 . S
C1126 C1124 1.388 . S
C1126 C1127 1.366 1_565 S
C1127 C1126 1.366 1_545 S
C1127 C1128 1.414 . S
C1127 C1130 1.499 . S
C1128 H1108 0.950 . S
C1128 C1127 1.414 . S
C1128 C1129 1.374 . S
C1129 H1109 0.950 . S
C1129 C1125 1.385 . S
C1129 C1128 1.374 . S
C1130 C1127 1.499 . S
C1130 C1131 1.373 . S
C1130 C1132 1.389 1_545 S
C1131 H1110 0.950 . S
C1131 C1130 1.373 . S
C1131 C1147 1.377 . S
C1132 C1130 1.389 1_565 S
C1132 C1133 1.524 . S
C1132 C1146 1.377 . S
C1133 C1132 1.524 . S
C1133 C1134 1.362 1_566 S
C1133 C1138 1.363 . S
C1134 H1111 1.008 . S
C1134 C1133 1.362 1_544 S
C1134 C1135 1.314 1_545 S
C1135 H1112 0.950 1_565 S
C1135 C1134 1.314 1_565 S
C1135 C1136 1.287 . S
C1136 C1135 1.287 . S
C1136 C1137 1.524 . S
C1136 H1155 0.913 . S
C1137 H1113 0.950 . S
C1137 C1136 1.524 . S
C1137 C1138 1.415 1_554 S
C1138 H1114 0.950 . S
C1138 C1133 1.363 . S
C1138 C1137 1.415 1_556 S
C1139 H1115 0.951 . S
C1139 C1140 1.366 . S
C1139 C1141 1.388 . S
C1140 C1139 1.366 . S
C1140 C1144 1.385 1_545 S
C1141 H1116 0.951 . S
C1141 C1139 1.388 . S
C1141 C1142 1.366 . S
C1142 C1141 1.366 . S
C1142 C1143 1.414 1_545 S
C1142 C1145 1.499 . S
C1143 H1117 0.950 . S
C1143 C1142 1.414 1_565 S
C1143 C1144 1.374 . S
C1144 H1118 0.950 . S
C1144 C1140 1.385 1_565 S
C1144 C1143 1.374 . S
C1145 C1142 1.499 . S
C1145 C1146 1.373 1_545 S
C1145 C1147 1.389 . S
C1146 H1119 0.950 . S
C1146 C1132 1.377 . S
C1146 C1145 1.373 1_565 S
C1147 C1131 1.377 . S
C1147 C1145 1.389 . S
C1147 C1148 1.524 . S
C1148 C1147 1.524 . S
C1148 C1149 1.397 . S
C1148 C1153 1.363 . S
C1149 H1120 0.950 . S
C1149 C1148 1.397 . S
C1149 C1150 1.334 . S
C1150 H1121 0.950 . S
C1150 C1149 1.334 . S
C1150 C1151 1.287 . S
C1151 C1150 1.287 . S
C1151 C1152 1.524 . S
C1151 H1154 0.999 . S
C1152 H1122 0.950 . S
C1152 C1151 1.524 . S
C1152 C1153 1.415 . S
C1153 H1123 0.950 . S
C1153 C1148 1.363 . S
C1153 C1152 1.415 . S
H1154 C1151 0.999 . S
H1155 C1136 0.913 . S
H1156 C1174 0.951 . S
H1157 C1176 0.951 . S
H1158 C1178 0.950 . S
H1159 C1179 0.950 . S
H1160 C1181 0.950 . S
H1161 C1184 0.950 1_556 S
H1162 C1185 0.950 . S
H1163 C1187 0.950 . S
H1164 C1188 0.950 . S
H1165 C1189 0.951 . S
H1166 C1191 0.951 . S
H1167 C1193 0.950 . S
H1168 C1194 0.950 . S
H1169 C1196 0.950 . S
H1170 C1199 0.950 . S
H1171 C1200 0.950 . S
H1172 C1202 0.950 . S
H1173 C1203 0.950 . S
C1174 H1156 0.951 . S
C1174 C1175 1.366 . S
C1174 C1176 1.388 . S
C1175 C1174 1.366 . S
C1175 C1179 1.385 . S
C1176 H1157 0.951 . S
C1176 C1174 1.388 . S
C1176 C1177 1.366 . S
C1177 C1176 1.366 . S
C1177 C1178 1.414 . S
C1177 C1180 1.499 . S
C1178 H1158 0.950 . S
C1178 C1177 1.414 . S
C1178 C1179 1.374 . S
C1179 H1159 0.950 . S
C1179 C1175 1.385 . S
C1179 C1178 1.374 . S
C1180 C1177 1.499 . S
C1180 C1181 1.373 . S
C1180 C1182 1.389 . S
C1181 H1160 0.950 . S
C1181 C1180 1.373 . S
C1181 C1197 1.377 . S
C1182 C1180 1.389 . S
C1182 C1183 1.524 . S
C1182 C1196 1.377 . S
C1183 C1182 1.524 . S
C1183 C1184 1.397 1_556 S
C1183 C1188 1.363 1_556 S
C1184 H1161 0.950 1_554 S
C1184 C1183 1.397 1_554 S
C1184 C1185 1.334 . S
C1185 H1162 0.950 . S
C1185 C1184 1.334 . S
C1185 C1186 1.287 . S
C1186 C1185 1.287 . S
C1186 C1187 1.524 . S
C1186 H1205 0.913 . S
C1187 H1163 0.950 . S
C1187 C1186 1.524 . S
C1187 C1188 1.415 . S
C1188 H1164 0.950 . S
C1188 C1183 1.363 1_554 S
C1188 C1187 1.415 . S
C1189 H1165 0.951 . S
C1189 C1190 1.366 . S
C1189 C1191 1.388 . S
C1190 C1189 1.366 . S
C1190 C1194 1.385 . S
C1191 H1166 0.951 . S
C1191 C1189 1.388 . S
C1191 C1192 1.366 . S
C1192 C1191 1.366 . S
C1192 C1193 1.414 . S
C1192 C1195 1.499 . S
C1193 H1167 0.950 . S
C1193 C1192 1.414 . S
C1193 C1194 1.374 . S
C1194 H1168 0.950 . S
C1194 C1190 1.385 . S
C1194 C1193 1.374 . S
C1195 C1192 1.499 . S
C1195 C1196 1.373 . S
C1195 C1197 1.389 . S
C1196 H1169 0.950 . S
C1196 C1182 1.377 . S
C1196 C1195 1.373 . S
C1197 C1181 1.377 . S
C1197 C1195 1.389 . S
C1197 C1198 1.524 . S
C1198 C1197 1.524 . S
C1198 C1199 1.397 . S
C1198 C1203 1.363 . S
C1199 H1170 0.950 . S
C1199 C1198 1.397 . S
C1199 C1200 1.334 . S
C1200 H1171 0.950 . S
C1200 C1199 1.334 . S
C1200 C1201 1.287 . S
C1201 C1200 1.287 . S
C1201 C1202 1.524 . S
C1201 H1204 0.999 . S
C1202 H1172 0.950 . S
C1202 C1201 1.524 . S
C1202 C1203 1.415 . S
C1203 H1173 0.950 . S
C1203 C1198 1.363 . S
C1203 C1202 1.415 . S
H1204 C1201 0.999 . S
H1205 C1186 0.913 . S
H1206 C1224 0.951 . S
H1207 C1226 0.951 . S
H1208 C1228 0.950 . S
H1209 C1229 0.950 . S
H1210 C1231 0.950 . S
H1211 C1234 0.950 . S
H1212 C1235 0.950 . S
H1213 C1237 0.950 . S
H1214 C1238 0.950 1_554 S
H1215 C1239 0.951 . S
H1216 C1241 0.951 . S
H1217 C1243 0.950 . S
H1218 C1244 0.950 . S
H1219 C1246 0.950 . S
H1220 C1249 0.950 . S
H1221 C1250 0.950 . S
H1222 C1252 0.950 . S
H1223 C1253 0.950 . S
C1224 H1206 0.951 . S
C1224 C1225 1.366 . S
C1224 C1226 1.388 . S
C1225 C1224 1.366 . S
C1225 C1229 1.385 . S
C1226 H1207 0.951 . S
C1226 C1224 1.388 . S
C1226 C1227 1.366 . S
C1227 C1226 1.366 . S
C1227 C1228 1.414 . S
C1227 C1230 1.499 . S
C1228 H1208 0.950 . S
C1228 C1227 1.414 . S
C1228 C1229 1.374 . S
C1229 H1209 0.950 . S
C1229 C1225 1.385 . S
C1229 C1228 1.374 . S
C1230 C1227 1.499 . S
C1230 C1231 1.373 . S
C1230 C1232 1.389 . S
C1231 H1210 0.950 . S
C1231 C1230 1.373 . S
C1231 C1247 1.377 . S
C1232 C1230 1.389 . S
C1232 C1233 1.524 . S
C1232 C1246 1.377 . S
C1233 C1232 1.524 . S
C1233 C1234 1.397 . S
C1233 C1238 1.363 . S
C1234 H1211 0.950 . S
C1234 C1233 1.397 . S
C1234 C1235 1.334 . S
C1235 H1212 0.950 . S
C1235 C1234 1.334 . S
C1235 C1236 1.287 . S
C1236 C1235 1.287 . S
C1236 C1237 1.524 1_556 S
C1236 H1255 0.913 1_556 S
C1237 H1213 0.950 . S
C1237 C1236 1.524 1_554 S
C1237 C1238 1.415 1_554 S
C1238 H1214 0.950 1_556 S
C1238 C1233 1.363 . S
C1238 C1237 1.415 1_556 S
C1239 H1215 0.951 . S
C1239 C1240 1.366 . S
C1239 C1241 1.388 . S
C1240 C1239 1.366 . S
C1240 C1244 1.385 . S
C1241 H1216 0.951 . S
C1241 C1239 1.388 . S
C1241 C1242 1.366 . S
C1242 C1241 1.366 . S
C1242 C1243 1.414 . S
C1242 C1245 1.499 . S
C1243 H1217 0.950 . S
C1243 C1242 1.414 . S
C1243 C1244 1.374 . S
C1244 H1218 0.950 . S
C1244 C1240 1.385 . S
C1244 C1243 1.374 . S
C1245 C1242 1.499 . S
C1245 C1246 1.373 . S
C1245 C1247 1.389 . S
C1246 H1219 0.950 . S
C1246 C1232 1.377 . S
C1246 C1245 1.373 . S
C1247 C1231 1.377 . S
C1247 C1245 1.389 . S
C1247 C1248 1.524 . S
C1248 C1247 1.524 . S
C1248 C1249 1.397 . S
C1248 C1253 1.363 . S
C1249 H1220 0.950 . S
C1249 C1248 1.397 . S
C1249 C1250 1.334 . S
C1250 H1221 0.950 . S
C1250 C1249 1.334 . S
C1250 C1251 1.287 . S
C1251 C1250 1.287 . S
C1251 C1252 1.524 . S
C1251 H1254 0.999 . S
C1252 H1222 0.950 . S
C1252 C1251 1.524 . S
C1252 C1253 1.415 . S
C1253 H1223 0.950 . S
C1253 C1248 1.363 . S
C1253 C1252 1.415 . S
H1254 C1251 0.999 . S
H1255 C1236 0.913 1_554 S
H1256 C1274 0.951 . S
H1257 C1276 0.951 . S
H1258 C1278 0.950 . S
H1259 C1279 0.950 . S
H1260 C1281 0.950 . S
H1261 C1284 0.950 . S
H1262 C1285 0.950 . S
H1263 C1287 0.950 . S
H1264 C1288 0.950 . S
H1265 C1289 0.951 . S
H1266 C1291 0.951 . S
H1267 C1293 0.950 . S
H1268 C1294 0.950 . S
H1269 C1296 0.950 . S
H1270 C1299 0.950 . S
H1271 C1300 0.950 . S
H1272 C1302 0.950 1_455 S
H1273 C1303 0.950 . S
C1274 H1256 0.951 . S
C1274 C1275 1.406 . S
C1274 C1276 1.388 . S
C1275 C1274 1.406 . S
C1275 C1279 1.347 1_655 S
C1276 H1257 0.951 . S
C1276 C1274 1.388 . S
C1276 C1277 1.366 . S
C1277 C1276 1.366 . S
C1277 C1278 1.414 1_655 S
C1277 C1280 1.499 . S
C1278 H1258 0.950 . S
C1278 C1277 1.414 1_455 S
C1278 C1279 1.374 . S
C1279 H1259 0.950 . S
C1279 C1275 1.347 1_455 S
C1279 C1278 1.374 . S
C1280 C1277 1.499 . S
C1280 C1281 1.373 . S
C1280 C1282 1.389 . S
C1281 H1260 0.950 . S
C1281 C1280 1.373 . S
C1281 C1297 1.377 . S
C1282 C1280 1.389 . S
C1282 C1283 1.524 1_655 S
C1282 C1296 1.377 . S
C1283 C1282 1.524 1_455 S
C1283 C1284 1.397 . S
C1283 C1288 1.363 1_455 S
C1284 H1261 0.950 . S
C1284 C1283 1.397 . S
C1284 C1285 1.334 . S
C1285 H1262 0.950 . S
C1285 C1284 1.334 . S
C1285 C1286 1.287 . S
C1286 C1285 1.287 . S
C1286 C1287 1.524 1_455 S
C1286 H1305 0.913 . S
C1287 H1263 0.950 . S
C1287 C1286 1.524 1_655 S
C1287 C1288 1.415 . S
C1288 H1264 0.950 . S
C1288 C1283 1.363 1_655 S
C1288 C1287 1.415 . S
C1289 H1265 0.951 . S
C1289 C1290 1.366 1_455 S
C1289 C1291 1.388 . S
C1290 C1289 1.366 1_655 S
C1290 C1294 1.385 . S
C1291 H1266 0.951 . S
C1291 C1289 1.388 . S
C1291 C1292 1.366 1_455 S
C1292 C1291 1.366 1_655 S
C1292 C1293 1.414 . S
C1292 C1295 1.499 . S
C1293 H1267 0.950 . S
C1293 C1292 1.414 . S
C1293 C1294 1.374 . S
C1294 H1268 0.950 . S
C1294 C1290 1.385 . S
C1294 C1293 1.374 . S
C1295 C1292 1.499 . S
C1295 C1296 1.373 . S
C1295 C1297 1.389 . S
C1296 H1269 0.950 . S
C1296 C1282 1.377 . S
C1296 C1295 1.373 . S
C1297 C1281 1.377 . S
C1297 C1295 1.389 . S
C1297 C1298 1.524 . S
C1298 C1297 1.524 . S
C1298 C1299 1.397 . S
C1298 C1303 1.363 1_655 S
C1299 H1270 0.950 . S
C1299 C1298 1.397 . S
C1299 C1300 1.334 . S
C1300 H1271 0.950 . S
C1300 C1299 1.334 . S
C1300 C1301 1.287 . S
C1301 C1300 1.287 . S
C1301 C1302 1.524 . S
C1301 H1304 0.999 . S
C1302 H1272 0.950 1_655 S
C1302 C1301 1.524 . S
C1302 C1303 1.415 1_655 S
C1303 H1273 0.950 . S
C1303 C1298 1.363 1_455 S
C1303 C1302 1.415 1_455 S
H1304 C1301 0.999 . S
H1305 C1286 0.913 . S
H1306 C1324 0.951 . S
H1307 C1326 0.951 . S
H1308 C1328 0.950 . S
H1309 C1329 0.949 . S
H1310 C1331 0.950 . S
H1311 C1334 0.950 . S
H1312 C1335 0.950 . S
H1313 C1337 0.950 . S
H1314 C1338 0.950 . S
H1315 C1339 0.951 . S
H1316 C1341 0.951 . S
H1317 C1343 0.950 . S
H1318 C1344 0.950 . S
H1319 C1346 0.950 . S
H1320 C1349 0.950 . S
H1321 C1350 0.950 . S
H1322 C1352 0.950 . S
H1323 C1353 0.950 . S
C1324 H1306 0.951 . S
C1324 C1325 1.366 . S
C1324 C1326 1.388 . S
C1325 C1324 1.366 . S
C1325 C1329 1.386 . S
C1326 H1307 0.951 . S
C1326 C1324 1.388 . S
C1326 C1327 1.366 . S
C1327 C1326 1.366 . S
C1327 C1328 1.414 . S
C1327 C1330 1.499 . S
C1328 H1308 0.950 . S
C1328 C1327 1.414 . S
C1328 C1329 1.378 . S
C1329 H1309 0.949 . S
C1329 C1325 1.386 . S
C1329 C1328 1.378 . S
C1330 C1327 1.499 . S
C1330 C1331 1.373 1_565 S
C1330 C1332 1.389 . S
C1331 H1310 0.950 . S
C1331 C1330 1.373 1_545 S
C1331 C1347 1.377 . S
C1332 C1330 1.389 . S
C1332 C1333 1.524 . S
C1332 C1346 1.377 . S
C1333 C1332 1.524 . S
C1333 C1334 1.397 . S
C1333 C1338 1.363 . S
C1334 H1311 0.950 . S
C1334 C1333 1.397 . S
C1334 C1335 1.334 . S
C1335 H1312 0.950 . S
C1335 C1334 1.334 . S
C1335 C1336 1.287 . S
C1336 C1335 1.287 . S
C1336 C1337 1.524 . S
C1336 H1355 0.913 . S
C1337 H1313 0.950 . S
C1337 C1336 1.524 . S
C1337 C1338 1.415 . S
C1338 H1314 0.950 . S
C1338 C1333 1.363 . S
C1338 C1337 1.415 . S
C1339 H1315 0.951 . S
C1339 C1340 1.366 . S
C1339 C1341 1.388 . S
C1340 C1339 1.366 . S
C1340 C1344 1.385 . S
C1341 H1316 0.951 . S
C1341 C1339 1.388 . S
C1341 C1342 1.366 . S
C1342 C1341 1.366 . S
C1342 C1343 1.414 . S
C1342 C1345 1.499 . S
C1343 H1317 0.950 . S
C1343 C1342 1.414 . S
C1343 C1344 1.374 . S
C1344 H1318 0.950 . S
C1344 C1340 1.385 . S
C1344 C1343 1.374 . S
C1345 C1342 1.499 . S
C1345 C1346 1.373 . S
C1345 C1347 1.389 1_565 S
C1346 H1319 0.950 . S
C1346 C1332 1.377 . S
C1346 C1345 1.373 . S
C1347 C1331 1.377 . S
C1347 C1345 1.389 1_545 S
C1347 C1348 1.524 . S
C1348 C1347 1.524 . S
C1348 C1349 1.397 . S
C1348 C1353 1.363 . S
C1349 H1320 0.950 . S
C1349 C1348 1.397 . S
C1349 C1350 1.334 . S
C1350 H1321 0.950 . S
C1350 C1349 1.334 . S
C1350 C1351 1.287 . S
C1351 C1350 1.287 . S
C1351 C1352 1.524 . S
C1351 H1354 0.999 . S
C1352 H1322 0.950 . S
C1352 C1351 1.524 . S
C1352 C1353 1.415 . S
C1353 H1323 0.950 . S
C1353 C1348 1.363 . S
C1353 C1352 1.415 . S
H1354 C1351 0.999 . S
H1355 C1336 0.913 . S
H1356 C1374 0.951 . S
H1357 C1376 0.951 . S
H1358 C1378 0.950 . S
H1359 C1379 0.950 . S
H1360 C1381 0.950 . S
H1361 C1384 0.950 . S
H1362 C1385 0.950 . S
H1363 C1387 0.950 . S
H1364 C1388 0.950 . S
H1365 C1389 0.951 . S
H1366 C1391 0.951 . S
H1367 C1393 0.950 . S
H1368 C1394 0.950 . S
H1369 C1396 0.950 . S
H1370 C1399 0.950 . S
H1371 C1400 0.950 . S
H1372 C1402 0.950 . S
H1373 C1403 0.950 . S
C1374 H1356 0.951 . S
C1374 C1375 1.366 . S
C1374 C1376 1.388 . S
C1375 C1374 1.366 . S
C1375 C1379 1.385 . S
C1376 H1357 0.951 . S
C1376 C1374 1.388 . S
C1376 C1377 1.366 . S
C1377 C1376 1.366 . S
C1377 C1378 1.414 . S
C1377 C1380 1.499 . S
C1378 H1358 0.950 . S
C1378 C1377 1.414 . S
C1378 C1379 1.374 . S
C1379 H1359 0.950 . S
C1379 C1375 1.385 . S
C1379 C1378 1.374 . S
C1380 C1377 1.499 . S
C1380 C1381 1.373 . S
C1380 C1382 1.389 . S
C1381 H1360 0.950 . S
C1381 C1380 1.373 . S
C1381 C1397 1.377 . S
C1382 C1380 1.389 . S
C1382 C1383 1.524 . S
C1382 C1396 1.377 . S
C1383 C1382 1.524 . S
C1383 C1384 1.397 . S
C1383 C1388 1.363 . S
C1384 H1361 0.950 . S
C1384 C1383 1.397 . S
C1384 C1385 1.334 . S
C1385 H1362 0.950 . S
C1385 C1384 1.334 . S
C1385 C1386 1.287 . S
C1386 C1385 1.287 . S
C1386 C1387 1.524 . S
C1386 H1405 0.913 . S
C1387 H1363 0.950 . S
C1387 C1386 1.524 . S
C1387 C1388 1.415 . S
C1388 H1364 0.950 . S
C1388 C1383 1.363 . S
C1388 C1387 1.415 . S
C1389 H1365 0.951 . S
C1389 C1390 1.366 . S
C1389 C1391 1.388 . S
C1390 C1389 1.366 . S
C1390 C1394 1.385 . S
C1391 H1366 0.951 . S
C1391 C1389 1.388 . S
C1391 C1392 1.366 . S
C1392 C1391 1.366 . S
C1392 C1393 1.414 . S
C1392 C1395 1.499 . S
C1393 H1367 0.950 . S
C1393 C1392 1.414 . S
C1393 C1394 1.374 . S
C1394 H1368 0.950 . S
C1394 C1390 1.385 . S
C1394 C1393 1.374 . S
C1395 C1392 1.499 . S
C1395 C1396 1.373 . S
C1395 C1397 1.389 . S
C1396 H1369 0.950 . S
C1396 C1382 1.377 . S
C1396 C1395 1.373 . S
C1397 C1381 1.377 . S
C1397 C1395 1.389 . S
C1397 C1398 1.524 . S
C1398 C1397 1.524 . S
C1398 C1399 1.397 . S
C1398 C1403 1.363 . S
C1399 H1370 0.950 . S
C1399 C1398 1.397 . S
C1399 C1400 1.334 . S
C1400 H1371 0.950 . S
C1400 C1399 1.334 . S
C1400 C1401 1.287 . S
C1401 C1400 1.287 . S
C1401 C1402 1.524 . S
C1401 H1404 0.999 . S
C1402 H1372 0.950 . S
C1402 C1401 1.524 . S
C1402 C1403 1.415 . S
C1403 H1373 0.950 . S
C1403 C1398 1.363 . S
C1403 C1402 1.415 . S
H1404 C1401 0.999 . S
H1405 C1386 0.913 . S
H1406 C1424 0.951 . S
H1407 C1426 0.951 . S
H1408 C1428 0.950 . S
H1409 C1429 0.950 . S
H1410 C1431 0.950 . S
H1411 C1434 0.950 . S
H1412 C1435 0.950 . S
H1413 C1437 0.950 . S
H1414 C1438 0.950 . S
H1415 C1439 0.951 . S
H1416 C1441 0.951 . S
H1417 C1443 0.950 . S
H1418 C1444 0.950 . S
H1419 C1446 0.950 . S
H1420 C1449 0.950 . S
H1421 C1450 0.950 . S
H1422 C1452 0.950 . S
H1423 C1453 0.950 . S
C1424 H1406 0.951 . S
C1424 C1425 1.366 . S
C1424 C1426 1.388 . S
C1425 C1424 1.366 . S
C1425 C1429 1.385 . S
C1426 H1407 0.951 . S
C1426 C1424 1.388 . S
C1426 C1427 1.366 . S
C1427 C1426 1.366 . S
C1427 C1428 1.414 . S
C1427 C1430 1.499 . S
C1428 H1408 0.950 . S
C1428 C1427 1.414 . S
C1428 C1429 1.374 . S
C1429 H1409 0.950 . S
C1429 C1425 1.385 . S
C1429 C1428 1.374 . S
C1430 C1427 1.499 . S
C1430 C1431 1.373 . S
C1430 C1432 1.389 . S
C1431 H1410 0.950 . S
C1431 C1430 1.373 . S
C1431 C1447 1.377 . S
C1432 C1430 1.389 . S
C1432 C1433 1.524 . S
C1432 C1446 1.377 . S
C1433 C1432 1.524 . S
C1433 C1434 1.397 . S
C1433 C1438 1.363 . S
C1434 H1411 0.950 . S
C1434 C1433 1.397 . S
C1434 C1435 1.334 . S
C1435 H1412 0.950 . S
C1435 C1434 1.334 . S
C1435 C1436 1.287 . S
C1436 C1435 1.287 . S
C1436 C1437 1.524 . S
C1436 H1455 0.913 . S
C1437 H1413 0.950 . S
C1437 C1436 1.524 . S
C1437 C1438 1.415 . S
C1438 H1414 0.950 . S
C1438 C1433 1.363 . S
C1438 C1437 1.415 . S
C1439 H1415 0.951 . S
C1439 C1440 1.366 . S
C1439 C1441 1.388 . S
C1440 C1439 1.366 . S
C1440 C1444 1.385 . S
C1441 H1416 0.951 . S
C1441 C1439 1.388 . S
C1441 C1442 1.366 . S
C1442 C1441 1.366 . S
C1442 C1443 1.414 . S
C1442 C1445 1.499 . S
C1443 H1417 0.950 . S
C1443 C1442 1.414 . S
C1443 C1444 1.374 . S
C1444 H1418 0.950 . S
C1444 C1440 1.385 . S
C1444 C1443 1.374 . S
C1445 C1442 1.499 . S
C1445 C1446 1.373 . S
C1445 C1447 1.389 . S
C1446 H1419 0.950 . S
C1446 C1432 1.377 . S
C1446 C1445 1.373 . S
C1447 C1431 1.377 . S
C1447 C1445 1.389 . S
C1447 C1448 1.524 . S
C1448 C1447 1.524 . S
C1448 C1449 1.397 . S
C1448 C1453 1.363 . S
C1449 H1420 0.950 . S
C1449 C1448 1.397 . S
C1449 C1450 1.334 . S
C1450 H1421 0.950 . S
C1450 C1449 1.334 . S
C1450 C1451 1.287 . S
C1451 C1450 1.287 . S
C1451 C1452 1.524 . S
C1451 H1454 0.999 . S
C1452 H1422 0.950 . S
C1452 C1451 1.524 . S
C1452 C1453 1.415 . S
C1453 H1423 0.950 . S
C1453 C1448 1.363 . S
C1453 C1452 1.415 . S
H1454 C1451 0.999 . S
H1455 C1436 0.913 . S
C275 C76 1.723 . S
C290 C106 1.825 . S
C340 C146 1.825 . S
C325 C88 1.724 . S
C390 C186 1.824 . S
C375 C52 1.724 . S
C440 C226 1.825 . S
C425 C64 1.724 . S
C490 C115 1.828 . S
C475 C28 1.723 . S
C525 C40 1.724 . S
C540 C155 1.824 . S
C575 C4 1.723 . S
C590 C195 1.825 . S
C625 C16 1.724 . S
C640 C235 1.828 . S
C690 C112 0.321 . S
C675 C69 0.376 . S
C740 C152 0.318 . S
C725 C81 0.374 . S
C790 C192 0.318 . S
C775 C93 0.373 . S
C825 C57 0.375 . S
C840 C232 0.321 . S
C875 C21 0.390 1_655 S
C890 C103 0.318 . S
C940 C143 0.320 . S
C925 C33 0.391 1_565 S
C990 C183 0.317 . S
C975 C45 0.389 . S
C1025 C9 0.389 . S
C1040 C223 0.317 . S
C1075 C66 1.877 . S
C1090 C107 2.065 . S
C1125 C78 1.877 . S
C1140 C147 2.065 . S
C1190 C187 2.065 . S
C1175 C90 1.877 . S
C1240 C227 2.065 . S
C1225 C54 1.877 . S
C1275 C18 1.877 1_655 S
C1290 C98 2.065 . S
C1340 C138 2.065 . S
C1325 C30 1.878 1_565 S
C1390 C178 2.065 . S
C1375 C42 1.879 . S
C1425 C6 1.879 . S
C1440 C218 2.065 . S
