# Generated by pormake.
# Topology zzz, (3,6)-cn, num edge types: 1
# Building blocks:
#     Node 0, Type 0, BuildingBlock: QEWDON_clean_linker_0, # of connection points: 3
#     Node 1, Type 0, BuildingBlock: QEWDON_clean_linker_0, # of connection points: 3
#     Node 2, Type 0, BuildingBlock: QEWDON_clean_linker_0, # of connection points: 3
#     Node 3, Type 0, BuildingBlock: QEWDON_clean_linker_0, # of connection points: 3
#     Node 4, Type 0, BuildingBlock: QEWDON_clean_linker_0, # of connection points: 3
#     Node 5, Type 0, BuildingBlock: QEWDON_clean_linker_0, # of connection points: 3
#     Node 6, Type 0, BuildingBlock: QEWDON_clean_linker_0, # of connection points: 3
#     Node 7, Type 0, BuildingBlock: QEWDON_clean_linker_0, # of connection points: 3
#     Node 8, Type 1, BuildingBlock: BETFEN_clean_sbu_0, # of connection points: 6
#     Node 9, Type 1, BuildingBlock: BETFEN_clean_sbu_0, # of connection points: 6
#     Node 10, Type 1, BuildingBlock: BETFEN_clean_sbu_0, # of connection points: 6
#     Node 11, Type 1, BuildingBlock: BETFEN_clean_sbu_0, # of connection points: 6
#     Edge 12, Type (0, 1), BuildingBlock: OJICUG_clean_linker_0, # of connection points: 2
#     Edge 13, Type (0, 1), BuildingBlock: OJICUG_clean_linker_0, # of connection points: 2
#     Edge 14, Type (0, 1), BuildingBlock: OJICUG_clean_linker_0, # of connection points: 2
#     Edge 15, Type (0, 1), BuildingBlock: OJICUG_clean_linker_0, # of connection points: 2
#     Edge 16, Type (0, 1), BuildingBlock: OJICUG_clean_linker_0, # of connection points: 2
#     Edge 17, Type (0, 1), BuildingBlock: OJICUG_clean_linker_0, # of connection points: 2
#     Edge 18, Type (0, 1), BuildingBlock: OJICUG_clean_linker_0, # of connection points: 2
#     Edge 19, Type (0, 1), BuildingBlock: OJICUG_clean_linker_0, # of connection points: 2
#     Edge 20, Type (0, 1), BuildingBlock: OJICUG_clean_linker_0, # of connection points: 2
#     Edge 21, Type (0, 1), BuildingBlock: OJICUG_clean_linker_0, # of connection points: 2
#     Edge 22, Type (0, 1), BuildingBlock: OJICUG_clean_linker_0, # of connection points: 2
#     Edge 23, Type (0, 1), BuildingBlock: OJICUG_clean_linker_0, # of connection points: 2
#     Edge 24, Type (0, 1), BuildingBlock: OJICUG_clean_linker_0, # of connection points: 2
#     Edge 25, Type (0, 1), BuildingBlock: OJICUG_clean_linker_0, # of connection points: 2
#     Edge 26, Type (0, 1), BuildingBlock: OJICUG_clean_linker_0, # of connection points: 2
#     Edge 27, Type (0, 1), BuildingBlock: OJICUG_clean_linker_0, # of connection points: 2
#     Edge 28, Type (0, 1), BuildingBlock: OJICUG_clean_linker_0, # of connection points: 2
#     Edge 29, Type (0, 1), BuildingBlock: OJICUG_clean_linker_0, # of connection points: 2
#     Edge 30, Type (0, 1), BuildingBlock: OJICUG_clean_linker_0, # of connection points: 2
#     Edge 31, Type (0, 1), BuildingBlock: OJICUG_clean_linker_0, # of connection points: 2
#     Edge 32, Type (0, 1), BuildingBlock: OJICUG_clean_linker_0, # of connection points: 2
#     Edge 33, Type (0, 1), BuildingBlock: OJICUG_clean_linker_0, # of connection points: 2
#     Edge 34, Type (0, 1), BuildingBlock: OJICUG_clean_linker_0, # of connection points: 2
#     Edge 35, Type (0, 1), BuildingBlock: OJICUG_clean_linker_0, # of connection points: 2
# Relax obj value: 0.247
# Max RMSD: 0.193
# Mean RMSD: 0.123
data_MOF--net-zzz--node1-BETFEN_clean_sbu_0--node2-QEWDON_clean_linker_0--edge1-OJICUG_clean_linker_0
_symmetry_space_group_name_H-M    P1
_symmetry_Int_Tables_number       1
_symmetry_cell_setting            triclinic
loop_
_symmetry_equiv_pos_as_xyz
'x, y, z'
_cell_length_a     41.334839
_cell_length_b     41.40454
_cell_length_c     9.7841059
_cell_angle_alpha  89.85326
_cell_angle_beta   89.901249
_cell_angle_gamma 90.230269
loop_
_atom_site_label
_atom_site_type_symbol
_atom_site_fract_x
_atom_site_fract_y
_atom_site_fract_z
_atom_type_partial_charge
H0 H 0.75605 0.47942 0.28569 0.0
C1 C 0.77637 0.48963 0.34056 0.0
C2 C 0.80624 0.47418 0.3309 0.0
C3 C 0.77278 0.51763 0.4213 0.0
H4 H 0.85637 0.4748 0.38974 0.0
C5 C 0.83302 0.48645 0.40134 0.0
C6 C 0.83087 0.51424 0.4807 0.0
C7 C 0.80056 0.52989 0.49165 0.0
C8 C 0.73982 0.5329 0.43385 0.0
H9 H 0.79893 0.55176 0.55163 0.0
C10 C 0.71661 0.53112 0.3266 0.0
C11 C 0.6845 0.54248 0.34411 0.0
C12 C 0.73046 0.54746 0.55727 0.0
H13 H 0.74693 0.54881 0.64291 0.0
C14 C 0.69917 0.55936 0.5744 0.0
H15 H 0.72351 0.52106 0.22894 0.0
C16 C 0.67636 0.55669 0.46994 0.0
H17 H 0.65206 0.56511 0.4897 0.0
H18 H 0.69228 0.57009 0.67092 0.0
H19 H 0.07663 0.75735 0.27095 0.0
C20 C 0.06705 0.77757 0.32782 0.0
C21 C 0.08435 0.80662 0.32644 0.0
C22 C 0.03796 0.77469 0.40281 0.0
H23 H 0.08575 0.85607 0.39412 0.0
C24 C 0.07279 0.83323 0.39964 0.0
C25 C 0.04389 0.83169 0.47285 0.0
C26 C 1.02639 0.80229 0.47507 0.0
C27 C 1.02078 0.74258 0.40864 0.0
H28 H 1.00367 0.80124 0.53016 0.0
C29 C 1.02219 0.72012 0.29871 0.0
C30 C 1.0093 0.68858 0.31263 0.0
C31 C 1.00486 0.73308 0.52955 0.0
H32 H 1.00374 0.74899 0.617 0.0
C33 C 0.99125 0.70232 0.54198 0.0
H34 H 0.034 0.72666 0.20372 0.0
C35 C 0.99367 0.68018 0.43537 0.0
H36 H 0.98336 0.65629 0.4491 0.0
H37 H 0.97934 0.69534 0.63624 0.0
H38 H 0.80211 0.07414 0.27213 0.0
C39 C 0.78152 0.06475 0.3283 0.0
C40 C 0.75239 0.08164 0.32186 0.0
C41 C 0.78402 0.03632 0.40754 0.0
H42 H 0.70246 0.08294 0.38467 0.0
C43 C 0.72533 0.07029 0.39391 0.0
C44 C 0.72656 0.04206 0.47154 0.0
C45 C 0.75605 1.02504 0.47925 0.0
C46 C 0.81607 1.01947 0.4178 0.0
H47 H 0.75688 1.00284 0.53781 0.0
C48 C 0.83883 1.02 0.30851 0.0
C49 C 0.87033 1.00748 0.32553 0.0
C50 C 0.82519 1.00477 0.54163 0.0
H51 H 0.80897 1.00436 0.62858 0.0
C52 C 0.85594 0.99151 0.55731 0.0
H53 H 0.83254 0.03088 0.21145 0.0
C54 C 0.87842 0.99308 0.45102 0.0
H55 H 0.9023 0.9831 0.46714 0.0
H56 H 0.86265 0.98054 0.65371 0.0
H57 H 0.48104 0.79908 0.31141 0.0
C58 C 0.49231 0.77915 0.36483 0.0
C59 C 0.4758 0.74955 0.37233 0.0
C60 C 0.52292 0.78298 0.42696 0.0
H61 H 0.47807 0.7001 0.44189 0.0
C62 C 0.49007 0.72347 0.44079 0.0
C63 C 0.5205 0.72604 0.50052 0.0
C64 C 0.53701 0.75588 0.4943 0.0
C65 C 0.53925 0.81549 0.42627 0.0
H66 H 0.56083 0.75773 0.53958 0.0
C67 C 0.53612 0.83754 0.31517 0.0
C68 C 0.54914 0.86916 0.32328 0.0
C69 C 0.55649 0.82557 0.54262 0.0
H70 H 0.55887 0.80993 0.63083 0.0
C71 C 0.56992 0.85646 0.5495 0.0
H72 H 0.52308 0.83052 0.22399 0.0
C73 C 0.56613 0.87813 0.44158 0.0
H74 H 0.5765 0.9021 0.4507 0.0
H75 H 0.58288 0.86387 0.6403 0.0
H76 H 0.30304 0.5789 0.28098 0.0
C77 C 0.28267 0.56862 0.22682 0.0
C78 C 0.25283 0.58417 0.23657 0.0
C79 C 0.28608 0.54041 0.1472 0.0
H80 H 0.20265 0.5836 0.17845 0.0
C81 C 0.22596 0.57187 0.16689 0.0
C82 C 0.22793 0.54389 0.0887 0.0
C83 C 0.25815 0.52807 0.07809 0.0
C84 C 0.31892 0.5248 0.13501 0.0
H85 H 0.25955 0.506 0.01939 0.0
C86 C 0.3425 0.52714 0.24068 0.0
C87 C 0.37425 0.51486 0.22356 0.0
C88 C 0.32772 0.509 0.0135 0.0
H89 H 0.31103 0.50721 0.92873 0.0
C90 C 0.35869 0.49627 0.99698 0.0
H91 H 0.33624 0.53828 0.337 0.0
C92 C 0.38179 0.49932 0.10005 0.0
H93 H 0.40588 0.49018 0.08111 0.0
H94 H 0.3651 0.48454 0.902 0.0
H95 H 0.98288 0.29895 0.3152 0.0
C96 C 0.99253 0.27861 0.25927 0.0
C97 C 0.97584 0.24925 0.2653 0.0
C98 C 1.02105 0.28168 0.1806 0.0
H99 H 0.97495 0.19946 0.20239 0.0
C100 C 0.98747 0.22249 0.19344 0.0
C101 C 1.0158 0.22422 0.11632 0.0
C102 C 0.03264 0.25398 0.10907 0.0
C103 C 0.03754 0.31407 0.17032 0.0
H104 H 0.0549 0.25522 0.05082 0.0
C105 C 0.03647 0.3369 0.27891 0.0
C106 C 0.04861 0.36864 0.26139 0.0
C107 C 0.0524 0.32342 0.04683 0.0
H108 H 0.05322 0.30719 0.96036 0.0
C109 C 0.06526 0.3544 0.03068 0.0
H110 H 1.0255 0.33046 0.37578 0.0
C111 C 0.06316 0.3769 0.13614 0.0
H112 H 0.07292 0.40092 0.11958 0.0
H113 H 0.07636 0.36127 0.93452 0.0
H114 H 0.2579 0.98184 0.31395 0.0
C115 C 0.27841 0.9914 0.25777 0.0
C116 C 0.30756 0.9745 0.2625 0.0
C117 C 0.27579 1.02008 0.18026 0.0
H118 H 0.35742 0.97347 0.1984 0.0
C119 C 0.33451 0.98611 0.19042 0.0
C120 C 0.33317 1.01461 0.11467 0.0
C121 C 0.30366 0.03164 0.10874 0.0
C122 C 0.24372 0.03695 0.17151 0.0
H123 H 0.30276 0.05405 0.05162 0.0
C124 C 0.22108 0.0361 0.28118 0.0
C125 C 0.18958 0.04873 0.26543 0.0
C126 C 0.23449 0.05203 0.04865 0.0
H127 H 0.25062 0.05268 0.96141 0.0
C128 C 0.20374 0.06537 0.03425 0.0
H129 H 0.22745 1.02491 0.37752 0.0
C130 C 0.18138 0.06351 0.14088 0.0
H131 H 0.1575 0.07359 0.12576 0.0
H132 H 0.19695 0.07663 0.93858 0.0
H133 H 0.57395 0.26232 0.30843 0.0
C134 C 0.56289 0.28165 0.25046 0.0
C135 C 0.57789 0.312 0.24927 0.0
C136 C 0.53443 0.27621 0.1738 0.0
H137 H 0.5759 0.36098 0.17551 0.0
C138 C 0.56447 0.3373 0.17353 0.0
C139 C 0.53627 0.33311 0.09817 0.0
C140 C 0.52109 0.30251 0.09807 0.0
C141 C 0.52008 0.2428 0.16682 0.0
H142 H 0.49898 0.29942 0.04039 0.0
C143 C 0.5221 0.22058 0.27784 0.0
C144 C 0.51139 0.18824 0.26345 0.0
C145 C 0.50612 0.23207 0.04378 0.0
H146 H 0.50478 0.24775 0.95533 0.0
C147 C 0.49479 0.20048 0.03064 0.0
H148 H 0.53262 0.22803 0.37406 0.0
C149 C 0.49755 0.17871 0.13876 0.0
H150 H 0.48888 0.15421 0.12467 0.0
H151 H 0.48432 0.19262 0.9349 0.0
Pr152 Pr 0.04946 1.01967 0.90008 0.0
Pr153 Pr 1.01049 0.03605 0.69121 0.0
C154 C 0.08314 0.99147 0.10186 0.0
C155 C 0.10455 0.96345 0.10327 0.0
C156 C 0.11358 0.94863 0.98014 0.0
C157 C 0.12874 0.91853 0.98174 0.0
C158 C 0.13474 0.9028 0.10662 0.0
C159 C 0.12844 0.91948 0.22952 0.0
C160 C 0.11329 0.94948 0.22764 0.0
C161 C 0.08786 0.03859 0.67649 0.0
C162 C 1.02794 0.96085 0.68834 0.0
C163 C 0.97655 0.06432 0.49048 0.0
C164 C 0.95533 0.09247 0.49025 0.0
C165 C 0.94681 0.10735 0.61393 0.0
C166 C 0.9319 0.13757 0.61325 0.0
C167 C 0.92561 0.15336 0.48876 0.0
C168 C 0.93138 0.13663 0.36547 0.0
C169 C 0.9463 0.10652 0.36642 0.0
C170 C 0.97231 1.01701 0.91531 0.0
C171 C 0.03209 0.09494 0.9021 0.0
O172 O 0.05264 0.98512 0.07926 0.0
O173 O 0.09368 1.01639 0.03317 0.0
O174 O 0.06364 1.01984 0.66811 0.0
O175 O 0.09128 0.04954 0.79922 0.0
O176 O 1.02166 0.98475 0.60398 0.0
O177 O 0.03521 0.9677 0.81609 0.0
O178 O 1.00714 0.07048 0.51172 0.0
O179 O 0.96603 0.03945 0.55953 0.0
O180 O 0.99638 0.03597 0.92293 0.0
O181 O 0.96895 1.0059 0.79281 0.0
O182 O 0.03826 0.07106 0.9867 0.0
O183 O 1.02489 0.08804 0.77435 0.0
H184 H 0.10708 0.95937 0.8829 0.0
H185 H 0.13334 0.90646 0.88561 0.0
H186 H 0.13213 0.90811 0.32802 0.0
H187 H 0.10648 0.96068 0.32339 0.0
H188 H 0.95354 0.09655 0.71077 0.0
H189 H 0.92772 0.14968 0.70964 0.0
H190 H 0.92745 0.14805 0.26722 0.0
H191 H 0.95271 0.09528 0.27028 0.0
Pr192 Pr 0.53831 0.04775 0.89887 0.0
Pr193 Pr 0.52135 1.0095 0.68855 0.0
C194 C 0.56729 0.08052 0.10124 0.0
C195 C 0.59575 0.10161 0.10093 0.0
C196 C 0.61047 0.11045 0.9768 0.0
C197 C 0.64089 0.12529 0.97641 0.0
C198 C 0.65698 0.1313 0.10028 0.0
C199 C 0.6405 0.12511 0.22424 0.0
C200 C 0.61025 0.11017 0.22435 0.0
C201 C 0.52062 0.08687 0.67612 0.0
C202 C 0.59693 1.02608 0.68681 0.0
C203 C 0.49266 0.97649 0.48607 0.0
C204 C 0.46437 0.95518 0.48534 0.0
C205 C 0.44947 0.9462 0.6089 0.0
C206 C 0.41917 0.93112 0.60812 0.0
C207 C 0.40335 0.92506 0.48367 0.0
C208 C 0.42005 0.93137 0.36032 0.0
C209 C 0.45022 0.9465 0.36136 0.0
C210 C 0.53908 0.97051 0.91155 0.0
C211 C 0.4627 0.03124 0.90014 0.0
O212 O 0.57309 0.05009 0.07695 0.0
O213 O 0.54226 0.0914 0.03498 0.0
O214 O 0.53882 0.0624 0.66732 0.0
O215 O 0.50951 0.09019 0.79884 0.0
O216 O 0.57296 1.02053 0.60198 0.0
O217 O 0.59009 0.03284 0.81506 0.0
O218 O 0.48662 1.00688 0.51023 0.0
O219 O 0.51763 0.96577 0.55315 0.0
O220 O 0.52076 0.9949 0.91991 0.0
O221 O 0.55025 0.96719 0.78894 0.0
O222 O 0.48663 0.03683 0.98509 0.0
O223 O 0.46956 1.02442 0.77198 0.0
H224 H 0.59937 0.10402 0.88028 0.0
H225 H 0.65287 0.12971 0.87956 0.0
H226 H 0.6522 0.12875 0.32197 0.0
H227 H 0.59922 0.10341 0.32086 0.0
H228 H 0.46032 0.9527 0.70584 0.0
H229 H 0.40705 0.92657 0.70455 0.0
H230 H 0.40858 0.92766 0.26215 0.0
H231 H 0.46143 0.95331 0.26529 0.0
Pr232 Pr 0.50782 0.53852 0.8814 0.0
Pr233 Pr 0.5511 0.51858 0.6837 0.0
C234 C 0.4682 0.55757 0.0831 0.0
C235 C 0.45645 0.59063 0.10649 0.0
C236 C 0.42337 0.5969 0.12612 0.0
C237 C 0.41228 0.62883 0.13544 0.0
C238 C 0.43405 0.65479 0.12048 0.0
C239 C 0.46699 0.64818 0.09842 0.0
C240 C 0.47802 0.61662 0.09172 0.0
C241 C 0.47688 0.53517 0.62605 0.0
C242 C 0.53804 0.59706 0.70643 0.0
C243 C 0.59106 0.50304 0.47708 0.0
C244 C 0.6115 0.47444 0.45823 0.0
C245 C 0.62613 0.45932 0.57125 0.0
C246 C 0.63794 0.42783 0.5602 0.0
C247 C 0.63563 0.41125 0.43566 0.0
C248 C 0.62389 0.42775 0.31987 0.0
C249 C 0.61147 0.45885 0.33179 0.0
C250 C 0.58257 0.52238 0.93739 0.0
C251 C 0.52146 0.45967 0.86308 0.0
O252 O 0.49915 0.55283 0.10186 0.0
O253 O 0.45757 0.54416 0.97158 0.0
O254 O 0.49537 0.51349 0.67343 0.0
O255 O 0.47645 0.56014 0.70522 0.0
O256 O 0.54371 0.57334 0.61999 0.0
O257 O 0.52814 0.58996 0.83055 0.0
O258 O 0.55996 0.49737 0.47386 0.0
O259 O 0.59936 0.52269 0.57503 0.0
O260 O 0.56366 0.54384 0.89083 0.0
O261 O 0.58332 0.49752 0.85772 0.0
O262 O 0.51259 0.48351 0.94388 0.0
O263 O 0.53425 0.4663 0.74302 0.0
H264 H 0.40616 0.5772 0.13288 0.0
H265 H 0.38687 0.63324 0.15472 0.0
H266 H 0.4847 0.66747 0.09111 0.0
H267 H 0.50357 0.61269 0.07403 0.0
H268 H 0.62614 0.47077 0.67064 0.0
H269 H 0.64649 0.41558 0.65112 0.0
H270 H 0.62096 0.41541 0.22311 0.0
H271 H 0.59937 0.4696 0.24495 0.0
Pr272 Pr 1.02149 0.50971 0.89148 0.0
Pr273 Pr 0.03721 0.54827 0.6802 0.0
C274 C 0.99328 0.47655 0.09585 0.0
C275 C 0.96456 0.45581 0.09808 0.0
C276 C 0.94914 0.44742 0.9753 0.0
C277 C 0.9186 0.43285 0.97771 0.0
C278 C 0.90307 0.42665 0.10304 0.0
C279 C 0.92017 0.43246 0.22544 0.0
C280 C 0.95057 0.44711 0.22278 0.0
C281 C 0.03919 0.47093 0.66841 0.0
C282 C 0.96155 0.53111 0.68411 0.0
C283 C 0.06547 0.58157 0.47628 0.0
C284 C 0.09436 0.60208 0.47346 0.0
C285 C 0.11009 0.61023 0.5958 0.0
C286 C 0.14068 0.62471 0.59252 0.0
C287 C 0.15594 0.63106 0.46673 0.0
C288 C 0.13857 0.62542 0.34488 0.0
C289 C 0.10811 0.61088 0.34841 0.0
C290 C 1.01939 0.58685 0.90364 0.0
C291 C 0.09714 0.52683 0.88717 0.0
O292 O 0.98775 0.50715 0.0737 0.0
O293 O 1.01775 0.46562 0.026 0.0
O294 O 1.02055 0.49512 0.66006 0.0
O295 O 0.05065 0.4678 0.79055 0.0
O296 O 0.98509 0.53755 0.59762 0.0
O297 O 0.96909 0.52373 0.81115 0.0
O298 O 0.07076 0.55088 0.49727 0.0
O299 O 0.04125 0.5926 0.54738 0.0
O300 O 0.03821 0.5628 0.91133 0.0
O301 O 1.00785 0.59001 0.78164 0.0
O302 O 0.07361 0.52054 0.97387 0.0
O303 O 0.08959 0.53409 0.76005 0.0
H304 H 0.95984 0.45394 0.8778 0.0
H305 H 0.90613 0.42872 0.882 0.0
H306 H 0.90889 0.42868 0.32421 0.0
H307 H 0.96215 0.45351 0.31826 0.0
H308 H 0.09958 0.60364 0.69357 0.0
H309 H 0.15335 0.62871 0.68785 0.0
H310 H 0.14963 0.62932 0.24576 0.0
H311 H 0.09628 0.60468 0.25324 0.0
C312 C 0.13356 0.0331 0.33996 0.0
C313 C 0.16432 0.04514 0.37413 0.0
H314 H 0.0854 1.0213 0.40695 0.0
C315 C 0.16994 0.05461 0.5098 0.0
H316 H 0.12895 1.0254 0.23692 0.0
C317 C 0.145 0.05278 0.60753 0.0
C318 C 0.11407 0.04087 0.57226 0.0
H319 H 0.19335 0.0641 0.53954 0.0
H320 H 0.14999 0.06057 0.71093 0.0
C321 C 0.10878 0.03075 0.43747 0.0
C322 C 0.50451 0.16862 0.50784 0.0
C323 C 0.51555 0.16349 0.37382 0.0
H324 H 0.4969 0.14827 0.70759 0.0
C325 C 0.52897 0.13329 0.34181 0.0
H326 H 0.49388 0.19156 0.53589 0.0
C327 C 0.53079 0.10849 0.43929 0.0
C328 C 0.51899 0.11321 0.57216 0.0
H329 H 0.53797 0.12904 0.24016 0.0
H330 H 0.54113 0.08549 0.4101 0.0
C331 C 0.506 0.14369 0.6057 0.0
C332 C 0.4238 0.49554 0.35399 0.0
C333 C 0.4001 0.51942 0.33023 0.0
H334 H 0.46655 0.48163 0.46462 0.0
C335 C 0.40242 0.54842 0.40426 0.0
H336 H 0.42279 0.47271 0.30047 0.0
C337 C 0.42769 0.55356 0.49735 0.0
C338 C 0.45126 0.52972 0.52105 0.0
H339 H 0.38516 0.56765 0.38783 0.0
H340 H 0.42863 0.57632 0.55143 0.0
C341 C 0.44897 0.5006 0.44828 0.0
C342 C 0.05453 0.3887 0.50504 0.0
C343 C 0.04496 0.39402 0.36916 0.0
H344 H 0.06079 0.40897 0.70514 0.0
C345 C 0.03296 0.42464 0.33381 0.0
H346 H 0.06402 0.36544 0.53578 0.0
C347 C 0.03082 0.44955 0.43029 0.0
C348 C 0.04106 0.44455 0.56522 0.0
H349 H 1.02516 0.42907 0.23061 0.0
H350 H 1.02147 0.47283 0.39881 0.0
C351 C 0.05288 0.41376 0.60166 0.0
C352 C 0.92638 1.02304 0.25117 0.0
C353 C 0.89569 1.01081 0.21712 0.0
H354 H 0.97454 0.03489 0.18425 0.0
C355 C 0.89022 1.00097 0.08181 0.0
H356 H 0.93087 0.03103 0.35389 0.0
C357 C 0.91523 1.00267 0.98433 0.0
C358 C 0.94607 1.0148 0.01945 0.0
H359 H 0.86687 0.99133 0.05217 0.0
H360 H 0.91033 0.99461 0.88121 0.0
C361 C 0.95123 1.02525 0.15387 0.0
C362 C 0.55362 0.8882 0.07739 0.0
C363 C 0.5443 0.89383 0.21332 0.0
H364 H 0.55988 0.9082 0.87617 0.0
C365 C 0.53244 0.92453 0.24757 0.0
H366 H 0.56308 0.86488 0.04775 0.0
C367 C 0.53038 0.94932 0.1501 0.0
C368 C 0.54058 0.94411 0.01523 0.0
H369 H 0.525 0.92919 0.35108 0.0
H370 H 0.52128 0.97271 0.18093 0.0
C371 C 0.55204 0.91315 0.97965 0.0
C372 C 0.6587 0.51085 0.15095 0.0
C373 C 0.65903 0.53835 0.23517 0.0
H374 H 0.63455 0.48428 0.99356 0.0
C375 C 0.63381 0.56103 0.21845 0.0
H376 H 0.67706 0.49243 0.16141 0.0
C377 C 0.60892 0.55602 0.12274 0.0
C378 C 0.6085 0.52824 0.04074 0.0
H379 H 0.63328 0.58285 0.279 0.0
H380 H 0.58994 0.57388 0.11324 0.0
C381 C 0.63394 0.50594 0.0552 0.0
C382 C 1.0042 0.66904 0.06787 0.0
C383 C 1.01329 0.66345 0.20413 0.0
H384 H 0.9984 0.64905 0.86695 0.0
C385 C 1.02499 0.63271 0.23936 0.0
H386 H 0.99495 0.6924 0.03726 0.0
C387 C 1.02731 0.60793 0.14242 0.0
C388 C 1.01748 0.61316 0.00711 0.0
H389 H 0.03233 0.62808 0.34296 0.0
H390 H 0.03639 0.58455 0.17388 0.0
C391 C 1.00598 0.64408 0.97075 0.0
C392 C 0.92031 0.23062 0.30959 0.0
C393 C 0.94917 0.2435 0.36223 0.0
H394 H 0.88794 0.19026 0.31653 0.0
C395 C 0.95833 0.23519 0.49556 0.0
H396 H 0.91228 0.23737 0.20814 0.0
C397 C 0.94498 0.20767 0.55634 0.0
C398 C 0.92226 0.18904 0.48352 0.0
H399 H 0.98005 0.24548 0.53989 0.0
H400 H 0.95688 0.19811 0.64621 0.0
C401 C 0.90661 0.20333 0.3712 0.0
C402 C 0.32127 0.95678 0.49235 0.0
C403 C 0.31303 0.94773 0.3589 0.0
H404 H 0.35841 0.95559 0.64241 0.0
C405 C 0.32598 0.91907 0.30578 0.0
H406 H 0.31091 0.97832 0.53716 0.0
C407 C 0.35337 0.90566 0.36664 0.0
C408 C 0.36762 0.92132 0.479 0.0
H409 H 0.31926 0.91109 0.20429 0.0
H410 H 0.36655 0.88725 0.31144 0.0
C411 C 0.34887 0.94369 0.55251 0.0
C412 C 0.59939 0.33071 0.46762 0.0
C413 C 0.60607 0.32 0.33475 0.0
H414 H 0.6049 0.36968 0.60785 0.0
C415 C 0.63367 0.332 0.26737 0.0
H416 H 0.57844 0.32151 0.52221 0.0
C417 C 0.64873 0.36 0.31543 0.0
C418 C 0.63639 0.37553 0.43175 0.0
H419 H 0.6395 0.32374 0.16529 0.0
H420 H 0.6661 0.37222 0.2501 0.0
C421 C 0.61454 0.3586 0.51627 0.0
C422 C 0.23874 0.60028 0.4679 0.0
C423 C 0.24678 0.61027 0.33508 0.0
H424 H 0.20163 0.59983 0.61886 0.0
C425 C 0.23308 0.63884 0.28419 0.0
H426 H 0.24963 0.57875 0.51085 0.0
C427 C 0.20537 0.65125 0.34647 0.0
C428 C 0.19163 0.63483 0.45855 0.0
H429 H 0.23956 0.6475 0.18316 0.0
H430 H 0.19177 0.66968 0.29304 0.0
C431 C 0.21085 0.61238 0.52956 0.0
C432 C 0.14001 0.82555 0.28608 0.0
C433 C 0.11143 0.81248 0.23151 0.0
H434 H 0.17206 0.86618 0.28147 0.0
C435 C 0.10279 0.82067 0.09743 0.0
H436 H 0.14768 0.81886 0.3881 0.0
C437 C 0.11615 0.84831 0.03761 0.0
C438 C 0.13839 0.86714 0.11208 0.0
H439 H 0.08134 0.81021 0.05148 0.0
H440 H 0.10453 0.85775 0.94685 0.0
C441 C 0.15371 0.85296 0.22548 0.0
C442 C 0.73451 0.13711 0.27633 0.0
C443 C 0.74712 0.1082 0.22425 0.0
H444 H 0.69425 0.1693 0.26993 0.0
C445 C 0.7387 0.09892 0.09129 0.0
H446 H 0.74137 0.14525 0.37741 0.0
C447 C 0.71119 0.11214 0.03092 0.0
C448 C 0.69272 0.13487 0.10377 0.0
H449 H 0.7488 0.07717 0.04727 0.0
H450 H 0.70145 0.10014 0.94167 0.0
C451 C 0.70722 0.15066 0.21522 0.0
C452 C 0.4225 0.72305 0.34881 0.0
C453 C 0.44673 0.74254 0.28934 0.0
H454 H 0.39904 0.67707 0.33727 0.0
C455 C 0.45139 0.74078 0.14754 0.0
H456 H 0.4175 0.72485 0.45728 0.0
C457 C 0.44015 0.71366 0.07719 0.0
C458 C 0.42475 0.68858 0.15014 0.0
H459 H 0.46897 0.75631 0.09749 0.0
H460 H 0.44902 0.70951 0.97444 0.0
C461 C 0.41196 0.69544 0.27978 0.0
C462 C 0.82577 0.41943 0.28377 0.0
C463 C 0.81236 0.4481 0.23247 0.0
H464 H 0.86677 0.3882 0.27567 0.0
C465 C 0.82061 0.458 0.09978 0.0
H466 H 0.81912 0.41086 0.38476 0.0
C467 C 0.84841 0.44559 0.03852 0.0
C468 C 0.86736 0.42299 0.10998 0.0
H469 H 0.80997 0.47962 0.05657 0.0
H470 H 0.85783 0.45802 0.9493 0.0
C471 C 0.85337 0.40671 0.22186 0.0
C472 C 1.02015 0.18663 0.91491 0.0
C473 C 1.0272 0.19358 0.05229 0.0
H474 H 1.01603 0.15023 0.75953 0.0
C475 C 0.03781 0.16823 0.13694 0.0
H476 H 1.0109 0.2054 0.84843 0.0
C477 C 0.04037 0.13658 0.08708 0.0
C478 C 0.03213 0.12923 0.95108 0.0
H479 H 0.04251 0.17265 0.24421 0.0
H480 H 0.04774 0.11765 0.15687 0.0
C481 C 1.02269 0.15487 0.86471 0.0
C482 C 0.37082 1.01955 0.91314 0.0
C483 C 0.36395 1.0261 0.05104 0.0
H484 H 0.40727 1.01594 0.75704 0.0
C485 C 0.38938 0.03639 0.13601 0.0
H486 H 0.35194 1.01059 0.84642 0.0
C487 C 0.42109 0.03909 0.08588 0.0
C488 C 0.42837 0.03131 0.94932 0.0
H489 H 0.38495 0.04072 0.24361 0.0
H490 H 0.44011 0.04617 0.15583 0.0
C491 C 0.40265 1.02224 0.86266 0.0
C492 C 0.53496 0.36861 0.89044 0.0
C493 C 0.52395 0.36196 0.02363 0.0
H494 H 0.54274 0.40447 0.73473 0.0
C495 C 0.50927 0.38696 0.09799 0.0
H496 H 0.54734 0.35012 0.83253 0.0
C497 C 0.50699 0.41824 0.04318 0.0
C498 C 0.51963 0.42546 0.91277 0.0
H499 H 0.50151 0.38279 0.20242 0.0
H500 H 0.49673 0.43711 0.10604 0.0
C501 C 0.53269 0.39994 0.83533 0.0
C502 C 0.17209 0.52095 0.11417 0.0
C503 C 0.19702 0.53188 0.02718 0.0
H504 H 0.12148 0.51076 0.13932 0.0
C505 C 0.1892 0.53912 0.89069 0.0
H506 H 0.17713 0.51613 0.22092 0.0
C507 C 0.15705 0.53649 0.84383 0.0
C508 C 0.13183 0.5268 0.93269 0.0
H509 H 0.20758 0.54866 0.82243 0.0
H510 H 0.15178 0.54334 0.73931 0.0
C511 C 0.14004 0.51833 0.06766 0.0
C512 C 0.04013 0.86923 0.67435 0.0
C513 C 0.03254 0.86226 0.5375 0.0
H514 H 0.0447 0.90561 0.82956 0.0
C515 C 1.02158 0.88757 0.45354 0.0
H516 H 0.04969 0.85048 0.74016 0.0
C517 C 1.01914 0.91922 0.50363 0.0
C518 C 1.02784 0.92658 0.63914 0.0
H519 H 1.01653 0.88314 0.34657 0.0
H520 H 1.01147 0.93814 0.43438 0.0
C521 C 0.03766 0.90097 0.72482 0.0
C522 C 0.67015 1.02076 0.45042 0.0
C523 C 0.69567 0.03083 0.53534 0.0
H524 H 0.61936 1.01128 0.43079 0.0
C525 C 0.68888 0.03734 0.67336 0.0
H526 H 0.67451 1.01645 0.34277 0.0
C527 C 0.65705 0.03481 0.724 0.0
C528 C 0.63124 1.02594 0.63741 0.0
H529 H 0.70784 0.04613 0.74009 0.0
H530 H 0.6525 0.04106 0.82973 0.0
C531 C 0.63843 1.01821 0.50071 0.0
C532 C 0.54473 0.6712 0.4759 0.0
C533 C 0.53402 0.69608 0.56231 0.0
H534 H 0.55463 0.62068 0.45306 0.0
C535 C 0.52769 0.68868 0.70004 0.0
H536 H 0.54877 0.67599 0.36826 0.0
C537 C 0.53058 0.65684 0.74869 0.0
C538 C 0.53957 0.63154 0.6603 0.0
H539 H 0.51837 0.70711 0.76779 0.0
H540 H 0.52416 0.65182 0.85402 0.0
C541 C 0.54763 0.63938 0.52429 0.0
C542 C 0.8695 0.5186 0.67933 0.0
C543 C 0.8617 0.5262 0.54315 0.0
H544 H 0.90687 0.51405 0.83078 0.0
C545 C 0.88666 0.53745 0.45693 0.0
H546 H 0.85112 0.50881 0.74696 0.0
C547 C 0.91868 0.54 0.50379 0.0
C548 C 0.92686 0.53117 0.63839 0.0
H549 H 0.88165 0.54255 0.35038 0.0
H550 H 0.93724 0.54782 0.43264 0.0
C551 C 0.90163 0.52118 0.72657 0.0
loop_
_geom_bond_atom_site_label_1
_geom_bond_atom_site_label_2
_geom_bond_distance
_geom_bond_site_symmetry_2
_ccdc_geom_bond_type
H0 C1 0.949 . S
C1 H0 0.949 . S
C1 C2 1.395 . S
C1 C3 1.391 . S
C2 C1 1.395 . S
C2 C5 1.390 . S
C3 C1 1.391 . S
C3 C7 1.387 . S
C3 C8 1.491 . S
H4 C5 0.950 . S
C5 C2 1.390 . S
C5 H4 0.950 . S
C5 C6 1.378 . S
C6 C5 1.378 . S
C6 C7 1.409 . S
C7 C3 1.387 . S
C7 C6 1.409 . S
C7 H9 0.951 . S
C8 C3 1.491 . S
C8 C10 1.382 . S
C8 C12 1.404 . S
H9 C7 0.951 . S
C10 C8 1.382 . S
C10 C11 1.390 . S
C10 H15 0.949 . S
C11 C10 1.390 . S
C11 C16 1.399 . S
C12 C8 1.404 . S
C12 H13 0.950 . S
C12 C14 1.375 . S
H13 C12 0.950 . S
C14 C12 1.375 . S
C14 C16 1.382 . S
C14 H18 0.950 . S
H15 C10 0.949 . S
C16 C11 1.399 . S
C16 C14 1.382 . S
C16 H17 0.952 . S
H17 C16 0.952 . S
H18 C14 0.950 . S
H19 C20 0.949 . S
C20 H19 0.949 . S
C20 C21 1.395 . S
C20 C22 1.391 . S
C21 C20 1.395 . S
C21 C24 1.390 1_655 S
C22 C20 1.391 . S
C22 C26 1.387 . S
C22 C27 1.491 . S
H23 C24 0.950 . S
C24 C21 1.390 1_455 S
C24 H23 0.950 . S
C24 C25 1.377 1_455 S
C25 C24 1.377 1_655 S
C25 C26 1.413 . S
C26 C22 1.387 . S
C26 C25 1.413 . S
C26 H28 0.951 . S
C27 C22 1.491 . S
C27 C29 1.382 . S
C27 C31 1.404 . S
H28 C26 0.951 . S
C29 C27 1.382 . S
C29 C30 1.390 . S
C29 H34 0.949 1_655 S
C30 C29 1.390 . S
C30 C35 1.399 . S
C31 C27 1.404 . S
C31 H32 0.950 . S
C31 C33 1.375 . S
H32 C31 0.950 . S
C33 C31 1.375 . S
C33 C35 1.382 . S
C33 H37 0.950 . S
H34 C29 0.949 1_455 S
C35 C30 1.399 . S
C35 C33 1.382 . S
C35 H36 0.952 . S
H36 C35 0.952 . S
H37 C33 0.950 . S
H38 C39 0.949 . S
C39 H38 0.949 . S
C39 C40 1.395 . S
C39 C41 1.391 . S
C40 C39 1.395 . S
C40 C43 1.390 1_565 S
C41 C39 1.391 . S
C41 C45 1.387 . S
C41 C46 1.491 . S
H42 C43 0.950 . S
C43 C40 1.390 1_545 S
C43 H42 0.950 . S
C43 C44 1.377 1_545 S
C44 C43 1.377 1_565 S
C44 C45 1.413 . S
C45 C41 1.387 . S
C45 C44 1.413 . S
C45 H47 0.951 . S
C46 C41 1.491 . S
C46 C48 1.382 . S
C46 C50 1.404 . S
H47 C45 0.951 . S
C48 C46 1.382 . S
C48 C49 1.390 . S
C48 H53 0.949 1_565 S
C49 C48 1.390 . S
C49 C54 1.399 . S
C50 C46 1.404 . S
C50 H51 0.950 . S
C50 C52 1.375 . S
H51 C50 0.950 . S
C52 C50 1.375 . S
C52 C54 1.382 . S
C52 H56 0.950 . S
H53 C48 0.949 1_545 S
C54 C49 1.399 . S
C54 C52 1.382 . S
C54 H55 0.952 . S
H55 C54 0.952 . S
H56 C52 0.950 . S
H57 C58 0.949 . S
C58 H57 0.949 . S
C58 C59 1.395 . S
C58 C60 1.391 . S
C59 C58 1.395 . S
C59 C62 1.390 . S
C60 C58 1.391 . S
C60 C64 1.387 . S
C60 C65 1.491 . S
H61 C62 0.950 . S
C62 C59 1.390 . S
C62 H61 0.950 . S
C62 C63 1.378 . S
C63 C62 1.378 . S
C63 C64 1.409 . S
C64 C60 1.387 . S
C64 C63 1.409 . S
C64 H66 0.951 . S
C65 C60 1.491 . S
C65 C67 1.382 . S
C65 C69 1.404 . S
H66 C64 0.951 . S
C67 C65 1.382 . S
C67 C68 1.390 . S
C67 H72 0.949 . S
C68 C67 1.390 . S
C68 C73 1.399 . S
C69 C65 1.404 . S
C69 H70 0.950 . S
C69 C71 1.375 . S
H70 C69 0.950 . S
C71 C69 1.375 . S
C71 C73 1.382 . S
C71 H75 0.950 . S
H72 C67 0.949 . S
C73 C68 1.399 . S
C73 C71 1.382 . S
C73 H74 0.952 . S
H74 C73 0.952 . S
H75 C71 0.950 . S
H76 C77 0.949 . S
C77 H76 0.949 . S
C77 C78 1.395 . S
C77 C79 1.391 1_554 S
C78 C77 1.395 . S
C78 C81 1.390 1_554 S
C79 C77 1.391 1_556 S
C79 C83 1.387 . S
C79 C84 1.491 . S
H80 C81 0.950 . S
C81 C78 1.390 1_556 S
C81 H80 0.950 . S
C81 C82 1.378 . S
C82 C81 1.378 . S
C82 C83 1.409 . S
C83 C79 1.387 . S
C83 C82 1.409 . S
C83 H85 0.951 . S
C84 C79 1.491 . S
C84 C86 1.382 1_556 S
C84 C88 1.404 . S
H85 C83 0.951 . S
C86 C84 1.382 1_554 S
C86 C87 1.390 . S
C86 H91 0.949 . S
C87 C86 1.390 . S
C87 C92 1.399 1_554 S
C88 C84 1.404 . S
C88 H89 0.950 . S
C88 C90 1.375 . S
H89 C88 0.950 . S
C90 C88 1.375 . S
C90 C92 1.382 . S
C90 H94 0.950 . S
H91 C86 0.949 . S
C92 C87 1.399 1_556 S
C92 C90 1.382 . S
C92 H93 0.952 . S
H93 C92 0.952 . S
H94 C90 0.950 . S
H95 C96 0.949 . S
C96 H95 0.949 . S
C96 C97 1.394 . S
C96 C98 1.391 1_554 S
C97 C96 1.394 . S
C97 C100 1.390 1_654 S
C98 C96 1.391 1_556 S
C98 C102 1.387 . S
C98 C103 1.491 . S
H99 C100 0.950 . S
C100 C97 1.390 1_456 S
C100 H99 0.950 . S
C100 C101 1.377 1_455 S
C101 C100 1.377 1_655 S
C101 C102 1.411 . S
C102 C98 1.387 . S
C102 C101 1.411 . S
C102 H104 0.951 . S
C103 C98 1.491 . S
C103 C105 1.382 1_556 S
C103 C107 1.404 . S
H104 C102 0.951 . S
C105 C103 1.382 1_554 S
C105 C106 1.390 . S
C105 H110 0.949 1_655 S
C106 C105 1.390 . S
C106 C111 1.399 1_554 S
C107 C103 1.404 . S
C107 H108 0.950 . S
C107 C109 1.375 . S
H108 C107 0.950 . S
C109 C107 1.375 . S
C109 C111 1.382 . S
C109 H113 0.950 . S
H110 C105 0.949 1_455 S
C111 C106 1.399 1_556 S
C111 C109 1.382 . S
C111 H112 0.952 . S
H112 C111 0.952 . S
H113 C109 0.950 . S
H114 C115 0.949 . S
C115 H114 0.949 . S
C115 C116 1.394 . S
C115 C117 1.391 1_554 S
C116 C115 1.394 . S
C116 C119 1.390 1_564 S
C117 C115 1.391 1_556 S
C117 C121 1.387 . S
C117 C122 1.491 . S
H118 C119 0.950 . S
C119 C116 1.390 1_546 S
C119 H118 0.950 . S
C119 C120 1.377 1_545 S
C120 C119 1.377 1_565 S
C120 C121 1.411 . S
C121 C117 1.387 . S
C121 C120 1.411 . S
C121 H123 0.951 . S
C122 C117 1.491 . S
C122 C124 1.382 1_556 S
C122 C126 1.404 . S
H123 C121 0.951 . S
C124 C122 1.382 1_554 S
C124 C125 1.390 . S
C124 H129 0.949 1_565 S
C125 C124 1.390 . S
C125 C130 1.399 1_554 S
C126 C122 1.404 . S
C126 H127 0.950 . S
C126 C128 1.375 . S
H127 C126 0.950 . S
C128 C126 1.375 . S
C128 C130 1.382 . S
C128 H132 0.950 . S
H129 C124 0.949 1_545 S
C130 C125 1.399 1_556 S
C130 C128 1.382 . S
C130 H131 0.952 . S
H131 C130 0.952 . S
H132 C128 0.950 . S
H133 C134 0.949 . S
C134 H133 0.949 . S
C134 C135 1.395 . S
C134 C136 1.391 1_554 S
C135 C134 1.395 . S
C135 C138 1.390 1_554 S
C136 C134 1.391 1_556 S
C136 C140 1.387 . S
C136 C141 1.491 . S
H137 C138 0.950 . S
C138 C135 1.390 1_556 S
C138 H137 0.950 . S
C138 C139 1.378 . S
C139 C138 1.378 . S
C139 C140 1.409 . S
C140 C136 1.387 . S
C140 C139 1.409 . S
C140 H142 0.951 . S
C141 C136 1.491 . S
C141 C143 1.382 1_556 S
C141 C145 1.404 . S
H142 C140 0.951 . S
C143 C141 1.382 1_554 S
C143 C144 1.390 . S
C143 H148 0.949 . S
C144 C143 1.390 . S
C144 C149 1.399 1_554 S
C145 C141 1.404 . S
C145 H146 0.950 . S
C145 C147 1.375 . S
H146 C145 0.950 . S
C147 C145 1.375 . S
C147 C149 1.382 . S
C147 H151 0.950 . S
H148 C143 0.949 . S
C149 C144 1.399 1_556 S
C149 C147 1.382 . S
C149 H150 0.952 . S
H150 C149 0.952 . S
H151 C147 0.950 . S
Pr152 C154 2.880 1_556 S
Pr152 O172 2.562 1_556 S
Pr152 O173 2.490 1_556 S
Pr152 O174 2.695 1_565 S
Pr152 O175 2.512 . S
Pr152 O177 2.437 . S
Pr152 O180 2.436 1_455 S
Pr152 O182 2.438 1_565 S
Pr153 C163 2.880 . S
Pr153 O174 2.436 1_655 S
Pr153 O176 2.438 1_545 S
Pr153 O178 2.562 . S
Pr153 O179 2.490 . S
Pr153 O180 2.695 1_545 S
Pr153 O181 2.512 . S
Pr153 O183 2.437 . S
C154 Pr152 2.880 1_554 S
C154 C155 1.491 . S
C154 O172 1.254 . S
C154 O173 1.225 . S
C155 C154 1.491 . S
C155 C156 1.392 . S
C155 C160 1.356 . S
C156 C155 1.392 . S
C156 C157 1.368 . S
C156 H184 0.929 . S
C157 C156 1.368 . S
C157 C158 1.386 . S
C157 H185 0.929 . S
C158 C157 1.386 . S
C158 C159 1.373 . S
C159 C158 1.373 . S
C159 C160 1.409 . S
C159 H186 0.931 1_455 S
C160 C155 1.356 . S
C160 C159 1.409 . S
C160 H187 0.930 1_455 S
C161 O174 1.270 1_565 S
C161 O175 1.248 . S
C162 O176 1.267 . S
C162 O177 1.278 1_655 S
C163 Pr153 2.880 . S
C163 C164 1.491 . S
C163 O178 1.254 . S
C163 O179 1.225 . S
C164 C163 1.491 . S
C164 C165 1.392 . S
C164 C169 1.356 . S
C165 C164 1.392 . S
C165 C166 1.368 . S
C165 H188 0.929 . S
C166 C165 1.368 . S
C166 C167 1.386 . S
C166 H189 0.929 . S
C167 C166 1.386 . S
C167 C168 1.373 . S
C168 C167 1.373 . S
C168 C169 1.409 . S
C168 H190 0.931 1_655 S
C169 C164 1.356 . S
C169 C168 1.409 . S
C169 H191 0.930 1_655 S
C170 O180 1.270 1_545 S
C170 O181 1.248 . S
C171 O182 1.267 . S
C171 O183 1.278 1_455 S
O172 Pr152 2.562 1_554 S
O172 C154 1.254 . S
O173 Pr152 2.490 1_554 S
O173 C154 1.225 . S
O174 Pr152 2.695 1_545 S
O174 Pr153 2.436 1_455 S
O174 C161 1.270 1_545 S
O175 Pr152 2.512 . S
O175 C161 1.248 . S
O176 Pr153 2.438 1_565 S
O176 C162 1.267 . S
O177 Pr152 2.437 . S
O177 C162 1.278 1_455 S
O178 Pr153 2.562 . S
O178 C163 1.254 . S
O179 Pr153 2.490 . S
O179 C163 1.225 . S
O180 Pr152 2.436 1_655 S
O180 Pr153 2.695 1_565 S
O180 C170 1.270 1_565 S
O181 Pr153 2.512 . S
O181 C170 1.248 . S
O182 Pr152 2.438 1_545 S
O182 C171 1.267 . S
O183 Pr153 2.437 . S
O183 C171 1.278 1_655 S
H184 C156 0.929 . S
H185 C157 0.929 . S
H186 C159 0.931 1_655 S
H187 C160 0.930 1_655 S
H188 C165 0.929 . S
H189 C166 0.929 . S
H190 C168 0.931 1_455 S
H191 C169 0.930 1_455 S
Pr192 C194 2.880 1_556 S
Pr192 O212 2.562 1_556 S
Pr192 O213 2.490 1_556 S
Pr192 O214 2.695 . S
Pr192 O215 2.512 . S
Pr192 O217 2.437 . S
Pr192 O220 2.436 1_545 S
Pr192 O222 2.438 . S
Pr193 C203 2.880 . S
Pr193 O214 2.436 1_565 S
Pr193 O216 2.438 . S
Pr193 O218 2.562 . S
Pr193 O219 2.490 . S
Pr193 O220 2.695 . S
Pr193 O221 2.512 . S
Pr193 O223 2.437 . S
C194 Pr192 2.880 1_554 S
C194 C195 1.491 . S
C194 O212 1.254 . S
C194 O213 1.225 . S
C195 C194 1.491 . S
C195 C196 1.392 . S
C195 C200 1.356 . S
C196 C195 1.392 . S
C196 C197 1.368 . S
C196 H224 0.929 . S
C197 C196 1.368 . S
C197 C198 1.386 . S
C197 H225 0.929 . S
C198 C197 1.386 . S
C198 C199 1.373 . S
C199 C198 1.373 . S
C199 C200 1.409 . S
C199 H226 0.931 1_545 S
C200 C195 1.356 . S
C200 C199 1.409 . S
C200 H227 0.930 1_545 S
C201 O214 1.270 . S
C201 O215 1.248 . S
C202 O216 1.267 . S
C202 O217 1.278 1_565 S
C203 Pr193 2.880 . S
C203 C204 1.491 . S
C203 O218 1.254 . S
C203 O219 1.225 . S
C204 C203 1.491 . S
C204 C205 1.392 . S
C204 C209 1.356 . S
C205 C204 1.392 . S
C205 C206 1.368 . S
C205 H228 0.929 . S
C206 C205 1.368 . S
C206 C207 1.386 . S
C206 H229 0.929 . S
C207 C206 1.386 . S
C207 C208 1.373 . S
C208 C207 1.373 . S
C208 C209 1.409 . S
C208 H230 0.931 1_565 S
C209 C204 1.356 . S
C209 C208 1.409 . S
C209 H231 0.930 1_565 S
C210 O220 1.270 . S
C210 O221 1.248 . S
C211 O222 1.267 . S
C211 O223 1.278 1_545 S
O212 Pr192 2.562 1_554 S
O212 C194 1.254 . S
O213 Pr192 2.490 1_554 S
O213 C194 1.225 . S
O214 Pr192 2.695 . S
O214 Pr193 2.436 1_545 S
O214 C201 1.270 . S
O215 Pr192 2.512 . S
O215 C201 1.248 . S
O216 Pr193 2.438 . S
O216 C202 1.267 . S
O217 Pr192 2.437 . S
O217 C202 1.278 1_545 S
O218 Pr193 2.562 . S
O218 C203 1.254 . S
O219 Pr193 2.490 . S
O219 C203 1.225 . S
O220 Pr192 2.436 1_565 S
O220 Pr193 2.695 . S
O220 C210 1.270 . S
O221 Pr193 2.512 . S
O221 C210 1.248 . S
O222 Pr192 2.438 . S
O222 C211 1.267 . S
O223 Pr193 2.437 . S
O223 C211 1.278 1_565 S
H224 C196 0.929 . S
H225 C197 0.929 . S
H226 C199 0.931 1_565 S
H227 C200 0.930 1_565 S
H228 C205 0.929 . S
H229 C206 0.929 . S
H230 C208 0.931 1_545 S
H231 C209 0.930 1_545 S
Pr232 C234 2.880 1_556 S
Pr232 O252 2.562 1_556 S
Pr232 O253 2.490 1_556 S
Pr232 O254 2.695 . S
Pr232 O255 2.512 . S
Pr232 O257 2.437 . S
Pr232 O260 2.436 . S
Pr232 O262 2.438 . S
Pr233 C243 2.880 . S
Pr233 O254 2.436 . S
Pr233 O256 2.438 . S
Pr233 O258 2.562 . S
Pr233 O259 2.490 . S
Pr233 O260 2.695 . S
Pr233 O261 2.512 . S
Pr233 O263 2.437 . S
C234 Pr232 2.880 1_554 S
C234 C235 1.491 . S
C234 O252 1.254 . S
C234 O253 1.225 . S
C235 C234 1.491 . S
C235 C236 1.392 . S
C235 C240 1.356 . S
C236 C235 1.392 . S
C236 C237 1.368 . S
C236 H264 0.929 . S
C237 C236 1.368 . S
C237 C238 1.386 . S
C237 H265 0.929 . S
C238 C237 1.386 . S
C238 C239 1.373 . S
C239 C238 1.373 . S
C239 C240 1.409 . S
C239 H266 0.931 . S
C240 C235 1.356 . S
C240 C239 1.409 . S
C240 H267 0.930 . S
C241 O254 1.270 . S
C241 O255 1.248 . S
C242 O256 1.267 . S
C242 O257 1.278 . S
C243 Pr233 2.880 . S
C243 C244 1.491 . S
C243 O258 1.254 . S
C243 O259 1.225 . S
C244 C243 1.491 . S
C244 C245 1.392 . S
C244 C249 1.356 . S
C245 C244 1.392 . S
C245 C246 1.368 . S
C245 H268 0.929 . S
C246 C245 1.368 . S
C246 C247 1.386 . S
C246 H269 0.929 . S
C247 C246 1.386 . S
C247 C248 1.373 . S
C248 C247 1.373 . S
C248 C249 1.409 . S
C248 H270 0.931 . S
C249 C244 1.356 . S
C249 C248 1.409 . S
C249 H271 0.930 . S
C250 O260 1.270 . S
C250 O261 1.248 . S
C251 O262 1.267 . S
C251 O263 1.278 . S
O252 Pr232 2.562 1_554 S
O252 C234 1.254 . S
O253 Pr232 2.490 1_554 S
O253 C234 1.225 . S
O254 Pr232 2.695 . S
O254 Pr233 2.436 . S
O254 C241 1.270 . S
O255 Pr232 2.512 . S
O255 C241 1.248 . S
O256 Pr233 2.438 . S
O256 C242 1.267 . S
O257 Pr232 2.437 . S
O257 C242 1.278 . S
O258 Pr233 2.562 . S
O258 C243 1.254 . S
O259 Pr233 2.490 . S
O259 C243 1.225 . S
O260 Pr232 2.436 . S
O260 Pr233 2.695 . S
O260 C250 1.270 . S
O261 Pr233 2.512 . S
O261 C250 1.248 . S
O262 Pr232 2.438 . S
O262 C251 1.267 . S
O263 Pr233 2.437 . S
O263 C251 1.278 . S
H264 C236 0.929 . S
H265 C237 0.929 . S
H266 C239 0.931 . S
H267 C240 0.930 . S
H268 C245 0.929 . S
H269 C246 0.929 . S
H270 C248 0.931 . S
H271 C249 0.930 . S
Pr272 C274 2.880 1_556 S
Pr272 O292 2.562 1_556 S
Pr272 O293 2.490 1_556 S
Pr272 O294 2.695 1_655 S
Pr272 O295 2.512 . S
Pr272 O297 2.437 . S
Pr272 O300 2.436 . S
Pr272 O302 2.438 1_655 S
Pr273 C283 2.880 . S
Pr273 O294 2.436 . S
Pr273 O296 2.438 1_455 S
Pr273 O298 2.562 . S
Pr273 O299 2.490 . S
Pr273 O300 2.695 1_455 S
Pr273 O301 2.512 . S
Pr273 O303 2.437 . S
C274 Pr272 2.880 1_554 S
C274 C275 1.491 . S
C274 O292 1.254 . S
C274 O293 1.225 . S
C275 C274 1.491 . S
C275 C276 1.392 . S
C275 C280 1.356 . S
C276 C275 1.392 . S
C276 C277 1.368 . S
C276 H304 0.929 . S
C277 C276 1.368 . S
C277 C278 1.386 . S
C277 H305 0.929 . S
C278 C277 1.386 . S
C278 C279 1.373 . S
C279 C278 1.373 . S
C279 C280 1.409 . S
C279 H306 0.931 . S
C280 C275 1.356 . S
C280 C279 1.409 . S
C280 H307 0.930 . S
C281 O294 1.261 1_655 S
C281 O295 1.263 . S
C282 O296 1.267 . S
C282 O297 1.278 . S
C283 Pr273 2.880 . S
C283 C284 1.491 . S
C283 O298 1.254 . S
C283 O299 1.225 . S
C284 C283 1.491 . S
C284 C285 1.392 . S
C284 C289 1.356 . S
C285 C284 1.392 . S
C285 C286 1.368 . S
C285 H308 0.929 . S
C286 C285 1.368 . S
C286 C287 1.386 . S
C286 H309 0.929 . S
C287 C286 1.386 . S
C287 C288 1.373 . S
C288 C287 1.373 . S
C288 C289 1.409 . S
C288 H310 0.931 . S
C289 C284 1.356 . S
C289 C288 1.409 . S
C289 H311 0.930 . S
C290 O300 1.270 1_455 S
C290 O301 1.248 . S
C291 O302 1.267 . S
C291 O303 1.278 . S
O292 Pr272 2.562 1_554 S
O292 C274 1.254 . S
O293 Pr272 2.490 1_554 S
O293 C274 1.225 . S
O294 Pr272 2.695 1_455 S
O294 Pr273 2.436 . S
O294 C281 1.261 1_455 S
O295 Pr272 2.512 . S
O295 C281 1.263 . S
O296 Pr273 2.438 1_655 S
O296 C282 1.267 . S
O297 Pr272 2.437 . S
O297 C282 1.278 . S
O298 Pr273 2.562 . S
O298 C283 1.254 . S
O299 Pr273 2.490 . S
O299 C283 1.225 . S
O300 Pr272 2.436 . S
O300 Pr273 2.695 1_655 S
O300 C290 1.270 1_655 S
O301 Pr273 2.512 . S
O301 C290 1.248 . S
O302 Pr272 2.438 1_455 S
O302 C291 1.267 . S
O303 Pr273 2.437 . S
O303 C291 1.278 . S
H304 C276 0.929 . S
H305 C277 0.929 . S
H306 C279 0.931 . S
H307 C280 0.930 . S
H308 C285 0.929 . S
H309 C286 0.929 . S
H310 C288 0.931 . S
H311 C289 0.930 . S
C312 C313 1.380 1_565 S
C312 H316 0.950 . S
C312 C321 1.390 . S
C313 C312 1.380 1_545 S
C313 C315 1.395 . S
H314 C321 0.950 . S
C315 C313 1.395 . S
C315 C317 1.390 . S
C315 H319 0.950 . S
H316 C312 0.950 . S
C317 C315 1.390 . S
C317 C318 1.410 . S
C317 H320 0.950 . S
C318 C317 1.410 . S
C318 C321 1.365 1_545 S
H319 C315 0.950 . S
H320 C317 0.950 . S
C321 C312 1.390 . S
C321 H314 0.950 . S
C321 C318 1.365 1_565 S
C322 C323 1.387 . S
C322 H326 0.950 . S
C322 C331 1.390 . S
C323 C322 1.387 . S
C323 C325 1.387 . S
H324 C331 0.950 . S
C325 C323 1.387 . S
C325 C327 1.390 . S
C325 H329 0.950 . S
H326 C322 0.950 . S
C327 C325 1.390 . S
C327 C328 1.387 . S
C327 H330 0.950 . S
C328 C327 1.387 . S
C328 C331 1.387 . S
H329 C325 0.950 . S
H330 C327 0.950 . S
C331 C322 1.390 . S
C331 H324 0.950 . S
C331 C328 1.387 . S
C332 C333 1.387 . S
C332 H336 0.950 . S
C332 C341 1.390 . S
C333 C332 1.387 . S
C333 C335 1.387 . S
H334 C341 0.950 . S
C335 C333 1.387 . S
C335 C337 1.390 . S
C335 H339 0.950 . S
H336 C332 0.950 . S
C337 C335 1.390 . S
C337 C338 1.387 . S
C337 H340 0.950 . S
C338 C337 1.387 . S
C338 C341 1.387 . S
H339 C335 0.950 . S
H340 C337 0.950 . S
C341 C332 1.390 . S
C341 H334 0.950 . S
C341 C338 1.387 . S
C342 C343 1.405 . S
C342 H346 0.950 . S
C342 C351 1.390 . S
C343 C342 1.405 . S
C343 C345 1.370 1_455 S
H344 C351 0.950 . S
C345 C343 1.370 1_655 S
C345 C347 1.390 . S
C345 H349 0.950 . S
H346 C342 0.950 . S
C347 C345 1.390 . S
C347 C348 1.387 1_655 S
C347 H350 0.950 . S
C348 C347 1.387 1_455 S
C348 C351 1.387 . S
H349 C345 0.950 . S
H350 C347 0.950 . S
C351 C342 1.390 . S
C351 H344 0.950 . S
C351 C348 1.387 . S
C352 C353 1.387 1_545 S
C352 H356 0.950 . S
C352 C361 1.390 . S
C353 C352 1.387 1_565 S
C353 C355 1.388 . S
H354 C361 0.950 . S
C355 C353 1.388 . S
C355 C357 1.390 . S
C355 H359 0.950 . S
H356 C352 0.950 . S
C357 C355 1.390 . S
C357 C358 1.403 . S
C357 H360 0.950 . S
C358 C357 1.403 . S
C358 C361 1.372 1_565 S
H359 C355 0.950 . S
H360 C357 0.950 . S
C361 C352 1.390 . S
C361 H354 0.950 . S
C361 C358 1.372 1_545 S
C362 C363 1.387 . S
C362 H366 0.950 . S
C362 C371 1.390 . S
C363 C362 1.387 . S
C363 C365 1.387 . S
H364 C371 0.950 . S
C365 C363 1.387 . S
C365 C367 1.390 . S
C365 H369 0.950 . S
H366 C362 0.950 . S
C367 C365 1.390 . S
C367 C368 1.387 . S
C367 H370 0.950 . S
C368 C367 1.387 . S
C368 C371 1.387 . S
H369 C365 0.950 . S
H370 C367 0.950 . S
C371 C362 1.390 . S
C371 H364 0.950 . S
C371 C368 1.387 . S
C372 C373 1.387 . S
C372 H376 0.950 . S
C372 C381 1.390 . S
C373 C372 1.387 . S
C373 C375 1.387 . S
H374 C381 0.950 . S
C375 C373 1.387 . S
C375 C377 1.390 . S
C375 H379 0.950 . S
H376 C372 0.950 . S
C377 C375 1.390 . S
C377 C378 1.387 . S
C377 H380 0.950 . S
C378 C377 1.387 . S
C378 C381 1.387 . S
H379 C375 0.950 . S
H380 C377 0.950 . S
C381 C372 1.390 . S
C381 H374 0.950 . S
C381 C378 1.387 . S
C382 C383 1.406 . S
C382 H386 0.950 . S
C382 C391 1.390 . S
C383 C382 1.406 . S
C383 C385 1.369 1_655 S
H384 C391 0.950 . S
C385 C383 1.369 1_455 S
C385 C387 1.390 . S
C385 H389 0.950 . S
H386 C382 0.950 . S
C387 C385 1.390 . S
C387 C388 1.387 1_455 S
C387 H390 0.950 . S
C388 C387 1.387 1_655 S
C388 C391 1.387 . S
H389 C385 0.950 . S
H390 C387 0.950 . S
C391 C382 1.390 . S
C391 H384 0.950 . S
C391 C388 1.387 . S
C392 C393 1.387 . S
C392 H396 0.950 . S
C392 C401 1.390 . S
C393 C392 1.387 . S
C393 C395 1.387 . S
H394 C401 0.950 . S
C395 C393 1.387 . S
C395 C397 1.390 . S
C395 H399 0.950 1_655 S
H396 C392 0.950 . S
C397 C395 1.390 . S
C397 C398 1.387 . S
C397 H400 0.950 . S
C398 C397 1.387 . S
C398 C401 1.387 . S
H399 C395 0.950 1_455 S
H400 C397 0.950 . S
C401 C392 1.390 . S
C401 H394 0.950 . S
C401 C398 1.387 . S
C402 C403 1.387 . S
C402 H406 0.950 1_565 S
C402 C411 1.390 . S
C403 C402 1.387 . S
C403 C405 1.387 . S
H404 C411 0.950 . S
C405 C403 1.387 . S
C405 C407 1.390 . S
C405 H409 0.950 1_554 S
H406 C402 0.950 1_545 S
C407 C405 1.390 . S
C407 C408 1.387 . S
C407 H410 0.950 . S
C408 C407 1.387 . S
C408 C411 1.387 . S
H409 C405 0.950 1_556 S
H410 C407 0.950 . S
C411 C402 1.390 . S
C411 H404 0.950 . S
C411 C408 1.387 . S
C412 C413 1.387 . S
C412 H416 0.950 . S
C412 C421 1.390 . S
C413 C412 1.387 . S
C413 C415 1.387 . S
H414 C421 0.950 . S
C415 C413 1.387 . S
C415 C417 1.390 . S
C415 H419 0.950 1_554 S
H416 C412 0.950 . S
C417 C415 1.390 . S
C417 C418 1.387 . S
C417 H420 0.950 . S
C418 C417 1.387 . S
C418 C421 1.387 . S
H419 C415 0.950 1_556 S
H420 C417 0.950 . S
C421 C412 1.390 . S
C421 H414 0.950 . S
C421 C418 1.387 . S
C422 C423 1.387 . S
C422 H426 0.950 . S
C422 C431 1.390 . S
C423 C422 1.387 . S
C423 C425 1.387 . S
H424 C431 0.950 . S
C425 C423 1.387 . S
C425 C427 1.390 . S
C425 H429 0.950 1_554 S
H426 C422 0.950 . S
C427 C425 1.390 . S
C427 C428 1.387 . S
C427 H430 0.950 . S
C428 C427 1.387 . S
C428 C431 1.387 . S
H429 C425 0.950 1_556 S
H430 C427 0.950 . S
C431 C422 1.390 . S
C431 H424 0.950 . S
C431 C428 1.387 . S
C432 C433 1.387 . S
C432 H436 0.950 . S
C432 C441 1.390 . S
C433 C432 1.387 . S
C433 C435 1.387 . S
H434 C441 0.950 . S
C435 C433 1.387 . S
C435 C437 1.390 . S
C435 H439 0.950 1_455 S
H436 C432 0.950 . S
C437 C435 1.390 . S
C437 C438 1.387 . S
C437 H440 0.950 . S
C438 C437 1.387 . S
C438 C441 1.387 . S
H439 C435 0.950 1_655 S
H440 C437 0.950 . S
C441 C432 1.390 . S
C441 H434 0.950 . S
C441 C438 1.387 . S
C442 C443 1.387 . S
C442 H446 0.950 . S
C442 C451 1.390 . S
C443 C442 1.387 . S
C443 C445 1.387 . S
H444 C451 0.950 . S
C445 C443 1.387 . S
C445 C447 1.390 . S
C445 H449 0.950 1_545 S
H446 C442 0.950 . S
C447 C445 1.390 . S
C447 C448 1.387 . S
C447 H450 0.950 . S
C448 C447 1.387 . S
C448 C451 1.387 . S
H449 C445 0.950 1_565 S
H450 C447 0.950 . S
C451 C442 1.390 . S
C451 H444 0.950 . S
C451 C448 1.387 . S
C452 C453 1.387 . S
C452 H456 0.950 . S
C452 C461 1.390 . S
C453 C452 1.387 . S
C453 C455 1.387 . S
H454 C461 0.950 . S
C455 C453 1.387 . S
C455 C457 1.390 . S
C455 H459 0.950 . S
H456 C452 0.950 . S
C457 C455 1.390 . S
C457 C458 1.387 . S
C457 H460 0.950 . S
C458 C457 1.387 . S
C458 C461 1.387 . S
H459 C455 0.950 . S
H460 C457 0.950 . S
C461 C452 1.390 . S
C461 H454 0.950 . S
C461 C458 1.387 . S
C462 C463 1.387 . S
C462 H466 0.950 . S
C462 C471 1.390 . S
C463 C462 1.387 . S
C463 C465 1.387 . S
H464 C471 0.950 . S
C465 C463 1.387 . S
C465 C467 1.390 . S
C465 H469 0.950 . S
H466 C462 0.950 . S
C467 C465 1.390 . S
C467 C468 1.387 . S
C467 H470 0.950 . S
C468 C467 1.387 . S
C468 C471 1.387 . S
H469 C465 0.950 . S
H470 C467 0.950 . S
C471 C462 1.390 . S
C471 H464 0.950 . S
C471 C468 1.387 . S
C472 C473 1.387 1_655 S
C472 H476 0.950 . S
C472 C481 1.390 . S
C473 C472 1.387 1_455 S
C473 C475 1.387 . S
H474 C481 0.950 . S
C475 C473 1.387 . S
C475 C477 1.390 . S
C475 H479 0.950 . S
H476 C472 0.950 . S
C477 C475 1.390 . S
C477 C478 1.387 . S
C477 H480 0.950 . S
C478 C477 1.387 . S
C478 C481 1.387 1_455 S
H479 C475 0.950 . S
H480 C477 0.950 . S
C481 C472 1.390 . S
C481 H474 0.950 . S
C481 C478 1.387 1_655 S
C482 C483 1.387 1_565 S
C482 H486 0.950 . S
C482 C491 1.390 . S
C483 C482 1.387 1_545 S
C483 C485 1.387 . S
H484 C491 0.950 . S
C485 C483 1.387 . S
C485 C487 1.390 . S
C485 H489 0.950 . S
H486 C482 0.950 . S
C487 C485 1.390 . S
C487 C488 1.387 . S
C487 H490 0.950 . S
C488 C487 1.387 . S
C488 C491 1.387 1_545 S
H489 C485 0.950 . S
H490 C487 0.950 . S
C491 C482 1.390 . S
C491 H484 0.950 . S
C491 C488 1.387 1_565 S
C492 C493 1.387 . S
C492 H496 0.950 . S
C492 C501 1.390 . S
C493 C492 1.387 . S
C493 C495 1.387 . S
H494 C501 0.950 . S
C495 C493 1.387 . S
C495 C497 1.390 . S
C495 H499 0.950 . S
H496 C492 0.950 . S
C497 C495 1.390 . S
C497 C498 1.387 . S
C497 H500 0.950 1_556 S
C498 C497 1.387 . S
C498 C501 1.387 . S
H499 C495 0.950 . S
H500 C497 0.950 1_554 S
C501 C492 1.390 . S
C501 H494 0.950 . S
C501 C498 1.387 . S
C502 C503 1.387 . S
C502 H506 0.950 . S
C502 C511 1.390 . S
C503 C502 1.387 . S
C503 C505 1.387 . S
H504 C511 0.950 . S
C505 C503 1.387 . S
C505 C507 1.390 . S
C505 H509 0.950 . S
H506 C502 0.950 . S
C507 C505 1.390 . S
C507 C508 1.387 . S
C507 H510 0.950 1_556 S
C508 C507 1.387 . S
C508 C511 1.387 . S
H509 C505 0.950 . S
H510 C507 0.950 1_554 S
C511 C502 1.390 . S
C511 H504 0.950 . S
C511 C508 1.387 . S
C512 C513 1.387 1_455 S
C512 H516 0.950 . S
C512 C521 1.390 . S
C513 C512 1.387 1_655 S
C513 C515 1.387 . S
H514 C521 0.950 . S
C515 C513 1.387 . S
C515 C517 1.390 . S
C515 H519 0.950 . S
H516 C512 0.950 . S
C517 C515 1.390 . S
C517 C518 1.387 . S
C517 H520 0.950 . S
C518 C517 1.387 . S
C518 C521 1.387 1_655 S
H519 C515 0.950 . S
H520 C517 0.950 . S
C521 C512 1.390 . S
C521 H514 0.950 . S
C521 C518 1.387 1_455 S
C522 C523 1.387 . S
C522 H526 0.950 . S
C522 C531 1.390 . S
C523 C522 1.387 . S
C523 C525 1.387 1_565 S
H524 C531 0.950 . S
C525 C523 1.387 1_545 S
C525 C527 1.390 . S
C525 H529 0.950 . S
H526 C522 0.950 . S
C527 C525 1.390 . S
C527 C528 1.387 1_545 S
C527 H530 0.950 . S
C528 C527 1.387 1_565 S
C528 C531 1.387 . S
H529 C525 0.950 . S
H530 C527 0.950 . S
C531 C522 1.390 . S
C531 H524 0.950 . S
C531 C528 1.387 . S
C532 C533 1.387 . S
C532 H536 0.950 . S
C532 C541 1.390 . S
C533 C532 1.387 . S
C533 C535 1.387 . S
H534 C541 0.950 . S
C535 C533 1.387 . S
C535 C537 1.390 . S
C535 H539 0.950 . S
H536 C532 0.950 . S
C537 C535 1.390 . S
C537 C538 1.387 . S
C537 H540 0.950 . S
C538 C537 1.387 . S
C538 C541 1.387 . S
H539 C535 0.950 . S
H540 C537 0.950 . S
C541 C532 1.390 . S
C541 H534 0.950 . S
C541 C538 1.387 . S
C542 C543 1.387 . S
C542 H546 0.950 . S
C542 C551 1.390 . S
C543 C542 1.387 . S
C543 C545 1.387 . S
H544 C551 0.950 . S
C545 C543 1.387 . S
C545 C547 1.390 . S
C545 H549 0.950 . S
H546 C542 0.950 . S
C547 C545 1.390 . S
C547 C548 1.387 . S
C547 H550 0.950 . S
C548 C547 1.387 . S
C548 C551 1.387 . S
H549 C545 0.950 . S
H550 C547 0.950 . S
C551 C542 1.390 . S
C551 H544 0.950 . S
C551 C548 1.387 . S
C313 C125 2.103 1_545 S
C318 C161 2.156 1_545 S
C328 C201 2.174 . S
C323 C144 2.132 . S
C338 C241 2.182 . S
C333 C87 2.146 . S
C348 C281 2.166 1_455 S
C343 C106 2.111 1_455 S
C358 C170 2.159 1_564 S
C353 C49 2.105 . S
C363 C68 2.104 . S
C368 C210 2.175 1_554 S
C373 C11 2.110 . S
C378 C250 2.181 1_554 S
C383 C30 2.113 . S
C388 C290 2.169 1_654 S
C398 C167 0.824 . S
C393 C97 0.818 . S
C408 C207 0.826 . S
C403 C116 0.820 . S
C418 C247 0.821 . S
C413 C135 0.816 . S
C423 C78 0.811 . S
C428 C287 0.813 . S
C433 C21 0.819 1_455 S
C438 C158 0.827 . S
C448 C198 0.819 . S
C443 C40 0.816 1_545 S
C458 C238 0.822 . S
C453 C59 0.818 . S
C463 C2 0.814 . S
C468 C278 0.821 . S
C473 C101 2.252 1_455 S
C478 C171 2.558 . S
C483 C120 2.221 1_545 S
C488 C211 2.532 . S
C498 C251 2.523 . S
C493 C139 2.214 . S
C508 C291 2.553 . S
C503 C82 2.242 . S
C513 C25 2.254 . S
C518 C162 2.567 . S
C528 C202 2.531 . S
C523 C44 2.220 . S
C538 C242 2.523 . S
C533 C63 2.210 . S
C543 C6 2.241 . S
C548 C282 2.558 . S
