# Generated by pormake.
# Topology pts, (4,4)-cn, num edge types: 1
# Building blocks:
#     Node 0, Type 0, BuildingBlock: MUDLON_clean_linker_0, # of connection points: 4
#     Node 1, Type 0, BuildingBlock: MUDLON_clean_linker_0, # of connection points: 4
#     Node 2, Type 1, BuildingBlock: UXUYUI_clean_sbu_0, # of connection points: 4
#     Node 3, Type 1, BuildingBlock: UXUYUI_clean_sbu_0, # of connection points: 4
#     Edge 4, Type (0, 1), BuildingBlock: CIFDUS_clean_linker_0, # of connection points: 2
#     Edge 5, Type (0, 1), BuildingBlock: CIFDUS_clean_linker_0, # of connection points: 2
#     Edge 6, Type (0, 1), BuildingBlock: CIFDUS_clean_linker_0, # of connection points: 2
#     Edge 7, Type (0, 1), BuildingBlock: CIFDUS_clean_linker_0, # of connection points: 2
#     Edge 8, Type (0, 1), BuildingBlock: CIFDUS_clean_linker_0, # of connection points: 2
#     Edge 9, Type (0, 1), BuildingBlock: CIFDUS_clean_linker_0, # of connection points: 2
#     Edge 10, Type (0, 1), BuildingBlock: CIFDUS_clean_linker_0, # of connection points: 2
#     Edge 11, Type (0, 1), BuildingBlock: CIFDUS_clean_linker_0, # of connection points: 2
# Relax obj value: 0.013
# Max RMSD: 0.056
# Mean RMSD: 0.052
data_MOF--net-pts--node1-UXUYUI_clean_sbu_0--node2-MUDLON_clean_linker_0--edge1-CIFDUS_clean_linker_0
_symmetry_space_group_name_H-M    P1
_symmetry_Int_Tables_number       1
_symmetry_cell_setting            triclinic
loop_
_symmetry_equiv_pos_as_xyz
'x, y, z'
_cell_length_a     37.22464
_cell_length_b     37.357838
_cell_length_c     47.917822
_cell_angle_alpha  89.855654
_cell_angle_beta   90.033697
_cell_angle_gamma 90.117121
loop_
_atom_site_label
_atom_site_type_symbol
_atom_site_fract_x
_atom_site_fract_y
_atom_site_fract_z
_atom_type_partial_charge
H0 H 0.68009 0.07775 0.03338 0.0
N1 N 0.6424 0.02845 0.0065 0.0
H2 H 0.72092 0.06844 0.0727 0.0
H3 H 0.64759 0.96715 0.03765 0.0
H4 H 0.6876 0.95767 0.07731 0.0
H5 H 0.66023 0.96151 0.98867 0.0
H6 H 0.70344 0.94756 0.9517 0.0
H7 H 0.66965 0.07382 0.9695 0.0
H8 H 0.71253 0.0602 0.93228 0.0
H9 H 0.59944 0.08432 0.00202 0.0
H10 H 0.5987 0.96938 0.00831 0.0
H11 H 0.534 0.08479 0.0003 0.0
H12 H 0.53301 0.96941 0.00858 0.0
H13 H 0.32307 0.07988 0.01893 0.0
H14 H 0.28108 0.06775 0.05676 0.0
H15 H 0.33469 0.9672 0.07312 0.0
H16 H 0.37563 0.97914 0.03409 0.0
H17 H 0.34607 0.97209 0.98472 0.0
H18 H 0.30651 0.96028 0.9452 0.0
H19 H 0.32367 0.06838 0.91548 0.0
H20 H 0.36182 0.08033 0.95603 0.0
H21 H 0.41847 0.08178 0.02444 0.0
H22 H 0.48361 0.07751 0.02805 0.0
H23 H 0.48067 0.97816 0.98189 0.0
N24 N 0.37368 0.03727 0.99926 0.0
H25 H 0.41521 0.98161 0.98015 0.0
C26 C 0.66078 0.02333 0.03261 0.0
C27 C 0.68104 0.05173 0.04337 0.0
C28 C 0.70428 0.04632 0.06587 0.0
C29 C 0.70772 0.01221 0.07808 0.0
C30 C 0.68596 0.98414 0.06813 0.0
C31 C 0.66275 0.98962 0.04556 0.0
C32 C 0.66202 0.0188 0.98185 0.0
C33 C 0.67102 0.98308 0.97612 0.0
C34 C 0.69582 0.97518 0.95509 0.0
C35 C 0.71156 0.00283 0.93926 0.0
C36 C 0.70067 0.03831 0.94395 0.0
C37 C 0.67623 0.04616 0.96515 0.0
C38 C 0.60384 0.02705 0.0058 0.0
C39 C 0.58496 0.05921 0.00345 0.0
C40 C 0.54751 0.05934 0.00274 0.0
C41 C 0.52789 0.02716 0.00481 0.0
C42 C 0.54704 0.99472 0.00683 0.0
C43 C 0.58471 0.99465 0.00708 0.0
C44 C 0.35251 0.03068 0.0239 0.0
C45 C 0.326 0.05551 0.031 0.0
C46 C 0.30216 0.04852 0.05277 0.0
C47 C 0.30452 0.01653 0.06824 0.0
C48 C 0.33182 0.99193 0.06151 0.0
C49 C 0.3555 0.99885 0.03942 0.0
C50 C 0.35644 0.02736 0.97346 0.0
C51 C 0.34171 0.99306 0.96949 0.0
C52 C 0.31921 0.9863 0.94672 0.0
C53 C 0.31133 0.01357 0.92732 0.0
C54 C 0.32835 0.04703 0.93036 0.0
C55 C 0.35051 0.05383 0.95329 0.0
C56 C 0.41199 0.03251 0.00167 0.0
C57 C 0.43196 0.05897 0.01532 0.0
C58 C 0.46928 0.05659 0.01708 0.0
C59 C 0.48776 0.02785 0.00473 0.0
C60 C 0.46753 1.00063 0.99175 0.0
C61 C 0.42996 0.00274 0.99046 0.0
H62 H 0.93846 0.67068 0.52817 0.0
N63 N 0.98807 0.63317 0.50126 0.0
H64 H 0.94797 0.71223 0.56688 0.0
H65 H 0.05056 0.64266 0.52968 0.0
H66 H 0.06036 0.68329 0.56889 0.0
H67 H 0.0518 0.65445 0.47929 0.0
H68 H 0.05977 0.69348 0.43864 0.0
H69 H 0.93782 0.65122 0.46443 0.0
H70 H 0.94544 0.68844 0.42281 0.0
H71 H 0.92933 0.59322 0.49795 0.0
H72 H 0.04418 0.58725 0.50674 0.0
H73 H 0.9252 0.5281 0.49939 0.0
H74 H 0.0405 0.52194 0.51026 0.0
H75 H 0.92101 0.3147 0.52169 0.0
H76 H 0.93203 0.27246 0.55997 0.0
H77 H 0.03006 0.32836 0.58037 0.0
H78 H 0.01951 0.37005 0.54139 0.0
H79 H 0.02862 0.33504 0.4926 0.0
H80 H 0.04215 0.29675 0.45261 0.0
H81 H 0.93766 0.31971 0.41782 0.0
H82 H 0.92398 0.35751 0.45828 0.0
H83 H 0.92085 0.41431 0.52691 0.0
H84 H 0.9286 0.47908 0.52882 0.0
H85 H 0.03009 0.46903 0.48559 0.0
N86 N 0.96391 0.36649 0.5038 0.0
H87 H 0.0232 0.40419 0.4857 0.0
C88 C 0.99368 0.65362 0.52621 0.0
C89 C 0.96495 0.67296 0.53737 0.0
C90 C 0.97047 0.69654 0.55953 0.0
C91 C 0.00499 0.70118 0.57099 0.0
C92 C 0.03355 0.6807 0.56034 0.0
C93 C 0.02795 0.65719 0.53808 0.0
C94 C 0.99412 0.65056 0.47496 0.0
C95 C 0.02862 0.66155 0.46684 0.0
C96 C 0.0331 0.68364 0.44345 0.0
C97 C 1.00315 0.69468 0.42765 0.0
C98 C 0.96899 0.68132 0.43487 0.0
C99 C 0.96455 0.65973 0.45843 0.0
C100 C 0.98688 0.59485 0.50257 0.0
C101 C 0.95361 0.57765 0.50058 0.0
C102 C 0.95138 0.5404 0.50173 0.0
C103 C 0.98247 0.51946 0.50539 0.0
C104 C 0.01598 0.53699 0.50724 0.0
C105 C 0.01818 0.57438 0.50558 0.0
C106 C 0.96914 0.3456 0.52883 0.0
C107 C 0.94454 0.31818 0.53471 0.0
C108 C 0.95092 0.29409 0.55641 0.0
C109 C 0.98185 0.29733 0.57294 0.0
C110 C 0.00591 0.32562 0.56792 0.0
C111 C 0.99984 0.34943 0.54578 0.0
C112 C 0.97496 0.34869 0.47855 0.0
C113 C 0.00879 0.33221 0.47624 0.0
C114 C 0.01649 0.31035 0.45341 0.0
C115 C 0.99081 0.30509 0.43231 0.0
C116 C 0.95798 0.32347 0.43375 0.0
C117 C 0.95011 0.34495 0.45678 0.0
C118 C 0.9709 0.40441 0.50574 0.0
C119 C 0.94491 0.42618 0.51813 0.0
C120 C 0.94929 0.46326 0.5189 0.0
C121 C 0.97964 0.47963 0.50679 0.0
C122 C 0.00642 0.45757 0.49524 0.0
C123 C 1.00231 0.42031 0.49499 0.0
Li124 Li 0.01142 0.03587 0.27358 0.0
Li125 Li 0.00819 0.96789 0.27081 0.0
Li126 Li 0.03962 0.0057 0.23325 0.0
Li127 Li 0.97603 0.00601 0.23911 0.0
C128 C 0.08116 0.99976 0.28999 0.0
N129 N 0.14155 0.99907 0.32365 0.0
C130 C 0.07998 0.9836 0.31632 0.0
C131 C 0.1132 0.01546 0.28077 0.0
C132 C 0.11074 0.98357 0.33304 0.0
C133 C 0.14338 0.01486 0.29809 0.0
C134 C 0.93412 1.00069 0.28281 0.0
C135 C 0.87989 0.96549 0.2862 0.0
N136 N 0.86013 0.99607 0.28596 0.0
C137 C 0.91329 0.03177 0.28277 0.0
C138 C 0.91733 0.96725 0.28463 0.0
C139 C 0.87592 0.02888 0.28429 0.0
C140 C 0.99104 0.10276 0.29519 0.0
N141 N 0.0144 0.07524 0.29893 0.0
C142 C 0.03973 0.10402 0.33886 0.0
C143 C 0.03869 0.07554 0.32011 0.0
C144 C 0.01516 0.13235 0.33614 0.0
C145 C 0.99077 0.13158 0.31371 0.0
H146 H 0.97232 0.10211 0.27794 0.0
H147 H 0.05718 0.05366 0.32267 0.0
C148 C 0.01754 0.89303 0.28301 0.0
N149 N 0.00766 0.92567 0.29285 0.0
C150 C 0.01417 0.86262 0.29999 0.0
C151 C 0.9912 0.90034 0.33679 0.0
C152 C 0.99487 0.92979 0.31917 0.0
C153 C 1.0004 0.86606 0.32719 0.0
H154 H 0.02741 0.89055 0.26187 0.0
H155 H 0.98718 0.9561 0.32638 0.0
C156 C 0.02637 0.07899 0.22777 0.0
N157 N 0.0657 0.14012 0.21625 0.0
C158 C 0.01492 0.10278 0.20703 0.0
C159 C 0.05774 0.08643 0.2427 0.0
C160 C 0.0352 0.13349 0.20149 0.0
C161 C 0.07727 0.11743 0.23658 0.0
C162 C 0.99331 0.95082 0.20515 0.0
C163 C 0.99441 0.97176 0.18097 0.0
C164 C 0.97812 0.91661 0.20428 0.0
C165 C 0.97992 0.9582 0.15625 0.0
C166 C 0.96394 0.90399 0.17914 0.0
N167 N 0.96511 0.92488 0.15586 0.0
C168 C 0.10777 0.98389 0.21294 0.0
C169 C 0.08019 0.0304 0.18697 0.0
C170 C 0.13872 0.98627 0.19647 0.0
N171 N 0.07969 0.00644 0.20836 0.0
C172 C 0.11068 0.03407 0.17033 0.0
C173 C 0.14063 0.01224 0.17532 0.0
H174 H 0.10648 0.96475 0.22989 0.0
H175 H 0.05713 0.04709 0.18297 0.0
C176 C 0.9218 0.04123 0.2086 0.0
N177 N 0.93149 0.00884 0.21909 0.0
C178 C 0.88988 0.04496 0.19359 0.0
C179 C 0.87803 0.98201 0.20088 0.0
C180 C 0.91019 0.97952 0.21577 0.0
C181 C 0.86759 0.01504 0.1894 0.0
H182 H 0.93894 0.0642 0.21189 0.0
H183 H 0.91808 0.95419 0.22478 0.0
O184 O 0.05128 0.99979 0.27326 0.0
O185 O 0.9707 0.00293 0.28071 0.0
O186 O 0.00681 0.04868 0.23324 0.0
O187 O 0.00683 0.96386 0.22963 0.0
H188 H 0.05549 0.97159 0.32396 0.0
H189 H 0.11488 0.02801 0.26046 0.0
H190 H 0.1101 0.97128 0.35349 0.0
H191 H 0.16829 0.02695 0.2912 0.0
H192 H 0.86653 0.93979 0.28744 0.0
H193 H 0.9258 0.05783 0.28123 0.0
H194 H 0.93296 0.94289 0.28435 0.0
H195 H 0.85946 0.05271 0.28408 0.0
H196 H 0.05959 0.10369 0.35538 0.0
H197 H 0.97104 0.15251 0.31083 0.0
H198 H 0.02134 0.83667 0.29168 0.0
H199 H 0.98116 0.90442 0.35775 0.0
H200 H 0.99079 0.09743 0.19514 0.0
H201 H 0.06678 0.06865 0.25896 0.0
H202 H 0.02671 0.15204 0.18543 0.0
H203 H 0.10159 0.12346 0.24801 0.0
H204 H 0.00587 0.9984 0.18139 0.0
H205 H 0.97701 0.90013 0.22288 0.0
H206 H 0.98036 0.97419 0.13741 0.0
H207 H 0.95194 0.87763 0.17816 0.0
H208 H 0.16131 0.96889 0.20081 0.0
H209 H 0.11094 0.05389 0.15379 0.0
H210 H 0.88309 0.07087 0.18491 0.0
H211 H 0.86142 0.95837 0.19856 0.0
Li212 Li 0.97119 0.99627 0.76878 0.0
Li213 Li 0.03926 0.99629 0.76967 0.0
Li214 Li 0.00413 0.02654 0.73021 0.0
Li215 Li 0.00509 0.96297 0.73649 0.0
C216 C 1.00263 0.06193 0.79201 0.0
N217 N 0.99856 0.1107 0.83517 0.0
C218 C 0.01472 0.05264 0.81868 0.0
C219 C 0.9889 0.09621 0.78722 0.0
C220 C 0.01231 0.07761 0.84024 0.0
C221 C 0.98694 0.12043 0.80933 0.0
C222 C 1.00006 0.92099 0.77948 0.0
C223 C 0.02405 0.86114 0.78185 0.0
N224 N 0.9901 0.8477 0.78056 0.0
C225 C 0.96541 0.9066 0.77827 0.0
C226 C 0.02965 0.89813 0.78134 0.0
C227 C 0.96094 0.86947 0.77881 0.0
C228 C 0.89635 0.98852 0.78072 0.0
N229 N 0.92885 0.99709 0.79197 0.0
C230 C 0.90164 0.00596 0.83667 0.0
C231 C 0.93204 0.00487 0.81958 0.0
C232 C 0.86766 0.99895 0.82519 0.0
C233 C 0.86523 0.98989 0.79689 0.0
H234 H 0.89441 0.98029 0.75922 0.0
H235 H 0.95816 0.00993 0.82845 0.0
C236 C 0.10183 0.03075 0.78772 0.0
N237 N 0.08115 1.00121 0.7919 0.0
C238 C 0.13228 0.03661 0.80413 0.0
C239 C 0.11995 0.98113 0.82845 0.0
C240 C 0.08948 0.97656 0.81178 0.0
C241 C 0.14161 0.01162 0.82484 0.0
H242 H 0.09435 0.04996 0.77182 0.0
H243 H 0.07214 0.95371 0.81503 0.0
C244 C 0.93311 0.01266 0.72027 0.0
N245 N 0.87395 0.0529 0.70511 0.0
C246 C 0.91011 1.00073 0.69916 0.0
C247 C 0.92606 0.04516 0.73355 0.0
C248 C 0.88033 0.02143 0.69182 0.0
C249 C 0.896 0.06508 0.72564 0.0
C250 C 0.0653 0.98063 0.70729 0.0
C251 C 0.04965 0.97903 0.68081 0.0
C252 C 0.09996 0.96736 0.71143 0.0
C253 C 0.06887 0.96366 0.65888 0.0
C254 C 0.11833 0.95225 0.68894 0.0
N255 N 0.10252 0.9507 0.66336 0.0
C256 C 0.02232 0.09659 0.71111 0.0
C257 C 0.98774 0.06153 0.67989 0.0
C258 C 0.02273 0.12512 0.69211 0.0
N259 N 0.00489 0.06567 0.70469 0.0
C260 C 0.98706 0.08937 0.66051 0.0
C261 C 0.00488 0.12174 0.66634 0.0
H262 H 0.03607 0.099 0.73091 0.0
H263 H 0.97446 0.03654 0.67511 0.0
C264 C 0.97255 0.90896 0.70486 0.0
N265 N 0.00457 0.91881 0.71613 0.0
C266 C 0.96963 0.87744 0.6895 0.0
C267 C 0.03266 0.86632 0.69789 0.0
C268 C 0.03429 0.898 0.71328 0.0
C269 C 1.00002 0.85579 0.68565 0.0
H270 H 0.94921 0.92563 0.70786 0.0
H271 H 0.05922 0.90582 0.72308 0.0
O272 O 0.00544 0.03812 0.77047 0.0
O273 O 0.00494 0.95726 0.77828 0.0
O274 O 0.96271 0.99282 0.72729 0.0
O275 O 0.04688 0.99528 0.72908 0.0
H276 H 0.02544 0.02626 0.82279 0.0
H277 H 0.97997 0.10412 0.76661 0.0
H278 H 0.02135 0.07067 0.86102 0.0
H279 H 0.97627 0.147 0.80593 0.0
H280 H 0.0467 0.84312 0.78308 0.0
H281 H 0.94225 0.9239 0.7766 0.0
H282 H 0.05669 0.90877 0.78181 0.0
H283 H 0.93429 0.85795 0.77773 0.0
H284 H 0.9046 0.01275 0.85852 0.0
H285 H 0.83957 0.98344 0.78747 0.0
H286 H 0.14838 0.06038 0.80066 0.0
H287 H 0.12596 0.96156 0.84449 0.0
H288 H 0.91529 0.97583 0.68842 0.0
H289 H 0.94337 0.05482 0.74992 0.0
H290 H 0.86233 0.0125 0.67552 0.0
H291 H 0.89022 0.09022 0.73584 0.0
H292 H 0.02277 0.98906 0.67735 0.0
H293 H 0.11241 0.96852 0.73183 0.0
H294 H 0.05702 0.96198 0.6383 0.0
H295 H 0.14512 0.94171 0.69183 0.0
H296 H 0.03724 0.1493 0.69742 0.0
H297 H 0.97234 0.08557 0.64125 0.0
H298 H 0.94401 0.87047 0.68026 0.0
H299 H 0.05658 0.8501 0.69578 0.0
H300 H 0.27401 0.06309 0.10492 0.0
H301 H 0.27347 0.95172 0.08105 0.0
H302 H 0.22483 0.93986 0.11395 0.0
H303 H 0.17882 0.9622 0.14674 0.0
H304 H 0.1766 0.0745 0.16717 0.0
H305 H 0.22934 0.08507 0.13794 0.0
C306 C 0.26318 0.03622 0.10672 0.0
C307 C 0.27734 0.00847 0.09025 0.0
C308 C 0.23435 0.02982 0.12489 0.0
C309 C 0.2635 0.97362 0.09358 0.0
C310 C 0.23537 0.96684 0.11223 0.0
C311 C 0.19022 0.98885 0.14494 0.0
C312 C 0.17387 0.01759 0.1589 0.0
C313 C 0.22011 0.99487 0.1276 0.0
C314 C 0.1886 0.05208 0.15635 0.0
C315 C 0.21876 0.05811 0.13972 0.0
H316 H 0.99227 0.22729 0.56361 0.0
H317 H 0.98902 0.30567 0.62928 0.0
H318 H 0.99708 0.25826 0.66436 0.0
H319 H 1.00126 0.19402 0.67608 0.0
H320 H 0.00831 0.11657 0.60946 0.0
H321 H 1.00219 0.16409 0.57504 0.0
C322 C 0.99357 0.23387 0.58564 0.0
C323 C 0.98977 0.2696 0.59406 0.0
C324 C 0.99852 0.20667 0.60545 0.0
C325 C 0.99189 0.27818 0.62249 0.0
C326 C 0.99637 0.25112 0.64246 0.0
C327 C 1.0021 0.18752 0.65406 0.0
C328 C 0.00453 0.15149 0.64553 0.0
C329 C 0.99925 0.21516 0.63418 0.0
C330 C 0.00536 0.1438 0.61679 0.0
C331 C 1.00216 0.17102 0.597 0.0
H332 H 0.72744 0.05492 0.12168 0.0
H333 H 0.75228 0.95441 0.08193 0.0
H334 H 0.80244 0.94546 0.1139 0.0
H335 H 0.84202 0.96816 0.15077 0.0
H336 H 0.81812 0.06914 0.19009 0.0
H337 H 0.7654 0.07626 0.16023 0.0
C338 C 0.74381 0.03104 0.12003 0.0
C339 C 0.73603 0.00543 0.09937 0.0
C340 C 0.7731 0.02633 0.13816 0.0
C341 C 0.75724 0.97436 0.09784 0.0
C342 C 0.78619 0.96935 0.11596 0.0
C343 C 0.82497 0.99146 0.15314 0.0
C344 C 0.83419 0.01817 0.17254 0.0
C345 C 0.7947 0.9954 0.13591 0.0
C346 C 0.81201 0.04844 0.17502 0.0
C347 C 0.78174 0.05245 0.15805 0.0
H348 H 0.96257 0.71782 0.61552 0.0
H349 H 0.06178 0.74743 0.57487 0.0
H350 H 0.07024 0.79618 0.60798 0.0
H351 H 0.04732 0.8332 0.64629 0.0
H352 H 0.94721 0.80489 0.68603 0.0
H353 H 0.94092 0.75332 0.65513 0.0
C354 C 0.98603 0.73496 0.61388 0.0
C355 C 0.01142 0.72893 0.59265 0.0
C356 C 0.9904 0.76345 0.63265 0.0
C357 C 0.042 0.75106 0.59118 0.0
C358 C 0.04673 0.7792 0.60997 0.0
C359 C 0.02441 0.81541 0.64848 0.0
C360 C 0.99768 0.82298 0.66832 0.0
C361 C 0.02085 0.78596 0.63052 0.0
C362 C 0.96791 0.79993 0.67065 0.0
C363 C 0.96437 0.77037 0.65306 0.0
H364 H 0.26107 0.06132 0.90964 0.0
H365 H 0.29795 0.95322 0.8962 0.0
H366 H 0.24873 0.94304 0.8634 0.0
H367 H 0.19424 0.96452 0.83929 0.0
H368 H 0.15904 0.07322 0.85189 0.0
H369 H 0.20917 0.08373 0.88375 0.0
C370 C 0.25893 0.03572 0.89914 0.0
C371 C 0.28331 0.00809 0.9055 0.0
C372 C 0.2308 0.03015 0.88013 0.0
C373 C 0.27938 0.97486 0.89206 0.0
C374 C 0.2513 0.96904 0.87318 0.0
C375 C 0.19762 0.99047 0.84905 0.0
C376 C 0.17296 0.01803 0.84331 0.0
C377 C 0.22662 0.99638 0.86729 0.0
C378 C 0.17784 0.05168 0.8558 0.0
C379 C 0.20639 0.05766 0.87411 0.0
H380 H 0.01187 0.23671 0.43973 0.0
H381 H 0.98201 0.3125 0.37589 0.0
H382 H 0.98837 0.26607 0.34016 0.0
H383 H 1.00112 0.20355 0.32747 0.0
H384 H 0.02649 0.12722 0.39244 0.0
H385 H 0.02408 0.17446 0.42718 0.0
C386 C 0.00726 0.24314 0.41792 0.0
C387 C 0.99681 0.27794 0.41034 0.0
C388 C 0.01023 0.21624 0.39771 0.0
C389 C 0.99011 0.28582 0.38214 0.0
C390 C 0.99375 0.25932 0.36177 0.0
C391 C 0.00584 0.19711 0.34923 0.0
C392 C 0.01419 0.16172 0.35714 0.0
C393 C 1.00344 0.22431 0.36937 0.0
C394 C 0.02076 0.15421 0.38549 0.0
C395 C 0.01907 0.18119 0.4055 0.0
H396 H 0.72069 0.02869 0.88656 0.0
H397 H 0.76997 0.96066 0.94848 0.0
H398 H 0.82245 0.95291 0.91852 0.0
H399 H 0.8557 0.9679 0.87564 0.0
H400 H 0.80613 0.03511 0.81338 0.0
H401 H 0.75251 0.04093 0.84253 0.0
C402 C 0.74287 0.01205 0.89338 0.0
C403 C 0.74148 0.99533 0.91969 0.0
C404 C 0.77302 0.0078 0.87609 0.0
C405 C 0.77022 0.9735 0.92818 0.0
C406 C 0.80037 0.96929 0.91117 0.0
C407 C 0.83311 0.98381 0.86854 0.0
C408 C 0.83486 1.00128 0.84257 0.0
C409 C 0.80228 0.98672 0.88526 0.0
C410 C 0.80527 0.02137 0.83331 0.0
C411 C 0.77469 0.02477 0.84997 0.0
H412 H 0.95772 0.74961 0.41648 0.0
H413 H 0.05746 0.70265 0.38906 0.0
H414 H 0.06513 0.75098 0.35502 0.0
H415 H 0.04441 0.80803 0.33433 0.0
H416 H 0.94323 0.85262 0.3611 0.0
H417 H 0.93508 0.80337 0.39383 0.0
C418 C 0.9808 0.74933 0.40269 0.0
C419 C 0.00691 0.72235 0.40538 0.0
C420 C 0.98491 0.77696 0.3831 0.0
C421 C 0.0371 0.72323 0.38772 0.0
C422 C 0.04143 0.7508 0.36814 0.0
C423 C 0.02036 0.80669 0.34705 0.0
C424 C 0.99474 0.83433 0.3455 0.0
C425 C 0.01566 0.77803 0.36584 0.0
C426 C 0.96381 0.83222 0.36229 0.0
C427 C 0.95899 0.80394 0.38092 0.0
loop_
_geom_bond_atom_site_label_1
_geom_bond_atom_site_label_2
_geom_bond_distance
_geom_bond_site_symmetry_2
_ccdc_geom_bond_type
H0 C27 0.929 . S
N1 C26 1.446 . S
N1 C32 1.423 1_554 S
N1 C38 1.422 1_554 S
H2 C28 0.930 . S
H3 C31 0.931 . S
H4 C30 0.929 . S
H5 C33 0.930 . S
H6 C34 0.932 . S
H7 C37 0.929 . S
H8 C36 0.931 . S
H9 C39 0.929 . S
H10 C43 0.932 1_565 S
H11 C40 0.931 . S
H12 C42 0.929 1_565 S
H13 C45 0.929 . S
H14 C46 0.930 . S
H15 C48 0.929 . S
H16 C49 0.931 . S
H17 C51 0.930 . S
H18 C52 0.932 . S
H19 C54 0.931 . S
H20 C55 0.929 . S
H21 C57 0.929 . S
H22 C58 0.931 . S
H23 C60 0.929 1_565 S
N24 C44 1.446 . S
N24 C50 1.423 1_554 S
N24 C56 1.422 1_554 S
H25 C61 0.932 1_565 S
C26 N1 1.446 . S
C26 C27 1.363 . S
C26 C31 1.370 1_545 S
C27 H0 0.929 . S
C27 C26 1.363 . S
C27 C28 1.385 . S
C28 H2 0.930 . S
C28 C27 1.385 . S
C28 C29 1.357 . S
C29 C28 1.357 . S
C29 C30 1.406 1_545 S
C30 H4 0.929 . S
C30 C29 1.406 1_565 S
C30 C31 1.391 . S
C31 H3 0.931 . S
C31 C26 1.370 1_565 S
C31 C30 1.391 . S
C32 N1 1.423 1_556 S
C32 C33 1.358 1_545 S
C32 C37 1.371 . S
C33 H5 0.930 . S
C33 C32 1.358 1_565 S
C33 C34 1.405 . S
C34 H6 0.932 . S
C34 C33 1.405 . S
C34 C35 1.383 1_565 S
C35 C34 1.383 1_545 S
C35 C36 1.393 . S
C36 H8 0.931 . S
C36 C35 1.393 . S
C36 C37 1.382 . S
C37 H7 0.929 . S
C37 C32 1.371 . S
C37 C36 1.382 . S
C38 N1 1.422 1_556 S
C38 C39 1.362 1_556 S
C38 C43 1.388 . S
C39 H9 0.929 . S
C39 C38 1.362 1_554 S
C39 C40 1.376 . S
C40 H11 0.931 . S
C40 C39 1.376 . S
C40 C41 1.396 1_554 S
C41 C40 1.396 1_556 S
C41 C42 1.348 . S
C41 C59 1.472 . S
C42 H12 0.929 1_545 S
C42 C41 1.348 . S
C42 C43 1.443 . S
C43 H10 0.932 1_545 S
C43 C38 1.388 . S
C43 C42 1.443 . S
C44 N24 1.446 . S
C44 C45 1.363 . S
C44 C49 1.370 1_545 S
C45 H13 0.929 . S
C45 C44 1.363 . S
C45 C46 1.385 . S
C46 H14 0.930 . S
C46 C45 1.385 . S
C46 C47 1.357 . S
C47 C46 1.357 . S
C47 C48 1.406 1_545 S
C48 H15 0.929 . S
C48 C47 1.406 1_565 S
C48 C49 1.391 . S
C49 H16 0.931 . S
C49 C44 1.370 1_565 S
C49 C48 1.391 . S
C50 N24 1.423 1_556 S
C50 C51 1.358 1_545 S
C50 C55 1.371 . S
C51 H17 0.930 . S
C51 C50 1.358 1_565 S
C51 C52 1.405 . S
C52 H18 0.932 . S
C52 C51 1.405 . S
C52 C53 1.383 1_565 S
C53 C52 1.383 1_545 S
C53 C54 1.393 . S
C54 H19 0.931 . S
C54 C53 1.393 . S
C54 C55 1.382 . S
C55 H20 0.929 . S
C55 C50 1.371 . S
C55 C54 1.382 . S
C56 N24 1.422 1_556 S
C56 C57 1.362 1_556 S
C56 C61 1.388 . S
C57 H21 0.929 . S
C57 C56 1.362 1_554 S
C57 C58 1.376 . S
C58 H22 0.931 . S
C58 C57 1.376 . S
C58 C59 1.396 1_554 S
C59 C41 1.472 . S
C59 C58 1.396 1_556 S
C59 C60 1.348 . S
C60 H23 0.929 1_545 S
C60 C59 1.348 . S
C60 C61 1.443 . S
C61 H25 0.932 1_545 S
C61 C56 1.388 . S
C61 C60 1.443 . S
H62 C89 0.929 . S
N63 C88 1.433 . S
N63 C94 1.435 . S
N63 C100 1.423 . S
H64 C90 0.930 . S
H65 C93 0.931 . S
H66 C92 0.929 . S
H67 C95 0.930 . S
H68 C96 0.932 . S
H69 C99 0.929 . S
H70 C98 0.931 . S
H71 C101 0.929 . S
H72 C105 0.932 1_455 S
H73 C102 0.931 . S
H74 C104 0.929 1_455 S
H75 C107 0.929 . S
H76 C108 0.930 . S
H77 C110 0.929 . S
H78 C111 0.931 . S
H79 C113 0.930 . S
H80 C114 0.932 . S
H81 C116 0.931 . S
H82 C117 0.929 . S
H83 C119 0.929 . S
H84 C120 0.931 . S
H85 C122 0.929 1_455 S
N86 C106 1.433 . S
N86 C112 1.435 . S
N86 C118 1.423 . S
H87 C123 0.932 1_455 S
C88 N63 1.433 . S
C88 C89 1.363 . S
C88 C93 1.370 1_655 S
C89 H62 0.929 . S
C89 C88 1.363 . S
C89 C90 1.385 . S
C90 H64 0.930 . S
C90 C89 1.385 . S
C90 C91 1.357 . S
C91 C90 1.357 . S
C91 C92 1.406 1_655 S
C92 H66 0.929 . S
C92 C91 1.406 1_455 S
C92 C93 1.391 . S
C93 H65 0.931 . S
C93 C88 1.370 1_455 S
C93 C92 1.391 . S
C94 N63 1.435 . S
C94 C95 1.358 1_655 S
C94 C99 1.371 . S
C95 H67 0.930 . S
C95 C94 1.358 1_455 S
C95 C96 1.405 . S
C96 H68 0.932 . S
C96 C95 1.405 . S
C96 C97 1.383 1_455 S
C97 C96 1.383 1_655 S
C97 C98 1.393 . S
C98 H70 0.931 . S
C98 C97 1.393 . S
C98 C99 1.382 . S
C99 H69 0.929 . S
C99 C94 1.371 . S
C99 C98 1.382 . S
C100 N63 1.423 . S
C100 C101 1.362 . S
C100 C105 1.388 . S
C101 H71 0.929 . S
C101 C100 1.362 . S
C101 C102 1.376 . S
C102 H73 0.931 . S
C102 C101 1.376 . S
C102 C103 1.396 . S
C103 C102 1.396 . S
C103 C104 1.348 . S
C103 C121 1.472 . S
C104 H74 0.929 1_655 S
C104 C103 1.348 . S
C104 C105 1.443 . S
C105 H72 0.932 1_655 S
C105 C100 1.388 . S
C105 C104 1.443 . S
C106 N86 1.433 . S
C106 C107 1.363 . S
C106 C111 1.370 1_655 S
C107 H75 0.929 . S
C107 C106 1.363 . S
C107 C108 1.385 . S
C108 H76 0.930 . S
C108 C107 1.385 . S
C108 C109 1.357 . S
C109 C108 1.357 . S
C109 C110 1.406 1_655 S
C110 H77 0.929 . S
C110 C109 1.406 1_455 S
C110 C111 1.391 . S
C111 H78 0.931 . S
C111 C106 1.370 1_455 S
C111 C110 1.391 . S
C112 N86 1.435 . S
C112 C113 1.358 1_655 S
C112 C117 1.371 . S
C113 H79 0.930 . S
C113 C112 1.358 1_455 S
C113 C114 1.405 . S
C114 H80 0.932 . S
C114 C113 1.405 . S
C114 C115 1.383 1_455 S
C115 C114 1.383 1_655 S
C115 C116 1.393 . S
C116 H81 0.931 . S
C116 C115 1.393 . S
C116 C117 1.382 . S
C117 H82 0.929 . S
C117 C112 1.371 . S
C117 C116 1.382 . S
C118 N86 1.423 . S
C118 C119 1.362 . S
C118 C123 1.388 . S
C119 H83 0.929 . S
C119 C118 1.362 . S
C119 C120 1.376 . S
C120 H84 0.931 . S
C120 C119 1.376 . S
C120 C121 1.396 . S
C121 C103 1.472 . S
C121 C120 1.396 . S
C121 C122 1.348 . S
C122 H85 0.929 1_655 S
C122 C121 1.348 . S
C122 C123 1.443 . S
C123 H87 0.932 1_655 S
C123 C118 1.388 . S
C123 C122 1.443 . S
Li124 N141 1.990 . S
Li124 O184 1.956 1_545 S
Li124 O185 1.970 1_455 S
Li124 O186 1.961 1_455 S
Li125 N149 1.990 . S
Li125 O184 1.970 1_655 S
Li125 O185 1.956 1_565 S
Li125 O187 1.961 1_655 S
Li126 N171 1.990 . S
Li126 O184 1.961 1_545 S
Li126 O186 1.956 1_455 S
Li126 O187 1.970 1_545 S
Li127 N177 1.990 . S
Li127 O185 1.961 1_565 S
Li127 O186 1.970 1_565 S
Li127 O187 1.956 1_655 S
C128 C130 1.348 1_545 S
C128 C131 1.356 . S
C128 O184 1.325 1_545 S
N129 C132 1.314 1_545 S
N129 C133 1.279 . S
C130 C128 1.348 1_565 S
C130 C132 1.353 . S
C130 H188 0.929 . S
C131 C128 1.356 . S
C131 C133 1.358 . S
C131 H189 0.930 . S
C132 N129 1.314 1_565 S
C132 C130 1.353 . S
C132 H190 0.930 . S
C133 N129 1.279 . S
C133 C131 1.358 . S
C133 H191 0.930 . S
C134 C137 1.348 . S
C134 C138 1.356 1_545 S
C134 O185 1.325 . S
C135 N136 1.279 . S
C135 C138 1.358 . S
C135 H192 0.930 . S
N136 C135 1.279 . S
N136 C139 1.314 1_565 S
C137 C134 1.348 . S
C137 C139 1.353 . S
C137 H193 0.929 . S
C138 C134 1.356 1_565 S
C138 C135 1.358 . S
C138 H194 0.930 . S
C139 N136 1.314 1_545 S
C139 C137 1.353 . S
C139 H195 0.930 . S
C140 N141 1.314 1_655 S
C140 C145 1.353 . S
C140 H146 0.930 . S
N141 Li124 1.990 . S
N141 C140 1.314 1_455 S
N141 C143 1.279 . S
C142 C143 1.358 . S
C142 C144 1.356 . S
C142 H196 0.930 . S
C143 N141 1.279 . S
C143 C142 1.358 . S
C143 H147 0.930 . S
C144 C142 1.356 . S
C144 C145 1.348 1_455 S
C145 C140 1.353 . S
C145 C144 1.348 1_655 S
C145 H197 0.929 . S
H146 C140 0.930 . S
H147 C143 0.930 . S
C148 N149 1.314 1_455 S
C148 C150 1.353 . S
C148 H154 0.930 . S
N149 Li125 1.990 . S
N149 C148 1.314 1_655 S
N149 C152 1.279 . S
C150 C148 1.353 . S
C150 C153 1.348 . S
C150 H198 0.929 . S
C151 C152 1.358 . S
C151 C153 1.356 1_655 S
C151 H199 0.930 . S
C152 N149 1.279 . S
C152 C151 1.358 . S
C152 H155 0.930 . S
C153 C150 1.348 . S
C153 C151 1.356 1_455 S
H154 C148 0.930 . S
H155 C152 0.930 . S
C156 C158 1.348 1_455 S
C156 C159 1.356 . S
C156 O186 1.325 1_455 S
N157 C160 1.314 1_455 S
N157 C161 1.279 . S
C158 C156 1.348 1_655 S
C158 C160 1.353 . S
C158 H200 0.929 . S
C159 C156 1.356 . S
C159 C161 1.358 . S
C159 H201 0.930 . S
C160 N157 1.314 1_655 S
C160 C158 1.353 . S
C160 H202 0.930 . S
C161 N157 1.279 . S
C161 C159 1.358 . S
C161 H203 0.930 . S
C162 C163 1.348 . S
C162 C164 1.356 1_455 S
C162 O187 1.325 . S
C163 C162 1.348 . S
C163 C165 1.353 . S
C163 H204 0.929 . S
C164 C162 1.356 1_655 S
C164 C166 1.358 . S
C164 H205 0.930 . S
C165 C163 1.353 . S
C165 N167 1.314 1_455 S
C165 H206 0.930 . S
C166 C164 1.358 . S
C166 N167 1.279 . S
C166 H207 0.930 . S
N167 C165 1.314 1_655 S
N167 C166 1.279 . S
C168 C170 1.353 . S
C168 N171 1.314 1_565 S
C168 H174 0.930 . S
C169 N171 1.279 . S
C169 C172 1.358 . S
C169 H175 0.930 . S
C170 C168 1.353 . S
C170 C173 1.348 1_565 S
C170 H208 0.929 . S
N171 Li126 1.990 . S
N171 C168 1.314 1_545 S
N171 C169 1.279 . S
C172 C169 1.358 . S
C172 C173 1.356 . S
C172 H209 0.930 . S
C173 C170 1.348 1_545 S
C173 C172 1.356 . S
H174 C168 0.930 . S
H175 C169 0.930 . S
C176 N177 1.314 1_545 S
C176 C178 1.353 . S
C176 H182 0.930 . S
N177 Li127 1.990 . S
N177 C176 1.314 1_565 S
N177 C180 1.279 . S
C178 C176 1.353 . S
C178 C181 1.348 . S
C178 H210 0.929 . S
C179 C180 1.358 . S
C179 C181 1.356 1_565 S
C179 H211 0.930 . S
C180 N177 1.279 . S
C180 C179 1.358 . S
C180 H183 0.930 . S
C181 C178 1.348 . S
C181 C179 1.356 1_545 S
H182 C176 0.930 . S
H183 C180 0.930 . S
O184 Li124 1.956 1_565 S
O184 Li125 1.970 1_455 S
O184 Li126 1.961 1_565 S
O184 C128 1.325 1_565 S
O185 Li124 1.970 1_655 S
O185 Li125 1.956 1_545 S
O185 Li127 1.961 1_545 S
O185 C134 1.325 . S
O186 Li124 1.961 1_655 S
O186 Li126 1.956 1_655 S
O186 Li127 1.970 1_545 S
O186 C156 1.325 1_655 S
O187 Li125 1.961 1_455 S
O187 Li126 1.970 1_565 S
O187 Li127 1.956 1_455 S
O187 C162 1.325 . S
H188 C130 0.929 . S
H189 C131 0.930 . S
H190 C132 0.930 . S
H191 C133 0.930 . S
H192 C135 0.930 . S
H193 C137 0.929 . S
H194 C138 0.930 . S
H195 C139 0.930 . S
H196 C142 0.930 . S
H197 C145 0.929 . S
H198 C150 0.929 . S
H199 C151 0.930 . S
H200 C158 0.929 . S
H201 C159 0.930 . S
H202 C160 0.930 . S
H203 C161 0.930 . S
H204 C163 0.929 . S
H205 C164 0.930 . S
H206 C165 0.930 . S
H207 C166 0.930 . S
H208 C170 0.929 . S
H209 C172 0.930 . S
H210 C178 0.929 . S
H211 C179 0.930 . S
Li212 N229 1.990 . S
Li212 O272 1.956 1_655 S
Li212 O273 1.970 1_545 S
Li212 O274 1.961 1_545 S
Li213 N237 1.990 . S
Li213 O272 1.970 1_565 S
Li213 O273 1.956 1_455 S
Li213 O275 1.961 1_565 S
Li214 N259 1.990 . S
Li214 O272 1.961 1_655 S
Li214 O274 1.956 1_545 S
Li214 O275 1.970 1_655 S
Li215 N265 1.990 . S
Li215 O273 1.961 1_455 S
Li215 O274 1.970 1_455 S
Li215 O275 1.956 1_565 S
C216 C218 1.348 . S
C216 C219 1.356 1_455 S
C216 O272 1.325 . S
N217 C220 1.314 1_655 S
N217 C221 1.279 . S
C218 C216 1.348 . S
C218 C220 1.353 . S
C218 H276 0.929 . S
C219 C216 1.356 1_655 S
C219 C221 1.358 . S
C219 H277 0.930 . S
C220 N217 1.314 1_455 S
C220 C218 1.353 . S
C220 H278 0.930 . S
C221 N217 1.279 . S
C221 C219 1.358 . S
C221 H279 0.930 . S
C222 C225 1.348 1_455 S
C222 C226 1.356 . S
C222 O273 1.325 1_455 S
C223 N224 1.279 . S
C223 C226 1.358 . S
C223 H280 0.930 . S
N224 C223 1.279 . S
N224 C227 1.314 1_455 S
C225 C222 1.348 1_655 S
C225 C227 1.353 . S
C225 H281 0.929 . S
C226 C222 1.356 . S
C226 C223 1.358 . S
C226 H282 0.930 . S
C227 N224 1.314 1_655 S
C227 C225 1.353 . S
C227 H283 0.930 . S
C228 N229 1.314 1_565 S
C228 C233 1.353 . S
C228 H234 0.930 . S
N229 Li212 1.990 . S
N229 C228 1.314 1_545 S
N229 C231 1.279 . S
C230 C231 1.358 . S
C230 C232 1.356 . S
C230 H284 0.930 . S
C231 N229 1.279 . S
C231 C230 1.358 . S
C231 H235 0.930 . S
C232 C230 1.356 . S
C232 C233 1.348 1_545 S
C233 C228 1.353 . S
C233 C232 1.348 1_565 S
C233 H285 0.929 . S
H234 C228 0.930 . S
H235 C231 0.930 . S
C236 N237 1.314 1_545 S
C236 C238 1.353 . S
C236 H242 0.930 . S
N237 Li213 1.990 . S
N237 C236 1.314 1_565 S
N237 C240 1.279 . S
C238 C236 1.353 . S
C238 C241 1.348 . S
C238 H286 0.929 . S
C239 C240 1.358 . S
C239 C241 1.356 1_565 S
C239 H287 0.930 . S
C240 N237 1.279 . S
C240 C239 1.358 . S
C240 H243 0.930 . S
C241 C238 1.348 . S
C241 C239 1.356 1_545 S
H242 C236 0.930 . S
H243 C240 0.930 . S
C244 C246 1.348 1_545 S
C244 C247 1.356 . S
C244 O274 1.325 1_545 S
N245 C248 1.314 1_545 S
N245 C249 1.279 . S
C246 C244 1.348 1_565 S
C246 C248 1.353 . S
C246 H288 0.929 . S
C247 C244 1.356 . S
C247 C249 1.358 . S
C247 H289 0.930 . S
C248 N245 1.314 1_565 S
C248 C246 1.353 . S
C248 H290 0.930 . S
C249 N245 1.279 . S
C249 C247 1.358 . S
C249 H291 0.930 . S
C250 C251 1.348 . S
C250 C252 1.356 1_545 S
C250 O275 1.325 . S
C251 C250 1.348 . S
C251 C253 1.353 . S
C251 H292 0.929 . S
C252 C250 1.356 1_565 S
C252 C254 1.358 . S
C252 H293 0.930 . S
C253 C251 1.353 . S
C253 N255 1.314 1_545 S
C253 H294 0.930 . S
C254 C252 1.358 . S
C254 N255 1.279 . S
C254 H295 0.930 . S
N255 C253 1.314 1_565 S
N255 C254 1.279 . S
C256 C258 1.353 . S
C256 N259 1.314 1_455 S
C256 H262 0.930 . S
C257 N259 1.279 . S
C257 C260 1.358 . S
C257 H263 0.930 . S
C258 C256 1.353 . S
C258 C261 1.348 . S
C258 H296 0.929 . S
N259 Li214 1.990 . S
N259 C256 1.314 1_655 S
N259 C257 1.279 . S
C260 C257 1.358 . S
C260 C261 1.356 1_655 S
C260 H297 0.930 . S
C261 C258 1.348 . S
C261 C260 1.356 1_455 S
H262 C256 0.930 . S
H263 C257 0.930 . S
C264 N265 1.314 1_655 S
C264 C266 1.353 . S
C264 H270 0.930 . S
N265 Li215 1.990 . S
N265 C264 1.314 1_455 S
N265 C268 1.279 . S
C266 C264 1.353 . S
C266 C269 1.348 1_655 S
C266 H298 0.929 . S
C267 C268 1.358 . S
C267 C269 1.356 . S
C267 H299 0.930 . S
C268 N265 1.279 . S
C268 C267 1.358 . S
C268 H271 0.930 . S
C269 C266 1.348 1_455 S
C269 C267 1.356 . S
H270 C264 0.930 . S
H271 C268 0.930 . S
O272 Li212 1.956 1_455 S
O272 Li213 1.970 1_545 S
O272 Li214 1.961 1_455 S
O272 C216 1.325 . S
O273 Li212 1.970 1_565 S
O273 Li213 1.956 1_655 S
O273 Li215 1.961 1_655 S
O273 C222 1.325 1_655 S
O274 Li212 1.961 1_565 S
O274 Li214 1.956 1_565 S
O274 Li215 1.970 1_655 S
O274 C244 1.325 1_565 S
O275 Li213 1.961 1_545 S
O275 Li214 1.970 1_455 S
O275 Li215 1.956 1_545 S
O275 C250 1.325 . S
H276 C218 0.929 . S
H277 C219 0.930 . S
H278 C220 0.930 . S
H279 C221 0.930 . S
H280 C223 0.930 . S
H281 C225 0.929 . S
H282 C226 0.930 . S
H283 C227 0.930 . S
H284 C230 0.930 . S
H285 C233 0.929 . S
H286 C238 0.929 . S
H287 C239 0.930 . S
H288 C246 0.929 . S
H289 C247 0.930 . S
H290 C248 0.930 . S
H291 C249 0.930 . S
H292 C251 0.929 . S
H293 C252 0.930 . S
H294 C253 0.930 . S
H295 C254 0.930 . S
H296 C258 0.929 . S
H297 C260 0.930 . S
H298 C266 0.929 . S
H299 C267 0.930 . S
H300 C306 0.930 . S
H301 C309 0.930 . S
H302 C310 0.930 . S
H303 C311 0.930 . S
H304 C314 0.930 . S
H305 C315 0.930 . S
C306 H300 0.930 . S
C306 C307 1.355 1_545 S
C306 C308 1.415 . S
C307 C306 1.355 1_565 S
C307 C309 1.419 . S
C308 C306 1.415 . S
C308 C313 1.425 1_545 S
C308 C315 1.409 . S
C309 H301 0.930 . S
C309 C307 1.419 . S
C309 C310 1.362 . S
C310 H302 0.930 . S
C310 C309 1.362 . S
C310 C313 1.409 . S
C311 H303 0.930 . S
C311 C312 1.355 1_565 S
C311 C313 1.415 . S
C312 C311 1.355 1_545 S
C312 C314 1.419 . S
C313 C308 1.425 1_565 S
C313 C310 1.409 . S
C313 C311 1.415 . S
C314 H304 0.930 . S
C314 C312 1.419 . S
C314 C315 1.362 . S
C315 H305 0.930 . S
C315 C308 1.409 . S
C315 C314 1.362 . S
H316 C322 0.930 . S
H317 C325 0.930 . S
H318 C326 0.930 . S
H319 C327 0.930 . S
H320 C330 0.930 . S
H321 C331 0.930 . S
C322 H316 0.930 . S
C322 C323 1.355 1_455 S
C322 C324 1.415 . S
C323 C322 1.355 1_655 S
C323 C325 1.419 . S
C324 C322 1.415 . S
C324 C329 1.425 1_455 S
C324 C331 1.409 . S
C325 H317 0.930 . S
C325 C323 1.419 . S
C325 C326 1.362 . S
C326 H318 0.930 . S
C326 C325 1.362 . S
C326 C329 1.409 . S
C327 H319 0.930 . S
C327 C328 1.355 1_655 S
C327 C329 1.415 . S
C328 C327 1.355 1_455 S
C328 C330 1.419 . S
C329 C324 1.425 1_655 S
C329 C326 1.409 . S
C329 C327 1.415 . S
C330 H320 0.930 . S
C330 C328 1.419 . S
C330 C331 1.362 . S
C331 H321 0.930 . S
C331 C324 1.409 . S
C331 C330 1.362 . S
H332 C338 0.930 . S
H333 C341 0.930 . S
H334 C342 0.930 . S
H335 C343 0.930 . S
H336 C346 0.930 . S
H337 C347 0.930 . S
C338 H332 0.930 . S
C338 C339 1.351 1_545 S
C338 C340 1.415 . S
C339 C338 1.351 1_565 S
C339 C341 1.424 . S
C340 C338 1.415 . S
C340 C345 1.425 1_545 S
C340 C347 1.409 . S
C341 H333 0.930 . S
C341 C339 1.424 . S
C341 C342 1.362 . S
C342 H334 0.930 . S
C342 C341 1.362 . S
C342 C345 1.409 . S
C343 H335 0.930 . S
C343 C344 1.355 1_565 S
C343 C345 1.415 . S
C344 C343 1.355 1_545 S
C344 C346 1.419 . S
C345 C340 1.425 1_565 S
C345 C342 1.409 . S
C345 C343 1.415 . S
C346 H336 0.930 . S
C346 C344 1.419 . S
C346 C347 1.362 . S
C347 H337 0.930 . S
C347 C340 1.409 . S
C347 C346 1.362 . S
H348 C354 0.930 . S
H349 C357 0.930 . S
H350 C358 0.930 . S
H351 C359 0.930 . S
H352 C362 0.930 . S
H353 C363 0.930 . S
C354 H348 0.930 . S
C354 C355 1.357 . S
C354 C356 1.415 . S
C355 C354 1.357 . S
C355 C357 1.416 1_655 S
C356 C354 1.415 . S
C356 C361 1.425 1_655 S
C356 C363 1.409 . S
C357 H349 0.930 . S
C357 C355 1.416 1_455 S
C357 C358 1.362 . S
C358 H350 0.930 . S
C358 C357 1.362 . S
C358 C361 1.409 . S
C359 H351 0.930 . S
C359 C360 1.355 1_455 S
C359 C361 1.415 . S
C360 C359 1.355 1_655 S
C360 C362 1.419 . S
C361 C356 1.425 1_455 S
C361 C358 1.409 . S
C361 C359 1.415 . S
C362 H352 0.930 . S
C362 C360 1.419 . S
C362 C363 1.362 . S
C363 H353 0.930 . S
C363 C356 1.409 . S
C363 C362 1.362 . S
H364 C370 0.930 . S
H365 C373 0.930 . S
H366 C374 0.930 . S
H367 C375 0.930 . S
H368 C378 0.930 . S
H369 C379 0.930 . S
C370 H364 0.930 . S
C370 C371 1.355 1_545 S
C370 C372 1.415 . S
C371 C370 1.355 1_565 S
C371 C373 1.419 . S
C372 C370 1.415 . S
C372 C377 1.425 1_545 S
C372 C379 1.409 . S
C373 H365 0.930 . S
C373 C371 1.419 . S
C373 C374 1.362 . S
C374 H366 0.930 . S
C374 C373 1.362 . S
C374 C377 1.409 . S
C375 H367 0.930 . S
C375 C376 1.355 1_565 S
C375 C377 1.415 . S
C376 C375 1.355 1_545 S
C376 C378 1.419 . S
C377 C372 1.425 1_565 S
C377 C374 1.409 . S
C377 C375 1.415 . S
C378 H368 0.930 . S
C378 C376 1.419 . S
C378 C379 1.362 . S
C379 H369 0.930 . S
C379 C372 1.409 . S
C379 C378 1.362 . S
H380 C386 0.930 . S
H381 C389 0.930 . S
H382 C390 0.930 . S
H383 C391 0.930 . S
H384 C394 0.930 . S
H385 C395 0.930 . S
C386 H380 0.930 . S
C386 C387 1.355 1_655 S
C386 C388 1.415 . S
C387 C386 1.355 1_455 S
C387 C389 1.419 . S
C388 C386 1.415 . S
C388 C393 1.425 1_655 S
C388 C395 1.409 . S
C389 H381 0.930 . S
C389 C387 1.419 . S
C389 C390 1.362 . S
C390 H382 0.930 . S
C390 C389 1.362 . S
C390 C393 1.409 . S
C391 H383 0.930 . S
C391 C392 1.355 1_455 S
C391 C393 1.415 . S
C392 C391 1.355 1_655 S
C392 C394 1.419 . S
C393 C388 1.425 1_455 S
C393 C390 1.409 . S
C393 C391 1.415 . S
C394 H384 0.930 . S
C394 C392 1.419 . S
C394 C395 1.362 . S
C395 H385 0.930 . S
C395 C388 1.409 . S
C395 C394 1.362 . S
H396 C402 0.930 . S
H397 C405 0.930 . S
H398 C406 0.930 . S
H399 C407 0.930 . S
H400 C410 0.930 . S
H401 C411 0.930 . S
C402 H396 0.930 . S
C402 C403 1.347 1_565 S
C402 C404 1.415 . S
C403 C402 1.347 1_545 S
C403 C405 1.429 . S
C404 C402 1.415 . S
C404 C409 1.425 1_565 S
C404 C411 1.409 . S
C405 H397 0.930 . S
C405 C403 1.429 . S
C405 C406 1.362 . S
C406 H398 0.930 . S
C406 C405 1.362 . S
C406 C409 1.409 . S
C407 H399 0.930 . S
C407 C408 1.355 1_545 S
C407 C409 1.415 . S
C408 C407 1.355 1_565 S
C408 C410 1.419 . S
C409 C404 1.425 1_545 S
C409 C406 1.409 . S
C409 C407 1.415 . S
C410 H400 0.930 . S
C410 C408 1.419 . S
C410 C411 1.362 . S
C411 H401 0.930 . S
C411 C404 1.409 . S
C411 C410 1.362 . S
H412 C418 0.930 . S
H413 C421 0.930 . S
H414 C422 0.930 . S
H415 C423 0.930 . S
H416 C426 0.930 . S
H417 C427 0.930 . S
C418 H412 0.930 . S
C418 C419 1.355 1_655 S
C418 C420 1.415 . S
C419 C418 1.355 1_455 S
C419 C421 1.419 . S
C420 C418 1.415 . S
C420 C425 1.425 1_655 S
C420 C427 1.409 . S
C421 H413 0.930 . S
C421 C419 1.419 . S
C421 C422 1.362 . S
C422 H414 0.930 . S
C422 C421 1.362 . S
C422 C425 1.409 . S
C423 H415 0.930 . S
C423 C424 1.355 1_455 S
C423 C425 1.415 . S
C424 C423 1.355 1_655 S
C424 C426 1.419 . S
C425 C420 1.425 1_455 S
C425 C422 1.409 . S
C425 C423 1.415 . S
C426 H416 0.930 . S
C426 C424 1.419 . S
C426 C427 1.362 . S
C427 H417 0.930 . S
C427 C420 1.409 . S
C427 C426 1.362 . S
C312 C173 1.754 . S
C307 C47 1.658 1_565 S
C328 C261 1.756 . S
C323 C109 1.645 . S
C344 C181 1.740 . S
C339 C29 1.577 1_565 S
C360 C269 1.739 1_655 S
C355 C91 1.575 . S
C376 C241 1.381 . S
C371 C53 1.348 1_565 S
C392 C144 1.377 1_655 S
C387 C115 1.380 1_455 S
C408 C232 1.381 1_565 S
C403 C35 1.346 . S
C419 C97 1.376 1_455 S
C424 C153 1.375 1_655 S
