# Generated by pormake.
# Topology zzz, (3,6)-cn, num edge types: 1
# Building blocks:
#     Node 0, Type 0, BuildingBlock: BELTOD_clean_linker_0, # of connection points: 3
#     Node 1, Type 0, BuildingBlock: BELTOD_clean_linker_0, # of connection points: 3
#     Node 2, Type 0, BuildingBlock: BELTOD_clean_linker_0, # of connection points: 3
#     Node 3, Type 0, BuildingBlock: BELTOD_clean_linker_0, # of connection points: 3
#     Node 4, Type 0, BuildingBlock: BELTOD_clean_linker_0, # of connection points: 3
#     Node 5, Type 0, BuildingBlock: BELTOD_clean_linker_0, # of connection points: 3
#     Node 6, Type 0, BuildingBlock: BELTOD_clean_linker_0, # of connection points: 3
#     Node 7, Type 0, BuildingBlock: BELTOD_clean_linker_0, # of connection points: 3
#     Node 8, Type 1, BuildingBlock: KUMBUR_clean_sbu_0, # of connection points: 6
#     Node 9, Type 1, BuildingBlock: KUMBUR_clean_sbu_0, # of connection points: 6
#     Node 10, Type 1, BuildingBlock: KUMBUR_clean_sbu_0, # of connection points: 6
#     Node 11, Type 1, BuildingBlock: KUMBUR_clean_sbu_0, # of connection points: 6
#     Edge 12, Type (0, 1), BuildingBlock: MIFKUJ_clean_linker_0, # of connection points: 2
#     Edge 13, Type (0, 1), BuildingBlock: MIFKUJ_clean_linker_0, # of connection points: 2
#     Edge 14, Type (0, 1), BuildingBlock: MIFKUJ_clean_linker_0, # of connection points: 2
#     Edge 15, Type (0, 1), BuildingBlock: MIFKUJ_clean_linker_0, # of connection points: 2
#     Edge 16, Type (0, 1), BuildingBlock: MIFKUJ_clean_linker_0, # of connection points: 2
#     Edge 17, Type (0, 1), BuildingBlock: MIFKUJ_clean_linker_0, # of connection points: 2
#     Edge 18, Type (0, 1), BuildingBlock: MIFKUJ_clean_linker_0, # of connection points: 2
#     Edge 19, Type (0, 1), BuildingBlock: MIFKUJ_clean_linker_0, # of connection points: 2
#     Edge 20, Type (0, 1), BuildingBlock: MIFKUJ_clean_linker_0, # of connection points: 2
#     Edge 21, Type (0, 1), BuildingBlock: MIFKUJ_clean_linker_0, # of connection points: 2
#     Edge 22, Type (0, 1), BuildingBlock: MIFKUJ_clean_linker_0, # of connection points: 2
#     Edge 23, Type (0, 1), BuildingBlock: MIFKUJ_clean_linker_0, # of connection points: 2
#     Edge 24, Type (0, 1), BuildingBlock: MIFKUJ_clean_linker_0, # of connection points: 2
#     Edge 25, Type (0, 1), BuildingBlock: MIFKUJ_clean_linker_0, # of connection points: 2
#     Edge 26, Type (0, 1), BuildingBlock: MIFKUJ_clean_linker_0, # of connection points: 2
#     Edge 27, Type (0, 1), BuildingBlock: MIFKUJ_clean_linker_0, # of connection points: 2
#     Edge 28, Type (0, 1), BuildingBlock: MIFKUJ_clean_linker_0, # of connection points: 2
#     Edge 29, Type (0, 1), BuildingBlock: MIFKUJ_clean_linker_0, # of connection points: 2
#     Edge 30, Type (0, 1), BuildingBlock: MIFKUJ_clean_linker_0, # of connection points: 2
#     Edge 31, Type (0, 1), BuildingBlock: MIFKUJ_clean_linker_0, # of connection points: 2
#     Edge 32, Type (0, 1), BuildingBlock: MIFKUJ_clean_linker_0, # of connection points: 2
#     Edge 33, Type (0, 1), BuildingBlock: MIFKUJ_clean_linker_0, # of connection points: 2
#     Edge 34, Type (0, 1), BuildingBlock: MIFKUJ_clean_linker_0, # of connection points: 2
#     Edge 35, Type (0, 1), BuildingBlock: MIFKUJ_clean_linker_0, # of connection points: 2
# Relax obj value: 0.261
# Max RMSD: 0.213
# Mean RMSD: 0.200
data_MOF--net-zzz--node1-KUMBUR_clean_sbu_0--node2-BELTOD_clean_linker_0--edge1-MIFKUJ_clean_linker_0
_symmetry_space_group_name_H-M    P1
_symmetry_Int_Tables_number       1
_symmetry_cell_setting            triclinic
loop_
_symmetry_equiv_pos_as_xyz
'x, y, z'
_cell_length_a     67.835086
_cell_length_b     67.754693
_cell_length_c     23.407171
_cell_angle_alpha  90.361951
_cell_angle_beta   90.10034
_cell_angle_gamma 89.972746
loop_
_atom_site_label
_atom_site_type_symbol
_atom_site_fract_x
_atom_site_fract_y
_atom_site_fract_z
_atom_type_partial_charge
P0 P 0.73579 0.54168 0.16237 0.0
H1 H 0.74332 0.51785 0.26415 0.0
H2 H 0.77008 0.52108 0.33256 0.0
H3 H 0.77753 0.58208 0.28467 0.0
H4 H 0.75078 0.57856 0.21526 0.0
H5 H 0.70802 0.51297 0.11571 0.0
H6 H 0.67758 0.51643 0.06208 0.0
H7 H 0.67591 0.57848 0.10295 0.0
H8 H 0.70685 0.57504 0.15814 0.0
H9 H 0.77778 0.54148 0.15013 0.0
H10 H 0.72892 0.57102 0.06859 0.0
O11 O 0.74187 0.51802 0.1522 0.0
H12 H 0.8005 0.55805 0.08705 0.0
H13 H 0.7518 0.58809 0.00571 0.0
C14 C 0.74518 0.54779 0.23321 0.0
C15 C 0.75003 0.53222 0.27 0.0
C16 C 0.76561 0.53407 0.30919 0.0
C17 C 0.77662 0.55167 0.31305 0.0
C18 C 0.7699 0.56808 0.28171 0.0
C19 C 0.75422 0.5662 0.24266 0.0
C20 C 0.71 0.54377 0.14125 0.0
C21 C 0.70103 0.52731 0.11508 0.0
C22 C 0.68357 0.52926 0.08387 0.0
C23 C 0.67455 0.54771 0.07786 0.0
C24 C 0.68265 0.56406 0.107 0.0
C25 C 0.7002 0.56206 0.13898 0.0
C26 C 0.75163 0.55489 0.11432 0.0
C27 C 0.77194 0.55177 0.11911 0.0
C28 C 0.78497 0.56157 0.08356 0.0
C29 C 0.77799 0.57474 0.04195 0.0
C30 C 0.7576 0.57816 0.03768 0.0
C31 C 0.74449 0.5683 0.07371 0.0
P32 P 0.98123 0.74179 0.17119 0.0
H33 H 1.00283 0.74671 0.27904 0.0
H34 H 1.0016 0.77457 0.34526 0.0
H35 H 0.94448 0.7907 0.27863 0.0
H36 H 0.94544 0.7623 0.2144 0.0
H37 H 0.01002 0.71325 0.12995 0.0
H38 H 0.00738 0.68293 0.07717 0.0
H39 H 0.94461 0.68172 0.10767 0.0
H40 H 0.94742 0.71292 0.16192 0.0
H41 H 0.9901 0.78153 0.13936 0.0
H42 H 0.9459 0.73824 0.09455 0.0
O43 O 0.00525 0.74681 0.16539 0.0
H44 H 0.97328 0.8058 0.08147 0.0
H45 H 0.92891 0.76272 0.03607 0.0
C46 C 0.97452 0.75251 0.24013 0.0
C47 C 0.98957 0.7556 0.28047 0.0
C48 C 0.98904 0.77194 0.31763 0.0
C49 C 0.97335 0.78559 0.31573 0.0
C50 C 0.95698 0.78082 0.28112 0.0
C51 C 0.95747 0.76432 0.24431 0.0
C52 C 0.97889 0.71587 0.14981 0.0
C53 C 0.99562 0.70647 0.12707 0.0
C54 C 0.99411 0.68879 0.09647 0.0
C55 C 0.97576 0.67966 0.08732 0.0
C56 C 0.959 0.6884 0.11294 0.0
C57 C 0.9606 0.70622 0.14443 0.0
C58 C 0.96967 0.75785 0.12025 0.0
C59 C 0.97693 0.77711 0.11638 0.0
C60 C 0.96702 0.79112 0.0843 0.0
C61 C 0.94953 0.78623 0.05537 0.0
C62 C 0.94228 0.76687 0.0585 0.0
C63 C 0.95217 0.75279 0.09142 0.0
P64 P 0.7779 0.98532 0.20747 0.0
H65 H 0.77241 1.0037 0.31993 0.0
H66 H 0.74366 1.00115 0.38163 0.0
H67 H 0.72789 0.94612 0.29977 0.0
H68 H 0.75711 0.94841 0.23955 0.0
H69 H 0.80351 0.01199 0.14716 0.0
H70 H 0.83185 0.00668 0.08664 0.0
H71 H 0.83674 0.9469 0.14693 0.0
H72 H 0.80761 0.95225 0.20873 0.0
H73 H 0.73722 0.99262 0.17971 0.0
H74 H 0.78391 0.95507 0.11613 0.0
O75 O 0.77349 0.00958 0.20764 0.0
H76 H 0.71462 0.97808 0.11029 0.0
H77 H 0.76137 0.94085 0.046 0.0
C78 C 0.7668 0.9766 0.27349 0.0
C79 C 0.76341 0.99053 0.31705 0.0
C80 C 0.74659 0.98927 0.35165 0.0
C81 C 0.73282 0.9739 0.34401 0.0
C82 C 0.73789 0.95836 0.30651 0.0
C83 C 0.75485 0.95959 0.27214 0.0
C84 C 0.80331 0.98261 0.18354 0.0
C85 C 0.81091 0.99787 0.14965 0.0
C86 C 0.82709 0.99477 0.11407 0.0
C87 C 0.83632 0.9763 0.11113 0.0
C88 C 0.82987 0.96132 0.14831 0.0
C89 C 0.81339 0.96444 0.18419 0.0
C90 C 0.76237 0.97535 0.15236 0.0
C91 C 0.74266 0.98139 0.15058 0.0
C92 C 0.7297 0.97283 0.11169 0.0
C93 C 0.73631 0.95816 0.07367 0.0
C94 C 0.75601 0.95203 0.07539 0.0
C95 C 0.76893 0.96039 0.11512 0.0
P96 P 0.54784 0.78051 0.17395 0.0
H97 H 0.52151 0.77373 0.27022 0.0
H98 H 0.52173 0.74772 0.34135 0.0
H99 H 0.58229 0.73441 0.2996 0.0
H100 H 0.58215 0.76112 0.22928 0.0
H101 H 0.52612 0.81748 0.1871 0.0
H102 H 0.53018 0.84849 0.13602 0.0
H103 H 0.58867 0.83072 0.08521 0.0
H104 H 0.58493 0.79997 0.13903 0.0
H105 H 0.55715 0.7382 0.16459 0.0
H106 H 0.55888 0.7892 0.05515 0.0
O107 O 0.52366 0.77955 0.16088 0.0
H108 H 0.56851 0.71771 0.08657 0.0
H109 H 0.57103 0.76879 0.97724 0.0
C110 C 0.55159 0.76896 0.24286 0.0
C111 C 0.53511 0.76578 0.27764 0.0
C112 C 0.53518 0.75067 0.318 0.0
C113 C 0.55174 0.73837 0.32446 0.0
C114 C 0.56917 0.74339 0.29525 0.0
C115 C 0.56915 0.75878 0.25516 0.0
C116 C 0.55496 0.80608 0.16531 0.0
C117 C 0.54022 0.8206 0.16752 0.0
C118 C 0.54251 0.83834 0.13795 0.0
C119 C 0.55953 0.84174 0.1054 0.0
C120 C 0.57529 0.82831 0.10934 0.0
C121 C 0.5732 0.81082 0.14056 0.0
C122 C 0.55858 0.76567 0.11769 0.0
C123 C 0.56106 0.74531 0.12501 0.0
C124 C 0.56758 0.73349 0.07995 0.0
C125 C 0.57125 0.7417 0.02598 0.0
C126 C 0.56869 0.76208 0.01855 0.0
C127 C 0.56201 0.77385 0.06362 0.0
P128 P 0.28426 0.43347 0.9952 0.0
H129 H 0.26299 0.41594 0.89993 0.0
H130 H 0.23436 0.42629 0.84551 0.0
H131 H 0.2382 0.48437 0.92065 0.0
H132 H 0.26691 0.47375 0.97745 0.0
H133 H 0.32068 0.41503 0.02997 0.0
H134 H 0.34798 0.42587 0.08881 0.0
H135 H 0.32587 0.48557 0.08447 0.0
H136 H 0.2983 0.47458 0.02369 0.0
H137 H 0.26382 0.39965 0.04597 0.0
H138 H 0.27117 0.46182 0.08102 0.0
O139 O 0.28986 0.41086 0.97138 0.0
H140 H 0.24143 0.39706 0.12743 0.0
H141 H 0.24891 0.45937 0.1617 0.0
C142 C 0.26772 0.44414 0.94226 0.0
C143 C 0.25828 0.43114 0.9039 0.0
C144 C 0.24165 0.43698 0.87295 0.0
C145 C 0.23398 0.45609 0.87889 0.0
C146 C 0.2439 0.46956 0.91494 0.0
C147 C 0.26047 0.46355 0.94702 0.0
C148 C 0.30732 0.44394 0.02122 0.0
C149 C 0.32186 0.43062 0.03964 0.0
C150 C 0.33743 0.43679 0.07443 0.0
C151 C 0.33897 0.45652 0.0925 0.0
C152 C 0.32513 0.47023 0.07139 0.0
C153 C 0.30936 0.46396 0.0363 0.0
C154 C 0.26936 0.43089 0.05789 0.0
C155 C 0.26093 0.41266 0.07171 0.0
C156 C 0.24815 0.41118 0.11821 0.0
C157 C 0.24361 0.42796 0.15132 0.0
C158 C 0.25251 0.44606 0.138 0.0
C159 C 0.26517 0.44752 0.09151 0.0
P160 P 0.07204 0.28463 0.98128 0.0
H161 H 0.07918 0.27119 0.86386 0.0
H162 H 0.06942 0.24118 0.81351 0.0
H163 H 0.02664 0.22904 0.94468 0.0
H164 H 0.03689 0.25906 0.99622 0.0
H165 H 0.08063 0.32701 0.98083 0.0
H166 H 0.07138 0.35388 0.04459 0.0
H167 H 0.02857 0.31615 0.12534 0.0
H168 H 0.03797 0.28904 0.06068 0.0
H169 H 0.09062 0.24598 0.9741 0.0
H170 H 0.07636 0.28777 0.10792 0.0
O171 O 0.09141 0.29319 0.94518 0.0
H172 H 0.09541 0.22037 0.04539 0.0
H173 H 0.0807 0.26206 0.17895 0.0
C174 C 0.05857 0.26786 0.93377 0.0
C175 C 0.06719 0.26259 0.88118 0.0
C176 C 0.06181 0.24512 0.85261 0.0
C177 C 0.04743 0.23248 0.87527 0.0
C178 C 0.03774 0.23844 0.92581 0.0
C179 C 0.04339 0.25583 0.95501 0.0
C180 C 0.06001 0.3058 0.01532 0.0
C181 C 0.0688 0.32453 0.01087 0.0
C182 C 0.06352 0.34003 0.04781 0.0
C183 C 0.04938 0.33726 0.09093 0.0
C184 C 0.03972 0.31881 0.09326 0.0
C185 C 0.04484 0.30333 0.05553 0.0
C186 C 0.08182 0.26847 0.03521 0.0
C187 C 0.08876 0.24978 0.01875 0.0
C188 C 0.09157 0.23515 0.05947 0.0
C189 C 0.08783 0.23914 0.11732 0.0
C190 C 0.08346 0.25855 0.13445 0.0
C191 C 0.0806 0.2732 0.09356 0.0
P192 P 0.23739 0.081 0.97766 0.0
H193 H 0.25296 0.09223 0.86652 0.0
H194 H 0.2816 0.0809 0.81336 0.0
H195 H 0.28634 0.03035 0.92357 0.0
H196 H 0.25765 0.04209 0.97827 0.0
H197 H 0.20602 0.10131 0.03488 0.0
H198 H 0.17912 0.09095 0.09609 0.0
H199 H 0.19251 0.02998 0.05887 0.0
H200 H 0.22008 0.04057 0.99707 0.0
H201 H 0.26649 0.11198 0.99924 0.0
H202 H 0.24571 0.05924 0.08201 0.0
O203 O 0.23146 0.10274 0.94911 0.0
H204 H 0.29172 0.11602 0.0735 0.0
H205 H 0.27077 0.06304 0.15543 0.0
C206 C 0.2527 0.06789 0.9262 0.0
C207 C 0.2596 0.07833 0.87851 0.0
C208 C 0.27626 0.07199 0.84834 0.0
C209 C 0.28645 0.05487 0.86458 0.0
C210 C 0.27879 0.04359 0.90983 0.0
C211 C 0.26219 0.05016 0.94075 0.0
C212 C 0.21491 0.07178 0.01011 0.0
C213 C 0.20297 0.08567 0.03832 0.0
C214 C 0.18766 0.07975 0.07404 0.0
C215 C 0.18374 0.05967 0.08271 0.0
C216 C 0.19514 0.04559 0.05273 0.0
C217 C 0.21081 0.05161 0.01715 0.0
C218 C 0.25392 0.08563 0.03603 0.0
C219 C 0.26704 0.10157 0.0341 0.0
C220 C 0.28148 0.1038 0.07629 0.0
C221 C 0.28303 0.09001 0.12069 0.0
C222 C 0.2696 0.07423 0.12276 0.0
C223 C 0.25527 0.072 0.08059 0.0
P224 P 0.42318 0.23796 0.99389 0.0
H225 H 0.40809 0.25336 0.88622 0.0
H226 H 0.41977 0.27972 0.82472 0.0
H227 H 0.47514 0.28069 0.91564 0.0
H228 H 0.46322 0.25427 0.97814 0.0
H229 H 0.41243 0.19611 0.98713 0.0
H230 H 0.42251 0.16796 0.04467 0.0
H231 H 0.46987 0.20256 0.11707 0.0
H232 H 0.45979 0.23077 0.05882 0.0
H233 H 0.41794 0.28088 0.99989 0.0
H234 H 0.42172 0.23257 0.11903 0.0
O235 O 0.40032 0.23204 0.97357 0.0
H236 H 0.41903 0.30432 0.07911 0.0
H237 H 0.42332 0.25614 0.19832 0.0
C238 C 0.43485 0.2515 0.93655 0.0
C239 C 0.42302 0.25865 0.89193 0.0
C240 C 0.42962 0.27396 0.85706 0.0
C241 C 0.44828 0.28246 0.86571 0.0
C242 C 0.46072 0.27437 0.90773 0.0
C243 C 0.45398 0.25912 0.94319 0.0
C244 C 0.43524 0.21569 0.01877 0.0
C245 C 0.42541 0.19752 0.01378 0.0
C246 C 0.43116 0.18137 0.04696 0.0
C247 C 0.44676 0.18311 0.08627 0.0
C248 C 0.45759 0.20084 0.0878 0.0
C249 C 0.45202 0.21691 0.05383 0.0
C250 C 0.42087 0.25495 0.05312 0.0
C251 C 0.41901 0.27525 0.04293 0.0
C252 C 0.4194 0.28867 0.0883 0.0
C253 C 0.42153 0.28199 0.14461 0.0
C254 C 0.42199 0.26162 0.1551 0.0
C255 C 0.42128 0.24818 0.10968 0.0
Tb256 Tb 0.02651 0.00406 0.62896 0.0
C257 C 0.94755 0.99363 0.50432 0.0
C258 C 0.95547 0.97167 0.42593 0.0
C259 C 0.92243 0.97167 0.46561 0.0
C260 C 0.9611 0.98633 0.46598 0.0
C261 C 0.92788 0.98685 0.50354 0.0
C262 C 0.93623 0.96403 0.42697 0.0
C263 C 0.92002 0.01176 0.57401 0.0
N264 N 0.95339 0.0082 0.5403 0.0
C265 C 0.93973 0.0178 0.5737 0.0
C266 C 0.91414 0.99595 0.53956 0.0
Tb267 Tb 0.98613 0.0171 0.53775 0.0
N268 N 0.97953 0.99415 0.46634 0.0
C269 C 0.99249 0.98885 0.42402 0.0
C270 C 0.96916 0.96545 0.38517 0.0
C271 C 0.98764 0.97433 0.38368 0.0
H272 H 0.94418 0.02988 0.6012 0.0
H273 H 0.99828 0.96987 0.35171 0.0
H274 H 0.93175 0.95262 0.39704 0.0
H275 H 0.90945 0.01917 0.60129 0.0
H276 H 0.00703 0.99486 0.42166 0.0
H277 H 0.01374 0.04802 0.81975 0.0
H278 H 0.96546 0.95416 0.35396 0.0
H279 H 0.06756 0.9939 0.55855 0.0
H280 H 0.0046 0.02548 0.74308 0.0
H281 H 0.10245 0.00423 0.56028 0.0
H282 H 0.90746 0.96608 0.46484 0.0
H283 H 0.04736 0.062 0.82456 0.0
H284 H 0.08152 0.06353 0.78393 0.0
H285 H 0.89888 0.99123 0.54004 0.0
H286 H 0.10566 0.05173 0.71311 0.0
N287 N 0.03285 0.026 0.70225 0.0
C288 C 0.01947 0.03098 0.74373 0.0
C289 C 0.04349 0.0519 0.7903 0.0
C290 C 0.05735 0.04629 0.74919 0.0
C291 C 0.02453 0.04406 0.78776 0.0
C292 C 0.05155 0.03304 0.70554 0.0
H293 H 0.11365 0.02949 0.6299 0.0
N294 N 0.05892 0.01353 0.62544 0.0
C295 C 0.09207 0.01075 0.58997 0.0
C296 C 0.06503 0.02663 0.6656 0.0
C297 C 0.0723 0.00492 0.58919 0.0
C298 C 0.09832 0.02503 0.62922 0.0
C299 C 0.08482 0.03296 0.66825 0.0
O300 O 0.04367 0.97822 0.63571 0.0
O301 O 0.00359 0.99343 0.57166 0.0
O302 O 0.9732 1.00085 0.61025 0.0
O303 O 0.99879 1.00082 0.67692 0.0
O304 O 0.031 0.98175 0.56165 0.0
O305 O 0.02439 0.98806 0.70568 0.0
O306 O 0.96619 0.03876 0.51 0.0
O307 O 0.00812 0.0277 0.5979 0.0
O308 O 0.03835 0.02287 0.56142 0.0
O309 O 0.01472 0.0171 0.49115 0.0
O310 O 0.98056 0.0388 0.60585 0.0
O311 O 0.99511 0.0374 0.47462 0.0
C312 C 0.01311 0.98055 0.54411 0.0
C313 C 0.04296 0.95787 0.72025 0.0
C314 C 0.03368 0.92796 0.76968 0.0
C315 C 0.02859 0.9463 0.74671 0.0
C316 C 0.05337 0.92162 0.7685 0.0
C317 C 0.06265 0.9515 0.71928 0.0
C318 C 0.06785 0.93354 0.74411 0.0
C319 C 0.98006 0.99803 0.66278 0.0
C320 C 0.03685 0.9749 0.6866 0.0
C321 C 0.09057 0.04657 0.71059 0.0
C322 C 0.07684 0.05326 0.75095 0.0
C323 C 0.99815 0.04026 0.62556 0.0
C324 C 0.98211 0.06914 0.49421 0.0
C325 C 0.99591 0.08029 0.46362 0.0
C326 C 0.99965 0.10004 0.47883 0.0
C327 C 0.98948 0.10859 0.52497 0.0
C328 C 0.97168 0.07816 0.53936 0.0
C329 C 0.97548 0.09771 0.55474 0.0
C330 C 0.03286 0.02235 0.50712 0.0
C331 C 0.97929 0.048 0.48037 0.0
H332 H 0.01326 0.95085 0.7457 0.0
H333 H 0.05745 0.90737 0.78566 0.0
H334 H 0.07387 0.96021 0.69826 0.0
H335 H 0.08301 0.92858 0.74291 0.0
H336 H 0.00396 0.07352 0.4286 0.0
H337 H 0.99205 0.12382 0.5372 0.0
H338 H 0.96076 0.0701 0.56351 0.0
H339 H 0.96755 0.10444 0.58992 0.0
Tb340 Tb 0.5099 0.02582 0.62413 0.0
C341 C 0.53025 0.95535 0.47727 0.0
C342 C 0.5478 0.97131 0.40059 0.0
C343 C 0.55642 0.93783 0.42709 0.0
C344 C 0.53317 0.97164 0.44354 0.0
C345 C 0.54143 0.93801 0.46831 0.0
C346 C 0.55962 0.95447 0.39331 0.0
C347 C 0.52077 0.92164 0.53691 0.0
N348 N 0.51581 0.95615 0.51706 0.0
C349 C 0.51013 0.93916 0.54404 0.0
C350 C 0.53678 0.92117 0.49972 0.0
Tb351 Tb 0.49917 0.98563 0.52723 0.0
N352 N 0.52165 0.98776 0.45263 0.0
C353 C 0.52367 1.00381 0.41746 0.0
C354 C 0.55009 0.98784 0.36602 0.0
C355 C 0.53783 0.00407 0.37417 0.0
H356 H 0.49768 0.93928 0.57286 0.0
H357 H 0.53947 0.01699 0.34762 0.0
H358 H 0.57105 0.95406 0.36104 0.0
H359 H 0.51657 0.90853 0.56008 0.0
H360 H 0.51518 0.01702 0.42294 0.0
H361 H 0.46202 0.01485 0.80665 0.0
H362 H 0.56119 0.98819 0.3328 0.0
H363 H 0.52289 0.06646 0.55572 0.0
H364 H 0.48482 0.00456 0.73229 0.0
H365 H 0.51475 0.1019 0.55843 0.0
H366 H 0.56533 0.92475 0.42014 0.0
H367 H 0.45035 0.04936 0.81193 0.0
H368 H 0.45183 0.08386 0.7738 0.0
H369 H 0.54499 0.90758 0.4941 0.0
H370 H 0.46609 0.10754 0.70612 0.0
N371 N 0.48714 0.03314 0.69408 0.0
C372 C 0.48047 0.01982 0.73345 0.0
C373 C 0.46071 0.04502 0.77898 0.0
C374 C 0.4679 0.05874 0.73987 0.0
C375 C 0.4672 0.02554 0.77604 0.0
C376 C 0.48139 0.0523 0.69783 0.0
H377 H 0.48964 0.11444 0.62589 0.0
N378 N 0.50228 0.05876 0.62058 0.0
C379 C 0.50733 0.09182 0.5868 0.0
C380 C 0.48919 0.06555 0.65964 0.0
C381 C 0.51193 0.07171 0.58558 0.0
C382 C 0.49315 0.09884 0.62497 0.0
C383 C 0.48404 0.08571 0.6625 0.0
O384 O 0.53648 0.04127 0.63838 0.0
O385 O 0.52158 1.00343 0.56676 0.0
O386 O 0.51347 0.9726 0.60288 0.0
O387 O 0.51029 0.99782 0.67058 0.0
O388 O 0.5329 0.0311 0.56016 0.0
O389 O 0.52396 0.0218 0.70366 0.0
O390 O 0.4784 0.96323 0.51439 0.0
O391 O 0.48753 0.00713 0.58676 0.0
O392 O 0.49122 0.03901 0.55842 0.0
O393 O 0.49085 0.01428 0.48815 0.0
O394 O 0.47547 0.97972 0.58862 0.0
O395 O 0.48195 0.98631 0.45235 0.0
C396 C 0.53466 0.01332 0.54187 0.0
C397 C 0.55474 0.03814 0.72656 0.0
C398 C 0.58537 0.02783 0.77103 0.0
C399 C 0.5677 0.02309 0.74299 0.0
C400 C 0.58947 0.04764 0.78489 0.0
C401 C 0.55901 0.05784 0.74024 0.0
C402 C 0.57622 0.06252 0.77006 0.0
C403 C 0.51397 0.97925 0.65639 0.0
C404 C 0.53823 0.03356 0.68883 0.0
C405 C 0.47032 0.09215 0.70343 0.0
C406 C 0.46224 0.07867 0.742 0.0
C407 C 0.47393 0.99722 0.60971 0.0
C408 C 0.44962 0.97371 0.46854 0.0
C409 C 0.44065 0.99105 0.44872 0.0
C410 C 0.42 0.99285 0.44794 0.0
C411 C 0.40845 0.97723 0.4689 0.0
C412 C 0.43778 0.95828 0.48891 0.0
C413 C 0.41733 0.96014 0.48954 0.0
C414 C 0.48763 0.03277 0.50563 0.0
C415 C 0.47123 0.97139 0.46886 0.0
H416 H 0.56469 0.00792 0.73067 0.0
H417 H 0.60303 0.05158 0.80662 0.0
H418 H 0.5492 0.06959 0.72698 0.0
H419 H 0.57954 0.07775 0.78045 0.0
H420 H 0.4497 1.00313 0.43379 0.0
H421 H 0.3925 0.97792 0.46792 0.0
H422 H 0.44437 0.94476 0.50445 0.0
H423 H 0.40832 0.94817 0.50523 0.0
Tb424 Tb 0.52908 0.49949 0.55146 0.0
C425 C 0.44172 0.49794 0.60931 0.0
C426 C 0.42572 0.50865 0.52237 0.0
C427 C 0.40879 0.48616 0.586 0.0
C428 C 0.44228 0.50856 0.55906 0.0
C429 C 0.42463 0.48733 0.62451 0.0
C430 C 0.40935 0.49677 0.53491 0.0
C431 C 0.43887 0.48236 0.71799 0.0
N432 N 0.45716 0.49962 0.64585 0.0
C433 C 0.45555 0.49287 0.70086 0.0
C434 C 0.42355 0.47913 0.67915 0.0
Tb435 Tb 0.48383 0.51696 0.61317 0.0
N436 N 0.45828 0.52011 0.5487 0.0
C437 C 0.45741 0.53381 0.50589 0.0
C438 C 0.42567 0.52138 0.47568 0.0
C439 C 0.44137 0.53434 0.46829 0.0
H440 H 0.46739 0.49516 0.73108 0.0
H441 H 0.44116 0.54479 0.4335 0.0
H442 H 0.39668 0.49639 0.50664 0.0
H443 H 0.43791 0.47663 0.76095 0.0
H444 H 0.46901 0.54425 0.49883 0.0
H445 H 0.55863 0.46083 0.73551 0.0
H446 H 0.41327 0.52187 0.44649 0.0
H447 H 0.54949 0.53211 0.46348 0.0
H448 H 0.53326 0.46958 0.66659 0.0
H449 H 0.58131 0.54943 0.45405 0.0
H450 H 0.39568 0.47779 0.59645 0.0
H451 H 0.59131 0.47683 0.73233 0.0
H452 H 0.614 0.50098 0.68575 0.0
H453 H 0.41064 0.47098 0.69251 0.0
H454 H 0.61996 0.52545 0.61061 0.0
N455 N 0.55103 0.49054 0.62183 0.0
C456 C 0.54738 0.47661 0.66275 0.0
C457 C 0.58023 0.48065 0.70089 0.0
C458 C 0.5841 0.49457 0.65859 0.0
C459 C 0.56181 0.4716 0.70283 0.0
C460 C 0.5691 0.49916 0.61891 0.0
H461 H 0.60787 0.54368 0.52452 0.0
N462 N 0.55752 0.51746 0.54051 0.0
C463 C 0.57895 0.53942 0.48922 0.0
C464 C 0.57237 0.51319 0.57728 0.0
C465 C 0.56095 0.52962 0.49485 0.0
C466 C 0.5939 0.53611 0.52901 0.0
C467 C 0.59084 0.52266 0.57322 0.0
O468 O 0.54085 0.49443 0.47019 0.0
O469 O 0.49725 0.5013 0.54248 0.0
O470 O 0.48372 0.48479 0.62499 0.0
O471 O 0.5136 0.47368 0.58645 0.0
O472 O 0.51363 0.50654 0.47126 0.0
O473 O 0.53997 0.47108 0.53317 0.0
O474 O 0.46339 0.53201 0.66553 0.0
O475 O 0.51518 0.51356 0.62372 0.0
O476 O 0.52971 0.53168 0.55964 0.0
O477 O 0.49635 0.53863 0.55274 0.0
O478 O 0.49845 0.50973 0.69454 0.0
O479 O 0.49011 0.54596 0.63991 0.0
C480 C 0.49592 0.50475 0.48986 0.0
C481 C 0.53972 0.46216 0.43443 0.0
C482 C 0.52119 0.43486 0.39368 0.0
C483 C 0.52447 0.44821 0.43875 0.0
C484 C 0.53275 0.43584 0.34408 0.0
C485 C 0.55108 0.46303 0.38445 0.0
C486 C 0.54752 0.44999 0.33938 0.0
C487 C 0.49658 0.47062 0.61287 0.0
C488 C 0.54452 0.47596 0.48081 0.0
C489 C 0.60574 0.51822 0.61281 0.0
C490 C 0.60237 0.50423 0.65543 0.0
C491 C 0.51634 0.51031 0.67659 0.0
C492 C 0.47952 0.55256 0.7332 0.0
C493 C 0.49234 0.5684 0.74286 0.0
C494 C 0.49749 0.57416 0.79853 0.0
C495 C 0.48985 0.56363 0.84502 0.0
C496 C 0.47185 0.54224 0.78007 0.0
C497 C 0.47709 0.54774 0.83567 0.0
C498 C 0.51513 0.54384 0.54707 0.0
C499 C 0.47509 0.54684 0.6738 0.0
H500 H 0.51553 0.44747 0.47703 0.0
H501 H 0.53024 0.42569 0.30883 0.0
H502 H 0.56279 0.4738 0.38042 0.0
H503 H 0.55633 0.45075 0.30094 0.0
H504 H 0.49851 0.57612 0.70659 0.0
H505 H 0.49338 0.56788 0.88852 0.0
H506 H 0.46193 0.52989 0.77392 0.0
H507 H 0.47116 0.53975 0.87165 0.0
Tb508 Tb 0.02015 0.53222 0.53626 0.0
C509 C 0.01218 0.45202 0.65856 0.0
C510 C 1.00187 0.42944 0.58406 0.0
C511 C 0.01951 0.417 0.6667 0.0
C512 C 0.00349 0.44877 0.60612 0.0
C513 C 0.01988 0.43612 0.69019 0.0
C514 C 0.01048 0.41365 0.61368 0.0
C515 C 0.02553 0.45875 0.76845 0.0
N516 N 0.01187 0.47064 0.68018 0.0
C517 C 0.01763 0.47401 0.73556 0.0
C518 C 0.02698 0.43978 0.74535 0.0
Tb519 Tb 0.99884 0.49455 0.62191 0.0
N520 N 0.99504 0.4643 0.57923 0.0
C521 C 0.98292 0.46111 0.53331 0.0
C522 C 0.99072 0.42641 0.53462 0.0
C523 C 0.98086 0.44226 0.50983 0.0
H524 H 0.01634 0.48839 0.75503 0.0
H525 H 0.97153 0.44008 0.47296 0.0
H526 H 0.00957 0.39873 0.59698 0.0
H527 H 0.0304 0.46163 0.81177 0.0
H528 H 0.97497 0.47309 0.51378 0.0
H529 H 0.06949 0.55802 0.70566 0.0
H530 H 0.98895 0.41177 0.51709 0.0
H531 H 0.99134 0.55758 0.44794 0.0
H532 H 0.05345 0.53341 0.64748 0.0
H533 H 0.98067 0.5919 0.43409 0.0
H534 H 0.02552 0.40462 0.69008 0.0
H535 H 0.06143 0.59323 0.69477 0.0
H536 H 0.04312 0.61913 0.64246 0.0
H537 H 0.03297 0.42797 0.7711 0.0
H538 H 0.01784 0.62842 0.57204 0.0
N539 N 0.0355 0.55373 0.60004 0.0
C540 C 0.04954 0.54843 0.63956 0.0
C541 C 0.05408 0.58233 0.66817 0.0
C542 C 0.03996 0.58785 0.62799 0.0
C543 C 0.05877 0.56252 0.67417 0.0
C544 C 0.03059 0.57308 0.59484 0.0
H545 H 0.99386 0.61834 0.49642 0.0
N546 N 0.00824 0.56376 0.52289 0.0
C547 C 0.9905 0.58828 0.46898 0.0
C548 C 0.01642 0.57823 0.55531 0.0
C549 C 0.99628 0.56876 0.47784 0.0
C550 C 0.998 0.60313 0.50409 0.0
C551 C 0.01153 0.59829 0.54681 0.0
O552 O 0.0241 0.54128 0.45217 0.0
O553 O 0.01404 0.50096 0.54238 0.0
O554 O 0.0303 0.48817 0.62895 0.0
O555 O 0.04396 0.51355 0.57377 0.0
O556 O 0.00913 0.51395 0.46538 0.0
O557 O 0.04925 0.53522 0.50559 0.0
O558 O 0.98113 0.50399 0.69031 0.0
O559 O 0.00435 0.52605 0.61306 0.0
O560 O 0.9877 0.53644 0.53575 0.0
O561 O 0.97735 0.50485 0.55816 0.0
O562 O 0.01005 0.51364 0.6903 0.0
O563 O 0.97035 0.48247 0.63011 0.0
C564 C 0.00927 0.49724 0.49101 0.0
C565 C 0.05181 0.52951 0.40484 0.0
C566 C 0.07313 0.50462 0.36224 0.0
C567 C 0.06544 0.51407 0.41092 0.0
C568 C 0.06699 0.51068 0.30762 0.0
C569 C 0.04602 0.53546 0.3499 0.0
C570 C 0.05349 0.526 0.30164 0.0
C571 C 0.04562 0.49797 0.60834 0.0
C572 C 0.04312 0.5397 0.45432 0.0
C573 C 0.02104 0.61296 0.57905 0.0
C574 C 0.03531 0.60773 0.61927 0.0
C575 C 0.00985 0.53009 0.66342 0.0
C576 C 0.95558 0.48376 0.72156 0.0
C577 C 0.93867 0.4936 0.73956 0.0
C578 C 0.92835 0.48732 0.78762 0.0
C579 C 0.93498 0.47072 0.81768 0.0
C580 C 0.96215 0.46701 0.75081 0.0
C581 C 0.95174 0.46046 0.79876 0.0
C582 C 0.97369 0.5228 0.53904 0.0
C583 C 0.96648 0.4929 0.67532 0.0
H584 H 0.07006 0.50939 0.45308 0.0
H585 H 0.07306 0.50394 0.2694 0.0
H586 H 0.03561 0.54744 0.34434 0.0
H587 H 0.04898 0.5307 0.25948 0.0
H588 H 0.93395 0.5068 0.71726 0.0
H589 H 0.92723 0.46573 0.85533 0.0
H590 H 0.97533 0.45929 0.73729 0.0
H591 H 0.95682 0.44761 0.82177 0.0
H592 H 0.18075 0.07222 0.19309 0.0
H593 H 0.15488 0.06488 0.2626 0.0
H594 H 0.12587 0.02749 0.13885 0.0
H595 H 0.15207 0.03458 0.06902 0.0
H596 H 0.10046 0.05648 0.20031 0.0
H597 H 0.14756 0.00502 0.23692 0.0
H598 H 0.18085 0.99204 0.25618 0.0
H599 H 0.18388 0.02636 0.4108 0.0
H600 H 0.15069 0.03979 0.39196 0.0
H601 H 0.03062 0.01539 0.3912 0.0
H602 H 0.05601 0.02012 0.31939 0.0
H603 H 0.09452 0.04513 0.44747 0.0
H604 H 0.06923 0.03988 0.52017 0.0
H605 H 0.11525 0.02177 0.38136 0.0
H606 H 0.06715 0.07079 0.35197 0.0
H607 H 0.03481 0.08522 0.33387 0.0
H608 H 0.03384 0.0596 0.16589 0.0
H609 H 0.06598 0.04385 0.18404 0.0
C610 C 0.16892 0.06234 0.18072 0.0
C611 C 0.16849 0.05394 0.12554 0.0
C612 C 0.15414 0.05816 0.22053 0.0
C613 C 0.13839 0.04565 0.20606 0.0
C614 C 0.13786 0.03721 0.15097 0.0
C615 C 0.1529 0.04114 0.11128 0.0
C616 C 0.12265 0.04143 0.2489 0.0
C617 C 0.10349 0.04852 0.2394 0.0
C618 C 0.12688 0.03176 0.30091 0.0
C619 C 0.14672 0.02354 0.31276 0.0
C620 C 0.15538 0.00992 0.2748 0.0
C621 C 0.17423 1.00246 0.28567 0.0
C622 C 0.1845 0.00841 0.33461 0.0
C623 C 0.17591 0.02179 0.37287 0.0
C624 C 0.15708 0.02931 0.36215 0.0
C625 C 0.04447 0.02174 0.40457 0.0
C626 C 0.04788 0.02678 0.4622 0.0
C627 C 0.05905 0.02456 0.36306 0.0
C628 C 0.07732 0.03303 0.37756 0.0
C629 C 0.08069 0.03837 0.43495 0.0
C630 C 0.06615 0.03537 0.47663 0.0
C631 C 0.09272 0.03662 0.33286 0.0
C632 C 0.11195 0.02954 0.34211 0.0
C633 C 0.08852 0.04652 0.28082 0.0
C634 C 0.06905 0.0559 0.26968 0.0
C635 C 0.06006 0.06795 0.31131 0.0
C636 C 0.04169 0.07645 0.30098 0.0
C637 C 0.03225 0.07353 0.24861 0.0
C638 C 0.04116 0.06189 0.2065 0.0
C639 C 0.05945 0.05305 0.21693 0.0
H640 H 0.01804 0.08026 0.24073 0.0
H641 H 0.19909 1.00263 0.34295 0.0
H642 H 0.4493 0.14305 0.06797 0.0
H643 H 0.45406 0.11714 0.13913 0.0
H644 H 0.45599 0.16134 0.27264 0.0
H645 H 0.45202 0.18722 0.20138 0.0
H646 H 0.48257 0.13683 0.29414 0.0
H647 H 0.41363 0.12731 0.2471 0.0
H648 H 0.38489 0.12132 0.18444 0.0
H649 H 0.41151 0.06782 0.12243 0.0
H650 H 0.44019 0.07334 0.18529 0.0
H651 H 0.47472 0.07061 0.526 0.0
H652 H 0.46594 0.09562 0.45587 0.0
H653 H 0.47313 0.0529 0.32018 0.0
H654 H 0.48202 0.02776 0.39006 0.0
H655 H 0.44144 0.0764 0.3014 0.0
H656 H 0.50978 0.08596 0.35337 0.0
H657 H 0.53742 0.09174 0.41998 0.0
H658 H 0.51091 0.14613 0.47537 0.0
H659 H 0.48295 0.14052 0.40971 0.0
C660 C 0.45078 0.14721 0.11253 0.0
C661 C 0.45044 0.16722 0.1289 0.0
C662 C 0.4533 0.13235 0.1534 0.0
C663 C 0.45503 0.1371 0.21185 0.0
C664 C 0.45473 0.15713 0.22805 0.0
C665 C 0.45255 0.17198 0.18716 0.0
C666 C 0.45799 0.12143 0.25599 0.0
C667 C 0.4733 0.12381 0.29606 0.0
C668 C 0.44631 0.10407 0.25839 0.0
C669 C 0.42913 0.10086 0.22035 0.0
C670 C 0.41335 0.11432 0.2199 0.0
C671 C 0.39703 0.11095 0.1846 0.0
C672 C 0.39637 0.0942 0.14946 0.0
C673 C 0.41197 0.08074 0.14983 0.0
C674 C 0.42822 0.08394 0.18543 0.0
C675 C 0.47457 0.06649 0.48129 0.0
C676 C 0.47978 0.04727 0.46375 0.0
C677 C 0.46945 0.08084 0.44115 0.0
C678 C 0.46936 0.07632 0.38251 0.0
C679 C 0.47332 0.05684 0.36511 0.0
C680 C 0.47848 0.04247 0.40524 0.0
C681 C 0.46585 0.092 0.33923 0.0
C682 C 0.45054 0.08955 0.29941 0.0
C683 C 0.47739 0.1094 0.3374 0.0
C684 C 0.4942 0.11274 0.37693 0.0
C685 C 0.50977 0.09908 0.38004 0.0
C686 C 0.52552 0.10234 0.41754 0.0
C687 C 0.52595 0.11932 0.45174 0.0
C688 C 0.51059 0.13302 0.44872 0.0
C689 C 0.49479 0.1298 0.41138 0.0
H690 H 0.53815 0.12182 0.48073 0.0
H691 H 0.38381 0.09167 0.12183 0.0
H692 H 0.34937 0.43661 0.18927 0.0
H693 H 0.37543 0.44451 0.25785 0.0
H694 H 0.38952 0.49701 0.16327 0.0
H695 H 0.36343 0.48905 0.09375 0.0
H696 H 0.42293 0.47431 0.19298 0.0
H697 H 0.36441 0.49988 0.28705 0.0
H698 H 0.33084 0.49703 0.32636 0.0
H699 H 0.35055 0.45206 0.44161 0.0
H700 H 0.38418 0.45441 0.40235 0.0
H701 H 0.48707 0.52082 0.38755 0.0
H702 H 0.46002 0.51225 0.32278 0.0
H703 H 0.44113 0.46681 0.43893 0.0
H704 H 0.46791 0.47597 0.50486 0.0
H705 H 0.40993 0.48449 0.39964 0.0
H706 H 0.46523 0.45532 0.31145 0.0
H707 H 0.49935 0.45352 0.2757 0.0
H708 H 0.48649 0.49853 0.15273 0.0
H709 H 0.45234 0.5008 0.18848 0.0
C710 C 0.35803 0.44984 0.18282 0.0
C711 C 0.35435 0.46214 0.13562 0.0
C712 C 0.37286 0.45441 0.22243 0.0
C713 C 0.38442 0.47142 0.21609 0.0
C714 C 0.38078 0.48381 0.16918 0.0
C715 C 0.36578 0.47932 0.12965 0.0
C716 C 0.40053 0.47602 0.25781 0.0
C717 C 0.42003 0.47688 0.23798 0.0
C718 C 0.39695 0.47835 0.31717 0.0
C719 C 0.37678 0.47719 0.34133 0.0
C720 C 0.36156 0.48928 0.32047 0.0
C721 C 0.34252 0.48777 0.3428 0.0
C722 C 0.33855 0.47434 0.38635 0.0
C723 C 0.35364 0.46244 0.40782 0.0
C724 C 0.37269 0.46387 0.38557 0.0
C725 C 0.4771 0.50903 0.3992 0.0
C726 C 0.47932 0.49934 0.45161 0.0
C727 C 0.46169 0.50403 0.36202 0.0
C728 C 0.44853 0.48869 0.37534 0.0
C729 C 0.45096 0.47874 0.42752 0.0
C730 C 0.46626 0.48397 0.46521 0.0
C731 C 0.43234 0.48319 0.33464 0.0
C732 C 0.41285 0.48204 0.35461 0.0
C733 C 0.43596 0.4799 0.27569 0.0
C734 C 0.45631 0.47836 0.25303 0.0
C735 C 0.46974 0.46492 0.27706 0.0
C736 C 0.48907 0.46381 0.25678 0.0
C737 C 0.49511 0.47595 0.21208 0.0
C738 C 0.48179 0.48916 0.18741 0.0
C739 C 0.46244 0.49035 0.20762 0.0
H740 H 0.5101 0.47509 0.19647 0.0
H741 H 0.3238 0.47318 0.40353 0.0
H742 H 0.04628 0.37751 0.07525 0.0
H743 H 0.04122 0.4033 0.14732 0.0
H744 H 0.04 0.3591 0.27905 0.0
H745 H 0.04456 0.33326 0.20696 0.0
H746 H 0.01242 0.38279 0.29919 0.0
H747 H 0.08047 0.39424 0.25391 0.0
H748 H 0.1086 0.40067 0.19005 0.0
H749 H 0.08205 0.45516 0.1374 0.0
H750 H 0.05371 0.449 0.20055 0.0
H751 H 0.03268 0.4647 0.51746 0.0
H752 H 0.03925 0.43558 0.45642 0.0
H753 H 1.00173 0.45963 0.32561 0.0
H754 H 0.99462 0.4882 0.3867 0.0
H755 H 0.05025 0.44516 0.31173 0.0
H756 H 0.97999 0.42936 0.34169 0.0
H757 H 0.94957 0.41873 0.39006 0.0
H758 H 0.98075 0.37043 0.46651 0.0
H759 H 0.01143 0.38101 0.41926 0.0
C760 C 0.04502 0.37325 0.11961 0.0
C761 C 0.04573 0.35316 0.13492 0.0
C762 C 0.04228 0.38812 0.1611 0.0
C763 C 0.04054 0.38341 0.21941 0.0
C764 C 0.04128 0.36333 0.23467 0.0
C765 C 0.04377 0.34846 0.19316 0.0
C766 C 0.0367 0.3991 0.2641 0.0
C767 C 0.02106 0.39623 0.3024 0.0
C768 C 0.04753 0.41702 0.2682 0.0
C769 C 0.06482 0.421 0.23135 0.0
C770 C 0.08058 0.40754 0.22849 0.0
C771 C 0.09658 0.41116 0.19249 0.0
C772 C 0.09703 0.42823 0.15936 0.0
C773 C 0.08165 0.4419 0.16289 0.0
C774 C 0.06563 0.43837 0.19885 0.0
C775 C 0.02546 0.46352 0.47629 0.0
C776 C 0.01272 0.47861 0.45759 0.0
C777 C 0.02924 0.44687 0.44134 0.0
C778 C 0.02061 0.44511 0.3867 0.0
C779 C 0.00817 0.4603 0.36795 0.0
C780 C 0.0042 0.47672 0.40292 0.0
C781 C 0.0261 0.42868 0.34646 0.0
C782 C 0.04202 0.43149 0.309 0.0
C783 C 0.01557 0.41067 0.34298 0.0
C784 C 0.99813 0.40638 0.37849 0.0
C785 C 0.9805 0.41686 0.37024 0.0
C786 C 0.96314 0.41066 0.39678 0.0
C787 C 0.96324 0.39398 0.43161 0.0
C788 C 0.98069 0.3834 0.43979 0.0
C789 C 0.99809 0.38958 0.41347 0.0
H790 H 0.94978 0.38922 0.45211 0.0
H791 H 0.10928 0.43083 0.13085 0.0
H792 H 0.8321 0.98188 0.99698 0.0
H793 H 0.85744 0.98064 0.92286 0.0
H794 H 0.90032 0.9624 0.04807 0.0
H795 H 0.87474 0.96351 0.12277 0.0
H796 H 0.91257 0.99458 0.98266 0.0
H797 H 0.88399 0.9309 0.9483 0.0
H798 H 0.85702 0.9074 0.92833 0.0
H799 H 0.84489 0.93639 0.76975 0.0
H800 H 0.87131 0.96045 0.78937 0.0
H801 H 0.98843 0.99052 0.77572 0.0
H802 H 0.9657 0.98199 0.85207 0.0
H803 H 0.91718 0.9837 0.73275 0.0
H804 H 0.94021 0.99009 0.65541 0.0
H805 H 0.90905 0.95721 0.80019 0.0
H806 H 0.93191 0.02326 0.8365 0.0
H807 H 0.9561 0.0497 0.85496 0.0
H808 H 0.97575 0.01993 0.00619 0.0
H809 H 0.95201 0.99306 0.98783 0.0
C810 C 0.84687 0.9773 0.0086 0.0
C811 C 0.85143 0.97282 0.06578 0.0
C812 C 0.86135 0.97654 0.96608 0.0
C813 C 0.88085 0.97137 0.97957 0.0
C814 C 0.88538 0.96639 0.03647 0.0
C815 C 0.87076 0.96691 0.07909 0.0
C816 C 0.8966 0.97259 0.93496 0.0
C817 C 0.91202 0.98612 0.94317 0.0
C818 C 0.89551 0.96214 0.88238 0.0
C819 C 0.87961 0.94758 0.87055 0.0
C820 C 0.87549 0.93238 0.90939 0.0
C821 C 0.86031 0.91894 0.8981 0.0
C822 C 0.84932 0.92037 0.8478 0.0
C823 C 0.85343 0.93529 0.80869 0.0
C824 C 0.86849 0.94885 0.81992 0.0
C825 C 0.97294 0.989 0.76541 0.0
C826 C 0.96615 0.99183 0.70907 0.0
C827 C 0.95982 0.9843 0.80961 0.0
C828 C 0.9394 0.98292 0.79938 0.0
C829 C 0.93273 0.98495 0.74271 0.0
C830 C 0.94594 0.98903 0.69822 0.0
C831 C 0.92498 0.97953 0.84726 0.0
C832 C 0.90977 0.9656 0.83973 0.0
C833 C 0.9259 0.99003 0.89996 0.0
C834 C 0.94034 0.00606 0.91046 0.0
C835 C 0.94152 0.02227 0.87339 0.0
C836 C 0.95514 0.03734 0.88387 0.0
C837 C 0.96744 0.03649 0.93179 0.0
C838 C 0.96622 0.02054 0.9691 0.0
C839 C 0.95272 0.00538 0.95862 0.0
H840 H 0.97786 0.04818 0.94036 0.0
H841 H 0.83761 0.90992 0.83915 0.0
H842 H 0.55286 0.88134 0.11995 0.0
H843 H 0.5476 0.90596 0.04519 0.0
H844 H 0.55842 0.86147 0.91617 0.0
H845 H 0.5649 0.83725 0.99102 0.0
H846 H 0.57093 0.89352 0.87564 0.0
H847 H 0.51008 0.87595 0.96397 0.0
H848 H 0.4867 0.87085 0.04309 0.0
H849 H 0.4894 0.93256 0.08541 0.0
H850 H 0.51301 0.93797 0.00697 0.0
H851 H 0.51977 0.93897 0.65172 0.0
H852 H 0.52668 0.91664 0.72969 0.0
H853 H 0.52694 0.96562 0.84804 0.0
H854 H 0.51871 0.98804 0.77035 0.0
H855 H 0.50892 0.93203 0.89299 0.0
H856 H 0.57122 0.94776 0.79806 0.0
H857 H 0.58711 0.95195 0.7042 0.0
H858 H 0.57611 0.89102 0.6637 0.0
H859 H 0.55995 0.88655 0.75719 0.0
C860 C 0.55455 0.877 0.07561 0.0
C861 C 0.55933 0.85743 0.06127 0.0
C862 C 0.55133 0.89101 0.03276 0.0
C863 C 0.55199 0.88554 0.9746 0.0
C864 C 0.55772 0.86617 0.96043 0.0
C865 C 0.56146 0.85231 1.0033 0.0
C866 C 0.54562 0.89958 0.92889 0.0
C867 C 0.55738 0.90187 0.87981 0.0
C868 C 0.52777 0.91049 0.93309 0.0
C869 C 0.51347 0.90732 0.98002 0.0
C870 C 0.50578 0.8884 0.99039 0.0
C871 C 0.49248 0.88546 0.03508 0.0
C872 C 0.48661 0.90136 0.06935 0.0
C873 C 0.49398 0.92025 0.05889 0.0
C874 C 0.50732 0.92327 0.01431 0.0
C875 C 0.52093 0.94509 0.694 0.0
C876 C 0.51857 0.96542 0.70393 0.0
C877 C 0.52506 0.93224 0.73889 0.0
C878 C 0.52766 0.93946 0.79475 0.0
C879 C 0.525 0.95968 0.80533 0.0
C880 C 0.52045 0.97251 0.76051 0.0
C881 C 0.53438 0.9261 0.84118 0.0
C882 C 0.52265 0.92389 0.88991 0.0
C883 C 0.55197 0.915 0.83616 0.0
C884 C 0.56448 0.91679 0.78462 0.0
C885 C 0.57243 0.9352 0.7694 0.0
C886 C 0.58127 0.93769 0.71602 0.0
C887 C 0.58247 0.9218 0.67781 0.0
C888 C 0.57509 0.90332 0.69325 0.0
C889 C 0.56619 0.90077 0.74657 0.0
H890 H 0.58927 0.92376 0.63644 0.0
H891 H 0.47632 0.89905 0.10394 0.0
H892 H 0.63515 0.54515 0.101 0.0
H893 H 0.60805 0.54228 0.03152 0.0
H894 H 0.64932 0.5501 0.89356 0.0
H895 H 0.67631 0.5532 0.96317 0.0
H896 H 0.61399 0.56857 0.87062 0.0
H897 H 0.63551 0.50417 0.93353 0.0
H898 H 0.64303 0.47943 0.00733 0.0
H899 H 0.58317 0.48197 0.06634 0.0
H900 H 0.57538 0.50693 0.99334 0.0
H901 H 0.54886 0.53341 0.65355 0.0
H902 H 0.57696 0.53992 0.71519 0.0
H903 H 0.5457 0.51317 0.85575 0.0
H904 H 0.51991 0.50261 0.78984 0.0
H905 H 0.57817 0.5049 0.87598 0.0
H906 H 0.55555 0.56881 0.80913 0.0
H907 H 0.54845 0.59394 0.7358 0.0
H908 H 0.60937 0.59442 0.68716 0.0
H909 H 0.61668 0.56886 0.75869 0.0
C910 C 0.63828 0.54677 0.05592 0.0
C911 C 0.65774 0.5496 0.0374 0.0
C912 C 0.62285 0.54498 0.01615 0.0
C913 C 0.6266 0.54571 0.957 0.0
C914 C 0.64596 0.54951 0.93875 0.0
C915 C 0.66138 0.55131 0.97852 0.0
C916 C 0.61076 0.54099 0.9143 0.0
C917 C 0.60608 0.55466 0.87153 0.0
C918 C 0.60035 0.52291 0.91555 0.0
C919 C 0.60491 0.5075 0.95827 0.0
C920 C 0.62398 0.49949 0.96237 0.0
C921 C 0.62829 0.48544 0.00406 0.0
C922 C 0.6136 0.47916 0.04156 0.0
C923 C 0.59454 0.48686 0.03728 0.0
C924 C 0.59016 0.50093 0.99573 0.0
C925 C 0.54848 0.52806 0.69684 0.0
C926 C 0.5328 0.51625 0.71546 0.0
C927 C 0.56432 0.53257 0.73331 0.0
C928 C 0.56375 0.52761 0.79173 0.0
C929 C 0.54716 0.517 0.81113 0.0
C930 C 0.53216 0.5111 0.77342 0.0
C931 C 0.58024 0.53293 0.83274 0.0
C932 C 0.58547 0.51912 0.87503 0.0
C933 C 0.59092 0.55109 0.83125 0.0
C934 C 0.5866 0.56692 0.7894 0.0
C935 C 0.5674 0.57441 0.78304 0.0
C936 C 0.56334 0.58863 0.74161 0.0
C937 C 0.57845 0.59588 0.70721 0.0
C938 C 0.59767 0.58883 0.71394 0.0
C939 C 0.60176 0.57442 0.75478 0.0
H940 H 0.57526 0.6069 0.6752 0.0
H941 H 0.61697 0.46831 0.07388 0.0
H942 H 0.94674 0.66991 0.00836 0.0
H943 H 0.94799 0.64397 0.93448 0.0
H944 H 0.00379 0.62418 1.00069 0.0
H945 H 1.00224 0.6491 0.07607 0.0
H946 H 0.99531 0.64111 0.86794 0.0
H947 H 0.97917 0.59542 0.02304 0.0
H948 H 0.95756 0.5809 0.09586 0.0
H949 H 0.91458 0.56699 0.96704 0.0
H950 H 0.93538 0.58259 0.89385 0.0
H951 H 0.02631 0.54028 0.76403 0.0
H952 H 0.01706 0.56715 0.82878 0.0
H953 H 0.97555 0.58865 0.70436 0.0
H954 H 0.98485 0.56152 0.6388 0.0
H955 H 0.97172 0.57196 0.85936 0.0
H956 H 0.98013 0.62613 0.71642 0.0
H957 H 0.99652 0.64815 0.64773 0.0
H958 H 0.04943 0.64687 0.74871 0.0
H959 H 0.0332 0.62495 0.8182 0.0
C960 C 0.95895 0.65963 0.00856 0.0
C961 C 0.97451 0.66193 0.04821 0.0
C962 C 0.95968 0.64482 0.96601 0.0
C963 C 0.97593 0.63199 0.96221 0.0
C964 C 0.99101 0.63375 1.00298 0.0
C965 C 0.99017 0.64824 0.04584 0.0
C966 C 0.97885 0.61874 0.91167 0.0
C967 C 0.99005 0.62599 0.86612 0.0
C968 C 0.97156 0.59917 0.90827 0.0
C969 C 0.95867 0.59071 0.95307 0.0
C970 C 0.96485 0.58992 0.0104 0.0
C971 C 0.95273 0.58142 0.05179 0.0
C972 C 0.93456 0.5733 0.03623 0.0
C973 C 0.92847 0.57364 0.97922 0.0
C974 C 0.94039 0.58239 0.93782 0.0
C975 C 0.01555 0.551 0.74975 0.0
C976 C 0.00648 0.54884 0.69599 0.0
C977 C 0.01025 0.56637 0.78692 0.0
C978 C 0.99567 0.58005 0.77163 0.0
C979 C 0.98703 0.57847 0.71698 0.0
C980 C 0.9924 0.56298 0.67941 0.0
C981 C 0.98836 0.59433 0.81586 0.0
C982 C 0.97661 0.5872 0.86076 0.0
C983 C 0.99465 0.61419 0.81826 0.0
C984 C 0.00564 0.6236 0.77157 0.0
C985 C 0.99542 0.63012 0.72303 0.0
C986 C 0.00456 0.64286 0.68457 0.0
C987 C 0.02394 0.64907 0.69414 0.0
C988 C 0.03438 0.64217 0.74155 0.0
C989 C 0.02525 0.62953 0.78034 0.0
H990 H 0.03096 0.65899 0.6644 0.0
H991 H 0.9253 0.56656 0.06824 0.0
H992 H 0.06625 0.20619 0.09932 0.0
H993 H 0.05692 0.18137 0.16932 0.0
H994 H 0.09288 0.21034 0.29661 0.0
H995 H 0.10216 0.23562 0.22654 0.0
H996 H 0.09026 0.16007 0.26899 0.0
H997 H 0.05769 0.22215 0.33305 0.0
H998 H 0.0386 0.25221 0.3115 0.0
H999 H 0.9931 0.21695 0.23423 0.0
H1000 H 0.01212 0.1867 0.25447 0.0
H1001 H 0.02924 0.12347 0.51977 0.0
H1002 H 0.05061 0.14546 0.4646 0.0
H1003 H 0.02314 0.12542 0.30852 0.0
H1004 H 1.00124 0.10395 0.36344 0.0
H1005 H 0.02537 0.17212 0.36043 0.0
H1006 H 0.07949 0.12332 0.23866 0.0
H1007 H 0.09971 0.09325 0.247 0.0
H1008 H 0.10067 0.09986 0.42951 0.0
H1009 H 0.08113 0.13042 0.42208 0.0
C1010 C 0.07262 0.207 0.14175 0.0
C1011 C 0.08503 0.22272 0.15757 0.0
C1012 C 0.06718 0.1929 0.18163 0.0
C1013 C 0.07421 0.19419 0.23772 0.0
C1014 C 0.08738 0.20924 0.25323 0.0
C1015 C 0.09263 0.2236 0.21342 0.0
C1016 C 0.06639 0.18057 0.2806 0.0
C1017 C 0.07625 0.16274 0.28999 0.0
C1018 C 0.04792 0.18409 0.30634 0.0
C1019 C 0.03642 0.20223 0.2947 0.0
C1020 C 0.04372 0.22084 0.31093 0.0
C1021 C 0.03289 0.2379 0.29907 0.0
C1022 C 0.01467 0.2365 0.27136 0.0
C1023 C 0.00722 0.21802 0.25559 0.0
C1024 C 0.01802 0.20092 0.26727 0.0
C1025 C 0.02793 0.12363 0.47364 0.0
C1026 C 0.01372 0.11197 0.44567 0.0
C1027 C 0.04027 0.13597 0.44227 0.0
C1028 C 0.03878 0.13651 0.3826 0.0
C1029 C 0.02479 0.12473 0.35453 0.0
C1030 C 0.0123 0.11256 0.38587 0.0
C1031 C 0.04943 0.15163 0.35025 0.0
C1032 C 0.03972 0.1696 0.34127 0.0
C1033 C 0.0679 0.14803 0.32427 0.0
C1034 C 0.07849 0.12899 0.32988 0.0
C1035 C 0.08395 0.11832 0.28062 0.0
C1036 C 0.09546 0.10129 0.28512 0.0
C1037 C 0.10151 0.09466 0.33876 0.0
C1038 C 0.09595 0.105 0.38799 0.0
C1039 C 0.0846 0.12218 0.38366 0.0
H1040 H 0.11041 0.08145 0.34219 0.0
H1041 H 0.00631 0.24972 0.26225 0.0
H1042 H 0.3217 0.09694 0.09648 0.0
H1043 H 0.34988 0.09009 0.15818 0.0
H1044 H 0.31055 0.07634 0.29684 0.0
H1045 H 0.28223 0.08373 0.23587 0.0
H1046 H 0.34597 0.09261 0.33497 0.0
H1047 H 0.32213 0.0416 0.20814 0.0
H1048 H 0.31282 0.02752 0.11455 0.0
H1049 H 0.37209 0.03526 0.05455 0.0
H1050 H 0.38164 0.04959 0.14773 0.0
H1051 H 0.3863 0.01173 0.48274 0.0
H1052 H 0.36781 0.03663 0.4307 0.0
H1053 H 0.41397 0.0395 0.30434 0.0
H1054 H 0.43191 0.01354 0.35381 0.0
H1055 H 0.37954 0.03337 0.25586 0.0
H1056 H 0.40363 0.07902 0.39705 0.0
H1057 H 0.41065 0.08974 0.4959 0.0
H1058 H 0.34879 0.08856 0.53442 0.0
H1059 H 0.34144 0.07748 0.4364 0.0
C1060 C 0.31905 0.09325 0.14076 0.0
C1061 C 0.29977 0.09054 0.16119 0.0
C1062 C 0.33518 0.08927 0.17585 0.0
C1063 C 0.33224 0.08239 0.23157 0.0
C1064 C 0.31309 0.08159 0.25385 0.0
C1065 C 0.29694 0.08561 0.21884 0.0
C1066 C 0.34852 0.07287 0.26293 0.0
C1067 C 0.35345 0.07972 0.31775 0.0
C1068 C 0.35821 0.05609 0.2401 0.0
C1069 C 0.35251 0.04713 0.18441 0.0
C1070 C 0.33312 0.04051 0.17478 0.0
C1071 C 0.32781 0.03242 0.12187 0.0
C1072 C 0.34182 0.03061 0.07847 0.0
C1073 C 0.36121 0.03677 0.08807 0.0
C1074 C 0.36658 0.04491 0.14089 0.0
C1075 C 0.39257 0.01767 0.44396 0.0
C1076 C 0.41043 0.01035 0.42201 0.0
C1077 C 0.38213 0.03218 0.41474 0.0
C1078 C 0.38959 0.04003 0.36382 0.0
C1079 C 0.40797 0.03364 0.34363 0.0
C1080 C 0.41829 0.0189 0.37232 0.0
C1081 C 0.3771 0.05302 0.32831 0.0
C1082 C 0.37268 0.04667 0.27261 0.0
C1083 C 0.36765 0.06997 0.3509 0.0
C1084 C 0.37199 0.07739 0.40934 0.0
C1085 C 0.39153 0.08101 0.42669 0.0
C1086 C 0.39557 0.08711 0.48265 0.0
C1087 C 0.38018 0.08979 0.52154 0.0
C1088 C 0.36072 0.08647 0.50445 0.0
C1089 C 0.3566 0.08031 0.44862 0.0
H1090 H 0.38336 0.09448 0.56483 0.0
H1091 H 0.33768 0.02435 0.03752 0.0
H1092 H 0.40048 0.31517 0.17095 0.0
H1093 H 0.41018 0.34154 0.23741 0.0
H1094 H 0.46148 0.30782 0.28623 0.0
H1095 H 0.45145 0.28127 0.2215 0.0
H1096 H 0.44863 0.32761 0.37499 0.0
H1097 H 0.4628 0.34242 0.1781 0.0
H1098 H 0.45495 0.34764 0.07637 0.0
H1099 H 0.41562 0.39486 0.12186 0.0
H1100 H 0.42304 0.38972 0.22398 0.0
H1101 H 0.52705 0.39556 0.3974 0.0
H1102 H 0.50238 0.36983 0.38124 0.0
H1103 H 0.45658 0.41408 0.37813 0.0
H1104 H 0.48143 0.4399 0.3957 0.0
H1105 H 0.45978 0.39161 0.27843 0.0
H1106 H 0.45505 0.38031 0.47751 0.0
H1107 H 0.46749 0.37494 0.57459 0.0
H1108 H 0.49372 0.32014 0.52205 0.0
H1109 H 0.48214 0.32557 0.42347 0.0
C1110 C 0.41357 0.31328 0.19693 0.0
C1111 C 0.4253 0.29632 0.19106 0.0
C1112 C 0.41912 0.32832 0.23469 0.0
C1113 C 0.43676 0.3268 0.2659 0.0
C1114 C 0.4478 0.30931 0.26265 0.0
C1115 C 0.44208 0.29415 0.22566 0.0
C1116 C 0.44486 0.34403 0.29723 0.0
C1117 C 0.45108 0.34163 0.35401 0.0
C1118 C 0.44775 0.36242 0.27002 0.0
C1119 C 0.44324 0.36549 0.20867 0.0
C1120 C 0.45234 0.3538 0.16641 0.0
C1121 C 0.448 0.35676 0.1087 0.0
C1122 C 0.43473 0.37152 0.09268 0.0
C1123 C 0.42584 0.38339 0.13434 0.0
C1124 C 0.4301 0.38045 0.19214 0.0
C1125 C 0.51162 0.39964 0.39524 0.0
C1126 C 0.50597 0.41953 0.3974 0.0
C1127 C 0.49755 0.38499 0.38624 0.0
C1128 C 0.47768 0.39008 0.37867 0.0
C1129 C 0.47185 0.4099 0.38426 0.0
C1130 C 0.48596 0.42457 0.39424 0.0
C1131 C 0.46392 0.37509 0.35583 0.0
C1132 C 0.45678 0.37784 0.30022 0.0
C1133 C 0.46077 0.35688 0.38359 0.0
C1134 C 0.46774 0.35341 0.44288 0.0
C1135 C 0.46361 0.36718 0.4864 0.0
C1136 C 0.47049 0.3641 0.54187 0.0
C1137 C 0.48126 0.34714 0.55486 0.0
C1138 C 0.48531 0.33326 0.51206 0.0
C1139 C 0.47862 0.33635 0.45626 0.0
H1140 H 0.48649 0.34478 0.59802 0.0
H1141 H 0.4314 0.3738 0.04797 0.0
H1142 H 0.24328 0.44531 0.25735 0.0
H1143 H 0.21412 0.45152 0.31636 0.0
H1144 H 0.17906 0.416 0.20131 0.0
H1145 H 0.20789 0.41009 0.14168 0.0
H1146 H 0.16852 0.45615 0.20939 0.0
H1147 H 0.18453 0.40166 0.33524 0.0
H1148 H 0.20642 0.38355 0.40081 0.0
H1149 H 0.20874 0.43391 0.51291 0.0
H1150 H 0.18709 0.45243 0.44757 0.0
H1151 H 0.07553 0.46959 0.30545 0.0
H1152 H 0.10506 0.44945 0.29355 0.0
H1153 H 0.13578 0.48591 0.41647 0.0
H1154 H 0.10612 0.50605 0.42899 0.0
H1155 H 0.14973 0.44583 0.41186 0.0
H1156 H 0.13656 0.50096 0.29359 0.0
H1157 H 0.1169 0.5224 0.23081 0.0
H1158 H 0.11374 0.47612 0.105 0.0
H1159 H 0.13303 0.45424 0.16779 0.0
C1160 C 0.22945 0.4384 0.24559 0.0
C1161 C 0.22777 0.42743 0.19458 0.0
C1162 C 0.21288 0.44182 0.27955 0.0
C1163 C 0.19452 0.43424 0.26291 0.0
C1164 C 0.19319 0.42188 0.2148 0.0
C1165 C 0.2097 0.41844 0.18093 0.0
C1166 C 0.1763 0.44209 0.28854 0.0
C1167 C 0.1642 0.45354 0.25333 0.0
C1168 C 0.17147 0.43968 0.34679 0.0
C1169 C 0.18431 0.42847 0.38627 0.0
C1170 C 0.18983 0.40892 0.37364 0.0
C1171 C 0.20217 0.39858 0.41082 0.0
C1172 C 0.209 0.40759 0.46093 0.0
C1173 C 0.20346 0.42695 0.47406 0.0
C1174 C 0.19113 0.43737 0.43701 0.0
C1175 C 0.08834 0.47284 0.33148 0.0
C1176 C 0.08872 0.48955 0.36723 0.0
C1177 C 0.10515 0.46131 0.32486 0.0
C1178 C 0.12261 0.46652 0.35334 0.0
C1179 C 0.12238 0.48173 0.3942 0.0
C1180 C 0.10547 0.49325 0.40111 0.0
C1181 C 0.14153 0.45895 0.33168 0.0
C1182 C 0.15394 0.44808 0.3677 0.0
C1183 C 0.14712 0.46242 0.2744 0.0
C1184 C 0.13576 0.47572 0.23614 0.0
C1185 C 0.13139 0.49521 0.253 0.0
C1186 C 0.12037 0.50749 0.21731 0.0
C1187 C 0.11392 0.50057 0.16414 0.0
C1188 C 0.11861 0.48141 0.1464 0.0
C1189 C 0.12953 0.46905 0.1821 0.0
H1190 H 0.10541 0.5101 0.13653 0.0
H1191 H 0.21856 0.39955 0.48964 0.0
H1192 H 0.94114 0.82449 0.08154 0.0
H1193 H 0.94143 0.85104 0.01246 0.0
H1194 H 0.93746 0.80844 0.87501 0.0
H1195 H 0.9382 0.78171 0.94435 0.0
H1196 H 0.97272 0.82498 0.88264 0.0
H1197 H 0.90647 0.85066 0.8835 0.0
H1198 H 0.87622 0.86158 0.93272 0.0
H1199 H 0.90843 0.90808 0.01614 0.0
H1200 H 0.93891 0.89734 0.96811 0.0
H1201 H 0.02261 0.8935 0.72077 0.0
H1202 H 0.99593 0.87176 0.74979 0.0
H1203 H 0.98426 0.90969 0.895 0.0
H1204 H 0.00954 0.93277 0.8614 0.0
H1205 H 0.95172 0.89477 0.86551 0.0
H1206 H 0.01532 0.86695 0.90038 0.0
H1207 H 0.04897 0.8555 0.87803 0.0
H1208 H 0.02562 0.81338 0.75796 0.0
H1209 H 0.99182 0.82477 0.77911 0.0
C1210 C 0.93939 0.82084 0.03667 0.0
C1211 C 0.94044 0.80113 0.01793 0.0
C1212 C 0.93929 0.83608 0.99707 0.0
C1213 C 0.93985 0.83171 0.93842 0.0
C1214 C 0.93719 0.81209 0.92014 0.0
C1215 C 0.9376 0.7968 0.95982 0.0
C1216 C 0.94951 0.84595 0.89989 0.0
C1217 C 0.96772 0.84007 0.87704 0.0
C1218 C 0.94363 0.86593 0.89595 0.0
C1219 C 0.92503 0.87311 0.92224 0.0
C1220 C 0.90712 0.86321 0.91235 0.0
C1221 C 0.88993 0.86935 0.94014 0.0
C1222 C 0.89045 0.88541 0.97786 0.0
C1223 C 0.90807 0.89558 0.9871 0.0
C1224 C 0.9253 0.88952 0.9594 0.0
C1225 C 0.01404 0.89738 0.75808 0.0
C1226 C 0.01807 0.91463 0.78918 0.0
C1227 C 0.99891 0.88488 0.775 0.0
C1228 C 0.98842 0.88876 0.82552 0.0
C1229 C 0.99215 0.90634 0.85594 0.0
C1230 C 0.00672 0.91935 0.83735 0.0
C1231 C 0.9749 0.8737 0.84908 0.0
C1232 C 0.95625 0.87948 0.86929 0.0
C1233 C 0.98076 0.85372 0.8538 0.0
C1234 C 1.00108 0.8469 0.84073 0.0
C1235 C 0.01738 0.85536 0.86888 0.0
C1236 C 0.03647 0.84886 0.85648 0.0
C1237 C 0.03944 0.83377 0.81644 0.0
C1238 C 0.0233 0.82511 0.78884 0.0
C1239 C 0.00418 0.83158 0.801 0.0
H1240 H 0.05423 0.82875 0.80694 0.0
H1241 H 0.87719 0.88999 0.99989 0.0
H1242 H 0.74315 0.95837 0.95984 0.0
H1243 H 0.71754 0.9594 0.88644 0.0
H1244 H 0.6737 0.94465 0.01243 0.0
H1245 H 0.69929 0.94351 0.08598 0.0
H1246 H 0.66457 0.93272 0.89439 0.0
H1247 H 0.6845 0.9895 0.01119 0.0
H1248 H 0.70991 0.01172 0.05105 0.0
H1249 H 0.72832 0.02697 0.88155 0.0
H1250 H 0.70318 0.00459 0.84072 0.0
H1251 H 0.58104 0.99359 0.83099 0.0
H1252 H 0.60747 0.9713 0.8615 0.0
H1253 H 0.64916 0.00456 0.76126 0.0
H1254 H 0.62328 0.0277 0.73567 0.0
H1255 H 0.66111 0.00479 0.86029 0.0
H1256 H 0.64375 0.9474 0.7411 0.0
H1257 H 0.62698 0.91815 0.70063 0.0
H1258 H 0.60622 0.9025 0.86751 0.0
H1259 H 0.62316 0.93144 0.90894 0.0
C1260 C 0.72822 0.95429 0.97117 0.0
C1261 C 0.72296 0.95129 0.02838 0.0
C1262 C 0.71364 0.95491 0.92931 0.0
C1263 C 0.69383 0.95254 0.94472 0.0
C1264 C 0.68897 0.94659 1.00012 0.0
C1265 C 0.70353 0.94605 0.04203 0.0
C1266 C 0.67829 0.96085 0.90848 0.0
C1267 C 0.66366 0.94847 0.88656 0.0
C1268 C 0.67743 0.98134 0.89842 0.0
C1269 C 0.69213 0.99524 0.92295 0.0
C1270 C 0.69404 0.99751 0.98246 0.0
C1271 C 0.70839 0.01013 0.00522 0.0
C1272 C 0.72077 0.02069 0.96886 0.0
C1273 C 0.71875 0.01874 0.90966 0.0
C1274 C 0.70445 0.00611 0.88668 0.0
C1275 C 0.59584 0.99585 0.815 0.0
C1276 C 0.60029 0.01248 0.78195 0.0
C1277 C 0.61089 0.98294 0.83163 0.0
C1278 C 0.63041 0.98625 0.81389 0.0
C1279 C 0.6343 1.00179 0.77608 0.0
C1280 C 0.6195 0.01503 0.76141 0.0
C1281 C 0.64717 0.9766 0.84335 0.0
C1282 C 0.66197 0.98894 0.86599 0.0
C1283 C 0.64815 0.95606 0.85368 0.0
C1284 C 0.63446 0.94165 0.82783 0.0
C1285 C 0.63516 0.93799 0.76881 0.0
C1286 C 0.62591 0.9213 0.74591 0.0
C1287 C 0.61568 0.90839 0.78159 0.0
C1288 C 0.61418 0.91246 0.83997 0.0
C1289 C 0.62362 0.92897 0.86318 0.0
H1290 H 0.60893 0.89523 0.76402 0.0
H1291 H 0.73189 0.03043 0.98656 0.0
H1292 H 0.5942 0.70843 0.01937 0.0
H1293 H 0.58944 0.68138 0.95136 0.0
H1294 H 0.5504 0.71792 0.85196 0.0
H1295 H 0.5544 0.74465 0.92057 0.0
H1296 H 0.53188 0.68766 0.90247 0.0
H1297 H 0.58864 0.69657 0.78888 0.0
H1298 H 0.62374 0.70199 0.76733 0.0
H1299 H 0.63841 0.64639 0.8435 0.0
H1300 H 0.60342 0.64078 0.8666 0.0
H1301 H 0.49665 0.6088 0.74039 0.0
H1302 H 0.5173 0.63777 0.75519 0.0
H1303 H 0.5477 0.60829 0.89225 0.0
H1304 H 0.52725 0.57888 0.87699 0.0
H1305 H 0.57187 0.63554 0.80791 0.0
H1306 H 0.51677 0.63226 0.94232 0.0
H1307 H 0.48173 0.62637 0.96433 0.0
H1308 H 0.46488 0.67212 0.8478 0.0
H1309 H 0.49988 0.67802 0.82444 0.0
C1310 C 0.58512 0.7109 0.98197 0.0
C1311 C 0.57423 0.72845 0.97622 0.0
C1312 C 0.58262 0.69552 0.94274 0.0
C1313 C 0.56936 0.69764 0.89715 0.0
C1314 C 0.56066 0.71606 0.88705 0.0
C1315 C 0.56303 0.73137 0.92639 0.0
C1316 C 0.56073 0.67985 0.87056 0.0
C1317 C 0.54062 0.67655 0.88049 0.0
C1318 C 0.57226 0.66507 0.84371 0.0
C1319 C 0.59337 0.66833 0.82998 0.0
C1320 C 0.59935 0.68557 0.80163 0.0
C1321 C 0.61924 0.68867 0.78901 0.0
C1322 C 0.6333 0.67456 0.80415 0.0
C1323 C 0.6275 0.65732 0.83185 0.0
C1324 C 0.60763 0.65416 0.84468 0.0
C1325 C 0.50807 0.60823 0.77266 0.0
C1326 C 0.5104 0.59151 0.80733 0.0
C1327 C 0.51987 0.62476 0.78087 0.0
C1328 C 0.53411 0.62493 0.82417 0.0
C1329 C 0.53692 0.60819 0.85804 0.0
C1330 C 0.525 0.59161 0.85001 0.0
C1331 C 0.54333 0.64371 0.84044 0.0
C1332 C 0.56334 0.647 0.82898 0.0
C1333 C 0.53186 0.65861 0.86634 0.0
C1334 C 0.51087 0.65543 0.88123 0.0
C1335 C 0.50557 0.64095 0.9211 0.0
C1336 C 0.48574 0.63762 0.93386 0.0
C1337 C 0.47108 0.64883 0.90736 0.0
C1338 C 0.47625 0.66343 0.86822 0.0
C1339 C 0.49608 0.66678 0.85522 0.0
H1340 H 0.45572 0.64623 0.91727 0.0
H1341 H 0.6487 0.67698 0.79432 0.0
H1342 H 0.81534 0.58883 0.05854 0.0
H1343 H 0.84162 0.58499 0.98946 0.0
H1344 H 0.79867 0.57455 0.8563 0.0
H1345 H 0.77236 0.57677 0.92647 0.0
H1346 H 0.81745 0.54304 0.87376 0.0
H1347 H 0.8394 0.60793 0.84009 0.0
H1348 H 0.8488 0.64237 0.86097 0.0
H1349 H 0.89651 0.62228 0.9665 0.0
H1350 H 0.88709 0.58776 0.94734 0.0
H1351 H 0.89654 0.49761 0.72464 0.0
H1352 H 0.87115 0.52178 0.74978 0.0
H1353 H 0.89736 0.52904 0.91672 0.0
H1354 H 0.92297 0.50482 0.89143 0.0
H1355 H 0.88679 0.56559 0.85981 0.0
H1356 H 0.85903 0.50183 0.90875 0.0
H1357 H 0.8495 0.46738 0.88825 0.0
H1358 H 0.81192 0.48687 0.75194 0.0
H1359 H 0.82147 0.52144 0.77116 0.0
C1360 C 0.81145 0.58645 0.01411 0.0
C1361 C 0.79192 0.5821 0.99839 0.0
C1362 C 0.82654 0.58456 0.9742 0.0
C1363 C 0.82218 0.57892 0.91775 0.0
C1364 C 0.80239 0.57854 0.89991 0.0
C1365 C 0.7873 0.57991 0.94016 0.0
C1366 C 0.83722 0.56784 0.88477 0.0
C1367 C 0.83243 0.54837 0.86885 0.0
C1368 C 0.85696 0.57439 0.87992 0.0
C1369 C 0.86258 0.59519 0.8921 0.0
C1370 C 0.85182 0.61084 0.86806 0.0
C1371 C 0.85714 0.6304 0.8796 0.0
C1372 C 0.87325 0.63452 0.91499 0.0
C1373 C 0.88406 0.61908 0.93898 0.0
C1374 C 0.87876 0.59951 0.92767 0.0
C1375 C 0.89666 0.50417 0.76699 0.0
C1376 C 0.91142 0.49922 0.80658 0.0
C1377 C 0.88234 0.51807 0.78101 0.0
C1378 C 0.88255 0.52721 0.83485 0.0
C1379 C 0.89714 0.52218 0.87478 0.0
C1380 C 0.91146 0.50814 0.86082 0.0
C1381 C 0.86677 0.54114 0.85052 0.0
C1382 C 0.87157 0.56082 0.8632 0.0
C1383 C 0.84695 0.53493 0.85233 0.0
C1384 C 0.84113 0.51417 0.84095 0.0
C1385 C 0.84886 0.49875 0.8741 0.0
C1386 C 0.84344 0.47921 0.86277 0.0
C1387 C 0.83016 0.47493 0.81871 0.0
C1388 C 0.82223 0.4902 0.78599 0.0
C1389 C 0.82764 0.50976 0.79708 0.0
H1390 H 0.82597 0.4598 0.81002 0.0
H1391 H 0.87736 0.64967 0.92382 0.0
H1392 H 0.07423 0.20468 0.83924 0.0
H1393 H 0.06797 0.17224 0.79654 0.0
H1394 H 0.00538 0.18327 0.80441 0.0
H1395 H 0.01167 0.21531 0.84988 0.0
H1396 H 0.01095 0.14836 0.83565 0.0
H1397 H 0.03861 0.18399 0.67276 0.0
H1398 H 0.06487 0.20254 0.62379 0.0
H1399 H 0.10518 0.15453 0.64993 0.0
H1400 H 0.07923 0.13581 0.69951 0.0
H1401 H 0.97579 0.06763 0.67901 0.0
H1402 H 0.98485 0.10003 0.71415 0.0
H1403 H 0.04558 0.08874 0.66957 0.0
H1404 H 0.03551 0.05764 0.62407 0.0
H1405 H 0.04337 0.12328 0.66014 0.0
H1406 H 0.02044 0.08881 0.82728 0.0
H1407 H 0.9979 0.06981 0.88834 0.0
H1408 H 0.95291 0.11371 0.86594 0.0
H1409 H 0.97535 0.13309 0.80527 0.0
C1410 C 0.05912 0.20025 0.83144 0.0
C1411 C 0.04345 0.21275 0.84777 0.0
C1412 C 0.05553 0.18165 0.80645 0.0
C1413 C 0.03615 0.17516 0.79546 0.0
C1414 C 0.02051 0.18771 0.81189 0.0
C1415 C 0.02409 0.20612 0.83801 0.0
C1416 C 0.03191 0.15506 0.76985 0.0
C1417 C 0.01788 0.14307 0.79671 0.0
C1418 C 0.04158 0.14734 0.72068 0.0
C1419 C 0.05702 0.15858 0.6902 0.0
C1420 C 0.0531 0.17744 0.66824 0.0
C1421 C 0.06793 0.18797 0.64037 0.0
C1422 C 0.08669 0.17974 0.63386 0.0
C1423 C 0.09065 0.16091 0.65502 0.0
C1424 C 0.07588 0.15033 0.68294 0.0
C1425 C 0.99114 0.07196 0.67688 0.0
C1426 C 0.0051 0.05938 0.65132 0.0
C1427 C 0.99647 0.09056 0.69836 0.0
C1428 C 0.01626 0.09688 0.69876 0.0
C1429 C 0.03023 0.08447 0.67161 0.0
C1430 C 0.02459 0.06629 0.64668 0.0
C1431 C 0.02205 0.11655 0.72555 0.0
C1432 C 0.03641 0.12846 0.6991 0.0
C1433 C 0.01313 0.12405 0.77626 0.0
C1434 C 0.99948 0.11222 0.8114 0.0
C1435 C 0.00569 0.09428 0.83507 0.0
C1436 C 0.99293 0.08349 0.8697 0.0
C1437 C 0.97391 0.09047 0.88076 0.0
C1438 C 0.96762 0.1083 0.8573 0.0
C1439 C 0.98038 0.11924 0.82303 0.0
H1440 H 0.96407 0.08215 0.90781 0.0
H1441 H 0.09815 0.18793 0.61234 0.0
H1442 H 0.31806 0.07902 0.84578 0.0
H1443 H 0.34961 0.07084 0.80119 0.0
H1444 H 0.32966 0.01107 0.77359 0.0
H1445 H 0.29839 0.01906 0.82085 0.0
H1446 H 0.3653 0.01022 0.81032 0.0
H1447 H 0.33367 0.05122 0.66349 0.0
H1448 H 0.31848 0.08248 0.6323 0.0
H1449 H 0.37126 0.11392 0.67738 0.0
H1450 H 0.38666 0.08291 0.70941 0.0
H1451 H 0.44357 0.97504 0.64719 0.0
H1452 H 0.41136 0.98539 0.67999 0.0
H1453 H 0.42835 0.0464 0.66055 0.0
H1454 H 0.4588 0.03555 0.61465 0.0
H1455 H 0.39441 0.04843 0.65162 0.0
H1456 H 0.4258 0.01327 0.80539 0.0
H1457 H 0.44305 0.98523 0.85056 0.0
H1458 H 0.39405 0.94734 0.81158 0.0
H1459 H 0.37671 0.97507 0.76566 0.0
C1460 C 0.32036 0.06415 0.82985 0.0
C1461 C 0.30561 0.04971 0.83656 0.0
C1462 C 0.33842 0.05951 0.80386 0.0
C1463 C 0.34206 0.04041 0.78233 0.0
C1464 C 0.32733 0.02596 0.78934 0.0
C1465 C 0.30941 0.0305 0.81644 0.0
C1466 C 0.36143 0.0351 0.75495 0.0
C1467 C 0.37152 0.01846 0.77507 0.0
C1468 C 0.3703 0.04634 0.71091 0.0
C1469 C 0.36124 0.06477 0.68925 0.0
C1470 C 0.342 0.06481 0.66684 0.0
C1471 C 0.33334 0.08249 0.64919 0.0
C1472 C 0.34386 0.10018 0.65321 0.0
C1473 C 0.3631 0.10022 0.67454 0.0
C1474 C 0.37181 0.08259 0.69231 0.0
C1475 C 0.44049 0.9907 0.64995 0.0
C1476 C 0.45463 0.00455 0.63243 0.0
C1477 C 0.42202 0.99671 0.6702 0.0
C1478 C 0.4175 0.01685 0.67808 0.0
C1479 C 0.43125 0.03073 0.65734 0.0
C1480 C 0.44916 0.02457 0.6326 0.0
C1481 C 0.39847 0.02325 0.70664 0.0
C1482 C 0.38839 0.04012 0.68693 0.0
C1483 C 0.38994 0.01271 0.75295 0.0
C1484 C 0.40014 0.99615 0.7816 0.0
C1485 C 0.41883 0.99891 0.80627 0.0
C1486 C 0.42859 0.98309 0.83197 0.0
C1487 C 0.41969 0.9645 0.83373 0.0
C1488 C 0.40095 0.96172 0.8101 0.0
C1489 C 0.39114 0.97749 0.78433 0.0
H1490 H 0.42728 0.95227 0.85354 0.0
H1491 H 0.33714 0.11385 0.63943 0.0
H1492 H 0.42632 0.31578 0.85278 0.0
H1493 H 0.43513 0.34622 0.80411 0.0
H1494 H 0.49146 0.32112 0.75827 0.0
H1495 H 0.4829 0.29078 0.80951 0.0
H1496 H 0.49729 0.35685 0.78815 0.0
H1497 H 0.45112 0.32824 0.65702 0.0
H1498 H 0.41994 0.31294 0.62524 0.0
H1499 H 0.38783 0.36406 0.68184 0.0
H1500 H 0.41878 0.37956 0.7145 0.0
H1501 H 0.51992 0.43734 0.60681 0.0
H1502 H 0.51225 0.40423 0.6411 0.0
H1503 H 0.45477 0.42432 0.6947 0.0
H1504 H 0.46169 0.45663 0.65553 0.0
H1505 H 0.45056 0.39008 0.6571 0.0
H1506 H 0.49761 0.41797 0.78909 0.0
H1507 H 0.52924 0.43358 0.81529 0.0
H1508 H 0.56063 0.38319 0.75034 0.0
H1509 H 0.52918 0.36742 0.72297 0.0
C1510 C 0.44052 0.31666 0.83186 0.0
C1511 C 0.45383 0.30076 0.83447 0.0
C1512 C 0.44554 0.33409 0.80365 0.0
C1513 C 0.46382 0.33597 0.77595 0.0
C1514 C 0.47722 0.32012 0.77889 0.0
C1515 C 0.47233 0.30275 0.80813 0.0
C1516 C 0.4691 0.35471 0.74595 0.0
C1517 C 0.48723 0.36385 0.75844 0.0
C1518 C 0.4559 0.36428 0.70807 0.0
C1519 C 0.43724 0.35496 0.68875 0.0
C1520 C 0.43738 0.33614 0.6631 0.0
C1521 C 0.41976 0.32745 0.64483 0.0
C1522 C 0.40191 0.33749 0.65168 0.0
C1523 C 0.40166 0.35628 0.67664 0.0
C1524 C 0.41924 0.36503 0.69496 0.0
C1525 C 0.50559 0.4347 0.62557 0.0
C1526 C 0.49168 0.45006 0.63041 0.0
C1527 C 0.50128 0.41573 0.6458 0.0
C1528 C 0.48316 0.41178 0.67274 0.0
C1529 C 0.469 0.42688 0.67518 0.0
C1530 C 0.47312 0.44563 0.65364 0.0
C1531 C 0.47883 0.39209 0.69863 0.0
C1532 C 0.46076 0.38292 0.6861 0.0
C1533 C 0.49221 0.38238 0.73566 0.0
C1534 C 0.51107 0.39159 0.75361 0.0
C1535 C 0.51126 0.41025 0.78027 0.0
C1536 C 0.52915 0.41913 0.79527 0.0
C1537 C 0.54693 0.4094 0.78438 0.0
C1538 C 0.54685 0.39072 0.7587 0.0
C1539 C 0.529 0.3818 0.74347 0.0
H1540 H 0.56077 0.41631 0.79592 0.0
H1541 H 0.38828 0.33074 0.63753 0.0
H1542 H 0.19841 0.43831 0.89337 0.0
H1543 H 0.16731 0.44509 0.84443 0.0
H1544 H 0.19564 0.49111 0.74786 0.0
H1545 H 0.22655 0.48504 0.79986 0.0
H1546 H 0.16161 0.50332 0.77158 0.0
H1547 H 0.18279 0.44091 0.69306 0.0
H1548 H 0.19367 0.40618 0.69608 0.0
H1549 H 0.13997 0.39004 0.78065 0.0
H1550 H 0.12886 0.4247 0.77865 0.0
H1551 H 0.08159 0.51369 0.57785 0.0
H1552 H 0.11403 0.50611 0.61769 0.0
H1553 H 0.08799 0.46172 0.72507 0.0
H1554 H 0.05578 0.46858 0.68356 0.0
H1555 H 0.12158 0.44862 0.69076 0.0
H1556 H 0.10238 0.51057 0.77967 0.0
H1557 H 0.0912 0.54521 0.78047 0.0
H1558 H 0.14049 0.56155 0.67598 0.0
H1559 H 0.15213 0.527 0.67553 0.0
C1560 C 0.19794 0.44995 0.86186 0.0
C1561 C 0.21493 0.46112 0.85034 0.0
C1562 C 0.18016 0.45369 0.83324 0.0
C1563 C 0.17901 0.46826 0.79071 0.0
C1564 C 0.19598 0.47969 0.78 0.0
C1565 C 0.21368 0.47625 0.80974 0.0
C1566 C 0.16009 0.47185 0.75852 0.0
C1567 C 0.15313 0.49131 0.7531 0.0
C1568 C 0.14846 0.4563 0.7352 0.0
C1569 C 0.15508 0.43543 0.73608 0.0
C1570 C 0.17336 0.42997 0.71256 0.0
C1571 C 0.17955 0.41029 0.71406 0.0
C1572 C 0.16754 0.39592 0.73866 0.0
C1573 C 0.14927 0.40118 0.76165 0.0
C1574 C 0.143 0.42084 0.76026 0.0
C1575 C 0.08273 0.50216 0.60952 0.0
C1576 C 0.0658 0.49199 0.62791 0.0
C1577 C 0.10137 0.49796 0.63286 0.0
C1578 C 0.10359 0.48368 0.67587 0.0
C1579 C 0.08684 0.47294 0.69245 0.0
C1580 C 0.06827 0.47697 0.66871 0.0
C1581 C 0.12318 0.48004 0.70417 0.0
C1582 C 0.13023 0.46059 0.70888 0.0
C1583 C 0.1349 0.49554 0.72691 0.0
C1584 C 0.128 0.51625 0.72717 0.0
C1585 C 0.11078 0.52156 0.75675 0.0
C1586 C 0.10439 0.54117 0.75725 0.0
C1587 C 0.11504 0.55556 0.7279 0.0
C1588 C 0.13223 0.55039 0.69856 0.0
C1589 C 0.13879 0.53083 0.69846 0.0
H1590 H 0.10999 0.57072 0.72804 0.0
H1591 H 0.17237 0.3807 0.73981 0.0
H1592 H 0.94428 0.80829 0.36802 0.0
H1593 H 0.94747 0.84139 0.41 0.0
H1594 H 0.00942 0.84151 0.36907 0.0
H1595 H 0.00637 0.80868 0.32744 0.0
H1596 H 0.00543 0.85611 0.4702 0.0
H1597 H 0.97224 0.86742 0.29061 0.0
H1598 H 0.9457 0.86403 0.21906 0.0
H1599 H 0.90374 0.88672 0.33993 0.0
H1600 H 0.92999 0.88998 0.41246 0.0
H1601 H 0.03216 0.95603 0.47155 0.0
H1602 H 0.02169 0.9237 0.43572 0.0
H1603 H 0.9664 0.92994 0.5245 0.0
H1604 H 0.97707 0.96235 0.56156 0.0
H1605 H 0.96353 0.91224 0.40926 0.0
H1606 H 0.99972 0.90633 0.58272 0.0
H1607 H 0.02829 0.91427 0.64339 0.0
H1608 H 0.06608 0.88116 0.53146 0.0
H1609 H 0.03809 0.87467 0.46677 0.0
C1610 C 0.9586 0.81534 0.36791 0.0
C1611 C 0.97509 0.80549 0.34457 0.0
C1612 C 0.9604 0.83439 0.39189 0.0
C1613 C 0.9787 0.84425 0.39258 0.0
C1614 C 0.99514 0.83436 0.36972 0.0
C1615 C 0.99338 0.81537 0.34607 0.0
C1616 C 0.98102 0.86476 0.41691 0.0
C1617 C 0.99631 0.86834 0.45641 0.0
C1618 C 0.96885 0.88086 0.40057 0.0
C1619 C 0.95303 0.87867 0.35721 0.0
C1620 C 0.95732 0.87149 0.30211 0.0
C1621 C 0.94233 0.86963 0.26134 0.0
C1622 C 0.92303 0.87508 0.27501 0.0
C1623 C 0.91868 0.88244 0.32945 0.0
C1624 C 0.93361 0.8843 0.3704 0.0
C1625 C 0.01767 0.95062 0.48298 0.0
C1626 C 0.00535 0.96187 0.51877 0.0
C1627 C 0.01167 0.93215 0.4623 0.0
C1628 C 0.99326 0.92428 0.47738 0.0
C1629 C 0.98062 0.93571 0.51193 0.0
C1630 C 0.98672 0.95423 0.5331 0.0
C1631 C 0.98823 0.90349 0.4609 0.0
C1632 C 0.97245 0.89989 0.42333 0.0
C1633 C 1.00007 0.88737 0.4786 0.0
C1634 C 0.01674 0.8902 0.51931 0.0
C1635 C 0.01414 0.90093 0.57048 0.0
C1636 C 0.03026 0.90521 0.60563 0.0
C1637 C 0.04894 0.89799 0.59179 0.0
C1638 C 0.05158 0.88671 0.54223 0.0
C1639 C 0.03561 0.88291 0.5059 0.0
H1640 H 0.06137 0.90122 0.61937 0.0
H1641 H 0.91146 0.87366 0.24337 0.0
H1642 H 0.70916 0.94436 0.38898 0.0
H1643 H 0.67547 0.94742 0.42617 0.0
H1644 H 0.67641 0.00983 0.39117 0.0
H1645 H 0.70986 0.00692 0.35498 0.0
H1646 H 0.66032 0.0054 0.48843 0.0
H1647 H 0.65146 0.97301 0.30595 0.0
H1648 H 0.6556 0.94675 0.2335 0.0
H1649 H 0.6307 0.90443 0.34851 0.0
H1650 H 0.62666 0.9304 0.42196 0.0
H1651 H 0.5604 0.03253 0.47393 0.0
H1652 H 0.59332 0.02208 0.44343 0.0
H1653 H 0.58603 0.96709 0.53259 0.0
H1654 H 0.5531 0.97779 0.56448 0.0
H1655 H 0.60492 0.96413 0.4177 0.0
H1656 H 0.60912 0.99962 0.59391 0.0
H1657 H 0.60073 0.02801 0.65494 0.0
H1658 H 0.63443 0.06625 0.5472 0.0
H1659 H 0.64158 0.03837 0.48228 0.0
C1660 C 0.7022 0.95874 0.38932 0.0
C1661 C 0.7125 0.97542 0.36947 0.0
C1662 C 0.68282 0.96048 0.41043 0.0
C1663 C 0.6731 0.97888 0.41133 0.0
C1664 C 0.68344 0.99547 0.39164 0.0
C1665 C 0.70275 0.99379 0.3711 0.0
C1666 C 0.65231 0.98121 0.43283 0.0
C1667 C 0.64827 0.9964 0.47245 0.0
C1668 C 0.63638 0.96923 0.41361 0.0
C1669 C 0.63905 0.95358 0.36975 0.0
C1670 C 0.64706 0.95806 0.31601 0.0
C1671 C 0.64935 0.94324 0.27472 0.0
C1672 C 0.6435 0.92392 0.28648 0.0
C1673 C 0.63529 0.91939 0.33952 0.0
C1674 C 0.63301 0.93415 0.381 0.0
C1675 C 0.56574 0.01813 0.48661 0.0
C1676 C 0.55398 0.00583 0.52055 0.0
C1677 C 0.58453 0.01213 0.46896 0.0
C1678 C 0.59219 0.99375 0.48541 0.0
C1679 C 0.58039 0.98125 0.5188 0.0
C1680 C 0.56158 0.98737 0.53702 0.0
C1681 C 0.61311 0.9886 0.47157 0.0
C1682 C 0.61711 0.97291 0.43386 0.0
C1683 C 0.629 1.00026 0.49194 0.0
C1684 C 0.62571 0.01686 0.53271 0.0
C1685 C 0.61457 0.0141 0.5827 0.0
C1686 C 0.61 0.03013 0.61802 0.0
C1687 C 0.61723 0.04889 0.60546 0.0
C1688 C 0.62886 0.05169 0.55699 0.0
C1689 C 0.63302 0.0358 0.52054 0.0
H1690 H 0.61376 0.06125 0.63319 0.0
H1691 H 0.64526 0.91247 0.25443 0.0
H1692 H 0.57819 0.72019 0.39777 0.0
H1693 H 0.57436 0.68816 0.44535 0.0
H1694 H 0.51742 0.68088 0.36561 0.0
H1695 H 0.52102 0.71262 0.31917 0.0
H1696 H 0.51484 0.67071 0.47207 0.0
H1697 H 0.56209 0.65702 0.31948 0.0
H1698 H 0.59374 0.66115 0.26914 0.0
H1699 H 0.6252 0.64525 0.42144 0.0
H1700 H 0.59373 0.64127 0.47285 0.0
H1701 H 0.4926 0.56961 0.4853 0.0
H1702 H 0.5009 0.60314 0.45661 0.0
H1703 H 0.55686 0.59842 0.54346 0.0
H1704 H 0.54884 0.56456 0.57063 0.0
H1705 H 0.56268 0.61597 0.44782 0.0
H1706 H 0.51649 0.62629 0.59828 0.0
H1707 H 0.48542 0.62212 0.65138 0.0
H1708 H 0.45274 0.64487 0.50913 0.0
H1709 H 0.48355 0.64893 0.45472 0.0
C1710 C 0.56486 0.71174 0.39057 0.0
C1711 C 0.5498 0.71918 0.35525 0.0
C1712 C 0.5627 0.69338 0.41763 0.0
C1713 C 0.5456 0.68193 0.40901 0.0
C1714 C 0.53067 0.68939 0.3736 0.0
C1715 C 0.53273 0.70769 0.34716 0.0
C1716 C 0.54284 0.66221 0.43633 0.0
C1717 C 0.52526 0.65871 0.46632 0.0
C1718 C 0.55673 0.64667 0.43118 0.0
C1719 C 0.57559 0.64909 0.40015 0.0
C1720 C 0.57577 0.65456 0.34232 0.0
C1721 C 0.59367 0.65684 0.31359 0.0
C1722 C 0.61147 0.65352 0.34213 0.0
C1723 C 0.6114 0.64786 0.39942 0.0
C1724 C 0.59355 0.64558 0.42836 0.0
C1725 C 0.50662 0.57572 0.49856 0.0
C1726 C 0.52002 0.56437 0.53027 0.0
C1727 C 0.51135 0.595 0.48234 0.0
C1728 C 0.5294 0.60361 0.49867 0.0
C1729 C 0.54284 0.59224 0.53026 0.0
C1730 C 0.53823 0.57283 0.54578 0.0
C1731 C 0.53432 0.62429 0.48165 0.0
C1732 C 0.55232 0.628 0.45403 0.0
C1733 C 0.5209 0.64012 0.48945 0.0
C1734 C 0.50234 0.63779 0.52226 0.0
C1735 C 0.50267 0.63029 0.57816 0.0
C1736 C 0.48511 0.62796 0.60852 0.0
C1737 C 0.46713 0.63319 0.58365 0.0
C1738 C 0.46667 0.64081 0.52835 0.0
C1739 C 0.48418 0.64316 0.49774 0.0
H1740 H 0.45356 0.63136 0.60726 0.0
H1741 H 0.62531 0.65529 0.3198 0.0
H1742 H 0.78709 0.53315 0.41376 0.0
H1743 H 0.81992 0.53026 0.456 0.0
H1744 H 0.8434 0.56825 0.32565 0.0
H1745 H 0.81085 0.57047 0.28171 0.0
H1746 H 0.86676 0.53884 0.33536 0.0
H1747 H 0.83815 0.58265 0.47016 0.0
H1748 H 0.81439 0.59579 0.54029 0.0
H1749 H 0.82459 0.54585 0.64849 0.0
H1750 H 0.84817 0.53222 0.5785 0.0
H1751 H 0.95996 0.55413 0.47429 0.0
H1752 H 0.92661 0.56021 0.4403 0.0
H1753 H 0.90625 0.50867 0.52917 0.0
H1754 H 0.93992 0.50197 0.56163 0.0
H1755 H 0.88195 0.54582 0.54185 0.0
H1756 H 0.91089 0.50262 0.39936 0.0
H1757 H 0.93658 0.49292 0.33029 0.0
H1758 H 0.92704 0.54646 0.237 0.0
H1759 H 0.90151 0.55665 0.30619 0.0
C1760 C 0.79919 0.54097 0.39406 0.0
C1761 C 0.79609 0.55205 0.34404 0.0
C1762 C 0.81803 0.53946 0.41874 0.0
C1763 C 0.83434 0.54911 0.39448 0.0
C1764 C 0.83119 0.56061 0.34547 0.0
C1765 C 0.81239 0.56208 0.32067 0.0
C1766 C 0.8548 0.54632 0.41804 0.0
C1767 C 0.87001 0.54067 0.38047 0.0
C1768 C 0.85931 0.5484 0.47708 0.0
C1769 C 0.84474 0.55627 0.51864 0.0
C1770 C 0.83514 0.57432 0.50853 0.0
C1771 C 0.82174 0.58189 0.54835 0.0
C1772 C 0.81792 0.57162 0.59871 0.0
C1773 C 0.82751 0.55376 0.60937 0.0
C1774 C 0.84089 0.5461 0.56962 0.0
C1775 C 0.94864 0.54394 0.48647 0.0
C1776 C 0.95305 0.52733 0.52003 0.0
C1777 C 0.92939 0.54753 0.46708 0.0
C1778 C 0.91387 0.53487 0.48189 0.0
C1779 C 0.91797 0.51865 0.51703 0.0
C1780 C 0.93732 0.5148 0.53533 0.0
C1781 C 0.89355 0.53827 0.4592 0.0
C1782 C 0.87849 0.54402 0.49686 0.0
C1783 C 0.88923 0.53668 0.40019 0.0
C1784 C 0.90444 0.5305 0.3583 0.0
C1785 C 0.9144 0.51242 0.36444 0.0
C1786 C 0.92891 0.50681 0.32521 0.0
C1787 C 0.93347 0.51909 0.27937 0.0
C1788 C 0.9235 0.53698 0.27259 0.0
C1789 C 0.90901 0.54267 0.31178 0.0
H1790 H 0.94471 0.51473 0.24903 0.0
H1791 H 0.80759 0.57754 0.62955 0.0
loop_
_geom_bond_atom_site_label_1
_geom_bond_atom_site_label_2
_geom_bond_distance
_geom_bond_site_symmetry_2
_ccdc_geom_bond_type
P0 O11 1.490 . S
P0 C14 1.812 . S
P0 C20 1.803 . S
P0 C26 1.819 . S
H1 C15 0.941 . S
H2 C16 0.939 . S
H3 C18 0.940 . S
H4 C19 0.940 . S
H5 C21 0.939 . S
H6 C22 0.942 . S
H7 C24 0.940 . S
H8 C25 0.939 . S
H9 C27 0.941 . S
H10 C31 0.939 . S
O11 P0 1.490 . S
H12 C28 0.939 . S
H13 C30 0.945 . S
C14 P0 1.812 . S
C14 C15 1.389 . S
C14 C19 1.391 . S
C15 H1 0.941 . S
C15 C14 1.389 . S
C15 C16 1.397 . S
C16 H2 0.939 . S
C16 C15 1.397 . S
C16 C17 1.378 . S
C17 C16 1.378 . S
C17 C18 1.378 . S
C18 H3 0.940 . S
C18 C17 1.378 . S
C18 C19 1.396 . S
C19 H4 0.940 . S
C19 C14 1.391 . S
C19 C18 1.396 . S
C20 P0 1.803 . S
C20 C21 1.378 . S
C20 C25 1.400 . S
C21 H5 0.939 . S
C21 C20 1.378 . S
C21 C22 1.361 . S
C22 H6 0.942 . S
C22 C21 1.361 . S
C22 C23 1.369 . S
C23 C22 1.369 . S
C23 C24 1.404 . S
C24 H7 0.940 . S
C24 C23 1.404 . S
C24 C25 1.389 . S
C25 H8 0.939 . S
C25 C20 1.400 . S
C25 C24 1.389 . S
C26 P0 1.819 . S
C26 C27 1.391 . S
C26 C31 1.391 . S
C27 H9 0.941 . S
C27 C26 1.391 . S
C27 C28 1.396 . S
C28 H12 0.939 . S
C28 C27 1.396 . S
C28 C29 1.397 . S
C29 C28 1.397 . S
C29 C30 1.385 . S
C30 H13 0.945 . S
C30 C29 1.385 . S
C30 C31 1.388 . S
C31 H10 0.939 . S
C31 C26 1.391 . S
C31 C30 1.388 . S
P32 O43 1.490 . S
P32 C46 1.812 . S
P32 C52 1.803 . S
P32 C58 1.819 . S
H33 C47 0.941 . S
H34 C48 0.939 . S
H35 C50 0.940 . S
H36 C51 0.940 . S
H37 C53 0.939 . S
H38 C54 0.942 . S
H39 C56 0.940 . S
H40 C57 0.939 . S
H41 C59 0.941 . S
H42 C63 0.939 . S
O43 P32 1.490 . S
H44 C60 0.939 . S
H45 C62 0.940 . S
C46 P32 1.812 . S
C46 C47 1.389 . S
C46 C51 1.391 . S
C47 H33 0.941 . S
C47 C46 1.389 . S
C47 C48 1.397 . S
C48 H34 0.939 . S
C48 C47 1.397 . S
C48 C49 1.378 . S
C49 C48 1.378 . S
C49 C50 1.378 . S
C50 H35 0.940 . S
C50 C49 1.378 . S
C50 C51 1.396 . S
C51 H36 0.940 . S
C51 C46 1.391 . S
C51 C50 1.396 . S
C52 P32 1.803 . S
C52 C53 1.378 . S
C52 C57 1.400 . S
C53 H37 0.939 . S
C53 C52 1.378 . S
C53 C54 1.361 . S
C54 H38 0.942 . S
C54 C53 1.361 . S
C54 C55 1.369 . S
C55 C54 1.369 . S
C55 C56 1.404 . S
C56 H39 0.940 . S
C56 C55 1.404 . S
C56 C57 1.389 . S
C57 H40 0.939 . S
C57 C52 1.400 . S
C57 C56 1.389 . S
C58 P32 1.819 . S
C58 C59 1.391 . S
C58 C63 1.391 . S
C59 H41 0.941 . S
C59 C58 1.391 . S
C59 C60 1.396 . S
C60 H44 0.939 . S
C60 C59 1.396 . S
C60 C61 1.397 . S
C61 C60 1.397 . S
C61 C62 1.385 . S
C62 H45 0.940 . S
C62 C61 1.385 . S
C62 C63 1.388 . S
C63 H42 0.939 . S
C63 C58 1.391 . S
C63 C62 1.388 . S
P64 O75 1.490 . S
P64 C78 1.812 . S
P64 C84 1.803 . S
P64 C90 1.819 . S
H65 C79 0.941 . S
H66 C80 0.939 . S
H67 C82 0.940 . S
H68 C83 0.940 . S
H69 C85 0.939 . S
H70 C86 0.942 . S
H71 C88 0.940 . S
H72 C89 0.939 . S
H73 C91 0.941 . S
H74 C95 0.939 . S
O75 P64 1.490 . S
H76 C92 0.939 . S
H77 C94 0.940 . S
C78 P64 1.812 . S
C78 C79 1.389 . S
C78 C83 1.391 . S
C79 H65 0.941 . S
C79 C78 1.389 . S
C79 C80 1.397 . S
C80 H66 0.939 . S
C80 C79 1.397 . S
C80 C81 1.378 . S
C81 C80 1.378 . S
C81 C82 1.378 . S
C82 H67 0.940 . S
C82 C81 1.378 . S
C82 C83 1.396 . S
C83 H68 0.940 . S
C83 C78 1.391 . S
C83 C82 1.396 . S
C84 P64 1.803 . S
C84 C85 1.378 . S
C84 C89 1.400 . S
C85 H69 0.939 . S
C85 C84 1.378 . S
C85 C86 1.361 . S
C86 H70 0.942 . S
C86 C85 1.361 . S
C86 C87 1.369 . S
C87 C86 1.369 . S
C87 C88 1.404 . S
C88 H71 0.940 . S
C88 C87 1.404 . S
C88 C89 1.389 . S
C89 H72 0.939 . S
C89 C84 1.400 . S
C89 C88 1.389 . S
C90 P64 1.819 . S
C90 C91 1.391 . S
C90 C95 1.391 . S
C91 H73 0.941 . S
C91 C90 1.391 . S
C91 C92 1.396 . S
C92 H76 0.939 . S
C92 C91 1.396 . S
C92 C93 1.397 . S
C93 C92 1.397 . S
C93 C94 1.385 . S
C94 H77 0.940 . S
C94 C93 1.385 . S
C94 C95 1.388 . S
C95 H74 0.939 . S
C95 C90 1.391 . S
C95 C94 1.388 . S
P96 O107 1.490 . S
P96 C110 1.812 . S
P96 C116 1.803 . S
P96 C122 1.819 . S
H97 C111 0.941 . S
H98 C112 0.939 . S
H99 C114 0.940 . S
H100 C115 0.940 . S
H101 C117 0.939 . S
H102 C118 0.942 . S
H103 C120 0.940 . S
H104 C121 0.939 . S
H105 C123 0.941 . S
H106 C127 0.939 . S
O107 P96 1.490 . S
H108 C124 0.939 . S
H109 C126 0.952 . S
C110 P96 1.812 . S
C110 C111 1.389 . S
C110 C115 1.391 . S
C111 H97 0.941 . S
C111 C110 1.389 . S
C111 C112 1.397 . S
C112 H98 0.939 . S
C112 C111 1.397 . S
C112 C113 1.378 . S
C113 C112 1.378 . S
C113 C114 1.378 . S
C114 H99 0.940 . S
C114 C113 1.378 . S
C114 C115 1.396 . S
C115 H100 0.940 . S
C115 C110 1.391 . S
C115 C114 1.396 . S
C116 P96 1.803 . S
C116 C117 1.378 . S
C116 C121 1.400 . S
C117 H101 0.939 . S
C117 C116 1.378 . S
C117 C118 1.361 . S
C118 H102 0.942 . S
C118 C117 1.361 . S
C118 C119 1.369 . S
C119 C118 1.369 . S
C119 C120 1.404 . S
C120 H103 0.940 . S
C120 C119 1.404 . S
C120 C121 1.389 . S
C121 H104 0.939 . S
C121 C116 1.400 . S
C121 C120 1.389 . S
C122 P96 1.819 . S
C122 C123 1.391 . S
C122 C127 1.391 . S
C123 H105 0.941 . S
C123 C122 1.391 . S
C123 C124 1.396 . S
C124 H108 0.939 . S
C124 C123 1.396 . S
C124 C125 1.397 . S
C125 C124 1.397 . S
C125 C126 1.385 . S
C126 H109 0.952 . S
C126 C125 1.385 . S
C126 C127 1.388 . S
C127 H106 0.939 . S
C127 C122 1.391 . S
C127 C126 1.388 . S
P128 O139 1.490 . S
P128 C142 1.812 1_554 S
P128 C148 1.803 . S
P128 C154 1.819 . S
H129 C143 0.941 . S
H130 C144 0.939 . S
H131 C146 0.940 . S
H132 C147 0.940 . S
H133 C149 0.939 . S
H134 C150 0.942 . S
H135 C152 0.940 . S
H136 C153 0.939 1_556 S
H137 C155 0.941 . S
H138 C159 0.939 . S
O139 P128 1.490 . S
H140 C156 0.939 . S
H141 C158 0.940 . S
C142 P128 1.812 1_556 S
C142 C143 1.389 . S
C142 C147 1.391 . S
C143 H129 0.941 . S
C143 C142 1.389 . S
C143 C144 1.397 . S
C144 H130 0.939 . S
C144 C143 1.397 . S
C144 C145 1.378 . S
C145 C144 1.378 . S
C145 C146 1.378 . S
C146 H131 0.940 . S
C146 C145 1.378 . S
C146 C147 1.396 . S
C147 H132 0.940 . S
C147 C142 1.391 . S
C147 C146 1.396 . S
C148 P128 1.803 . S
C148 C149 1.378 . S
C148 C153 1.400 . S
C149 H133 0.939 . S
C149 C148 1.378 . S
C149 C150 1.361 . S
C150 H134 0.942 . S
C150 C149 1.361 . S
C150 C151 1.369 . S
C151 C150 1.369 . S
C151 C152 1.404 . S
C152 H135 0.940 . S
C152 C151 1.404 . S
C152 C153 1.389 . S
C153 H136 0.939 1_554 S
C153 C148 1.400 . S
C153 C152 1.389 . S
C154 P128 1.819 . S
C154 C155 1.391 . S
C154 C159 1.391 . S
C155 H137 0.941 . S
C155 C154 1.391 . S
C155 C156 1.396 . S
C156 H140 0.939 . S
C156 C155 1.396 . S
C156 C157 1.397 . S
C157 C156 1.397 . S
C157 C158 1.385 . S
C158 H141 0.940 . S
C158 C157 1.385 . S
C158 C159 1.388 . S
C159 H138 0.939 . S
C159 C154 1.391 . S
C159 C158 1.388 . S
P160 O171 1.490 . S
P160 C174 1.812 1_554 S
P160 C180 1.803 . S
P160 C186 1.819 . S
H161 C175 0.941 . S
H162 C176 0.939 . S
H163 C178 0.940 . S
H164 C179 0.940 . S
H165 C181 0.939 . S
H166 C182 0.942 . S
H167 C184 0.940 . S
H168 C185 0.939 1_556 S
H169 C187 0.941 . S
H170 C191 0.939 . S
O171 P160 1.490 . S
H172 C188 0.939 . S
H173 C190 0.940 . S
C174 P160 1.812 1_556 S
C174 C175 1.389 . S
C174 C179 1.391 . S
C175 H161 0.941 . S
C175 C174 1.389 . S
C175 C176 1.397 . S
C176 H162 0.939 . S
C176 C175 1.397 . S
C176 C177 1.378 . S
C177 C176 1.378 . S
C177 C178 1.378 . S
C178 H163 0.940 . S
C178 C177 1.378 . S
C178 C179 1.396 . S
C179 H164 0.940 . S
C179 C174 1.391 . S
C179 C178 1.396 . S
C180 P160 1.803 . S
C180 C181 1.378 . S
C180 C185 1.400 . S
C181 H165 0.939 . S
C181 C180 1.378 . S
C181 C182 1.361 . S
C182 H166 0.942 . S
C182 C181 1.361 . S
C182 C183 1.369 . S
C183 C182 1.369 . S
C183 C184 1.404 . S
C184 H167 0.940 . S
C184 C183 1.404 . S
C184 C185 1.389 . S
C185 H168 0.939 1_554 S
C185 C180 1.400 . S
C185 C184 1.389 . S
C186 P160 1.819 . S
C186 C187 1.391 . S
C186 C191 1.391 . S
C187 H169 0.941 . S
C187 C186 1.391 . S
C187 C188 1.396 . S
C188 H172 0.939 . S
C188 C187 1.396 . S
C188 C189 1.397 . S
C189 C188 1.397 . S
C189 C190 1.385 . S
C190 H173 0.940 . S
C190 C189 1.385 . S
C190 C191 1.388 . S
C191 H170 0.939 . S
C191 C186 1.391 . S
C191 C190 1.388 . S
P192 O203 1.490 . S
P192 C206 1.812 1_554 S
P192 C212 1.803 . S
P192 C218 1.819 . S
H193 C207 0.941 . S
H194 C208 0.939 . S
H195 C210 0.940 . S
H196 C211 0.940 . S
H197 C213 0.939 . S
H198 C214 0.942 . S
H199 C216 0.940 . S
H200 C217 0.939 1_556 S
H201 C219 0.941 . S
H202 C223 0.939 . S
O203 P192 1.490 . S
H204 C220 0.939 . S
H205 C222 0.940 . S
C206 P192 1.812 1_556 S
C206 C207 1.389 . S
C206 C211 1.391 . S
C207 H193 0.941 . S
C207 C206 1.389 . S
C207 C208 1.397 . S
C208 H194 0.939 . S
C208 C207 1.397 . S
C208 C209 1.378 . S
C209 C208 1.378 . S
C209 C210 1.378 . S
C210 H195 0.940 . S
C210 C209 1.378 . S
C210 C211 1.396 . S
C211 H196 0.940 . S
C211 C206 1.391 . S
C211 C210 1.396 . S
C212 P192 1.803 . S
C212 C213 1.378 . S
C212 C217 1.400 . S
C213 H197 0.939 . S
C213 C212 1.378 . S
C213 C214 1.361 . S
C214 H198 0.942 . S
C214 C213 1.361 . S
C214 C215 1.369 . S
C215 C214 1.369 . S
C215 C216 1.404 . S
C216 H199 0.940 . S
C216 C215 1.404 . S
C216 C217 1.389 . S
C217 H200 0.939 1_554 S
C217 C212 1.400 . S
C217 C216 1.389 . S
C218 P192 1.819 . S
C218 C219 1.391 . S
C218 C223 1.391 . S
C219 H201 0.941 . S
C219 C218 1.391 . S
C219 C220 1.396 . S
C220 H204 0.939 . S
C220 C219 1.396 . S
C220 C221 1.397 . S
C221 C220 1.397 . S
C221 C222 1.385 . S
C222 H205 0.940 . S
C222 C221 1.385 . S
C222 C223 1.388 . S
C223 H202 0.939 . S
C223 C218 1.391 . S
C223 C222 1.388 . S
P224 O235 1.490 . S
P224 C238 1.812 1_554 S
P224 C244 1.803 . S
P224 C250 1.819 . S
H225 C239 0.941 . S
H226 C240 0.939 . S
H227 C242 0.940 . S
H228 C243 0.940 . S
H229 C245 0.939 . S
H230 C246 0.942 . S
H231 C248 0.940 . S
H232 C249 0.939 1_556 S
H233 C251 0.941 . S
H234 C255 0.939 . S
O235 P224 1.490 . S
H236 C252 0.939 . S
H237 C254 0.940 . S
C238 P224 1.812 1_556 S
C238 C239 1.389 . S
C238 C243 1.391 . S
C239 H225 0.941 . S
C239 C238 1.389 . S
C239 C240 1.397 . S
C240 H226 0.939 . S
C240 C239 1.397 . S
C240 C241 1.378 . S
C241 C240 1.378 . S
C241 C242 1.378 . S
C242 H227 0.940 . S
C242 C241 1.378 . S
C242 C243 1.396 . S
C243 H228 0.940 . S
C243 C238 1.391 . S
C243 C242 1.396 . S
C244 P224 1.803 . S
C244 C245 1.378 . S
C244 C249 1.400 . S
C245 H229 0.939 . S
C245 C244 1.378 . S
C245 C246 1.361 . S
C246 H230 0.942 . S
C246 C245 1.361 . S
C246 C247 1.369 . S
C247 C246 1.369 . S
C247 C248 1.404 . S
C248 H231 0.940 . S
C248 C247 1.404 . S
C248 C249 1.389 . S
C249 H232 0.939 1_554 S
C249 C244 1.400 . S
C249 C248 1.389 . S
C250 P224 1.819 . S
C250 C251 1.391 . S
C250 C255 1.391 . S
C251 H233 0.941 . S
C251 C250 1.391 . S
C251 C252 1.396 . S
C252 H236 0.939 . S
C252 C251 1.396 . S
C252 C253 1.397 . S
C253 C252 1.397 . S
C253 C254 1.385 . S
C254 H237 0.940 . S
C254 C253 1.385 . S
C254 C255 1.388 . S
C255 H234 0.939 . S
C255 C250 1.391 . S
C255 C254 1.388 . S
Tb256 N287 2.660 1_565 S
Tb256 N294 2.600 . S
Tb256 O300 2.546 . S
Tb256 O301 2.610 1_455 S
Tb256 O303 2.320 1_455 S
Tb256 O304 2.552 . S
Tb256 O305 2.413 . S
Tb256 O307 2.362 1_565 S
Tb256 O308 2.421 . S
Tb256 C320 2.833 . S
C257 C260 1.432 1_545 S
C257 C261 1.414 . S
C257 N264 1.359 . S
C258 C260 1.417 . S
C258 C262 1.432 . S
C258 C270 1.410 . S
C259 C261 1.444 1_565 S
C259 C262 1.317 . S
C259 H282 0.929 . S
C260 C257 1.432 1_565 S
C260 C258 1.417 . S
C260 N268 1.360 1_565 S
C261 C257 1.414 . S
C261 C259 1.444 1_545 S
C261 C266 1.385 . S
C262 C258 1.432 . S
C262 C259 1.317 . S
C262 H274 0.930 . S
C263 C265 1.392 . S
C263 C266 1.370 . S
C263 H275 0.931 . S
N264 C257 1.359 . S
N264 C265 1.327 . S
N264 Tb267 2.600 . S
C265 C263 1.392 . S
C265 N264 1.327 . S
C265 H272 0.930 . S
C266 C261 1.385 . S
C266 C263 1.370 . S
C266 H285 0.930 . S
Tb267 N264 2.600 . S
Tb267 N268 2.660 . S
Tb267 O301 2.362 1_545 S
Tb267 O302 2.421 . S
Tb267 O306 2.546 . S
Tb267 O307 2.610 1_655 S
Tb267 O309 2.320 1_655 S
Tb267 O310 2.552 1_655 S
Tb267 O311 2.413 . S
Tb267 C331 2.833 . S
N268 C260 1.360 1_545 S
N268 Tb267 2.660 . S
N268 C269 1.305 1_645 S
C269 N268 1.305 1_465 S
C269 C271 1.407 . S
C269 H276 0.930 . S
C270 C258 1.410 . S
C270 C271 1.345 1_655 S
C270 H278 0.930 . S
C271 C269 1.407 . S
C271 C270 1.345 1_455 S
C271 H273 0.930 . S
H272 C265 0.930 . S
H273 C271 0.930 . S
H274 C262 0.930 . S
H275 C263 0.931 . S
H276 C269 0.930 . S
H277 C291 0.930 1_655 S
H278 C270 0.930 . S
H279 C297 0.930 . S
H280 C288 0.930 1_655 S
H281 C295 0.931 . S
H282 C259 0.929 . S
H283 C289 0.930 . S
H284 C322 0.930 . S
H285 C266 0.930 . S
H286 C321 0.929 . S
N287 Tb256 2.660 1_545 S
N287 C288 1.305 . S
N287 C292 1.360 . S
C288 H280 0.930 1_455 S
C288 N287 1.305 . S
C288 C291 1.407 . S
C289 H283 0.930 . S
C289 C290 1.410 . S
C289 C291 1.345 . S
C290 C289 1.410 . S
C290 C292 1.417 . S
C290 C322 1.432 . S
C291 H277 0.930 1_455 S
C291 C288 1.407 . S
C291 C289 1.345 . S
C292 N287 1.360 . S
C292 C290 1.417 . S
C292 C296 1.432 . S
H293 C298 0.934 . S
N294 Tb256 2.600 . S
N294 C296 1.359 1_565 S
N294 C297 1.327 . S
C295 H281 0.931 . S
C295 C297 1.392 . S
C295 C298 1.370 . S
C296 C292 1.432 . S
C296 N294 1.359 1_545 S
C296 C299 1.414 . S
C297 H279 0.930 . S
C297 N294 1.327 . S
C297 C295 1.392 . S
C298 H293 0.934 . S
C298 C295 1.370 . S
C298 C299 1.385 1_565 S
C299 C296 1.414 . S
C299 C298 1.385 1_545 S
C299 C321 1.444 . S
O300 Tb256 2.546 . S
O300 C320 1.251 . S
O301 Tb256 2.610 1_655 S
O301 Tb267 2.362 1_565 S
O301 C312 1.283 . S
O302 Tb267 2.421 . S
O302 C319 1.262 . S
O303 Tb256 2.320 1_655 S
O303 C319 1.260 1_565 S
O304 Tb256 2.552 . S
O304 C312 1.243 1_455 S
O305 Tb256 2.413 . S
O305 C320 1.256 . S
O306 Tb267 2.546 . S
O306 C331 1.251 . S
O307 Tb256 2.362 1_545 S
O307 Tb267 2.610 1_455 S
O307 C323 1.283 . S
O308 Tb256 2.421 . S
O308 C330 1.262 1_565 S
O309 Tb267 2.320 1_455 S
O309 C330 1.260 . S
O310 Tb267 2.552 1_455 S
O310 C323 1.243 . S
O311 Tb267 2.413 . S
O311 C331 1.256 . S
C312 O301 1.283 . S
C312 O304 1.243 1_655 S
C313 C315 1.382 . S
C313 C317 1.393 . S
C313 C320 1.500 . S
C314 C315 1.400 . S
C314 C316 1.384 . S
C315 C313 1.382 . S
C315 C314 1.400 . S
C315 H332 0.930 1_455 S
C316 C314 1.384 . S
C316 C318 1.392 . S
C316 H333 0.931 . S
C317 C313 1.393 . S
C317 C318 1.401 . S
C317 H334 0.930 . S
C318 C316 1.392 . S
C318 C317 1.401 . S
C318 H335 0.930 . S
C319 O302 1.262 . S
C319 O303 1.260 1_545 S
C320 Tb256 2.833 . S
C320 O300 1.251 . S
C320 O305 1.256 . S
C320 C313 1.500 . S
C321 H286 0.929 . S
C321 C299 1.444 . S
C321 C322 1.317 . S
C322 H284 0.930 . S
C322 C290 1.432 . S
C322 C321 1.317 . S
C323 O307 1.283 . S
C323 O310 1.243 . S
C324 C325 1.382 . S
C324 C328 1.393 . S
C324 C331 1.500 . S
C325 C324 1.382 . S
C325 C326 1.400 . S
C325 H336 0.930 1_655 S
C326 C325 1.400 . S
C326 C327 1.384 . S
C327 C326 1.384 . S
C327 C329 1.392 . S
C327 H337 0.931 . S
C328 C324 1.393 . S
C328 C329 1.401 . S
C328 H338 0.930 . S
C329 C327 1.392 . S
C329 C328 1.401 . S
C329 H339 0.930 . S
C330 O308 1.262 1_545 S
C330 O309 1.260 . S
C331 Tb267 2.833 . S
C331 O306 1.251 . S
C331 O311 1.256 . S
C331 C324 1.500 . S
H332 C315 0.930 1_655 S
H333 C316 0.931 . S
H334 C317 0.930 . S
H335 C318 0.930 . S
H336 C325 0.930 1_455 S
H337 C327 0.931 . S
H338 C328 0.930 . S
H339 C329 0.930 . S
Tb340 N371 2.660 . S
Tb340 N378 2.600 . S
Tb340 O384 2.546 . S
Tb340 O385 2.610 1_545 S
Tb340 O387 2.320 1_545 S
Tb340 O388 2.552 . S
Tb340 O389 2.413 . S
Tb340 O391 2.362 . S
Tb340 O392 2.421 . S
Tb340 C404 2.833 . S
C341 C344 1.432 . S
C341 C345 1.414 . S
C341 N348 1.359 . S
C342 C344 1.417 . S
C342 C346 1.432 . S
C342 C354 1.410 . S
C343 C345 1.444 . S
C343 C346 1.317 . S
C343 H366 0.929 . S
C344 C341 1.432 . S
C344 C342 1.417 . S
C344 N352 1.360 . S
C345 C341 1.414 . S
C345 C343 1.444 . S
C345 C350 1.385 . S
C346 C342 1.432 . S
C346 C343 1.317 . S
C346 H358 0.930 . S
C347 C349 1.392 . S
C347 C350 1.370 . S
C347 H359 0.931 . S
N348 C341 1.359 . S
N348 C349 1.327 . S
N348 Tb351 2.600 . S
C349 C347 1.392 . S
C349 N348 1.327 . S
C349 H356 0.930 . S
C350 C345 1.385 . S
C350 C347 1.370 . S
C350 H369 0.930 . S
Tb351 N348 2.600 . S
Tb351 N352 2.660 . S
Tb351 O385 2.362 . S
Tb351 O386 2.421 . S
Tb351 O390 2.546 . S
Tb351 O391 2.610 1_565 S
Tb351 O393 2.320 1_565 S
Tb351 O394 2.552 1_565 S
Tb351 O395 2.413 . S
Tb351 C415 2.833 . S
N352 C344 1.360 . S
N352 Tb351 2.660 . S
N352 C353 1.305 1_565 S
C353 N352 1.305 1_545 S
C353 C355 1.407 . S
C353 H360 0.930 . S
C354 C342 1.410 . S
C354 C355 1.345 1_565 S
C354 H362 0.930 . S
C355 C353 1.407 . S
C355 C354 1.345 1_545 S
C355 H357 0.930 . S
H356 C349 0.930 . S
H357 C355 0.930 . S
H358 C346 0.930 . S
H359 C347 0.931 . S
H360 C353 0.930 . S
H361 C375 0.930 1_565 S
H362 C354 0.930 . S
H363 C381 0.930 . S
H364 C372 0.930 1_565 S
H365 C379 0.931 . S
H366 C343 0.929 . S
H367 C373 0.930 . S
H368 C406 0.930 . S
H369 C350 0.930 . S
H370 C405 0.929 . S
N371 Tb340 2.660 . S
N371 C372 1.305 . S
N371 C376 1.360 . S
C372 H364 0.930 1_545 S
C372 N371 1.305 . S
C372 C375 1.407 . S
C373 H367 0.930 . S
C373 C374 1.410 . S
C373 C375 1.345 . S
C374 C373 1.410 . S
C374 C376 1.417 . S
C374 C406 1.432 . S
C375 H361 0.930 1_545 S
C375 C372 1.407 . S
C375 C373 1.345 . S
C376 N371 1.360 . S
C376 C374 1.417 . S
C376 C380 1.432 . S
H377 C382 0.930 . S
N378 Tb340 2.600 . S
N378 C380 1.359 . S
N378 C381 1.327 . S
C379 H365 0.931 . S
C379 C381 1.392 . S
C379 C382 1.370 . S
C380 C376 1.432 . S
C380 N378 1.359 . S
C380 C383 1.414 . S
C381 H363 0.930 . S
C381 N378 1.327 . S
C381 C379 1.392 . S
C382 H377 0.930 . S
C382 C379 1.370 . S
C382 C383 1.385 . S
C383 C380 1.414 . S
C383 C382 1.385 . S
C383 C405 1.444 . S
O384 Tb340 2.546 . S
O384 C404 1.251 . S
O385 Tb340 2.610 1_565 S
O385 Tb351 2.362 . S
O385 C396 1.283 . S
O386 Tb351 2.421 . S
O386 C403 1.262 . S
O387 Tb340 2.320 1_565 S
O387 C403 1.260 . S
O388 Tb340 2.552 . S
O388 C396 1.243 1_545 S
O389 Tb340 2.413 . S
O389 C404 1.256 . S
O390 Tb351 2.546 . S
O390 C415 1.251 . S
O391 Tb340 2.362 . S
O391 Tb351 2.610 1_545 S
O391 C407 1.283 . S
O392 Tb340 2.421 . S
O392 C414 1.262 . S
O393 Tb351 2.320 1_545 S
O393 C414 1.260 . S
O394 Tb351 2.552 1_545 S
O394 C407 1.243 . S
O395 Tb351 2.413 . S
O395 C415 1.256 . S
C396 O385 1.283 . S
C396 O388 1.243 1_565 S
C397 C399 1.382 . S
C397 C401 1.393 . S
C397 C404 1.500 . S
C398 C399 1.400 . S
C398 C400 1.384 . S
C399 C397 1.382 . S
C399 C398 1.400 . S
C399 H416 0.952 . S
C400 C398 1.384 . S
C400 C402 1.392 . S
C400 H417 0.931 . S
C401 C397 1.393 . S
C401 C402 1.401 . S
C401 H418 0.930 . S
C402 C400 1.392 . S
C402 C401 1.401 . S
C402 H419 0.930 . S
C403 O386 1.262 . S
C403 O387 1.260 . S
C404 Tb340 2.833 . S
C404 O384 1.251 . S
C404 O389 1.256 . S
C404 C397 1.500 . S
C405 H370 0.929 . S
C405 C383 1.444 . S
C405 C406 1.317 . S
C406 H368 0.930 . S
C406 C374 1.432 . S
C406 C405 1.317 . S
C407 O391 1.283 . S
C407 O394 1.243 . S
C408 C409 1.382 . S
C408 C412 1.393 . S
C408 C415 1.500 . S
C409 C408 1.382 . S
C409 C410 1.400 . S
C409 H420 0.930 1_565 S
C410 C409 1.400 . S
C410 C411 1.384 . S
C411 C410 1.384 . S
C411 C413 1.392 . S
C411 H421 0.931 . S
C412 C408 1.393 . S
C412 C413 1.401 . S
C412 H422 0.930 . S
C413 C411 1.392 . S
C413 C412 1.401 . S
C413 H423 0.930 . S
C414 O392 1.262 . S
C414 O393 1.260 . S
C415 Tb351 2.833 . S
C415 O390 1.251 . S
C415 O395 1.256 . S
C415 C408 1.500 . S
H416 C399 0.952 . S
H417 C400 0.931 . S
H418 C401 0.930 . S
H419 C402 0.930 . S
H420 C409 0.930 1_545 S
H421 C411 0.931 . S
H422 C412 0.930 . S
H423 C413 0.930 . S
Tb424 N455 2.660 . S
Tb424 N462 2.600 . S
Tb424 O468 2.546 . S
Tb424 O469 2.610 . S
Tb424 O471 2.320 . S
Tb424 O472 2.552 . S
Tb424 O473 2.413 . S
Tb424 O475 2.362 . S
Tb424 O476 2.421 . S
Tb424 C488 2.833 . S
C425 C428 1.432 . S
C425 C429 1.414 . S
C425 N432 1.359 . S
C426 C428 1.417 . S
C426 C430 1.432 . S
C426 C438 1.410 . S
C427 C429 1.444 . S
C427 C430 1.317 . S
C427 H450 0.929 . S
C428 C425 1.432 . S
C428 C426 1.417 . S
C428 N436 1.360 . S
C429 C425 1.414 . S
C429 C427 1.444 . S
C429 C434 1.385 . S
C430 C426 1.432 . S
C430 C427 1.317 . S
C430 H442 0.930 . S
C431 C433 1.392 . S
C431 C434 1.370 . S
C431 H443 0.931 . S
N432 C425 1.359 . S
N432 C433 1.327 . S
N432 Tb435 2.600 . S
C433 C431 1.392 . S
C433 N432 1.327 . S
C433 H440 0.930 . S
C434 C429 1.385 . S
C434 C431 1.370 . S
C434 H453 0.930 . S
Tb435 N432 2.600 . S
Tb435 N436 2.660 . S
Tb435 O469 2.362 . S
Tb435 O470 2.421 . S
Tb435 O474 2.546 . S
Tb435 O475 2.610 . S
Tb435 O477 2.320 . S
Tb435 O478 2.552 . S
Tb435 O479 2.413 . S
Tb435 C499 2.833 . S
N436 C428 1.360 . S
N436 Tb435 2.660 . S
N436 C437 1.305 . S
C437 N436 1.305 . S
C437 C439 1.407 . S
C437 H444 0.930 . S
C438 C426 1.410 . S
C438 C439 1.345 . S
C438 H446 0.930 . S
C439 C437 1.407 . S
C439 C438 1.345 . S
C439 H441 0.930 . S
H440 C433 0.930 . S
H441 C439 0.930 . S
H442 C430 0.930 . S
H443 C431 0.931 . S
H444 C437 0.930 . S
H445 C459 0.930 . S
H446 C438 0.930 . S
H447 C465 0.930 . S
H448 C456 0.930 . S
H449 C463 0.931 . S
H450 C427 0.929 . S
H451 C457 0.930 . S
H452 C490 0.930 . S
H453 C434 0.930 . S
H454 C489 0.929 . S
N455 Tb424 2.660 . S
N455 C456 1.305 . S
N455 C460 1.360 . S
C456 H448 0.930 . S
C456 N455 1.305 . S
C456 C459 1.407 . S
C457 H451 0.930 . S
C457 C458 1.410 . S
C457 C459 1.345 . S
C458 C457 1.410 . S
C458 C460 1.417 . S
C458 C490 1.432 . S
C459 H445 0.930 . S
C459 C456 1.407 . S
C459 C457 1.345 . S
C460 N455 1.360 . S
C460 C458 1.417 . S
C460 C464 1.432 . S
H461 C466 0.930 . S
N462 Tb424 2.600 . S
N462 C464 1.359 . S
N462 C465 1.327 . S
C463 H449 0.931 . S
C463 C465 1.392 . S
C463 C466 1.370 . S
C464 C460 1.432 . S
C464 N462 1.359 . S
C464 C467 1.414 . S
C465 H447 0.930 . S
C465 N462 1.327 . S
C465 C463 1.392 . S
C466 H461 0.930 . S
C466 C463 1.370 . S
C466 C467 1.385 . S
C467 C464 1.414 . S
C467 C466 1.385 . S
C467 C489 1.444 . S
O468 Tb424 2.546 . S
O468 C488 1.251 . S
O469 Tb424 2.610 . S
O469 Tb435 2.362 . S
O469 C480 1.283 . S
O470 Tb435 2.421 . S
O470 C487 1.262 . S
O471 Tb424 2.320 . S
O471 C487 1.260 . S
O472 Tb424 2.552 . S
O472 C480 1.243 . S
O473 Tb424 2.413 . S
O473 C488 1.256 . S
O474 Tb435 2.546 . S
O474 C499 1.251 . S
O475 Tb424 2.362 . S
O475 Tb435 2.610 . S
O475 C491 1.283 . S
O476 Tb424 2.421 . S
O476 C498 1.262 . S
O477 Tb435 2.320 . S
O477 C498 1.260 . S
O478 Tb435 2.552 . S
O478 C491 1.243 . S
O479 Tb435 2.413 . S
O479 C499 1.256 . S
C480 O469 1.283 . S
C480 O472 1.243 . S
C481 C483 1.382 . S
C481 C485 1.393 . S
C481 C488 1.500 . S
C482 C483 1.400 . S
C482 C484 1.384 . S
C483 C481 1.382 . S
C483 C482 1.400 . S
C483 H500 0.930 . S
C484 C482 1.384 . S
C484 C486 1.392 . S
C484 H501 0.931 . S
C485 C481 1.393 . S
C485 C486 1.401 . S
C485 H502 0.930 . S
C486 C484 1.392 . S
C486 C485 1.401 . S
C486 H503 0.930 . S
C487 O470 1.262 . S
C487 O471 1.260 . S
C488 Tb424 2.833 . S
C488 O468 1.251 . S
C488 O473 1.256 . S
C488 C481 1.500 . S
C489 H454 0.929 . S
C489 C467 1.444 . S
C489 C490 1.317 . S
C490 H452 0.930 . S
C490 C458 1.432 . S
C490 C489 1.317 . S
C491 O475 1.283 . S
C491 O478 1.243 . S
C492 C493 1.382 . S
C492 C496 1.393 . S
C492 C499 1.500 . S
C493 C492 1.382 . S
C493 C494 1.400 . S
C493 H504 0.930 . S
C494 C493 1.400 . S
C494 C495 1.384 . S
C495 C494 1.384 . S
C495 C497 1.392 . S
C495 H505 0.931 . S
C496 C492 1.393 . S
C496 C497 1.401 . S
C496 H506 0.930 . S
C497 C495 1.392 . S
C497 C496 1.401 . S
C497 H507 0.930 . S
C498 O476 1.262 . S
C498 O477 1.260 . S
C499 Tb435 2.833 . S
C499 O474 1.251 . S
C499 O479 1.256 . S
C499 C492 1.500 . S
H500 C483 0.930 . S
H501 C484 0.931 . S
H502 C485 0.930 . S
H503 C486 0.930 . S
H504 C493 0.930 . S
H505 C495 0.931 . S
H506 C496 0.930 . S
H507 C497 0.930 . S
Tb508 N539 2.660 . S
Tb508 N546 2.600 . S
Tb508 O552 2.546 . S
Tb508 O553 2.610 . S
Tb508 O555 2.320 . S
Tb508 O556 2.552 . S
Tb508 O557 2.413 . S
Tb508 O559 2.393 . S
Tb508 O560 2.421 1_455 S
Tb508 C572 2.833 . S
C509 C512 1.432 . S
C509 C513 1.414 . S
C509 N516 1.359 . S
C510 C512 1.417 . S
C510 C514 1.432 . S
C510 C522 1.410 . S
C511 C513 1.444 . S
C511 C514 1.317 . S
C511 H534 0.929 . S
C512 C509 1.432 . S
C512 C510 1.417 . S
C512 N520 1.360 . S
C513 C509 1.414 . S
C513 C511 1.444 . S
C513 C518 1.385 . S
C514 C510 1.432 . S
C514 C511 1.317 . S
C514 H526 0.930 . S
C515 C517 1.392 . S
C515 C518 1.370 1_455 S
C515 H527 0.931 . S
N516 C509 1.359 . S
N516 C517 1.327 1_655 S
N516 Tb519 2.600 . S
C517 C515 1.392 . S
C517 N516 1.327 1_455 S
C517 H524 0.930 . S
C518 C513 1.385 . S
C518 C515 1.370 1_655 S
C518 H537 0.930 . S
Tb519 N516 2.600 . S
Tb519 N520 2.660 . S
Tb519 O553 2.362 1_655 S
Tb519 O554 2.421 1_655 S
Tb519 O558 2.546 . S
Tb519 O559 2.591 1_655 S
Tb519 O561 2.320 . S
Tb519 O562 2.552 . S
Tb519 O563 2.413 . S
Tb519 C583 2.833 . S
N520 C512 1.360 . S
N520 Tb519 2.660 . S
N520 C521 1.305 . S
C521 N520 1.305 . S
C521 C523 1.407 . S
C521 H528 0.930 . S
C522 C510 1.410 . S
C522 C523 1.345 . S
C522 H530 0.930 . S
C523 C521 1.407 . S
C523 C522 1.345 . S
C523 H525 0.930 . S
H524 C517 0.930 . S
H525 C523 0.930 . S
H526 C514 0.930 . S
H527 C515 0.931 . S
H528 C521 0.930 . S
H529 C543 0.930 . S
H530 C522 0.930 . S
H531 C549 0.930 1_655 S
H532 C540 0.930 . S
H533 C547 0.931 1_655 S
H534 C511 0.929 . S
H535 C541 0.930 . S
H536 C574 0.930 . S
H537 C518 0.930 . S
H538 C573 0.929 . S
N539 Tb508 2.660 . S
N539 C540 1.305 . S
N539 C544 1.360 . S
C540 H532 0.930 . S
C540 N539 1.305 . S
C540 C543 1.407 . S
C541 H535 0.930 . S
C541 C542 1.410 . S
C541 C543 1.345 . S
C542 C541 1.410 . S
C542 C544 1.417 . S
C542 C574 1.432 . S
C543 H529 0.930 . S
C543 C540 1.407 . S
C543 C541 1.345 . S
C544 N539 1.360 . S
C544 C542 1.417 . S
C544 C548 1.432 . S
H545 C550 0.930 . S
N546 Tb508 2.600 . S
N546 C548 1.359 . S
N546 C549 1.327 . S
C547 H533 0.931 1_455 S
C547 C549 1.392 . S
C547 C550 1.370 . S
C548 C544 1.432 . S
C548 N546 1.359 . S
C548 C551 1.414 . S
C549 H531 0.930 1_455 S
C549 N546 1.327 . S
C549 C547 1.392 . S
C550 H545 0.930 . S
C550 C547 1.370 . S
C550 C551 1.385 . S
C551 C548 1.414 . S
C551 C550 1.385 . S
C551 C573 1.444 . S
O552 Tb508 2.546 . S
O552 C572 1.251 . S
O553 Tb508 2.610 . S
O553 Tb519 2.362 1_455 S
O553 C564 1.283 . S
O554 Tb519 2.421 1_455 S
O554 C571 1.262 . S
O555 Tb508 2.320 . S
O555 C571 1.260 . S
O556 Tb508 2.552 . S
O556 C564 1.243 . S
O557 Tb508 2.413 . S
O557 C572 1.256 . S
O558 Tb519 2.546 . S
O558 C583 1.251 . S
O559 Tb508 2.393 . S
O559 Tb519 2.591 1_455 S
O559 C575 1.261 1_455 S
O560 Tb508 2.421 1_655 S
O560 C582 1.262 . S
O561 Tb519 2.320 . S
O561 C582 1.260 . S
O562 Tb519 2.552 . S
O562 C575 1.243 . S
O563 Tb519 2.413 . S
O563 C583 1.256 . S
C564 O553 1.283 . S
C564 O556 1.243 . S
C565 C567 1.382 . S
C565 C569 1.393 . S
C565 C572 1.500 . S
C566 C567 1.400 . S
C566 C568 1.384 . S
C567 C565 1.382 . S
C567 C566 1.400 . S
C567 H584 0.930 . S
C568 C566 1.384 . S
C568 C570 1.392 . S
C568 H585 0.931 . S
C569 C565 1.393 . S
C569 C570 1.401 . S
C569 H586 0.930 . S
C570 C568 1.392 . S
C570 C569 1.401 . S
C570 H587 0.930 . S
C571 O554 1.262 . S
C571 O555 1.260 . S
C572 Tb508 2.833 . S
C572 O552 1.251 . S
C572 O557 1.256 . S
C572 C565 1.500 . S
C573 H538 0.929 . S
C573 C551 1.444 . S
C573 C574 1.317 . S
C574 H536 0.930 . S
C574 C542 1.432 . S
C574 C573 1.317 . S
C575 O559 1.261 1_655 S
C575 O562 1.243 . S
C576 C577 1.382 . S
C576 C580 1.393 . S
C576 C583 1.500 . S
C577 C576 1.382 . S
C577 C578 1.400 . S
C577 H588 0.930 . S
C578 C577 1.400 . S
C578 C579 1.384 . S
C579 C578 1.384 . S
C579 C581 1.392 . S
C579 H589 0.931 . S
C580 C576 1.393 . S
C580 C581 1.401 . S
C580 H590 0.930 . S
C581 C579 1.392 . S
C581 C580 1.401 . S
C581 H591 0.930 . S
C582 O560 1.262 . S
C582 O561 1.260 . S
C583 Tb519 2.833 . S
C583 O558 1.251 . S
C583 O563 1.256 . S
C583 C576 1.500 . S
H584 C567 0.930 . S
H585 C568 0.931 . S
H586 C569 0.930 . S
H587 C570 0.930 . S
H588 C577 0.930 . S
H589 C579 0.931 . S
H590 C580 0.930 . S
H591 C581 0.930 . S
H592 C610 0.951 . S
H593 C612 0.951 . S
H594 C614 0.950 . S
H595 C615 0.950 . S
H596 C617 0.950 . S
H597 C620 0.950 . S
H598 C621 0.930 1_565 S
H599 C623 0.950 . S
H600 C624 0.950 . S
H601 C625 0.951 . S
H602 C627 0.951 . S
H603 C629 0.950 . S
H604 C630 0.950 . S
H605 C632 0.950 . S
H606 C635 0.950 . S
H607 C636 0.950 . S
H608 C638 0.950 . S
H609 C639 0.950 . S
C610 H592 0.951 . S
C610 C611 1.366 . S
C610 C612 1.388 . S
C611 C610 1.366 . S
C611 C615 1.385 . S
C612 H593 0.951 . S
C612 C610 1.388 . S
C612 C613 1.366 . S
C613 C612 1.366 . S
C613 C614 1.414 . S
C613 C616 1.499 . S
C614 H594 0.950 . S
C614 C613 1.414 . S
C614 C615 1.374 . S
C615 H595 0.950 . S
C615 C611 1.385 . S
C615 C614 1.374 . S
C616 C613 1.499 . S
C616 C617 1.373 . S
C616 C618 1.389 . S
C617 H596 0.950 . S
C617 C616 1.373 . S
C617 C633 1.377 . S
C618 C616 1.389 . S
C618 C619 1.524 . S
C618 C632 1.377 . S
C619 C618 1.524 . S
C619 C620 1.397 . S
C619 C624 1.363 . S
C620 H597 0.950 . S
C620 C619 1.397 . S
C620 C621 1.334 . S
C621 H598 0.930 1_545 S
C621 C620 1.334 . S
C621 C622 1.287 . S
C622 C621 1.287 . S
C622 C623 1.524 . S
C622 H641 0.913 . S
C623 H599 0.950 . S
C623 C622 1.524 . S
C623 C624 1.415 . S
C624 H600 0.950 . S
C624 C619 1.363 . S
C624 C623 1.415 . S
C625 H601 0.951 . S
C625 C626 1.366 . S
C625 C627 1.388 . S
C626 C625 1.366 . S
C626 C630 1.385 . S
C627 H602 0.951 . S
C627 C625 1.388 . S
C627 C628 1.366 . S
C628 C627 1.366 . S
C628 C629 1.414 . S
C628 C631 1.499 . S
C629 H603 0.950 . S
C629 C628 1.414 . S
C629 C630 1.374 . S
C630 H604 0.950 . S
C630 C626 1.385 . S
C630 C629 1.374 . S
C631 C628 1.499 . S
C631 C632 1.373 . S
C631 C633 1.389 . S
C632 H605 0.950 . S
C632 C618 1.377 . S
C632 C631 1.373 . S
C633 C617 1.377 . S
C633 C631 1.389 . S
C633 C634 1.524 . S
C634 C633 1.524 . S
C634 C635 1.397 . S
C634 C639 1.363 . S
C635 H606 0.950 . S
C635 C634 1.397 . S
C635 C636 1.334 . S
C636 H607 0.950 . S
C636 C635 1.334 . S
C636 C637 1.287 . S
C637 C636 1.287 . S
C637 C638 1.524 . S
C637 H640 0.999 . S
C638 H608 0.950 . S
C638 C637 1.524 . S
C638 C639 1.415 . S
C639 H609 0.950 . S
C639 C634 1.363 . S
C639 C638 1.415 . S
H640 C637 0.999 . S
H641 C622 0.913 . S
H642 C660 0.951 . S
H643 C662 0.951 . S
H644 C664 0.950 . S
H645 C665 0.950 . S
H646 C667 0.950 . S
H647 C670 0.950 . S
H648 C671 0.950 . S
H649 C673 0.950 . S
H650 C674 0.950 . S
H651 C675 0.951 . S
H652 C677 0.951 . S
H653 C679 0.950 . S
H654 C680 0.950 . S
H655 C682 0.950 . S
H656 C685 0.950 . S
H657 C686 0.950 . S
H658 C688 0.950 . S
H659 C689 0.950 . S
C660 H642 0.951 . S
C660 C661 1.366 . S
C660 C662 1.388 . S
C661 C660 1.366 . S
C661 C665 1.385 . S
C662 H643 0.951 . S
C662 C660 1.388 . S
C662 C663 1.366 . S
C663 C662 1.366 . S
C663 C664 1.414 . S
C663 C666 1.499 . S
C664 H644 0.950 . S
C664 C663 1.414 . S
C664 C665 1.374 . S
C665 H645 0.950 . S
C665 C661 1.385 . S
C665 C664 1.374 . S
C666 C663 1.499 . S
C666 C667 1.373 . S
C666 C668 1.389 . S
C667 H646 0.950 . S
C667 C666 1.373 . S
C667 C683 1.377 . S
C668 C666 1.389 . S
C668 C669 1.524 . S
C668 C682 1.377 . S
C669 C668 1.524 . S
C669 C670 1.397 . S
C669 C674 1.363 . S
C670 H647 0.950 . S
C670 C669 1.397 . S
C670 C671 1.334 . S
C671 H648 0.950 . S
C671 C670 1.334 . S
C671 C672 1.287 . S
C672 C671 1.287 . S
C672 C673 1.524 . S
C672 H691 0.913 . S
C673 H649 0.950 . S
C673 C672 1.524 . S
C673 C674 1.415 . S
C674 H650 0.950 . S
C674 C669 1.363 . S
C674 C673 1.415 . S
C675 H651 0.951 . S
C675 C676 1.366 . S
C675 C677 1.388 . S
C676 C675 1.366 . S
C676 C680 1.385 . S
C677 H652 0.951 . S
C677 C675 1.388 . S
C677 C678 1.366 . S
C678 C677 1.366 . S
C678 C679 1.414 . S
C678 C681 1.499 . S
C679 H653 0.950 . S
C679 C678 1.414 . S
C679 C680 1.374 . S
C680 H654 0.950 . S
C680 C676 1.385 . S
C680 C679 1.374 . S
C681 C678 1.499 . S
C681 C682 1.373 . S
C681 C683 1.389 . S
C682 H655 0.950 . S
C682 C668 1.377 . S
C682 C681 1.373 . S
C683 C667 1.377 . S
C683 C681 1.389 . S
C683 C684 1.524 . S
C684 C683 1.524 . S
C684 C685 1.397 . S
C684 C689 1.363 . S
C685 H656 0.950 . S
C685 C684 1.397 . S
C685 C686 1.334 . S
C686 H657 0.950 . S
C686 C685 1.334 . S
C686 C687 1.287 . S
C687 C686 1.287 . S
C687 C688 1.524 . S
C687 H690 0.999 . S
C688 H658 0.950 . S
C688 C687 1.524 . S
C688 C689 1.415 . S
C689 H659 0.950 . S
C689 C684 1.363 . S
C689 C688 1.415 . S
H690 C687 0.999 . S
H691 C672 0.913 . S
H692 C710 0.951 . S
H693 C712 0.951 . S
H694 C714 0.950 . S
H695 C715 0.950 . S
H696 C717 0.950 . S
H697 C720 0.950 . S
H698 C721 0.950 . S
H699 C723 0.950 . S
H700 C724 0.950 . S
H701 C725 0.951 . S
H702 C727 0.951 . S
H703 C729 0.950 . S
H704 C730 0.950 . S
H705 C732 0.950 . S
H706 C735 0.950 . S
H707 C736 0.950 . S
H708 C738 0.950 . S
H709 C739 0.950 . S
C710 H692 0.951 . S
C710 C711 1.366 . S
C710 C712 1.388 . S
C711 C710 1.366 . S
C711 C715 1.385 . S
C712 H693 0.951 . S
C712 C710 1.388 . S
C712 C713 1.366 . S
C713 C712 1.366 . S
C713 C714 1.414 . S
C713 C716 1.499 . S
C714 H694 0.950 . S
C714 C713 1.414 . S
C714 C715 1.374 . S
C715 H695 0.950 . S
C715 C711 1.385 . S
C715 C714 1.374 . S
C716 C713 1.499 . S
C716 C717 1.373 . S
C716 C718 1.389 . S
C717 H696 0.950 . S
C717 C716 1.373 . S
C717 C733 1.377 . S
C718 C716 1.389 . S
C718 C719 1.524 . S
C718 C732 1.377 . S
C719 C718 1.524 . S
C719 C720 1.397 . S
C719 C724 1.363 . S
C720 H697 0.950 . S
C720 C719 1.397 . S
C720 C721 1.334 . S
C721 H698 0.950 . S
C721 C720 1.334 . S
C721 C722 1.287 . S
C722 C721 1.287 . S
C722 C723 1.524 . S
C722 H741 0.913 . S
C723 H699 0.950 . S
C723 C722 1.524 . S
C723 C724 1.415 . S
C724 H700 0.950 . S
C724 C719 1.363 . S
C724 C723 1.415 . S
C725 H701 0.951 . S
C725 C726 1.366 . S
C725 C727 1.388 . S
C726 C725 1.366 . S
C726 C730 1.385 . S
C727 H702 0.951 . S
C727 C725 1.388 . S
C727 C728 1.366 . S
C728 C727 1.366 . S
C728 C729 1.414 . S
C728 C731 1.499 . S
C729 H703 0.950 . S
C729 C728 1.414 . S
C729 C730 1.374 . S
C730 H704 0.950 . S
C730 C726 1.385 . S
C730 C729 1.374 . S
C731 C728 1.499 . S
C731 C732 1.373 . S
C731 C733 1.389 . S
C732 H705 0.950 . S
C732 C718 1.377 . S
C732 C731 1.373 . S
C733 C717 1.377 . S
C733 C731 1.389 . S
C733 C734 1.524 . S
C734 C733 1.524 . S
C734 C735 1.397 . S
C734 C739 1.363 . S
C735 H706 0.950 . S
C735 C734 1.397 . S
C735 C736 1.334 . S
C736 H707 0.950 . S
C736 C735 1.334 . S
C736 C737 1.287 . S
C737 C736 1.287 . S
C737 C738 1.524 . S
C737 H740 0.999 . S
C738 H708 0.950 . S
C738 C737 1.524 . S
C738 C739 1.415 . S
C739 H709 0.950 . S
C739 C734 1.363 . S
C739 C738 1.415 . S
H740 C737 0.999 . S
H741 C722 0.913 . S
H742 C760 0.951 . S
H743 C762 0.951 . S
H744 C764 0.950 . S
H745 C765 0.950 . S
H746 C767 0.950 . S
H747 C770 0.950 . S
H748 C771 0.950 . S
H749 C773 0.950 . S
H750 C774 0.950 . S
H751 C775 0.951 . S
H752 C777 0.951 . S
H753 C779 0.950 . S
H754 C780 0.950 . S
H755 C782 0.950 . S
H756 C785 0.950 . S
H757 C786 0.950 . S
H758 C788 0.950 . S
H759 C789 0.950 . S
C760 H742 0.951 . S
C760 C761 1.366 . S
C760 C762 1.388 . S
C761 C760 1.366 . S
C761 C765 1.385 . S
C762 H743 0.951 . S
C762 C760 1.388 . S
C762 C763 1.366 . S
C763 C762 1.366 . S
C763 C764 1.414 . S
C763 C766 1.499 . S
C764 H744 0.950 . S
C764 C763 1.414 . S
C764 C765 1.374 . S
C765 H745 0.950 . S
C765 C761 1.385 . S
C765 C764 1.374 . S
C766 C763 1.499 . S
C766 C767 1.373 . S
C766 C768 1.389 . S
C767 H746 0.950 . S
C767 C766 1.373 . S
C767 C783 1.377 . S
C768 C766 1.389 . S
C768 C769 1.524 . S
C768 C782 1.377 . S
C769 C768 1.524 . S
C769 C770 1.397 . S
C769 C774 1.363 . S
C770 H747 0.950 . S
C770 C769 1.397 . S
C770 C771 1.334 . S
C771 H748 0.950 . S
C771 C770 1.334 . S
C771 C772 1.287 . S
C772 C771 1.287 . S
C772 C773 1.524 . S
C772 H791 0.913 . S
C773 H749 0.950 . S
C773 C772 1.524 . S
C773 C774 1.415 . S
C774 H750 0.950 . S
C774 C769 1.363 . S
C774 C773 1.415 . S
C775 H751 0.951 . S
C775 C776 1.366 . S
C775 C777 1.388 . S
C776 C775 1.366 . S
C776 C780 1.385 . S
C777 H752 0.951 . S
C777 C775 1.388 . S
C777 C778 1.366 . S
C778 C777 1.366 . S
C778 C779 1.414 . S
C778 C781 1.499 . S
C779 H753 0.950 . S
C779 C778 1.414 . S
C779 C780 1.374 . S
C780 H754 0.950 . S
C780 C776 1.385 . S
C780 C779 1.374 . S
C781 C778 1.499 . S
C781 C782 1.373 . S
C781 C783 1.389 . S
C782 H755 0.950 . S
C782 C768 1.377 . S
C782 C781 1.373 . S
C783 C767 1.377 . S
C783 C781 1.389 . S
C783 C784 1.524 . S
C784 C783 1.524 . S
C784 C785 1.397 1_455 S
C784 C789 1.363 . S
C785 H756 0.950 . S
C785 C784 1.397 1_655 S
C785 C786 1.334 . S
C786 H757 0.950 . S
C786 C785 1.334 . S
C786 C787 1.287 . S
C787 C786 1.287 . S
C787 C788 1.524 . S
C787 H790 0.999 . S
C788 H758 0.950 . S
C788 C787 1.524 . S
C788 C789 1.415 1_655 S
C789 H759 0.950 . S
C789 C784 1.363 . S
C789 C788 1.415 1_455 S
H790 C787 0.999 . S
H791 C772 0.913 . S
H792 C810 0.951 . S
H793 C812 0.951 . S
H794 C814 0.950 . S
H795 C815 0.950 . S
H796 C817 0.950 . S
H797 C820 0.950 . S
H798 C821 0.950 . S
H799 C823 0.950 . S
H800 C824 0.950 . S
H801 C825 0.951 . S
H802 C827 0.951 . S
H803 C829 0.950 . S
H804 C830 0.950 . S
H805 C832 0.950 . S
H806 C835 0.950 . S
H807 C836 0.950 . S
H808 C838 0.950 . S
H809 C839 0.952 1_565 S
C810 H792 0.951 . S
C810 C811 1.366 . S
C810 C812 1.388 1_554 S
C811 C810 1.366 . S
C811 C815 1.385 . S
C812 H793 0.951 . S
C812 C810 1.388 1_556 S
C812 C813 1.366 . S
C813 C812 1.366 . S
C813 C814 1.414 1_556 S
C813 C816 1.499 . S
C814 H794 0.950 . S
C814 C813 1.414 1_554 S
C814 C815 1.374 . S
C815 H795 0.950 . S
C815 C811 1.385 . S
C815 C814 1.374 . S
C816 C813 1.499 . S
C816 C817 1.373 . S
C816 C818 1.389 . S
C817 H796 0.950 . S
C817 C816 1.373 . S
C817 C833 1.377 . S
C818 C816 1.389 . S
C818 C819 1.524 . S
C818 C832 1.377 . S
C819 C818 1.524 . S
C819 C820 1.397 . S
C819 C824 1.363 . S
C820 H797 0.950 . S
C820 C819 1.397 . S
C820 C821 1.334 . S
C821 H798 0.950 . S
C821 C820 1.334 . S
C821 C822 1.287 . S
C822 C821 1.287 . S
C822 C823 1.524 . S
C822 H841 0.913 . S
C823 H799 0.950 . S
C823 C822 1.524 . S
C823 C824 1.415 . S
C824 H800 0.950 . S
C824 C819 1.363 . S
C824 C823 1.415 . S
C825 H801 0.951 . S
C825 C826 1.366 . S
C825 C827 1.388 . S
C826 C825 1.366 . S
C826 C830 1.385 . S
C827 H802 0.951 . S
C827 C825 1.388 . S
C827 C828 1.366 . S
C828 C827 1.366 . S
C828 C829 1.414 . S
C828 C831 1.499 . S
C829 H803 0.950 . S
C829 C828 1.414 . S
C829 C830 1.374 . S
C830 H804 0.950 . S
C830 C826 1.385 . S
C830 C829 1.374 . S
C831 C828 1.499 . S
C831 C832 1.373 . S
C831 C833 1.389 . S
C832 H805 0.950 . S
C832 C818 1.377 . S
C832 C831 1.373 . S
C833 C817 1.377 . S
C833 C831 1.389 . S
C833 C834 1.513 1_565 S
C834 C833 1.513 1_545 S
C834 C835 1.408 . S
C834 C839 1.363 . S
C835 H806 0.950 . S
C835 C834 1.408 . S
C835 C836 1.334 . S
C836 H807 0.950 . S
C836 C835 1.334 . S
C836 C837 1.287 . S
C837 C836 1.287 . S
C837 C838 1.524 . S
C837 H840 0.999 . S
C838 H808 0.950 . S
C838 C837 1.524 . S
C838 C839 1.414 . S
C839 H809 0.952 1_545 S
C839 C834 1.363 . S
C839 C838 1.414 . S
H840 C837 0.999 . S
H841 C822 0.913 . S
H842 C860 0.951 . S
H843 C862 0.951 . S
H844 C864 0.950 . S
H845 C865 0.950 1_556 S
H846 C867 0.950 . S
H847 C870 0.950 . S
H848 C871 0.950 . S
H849 C873 0.950 . S
H850 C874 0.950 . S
H851 C875 0.951 . S
H852 C877 0.951 . S
H853 C879 0.950 . S
H854 C880 0.950 . S
H855 C882 0.950 . S
H856 C885 0.950 . S
H857 C886 0.950 . S
H858 C888 0.950 . S
H859 C889 0.950 . S
C860 H842 0.951 . S
C860 C861 1.366 . S
C860 C862 1.388 . S
C861 C860 1.366 . S
C861 C865 1.385 . S
C862 H843 0.951 . S
C862 C860 1.388 . S
C862 C863 1.366 1_554 S
C863 C862 1.366 1_556 S
C863 C864 1.414 . S
C863 C866 1.499 . S
C864 H844 0.950 . S
C864 C863 1.414 . S
C864 C865 1.374 1_556 S
C865 H845 0.950 1_554 S
C865 C861 1.385 . S
C865 C864 1.374 1_554 S
C866 C863 1.499 . S
C866 C867 1.373 . S
C866 C868 1.389 . S
C867 H846 0.950 . S
C867 C866 1.373 . S
C867 C883 1.377 . S
C868 C866 1.389 . S
C868 C869 1.524 . S
C868 C882 1.377 . S
C869 C868 1.524 . S
C869 C870 1.397 . S
C869 C874 1.363 . S
C870 H847 0.950 . S
C870 C869 1.397 . S
C870 C871 1.334 1_556 S
C871 H848 0.950 . S
C871 C870 1.334 1_554 S
C871 C872 1.287 . S
C872 C871 1.287 . S
C872 C873 1.524 . S
C872 H891 0.913 . S
C873 H849 0.950 . S
C873 C872 1.524 . S
C873 C874 1.415 1_554 S
C874 H850 0.950 . S
C874 C869 1.363 . S
C874 C873 1.415 1_556 S
C875 H851 0.951 . S
C875 C876 1.366 . S
C875 C877 1.388 . S
C876 C875 1.366 . S
C876 C880 1.385 . S
C877 H852 0.951 . S
C877 C875 1.388 . S
C877 C878 1.366 . S
C878 C877 1.366 . S
C878 C879 1.414 . S
C878 C881 1.499 . S
C879 H853 0.950 . S
C879 C878 1.414 . S
C879 C880 1.374 . S
C880 H854 0.950 . S
C880 C876 1.385 . S
C880 C879 1.374 . S
C881 C878 1.499 . S
C881 C882 1.373 . S
C881 C883 1.389 . S
C882 H855 0.950 . S
C882 C868 1.377 . S
C882 C881 1.373 . S
C883 C867 1.377 . S
C883 C881 1.389 . S
C883 C884 1.524 . S
C884 C883 1.524 . S
C884 C885 1.397 . S
C884 C889 1.363 . S
C885 H856 0.950 . S
C885 C884 1.397 . S
C885 C886 1.334 . S
C886 H857 0.950 . S
C886 C885 1.334 . S
C886 C887 1.287 . S
C887 C886 1.287 . S
C887 C888 1.524 . S
C887 H890 0.999 . S
C888 H858 0.950 . S
C888 C887 1.524 . S
C888 C889 1.415 . S
C889 H859 0.950 . S
C889 C884 1.363 . S
C889 C888 1.415 . S
H890 C887 0.999 . S
H891 C872 0.913 . S
H892 C910 0.951 . S
H893 C912 0.951 . S
H894 C914 0.950 . S
H895 C915 0.949 1_556 S
H896 C917 0.950 . S
H897 C920 0.950 . S
H898 C921 0.950 . S
H899 C923 0.950 . S
H900 C924 0.952 . S
H901 C925 0.951 . S
H902 C927 0.951 . S
H903 C929 0.950 . S
H904 C930 0.950 . S
H905 C932 0.950 . S
H906 C935 0.950 . S
H907 C936 0.950 . S
H908 C938 0.950 . S
H909 C939 0.950 . S
C910 H892 0.951 . S
C910 C911 1.366 . S
C910 C912 1.388 . S
C911 C910 1.366 . S
C911 C915 1.390 . S
C912 H893 0.951 . S
C912 C910 1.388 . S
C912 C913 1.366 1_554 S
C913 C912 1.366 1_556 S
C913 C914 1.414 . S
C913 C916 1.499 . S
C914 H894 0.950 . S
C914 C913 1.414 . S
C914 C915 1.370 1_556 S
C915 H895 0.949 1_554 S
C915 C911 1.390 . S
C915 C914 1.370 1_554 S
C916 C913 1.499 . S
C916 C917 1.373 . S
C916 C918 1.389 . S
C917 H896 0.950 . S
C917 C916 1.373 . S
C917 C933 1.377 . S
C918 C916 1.389 . S
C918 C919 1.524 . S
C918 C932 1.377 . S
C919 C918 1.524 . S
C919 C920 1.397 . S
C919 C924 1.365 . S
C920 H897 0.950 . S
C920 C919 1.397 . S
C920 C921 1.334 1_556 S
C921 H898 0.950 . S
C921 C920 1.334 1_554 S
C921 C922 1.287 . S
C922 C921 1.287 . S
C922 C923 1.524 . S
C922 H941 0.913 . S
C923 H899 0.950 . S
C923 C922 1.524 . S
C923 C924 1.411 1_554 S
C924 H900 0.952 . S
C924 C919 1.365 . S
C924 C923 1.411 1_556 S
C925 H901 0.951 . S
C925 C926 1.366 . S
C925 C927 1.388 . S
C926 C925 1.366 . S
C926 C930 1.385 . S
C927 H902 0.951 . S
C927 C925 1.388 . S
C927 C928 1.366 . S
C928 C927 1.366 . S
C928 C929 1.414 . S
C928 C931 1.499 . S
C929 H903 0.950 . S
C929 C928 1.414 . S
C929 C930 1.374 . S
C930 H904 0.950 . S
C930 C926 1.385 . S
C930 C929 1.374 . S
C931 C928 1.499 . S
C931 C932 1.373 . S
C931 C933 1.389 . S
C932 H905 0.950 . S
C932 C918 1.377 . S
C932 C931 1.373 . S
C933 C917 1.377 . S
C933 C931 1.389 . S
C933 C934 1.524 . S
C934 C933 1.524 . S
C934 C935 1.397 . S
C934 C939 1.363 . S
C935 H906 0.950 . S
C935 C934 1.397 . S
C935 C936 1.334 . S
C936 H907 0.950 . S
C936 C935 1.334 . S
C936 C937 1.287 . S
C937 C936 1.287 . S
C937 C938 1.524 . S
C937 H940 0.999 . S
C938 H908 0.950 . S
C938 C937 1.524 . S
C938 C939 1.415 . S
C939 H909 0.950 . S
C939 C934 1.363 . S
C939 C938 1.415 . S
H940 C937 0.999 . S
H941 C922 0.913 . S
H942 C960 0.951 . S
H943 C962 0.951 . S
H944 C964 0.950 . S
H945 C965 0.950 . S
H946 C967 0.950 . S
H947 C970 0.950 . S
H948 C971 0.950 . S
H949 C973 0.950 . S
H950 C974 0.950 . S
H951 C975 0.989 . S
H952 C977 0.951 1_455 S
H953 C979 0.950 . S
H954 C980 0.950 . S
H955 C982 0.950 . S
H956 C985 0.950 . S
H957 C986 0.950 1_655 S
H958 C988 0.950 . S
H959 C989 0.950 . S
C960 H942 0.951 . S
C960 C961 1.366 . S
C960 C962 1.388 1_554 S
C961 C960 1.366 . S
C961 C965 1.385 . S
C962 H943 0.951 . S
C962 C960 1.388 1_556 S
C962 C963 1.366 . S
C963 C962 1.366 . S
C963 C964 1.414 1_556 S
C963 C966 1.499 . S
C964 H944 0.950 . S
C964 C963 1.414 1_554 S
C964 C965 1.374 . S
C965 H945 0.950 . S
C965 C961 1.385 . S
C965 C964 1.374 . S
C966 C963 1.499 . S
C966 C967 1.373 . S
C966 C968 1.389 . S
C967 H946 0.950 . S
C967 C966 1.373 . S
C967 C983 1.377 . S
C968 C966 1.389 . S
C968 C969 1.524 . S
C968 C982 1.377 . S
C969 C968 1.524 . S
C969 C970 1.397 1_556 S
C969 C974 1.363 . S
C970 H947 0.950 . S
C970 C969 1.397 1_554 S
C970 C971 1.334 . S
C971 H948 0.950 . S
C971 C970 1.334 . S
C971 C972 1.287 . S
C972 C971 1.287 . S
C972 C973 1.524 1_554 S
C972 H991 0.913 . S
C973 H949 0.950 . S
C973 C972 1.524 1_556 S
C973 C974 1.415 . S
C974 H950 0.950 . S
C974 C969 1.363 . S
C974 C973 1.415 . S
C975 H951 0.989 . S
C975 C976 1.340 1_455 S
C975 C977 1.377 1_455 S
C976 C975 1.340 1_655 S
C976 C980 1.385 . S
C977 H952 0.951 1_655 S
C977 C975 1.377 1_655 S
C977 C978 1.366 . S
C978 C977 1.366 . S
C978 C979 1.414 . S
C978 C981 1.499 . S
C979 H953 0.950 . S
C979 C978 1.414 . S
C979 C980 1.374 . S
C980 H954 0.950 . S
C980 C976 1.385 . S
C980 C979 1.374 . S
C981 C978 1.499 . S
C981 C982 1.373 . S
C981 C983 1.389 . S
C982 H955 0.950 . S
C982 C968 1.377 . S
C982 C981 1.373 . S
C983 C967 1.377 . S
C983 C981 1.389 . S
C983 C984 1.524 . S
C984 C983 1.524 . S
C984 C985 1.397 . S
C984 C989 1.363 1_655 S
C985 H956 0.950 . S
C985 C984 1.397 . S
C985 C986 1.334 1_655 S
C986 H957 0.950 1_455 S
C986 C985 1.334 1_455 S
C986 C987 1.287 . S
C987 C986 1.287 . S
C987 C988 1.524 . S
C987 H990 0.999 . S
C988 H958 0.950 . S
C988 C987 1.524 . S
C988 C989 1.415 . S
C989 H959 0.950 . S
C989 C984 1.363 1_455 S
C989 C988 1.415 . S
H990 C987 0.999 . S
H991 C972 0.913 . S
H992 C1010 0.951 . S
H993 C1012 0.951 . S
H994 C1014 0.950 . S
H995 C1015 0.950 . S
H996 C1017 0.950 . S
H997 C1020 0.950 . S
H998 C1021 0.950 . S
H999 C1023 0.950 . S
H1000 C1024 0.930 1_655 S
H1001 C1025 0.951 . S
H1002 C1027 0.951 . S
H1003 C1029 0.950 1_655 S
H1004 C1030 0.950 . S
H1005 C1032 0.950 . S
H1006 C1035 0.950 . S
H1007 C1036 0.950 . S
H1008 C1038 0.950 . S
H1009 C1039 0.950 . S
C1010 H992 0.951 . S
C1010 C1011 1.366 . S
C1010 C1012 1.388 . S
C1011 C1010 1.366 . S
C1011 C1015 1.385 . S
C1012 H993 0.951 . S
C1012 C1010 1.388 . S
C1012 C1013 1.366 . S
C1013 C1012 1.366 . S
C1013 C1014 1.414 . S
C1013 C1016 1.499 . S
C1014 H994 0.950 . S
C1014 C1013 1.414 . S
C1014 C1015 1.374 . S
C1015 H995 0.950 . S
C1015 C1011 1.385 . S
C1015 C1014 1.374 . S
C1016 C1013 1.499 . S
C1016 C1017 1.373 . S
C1016 C1018 1.389 . S
C1017 H996 0.950 . S
C1017 C1016 1.373 . S
C1017 C1033 1.377 . S
C1018 C1016 1.389 . S
C1018 C1019 1.524 . S
C1018 C1032 1.377 . S
C1019 C1018 1.524 . S
C1019 C1020 1.397 . S
C1019 C1024 1.410 . S
C1020 H997 0.950 . S
C1020 C1019 1.397 . S
C1020 C1021 1.334 . S
C1021 H998 0.950 . S
C1021 C1020 1.334 . S
C1021 C1022 1.287 . S
C1022 C1021 1.287 . S
C1022 C1023 1.524 1_455 S
C1022 H1041 0.913 1_455 S
C1023 H999 0.950 . S
C1023 C1022 1.524 1_655 S
C1023 C1024 1.389 1_655 S
C1024 H1000 0.930 1_455 S
C1024 C1019 1.410 . S
C1024 C1023 1.389 1_455 S
C1025 H1001 0.951 . S
C1025 C1026 1.366 . S
C1025 C1027 1.388 . S
C1026 C1025 1.366 . S
C1026 C1030 1.385 1_455 S
C1027 H1002 0.951 . S
C1027 C1025 1.388 . S
C1027 C1028 1.366 . S
C1028 C1027 1.366 . S
C1028 C1029 1.414 . S
C1028 C1031 1.499 . S
C1029 H1003 0.950 1_455 S
C1029 C1028 1.414 . S
C1029 C1030 1.374 1_455 S
C1030 H1004 0.950 . S
C1030 C1026 1.385 1_655 S
C1030 C1029 1.374 1_655 S
C1031 C1028 1.499 . S
C1031 C1032 1.373 . S
C1031 C1033 1.389 . S
C1032 H1005 0.950 . S
C1032 C1018 1.377 . S
C1032 C1031 1.373 . S
C1033 C1017 1.377 . S
C1033 C1031 1.389 . S
C1033 C1034 1.524 . S
C1034 C1033 1.524 . S
C1034 C1035 1.397 . S
C1034 C1039 1.363 . S
C1035 H1006 0.950 . S
C1035 C1034 1.397 . S
C1035 C1036 1.334 . S
C1036 H1007 0.950 . S
C1036 C1035 1.334 . S
C1036 C1037 1.287 . S
C1037 C1036 1.287 . S
C1037 C1038 1.524 . S
C1037 H1040 0.999 . S
C1038 H1008 0.950 . S
C1038 C1037 1.524 . S
C1038 C1039 1.415 . S
C1039 H1009 0.950 . S
C1039 C1034 1.363 . S
C1039 C1038 1.415 . S
H1040 C1037 0.999 . S
H1041 C1022 0.913 1_655 S
H1042 C1060 0.951 . S
H1043 C1062 0.951 . S
H1044 C1064 0.950 . S
H1045 C1065 0.950 . S
H1046 C1067 0.950 . S
H1047 C1070 0.950 . S
H1048 C1071 0.950 . S
H1049 C1073 0.950 . S
H1050 C1074 0.950 . S
H1051 C1075 0.951 1_565 S
H1052 C1077 0.951 . S
H1053 C1079 0.950 . S
H1054 C1080 0.950 . S
H1055 C1082 0.950 . S
H1056 C1085 0.950 . S
H1057 C1086 0.950 . S
H1058 C1088 0.950 . S
H1059 C1089 0.950 . S
C1060 H1042 0.951 . S
C1060 C1061 1.366 . S
C1060 C1062 1.388 . S
C1061 C1060 1.366 . S
C1061 C1065 1.385 . S
C1062 H1043 0.951 . S
C1062 C1060 1.388 . S
C1062 C1063 1.366 . S
C1063 C1062 1.366 . S
C1063 C1064 1.414 . S
C1063 C1066 1.499 . S
C1064 H1044 0.950 . S
C1064 C1063 1.414 . S
C1064 C1065 1.374 . S
C1065 H1045 0.950 . S
C1065 C1061 1.385 . S
C1065 C1064 1.374 . S
C1066 C1063 1.499 . S
C1066 C1067 1.373 . S
C1066 C1068 1.389 . S
C1067 H1046 0.950 . S
C1067 C1066 1.373 . S
C1067 C1083 1.377 . S
C1068 C1066 1.389 . S
C1068 C1069 1.524 . S
C1068 C1082 1.377 . S
C1069 C1068 1.524 . S
C1069 C1070 1.397 . S
C1069 C1074 1.363 . S
C1070 H1047 0.950 . S
C1070 C1069 1.397 . S
C1070 C1071 1.334 . S
C1071 H1048 0.950 . S
C1071 C1070 1.334 . S
C1071 C1072 1.287 . S
C1072 C1071 1.287 . S
C1072 C1073 1.524 . S
C1072 H1091 0.913 1_545 S
C1073 H1049 0.950 . S
C1073 C1072 1.524 . S
C1073 C1074 1.415 . S
C1074 H1050 0.950 . S
C1074 C1069 1.363 . S
C1074 C1073 1.415 . S
C1075 H1051 0.951 1_545 S
C1075 C1076 1.366 . S
C1075 C1077 1.388 . S
C1076 C1075 1.366 . S
C1076 C1080 1.385 . S
C1077 H1052 0.951 . S
C1077 C1075 1.388 . S
C1077 C1078 1.366 . S
C1078 C1077 1.366 . S
C1078 C1079 1.414 . S
C1078 C1081 1.499 . S
C1079 H1053 0.950 . S
C1079 C1078 1.414 . S
C1079 C1080 1.374 . S
C1080 H1054 0.950 . S
C1080 C1076 1.385 . S
C1080 C1079 1.374 . S
C1081 C1078 1.499 . S
C1081 C1082 1.373 . S
C1081 C1083 1.389 . S
C1082 H1055 0.950 . S
C1082 C1068 1.377 . S
C1082 C1081 1.373 . S
C1083 C1067 1.377 . S
C1083 C1081 1.389 . S
C1083 C1084 1.524 . S
C1084 C1083 1.524 . S
C1084 C1085 1.397 . S
C1084 C1089 1.363 . S
C1085 H1056 0.950 . S
C1085 C1084 1.397 . S
C1085 C1086 1.334 . S
C1086 H1057 0.950 . S
C1086 C1085 1.334 . S
C1086 C1087 1.287 . S
C1087 C1086 1.287 . S
C1087 C1088 1.524 . S
C1087 H1090 0.999 . S
C1088 H1058 0.950 . S
C1088 C1087 1.524 . S
C1088 C1089 1.415 . S
C1089 H1059 0.950 . S
C1089 C1084 1.363 . S
C1089 C1088 1.415 . S
H1090 C1087 0.999 . S
H1091 C1072 0.913 1_565 S
H1092 C1110 0.951 . S
H1093 C1112 0.951 . S
H1094 C1114 0.950 . S
H1095 C1115 0.950 . S
H1096 C1117 0.950 . S
H1097 C1120 0.950 . S
H1098 C1121 0.950 . S
H1099 C1123 0.950 . S
H1100 C1124 0.950 . S
H1101 C1125 0.951 . S
H1102 C1127 0.951 . S
H1103 C1129 0.950 . S
H1104 C1130 0.950 . S
H1105 C1132 0.950 . S
H1106 C1135 0.950 . S
H1107 C1136 0.950 . S
H1108 C1138 0.950 . S
H1109 C1139 0.950 . S
C1110 H1092 0.951 . S
C1110 C1111 1.366 . S
C1110 C1112 1.388 . S
C1111 C1110 1.366 . S
C1111 C1115 1.385 . S
C1112 H1093 0.951 . S
C1112 C1110 1.388 . S
C1112 C1113 1.366 . S
C1113 C1112 1.366 . S
C1113 C1114 1.414 . S
C1113 C1116 1.499 . S
C1114 H1094 0.950 . S
C1114 C1113 1.414 . S
C1114 C1115 1.374 . S
C1115 H1095 0.950 . S
C1115 C1111 1.385 . S
C1115 C1114 1.374 . S
C1116 C1113 1.499 . S
C1116 C1117 1.373 . S
C1116 C1118 1.389 . S
C1117 H1096 0.950 . S
C1117 C1116 1.373 . S
C1117 C1133 1.377 . S
C1118 C1116 1.389 . S
C1118 C1119 1.524 . S
C1118 C1132 1.377 . S
C1119 C1118 1.524 . S
C1119 C1120 1.397 . S
C1119 C1124 1.363 . S
C1120 H1097 0.950 . S
C1120 C1119 1.397 . S
C1120 C1121 1.334 . S
C1121 H1098 0.950 . S
C1121 C1120 1.334 . S
C1121 C1122 1.287 . S
C1122 C1121 1.287 . S
C1122 C1123 1.524 . S
C1122 H1141 0.913 . S
C1123 H1099 0.950 . S
C1123 C1122 1.524 . S
C1123 C1124 1.415 . S
C1124 H1100 0.950 . S
C1124 C1119 1.363 . S
C1124 C1123 1.415 . S
C1125 H1101 0.951 . S
C1125 C1126 1.366 . S
C1125 C1127 1.388 . S
C1126 C1125 1.366 . S
C1126 C1130 1.385 . S
C1127 H1102 0.951 . S
C1127 C1125 1.388 . S
C1127 C1128 1.366 . S
C1128 C1127 1.366 . S
C1128 C1129 1.414 . S
C1128 C1131 1.499 . S
C1129 H1103 0.950 . S
C1129 C1128 1.414 . S
C1129 C1130 1.374 . S
C1130 H1104 0.950 . S
C1130 C1126 1.385 . S
C1130 C1129 1.374 . S
C1131 C1128 1.499 . S
C1131 C1132 1.373 . S
C1131 C1133 1.389 . S
C1132 H1105 0.950 . S
C1132 C1118 1.377 . S
C1132 C1131 1.373 . S
C1133 C1117 1.377 . S
C1133 C1131 1.389 . S
C1133 C1134 1.524 . S
C1134 C1133 1.524 . S
C1134 C1135 1.397 . S
C1134 C1139 1.363 . S
C1135 H1106 0.950 . S
C1135 C1134 1.397 . S
C1135 C1136 1.334 . S
C1136 H1107 0.950 . S
C1136 C1135 1.334 . S
C1136 C1137 1.287 . S
C1137 C1136 1.287 . S
C1137 C1138 1.524 . S
C1137 H1140 0.999 . S
C1138 H1108 0.950 . S
C1138 C1137 1.524 . S
C1138 C1139 1.415 . S
C1139 H1109 0.950 . S
C1139 C1134 1.363 . S
C1139 C1138 1.415 . S
H1140 C1137 0.999 . S
H1141 C1122 0.913 . S
H1142 C1160 0.951 . S
H1143 C1162 0.951 . S
H1144 C1164 0.950 . S
H1145 C1165 0.950 . S
H1146 C1167 0.950 . S
H1147 C1170 0.950 . S
H1148 C1171 0.950 . S
H1149 C1173 0.950 . S
H1150 C1174 0.950 . S
H1151 C1175 0.951 . S
H1152 C1177 0.951 . S
H1153 C1179 0.950 . S
H1154 C1180 0.950 . S
H1155 C1182 0.950 . S
H1156 C1185 0.950 . S
H1157 C1186 0.950 . S
H1158 C1188 0.950 . S
H1159 C1189 0.950 . S
C1160 H1142 0.951 . S
C1160 C1161 1.366 . S
C1160 C1162 1.388 . S
C1161 C1160 1.366 . S
C1161 C1165 1.385 . S
C1162 H1143 0.951 . S
C1162 C1160 1.388 . S
C1162 C1163 1.366 . S
C1163 C1162 1.366 . S
C1163 C1164 1.414 . S
C1163 C1166 1.499 . S
C1164 H1144 0.950 . S
C1164 C1163 1.414 . S
C1164 C1165 1.374 . S
C1165 H1145 0.950 . S
C1165 C1161 1.385 . S
C1165 C1164 1.374 . S
C1166 C1163 1.499 . S
C1166 C1167 1.373 . S
C1166 C1168 1.389 . S
C1167 H1146 0.950 . S
C1167 C1166 1.373 . S
C1167 C1183 1.377 . S
C1168 C1166 1.389 . S
C1168 C1169 1.524 . S
C1168 C1182 1.377 . S
C1169 C1168 1.524 . S
C1169 C1170 1.397 . S
C1169 C1174 1.363 . S
C1170 H1147 0.950 . S
C1170 C1169 1.397 . S
C1170 C1171 1.334 . S
C1171 H1148 0.950 . S
C1171 C1170 1.334 . S
C1171 C1172 1.287 . S
C1172 C1171 1.287 . S
C1172 C1173 1.524 . S
C1172 H1191 0.913 . S
C1173 H1149 0.950 . S
C1173 C1172 1.524 . S
C1173 C1174 1.415 . S
C1174 H1150 0.950 . S
C1174 C1169 1.363 . S
C1174 C1173 1.415 . S
C1175 H1151 0.951 . S
C1175 C1176 1.366 . S
C1175 C1177 1.388 . S
C1176 C1175 1.366 . S
C1176 C1180 1.385 . S
C1177 H1152 0.951 . S
C1177 C1175 1.388 . S
C1177 C1178 1.366 . S
C1178 C1177 1.366 . S
C1178 C1179 1.414 . S
C1178 C1181 1.499 . S
C1179 H1153 0.950 . S
C1179 C1178 1.414 . S
C1179 C1180 1.374 . S
C1180 H1154 0.950 . S
C1180 C1176 1.385 . S
C1180 C1179 1.374 . S
C1181 C1178 1.499 . S
C1181 C1182 1.373 . S
C1181 C1183 1.389 . S
C1182 H1155 0.950 . S
C1182 C1168 1.377 . S
C1182 C1181 1.373 . S
C1183 C1167 1.377 . S
C1183 C1181 1.389 . S
C1183 C1184 1.524 . S
C1184 C1183 1.524 . S
C1184 C1185 1.397 . S
C1184 C1189 1.363 . S
C1185 H1156 0.950 . S
C1185 C1184 1.397 . S
C1185 C1186 1.334 . S
C1186 H1157 0.950 . S
C1186 C1185 1.334 . S
C1186 C1187 1.287 . S
C1187 C1186 1.287 . S
C1187 C1188 1.524 . S
C1187 H1190 0.999 . S
C1188 H1158 0.950 . S
C1188 C1187 1.524 . S
C1188 C1189 1.415 . S
C1189 H1159 0.950 . S
C1189 C1184 1.363 . S
C1189 C1188 1.415 . S
H1190 C1187 0.999 . S
H1191 C1172 0.913 . S
H1192 C1210 0.951 . S
H1193 C1212 0.951 . S
H1194 C1214 0.950 . S
H1195 C1215 0.950 . S
H1196 C1217 0.950 . S
H1197 C1220 0.950 . S
H1198 C1221 0.950 . S
H1199 C1223 0.950 . S
H1200 C1224 0.950 1_554 S
H1201 C1225 0.947 1_455 S
H1202 C1227 0.951 . S
H1203 C1229 0.950 . S
H1204 C1230 0.956 . S
H1205 C1232 0.950 . S
H1206 C1235 0.950 . S
H1207 C1236 0.950 . S
H1208 C1238 0.950 . S
H1209 C1239 0.950 1_655 S
C1210 H1192 0.951 . S
C1210 C1211 1.366 . S
C1210 C1212 1.388 . S
C1211 C1210 1.366 . S
C1211 C1215 1.385 1_554 S
C1212 H1193 0.951 . S
C1212 C1210 1.388 . S
C1212 C1213 1.366 1_554 S
C1213 C1212 1.366 1_556 S
C1213 C1214 1.414 . S
C1213 C1216 1.499 . S
C1214 H1194 0.950 . S
C1214 C1213 1.414 . S
C1214 C1215 1.374 . S
C1215 H1195 0.950 . S
C1215 C1211 1.385 1_556 S
C1215 C1214 1.374 . S
C1216 C1213 1.499 . S
C1216 C1217 1.373 . S
C1216 C1218 1.389 . S
C1217 H1196 0.950 . S
C1217 C1216 1.373 . S
C1217 C1233 1.377 . S
C1218 C1216 1.389 . S
C1218 C1219 1.524 . S
C1218 C1232 1.377 . S
C1219 C1218 1.524 . S
C1219 C1220 1.397 . S
C1219 C1224 1.363 . S
C1220 H1197 0.950 . S
C1220 C1219 1.397 . S
C1220 C1221 1.334 . S
C1221 H1198 0.950 . S
C1221 C1220 1.334 . S
C1221 C1222 1.287 . S
C1222 C1221 1.287 . S
C1222 C1223 1.524 1_556 S
C1222 H1241 0.913 1_556 S
C1223 H1199 0.950 . S
C1223 C1222 1.524 1_554 S
C1223 C1224 1.415 1_554 S
C1224 H1200 0.950 1_556 S
C1224 C1219 1.363 . S
C1224 C1223 1.415 1_556 S
C1225 H1201 0.947 1_655 S
C1225 C1226 1.361 1_655 S
C1225 C1227 1.396 . S
C1226 C1225 1.361 1_455 S
C1226 C1230 1.390 . S
C1227 H1202 0.951 . S
C1227 C1225 1.396 . S
C1227 C1228 1.366 . S
C1228 C1227 1.366 . S
C1228 C1229 1.414 . S
C1228 C1231 1.499 . S
C1229 H1203 0.950 . S
C1229 C1228 1.414 . S
C1229 C1230 1.363 1_655 S
C1230 H1204 0.956 . S
C1230 C1226 1.390 . S
C1230 C1229 1.363 1_455 S
C1231 C1228 1.499 . S
C1231 C1232 1.373 . S
C1231 C1233 1.389 . S
C1232 H1205 0.950 . S
C1232 C1218 1.377 . S
C1232 C1231 1.373 . S
C1233 C1217 1.377 . S
C1233 C1231 1.389 . S
C1233 C1234 1.524 1_655 S
C1234 C1233 1.524 1_455 S
C1234 C1235 1.397 . S
C1234 C1239 1.363 . S
C1235 H1206 0.950 . S
C1235 C1234 1.397 . S
C1235 C1236 1.334 . S
C1236 H1207 0.950 . S
C1236 C1235 1.334 . S
C1236 C1237 1.287 . S
C1237 C1236 1.287 . S
C1237 C1238 1.524 . S
C1237 H1240 0.999 . S
C1238 H1208 0.950 . S
C1238 C1237 1.524 . S
C1238 C1239 1.415 . S
C1239 H1209 0.950 1_455 S
C1239 C1234 1.363 . S
C1239 C1238 1.415 . S
H1240 C1237 0.999 . S
H1241 C1222 0.913 1_554 S
H1242 C1260 0.951 . S
H1243 C1262 0.951 . S
H1244 C1264 0.950 . S
H1245 C1265 0.950 . S
H1246 C1267 0.950 . S
H1247 C1270 0.953 1_564 S
H1248 C1271 0.950 . S
H1249 C1273 0.950 . S
H1250 C1274 0.950 . S
H1251 C1275 0.951 . S
H1252 C1277 0.951 . S
H1253 C1279 0.953 . S
H1254 C1280 0.950 . S
H1255 C1282 0.950 1_545 S
H1256 C1285 0.950 . S
H1257 C1286 0.950 . S
H1258 C1288 0.950 . S
H1259 C1289 0.950 . S
C1260 H1242 0.951 . S
C1260 C1261 1.366 1_556 S
C1260 C1262 1.388 . S
C1261 C1260 1.366 1_554 S
C1261 C1265 1.385 . S
C1262 H1243 0.951 . S
C1262 C1260 1.388 . S
C1262 C1263 1.366 . S
C1263 C1262 1.366 . S
C1263 C1264 1.414 1_556 S
C1263 C1266 1.499 . S
C1264 H1244 0.950 . S
C1264 C1263 1.414 1_554 S
C1264 C1265 1.374 . S
C1265 H1245 0.950 . S
C1265 C1261 1.385 . S
C1265 C1264 1.374 . S
C1266 C1263 1.499 . S
C1266 C1267 1.373 . S
C1266 C1268 1.389 . S
C1267 H1246 0.950 . S
C1267 C1266 1.373 . S
C1267 C1283 1.377 . S
C1268 C1266 1.389 . S
C1268 C1269 1.524 . S
C1268 C1282 1.377 . S
C1269 C1268 1.524 . S
C1269 C1270 1.398 1_565 S
C1269 C1274 1.363 1_565 S
C1270 H1247 0.953 1_546 S
C1270 C1269 1.398 1_545 S
C1270 C1271 1.330 1_556 S
C1271 H1248 0.950 . S
C1271 C1270 1.330 1_554 S
C1271 C1272 1.287 1_554 S
C1272 C1271 1.287 1_556 S
C1272 C1273 1.524 . S
C1272 H1291 0.913 . S
C1273 H1249 0.950 . S
C1273 C1272 1.524 . S
C1273 C1274 1.415 . S
C1274 H1250 0.950 . S
C1274 C1269 1.363 1_545 S
C1274 C1273 1.415 . S
C1275 H1251 0.951 . S
C1275 C1276 1.366 1_565 S
C1275 C1277 1.388 . S
C1276 C1275 1.366 1_545 S
C1276 C1280 1.385 . S
C1277 H1252 0.951 . S
C1277 C1275 1.388 . S
C1277 C1278 1.366 . S
C1278 C1277 1.366 . S
C1278 C1279 1.402 1_565 S
C1278 C1281 1.499 . S
C1279 H1253 0.953 . S
C1279 C1278 1.402 1_545 S
C1279 C1280 1.384 . S
C1280 H1254 0.950 . S
C1280 C1276 1.385 . S
C1280 C1279 1.384 . S
C1281 C1278 1.499 . S
C1281 C1282 1.373 . S
C1281 C1283 1.389 . S
C1282 H1255 0.950 1_565 S
C1282 C1268 1.377 . S
C1282 C1281 1.373 . S
C1283 C1267 1.377 . S
C1283 C1281 1.389 . S
C1283 C1284 1.524 . S
C1284 C1283 1.524 . S
C1284 C1285 1.397 . S
C1284 C1289 1.363 . S
C1285 H1256 0.950 . S
C1285 C1284 1.397 . S
C1285 C1286 1.334 . S
C1286 H1257 0.950 . S
C1286 C1285 1.334 . S
C1286 C1287 1.287 . S
C1287 C1286 1.287 . S
C1287 C1288 1.524 . S
C1287 H1290 0.999 . S
C1288 H1258 0.950 . S
C1288 C1287 1.524 . S
C1288 C1289 1.415 . S
C1289 H1259 0.950 . S
C1289 C1284 1.363 . S
C1289 C1288 1.415 . S
H1290 C1287 0.999 . S
H1291 C1272 0.913 . S
H1292 C1310 0.951 . S
H1293 C1312 0.951 . S
H1294 C1314 0.950 . S
H1295 C1315 0.950 . S
H1296 C1317 0.950 . S
H1297 C1320 0.950 . S
H1298 C1321 0.950 . S
H1299 C1323 0.950 . S
H1300 C1324 0.950 . S
H1301 C1325 0.951 . S
H1302 C1327 0.951 . S
H1303 C1329 0.950 . S
H1304 C1330 0.950 . S
H1305 C1332 0.950 . S
H1306 C1335 0.950 . S
H1307 C1336 0.950 . S
H1308 C1338 0.950 . S
H1309 C1339 0.950 . S
C1310 H1292 0.951 . S
C1310 C1311 1.366 . S
C1310 C1312 1.388 1_554 S
C1311 C1310 1.366 . S
C1311 C1315 1.385 1_554 S
C1312 H1293 0.951 . S
C1312 C1310 1.388 1_556 S
C1312 C1313 1.366 . S
C1313 C1312 1.366 . S
C1313 C1314 1.414 . S
C1313 C1316 1.499 . S
C1314 H1294 0.950 . S
C1314 C1313 1.414 . S
C1314 C1315 1.374 . S
C1315 H1295 0.950 . S
C1315 C1311 1.385 1_556 S
C1315 C1314 1.374 . S
C1316 C1313 1.499 . S
C1316 C1317 1.373 . S
C1316 C1318 1.389 . S
C1317 H1296 0.950 . S
C1317 C1316 1.373 . S
C1317 C1333 1.377 . S
C1318 C1316 1.389 . S
C1318 C1319 1.524 . S
C1318 C1332 1.377 . S
C1319 C1318 1.524 . S
C1319 C1320 1.397 . S
C1319 C1324 1.363 . S
C1320 H1297 0.950 . S
C1320 C1319 1.397 . S
C1320 C1321 1.334 . S
C1321 H1298 0.950 . S
C1321 C1320 1.334 . S
C1321 C1322 1.287 . S
C1322 C1321 1.287 . S
C1322 C1323 1.524 . S
C1322 H1341 0.913 . S
C1323 H1299 0.950 . S
C1323 C1322 1.524 . S
C1323 C1324 1.415 . S
C1324 H1300 0.950 . S
C1324 C1319 1.363 . S
C1324 C1323 1.415 . S
C1325 H1301 0.951 . S
C1325 C1326 1.366 . S
C1325 C1327 1.388 . S
C1326 C1325 1.366 . S
C1326 C1330 1.385 . S
C1327 H1302 0.951 . S
C1327 C1325 1.388 . S
C1327 C1328 1.366 . S
C1328 C1327 1.366 . S
C1328 C1329 1.414 . S
C1328 C1331 1.499 . S
C1329 H1303 0.950 . S
C1329 C1328 1.414 . S
C1329 C1330 1.374 . S
C1330 H1304 0.950 . S
C1330 C1326 1.385 . S
C1330 C1329 1.374 . S
C1331 C1328 1.499 . S
C1331 C1332 1.373 . S
C1331 C1333 1.389 . S
C1332 H1305 0.950 . S
C1332 C1318 1.377 . S
C1332 C1331 1.373 . S
C1333 C1317 1.377 . S
C1333 C1331 1.389 . S
C1333 C1334 1.524 . S
C1334 C1333 1.524 . S
C1334 C1335 1.397 . S
C1334 C1339 1.363 . S
C1335 H1306 0.950 . S
C1335 C1334 1.397 . S
C1335 C1336 1.334 . S
C1336 H1307 0.950 . S
C1336 C1335 1.334 . S
C1336 C1337 1.287 . S
C1337 C1336 1.287 . S
C1337 C1338 1.524 . S
C1337 H1340 0.999 . S
C1338 H1308 0.950 . S
C1338 C1337 1.524 . S
C1338 C1339 1.415 . S
C1339 H1309 0.950 . S
C1339 C1334 1.363 . S
C1339 C1338 1.415 . S
H1340 C1337 0.999 . S
H1341 C1322 0.913 . S
H1342 C1360 0.951 . S
H1343 C1362 0.951 . S
H1344 C1364 0.950 . S
H1345 C1365 0.950 . S
H1346 C1367 0.950 . S
H1347 C1370 0.950 . S
H1348 C1371 0.950 . S
H1349 C1373 0.950 1_554 S
H1350 C1374 0.950 . S
H1351 C1375 0.951 . S
H1352 C1377 0.951 . S
H1353 C1379 0.950 . S
H1354 C1380 0.950 . S
H1355 C1382 0.950 . S
H1356 C1385 0.950 . S
H1357 C1386 0.950 . S
H1358 C1388 0.950 . S
H1359 C1389 0.950 . S
C1360 H1342 0.951 . S
C1360 C1361 1.366 . S
C1360 C1362 1.388 . S
C1361 C1360 1.366 . S
C1361 C1365 1.385 1_554 S
C1362 H1343 0.951 . S
C1362 C1360 1.388 . S
C1362 C1363 1.366 1_554 S
C1363 C1362 1.366 1_556 S
C1363 C1364 1.414 . S
C1363 C1366 1.499 . S
C1364 H1344 0.950 . S
C1364 C1363 1.414 . S
C1364 C1365 1.374 . S
C1365 H1345 0.950 . S
C1365 C1361 1.385 1_556 S
C1365 C1364 1.374 . S
C1366 C1363 1.499 . S
C1366 C1367 1.373 . S
C1366 C1368 1.389 . S
C1367 H1346 0.950 . S
C1367 C1366 1.373 . S
C1367 C1383 1.377 . S
C1368 C1366 1.389 . S
C1368 C1369 1.524 . S
C1368 C1382 1.377 . S
C1369 C1368 1.524 . S
C1369 C1370 1.397 . S
C1369 C1374 1.363 . S
C1370 H1347 0.950 . S
C1370 C1369 1.397 . S
C1370 C1371 1.334 . S
C1371 H1348 0.950 . S
C1371 C1370 1.334 . S
C1371 C1372 1.287 . S
C1372 C1371 1.287 . S
C1372 C1373 1.524 . S
C1372 H1391 0.913 . S
C1373 H1349 0.950 1_556 S
C1373 C1372 1.524 . S
C1373 C1374 1.415 . S
C1374 H1350 0.950 . S
C1374 C1369 1.363 . S
C1374 C1373 1.415 . S
C1375 H1351 0.951 . S
C1375 C1376 1.366 . S
C1375 C1377 1.388 . S
C1376 C1375 1.366 . S
C1376 C1380 1.385 . S
C1377 H1352 0.951 . S
C1377 C1375 1.388 . S
C1377 C1378 1.366 . S
C1378 C1377 1.366 . S
C1378 C1379 1.414 . S
C1378 C1381 1.499 . S
C1379 H1353 0.950 . S
C1379 C1378 1.414 . S
C1379 C1380 1.374 . S
C1380 H1354 0.950 . S
C1380 C1376 1.385 . S
C1380 C1379 1.374 . S
C1381 C1378 1.499 . S
C1381 C1382 1.373 . S
C1381 C1383 1.389 . S
C1382 H1355 0.950 . S
C1382 C1368 1.377 . S
C1382 C1381 1.373 . S
C1383 C1367 1.377 . S
C1383 C1381 1.389 . S
C1383 C1384 1.524 . S
C1384 C1383 1.524 . S
C1384 C1385 1.397 . S
C1384 C1389 1.363 . S
C1385 H1356 0.950 . S
C1385 C1384 1.397 . S
C1385 C1386 1.334 . S
C1386 H1357 0.950 . S
C1386 C1385 1.334 . S
C1386 C1387 1.287 . S
C1387 C1386 1.287 . S
C1387 C1388 1.524 . S
C1387 H1390 0.999 . S
C1388 H1358 0.950 . S
C1388 C1387 1.524 . S
C1388 C1389 1.415 . S
C1389 H1359 0.950 . S
C1389 C1384 1.363 . S
C1389 C1388 1.415 . S
H1390 C1387 0.999 . S
H1391 C1372 0.913 . S
H1392 C1410 0.951 . S
H1393 C1412 0.951 . S
H1394 C1414 0.950 . S
H1395 C1415 0.950 . S
H1396 C1417 0.950 . S
H1397 C1420 0.950 . S
H1398 C1421 0.950 . S
H1399 C1423 0.950 . S
H1400 C1424 0.950 . S
H1401 C1425 0.951 . S
H1402 C1427 0.951 . S
H1403 C1429 0.950 . S
H1404 C1430 0.950 . S
H1405 C1432 0.950 . S
H1406 C1435 0.950 . S
H1407 C1436 0.950 . S
H1408 C1438 0.950 . S
H1409 C1439 0.950 . S
C1410 H1392 0.951 . S
C1410 C1411 1.366 . S
C1410 C1412 1.388 . S
C1411 C1410 1.366 . S
C1411 C1415 1.385 . S
C1412 H1393 0.951 . S
C1412 C1410 1.388 . S
C1412 C1413 1.366 . S
C1413 C1412 1.366 . S
C1413 C1414 1.414 . S
C1413 C1416 1.499 . S
C1414 H1394 0.950 . S
C1414 C1413 1.414 . S
C1414 C1415 1.374 . S
C1415 H1395 0.950 . S
C1415 C1411 1.385 . S
C1415 C1414 1.374 . S
C1416 C1413 1.499 . S
C1416 C1417 1.373 . S
C1416 C1418 1.389 . S
C1417 H1396 0.950 . S
C1417 C1416 1.373 . S
C1417 C1433 1.377 . S
C1418 C1416 1.389 . S
C1418 C1419 1.524 . S
C1418 C1432 1.377 . S
C1419 C1418 1.524 . S
C1419 C1420 1.397 . S
C1419 C1424 1.363 . S
C1420 H1397 0.950 . S
C1420 C1419 1.397 . S
C1420 C1421 1.334 . S
C1421 H1398 0.950 . S
C1421 C1420 1.334 . S
C1421 C1422 1.287 . S
C1422 C1421 1.287 . S
C1422 C1423 1.524 . S
C1422 H1441 0.913 . S
C1423 H1399 0.950 . S
C1423 C1422 1.524 . S
C1423 C1424 1.415 . S
C1424 H1400 0.950 . S
C1424 C1419 1.363 . S
C1424 C1423 1.415 . S
C1425 H1401 0.951 . S
C1425 C1426 1.366 . S
C1425 C1427 1.388 . S
C1426 C1425 1.366 . S
C1426 C1430 1.385 . S
C1427 H1402 0.951 . S
C1427 C1425 1.388 . S
C1427 C1428 1.366 . S
C1428 C1427 1.366 . S
C1428 C1429 1.414 . S
C1428 C1431 1.499 . S
C1429 H1403 0.950 . S
C1429 C1428 1.414 . S
C1429 C1430 1.374 . S
C1430 H1404 0.950 . S
C1430 C1426 1.385 . S
C1430 C1429 1.374 . S
C1431 C1428 1.499 . S
C1431 C1432 1.373 . S
C1431 C1433 1.389 . S
C1432 H1405 0.950 . S
C1432 C1418 1.377 . S
C1432 C1431 1.373 . S
C1433 C1417 1.377 . S
C1433 C1431 1.389 . S
C1433 C1434 1.524 . S
C1434 C1433 1.524 . S
C1434 C1435 1.397 . S
C1434 C1439 1.363 1_455 S
C1435 H1406 0.950 . S
C1435 C1434 1.397 . S
C1435 C1436 1.334 1_455 S
C1436 H1407 0.950 . S
C1436 C1435 1.334 1_655 S
C1436 C1437 1.287 . S
C1437 C1436 1.287 . S
C1437 C1438 1.524 . S
C1437 H1440 0.999 . S
C1438 H1408 0.950 . S
C1438 C1437 1.524 . S
C1438 C1439 1.415 . S
C1439 H1409 0.950 . S
C1439 C1434 1.363 1_655 S
C1439 C1438 1.415 . S
H1440 C1437 0.999 . S
H1441 C1422 0.913 . S
H1442 C1460 0.951 . S
H1443 C1462 0.951 . S
H1444 C1464 0.950 . S
H1445 C1465 0.950 . S
H1446 C1467 0.950 . S
H1447 C1470 0.950 . S
H1448 C1471 0.950 . S
H1449 C1473 0.950 . S
H1450 C1474 0.950 . S
H1451 C1475 0.951 . S
H1452 C1477 0.951 . S
H1453 C1479 0.950 . S
H1454 C1480 0.950 . S
H1455 C1482 0.950 . S
H1456 C1485 0.927 1_545 S
H1457 C1486 0.950 . S
H1458 C1488 0.950 . S
H1459 C1489 0.950 . S
C1460 H1442 0.951 . S
C1460 C1461 1.366 . S
C1460 C1462 1.388 . S
C1461 C1460 1.366 . S
C1461 C1465 1.385 . S
C1462 H1443 0.951 . S
C1462 C1460 1.388 . S
C1462 C1463 1.366 . S
C1463 C1462 1.366 . S
C1463 C1464 1.414 . S
C1463 C1466 1.499 . S
C1464 H1444 0.950 . S
C1464 C1463 1.414 . S
C1464 C1465 1.374 . S
C1465 H1445 0.950 . S
C1465 C1461 1.385 . S
C1465 C1464 1.374 . S
C1466 C1463 1.499 . S
C1466 C1467 1.373 . S
C1466 C1468 1.389 . S
C1467 H1446 0.950 . S
C1467 C1466 1.373 . S
C1467 C1483 1.377 . S
C1468 C1466 1.389 . S
C1468 C1469 1.524 . S
C1468 C1482 1.377 . S
C1469 C1468 1.524 . S
C1469 C1470 1.397 . S
C1469 C1474 1.363 . S
C1470 H1447 0.950 . S
C1470 C1469 1.397 . S
C1470 C1471 1.334 . S
C1471 H1448 0.950 . S
C1471 C1470 1.334 . S
C1471 C1472 1.287 . S
C1472 C1471 1.287 . S
C1472 C1473 1.524 . S
C1472 H1491 0.913 . S
C1473 H1449 0.950 . S
C1473 C1472 1.524 . S
C1473 C1474 1.415 . S
C1474 H1450 0.950 . S
C1474 C1469 1.363 . S
C1474 C1473 1.415 . S
C1475 H1451 0.951 . S
C1475 C1476 1.366 . S
C1475 C1477 1.388 . S
C1476 C1475 1.366 . S
C1476 C1480 1.385 . S
C1477 H1452 0.951 . S
C1477 C1475 1.388 . S
C1477 C1478 1.366 . S
C1478 C1477 1.366 . S
C1478 C1479 1.414 . S
C1478 C1481 1.499 . S
C1479 H1453 0.950 . S
C1479 C1478 1.414 . S
C1479 C1480 1.374 . S
C1480 H1454 0.950 . S
C1480 C1476 1.385 . S
C1480 C1479 1.374 . S
C1481 C1478 1.499 . S
C1481 C1482 1.373 . S
C1481 C1483 1.389 . S
C1482 H1455 0.950 . S
C1482 C1468 1.377 . S
C1482 C1481 1.373 . S
C1483 C1467 1.377 . S
C1483 C1481 1.389 . S
C1483 C1484 1.524 . S
C1484 C1483 1.524 . S
C1484 C1485 1.388 1_545 S
C1484 C1489 1.363 1_545 S
C1485 H1456 0.927 1_565 S
C1485 C1484 1.388 1_565 S
C1485 C1486 1.366 . S
C1486 H1457 0.950 . S
C1486 C1485 1.366 . S
C1486 C1487 1.287 . S
C1487 C1486 1.287 . S
C1487 C1488 1.524 . S
C1487 H1490 0.999 . S
C1488 H1458 0.950 . S
C1488 C1487 1.524 . S
C1488 C1489 1.415 . S
C1489 H1459 0.950 . S
C1489 C1484 1.363 1_565 S
C1489 C1488 1.415 . S
H1490 C1487 0.999 . S
H1491 C1472 0.913 . S
H1492 C1510 0.951 . S
H1493 C1512 0.951 . S
H1494 C1514 0.950 . S
H1495 C1515 0.950 . S
H1496 C1517 0.950 . S
H1497 C1520 0.950 . S
H1498 C1521 0.950 . S
H1499 C1523 0.950 . S
H1500 C1524 0.950 . S
H1501 C1525 0.951 . S
H1502 C1527 0.951 . S
H1503 C1529 0.950 . S
H1504 C1530 0.950 . S
H1505 C1532 0.950 . S
H1506 C1535 0.950 . S
H1507 C1536 0.950 . S
H1508 C1538 0.950 . S
H1509 C1539 0.950 . S
C1510 H1492 0.951 . S
C1510 C1511 1.366 . S
C1510 C1512 1.388 . S
C1511 C1510 1.366 . S
C1511 C1515 1.385 . S
C1512 H1493 0.951 . S
C1512 C1510 1.388 . S
C1512 C1513 1.366 . S
C1513 C1512 1.366 . S
C1513 C1514 1.414 . S
C1513 C1516 1.499 . S
C1514 H1494 0.950 . S
C1514 C1513 1.414 . S
C1514 C1515 1.374 . S
C1515 H1495 0.950 . S
C1515 C1511 1.385 . S
C1515 C1514 1.374 . S
C1516 C1513 1.499 . S
C1516 C1517 1.373 . S
C1516 C1518 1.389 . S
C1517 H1496 0.950 . S
C1517 C1516 1.373 . S
C1517 C1533 1.377 . S
C1518 C1516 1.389 . S
C1518 C1519 1.524 . S
C1518 C1532 1.377 . S
C1519 C1518 1.524 . S
C1519 C1520 1.397 . S
C1519 C1524 1.363 . S
C1520 H1497 0.950 . S
C1520 C1519 1.397 . S
C1520 C1521 1.334 . S
C1521 H1498 0.950 . S
C1521 C1520 1.334 . S
C1521 C1522 1.287 . S
C1522 C1521 1.287 . S
C1522 C1523 1.524 . S
C1522 H1541 0.913 . S
C1523 H1499 0.950 . S
C1523 C1522 1.524 . S
C1523 C1524 1.415 . S
C1524 H1500 0.950 . S
C1524 C1519 1.363 . S
C1524 C1523 1.415 . S
C1525 H1501 0.951 . S
C1525 C1526 1.366 . S
C1525 C1527 1.388 . S
C1526 C1525 1.366 . S
C1526 C1530 1.385 . S
C1527 H1502 0.951 . S
C1527 C1525 1.388 . S
C1527 C1528 1.366 . S
C1528 C1527 1.366 . S
C1528 C1529 1.414 . S
C1528 C1531 1.499 . S
C1529 H1503 0.950 . S
C1529 C1528 1.414 . S
C1529 C1530 1.374 . S
C1530 H1504 0.950 . S
C1530 C1526 1.385 . S
C1530 C1529 1.374 . S
C1531 C1528 1.499 . S
C1531 C1532 1.373 . S
C1531 C1533 1.389 . S
C1532 H1505 0.950 . S
C1532 C1518 1.377 . S
C1532 C1531 1.373 . S
C1533 C1517 1.377 . S
C1533 C1531 1.389 . S
C1533 C1534 1.524 . S
C1534 C1533 1.524 . S
C1534 C1535 1.397 . S
C1534 C1539 1.363 . S
C1535 H1506 0.950 . S
C1535 C1534 1.397 . S
C1535 C1536 1.334 . S
C1536 H1507 0.950 . S
C1536 C1535 1.334 . S
C1536 C1537 1.287 . S
C1537 C1536 1.287 . S
C1537 C1538 1.524 . S
C1537 H1540 0.999 . S
C1538 H1508 0.950 . S
C1538 C1537 1.524 . S
C1538 C1539 1.415 . S
C1539 H1509 0.950 . S
C1539 C1534 1.363 . S
C1539 C1538 1.415 . S
H1540 C1537 0.999 . S
H1541 C1522 0.913 . S
H1542 C1560 0.951 . S
H1543 C1562 0.951 . S
H1544 C1564 0.950 . S
H1545 C1565 0.950 . S
H1546 C1567 0.950 . S
H1547 C1570 0.950 . S
H1548 C1571 0.950 . S
H1549 C1573 0.950 . S
H1550 C1574 0.950 . S
H1551 C1575 0.951 . S
H1552 C1577 0.951 . S
H1553 C1579 0.950 . S
H1554 C1580 0.950 . S
H1555 C1582 0.950 . S
H1556 C1585 0.950 . S
H1557 C1586 0.950 . S
H1558 C1588 0.950 . S
H1559 C1589 0.950 . S
C1560 H1542 0.951 . S
C1560 C1561 1.366 . S
C1560 C1562 1.388 . S
C1561 C1560 1.366 . S
C1561 C1565 1.385 . S
C1562 H1543 0.951 . S
C1562 C1560 1.388 . S
C1562 C1563 1.366 . S
C1563 C1562 1.366 . S
C1563 C1564 1.414 . S
C1563 C1566 1.499 . S
C1564 H1544 0.950 . S
C1564 C1563 1.414 . S
C1564 C1565 1.374 . S
C1565 H1545 0.950 . S
C1565 C1561 1.385 . S
C1565 C1564 1.374 . S
C1566 C1563 1.499 . S
C1566 C1567 1.373 . S
C1566 C1568 1.389 . S
C1567 H1546 0.950 . S
C1567 C1566 1.373 . S
C1567 C1583 1.377 . S
C1568 C1566 1.389 . S
C1568 C1569 1.524 . S
C1568 C1582 1.377 . S
C1569 C1568 1.524 . S
C1569 C1570 1.397 . S
C1569 C1574 1.363 . S
C1570 H1547 0.950 . S
C1570 C1569 1.397 . S
C1570 C1571 1.334 . S
C1571 H1548 0.950 . S
C1571 C1570 1.334 . S
C1571 C1572 1.287 . S
C1572 C1571 1.287 . S
C1572 C1573 1.524 . S
C1572 H1591 0.913 . S
C1573 H1549 0.950 . S
C1573 C1572 1.524 . S
C1573 C1574 1.415 . S
C1574 H1550 0.950 . S
C1574 C1569 1.363 . S
C1574 C1573 1.415 . S
C1575 H1551 0.951 . S
C1575 C1576 1.366 . S
C1575 C1577 1.388 . S
C1576 C1575 1.366 . S
C1576 C1580 1.385 . S
C1577 H1552 0.951 . S
C1577 C1575 1.388 . S
C1577 C1578 1.366 . S
C1578 C1577 1.366 . S
C1578 C1579 1.414 . S
C1578 C1581 1.499 . S
C1579 H1553 0.950 . S
C1579 C1578 1.414 . S
C1579 C1580 1.374 . S
C1580 H1554 0.950 . S
C1580 C1576 1.385 . S
C1580 C1579 1.374 . S
C1581 C1578 1.499 . S
C1581 C1582 1.373 . S
C1581 C1583 1.389 . S
C1582 H1555 0.950 . S
C1582 C1568 1.377 . S
C1582 C1581 1.373 . S
C1583 C1567 1.377 . S
C1583 C1581 1.389 . S
C1583 C1584 1.524 . S
C1584 C1583 1.524 . S
C1584 C1585 1.397 . S
C1584 C1589 1.363 . S
C1585 H1556 0.950 . S
C1585 C1584 1.397 . S
C1585 C1586 1.334 . S
C1586 H1557 0.950 . S
C1586 C1585 1.334 . S
C1586 C1587 1.287 . S
C1587 C1586 1.287 . S
C1587 C1588 1.524 . S
C1587 H1590 0.999 . S
C1588 H1558 0.950 . S
C1588 C1587 1.524 . S
C1588 C1589 1.415 . S
C1589 H1559 0.950 . S
C1589 C1584 1.363 . S
C1589 C1588 1.415 . S
H1590 C1587 0.999 . S
H1591 C1572 0.913 . S
H1592 C1610 0.951 . S
H1593 C1612 0.951 . S
H1594 C1614 0.950 . S
H1595 C1615 0.950 . S
H1596 C1617 0.950 . S
H1597 C1620 0.950 . S
H1598 C1621 0.950 . S
H1599 C1623 0.950 . S
H1600 C1624 0.950 . S
H1601 C1625 0.951 1_455 S
H1602 C1627 0.951 . S
H1603 C1629 0.950 . S
H1604 C1630 0.950 . S
H1605 C1632 0.950 . S
H1606 C1635 0.950 . S
H1607 C1636 0.950 . S
H1608 C1638 0.950 . S
H1609 C1639 0.950 . S
C1610 H1592 0.951 . S
C1610 C1611 1.366 . S
C1610 C1612 1.388 . S
C1611 C1610 1.366 . S
C1611 C1615 1.385 . S
C1612 H1593 0.951 . S
C1612 C1610 1.388 . S
C1612 C1613 1.366 . S
C1613 C1612 1.366 . S
C1613 C1614 1.414 . S
C1613 C1616 1.499 . S
C1614 H1594 0.950 . S
C1614 C1613 1.414 . S
C1614 C1615 1.374 . S
C1615 H1595 0.950 . S
C1615 C1611 1.385 . S
C1615 C1614 1.374 . S
C1616 C1613 1.499 . S
C1616 C1617 1.373 . S
C1616 C1618 1.389 . S
C1617 H1596 0.950 . S
C1617 C1616 1.373 . S
C1617 C1633 1.377 . S
C1618 C1616 1.389 . S
C1618 C1619 1.524 . S
C1618 C1632 1.377 . S
C1619 C1618 1.524 . S
C1619 C1620 1.397 . S
C1619 C1624 1.363 . S
C1620 H1597 0.950 . S
C1620 C1619 1.397 . S
C1620 C1621 1.334 . S
C1621 H1598 0.950 . S
C1621 C1620 1.334 . S
C1621 C1622 1.287 . S
C1622 C1621 1.287 . S
C1622 C1623 1.524 . S
C1622 H1641 0.913 . S
C1623 H1599 0.950 . S
C1623 C1622 1.524 . S
C1623 C1624 1.415 . S
C1624 H1600 0.950 . S
C1624 C1619 1.363 . S
C1624 C1623 1.415 . S
C1625 H1601 0.951 1_655 S
C1625 C1626 1.366 . S
C1625 C1627 1.388 . S
C1626 C1625 1.366 . S
C1626 C1630 1.385 . S
C1627 H1602 0.951 . S
C1627 C1625 1.388 . S
C1627 C1628 1.366 . S
C1628 C1627 1.366 . S
C1628 C1629 1.414 . S
C1628 C1631 1.499 . S
C1629 H1603 0.950 . S
C1629 C1628 1.414 . S
C1629 C1630 1.374 . S
C1630 H1604 0.950 . S
C1630 C1626 1.385 . S
C1630 C1629 1.374 . S
C1631 C1628 1.499 . S
C1631 C1632 1.373 . S
C1631 C1633 1.389 . S
C1632 H1605 0.950 . S
C1632 C1618 1.377 . S
C1632 C1631 1.373 . S
C1633 C1617 1.377 . S
C1633 C1631 1.389 . S
C1633 C1634 1.524 . S
C1634 C1633 1.524 . S
C1634 C1635 1.397 . S
C1634 C1639 1.363 1_655 S
C1635 H1606 0.950 . S
C1635 C1634 1.397 . S
C1635 C1636 1.334 . S
C1636 H1607 0.950 . S
C1636 C1635 1.334 . S
C1636 C1637 1.287 1_655 S
C1637 C1636 1.287 1_455 S
C1637 C1638 1.524 . S
C1637 H1640 0.999 . S
C1638 H1608 0.950 . S
C1638 C1637 1.524 . S
C1638 C1639 1.415 . S
C1639 H1609 0.950 . S
C1639 C1634 1.363 1_455 S
C1639 C1638 1.415 . S
H1640 C1637 0.999 . S
H1641 C1622 0.913 . S
H1642 C1660 0.951 . S
H1643 C1662 0.951 . S
H1644 C1664 0.950 . S
H1645 C1665 0.950 . S
H1646 C1667 0.950 . S
H1647 C1670 0.950 . S
H1648 C1671 0.950 . S
H1649 C1673 0.950 . S
H1650 C1674 0.950 . S
H1651 C1675 0.951 1_545 S
H1652 C1677 0.951 1_545 S
H1653 C1679 0.950 . S
H1654 C1680 0.950 . S
H1655 C1682 0.950 . S
H1656 C1685 0.950 . S
H1657 C1686 0.950 . S
H1658 C1688 0.950 . S
H1659 C1689 0.950 . S
C1660 H1642 0.951 . S
C1660 C1661 1.366 . S
C1660 C1662 1.388 . S
C1661 C1660 1.366 . S
C1661 C1665 1.385 . S
C1662 H1643 0.951 . S
C1662 C1660 1.388 . S
C1662 C1663 1.366 . S
C1663 C1662 1.366 . S
C1663 C1664 1.414 . S
C1663 C1666 1.499 . S
C1664 H1644 0.950 . S
C1664 C1663 1.414 . S
C1664 C1665 1.374 . S
C1665 H1645 0.950 . S
C1665 C1661 1.385 . S
C1665 C1664 1.374 . S
C1666 C1663 1.499 . S
C1666 C1667 1.373 . S
C1666 C1668 1.389 . S
C1667 H1646 0.950 . S
C1667 C1666 1.373 . S
C1667 C1683 1.377 . S
C1668 C1666 1.389 . S
C1668 C1669 1.524 . S
C1668 C1682 1.377 . S
C1669 C1668 1.524 . S
C1669 C1670 1.397 . S
C1669 C1674 1.363 . S
C1670 H1647 0.950 . S
C1670 C1669 1.397 . S
C1670 C1671 1.334 . S
C1671 H1648 0.950 . S
C1671 C1670 1.334 . S
C1671 C1672 1.287 . S
C1672 C1671 1.287 . S
C1672 C1673 1.524 . S
C1672 H1691 0.913 . S
C1673 H1649 0.950 . S
C1673 C1672 1.524 . S
C1673 C1674 1.415 . S
C1674 H1650 0.950 . S
C1674 C1669 1.363 . S
C1674 C1673 1.415 . S
C1675 H1651 0.951 1_565 S
C1675 C1676 1.366 . S
C1675 C1677 1.388 . S
C1676 C1675 1.366 . S
C1676 C1680 1.385 . S
C1677 H1652 0.951 1_565 S
C1677 C1675 1.388 . S
C1677 C1678 1.366 . S
C1678 C1677 1.366 . S
C1678 C1679 1.414 . S
C1678 C1681 1.499 . S
C1679 H1653 0.950 . S
C1679 C1678 1.414 . S
C1679 C1680 1.374 . S
C1680 H1654 0.950 . S
C1680 C1676 1.385 . S
C1680 C1679 1.374 . S
C1681 C1678 1.499 . S
C1681 C1682 1.373 . S
C1681 C1683 1.389 . S
C1682 H1655 0.950 . S
C1682 C1668 1.377 . S
C1682 C1681 1.373 . S
C1683 C1667 1.377 . S
C1683 C1681 1.389 . S
C1683 C1684 1.524 . S
C1684 C1683 1.524 . S
C1684 C1685 1.397 . S
C1684 C1689 1.363 1_565 S
C1685 H1656 0.950 . S
C1685 C1684 1.397 . S
C1685 C1686 1.334 1_565 S
C1686 H1657 0.950 . S
C1686 C1685 1.334 1_545 S
C1686 C1687 1.287 . S
C1687 C1686 1.287 . S
C1687 C1688 1.524 . S
C1687 H1690 0.999 . S
C1688 H1658 0.950 . S
C1688 C1687 1.524 . S
C1688 C1689 1.415 . S
C1689 H1659 0.950 . S
C1689 C1684 1.363 1_545 S
C1689 C1688 1.415 . S
H1690 C1687 0.999 . S
H1691 C1672 0.913 . S
H1692 C1710 0.951 . S
H1693 C1712 0.951 . S
H1694 C1714 0.950 . S
H1695 C1715 0.950 . S
H1696 C1717 0.950 . S
H1697 C1720 0.950 . S
H1698 C1721 0.950 . S
H1699 C1723 0.950 . S
H1700 C1724 0.950 . S
H1701 C1725 0.951 . S
H1702 C1727 0.951 . S
H1703 C1729 0.950 . S
H1704 C1730 0.950 . S
H1705 C1732 0.950 . S
H1706 C1735 0.950 . S
H1707 C1736 0.950 . S
H1708 C1738 0.950 . S
H1709 C1739 0.950 . S
C1710 H1692 0.951 . S
C1710 C1711 1.366 . S
C1710 C1712 1.388 . S
C1711 C1710 1.366 . S
C1711 C1715 1.385 . S
C1712 H1693 0.951 . S
C1712 C1710 1.388 . S
C1712 C1713 1.366 . S
C1713 C1712 1.366 . S
C1713 C1714 1.414 . S
C1713 C1716 1.499 . S
C1714 H1694 0.950 . S
C1714 C1713 1.414 . S
C1714 C1715 1.374 . S
C1715 H1695 0.950 . S
C1715 C1711 1.385 . S
C1715 C1714 1.374 . S
C1716 C1713 1.499 . S
C1716 C1717 1.373 . S
C1716 C1718 1.389 . S
C1717 H1696 0.950 . S
C1717 C1716 1.373 . S
C1717 C1733 1.377 . S
C1718 C1716 1.389 . S
C1718 C1719 1.524 . S
C1718 C1732 1.377 . S
C1719 C1718 1.524 . S
C1719 C1720 1.397 . S
C1719 C1724 1.363 . S
C1720 H1697 0.950 . S
C1720 C1719 1.397 . S
C1720 C1721 1.334 . S
C1721 H1698 0.950 . S
C1721 C1720 1.334 . S
C1721 C1722 1.287 . S
C1722 C1721 1.287 . S
C1722 C1723 1.524 . S
C1722 H1741 0.913 . S
C1723 H1699 0.950 . S
C1723 C1722 1.524 . S
C1723 C1724 1.415 . S
C1724 H1700 0.950 . S
C1724 C1719 1.363 . S
C1724 C1723 1.415 . S
C1725 H1701 0.951 . S
C1725 C1726 1.366 . S
C1725 C1727 1.388 . S
C1726 C1725 1.366 . S
C1726 C1730 1.385 . S
C1727 H1702 0.951 . S
C1727 C1725 1.388 . S
C1727 C1728 1.366 . S
C1728 C1727 1.366 . S
C1728 C1729 1.414 . S
C1728 C1731 1.499 . S
C1729 H1703 0.950 . S
C1729 C1728 1.414 . S
C1729 C1730 1.374 . S
C1730 H1704 0.950 . S
C1730 C1726 1.385 . S
C1730 C1729 1.374 . S
C1731 C1728 1.499 . S
C1731 C1732 1.373 . S
C1731 C1733 1.389 . S
C1732 H1705 0.950 . S
C1732 C1718 1.377 . S
C1732 C1731 1.373 . S
C1733 C1717 1.377 . S
C1733 C1731 1.389 . S
C1733 C1734 1.524 . S
C1734 C1733 1.524 . S
C1734 C1735 1.397 . S
C1734 C1739 1.363 . S
C1735 H1706 0.950 . S
C1735 C1734 1.397 . S
C1735 C1736 1.334 . S
C1736 H1707 0.950 . S
C1736 C1735 1.334 . S
C1736 C1737 1.287 . S
C1737 C1736 1.287 . S
C1737 C1738 1.524 . S
C1737 H1740 0.999 . S
C1738 H1708 0.950 . S
C1738 C1737 1.524 . S
C1738 C1739 1.415 . S
C1739 H1709 0.950 . S
C1739 C1734 1.363 . S
C1739 C1738 1.415 . S
H1740 C1737 0.999 . S
H1741 C1722 0.913 . S
H1742 C1760 0.951 . S
H1743 C1762 0.951 . S
H1744 C1764 0.950 . S
H1745 C1765 0.950 . S
H1746 C1767 0.950 . S
H1747 C1770 0.950 . S
H1748 C1771 0.950 . S
H1749 C1773 0.950 . S
H1750 C1774 0.950 . S
H1751 C1775 0.951 . S
H1752 C1777 0.951 . S
H1753 C1779 0.950 . S
H1754 C1780 0.950 . S
H1755 C1782 0.950 . S
H1756 C1785 0.950 . S
H1757 C1786 0.950 . S
H1758 C1788 0.950 . S
H1759 C1789 0.950 . S
C1760 H1742 0.951 . S
C1760 C1761 1.366 . S
C1760 C1762 1.388 . S
C1761 C1760 1.366 . S
C1761 C1765 1.385 . S
C1762 H1743 0.951 . S
C1762 C1760 1.388 . S
C1762 C1763 1.366 . S
C1763 C1762 1.366 . S
C1763 C1764 1.414 . S
C1763 C1766 1.499 . S
C1764 H1744 0.950 . S
C1764 C1763 1.414 . S
C1764 C1765 1.374 . S
C1765 H1745 0.950 . S
C1765 C1761 1.385 . S
C1765 C1764 1.374 . S
C1766 C1763 1.499 . S
C1766 C1767 1.373 . S
C1766 C1768 1.389 . S
C1767 H1746 0.950 . S
C1767 C1766 1.373 . S
C1767 C1783 1.377 . S
C1768 C1766 1.389 . S
C1768 C1769 1.524 . S
C1768 C1782 1.377 . S
C1769 C1768 1.524 . S
C1769 C1770 1.397 . S
C1769 C1774 1.363 . S
C1770 H1747 0.950 . S
C1770 C1769 1.397 . S
C1770 C1771 1.334 . S
C1771 H1748 0.950 . S
C1771 C1770 1.334 . S
C1771 C1772 1.287 . S
C1772 C1771 1.287 . S
C1772 C1773 1.524 . S
C1772 H1791 0.913 . S
C1773 H1749 0.950 . S
C1773 C1772 1.524 . S
C1773 C1774 1.415 . S
C1774 H1750 0.950 . S
C1774 C1769 1.363 . S
C1774 C1773 1.415 . S
C1775 H1751 0.951 . S
C1775 C1776 1.366 . S
C1775 C1777 1.388 . S
C1776 C1775 1.366 . S
C1776 C1780 1.385 . S
C1777 H1752 0.951 . S
C1777 C1775 1.388 . S
C1777 C1778 1.366 . S
C1778 C1777 1.366 . S
C1778 C1779 1.414 . S
C1778 C1781 1.499 . S
C1779 H1753 0.950 . S
C1779 C1778 1.414 . S
C1779 C1780 1.374 . S
C1780 H1754 0.950 . S
C1780 C1776 1.385 . S
C1780 C1779 1.374 . S
C1781 C1778 1.499 . S
C1781 C1782 1.373 . S
C1781 C1783 1.389 . S
C1782 H1755 0.950 . S
C1782 C1768 1.377 . S
C1782 C1781 1.373 . S
C1783 C1767 1.377 . S
C1783 C1781 1.389 . S
C1783 C1784 1.524 . S
C1784 C1783 1.524 . S
C1784 C1785 1.397 . S
C1784 C1789 1.363 . S
C1785 H1756 0.950 . S
C1785 C1784 1.397 . S
C1785 C1786 1.334 . S
C1786 H1757 0.950 . S
C1786 C1785 1.334 . S
C1786 C1787 1.287 . S
C1787 C1786 1.287 . S
C1787 C1788 1.524 . S
C1787 H1790 0.999 . S
C1788 H1758 0.950 . S
C1788 C1787 1.524 . S
C1788 C1789 1.415 . S
C1789 H1759 0.950 . S
C1789 C1784 1.363 . S
C1789 C1788 1.415 . S
H1790 C1787 0.999 . S
H1791 C1772 0.913 . S
C611 C215 1.966 . S
C626 C330 1.966 . S
C676 C414 2.001 . S
C661 C247 2.003 . S
C726 C480 1.987 . S
C711 C151 2.138 . S
C776 C564 1.959 . S
C761 C183 2.109 . S
C826 C319 1.965 1_565 S
C811 C87 1.863 . S
C861 C119 1.892 . S
C876 C403 2.001 . S
C911 C23 2.018 . S
C926 C491 1.986 . S
C961 C55 1.996 . S
C976 C575 1.959 . S
C1026 C326 0.449 1_455 S
C1011 C189 0.345 . S
C1076 C410 0.429 1_545 S
C1061 C221 0.289 . S
C1126 C482 0.466 . S
C1111 C253 0.236 . S
C1161 C157 0.285 . S
C1176 C566 0.474 . S
C1211 C61 0.582 . S
C1226 C314 0.451 . S
C1276 C398 0.429 . S
C1261 C93 0.569 . S
C1326 C494 0.470 . S
C1311 C125 0.581 . S
C1361 C29 0.587 . S
C1376 C578 0.473 . S
C1411 C177 2.378 . S
C1426 C323 2.401 . S
C1461 C209 2.329 . S
C1476 C407 2.355 . S
C1526 C487 2.340 . S
C1511 C241 2.206 . S
C1576 C571 2.379 . S
C1561 C145 2.246 . S
C1611 C49 2.280 . S
C1626 C312 2.402 . S
C1676 C396 2.356 . S
C1661 C81 2.240 . S
C1726 C498 2.340 . S
C1711 C113 2.108 . S
C1761 C17 2.141 . S
C1776 C582 2.379 . S
