# Generated by pormake.
# Topology pyr, (3,6)-cn, num edge types: 1
# Building blocks:
#     Node 0, Type 0, BuildingBlock: BELTOD_clean_linker_0, # of connection points: 3
#     Node 1, Type 0, BuildingBlock: BELTOD_clean_linker_0, # of connection points: 3
#     Node 2, Type 0, BuildingBlock: BELTOD_clean_linker_0, # of connection points: 3
#     Node 3, Type 0, BuildingBlock: BELTOD_clean_linker_0, # of connection points: 3
#     Node 4, Type 0, BuildingBlock: BELTOD_clean_linker_0, # of connection points: 3
#     Node 5, Type 0, BuildingBlock: BELTOD_clean_linker_0, # of connection points: 3
#     Node 6, Type 0, BuildingBlock: BELTOD_clean_linker_0, # of connection points: 3
#     Node 7, Type 0, BuildingBlock: BELTOD_clean_linker_0, # of connection points: 3
#     Node 8, Type 1, BuildingBlock: BETFAJ_clean_sbu_0, # of connection points: 6
#     Node 9, Type 1, BuildingBlock: BETFAJ_clean_sbu_0, # of connection points: 6
#     Node 10, Type 1, BuildingBlock: BETFAJ_clean_sbu_0, # of connection points: 6
#     Node 11, Type 1, BuildingBlock: BETFAJ_clean_sbu_0, # of connection points: 6
#     Edge 12, Type (0, 1), BuildingBlock: KIFKEQ_clean_linker_1, # of connection points: 2
#     Edge 13, Type (0, 1), BuildingBlock: KIFKEQ_clean_linker_1, # of connection points: 2
#     Edge 14, Type (0, 1), BuildingBlock: KIFKEQ_clean_linker_1, # of connection points: 2
#     Edge 15, Type (0, 1), BuildingBlock: KIFKEQ_clean_linker_1, # of connection points: 2
#     Edge 16, Type (0, 1), BuildingBlock: KIFKEQ_clean_linker_1, # of connection points: 2
#     Edge 17, Type (0, 1), BuildingBlock: KIFKEQ_clean_linker_1, # of connection points: 2
#     Edge 18, Type (0, 1), BuildingBlock: KIFKEQ_clean_linker_1, # of connection points: 2
#     Edge 19, Type (0, 1), BuildingBlock: KIFKEQ_clean_linker_1, # of connection points: 2
#     Edge 20, Type (0, 1), BuildingBlock: KIFKEQ_clean_linker_1, # of connection points: 2
#     Edge 21, Type (0, 1), BuildingBlock: KIFKEQ_clean_linker_1, # of connection points: 2
#     Edge 22, Type (0, 1), BuildingBlock: KIFKEQ_clean_linker_1, # of connection points: 2
#     Edge 23, Type (0, 1), BuildingBlock: KIFKEQ_clean_linker_1, # of connection points: 2
#     Edge 24, Type (0, 1), BuildingBlock: KIFKEQ_clean_linker_1, # of connection points: 2
#     Edge 25, Type (0, 1), BuildingBlock: KIFKEQ_clean_linker_1, # of connection points: 2
#     Edge 26, Type (0, 1), BuildingBlock: KIFKEQ_clean_linker_1, # of connection points: 2
#     Edge 27, Type (0, 1), BuildingBlock: KIFKEQ_clean_linker_1, # of connection points: 2
#     Edge 28, Type (0, 1), BuildingBlock: KIFKEQ_clean_linker_1, # of connection points: 2
#     Edge 29, Type (0, 1), BuildingBlock: KIFKEQ_clean_linker_1, # of connection points: 2
#     Edge 30, Type (0, 1), BuildingBlock: KIFKEQ_clean_linker_1, # of connection points: 2
#     Edge 31, Type (0, 1), BuildingBlock: KIFKEQ_clean_linker_1, # of connection points: 2
#     Edge 32, Type (0, 1), BuildingBlock: KIFKEQ_clean_linker_1, # of connection points: 2
#     Edge 33, Type (0, 1), BuildingBlock: KIFKEQ_clean_linker_1, # of connection points: 2
#     Edge 34, Type (0, 1), BuildingBlock: KIFKEQ_clean_linker_1, # of connection points: 2
#     Edge 35, Type (0, 1), BuildingBlock: KIFKEQ_clean_linker_1, # of connection points: 2
# Relax obj value: 0.102
# Max RMSD: 0.124
# Mean RMSD: 0.059
data_MOF--net-pyr--node1-BETFAJ_clean_sbu_0--node2-BELTOD_clean_linker_0--edge1-KIFKEQ_clean_linker_1
_symmetry_space_group_name_H-M    P1
_symmetry_Int_Tables_number       1
_symmetry_cell_setting            triclinic
loop_
_symmetry_equiv_pos_as_xyz
'x, y, z'
_cell_length_a     43.928675
_cell_length_b     46.646303
_cell_length_c     41.479395
_cell_angle_alpha  90.919966
_cell_angle_beta   88.600771
_cell_angle_gamma 101.21337
loop_
_atom_site_label
_atom_site_type_symbol
_atom_site_fract_x
_atom_site_fract_y
_atom_site_fract_z
_atom_type_partial_charge
P0 P 0.3517 0.30127 0.26293 0.0
H1 H 0.37115 0.2904 0.19585 0.0
H2 H 0.39305 0.25062 0.17123 0.0
H3 H 0.39788 0.21369 0.2654 0.0
H4 H 0.37579 0.25333 0.28977 0.0
H5 H 0.35075 0.36311 0.25235 0.0
H6 H 0.3168 0.38701 0.22078 0.0
H7 H 0.27258 0.30285 0.18238 0.0
H8 H 0.30739 0.27947 0.21295 0.0
H9 H 0.32522 0.31818 0.32443 0.0
H10 H 0.31048 0.24453 0.25859 0.0
O11 O 0.3773 0.32533 0.28359 0.0
H12 H 0.28103 0.29409 0.35796 0.0
H13 H 0.26649 0.22076 0.2913 0.0
C14 C 0.3712 0.27439 0.24454 0.0
C15 C 0.377 0.27381 0.21119 0.0
C16 C 0.38966 0.25114 0.19717 0.0
C17 C 0.39675 0.2288 0.21636 0.0
C18 C 0.39207 0.23024 0.24993 0.0
C19 C 0.37964 0.25297 0.26389 0.0
C20 C 0.33181 0.31956 0.2347 0.0
C21 C 0.33433 0.34995 0.23642 0.0
C22 C 0.31462 0.36354 0.21862 0.0
C23 C 0.29171 0.34688 0.19917 0.0
C24 C 0.29017 0.31651 0.19665 0.0
C25 C 0.31002 0.30302 0.21426 0.0
C26 C 0.32165 0.28275 0.28959 0.0
C27 C 0.31281 0.29666 0.31751 0.0
C28 C 0.28744 0.28301 0.33644 0.0
C29 C 0.2705 0.25536 0.32748 0.0
C30 C 0.2795 0.24169 0.29936 0.0
C31 C 0.30469 0.25531 0.28056 0.0
P32 P 0.36717 0.95902 0.56214 0.0
H33 H 0.41927 0.98982 0.60046 0.0
H34 H 0.42771 0.99331 0.65864 0.0
H35 H 0.33747 0.93848 0.67529 0.0
H36 H 0.32984 0.93435 0.6173 0.0
H37 H 0.42079 0.93474 0.54187 0.0
H38 H 0.42939 0.88468 0.53868 0.0
H39 H 0.33162 0.85259 0.55809 0.0
H40 H 0.3236 0.90279 0.56269 0.0
H41 H 0.32918 0.9958 0.59508 0.0
H42 H 0.32205 0.939 0.51135 0.0
O43 O 0.39348 0.98322 0.54198 0.0
H44 H 0.27634 1.00294 0.58754 0.0
H45 H 0.26887 0.94628 0.50354 0.0
C46 C 0.37372 0.96226 0.60474 0.0
C47 C 0.40135 0.97862 0.61671 0.0
C48 C 0.40607 0.98066 0.64997 0.0
C49 C 0.3832 0.96627 0.67169 0.0
C50 C 0.35575 0.94954 0.65934 0.0
C51 C 0.35121 0.94737 0.62618 0.0
C52 C 0.37145 0.92247 0.55169 0.0
C53 C 0.40107 0.91689 0.54453 0.0
C54 C 0.40593 0.88819 0.54267 0.0
C55 C 0.3812 0.86451 0.54817 0.0
C56 C 0.35127 0.87027 0.55409 0.0
C57 C 0.34653 0.899 0.55624 0.0
C58 C 0.32907 0.9659 0.55453 0.0
C59 C 0.31617 0.98465 0.57518 0.0
C60 C 0.28594 0.98875 0.57088 0.0
C61 C 0.26831 0.9747 0.54536 0.0
C62 C 0.2819 0.95722 0.52355 0.0
C63 C 0.31216 0.95293 0.52808 0.0
P64 P 0.66462 0.3395 0.85034 0.0
H65 H 0.73112 0.33876 0.85069 0.0
H66 H 0.77414 0.36473 0.88173 0.0
H67 H 0.7115 0.40991 0.93495 0.0
H68 H 0.6684 0.3845 0.90221 0.0
H69 H 0.62187 0.28617 0.83097 0.0
H70 H 0.59562 0.24289 0.86 0.0
H71 H 0.63145 0.28249 0.94961 0.0
H72 H 0.65754 0.32588 0.9204 0.0
H73 H 0.68176 0.39976 0.82715 0.0
H74 H 0.60065 0.33092 0.8259 0.0
O75 O 0.68085 0.32323 0.82018 0.0
H76 H 0.65733 0.42792 0.7898 0.0
H77 H 0.57612 0.35889 0.78848 0.0
C78 C 0.69638 0.35972 0.87388 0.0
C79 C 0.72649 0.35439 0.86883 0.0
C80 C 0.75123 0.36914 0.88703 0.0
C81 C 0.7466 0.3894 0.91134 0.0
C82 C 0.71627 0.39479 0.9163 0.0
C83 C 0.69147 0.38014 0.89772 0.0
C84 C 0.64146 0.30969 0.87334 0.0
C85 C 0.62355 0.28592 0.85696 0.0
C86 C 0.60858 0.26101 0.87366 0.0
C87 C 0.61141 0.25898 0.90726 0.0
C88 C 0.62899 0.28305 0.92373 0.0
C89 C 0.64374 0.30813 0.90699 0.0
C90 C 0.64294 0.36332 0.83017 0.0
C91 C 0.65829 0.39101 0.81972 0.0
C92 C 0.64428 0.40712 0.7981 0.0
C93 C 0.61472 0.39571 0.78577 0.0
C94 C 0.59904 0.36831 0.79703 0.0
C95 C 0.61299 0.35234 0.81886 0.0
P96 P 0.82276 0.69349 0.34889 0.0
H97 H 0.85308 0.75052 0.32462 0.0
H98 H 0.88052 0.79486 0.3508 0.0
H99 H 0.87762 0.74831 0.44047 0.0
H100 H 0.84912 0.70414 0.41406 0.0
H101 H 0.80193 0.65587 0.29418 0.0
H102 H 0.8274 0.62729 0.25646 0.0
H103 H 0.91196 0.64993 0.31028 0.0
H104 H 0.88622 0.6797 0.34743 0.0
H105 H 0.78172 0.71293 0.39672 0.0
H106 H 0.80279 0.63054 0.36459 0.0
O107 O 0.80079 0.70828 0.32421 0.0
H108 H 0.73996 0.68745 0.43147 0.0
H109 H 0.76138 0.60467 0.40005 0.0
C110 C 0.84859 0.72408 0.36743 0.0
C111 C 0.85866 0.74973 0.34984 0.0
C112 C 0.87457 0.77517 0.36492 0.0
C113 C 0.88114 0.77555 0.39803 0.0
C114 C 0.87242 0.74921 0.41517 0.0
C115 C 0.85635 0.72375 0.40001 0.0
C116 C 0.84218 0.67021 0.32347 0.0
C117 C 0.82595 0.65467 0.29796 0.0
C118 C 0.8406 0.63803 0.27644 0.0
C119 C 0.87194 0.63605 0.28003 0.0
C120 C 0.888 0.65118 0.30626 0.0
C121 C 0.87324 0.66807 0.32777 0.0
C122 C 0.79567 0.67376 0.37825 0.0
C123 C 0.77779 0.6893 0.39771 0.0
C124 C 0.75386 0.67461 0.41772 0.0
C125 C 0.74707 0.64385 0.41877 0.0
C126 C 0.76556 0.62831 0.39966 0.0
C127 C 0.78954 0.64312 0.37954 0.0
P128 P 0.7088 0.81581 0.85492 0.0
H129 H 0.68608 0.8207 0.92022 0.0
H130 H 0.64207 0.83954 0.94206 0.0
H131 H 0.60531 0.83942 0.84623 0.0
H132 H 0.65028 0.82126 0.82445 0.0
H133 H 0.77296 0.812 0.8622 0.0
H134 H 0.79844 0.77551 0.88556 0.0
H135 H 0.70924 0.72585 0.91624 0.0
H136 H 0.68366 0.76274 0.8925 0.0
H137 H 0.70615 0.85053 0.79789 0.0
H138 H 0.71493 0.7622 0.81862 0.0
O139 O 0.73148 0.84864 0.85983 0.0
H140 H 0.72576 0.84504 0.74314 0.0
H141 H 0.73511 0.75679 0.76397 0.0
C142 C 0.67133 0.81931 0.87081 0.0
C143 C 0.66797 0.82367 0.90404 0.0
C144 C 0.64262 0.83446 0.91651 0.0
C145 C 0.62009 0.84125 0.8959 0.0
C146 C 0.62243 0.83485 0.86275 0.0
C147 C 0.64801 0.82417 0.85027 0.0
C148 C 0.72654 0.79038 0.87632 0.0
C149 C 0.75888 0.79354 0.87444 0.0
C150 C 0.77339 0.77251 0.88747 0.0
C151 C 0.75579 0.74779 0.90255 0.0
C152 C 0.72333 0.74483 0.90494 0.0
C153 C 0.70874 0.76589 0.89153 0.0
C154 C 0.71002 0.80716 0.81256 0.0
C155 C 0.7111 0.82956 0.79027 0.0
C156 C 0.72219 0.82631 0.75887 0.0
C157 C 0.73256 0.80066 0.74954 0.0
C158 C 0.72766 0.77692 0.77073 0.0
C159 C 0.71623 0.78009 0.80204 0.0
P160 P 0.8485 0.27704 0.40001 0.0
H161 H 0.85335 0.34019 0.40844 0.0
H162 H 0.8194 0.36914 0.43553 0.0
H163 H 0.76123 0.28973 0.47086 0.0
H164 H 0.79603 0.26119 0.44488 0.0
H165 H 0.86677 0.22303 0.37942 0.0
H166 H 0.8814 0.18306 0.40848 0.0
H167 H 0.87509 0.22992 0.49846 0.0
H168 H 0.85938 0.26958 0.46905 0.0
H169 H 0.83968 0.29167 0.33268 0.0
H170 H 0.79878 0.22564 0.40088 0.0
O171 O 0.87946 0.29823 0.38287 0.0
H172 H 0.80402 0.26782 0.2914 0.0
H173 H 0.76286 0.20212 0.36022 0.0
C174 C 0.82722 0.29858 0.42476 0.0
C175 C 0.83372 0.3291 0.42269 0.0
C176 C 0.81411 0.3456 0.43797 0.0
C177 C 0.78738 0.33177 0.45514 0.0
C178 C 0.78177 0.30119 0.45822 0.0
C179 C 0.80154 0.28477 0.44316 0.0
C180 C 0.86123 0.24887 0.42215 0.0
C181 C 0.86843 0.22467 0.40542 0.0
C182 C 0.87708 0.20193 0.42209 0.0
C183 C 0.87933 0.2032 0.45587 0.0
C184 C 0.87301 0.228 0.47252 0.0
C185 C 0.86416 0.25075 0.45573 0.0
C186 C 0.82232 0.26001 0.36955 0.0
C187 C 0.82306 0.27206 0.33874 0.0
C188 C 0.80251 0.25856 0.3153 0.0
C189 C 0.78084 0.23292 0.32248 0.0
C190 C 0.77967 0.2215 0.35374 0.0
C191 C 0.80014 0.23499 0.37705 0.0
P192 P 0.36422 0.68513 0.21283 0.0
H193 H 0.34102 0.67125 0.14808 0.0
H194 H 0.29037 0.64886 0.12712 0.0
H195 H 0.25112 0.64507 0.22379 0.0
H196 H 0.30226 0.66764 0.24469 0.0
H197 H 0.42386 0.7251 0.21656 0.0
H198 H 0.44166 0.7758 0.20103 0.0
H199 H 0.34691 0.78322 0.18338 0.0
H200 H 0.32953 0.73189 0.19788 0.0
H201 H 0.36021 0.626 0.23532 0.0
H202 H 0.38267 0.71253 0.27678 0.0
O203 O 0.38852 0.67151 0.18809 0.0
H204 H 0.37459 0.60534 0.28483 0.0
H205 H 0.39598 0.69196 0.32742 0.0
C206 C 0.32563 0.67068 0.19804 0.0
C207 C 0.32157 0.66561 0.16485 0.0
C208 C 0.29254 0.65265 0.15286 0.0
C209 C 0.26664 0.64471 0.17375 0.0
C210 C 0.27051 0.65087 0.20698 0.0
C211 C 0.29977 0.6637 0.21901 0.0
C212 C 0.37536 0.72454 0.20854 0.0
C213 C 0.40682 0.73779 0.20994 0.0
C214 C 0.41697 0.76702 0.20104 0.0
C215 C 0.39588 0.78404 0.19064 0.0
C216 C 0.36406 0.77092 0.1906 0.0
C217 C 0.35396 0.74151 0.19933 0.0
C218 C 0.3702 0.67081 0.25221 0.0
C219 C 0.36762 0.64056 0.25546 0.0
C220 C 0.37578 0.62871 0.28409 0.0
C221 C 0.38658 0.64677 0.31065 0.0
C222 C 0.38831 0.6772 0.30756 0.0
C223 C 0.38034 0.68908 0.27862 0.0
P224 P 0.16907 0.34649 0.75171 0.0
H225 H 0.19199 0.30042 0.71741 0.0
H226 H 0.16781 0.25749 0.68687 0.0
H227 H 0.07846 0.28204 0.70097 0.0
H228 H 0.1034 0.32612 0.73045 0.0
H229 H 0.23442 0.34278 0.74389 0.0
H230 H 0.27737 0.36921 0.71116 0.0
H231 H 0.21691 0.42252 0.67321 0.0
H232 H 0.17332 0.3952 0.7056 0.0
H233 H 0.11075 0.33203 0.78945 0.0
H234 H 0.17781 0.40973 0.76621 0.0
O235 O 0.1853 0.3307 0.78083 0.0
H236 H 0.08537 0.36007 0.82839 0.0
H237 H 0.15223 0.43794 0.80422 0.0
C238 C 0.14959 0.31647 0.72666 0.0
C239 C 0.16721 0.29683 0.71371 0.0
C240 C 0.1532 0.27195 0.69647 0.0
C241 C 0.12094 0.26569 0.69185 0.0
C242 C 0.10334 0.28599 0.70395 0.0
C243 C 0.11756 0.31119 0.72113 0.0
C244 C 0.20071 0.36744 0.72791 0.0
C245 C 0.23025 0.36024 0.72875 0.0
C246 C 0.25485 0.37527 0.70986 0.0
C247 C 0.25059 0.39807 0.68978 0.0
C248 C 0.22095 0.40528 0.68878 0.0
C249 C 0.19607 0.38972 0.70727 0.0
C250 C 0.14551 0.3688 0.77353 0.0
C251 C 0.11926 0.35536 0.79157 0.0
C252 C 0.10484 0.37147 0.81414 0.0
C253 C 0.11668 0.40141 0.81972 0.0
C254 C 0.14253 0.41493 0.80099 0.0
C255 C 0.15691 0.39879 0.77853 0.0
Sm256 Sm 1.00186 0.03781 0.50924 0.0
Sm257 Sm 0.99653 1.00775 0.5727 0.0
C258 C 1.00177 0.07491 0.46164 0.0
C259 C 0.02401 0.10051 0.45025 0.0
C260 C 0.02343 0.10934 0.41823 0.0
C261 C 0.04723 0.13096 0.40591 0.0
C262 C 0.07194 0.14401 0.42551 0.0
C263 C 0.07155 0.13608 0.45808 0.0
C264 C 0.04784 0.11438 0.47032 0.0
C265 C 0.05206 1.01284 0.52171 0.0
C266 C 0.02825 0.07518 0.57565 0.0
C267 C 0.99134 0.96883 0.6189 0.0
C268 C 0.96645 0.94309 0.6228 0.0
C269 C 0.96652 0.92319 0.6477 0.0
C270 C 0.94115 0.90011 0.65215 0.0
C271 C 0.91547 0.89689 0.63179 0.0
C272 C 0.91625 0.91623 0.60609 0.0
C273 C 0.94145 0.93913 0.6017 0.0
C274 C 0.9472 0.03374 0.55823 0.0
C275 C 0.97133 0.96987 0.50698 0.0
O276 O 0.98857 0.07762 0.48983 0.0
O277 O 0.01096 0.05003 0.45796 0.0
O278 O 0.03865 1.02671 0.54213 0.0
O279 O 0.04021 1.0132 0.49348 0.0
O280 O 0.01659 0.07586 0.54654 0.0
O281 O 0.02811 0.04999 0.5898 0.0
O282 O 1.00938 0.9682 0.59344 0.0
O283 O 0.98238 0.99384 0.62264 0.0
O284 O 0.96068 1.0186 0.53955 0.0
O285 O 0.95887 0.03457 0.58669 0.0
O286 O 0.98385 0.96966 0.53558 0.0
O287 O 0.97053 0.99488 0.49291 0.0
H288 H 1.00522 0.09876 0.40244 0.0
H289 H 0.04682 0.13685 0.38079 0.0
H290 H 0.09045 0.14547 0.47365 0.0
H291 H 0.04883 0.10758 0.49505 0.0
H292 H 0.98568 0.92595 0.66415 0.0
H293 H 0.94097 0.88564 0.67234 0.0
H294 H 0.89692 0.91412 0.58991 0.0
H295 H 0.94099 0.95434 0.58233 0.0
Sm296 Sm 0.52934 0.03288 0.07286 0.0
Sm297 Sm 0.46913 1.02161 0.04441 0.0
C298 C 0.58339 0.05351 0.09986 0.0
C299 C 0.60123 0.07823 0.11805 0.0
C300 C 0.63225 0.08873 0.10889 0.0
C301 C 0.65118 0.10945 0.12794 0.0
C302 C 0.63947 0.11995 0.1567 0.0
C303 C 0.60788 0.11053 0.16498 0.0
C304 C 0.58888 0.08981 0.14579 0.0
C305 C 0.49387 0.97979 0.09208 0.0
C306 C 0.47523 0.06291 0.10499 0.0
C307 C 0.41673 1.00035 1.01489 0.0
C308 C 0.40969 0.99767 0.98033 0.0
C309 C 0.39256 0.97151 0.96786 0.0
C310 C 0.38883 0.96768 0.93456 0.0
C311 C 0.40221 0.99002 0.91319 0.0
C312 C 0.41863 1.0165 0.92595 0.0
C313 C 0.42253 1.02021 0.95911 0.0
C314 C 0.50502 0.07365 1.02272 0.0
C315 C 0.52424 0.99102 1.01131 0.0
O316 O 0.578 0.05774 0.06965 0.0
O317 O 0.56015 0.03682 0.11479 0.0
O318 O 0.48376 1.00339 0.09042 0.0
O319 O 0.52299 0.98399 0.08383 0.0
O320 O 0.50477 0.06748 0.09628 0.0
O321 O 0.45583 0.04059 0.09269 0.0
O322 O 0.43541 0.98387 1.02481 0.0
O323 O 0.42328 1.02688 1.02676 0.0
O324 O 0.51479 0.05007 1.02603 0.0
O325 O 0.47569 0.06972 1.0297 0.0
O326 O 0.49429 0.99101 1.01382 0.0
O327 O 0.54418 1.00822 1.02953 0.0
H328 H 0.64216 0.08014 0.08749 0.0
H329 H 0.67524 0.11669 0.12057 0.0
H330 H 0.5982 0.11808 0.18706 0.0
H331 H 0.56492 0.08214 0.15326 0.0
H332 H 0.38283 0.95373 0.98381 0.0
H333 H 0.37633 0.94691 0.92553 0.0
H334 H 0.42876 0.03435 0.91028 0.0
H335 H 0.43618 0.04052 0.96804 0.0
Sm336 Sm 0.49988 0.50098 0.53284 0.0
Sm337 Sm 0.49376 0.54991 0.57643 0.0
C338 C 0.52078 0.45995 0.49907 0.0
C339 C 0.54866 0.44718 0.50067 0.0
C340 C 0.57487 0.46204 0.51687 0.0
C341 C 0.60177 0.45032 0.51744 0.0
C342 C 0.6028 0.42348 0.50199 0.0
C343 C 0.57621 0.40838 0.48642 0.0
C344 C 0.54934 0.42019 0.48574 0.0
C345 C 0.44219 0.49352 0.56279 0.0
C346 C 0.52519 0.5009 0.60717 0.0
C347 C 0.47396 0.59169 0.60997 0.0
C348 C 0.46318 0.61871 0.60229 0.0
C349 C 0.44371 0.61978 0.57614 0.0
C350 C 0.43392 0.64568 0.56901 0.0
C351 C 0.44353 0.67106 0.58778 0.0
C352 C 0.46327 0.66991 0.61378 0.0
C353 C 0.47293 0.64396 0.62097 0.0
C354 C 0.55125 0.55678 0.54594 0.0
C355 C 0.46906 0.55082 0.50091 0.0
O356 O 0.52554 0.48734 0.49054 0.0
O357 O 0.50095 0.45414 0.52317 0.0
O358 O 0.46772 0.50314 0.57631 0.0
O359 O 0.44678 0.48677 0.53281 0.0
O360 O 0.5301 0.49428 0.57659 0.0
O361 O 0.50735 0.51984 0.61458 0.0
O362 O 0.45591 0.56709 0.60163 0.0
O363 O 0.50336 0.59178 0.60422 0.0
O364 O 0.52548 0.5477 0.53278 0.0
O365 O 0.54721 0.56323 0.57611 0.0
O366 O 0.47013 0.56242 0.53029 0.0
O367 O 0.48048 0.52715 0.49463 0.0
H368 H 0.57464 0.48286 0.52874 0.0
H369 H 0.62178 0.46228 0.5299 0.0
H370 H 0.57645 0.38781 0.47401 0.0
H371 H 0.52925 0.40845 0.4732 0.0
H372 H 0.43593 0.60059 0.56126 0.0
H373 H 0.41847 0.64566 0.54906 0.0
H374 H 0.47156 0.68916 0.62839 0.0
H375 H 0.48817 0.64363 0.64107 0.0
Sm376 Sm 1.00302 0.49022 0.06785 0.0
Sm377 Sm 0.99692 0.54726 0.04003 0.0
C378 C 0.02255 0.44208 0.08339 0.0
C379 C 0.05146 0.43409 0.09426 0.0
C380 C 0.06265 0.41141 0.07827 0.0
C381 C 0.09023 0.40362 0.08766 0.0
C382 C 0.10713 0.41821 0.11349 0.0
C383 C 0.0959 0.44111 0.12936 0.0
C384 C 0.06842 0.44907 0.11974 0.0
C385 C 0.971 0.52238 0.10787 0.0
C386 C 0.06011 0.54767 0.07781 0.0
C387 C 0.97839 0.5957 1.02361 0.0
C388 C 0.95032 0.60496 1.01179 0.0
C389 C 0.92551 0.6077 1.03298 0.0
C390 C 0.89997 0.6182 1.02199 0.0
C391 C 0.89867 0.62621 0.98962 0.0
C392 C 0.92324 0.62301 0.96834 0.0
C393 C 0.94883 0.61261 0.97935 0.0
C394 C 0.02864 0.51453 1.00021 0.0
C395 C 0.93949 0.48995 1.03045 0.0
O396 O 0.02315 0.45157 0.05386 0.0
O397 O 1.00775 0.45655 0.10366 0.0
O398 O 0.99533 0.53251 0.09159 0.0
O399 O 0.96336 0.49419 0.10411 0.0
O400 O 0.05197 0.51884 0.07632 0.0
O401 O 0.04123 0.56439 0.06804 0.0
O402 O 0.97725 0.58619 0.05318 0.0
O403 O 0.99315 0.5809 1.00367 0.0
O404 O 1.00412 0.50488 1.01632 0.0
O405 O 0.03701 0.54263 1.00434 0.0
O406 O 0.94806 0.51879 1.03088 0.0
O407 O 0.95795 0.47315 0.04105 0.0
H408 H 0.05009 0.39979 0.05832 0.0
H409 H 0.09842 0.38631 0.07442 0.0
H410 H 0.10806 0.45263 0.14957 0.0
H411 H 0.06046 0.46687 0.1323 0.0
H412 H 0.92594 0.60214 0.05819 0.0
H413 H 0.88129 0.6202 0.0389 0.0
H414 H 0.92318 0.62944 0.94337 0.0
H415 H 0.96774 0.61107 0.96256 0.0
H416 H 0.22402 0.28034 0.35422 0.0
H417 H 0.25414 0.19781 0.34315 0.0
H418 H 0.17535 0.25518 0.37944 0.0
H419 H 0.20548 0.17281 0.36772 0.0
H420 H 0.10209 0.13559 0.36925 0.0
H421 H 0.15046 0.16428 0.348 0.0
H422 H 0.15376 0.22414 0.4289 0.0
H423 H 0.10478 0.1955 0.45013 0.0
C424 C 0.2205 0.25695 0.35766 0.0
C425 C 0.24273 0.24099 0.34632 0.0
C426 C 0.19262 0.24258 0.37197 0.0
C427 C 0.18651 0.21204 0.37497 0.0
C428 C 0.20934 0.19632 0.36503 0.0
C429 C 0.23717 0.21063 0.35097 0.0
C430 C 0.11277 0.15517 0.38222 0.0
C431 C 0.09963 0.16334 0.41132 0.0
C432 C 0.14066 0.17137 0.37027 0.0
C433 C 0.15599 0.19619 0.38704 0.0
C434 C 0.14237 0.20507 0.41554 0.0
C435 C 0.1145 0.18865 0.42771 0.0
H436 H 0.36685 0.92381 0.71728 0.0
H437 H 0.40927 1.01496 0.70638 0.0
H438 H 0.37154 0.92902 0.77563 0.0
H439 H 0.41454 1.01987 0.76469 0.0
H440 H 0.4473 1.00759 0.86711 0.0
H441 H 0.44343 1.00148 0.80884 0.0
H442 H 0.34857 0.9556 0.82048 0.0
H443 H 0.35212 0.96222 0.87889 0.0
C444 C 0.37707 0.94498 0.72729 0.0
C445 C 0.38756 0.96901 0.70711 0.0
C446 C 0.37979 0.94791 0.76071 0.0
C447 C 0.39331 0.97485 0.77467 0.0
C448 C 0.40431 0.99875 0.75454 0.0
C449 C 0.40138 0.99589 0.72113 0.0
C450 C 0.42546 0.99651 0.85729 0.0
C451 C 0.39992 0.9856 0.8777 0.0
C452 C 0.42332 0.99293 0.8239 0.0
C453 C 0.39569 0.97815 0.81015 0.0
C454 C 0.37027 0.96684 0.83048 0.0
C455 C 0.37233 0.97059 0.86391 0.0
H456 H 0.5833 0.37269 0.73181 0.0
H457 H 0.61551 0.45481 0.78104 0.0
H458 H 0.56226 0.39827 0.68936 0.0
H459 H 0.59493 0.48051 0.73818 0.0
H460 H 0.52451 0.51234 0.67244 0.0
H461 H 0.54587 0.48746 0.71536 0.0
H462 H 0.57927 0.4315 0.64453 0.0
H463 H 0.5578 0.45628 0.6016 0.0
C464 C 0.58574 0.3962 0.73377 0.0
C465 C 0.60109 0.41156 0.76012 0.0
C466 C 0.57396 0.41096 0.70912 0.0
C467 C 0.5769 0.44157 0.71009 0.0
C468 C 0.59197 0.45694 0.7366 0.0
C469 C 0.60403 0.44219 0.76113 0.0
C470 C 0.5365 0.4948 0.66593 0.0
C471 C 0.53931 0.48639 0.63339 0.0
C472 C 0.54891 0.48058 0.69063 0.0
C473 C 0.5643 0.4573 0.68361 0.0
C474 C 0.56726 0.44903 0.65102 0.0
C475 C 0.55509 0.46342 0.6263 0.0
H476 H 0.93269 0.64753 0.257 0.0
H477 H 0.84677 0.58489 0.2483 0.0
H478 H 0.95711 0.6201 0.21686 0.0
H479 H 0.87037 0.55881 0.20673 0.0
H480 H 0.92666 0.50108 0.15319 0.0
H481 H 0.90446 0.52772 0.19568 0.0
H482 H 0.96055 0.60866 0.16172 0.0
H483 H 0.98386 0.5815 0.12017 0.0
C484 C 0.91894 0.6279 0.24668 0.0
C485 C 0.88755 0.6187 0.25611 0.0
C486 C 0.93287 0.61233 0.22313 0.0
C487 C 0.91586 0.58711 0.20808 0.0
C488 C 0.88458 0.5778 0.2178 0.0
C489 C 0.87077 0.59317 0.24149 0.0
C490 C 0.93427 0.52457 0.1548 0.0
C491 C 0.95698 0.53914 0.13317 0.0
C492 C 0.92134 0.54 0.17913 0.0
C493 C 0.93039 0.5706 0.18238 0.0
C494 C 0.95316 0.58515 0.16054 0.0
C495 C 0.96637 0.56961 0.1364 0.0
H496 H 0.37812 0.17085 0.22997 0.0
H497 H 0.4414 0.23011 0.16902 0.0
H498 H 0.39723 0.12949 0.20564 0.0
H499 H 0.46009 0.18874 0.14428 0.0
H500 H 0.50927 0.11227 0.13172 0.0
H501 H 0.49028 0.15158 0.16004 0.0
H502 H 0.39616 0.10358 0.15233 0.0
H503 H 0.41515 0.06395 0.12399 0.0
C504 C 0.39621 0.17503 0.21147 0.0
C505 C 0.40836 0.20373 0.20147 0.0
C506 C 0.40693 0.15134 0.19736 0.0
C507 C 0.43021 0.15587 0.17314 0.0
C508 C 0.44237 0.18458 0.16317 0.0
C509 C 0.43149 0.20825 0.1771 0.0
C510 C 0.48452 0.10989 0.13628 0.0
C511 C 0.46369 0.08502 0.12538 0.0
C512 C 0.47366 0.13254 0.15234 0.0
C513 C 0.44172 0.13083 0.15806 0.0
C514 C 0.42093 0.10546 0.14835 0.0
C515 C 0.4318 0.08279 0.13209 0.0
H516 H 0.22337 0.97034 0.59241 0.0
H517 H 0.23983 0.98673 0.49074 0.0
H518 H 0.17006 0.97712 0.58752 0.0
H519 H 0.18674 0.99433 0.48584 0.0
H520 H 0.08952 1.02514 0.57371 0.0
H521 H 0.14141 1.01468 0.57947 0.0
H522 H 0.13381 0.97014 0.48691 0.0
H523 H 0.08249 0.98164 0.48077 0.0
C524 C 0.21558 0.9756 0.56904 0.0
C525 C 0.23572 0.97812 0.54196 0.0
C526 C 0.18507 0.97957 0.56624 0.0
C527 C 0.17407 0.98639 0.53632 0.0
C528 C 0.19423 0.98863 0.50916 0.0
C529 C 0.22468 0.98438 0.51193 0.0
C530 C 0.09894 1.01297 0.55475 0.0
C531 C 0.08218 1.00438 0.5267 0.0
C532 C 0.12861 1.00683 0.55807 0.0
C533 C 0.14194 0.99171 0.53354 0.0
C534 C 0.12459 0.98236 0.50596 0.0
C535 C 0.09509 0.98874 0.50253 0.0
H536 H 0.75791 0.44573 0.93653 0.0
H537 H 0.79644 0.36729 0.93189 0.0
H538 H 0.80201 0.46995 0.96784 0.0
H539 H 0.84134 0.392 0.96087 0.0
H540 H 0.90856 0.4332 1.03579 0.0
H541 H 0.86084 0.40969 1.01006 0.0
H542 H 0.85484 0.49135 0.96517 0.0
H543 H 0.90187 0.51511 0.99226 0.0
C544 C 0.77567 0.43355 0.94215 0.0
C545 C 0.77336 0.40444 0.93128 0.0
C546 C 0.80135 0.44766 0.9598 0.0
C547 C 0.82567 0.43317 0.96704 0.0
C548 C 0.82313 0.40399 0.9564 0.0
C549 C 0.79739 0.38984 0.9391 0.0
C550 C 0.89694 0.44622 1.02063 0.0
C551 C 0.90924 0.47607 1.01609 0.0
C552 C 0.86956 0.43263 1.00555 0.0
C553 C 0.8538 0.44834 0.98498 0.0
C554 C 0.86584 0.47842 0.98102 0.0
C555 C 0.89305 0.4921 0.99648 0.0
H556 H 0.72655 0.65957 0.47848 0.0
H557 H 0.70595 0.59287 0.40448 0.0
H558 H 0.68031 0.63693 0.50874 0.0
H559 H 0.66055 0.5692 0.43572 0.0
H560 H 0.56157 0.55582 0.48058 0.0
H561 H 0.60962 0.57491 0.45072 0.0
H562 H 0.65672 0.59702 0.54065 0.0
H563 H 0.60834 0.57884 0.57029 0.0
C564 C 0.71229 0.63996 0.46867 0.0
C565 C 0.72009 0.62831 0.43875 0.0
C566 C 0.68586 0.62666 0.48635 0.0
C567 C 0.66639 0.60113 0.47482 0.0
C568 C 0.67459 0.58904 0.44527 0.0
C569 C 0.70101 0.60244 0.4275 0.0
C570 C 0.58225 0.56464 0.49393 0.0
C571 C 0.58106 0.56607 0.5278 0.0
C572 C 0.60995 0.57545 0.47681 0.0
C573 C 0.63727 0.58782 0.49312 0.0
C574 C 0.63615 0.5883 0.52711 0.0
C575 C 0.60842 0.57766 0.54419 0.0
H576 H 0.26561 0.33421 0.13982 0.0
H577 H 0.26343 0.39027 0.22354 0.0
H578 H 0.22246 0.35277 0.11741 0.0
H579 H 0.22095 0.40927 0.20063 0.0
H580 H 0.16076 0.4532 0.13494 0.0
H581 H 0.20743 0.43802 0.15362 0.0
H582 H 0.16602 0.34792 0.13394 0.0
H583 H 0.11908 0.36279 0.11623 0.0
C584 C 0.2561 0.35058 0.15338 0.0
C585 C 0.26795 0.36057 0.18362 0.0
C586 C 0.23143 0.36123 0.14049 0.0
C587 C 0.21826 0.38234 0.15736 0.0
C588 C 0.23085 0.39322 0.18693 0.0
C589 C 0.25532 0.38238 0.19998 0.0
C590 C 0.16145 0.43012 0.13485 0.0
C591 C 0.13604 0.40924 0.12406 0.0
C592 C 0.18826 0.42148 0.1454 0.0
C593 C 0.19041 0.39182 0.14506 0.0
C594 C 0.16524 0.37099 0.13395 0.0
C595 C 0.13834 0.37956 0.12373 0.0
H596 H 0.63541 0.23059 0.95555 0.0
H597 H 0.55358 0.22513 0.89848 0.0
H598 H 0.61106 0.1858 0.98348 0.0
H599 H 0.52958 0.18026 0.92586 0.0
H600 H 0.48188 0.12109 1.0061 0.0
H601 H 0.50808 0.16517 0.97896 0.0
H602 H 0.59323 0.13195 0.97518 0.0
H603 H 0.56669 0.08739 1.00274 0.0
C604 C 0.61219 0.21995 0.94902 0.0
C605 C 0.59649 0.23169 0.92474 0.0
C606 C 0.59836 0.19403 0.9648 0.0
C607 C 0.56827 0.17929 0.95705 0.0
C608 C 0.55263 0.19107 0.93278 0.0
C609 C 0.56653 0.21676 0.91684 0.0
C610 C 0.5062 0.12305 0.99949 0.0
C611 C 0.5221 0.10053 1.00645 0.0
C612 C 0.52123 0.14837 0.98371 0.0
C613 C 0.55278 0.15219 0.97453 0.0
C614 C 0.56895 0.12987 0.98199 0.0
C615 C 0.55374 0.10426 0.99764 0.0
H616 H 0.86931 0.79443 0.45954 0.0
H617 H 0.92583 0.82078 0.37439 0.0
H618 H 0.89097 0.84084 0.48562 0.0
H619 H 0.94691 0.86744 0.40035 0.0
H620 H 0.95167 0.95986 0.44459 0.0
H621 H 0.93054 0.91295 0.41868 0.0
H622 H 0.93958 0.86856 0.50745 0.0
H623 H 0.9605 0.91528 0.53333 0.0
C624 C 0.88662 0.80987 0.44643 0.0
C625 C 0.89567 0.80356 0.41468 0.0
C626 C 0.89898 0.83665 0.46142 0.0
C627 C 0.92061 0.85807 0.44508 0.0
C628 C 0.92991 0.85172 0.41349 0.0
C629 C 0.91774 0.82486 0.39858 0.0
C630 C 0.94909 0.94011 0.4586 0.0
C631 C 0.95786 0.94146 0.49107 0.0
C632 C 0.93715 0.91315 0.44368 0.0
C633 C 0.93337 0.88686 0.46091 0.0
C634 C 0.94187 0.88831 0.49347 0.0
C635 C 0.95406 0.91518 0.50828 0.0
H636 H 0.4214 0.83837 0.51155 0.0
H637 H 0.355 0.82233 0.59099 0.0
H638 H 0.43541 0.79107 0.5202 0.0
H639 H 0.36765 0.77451 0.59832 0.0
H640 H 0.42629 0.71046 0.63062 0.0
H641 H 0.41005 0.75604 0.61903 0.0
H642 H 0.41849 0.73888 0.51683 0.0
H643 H 0.43645 0.69393 0.52848 0.0
C644 C 0.40954 0.82466 0.53061 0.0
C645 C 0.3872 0.83431 0.55067 0.0
C646 C 0.41732 0.79737 0.53534 0.0
C647 C 0.40285 0.77906 0.56015 0.0
C648 C 0.37967 0.78826 0.57936 0.0
C649 C 0.37204 0.81556 0.57479 0.0
C650 C 0.42505 0.71653 0.60566 0.0
C651 C 0.43284 0.69856 0.5805 0.0
C652 C 0.41525 0.74249 0.59899 0.0
C653 C 0.41277 0.75108 0.56697 0.0
C654 C 0.42038 0.73305 0.54176 0.0
C655 C 0.43034 0.7071 0.54845 0.0
H656 H 0.7269 0.81972 0.68807 0.0
H657 H 0.78889 0.78532 0.74939 0.0
H658 H 0.76959 0.83515 0.64945 0.0
H659 H 0.83156 0.80177 0.71211 0.0
H660 H 0.90889 0.83884 0.64665 0.0
H661 H 0.86139 0.80587 0.66462 0.0
H662 H 0.81014 0.87535 0.65337 0.0
H663 H 0.85694 0.90735 0.6344 0.0
C664 C 0.74945 0.81475 0.69281 0.0
C665 C 0.75467 0.80167 0.72187 0.0
C666 C 0.77401 0.82382 0.6709 0.0
C667 C 0.80435 0.82059 0.67807 0.0
C668 C 0.80867 0.80464 0.70551 0.0
C669 C 0.78405 0.79514 0.72706 0.0
C670 C 0.88725 0.84671 0.64757 0.0
C671 C 0.88658 0.87564 0.63933 0.0
C672 C 0.86004 0.8279 0.65786 0.0
C673 C 0.83178 0.83787 0.66069 0.0
C674 C 0.8311 0.86648 0.65093 0.0
C675 C 0.8581 0.88504 0.64025 0.0
H676 H 0.74822 0.25665 0.27775 0.0
H677 H 0.76655 0.17432 0.3105 0.0
H678 H 0.71432 0.23073 0.23628 0.0
H679 H 0.73213 0.14852 0.26997 0.0
H680 H 0.69763 0.11403 0.17282 0.0
H681 H 0.732 0.14283 0.21138 0.0
H682 H 0.66352 0.19616 0.23152 0.0
H683 H 0.62929 0.1678 0.19185 0.0
C684 C 0.74504 0.23306 0.27606 0.0
C685 C 0.76004 0.21752 0.29738 0.0
C686 C 0.72542 0.21823 0.25256 0.0
C687 C 0.72066 0.18761 0.24981 0.0
C688 C 0.73563 0.17215 0.2712 0.0
C689 C 0.75509 0.18691 0.29467 0.0
C690 C 0.69006 0.13222 0.18498 0.0
C691 C 0.66075 0.13869 0.17917 0.0
C692 C 0.70963 0.14849 0.2074 0.0
C693 C 0.70037 0.17161 0.22467 0.0
C694 C 0.67135 0.17856 0.21843 0.0
C695 C 0.65166 0.16218 0.19597 0.0
H696 H 0.43347 0.67074 0.35223 0.0
H697 H 0.36323 0.59303 0.33791 0.0
H698 H 0.45178 0.64836 0.39896 0.0
H699 H 0.38246 0.57047 0.38374 0.0
H700 H 0.45143 0.52815 0.44126 0.0
H701 H 0.43052 0.55186 0.39709 0.0
H702 H 0.43553 0.63009 0.45526 0.0
H703 H 0.45628 0.60629 0.49967 0.0
C704 C 0.42161 0.64907 0.35908 0.0
C705 C 0.39686 0.63381 0.3407 0.0
C706 C 0.43229 0.63616 0.38592 0.0
C707 C 0.41883 0.60745 0.39504 0.0
C708 C 0.39378 0.59239 0.37713 0.0
C709 C 0.38283 0.60541 0.35061 0.0
C710 C 0.44801 0.55038 0.44476 0.0
C711 C 0.45556 0.5652 0.47419 0.0
C712 C 0.43584 0.56395 0.41942 0.0
C713 C 0.43128 0.59294 0.42251 0.0
C714 C 0.43892 0.60784 0.4519 0.0
C715 C 0.45065 0.59409 0.47747 0.0
H716 H 0.14796 0.44274 0.8613 0.0
H717 H 0.05533 0.39768 0.83877 0.0
H718 H 0.12703 0.46932 0.90468 0.0
H719 H 0.0343 0.42439 0.88234 0.0
H720 H 1.00965 0.45684 0.98327 0.0
H721 H 0.03063 0.42945 0.94015 0.0
H722 H 0.09801 0.50682 0.91533 0.0
H723 H 0.07744 0.53384 0.95885 0.0
C724 C 0.12305 0.43873 0.86524 0.0
C725 C 0.10342 0.41807 0.84614 0.0
C726 C 0.11099 0.45403 0.8903 0.0
C727 C 0.07886 0.44921 0.8972 0.0
C728 C 0.05919 0.42848 0.87818 0.0
C729 C 0.07128 0.41314 0.85306 0.0
C730 C 0.02905 0.46792 0.96868 0.0
C731 C 0.04189 0.49753 0.97456 0.0
C732 C 0.04095 0.45228 0.94373 0.0
C733 C 0.06608 0.4658 0.92399 0.0
C734 C 0.07898 0.49543 0.93015 0.0
C735 C 0.06707 0.51104 0.95507 0.0
H736 H 0.59976 0.88617 0.86652 0.0
H737 H 0.58901 0.83616 0.95442 0.0
H738 H 0.57145 0.92104 0.89181 0.0
H739 H 0.56214 0.87205 0.9799 0.0
H740 H 0.57865 0.97207 1.01544 0.0
H741 H 0.59519 0.93253 0.9849 0.0
H742 H 0.51196 0.92052 0.92921 0.0
H743 H 0.49462 0.95991 0.96048 0.0
C744 C 0.5906 0.88202 0.89083 0.0
C745 C 0.59713 0.8585 0.90859 0.0
C746 C 0.57454 0.90214 0.90528 0.0
C747 C 0.56505 0.89921 0.93774 0.0
C748 C 0.56951 0.87472 0.95483 0.0
C749 C 0.58507 0.85436 0.94028 0.0
C750 C 0.56391 0.96128 0.99652 0.0
C751 C 0.53533 0.96913 0.99033 0.0
C752 C 0.5733 0.93852 0.97928 0.0
C753 C 0.55462 0.92349 0.95511 0.0
C754 C 0.52656 0.93183 0.94795 0.0
C755 C 0.51677 0.95432 0.96574 0.0
H756 H 0.85554 0.17959 0.51358 0.0
H757 H 0.92268 0.17088 0.43789 0.0
H758 H 0.86803 0.13718 0.54058 0.0
H759 H 0.9344 0.12829 0.4644 0.0
H760 H 0.92351 0.03608 0.49886 0.0
H761 H 0.90476 0.07697 0.47568 0.0
H762 H 0.9149 0.1224 0.5675 0.0
H763 H 0.9338 0.08137 0.59077 0.0
C764 C 0.87311 0.16883 0.50284 0.0
C765 C 0.88791 0.17849 0.4734 0.0
C766 C 0.8801 0.1445 0.51822 0.0
C767 C 0.90178 0.12924 0.50427 0.0
C768 C 0.91704 0.13925 0.47527 0.0
C769 C 0.91029 0.16365 0.4601 0.0
C770 C 0.92117 0.05456 0.51425 0.0
C771 C 0.93041 0.05577 0.54646 0.0
C772 C 0.91065 0.07801 0.50094 0.0
C773 C 0.9089 0.10299 0.51969 0.0
C774 C 0.91606 0.10337 0.55254 0.0
C775 C 0.92682 0.07992 0.56584 0.0
H776 H 0.20827 0.65464 0.18951 0.0
H777 H 0.25552 0.60073 0.12838 0.0
H778 H 0.15859 0.63082 0.167 0.0
H779 H 0.20605 0.57729 0.10557 0.0
H780 H 0.10773 0.5212 0.0959 0.0
H781 H 0.15697 0.54398 0.11987 0.0
H782 H 0.13078 0.62835 0.1157 0.0
H783 H 0.08158 0.60566 0.09186 0.0
C784 C 0.20808 0.63762 0.1714 0.0
C785 C 0.23601 0.62975 0.16072 0.0
C786 C 0.1796 0.62413 0.15826 0.0
C787 C 0.17821 0.60213 0.13434 0.0
C788 C 0.20611 0.59395 0.12407 0.0
C789 C 0.23457 0.60763 0.13696 0.0
C790 C 0.11246 0.54463 0.09999 0.0
C791 C 0.09057 0.56154 0.09177 0.0
C792 C 0.1408 0.55773 0.11367 0.0
C793 C 0.14794 0.58806 0.11983 0.0
C794 C 0.12599 0.60492 0.11169 0.0
C795 C 0.0978 0.59188 0.09775 0.0
H796 H 0.27248 0.45718 0.6854 0.0
H797 H 0.28878 0.37415 0.64921 0.0
H798 H 0.31811 0.48234 0.65446 0.0
H799 H 0.33386 0.39917 0.61803 0.0
H800 H 0.39108 0.45656 0.54036 0.0
H801 H 0.34383 0.43499 0.5703 0.0
H802 H 0.37857 0.48382 0.65534 0.0
H803 H 0.4264 0.50512 0.62544 0.0
C804 C 0.28563 0.44437 0.67059 0.0
C805 C 0.27708 0.41371 0.66971 0.0
C806 C 0.31182 0.45873 0.65309 0.0
C807 C 0.32956 0.44273 0.6338 0.0
C808 C 0.32057 0.41212 0.63249 0.0
C809 C 0.29484 0.39778 0.65043 0.0
C810 C 0.38863 0.46288 0.56539 0.0
C811 C 0.41259 0.48243 0.58058 0.0
C812 C 0.36158 0.45042 0.58255 0.0
C813 C 0.35753 0.45759 0.61521 0.0
C814 C 0.38098 0.47797 0.63016 0.0
C815 C 0.40837 0.49008 0.61309 0.0
H816 H 0.74769 0.7214 0.96148 0.0
H817 H 0.79981 0.72323 0.87169 0.0
H818 H 0.77787 0.68751 0.98348 0.0
H819 H 0.83025 0.69007 0.89367 0.0
H820 H 0.86745 0.61521 0.93306 0.0
H821 H 0.82828 0.64035 0.91237 0.0
H822 H 0.83224 0.69218 0.99996 0.0
H823 H 0.87132 0.66709 1.02061 0.0
C824 C 0.7653 0.71424 0.94636 0.0
C825 C 0.77166 0.72512 0.91503 0.0
C826 C 0.78271 0.69506 0.95898 0.0
C827 C 0.80653 0.68622 0.94036 0.0
C828 C 0.8119 0.69621 0.90856 0.0
C829 C 0.79469 0.71545 0.89607 0.0
C830 C 0.85983 0.63188 0.94793 0.0
C831 C 0.87266 0.63932 0.97835 0.0
C832 C 0.83738 0.64623 0.93612 0.0
C833 C 0.82729 0.66837 0.95446 0.0
C834 C 0.8392 0.67497 0.98542 0.0
C835 C 0.86164 0.66061 0.99723 0.0
H836 H 0.4455 0.82525 0.2118 0.0
H837 H 0.37261 0.81295 0.14187 0.0
H838 H 0.46719 0.87277 0.18892 0.0
H839 H 0.39392 0.86115 0.11983 0.0
H840 H 0.43141 0.96263 0.10776 0.0
H841 H 0.40555 0.91648 0.1329 0.0
H842 H 0.49364 0.88887 0.13614 0.0
H843 H 0.5191 0.93427 0.11097 0.0
C844 C 0.43399 0.83252 0.19157 0.0
C845 C 0.40736 0.81467 0.1786 0.0
C846 C 0.44642 0.85998 0.17853 0.0
C847 C 0.43248 0.87078 0.15232 0.0
C848 C 0.40515 0.85364 0.14014 0.0
C849 C 0.39287 0.82593 0.15295 0.0
C850 C 0.44515 0.94667 0.11393 0.0
C851 C 0.47735 0.95224 0.10747 0.0
C852 C 0.43035 0.92019 0.1282 0.0
C853 C 0.44754 0.899 0.13683 0.0
C854 C 0.4797 0.90478 0.13032 0.0
C855 C 0.4943 0.93084 0.11569 0.0
H856 H 0.13623 0.21153 0.69599 0.0
H857 H 0.07174 0.25603 0.64998 0.0
H858 H 0.11437 0.16671 0.66756 0.0
H859 H 0.04859 0.21046 0.62269 0.0
H860 H 0.0358 0.13128 0.55293 0.0
H861 H 0.05724 0.17692 0.58083 0.0
H862 H 0.0709 0.12835 0.66532 0.0
H863 H 0.05039 0.08279 0.63711 0.0
C864 C 0.11736 0.21186 0.67977 0.0
C865 C 0.10609 0.23777 0.67519 0.0
C866 C 0.10443 0.18584 0.66373 0.0
C867 C 0.07954 0.18464 0.64269 0.0
C868 C 0.06797 0.21045 0.63833 0.0
C869 C 0.08102 0.23661 0.65436 0.0
C870 C 0.04348 0.1303 0.57744 0.0
C871 C 0.04148 0.10318 0.59262 0.0
C872 C 0.05558 0.1566 0.5936 0.0
C873 C 0.06597 0.1566 0.62548 0.0
C874 C 0.06373 0.12942 0.64065 0.0
C875 C 0.05177 0.10315 0.62447 0.0
H876 H 0.76857 0.37703 0.42553 0.0
H877 H 0.75248 0.32441 0.5114 0.0
H878 H 0.7263 0.40118 0.44169 0.0
H879 H 0.70953 0.34836 0.52721 0.0
H880 H 0.60972 0.36726 0.51152 0.0
H881 H 0.65704 0.34746 0.50455 0.0
H882 H 0.70896 0.43382 0.48318 0.0
H883 H 0.66155 0.45351 0.48945 0.0
C884 C 0.75653 0.37106 0.44825 0.0
C885 C 0.76394 0.3487 0.46713 0.0
C886 C 0.73219 0.38488 0.45746 0.0
C887 C 0.71455 0.37657 0.48565 0.0
C888 C 0.72253 0.35494 0.50515 0.0
C889 C 0.74707 0.34122 0.49605 0.0
C890 C 0.63129 0.382 0.50548 0.0
C891 C 0.63191 0.41187 0.5008 0.0
C892 C 0.65842 0.37074 0.50184 0.0
C893 C 0.68666 0.3891 0.49324 0.0
C894 C 0.68746 0.41913 0.48958 0.0
C895 C 0.66038 0.43042 0.49341 0.0
loop_
_geom_bond_atom_site_label_1
_geom_bond_atom_site_label_2
_geom_bond_distance
_geom_bond_site_symmetry_2
_ccdc_geom_bond_type
P0 O11 1.490 . S
P0 C14 1.812 . S
P0 C20 1.803 . S
P0 C26 1.819 . S
H1 C15 0.941 . S
H2 C16 0.939 . S
H3 C18 0.940 . S
H4 C19 0.940 . S
H5 C21 0.939 . S
H6 C22 0.942 . S
H7 C24 0.940 . S
H8 C25 0.939 . S
H9 C27 0.941 . S
H10 C31 0.939 . S
O11 P0 1.490 . S
H12 C28 0.939 . S
H13 C30 0.940 . S
C14 P0 1.812 . S
C14 C15 1.389 . S
C14 C19 1.391 . S
C15 H1 0.941 . S
C15 C14 1.389 . S
C15 C16 1.397 . S
C16 H2 0.939 . S
C16 C15 1.397 . S
C16 C17 1.378 . S
C17 C16 1.378 . S
C17 C18 1.378 . S
C18 H3 0.940 . S
C18 C17 1.378 . S
C18 C19 1.396 . S
C19 H4 0.940 . S
C19 C14 1.391 . S
C19 C18 1.396 . S
C20 P0 1.803 . S
C20 C21 1.378 . S
C20 C25 1.400 . S
C21 H5 0.939 . S
C21 C20 1.378 . S
C21 C22 1.361 . S
C22 H6 0.942 . S
C22 C21 1.361 . S
C22 C23 1.369 . S
C23 C22 1.369 . S
C23 C24 1.404 . S
C24 H7 0.940 . S
C24 C23 1.404 . S
C24 C25 1.389 . S
C25 H8 0.939 . S
C25 C20 1.400 . S
C25 C24 1.389 . S
C26 P0 1.819 . S
C26 C27 1.391 . S
C26 C31 1.391 . S
C27 H9 0.941 . S
C27 C26 1.391 . S
C27 C28 1.396 . S
C28 H12 0.939 . S
C28 C27 1.396 . S
C28 C29 1.397 . S
C29 C28 1.397 . S
C29 C30 1.385 . S
C30 H13 0.940 . S
C30 C29 1.385 . S
C30 C31 1.388 . S
C31 H10 0.939 . S
C31 C26 1.391 . S
C31 C30 1.388 . S
P32 O43 1.490 . S
P32 C46 1.812 . S
P32 C52 1.803 . S
P32 C58 1.819 . S
H33 C47 0.941 . S
H34 C48 0.939 . S
H35 C50 0.940 . S
H36 C51 0.940 . S
H37 C53 0.939 . S
H38 C54 0.942 . S
H39 C56 0.940 . S
H40 C57 0.939 . S
H41 C59 0.941 . S
H42 C63 0.939 . S
O43 P32 1.490 . S
H44 C60 0.939 . S
H45 C62 0.940 . S
C46 P32 1.812 . S
C46 C47 1.389 . S
C46 C51 1.391 . S
C47 H33 0.941 . S
C47 C46 1.389 . S
C47 C48 1.397 . S
C48 H34 0.939 . S
C48 C47 1.397 . S
C48 C49 1.378 . S
C49 C48 1.378 . S
C49 C50 1.378 . S
C50 H35 0.940 . S
C50 C49 1.378 . S
C50 C51 1.396 . S
C51 H36 0.940 . S
C51 C46 1.391 . S
C51 C50 1.396 . S
C52 P32 1.803 . S
C52 C53 1.378 . S
C52 C57 1.400 . S
C53 H37 0.939 . S
C53 C52 1.378 . S
C53 C54 1.361 . S
C54 H38 0.942 . S
C54 C53 1.361 . S
C54 C55 1.369 . S
C55 C54 1.369 . S
C55 C56 1.404 . S
C56 H39 0.940 . S
C56 C55 1.404 . S
C56 C57 1.389 . S
C57 H40 0.939 . S
C57 C52 1.400 . S
C57 C56 1.389 . S
C58 P32 1.819 . S
C58 C59 1.391 . S
C58 C63 1.391 . S
C59 H41 0.941 . S
C59 C58 1.391 . S
C59 C60 1.396 . S
C60 H44 0.939 . S
C60 C59 1.396 . S
C60 C61 1.397 . S
C61 C60 1.397 . S
C61 C62 1.385 . S
C62 H45 0.940 . S
C62 C61 1.385 . S
C62 C63 1.388 . S
C63 H42 0.939 . S
C63 C58 1.391 . S
C63 C62 1.388 . S
P64 O75 1.490 . S
P64 C78 1.812 . S
P64 C84 1.803 . S
P64 C90 1.819 . S
H65 C79 0.941 . S
H66 C80 0.939 . S
H67 C82 0.940 . S
H68 C83 0.940 . S
H69 C85 0.939 . S
H70 C86 0.942 . S
H71 C88 0.940 . S
H72 C89 0.939 . S
H73 C91 0.941 . S
H74 C95 0.939 . S
O75 P64 1.490 . S
H76 C92 0.939 . S
H77 C94 0.940 . S
C78 P64 1.812 . S
C78 C79 1.389 . S
C78 C83 1.391 . S
C79 H65 0.941 . S
C79 C78 1.389 . S
C79 C80 1.397 . S
C80 H66 0.939 . S
C80 C79 1.397 . S
C80 C81 1.378 . S
C81 C80 1.378 . S
C81 C82 1.378 . S
C82 H67 0.940 . S
C82 C81 1.378 . S
C82 C83 1.396 . S
C83 H68 0.940 . S
C83 C78 1.391 . S
C83 C82 1.396 . S
C84 P64 1.803 . S
C84 C85 1.378 . S
C84 C89 1.400 . S
C85 H69 0.939 . S
C85 C84 1.378 . S
C85 C86 1.361 . S
C86 H70 0.942 . S
C86 C85 1.361 . S
C86 C87 1.369 . S
C87 C86 1.369 . S
C87 C88 1.404 . S
C88 H71 0.940 . S
C88 C87 1.404 . S
C88 C89 1.389 . S
C89 H72 0.939 . S
C89 C84 1.400 . S
C89 C88 1.389 . S
C90 P64 1.819 . S
C90 C91 1.391 . S
C90 C95 1.391 . S
C91 H73 0.941 . S
C91 C90 1.391 . S
C91 C92 1.396 . S
C92 H76 0.939 . S
C92 C91 1.396 . S
C92 C93 1.397 . S
C93 C92 1.397 . S
C93 C94 1.385 . S
C94 H77 0.940 . S
C94 C93 1.385 . S
C94 C95 1.388 . S
C95 H74 0.939 . S
C95 C90 1.391 . S
C95 C94 1.388 . S
P96 O107 1.490 . S
P96 C110 1.812 . S
P96 C116 1.803 . S
P96 C122 1.819 . S
H97 C111 0.941 . S
H98 C112 0.939 . S
H99 C114 0.940 . S
H100 C115 0.940 . S
H101 C117 0.939 . S
H102 C118 0.942 . S
H103 C120 0.940 . S
H104 C121 0.939 . S
H105 C123 0.941 . S
H106 C127 0.939 . S
O107 P96 1.490 . S
H108 C124 0.939 . S
H109 C126 0.940 . S
C110 P96 1.812 . S
C110 C111 1.389 . S
C110 C115 1.391 . S
C111 H97 0.941 . S
C111 C110 1.389 . S
C111 C112 1.397 . S
C112 H98 0.939 . S
C112 C111 1.397 . S
C112 C113 1.378 . S
C113 C112 1.378 . S
C113 C114 1.378 . S
C114 H99 0.940 . S
C114 C113 1.378 . S
C114 C115 1.396 . S
C115 H100 0.940 . S
C115 C110 1.391 . S
C115 C114 1.396 . S
C116 P96 1.803 . S
C116 C117 1.378 . S
C116 C121 1.400 . S
C117 H101 0.939 . S
C117 C116 1.378 . S
C117 C118 1.361 . S
C118 H102 0.942 . S
C118 C117 1.361 . S
C118 C119 1.369 . S
C119 C118 1.369 . S
C119 C120 1.404 . S
C120 H103 0.940 . S
C120 C119 1.404 . S
C120 C121 1.389 . S
C121 H104 0.939 . S
C121 C116 1.400 . S
C121 C120 1.389 . S
C122 P96 1.819 . S
C122 C123 1.391 . S
C122 C127 1.391 . S
C123 H105 0.941 . S
C123 C122 1.391 . S
C123 C124 1.396 . S
C124 H108 0.939 . S
C124 C123 1.396 . S
C124 C125 1.397 . S
C125 C124 1.397 . S
C125 C126 1.385 . S
C126 H109 0.940 . S
C126 C125 1.385 . S
C126 C127 1.388 . S
C127 H106 0.939 . S
C127 C122 1.391 . S
C127 C126 1.388 . S
P128 O139 1.490 . S
P128 C142 1.812 . S
P128 C148 1.803 . S
P128 C154 1.819 . S
H129 C143 0.941 . S
H130 C144 0.939 . S
H131 C146 0.940 . S
H132 C147 0.940 . S
H133 C149 0.939 . S
H134 C150 0.942 . S
H135 C152 0.940 . S
H136 C153 0.939 . S
H137 C155 0.941 . S
H138 C159 0.939 . S
O139 P128 1.490 . S
H140 C156 0.939 . S
H141 C158 0.940 . S
C142 P128 1.812 . S
C142 C143 1.389 . S
C142 C147 1.391 . S
C143 H129 0.941 . S
C143 C142 1.389 . S
C143 C144 1.397 . S
C144 H130 0.939 . S
C144 C143 1.397 . S
C144 C145 1.378 . S
C145 C144 1.378 . S
C145 C146 1.378 . S
C146 H131 0.940 . S
C146 C145 1.378 . S
C146 C147 1.396 . S
C147 H132 0.940 . S
C147 C142 1.391 . S
C147 C146 1.396 . S
C148 P128 1.803 . S
C148 C149 1.378 . S
C148 C153 1.400 . S
C149 H133 0.939 . S
C149 C148 1.378 . S
C149 C150 1.361 . S
C150 H134 0.942 . S
C150 C149 1.361 . S
C150 C151 1.369 . S
C151 C150 1.369 . S
C151 C152 1.404 . S
C152 H135 0.940 . S
C152 C151 1.404 . S
C152 C153 1.389 . S
C153 H136 0.939 . S
C153 C148 1.400 . S
C153 C152 1.389 . S
C154 P128 1.819 . S
C154 C155 1.391 . S
C154 C159 1.391 . S
C155 H137 0.941 . S
C155 C154 1.391 . S
C155 C156 1.396 . S
C156 H140 0.939 . S
C156 C155 1.396 . S
C156 C157 1.397 . S
C157 C156 1.397 . S
C157 C158 1.385 . S
C158 H141 0.940 . S
C158 C157 1.385 . S
C158 C159 1.388 . S
C159 H138 0.939 . S
C159 C154 1.391 . S
C159 C158 1.388 . S
P160 O171 1.490 . S
P160 C174 1.812 . S
P160 C180 1.803 . S
P160 C186 1.819 . S
H161 C175 0.941 . S
H162 C176 0.939 . S
H163 C178 0.940 . S
H164 C179 0.940 . S
H165 C181 0.939 . S
H166 C182 0.942 . S
H167 C184 0.940 . S
H168 C185 0.939 . S
H169 C187 0.941 . S
H170 C191 0.939 . S
O171 P160 1.490 . S
H172 C188 0.939 . S
H173 C190 0.940 . S
C174 P160 1.812 . S
C174 C175 1.389 . S
C174 C179 1.391 . S
C175 H161 0.941 . S
C175 C174 1.389 . S
C175 C176 1.397 . S
C176 H162 0.939 . S
C176 C175 1.397 . S
C176 C177 1.378 . S
C177 C176 1.378 . S
C177 C178 1.378 . S
C178 H163 0.940 . S
C178 C177 1.378 . S
C178 C179 1.396 . S
C179 H164 0.940 . S
C179 C174 1.391 . S
C179 C178 1.396 . S
C180 P160 1.803 . S
C180 C181 1.378 . S
C180 C185 1.400 . S
C181 H165 0.939 . S
C181 C180 1.378 . S
C181 C182 1.361 . S
C182 H166 0.942 . S
C182 C181 1.361 . S
C182 C183 1.369 . S
C183 C182 1.369 . S
C183 C184 1.404 . S
C184 H167 0.940 . S
C184 C183 1.404 . S
C184 C185 1.389 . S
C185 H168 0.939 . S
C185 C180 1.400 . S
C185 C184 1.389 . S
C186 P160 1.819 . S
C186 C187 1.391 . S
C186 C191 1.391 . S
C187 H169 0.941 . S
C187 C186 1.391 . S
C187 C188 1.396 . S
C188 H172 0.939 . S
C188 C187 1.396 . S
C188 C189 1.397 . S
C189 C188 1.397 . S
C189 C190 1.385 . S
C190 H173 0.940 . S
C190 C189 1.385 . S
C190 C191 1.388 . S
C191 H170 0.939 . S
C191 C186 1.391 . S
C191 C190 1.388 . S
P192 O203 1.490 . S
P192 C206 1.812 . S
P192 C212 1.803 . S
P192 C218 1.819 . S
H193 C207 0.941 . S
H194 C208 0.939 . S
H195 C210 0.940 . S
H196 C211 0.940 . S
H197 C213 0.939 . S
H198 C214 0.942 . S
H199 C216 0.940 . S
H200 C217 0.939 . S
H201 C219 0.941 . S
H202 C223 0.939 . S
O203 P192 1.490 . S
H204 C220 0.939 . S
H205 C222 0.940 . S
C206 P192 1.812 . S
C206 C207 1.389 . S
C206 C211 1.391 . S
C207 H193 0.941 . S
C207 C206 1.389 . S
C207 C208 1.397 . S
C208 H194 0.939 . S
C208 C207 1.397 . S
C208 C209 1.378 . S
C209 C208 1.378 . S
C209 C210 1.378 . S
C210 H195 0.940 . S
C210 C209 1.378 . S
C210 C211 1.396 . S
C211 H196 0.940 . S
C211 C206 1.391 . S
C211 C210 1.396 . S
C212 P192 1.803 . S
C212 C213 1.378 . S
C212 C217 1.400 . S
C213 H197 0.939 . S
C213 C212 1.378 . S
C213 C214 1.361 . S
C214 H198 0.942 . S
C214 C213 1.361 . S
C214 C215 1.369 . S
C215 C214 1.369 . S
C215 C216 1.404 . S
C216 H199 0.940 . S
C216 C215 1.404 . S
C216 C217 1.389 . S
C217 H200 0.939 . S
C217 C212 1.400 . S
C217 C216 1.389 . S
C218 P192 1.819 . S
C218 C219 1.391 . S
C218 C223 1.391 . S
C219 H201 0.941 . S
C219 C218 1.391 . S
C219 C220 1.396 . S
C220 H204 0.939 . S
C220 C219 1.396 . S
C220 C221 1.397 . S
C221 C220 1.397 . S
C221 C222 1.385 . S
C222 H205 0.940 . S
C222 C221 1.385 . S
C222 C223 1.388 . S
C223 H202 0.939 . S
C223 C218 1.391 . S
C223 C222 1.388 . S
P224 O235 1.490 . S
P224 C238 1.812 . S
P224 C244 1.803 . S
P224 C250 1.819 . S
H225 C239 0.941 . S
H226 C240 0.939 . S
H227 C242 0.940 . S
H228 C243 0.940 . S
H229 C245 0.939 . S
H230 C246 0.942 . S
H231 C248 0.940 . S
H232 C249 0.939 . S
H233 C251 0.941 . S
H234 C255 0.939 . S
O235 P224 1.490 . S
H236 C252 0.939 . S
H237 C254 0.940 . S
C238 P224 1.812 . S
C238 C239 1.389 . S
C238 C243 1.391 . S
C239 H225 0.941 . S
C239 C238 1.389 . S
C239 C240 1.397 . S
C240 H226 0.939 . S
C240 C239 1.397 . S
C240 C241 1.378 . S
C241 C240 1.378 . S
C241 C242 1.378 . S
C242 H227 0.940 . S
C242 C241 1.378 . S
C242 C243 1.396 . S
C243 H228 0.940 . S
C243 C238 1.391 . S
C243 C242 1.396 . S
C244 P224 1.803 . S
C244 C245 1.378 . S
C244 C249 1.400 . S
C245 H229 0.939 . S
C245 C244 1.378 . S
C245 C246 1.361 . S
C246 H230 0.942 . S
C246 C245 1.361 . S
C246 C247 1.369 . S
C247 C246 1.369 . S
C247 C248 1.404 . S
C248 H231 0.940 . S
C248 C247 1.404 . S
C248 C249 1.389 . S
C249 H232 0.939 . S
C249 C244 1.400 . S
C249 C248 1.389 . S
C250 P224 1.819 . S
C250 C251 1.391 . S
C250 C255 1.391 . S
C251 H233 0.941 . S
C251 C250 1.391 . S
C251 C252 1.396 . S
C252 H236 0.939 . S
C252 C251 1.396 . S
C252 C253 1.397 . S
C253 C252 1.397 . S
C253 C254 1.385 . S
C254 H237 0.940 . S
C254 C253 1.385 . S
C254 C255 1.388 . S
C255 H234 0.939 . S
C255 C250 1.391 . S
C255 C254 1.388 . S
Sm256 C258 2.846 . S
Sm256 O276 2.543 . S
Sm256 O277 2.450 . S
Sm256 O278 2.681 1_545 S
Sm256 O279 2.464 1_545 S
Sm256 O280 2.396 . S
Sm256 O284 2.386 1_455 S
Sm256 O287 2.408 1_445 S
Sm257 C267 2.846 . S
Sm257 O278 2.386 1_655 S
Sm257 O281 2.408 1_665 S
Sm257 O282 2.543 . S
Sm257 O283 2.450 . S
Sm257 O284 2.681 1_565 S
Sm257 O285 2.464 1_565 S
Sm257 O286 2.396 . S
C258 Sm256 2.846 . S
C258 C259 1.506 . S
C258 O276 1.261 . S
C258 O277 1.242 . S
C259 C258 1.506 . S
C259 C260 1.358 . S
C259 C264 1.382 . S
C260 C259 1.358 . S
C260 C261 1.385 . S
C260 H288 0.930 . S
C261 C260 1.385 . S
C261 C262 1.395 . S
C261 H289 0.929 . S
C262 C261 1.395 . S
C262 C263 1.335 . S
C263 C262 1.335 . S
C263 C264 1.398 . S
C263 H290 0.930 . S
C264 C259 1.382 . S
C264 C263 1.398 . S
C264 H291 0.929 . S
C265 O278 1.271 . S
C265 O279 1.251 . S
C266 O280 1.252 . S
C266 O281 1.272 . S
C267 Sm257 2.846 . S
C267 C268 1.506 . S
C267 O282 1.261 . S
C267 O283 1.242 . S
C268 C267 1.506 . S
C268 C269 1.358 . S
C268 C273 1.382 . S
C269 C268 1.358 . S
C269 C270 1.385 . S
C269 H292 0.930 . S
C270 C269 1.385 . S
C270 C271 1.395 . S
C270 H293 0.929 . S
C271 C270 1.395 . S
C271 C272 1.335 . S
C272 C271 1.335 . S
C272 C273 1.398 . S
C272 H294 0.930 . S
C273 C268 1.382 . S
C273 C272 1.398 . S
C273 H295 0.929 . S
C274 O284 1.271 . S
C274 O285 1.251 . S
C275 O286 1.252 . S
C275 O287 1.272 . S
O276 Sm256 2.543 . S
O276 C258 1.261 . S
O277 Sm256 2.450 . S
O277 C258 1.242 . S
O278 Sm256 2.681 1_565 S
O278 Sm257 2.386 1_455 S
O278 C265 1.271 . S
O279 Sm256 2.464 1_565 S
O279 C265 1.251 . S
O280 Sm256 2.396 . S
O280 C266 1.252 . S
O281 Sm257 2.408 1_445 S
O281 C266 1.272 . S
O282 Sm257 2.543 . S
O282 C267 1.261 . S
O283 Sm257 2.450 . S
O283 C267 1.242 . S
O284 Sm256 2.386 1_655 S
O284 Sm257 2.681 1_545 S
O284 C274 1.271 . S
O285 Sm257 2.464 1_545 S
O285 C274 1.251 . S
O286 Sm257 2.396 . S
O286 C275 1.252 . S
O287 Sm256 2.408 1_665 S
O287 C275 1.272 . S
H288 C260 0.930 . S
H289 C261 0.929 . S
H290 C263 0.930 . S
H291 C264 0.929 . S
H292 C269 0.930 . S
H293 C270 0.929 . S
H294 C272 0.930 . S
H295 C273 0.929 . S
Sm296 C298 2.846 . S
Sm296 O316 2.543 . S
Sm296 O317 2.450 . S
Sm296 O318 2.681 1_545 S
Sm296 O319 2.464 1_545 S
Sm296 O320 2.396 . S
Sm296 O324 2.386 1_554 S
Sm296 O327 2.408 1_544 S
Sm297 C307 2.846 1_545 S
Sm297 O318 2.386 1_546 S
Sm297 O321 2.408 1_556 S
Sm297 O322 2.543 1_545 S
Sm297 O323 2.450 . S
Sm297 O324 2.681 . S
Sm297 O325 2.464 . S
Sm297 O326 2.396 1_545 S
C298 Sm296 2.846 . S
C298 C299 1.506 . S
C298 O316 1.261 . S
C298 O317 1.242 . S
C299 C298 1.506 . S
C299 C300 1.358 . S
C299 C304 1.382 . S
C300 C299 1.358 . S
C300 C301 1.385 . S
C300 H328 0.930 . S
C301 C300 1.385 . S
C301 C302 1.395 . S
C301 H329 0.929 . S
C302 C301 1.395 . S
C302 C303 1.335 . S
C303 C302 1.335 . S
C303 C304 1.398 . S
C303 H330 0.930 . S
C304 C299 1.382 . S
C304 C303 1.398 . S
C304 H331 0.929 . S
C305 O318 1.271 . S
C305 O319 1.251 . S
C306 O320 1.252 . S
C306 O321 1.272 . S
C307 Sm297 2.846 1_565 S
C307 C308 1.506 . S
C307 O322 1.261 . S
C307 O323 1.239 1_565 S
C308 C307 1.506 . S
C308 C309 1.358 . S
C308 C313 1.382 . S
C309 C308 1.358 . S
C309 C310 1.385 . S
C309 H332 0.930 . S
C310 C309 1.385 . S
C310 C311 1.395 . S
C310 H333 0.929 . S
C311 C310 1.395 . S
C311 C312 1.335 . S
C312 C311 1.335 . S
C312 C313 1.398 . S
C312 H334 0.930 . S
C313 C308 1.382 . S
C313 C312 1.398 . S
C313 H335 0.929 . S
C314 O324 1.271 . S
C314 O325 1.251 . S
C315 O326 1.252 . S
C315 O327 1.272 . S
O316 Sm296 2.543 . S
O316 C298 1.261 . S
O317 Sm296 2.450 . S
O317 C298 1.242 . S
O318 Sm296 2.681 1_565 S
O318 Sm297 2.386 1_564 S
O318 C305 1.271 . S
O319 Sm296 2.464 1_565 S
O319 C305 1.251 . S
O320 Sm296 2.396 . S
O320 C306 1.252 . S
O321 Sm297 2.408 1_554 S
O321 C306 1.272 . S
O322 Sm297 2.543 1_565 S
O322 C307 1.261 . S
O323 Sm297 2.450 . S
O323 C307 1.239 1_545 S
O324 Sm296 2.386 1_556 S
O324 Sm297 2.681 . S
O324 C314 1.271 . S
O325 Sm297 2.464 . S
O325 C314 1.251 . S
O326 Sm297 2.396 1_565 S
O326 C315 1.252 . S
O327 Sm296 2.408 1_566 S
O327 C315 1.272 . S
H328 C300 0.930 . S
H329 C301 0.929 . S
H330 C303 0.930 . S
H331 C304 0.929 . S
H332 C309 0.930 . S
H333 C310 0.929 . S
H334 C312 0.930 . S
H335 C313 0.929 . S
Sm336 C338 2.846 . S
Sm336 O356 2.543 . S
Sm336 O357 2.450 . S
Sm336 O358 2.681 . S
Sm336 O359 2.464 . S
Sm336 O360 2.396 . S
Sm336 O364 2.386 . S
Sm336 O367 2.408 . S
Sm337 C347 2.846 . S
Sm337 O358 2.386 . S
Sm337 O361 2.408 . S
Sm337 O362 2.543 . S
Sm337 O363 2.450 . S
Sm337 O364 2.681 . S
Sm337 O365 2.464 . S
Sm337 O366 2.396 . S
C338 Sm336 2.846 . S
C338 C339 1.506 . S
C338 O356 1.261 . S
C338 O357 1.242 . S
C339 C338 1.506 . S
C339 C340 1.358 . S
C339 C344 1.382 . S
C340 C339 1.358 . S
C340 C341 1.385 . S
C340 H368 0.930 . S
C341 C340 1.385 . S
C341 C342 1.395 . S
C341 H369 0.929 . S
C342 C341 1.395 . S
C342 C343 1.335 . S
C343 C342 1.335 . S
C343 C344 1.398 . S
C343 H370 0.930 . S
C344 C339 1.382 . S
C344 C343 1.398 . S
C344 H371 0.929 . S
C345 O358 1.271 . S
C345 O359 1.251 . S
C346 O360 1.252 . S
C346 O361 1.272 . S
C347 Sm337 2.846 . S
C347 C348 1.506 . S
C347 O362 1.261 . S
C347 O363 1.242 . S
C348 C347 1.506 . S
C348 C349 1.358 . S
C348 C353 1.382 . S
C349 C348 1.358 . S
C349 C350 1.385 . S
C349 H372 0.930 . S
C350 C349 1.385 . S
C350 C351 1.395 . S
C350 H373 0.929 . S
C351 C350 1.395 . S
C351 C352 1.335 . S
C352 C351 1.335 . S
C352 C353 1.398 . S
C352 H374 0.930 . S
C353 C348 1.382 . S
C353 C352 1.398 . S
C353 H375 0.929 . S
C354 O364 1.271 . S
C354 O365 1.251 . S
C355 O366 1.252 . S
C355 O367 1.272 . S
O356 Sm336 2.543 . S
O356 C338 1.261 . S
O357 Sm336 2.450 . S
O357 C338 1.242 . S
O358 Sm336 2.681 . S
O358 Sm337 2.386 . S
O358 C345 1.271 . S
O359 Sm336 2.464 . S
O359 C345 1.251 . S
O360 Sm336 2.396 . S
O360 C346 1.252 . S
O361 Sm337 2.408 . S
O361 C346 1.272 . S
O362 Sm337 2.543 . S
O362 C347 1.261 . S
O363 Sm337 2.450 . S
O363 C347 1.242 . S
O364 Sm336 2.386 . S
O364 Sm337 2.681 . S
O364 C354 1.271 . S
O365 Sm337 2.464 . S
O365 C354 1.251 . S
O366 Sm337 2.396 . S
O366 C355 1.252 . S
O367 Sm336 2.408 . S
O367 C355 1.272 . S
H368 C340 0.930 . S
H369 C341 0.929 . S
H370 C343 0.930 . S
H371 C344 0.929 . S
H372 C349 0.930 . S
H373 C350 0.929 . S
H374 C352 0.930 . S
H375 C353 0.929 . S
Sm376 C378 2.846 . S
Sm376 O396 2.543 . S
Sm376 O397 2.450 . S
Sm376 O398 2.681 1_455 S
Sm376 O399 2.464 1_455 S
Sm376 O400 2.396 . S
Sm376 O404 2.386 1_554 S
Sm376 O407 2.408 1_454 S
Sm377 C387 2.846 . S
Sm377 O398 2.386 1_556 S
Sm377 O401 2.408 1_656 S
Sm377 O402 2.543 . S
Sm377 O403 2.450 . S
Sm377 O404 2.681 1_655 S
Sm377 O405 2.464 1_655 S
Sm377 O406 2.396 . S
C378 Sm376 2.846 . S
C378 C379 1.506 . S
C378 O396 1.261 . S
C378 O397 1.242 . S
C379 C378 1.506 . S
C379 C380 1.358 . S
C379 C384 1.382 . S
C380 C379 1.358 . S
C380 C381 1.385 . S
C380 H408 0.930 . S
C381 C380 1.385 . S
C381 C382 1.395 . S
C381 H409 0.929 . S
C382 C381 1.395 . S
C382 C383 1.335 . S
C383 C382 1.335 . S
C383 C384 1.398 . S
C383 H410 0.930 . S
C384 C379 1.382 . S
C384 C383 1.398 . S
C384 H411 0.929 . S
C385 O398 1.271 . S
C385 O399 1.251 . S
C386 O400 1.252 . S
C386 O401 1.272 . S
C387 Sm377 2.846 . S
C387 C388 1.506 . S
C387 O402 1.261 . S
C387 O403 1.242 . S
C388 C387 1.506 . S
C388 C389 1.358 . S
C388 C393 1.382 . S
C389 C388 1.358 . S
C389 C390 1.385 . S
C389 H412 0.930 . S
C390 C389 1.385 . S
C390 C391 1.395 . S
C390 H413 0.929 . S
C391 C390 1.395 . S
C391 C392 1.335 . S
C392 C391 1.335 . S
C392 C393 1.398 . S
C392 H414 0.930 . S
C393 C388 1.382 . S
C393 C392 1.398 . S
C393 H415 0.929 . S
C394 O404 1.271 . S
C394 O405 1.251 . S
C395 O406 1.252 . S
C395 O407 1.272 . S
O396 Sm376 2.543 . S
O396 C378 1.261 . S
O397 Sm376 2.450 . S
O397 C378 1.242 . S
O398 Sm376 2.681 1_655 S
O398 Sm377 2.386 1_554 S
O398 C385 1.271 . S
O399 Sm376 2.464 1_655 S
O399 C385 1.251 . S
O400 Sm376 2.396 . S
O400 C386 1.252 . S
O401 Sm377 2.408 1_454 S
O401 C386 1.272 . S
O402 Sm377 2.543 . S
O402 C387 1.261 . S
O403 Sm377 2.450 . S
O403 C387 1.242 . S
O404 Sm376 2.386 1_556 S
O404 Sm377 2.681 1_455 S
O404 C394 1.271 . S
O405 Sm377 2.464 1_455 S
O405 C394 1.251 . S
O406 Sm377 2.396 . S
O406 C395 1.252 . S
O407 Sm376 2.408 1_656 S
O407 C395 1.272 . S
H408 C380 0.930 . S
H409 C381 0.929 . S
H410 C383 0.930 . S
H411 C384 0.929 . S
H412 C389 0.930 . S
H413 C390 0.929 . S
H414 C392 0.930 . S
H415 C393 0.929 . S
H416 C424 0.950 . S
H417 C429 0.950 . S
H418 C426 0.950 . S
H419 C428 0.950 . S
H420 C430 0.950 . S
H421 C432 0.950 . S
H422 C434 0.950 . S
H423 C435 0.950 . S
C424 H416 0.950 . S
C424 C425 1.386 . S
C424 C426 1.391 . S
C425 C424 1.386 . S
C425 C429 1.393 . S
C426 H418 0.950 . S
C426 C424 1.391 . S
C426 C427 1.400 . S
C427 C426 1.400 . S
C427 C428 1.398 . S
C427 C433 1.491 . S
C428 H419 0.950 . S
C428 C427 1.398 . S
C428 C429 1.391 . S
C429 H417 0.950 . S
C429 C425 1.393 . S
C429 C428 1.391 . S
C430 H420 0.950 . S
C430 C431 1.386 . S
C430 C432 1.391 . S
C431 C430 1.386 . S
C431 C435 1.393 . S
C432 H421 0.950 . S
C432 C430 1.391 . S
C432 C433 1.400 . S
C433 C427 1.491 . S
C433 C432 1.400 . S
C433 C434 1.398 . S
C434 H422 0.950 . S
C434 C433 1.398 . S
C434 C435 1.391 . S
C435 H423 0.950 . S
C435 C431 1.393 . S
C435 C434 1.391 . S
H436 C444 0.950 . S
H437 C449 0.950 . S
H438 C446 0.950 . S
H439 C448 0.950 . S
H440 C450 0.950 . S
H441 C452 0.950 . S
H442 C454 0.950 . S
H443 C455 0.950 . S
C444 H436 0.950 . S
C444 C445 1.386 . S
C444 C446 1.391 . S
C445 C444 1.386 . S
C445 C449 1.393 . S
C446 H438 0.950 . S
C446 C444 1.391 . S
C446 C447 1.400 . S
C447 C446 1.400 . S
C447 C448 1.398 . S
C447 C453 1.491 . S
C448 H439 0.950 . S
C448 C447 1.398 . S
C448 C449 1.391 . S
C449 H437 0.950 . S
C449 C445 1.393 . S
C449 C448 1.391 . S
C450 H440 0.950 . S
C450 C451 1.386 . S
C450 C452 1.391 . S
C451 C450 1.386 . S
C451 C455 1.393 . S
C452 H441 0.950 . S
C452 C450 1.391 . S
C452 C453 1.400 . S
C453 C447 1.491 . S
C453 C452 1.400 . S
C453 C454 1.398 . S
C454 H442 0.950 . S
C454 C453 1.398 . S
C454 C455 1.391 . S
C455 H443 0.950 . S
C455 C451 1.393 . S
C455 C454 1.391 . S
H456 C464 0.950 . S
H457 C469 0.950 . S
H458 C466 0.950 . S
H459 C468 0.950 . S
H460 C470 0.950 . S
H461 C472 0.950 . S
H462 C474 0.950 . S
H463 C475 0.950 . S
C464 H456 0.950 . S
C464 C465 1.386 . S
C464 C466 1.391 . S
C465 C464 1.386 . S
C465 C469 1.393 . S
C466 H458 0.950 . S
C466 C464 1.391 . S
C466 C467 1.400 . S
C467 C466 1.400 . S
C467 C468 1.398 . S
C467 C473 1.491 . S
C468 H459 0.950 . S
C468 C467 1.398 . S
C468 C469 1.391 . S
C469 H457 0.950 . S
C469 C465 1.393 . S
C469 C468 1.391 . S
C470 H460 0.950 . S
C470 C471 1.386 . S
C470 C472 1.391 . S
C471 C470 1.386 . S
C471 C475 1.393 . S
C472 H461 0.950 . S
C472 C470 1.391 . S
C472 C473 1.400 . S
C473 C467 1.491 . S
C473 C472 1.400 . S
C473 C474 1.398 . S
C474 H462 0.950 . S
C474 C473 1.398 . S
C474 C475 1.391 . S
C475 H463 0.950 . S
C475 C471 1.393 . S
C475 C474 1.391 . S
H476 C484 0.950 . S
H477 C489 0.950 . S
H478 C486 0.950 . S
H479 C488 0.950 . S
H480 C490 0.950 . S
H481 C492 0.950 . S
H482 C494 0.950 . S
H483 C495 0.950 . S
C484 H476 0.950 . S
C484 C485 1.386 . S
C484 C486 1.391 . S
C485 C484 1.386 . S
C485 C489 1.393 . S
C486 H478 0.950 . S
C486 C484 1.391 . S
C486 C487 1.400 . S
C487 C486 1.400 . S
C487 C488 1.398 . S
C487 C493 1.491 . S
C488 H479 0.950 . S
C488 C487 1.398 . S
C488 C489 1.391 . S
C489 H477 0.950 . S
C489 C485 1.393 . S
C489 C488 1.391 . S
C490 H480 0.950 . S
C490 C491 1.386 . S
C490 C492 1.391 . S
C491 C490 1.386 . S
C491 C495 1.393 . S
C492 H481 0.950 . S
C492 C490 1.391 . S
C492 C493 1.400 . S
C493 C487 1.491 . S
C493 C492 1.400 . S
C493 C494 1.398 . S
C494 H482 0.950 . S
C494 C493 1.398 . S
C494 C495 1.391 . S
C495 H483 0.950 . S
C495 C491 1.393 . S
C495 C494 1.391 . S
H496 C504 0.950 . S
H497 C509 0.950 . S
H498 C506 0.950 . S
H499 C508 0.950 . S
H500 C510 0.950 . S
H501 C512 0.950 . S
H502 C514 0.950 . S
H503 C515 0.950 . S
C504 H496 0.950 . S
C504 C505 1.386 . S
C504 C506 1.391 . S
C505 C504 1.386 . S
C505 C509 1.393 . S
C506 H498 0.950 . S
C506 C504 1.391 . S
C506 C507 1.400 . S
C507 C506 1.400 . S
C507 C508 1.398 . S
C507 C513 1.491 . S
C508 H499 0.950 . S
C508 C507 1.398 . S
C508 C509 1.391 . S
C509 H497 0.950 . S
C509 C505 1.393 . S
C509 C508 1.391 . S
C510 H500 0.950 . S
C510 C511 1.386 . S
C510 C512 1.391 . S
C511 C510 1.386 . S
C511 C515 1.393 . S
C512 H501 0.950 . S
C512 C510 1.391 . S
C512 C513 1.400 . S
C513 C507 1.491 . S
C513 C512 1.400 . S
C513 C514 1.398 . S
C514 H502 0.950 . S
C514 C513 1.398 . S
C514 C515 1.391 . S
C515 H503 0.950 . S
C515 C511 1.393 . S
C515 C514 1.391 . S
H516 C524 0.950 . S
H517 C529 0.950 . S
H518 C526 0.950 . S
H519 C528 0.950 . S
H520 C530 0.950 . S
H521 C532 0.950 . S
H522 C534 0.950 . S
H523 C535 0.950 . S
C524 H516 0.950 . S
C524 C525 1.386 . S
C524 C526 1.391 . S
C525 C524 1.386 . S
C525 C529 1.393 . S
C526 H518 0.950 . S
C526 C524 1.391 . S
C526 C527 1.400 . S
C527 C526 1.400 . S
C527 C528 1.398 . S
C527 C533 1.491 . S
C528 H519 0.950 . S
C528 C527 1.398 . S
C528 C529 1.391 . S
C529 H517 0.950 . S
C529 C525 1.393 . S
C529 C528 1.391 . S
C530 H520 0.950 . S
C530 C531 1.386 . S
C530 C532 1.391 . S
C531 C530 1.386 . S
C531 C535 1.393 . S
C532 H521 0.950 . S
C532 C530 1.391 . S
C532 C533 1.400 . S
C533 C527 1.491 . S
C533 C532 1.400 . S
C533 C534 1.398 . S
C534 H522 0.950 . S
C534 C533 1.398 . S
C534 C535 1.391 . S
C535 H523 0.950 . S
C535 C531 1.393 . S
C535 C534 1.391 . S
H536 C544 0.950 . S
H537 C549 0.950 . S
H538 C546 0.950 . S
H539 C548 0.950 . S
H540 C550 0.950 . S
H541 C552 0.950 . S
H542 C554 0.950 . S
H543 C555 0.950 . S
C544 H536 0.950 . S
C544 C545 1.386 . S
C544 C546 1.391 . S
C545 C544 1.386 . S
C545 C549 1.393 . S
C546 H538 0.950 . S
C546 C544 1.391 . S
C546 C547 1.400 . S
C547 C546 1.400 . S
C547 C548 1.398 . S
C547 C553 1.491 . S
C548 H539 0.950 . S
C548 C547 1.398 . S
C548 C549 1.391 . S
C549 H537 0.950 . S
C549 C545 1.393 . S
C549 C548 1.391 . S
C550 H540 0.950 . S
C550 C551 1.386 . S
C550 C552 1.391 . S
C551 C550 1.386 . S
C551 C555 1.393 . S
C552 H541 0.950 . S
C552 C550 1.391 . S
C552 C553 1.400 . S
C553 C547 1.491 . S
C553 C552 1.400 . S
C553 C554 1.398 . S
C554 H542 0.950 . S
C554 C553 1.398 . S
C554 C555 1.391 . S
C555 H543 0.950 . S
C555 C551 1.393 . S
C555 C554 1.391 . S
H556 C564 0.950 . S
H557 C569 0.950 . S
H558 C566 0.950 . S
H559 C568 0.950 . S
H560 C570 0.950 . S
H561 C572 0.950 . S
H562 C574 0.950 . S
H563 C575 0.950 . S
C564 H556 0.950 . S
C564 C565 1.386 . S
C564 C566 1.391 . S
C565 C564 1.386 . S
C565 C569 1.393 . S
C566 H558 0.950 . S
C566 C564 1.391 . S
C566 C567 1.400 . S
C567 C566 1.400 . S
C567 C568 1.398 . S
C567 C573 1.491 . S
C568 H559 0.950 . S
C568 C567 1.398 . S
C568 C569 1.391 . S
C569 H557 0.950 . S
C569 C565 1.393 . S
C569 C568 1.391 . S
C570 H560 0.950 . S
C570 C571 1.386 . S
C570 C572 1.391 . S
C571 C570 1.386 . S
C571 C575 1.393 . S
C572 H561 0.950 . S
C572 C570 1.391 . S
C572 C573 1.400 . S
C573 C567 1.491 . S
C573 C572 1.400 . S
C573 C574 1.398 . S
C574 H562 0.950 . S
C574 C573 1.398 . S
C574 C575 1.391 . S
C575 H563 0.950 . S
C575 C571 1.393 . S
C575 C574 1.391 . S
H576 C584 0.950 . S
H577 C589 0.950 . S
H578 C586 0.950 . S
H579 C588 0.950 . S
H580 C590 0.950 . S
H581 C592 0.950 . S
H582 C594 0.950 . S
H583 C595 0.950 . S
C584 H576 0.950 . S
C584 C585 1.386 . S
C584 C586 1.391 . S
C585 C584 1.386 . S
C585 C589 1.393 . S
C586 H578 0.950 . S
C586 C584 1.391 . S
C586 C587 1.400 . S
C587 C586 1.400 . S
C587 C588 1.398 . S
C587 C593 1.491 . S
C588 H579 0.950 . S
C588 C587 1.398 . S
C588 C589 1.391 . S
C589 H577 0.950 . S
C589 C585 1.393 . S
C589 C588 1.391 . S
C590 H580 0.950 . S
C590 C591 1.386 . S
C590 C592 1.391 . S
C591 C590 1.386 . S
C591 C595 1.393 . S
C592 H581 0.950 . S
C592 C590 1.391 . S
C592 C593 1.400 . S
C593 C587 1.491 . S
C593 C592 1.400 . S
C593 C594 1.398 . S
C594 H582 0.950 . S
C594 C593 1.398 . S
C594 C595 1.391 . S
C595 H583 0.950 . S
C595 C591 1.393 . S
C595 C594 1.391 . S
H596 C604 0.950 . S
H597 C609 0.950 . S
H598 C606 0.950 . S
H599 C608 0.950 . S
H600 C610 0.950 . S
H601 C612 0.950 . S
H602 C614 0.950 . S
H603 C615 0.950 . S
C604 H596 0.950 . S
C604 C605 1.386 . S
C604 C606 1.391 . S
C605 C604 1.386 . S
C605 C609 1.393 . S
C606 H598 0.950 . S
C606 C604 1.391 . S
C606 C607 1.400 . S
C607 C606 1.400 . S
C607 C608 1.398 . S
C607 C613 1.491 . S
C608 H599 0.950 . S
C608 C607 1.398 . S
C608 C609 1.391 . S
C609 H597 0.950 . S
C609 C605 1.393 . S
C609 C608 1.391 . S
C610 H600 0.950 . S
C610 C611 1.386 . S
C610 C612 1.391 . S
C611 C610 1.386 . S
C611 C615 1.393 . S
C612 H601 0.950 . S
C612 C610 1.391 . S
C612 C613 1.400 . S
C613 C607 1.491 . S
C613 C612 1.400 . S
C613 C614 1.398 . S
C614 H602 0.950 . S
C614 C613 1.398 . S
C614 C615 1.391 . S
C615 H603 0.950 . S
C615 C611 1.393 . S
C615 C614 1.391 . S
H616 C624 0.950 . S
H617 C629 0.950 . S
H618 C626 0.950 . S
H619 C628 0.950 . S
H620 C630 0.950 . S
H621 C632 0.950 . S
H622 C634 0.950 . S
H623 C635 0.950 . S
C624 H616 0.950 . S
C624 C625 1.386 . S
C624 C626 1.391 . S
C625 C624 1.386 . S
C625 C629 1.393 . S
C626 H618 0.950 . S
C626 C624 1.391 . S
C626 C627 1.400 . S
C627 C626 1.400 . S
C627 C628 1.398 . S
C627 C633 1.491 . S
C628 H619 0.950 . S
C628 C627 1.398 . S
C628 C629 1.391 . S
C629 H617 0.950 . S
C629 C625 1.393 . S
C629 C628 1.391 . S
C630 H620 0.950 . S
C630 C631 1.386 . S
C630 C632 1.391 . S
C631 C630 1.386 . S
C631 C635 1.393 . S
C632 H621 0.950 . S
C632 C630 1.391 . S
C632 C633 1.400 . S
C633 C627 1.491 . S
C633 C632 1.400 . S
C633 C634 1.398 . S
C634 H622 0.950 . S
C634 C633 1.398 . S
C634 C635 1.391 . S
C635 H623 0.950 . S
C635 C631 1.393 . S
C635 C634 1.391 . S
H636 C644 0.950 . S
H637 C649 0.950 . S
H638 C646 0.950 . S
H639 C648 0.950 . S
H640 C650 0.950 . S
H641 C652 0.950 . S
H642 C654 0.950 . S
H643 C655 0.950 . S
C644 H636 0.950 . S
C644 C645 1.386 . S
C644 C646 1.391 . S
C645 C644 1.386 . S
C645 C649 1.393 . S
C646 H638 0.950 . S
C646 C644 1.391 . S
C646 C647 1.400 . S
C647 C646 1.400 . S
C647 C648 1.398 . S
C647 C653 1.491 . S
C648 H639 0.950 . S
C648 C647 1.398 . S
C648 C649 1.391 . S
C649 H637 0.950 . S
C649 C645 1.393 . S
C649 C648 1.391 . S
C650 H640 0.950 . S
C650 C651 1.386 . S
C650 C652 1.391 . S
C651 C650 1.386 . S
C651 C655 1.393 . S
C652 H641 0.950 . S
C652 C650 1.391 . S
C652 C653 1.400 . S
C653 C647 1.491 . S
C653 C652 1.400 . S
C653 C654 1.398 . S
C654 H642 0.950 . S
C654 C653 1.398 . S
C654 C655 1.391 . S
C655 H643 0.950 . S
C655 C651 1.393 . S
C655 C654 1.391 . S
H656 C664 0.950 . S
H657 C669 0.950 . S
H658 C666 0.950 . S
H659 C668 0.950 . S
H660 C670 0.950 . S
H661 C672 0.950 . S
H662 C674 0.950 . S
H663 C675 0.950 . S
C664 H656 0.950 . S
C664 C665 1.386 . S
C664 C666 1.391 . S
C665 C664 1.386 . S
C665 C669 1.393 . S
C666 H658 0.950 . S
C666 C664 1.391 . S
C666 C667 1.400 . S
C667 C666 1.400 . S
C667 C668 1.398 . S
C667 C673 1.491 . S
C668 H659 0.950 . S
C668 C667 1.398 . S
C668 C669 1.391 . S
C669 H657 0.950 . S
C669 C665 1.393 . S
C669 C668 1.391 . S
C670 H660 0.950 . S
C670 C671 1.386 . S
C670 C672 1.391 . S
C671 C670 1.386 . S
C671 C675 1.393 . S
C672 H661 0.950 . S
C672 C670 1.391 . S
C672 C673 1.400 . S
C673 C667 1.491 . S
C673 C672 1.400 . S
C673 C674 1.398 . S
C674 H662 0.950 . S
C674 C673 1.398 . S
C674 C675 1.391 . S
C675 H663 0.950 . S
C675 C671 1.393 . S
C675 C674 1.391 . S
H676 C684 0.950 . S
H677 C689 0.950 . S
H678 C686 0.950 . S
H679 C688 0.950 . S
H680 C690 0.950 . S
H681 C692 0.950 . S
H682 C694 0.950 . S
H683 C695 0.950 . S
C684 H676 0.950 . S
C684 C685 1.386 . S
C684 C686 1.391 . S
C685 C684 1.386 . S
C685 C689 1.393 . S
C686 H678 0.950 . S
C686 C684 1.391 . S
C686 C687 1.400 . S
C687 C686 1.400 . S
C687 C688 1.398 . S
C687 C693 1.491 . S
C688 H679 0.950 . S
C688 C687 1.398 . S
C688 C689 1.391 . S
C689 H677 0.950 . S
C689 C685 1.393 . S
C689 C688 1.391 . S
C690 H680 0.950 . S
C690 C691 1.386 . S
C690 C692 1.391 . S
C691 C690 1.386 . S
C691 C695 1.393 . S
C692 H681 0.950 . S
C692 C690 1.391 . S
C692 C693 1.400 . S
C693 C687 1.491 . S
C693 C692 1.400 . S
C693 C694 1.398 . S
C694 H682 0.950 . S
C694 C693 1.398 . S
C694 C695 1.391 . S
C695 H683 0.950 . S
C695 C691 1.393 . S
C695 C694 1.391 . S
H696 C704 0.950 . S
H697 C709 0.950 . S
H698 C706 0.950 . S
H699 C708 0.950 . S
H700 C710 0.950 . S
H701 C712 0.950 . S
H702 C714 0.950 . S
H703 C715 0.950 . S
C704 H696 0.950 . S
C704 C705 1.386 . S
C704 C706 1.391 . S
C705 C704 1.386 . S
C705 C709 1.393 . S
C706 H698 0.950 . S
C706 C704 1.391 . S
C706 C707 1.400 . S
C707 C706 1.400 . S
C707 C708 1.398 . S
C707 C713 1.491 . S
C708 H699 0.950 . S
C708 C707 1.398 . S
C708 C709 1.391 . S
C709 H697 0.950 . S
C709 C705 1.393 . S
C709 C708 1.391 . S
C710 H700 0.950 . S
C710 C711 1.386 . S
C710 C712 1.391 . S
C711 C710 1.386 . S
C711 C715 1.393 . S
C712 H701 0.950 . S
C712 C710 1.391 . S
C712 C713 1.400 . S
C713 C707 1.491 . S
C713 C712 1.400 . S
C713 C714 1.398 . S
C714 H702 0.950 . S
C714 C713 1.398 . S
C714 C715 1.391 . S
C715 H703 0.950 . S
C715 C711 1.393 . S
C715 C714 1.391 . S
H716 C724 0.950 . S
H717 C729 0.950 . S
H718 C726 0.950 . S
H719 C728 0.950 . S
H720 C730 0.950 . S
H721 C732 0.950 . S
H722 C734 0.950 . S
H723 C735 0.950 . S
C724 H716 0.950 . S
C724 C725 1.386 . S
C724 C726 1.391 . S
C725 C724 1.386 . S
C725 C729 1.393 . S
C726 H718 0.950 . S
C726 C724 1.391 . S
C726 C727 1.400 . S
C727 C726 1.400 . S
C727 C728 1.398 . S
C727 C733 1.491 . S
C728 H719 0.950 . S
C728 C727 1.398 . S
C728 C729 1.391 . S
C729 H717 0.950 . S
C729 C725 1.393 . S
C729 C728 1.391 . S
C730 H720 0.950 . S
C730 C731 1.386 . S
C730 C732 1.391 . S
C731 C730 1.386 . S
C731 C735 1.393 . S
C732 H721 0.950 . S
C732 C730 1.391 . S
C732 C733 1.400 . S
C733 C727 1.491 . S
C733 C732 1.400 . S
C733 C734 1.398 . S
C734 H722 0.950 . S
C734 C733 1.398 . S
C734 C735 1.391 . S
C735 H723 0.950 . S
C735 C731 1.393 . S
C735 C734 1.391 . S
H736 C744 0.950 . S
H737 C749 0.950 . S
H738 C746 0.950 . S
H739 C748 0.950 . S
H740 C750 0.950 . S
H741 C752 0.950 . S
H742 C754 0.950 . S
H743 C755 0.950 . S
C744 H736 0.950 . S
C744 C745 1.386 . S
C744 C746 1.391 . S
C745 C744 1.386 . S
C745 C749 1.393 . S
C746 H738 0.950 . S
C746 C744 1.391 . S
C746 C747 1.400 . S
C747 C746 1.400 . S
C747 C748 1.398 . S
C747 C753 1.491 . S
C748 H739 0.950 . S
C748 C747 1.398 . S
C748 C749 1.391 . S
C749 H737 0.950 . S
C749 C745 1.393 . S
C749 C748 1.391 . S
C750 H740 0.950 . S
C750 C751 1.386 . S
C750 C752 1.391 . S
C751 C750 1.386 . S
C751 C755 1.393 . S
C752 H741 0.950 . S
C752 C750 1.391 . S
C752 C753 1.400 . S
C753 C747 1.491 . S
C753 C752 1.400 . S
C753 C754 1.398 . S
C754 H742 0.950 . S
C754 C753 1.398 . S
C754 C755 1.391 . S
C755 H743 0.950 . S
C755 C751 1.393 . S
C755 C754 1.391 . S
H756 C764 0.950 . S
H757 C769 0.950 . S
H758 C766 0.950 . S
H759 C768 0.950 . S
H760 C770 0.950 . S
H761 C772 0.950 . S
H762 C774 0.950 . S
H763 C775 0.950 . S
C764 H756 0.950 . S
C764 C765 1.386 . S
C764 C766 1.391 . S
C765 C764 1.386 . S
C765 C769 1.393 . S
C766 H758 0.950 . S
C766 C764 1.391 . S
C766 C767 1.400 . S
C767 C766 1.400 . S
C767 C768 1.398 . S
C767 C773 1.491 . S
C768 H759 0.950 . S
C768 C767 1.398 . S
C768 C769 1.391 . S
C769 H757 0.950 . S
C769 C765 1.393 . S
C769 C768 1.391 . S
C770 H760 0.950 . S
C770 C771 1.386 . S
C770 C772 1.391 . S
C771 C770 1.386 . S
C771 C775 1.393 . S
C772 H761 0.950 . S
C772 C770 1.391 . S
C772 C773 1.400 . S
C773 C767 1.491 . S
C773 C772 1.400 . S
C773 C774 1.398 . S
C774 H762 0.950 . S
C774 C773 1.398 . S
C774 C775 1.391 . S
C775 H763 0.950 . S
C775 C771 1.393 . S
C775 C774 1.391 . S
H776 C784 0.950 . S
H777 C789 0.950 . S
H778 C786 0.950 . S
H779 C788 0.950 . S
H780 C790 0.950 . S
H781 C792 0.950 . S
H782 C794 0.950 . S
H783 C795 0.950 . S
C784 H776 0.950 . S
C784 C785 1.386 . S
C784 C786 1.391 . S
C785 C784 1.386 . S
C785 C789 1.393 . S
C786 H778 0.950 . S
C786 C784 1.391 . S
C786 C787 1.400 . S
C787 C786 1.400 . S
C787 C788 1.398 . S
C787 C793 1.491 . S
C788 H779 0.950 . S
C788 C787 1.398 . S
C788 C789 1.391 . S
C789 H777 0.950 . S
C789 C785 1.393 . S
C789 C788 1.391 . S
C790 H780 0.950 . S
C790 C791 1.386 . S
C790 C792 1.391 . S
C791 C790 1.386 . S
C791 C795 1.393 . S
C792 H781 0.950 . S
C792 C790 1.391 . S
C792 C793 1.400 . S
C793 C787 1.491 . S
C793 C792 1.400 . S
C793 C794 1.398 . S
C794 H782 0.950 . S
C794 C793 1.398 . S
C794 C795 1.391 . S
C795 H783 0.950 . S
C795 C791 1.393 . S
C795 C794 1.391 . S
H796 C804 0.950 . S
H797 C809 0.950 . S
H798 C806 0.950 . S
H799 C808 0.950 . S
H800 C810 0.950 . S
H801 C812 0.950 . S
H802 C814 0.950 . S
H803 C815 0.950 . S
C804 H796 0.950 . S
C804 C805 1.386 . S
C804 C806 1.391 . S
C805 C804 1.386 . S
C805 C809 1.393 . S
C806 H798 0.950 . S
C806 C804 1.391 . S
C806 C807 1.400 . S
C807 C806 1.400 . S
C807 C808 1.398 . S
C807 C813 1.491 . S
C808 H799 0.950 . S
C808 C807 1.398 . S
C808 C809 1.391 . S
C809 H797 0.950 . S
C809 C805 1.393 . S
C809 C808 1.391 . S
C810 H800 0.950 . S
C810 C811 1.386 . S
C810 C812 1.391 . S
C811 C810 1.386 . S
C811 C815 1.393 . S
C812 H801 0.950 . S
C812 C810 1.391 . S
C812 C813 1.400 . S
C813 C807 1.491 . S
C813 C812 1.400 . S
C813 C814 1.398 . S
C814 H802 0.950 . S
C814 C813 1.398 . S
C814 C815 1.391 . S
C815 H803 0.950 . S
C815 C811 1.393 . S
C815 C814 1.391 . S
H816 C824 0.950 . S
H817 C829 0.950 . S
H818 C826 0.950 . S
H819 C828 0.950 . S
H820 C830 0.950 . S
H821 C832 0.950 . S
H822 C834 0.950 . S
H823 C835 0.950 . S
C824 H816 0.950 . S
C824 C825 1.386 . S
C824 C826 1.391 . S
C825 C824 1.386 . S
C825 C829 1.393 . S
C826 H818 0.950 . S
C826 C824 1.391 . S
C826 C827 1.400 . S
C827 C826 1.400 . S
C827 C828 1.398 . S
C827 C833 1.491 . S
C828 H819 0.950 . S
C828 C827 1.398 . S
C828 C829 1.391 . S
C829 H817 0.950 . S
C829 C825 1.393 . S
C829 C828 1.391 . S
C830 H820 0.950 . S
C830 C831 1.386 . S
C830 C832 1.391 . S
C831 C830 1.386 . S
C831 C835 1.393 . S
C832 H821 0.950 . S
C832 C830 1.391 . S
C832 C833 1.400 . S
C833 C827 1.491 . S
C833 C832 1.400 . S
C833 C834 1.398 . S
C834 H822 0.950 . S
C834 C833 1.398 . S
C834 C835 1.391 . S
C835 H823 0.950 . S
C835 C831 1.393 . S
C835 C834 1.391 . S
H836 C844 0.950 . S
H837 C849 0.950 . S
H838 C846 0.950 . S
H839 C848 0.950 . S
H840 C850 0.950 . S
H841 C852 0.950 . S
H842 C854 0.950 . S
H843 C855 0.950 . S
C844 H836 0.950 . S
C844 C845 1.386 . S
C844 C846 1.391 . S
C845 C844 1.386 . S
C845 C849 1.393 . S
C846 H838 0.950 . S
C846 C844 1.391 . S
C846 C847 1.400 . S
C847 C846 1.400 . S
C847 C848 1.398 . S
C847 C853 1.491 . S
C848 H839 0.950 . S
C848 C847 1.398 . S
C848 C849 1.391 . S
C849 H837 0.950 . S
C849 C845 1.393 . S
C849 C848 1.391 . S
C850 H840 0.950 . S
C850 C851 1.386 . S
C850 C852 1.391 . S
C851 C850 1.386 . S
C851 C855 1.393 . S
C852 H841 0.950 . S
C852 C850 1.391 . S
C852 C853 1.400 . S
C853 C847 1.491 . S
C853 C852 1.400 . S
C853 C854 1.398 . S
C854 H842 0.950 . S
C854 C853 1.398 . S
C854 C855 1.391 . S
C855 H843 0.950 . S
C855 C851 1.393 . S
C855 C854 1.391 . S
H856 C864 0.950 . S
H857 C869 0.950 . S
H858 C866 0.950 . S
H859 C868 0.950 . S
H860 C870 0.950 . S
H861 C872 0.950 . S
H862 C874 0.950 . S
H863 C875 0.950 . S
C864 H856 0.950 . S
C864 C865 1.386 . S
C864 C866 1.391 . S
C865 C864 1.386 . S
C865 C869 1.393 . S
C866 H858 0.950 . S
C866 C864 1.391 . S
C866 C867 1.400 . S
C867 C866 1.400 . S
C867 C868 1.398 . S
C867 C873 1.491 . S
C868 H859 0.950 . S
C868 C867 1.398 . S
C868 C869 1.391 . S
C869 H857 0.950 . S
C869 C865 1.393 . S
C869 C868 1.391 . S
C870 H860 0.950 . S
C870 C871 1.386 . S
C870 C872 1.391 . S
C871 C870 1.386 . S
C871 C875 1.393 . S
C872 H861 0.950 . S
C872 C870 1.391 . S
C872 C873 1.400 . S
C873 C867 1.491 . S
C873 C872 1.400 . S
C873 C874 1.398 . S
C874 H862 0.950 . S
C874 C873 1.398 . S
C874 C875 1.391 . S
C875 H863 0.950 . S
C875 C871 1.393 . S
C875 C874 1.391 . S
H876 C884 0.950 . S
H877 C889 0.950 . S
H878 C886 0.950 . S
H879 C888 0.950 . S
H880 C890 0.950 . S
H881 C892 0.950 . S
H882 C894 0.950 . S
H883 C895 0.950 . S
C884 H876 0.950 . S
C884 C885 1.386 . S
C884 C886 1.391 . S
C885 C884 1.386 . S
C885 C889 1.393 . S
C886 H878 0.950 . S
C886 C884 1.391 . S
C886 C887 1.400 . S
C887 C886 1.400 . S
C887 C888 1.398 . S
C887 C893 1.491 . S
C888 H879 0.950 . S
C888 C887 1.398 . S
C888 C889 1.391 . S
C889 H877 0.950 . S
C889 C885 1.393 . S
C889 C888 1.391 . S
C890 H880 0.950 . S
C890 C891 1.386 . S
C890 C892 1.391 . S
C891 C890 1.386 . S
C891 C895 1.393 . S
C892 H881 0.950 . S
C892 C890 1.391 . S
C892 C893 1.400 . S
C893 C887 1.491 . S
C893 C892 1.400 . S
C893 C894 1.398 . S
C894 H882 0.950 . S
C894 C893 1.398 . S
C894 C895 1.391 . S
C895 H883 0.950 . S
C895 C891 1.393 . S
C895 C894 1.391 . S
C425 C29 1.200 . S
C431 C262 1.200 . S
C445 C49 0.899 . S
C451 C311 0.906 . S
C471 C346 2.513 . S
C465 C93 2.518 . S
C485 C119 2.306 . S
C491 C385 2.300 . S
C511 C306 2.303 . S
C505 C17 2.282 . S
C531 C265 0.841 . S
C525 C61 0.854 . S
C551 C395 1.883 . S
C545 C81 1.922 . S
C571 C354 1.665 . S
C565 C125 1.641 . S
C585 C23 1.593 . S
C591 C382 1.603 . S
C611 C314 2.297 . S
C605 C87 2.347 . S
C625 C113 2.336 . S
C631 C275 2.361 . S
C645 C55 0.805 . S
C651 C351 0.835 . S
C671 C271 1.182 . S
C665 C157 1.034 . S
C685 C189 0.940 . S
C691 C302 0.959 . S
C705 C221 2.475 . S
C711 C355 2.463 . S
C725 C253 2.379 . S
C731 C394 2.385 . S
C745 C145 2.158 . S
C751 C315 2.385 . S
C771 C274 0.776 . S
C765 C183 0.790 . S
C791 C386 1.924 . S
C785 C209 1.921 . S
C811 C345 1.615 . S
C805 C247 1.598 . S
C825 C151 1.488 . S
C831 C391 1.623 . S
C851 C305 2.287 . S
C845 C215 2.330 . S
C871 C266 2.328 . S
C865 C241 2.283 . S
C885 C177 0.820 . S
C891 C342 0.823 . S
