# Generated by pormake.
# Topology nom, (4,4)-cn, num edge types: 1
# Building blocks:
#     Node 0, Type 0, BuildingBlock: KUFVIS_clean_linker_0, # of connection points: 4
#     Node 1, Type 0, BuildingBlock: KUFVIS_clean_linker_0, # of connection points: 4
#     Node 2, Type 0, BuildingBlock: KUFVIS_clean_linker_0, # of connection points: 4
#     Node 3, Type 0, BuildingBlock: KUFVIS_clean_linker_0, # of connection points: 4
#     Node 4, Type 0, BuildingBlock: KUFVIS_clean_linker_0, # of connection points: 4
#     Node 5, Type 0, BuildingBlock: KUFVIS_clean_linker_0, # of connection points: 4
#     Node 6, Type 1, BuildingBlock: QUQFOY_clean_sbu_3, # of connection points: 4
#     Node 7, Type 1, BuildingBlock: QUQFOY_clean_sbu_3, # of connection points: 4
#     Node 8, Type 1, BuildingBlock: QUQFOY_clean_sbu_3, # of connection points: 4
#     Node 9, Type 1, BuildingBlock: QUQFOY_clean_sbu_3, # of connection points: 4
#     Node 10, Type 1, BuildingBlock: QUQFOY_clean_sbu_3, # of connection points: 4
#     Node 11, Type 1, BuildingBlock: QUQFOY_clean_sbu_3, # of connection points: 4
#     Edge 12, Type (0, 1), BuildingBlock: ZUJKAS_clean_linker_0, # of connection points: 2
#     Edge 13, Type (0, 1), BuildingBlock: ZUJKAS_clean_linker_0, # of connection points: 2
#     Edge 14, Type (0, 1), BuildingBlock: ZUJKAS_clean_linker_0, # of connection points: 2
#     Edge 15, Type (0, 1), BuildingBlock: ZUJKAS_clean_linker_0, # of connection points: 2
#     Edge 16, Type (0, 1), BuildingBlock: ZUJKAS_clean_linker_0, # of connection points: 2
#     Edge 17, Type (0, 1), BuildingBlock: ZUJKAS_clean_linker_0, # of connection points: 2
#     Edge 18, Type (0, 1), BuildingBlock: ZUJKAS_clean_linker_0, # of connection points: 2
#     Edge 19, Type (0, 1), BuildingBlock: ZUJKAS_clean_linker_0, # of connection points: 2
#     Edge 20, Type (0, 1), BuildingBlock: ZUJKAS_clean_linker_0, # of connection points: 2
#     Edge 21, Type (0, 1), BuildingBlock: ZUJKAS_clean_linker_0, # of connection points: 2
#     Edge 22, Type (0, 1), BuildingBlock: ZUJKAS_clean_linker_0, # of connection points: 2
#     Edge 23, Type (0, 1), BuildingBlock: ZUJKAS_clean_linker_0, # of connection points: 2
#     Edge 24, Type (0, 1), BuildingBlock: ZUJKAS_clean_linker_0, # of connection points: 2
#     Edge 25, Type (0, 1), BuildingBlock: ZUJKAS_clean_linker_0, # of connection points: 2
#     Edge 26, Type (0, 1), BuildingBlock: ZUJKAS_clean_linker_0, # of connection points: 2
#     Edge 27, Type (0, 1), BuildingBlock: ZUJKAS_clean_linker_0, # of connection points: 2
#     Edge 28, Type (0, 1), BuildingBlock: ZUJKAS_clean_linker_0, # of connection points: 2
#     Edge 29, Type (0, 1), BuildingBlock: ZUJKAS_clean_linker_0, # of connection points: 2
#     Edge 30, Type (0, 1), BuildingBlock: ZUJKAS_clean_linker_0, # of connection points: 2
#     Edge 31, Type (0, 1), BuildingBlock: ZUJKAS_clean_linker_0, # of connection points: 2
#     Edge 32, Type (0, 1), BuildingBlock: ZUJKAS_clean_linker_0, # of connection points: 2
#     Edge 33, Type (0, 1), BuildingBlock: ZUJKAS_clean_linker_0, # of connection points: 2
#     Edge 34, Type (0, 1), BuildingBlock: ZUJKAS_clean_linker_0, # of connection points: 2
#     Edge 35, Type (0, 1), BuildingBlock: ZUJKAS_clean_linker_0, # of connection points: 2
# Relax obj value: 0.003
# Max RMSD: 0.046
# Mean RMSD: 0.035
data_MOF--net-nom--node1-QUQFOY_clean_sbu_3--node2-KUFVIS_clean_linker_0--edge1-ZUJKAS_clean_linker_0
_symmetry_space_group_name_H-M    P1
_symmetry_Int_Tables_number       1
_symmetry_cell_setting            triclinic
loop_
_symmetry_equiv_pos_as_xyz
'x, y, z'
_cell_length_a     59.277231
_cell_length_b     60.195096
_cell_length_c     61.093782
_cell_angle_alpha  90.092337
_cell_angle_beta   90.039783
_cell_angle_gamma 119.92174
loop_
_atom_site_label
_atom_site_type_symbol
_atom_site_fract_x
_atom_site_fract_y
_atom_site_fract_z
_atom_type_partial_charge
H0 H 0.10211 0.57929 0.32456 0.0
H1 H 0.04313 0.5394 0.27637 0.0
H2 H 0.02228 0.54684 0.343 0.0
H3 H 0.98613 0.51141 0.33604 0.0
H4 H 0.92619 0.48701 0.28773 0.0
H5 H 1.00532 0.53542 0.26841 0.0
C6 C 0.08164 0.56852 0.32024 0.0
C7 C 0.06287 0.56348 0.33626 0.0
C8 C 0.0746 0.5604 0.29864 0.0
C9 C 0.04809 0.54616 0.29304 0.0
C10 C 0.02847 0.54045 0.30893 0.0
C11 C 0.0364 0.54966 0.33055 0.0
C12 C 0.99997 0.52535 0.30301 0.0
C13 C 0.98076 0.51185 0.31919 0.0
C14 C 0.95417 0.49828 0.31376 0.0
C15 C 0.94669 0.49755 0.29197 0.0
C16 C 0.96506 0.51062 0.2756 0.0
C17 C 0.99157 0.5246 0.28116 0.0
H18 H 0.54256 0.10167 0.48943 0.0
H19 H 0.50221 0.04154 0.44257 0.0
H20 H 0.50966 0.02386 0.51015 0.0
H21 H 0.47353 0.98722 0.50245 0.0
H22 H 0.46075 0.92767 0.4573 0.0
H23 H 0.50365 1.00578 0.43624 0.0
C24 C 0.53202 0.08137 0.48549 0.0
C25 C 0.5265 0.06353 0.50213 0.0
C26 C 0.52375 0.0736 0.46399 0.0
C27 C 0.50908 0.04727 0.45916 0.0
C28 C 0.50388 0.02867 0.47559 0.0
C29 C 0.51266 0.03728 0.49718 0.0
C30 C 0.4906 1.00054 0.47015 0.0
C31 C 0.47654 0.98175 0.4863 0.0
C32 C 0.46655 0.9556 0.48183 0.0
C33 C 0.46933 0.94796 0.46089 0.0
C34 C 0.48203 0.96592 0.44431 0.0
C35 C 0.49287 0.99214 0.44901 0.0
H36 H 0.52421 0.43732 0.63178 0.0
H37 H 0.49895 0.47235 0.67942 0.0
H38 H 0.50343 0.49249 0.61078 0.0
H39 H 0.4714 0.4998 0.61985 0.0
H40 H 0.46832 0.55316 0.66436 0.0
H41 H 0.50709 0.51253 0.68403 0.0
C42 C 0.51678 0.45009 0.6356 0.0
C43 C 0.51309 0.46358 0.61869 0.0
C44 C 0.51188 0.45324 0.65743 0.0
C45 C 0.50334 0.47063 0.66253 0.0
C46 C 0.4999 0.48505 0.64582 0.0
C47 C 0.50527 0.48147 0.62391 0.0
C48 C 0.49085 0.5038 0.65109 0.0
C49 C 0.47678 0.50956 0.63549 0.0
C50 C 0.46943 0.528 0.63994 0.0
C51 C 0.47515 0.53992 0.66046 0.0
C52 C 0.48817 0.534 0.67648 0.0
C53 C 0.49627 0.51622 0.67169 0.0
H54 H 0.10981 0.54787 0.78493 0.0
H55 H 0.04999 0.50762 0.83244 0.0
H56 H 0.03058 0.52269 0.76775 0.0
H57 H 0.99334 0.48482 0.7747 0.0
H58 H 0.93503 0.4699 0.82292 0.0
H59 H 0.01536 0.51235 0.84126 0.0
C60 C 0.08938 0.53831 0.78939 0.0
C61 C 0.07097 0.53623 0.77401 0.0
C62 C 0.08193 0.52819 0.8104 0.0
C63 C 0.0555 0.51574 0.8162 0.0
C64 C 0.0364 0.51328 0.8009 0.0
C65 C 0.04454 0.52365 0.77971 0.0
C66 C 1.0082 0.50059 0.80707 0.0
C67 C 0.9884 0.48717 0.79127 0.0
C68 C 0.962 0.4767 0.79681 0.0
C69 C 0.9554 0.47889 0.81834 0.0
C70 C 0.97449 0.49123 0.83439 0.0
C71 C 1.00082 0.5022 0.82876 0.0
H72 H 0.4955 0.93376 -0.01101 0.0
H73 H 0.5384 0.99549 0.94433 0.0
H74 H 0.52672 0.011 0.01152 0.0
H75 H 0.56433 0.048 0.00497 0.0
H76 H 0.57733 0.10848 0.96092 0.0
H77 H 0.53459 0.0307 0.93855 0.0
C78 C 0.50621 0.95421 -0.01428 0.0
C79 C 0.5105 0.97151 0.00264 0.0
C80 C 0.51605 0.96275 0.96477 0.0
C81 C 0.5305 0.98919 0.96057 0.0
C82 C 0.53441 1.00721 0.97724 0.0
C83 C 0.52447 0.99793 -0.00159 0.0
C84 C 0.54758 0.03542 0.97244 0.0
C85 C 0.5615 0.05386 -0.01106 0.0
C86 C 0.57159 0.08012 0.98491 0.0
C87 C 0.56877 0.08812 0.96415 0.0
C88 C 0.55603 0.07047 0.9473 0.0
C89 C 0.54531 0.04417 0.95151 0.0
H90 H 0.50138 0.58631 0.13233 0.0
H91 H 0.53841 0.56312 0.18026 0.0
H92 H 0.52356 0.53119 0.11464 0.0
H93 H 0.56011 0.52958 0.12194 0.0
H94 H 0.57119 0.48314 0.1689 0.0
H95 H 0.53175 0.5233 0.18828 0.0
C96 C 0.51025 0.57495 0.13683 0.0
C97 C 0.51193 0.55892 0.12121 0.0
C98 C 0.5197 0.57657 0.1581 0.0
C99 C 0.53081 0.56148 0.16386 0.0
C100 C 0.53269 0.54498 0.14827 0.0
C101 C 0.5231 0.544 0.12686 0.0
C102 C 0.54411 0.52846 0.15423 0.0
C103 C 0.55709 0.52178 0.13832 0.0
C104 C 0.56618 0.50485 0.14337 0.0
C105 C 0.5632 0.49534 0.16467 0.0
C106 C 0.55128 0.50229 0.18092 0.0
C107 C 0.54163 0.51871 0.17569 0.0
C108 C 0.70659 0.42279 0.40341 0.0
O109 O 0.70377 0.44004 0.41287 0.0
Cd110 Cd 0.663 0.43735 0.42093 0.0
O111 O 0.6867 0.40152 0.39798 0.0
Cd112 Cd 0.63804 0.38069 0.40195 0.0
C113 C 0.63414 0.42443 0.36993 0.0
O114 O 0.63582 0.39716 0.43821 0.0
O115 O 0.60091 0.38151 0.41872 0.0
O116 O 0.63607 0.34039 0.41208 0.0
C117 C 0.61205 0.39096 0.43681 0.0
O118 O 0.6435 0.43951 0.38628 0.0
C119 C 0.61837 0.3264 0.39851 0.0
O120 O 0.63194 0.40225 0.37032 0.0
O121 O 0.61004 0.33768 0.38613 0.0
C122 C 0.29471 0.60091 0.54774 0.0
O123 O 0.27335 0.58415 0.53927 0.0
Cd124 Cd 0.23684 0.58944 0.53089 0.0
O125 O 0.29862 0.62335 0.55197 0.0
Cd126 Cd 0.27369 0.64684 0.54743 0.0
C127 C 0.22522 0.60696 0.58144 0.0
O128 O 0.25166 0.62914 0.51239 0.0
O129 O 0.23635 0.64828 0.5321 0.0
O130 O 0.31087 0.68608 0.53339 0.0
C131 C 0.23569 0.63726 0.51423 0.0
O132 O 0.21756 0.59081 0.56577 0.0
C133 C 0.31062 0.70082 0.54818 0.0
O134 O 0.24634 0.62837 0.57993 0.0
O135 O 0.29377 0.69032 0.56321 0.0
C136 C 0.71007 0.29258 0.72008 0.0
O137 O 0.70638 0.27127 0.71272 0.0
Cd138 Cd 0.66539 0.23479 0.7037 0.0
O139 O 0.69079 0.29609 0.72345 0.0
Cd140 Cd 0.64193 0.27019 0.71906 0.0
C141 C 0.63343 0.22155 0.75297 0.0
O142 O 0.64173 0.25066 0.68403 0.0
O143 O 0.60446 0.23462 0.69978 0.0
O144 O 0.63816 0.30647 0.70534 0.0
C145 C 0.61753 0.23496 0.68324 0.0
O146 O 0.64344 0.21474 0.7378 0.0
C147 C 0.62363 0.30645 0.72061 0.0
O148 O 0.63206 0.24196 0.75116 0.0
O149 O 0.61802 0.28994 0.73563 0.0
C150 C 0.3334 0.60669 0.89755 0.0
O151 O 0.33695 0.58915 0.90542 0.0
Cd152 Cd 0.37754 0.59327 0.9161 0.0
O153 O 0.35265 0.62929 0.89474 0.0
Cd154 Cd 0.40122 0.65204 0.90142 0.0
C155 C 0.41156 0.61277 0.86773 0.0
O156 O 0.3995 0.63204 0.93651 0.0
O157 O 0.43758 0.65308 0.92226 0.0
O158 O 0.40138 0.69082 0.91409 0.0
C159 C 0.42365 0.6402 0.93828 0.0
O160 O 0.40103 0.59587 0.88262 0.0
C161 C 0.41886 0.70616 0.90103 0.0
O162 O 0.41269 0.63443 0.86955 0.0
O163 O 0.42771 0.69628 0.88758 0.0
C164 C 0.74076 0.4338 0.04878 0.0
O165 O 0.76108 0.45068 0.03913 0.0
Cd166 Cd 0.79794 0.44722 0.02845 0.0
O167 O 0.73813 0.41193 0.05341 0.0
Cd168 Cd 0.76402 0.38949 0.04805 0.0
C169 C 0.81469 0.43349 0.07867 0.0
O170 O 0.7813 0.40639 0.01205 0.0
O171 O 0.79979 0.38814 0.02843 0.0
O172 O 0.72535 0.34966 0.03689 0.0
C173 C 0.7981 0.39927 0.01144 0.0
O174 O 0.82032 0.44831 0.06222 0.0
C175 C 0.72795 0.3353 0.05063 0.0
O176 O 0.79404 0.41153 0.07884 0.0
O177 O 0.74687 0.34626 0.06398 0.0
C178 C 0.32388 0.73691 0.21843 0.0
O179 O 0.32624 0.75766 0.21099 0.0
Cd180 Cd 0.36626 0.79588 0.2029 0.0
O181 O 0.34402 0.73495 0.22219 0.0
Cd182 Cd 0.39258 0.76296 0.21801 0.0
C183 C 0.39821 0.81021 0.25237 0.0
O184 O 0.392 0.78244 0.18311 0.0
O185 O 0.42921 0.79943 0.19921 0.0
O186 O 0.3977 0.72743 0.20443 0.0
C187 C 0.41604 0.79886 0.18266 0.0
O188 O 0.38738 0.81629 0.23734 0.0
C189 C 0.413 0.72848 0.21947 0.0
O190 O 0.40095 0.7906 0.25028 0.0
O191 O 0.41852 0.74531 0.23424 0.0
H192 H 0.1171 0.55423 0.29973 0.0
H193 H 0.15776 0.57978 0.27966 0.0
H194 H 0.12104 0.61274 0.24094 0.0
H195 H 0.08031 0.58738 0.26123 0.0
H196 H 0.17512 0.59052 0.23414 0.0
H197 H 0.17786 0.67288 0.2781 0.0
H198 H 0.15548 0.64003 0.28537 0.0
H199 H 0.1494 0.65389 0.26167 0.0
C200 C 0.11747 0.56628 0.28642 0.0
C201 C 0.09567 0.56903 0.28214 0.0
C202 C 0.1407 0.58088 0.27499 0.0
C203 C 0.14254 0.59852 0.25914 0.0
C204 C 0.12007 0.59944 0.25332 0.0
H205 H 0.27747 0.73302 0.20723 0.0
H206 H 0.23374 0.69813 0.21508 0.0
C207 C 0.09676 0.58477 0.26475 0.0
C208 C 0.16856 0.61816 0.25108 0.0
H209 H 0.21306 0.68197 0.25506 0.0
C210 C 0.18341 0.61056 0.23856 0.0
C211 C 0.17943 0.64423 0.25713 0.0
C212 C 0.16489 0.65335 0.27145 0.0
C213 C 0.20875 0.62846 0.23163 0.0
C214 C 0.21965 0.65451 0.23781 0.0
C215 C 0.20469 0.66203 0.25027 0.0
C216 C 0.24646 0.67453 0.2316 0.0
C217 C 0.22344 0.61939 0.21751 0.0
C218 C 0.26832 0.67293 0.23824 0.0
C219 C 0.29354 0.69293 0.23369 0.0
C220 C 0.29735 0.71504 0.22264 0.0
C221 C 0.27536 0.71638 0.21586 0.0
C222 C 0.25027 0.69639 0.22029 0.0
H223 H 0.2101 0.6009 0.20931 0.0
H224 H 0.23498 0.6338 0.20481 0.0
H225 H 0.23706 0.61644 0.22792 0.0
H226 H 0.26592 0.65654 0.24745 0.0
H227 H 0.31002 0.6913 0.23923 0.0
H228 H 0.57208 0.11295 0.45549 0.0
H229 H 0.58349 0.15174 0.43486 0.0
H230 H 0.50376 0.11906 0.4135 0.0
H231 H 0.49202 0.08023 0.43502 0.0
H232 H 0.58125 0.16532 0.39332 0.0
H233 H 0.51443 0.18209 0.44594 0.0
H234 H 0.52177 0.157 0.45158 0.0
H235 H 0.49947 0.15315 0.42999 0.0
C236 C 0.55704 0.11385 0.44609 0.0
C237 C 0.53109 0.09379 0.44713 0.0
C238 C 0.5636 0.13602 0.43425 0.0
C239 C 0.54439 0.13866 0.42308 0.0
C240 C 0.5188 0.11773 0.42247 0.0
H241 H 0.57358 0.29036 0.37834 0.0
H242 H 0.55382 0.24355 0.38002 0.0
C243 C 0.51215 0.09544 0.43451 0.0
C244 C 0.55124 0.16419 0.41397 0.0
H245 H 0.54181 0.21517 0.42234 0.0
C246 C 0.57232 0.17605 0.3994 0.0
C247 C 0.53969 0.17832 0.42196 0.0
C248 C 0.51773 0.16716 0.43835 0.0
C249 C 0.58282 0.20188 0.39339 0.0
C250 C 0.57199 0.2162 0.40215 0.0
C251 C 0.55002 0.20404 0.41566 0.0
C252 C 0.58475 0.24439 0.39943 0.0
C253 C 0.60595 0.21393 0.37825 0.0
C254 C 0.60863 0.2603 0.40982 0.0
C255 C 0.61978 0.28695 0.40913 0.0
C256 C 0.60735 0.29823 0.3979 0.0
C257 C 0.5837 0.28225 0.38703 0.0
C258 C 0.57238 0.25553 0.38798 0.0
H259 H 0.60802 0.19924 0.36882 0.0
H260 H 0.6043 0.2272 0.36662 0.0
H261 H 0.62392 0.22519 0.38807 0.0
H262 H 0.6183 0.25206 0.41901 0.0
H263 H 0.63799 0.2987 0.41767 0.0
H264 H 0.42622 0.49534 0.6159 0.0
H265 H 0.39833 0.50666 0.59449 0.0
H266 H 0.45101 0.58675 0.60766 0.0
H267 H 0.47916 0.57563 0.62837 0.0
H268 H 0.37366 0.53024 0.61182 0.0
H269 H 0.43604 0.58946 0.54378 0.0
H270 H 0.444 0.56935 0.56013 0.0
H271 H 0.45157 0.60058 0.56986 0.0
C272 C 0.43223 0.51537 0.61361 0.0
C273 C 0.45482 0.53459 0.62387 0.0
C274 C 0.41621 0.52183 0.60151 0.0
C275 C 0.42266 0.5476 0.59928 0.0
C276 C 0.44584 0.56681 0.60871 0.0
H277 H 0.34277 0.63071 0.56685 0.0
H278 H 0.37394 0.61731 0.57808 0.0
C279 C 0.4618 0.56039 0.62074 0.0
C280 C 0.40398 0.55437 0.58931 0.0
H281 H 0.39878 0.59391 0.55201 0.0
C282 C 0.37904 0.54386 0.59851 0.0
C283 C 0.41105 0.57234 0.57207 0.0
C284 C 0.43705 0.58338 0.56075 0.0
C285 C 0.3613 0.55139 0.59145 0.0
C286 C 0.36857 0.56972 0.57454 0.0
C287 C 0.39334 0.57998 0.56507 0.0
C288 C 0.35054 0.57831 0.56651 0.0
C289 C 0.33517 0.54024 0.60259 0.0
C290 C 0.32736 0.56099 0.55588 0.0
C291 C 0.30958 0.56855 0.54944 0.0
C292 C 0.31459 0.59367 0.55345 0.0
C293 C 0.33823 0.61123 0.56356 0.0
C294 C 0.35608 0.60362 0.56996 0.0
H295 H 0.33474 0.53072 0.61828 0.0
H296 H 0.33011 0.55538 0.60589 0.0
H297 H 0.31997 0.52573 0.59168 0.0
H298 H 0.32289 0.54148 0.55278 0.0
H299 H 0.29169 0.55451 0.54158 0.0
H300 H 0.92089 0.48352 0.78817 0.0
H301 H 0.88038 0.45351 0.76966 0.0
H302 H 0.91371 0.4068 0.7513 0.0
H303 H 0.95425 0.43661 0.77039 0.0
H304 H 0.86489 0.43228 0.7281 0.0
H305 H 0.85184 0.35879 0.7896 0.0
H306 H 0.87664 0.39201 0.79225 0.0
H307 H 0.88112 0.37133 0.7737 0.0
C308 C 0.91976 0.46711 0.77979 0.0
C309 C 0.94056 0.46219 0.78095 0.0
C310 C 0.89661 0.45 0.7692 0.0
C311 C 0.89379 0.42759 0.75957 0.0
C312 C 0.91531 0.42372 0.75905 0.0
H313 H 0.75479 0.2906 0.71492 0.0
H314 H 0.79933 0.32392 0.72277 0.0
C315 C 0.93855 0.44089 0.76971 0.0
C316 C 0.86765 0.40746 0.75197 0.0
H317 H 0.81886 0.34668 0.76319 0.0
C318 C 0.85486 0.4135 0.73567 0.0
C319 C 0.85445 0.38307 0.76207 0.0
C320 C 0.86654 0.37588 0.78051 0.0
C321 C 0.82933 0.39573 0.72907 0.0
C322 C 0.81614 0.37144 0.73928 0.0
C323 C 0.82903 0.36532 0.75539 0.0
C324 C 0.78898 0.35191 0.73353 0.0
C325 C 0.81678 0.40298 0.71109 0.0
C326 C 0.76823 0.35649 0.73709 0.0
C327 C 0.74254 0.33736 0.73264 0.0
C328 C 0.73717 0.31327 0.72464 0.0
C329 C 0.7581 0.30888 0.72106 0.0
C330 C 0.78366 0.32793 0.72552 0.0
H331 H 0.83143 0.41947 0.70137 0.0
H332 H 0.80544 0.38654 0.69988 0.0
H333 H 0.80321 0.40854 0.71846 0.0
H334 H 0.77184 0.37469 0.74368 0.0
H335 H 0.72693 0.34139 0.73565 0.0
H336 H 0.46982 0.93159 0.94529 0.0
H337 H 0.45717 0.89069 0.92717 0.0
H338 H 0.53679 0.90726 0.92986 0.0
H339 H 0.54944 0.94829 0.94815 0.0
H340 H 0.47371 0.87235 0.88957 0.0
H341 H 0.49493 0.84398 0.97033 0.0
H342 H 0.49283 0.87264 0.9668 0.0
H343 H 0.52124 0.87186 0.95777 0.0
C344 C 0.48476 0.92694 0.94115 0.0
C345 C 0.51061 0.94308 0.94788 0.0
C346 C 0.47753 0.90354 0.93091 0.0
C347 C 0.49596 0.89577 0.92746 0.0
C348 C 0.52223 0.91283 0.93253 0.0
H349 H 0.457 0.74389 0.8758 0.0
H350 H 0.47648 0.79042 0.88017 0.0
C351 C 0.5295 0.93635 0.94274 0.0
C352 C 0.48695 0.86868 0.92145 0.0
H353 H 0.47757 0.81236 0.94302 0.0
C354 C 0.47482 0.85925 0.9011 0.0
C355 C 0.48799 0.85156 0.93673 0.0
C356 C 0.49974 0.86034 0.95921 0.0
C357 C 0.46355 0.83308 0.89572 0.0
C358 C 0.46452 0.816 0.91106 0.0
C359 C 0.47694 0.82552 0.93126 0.0
C360 C 0.45167 0.78792 0.90712 0.0
C361 C 0.44986 0.82371 0.87401 0.0
C362 C 0.4313 0.77107 0.92083 0.0
C363 C 0.42017 0.74454 0.9184 0.0
C364 C 0.42932 0.73426 0.9023 0.0
C365 C 0.44944 0.75118 0.88831 0.0
C366 C 0.46053 0.77778 0.89072 0.0
H367 H 0.44667 0.83836 0.86576 0.0
H368 H 0.46186 0.81901 0.8631 0.0
H369 H 0.43075 0.806 0.87623 0.0
H370 H 0.42421 0.77848 0.93363 0.0
H371 H 0.40476 0.73211 0.92948 0.0
H372 H 0.60615 0.53598 0.11594 0.0
H373 H 0.63321 0.52397 0.0941 0.0
H374 H 0.58468 0.44507 0.11337 0.0
H375 H 0.55734 0.45682 0.13458 0.0
H376 H 0.66088 0.50376 0.11239 0.0
H377 H 0.59501 0.4368 0.04922 0.0
H378 H 0.58724 0.45779 0.06455 0.0
H379 H 0.58169 0.42804 0.07625 0.0
C380 C 0.60081 0.51598 0.11489 0.0
C381 C 0.57972 0.49735 0.12702 0.0
C382 C 0.61635 0.50915 0.10254 0.0
C383 C 0.61086 0.48357 0.10194 0.0
C384 C 0.58903 0.46481 0.11318 0.0
H385 H 0.69475 0.40384 0.0707 0.0
H386 H 0.66283 0.41605 0.0825 0.0
C387 C 0.57356 0.4716 0.12548 0.0
C388 C 0.6295 0.47686 0.09188 0.0
H389 H 0.63407 0.43524 0.05647 0.0
C390 C 0.65511 0.48904 0.09993 0.0
C391 C 0.62188 0.45745 0.07579 0.0
C392 C 0.59502 0.44444 0.0658 0.0
C393 C 0.67308 0.48188 0.0928 0.0
C394 C 0.66535 0.46221 0.07698 0.0
C395 C 0.63986 0.4502 0.0687 0.0
C396 C 0.68371 0.45418 0.06874 0.0
C397 C 0.70002 0.49492 0.1027 0.0
C398 C 0.70566 0.47138 0.05674 0.0
C399 C 0.72386 0.46452 0.05002 0.0
C400 C 0.72048 0.44022 0.05508 0.0
C401 C 0.69803 0.42272 0.0666 0.0
C402 C 0.67975 0.42964 0.07331 0.0
H403 H 0.70102 0.50539 0.118 0.0
H404 H 0.70631 0.48076 0.10638 0.0
H405 H 0.71401 0.50897 0.09084 0.0
H406 H 0.70887 0.49028 0.05278 0.0
H407 H 0.74078 0.47847 0.04105 0.0
H408 H 0.42134 0.9433 0.5033 0.0
H409 H 0.39388 0.90354 0.52371 0.0
H410 H 0.45299 0.88215 0.51676 0.0
H411 H 0.48027 0.92167 0.49662 0.0
H412 H 0.37602 0.8568 0.50386 0.0
H413 H 0.42913 0.86014 0.57931 0.0
H414 H 0.43638 0.8886 0.56398 0.0
H415 H 0.44961 0.86872 0.5556 0.0
C416 C 0.42878 0.93052 0.50693 0.0
C417 C 0.45289 0.93549 0.49854 0.0
C418 C 0.41307 0.90778 0.51845 0.0
C419 C 0.42147 0.88995 0.52197 0.0
C420 C 0.44629 0.8958 0.51473 0.0
H421 H 0.34522 0.72818 0.51594 0.0
H422 H 0.37079 0.77475 0.51215 0.0
C423 C 0.46184 0.91833 0.50313 0.0
C424 C 0.40317 0.86371 0.53002 0.0
H425 H 0.3983 0.81775 0.56562 0.0
C426 C 0.38063 0.84844 0.51767 0.0
C427 C 0.40908 0.85276 0.54806 0.0
C428 C 0.43224 0.86851 0.56263 0.0
C429 C 0.36472 0.82222 0.52206 0.0
C430 C 0.37164 0.81092 0.53912 0.0
C431 C 0.39326 0.82642 0.55234 0.0
C432 C 0.35742 0.78279 0.54248 0.0
C433 C 0.34096 0.80662 0.50803 0.0
C434 C 0.34201 0.77191 0.56112 0.0
C435 C 0.32727 0.74521 0.56334 0.0
C436 C 0.32793 0.729 0.54702 0.0
C437 C 0.3442 0.74007 0.52879 0.0
C438 C 0.35876 0.76669 0.52654 0.0
H439 H 0.33485 0.81894 0.4993 0.0
H440 H 0.34547 0.79594 0.49559 0.0
H441 H 0.32443 0.79245 0.51808 0.0
H442 H 0.34083 0.78406 0.57364 0.0
H443 H 0.31497 0.73729 0.57759 0.0
H444 H 0.54202 0.47116 0.69452 0.0
H445 H 0.55943 0.44837 0.71577 0.0
H446 H 0.51198 0.3798 0.6781 0.0
H447 H 0.49376 0.402 0.65783 0.0
H448 H 0.51711 0.36723 0.7182 0.0
H449 H 0.61476 0.43913 0.68686 0.0
H450 H 0.59956 0.45172 0.70443 0.0
H451 H 0.58546 0.43857 0.67815 0.0
C452 C 0.53465 0.45097 0.69142 0.0
C453 C 0.51687 0.43844 0.67431 0.0
C454 C 0.54491 0.43806 0.7033 0.0
C455 C 0.53777 0.4126 0.69799 0.0
C456 C 0.51809 0.39948 0.68239 0.0
H457 H 0.6237 0.33563 0.68654 0.0
H458 H 0.60341 0.36224 0.68478 0.0
C459 C 0.50768 0.41221 0.67077 0.0
C460 C 0.55218 0.40006 0.7067 0.0
H461 H 0.61168 0.40389 0.70548 0.0
C462 C 0.53786 0.37537 0.7157 0.0
C463 C 0.57925 0.41054 0.70317 0.0
C464 C 0.59569 0.43633 0.69247 0.0
C465 C 0.54949 0.36042 0.72022 0.0
C466 C 0.57647 0.37078 0.71637 0.0
C467 C 0.59103 0.39595 0.70845 0.0
C468 C 0.58952 0.35513 0.71823 0.0
C469 C 0.53236 0.33313 0.72774 0.0
C470 C 0.58892 0.34247 0.73773 0.0
C471 C 0.6002 0.32681 0.73866 0.0
C472 C 0.6128 0.32397 0.72024 0.0
C473 C 0.61419 0.3374 0.70103 0.0
C474 C 0.60259 0.35268 0.70002 0.0
H475 H 0.51141 0.3263 0.72471 0.0
H476 H 0.53756 0.31996 0.71929 0.0
H477 H 0.535 0.332 0.7456 0.0
H478 H 0.57964 0.34458 0.75222 0.0
H479 H 0.59902 0.3169 0.75377 0.0
H480 H 0.09723 0.55651 0.84801 0.0
H481 H 0.13884 0.57134 0.86728 0.0
H482 H 0.15536 0.52317 0.8258 0.0
H483 H 0.11419 0.50875 0.80641 0.0
H484 H 0.1644 0.54753 0.88918 0.0
H485 H 0.21446 0.59677 0.81268 0.0
H486 H 0.18005 0.58409 0.81691 0.0
H487 H 0.19213 0.56315 0.80899 0.0
C488 C 0.10942 0.54852 0.84357 0.0
C489 C 0.10263 0.53151 0.82581 0.0
C490 C 0.13321 0.55711 0.85444 0.0
C491 C 0.15042 0.5488 0.84759 0.0
C492 C 0.1426 0.53021 0.83104 0.0
H493 H 0.28908 0.5601 0.90034 0.0
H494 H 0.245 0.54887 0.89007 0.0
C495 C 0.119 0.52177 0.82014 0.0
C496 C 0.17732 0.56082 0.85641 0.0
H497 H 0.24098 0.59361 0.84047 0.0
C498 C 0.18117 0.5578 0.87861 0.0
C499 C 0.1992 0.5748 0.84271 0.0
C500 C 0.19634 0.58017 0.81905 0.0
C501 C 0.20636 0.56731 0.88723 0.0
C502 C 0.22817 0.57977 0.87316 0.0
C503 C 0.2243 0.58385 0.85121 0.0
C504 C 0.25499 0.58728 0.88043 0.0
C505 C 0.20933 0.56386 0.91131 0.0
C506 C 0.27559 0.61254 0.87786 0.0
C507 C 0.30111 0.61906 0.88351 0.0
C508 C 0.30649 0.60036 0.89171 0.0
C509 C 0.28574 0.57509 0.89422 0.0
C510 C 0.26037 0.56863 0.88854 0.0
H511 H 0.19256 0.56213 0.92082 0.0
H512 H 0.21003 0.54595 0.91372 0.0
H513 H 0.22753 0.58012 0.918 0.0
H514 H 0.27193 0.6272 0.8714 0.0
H515 H 0.31658 0.63867 0.88134 0.0
H516 H 0.61789 0.0931 0.00476 0.0
H517 H 0.64578 0.13301 0.02499 0.0
H518 H 0.58519 0.15274 0.02157 0.0
H519 H 0.5575 0.11307 0.00155 0.0
H520 H 0.66154 0.17965 0.00551 0.0
H521 H 0.61234 0.17516 0.08358 0.0
H522 H 0.60489 0.14686 0.06782 0.0
H523 H 0.59059 0.16615 0.06063 0.0
C524 C 0.61024 0.10552 0.00917 0.0
C525 C 0.58554 0.10002 0.00182 0.0
C526 C 0.6262 0.12835 0.02057 0.0
C527 C 0.6175 0.1458 0.025 0.0
C528 C 0.59216 0.13941 0.01883 0.0
H529 H 0.68896 0.30726 0.02156 0.0
H530 H 0.6636 0.26064 0.01799 0.0
C531 C 0.57635 0.11677 0.00733 0.0
C532 C 0.63587 0.17218 0.03289 0.0
H533 H 0.64212 0.21768 0.06984 0.0
C534 C 0.65759 0.18779 0.01985 0.0
C535 C 0.63077 0.18287 0.05161 0.0
C536 C 0.60851 0.1668 0.06684 0.0
C537 C 0.67342 0.21403 0.02431 0.0
C538 C 0.66735 0.22502 0.04219 0.0
C539 C 0.64655 0.20923 0.05599 0.0
C540 C 0.68144 0.25314 0.04573 0.0
C541 C 0.69613 0.23008 0.00945 0.0
C542 C 0.69946 0.26433 0.06287 0.0
C543 C 0.71414 0.29109 0.06493 0.0
C544 C 0.71084 0.30703 0.04997 0.0
C545 C 0.69204 0.29561 0.03334 0.0
C546 C 0.67754 0.26896 0.03123 0.0
H547 H 0.70142 0.21808 -0.00076 0.0
H548 H 0.69092 0.24143 -0.00163 0.0
H549 H 0.71342 0.24373 0.01915 0.0
H550 H 0.70269 0.2524 0.07424 0.0
H551 H 0.72845 0.29927 0.07792 0.0
H552 H 0.4969 0.565 0.19869 0.0
H553 H 0.48215 0.5905 0.21936 0.0
H554 H 0.51973 0.65169 0.1724 0.0
H555 H 0.53522 0.62684 0.15242 0.0
H556 H 0.52179 0.67067 0.21251 0.0
H557 H 0.42072 0.59327 0.19413 0.0
H558 H 0.43965 0.58407 0.21078 0.0
H559 H 0.4488 0.59334 0.18279 0.0
C560 C 0.50275 0.58426 0.19332 0.0
C561 C 0.51687 0.59384 0.17382 0.0
C562 C 0.49402 0.59868 0.20493 0.0
C563 C 0.4991 0.6227 0.19704 0.0
C564 C 0.5153 0.63315 0.17874 0.0
H565 H 0.41011 0.69625 0.18681 0.0
H566 H 0.43104 0.6702 0.18521 0.0
C567 C 0.52414 0.61891 0.16729 0.0
C568 C 0.48567 0.63605 0.206 0.0
H569 H 0.42574 0.63101 0.20954 0.0
C570 C 0.50076 0.66191 0.2122 0.0
C571 C 0.4582 0.62469 0.20529 0.0
C572 C 0.44083 0.5974 0.19774 0.0
C573 C 0.4893 0.67701 0.2167 0.0
C574 C 0.46188 0.66575 0.21557 0.0
C575 C 0.44673 0.63959 0.21043 0.0
C576 C 0.44864 0.68118 0.21737 0.0
C577 C 0.5068 0.70522 0.22127 0.0
C578 C 0.45118 0.69581 0.23612 0.0
C579 C 0.43942 0.71104 0.23696 0.0
C580 C 0.42456 0.71158 0.21921 0.0
C581 C 0.42141 0.6963 0.20077 0.0
C582 C 0.43336 0.68134 0.19985 0.0
H583 H 0.52733 0.7119 0.21667 0.0
H584 H 0.50009 0.71686 0.21223 0.0
H585 H 0.50635 0.70885 0.23903 0.0
H586 H 0.46232 0.69554 0.25006 0.0
H587 H 0.44204 0.72244 0.25148 0.0
H588 H 0.91187 0.45006 0.31363 0.0
H589 H 0.87212 0.43522 0.33512 0.0
H590 H 0.9094 0.50487 0.37318 0.0
H591 H 0.94914 0.5201 0.35134 0.0
H592 H 0.85706 0.42818 0.3801 0.0
H593 H 0.84965 0.5077 0.34097 0.0
H594 H 0.87261 0.49824 0.33195 0.0
H595 H 0.87895 0.51723 0.35632 0.0
C596 C 0.9118 0.46192 0.32696 0.0
C597 C 0.93345 0.4864 0.33062 0.0
C598 C 0.88909 0.4534 0.33923 0.0
C599 C 0.88761 0.4692 0.35538 0.0
C600 C 0.91002 0.49259 0.36051 0.0
H601 H 0.75267 0.46433 0.41574 0.0
H602 H 0.79663 0.47417 0.40627 0.0
C603 C 0.93279 0.50115 0.3482 0.0
C604 C 0.86191 0.46249 0.36483 0.0
H605 H 0.81608 0.48106 0.36495 0.0
C606 C 0.84812 0.4398 0.37694 0.0
C607 C 0.85017 0.47753 0.36044 0.0
C608 C 0.86343 0.50142 0.34656 0.0
C609 C 0.823 0.4319 0.38499 0.0
C610 C 0.81122 0.44687 0.38044 0.0
C611 C 0.82514 0.46965 0.36849 0.0
C612 C 0.78443 0.4394 0.38768 0.0
C613 C 0.8094 0.40778 0.39849 0.0
C614 C 0.76282 0.41647 0.38041 0.0
C615 C 0.73749 0.41071 0.38584 0.0
C616 C 0.73331 0.4279 0.39846 0.0
C617 C 0.75507 0.45065 0.40593 0.0
C618 C 0.78029 0.45633 0.40057 0.0
H619 H 0.82341 0.40251 0.40546 0.0
H620 H 0.79824 0.40998 0.41208 0.0
H621 H 0.79555 0.39172 0.38791 0.0
H622 H 0.76549 0.40337 0.37003 0.0
H623 H 0.72121 0.39308 0.37974 0.0
H624 H 0.04478 0.53654 0.37449 0.0
H625 H 0.06569 0.54887 0.41057 0.0
H626 H 0.12295 0.62225 0.38456 0.0
H627 H 0.1014 0.61062 0.34914 0.0
H628 H 0.11179 0.55638 0.41846 0.0
H629 H 0.11315 0.64504 0.44262 0.0
H630 H 0.09238 0.62476 0.42091 0.0
H631 H 0.12569 0.64881 0.4154 0.0
C632 C 0.0612 0.55566 0.37677 0.0
C633 C 0.07164 0.57252 0.35896 0.0
C634 C 0.07326 0.56263 0.39733 0.0
C635 C 0.09586 0.58658 0.4004 0.0
C636 C 0.10525 0.60394 0.3829 0.0
H637 H 0.23223 0.61937 0.47256 0.0
H638 H 0.19614 0.60611 0.44679 0.0
C639 C 0.0931 0.59712 0.36251 0.0
C640 C 0.11186 0.59218 0.42057 0.0
H641 H 0.14962 0.64054 0.45603 0.0
C642 C 0.1196 0.57457 0.42698 0.0
C643 C 0.1218 0.61569 0.43204 0.0
C644 C 0.11253 0.63446 0.4275 0.0
C645 C 0.13814 0.58046 0.44354 0.0
C646 C 0.15002 0.60501 0.45345 0.0
C647 C 0.14106 0.62197 0.44806 0.0
C648 C 0.17221 0.61371 0.46891 0.0
C649 C 0.14485 0.56028 0.45013 0.0
C650 C 0.1714 0.62362 0.48952 0.0
C651 C 0.19229 0.63182 0.50406 0.0
C652 C 0.21435 0.6301 0.49831 0.0
C653 C 0.21537 0.62066 0.47753 0.0
C654 C 0.19464 0.61283 0.46288 0.0
H655 H 0.12826 0.54068 0.44708 0.0
H656 H 0.1615 0.56254 0.44016 0.0
H657 H 0.15028 0.56194 0.4677 0.0
H658 H 0.15443 0.62471 0.49449 0.0
H659 H 0.19092 0.63901 0.51997 0.0
H660 H 0.57578 0.09646 0.51547 0.0
H661 H 0.58893 0.12098 0.54962 0.0
H662 H 0.50991 0.07842 0.57307 0.0
H663 H 0.49673 0.05356 0.53883 0.0
H664 H 0.56568 0.1509 0.55995 0.0
H665 H 0.55445 0.08456 0.62781 0.0
H666 H 0.558 0.0778 0.59959 0.0
H667 H 0.52758 0.07389 0.60904 0.0
C668 C 0.56142 0.09178 0.52823 0.0
C669 C 0.53527 0.07319 0.5246 0.0
C670 C 0.56891 0.10582 0.54767 0.0
C671 C 0.5504 0.10154 0.56386 0.0
C672 C 0.52456 0.08177 0.56092 0.0
H673 H 0.56727 0.19533 0.67956 0.0
H674 H 0.54914 0.16237 0.65087 0.0
C675 C 0.51706 0.06757 0.54141 0.0
C676 C 0.55763 0.12006 0.58215 0.0
H677 H 0.56585 0.12696 0.63758 0.0
C678 C 0.5657 0.14565 0.57693 0.0
C679 C 0.55726 0.11307 0.60428 0.0
C680 C 0.54903 0.08589 0.61065 0.0
C681 C 0.57382 0.16457 0.59318 0.0
C682 C 0.57433 0.15781 0.61525 0.0
C683 C 0.56553 0.13207 0.62061 0.0
C684 C 0.58514 0.17751 0.63274 0.0
C685 C 0.58174 0.19164 0.58658 0.0
C686 C 0.61139 0.19678 0.63208 0.0
C687 C 0.62175 0.21561 0.64833 0.0
C688 C 0.60609 0.21547 0.66566 0.0
C689 C 0.57979 0.19605 0.66636 0.0
C690 C 0.56944 0.17715 0.65006 0.0
H691 H 0.57345 0.19223 0.57042 0.0
H692 H 0.57539 0.20093 0.59894 0.0
H693 H 0.60326 0.20303 0.58531 0.0
H694 H 0.62394 0.19717 0.61903 0.0
H695 H 0.64211 0.23018 0.64739 0.0
H696 H 0.50779 0.58436 0.68692 0.0
H697 H 0.50225 0.60152 0.72156 0.0
H698 H 0.46819 0.52619 0.75024 0.0
H699 H 0.47391 0.50899 0.71561 0.0
H700 H 0.45279 0.58401 0.73745 0.0
H701 H 0.51361 0.57214 0.80014 0.0
H702 H 0.51915 0.57152 0.77112 0.0
H703 H 0.4937 0.54367 0.78445 0.0
C704 C 0.49988 0.57164 0.70085 0.0
C705 C 0.49117 0.54533 0.6986 0.0
C706 C 0.49668 0.58145 0.72059 0.0
C707 C 0.48484 0.56516 0.73849 0.0
C708 C 0.4778 0.53921 0.73677 0.0
H709 H 0.40937 0.56752 0.85759 0.0
H710 H 0.42864 0.55802 0.82626 0.0
C711 C 0.48109 0.52938 0.71699 0.0
C712 C 0.47654 0.57449 0.75765 0.0
H713 H 0.48028 0.58004 0.81334 0.0
C714 C 0.45907 0.58348 0.75403 0.0
C715 C 0.48459 0.57356 0.77925 0.0
C716 C 0.50398 0.56492 0.78402 0.0
C717 C 0.44877 0.5908 0.77145 0.0
C718 C 0.45655 0.58959 0.7931 0.0
C719 C 0.47436 0.58099 0.79672 0.0
C720 C 0.44544 0.59595 0.81226 0.0
C721 C 0.42884 0.59877 0.76658 0.0
C722 C 0.4486 0.62054 0.81487 0.0
C723 C 0.4374 0.62604 0.83274 0.0
C724 C 0.42304 0.60709 0.84843 0.0
C725 C 0.42022 0.58259 0.84583 0.0
C726 C 0.43132 0.57711 0.82796 0.0
H727 H 0.42045 0.5928 0.7499 0.0
H728 H 0.41273 0.59042 0.77866 0.0
H729 H 0.43827 0.61995 0.76758 0.0
H730 H 0.45983 0.63551 0.80315 0.0
H731 H 0.44018 0.64517 0.83434 0.0
H732 H 0.94304 0.50863 0.84932 0.0
H733 H 0.91827 0.49604 0.88347 0.0
H734 H 0.96017 0.45829 0.90435 0.0
H735 H 0.98519 0.47104 0.87013 0.0
H736 H 0.88809 0.44084 0.89029 0.0
H737 H 0.95159 0.49314 0.96134 0.0
H738 H 0.95851 0.50614 0.93393 0.0
H739 H 0.96419 0.48046 0.94105 0.0
C740 C 0.94767 0.49854 0.8616 0.0
C741 C 0.96592 0.49073 0.85718 0.0
C742 C 0.93348 0.4913 0.88103 0.0
C743 C 0.93737 0.47621 0.89636 0.0
C744 C 0.95714 0.47022 0.89283 0.0
H745 H 0.83992 0.39176 0.00825 0.0
H746 H 0.87426 0.4091 0.98041 0.0
C747 C 0.97145 0.47756 0.87334 0.0
C748 C 0.91792 0.46337 0.91386 0.0
H749 H 0.90831 0.46115 0.96906 0.0
C750 C 0.8925 0.44526 0.90753 0.0
C751 C 0.92392 0.4689 0.93627 0.0
C752 C 0.95098 0.4883 0.94372 0.0
C753 C 0.87271 0.43278 0.92301 0.0
C754 C 0.87839 0.43898 0.94541 0.0
C755 C 0.90402 0.45655 0.95185 0.0
C756 C 0.85764 0.42827 0.96218 0.0
C757 C 0.84591 0.41297 0.91524 0.0
C758 C 0.83703 0.43339 0.96113 0.0
C759 C 0.81738 0.42343 0.97686 0.0
C760 C 0.81808 0.40834 -0.00592 0.0
C761 C 0.83877 0.40321 -0.00489 0.0
C762 C 0.85845 0.41319 0.97931 0.0
H763 H 0.84661 0.40512 0.89894 0.0
H764 H 0.83643 0.39685 0.92702 0.0
H765 H 0.83361 0.422 0.91372 0.0
H766 H 0.83628 0.44534 0.94824 0.0
H767 H 0.80184 0.42791 0.9757 0.0
H768 H 0.53826 0.98069 0.04051 0.0
H769 H 0.52339 0.95488 0.07413 0.0
H770 H 0.44576 0.91257 0.04748 0.0
H771 H 0.46058 0.93798 0.01391 0.0
H772 H 0.48077 0.9406 0.10566 0.0
H773 H 0.47017 0.85915 0.05516 0.0
H774 H 0.48784 0.89194 0.04586 0.0
H775 H 0.45288 0.87433 0.04473 0.0
C776 C 0.51787 0.96643 0.0422 0.0
C777 C 0.50055 0.96113 0.02468 0.0
C778 C 0.50944 0.95164 0.0613 0.0
C779 C 0.48362 0.93149 0.06303 0.0
C780 C 0.46586 0.92774 0.04628 0.0
H781 H 0.3916 0.80264 0.14619 0.0
H782 H 0.40939 0.83605 0.1182 0.0
C783 C 0.47428 0.94233 0.02721 0.0
C784 C 0.47569 0.91276 0.08115 0.0
H785 H 0.45336 0.84939 0.09125 0.0
C786 C 0.47495 0.92069 0.10261 0.0
C787 C 0.46834 0.88686 0.07707 0.0
C788 C 0.47004 0.87753 0.0545 0.0
C789 C 0.46605 0.90309 0.12002 0.0
C790 C 0.45806 0.87706 0.11579 0.0
C791 C 0.45936 0.86932 0.0944 0.0
C792 C 0.4475 0.85727 0.13314 0.0
C793 C 0.46448 0.91225 0.14266 0.0
C794 C 0.46318 0.85793 0.15063 0.0
C795 C 0.45309 0.83877 0.16662 0.0
C796 C 0.42716 0.81862 0.16535 0.0
C797 C 0.41163 0.8179 0.14766 0.0
C798 C 0.42174 0.837 0.13168 0.0
H799 H 0.46631 0.93153 0.14238 0.0
H800 H 0.44578 0.89859 0.15061 0.0
H801 H 0.48052 0.91337 0.15286 0.0
H802 H 0.48326 0.87315 0.15181 0.0
H803 H 0.46556 0.83983 0.18003 0.0
H804 H 0.57029 0.53095 0.21809 0.0
H805 H 0.58003 0.51669 0.25271 0.0
H806 H 0.54173 0.43891 0.22874 0.0
H807 H 0.53212 0.45305 0.19419 0.0
H808 H 0.54918 0.4752 0.28528 0.0
H809 H 0.62054 0.46102 0.23701 0.0
H810 H 0.60631 0.47947 0.22693 0.0
H811 H 0.58782 0.44507 0.22655 0.0
C812 C 0.56317 0.51071 0.22057 0.0
C813 C 0.55067 0.4931 0.20349 0.0
C814 C 0.56885 0.50261 0.24025 0.0
C815 C 0.56203 0.47685 0.24303 0.0
C816 C 0.54747 0.45892 0.22675 0.0
H817 H 0.60861 0.39609 0.3336 0.0
H818 H 0.59019 0.40865 0.30342 0.0
C819 C 0.5419 0.46699 0.2071 0.0
C820 C 0.5725 0.46914 0.26169 0.0
H821 H 0.6151 0.44837 0.27404 0.0
C822 C 0.56361 0.46937 0.28291 0.0
C823 C 0.59137 0.46161 0.25844 0.0
C824 C 0.60229 0.46192 0.23605 0.0
C825 C 0.57278 0.46173 0.30099 0.0
C826 C 0.59169 0.45421 0.29772 0.0
C827 C 0.60056 0.45405 0.27648 0.0
C828 C 0.6028 0.44667 0.3161 0.0
C829 C 0.56175 0.46126 0.32334 0.0
C830 C 0.61653 0.46408 0.33296 0.0
C831 C 0.6271 0.457 0.3502 0.0
C832 C 0.62435 0.43238 0.35086 0.0
C833 C 0.61111 0.41518 0.33364 0.0
C834 C 0.60049 0.42229 0.31641 0.0
H835 H 0.54275 0.46068 0.32223 0.0
H836 H 0.55907 0.44446 0.33292 0.0
H837 H 0.57546 0.4789 0.33241 0.0
H838 H 0.61915 0.48323 0.33275 0.0
H839 H 0.63729 0.47081 0.3631 0.0
H840 H 0.4976 0.932 0.43261 0.0
H841 H 0.48881 0.90875 0.39792 0.0
H842 H 0.45729 0.95396 0.3714 0.0
H843 H 0.46634 0.97748 0.40609 0.0
H844 H 0.43855 0.87966 0.38311 0.0
H845 H 0.49938 0.95037 0.31993 0.0
H846 H 0.50607 0.95617 0.34887 0.0
H847 H 0.48084 0.96021 0.33646 0.0
C848 C 0.48949 0.93746 0.41914 0.0
C849 C 0.48255 0.95646 0.422 0.0
C850 C 0.48444 0.92415 0.39937 0.0
C851 C 0.47243 0.92962 0.38205 0.0
C852 C 0.46698 0.94971 0.38439 0.0
H853 H 0.39461 0.85263 0.26246 0.0
H854 H 0.41315 0.88111 0.29397 0.0
C855 C 0.47216 0.96315 0.4042 0.0
C856 C 0.4627 0.91223 0.36282 0.0
H857 H 0.46529 0.91006 0.30706 0.0
C858 C 0.44459 0.88626 0.36649 0.0
C859 C 0.47043 0.92092 0.34116 0.0
C860 C 0.49042 0.94839 0.3363 0.0
C861 C 0.43361 0.86883 0.34909 0.0
C862 C 0.44128 0.8775 0.32742 0.0
C863 C 0.45947 0.90346 0.32371 0.0
C864 C 0.43016 0.86003 0.30836 0.0
C865 C 0.4133 0.84146 0.35405 0.0
C866 C 0.43363 0.83872 0.30594 0.0
C867 C 0.4229 0.82224 0.28797 0.0
C868 C 0.40867 0.8269 0.27199 0.0
C869 C 0.40536 0.84836 0.27446 0.0
C870 C 0.41604 0.86476 0.29243 0.0
H871 H 0.40498 0.83948 0.37069 0.0
H872 H 0.3972 0.83413 0.34192 0.0
H873 H 0.42238 0.82921 0.35319 0.0
H874 H 0.44483 0.83495 0.31786 0.0
H875 H 0.42604 0.80605 0.2865 0.0
H876 H 0.49824 0.41735 0.59983 0.0
H877 H 0.5132 0.40903 0.56544 0.0
H878 H 0.55219 0.48973 0.55016 0.0
H879 H 0.53881 0.49845 0.58568 0.0
H880 H 0.50809 0.41418 0.5244 0.0
H881 H 0.6122 0.47777 0.54599 0.0
H882 H 0.58633 0.47053 0.5651 0.0
H883 H 0.59379 0.49395 0.54393 0.0
C884 C 0.51008 0.43341 0.58921 0.0
C885 C 0.51799 0.45865 0.5958 0.0
C886 C 0.51845 0.42858 0.5694 0.0
C887 C 0.53453 0.44881 0.55543 0.0
C888 C 0.54057 0.47388 0.56101 0.0
H889 H 0.57373 0.40276 0.43056 0.0
H890 H 0.55507 0.41888 0.45763 0.0
C891 C 0.53256 0.47881 0.58116 0.0
C892 C 0.54579 0.44325 0.53582 0.0
H893 H 0.60332 0.45569 0.51258 0.0
C894 C 0.52893 0.42335 0.52174 0.0
C895 C 0.57302 0.45497 0.53252 0.0
C896 C 0.59243 0.47531 0.54777 0.0
C897 C 0.53844 0.41414 0.50509 0.0
C898 C 0.56565 0.42602 0.50166 0.0
C899 C 0.58248 0.44658 0.51519 0.0
C900 C 0.57724 0.4167 0.48492 0.0
C901 C 0.51919 0.39088 0.49224 0.0
C902 C 0.59676 0.41108 0.49095 0.0
C903 C 0.60805 0.40263 0.47534 0.0
C904 C 0.5997 0.3992 0.45347 0.0
C905 C 0.58017 0.40476 0.44742 0.0
C906 C 0.56938 0.41385 0.46291 0.0
H907 H 0.50057 0.37966 0.50123 0.0
H908 H 0.5147 0.39717 0.47657 0.0
H909 H 0.52711 0.37804 0.48852 0.0
H910 H 0.60325 0.41317 0.5078 0.0
H911 H 0.62315 0.39859 0.4804 0.0
H912 H 0.10743 0.58496 0.76377 0.0
H913 H 0.13034 0.59996 0.72891 0.0
H914 H 0.0794 0.526 0.70001 0.0
H915 H 0.05615 0.51106 0.7349 0.0
H916 H 0.15621 0.57639 0.71227 0.0
H917 H 0.08663 0.57529 0.65084 0.0
H918 H 0.08142 0.57539 0.67997 0.0
H919 H 0.07456 0.5462 0.66631 0.0
C920 C 0.10062 0.57222 0.74974 0.0
C921 C 0.08012 0.54688 0.75192 0.0
C922 C 0.11373 0.58076 0.72989 0.0
C923 C 0.10657 0.56412 0.71187 0.0
C924 C 0.08496 0.5393 0.71359 0.0
H925 H 0.18003 0.56267 0.59048 0.0
H926 H 0.15172 0.55336 0.62221 0.0
C927 C 0.07169 0.53077 0.73349 0.0
C928 C 0.12391 0.57156 0.69255 0.0
H929 H 0.1261 0.57918 0.6371 0.0
C930 C 0.1497 0.57726 0.69585 0.0
C931 C 0.11528 0.57242 0.67117 0.0
C932 C 0.08803 0.56722 0.6668 0.0
C933 C 0.16701 0.58334 0.6783 0.0
C934 C 0.15841 0.58418 0.6569 0.0
C935 C 0.13264 0.57858 0.65357 0.0
C936 C 0.17572 0.59017 0.6377 0.0
C937 C 0.19411 0.58804 0.68276 0.0
C938 C 0.19861 0.61401 0.63589 0.0
C939 C 0.21499 0.61939 0.61782 0.0
C940 C 0.20864 0.60105 0.60114 0.0
C941 C 0.1856 0.57722 0.60303 0.0
C942 C 0.1693 0.57188 0.6211 0.0
H943 H 0.19552 0.58058 0.69902 0.0
H944 H 0.20017 0.57894 0.67 0.0
H945 H 0.20802 0.60897 0.68256 0.0
H946 H 0.20369 0.62855 0.64838 0.0
H947 H 0.23243 0.638 0.6168 0.0
H948 H 0.57054 0.05888 0.90842 0.0
H949 H 0.5785 0.08236 0.87382 0.0
H950 H 0.54841 0.12802 0.90205 0.0
H951 H 0.54064 0.10482 0.93662 0.0
H952 H 0.54749 0.09409 0.84442 0.0
H953 H 0.6249 0.18027 0.88693 0.0
H954 H 0.61041 0.14859 0.89862 0.0
H955 H 0.59331 0.16623 0.89941 0.0
C956 C 0.56498 0.07345 0.907 0.0
C957 C 0.55527 0.08027 0.92522 0.0
C958 C 0.56964 0.08691 0.88731 0.0
C959 C 0.5646 0.10731 0.8856 0.0
C960 C 0.55294 0.11272 0.90321 0.0
H961 H 0.60924 0.22848 0.78857 0.0
H962 H 0.59062 0.20017 0.82025 0.0
C963 C 0.54842 0.0994 0.92288 0.0
C964 C 0.57344 0.12425 0.86616 0.0
H965 H 0.61621 0.18553 0.85021 0.0
C966 C 0.56249 0.11408 0.84564 0.0
C967 C 0.59305 0.15033 0.86784 0.0
C968 C 0.60631 0.16203 0.88933 0.0
C969 C 0.57047 0.12942 0.82675 0.0
C970 C 0.59024 0.15544 0.82843 0.0
C971 C 0.60099 0.16562 0.84899 0.0
C972 C 0.60084 0.17223 0.80897 0.0
C973 C 0.55745 0.11772 0.80522 0.0
C974 C 0.61315 0.16614 0.79235 0.0
C975 C 0.62384 0.18226 0.7743 0.0
C976 C 0.62261 0.20495 0.77254 0.0
C977 C 0.61052 0.21118 0.78937 0.0
C978 C 0.59982 0.19499 0.80747 0.0
H979 H 0.53813 0.10032 0.80765 0.0
H980 H 0.55487 0.13166 0.79518 0.0
H981 H 0.56981 0.11199 0.7959 0.0
H982 H 0.61475 0.14902 0.79344 0.0
H983 H 0.6331 0.17687 0.76173 0.0
H984 H 0.53999 0.57549 0.08355 0.0
H985 H 0.52577 0.5865 0.04943 0.0
H986 H 0.44799 0.55407 0.07528 0.0
H987 H 0.46226 0.54357 0.10941 0.0
H988 H 0.48403 0.55987 0.01747 0.0
H989 H 0.47351 0.63138 0.06732 0.0
H990 H 0.49033 0.61531 0.07718 0.0
H991 H 0.45536 0.59918 0.0775 0.0
C992 C 0.51969 0.56997 0.08155 0.0
C993 C 0.50216 0.55877 0.09896 0.0
C994 C 0.51163 0.57636 0.06217 0.0
C995 C 0.48598 0.57157 0.06009 0.0
C996 C 0.46796 0.55829 0.07675 0.0
H997 H 0.39764 0.61176 0.9739 0.0
H998 H 0.41416 0.59523 0.0025 0.0
C999 C 0.47604 0.55213 0.09612 0.0
C1000 C 0.47864 0.58275 0.04175 0.0
H1001 H 0.45765 0.6251 0.03088 0.0
C1002 C 0.47841 0.57425 0.02032 0.0
C1003 C 0.47162 0.60171 0.04556 0.0
C1004 C 0.47292 0.61265 0.06809 0.0
C1005 C 0.47035 0.58357 0.00264 0.0
C1006 C 0.46265 0.602 0.00659 0.0
C1007 C 0.46342 0.61085 0.02796 0.0
C1008 C 0.45293 0.61187 -0.01105 0.0
C1009 C 0.46936 0.57313 0.97998 0.0
C1010 C 0.46943 0.62708 0.97208 0.0
C1011 C 0.46009 0.63672 0.95576 0.0
C1012 C 0.43409 0.63126 0.95608 0.0
C1013 C 0.41775 0.61628 0.97318 0.0
C1014 C 0.42712 0.60677 -0.0105 0.0
H1015 H 0.4712 0.55564 0.98031 0.0
H1016 H 0.45086 0.56851 0.97166 0.0
H1017 H 0.48563 0.58789 0.9701 0.0
H1018 H 0.48955 0.63162 0.97162 0.0
H1019 H 0.47316 0.64822 0.94281 0.0
H1020 H 0.92528 0.51735 0.2616 0.0
H1021 H 0.9044 0.50672 0.22574 0.0
H1022 H 0.96325 0.49065 0.20179 0.0
H1023 H 0.98374 0.50033 0.23816 0.0
H1024 H 0.91869 0.5241 0.18476 0.0
H1025 H 0.89698 0.42318 0.19065 0.0
H1026 H 0.90938 0.44512 0.21347 0.0
H1027 H 0.93093 0.44681 0.19202 0.0
C1028 C 0.93388 0.5117 0.24865 0.0
C1029 C 0.95584 0.50917 0.25277 0.0
C1030 C 0.92199 0.50573 0.22814 0.0
C1031 C 0.93186 0.49724 0.21124 0.0
C1032 C 0.95492 0.49651 0.21478 0.0
H1033 H 0.86468 0.47319 0.08001 0.0
H1034 H 0.89428 0.48849 0.11122 0.0
C1035 C 0.9668 0.50237 0.23545 0.0
C1036 C 0.917 0.48803 0.19047 0.0
H1037 H 0.88278 0.43459 0.15878 0.0
C1038 C 0.91098 0.50459 0.17897 0.0
C1039 C 0.90653 0.46239 0.18321 0.0
C1040 C 0.91103 0.44323 0.19554 0.0
C1041 C 0.89455 0.49617 0.1606 0.0
C1042 C 0.88443 0.47065 0.15313 0.0
C1043 C 0.89068 0.45417 0.16446 0.0
C1044 C 0.86681 0.46053 0.1339 0.0
C1045 C 0.88741 0.51444 0.14993 0.0
C1046 C 0.84183 0.43899 0.13601 0.0
C1047 C 0.82491 0.42987 0.11804 0.0
C1048 C 0.83266 0.44223 0.09767 0.0
C1049 C 0.85791 0.46344 0.09554 0.0
C1050 C 0.87486 0.47233 0.11341 0.0
H1051 H 0.8906 0.5303 0.16115 0.0
H1052 H 0.89982 0.52308 0.13531 0.0
H1053 H 0.86673 0.50435 0.14461 0.0
H1054 H 0.83527 0.42948 0.15166 0.0
H1055 H 0.80564 0.41345 0.1202 0.0
loop_
_geom_bond_atom_site_label_1
_geom_bond_atom_site_label_2
_geom_bond_distance
_geom_bond_site_symmetry_2
_ccdc_geom_bond_type
H0 C6 0.930 . S
H1 C9 0.931 . S
H2 C11 0.931 . S
H3 C13 0.930 . S
H4 C15 0.930 . S
H5 C17 0.931 1_455 S
C6 H0 0.930 . S
C6 C7 1.380 . S
C6 C8 1.394 . S
C7 C6 1.380 . S
C7 C11 1.382 . S
C8 C6 1.394 . S
C8 C9 1.400 . S
C9 H1 0.931 . S
C9 C8 1.400 . S
C9 C10 1.375 . S
C10 C9 1.375 . S
C10 C11 1.415 . S
C10 C12 1.501 1_455 S
C11 H2 0.931 . S
C11 C7 1.382 . S
C11 C10 1.415 . S
C12 C10 1.501 1_655 S
C12 C13 1.384 . S
C12 C17 1.408 . S
C13 H3 0.930 . S
C13 C12 1.384 . S
C13 C14 1.389 . S
C14 C13 1.389 . S
C14 C15 1.405 . S
C15 H4 0.930 . S
C15 C14 1.405 . S
C15 C16 1.364 . S
C16 C15 1.364 . S
C16 C17 1.400 . S
C17 H5 0.931 1_655 S
C17 C12 1.408 . S
C17 C16 1.400 . S
H18 C24 0.930 . S
H19 C27 0.931 . S
H20 C29 0.931 . S
H21 C31 0.930 . S
H22 C33 0.930 . S
H23 C35 0.931 1_545 S
C24 H18 0.930 . S
C24 C25 1.380 . S
C24 C26 1.394 . S
C25 C24 1.380 . S
C25 C29 1.382 . S
C26 C24 1.394 . S
C26 C27 1.400 . S
C27 H19 0.931 . S
C27 C26 1.400 . S
C27 C28 1.375 . S
C28 C27 1.375 . S
C28 C29 1.415 . S
C28 C30 1.501 1_545 S
C29 H20 0.931 . S
C29 C25 1.382 . S
C29 C28 1.415 . S
C30 C28 1.501 1_565 S
C30 C31 1.384 . S
C30 C35 1.408 . S
C31 H21 0.930 . S
C31 C30 1.384 . S
C31 C32 1.389 . S
C32 C31 1.389 . S
C32 C33 1.405 . S
C33 H22 0.930 . S
C33 C32 1.405 . S
C33 C34 1.364 . S
C34 C33 1.364 . S
C34 C35 1.400 . S
C35 H23 0.931 1_565 S
C35 C30 1.408 . S
C35 C34 1.400 . S
H36 C42 0.930 . S
H37 C45 0.931 . S
H38 C47 0.931 . S
H39 C49 0.930 . S
H40 C51 0.930 . S
H41 C53 0.931 . S
C42 H36 0.930 . S
C42 C43 1.380 . S
C42 C44 1.394 . S
C43 C42 1.380 . S
C43 C47 1.382 . S
C44 C42 1.394 . S
C44 C45 1.400 . S
C45 H37 0.931 . S
C45 C44 1.400 . S
C45 C46 1.375 . S
C46 C45 1.375 . S
C46 C47 1.415 . S
C46 C48 1.501 . S
C47 H38 0.931 . S
C47 C43 1.382 . S
C47 C46 1.415 . S
C48 C46 1.501 . S
C48 C49 1.384 . S
C48 C53 1.408 . S
C49 H39 0.930 . S
C49 C48 1.384 . S
C49 C50 1.389 . S
C50 C49 1.389 . S
C50 C51 1.405 . S
C51 H40 0.930 . S
C51 C50 1.405 . S
C51 C52 1.364 . S
C52 C51 1.364 . S
C52 C53 1.400 . S
C53 H41 0.931 . S
C53 C48 1.408 . S
C53 C52 1.400 . S
H54 C60 0.930 . S
H55 C63 0.931 . S
H56 C65 0.931 . S
H57 C67 0.930 . S
H58 C69 0.930 . S
H59 C71 0.936 . S
C60 H54 0.930 . S
C60 C61 1.380 . S
C60 C62 1.394 . S
C61 C60 1.380 . S
C61 C65 1.382 . S
C62 C60 1.394 . S
C62 C63 1.400 . S
C63 H55 0.931 . S
C63 C62 1.400 . S
C63 C64 1.375 . S
C64 C63 1.375 . S
C64 C65 1.415 . S
C64 C66 1.501 1_455 S
C65 H56 0.931 . S
C65 C61 1.382 . S
C65 C64 1.415 . S
C66 C64 1.501 1_655 S
C66 C67 1.384 . S
C66 C71 1.408 . S
C67 H57 0.930 . S
C67 C66 1.384 . S
C67 C68 1.389 . S
C68 C67 1.389 . S
C68 C69 1.405 . S
C69 H58 0.930 . S
C69 C68 1.405 . S
C69 C70 1.364 . S
C70 C69 1.364 . S
C70 C71 1.400 . S
C71 H59 0.936 . S
C71 C66 1.408 . S
C71 C70 1.400 . S
H72 C78 0.930 . S
H73 C81 0.931 . S
H74 C83 0.932 1_545 S
H75 C85 0.930 . S
H76 C87 0.930 . S
H77 C89 0.931 . S
C78 H72 0.930 . S
C78 C79 1.380 . S
C78 C80 1.394 1_554 S
C79 C78 1.380 . S
C79 C83 1.382 . S
C80 C78 1.394 1_556 S
C80 C81 1.400 . S
C81 H73 0.931 . S
C81 C80 1.400 . S
C81 C82 1.375 . S
C82 C81 1.375 . S
C82 C83 1.415 1_556 S
C82 C84 1.501 1_565 S
C83 H74 0.932 1_565 S
C83 C79 1.382 . S
C83 C82 1.415 1_554 S
C84 C82 1.501 1_545 S
C84 C85 1.384 1_556 S
C84 C89 1.408 . S
C85 H75 0.930 . S
C85 C84 1.384 1_554 S
C85 C86 1.389 1_554 S
C86 C85 1.389 1_556 S
C86 C87 1.405 . S
C87 H76 0.930 . S
C87 C86 1.405 . S
C87 C88 1.364 . S
C88 C87 1.364 . S
C88 C89 1.400 . S
C89 H77 0.931 . S
C89 C84 1.408 . S
C89 C88 1.400 . S
H90 C96 0.930 . S
H91 C99 0.931 . S
H92 C101 0.931 . S
H93 C103 0.930 . S
H94 C105 0.930 . S
H95 C107 0.931 . S
C96 H90 0.930 . S
C96 C97 1.380 . S
C96 C98 1.394 . S
C97 C96 1.380 . S
C97 C101 1.382 . S
C98 C96 1.394 . S
C98 C99 1.400 . S
C99 H91 0.931 . S
C99 C98 1.400 . S
C99 C100 1.375 . S
C100 C99 1.375 . S
C100 C101 1.415 . S
C100 C102 1.501 . S
C101 H92 0.931 . S
C101 C97 1.382 . S
C101 C100 1.415 . S
C102 C100 1.501 . S
C102 C103 1.384 . S
C102 C107 1.408 . S
C103 H93 0.930 . S
C103 C102 1.384 . S
C103 C104 1.389 . S
C104 C103 1.389 . S
C104 C105 1.405 . S
C105 H94 0.930 . S
C105 C104 1.405 . S
C105 C106 1.364 . S
C106 C105 1.364 . S
C106 C107 1.400 . S
C107 H95 0.931 . S
C107 C102 1.408 . S
C107 C106 1.400 . S
C108 O109 1.306 . S
C108 O111 1.160 . S
O109 C108 1.306 . S
O109 Cd110 2.228 . S
Cd110 O109 2.228 . S
Cd110 O114 2.273 . S
Cd110 O118 2.277 . S
O111 C108 1.160 . S
O111 Cd112 2.203 . S
Cd112 O111 2.203 . S
Cd112 O114 2.411 . S
Cd112 O115 2.333 . S
Cd112 O116 2.352 . S
Cd112 O120 2.277 . S
Cd112 O121 2.356 . S
C113 O118 1.209 . S
C113 O120 1.226 . S
O114 Cd110 2.273 . S
O114 Cd112 2.411 . S
O114 C117 1.320 . S
O115 Cd112 2.333 . S
O115 C117 1.214 . S
O116 Cd112 2.352 . S
O116 C119 1.258 . S
C117 O114 1.320 . S
C117 O115 1.214 . S
O118 Cd110 2.277 . S
O118 C113 1.209 . S
C119 O116 1.258 . S
C119 O121 1.282 . S
O120 Cd112 2.277 . S
O120 C113 1.226 . S
O121 Cd112 2.356 . S
O121 C119 1.282 . S
C122 O123 1.306 . S
C122 O125 1.160 . S
O123 C122 1.306 . S
O123 Cd124 2.228 . S
Cd124 O123 2.228 . S
Cd124 O128 2.273 . S
Cd124 O132 2.277 . S
O125 C122 1.160 . S
O125 Cd126 2.203 . S
Cd126 O125 2.203 . S
Cd126 O128 2.411 . S
Cd126 O129 2.333 . S
Cd126 O130 2.352 . S
Cd126 O134 2.277 . S
Cd126 O135 2.356 . S
C127 O132 1.209 . S
C127 O134 1.226 . S
O128 Cd124 2.273 . S
O128 Cd126 2.411 . S
O128 C131 1.320 . S
O129 Cd126 2.333 . S
O129 C131 1.214 . S
O130 Cd126 2.352 . S
O130 C133 1.258 . S
C131 O128 1.320 . S
C131 O129 1.214 . S
O132 Cd124 2.277 . S
O132 C127 1.209 . S
C133 O130 1.258 . S
C133 O135 1.282 . S
O134 Cd126 2.277 . S
O134 C127 1.226 . S
O135 Cd126 2.356 . S
O135 C133 1.282 . S
C136 O137 1.306 . S
C136 O139 1.160 . S
O137 C136 1.306 . S
O137 Cd138 2.228 . S
Cd138 O137 2.228 . S
Cd138 O142 2.273 . S
Cd138 O146 2.277 . S
O139 C136 1.160 . S
O139 Cd140 2.203 . S
Cd140 O139 2.203 . S
Cd140 O142 2.411 . S
Cd140 O143 2.333 . S
Cd140 O144 2.352 . S
Cd140 O148 2.277 . S
Cd140 O149 2.356 . S
C141 O146 1.209 . S
C141 O148 1.226 . S
O142 Cd138 2.273 . S
O142 Cd140 2.411 . S
O142 C145 1.320 . S
O143 Cd140 2.333 . S
O143 C145 1.214 . S
O144 Cd140 2.352 . S
O144 C147 1.258 . S
C145 O142 1.320 . S
C145 O143 1.214 . S
O146 Cd138 2.277 . S
O146 C141 1.209 . S
C147 O144 1.258 . S
C147 O149 1.282 . S
O148 Cd140 2.277 . S
O148 C141 1.226 . S
O149 Cd140 2.356 . S
O149 C147 1.282 . S
C150 O151 1.306 . S
C150 O153 1.160 . S
O151 C150 1.306 . S
O151 Cd152 2.228 . S
Cd152 O151 2.228 . S
Cd152 O156 2.273 . S
Cd152 O160 2.277 . S
O153 C150 1.160 . S
O153 Cd154 2.203 . S
Cd154 O153 2.203 . S
Cd154 O156 2.411 . S
Cd154 O157 2.333 . S
Cd154 O158 2.352 . S
Cd154 O162 2.277 . S
Cd154 O163 2.356 . S
C155 O160 1.209 . S
C155 O162 1.226 . S
O156 Cd152 2.273 . S
O156 Cd154 2.411 . S
O156 C159 1.320 . S
O157 Cd154 2.333 . S
O157 C159 1.214 . S
O158 Cd154 2.352 . S
O158 C161 1.258 . S
C159 O156 1.320 . S
C159 O157 1.214 . S
O160 Cd152 2.277 . S
O160 C155 1.209 . S
C161 O158 1.258 . S
C161 O163 1.282 . S
O162 Cd154 2.277 . S
O162 C155 1.226 . S
O163 Cd154 2.356 . S
O163 C161 1.282 . S
C164 O165 1.306 . S
C164 O167 1.160 . S
O165 C164 1.306 . S
O165 Cd166 2.228 . S
Cd166 O165 2.228 . S
Cd166 O170 2.273 . S
Cd166 O174 2.277 . S
O167 C164 1.160 . S
O167 Cd168 2.203 . S
Cd168 O167 2.203 . S
Cd168 O170 2.411 . S
Cd168 O171 2.333 . S
Cd168 O172 2.352 . S
Cd168 O176 2.277 . S
Cd168 O177 2.356 . S
C169 O174 1.209 . S
C169 O176 1.226 . S
O170 Cd166 2.273 . S
O170 Cd168 2.411 . S
O170 C173 1.320 . S
O171 Cd168 2.333 . S
O171 C173 1.214 . S
O172 Cd168 2.352 . S
O172 C175 1.258 . S
C173 O170 1.320 . S
C173 O171 1.214 . S
O174 Cd166 2.277 . S
O174 C169 1.209 . S
C175 O172 1.258 . S
C175 O177 1.282 . S
O176 Cd168 2.277 . S
O176 C169 1.226 . S
O177 Cd168 2.356 . S
O177 C175 1.282 . S
C178 O179 1.306 . S
C178 O181 1.160 . S
O179 C178 1.306 . S
O179 Cd180 2.228 . S
Cd180 O179 2.228 . S
Cd180 O184 2.273 . S
Cd180 O188 2.277 . S
O181 C178 1.160 . S
O181 Cd182 2.203 . S
Cd182 O181 2.203 . S
Cd182 O184 2.411 . S
Cd182 O185 2.333 . S
Cd182 O186 2.352 . S
Cd182 O190 2.277 . S
Cd182 O191 2.356 . S
C183 O188 1.209 . S
C183 O190 1.226 . S
O184 Cd180 2.273 . S
O184 Cd182 2.411 . S
O184 C187 1.320 . S
O185 Cd182 2.333 . S
O185 C187 1.214 . S
O186 Cd182 2.352 . S
O186 C189 1.258 . S
C187 O184 1.320 . S
C187 O185 1.214 . S
O188 Cd180 2.277 . S
O188 C183 1.209 . S
C189 O186 1.258 . S
C189 O191 1.282 . S
O190 Cd182 2.277 . S
O190 C183 1.226 . S
O191 Cd182 2.356 . S
O191 C189 1.282 . S
H192 C200 0.929 . S
H193 C202 0.930 . S
H194 C204 0.930 . S
H195 C207 0.929 . S
H196 C210 0.930 . S
H197 C212 0.960 . S
H198 C212 0.960 . S
H199 C212 0.960 . S
C200 H192 0.929 . S
C200 C201 1.377 . S
C200 C202 1.384 . S
C201 C200 1.377 . S
C201 C207 1.390 . S
C202 H193 0.930 . S
C202 C200 1.384 . S
C202 C203 1.372 . S
C203 C202 1.372 . S
C203 C204 1.400 . S
C203 C208 1.490 . S
C204 H194 0.930 . S
C204 C203 1.400 . S
C204 C207 1.386 . S
H205 C221 0.930 . S
H206 C222 0.931 . S
C207 H195 0.929 . S
C207 C201 1.390 . S
C207 C204 1.386 . S
C208 C203 1.490 . S
C208 C210 1.395 . S
C208 C211 1.403 . S
H209 C215 0.930 . S
C210 H196 0.930 . S
C210 C208 1.395 . S
C210 C213 1.403 . S
C211 C208 1.403 . S
C211 C212 1.524 . S
C211 C215 1.400 . S
C212 H197 0.960 . S
C212 H198 0.960 . S
C212 H199 0.960 . S
C212 C211 1.524 . S
C213 C210 1.403 . S
C213 C214 1.392 . S
C213 C217 1.495 . S
C214 C213 1.392 . S
C214 C215 1.385 . S
C214 C216 1.478 . S
C215 H209 0.930 . S
C215 C211 1.400 . S
C215 C214 1.385 . S
C216 C214 1.478 . S
C216 C218 1.381 . S
C216 C222 1.383 . S
C217 C213 1.495 . S
C217 H223 0.959 . S
C217 H224 0.961 . S
C217 H225 0.960 . S
C218 C216 1.381 . S
C218 C219 1.394 . S
C218 H226 0.930 . S
C219 C218 1.394 . S
C219 C220 1.383 . S
C219 H227 0.929 . S
C220 C219 1.383 . S
C220 C221 1.377 . S
C221 H205 0.930 . S
C221 C220 1.377 . S
C221 C222 1.379 . S
C222 H206 0.931 . S
C222 C216 1.383 . S
C222 C221 1.379 . S
H223 C217 0.959 . S
H224 C217 0.961 . S
H225 C217 0.960 . S
H226 C218 0.930 . S
H227 C219 0.929 . S
H228 C236 0.929 . S
H229 C238 0.930 . S
H230 C240 0.930 . S
H231 C243 0.929 . S
H232 C246 0.930 . S
H233 C248 0.960 . S
H234 C248 0.960 . S
H235 C248 0.960 . S
C236 H228 0.929 . S
C236 C237 1.377 . S
C236 C238 1.384 . S
C237 C236 1.377 . S
C237 C243 1.390 . S
C238 H229 0.930 . S
C238 C236 1.384 . S
C238 C239 1.372 . S
C239 C238 1.372 . S
C239 C240 1.400 . S
C239 C244 1.490 . S
C240 H230 0.930 . S
C240 C239 1.400 . S
C240 C243 1.386 . S
H241 C257 0.930 . S
H242 C258 0.931 . S
C243 H231 0.929 . S
C243 C237 1.390 . S
C243 C240 1.386 . S
C244 C239 1.490 . S
C244 C246 1.395 . S
C244 C247 1.403 . S
H245 C251 0.930 . S
C246 H232 0.930 . S
C246 C244 1.395 . S
C246 C249 1.403 . S
C247 C244 1.403 . S
C247 C248 1.524 . S
C247 C251 1.400 . S
C248 H233 0.960 . S
C248 H234 0.960 . S
C248 H235 0.960 . S
C248 C247 1.524 . S
C249 C246 1.403 . S
C249 C250 1.392 . S
C249 C253 1.495 . S
C250 C249 1.392 . S
C250 C251 1.385 . S
C250 C252 1.478 . S
C251 H245 0.930 . S
C251 C247 1.400 . S
C251 C250 1.385 . S
C252 C250 1.478 . S
C252 C254 1.381 . S
C252 C258 1.383 . S
C253 C249 1.495 . S
C253 H259 0.959 . S
C253 H260 0.961 . S
C253 H261 0.960 . S
C254 C252 1.381 . S
C254 C255 1.394 . S
C254 H262 0.930 . S
C255 C254 1.394 . S
C255 C256 1.383 . S
C255 H263 0.929 . S
C256 C255 1.383 . S
C256 C257 1.377 . S
C257 H241 0.930 . S
C257 C256 1.377 . S
C257 C258 1.379 . S
C258 H242 0.931 . S
C258 C252 1.383 . S
C258 C257 1.379 . S
H259 C253 0.959 . S
H260 C253 0.961 . S
H261 C253 0.960 . S
H262 C254 0.930 . S
H263 C255 0.929 . S
H264 C272 0.929 . S
H265 C274 0.930 . S
H266 C276 0.930 . S
H267 C279 0.929 . S
H268 C282 0.930 . S
H269 C284 0.960 . S
H270 C284 0.960 . S
H271 C284 0.960 . S
C272 H264 0.929 . S
C272 C273 1.377 . S
C272 C274 1.384 . S
C273 C272 1.377 . S
C273 C279 1.390 . S
C274 H265 0.930 . S
C274 C272 1.384 . S
C274 C275 1.372 . S
C275 C274 1.372 . S
C275 C276 1.400 . S
C275 C280 1.490 . S
C276 H266 0.930 . S
C276 C275 1.400 . S
C276 C279 1.386 . S
H277 C293 0.930 . S
H278 C294 0.931 . S
C279 H267 0.929 . S
C279 C273 1.390 . S
C279 C276 1.386 . S
C280 C275 1.490 . S
C280 C282 1.395 . S
C280 C283 1.403 . S
H281 C287 0.930 . S
C282 H268 0.930 . S
C282 C280 1.395 . S
C282 C285 1.403 . S
C283 C280 1.403 . S
C283 C284 1.524 . S
C283 C287 1.400 . S
C284 H269 0.960 . S
C284 H270 0.960 . S
C284 H271 0.960 . S
C284 C283 1.524 . S
C285 C282 1.403 . S
C285 C286 1.392 . S
C285 C289 1.495 . S
C286 C285 1.392 . S
C286 C287 1.385 . S
C286 C288 1.478 . S
C287 H281 0.930 . S
C287 C283 1.400 . S
C287 C286 1.385 . S
C288 C286 1.478 . S
C288 C290 1.381 . S
C288 C294 1.383 . S
C289 C285 1.495 . S
C289 H295 0.959 . S
C289 H296 0.961 . S
C289 H297 0.960 . S
C290 C288 1.381 . S
C290 C291 1.394 . S
C290 H298 0.930 . S
C291 C290 1.394 . S
C291 C292 1.383 . S
C291 H299 0.929 . S
C292 C291 1.383 . S
C292 C293 1.377 . S
C293 H277 0.930 . S
C293 C292 1.377 . S
C293 C294 1.379 . S
C294 H278 0.931 . S
C294 C288 1.383 . S
C294 C293 1.379 . S
H295 C289 0.959 . S
H296 C289 0.961 . S
H297 C289 0.960 . S
H298 C290 0.930 . S
H299 C291 0.929 . S
H300 C308 0.929 . S
H301 C310 0.930 . S
H302 C312 0.930 . S
H303 C315 0.929 . S
H304 C318 0.930 . S
H305 C320 0.960 . S
H306 C320 0.960 . S
H307 C320 0.960 . S
C308 H300 0.929 . S
C308 C309 1.377 . S
C308 C310 1.384 . S
C309 C308 1.377 . S
C309 C315 1.390 . S
C310 H301 0.930 . S
C310 C308 1.384 . S
C310 C311 1.372 . S
C311 C310 1.372 . S
C311 C312 1.400 . S
C311 C316 1.490 . S
C312 H302 0.930 . S
C312 C311 1.400 . S
C312 C315 1.386 . S
H313 C329 0.930 . S
H314 C330 0.931 . S
C315 H303 0.929 . S
C315 C309 1.390 . S
C315 C312 1.386 . S
C316 C311 1.490 . S
C316 C318 1.395 . S
C316 C319 1.403 . S
H317 C323 0.930 . S
C318 H304 0.930 . S
C318 C316 1.395 . S
C318 C321 1.403 . S
C319 C316 1.403 . S
C319 C320 1.524 . S
C319 C323 1.400 . S
C320 H305 0.960 . S
C320 H306 0.960 . S
C320 H307 0.960 . S
C320 C319 1.524 . S
C321 C318 1.403 . S
C321 C322 1.392 . S
C321 C325 1.495 . S
C322 C321 1.392 . S
C322 C323 1.385 . S
C322 C324 1.478 . S
C323 H317 0.930 . S
C323 C319 1.400 . S
C323 C322 1.385 . S
C324 C322 1.478 . S
C324 C326 1.381 . S
C324 C330 1.383 . S
C325 C321 1.495 . S
C325 H331 0.959 . S
C325 H332 0.961 . S
C325 H333 0.960 . S
C326 C324 1.381 . S
C326 C327 1.394 . S
C326 H334 0.930 . S
C327 C326 1.394 . S
C327 C328 1.383 . S
C327 H335 0.929 . S
C328 C327 1.383 . S
C328 C329 1.377 . S
C329 H313 0.930 . S
C329 C328 1.377 . S
C329 C330 1.379 . S
C330 H314 0.931 . S
C330 C324 1.383 . S
C330 C329 1.379 . S
H331 C325 0.959 . S
H332 C325 0.961 . S
H333 C325 0.960 . S
H334 C326 0.930 . S
H335 C327 0.929 . S
H336 C344 0.929 . S
H337 C346 0.930 . S
H338 C348 0.930 . S
H339 C351 0.929 . S
H340 C354 0.930 . S
H341 C356 0.960 . S
H342 C356 0.937 1_554 S
H343 C356 0.960 . S
C344 H336 0.929 . S
C344 C345 1.377 . S
C344 C346 1.384 . S
C345 C344 1.377 . S
C345 C351 1.390 . S
C346 H337 0.930 . S
C346 C344 1.384 . S
C346 C347 1.372 . S
C347 C346 1.372 . S
C347 C348 1.400 . S
C347 C352 1.490 . S
C348 H338 0.930 . S
C348 C347 1.400 . S
C348 C351 1.386 . S
H349 C365 0.930 . S
H350 C366 0.931 . S
C351 H339 0.929 . S
C351 C345 1.390 . S
C351 C348 1.386 . S
C352 C347 1.490 . S
C352 C354 1.395 . S
C352 C355 1.403 . S
H353 C359 0.930 . S
C354 H340 0.930 . S
C354 C352 1.395 . S
C354 C357 1.403 . S
C355 C352 1.403 . S
C355 C356 1.524 . S
C355 C359 1.400 . S
C356 H341 0.960 . S
C356 H342 0.937 1_556 S
C356 H343 0.960 . S
C356 C355 1.524 . S
C357 C354 1.403 . S
C357 C358 1.392 . S
C357 C361 1.495 . S
C358 C357 1.392 . S
C358 C359 1.385 . S
C358 C360 1.478 . S
C359 H353 0.930 . S
C359 C355 1.400 . S
C359 C358 1.385 . S
C360 C358 1.478 . S
C360 C362 1.381 . S
C360 C366 1.383 . S
C361 C357 1.495 . S
C361 H367 0.959 . S
C361 H368 0.961 . S
C361 H369 0.960 . S
C362 C360 1.381 . S
C362 C363 1.394 . S
C362 H370 0.930 . S
C363 C362 1.394 . S
C363 C364 1.383 . S
C363 H371 0.929 . S
C364 C363 1.383 . S
C364 C365 1.377 . S
C365 H349 0.930 . S
C365 C364 1.377 . S
C365 C366 1.379 . S
C366 H350 0.931 . S
C366 C360 1.383 . S
C366 C365 1.379 . S
H367 C361 0.959 . S
H368 C361 0.961 . S
H369 C361 0.960 . S
H370 C362 0.930 . S
H371 C363 0.929 . S
H372 C380 0.929 . S
H373 C382 0.930 . S
H374 C384 0.930 . S
H375 C387 0.929 . S
H376 C390 0.930 . S
H377 C392 0.960 . S
H378 C392 0.960 . S
H379 C392 0.960 . S
C380 H372 0.929 . S
C380 C381 1.377 . S
C380 C382 1.384 . S
C381 C380 1.377 . S
C381 C387 1.390 . S
C382 H373 0.930 . S
C382 C380 1.384 . S
C382 C383 1.372 . S
C383 C382 1.372 . S
C383 C384 1.400 . S
C383 C388 1.490 . S
C384 H374 0.930 . S
C384 C383 1.400 . S
C384 C387 1.386 . S
H385 C401 0.930 . S
H386 C402 0.931 . S
C387 H375 0.929 . S
C387 C381 1.390 . S
C387 C384 1.386 . S
C388 C383 1.490 . S
C388 C390 1.395 . S
C388 C391 1.403 . S
H389 C395 0.930 . S
C390 H376 0.930 . S
C390 C388 1.395 . S
C390 C393 1.403 . S
C391 C388 1.403 . S
C391 C392 1.524 . S
C391 C395 1.400 . S
C392 H377 0.960 . S
C392 H378 0.960 . S
C392 H379 0.960 . S
C392 C391 1.524 . S
C393 C390 1.403 . S
C393 C394 1.392 . S
C393 C397 1.495 . S
C394 C393 1.392 . S
C394 C395 1.385 . S
C394 C396 1.478 . S
C395 H389 0.930 . S
C395 C391 1.400 . S
C395 C394 1.385 . S
C396 C394 1.478 . S
C396 C398 1.381 . S
C396 C402 1.383 . S
C397 C393 1.495 . S
C397 H403 0.959 . S
C397 H404 0.961 . S
C397 H405 0.960 . S
C398 C396 1.381 . S
C398 C399 1.394 . S
C398 H406 0.930 . S
C399 C398 1.394 . S
C399 C400 1.383 . S
C399 H407 0.929 . S
C400 C399 1.383 . S
C400 C401 1.377 . S
C401 H385 0.930 . S
C401 C400 1.377 . S
C401 C402 1.379 . S
C402 H386 0.931 . S
C402 C396 1.383 . S
C402 C401 1.379 . S
H403 C397 0.959 . S
H404 C397 0.961 . S
H405 C397 0.960 . S
H406 C398 0.930 . S
H407 C399 0.929 . S
H408 C416 0.929 . S
H409 C418 0.930 . S
H410 C420 0.930 . S
H411 C423 0.929 . S
H412 C426 0.930 . S
H413 C428 0.960 . S
H414 C428 0.960 . S
H415 C428 0.960 . S
C416 H408 0.929 . S
C416 C417 1.377 . S
C416 C418 1.384 . S
C417 C416 1.377 . S
C417 C423 1.390 . S
C418 H409 0.930 . S
C418 C416 1.384 . S
C418 C419 1.372 . S
C419 C418 1.372 . S
C419 C420 1.400 . S
C419 C424 1.490 . S
C420 H410 0.930 . S
C420 C419 1.400 . S
C420 C423 1.386 . S
H421 C437 0.930 . S
H422 C438 0.931 . S
C423 H411 0.929 . S
C423 C417 1.390 . S
C423 C420 1.386 . S
C424 C419 1.490 . S
C424 C426 1.395 . S
C424 C427 1.403 . S
H425 C431 0.930 . S
C426 H412 0.930 . S
C426 C424 1.395 . S
C426 C429 1.403 . S
C427 C424 1.403 . S
C427 C428 1.524 . S
C427 C431 1.400 . S
C428 H413 0.960 . S
C428 H414 0.960 . S
C428 H415 0.960 . S
C428 C427 1.524 . S
C429 C426 1.403 . S
C429 C430 1.392 . S
C429 C433 1.495 . S
C430 C429 1.392 . S
C430 C431 1.385 . S
C430 C432 1.478 . S
C431 H425 0.930 . S
C431 C427 1.400 . S
C431 C430 1.385 . S
C432 C430 1.478 . S
C432 C434 1.381 . S
C432 C438 1.383 . S
C433 C429 1.495 . S
C433 H439 0.959 . S
C433 H440 0.961 . S
C433 H441 0.960 . S
C434 C432 1.381 . S
C434 C435 1.394 . S
C434 H442 0.930 . S
C435 C434 1.394 . S
C435 C436 1.383 . S
C435 H443 0.929 . S
C436 C435 1.383 . S
C436 C437 1.377 . S
C437 H421 0.930 . S
C437 C436 1.377 . S
C437 C438 1.379 . S
C438 H422 0.931 . S
C438 C432 1.383 . S
C438 C437 1.379 . S
H439 C433 0.959 . S
H440 C433 0.961 . S
H441 C433 0.960 . S
H442 C434 0.930 . S
H443 C435 0.929 . S
H444 C452 0.929 . S
H445 C454 0.930 . S
H446 C456 0.930 . S
H447 C459 0.929 . S
H448 C462 0.930 . S
H449 C464 0.960 . S
H450 C464 0.960 . S
H451 C464 0.960 . S
C452 H444 0.929 . S
C452 C453 1.377 . S
C452 C454 1.384 . S
C453 C452 1.377 . S
C453 C459 1.390 . S
C454 H445 0.930 . S
C454 C452 1.384 . S
C454 C455 1.372 . S
C455 C454 1.372 . S
C455 C456 1.400 . S
C455 C460 1.490 . S
C456 H446 0.930 . S
C456 C455 1.400 . S
C456 C459 1.386 . S
H457 C473 0.930 . S
H458 C474 0.931 . S
C459 H447 0.929 . S
C459 C453 1.390 . S
C459 C456 1.386 . S
C460 C455 1.490 . S
C460 C462 1.395 . S
C460 C463 1.403 . S
H461 C467 0.930 . S
C462 H448 0.930 . S
C462 C460 1.395 . S
C462 C465 1.403 . S
C463 C460 1.403 . S
C463 C464 1.524 . S
C463 C467 1.400 . S
C464 H449 0.960 . S
C464 H450 0.960 . S
C464 H451 0.960 . S
C464 C463 1.524 . S
C465 C462 1.403 . S
C465 C466 1.392 . S
C465 C469 1.495 . S
C466 C465 1.392 . S
C466 C467 1.385 . S
C466 C468 1.478 . S
C467 H461 0.930 . S
C467 C463 1.400 . S
C467 C466 1.385 . S
C468 C466 1.478 . S
C468 C470 1.381 . S
C468 C474 1.383 . S
C469 C465 1.495 . S
C469 H475 0.959 . S
C469 H476 0.961 . S
C469 H477 0.960 . S
C470 C468 1.381 . S
C470 C471 1.394 . S
C470 H478 0.930 . S
C471 C470 1.394 . S
C471 C472 1.383 . S
C471 H479 0.929 . S
C472 C471 1.383 . S
C472 C473 1.377 . S
C473 H457 0.930 . S
C473 C472 1.377 . S
C473 C474 1.379 . S
C474 H458 0.931 . S
C474 C468 1.383 . S
C474 C473 1.379 . S
H475 C469 0.959 . S
H476 C469 0.961 . S
H477 C469 0.960 . S
H478 C470 0.930 . S
H479 C471 0.929 . S
H480 C488 0.929 . S
H481 C490 0.930 . S
H482 C492 0.930 . S
H483 C495 0.929 . S
H484 C498 0.930 . S
H485 C500 0.960 . S
H486 C500 0.960 . S
H487 C500 0.960 . S
C488 H480 0.929 . S
C488 C489 1.377 . S
C488 C490 1.384 . S
C489 C488 1.377 . S
C489 C495 1.390 . S
C490 H481 0.930 . S
C490 C488 1.384 . S
C490 C491 1.372 . S
C491 C490 1.372 . S
C491 C492 1.400 . S
C491 C496 1.490 . S
C492 H482 0.930 . S
C492 C491 1.400 . S
C492 C495 1.386 . S
H493 C509 0.930 . S
H494 C510 0.931 . S
C495 H483 0.929 . S
C495 C489 1.390 . S
C495 C492 1.386 . S
C496 C491 1.490 . S
C496 C498 1.395 . S
C496 C499 1.403 . S
H497 C503 0.930 . S
C498 H484 0.930 . S
C498 C496 1.395 . S
C498 C501 1.403 . S
C499 C496 1.403 . S
C499 C500 1.524 . S
C499 C503 1.400 . S
C500 H485 0.960 . S
C500 H486 0.960 . S
C500 H487 0.960 . S
C500 C499 1.524 . S
C501 C498 1.403 . S
C501 C502 1.392 . S
C501 C505 1.495 . S
C502 C501 1.392 . S
C502 C503 1.385 . S
C502 C504 1.478 . S
C503 H497 0.930 . S
C503 C499 1.400 . S
C503 C502 1.385 . S
C504 C502 1.478 . S
C504 C506 1.381 . S
C504 C510 1.383 . S
C505 C501 1.495 . S
C505 H511 0.959 . S
C505 H512 0.961 . S
C505 H513 0.960 . S
C506 C504 1.381 . S
C506 C507 1.394 . S
C506 H514 0.930 . S
C507 C506 1.394 . S
C507 C508 1.383 . S
C507 H515 0.929 . S
C508 C507 1.383 . S
C508 C509 1.377 . S
C509 H493 0.930 . S
C509 C508 1.377 . S
C509 C510 1.379 . S
C510 H494 0.931 . S
C510 C504 1.383 . S
C510 C509 1.379 . S
H511 C505 0.959 . S
H512 C505 0.961 . S
H513 C505 0.960 . S
H514 C506 0.930 . S
H515 C507 0.929 . S
H516 C524 0.929 . S
H517 C526 0.930 . S
H518 C528 0.930 . S
H519 C531 0.929 . S
H520 C534 0.930 1_556 S
H521 C536 0.960 . S
H522 C536 0.960 . S
H523 C536 0.960 . S
C524 H516 0.929 . S
C524 C525 1.377 . S
C524 C526 1.384 . S
C525 C524 1.377 . S
C525 C531 1.390 . S
C526 H517 0.930 . S
C526 C524 1.384 . S
C526 C527 1.372 . S
C527 C526 1.372 . S
C527 C528 1.400 . S
C527 C532 1.490 . S
C528 H518 0.930 . S
C528 C527 1.400 . S
C528 C531 1.386 . S
H529 C545 0.930 . S
H530 C546 0.931 . S
C531 H519 0.929 . S
C531 C525 1.390 . S
C531 C528 1.386 . S
C532 C527 1.490 . S
C532 C534 1.395 . S
C532 C535 1.403 . S
H533 C539 0.930 . S
C534 H520 0.930 1_554 S
C534 C532 1.395 . S
C534 C537 1.403 . S
C535 C532 1.403 . S
C535 C536 1.524 . S
C535 C539 1.400 . S
C536 H521 0.960 . S
C536 H522 0.960 . S
C536 H523 0.960 . S
C536 C535 1.524 . S
C537 C534 1.403 . S
C537 C538 1.392 . S
C537 C541 1.495 1_554 S
C538 C537 1.392 . S
C538 C539 1.385 . S
C538 C540 1.478 . S
C539 H533 0.930 . S
C539 C535 1.400 . S
C539 C538 1.385 . S
C540 C538 1.478 . S
C540 C542 1.381 . S
C540 C546 1.383 . S
C541 C537 1.495 1_556 S
C541 H547 0.959 . S
C541 H548 0.961 . S
C541 H549 0.960 . S
C542 C540 1.381 . S
C542 C543 1.394 . S
C542 H550 0.930 . S
C543 C542 1.394 . S
C543 C544 1.383 . S
C543 H551 0.929 . S
C544 C543 1.383 . S
C544 C545 1.377 . S
C545 H529 0.930 . S
C545 C544 1.377 . S
C545 C546 1.379 . S
C546 H530 0.931 . S
C546 C540 1.383 . S
C546 C545 1.379 . S
H547 C541 0.959 . S
H548 C541 0.961 . S
H549 C541 0.960 . S
H550 C542 0.930 . S
H551 C543 0.929 . S
H552 C560 0.929 . S
H553 C562 0.930 . S
H554 C564 0.930 . S
H555 C567 0.929 . S
H556 C570 0.930 . S
H557 C572 0.960 . S
H558 C572 0.960 . S
H559 C572 0.960 . S
C560 H552 0.929 . S
C560 C561 1.377 . S
C560 C562 1.384 . S
C561 C560 1.377 . S
C561 C567 1.390 . S
C562 H553 0.930 . S
C562 C560 1.384 . S
C562 C563 1.372 . S
C563 C562 1.372 . S
C563 C564 1.400 . S
C563 C568 1.490 . S
C564 H554 0.930 . S
C564 C563 1.400 . S
C564 C567 1.386 . S
H565 C581 0.930 . S
H566 C582 0.931 . S
C567 H555 0.929 . S
C567 C561 1.390 . S
C567 C564 1.386 . S
C568 C563 1.490 . S
C568 C570 1.395 . S
C568 C571 1.403 . S
H569 C575 0.930 . S
C570 H556 0.930 . S
C570 C568 1.395 . S
C570 C573 1.403 . S
C571 C568 1.403 . S
C571 C572 1.524 . S
C571 C575 1.400 . S
C572 H557 0.960 . S
C572 H558 0.960 . S
C572 H559 0.960 . S
C572 C571 1.524 . S
C573 C570 1.403 . S
C573 C574 1.392 . S
C573 C577 1.495 . S
C574 C573 1.392 . S
C574 C575 1.385 . S
C574 C576 1.478 . S
C575 H569 0.930 . S
C575 C571 1.400 . S
C575 C574 1.385 . S
C576 C574 1.478 . S
C576 C578 1.381 . S
C576 C582 1.383 . S
C577 C573 1.495 . S
C577 H583 0.959 . S
C577 H584 0.961 . S
C577 H585 0.960 . S
C578 C576 1.381 . S
C578 C579 1.394 . S
C578 H586 0.930 . S
C579 C578 1.394 . S
C579 C580 1.383 . S
C579 H587 0.929 . S
C580 C579 1.383 . S
C580 C581 1.377 . S
C581 H565 0.930 . S
C581 C580 1.377 . S
C581 C582 1.379 . S
C582 H566 0.931 . S
C582 C576 1.383 . S
C582 C581 1.379 . S
H583 C577 0.959 . S
H584 C577 0.961 . S
H585 C577 0.960 . S
H586 C578 0.930 . S
H587 C579 0.929 . S
H588 C596 0.929 . S
H589 C598 0.930 . S
H590 C600 0.930 . S
H591 C603 0.929 . S
H592 C606 0.930 . S
H593 C608 0.960 . S
H594 C608 0.960 . S
H595 C608 0.960 . S
C596 H588 0.929 . S
C596 C597 1.377 . S
C596 C598 1.384 . S
C597 C596 1.377 . S
C597 C603 1.390 . S
C598 H589 0.930 . S
C598 C596 1.384 . S
C598 C599 1.372 . S
C599 C598 1.372 . S
C599 C600 1.400 . S
C599 C604 1.490 . S
C600 H590 0.930 . S
C600 C599 1.400 . S
C600 C603 1.386 . S
H601 C617 0.930 . S
H602 C618 0.931 . S
C603 H591 0.929 . S
C603 C597 1.390 . S
C603 C600 1.386 . S
C604 C599 1.490 . S
C604 C606 1.395 . S
C604 C607 1.403 . S
H605 C611 0.930 . S
C606 H592 0.930 . S
C606 C604 1.395 . S
C606 C609 1.403 . S
C607 C604 1.403 . S
C607 C608 1.524 . S
C607 C611 1.400 . S
C608 H593 0.960 . S
C608 H594 0.960 . S
C608 H595 0.960 . S
C608 C607 1.524 . S
C609 C606 1.403 . S
C609 C610 1.392 . S
C609 C613 1.495 . S
C610 C609 1.392 . S
C610 C611 1.385 . S
C610 C612 1.478 . S
C611 H605 0.930 . S
C611 C607 1.400 . S
C611 C610 1.385 . S
C612 C610 1.478 . S
C612 C614 1.381 . S
C612 C618 1.383 . S
C613 C609 1.495 . S
C613 H619 0.959 . S
C613 H620 0.961 . S
C613 H621 0.960 . S
C614 C612 1.381 . S
C614 C615 1.394 . S
C614 H622 0.930 . S
C615 C614 1.394 . S
C615 C616 1.383 . S
C615 H623 0.929 . S
C616 C615 1.383 . S
C616 C617 1.377 . S
C617 H601 0.930 . S
C617 C616 1.377 . S
C617 C618 1.379 . S
C618 H602 0.931 . S
C618 C612 1.383 . S
C618 C617 1.379 . S
H619 C613 0.959 . S
H620 C613 0.961 . S
H621 C613 0.960 . S
H622 C614 0.930 . S
H623 C615 0.929 . S
H624 C632 0.929 . S
H625 C634 0.930 . S
H626 C636 0.930 . S
H627 C639 0.929 . S
H628 C642 0.930 . S
H629 C644 0.960 . S
H630 C644 0.960 . S
H631 C644 0.960 . S
C632 H624 0.929 . S
C632 C633 1.377 . S
C632 C634 1.384 . S
C633 C632 1.377 . S
C633 C639 1.390 . S
C634 H625 0.930 . S
C634 C632 1.384 . S
C634 C635 1.372 . S
C635 C634 1.372 . S
C635 C636 1.400 . S
C635 C640 1.490 . S
C636 H626 0.930 . S
C636 C635 1.400 . S
C636 C639 1.386 . S
H637 C653 0.930 . S
H638 C654 0.931 . S
C639 H627 0.929 . S
C639 C633 1.390 . S
C639 C636 1.386 . S
C640 C635 1.490 . S
C640 C642 1.395 . S
C640 C643 1.403 . S
H641 C647 0.930 . S
C642 H628 0.930 . S
C642 C640 1.395 . S
C642 C645 1.403 . S
C643 C640 1.403 . S
C643 C644 1.524 . S
C643 C647 1.400 . S
C644 H629 0.960 . S
C644 H630 0.960 . S
C644 H631 0.960 . S
C644 C643 1.524 . S
C645 C642 1.403 . S
C645 C646 1.392 . S
C645 C649 1.495 . S
C646 C645 1.392 . S
C646 C647 1.385 . S
C646 C648 1.478 . S
C647 H641 0.930 . S
C647 C643 1.400 . S
C647 C646 1.385 . S
C648 C646 1.478 . S
C648 C650 1.381 . S
C648 C654 1.383 . S
C649 C645 1.495 . S
C649 H655 0.959 . S
C649 H656 0.961 . S
C649 H657 0.960 . S
C650 C648 1.381 . S
C650 C651 1.394 . S
C650 H658 0.930 . S
C651 C650 1.394 . S
C651 C652 1.383 . S
C651 H659 0.929 . S
C652 C651 1.383 . S
C652 C653 1.377 . S
C653 H637 0.930 . S
C653 C652 1.377 . S
C653 C654 1.379 . S
C654 H638 0.931 . S
C654 C648 1.383 . S
C654 C653 1.379 . S
H655 C649 0.959 . S
H656 C649 0.961 . S
H657 C649 0.960 . S
H658 C650 0.930 . S
H659 C651 0.929 . S
H660 C668 0.929 . S
H661 C670 0.930 . S
H662 C672 0.930 . S
H663 C675 0.929 . S
H664 C678 0.930 . S
H665 C680 0.960 . S
H666 C680 0.960 . S
H667 C680 0.960 . S
C668 H660 0.929 . S
C668 C669 1.377 . S
C668 C670 1.384 . S
C669 C668 1.377 . S
C669 C675 1.390 . S
C670 H661 0.930 . S
C670 C668 1.384 . S
C670 C671 1.372 . S
C671 C670 1.372 . S
C671 C672 1.400 . S
C671 C676 1.490 . S
C672 H662 0.930 . S
C672 C671 1.400 . S
C672 C675 1.386 . S
H673 C689 0.930 . S
H674 C690 0.931 . S
C675 H663 0.929 . S
C675 C669 1.390 . S
C675 C672 1.386 . S
C676 C671 1.490 . S
C676 C678 1.395 . S
C676 C679 1.403 . S
H677 C683 0.930 . S
C678 H664 0.930 . S
C678 C676 1.395 . S
C678 C681 1.403 . S
C679 C676 1.403 . S
C679 C680 1.524 . S
C679 C683 1.400 . S
C680 H665 0.960 . S
C680 H666 0.960 . S
C680 H667 0.960 . S
C680 C679 1.524 . S
C681 C678 1.403 . S
C681 C682 1.392 . S
C681 C685 1.495 . S
C682 C681 1.392 . S
C682 C683 1.385 . S
C682 C684 1.478 . S
C683 H677 0.930 . S
C683 C679 1.400 . S
C683 C682 1.385 . S
C684 C682 1.478 . S
C684 C686 1.381 . S
C684 C690 1.383 . S
C685 C681 1.495 . S
C685 H691 0.959 . S
C685 H692 0.961 . S
C685 H693 0.960 . S
C686 C684 1.381 . S
C686 C687 1.394 . S
C686 H694 0.930 . S
C687 C686 1.394 . S
C687 C688 1.383 . S
C687 H695 0.929 . S
C688 C687 1.383 . S
C688 C689 1.377 . S
C689 H673 0.930 . S
C689 C688 1.377 . S
C689 C690 1.379 . S
C690 H674 0.931 . S
C690 C684 1.383 . S
C690 C689 1.379 . S
H691 C685 0.959 . S
H692 C685 0.961 . S
H693 C685 0.960 . S
H694 C686 0.930 . S
H695 C687 0.929 . S
H696 C704 0.929 . S
H697 C706 0.930 . S
H698 C708 0.930 . S
H699 C711 0.929 . S
H700 C714 0.930 . S
H701 C716 0.960 . S
H702 C716 0.960 . S
H703 C716 0.960 . S
C704 H696 0.929 . S
C704 C705 1.377 . S
C704 C706 1.384 . S
C705 C704 1.377 . S
C705 C711 1.390 . S
C706 H697 0.930 . S
C706 C704 1.384 . S
C706 C707 1.372 . S
C707 C706 1.372 . S
C707 C708 1.400 . S
C707 C712 1.490 . S
C708 H698 0.930 . S
C708 C707 1.400 . S
C708 C711 1.386 . S
H709 C725 0.930 . S
H710 C726 0.931 . S
C711 H699 0.929 . S
C711 C705 1.390 . S
C711 C708 1.386 . S
C712 C707 1.490 . S
C712 C714 1.395 . S
C712 C715 1.403 . S
H713 C719 0.930 . S
C714 H700 0.930 . S
C714 C712 1.395 . S
C714 C717 1.403 . S
C715 C712 1.403 . S
C715 C716 1.524 . S
C715 C719 1.400 . S
C716 H701 0.960 . S
C716 H702 0.960 . S
C716 H703 0.960 . S
C716 C715 1.524 . S
C717 C714 1.403 . S
C717 C718 1.392 . S
C717 C721 1.495 . S
C718 C717 1.392 . S
C718 C719 1.385 . S
C718 C720 1.478 . S
C719 H713 0.930 . S
C719 C715 1.400 . S
C719 C718 1.385 . S
C720 C718 1.478 . S
C720 C722 1.381 . S
C720 C726 1.383 . S
C721 C717 1.495 . S
C721 H727 0.959 . S
C721 H728 0.961 . S
C721 H729 0.960 . S
C722 C720 1.381 . S
C722 C723 1.394 . S
C722 H730 0.930 . S
C723 C722 1.394 . S
C723 C724 1.383 . S
C723 H731 0.929 . S
C724 C723 1.383 . S
C724 C725 1.377 . S
C725 H709 0.930 . S
C725 C724 1.377 . S
C725 C726 1.379 . S
C726 H710 0.931 . S
C726 C720 1.383 . S
C726 C725 1.379 . S
H727 C721 0.959 . S
H728 C721 0.961 . S
H729 C721 0.960 . S
H730 C722 0.930 . S
H731 C723 0.929 . S
H732 C740 0.929 . S
H733 C742 0.930 . S
H734 C744 0.930 . S
H735 C747 0.929 . S
H736 C750 0.930 . S
H737 C752 0.960 . S
H738 C752 0.960 . S
H739 C752 0.960 . S
C740 H732 0.929 . S
C740 C741 1.377 . S
C740 C742 1.384 . S
C741 C740 1.377 . S
C741 C747 1.390 . S
C742 H733 0.930 . S
C742 C740 1.384 . S
C742 C743 1.372 . S
C743 C742 1.372 . S
C743 C744 1.400 . S
C743 C748 1.490 . S
C744 H734 0.930 . S
C744 C743 1.400 . S
C744 C747 1.386 . S
H745 C761 0.930 . S
H746 C762 0.931 . S
C747 H735 0.929 . S
C747 C741 1.390 . S
C747 C744 1.386 . S
C748 C743 1.490 . S
C748 C750 1.395 . S
C748 C751 1.403 . S
H749 C755 0.930 . S
C750 H736 0.930 . S
C750 C748 1.395 . S
C750 C753 1.403 . S
C751 C748 1.403 . S
C751 C752 1.524 . S
C751 C755 1.400 . S
C752 H737 0.960 . S
C752 H738 0.960 . S
C752 H739 0.960 . S
C752 C751 1.524 . S
C753 C750 1.403 . S
C753 C754 1.392 . S
C753 C757 1.495 . S
C754 C753 1.392 . S
C754 C755 1.385 . S
C754 C756 1.478 . S
C755 H749 0.930 . S
C755 C751 1.400 . S
C755 C754 1.385 . S
C756 C754 1.478 . S
C756 C758 1.381 . S
C756 C762 1.383 . S
C757 C753 1.495 . S
C757 H763 0.959 . S
C757 H764 0.961 . S
C757 H765 0.960 . S
C758 C756 1.381 . S
C758 C759 1.394 1_556 S
C758 H766 0.930 . S
C759 C758 1.394 1_554 S
C759 C760 1.383 . S
C759 H767 0.929 . S
C760 C759 1.383 . S
C760 C761 1.377 . S
C761 H745 0.930 . S
C761 C760 1.377 . S
C761 C762 1.379 1_554 S
C762 H746 0.931 . S
C762 C756 1.383 . S
C762 C761 1.379 1_556 S
H763 C757 0.959 . S
H764 C757 0.961 . S
H765 C757 0.960 . S
H766 C758 0.930 . S
H767 C759 0.929 . S
H768 C776 0.929 . S
H769 C778 0.930 . S
H770 C780 0.930 . S
H771 C783 0.929 . S
H772 C786 0.930 . S
H773 C788 0.960 . S
H774 C788 0.960 . S
H775 C788 0.960 . S
C776 H768 0.929 . S
C776 C777 1.377 . S
C776 C778 1.384 . S
C777 C776 1.377 . S
C777 C783 1.390 . S
C778 H769 0.930 . S
C778 C776 1.384 . S
C778 C779 1.372 . S
C779 C778 1.372 . S
C779 C780 1.400 . S
C779 C784 1.490 . S
C780 H770 0.930 . S
C780 C779 1.400 . S
C780 C783 1.386 . S
H781 C797 0.930 . S
H782 C798 0.931 . S
C783 H771 0.929 . S
C783 C777 1.390 . S
C783 C780 1.386 . S
C784 C779 1.490 . S
C784 C786 1.395 . S
C784 C787 1.403 . S
H785 C791 0.930 . S
C786 H772 0.930 . S
C786 C784 1.395 . S
C786 C789 1.403 . S
C787 C784 1.403 . S
C787 C788 1.524 . S
C787 C791 1.400 . S
C788 H773 0.960 . S
C788 H774 0.960 . S
C788 H775 0.960 . S
C788 C787 1.524 . S
C789 C786 1.403 . S
C789 C790 1.392 . S
C789 C793 1.495 . S
C790 C789 1.392 . S
C790 C791 1.385 . S
C790 C792 1.478 . S
C791 H785 0.930 . S
C791 C787 1.400 . S
C791 C790 1.385 . S
C792 C790 1.478 . S
C792 C794 1.381 . S
C792 C798 1.383 . S
C793 C789 1.495 . S
C793 H799 0.959 . S
C793 H800 0.961 . S
C793 H801 0.960 . S
C794 C792 1.381 . S
C794 C795 1.394 . S
C794 H802 0.930 . S
C795 C794 1.394 . S
C795 C796 1.383 . S
C795 H803 0.929 . S
C796 C795 1.383 . S
C796 C797 1.377 . S
C797 H781 0.930 . S
C797 C796 1.377 . S
C797 C798 1.379 . S
C798 H782 0.931 . S
C798 C792 1.383 . S
C798 C797 1.379 . S
H799 C793 0.959 . S
H800 C793 0.961 . S
H801 C793 0.960 . S
H802 C794 0.930 . S
H803 C795 0.929 . S
H804 C812 0.929 . S
H805 C814 0.930 . S
H806 C816 0.930 . S
H807 C819 0.929 . S
H808 C822 0.930 . S
H809 C824 0.960 . S
H810 C824 0.960 . S
H811 C824 0.960 . S
C812 H804 0.929 . S
C812 C813 1.377 . S
C812 C814 1.384 . S
C813 C812 1.377 . S
C813 C819 1.390 . S
C814 H805 0.930 . S
C814 C812 1.384 . S
C814 C815 1.372 . S
C815 C814 1.372 . S
C815 C816 1.400 . S
C815 C820 1.490 . S
C816 H806 0.930 . S
C816 C815 1.400 . S
C816 C819 1.386 . S
H817 C833 0.930 . S
H818 C834 0.931 . S
C819 H807 0.929 . S
C819 C813 1.390 . S
C819 C816 1.386 . S
C820 C815 1.490 . S
C820 C822 1.395 . S
C820 C823 1.403 . S
H821 C827 0.930 . S
C822 H808 0.930 . S
C822 C820 1.395 . S
C822 C825 1.403 . S
C823 C820 1.403 . S
C823 C824 1.524 . S
C823 C827 1.400 . S
C824 H809 0.960 . S
C824 H810 0.960 . S
C824 H811 0.960 . S
C824 C823 1.524 . S
C825 C822 1.403 . S
C825 C826 1.392 . S
C825 C829 1.495 . S
C826 C825 1.392 . S
C826 C827 1.385 . S
C826 C828 1.478 . S
C827 H821 0.930 . S
C827 C823 1.400 . S
C827 C826 1.385 . S
C828 C826 1.478 . S
C828 C830 1.381 . S
C828 C834 1.383 . S
C829 C825 1.495 . S
C829 H835 0.959 . S
C829 H836 0.961 . S
C829 H837 0.960 . S
C830 C828 1.381 . S
C830 C831 1.394 . S
C830 H838 0.930 . S
C831 C830 1.394 . S
C831 C832 1.383 . S
C831 H839 0.929 . S
C832 C831 1.383 . S
C832 C833 1.377 . S
C833 H817 0.930 . S
C833 C832 1.377 . S
C833 C834 1.379 . S
C834 H818 0.931 . S
C834 C828 1.383 . S
C834 C833 1.379 . S
H835 C829 0.959 . S
H836 C829 0.961 . S
H837 C829 0.960 . S
H838 C830 0.930 . S
H839 C831 0.929 . S
H840 C848 0.929 . S
H841 C850 0.930 . S
H842 C852 0.930 . S
H843 C855 0.929 . S
H844 C858 0.930 . S
H845 C860 0.960 . S
H846 C860 0.960 . S
H847 C860 0.960 . S
C848 H840 0.929 . S
C848 C849 1.377 . S
C848 C850 1.384 . S
C849 C848 1.377 . S
C849 C855 1.390 . S
C850 H841 0.930 . S
C850 C848 1.384 . S
C850 C851 1.372 . S
C851 C850 1.372 . S
C851 C852 1.400 . S
C851 C856 1.490 . S
C852 H842 0.930 . S
C852 C851 1.400 . S
C852 C855 1.386 . S
H853 C869 0.930 . S
H854 C870 0.931 . S
C855 H843 0.929 . S
C855 C849 1.390 . S
C855 C852 1.386 . S
C856 C851 1.490 . S
C856 C858 1.395 . S
C856 C859 1.403 . S
H857 C863 0.930 . S
C858 H844 0.930 . S
C858 C856 1.395 . S
C858 C861 1.403 . S
C859 C856 1.403 . S
C859 C860 1.524 . S
C859 C863 1.400 . S
C860 H845 0.960 . S
C860 H846 0.960 . S
C860 H847 0.960 . S
C860 C859 1.524 . S
C861 C858 1.403 . S
C861 C862 1.392 . S
C861 C865 1.495 . S
C862 C861 1.392 . S
C862 C863 1.385 . S
C862 C864 1.478 . S
C863 H857 0.930 . S
C863 C859 1.400 . S
C863 C862 1.385 . S
C864 C862 1.478 . S
C864 C866 1.381 . S
C864 C870 1.383 . S
C865 C861 1.495 . S
C865 H871 0.959 . S
C865 H872 0.961 . S
C865 H873 0.960 . S
C866 C864 1.381 . S
C866 C867 1.394 . S
C866 H874 0.930 . S
C867 C866 1.394 . S
C867 C868 1.383 . S
C867 H875 0.929 . S
C868 C867 1.383 . S
C868 C869 1.377 . S
C869 H853 0.930 . S
C869 C868 1.377 . S
C869 C870 1.379 . S
C870 H854 0.931 . S
C870 C864 1.383 . S
C870 C869 1.379 . S
H871 C865 0.959 . S
H872 C865 0.961 . S
H873 C865 0.960 . S
H874 C866 0.930 . S
H875 C867 0.929 . S
H876 C884 0.929 . S
H877 C886 0.930 . S
H878 C888 0.930 . S
H879 C891 0.929 . S
H880 C894 0.930 . S
H881 C896 0.960 . S
H882 C896 0.960 . S
H883 C896 0.960 . S
C884 H876 0.929 . S
C884 C885 1.377 . S
C884 C886 1.384 . S
C885 C884 1.377 . S
C885 C891 1.390 . S
C886 H877 0.930 . S
C886 C884 1.384 . S
C886 C887 1.372 . S
C887 C886 1.372 . S
C887 C888 1.400 . S
C887 C892 1.490 . S
C888 H878 0.930 . S
C888 C887 1.400 . S
C888 C891 1.386 . S
H889 C905 0.930 . S
H890 C906 0.931 . S
C891 H879 0.929 . S
C891 C885 1.390 . S
C891 C888 1.386 . S
C892 C887 1.490 . S
C892 C894 1.395 . S
C892 C895 1.403 . S
H893 C899 0.930 . S
C894 H880 0.930 . S
C894 C892 1.395 . S
C894 C897 1.403 . S
C895 C892 1.403 . S
C895 C896 1.524 . S
C895 C899 1.400 . S
C896 H881 0.960 . S
C896 H882 0.960 . S
C896 H883 0.960 . S
C896 C895 1.524 . S
C897 C894 1.403 . S
C897 C898 1.392 . S
C897 C901 1.495 . S
C898 C897 1.392 . S
C898 C899 1.385 . S
C898 C900 1.478 . S
C899 H893 0.930 . S
C899 C895 1.400 . S
C899 C898 1.385 . S
C900 C898 1.478 . S
C900 C902 1.381 . S
C900 C906 1.383 . S
C901 C897 1.495 . S
C901 H907 0.959 . S
C901 H908 0.961 . S
C901 H909 0.960 . S
C902 C900 1.381 . S
C902 C903 1.394 . S
C902 H910 0.930 . S
C903 C902 1.394 . S
C903 C904 1.383 . S
C903 H911 0.929 . S
C904 C903 1.383 . S
C904 C905 1.377 . S
C905 H889 0.930 . S
C905 C904 1.377 . S
C905 C906 1.379 . S
C906 H890 0.931 . S
C906 C900 1.383 . S
C906 C905 1.379 . S
H907 C901 0.959 . S
H908 C901 0.961 . S
H909 C901 0.960 . S
H910 C902 0.930 . S
H911 C903 0.929 . S
H912 C920 0.929 . S
H913 C922 0.930 . S
H914 C924 0.930 . S
H915 C927 0.929 . S
H916 C930 0.930 . S
H917 C932 0.960 . S
H918 C932 0.960 . S
H919 C932 0.960 . S
C920 H912 0.929 . S
C920 C921 1.377 . S
C920 C922 1.384 . S
C921 C920 1.377 . S
C921 C927 1.390 . S
C922 H913 0.930 . S
C922 C920 1.384 . S
C922 C923 1.372 . S
C923 C922 1.372 . S
C923 C924 1.400 . S
C923 C928 1.490 . S
C924 H914 0.930 . S
C924 C923 1.400 . S
C924 C927 1.386 . S
H925 C941 0.930 . S
H926 C942 0.931 . S
C927 H915 0.929 . S
C927 C921 1.390 . S
C927 C924 1.386 . S
C928 C923 1.490 . S
C928 C930 1.395 . S
C928 C931 1.403 . S
H929 C935 0.930 . S
C930 H916 0.930 . S
C930 C928 1.395 . S
C930 C933 1.403 . S
C931 C928 1.403 . S
C931 C932 1.524 . S
C931 C935 1.400 . S
C932 H917 0.960 . S
C932 H918 0.960 . S
C932 H919 0.960 . S
C932 C931 1.524 . S
C933 C930 1.403 . S
C933 C934 1.392 . S
C933 C937 1.495 . S
C934 C933 1.392 . S
C934 C935 1.385 . S
C934 C936 1.478 . S
C935 H929 0.930 . S
C935 C931 1.400 . S
C935 C934 1.385 . S
C936 C934 1.478 . S
C936 C938 1.381 . S
C936 C942 1.383 . S
C937 C933 1.495 . S
C937 H943 0.959 . S
C937 H944 0.961 . S
C937 H945 0.960 . S
C938 C936 1.381 . S
C938 C939 1.394 . S
C938 H946 0.930 . S
C939 C938 1.394 . S
C939 C940 1.383 . S
C939 H947 0.929 . S
C940 C939 1.383 . S
C940 C941 1.377 . S
C941 H925 0.930 . S
C941 C940 1.377 . S
C941 C942 1.379 . S
C942 H926 0.931 . S
C942 C936 1.383 . S
C942 C941 1.379 . S
H943 C937 0.959 . S
H944 C937 0.961 . S
H945 C937 0.960 . S
H946 C938 0.930 . S
H947 C939 0.929 . S
H948 C956 0.929 . S
H949 C958 0.930 . S
H950 C960 0.930 . S
H951 C963 0.929 . S
H952 C966 0.930 . S
H953 C968 0.960 . S
H954 C968 0.960 . S
H955 C968 0.960 . S
C956 H948 0.929 . S
C956 C957 1.377 . S
C956 C958 1.384 . S
C957 C956 1.377 . S
C957 C963 1.390 . S
C958 H949 0.930 . S
C958 C956 1.384 . S
C958 C959 1.372 . S
C959 C958 1.372 . S
C959 C960 1.400 . S
C959 C964 1.490 . S
C960 H950 0.930 . S
C960 C959 1.400 . S
C960 C963 1.386 . S
H961 C977 0.930 . S
H962 C978 0.931 . S
C963 H951 0.929 . S
C963 C957 1.390 . S
C963 C960 1.386 . S
C964 C959 1.490 . S
C964 C966 1.395 . S
C964 C967 1.403 . S
H965 C971 0.930 . S
C966 H952 0.930 . S
C966 C964 1.395 . S
C966 C969 1.403 . S
C967 C964 1.403 . S
C967 C968 1.524 . S
C967 C971 1.400 . S
C968 H953 0.960 . S
C968 H954 0.960 . S
C968 H955 0.960 . S
C968 C967 1.524 . S
C969 C966 1.403 . S
C969 C970 1.392 . S
C969 C973 1.495 . S
C970 C969 1.392 . S
C970 C971 1.385 . S
C970 C972 1.478 . S
C971 H965 0.930 . S
C971 C967 1.400 . S
C971 C970 1.385 . S
C972 C970 1.478 . S
C972 C974 1.381 . S
C972 C978 1.383 . S
C973 C969 1.495 . S
C973 H979 0.959 . S
C973 H980 0.961 . S
C973 H981 0.960 . S
C974 C972 1.381 . S
C974 C975 1.394 . S
C974 H982 0.930 . S
C975 C974 1.394 . S
C975 C976 1.383 . S
C975 H983 0.929 . S
C976 C975 1.383 . S
C976 C977 1.377 . S
C977 H961 0.930 . S
C977 C976 1.377 . S
C977 C978 1.379 . S
C978 H962 0.931 . S
C978 C972 1.383 . S
C978 C977 1.379 . S
H979 C973 0.959 . S
H980 C973 0.961 . S
H981 C973 0.960 . S
H982 C974 0.930 . S
H983 C975 0.929 . S
H984 C992 0.929 . S
H985 C994 0.930 . S
H986 C996 0.930 . S
H987 C999 0.929 . S
H988 C1002 0.930 . S
H989 C1004 0.960 . S
H990 C1004 0.960 . S
H991 C1004 0.960 . S
C992 H984 0.929 . S
C992 C993 1.377 . S
C992 C994 1.384 . S
C993 C992 1.377 . S
C993 C999 1.390 . S
C994 H985 0.930 . S
C994 C992 1.384 . S
C994 C995 1.372 . S
C995 C994 1.372 . S
C995 C996 1.400 . S
C995 C1000 1.490 . S
C996 H986 0.930 . S
C996 C995 1.400 . S
C996 C999 1.386 . S
H997 C1013 0.930 . S
H998 C1014 0.931 1_554 S
C999 H987 0.929 . S
C999 C993 1.390 . S
C999 C996 1.386 . S
C1000 C995 1.490 . S
C1000 C1002 1.395 . S
C1000 C1003 1.403 . S
H1001 C1007 0.930 . S
C1002 H988 0.930 . S
C1002 C1000 1.395 . S
C1002 C1005 1.403 . S
C1003 C1000 1.403 . S
C1003 C1004 1.524 . S
C1003 C1007 1.400 . S
C1004 H989 0.960 . S
C1004 H990 0.960 . S
C1004 H991 0.960 . S
C1004 C1003 1.524 . S
C1005 C1002 1.403 . S
C1005 C1006 1.392 . S
C1005 C1009 1.495 1_554 S
C1006 C1005 1.392 . S
C1006 C1007 1.385 . S
C1006 C1008 1.478 1_554 S
C1007 H1001 0.930 . S
C1007 C1003 1.400 . S
C1007 C1006 1.385 . S
C1008 C1006 1.478 1_556 S
C1008 C1010 1.381 . S
C1008 C1014 1.383 . S
C1009 C1005 1.495 1_556 S
C1009 H1015 0.959 . S
C1009 H1016 0.961 . S
C1009 H1017 0.960 . S
C1010 C1008 1.381 . S
C1010 C1011 1.394 . S
C1010 H1018 0.930 . S
C1011 C1010 1.394 . S
C1011 C1012 1.383 . S
C1011 H1019 0.929 . S
C1012 C1011 1.383 . S
C1012 C1013 1.377 . S
C1013 H997 0.930 . S
C1013 C1012 1.377 . S
C1013 C1014 1.379 . S
C1014 H998 0.931 1_556 S
C1014 C1008 1.383 . S
C1014 C1013 1.379 . S
H1015 C1009 0.959 . S
H1016 C1009 0.961 . S
H1017 C1009 0.960 . S
H1018 C1010 0.930 . S
H1019 C1011 0.929 . S
H1020 C1028 0.929 . S
H1021 C1030 0.930 . S
H1022 C1032 0.930 . S
H1023 C1035 0.929 . S
H1024 C1038 0.930 . S
H1025 C1040 0.960 . S
H1026 C1040 0.960 . S
H1027 C1040 0.960 . S
C1028 H1020 0.929 . S
C1028 C1029 1.377 . S
C1028 C1030 1.384 . S
C1029 C1028 1.377 . S
C1029 C1035 1.390 . S
C1030 H1021 0.930 . S
C1030 C1028 1.384 . S
C1030 C1031 1.372 . S
C1031 C1030 1.372 . S
C1031 C1032 1.400 . S
C1031 C1036 1.490 . S
C1032 H1022 0.930 . S
C1032 C1031 1.400 . S
C1032 C1035 1.386 . S
H1033 C1049 0.930 . S
H1034 C1050 0.931 . S
C1035 H1023 0.929 . S
C1035 C1029 1.390 . S
C1035 C1032 1.386 . S
C1036 C1031 1.490 . S
C1036 C1038 1.395 . S
C1036 C1039 1.403 . S
H1037 C1043 0.930 . S
C1038 H1024 0.930 . S
C1038 C1036 1.395 . S
C1038 C1041 1.403 . S
C1039 C1036 1.403 . S
C1039 C1040 1.524 . S
C1039 C1043 1.400 . S
C1040 H1025 0.960 . S
C1040 H1026 0.960 . S
C1040 H1027 0.960 . S
C1040 C1039 1.524 . S
C1041 C1038 1.403 . S
C1041 C1042 1.392 . S
C1041 C1045 1.495 . S
C1042 C1041 1.392 . S
C1042 C1043 1.385 . S
C1042 C1044 1.478 . S
C1043 H1037 0.930 . S
C1043 C1039 1.400 . S
C1043 C1042 1.385 . S
C1044 C1042 1.478 . S
C1044 C1046 1.381 . S
C1044 C1050 1.383 . S
C1045 C1041 1.495 . S
C1045 H1051 0.959 . S
C1045 H1052 0.961 . S
C1045 H1053 0.960 . S
C1046 C1044 1.381 . S
C1046 C1047 1.394 . S
C1046 H1054 0.930 . S
C1047 C1046 1.394 . S
C1047 C1048 1.383 . S
C1047 H1055 0.929 . S
C1048 C1047 1.383 . S
C1048 C1049 1.377 . S
C1049 H1033 0.930 . S
C1049 C1048 1.377 . S
C1049 C1050 1.379 . S
C1050 H1034 0.931 . S
C1050 C1044 1.383 . S
C1050 C1049 1.379 . S
H1051 C1045 0.959 . S
H1052 C1045 0.961 . S
H1053 C1045 0.960 . S
H1054 C1046 0.930 . S
H1055 C1047 0.929 . S
C220 C178 1.611 . S
C201 C8 1.558 . S
C237 C26 1.549 . S
C256 C119 1.605 . S
C273 C50 1.552 . S
C292 C122 1.584 . S
C309 C68 1.559 . S
C328 C136 1.616 . S
C364 C161 1.598 . S
C345 C80 1.549 . S
C381 C104 1.546 . S
C400 C164 1.578 . S
C417 C32 1.534 . S
C436 C133 1.573 . S
C453 C44 1.546 . S
C472 C147 1.581 . S
C489 C62 1.529 . S
C508 C150 1.571 . S
C544 C175 1.573 . S
C525 C86 1.525 1_554 S
C580 C189 1.581 . S
C561 C98 1.544 . S
C616 C108 1.584 . S
C597 C14 1.526 . S
C633 C7 1.458 . S
C652 C131 1.504 . S
C669 C25 1.471 . S
C688 C145 1.515 . S
C724 C155 1.515 . S
C705 C52 1.469 . S
C741 C70 1.458 . S
C760 C173 1.497 . S
C796 C187 1.514 . S
C777 C79 1.463 . S
C832 C113 1.512 . S
C813 C106 1.467 . S
C868 C183 1.544 . S
C849 C34 1.492 . S
C885 C43 1.469 . S
C904 C117 1.515 . S
C940 C127 1.530 . S
C921 C61 1.479 . S
C957 C88 1.487 . S
C976 C141 1.541 . S
C993 C97 1.472 . S
C1012 C159 1.524 . S
C1029 C16 1.476 . S
C1048 C169 1.528 . S
