# Generated by pormake.
# Topology ptr, (4,4)-cn, num edge types: 1
# Building blocks:
#     Node 0, Type 0, BuildingBlock: GALJAG_clean_sbu_0, # of connection points: 4
#     Node 1, Type 0, BuildingBlock: GALJAG_clean_sbu_0, # of connection points: 4
#     Node 2, Type 0, BuildingBlock: GALJAG_clean_sbu_0, # of connection points: 4
#     Node 3, Type 0, BuildingBlock: GALJAG_clean_sbu_0, # of connection points: 4
#     Node 4, Type 0, BuildingBlock: GALJAG_clean_sbu_0, # of connection points: 4
#     Node 5, Type 0, BuildingBlock: GALJAG_clean_sbu_0, # of connection points: 4
#     Node 6, Type 0, BuildingBlock: GALJAG_clean_sbu_0, # of connection points: 4
#     Node 7, Type 0, BuildingBlock: GALJAG_clean_sbu_0, # of connection points: 4
#     Node 8, Type 0, BuildingBlock: GALJAG_clean_sbu_0, # of connection points: 4
#     Node 9, Type 0, BuildingBlock: GALJAG_clean_sbu_0, # of connection points: 4
#     Node 10, Type 0, BuildingBlock: GALJAG_clean_sbu_0, # of connection points: 4
#     Node 11, Type 0, BuildingBlock: GALJAG_clean_sbu_0, # of connection points: 4
#     Node 12, Type 0, BuildingBlock: GALJAG_clean_sbu_0, # of connection points: 4
#     Node 13, Type 0, BuildingBlock: GALJAG_clean_sbu_0, # of connection points: 4
#     Node 14, Type 0, BuildingBlock: GALJAG_clean_sbu_0, # of connection points: 4
#     Node 15, Type 0, BuildingBlock: GALJAG_clean_sbu_0, # of connection points: 4
#     Node 16, Type 0, BuildingBlock: GALJAG_clean_sbu_0, # of connection points: 4
#     Node 17, Type 0, BuildingBlock: GALJAG_clean_sbu_0, # of connection points: 4
#     Node 18, Type 1, BuildingBlock: NAHDIM_clean_linker_0, # of connection points: 4
#     Node 19, Type 1, BuildingBlock: NAHDIM_clean_linker_0, # of connection points: 4
#     Node 20, Type 1, BuildingBlock: NAHDIM_clean_linker_0, # of connection points: 4
#     Node 21, Type 1, BuildingBlock: NAHDIM_clean_linker_0, # of connection points: 4
#     Node 22, Type 1, BuildingBlock: NAHDIM_clean_linker_0, # of connection points: 4
#     Node 23, Type 1, BuildingBlock: NAHDIM_clean_linker_0, # of connection points: 4
#     Node 24, Type 1, BuildingBlock: NAHDIM_clean_linker_0, # of connection points: 4
#     Node 25, Type 1, BuildingBlock: NAHDIM_clean_linker_0, # of connection points: 4
#     Node 26, Type 1, BuildingBlock: NAHDIM_clean_linker_0, # of connection points: 4
#     Node 27, Type 1, BuildingBlock: NAHDIM_clean_linker_0, # of connection points: 4
#     Node 28, Type 1, BuildingBlock: NAHDIM_clean_linker_0, # of connection points: 4
#     Node 29, Type 1, BuildingBlock: NAHDIM_clean_linker_0, # of connection points: 4
#     Node 30, Type 1, BuildingBlock: NAHDIM_clean_linker_0, # of connection points: 4
#     Node 31, Type 1, BuildingBlock: NAHDIM_clean_linker_0, # of connection points: 4
#     Node 32, Type 1, BuildingBlock: NAHDIM_clean_linker_0, # of connection points: 4
#     Node 33, Type 1, BuildingBlock: NAHDIM_clean_linker_0, # of connection points: 4
#     Node 34, Type 1, BuildingBlock: NAHDIM_clean_linker_0, # of connection points: 4
#     Node 35, Type 1, BuildingBlock: NAHDIM_clean_linker_0, # of connection points: 4
#     Edge 36, Type (0, 1), BuildingBlock: UVAHIK_clean_linker_0, # of connection points: 2
#     Edge 37, Type (0, 1), BuildingBlock: UVAHIK_clean_linker_0, # of connection points: 2
#     Edge 38, Type (0, 1), BuildingBlock: UVAHIK_clean_linker_0, # of connection points: 2
#     Edge 39, Type (0, 1), BuildingBlock: UVAHIK_clean_linker_0, # of connection points: 2
#     Edge 40, Type (0, 1), BuildingBlock: UVAHIK_clean_linker_0, # of connection points: 2
#     Edge 41, Type (0, 1), BuildingBlock: UVAHIK_clean_linker_0, # of connection points: 2
#     Edge 42, Type (0, 1), BuildingBlock: UVAHIK_clean_linker_0, # of connection points: 2
#     Edge 43, Type (0, 1), BuildingBlock: UVAHIK_clean_linker_0, # of connection points: 2
#     Edge 44, Type (0, 1), BuildingBlock: UVAHIK_clean_linker_0, # of connection points: 2
#     Edge 45, Type (0, 1), BuildingBlock: UVAHIK_clean_linker_0, # of connection points: 2
#     Edge 46, Type (0, 1), BuildingBlock: UVAHIK_clean_linker_0, # of connection points: 2
#     Edge 47, Type (0, 1), BuildingBlock: UVAHIK_clean_linker_0, # of connection points: 2
#     Edge 48, Type (0, 1), BuildingBlock: UVAHIK_clean_linker_0, # of connection points: 2
#     Edge 49, Type (0, 1), BuildingBlock: UVAHIK_clean_linker_0, # of connection points: 2
#     Edge 50, Type (0, 1), BuildingBlock: UVAHIK_clean_linker_0, # of connection points: 2
#     Edge 51, Type (0, 1), BuildingBlock: UVAHIK_clean_linker_0, # of connection points: 2
#     Edge 52, Type (0, 1), BuildingBlock: UVAHIK_clean_linker_0, # of connection points: 2
#     Edge 53, Type (0, 1), BuildingBlock: UVAHIK_clean_linker_0, # of connection points: 2
#     Edge 54, Type (0, 1), BuildingBlock: UVAHIK_clean_linker_0, # of connection points: 2
#     Edge 55, Type (0, 1), BuildingBlock: UVAHIK_clean_linker_0, # of connection points: 2
#     Edge 56, Type (0, 1), BuildingBlock: UVAHIK_clean_linker_0, # of connection points: 2
#     Edge 57, Type (0, 1), BuildingBlock: UVAHIK_clean_linker_0, # of connection points: 2
#     Edge 58, Type (0, 1), BuildingBlock: UVAHIK_clean_linker_0, # of connection points: 2
#     Edge 59, Type (0, 1), BuildingBlock: UVAHIK_clean_linker_0, # of connection points: 2
#     Edge 60, Type (0, 1), BuildingBlock: UVAHIK_clean_linker_0, # of connection points: 2
#     Edge 61, Type (0, 1), BuildingBlock: UVAHIK_clean_linker_0, # of connection points: 2
#     Edge 62, Type (0, 1), BuildingBlock: UVAHIK_clean_linker_0, # of connection points: 2
#     Edge 63, Type (0, 1), BuildingBlock: UVAHIK_clean_linker_0, # of connection points: 2
#     Edge 64, Type (0, 1), BuildingBlock: UVAHIK_clean_linker_0, # of connection points: 2
#     Edge 65, Type (0, 1), BuildingBlock: UVAHIK_clean_linker_0, # of connection points: 2
#     Edge 66, Type (0, 1), BuildingBlock: UVAHIK_clean_linker_0, # of connection points: 2
#     Edge 67, Type (0, 1), BuildingBlock: UVAHIK_clean_linker_0, # of connection points: 2
#     Edge 68, Type (0, 1), BuildingBlock: UVAHIK_clean_linker_0, # of connection points: 2
#     Edge 69, Type (0, 1), BuildingBlock: UVAHIK_clean_linker_0, # of connection points: 2
#     Edge 70, Type (0, 1), BuildingBlock: UVAHIK_clean_linker_0, # of connection points: 2
#     Edge 71, Type (0, 1), BuildingBlock: UVAHIK_clean_linker_0, # of connection points: 2
#     Edge 72, Type (0, 1), BuildingBlock: UVAHIK_clean_linker_0, # of connection points: 2
#     Edge 73, Type (0, 1), BuildingBlock: UVAHIK_clean_linker_0, # of connection points: 2
#     Edge 74, Type (0, 1), BuildingBlock: UVAHIK_clean_linker_0, # of connection points: 2
#     Edge 75, Type (0, 1), BuildingBlock: UVAHIK_clean_linker_0, # of connection points: 2
#     Edge 76, Type (0, 1), BuildingBlock: UVAHIK_clean_linker_0, # of connection points: 2
#     Edge 77, Type (0, 1), BuildingBlock: UVAHIK_clean_linker_0, # of connection points: 2
#     Edge 78, Type (0, 1), BuildingBlock: UVAHIK_clean_linker_0, # of connection points: 2
#     Edge 79, Type (0, 1), BuildingBlock: UVAHIK_clean_linker_0, # of connection points: 2
#     Edge 80, Type (0, 1), BuildingBlock: UVAHIK_clean_linker_0, # of connection points: 2
#     Edge 81, Type (0, 1), BuildingBlock: UVAHIK_clean_linker_0, # of connection points: 2
#     Edge 82, Type (0, 1), BuildingBlock: UVAHIK_clean_linker_0, # of connection points: 2
#     Edge 83, Type (0, 1), BuildingBlock: UVAHIK_clean_linker_0, # of connection points: 2
#     Edge 84, Type (0, 1), BuildingBlock: UVAHIK_clean_linker_0, # of connection points: 2
#     Edge 85, Type (0, 1), BuildingBlock: UVAHIK_clean_linker_0, # of connection points: 2
#     Edge 86, Type (0, 1), BuildingBlock: UVAHIK_clean_linker_0, # of connection points: 2
#     Edge 87, Type (0, 1), BuildingBlock: UVAHIK_clean_linker_0, # of connection points: 2
#     Edge 88, Type (0, 1), BuildingBlock: UVAHIK_clean_linker_0, # of connection points: 2
#     Edge 89, Type (0, 1), BuildingBlock: UVAHIK_clean_linker_0, # of connection points: 2
#     Edge 90, Type (0, 1), BuildingBlock: UVAHIK_clean_linker_0, # of connection points: 2
#     Edge 91, Type (0, 1), BuildingBlock: UVAHIK_clean_linker_0, # of connection points: 2
#     Edge 92, Type (0, 1), BuildingBlock: UVAHIK_clean_linker_0, # of connection points: 2
#     Edge 93, Type (0, 1), BuildingBlock: UVAHIK_clean_linker_0, # of connection points: 2
#     Edge 94, Type (0, 1), BuildingBlock: UVAHIK_clean_linker_0, # of connection points: 2
#     Edge 95, Type (0, 1), BuildingBlock: UVAHIK_clean_linker_0, # of connection points: 2
#     Edge 96, Type (0, 1), BuildingBlock: UVAHIK_clean_linker_0, # of connection points: 2
#     Edge 97, Type (0, 1), BuildingBlock: UVAHIK_clean_linker_0, # of connection points: 2
#     Edge 98, Type (0, 1), BuildingBlock: UVAHIK_clean_linker_0, # of connection points: 2
#     Edge 99, Type (0, 1), BuildingBlock: UVAHIK_clean_linker_0, # of connection points: 2
#     Edge 100, Type (0, 1), BuildingBlock: UVAHIK_clean_linker_0, # of connection points: 2
#     Edge 101, Type (0, 1), BuildingBlock: UVAHIK_clean_linker_0, # of connection points: 2
#     Edge 102, Type (0, 1), BuildingBlock: UVAHIK_clean_linker_0, # of connection points: 2
#     Edge 103, Type (0, 1), BuildingBlock: UVAHIK_clean_linker_0, # of connection points: 2
#     Edge 104, Type (0, 1), BuildingBlock: UVAHIK_clean_linker_0, # of connection points: 2
#     Edge 105, Type (0, 1), BuildingBlock: UVAHIK_clean_linker_0, # of connection points: 2
#     Edge 106, Type (0, 1), BuildingBlock: UVAHIK_clean_linker_0, # of connection points: 2
#     Edge 107, Type (0, 1), BuildingBlock: UVAHIK_clean_linker_0, # of connection points: 2
# Relax obj value: 0.026
# Max RMSD: 0.103
# Mean RMSD: 0.052
data_MOF--net-ptr--node1-GALJAG_clean_sbu_0--node2-NAHDIM_clean_linker_0--edge1-UVAHIK_clean_linker_0
_symmetry_space_group_name_H-M    P1
_symmetry_Int_Tables_number       1
_symmetry_cell_setting            triclinic
loop_
_symmetry_equiv_pos_as_xyz
'x, y, z'
_cell_length_a     112.18423
_cell_length_b     111.78418
_cell_length_c     102.01037
_cell_angle_alpha  90.706396
_cell_angle_beta   90.376137
_cell_angle_gamma 120.03228
loop_
_atom_site_label
_atom_site_type_symbol
_atom_site_fract_x
_atom_site_fract_y
_atom_site_fract_z
_atom_type_partial_charge
In0 In 0.99757 0.34387 0.00708 0.0
O1 O 0.98376 0.34564 0.02248 0.0
O2 O 0.00515 0.36061 0.02281 0.0
C3 C 0.98123 0.3188 0.99592 0.0
C4 C 0.01706 0.33943 0.01755 0.0
C5 C 0.99918 0.3609 0.9878 0.0
O6 O 0.97742 0.3231 0.00564 0.0
O7 O 0.99315 0.32712 0.99195 0.0
O8 O 0.00934 0.35963 0.99116 0.0
O9 O 0.98841 0.35373 0.99423 0.0
C10 C 0.99354 0.35626 0.02796 0.0
O11 O 0.01944 0.34733 0.00795 0.0
O12 O 0.0049 0.33377 0.02172 0.0
In13 In 0.64976 0.64685 0.01145 0.0
O14 O 0.64619 0.62693 0.02112 0.0
O15 O 0.64376 0.64133 0.0328 0.0
C16 C 0.67349 0.65121 0.00054 0.0
C17 C 0.65332 0.67139 0.01993 0.0
C18 C 0.62938 0.63633 0.99307 0.0
O19 O 0.66226 0.64602 0.99423 0.0
O20 O 0.67275 0.65398 0.01242 0.0
O21 O 0.63777 0.64911 0.99431 0.0
O22 O 0.63112 0.62894 0.00123 0.0
C23 C 0.64321 0.62982 0.03216 0.0
O24 O 0.66293 0.66999 0.01524 0.0
O25 O 0.64174 0.66042 0.02011 0.0
In26 In 0.3511 0.00168 0.00597 0.0
O27 O 0.35375 0.02321 0.00331 0.0
O28 O 0.3391 0.00654 0.99124 0.0
C29 C 0.36753 0.00413 0.02633 0.0
C30 C 0.36518 0.99902 0.98603 0.0
C31 C 0.32709 0.9846 0.01751 0.0
O32 O 0.36541 0.01385 0.02323 0.0
O33 O 0.36151 0.99345 0.01909 0.0
O34 O 0.33202 0.98032 0.00869 0.0
O35 O 0.33419 0.99733 0.02024 0.0
C36 C 0.3448 0.01924 0.99419 0.0
O37 O 0.35313 0.98952 0.9887 0.0
O38 O 0.36996 0.00955 0.99349 0.0
In39 In 0.9994 0.65169 0.01234 0.0
O40 O 0.01395 0.65048 0.99747 0.0
O41 O 0.99336 0.63367 0.99819 0.0
C42 C 0.01596 0.67544 0.02563 0.0
C43 C 0.98345 0.65906 0.99871 0.0
C44 C 0.99291 0.63369 0.03202 0.0
O45 O 0.02055 0.67063 0.01701 0.0
O46 O 0.00321 0.66821 0.02755 0.0
O47 O 0.98455 0.63716 0.02755 0.0
O48 O 0.00446 0.63924 0.02651 0.0
C49 C 0.00499 0.63881 0.99288 0.0
O50 O 0.97853 0.64964 0.00712 0.0
O51 O 0.99626 0.6646 0.9972 0.0
In52 In 0.35478 0.35682 0.00256 0.0
O53 O 0.3534 0.37255 0.98949 0.0
O54 O 0.37163 0.37124 0.98869 0.0
C55 C 0.3317 0.34854 0.0166 0.0
C56 C 0.34711 0.33377 0.98782 0.0
C57 C 0.37408 0.36725 0.02188 0.0
O58 O 0.33654 0.35898 0.00936 0.0
O59 O 0.33852 0.34236 0.01676 0.0
O60 O 0.37321 0.35825 0.01372 0.0
O61 O 0.36535 0.37109 0.02017 0.0
C62 C 0.36508 0.3769 0.98448 0.0
O63 O 0.35571 0.33734 0.99717 0.0
O64 O 0.34258 0.34189 0.98584 0.0
In65 In 0.64907 0.00021 0.00598 0.0
O66 O 0.64728 0.01536 0.02003 0.0
O67 O 0.63222 0.99401 0.02096 0.0
C68 C 0.67339 0.0165 0.99442 0.0
C69 C 0.65619 0.9835 0.01833 0.0
C70 C 0.63083 0.9947 0.98626 0.0
O71 O 0.66887 0.02099 0.0034 0.0
O72 O 0.66563 0.00393 0.99134 0.0
O73 O 0.63134 0.98523 0.99243 0.0
O74 O 0.63944 0.0068 0.99009 0.0
C75 C 0.63659 0.00609 0.02546 0.0
O76 O 0.64913 0.97983 0.00782 0.0
O77 O 0.65953 0.99545 0.02252 0.0
In78 In 0.66168 0.67738 0.33923 0.0
O79 O 0.64526 0.68111 0.34869 0.0
O80 O 0.66473 0.68937 0.35827 0.0
C81 C 0.64471 0.65199 0.32884 0.0
C82 C 0.6803 0.67187 0.35016 0.0
C83 C 0.66954 0.6968 0.32053 0.0
O84 O 0.64083 0.65724 0.33768 0.0
O85 O 0.65702 0.65949 0.3254 0.0
O86 O 0.67684 0.69842 0.33056 0.0
O87 O 0.65834 0.68552 0.31999 0.0
C88 C 0.65284 0.6879 0.35835 0.0
O89 O 0.68214 0.67757 0.33916 0.0
O90 O 0.6691 0.66892 0.35557 0.0
In91 In 0.31355 0.98116 0.34717 0.0
O92 O 0.314 0.96623 0.362 0.0
O93 O 0.29749 0.97034 0.36296 0.0
C94 C 0.33485 0.98292 0.33356 0.0
C95 C 0.32281 0.00581 0.35967 0.0
C96 C 0.29437 0.9708 0.3277 0.0
O97 O 0.3297 0.97502 0.34318 0.0
O98 O 0.32935 0.9901 0.33089 0.0
O99 O 0.30035 0.98337 0.33118 0.0
O100 O 0.29792 0.96352 0.33416 0.0
C101 C 0.30312 0.96396 0.36765 0.0
O102 O 0.31051 0.99849 0.35573 0.0
O103 O 0.33044 0.00084 0.35711 0.0
In104 In 0.02038 0.33094 0.3392 0.0
O105 O 0.02105 0.35162 0.33806 0.0
O106 O 0.01525 0.33904 0.3208 0.0
C107 C 0.03812 0.3384 0.35979 0.0
C108 C 0.03171 0.32214 0.32095 0.0
C109 C 0.99537 0.3145 0.34968 0.0
O110 O 0.03835 0.34697 0.35172 0.0
O111 O 0.02893 0.32603 0.35749 0.0
O112 O 0.00228 0.30968 0.34444 0.0
O113 O 0.001 0.32747 0.34946 0.0
C114 C 0.01749 0.35023 0.32613 0.0
O115 O 0.01891 0.31588 0.32297 0.0
O116 O 0.03869 0.33262 0.32823 0.0
In117 In 0.66588 0.97332 0.34435 0.0
O118 O 0.68356 0.97207 0.33453 0.0
O119 O 0.66338 0.95938 0.32681 0.0
C120 C 0.68096 0.99826 0.35635 0.0
C121 C 0.64846 0.97908 0.33119 0.0
C122 C 0.65755 0.95422 0.36341 0.0
O123 O 0.68594 0.99372 0.34788 0.0
O124 O 0.66844 0.99019 0.35881 0.0
O125 O 0.66965 0.96432 0.3629 0.0
O126 O 0.64969 0.95365 0.35425 0.0
C127 C 0.67599 0.96323 0.32597 0.0
O128 O 0.64474 0.97106 0.34081 0.0
O129 O 0.66096 0.9842 0.32822 0.0
In130 In 0.02259 0.69467 0.34036 0.0
O131 O 0.01915 0.70757 0.3251 0.0
O132 O 0.03953 0.71158 0.32819 0.0
C133 C 0.9986 0.68432 0.3533 0.0
C134 C 0.02007 0.6732 0.3257 0.0
C135 C 0.0403 0.70575 0.36088 0.0
O136 O 0.0035 0.69535 0.34691 0.0
O137 O 0.00579 0.67854 0.35314 0.0
O138 O 0.03967 0.69619 0.35368 0.0
O139 O 0.03204 0.70982 0.35769 0.0
C140 C 0.03162 0.71447 0.32192 0.0
O141 O 0.02945 0.67937 0.33426 0.0
O142 O 0.01187 0.67777 0.32461 0.0
In143 In 0.31112 0.3332 0.34717 0.0
O144 O 0.30742 0.31197 0.3534 0.0
O145 O 0.32507 0.32976 0.36108 0.0
C146 C 0.29222 0.32458 0.32756 0.0
C147 C 0.30052 0.34246 0.36576 0.0
C148 C 0.3342 0.34917 0.33353 0.0
O149 O 0.29661 0.31708 0.33225 0.0
O150 O 0.29718 0.33639 0.33294 0.0
O151 O 0.33166 0.35316 0.34424 0.0
O152 O 0.32511 0.33726 0.32973 0.0
C153 C 0.31807 0.31677 0.3606 0.0
O154 O 0.31115 0.35042 0.35943 0.0
O155 O 0.29514 0.32984 0.36263 0.0
In156 In 0.32808 0.01917 0.67255 0.0
O157 O 0.34514 0.02658 0.68804 0.0
O158 O 0.34428 0.01248 0.67341 0.0
C159 C 0.33642 0.03579 0.65152 0.0
C160 C 0.31748 0.02831 0.69128 0.0
C161 C 0.30944 0.99368 0.66331 0.0
O162 O 0.34419 0.03239 0.65737 0.0
O163 O 0.32457 0.03083 0.65626 0.0
O164 O 0.31724 0.99552 0.67302 0.0
O165 O 0.31079 0.00463 0.65857 0.0
C166 C 0.35025 0.0196 0.68357 0.0
O167 O 0.31321 0.01561 0.6894 0.0
O168 O 0.32685 0.03619 0.68367 0.0
In169 In 0.98102 0.31255 0.67583 0.0
O170 O 0.97976 0.3323 0.6754 0.0
O171 O 0.98599 0.32723 0.69328 0.0
C172 C 0.96284 0.30218 0.6555 0.0
C173 C 0.97059 0.29433 0.69552 0.0
C174 C 0.00591 0.31907 0.66577 0.0
O175 O 0.96761 0.31436 0.65982 0.0
O176 O 0.96717 0.29526 0.66146 0.0
O177 O 0.00391 0.32756 0.67221 0.0
O178 O 0.99545 0.30725 0.66453 0.0
C179 C 0.98348 0.33556 0.68725 0.0
O180 O 0.98256 0.29863 0.69121 0.0
O181 O 0.96394 0.29917 0.68987 0.0
In182 In 0.68418 0.66749 0.67158 0.0
O183 O 0.68298 0.68727 0.67059 0.0
O184 O 0.67525 0.67335 0.65426 0.0
C185 C 0.70325 0.67476 0.69097 0.0
C186 C 0.6959 0.66044 0.65223 0.0
C187 C 0.66033 0.65055 0.68373 0.0
O188 O 0.70226 0.68355 0.68411 0.0
O189 O 0.69472 0.66236 0.68798 0.0
O190 O 0.6656 0.64606 0.67553 0.0
O191 O 0.66698 0.66344 0.68561 0.0
C192 C 0.6774 0.68461 0.65935 0.0
O193 O 0.68434 0.65194 0.65691 0.0
O194 O 0.7015 0.67239 0.65736 0.0
In195 In 0.33531 0.31505 0.67722 0.0
O196 O 0.35145 0.31261 0.66576 0.0
O197 O 0.33049 0.30031 0.65979 0.0
C198 C 0.35208 0.33825 0.69128 0.0
C199 C 0.32051 0.32374 0.66345 0.0
C200 C 0.32544 0.29541 0.69574 0.0
O201 O 0.35637 0.33396 0.68196 0.0
O202 O 0.33943 0.33076 0.69358 0.0
O203 O 0.31846 0.30033 0.69092 0.0
O204 O 0.33737 0.30032 0.69116 0.0
C205 C 0.34285 0.30361 0.65784 0.0
O206 O 0.31496 0.31325 0.67061 0.0
O207 O 0.33348 0.32978 0.6632 0.0
In208 In 0.69183 0.02538 0.66974 0.0
O209 O 0.68822 0.03725 0.6536 0.0
O210 O 0.70853 0.04086 0.65634 0.0
C211 C 0.66949 0.02046 0.68368 0.0
C212 C 0.68664 0.00241 0.65594 0.0
C213 C 0.71033 0.03466 0.68978 0.0
O214 O 0.67603 0.03112 0.67687 0.0
O215 O 0.67419 0.01231 0.68341 0.0
O216 O 0.70465 0.0224 0.68541 0.0
O217 O 0.70679 0.04232 0.68397 0.0
C218 C 0.70057 0.04361 0.64995 0.0
O219 O 0.69809 0.01027 0.66147 0.0
O220 O 0.67779 0.00612 0.65736 0.0
In221 In 0.97314 0.66814 0.67356 0.0
O222 O 0.96909 0.64682 0.6793 0.0
O223 O 0.9863 0.66425 0.68819 0.0
C224 C 0.95383 0.65917 0.6542 0.0
C225 C 0.96284 0.67727 0.69259 0.0
C226 C 0.99694 0.68366 0.66071 0.0
O227 O 0.95786 0.6516 0.65937 0.0
O228 O 0.95944 0.67131 0.65888 0.0
O229 O 0.99326 0.6884 0.67015 0.0
O230 O 0.98862 0.6712 0.65775 0.0
C231 C 0.97922 0.65125 0.68714 0.0
O232 O 0.97184 0.68533 0.68473 0.0
O233 O 0.95893 0.66466 0.69073 0.0
C234 C 0.1916 0.27533 0.06958 0.0
C235 C 0.19971 0.28814 0.07839 0.0
C236 C 0.19281 0.2875 0.10083 0.0
C237 C 0.1969 0.30133 0.10359 0.0
C238 C 0.18971 0.30477 0.11268 0.0
C239 C 0.17802 0.29409 0.11888 0.0
C240 C 0.17416 0.2801 0.11638 0.0
C241 C 0.18184 0.27701 0.10756 0.0
C242 C 0.19432 0.31979 0.11529 0.0
C243 C 0.16157 0.2684 0.1225 0.0
C244 C 0.12642 0.31241 0.06982 0.0
C245 C 0.11426 0.30849 0.07895 0.0
C246 C 0.12594 0.31202 0.10012 0.0
C247 C 0.1222 0.29834 0.10299 0.0
C248 C 0.12999 0.29551 0.11192 0.0
C249 C 0.14181 0.30657 0.118 0.0
C250 C 0.14534 0.32037 0.11545 0.0
C251 C 0.13718 0.32289 0.10668 0.0
C252 C 0.12572 0.28067 0.11468 0.0
C253 C 0.15794 0.33242 0.12166 0.0
C254 C 0.12033 0.31008 0.20255 0.0
C255 C 0.11621 0.2966 0.19808 0.0
C256 C 0.12541 0.29374 0.19136 0.0
C257 C 0.139 0.30455 0.18916 0.0
C258 C 0.14328 0.31804 0.19396 0.0
C259 C 0.1339 0.32059 0.20071 0.0
C260 C 0.12063 0.27917 0.18663 0.0
C261 C 0.15772 0.32977 0.19184 0.0
C262 C 0.21249 0.26789 0.20525 0.0
C263 C 0.21068 0.28019 0.20887 0.0
C264 C 0.18963 0.28079 0.20376 0.0
C265 C 0.17588 0.27173 0.20034 0.0
C266 C 0.16814 0.27631 0.19338 0.0
C267 C 0.17427 0.29041 0.19005 0.0
C268 C 0.188 0.29979 0.19406 0.0
C269 C 0.19558 0.29486 0.20085 0.0
C270 C 0.15347 0.26604 0.18942 0.0
C271 C 0.19467 0.31496 0.19105 0.0
C272 C 0.16896 0.2975 0.12671 0.0
C273 C 0.16021 0.30076 0.11978 0.0
C274 C 0.151 0.30367 0.12624 0.0
C275 C 0.15044 0.30337 0.14007 0.0
C276 C 0.14119 0.30611 0.14689 0.0
C277 C 0.1407 0.30574 0.16051 0.0
C278 C 0.1493 0.30243 0.16783 0.0
C279 C 0.14868 0.30177 0.18166 0.0
C280 C 0.15716 0.29817 0.18862 0.0
C281 C 0.16634 0.29519 0.18214 0.0
C282 C 0.1673 0.29605 0.16832 0.0
C283 C 0.17655 0.29331 0.16148 0.0
C284 C 0.17731 0.29403 0.14787 0.0
C285 C 0.16862 0.29721 0.14056 0.0
C286 C 0.15929 0.30011 0.14725 0.0
C287 C 0.15868 0.2996 0.16115 0.0
C288 C 0.0957 0.31694 0.197 0.0
C289 C 0.09778 0.30788 0.2068 0.0
O290 O 0.19896 0.28408 0.09128 0.0
O291 O 0.19673 0.27557 0.20996 0.0
O292 O 0.11177 0.31328 0.20911 0.0
O293 O 0.11901 0.3151 0.09105 0.0
H294 H 0.19475 0.29459 0.07722 0.0
H295 H 0.18064 0.26973 0.07253 0.0
H296 H 0.19578 0.26821 0.07043 0.0
H297 H 0.19206 0.27836 0.05918 0.0
H298 H 0.20558 0.3094 0.09846 0.0
H299 H 0.17886 0.26636 0.10534 0.0
H300 H 0.18709 0.32239 0.11032 0.0
H301 H 0.20484 0.32675 0.11161 0.0
H302 H 0.19415 0.32178 0.12596 0.0
H303 H 0.15928 0.25813 0.11859 0.0
H304 H 0.15246 0.26961 0.12071 0.0
H305 H 0.16316 0.26862 0.13327 0.0
H306 H 0.10861 0.2971 0.08012 0.0
H307 H 0.1227 0.30728 0.06006 0.0
H308 H 0.13337 0.30898 0.074 0.0
H309 H 0.1324 0.32379 0.06856 0.0
H310 H 0.11319 0.28984 0.09837 0.0
H311 H 0.13987 0.33341 0.10451 0.0
H312 H 0.13333 0.27821 0.11039 0.0
H313 H 0.11539 0.2733 0.11049 0.0
H314 H 0.12561 0.2791 0.12542 0.0
H315 H 0.15955 0.34252 0.11827 0.0
H316 H 0.16721 0.33169 0.11931 0.0
H317 H 0.15694 0.33208 0.13248 0.0
H318 H 0.09296 0.29727 0.20253 0.0
H319 H 0.10597 0.28821 0.20002 0.0
H320 H 0.13705 0.3309 0.2044 0.0
H321 H 0.12149 0.27897 0.1758 0.0
H322 H 0.1098 0.27186 0.18931 0.0
H323 H 0.12736 0.27553 0.19089 0.0
H324 H 0.15943 0.33969 0.19616 0.0
H325 H 0.15978 0.33111 0.18117 0.0
H326 H 0.16525 0.32727 0.19628 0.0
H327 H 0.21521 0.2877 0.20077 0.0
H328 H 0.22357 0.27129 0.20407 0.0
H329 H 0.20705 0.26316 0.19581 0.0
H330 H 0.20814 0.25991 0.21294 0.0
H331 H 0.17133 0.26094 0.20284 0.0
H332 H 0.20607 0.30203 0.20395 0.0
H333 H 0.15206 0.26636 0.17867 0.0
H334 H 0.14639 0.26887 0.19431 0.0
H335 H 0.15049 0.2553 0.1921 0.0
H336 H 0.20503 0.32108 0.19574 0.0
H337 H 0.18805 0.31911 0.19447 0.0
H338 H 0.19575 0.31634 0.18029 0.0
H339 H 0.16045 0.30087 0.10914 0.0
H340 H 0.13424 0.30858 0.14176 0.0
H341 H 0.1334 0.30798 0.16523 0.0
H342 H 0.15646 0.29746 0.19922 0.0
H343 H 0.18336 0.29061 0.16657 0.0
H344 H 0.18469 0.29192 0.14313 0.0
H345 H 0.10035 0.32773 0.20083 0.0
H346 H 0.08455 0.3128 0.19503 0.0
H347 H 0.10068 0.31705 0.18758 0.0
C348 C 0.73181 0.92893 0.09342 0.0
C349 C 0.71711 0.91738 0.09007 0.0
C350 C 0.70846 0.90123 0.10843 0.0
C351 C 0.69753 0.89498 0.11712 0.0
C352 C 0.69554 0.88375 0.12468 0.0
C353 C 0.70516 0.87909 0.12396 0.0
C354 C 0.71636 0.88548 0.11527 0.0
C355 C 0.71777 0.89634 0.10744 0.0
C356 C 0.68312 0.87689 0.13339 0.0
C357 C 0.72688 0.88086 0.11422 0.0
C358 C 0.68721 0.80891 0.07751 0.0
C359 C 0.68995 0.79972 0.08662 0.0
C360 C 0.68689 0.80829 0.10771 0.0
C361 C 0.70071 0.81784 0.11084 0.0
C362 C 0.70414 0.82889 0.1196 0.0
C363 C 0.69354 0.83044 0.12534 0.0
C364 C 0.67961 0.82043 0.12277 0.0
C365 C 0.67646 0.80937 0.11407 0.0
C366 C 0.71912 0.83914 0.12245 0.0
C367 C 0.66808 0.82171 0.12887 0.0
C368 C 0.7033 0.8145 0.21036 0.0
C369 C 0.71519 0.82196 0.20284 0.0
C370 C 0.71719 0.83343 0.19564 0.0
C371 C 0.70697 0.83732 0.19571 0.0
C372 C 0.69508 0.82993 0.20339 0.0
C373 C 0.69349 0.8187 0.21071 0.0
C374 C 0.73019 0.84133 0.18786 0.0
C375 C 0.68397 0.83379 0.20372 0.0
C376 C 0.73738 0.94828 0.20414 0.0
C377 C 0.72746 0.93374 0.20897 0.0
C378 C 0.72933 0.9131 0.20493 0.0
C379 C 0.73878 0.90913 0.20105 0.0
C380 C 0.73435 0.89602 0.19543 0.0
C381 C 0.72008 0.88661 0.19385 0.0
C382 C 0.71044 0.89029 0.19843 0.0
C383 C 0.71516 0.9035 0.20396 0.0
C384 C 0.74489 0.89236 0.1908 0.0
C385 C 0.69516 0.88036 0.1972 0.0
C386 C 0.70343 0.86743 0.13215 0.0
C387 C 0.69874 0.85459 0.12599 0.0
C388 C 0.69713 0.84322 0.13298 0.0
C389 C 0.69978 0.84448 0.14664 0.0
C390 C 0.69786 0.83315 0.15405 0.0
C391 C 0.70059 0.83454 0.16749 0.0
C392 C 0.70555 0.84738 0.174 0.0
C393 C 0.70861 0.84898 0.18761 0.0
C394 C 0.71334 0.86185 0.19379 0.0
C395 C 0.71524 0.87328 0.18671 0.0
C396 C 0.71248 0.87195 0.17305 0.0
C397 C 0.71462 0.88333 0.16558 0.0
C398 C 0.71181 0.88192 0.15218 0.0
C399 C 0.70658 0.86903 0.14574 0.0
C400 C 0.70456 0.85746 0.15303 0.0
C401 C 0.70752 0.85893 0.16671 0.0
C402 C 0.70308 0.78697 0.20361 0.0
C403 C 0.70736 0.79552 0.21642 0.0
O404 O 0.7097 0.91204 0.10141 0.0
O405 O 0.73426 0.92626 0.20945 0.0
O406 O 0.70079 0.80321 0.21736 0.0
O407 O 0.68329 0.79816 0.09844 0.0
H408 H 0.71765 0.9091 0.08439 0.0
H409 H 0.73744 0.92483 0.09904 0.0
H410 H 0.73173 0.93723 0.09944 0.0
H411 H 0.73756 0.93347 0.08427 0.0
H412 H 0.69038 0.89881 0.11779 0.0
H413 H 0.72627 0.90104 0.10075 0.0
H414 H 0.67815 0.86546 0.13254 0.0
H415 H 0.67538 0.87996 0.13093 0.0
H416 H 0.68641 0.8799 0.14376 0.0
H417 H 0.7362 0.88841 0.10891 0.0
H418 H 0.72223 0.87082 0.10881 0.0
H419 H 0.73006 0.87933 0.12411 0.0
H420 H 0.70124 0.80466 0.08834 0.0
H421 H 0.6923 0.80997 0.06794 0.0
H422 H 0.69144 0.8194 0.08195 0.0
H423 H 0.67597 0.80445 0.07578 0.0
H424 H 0.70889 0.81677 0.10647 0.0
H425 H 0.66583 0.80183 0.11176 0.0
H426 H 0.72168 0.8494 0.11864 0.0
H427 H 0.72612 0.83597 0.11792 0.0
H428 H 0.72106 0.84034 0.13321 0.0
H429 H 0.6578 0.81263 0.12653 0.0
H430 H 0.66832 0.83116 0.12527 0.0
H431 H 0.66952 0.82282 0.13969 0.0
H432 H 0.71871 0.80252 0.2167 0.0
H433 H 0.72297 0.81897 0.20253 0.0
H434 H 0.6844 0.81294 0.21659 0.0
H435 H 0.72763 0.83959 0.17722 0.0
H436 H 0.73785 0.83809 0.19009 0.0
H437 H 0.73495 0.85259 0.18993 0.0
H438 H 0.67489 0.82637 0.20938 0.0
H439 H 0.68056 0.83422 0.19358 0.0
H440 H 0.68818 0.84424 0.20826 0.0
H441 H 0.71888 0.92908 0.2016 0.0
H442 H 0.73218 0.95452 0.20383 0.0
H443 H 0.74078 0.94765 0.19408 0.0
H444 H 0.74664 0.95361 0.21063 0.0
H445 H 0.74968 0.91653 0.20204 0.0
H446 H 0.70776 0.90628 0.20744 0.0
H447 H 0.74371 0.89035 0.18005 0.0
H448 H 0.74314 0.88274 0.19554 0.0
H449 H 0.75561 0.90071 0.193 0.0
H450 H 0.68901 0.8844 0.20204 0.0
H451 H 0.69257 0.87032 0.20161 0.0
H452 H 0.69213 0.87835 0.18667 0.0
H453 H 0.69658 0.8535 0.11552 0.0
H454 H 0.69414 0.82305 0.14954 0.0
H455 H 0.69881 0.82543 0.1727 0.0
H456 H 0.71558 0.86298 0.20424 0.0
H457 H 0.71855 0.8935 0.17 0.0
H458 H 0.71378 0.89108 0.14694 0.0
H459 H 0.69174 0.77992 0.20321 0.0
H460 H 0.70826 0.78074 0.20281 0.0
H461 H 0.70608 0.79385 0.19503 0.0
C462 C 0.19015 0.90444 0.07813 0.0
C463 C 0.20141 0.9076 0.08847 0.0
C464 C 0.18917 0.88793 0.10321 0.0
C465 C 0.18053 0.89232 0.10879 0.0
C466 C 0.16981 0.88369 0.1171 0.0
C467 C 0.16774 0.87044 0.11999 0.0
C468 C 0.17673 0.86621 0.11484 0.0
C469 C 0.18736 0.87504 0.10654 0.0
C470 C 0.16042 0.88855 0.12249 0.0
C471 C 0.17487 0.85219 0.11784 0.0
C472 C 0.08566 0.82151 0.06609 0.0
C473 C 0.09102 0.81489 0.07575 0.0
C474 C 0.09796 0.82256 0.09832 0.0
C475 C 0.10723 0.81777 0.10024 0.0
C476 C 0.11759 0.82376 0.10995 0.0
C477 C 0.11883 0.83494 0.11769 0.0
C478 C 0.10915 0.83946 0.11605 0.0
C479 C 0.09862 0.83294 0.10656 0.0
C480 C 0.12748 0.81843 0.1116 0.0
C481 C 0.11029 0.85157 0.12383 0.0
C482 C 0.09076 0.81807 0.20122 0.0
C483 C 0.0995 0.81269 0.19876 0.0
C484 C 0.1122 0.82072 0.19262 0.0
C485 C 0.11622 0.83437 0.18891 0.0
C486 C 0.10766 0.83996 0.19183 0.0
C487 C 0.09508 0.83175 0.19807 0.0
C488 C 0.12129 0.81461 0.18997 0.0
C489 C 0.1117 0.85454 0.18818 0.0
C490 C 0.21491 0.91941 0.20128 0.0
C491 C 0.20592 0.91395 0.21344 0.0
C492 C 0.18801 0.8906 0.20609 0.0
C493 C 0.1845 0.87671 0.20582 0.0
C494 C 0.17329 0.86684 0.19827 0.0
C495 C 0.16518 0.87095 0.19103 0.0
C496 C 0.16841 0.88493 0.19156 0.0
C497 C 0.17992 0.89465 0.19889 0.0
C498 C 0.1702 0.85206 0.19791 0.0
C499 C 0.15973 0.88965 0.18434 0.0
C500 C 0.15542 0.8606 0.12739 0.0
C501 C 0.14347 0.85202 0.12014 0.0
C502 C 0.13116 0.84296 0.12628 0.0
C503 C 0.13072 0.84235 0.14012 0.0
C504 C 0.11857 0.83329 0.14665 0.0
C505 C 0.11808 0.83331 0.16029 0.0
C506 C 0.12977 0.84228 0.16791 0.0
C507 C 0.12924 0.84276 0.18175 0.0
C508 C 0.14101 0.85195 0.189 0.0
C509 C 0.1534 0.86072 0.1828 0.0
C510 C 0.15418 0.86024 0.16898 0.0
C511 C 0.16655 0.86875 0.16244 0.0
C512 C 0.16703 0.86878 0.14881 0.0
C513 C 0.15519 0.86023 0.14122 0.0
C514 C 0.14275 0.85116 0.14761 0.0
C515 C 0.14226 0.85115 0.16152 0.0
C516 C 0.05545 0.79347 0.20054 0.0
C517 C 0.06953 0.79633 0.20554 0.0
O518 O 0.19912 0.89556 0.09444 0.0
O519 O 0.19921 0.89962 0.21341 0.0
O520 O 0.07821 0.81051 0.20674 0.0
O521 O 0.0885 0.81761 0.08841 0.0
H522 H 0.20141 0.91489 0.09599 0.0
H523 H 0.17992 0.90011 0.08277 0.0
H524 H 0.18961 0.89681 0.07072 0.0
H525 H 0.19229 0.91405 0.07309 0.0
H526 H 0.18187 0.90234 0.10655 0.0
H527 H 0.19413 0.87176 0.10231 0.0
H528 H 0.14974 0.88162 0.11883 0.0
H529 H 0.16364 0.8993 0.11965 0.0
H530 H 0.16027 0.88802 0.13335 0.0
H531 H 0.18336 0.85086 0.11394 0.0
H532 H 0.16499 0.84403 0.11345 0.0
H533 H 0.17431 0.85067 0.1286 0.0
H534 H 0.10233 0.81978 0.07417 0.0
H535 H 0.08772 0.81963 0.05585 0.0
H536 H 0.09098 0.83285 0.06793 0.0
H537 H 0.07441 0.81724 0.06722 0.0
H538 H 0.10645 0.80945 0.09405 0.0
H539 H 0.09129 0.83643 0.10505 0.0
H540 H 0.12941 0.81765 0.12216 0.0
H541 H 0.13748 0.8258 0.10715 0.0
H542 H 0.12359 0.80815 0.10677 0.0
H543 H 0.10297 0.8548 0.12023 0.0
H544 H 0.12091 0.86054 0.12335 0.0
H545 H 0.10807 0.84875 0.13427 0.0
H546 H 0.0734 0.7918 0.19807 0.0
H547 H 0.09649 0.80229 0.20171 0.0
H548 H 0.08837 0.83587 0.20022 0.0
H549 H 0.1225 0.81401 0.17923 0.0
H550 H 0.11703 0.80409 0.19403 0.0
H551 H 0.1317 0.82141 0.1943 0.0
H552 H 0.10376 0.85725 0.19089 0.0
H553 H 0.1134 0.85583 0.17745 0.0
H554 H 0.12155 0.86193 0.19319 0.0
H555 H 0.19828 0.9175 0.2135 0.0
H556 H 0.22033 0.93088 0.20123 0.0
H557 H 0.20844 0.91548 0.19224 0.0
H558 H 0.22266 0.91599 0.2011 0.0
H559 H 0.19076 0.87366 0.21141 0.0
H560 H 0.18239 0.90531 0.19893 0.0
H561 H 0.16942 0.84843 0.18759 0.0
H562 H 0.16011 0.84536 0.20254 0.0
H563 H 0.17819 0.85078 0.20314 0.0
H564 H 0.16214 0.90017 0.18754 0.0
H565 H 0.14861 0.88237 0.18588 0.0
H566 H 0.16166 0.88984 0.17367 0.0
H567 H 0.14368 0.85261 0.10952 0.0
H568 H 0.10926 0.8262 0.14127 0.0
H569 H 0.10837 0.82626 0.16477 0.0
H570 H 0.14042 0.8525 0.19958 0.0
H571 H 0.17596 0.87561 0.16778 0.0
H572 H 0.17676 0.87567 0.14429 0.0
H573 H 0.05094 0.79786 0.20743 0.0
H574 H 0.04829 0.78217 0.19939 0.0
H575 H 0.05655 0.79828 0.19083 0.0
C576 C 0.28849 0.10174 0.9367 0.0
C577 C 0.29643 0.09888 0.92608 0.0
C578 C 0.30363 0.11882 0.9117 0.0
C579 C 0.29051 0.11457 0.90627 0.0
C580 C 0.28837 0.12322 0.89791 0.0
C581 C 0.29957 0.13633 0.89483 0.0
C582 C 0.31286 0.14047 0.89991 0.0
C583 C 0.31471 0.13163 0.90827 0.0
C584 C 0.27407 0.11847 0.8926 0.0
C585 C 0.32503 0.15435 0.89671 0.0
C586 C 0.26833 0.18942 0.94504 0.0
C587 C 0.2804 0.19549 0.93559 0.0
C588 C 0.27934 0.18666 0.91351 0.0
C589 C 0.29327 0.19091 0.91172 0.0
C590 C 0.2972 0.18406 0.90261 0.0
C591 C 0.28694 0.17255 0.89539 0.0
C592 C 0.27288 0.1685 0.89696 0.0
C593 C 0.26931 0.17587 0.9058 0.0
C594 C 0.31229 0.18888 0.90101 0.0
C595 C 0.26157 0.15606 0.88974 0.0
C596 C 0.27405 0.18618 0.81153 0.0
C597 C 0.28816 0.1921 0.81446 0.0
C598 C 0.29324 0.18439 0.8207 0.0
C599 C 0.284 0.17055 0.82413 0.0
C600 C 0.26987 0.16443 0.82071 0.0
C601 C 0.26512 0.17231 0.81431 0.0
C602 C 0.30843 0.19106 0.82382 0.0
C603 C 0.25975 0.14964 0.82404 0.0
C604 C 0.31004 0.09168 0.81577 0.0
C605 C 0.30069 0.09319 0.80576 0.0
C606 C 0.30289 0.1159 0.81004 0.0
C607 C 0.31339 0.12961 0.81175 0.0
C608 C 0.31115 0.13923 0.81865 0.0
C609 C 0.29796 0.13503 0.82372 0.0
C610 C 0.28712 0.12129 0.82159 0.0
C611 C 0.28969 0.11185 0.81476 0.0
C612 C 0.32291 0.15381 0.82069 0.0
C613 C 0.27283 0.11659 0.82657 0.0
C614 C 0.29715 0.14604 0.88702 0.0
C615 C 0.29398 0.15497 0.89385 0.0
C616 C 0.29082 0.16394 0.88726 0.0
C617 C 0.29082 0.16406 0.8734 0.0
C618 C 0.2877 0.17293 0.86642 0.0
C619 C 0.28708 0.17248 0.85278 0.0
C620 C 0.28986 0.16336 0.84558 0.0
C621 C 0.28893 0.16257 0.83172 0.0
C622 C 0.29186 0.15344 0.82488 0.0
C623 C 0.29556 0.1449 0.83153 0.0
C624 C 0.29643 0.14544 0.84538 0.0
C625 C 0.30002 0.1369 0.85237 0.0
C626 C 0.30038 0.13715 0.86601 0.0
C627 C 0.29723 0.14601 0.87318 0.0
C628 C 0.29394 0.15497 0.86634 0.0
C629 C 0.29351 0.15466 0.85242 0.0
C630 C 0.2616 0.20975 0.8108 0.0
C631 C 0.27361 0.2075 0.80747 0.0
O632 O 0.30606 0.1111 0.92038 0.0
O633 O 0.30579 0.10711 0.80337 0.0
O634 O 0.26865 0.19344 0.80599 0.0
O635 O 0.27529 0.19256 0.92283 0.0
H636 H 0.28905 0.09181 0.91846 0.0
H637 H 0.28256 0.10625 0.93236 0.0
H638 H 0.29567 0.1091 0.94426 0.0
H639 H 0.28108 0.09196 0.9415 0.0
H640 H 0.28181 0.10464 0.90863 0.0
H641 H 0.32481 0.1348 0.9124 0.0
H642 H 0.27057 0.12566 0.89604 0.0
H643 H 0.26648 0.10786 0.8957 0.0
H644 H 0.27421 0.11868 0.88172 0.0
H645 H 0.33485 0.15569 0.90078 0.0
H646 H 0.32341 0.16268 0.90076 0.0
H647 H 0.32593 0.15557 0.88591 0.0
H648 H 0.28653 0.19034 0.93767 0.0
H649 H 0.27215 0.19147 0.95536 0.0
H650 H 0.26206 0.17806 0.94344 0.0
H651 H 0.26162 0.19397 0.94342 0.0
H652 H 0.30104 0.19952 0.91751 0.0
H653 H 0.25859 0.17278 0.90723 0.0
H654 H 0.31479 0.18911 0.89046 0.0
H655 H 0.31473 0.18151 0.90587 0.0
H656 H 0.31897 0.19931 0.90544 0.0
H657 H 0.25119 0.15327 0.89334 0.0
H658 H 0.26304 0.14701 0.89082 0.0
H659 H 0.26195 0.15827 0.87914 0.0
H660 H 0.28103 0.21184 0.81588 0.0
H661 H 0.29522 0.2027 0.81184 0.0
H662 H 0.2543 0.16779 0.81179 0.0
H663 H 0.31005 0.19202 0.83462 0.0
H664 H 0.31442 0.2015 0.81955 0.0
H665 H 0.31249 0.18446 0.82004 0.0
H666 H 0.24901 0.14661 0.82122 0.0
H667 H 0.26018 0.14811 0.83473 0.0
H668 H 0.26258 0.14264 0.81888 0.0
H669 H 0.29017 0.08835 0.80985 0.0
H670 H 0.30612 0.08059 0.81784 0.0
H671 H 0.31028 0.09702 0.82511 0.0
H672 H 0.32072 0.09632 0.81205 0.0
H673 H 0.32347 0.13269 0.80786 0.0
H674 H 0.28128 0.10147 0.81293 0.0
H675 H 0.32473 0.15627 0.83135 0.0
H676 H 0.32018 0.16119 0.81632 0.0
H677 H 0.3326 0.15541 0.81625 0.0
H678 H 0.26535 0.10576 0.82356 0.0
H679 H 0.26911 0.12345 0.82283 0.0
H680 H 0.27311 0.11737 0.83744 0.0
H681 H 0.29372 0.15475 0.90448 0.0
H682 H 0.2855 0.18018 0.87144 0.0
H683 H 0.28436 0.17938 0.84795 0.0
H684 H 0.29098 0.15279 0.81427 0.0
H685 H 0.30247 0.12981 0.84738 0.0
H686 H 0.30308 0.13026 0.87088 0.0
H687 H 0.25365 0.20554 0.80285 0.0
H688 H 0.26529 0.22095 0.81222 0.0
H689 H 0.25678 0.20441 0.82004 0.0
C690 C 0.81687 0.09242 0.94776 0.0
C691 C 0.80813 0.0958 0.93863 0.0
C692 C 0.81497 0.10143 0.91601 0.0
C693 C 0.81089 0.11118 0.9136 0.0
C694 C 0.81728 0.1211 0.90387 0.0
C695 C 0.82812 0.12137 0.89659 0.0
C696 C 0.83196 0.11125 0.89879 0.0
C697 C 0.82507 0.10119 0.90829 0.0
C698 C 0.81269 0.13151 0.90163 0.0
C699 C 0.8437 0.11135 0.89153 0.0
C700 C 0.91539 0.21734 0.92828 0.0
C701 C 0.90852 0.20612 0.91821 0.0
C702 C 0.8862 0.19246 0.90717 0.0
C703 C 0.88899 0.18228 0.90235 0.0
C704 C 0.87893 0.1707 0.89535 0.0
C705 C 0.86585 0.16931 0.89299 0.0
C706 C 0.86305 0.1796 0.89766 0.0
C707 C 0.87329 0.19106 0.90471 0.0
C708 C 0.88223 0.15985 0.89058 0.0
C709 C 0.84921 0.17841 0.89528 0.0
C710 C 0.88598 0.18298 0.80827 0.0
C711 C 0.88876 0.17377 0.81511 0.0
C712 C 0.87843 0.16288 0.82219 0.0
C713 C 0.86507 0.16122 0.82258 0.0
C714 C 0.86216 0.17028 0.81551 0.0
C715 C 0.87265 0.18099 0.80838 0.0
C716 C 0.88185 0.15327 0.82946 0.0
C717 C 0.84804 0.1688 0.81572 0.0
C718 C 0.78364 0.05064 0.81361 0.0
C719 C 0.7879 0.0655 0.81009 0.0
C720 C 0.81002 0.08643 0.81489 0.0
C721 C 0.8236 0.09075 0.8186 0.0
C722 C 0.83211 0.10391 0.82417 0.0
C723 C 0.82693 0.11305 0.82583 0.0
C724 C 0.81338 0.10899 0.82155 0.0
C725 C 0.80503 0.09568 0.81612 0.0
C726 C 0.84656 0.10796 0.82847 0.0
C727 C 0.8077 0.11864 0.82289 0.0
C728 C 0.83636 0.13304 0.88771 0.0
C729 C 0.84602 0.14563 0.89355 0.0
C730 C 0.85501 0.15682 0.886 0.0
C731 C 0.85437 0.15557 0.87218 0.0
C732 C 0.86332 0.16663 0.86431 0.0
C733 C 0.86316 0.16505 0.85076 0.0
C734 C 0.85405 0.15234 0.84456 0.0
C735 C 0.85438 0.15039 0.83087 0.0
C736 C 0.84512 0.13765 0.825 0.0
C737 C 0.83558 0.12666 0.83249 0.0
C738 C 0.83516 0.12837 0.84622 0.0
C739 C 0.82581 0.11749 0.85408 0.0
C740 C 0.82592 0.1191 0.86765 0.0
C741 C 0.83552 0.13157 0.87389 0.0
C742 C 0.8447 0.14283 0.86611 0.0
C743 C 0.84453 0.14123 0.85227 0.0
C744 C 0.91643 0.20659 0.81454 0.0
C745 C 0.90984 0.19894 0.80158 0.0
O746 O 0.80949 0.09229 0.92587 0.0
O747 O 0.80215 0.07329 0.81019 0.0
O748 O 0.89575 0.19393 0.80159 0.0
O749 O 0.89559 0.20362 0.91433 0.0
H750 H 0.81215 0.10713 0.93964 0.0
H751 H 0.82784 0.09838 0.94488 0.0
H752 H 0.81346 0.08122 0.94717 0.0
H753 H 0.81607 0.09526 0.95806 0.0
H754 H 0.80277 0.11106 0.9194 0.0
H755 H 0.82801 0.09349 0.9102 0.0
H756 H 0.82055 0.14169 0.90581 0.0
H757 H 0.80268 0.12845 0.90632 0.0
H758 H 0.81174 0.13281 0.89096 0.0
H759 H 0.84661 0.10402 0.89571 0.0
H760 H 0.8529 0.12188 0.89179 0.0
H761 H 0.84067 0.10839 0.88111 0.0
H762 H 0.91509 0.2068 0.90976 0.0
H763 H 0.91676 0.20707 0.94477 0.0
H764 H 0.90968 0.22325 0.92831 0.0
H765 H 0.92474 0.2257 0.92332 0.0
H766 H 0.89895 0.18323 0.90409 0.0
H767 H 0.87123 0.19896 0.90844 0.0
H768 H 0.87457 0.14959 0.89439 0.0
H769 H 0.89269 0.16217 0.8937 0.0
H770 H 0.88155 0.15911 0.87972 0.0
H771 H 0.8489 0.18765 0.89892 0.0
H772 H 0.84113 0.16916 0.90029 0.0
H773 H 0.84668 0.17698 0.88463 0.0
H774 H 0.91185 0.19023 0.8002 0.0
H775 H 0.89896 0.17503 0.81508 0.0
H776 H 0.87057 0.18809 0.80304 0.0
H777 H 0.88153 0.15489 0.84018 0.0
H778 H 0.89223 0.15499 0.82704 0.0
H779 H 0.87409 0.14235 0.82711 0.0
H780 H 0.84748 0.17683 0.80987 0.0
H781 H 0.84521 0.16955 0.82599 0.0
H782 H 0.8403 0.15845 0.81177 0.0
H783 H 0.78361 0.06936 0.8178 0.0
H784 H 0.77223 0.04416 0.81382 0.0
H785 H 0.7878 0.05048 0.82348 0.0
H786 H 0.7877 0.0461 0.80638 0.0
H787 H 0.8274 0.0836 0.81741 0.0
H788 H 0.79468 0.09259 0.81282 0.0
H789 H 0.84809 0.11097 0.83902 0.0
H790 H 0.85406 0.11707 0.82289 0.0
H791 H 0.84886 0.09947 0.82692 0.0
H792 H 0.7973 0.11428 0.81833 0.0
H793 H 0.81476 0.12865 0.81825 0.0
H794 H 0.80707 0.12079 0.83344 0.0
H795 H 0.84686 0.14659 0.90416 0.0
H796 H 0.87068 0.17659 0.86856 0.0
H797 H 0.8704 0.17388 0.84521 0.0
H798 H 0.84562 0.13615 0.81454 0.0
H799 H 0.81836 0.10756 0.84985 0.0
H800 H 0.81853 0.11037 0.87322 0.0
H801 H 0.92774 0.21076 0.81445 0.0
H802 H 0.91218 0.19948 0.82291 0.0
H803 H 0.91441 0.21527 0.81613 0.0
C804 C 0.81125 0.69855 0.94149 0.0
C805 C 0.8012 0.69993 0.93219 0.0
C806 C 0.80999 0.69599 0.91165 0.0
C807 C 0.82062 0.7096 0.90963 0.0
C808 C 0.83147 0.71232 0.90117 0.0
C809 C 0.8318 0.70119 0.89476 0.0
C810 C 0.82085 0.68752 0.8964 0.0
C811 C 0.80994 0.68514 0.90467 0.0
C812 C 0.8428 0.72706 0.8994 0.0
C813 C 0.82094 0.6754 0.88985 0.0
C814 C 0.90883 0.727 0.94898 0.0
C815 C 0.90555 0.71506 0.93943 0.0
C816 C 0.89994 0.71721 0.91692 0.0
C817 C 0.89011 0.70352 0.91364 0.0
C818 C 0.88008 0.7006 0.9039 0.0
C819 C 0.87978 0.71163 0.89751 0.0
C820 C 0.89001 0.72545 0.90055 0.0
C821 C 0.90017 0.72803 0.91005 0.0
C822 C 0.86956 0.68574 0.90073 0.0
C823 C 0.8899 0.73753 0.89422 0.0
C824 C 0.91132 0.7267 0.81614 0.0
C825 C 0.90128 0.71262 0.81667 0.0
C826 C 0.88829 0.70846 0.822 0.0
C827 C 0.88528 0.71857 0.82679 0.0
C828 C 0.89512 0.73276 0.82564 0.0
C829 C 0.908 0.73663 0.82024 0.0
C830 C 0.87788 0.69326 0.82279 0.0
C831 C 0.89216 0.74382 0.83044 0.0
C832 C 0.79082 0.71307 0.81253 0.0
C833 C 0.79863 0.71303 0.80028 0.0
C834 C 0.81465 0.70584 0.8089 0.0
C835 C 0.81697 0.69471 0.80988 0.0
C836 C 0.82801 0.69577 0.81737 0.0
C837 C 0.83704 0.70837 0.82394 0.0
C838 C 0.83497 0.7198 0.82278 0.0
C839 C 0.82375 0.71841 0.81535 0.0
C840 C 0.82992 0.68338 0.8184 0.0
C841 C 0.84454 0.73346 0.82952 0.0
C842 C 0.84423 0.7038 0.88742 0.0
C843 C 0.85563 0.70573 0.89476 0.0
C844 C 0.86797 0.70878 0.88878 0.0
C845 C 0.86897 0.70973 0.87498 0.0
C846 C 0.88113 0.71251 0.86859 0.0
C847 C 0.88218 0.71396 0.85505 0.0
C848 C 0.87107 0.71254 0.84736 0.0
C849 C 0.87217 0.71436 0.83363 0.0
C850 C 0.86089 0.71278 0.82628 0.0
C851 C 0.84848 0.70951 0.83229 0.0
C852 C 0.84721 0.70777 0.84602 0.0
C853 C 0.83492 0.70462 0.8524 0.0
C854 C 0.83391 0.70332 0.86596 0.0
C855 C 0.84508 0.70493 0.87364 0.0
C856 C 0.85752 0.70792 0.8674 0.0
C857 C 0.85858 0.70934 0.85358 0.0
C858 C 0.94571 0.73316 0.81782 0.0
C859 C 0.93125 0.72382 0.81208 0.0
O860 O 0.79985 0.6929 0.92046 0.0
O861 O 0.80353 0.70391 0.80173 0.0
O862 O 0.92427 0.73113 0.81181 0.0
O863 O 0.90912 0.72022 0.92688 0.0
H864 H 0.80513 0.71105 0.93027 0.0
H865 H 0.82164 0.70322 0.93712 0.0
H866 H 0.80758 0.68748 0.94341 0.0
H867 H 0.81227 0.70402 0.95096 0.0
H868 H 0.82059 0.71815 0.91467 0.0
H869 H 0.80163 0.67469 0.9062 0.0
H870 H 0.85228 0.72872 0.90453 0.0
H871 H 0.84003 0.73462 0.90342 0.0
H872 H 0.8452 0.72915 0.88885 0.0
H873 H 0.81183 0.66537 0.89241 0.0
H874 H 0.83042 0.67523 0.89277 0.0
H875 H 0.82111 0.67649 0.87904 0.0
H876 H 0.89425 0.7077 0.93997 0.0
H877 H 0.90594 0.72312 0.9591 0.0
H878 H 0.90287 0.73208 0.94613 0.0
H879 H 0.91998 0.73484 0.94886 0.0
H880 H 0.89023 0.69517 0.9188 0.0
H881 H 0.90793 0.73855 0.91262 0.0
H882 H 0.8681 0.68405 0.88995 0.0
H883 H 0.85951 0.68331 0.90494 0.0
H884 H 0.87259 0.67845 0.9048 0.0
H885 H 0.89769 0.74759 0.89868 0.0
H886 H 0.87957 0.73652 0.89509 0.0
H887 H 0.89209 0.73762 0.88362 0.0
H888 H 0.92618 0.71492 0.8188 0.0
H889 H 0.90354 0.70486 0.81297 0.0
H890 H 0.91572 0.74746 0.81957 0.0
H891 H 0.87562 0.69035 0.83323 0.0
H892 H 0.88155 0.68668 0.81811 0.0
H893 H 0.86808 0.69107 0.81795 0.0
H894 H 0.90072 0.75439 0.82842 0.0
H895 H 0.89041 0.74287 0.84117 0.0
H896 H 0.88261 0.7424 0.82566 0.0
H897 H 0.80739 0.72363 0.79869 0.0
H898 H 0.78675 0.72024 0.8113 0.0
H899 H 0.79776 0.71657 0.82127 0.0
H900 H 0.7821 0.70252 0.81437 0.0
H901 H 0.80994 0.68508 0.80486 0.0
H902 H 0.8222 0.72718 0.81473 0.0
H903 H 0.82989 0.68074 0.82886 0.0
H904 H 0.84008 0.68591 0.81437 0.0
H905 H 0.82175 0.67419 0.81302 0.0
H906 H 0.84224 0.74168 0.82677 0.0
H907 H 0.85538 0.73686 0.827 0.0
H908 H 0.84362 0.73221 0.84031 0.0
H909 H 0.85497 0.70512 0.90537 0.0
H910 H 0.89 0.71371 0.87401 0.0
H911 H 0.89186 0.71626 0.85069 0.0
H912 H 0.86185 0.7143 0.81577 0.0
H913 H 0.82597 0.70324 0.847 0.0
H914 H 0.82426 0.70105 0.87036 0.0
H915 H 0.95157 0.72756 0.81801 0.0
H916 H 0.94497 0.73627 0.82803 0.0
H917 H 0.95145 0.74266 0.81197 0.0
C918 C 0.85523 0.61192 0.39868 0.0
C919 C 0.86348 0.62358 0.40865 0.0
C920 C 0.85518 0.62141 0.43081 0.0
C921 C 0.85978 0.63521 0.43434 0.0
C922 C 0.8528 0.63854 0.44378 0.0
C923 C 0.84082 0.62781 0.44957 0.0
C924 C 0.8364 0.61384 0.44624 0.0
C925 C 0.84387 0.61083 0.43709 0.0
C926 C 0.85802 0.65352 0.44728 0.0
C927 C 0.82349 0.6021 0.45189 0.0
C928 C 0.79975 0.66758 0.40837 0.0
C929 C 0.78635 0.65555 0.41353 0.0
C930 C 0.79245 0.65208 0.4353 0.0
C931 C 0.78811 0.63799 0.4359 0.0
C932 C 0.79501 0.63332 0.44405 0.0
C933 C 0.80662 0.64302 0.45153 0.0
C934 C 0.81082 0.65725 0.4511 0.0
C935 C 0.80348 0.66157 0.44314 0.0
C936 C 0.79007 0.61805 0.44445 0.0
C937 C 0.8233 0.66793 0.4587 0.0
C938 C 0.78035 0.6338 0.53638 0.0
C939 C 0.77665 0.62166 0.52904 0.0
C940 C 0.7865 0.62025 0.52182 0.0
C941 C 0.80029 0.63125 0.52176 0.0
C942 C 0.80408 0.64343 0.52919 0.0
C943 C 0.79406 0.64449 0.53646 0.0
C944 C 0.78214 0.607 0.51419 0.0
C945 C 0.81869 0.65536 0.52932 0.0
C946 C 0.87602 0.59517 0.53386 0.0
C947 C 0.87284 0.6068 0.53634 0.0
C948 C 0.85156 0.60705 0.53143 0.0
C949 C 0.83781 0.59834 0.52775 0.0
C950 C 0.83006 0.60359 0.52193 0.0
C951 C 0.83618 0.61799 0.52003 0.0
C952 C 0.8499 0.62696 0.52435 0.0
C953 C 0.85749 0.62139 0.52996 0.0
C954 C 0.81541 0.59372 0.51757 0.0
C955 C 0.85658 0.64239 0.52283 0.0
C956 C 0.83219 0.63124 0.45806 0.0
C957 C 0.82396 0.63567 0.45188 0.0
C958 C 0.81495 0.63839 0.45898 0.0
C959 C 0.81396 0.63654 0.47269 0.0
C960 C 0.80471 0.63878 0.48009 0.0
C961 C 0.80374 0.63683 0.49358 0.0
C962 C 0.81189 0.63244 0.50016 0.0
C963 C 0.81069 0.63002 0.5138 0.0
C964 C 0.81898 0.62569 0.52004 0.0
C965 C 0.82839 0.62352 0.51298 0.0
C966 C 0.82969 0.6258 0.49932 0.0
C967 C 0.83897 0.62359 0.4919 0.0
C968 C 0.83998 0.62559 0.47843 0.0
C969 C 0.83162 0.62968 0.47182 0.0
C970 C 0.82237 0.63222 0.47914 0.0
C971 C 0.82138 0.63023 0.4929 0.0
C972 C 0.75037 0.62902 0.53122 0.0
C973 C 0.75696 0.62721 0.5437 0.0
O974 O 0.86127 0.61811 0.42111 0.0
O975 O 0.85868 0.6012 0.53633 0.0
O976 O 0.77116 0.6357 0.54345 0.0
O977 O 0.7862 0.65671 0.42707 0.0
H978 H 0.85958 0.63099 0.40786 0.0
H979 H 0.84408 0.60691 0.40088 0.0
H980 H 0.85839 0.60397 0.39905 0.0
H981 H 0.8568 0.61608 0.3886 0.0
H982 H 0.86875 0.64335 0.42961 0.0
H983 H 0.8405 0.60021 0.43431 0.0
H984 H 0.85117 0.65684 0.44271 0.0
H985 H 0.86866 0.66034 0.44378 0.0
H986 H 0.85786 0.65491 0.45807 0.0
H987 H 0.82057 0.59202 0.44706 0.0
H988 H 0.81476 0.60407 0.45084 0.0
H989 H 0.82511 0.60129 0.4625 0.0
H990 H 0.78592 0.64569 0.41067 0.0
H991 H 0.80023 0.66677 0.39754 0.0
H992 H 0.80874 0.66738 0.41273 0.0
H993 H 0.8005 0.67762 0.411 0.0
H994 H 0.77937 0.6307 0.42996 0.0
H995 H 0.80664 0.67243 0.4426 0.0
H996 H 0.79755 0.61593 0.43936 0.0
H997 H 0.77982 0.61174 0.43962 0.0
H998 H 0.78945 0.61472 0.45476 0.0
H999 H 0.82577 0.67865 0.45655 0.0
H1000 H 0.83238 0.66686 0.45633 0.0
H1001 H 0.82148 0.66624 0.46937 0.0
H1002 H 0.75433 0.61623 0.54442 0.0
H1003 H 0.76613 0.61323 0.52882 0.0
H1004 H 0.79686 0.6538 0.54216 0.0
H1005 H 0.78302 0.60911 0.50353 0.0
H1006 H 0.77136 0.59894 0.51621 0.0
H1007 H 0.78905 0.60288 0.51662 0.0
H1008 H 0.81985 0.66438 0.53512 0.0
H1009 H 0.82204 0.65866 0.51913 0.0
H1010 H 0.82566 0.65201 0.53357 0.0
H1011 H 0.87742 0.61413 0.52811 0.0
H1012 H 0.88732 0.59938 0.53353 0.0
H1013 H 0.87144 0.58997 0.5243 0.0
H1014 H 0.87164 0.58738 0.54171 0.0
H1015 H 0.83328 0.58732 0.52912 0.0
H1016 H 0.86801 0.62826 0.53319 0.0
H1017 H 0.81412 0.59505 0.50698 0.0
H1018 H 0.8083 0.5961 0.52303 0.0
H1019 H 0.81238 0.58276 0.51922 0.0
H1020 H 0.86681 0.64806 0.52782 0.0
H1021 H 0.84984 0.64613 0.52688 0.0
H1022 H 0.85794 0.6449 0.51225 0.0
H1023 H 0.82447 0.63687 0.44132 0.0
H1024 H 0.79807 0.64203 0.47553 0.0
H1025 H 0.79645 0.63874 0.49877 0.0
H1026 H 0.81788 0.62369 0.53047 0.0
H1027 H 0.84555 0.62025 0.49641 0.0
H1028 H 0.84733 0.62377 0.47322 0.0
H1029 H 0.73899 0.6223 0.53146 0.0
H1030 H 0.75414 0.62607 0.52242 0.0
H1031 H 0.75296 0.63995 0.5303 0.0
C1032 C 0.39085 0.24525 0.40084 0.0
C1033 C 0.37899 0.24015 0.4105 0.0
C1034 C 0.38074 0.23355 0.43271 0.0
C1035 C 0.36698 0.22339 0.43463 0.0
C1036 C 0.36358 0.21305 0.44392 0.0
C1037 C 0.3742 0.21278 0.45126 0.0
C1038 C 0.38806 0.22333 0.44962 0.0
C1039 C 0.3911 0.23377 0.44054 0.0
C1040 C 0.34867 0.20221 0.44562 0.0
C1041 C 0.39973 0.22329 0.45705 0.0
C1042 C 0.36386 0.11284 0.4228 0.0
C1043 C 0.36945 0.1262 0.43014 0.0
C1044 C 0.36205 0.1421 0.43829 0.0
C1045 C 0.37457 0.1512 0.44472 0.0
C1046 C 0.37608 0.16264 0.45196 0.0
C1047 C 0.36473 0.16483 0.4531 0.0
C1048 C 0.35207 0.15558 0.44679 0.0
C1049 C 0.35096 0.1444 0.43936 0.0
C1050 C 0.38985 0.17247 0.45828 0.0
C1051 C 0.33975 0.15753 0.44784 0.0
C1052 C 0.36694 0.14687 0.53776 0.0
C1053 C 0.3792 0.15636 0.53161 0.0
C1054 C 0.38008 0.1676 0.52482 0.0
C1055 C 0.36841 0.16929 0.52398 0.0
C1056 C 0.35615 0.15993 0.53036 0.0
C1057 C 0.35562 0.14888 0.53724 0.0
C1058 C 0.39343 0.17757 0.51835 0.0
C1059 C 0.34352 0.16144 0.52967 0.0
C1060 C 0.39022 0.2768 0.53248 0.0
C1061 C 0.38122 0.26274 0.53872 0.0
C1062 C 0.38445 0.24295 0.53421 0.0
C1063 C 0.39462 0.24001 0.53026 0.0
C1064 C 0.39114 0.22728 0.5243 0.0
C1065 C 0.3771 0.2172 0.52239 0.0
C1066 C 0.36674 0.21983 0.52697 0.0
C1067 C 0.37052 0.23267 0.53291 0.0
C1068 C 0.40245 0.22471 0.51977 0.0
C1069 C 0.3517 0.20914 0.52538 0.0
C1070 C 0.37097 0.20079 0.45966 0.0
C1071 C 0.36868 0.18862 0.45338 0.0
C1072 C 0.36628 0.17706 0.46051 0.0
C1073 C 0.36615 0.17757 0.47436 0.0
C1074 C 0.3637 0.16611 0.48185 0.0
C1075 C 0.36437 0.16697 0.49548 0.0
C1076 C 0.36745 0.17931 0.50213 0.0
C1077 C 0.36891 0.18052 0.51595 0.0
C1078 C 0.37175 0.19286 0.52228 0.0
C1079 C 0.37331 0.20415 0.51514 0.0
C1080 C 0.37206 0.20319 0.5013 0.0
C1081 C 0.37368 0.21438 0.49381 0.0
C1082 C 0.37303 0.21353 0.48017 0.0
C1083 C 0.37087 0.20151 0.4735 0.0
C1084 C 0.36866 0.18992 0.48087 0.0
C1085 C 0.36927 0.19077 0.49479 0.0
C1086 C 0.37394 0.12333 0.53145 0.0
C1087 C 0.37456 0.1306 0.5445 0.0
O1088 O 0.38434 0.24305 0.42317 0.0
O1089 O 0.38852 0.25575 0.53925 0.0
O1090 O 0.36549 0.13562 0.54419 0.0
O1091 O 0.36029 0.13108 0.43093 0.0
H1092 H 0.37257 0.22876 0.40881 0.0
H1093 H 0.39676 0.23986 0.40255 0.0
H1094 H 0.39797 0.25655 0.4021 0.0
H1095 H 0.38681 0.24301 0.39059 0.0
H1096 H 0.35893 0.22349 0.42879 0.0
H1097 H 0.40167 0.24178 0.43904 0.0
H1098 H 0.34675 0.19236 0.44096 0.0
H1099 H 0.34158 0.20523 0.44103 0.0
H1100 H 0.34624 0.20029 0.45618 0.0
H1101 H 0.40998 0.2313 0.45354 0.0
H1102 H 0.39897 0.21303 0.45608 0.0
H1103 H 0.39906 0.22528 0.46762 0.0
H1104 H 0.38001 0.13425 0.42725 0.0
H1105 H 0.37061 0.11526 0.41396 0.0
H1106 H 0.35464 0.11144 0.41703 0.0
H1107 H 0.36255 0.09897 0.43712 0.0
H1108 H 0.38326 0.14955 0.44402 0.0
H1109 H 0.34134 0.13732 0.43439 0.0
H1110 H 0.38899 0.17162 0.4691 0.0
H1111 H 0.39304 0.18331 0.45581 0.0
H1112 H 0.39804 0.17027 0.45517 0.0
H1113 H 0.33024 0.14859 0.44366 0.0
H1114 H 0.34178 0.16694 0.44249 0.0
H1115 H 0.33796 0.15908 0.45826 0.0
H1116 H 0.38522 0.13926 0.54634 0.0
H1117 H 0.38813 0.15507 0.53195 0.0
H1118 H 0.34623 0.14157 0.54207 0.0
H1119 H 0.39207 0.17632 0.50754 0.0
H1120 H 0.40201 0.17585 0.52126 0.0
H1121 H 0.39635 0.18839 0.52091 0.0
H1122 H 0.33464 0.15304 0.53483 0.0
H1123 H 0.34053 0.16139 0.51926 0.0
H1124 H 0.34589 0.17151 0.53412 0.0
H1125 H 0.37196 0.25719 0.53224 0.0
H1126 H 0.38464 0.28267 0.53207 0.0
H1127 H 0.39277 0.2753 0.52231 0.0
H1128 H 0.4 0.28298 0.53812 0.0
H1129 H 0.40533 0.24791 0.53155 0.0
H1130 H 0.36258 0.2346 0.53654 0.0
H1131 H 0.40176 0.22316 0.50896 0.0
H1132 H 0.40116 0.21511 0.5242 0.0
H1133 H 0.41286 0.2334 0.52242 0.0
H1134 H 0.34488 0.21262 0.52976 0.0
H1135 H 0.34963 0.19939 0.53007 0.0
H1136 H 0.34905 0.20682 0.51479 0.0
H1137 H 0.36905 0.18823 0.44276 0.0
H1138 H 0.36142 0.15639 0.47726 0.0
H1139 H 0.36257 0.15787 0.50072 0.0
H1140 H 0.37305 0.19379 0.53286 0.0
H1141 H 0.37559 0.22398 0.4984 0.0
H1142 H 0.37444 0.22249 0.4749 0.0
H1143 H 0.38107 0.11915 0.53176 0.0
H1144 H 0.37706 0.1307 0.52327 0.0
H1145 H 0.36331 0.11471 0.5294 0.0
C1146 C 0.85534 0.23138 0.40528 0.0
C1147 C 0.86635 0.23676 0.41622 0.0
C1148 C 0.85509 0.21822 0.4323 0.0
C1149 C 0.84536 0.2218 0.43657 0.0
C1150 C 0.83469 0.21314 0.44491 0.0
C1151 C 0.8337 0.20066 0.44908 0.0
C1152 C 0.84373 0.19725 0.44518 0.0
C1153 C 0.85435 0.20614 0.43689 0.0
C1154 C 0.82423 0.21714 0.44901 0.0
C1155 C 0.84299 0.18405 0.44951 0.0
C1156 C 0.75494 0.1458 0.39604 0.0
C1157 C 0.75863 0.13816 0.40616 0.0
C1158 C 0.76502 0.14751 0.42832 0.0
C1159 C 0.77483 0.14369 0.43146 0.0
C1160 C 0.78512 0.15116 0.44097 0.0
C1161 C 0.78568 0.16278 0.4473 0.0
C1162 C 0.77546 0.16633 0.44444 0.0
C1163 C 0.76507 0.15842 0.43516 0.0
C1164 C 0.79563 0.14688 0.44396 0.0
C1165 C 0.77584 0.1788 0.45076 0.0
C1166 C 0.75714 0.14904 0.53066 0.0
C1167 C 0.76603 0.14383 0.52826 0.0
C1168 C 0.77874 0.152 0.52218 0.0
C1169 C 0.78258 0.1656 0.51842 0.0
C1170 C 0.77385 0.17101 0.52129 0.0
C1171 C 0.7613 0.16268 0.52751 0.0
C1172 C 0.78802 0.14609 0.51964 0.0
C1173 C 0.77769 0.18552 0.51758 0.0
C1174 C 0.87967 0.25256 0.53071 0.0
C1175 C 0.87129 0.24612 0.54306 0.0
C1176 C 0.85404 0.22274 0.53514 0.0
C1177 C 0.85098 0.20899 0.53448 0.0
C1178 C 0.83976 0.19904 0.527 0.0
C1179 C 0.83124 0.20292 0.52017 0.0
C1180 C 0.83405 0.21674 0.52104 0.0
C1181 C 0.84551 0.22655 0.52838 0.0
C1182 C 0.8371 0.18441 0.52628 0.0
C1183 C 0.82498 0.22119 0.51417 0.0
C1184 C 0.82157 0.19071 0.45663 0.0
C1185 C 0.80986 0.18128 0.4495 0.0
C1186 C 0.79772 0.17204 0.45577 0.0
C1187 C 0.79718 0.17216 0.46962 0.0
C1188 C 0.78513 0.16306 0.47628 0.0
C1189 C 0.78456 0.16365 0.48988 0.0
C1190 C 0.79609 0.1732 0.49737 0.0
C1191 C 0.79552 0.17408 0.51118 0.0
C1192 C 0.80718 0.18369 0.51831 0.0
C1193 C 0.81947 0.19257 0.51202 0.0
C1194 C 0.82024 0.19186 0.49822 0.0
C1195 C 0.83244 0.20063 0.49156 0.0
C1196 C 0.83293 0.20025 0.47795 0.0
C1197 C 0.82129 0.19095 0.47047 0.0
C1198 C 0.809 0.18171 0.47699 0.0
C1199 C 0.80847 0.1822 0.49087 0.0
C1200 C 0.72176 0.12412 0.53025 0.0
C1201 C 0.73606 0.12713 0.53471 0.0
O1202 O 0.86516 0.2259 0.42364 0.0
O1203 O 0.86527 0.23185 0.54237 0.0
O1204 O 0.74457 0.14131 0.53608 0.0
O1205 O 0.75559 0.141 0.41857 0.0
H1206 H 0.86511 0.24417 0.42264 0.0
H1207 H 0.84486 0.22634 0.40946 0.0
H1208 H 0.85619 0.2237 0.39892 0.0
H1209 H 0.85655 0.24007 0.39916 0.0
H1210 H 0.84585 0.23119 0.43332 0.0
H1211 H 0.86194 0.2035 0.43365 0.0
H1212 H 0.81394 0.2095 0.44491 0.0
H1213 H 0.82688 0.22758 0.4456 0.0
H1214 H 0.82341 0.21696 0.45985 0.0
H1215 H 0.85192 0.18317 0.44611 0.0
H1216 H 0.83338 0.17505 0.44559 0.0
H1217 H 0.84262 0.18351 0.46037 0.0
H1218 H 0.7699 0.14212 0.4053 0.0
H1219 H 0.75739 0.14378 0.38601 0.0
H1220 H 0.7438 0.14247 0.39643 0.0
H1221 H 0.761 0.1571 0.39809 0.0
H1222 H 0.77451 0.13496 0.42638 0.0
H1223 H 0.75733 0.16115 0.43272 0.0
H1224 H 0.79722 0.14691 0.45473 0.0
H1225 H 0.80564 0.15443 0.43966 0.0
H1226 H 0.79252 0.13645 0.43987 0.0
H1227 H 0.76777 0.18076 0.44671 0.0
H1228 H 0.78607 0.18813 0.44933 0.0
H1229 H 0.7743 0.17726 0.46147 0.0
H1230 H 0.73985 0.12289 0.52687 0.0
H1231 H 0.76311 0.13345 0.53118 0.0
H1232 H 0.75446 0.16666 0.52963 0.0
H1233 H 0.78902 0.14516 0.5089 0.0
H1234 H 0.78404 0.13574 0.524 0.0
H1235 H 0.79849 0.15318 0.52371 0.0
H1236 H 0.76954 0.18801 0.52008 0.0
H1237 H 0.7796 0.18687 0.50689 0.0
H1238 H 0.78737 0.19304 0.52276 0.0
H1239 H 0.86318 0.24902 0.544 0.0
H1240 H 0.88456 0.264 0.53124 0.0
H1241 H 0.87289 0.24881 0.52186 0.0
H1242 H 0.88783 0.24976 0.52963 0.0
H1243 H 0.85757 0.20612 0.53975 0.0
H1244 H 0.84766 0.23711 0.52874 0.0
H1245 H 0.83648 0.18108 0.51587 0.0
H1246 H 0.82704 0.17736 0.5308 0.0
H1247 H 0.84523 0.18327 0.53141 0.0
H1248 H 0.82747 0.23178 0.51718 0.0
H1249 H 0.81398 0.2139 0.51624 0.0
H1250 H 0.82633 0.22101 0.50341 0.0
H1251 H 0.81013 0.18129 0.43887 0.0
H1252 H 0.77596 0.1555 0.47102 0.0
H1253 H 0.77493 0.15654 0.49445 0.0
H1254 H 0.80661 0.18443 0.52888 0.0
H1255 H 0.84172 0.20801 0.49681 0.0
H1256 H 0.84253 0.20736 0.47334 0.0
H1257 H 0.71732 0.1282 0.53755 0.0
H1258 H 0.71473 0.11281 0.52893 0.0
H1259 H 0.7225 0.12912 0.52071 0.0
C1260 C 0.03963 0.47494 0.25663 0.0
C1261 C 0.02423 0.46434 0.25579 0.0
C1262 C 0.01528 0.4686 0.23605 0.0
C1263 C 0.00151 0.46515 0.23706 0.0
C1264 C 0.99655 0.4727 0.23035 0.0
C1265 C 0.00566 0.48402 0.22263 0.0
C1266 C 0.0196 0.48744 0.22157 0.0
C1267 C 0.02419 0.47953 0.22817 0.0
C1268 C 0.98161 0.46868 0.2316 0.0
C1269 C 0.02968 0.49957 0.21363 0.0
C1270 C 0.01713 0.58112 0.25805 0.0
C1271 C 0.01787 0.5703 0.25007 0.0
C1272 C 0.00334 0.54712 0.24089 0.0
C1273 C 0.01349 0.54778 0.23242 0.0
C1274 C 0.01113 0.53632 0.22472 0.0
C1275 C 0.99838 0.52387 0.22553 0.0
C1276 C 0.98808 0.52316 0.23393 0.0
C1277 C 0.99068 0.53485 0.24147 0.0
C1278 C 0.02235 0.53747 0.21581 0.0
C1279 C 0.97439 0.51003 0.23495 0.0
C1280 C 0.96268 0.52732 0.14757 0.0
C1281 C 0.97703 0.53346 0.14885 0.0
C1282 C 0.98299 0.52597 0.15388 0.0
C1283 C 0.97438 0.51217 0.15784 0.0
C1284 C 0.95994 0.50584 0.15609 0.0
C1285 C 0.9543 0.51348 0.15081 0.0
C1286 C 0.99846 0.53285 0.15509 0.0
C1287 C 0.95045 0.4911 0.16003 0.0
C1288 C 0.01405 0.44424 0.14214 0.0
C1289 C 0.00026 0.44124 0.13617 0.0
C1290 C 0.99752 0.46143 0.13843 0.0
C1291 C 0.00665 0.47563 0.13941 0.0
C1292 C 0.00334 0.48422 0.14676 0.0
C1293 C 0.9904 0.47842 0.15294 0.0
C1294 C 0.98078 0.46417 0.15129 0.0
C1295 C 0.98448 0.45578 0.14407 0.0
C1296 C 0.01379 0.4994 0.14822 0.0
C1297 C 0.96675 0.45778 0.1574 0.0
C1298 C 0.00071 0.49251 0.21602 0.0
C1299 C 0.00037 0.50295 0.2234 0.0
C1300 C 0.99617 0.5116 0.21778 0.0
C1301 C 0.99162 0.50948 0.20456 0.0
C1302 C 0.98664 0.51752 0.1988 0.0
C1303 C 0.9826 0.51564 0.18566 0.0
C1304 C 0.98383 0.50598 0.17766 0.0
C1305 C 0.98036 0.50441 0.16414 0.0
C1306 C 0.98234 0.49517 0.15638 0.0
C1307 C 0.98741 0.48715 0.16183 0.0
C1308 C 0.9903 0.48808 0.17544 0.0
C1309 C 0.99485 0.47972 0.18132 0.0
C1310 C 0.99787 0.48086 0.19468 0.0
C1311 C 0.99695 0.49074 0.20258 0.0
C1312 C 0.99232 0.49922 0.19686 0.0
C1313 C 0.98874 0.4977 0.18332 0.0
C1314 C 0.94914 0.5495 0.15118 0.0
C1315 C 0.96104 0.54822 0.14548 0.0
O1316 O 0.02003 0.46146 0.24277 0.0
O1317 O 0.00149 0.45349 0.13176 0.0
O1318 O 0.95655 0.53435 0.14313 0.0
O1319 O 0.00544 0.55803 0.24863 0.0
H1320 H 0.01852 0.46881 0.26084 0.0
H1321 H 0.04166 0.48479 0.25219 0.0
H1322 H 0.04568 0.47104 0.25134 0.0
H1323 H 0.04318 0.47714 0.26704 0.0
H1324 H 0.99472 0.45658 0.24315 0.0
H1325 H 0.03481 0.482 0.22744 0.0
H1326 H 0.98089 0.47709 0.23677 0.0
H1327 H 0.97563 0.45898 0.23711 0.0
H1328 H 0.97685 0.46733 0.22171 0.0
H1329 H 0.04036 0.50146 0.21459 0.0
H1330 H 0.02959 0.50906 0.21682 0.0
H1331 H 0.02657 0.49767 0.20312 0.0
H1332 H 0.02657 0.56859 0.25274 0.0
H1333 H 0.02371 0.58268 0.267 0.0
H1334 H 0.0071 0.57576 0.26346 0.0
H1335 H 0.02172 0.59681 0.24462 0.0
H1336 H 0.02333 0.5572 0.23175 0.0
H1337 H 0.98288 0.53442 0.24798 0.0
H1338 H 0.01843 0.53504 0.20554 0.0
H1339 H 0.02542 0.52983 0.21866 0.0
H1340 H 0.03162 0.54795 0.21617 0.0
H1341 H 0.96732 0.51122 0.24172 0.0
H1342 H 0.97602 0.5016 0.23849 0.0
H1343 H 0.9694 0.50685 0.2251 0.0
H1344 H 0.9695 0.55265 0.15298 0.0
H1345 H 0.98359 0.54403 0.14585 0.0
H1346 H 0.94324 0.50879 0.14954 0.0
H1347 H 0.00154 0.53443 0.16561 0.0
H1348 H 0.00374 0.54303 0.15024 0.0
H1349 H 0.00206 0.52609 0.15069 0.0
H1350 H 0.93942 0.48791 0.1586 0.0
H1351 H 0.95228 0.4898 0.17049 0.0
H1352 H 0.95269 0.48407 0.15411 0.0
H1353 H 0.99237 0.43669 0.14394 0.0
H1354 H 0.0133 0.43461 0.14593 0.0
H1355 H 0.01694 0.45175 0.15045 0.0
H1356 H 0.0223 0.44871 0.13471 0.0
H1357 H 0.01659 0.47988 0.13477 0.0
H1358 H 0.97719 0.44485 0.1428 0.0
H1359 H 0.01642 0.50216 0.15876 0.0
H1360 H 0.00934 0.50563 0.14449 0.0
H1361 H 0.02341 0.50227 0.14284 0.0
H1362 H 0.95998 0.44687 0.15415 0.0
H1363 H 0.96168 0.46382 0.15487 0.0
H1364 H 0.96789 0.4581 0.16824 0.0
H1365 H 0.00387 0.50467 0.23356 0.0
H1366 H 0.98574 0.5253 0.20443 0.0
H1367 H 0.97875 0.52206 0.18179 0.0
H1368 H 0.98 0.49427 0.14596 0.0
H1369 H 0.99608 0.47215 0.17569 0.0
H1370 H 0.00123 0.47409 0.19868 0.0
H1371 H 0.94029 0.54526 0.14416 0.0
H1372 H 0.95248 0.56049 0.15344 0.0
H1373 H 0.94569 0.54363 0.16042 0.0
C1374 C 0.46036 0.40457 0.25274 0.0
C1375 C 0.45818 0.4162 0.25817 0.0
C1376 C 0.46655 0.43423 0.24141 0.0
C1377 C 0.46256 0.44162 0.2333 0.0
C1378 C 0.47225 0.4528 0.22602 0.0
C1379 C 0.48624 0.45631 0.22649 0.0
C1380 C 0.49039 0.44888 0.23469 0.0
C1381 C 0.48054 0.43806 0.24223 0.0
C1382 C 0.46747 0.46078 0.2178 0.0
C1383 C 0.5052 0.45226 0.23542 0.0
C1384 C 0.57581 0.55019 0.26173 0.0
C1385 C 0.56867 0.53867 0.25198 0.0
C1386 C 0.5468 0.52583 0.23999 0.0
C1387 C 0.54906 0.51506 0.23596 0.0
C1388 C 0.53909 0.50377 0.22857 0.0
C1389 C 0.52662 0.50325 0.22502 0.0
C1390 C 0.52434 0.51411 0.22895 0.0
C1391 C 0.53448 0.52527 0.23641 0.0
C1392 C 0.54185 0.49232 0.22462 0.0
C1393 C 0.51119 0.51388 0.22527 0.0
C1394 C 0.55252 0.51755 0.14119 0.0
C1395 C 0.55558 0.50945 0.14946 0.0
C1396 C 0.54511 0.49834 0.15623 0.0
C1397 C 0.53136 0.49553 0.15501 0.0
C1398 C 0.52822 0.50352 0.14652 0.0
C1399 C 0.53885 0.51432 0.13959 0.0
C1400 C 0.5488 0.48972 0.1648 0.0
C1401 C 0.51369 0.50082 0.14495 0.0
C1402 C 0.44798 0.3859 0.14697 0.0
C1403 C 0.45284 0.40035 0.14168 0.0
C1404 C 0.47543 0.42078 0.14597 0.0
C1405 C 0.4887 0.42451 0.15029 0.0
C1406 C 0.49748 0.43763 0.15584 0.0
C1407 C 0.49289 0.44731 0.15688 0.0
C1408 C 0.47975 0.44386 0.15186 0.0
C1409 C 0.47114 0.43062 0.14643 0.0
C1410 C 0.5115 0.44102 0.16094 0.0
C1411 C 0.47471 0.45409 0.1525 0.0
C1412 C 0.49652 0.46764 0.2183 0.0
C1413 C 0.50569 0.4802 0.2245 0.0
C1414 C 0.51593 0.49112 0.21747 0.0
C1415 C 0.5167 0.48977 0.20375 0.0
C1416 C 0.52643 0.50078 0.19629 0.0
C1417 C 0.52746 0.49919 0.18287 0.0
C1418 C 0.51895 0.48644 0.17643 0.0
C1419 C 0.52037 0.48451 0.16291 0.0
C1420 C 0.51164 0.47174 0.15679 0.0
C1421 C 0.50155 0.46072 0.16385 0.0
C1422 C 0.5001 0.4624 0.17741 0.0
C1423 C 0.49029 0.45142 0.18488 0.0
C1424 C 0.48909 0.4531 0.19824 0.0
C1425 C 0.4976 0.46584 0.20468 0.0
C1426 C 0.50762 0.47701 0.19736 0.0
C1427 C 0.50884 0.47531 0.18371 0.0
C1428 C 0.57947 0.5445 0.14977 0.0
C1429 C 0.57642 0.53578 0.13716 0.0
O1430 O 0.45655 0.42342 0.24803 0.0
O1431 O 0.46711 0.40762 0.14151 0.0
O1432 O 0.56235 0.52854 0.13459 0.0
O1433 O 0.55616 0.5368 0.2474 0.0
H1434 H 0.46729 0.42331 0.26435 0.0
H1435 H 0.47007 0.40886 0.24719 0.0
H1436 H 0.45179 0.39758 0.246 0.0
H1437 H 0.46102 0.39844 0.26092 0.0
H1438 H 0.45177 0.43866 0.23278 0.0
H1439 H 0.48387 0.43256 0.24853 0.0
H1440 H 0.47454 0.47208 0.21913 0.0
H1441 H 0.45686 0.45834 0.22028 0.0
H1442 H 0.46754 0.45816 0.20728 0.0
H1443 H 0.50639 0.44428 0.24071 0.0
H1444 H 0.51146 0.46231 0.24066 0.0
H1445 H 0.50943 0.45327 0.22542 0.0
H1446 H 0.57531 0.53855 0.24394 0.0
H1447 H 0.57586 0.54018 0.27893 0.0
H1448 H 0.57076 0.55671 0.26099 0.0
H1449 H 0.58557 0.55794 0.25682 0.0
H1450 H 0.55854 0.51531 0.2386 0.0
H1451 H 0.5328 0.53361 0.23955 0.0
H1452 H 0.53331 0.48221 0.22785 0.0
H1453 H 0.55167 0.49384 0.22886 0.0
H1454 H 0.54233 0.49181 0.21378 0.0
H1455 H 0.51129 0.52348 0.22844 0.0
H1456 H 0.50234 0.50491 0.22988 0.0
H1457 H 0.50952 0.51256 0.21448 0.0
H1458 H 0.58032 0.52846 0.13823 0.0
H1459 H 0.56606 0.51164 0.15071 0.0
H1460 H 0.53657 0.52055 0.13311 0.0
H1461 H 0.54825 0.49223 0.17526 0.0
H1462 H 0.55936 0.49165 0.16293 0.0
H1463 H 0.54137 0.47854 0.16317 0.0
H1464 H 0.51312 0.50861 0.13874 0.0
H1465 H 0.50937 0.50084 0.15471 0.0
H1466 H 0.50711 0.49043 0.1404 0.0
H1467 H 0.44893 0.40532 0.14863 0.0
H1468 H 0.43654 0.37982 0.14709 0.0
H1469 H 0.4519 0.38674 0.15716 0.0
H1470 H 0.45184 0.38028 0.14087 0.0
H1471 H 0.492 0.41692 0.14968 0.0
H1472 H 0.46108 0.42801 0.14259 0.0
H1473 H 0.51234 0.44349 0.1716 0.0
H1474 H 0.51959 0.45032 0.15599 0.0
H1475 H 0.51356 0.43238 0.15934 0.0
H1476 H 0.46467 0.45022 0.14731 0.0
H1477 H 0.48241 0.46401 0.14812 0.0
H1478 H 0.47351 0.45627 0.16291 0.0
H1479 H 0.50513 0.48135 0.23502 0.0
H1480 H 0.53337 0.51077 0.20076 0.0
H1481 H 0.53512 0.50805 0.17764 0.0
H1482 H 0.51285 0.4703 0.14645 0.0
H1483 H 0.48346 0.44137 0.18049 0.0
H1484 H 0.48144 0.44424 0.20348 0.0
H1485 H 0.57561 0.55188 0.14884 0.0
H1486 H 0.59073 0.55039 0.15186 0.0
H1487 H 0.57439 0.53775 0.15823 0.0
C1488 C 0.45097 0.97484 0.27557 0.0
C1489 C 0.44912 0.98541 0.26776 0.0
C1490 C 0.45806 0.98663 0.24598 0.0
C1491 C 0.46693 0.00085 0.24451 0.0
C1492 C 0.47821 0.00574 0.2361 0.0
C1493 C 0.48065 0.99618 0.22911 0.0
C1494 C 0.47142 0.98181 0.23027 0.0
C1495 C 0.46008 0.97723 0.23857 0.0
C1496 C 0.48763 0.02112 0.23483 0.0
C1497 C 0.47376 0.97131 0.22307 0.0
C1498 C 0.56325 0.03419 0.27751 0.0
C1499 C 0.56006 0.02137 0.26929 0.0
C1500 C 0.55261 0.02111 0.24703 0.0
C1501 C 0.54356 0.00713 0.24412 0.0
C1502 C 0.53258 0.00313 0.2352 0.0
C1503 C 0.5305 0.01338 0.22934 0.0
C1504 C 0.53986 0.02754 0.23208 0.0
C1505 C 0.551 0.03123 0.24072 0.0
C1506 C 0.52301 0.98796 0.23232 0.0
C1507 C 0.53782 0.03878 0.22631 0.0
C1508 C 0.55651 0.02755 0.1461 0.0
C1509 C 0.54733 0.01331 0.14729 0.0
C1510 C 0.5346 0.00848 0.15343 0.0
C1511 C 0.53093 0.01808 0.15832 0.0
C1512 C 0.53982 0.03239 0.15646 0.0
C1513 C 0.55248 0.03693 0.15029 0.0
C1514 C 0.52517 0.99314 0.15494 0.0
C1515 C 0.53608 0.04288 0.16131 0.0
C1516 C 0.42261 0.98662 0.15323 0.0
C1517 C 0.43433 0.99624 0.14429 0.0
C1518 C 0.45532 0.9947 0.14682 0.0
C1519 C 0.45905 0.98467 0.14883 0.0
C1520 C 0.47178 0.98812 0.15462 0.0
C1521 C 0.481 0.00201 0.15837 0.0
C1522 C 0.47763 0.01236 0.15567 0.0
C1523 C 0.46484 0.00861 0.14981 0.0
C1524 C 0.47518 0.97689 0.15711 0.0
C1525 C 0.48741 0.02731 0.15926 0.0
C1526 C 0.49331 0.00116 0.22125 0.0
C1527 C 0.50557 0.00475 0.22797 0.0
C1528 C 0.5179 0.00926 0.22131 0.0
C1529 C 0.51804 0.01005 0.20748 0.0
C1530 C 0.53015 0.0141 0.20041 0.0
C1531 C 0.53022 0.01514 0.18683 0.0
C1532 C 0.51817 0.01208 0.17978 0.0
C1533 C 0.51817 0.01323 0.16597 0.0
C1534 C 0.50596 0.00991 0.15926 0.0
C1535 C 0.49368 0.00553 0.16599 0.0
C1536 C 0.49351 0.00449 0.1798 0.0
C1537 C 0.48136 0.00031 0.18689 0.0
C1538 C 0.48127 0.99925 0.20046 0.0
C1539 C 0.49332 0.00231 0.20747 0.0
C1540 C 0.50572 0.00669 0.20056 0.0
C1541 C 0.5058 0.00774 0.1867 0.0
C1542 C 0.58999 0.03681 0.15139 0.0
C1543 C 0.57785 0.02718 0.14242 0.0
O1544 O 0.44754 0.98176 0.25456 0.0
O1545 O 0.44258 0.99053 0.14174 0.0
O1546 O 0.56921 0.03262 0.14088 0.0
O1547 O 0.56267 0.02498 0.25624 0.0
H1548 H 0.45851 0.99569 0.26948 0.0
H1549 H 0.46034 0.97474 0.27226 0.0
H1550 H 0.44194 0.9643 0.27411 0.0
H1551 H 0.45223 0.97759 0.2862 0.0
H1552 H 0.46504 0.0081 0.24996 0.0
H1553 H 0.45302 0.96627 0.23969 0.0
H1554 H 0.49776 0.02416 0.23946 0.0
H1555 H 0.48339 0.02715 0.23962 0.0
H1556 H 0.48941 0.02389 0.22433 0.0
H1557 H 0.46609 0.96053 0.22565 0.0
H1558 H 0.48424 0.97314 0.22535 0.0
H1559 H 0.47311 0.97246 0.21234 0.0
H1560 H 0.54894 0.01367 0.27062 0.0
H1561 H 0.56112 0.03151 0.28801 0.0
H1562 H 0.55665 0.03839 0.27415 0.0
H1563 H 0.57421 0.04234 0.27651 0.0
H1564 H 0.54505 0.99938 0.24896 0.0
H1565 H 0.55814 0.042 0.24307 0.0
H1566 H 0.52088 0.98609 0.22162 0.0
H1567 H 0.51306 0.98456 0.23726 0.0
H1568 H 0.52732 0.98152 0.23586 0.0
H1569 H 0.54516 0.04914 0.23053 0.0
H1570 H 0.52716 0.0366 0.22805 0.0
H1571 H 0.53929 0.03905 0.21556 0.0
H1572 H 0.57257 0.01707 0.14743 0.0
H1573 H 0.55003 0.00594 0.1434 0.0
H1574 H 0.5595 0.04788 0.14906 0.0
H1575 H 0.52362 0.99066 0.16552 0.0
H1576 H 0.52933 0.98698 0.15027 0.0
H1577 H 0.51493 0.98998 0.1505 0.0
H1578 H 0.54379 0.05357 0.15852 0.0
H1579 H 0.5353 0.04247 0.17215 0.0
H1580 H 0.52586 0.04035 0.15725 0.0
H1581 H 0.44011 0.00634 0.14959 0.0
H1582 H 0.41579 0.99095 0.15532 0.0
H1583 H 0.42693 0.98554 0.16268 0.0
H1584 H 0.4164 0.9762 0.14861 0.0
H1585 H 0.45176 0.97401 0.14618 0.0
H1586 H 0.46242 0.0166 0.14756 0.0
H1587 H 0.47566 0.97558 0.16783 0.0
H1588 H 0.48547 0.97986 0.15311 0.0
H1589 H 0.46743 0.96681 0.15264 0.0
H1590 H 0.4834 0.03418 0.15626 0.0
H1591 H 0.49748 0.03082 0.1545 0.0
H1592 H 0.48928 0.02841 0.17002 0.0
H1593 H 0.50551 0.00406 0.23857 0.0
H1594 H 0.53971 0.01655 0.20532 0.0
H1595 H 0.53987 0.01839 0.18193 0.0
H1596 H 0.50601 0.01076 0.14867 0.0
H1597 H 0.47176 0.99781 0.18203 0.0
H1598 H 0.47164 0.99601 0.20539 0.0
H1599 H 0.59727 0.03284 0.15242 0.0
H1600 H 0.58616 0.0373 0.16128 0.0
H1601 H 0.59559 0.04744 0.1475 0.0
C1602 C 0.53111 0.97649 0.73431 0.0
C1603 C 0.54138 0.98741 0.74399 0.0
C1604 C 0.53308 0.98595 0.76605 0.0
C1605 C 0.53867 0.99989 0.76965 0.0
C1606 C 0.53205 0.00396 0.77882 0.0
C1607 C 0.51951 0.99385 0.78431 0.0
C1608 C 0.51415 0.9797 0.78102 0.0
C1609 C 0.5212 0.97592 0.77209 0.0
C1610 C 0.53825 0.01909 0.78233 0.0
C1611 C 0.50069 0.96863 0.78648 0.0
C1612 C 0.4804 0.03379 0.73694 0.0
C1613 C 0.46822 0.02294 0.74467 0.0
C1614 C 0.4753 0.02185 0.76688 0.0
C1615 C 0.46962 0.00762 0.76863 0.0
C1616 C 0.47568 0.00261 0.77743 0.0
C1617 C 0.48772 0.01207 0.78452 0.0
C1618 C 0.49313 0.02646 0.78314 0.0
C1619 C 0.48668 0.03117 0.77445 0.0
C1620 C 0.46942 0.98721 0.77892 0.0
C1621 C 0.50601 0.03684 0.79046 0.0
C1622 C 0.46352 0.01211 0.86673 0.0
C1623 C 0.45897 0.99823 0.86337 0.0
C1624 C 0.46791 0.99445 0.8575 0.0
C1625 C 0.48171 0.0047 0.85517 0.0
C1626 C 0.48653 0.01852 0.85929 0.0
C1627 C 0.47735 0.02202 0.86508 0.0
C1628 C 0.46256 0.97956 0.85352 0.0
C1629 C 0.50126 0.02965 0.85722 0.0
C1630 C 0.55198 0.96372 0.86098 0.0
C1631 C 0.54989 0.9739 0.86944 0.0
C1632 C 0.52884 0.97503 0.86622 0.0
C1633 C 0.51529 0.96653 0.86184 0.0
C1634 C 0.5078 0.97214 0.85614 0.0
C1635 C 0.51402 0.98664 0.85499 0.0
C1636 C 0.52742 0.99535 0.86018 0.0
C1637 C 0.53469 0.98945 0.86582 0.0
C1638 C 0.49341 0.96257 0.85096 0.0
C1639 C 0.53418 0.01086 0.85943 0.0
C1640 C 0.5113 0.99818 0.79237 0.0
C1641 C 0.50379 0.00316 0.78574 0.0
C1642 C 0.4953 0.0069 0.79243 0.0
C1643 C 0.49412 0.00555 0.80619 0.0
C1644 C 0.48538 0.00885 0.8132 0.0
C1645 C 0.4843 0.00747 0.82674 0.0
C1646 C 0.49188 0.00269 0.83379 0.0
C1647 C 0.49079 0.00119 0.84755 0.0
C1648 C 0.49824 0.99614 0.85423 0.0
C1649 C 0.50688 0.99258 0.8475 0.0
C1650 C 0.5083 0.99425 0.83377 0.0
C1651 C 0.51707 0.99097 0.82672 0.0
C1652 C 0.51821 0.99242 0.81319 0.0
C1653 C 0.51053 0.99706 0.80616 0.0
C1654 C 0.50182 0.00066 0.81308 0.0
C1655 C 0.5007 0.99924 0.82689 0.0
C1656 C 0.43915 0.02099 0.86073 0.0
C1657 C 0.44112 0.01083 0.86909 0.0
O1658 O 0.53879 0.98202 0.75649 0.0
O1659 O 0.5359 0.96895 0.87076 0.0
O1660 O 0.45505 0.01633 0.87181 0.0
O1661 O 0.47006 0.0268 0.75783 0.0
H1662 H 0.5398 0.99648 0.74348 0.0
H1663 H 0.52045 0.97366 0.73703 0.0
H1664 H 0.53198 0.96702 0.73444 0.0
H1665 H 0.53298 0.98061 0.72421 0.0
H1666 H 0.5481 0.00758 0.76515 0.0
H1667 H 0.51709 0.96517 0.76928 0.0
H1668 H 0.53204 0.02313 0.77767 0.0
H1669 H 0.54904 0.02529 0.77897 0.0
H1670 H 0.53805 0.02051 0.79311 0.0
H1671 H 0.4974 0.95827 0.7821 0.0
H1672 H 0.49246 0.97121 0.78464 0.0
H1673 H 0.50173 0.96811 0.79724 0.0
H1674 H 0.46795 0.01291 0.74323 0.0
H1675 H 0.47914 0.03086 0.72636 0.0
H1676 H 0.4901 0.03454 0.74059 0.0
H1677 H 0.48126 0.0441 0.73809 0.0
H1678 H 0.46051 0.00046 0.76303 0.0
H1679 H 0.49085 0.04215 0.77311 0.0
H1680 H 0.46845 0.98457 0.78947 0.0
H1681 H 0.47629 0.98386 0.77444 0.0
H1682 H 0.45911 0.98133 0.77411 0.0
H1683 H 0.50913 0.04766 0.78799 0.0
H1684 H 0.51461 0.03497 0.78813 0.0
H1685 H 0.5043 0.03556 0.80118 0.0
H1686 H 0.43683 0.00104 0.86328 0.0
H1687 H 0.44851 0.99031 0.86535 0.0
H1688 H 0.48084 0.03264 0.868 0.0
H1689 H 0.46363 0.97878 0.84277 0.0
H1690 H 0.45158 0.97279 0.85609 0.0
H1691 H 0.46881 0.97568 0.85841 0.0
H1692 H 0.5037 0.03961 0.86201 0.0
H1693 H 0.50315 0.03133 0.84655 0.0
H1694 H 0.50838 0.02633 0.86114 0.0
H1695 H 0.55494 0.98383 0.8641 0.0
H1696 H 0.56314 0.96733 0.86008 0.0
H1697 H 0.54763 0.96299 0.851 0.0
H1698 H 0.54674 0.95323 0.86524 0.0
H1699 H 0.51077 0.95542 0.86247 0.0
H1700 H 0.54492 0.99613 0.86985 0.0
H1701 H 0.49316 0.96354 0.84015 0.0
H1702 H 0.48616 0.96555 0.8552 0.0
H1703 H 0.48976 0.95159 0.85326 0.0
H1704 H 0.54438 0.01624 0.8645 0.0
H1705 H 0.52742 0.01438 0.86388 0.0
H1706 H 0.53558 0.01394 0.84899 0.0
H1707 H 0.50446 0.00403 0.77514 0.0
H1708 H 0.47927 0.01252 0.80828 0.0
H1709 H 0.47739 0.01016 0.83159 0.0
H1710 H 0.49722 0.99485 0.86476 0.0
H1711 H 0.52316 0.98725 0.83159 0.0
H1712 H 0.52513 0.98977 0.80828 0.0
H1713 H 0.42804 0.01683 0.8585 0.0
H1714 H 0.44464 0.02259 0.85132 0.0
H1715 H 0.44333 0.03115 0.8659 0.0
C1716 C 0.02743 0.56059 0.74359 0.0
C1717 C 0.01453 0.55841 0.75067 0.0
C1718 C 0.01334 0.55017 0.77259 0.0
C1719 C 0.99938 0.54066 0.7744 0.0
C1720 C 0.99532 0.52938 0.78268 0.0
C1721 C 0.0055 0.5275 0.78907 0.0
C1722 C 0.01963 0.53729 0.78741 0.0
C1723 C 0.02335 0.54868 0.77936 0.0
C1724 C 0.98019 0.51931 0.78439 0.0
C1725 C 0.03082 0.53551 0.79377 0.0
C1726 C 0.98796 0.4343 0.74425 0.0
C1727 C 0.98802 0.44626 0.7509 0.0
C1728 C 0.98951 0.45631 0.77214 0.0
C1729 C 0.00261 0.46611 0.77678 0.0
C1730 C 0.00451 0.4773 0.78467 0.0
C1731 C 0.99297 0.47857 0.78806 0.0
C1732 C 0.97966 0.46855 0.78351 0.0
C1733 C 0.97808 0.45747 0.77557 0.0
C1734 C 0.01886 0.48783 0.78928 0.0
C1735 C 0.96717 0.46957 0.78705 0.0
C1736 C 0.99173 0.45449 0.87137 0.0
C1737 C 0.00488 0.4641 0.86687 0.0
C1738 C 0.00715 0.47615 0.8606 0.0
C1739 C 0.99611 0.47873 0.85894 0.0
C1740 C 0.98299 0.46933 0.86389 0.0
C1741 C 0.98101 0.45737 0.87014 0.0
C1742 C 0.02135 0.48612 0.85568 0.0
C1743 C 0.97103 0.47182 0.86235 0.0
C1744 C 0.03735 0.58961 0.86928 0.0
C1745 C 0.02552 0.57746 0.87621 0.0
C1746 C 0.0229 0.5546 0.87259 0.0
C1747 C 0.03118 0.54915 0.86886 0.0
C1748 C 0.02554 0.53629 0.86238 0.0
C1749 C 0.01117 0.52855 0.85992 0.0
C1750 C 0.00261 0.53367 0.86435 0.0
C1751 C 0.00858 0.5467 0.87063 0.0
C1752 C 0.03498 0.53108 0.85796 0.0
C1753 C 0.98722 0.52547 0.86224 0.0
C1754 C 0.00142 0.51484 0.79673 0.0
C1755 C 0.99801 0.50269 0.78974 0.0
C1756 C 0.99499 0.49056 0.79618 0.0
C1757 C 0.99516 0.49041 0.81003 0.0
C1758 C 0.99216 0.47837 0.81682 0.0
C1759 C 0.9929 0.47847 0.83044 0.0
C1760 C 0.99679 0.49064 0.83779 0.0
C1761 C 0.9982 0.491 0.8516 0.0
C1762 C 0.00241 0.50335 0.85859 0.0
C1763 C 0.00529 0.51545 0.85214 0.0
C1764 C 0.00368 0.51523 0.83835 0.0
C1765 C 0.00634 0.52718 0.83155 0.0
C1766 C 0.00524 0.52699 0.81795 0.0
C1767 C 0.00174 0.51493 0.81059 0.0
C1768 C 0.99869 0.50268 0.81726 0.0
C1769 C 0.99958 0.50282 0.83115 0.0
C1770 C 0.98588 0.42352 0.86392 0.0
C1771 C 0.99478 0.43439 0.87434 0.0
O1772 O 0.01731 0.56059 0.76402 0.0
O1773 O 0.02906 0.56739 0.87825 0.0
O1774 O 0.98904 0.44257 0.87728 0.0
O1775 O 0.98792 0.44565 0.76445 0.0
H1776 H 0.00627 0.54753 0.74862 0.0
H1777 H 0.03042 0.5531 0.74716 0.0
H1778 H 0.03617 0.57122 0.74546 0.0
H1779 H 0.0254 0.55891 0.73286 0.0
H1780 H 0.9917 0.54205 0.76922 0.0
H1781 H 0.03411 0.55617 0.77787 0.0
H1782 H 0.97745 0.50939 0.77935 0.0
H1783 H 0.97363 0.52323 0.78026 0.0
H1784 H 0.97785 0.51716 0.79495 0.0
H1785 H 0.04121 0.54306 0.79018 0.0
H1786 H 0.02896 0.5249 0.79186 0.0
H1787 H 0.03073 0.53693 0.80454 0.0
H1788 H 0.98053 0.44914 0.7469 0.0
H1789 H 0.00708 0.4432 0.73503 0.0
H1790 H 0.9779 0.42886 0.73863 0.0
H1791 H 0.98476 0.42599 0.75179 0.0
H1792 H 0.01137 0.46507 0.77412 0.0
H1793 H 0.96797 0.44972 0.77197 0.0
H1794 H 0.01923 0.48861 0.80015 0.0
H1795 H 0.0216 0.49815 0.78549 0.0
H1796 H 0.0267 0.48521 0.78598 0.0
H1797 H 0.95751 0.46089 0.78281 0.0
H1798 H 0.96839 0.47947 0.78348 0.0
H1799 H 0.96625 0.46963 0.79788 0.0
H1800 H 0.00524 0.44058 0.87027 0.0
H1801 H 0.01348 0.46244 0.86839 0.0
H1802 H 0.97097 0.45002 0.87386 0.0
H1803 H 0.0209 0.48731 0.84493 0.0
H1804 H 0.02888 0.48267 0.85779 0.0
H1805 H 0.02512 0.49644 0.86035 0.0
H1806 H 0.96154 0.46366 0.86698 0.0
H1807 H 0.96887 0.47219 0.85177 0.0
H1808 H 0.97372 0.48199 0.86683 0.0
H1809 H 0.0163 0.57352 0.86965 0.0
H1810 H 0.03473 0.59781 0.8674 0.0
H1811 H 0.03925 0.58604 0.85972 0.0
H1812 H 0.04695 0.59406 0.87533 0.0
H1813 H 0.04219 0.55523 0.87068 0.0
H1814 H 0.00207 0.55064 0.87406 0.0
H1815 H 0.03356 0.52866 0.84728 0.0
H1816 H 0.0323 0.52139 0.86312 0.0
H1817 H 0.046 0.5387 0.86 0.0
H1818 H 0.98188 0.53034 0.86721 0.0
H1819 H 0.9831 0.51484 0.86595 0.0
H1820 H 0.9848 0.52459 0.85158 0.0
H1821 H 0.99813 0.50278 0.7791 0.0
H1822 H 0.98928 0.46876 0.81167 0.0
H1823 H 0.99056 0.46891 0.83512 0.0
H1824 H 0.00383 0.50363 0.86915 0.0
H1825 H 0.00936 0.53685 0.83666 0.0
H1826 H 0.0074 0.53649 0.81325 0.0
H1827 H 0.99023 0.41674 0.86161 0.0
H1828 H 0.98564 0.42871 0.85478 0.0
H1829 H 0.97515 0.41705 0.86735 0.0
C1830 C 0.52408 0.56825 0.74492 0.0
C1831 C 0.53525 0.57174 0.75544 0.0
C1832 C 0.52312 0.55195 0.77007 0.0
C1833 C 0.51421 0.55607 0.7755 0.0
C1834 C 0.5034 0.54724 0.78364 0.0
C1835 C 0.50149 0.53405 0.7865 0.0
C1836 C 0.51073 0.53006 0.78148 0.0
C1837 C 0.52146 0.5391 0.77336 0.0
C1838 C 0.49377 0.55185 0.7889 0.0
C1839 C 0.50904 0.51611 0.78444 0.0
C1840 C 0.41762 0.48255 0.73345 0.0
C1841 C 0.42405 0.4767 0.74282 0.0
C1842 C 0.43133 0.48466 0.76521 0.0
C1843 C 0.44095 0.48031 0.76709 0.0
C1844 C 0.45153 0.48682 0.77653 0.0
C1845 C 0.45267 0.49813 0.78401 0.0
C1846 C 0.44275 0.50232 0.78228 0.0
C1847 C 0.43198 0.49525 0.77312 0.0
C1848 C 0.46171 0.48186 0.77825 0.0
C1849 C 0.44377 0.51458 0.78971 0.0
C1850 C 0.42344 0.4838 0.86701 0.0
C1851 C 0.43151 0.47765 0.8646 0.0
C1852 C 0.44443 0.48516 0.8587 0.0
C1853 C 0.44929 0.49901 0.85508 0.0
C1854 C 0.44135 0.50533 0.85792 0.0
C1855 C 0.42858 0.49766 0.86399 0.0
C1856 C 0.45285 0.47827 0.85618 0.0
C1857 C 0.44626 0.52013 0.85434 0.0
C1858 C 0.54915 0.5814 0.86793 0.0
C1859 C 0.53988 0.57694 0.87995 0.0
C1860 C 0.5213 0.55379 0.87294 0.0
C1861 C 0.51744 0.53981 0.87277 0.0
C1862 C 0.5063 0.53012 0.86503 0.0
C1863 C 0.49858 0.53451 0.85753 0.0
C1864 C 0.50214 0.54859 0.85797 0.0
C1865 C 0.5136 0.55812 0.86547 0.0
C1866 C 0.50284 0.51523 0.86479 0.0
C1867 C 0.49385 0.55361 0.85052 0.0
C1868 C 0.48918 0.52407 0.79382 0.0
C1869 C 0.47728 0.51541 0.78652 0.0
C1870 C 0.46493 0.50637 0.79261 0.0
C1871 C 0.46438 0.50591 0.80646 0.0
C1872 C 0.45214 0.49699 0.81295 0.0
C1873 C 0.4515 0.49722 0.82657 0.0
C1874 C 0.46316 0.50618 0.83423 0.0
C1875 C 0.46249 0.50686 0.84804 0.0
C1876 C 0.47427 0.51591 0.85534 0.0
C1877 C 0.48678 0.52443 0.84923 0.0
C1878 C 0.48767 0.52387 0.83542 0.0
C1879 C 0.5001 0.53224 0.82893 0.0
C1880 C 0.50067 0.53223 0.81531 0.0
C1881 C 0.48887 0.52372 0.80766 0.0
C1882 C 0.47636 0.51474 0.814 0.0
C1883 C 0.47576 0.51484 0.8279 0.0
C1884 C 0.38732 0.46049 0.86754 0.0
C1885 C 0.40155 0.4627 0.87111 0.0
O1886 O 0.53321 0.55982 0.76149 0.0
O1887 O 0.53242 0.56262 0.88045 0.0
O1888 O 0.41071 0.47678 0.8723 0.0
O1889 O 0.42155 0.47906 0.75561 0.0
H1890 H 0.53491 0.57891 0.76289 0.0
H1891 H 0.51376 0.56363 0.74939 0.0
H1892 H 0.52394 0.56077 0.73756 0.0
H1893 H 0.526 0.57779 0.73984 0.0
H1894 H 0.51541 0.56605 0.7733 0.0
H1895 H 0.52843 0.53603 0.76925 0.0
H1896 H 0.48315 0.54479 0.78515 0.0
H1897 H 0.49684 0.56257 0.78607 0.0
H1898 H 0.49351 0.55129 0.79976 0.0
H1899 H 0.51764 0.51494 0.78058 0.0
H1900 H 0.49923 0.50788 0.78 0.0
H1901 H 0.50844 0.51455 0.7952 0.0
H1902 H 0.43535 0.4824 0.74097 0.0
H1903 H 0.41961 0.4809 0.72311 0.0
H1904 H 0.42225 0.49383 0.73531 0.0
H1905 H 0.40633 0.47752 0.7349 0.0
H1906 H 0.44022 0.47188 0.76112 0.0
H1907 H 0.4244 0.49843 0.7716 0.0
H1908 H 0.46376 0.48129 0.78883 0.0
H1909 H 0.4716 0.48932 0.77371 0.0
H1910 H 0.458 0.47154 0.77357 0.0
H1911 H 0.43653 0.51775 0.78576 0.0
H1912 H 0.45441 0.52354 0.78931 0.0
H1913 H 0.44133 0.51193 0.80016 0.0
H1914 H 0.40454 0.45811 0.8629 0.0
H1915 H 0.4278 0.46706 0.86739 0.0
H1916 H 0.42236 0.50235 0.86609 0.0
H1917 H 0.45389 0.47737 0.84545 0.0
H1918 H 0.44811 0.46779 0.86042 0.0
H1919 H 0.46338 0.48471 0.86041 0.0
H1920 H 0.4386 0.52333 0.85671 0.0
H1921 H 0.44844 0.52152 0.84369 0.0
H1922 H 0.45601 0.52709 0.85971 0.0
H1923 H 0.53278 0.58114 0.8794 0.0
H1924 H 0.55516 0.59285 0.8674 0.0
H1925 H 0.54282 0.57736 0.85882 0.0
H1926 H 0.5564 0.57736 0.86839 0.0
H1927 H 0.52339 0.53654 0.87858 0.0
H1928 H 0.51632 0.56885 0.86547 0.0
H1929 H 0.50208 0.51151 0.8545 0.0
H1930 H 0.49267 0.50873 0.86935 0.0
H1931 H 0.51064 0.51373 0.87016 0.0
H1932 H 0.49641 0.56419 0.8537 0.0
H1933 H 0.48265 0.54651 0.85185 0.0
H1934 H 0.49598 0.5538 0.8399 0.0
H1935 H 0.47756 0.51594 0.7759 0.0
H1936 H 0.44286 0.48988 0.80755 0.0
H1937 H 0.44172 0.49033 0.831 0.0
H1938 H 0.47359 0.51659 0.86591 0.0
H1939 H 0.50951 0.53904 0.83432 0.0
H1940 H 0.51046 0.53905 0.81083 0.0
H1941 H 0.38367 0.46493 0.87529 0.0
H1942 H 0.37977 0.44928 0.86632 0.0
H1943 H 0.38781 0.46563 0.85815 0.0
C1944 C 0.65626 0.79375 0.60013 0.0
C1945 C 0.6451 0.77945 0.5951 0.0
C1946 C 0.64116 0.78543 0.57337 0.0
C1947 C 0.62779 0.78338 0.57406 0.0
C1948 C 0.62363 0.7907 0.56594 0.0
C1949 C 0.63311 0.80039 0.55707 0.0
C1950 C 0.64654 0.80227 0.55621 0.0
C1951 C 0.65029 0.79453 0.56421 0.0
C1952 C 0.60917 0.78826 0.56697 0.0
C1953 C 0.65704 0.81273 0.54711 0.0
C1954 C 0.65681 0.90458 0.58176 0.0
C1955 C 0.65386 0.89349 0.57186 0.0
C1956 C 0.6384 0.86886 0.56771 0.0
C1957 C 0.64678 0.86779 0.5581 0.0
C1958 C 0.64313 0.85507 0.55207 0.0
C1959 C 0.63068 0.84314 0.55548 0.0
C1960 C 0.62213 0.84415 0.56504 0.0
C1961 C 0.62614 0.85702 0.57107 0.0
C1962 C 0.65267 0.85439 0.54207 0.0
C1963 C 0.60878 0.83164 0.56885 0.0
C1964 C 0.597 0.845 0.47744 0.0
C1965 C 0.61106 0.84939 0.47898 0.0
C1966 C 0.61531 0.84065 0.48444 0.0
C1967 C 0.60529 0.82735 0.48863 0.0
C1968 C 0.59114 0.82269 0.48651 0.0
C1969 C 0.5872 0.83155 0.48077 0.0
C1970 C 0.63051 0.84576 0.48603 0.0
C1971 C 0.58018 0.80851 0.49068 0.0
C1972 C 0.62287 0.74498 0.47842 0.0
C1973 C 0.61675 0.74766 0.46606 0.0
C1974 C 0.61981 0.77048 0.47202 0.0
C1975 C 0.62968 0.78451 0.47208 0.0
C1976 C 0.6281 0.7941 0.47976 0.0
C1977 C 0.61608 0.78955 0.48729 0.0
C1978 C 0.60579 0.77542 0.48695 0.0
C1979 C 0.60785 0.76597 0.47947 0.0
C1980 C 0.63933 0.80908 0.47988 0.0
C1981 C 0.59262 0.7703 0.49447 0.0
C1982 C 0.62923 0.80915 0.54937 0.0
C1983 C 0.63028 0.82084 0.55565 0.0
C1984 C 0.6269 0.82966 0.5491 0.0
C1985 C 0.62174 0.82646 0.53608 0.0
C1986 C 0.61736 0.83459 0.52952 0.0
C1987 C 0.61297 0.8318 0.5165 0.0
C1988 C 0.61318 0.82102 0.50942 0.0
C1989 C 0.60955 0.81865 0.49594 0.0
C1990 C 0.61024 0.8081 0.48913 0.0
C1991 C 0.61435 0.79968 0.49543 0.0
C1992 C 0.61761 0.80162 0.50901 0.0
C1993 C 0.62143 0.79313 0.51578 0.0
C1994 C 0.62479 0.79526 0.5291 0.0
C1995 C 0.62504 0.80634 0.53603 0.0
C1996 C 0.62121 0.81501 0.5294 0.0
C1997 C 0.61722 0.81247 0.51596 0.0
C1998 C 0.58849 0.87178 0.47869 0.0
C1999 C 0.59915 0.86768 0.47493 0.0
O2000 O 0.64553 0.77888 0.58152 0.0
O2001 O 0.62226 0.76177 0.46458 0.0
O2002 O 0.59255 0.85349 0.47292 0.0
O2003 O 0.6419 0.88104 0.57399 0.0
H2004 H 0.63488 0.77772 0.59822 0.0
H2005 H 0.65446 0.80188 0.59603 0.0
H2006 H 0.66662 0.79582 0.59713 0.0
H2007 H 0.65603 0.79445 0.61099 0.0
H2008 H 0.62061 0.77602 0.58092 0.0
H2009 H 0.66056 0.79595 0.56373 0.0
H2010 H 0.60952 0.79764 0.57121 0.0
H2011 H 0.60261 0.77934 0.57326 0.0
H2012 H 0.60431 0.78638 0.55707 0.0
H2013 H 0.66733 0.81369 0.54835 0.0
H2014 H 0.65806 0.82302 0.54891 0.0
H2015 H 0.65356 0.80966 0.53679 0.0
H2016 H 0.65485 0.89676 0.56144 0.0
H2017 H 0.67503 0.90795 0.59098 0.0
H2018 H 0.64695 0.90119 0.58721 0.0
H2019 H 0.65616 0.91286 0.57615 0.0
H2020 H 0.65627 0.87682 0.5553 0.0
H2021 H 0.61971 0.85789 0.57847 0.0
H2022 H 0.64771 0.85219 0.53221 0.0
H2023 H 0.65471 0.84589 0.54437 0.0
H2024 H 0.66267 0.86421 0.54166 0.0
H2025 H 0.60279 0.83431 0.57571 0.0
H2026 H 0.61099 0.82406 0.5736 0.0
H2027 H 0.60238 0.82654 0.55995 0.0
H2028 H 0.60648 0.8708 0.48341 0.0
H2029 H 0.61871 0.85965 0.47597 0.0
H2030 H 0.57638 0.82819 0.47932 0.0
H2031 H 0.63348 0.848 0.49655 0.0
H2032 H 0.63689 0.85533 0.48045 0.0
H2033 H 0.63287 0.83769 0.48269 0.0
H2034 H 0.56962 0.8066 0.4887 0.0
H2035 H 0.58133 0.8073 0.50133 0.0
H2036 H 0.58148 0.80051 0.48537 0.0
H2037 H 0.60537 0.74251 0.46689 0.0
H2038 H 0.61854 0.73372 0.47977 0.0
H2039 H 0.62036 0.74919 0.48723 0.0
H2040 H 0.63425 0.75003 0.47771 0.0
H2041 H 0.63883 0.7879 0.46624 0.0
H2042 H 0.59999 0.75518 0.47941 0.0
H2043 H 0.64235 0.81296 0.49013 0.0
H2044 H 0.63543 0.81537 0.47516 0.0
H2045 H 0.64863 0.81068 0.47458 0.0
H2046 H 0.585 0.75934 0.49203 0.0
H2047 H 0.58792 0.77677 0.49235 0.0
H2048 H 0.59493 0.7712 0.50514 0.0
H2049 H 0.63421 0.82334 0.56566 0.0
H2050 H 0.61727 0.84319 0.53441 0.0
H2051 H 0.60969 0.83841 0.51198 0.0
H2052 H 0.60777 0.80656 0.47872 0.0
H2053 H 0.62182 0.78469 0.51088 0.0
H2054 H 0.62752 0.78833 0.53383 0.0
H2055 H 0.58048 0.86864 0.47087 0.0
H2056 H 0.59355 0.88314 0.48035 0.0
H2057 H 0.58337 0.8666 0.4879 0.0
C2058 C 0.14065 0.75627 0.616 0.0
C2059 C 0.13257 0.76026 0.60664 0.0
C2060 C 0.14132 0.76666 0.58468 0.0
C2061 C 0.13816 0.777 0.58187 0.0
C2062 C 0.14598 0.78734 0.57288 0.0
C2063 C 0.15732 0.78742 0.56677 0.0
C2064 C 0.16027 0.77672 0.56936 0.0
C2065 C 0.15199 0.76629 0.57809 0.0
C2066 C 0.14234 0.79837 0.57015 0.0
C2067 C 0.17245 0.77659 0.56332 0.0
C2068 C 0.24008 0.88281 0.60654 0.0
C2069 C 0.23196 0.86906 0.59993 0.0
C2070 C 0.21383 0.85745 0.58323 0.0
C2071 C 0.2161 0.84629 0.58117 0.0
C2072 C 0.20741 0.8352 0.57281 0.0
C2073 C 0.19608 0.83514 0.56657 0.0
C2074 C 0.19381 0.8464 0.56854 0.0
C2075 C 0.20284 0.85749 0.57675 0.0
C2076 C 0.21021 0.82343 0.57081 0.0
C2077 C 0.18172 0.84657 0.5622 0.0
C2078 C 0.22052 0.85361 0.48201 0.0
C2079 C 0.22342 0.84417 0.48824 0.0
C2080 C 0.21314 0.83287 0.49497 0.0
C2081 C 0.19975 0.83108 0.49567 0.0
C2082 C 0.19675 0.84045 0.48931 0.0
C2083 C 0.20718 0.85155 0.48249 0.0
C2084 C 0.21662 0.82291 0.50145 0.0
C2085 C 0.18259 0.83885 0.48986 0.0
C2086 C 0.11349 0.72292 0.48552 0.0
C2087 C 0.11868 0.7376 0.48069 0.0
C2088 C 0.14183 0.7573 0.48447 0.0
C2089 C 0.15507 0.76034 0.4882 0.0
C2090 C 0.16441 0.77314 0.49401 0.0
C2091 C 0.16042 0.7832 0.49592 0.0
C2092 C 0.14735 0.78052 0.4914 0.0
C2093 C 0.13817 0.76758 0.4857 0.0
C2094 C 0.17836 0.77576 0.49851 0.0
C2095 C 0.14296 0.79119 0.49294 0.0
C2096 C 0.16685 0.79933 0.5587 0.0
C2097 C 0.17626 0.81147 0.56535 0.0
C2098 C 0.18616 0.82291 0.55863 0.0
C2099 C 0.18678 0.82231 0.54482 0.0
C2100 C 0.19677 0.83354 0.53775 0.0
C2101 C 0.1974 0.83276 0.52417 0.0
C2102 C 0.18817 0.82066 0.51714 0.0
C2103 C 0.18899 0.81961 0.50337 0.0
C2104 C 0.17971 0.8074 0.49671 0.0
C2105 C 0.16956 0.7961 0.50344 0.0
C2106 C 0.16854 0.79696 0.5172 0.0
C2107 C 0.15842 0.7858 0.52427 0.0
C2108 C 0.15769 0.78663 0.53783 0.0
C2109 C 0.16714 0.79858 0.54487 0.0
C2110 C 0.17724 0.81008 0.53792 0.0
C2111 C 0.17794 0.80926 0.52407 0.0
C2112 C 0.25133 0.87724 0.48776 0.0
C2113 C 0.2442 0.86971 0.47492 0.0
O2114 O 0.13437 0.75709 0.59389 0.0
O2115 O 0.13291 0.74435 0.47986 0.0
O2116 O 0.23016 0.86482 0.47552 0.0
O2117 O 0.2219 0.86827 0.5914 0.0
H2118 H 0.13679 0.77161 0.60794 0.0
H2119 H 0.15176 0.76208 0.61358 0.0
H2120 H 0.13699 0.74502 0.61514 0.0
H2121 H 0.13949 0.75884 0.62629 0.0
H2122 H 0.12964 0.77702 0.58681 0.0
H2123 H 0.15422 0.75814 0.58029 0.0
H2124 H 0.1501 0.80823 0.57495 0.0
H2125 H 0.13202 0.79561 0.57392 0.0
H2126 H 0.14252 0.80015 0.55945 0.0
H2127 H 0.17422 0.76847 0.56751 0.0
H2128 H 0.18193 0.78678 0.56483 0.0
H2129 H 0.1707 0.77465 0.5526 0.0
H2130 H 0.22807 0.86001 0.60651 0.0
H2131 H 0.25998 0.89032 0.59935 0.0
H2132 H 0.23762 0.88079 0.61725 0.0
H2133 H 0.23412 0.88837 0.60519 0.0
H2134 H 0.22462 0.84615 0.58605 0.0
H2135 H 0.20119 0.86615 0.57837 0.0
H2136 H 0.21004 0.82106 0.56018 0.0
H2137 H 0.20198 0.81403 0.57549 0.0
H2138 H 0.2203 0.82577 0.57509 0.0
H2139 H 0.18104 0.8558 0.5652 0.0
H2140 H 0.172 0.83713 0.56483 0.0
H2141 H 0.18261 0.84649 0.55137 0.0
H2142 H 0.24607 0.86094 0.47318 0.0
H2143 H 0.23365 0.84552 0.48797 0.0
H2144 H 0.205 0.85883 0.47763 0.0
H2145 H 0.21609 0.82377 0.51226 0.0
H2146 H 0.22708 0.82494 0.49895 0.0
H2147 H 0.20898 0.81212 0.49848 0.0
H2148 H 0.18205 0.84731 0.48479 0.0
H2149 H 0.17959 0.8387 0.50024 0.0
H2150 H 0.17496 0.82884 0.48522 0.0
H2151 H 0.11547 0.7427 0.48821 0.0
H2152 H 0.10207 0.71724 0.48611 0.0
H2153 H 0.11781 0.72335 0.49546 0.0
H2154 H 0.11671 0.71714 0.47886 0.0
H2155 H 0.15788 0.75242 0.48698 0.0
H2156 H 0.12814 0.76551 0.48231 0.0
H2157 H 0.17945 0.77754 0.5093 0.0
H2158 H 0.18656 0.78523 0.4939 0.0
H2159 H 0.18001 0.76699 0.49605 0.0
H2160 H 0.1329 0.78794 0.48803 0.0
H2161 H 0.15087 0.80116 0.4888 0.0
H2162 H 0.1421 0.79303 0.50353 0.0
H2163 H 0.17604 0.81194 0.57598 0.0
H2164 H 0.20423 0.84305 0.54265 0.0
H2165 H 0.20529 0.84175 0.51926 0.0
H2166 H 0.18049 0.80661 0.48617 0.0
H2167 H 0.15096 0.77626 0.51941 0.0
H2168 H 0.14968 0.77773 0.54276 0.0
H2169 H 0.2626 0.88128 0.48724 0.0
H2170 H 0.2473 0.87008 0.49611 0.0
H2171 H 0.2495 0.886 0.4897 0.0
C2172 C 0.14484 0.3618 0.61116 0.0
C2173 C 0.13542 0.36401 0.60175 0.0
C2174 C 0.14441 0.36067 0.58107 0.0
C2175 C 0.15497 0.37437 0.57929 0.0
C2176 C 0.16588 0.37739 0.57082 0.0
C2177 C 0.16636 0.36649 0.56412 0.0
C2178 C 0.15548 0.35273 0.5655 0.0
C2179 C 0.14451 0.35004 0.57381 0.0
C2180 C 0.17712 0.39223 0.56931 0.0
C2181 C 0.15571 0.34083 0.55859 0.0
C2182 C 0.24342 0.3903 0.61767 0.0
C2183 C 0.24079 0.37912 0.60742 0.0
C2184 C 0.23487 0.38235 0.58537 0.0
C2185 C 0.22522 0.36877 0.58157 0.0
C2186 C 0.21507 0.36613 0.57204 0.0
C2187 C 0.21451 0.37734 0.56637 0.0
C2188 C 0.22456 0.39108 0.56991 0.0
C2189 C 0.23481 0.39339 0.5792 0.0
C2190 C 0.20474 0.35137 0.5683 0.0
C2191 C 0.22416 0.40332 0.56431 0.0
C2192 C 0.24573 0.39556 0.48429 0.0
C2193 C 0.23684 0.38137 0.48615 0.0
C2194 C 0.22387 0.37657 0.4918 0.0
C2195 C 0.21982 0.38618 0.49577 0.0
C2196 C 0.22859 0.40043 0.49348 0.0
C2197 C 0.24138 0.4049 0.48762 0.0
C2198 C 0.21456 0.36128 0.49369 0.0
C2199 C 0.22458 0.41098 0.49744 0.0
C2200 C 0.12651 0.38246 0.4813 0.0
C2201 C 0.1337 0.38074 0.46929 0.0
C2202 C 0.1489 0.37291 0.4787 0.0
C2203 C 0.15069 0.36149 0.48015 0.0
C2204 C 0.16178 0.36245 0.48747 0.0
C2205 C 0.17135 0.37522 0.49347 0.0
C2206 C 0.16974 0.38689 0.49191 0.0
C2207 C 0.15853 0.38563 0.48456 0.0
C2208 C 0.1632 0.34981 0.48895 0.0
C2209 C 0.1798 0.40067 0.49816 0.0
C2210 C 0.17883 0.36941 0.55666 0.0
C2211 C 0.19029 0.37129 0.56386 0.0
C2212 C 0.20267 0.3747 0.55777 0.0
C2213 C 0.20367 0.37606 0.544 0.0
C2214 C 0.21591 0.37931 0.53752 0.0
C2215 C 0.21693 0.3811 0.52401 0.0
C2216 C 0.20566 0.37947 0.51644 0.0
C2217 C 0.20666 0.38148 0.50273 0.0
C2218 C 0.19526 0.37978 0.49551 0.0
C2219 C 0.18285 0.3763 0.50164 0.0
C2220 C 0.18168 0.37434 0.51535 0.0
C2221 C 0.16939 0.371 0.52185 0.0
C2222 C 0.16842 0.36939 0.53537 0.0
C2223 C 0.17965 0.37092 0.5429 0.0
C2224 C 0.19212 0.37422 0.53655 0.0
C2225 C 0.19313 0.37593 0.52276 0.0
C2226 C 0.28151 0.40631 0.48376 0.0
C2227 C 0.26688 0.39485 0.48029 0.0
O2228 O 0.13417 0.35729 0.58984 0.0
O2229 O 0.13773 0.37108 0.47168 0.0
O2230 O 0.25852 0.40066 0.47928 0.0
O2231 O 0.24415 0.38504 0.59515 0.0
H2232 H 0.13986 0.37526 0.6002 0.0
H2233 H 0.15536 0.36635 0.6071 0.0
H2234 H 0.14076 0.35059 0.61267 0.0
H2235 H 0.14566 0.36693 0.62079 0.0
H2236 H 0.15483 0.38278 0.58449 0.0
H2237 H 0.13625 0.33952 0.57513 0.0
H2238 H 0.18664 0.39386 0.57433 0.0
H2239 H 0.17426 0.39962 0.5736 0.0
H2240 H 0.1795 0.39459 0.55879 0.0
H2241 H 0.14666 0.3307 0.561 0.0
H2242 H 0.16524 0.34072 0.56136 0.0
H2243 H 0.15584 0.34219 0.54783 0.0
H2244 H 0.2296 0.37128 0.6078 0.0
H2245 H 0.24073 0.38578 0.62759 0.0
H2246 H 0.23693 0.39495 0.61539 0.0
H2247 H 0.2544 0.39862 0.61772 0.0
H2248 H 0.22556 0.36025 0.58616 0.0
H2249 H 0.24244 0.40384 0.58216 0.0
H2250 H 0.20342 0.35018 0.55747 0.0
H2251 H 0.19459 0.34861 0.57251 0.0
H2252 H 0.20784 0.344 0.57197 0.0
H2253 H 0.23197 0.41325 0.56897 0.0
H2254 H 0.21381 0.40213 0.56564 0.0
H2255 H 0.22612 0.40384 0.55363 0.0
H2256 H 0.26346 0.38738 0.48847 0.0
H2257 H 0.23997 0.37403 0.48314 0.0
H2258 H 0.24824 0.4158 0.48594 0.0
H2259 H 0.21345 0.35907 0.50433 0.0
H2260 H 0.21861 0.35506 0.48895 0.0
H2261 H 0.20414 0.35793 0.4896 0.0
H2262 H 0.23294 0.42174 0.49577 0.0
H2263 H 0.22185 0.40991 0.50798 0.0
H2264 H 0.21534 0.40909 0.49171 0.0
H2265 H 0.14286 0.39086 0.46699 0.0
H2266 H 0.12312 0.39006 0.47929 0.0
H2267 H 0.13365 0.38631 0.48989 0.0
H2268 H 0.11739 0.37242 0.48386 0.0
H2269 H 0.14324 0.35172 0.4756 0.0
H2270 H 0.15738 0.39462 0.48357 0.0
H2271 H 0.16286 0.34732 0.4995 0.0
H2272 H 0.17333 0.35193 0.4852 0.0
H2273 H 0.15493 0.34065 0.48361 0.0
H2274 H 0.17734 0.40887 0.49575 0.0
H2275 H 0.19038 0.40395 0.49482 0.0
H2276 H 0.17975 0.39967 0.50897 0.0
H2277 H 0.18963 0.37035 0.57445 0.0
H2278 H 0.22488 0.38063 0.54284 0.0
H2279 H 0.22668 0.38378 0.51959 0.0
H2280 H 0.19613 0.38145 0.48502 0.0
H2281 H 0.1604 0.36968 0.51656 0.0
H2282 H 0.15876 0.36693 0.53986 0.0
H2283 H 0.28844 0.40196 0.48495 0.0
H2284 H 0.28151 0.41145 0.49315 0.0
H2285 H 0.2856 0.4142 0.47597 0.0
C2286 C 0.00322 0.37166 0.04762 0.0
C2287 C 0.99175 0.36304 0.03966 0.0
C2288 C 0.00177 0.37827 0.05866 0.0
C2289 C 0.9822 0.39297 0.07157 0.0
H2290 H 0.99805 0.39177 0.10512 0.0
C2291 C -0.00013 0.43518 0.11199 0.0
C2292 C 0.99618 0.43087 0.12497 0.0
C2293 C 0.99688 0.4255 0.1019 0.0
C2294 C 0.99343 0.39207 0.09586 0.0
H2295 H 0.96978 0.35453 0.03691 0.0
H2296 H 0.96733 0.36655 0.05614 0.0
H2297 H 0.99738 0.37697 0.08692 0.0
H2298 H 0.98683 0.41311 0.13757 0.0
H2299 H 0.98186 0.39614 0.11989 0.0
H2300 H 0.97885 0.40856 0.08034 0.0
C2301 C 0.97737 0.36799 0.05386 0.0
C2302 C 0.99312 0.38368 0.08546 0.0
C2303 C 0.97877 0.36112 0.04292 0.0
C2304 C 0.98957 0.41668 0.12763 0.0
C2305 C 0.98677 0.40701 0.11756 0.0
C2306 C 0.98273 0.40155 0.08191 0.0
C2307 C 0.98887 0.37657 0.06182 0.0
C2308 C 0.9877 0.38422 0.07318 0.0
C2309 C 0.99046 0.41135 0.10462 0.0
C2310 C 0.98854 0.40131 0.09408 0.0
H2311 H 0.01334 0.37327 0.04535 0.0
H2312 H 0.01081 0.38495 0.06459 0.0
H2313 H 0.97806 0.39361 0.06215 0.0
H2314 H 0.00528 0.44605 0.10965 0.0
H2315 H 5e-05 0.42912 0.09204 0.0
C2316 C 0.6372 0.62464 0.05573 0.0
C2317 C 0.63853 0.62015 0.04318 0.0
C2318 C 0.63172 0.61528 0.06595 0.0
C2319 C 0.6077 0.57906 0.07175 0.0
H2320 H 0.62353 0.5869 0.10689 0.0
C2321 C 0.57743 0.55011 0.11748 0.0
C2322 C 0.58393 0.54509 0.12581 0.0
C2323 C 0.58465 0.5589 0.10725 0.0
C2324 C 0.61905 0.58456 0.0971 0.0
H2325 H 0.63548 0.60246 0.03153 0.0
H2326 H 0.62566 0.58603 0.04939 0.0
H2327 H 0.63574 0.60302 0.08925 0.0
H2328 H 0.60323 0.54594 0.13035 0.0
H2329 H 0.61594 0.56157 0.11257 0.0
H2330 H 0.59086 0.56077 0.07965 0.0
C2331 C 0.6289 0.5968 0.05129 0.0
C2332 C 0.62598 0.59379 0.08705 0.0
C2333 C 0.63458 0.6062 0.04111 0.0
C2334 C 0.59792 0.54945 0.12393 0.0
C2335 C 0.60519 0.55843 0.11383 0.0
C2336 C 0.60067 0.56994 0.08183 0.0
C2337 C 0.62729 0.60123 0.06376 0.0
C2338 C 0.62035 0.59115 0.07429 0.0
C2339 C 0.5986 0.56316 0.10535 0.0
C2340 C 0.60625 0.57263 0.0946 0.0
H2341 H 0.64018 0.63535 0.0576 0.0
H2342 H 0.63049 0.61895 0.07544 0.0
H2343 H 0.60307 0.57685 0.06202 0.0
H2344 H 0.56678 0.54726 0.11886 0.0
H2345 H 0.5794 0.5626 0.10096 0.0
C2346 C 0.38119 0.01602 0.04675 0.0
C2347 C 0.37586 0.00476 0.03786 0.0
C2348 C 0.38822 0.01595 0.05812 0.0
C2349 C 0.39104 0.99155 0.08007 0.0
H2350 H 0.42439 0.02371 0.09306 0.0
C2351 C 0.42332 0.98764 0.12186 0.0
C2352 C 0.42856 0.99814 0.13156 0.0
C2353 C 0.41736 0.98907 0.11038 0.0
C2354 C 0.415 0.01469 0.08962 0.0
H2355 H 0.37414 0.98489 0.03363 0.0
H2356 H 0.38649 0.98486 0.05328 0.0
H2357 H 0.41323 0.02528 0.07299 0.0
H2358 H 0.43145 0.01823 0.13695 0.0
H2359 H 0.42091 0.02072 0.11686 0.0
H2360 H 0.39272 0.98095 0.09663 0.0
C2361 C 0.38503 0.99361 0.05165 0.0
C2362 C 0.40862 0.01559 0.07814 0.0
C2363 C 0.37803 0.99366 0.04034 0.0
C2364 C 0.42766 0.01008 0.12955 0.0
C2365 C 0.42168 0.01151 0.11804 0.0
C2366 C 0.39739 0.99066 0.09151 0.0
C2367 C 0.39001 0.00463 0.06078 0.0
C2368 C 0.39665 0.00398 0.07318 0.0
C2369 C 0.41637 0.00097 0.10837 0.0
C2370 C 0.40951 0.00217 0.09636 0.0
H2371 H 0.37966 0.02471 0.04508 0.0
H2372 H 0.39189 0.02457 0.06501 0.0
H2373 H 0.38165 0.9825 0.07666 0.0
H2374 H 0.42374 0.97827 0.12322 0.0
H2375 H 0.41351 0.98084 0.10305 0.0
C2376 C 0.3865 0.00921 0.97282 0.0
C2377 C 0.37297 0.99842 0.97468 0.0
C2378 C 0.39366 0.00949 0.96162 0.0
C2379 C 0.39492 0.98853 0.93411 0.0
H2380 H 0.41481 0.02415 0.91742 0.0
C2381 C 0.42038 0.99638 0.88314 0.0
C2382 C 0.43336 0.00826 0.88176 0.0
C2383 C 0.41282 0.99442 0.89456 0.0
C2384 C 0.40946 0.01416 0.92204 0.0
H2385 H 0.35647 0.9792 0.96649 0.0
H2386 H 0.36904 0.97973 0.94673 0.0
H2387 H 0.40196 0.02187 0.93722 0.0
H2388 H 0.44853 0.02747 0.89115 0.0
H2389 H 0.4355 0.02397 0.91116 0.0
H2390 H 0.4025 0.98086 0.91884 0.0
C2391 C 0.3741 0.98793 0.95402 0.0
C2392 C 0.40207 0.01285 0.93338 0.0
C2393 C 0.36689 0.98764 0.9653 0.0
C2394 C 0.43863 0.01814 0.89202 0.0
C2395 C 0.4311 0.01618 0.90341 0.0
C2396 C 0.40235 0.98985 0.92272 0.0
C2397 C 0.38746 0.99902 0.95197 0.0
C2398 C 0.39484 8e-05 0.93963 0.0
C2399 C 0.41805 0.00437 0.90476 0.0
C2400 C 0.40982 0.00273 0.91664 0.0
H2401 H 0.39152 0.01761 0.97993 0.0
H2402 H 0.40405 0.01802 0.96046 0.0
H2403 H 0.3895 0.97857 0.93875 0.0
H2404 H 0.416 0.9887 0.8753 0.0
H2405 H 0.40273 0.9853 0.89523 0.0
C2406 C 0.9879 0.3707 0.97389 0.0
C2407 C 0.99955 0.36961 0.97686 0.0
C2408 C 0.98782 0.37826 0.96314 0.0
C2409 C 0.01036 0.40507 0.93992 0.0
H2410 H 0.97726 0.3889 0.91819 0.0
C2411 C 0.00769 0.42693 0.88955 0.0
C2412 C 0.99571 0.42748 0.88665 0.0
C2413 C 0.00844 0.42022 0.90073 0.0
C2414 C 0.98652 0.39364 0.92424 0.0
H2415 H 0.02039 0.37581 0.97109 0.0
H2416 H 0.02023 0.38897 0.95217 0.0
H2417 H 0.97821 0.37674 0.93744 0.0
H2418 H 0.97505 0.42123 0.89302 0.0
H2419 H 0.97639 0.40962 0.91263 0.0
H2420 H 0.01866 0.42196 0.92664 0.0
C2421 C 0.01119 0.38406 0.95824 0.0
C2422 C 0.98707 0.38667 0.93528 0.0
C2423 C 0.01127 0.37649 0.96903 0.0
C2424 C 0.98445 0.42106 0.89509 0.0
C2425 C 0.98519 0.41434 0.90625 0.0
C2426 C 0.00981 0.41205 0.92886 0.0
C2427 C 0.99939 0.38489 0.95509 0.0
C2428 C 0.99896 0.39232 0.94328 0.0
C2429 C 0.99719 0.41382 0.90918 0.0
C2430 C 0.99786 0.40643 0.92092 0.0
H2431 H 0.97874 0.36558 0.97979 0.0
H2432 H 0.97867 0.3789 0.96113 0.0
H2433 H 0.01961 0.40977 0.94597 0.0
H2434 H 0.01645 0.43162 0.88311 0.0
H2435 H 0.01775 0.41982 0.90261 0.0
C2436 C 0.61664 0.63895 0.97411 0.0
C2437 C 0.61896 0.63037 0.98241 0.0
C2438 C 0.60738 0.6333 0.96352 0.0
C2439 C 0.57903 0.59996 0.94977 0.0
H2440 H 0.58893 0.61987 0.91711 0.0
C2441 C 0.55287 0.57531 0.89987 0.0
C2442 C 0.54855 0.58295 0.89232 0.0
C2443 C 0.56103 0.58118 0.91113 0.0
C2444 C 0.58599 0.61425 0.9262 0.0
H2445 H 0.61331 0.60916 0.98627 0.0
H2446 H 0.59749 0.59935 0.96765 0.0
H2447 H 0.60376 0.62996 0.93642 0.0
H2448 H 0.54998 0.60288 0.89029 0.0
H2449 H 0.56444 0.61323 0.90989 0.0
H2450 H 0.56146 0.58407 0.93934 0.0
C2451 C 0.60254 0.6104 0.96942 0.0
C2452 C 0.59443 0.62006 0.9373 0.0
C2453 C 0.61168 0.61603 0.98007 0.0
C2454 C 0.55296 0.5967 0.89605 0.0
C2455 C 0.56128 0.60263 0.9072 0.0
C2456 C 0.57068 0.59409 0.93863 0.0
C2457 C 0.60034 0.61896 0.96094 0.0
C2458 C 0.59109 0.61298 0.94923 0.0
C2459 C 0.56531 0.5949 0.91489 0.0
C2460 C 0.5741 0.60118 0.92674 0.0
H2461 H 0.62207 0.65004 0.97572 0.0
H2462 H 0.60577 0.6402 0.95736 0.0
H2463 H 0.57597 0.59432 0.95883 0.0
H2464 H 0.54996 0.56481 0.8971 0.0
H2465 H 0.56418 0.57508 0.91679 0.0
C2466 C 0.99792 0.61811 0.9784 0.0
C2467 C 0.00763 0.63183 0.98184 0.0
C2468 C -0.0 0.61164 0.96758 0.0
C2469 C 0.02669 0.61444 0.9444 0.0
H2470 H 0.99487 0.59051 0.9226 0.0
C2471 C 0.01316 0.58692 0.88962 0.0
C2472 C 0.02271 0.58231 0.88913 0.0
C2473 C 0.01122 0.59244 0.90124 0.0
C2474 C 0.00389 0.59725 0.92851 0.0
H2475 H 0.02722 0.6495 0.97677 0.0
H2476 H 0.03072 0.63834 0.95764 0.0
H2477 H 0.992 0.60148 0.94209 0.0
H2478 H 0.03801 0.58019 0.90036 0.0
H2479 H 0.03429 0.58935 0.92078 0.0
H2480 H 0.03865 0.61066 0.9305 0.0
C2481 C 0.02161 0.63246 0.96345 0.0
C2482 C 0.00222 0.60339 0.93982 0.0
C2483 C 0.01959 0.63889 0.97437 0.0
C2484 C 0.03037 0.58341 0.90051 0.0
C2485 C 0.02836 0.58883 0.91216 0.0
C2486 C 0.02838 0.60837 0.93303 0.0
C2487 C 0.01177 0.61878 0.95985 0.0
C2488 C 0.01359 0.61208 0.94791 0.0
C2489 C 0.01882 0.5935 0.91265 0.0
C2490 C 0.017 0.59972 0.92492 0.0
H2491 H 0.98865 0.61237 0.98404 0.0
H2492 H 0.99234 0.60101 0.96528 0.0
H2493 H 0.03566 0.62094 0.95047 0.0
H2494 H 0.00735 0.58648 0.88092 0.0
H2495 H 0.00399 0.59619 0.90116 0.0
C2496 C 0.36196 0.39181 0.96833 0.0
C2497 C 0.37043 0.38735 0.97409 0.0
C2498 C 0.36676 0.4011 0.95801 0.0
C2499 C 0.39314 0.41423 0.93217 0.0
H2500 H 0.38159 0.44139 0.9282 0.0
C2501 C 0.40158 0.46179 0.896 0.0
C2502 C 0.40085 0.45548 0.88378 0.0
C2503 C 0.39945 0.45447 0.90758 0.0
C2504 C 0.38509 0.43401 0.92923 0.0
H2505 H 0.39069 0.3894 0.97383 0.0
H2506 H 0.3992 0.40588 0.95603 0.0
H2507 H 0.37515 0.42727 0.94767 0.0
H2508 H 0.3971 0.43655 0.87409 0.0
H2509 H 0.39313 0.42366 0.89425 0.0
H2510 H 0.4033 0.42115 0.91384 0.0
C2511 C 0.38874 0.40198 0.95926 0.0
C2512 C 0.38122 0.42576 0.94033 0.0
C2513 C 0.3839 0.3926 0.96953 0.0
C2514 C 0.39799 0.44174 0.8834 0.0
C2515 C 0.39577 0.43438 0.89496 0.0
C2516 C 0.39709 0.42255 0.92111 0.0
C2517 C 0.38018 0.40624 0.95327 0.0
C2518 C 0.38503 0.41563 0.94186 0.0
C2519 C 0.39632 0.4406 0.9072 0.0
C2520 C 0.39297 0.43242 0.91941 0.0
H2521 H 0.35151 0.38788 0.97161 0.0
H2522 H 0.35979 0.40397 0.95352 0.0
H2523 H 0.39616 0.40645 0.93294 0.0
H2524 H 0.40354 0.4723 0.89658 0.0
H2525 H 0.40011 0.45964 0.91683 0.0
C2526 C 0.62246 0.00299 0.9677 0.0
C2527 C 0.62113 0.99199 0.97526 0.0
C2528 C 0.61354 0.00056 0.95712 0.0
C2529 C 0.58958 0.97289 0.93414 0.0
H2530 H 0.57863 0.99979 0.92564 0.0
C2531 C 0.55192 0.96474 0.89147 0.0
C2532 C 0.55656 0.97585 0.88282 0.0
C2533 C 0.55867 0.96634 0.90347 0.0
C2534 C 0.58164 0.99222 0.92789 0.0
H2535 H 0.60932 0.96984 0.97782 0.0
H2536 H 0.59348 0.96558 0.95949 0.0
H2537 H 0.59228 0.00302 0.94545 0.0
H2538 H 0.57156 0.99747 0.88018 0.0
H2539 H 0.58326 0.00033 0.90126 0.0
H2540 H 0.57882 0.96208 0.91657 0.0
C2541 C 0.60159 0.97607 0.96157 0.0
C2542 C 0.5895 0.99408 0.9392 0.0
C2543 C 0.61061 0.9785 0.97212 0.0
C2544 C 0.56779 0.98872 0.88663 0.0
C2545 C 0.57444 0.99037 0.8987 0.0
C2546 C 0.58159 0.97097 0.92289 0.0
C2547 C 0.60299 0.98708 0.95389 0.0
C2548 C 0.59377 0.98456 0.94237 0.0
C2549 C 0.57007 0.97915 0.90716 0.0
C2550 C 0.57771 0.98071 0.91956 0.0
H2551 H 0.63052 0.0135 0.96984 0.0
H2552 H 0.61513 0.00927 0.9513 0.0
H2553 H 0.59282 0.96546 0.93614 0.0
H2554 H 0.54319 0.95475 0.88883 0.0
H2555 H 0.555 0.95757 0.90988 0.0
C2556 C 0.63384 0.02255 0.04034 0.0
C2557 C 0.62986 0.00894 0.0365 0.0
C2558 C 0.62756 0.0251 0.05099 0.0
C2559 C 0.59686 0.00779 0.07244 0.0
H2560 H 0.61936 0.03819 0.09644 0.0
C2561 C 0.58041 0.01236 0.12495 0.0
C2562 C 0.58279 0.02541 0.12915 0.0
C2563 C 0.58545 0.01078 0.11296 0.0
C2564 C 0.61292 0.02975 0.08974 0.0
H2565 H 0.61627 0.98733 0.04079 0.0
H2566 H 0.60566 0.99172 0.05952 0.0
H2567 H 0.62964 0.03469 0.07682 0.0
H2568 H 0.5919 0.04692 0.12387 0.0
H2569 H 0.60099 0.0442 0.10299 0.0
H2570 H 0.58027 0.00262 0.08567 0.0
C2571 C 0.61333 0.00047 0.05417 0.0
C2572 C 0.61879 0.02777 0.07846 0.0
C2573 C 0.61949 0.99794 0.04347 0.0
C2574 C 0.59007 0.03679 0.12096 0.0
C2575 C 0.59527 0.03523 0.10904 0.0
C2576 C 0.59105 0.0097 0.08379 0.0
C2577 C 0.61727 0.01408 0.05809 0.0
C2578 C 0.61086 0.01668 0.06972 0.0
C2579 C 0.59308 0.02223 0.10497 0.0
C2580 C 0.59905 0.02063 0.0926 0.0
H2581 H 0.64177 0.03123 0.03511 0.0
H2582 H 0.63074 0.0357 0.05361 0.0
H2583 H 0.59035 0.99933 0.06581 0.0
H2584 H 0.57478 0.0034 0.13103 0.0
H2585 H 0.58368 0.00065 0.11009 0.0
C2586 C 0.97794 0.6205 0.0507 0.0
C2587 C 0.9896 0.62416 0.04306 0.0
C2588 C 0.97515 0.61195 0.06149 0.0
C2589 C 0.98153 0.58564 0.07555 0.0
H2590 H 0.97334 0.59719 0.10867 0.0
C2591 C 0.9598 0.55041 0.12077 0.0
C2592 C 0.9659 0.55638 0.13299 0.0
C2593 C 0.96341 0.55847 0.10953 0.0
C2594 C 0.97568 0.59387 0.0995 0.0
H2595 H 0.00732 0.62151 0.04051 0.0
H2596 H 0.00231 0.60637 0.05925 0.0
H2597 H 0.9779 0.61154 0.0894 0.0
H2598 H 0.98034 0.57544 0.14305 0.0
H2599 H 0.98657 0.58957 0.12342 0.0
H2600 H 0.97918 0.56789 0.08567 0.0
C2601 C 0.99537 0.61017 0.05692 0.0
C2602 C 0.97816 0.60201 0.08846 0.0
C2603 C 0.99826 0.61888 0.04624 0.0
C2604 C 0.97565 0.57055 0.13373 0.0
C2605 C 0.97913 0.57863 0.12253 0.0
C2606 C 0.97886 0.57739 0.08657 0.0
C2607 C 0.98387 0.60674 0.06472 0.0
C2608 C 0.98112 0.59799 0.07638 0.0
C2609 C 0.97295 0.5727 0.11035 0.0
C2610 C 0.97596 0.58146 0.09866 0.0
H2611 H 0.97108 0.62443 0.04848 0.0
H2612 H 0.96614 0.60937 0.06728 0.0
H2613 H 0.98373 0.58227 0.06633 0.0
H2614 H 0.95202 0.53959 0.11993 0.0
H2615 H 0.95837 0.55367 0.10029 0.0
C2616 C 0.39438 0.36885 0.0339 0.0
C2617 C 0.38411 0.37249 0.03291 0.0
C2618 C 0.40343 0.37329 0.04469 0.0
C2619 C 0.41606 0.39829 0.07297 0.0
H2620 H 0.42482 0.3719 0.08806 0.0
C2621 C 0.43659 0.40266 0.12596 0.0
C2622 C 0.44702 0.3994 0.12803 0.0
C2623 C 0.43039 0.40073 0.1136 0.0
C2624 C 0.42263 0.37946 0.08386 0.0
H2625 H 0.37533 0.38373 0.04235 0.0
H2626 H 0.39082 0.39116 0.06131 0.0
H2627 H 0.41121 0.36592 0.06786 0.0
H2628 H 0.45937 0.39186 0.11876 0.0
H2629 H 0.44843 0.38834 0.09712 0.0
H2630 H 0.42712 0.41162 0.08929 0.0
C2631 C 0.39215 0.38515 0.05365 0.0
C2632 C 0.41484 0.37605 0.07225 0.0
C2633 C 0.38319 0.38082 0.04281 0.0
C2634 C 0.45133 0.39443 0.11742 0.0
C2635 C 0.44505 0.39237 0.10508 0.0
C2636 C 0.42374 0.40164 0.08464 0.0
C2637 C 0.40232 0.38136 0.05479 0.0
C2638 C 0.41134 0.38537 0.06671 0.0
C2639 C 0.4344 0.39535 0.10308 0.0
C2640 C 0.427 0.39221 0.09027 0.0
H2641 H 0.39539 0.3625 0.02637 0.0
H2642 H 0.41128 0.37036 0.04513 0.0
H2643 H 0.41378 0.40583 0.06886 0.0
H2644 H 0.43303 0.40645 0.13399 0.0
H2645 H 0.42212 0.40299 0.11238 0.0
C2646 C 0.656 0.6982 0.38081 0.0
C2647 C 0.64827 0.6936 0.36907 0.0
C2648 C 0.65182 0.70359 0.39105 0.0
C2649 C 0.633 0.72138 0.39831 0.0
H2650 H 0.63076 0.70776 0.43355 0.0
C2651 C 0.6304 0.74954 0.44544 0.0
C2652 C 0.61978 0.7414 0.45415 0.0
C2653 C 0.63313 0.74344 0.4347 0.0
C2654 C 0.63129 0.71161 0.42375 0.0
H2655 H 0.6302 0.69114 0.35877 0.0
H2656 H 0.62304 0.70092 0.37668 0.0
H2657 H 0.63683 0.69742 0.41535 0.0
H2658 H 0.60409 0.72049 0.45861 0.0
H2659 H 0.60918 0.70979 0.44002 0.0
H2660 H 0.6278 0.73581 0.4068 0.0
C2661 C 0.63226 0.70022 0.37792 0.0
C2662 C 0.63482 0.70576 0.41338 0.0
C2663 C 0.63632 0.69459 0.36773 0.0
C2664 C 0.61221 0.72702 0.45199 0.0
C2665 C 0.61514 0.7209 0.44141 0.0
C2666 C 0.62971 0.72741 0.40874 0.0
C2667 C 0.63995 0.7047 0.38969 0.0
C2668 C 0.63572 0.7106 0.40057 0.0
C2669 C 0.62558 0.72907 0.43264 0.0
C2670 C 0.62883 0.72257 0.42154 0.0
H2671 H 0.66525 0.69756 0.38213 0.0
H2672 H 0.65798 0.70709 0.39999 0.0
H2673 H 0.63372 0.72534 0.38854 0.0
H2674 H 0.63664 0.76062 0.4469 0.0
H2675 H 0.64137 0.74993 0.42816 0.0
C2676 C 0.28583 0.95324 0.3854 0.0
C2677 C 0.29738 0.95456 0.37882 0.0
C2678 C 0.28034 0.94429 0.39593 0.0
C2679 C 0.27843 0.91339 0.41021 0.0
H2680 H 0.2677 0.92515 0.44171 0.0
C2681 C 0.26128 0.88017 0.45659 0.0
C2682 C 0.25023 0.87951 0.46359 0.0
C2683 C 0.26723 0.88947 0.44639 0.0
C2684 C 0.27047 0.92163 0.43292 0.0
H2685 H 0.31227 0.94761 0.37811 0.0
H2686 H 0.30264 0.93194 0.3965 0.0
H2687 H 0.27766 0.94108 0.42361 0.0
H2688 H 0.23718 0.88856 0.46578 0.0
H2689 H 0.24725 0.90451 0.44771 0.0
H2690 H 0.27108 0.89389 0.41939 0.0
C2691 C 0.29779 0.93776 0.39346 0.0
C2692 C 0.27621 0.93078 0.42257 0.0
C2693 C 0.30334 0.94678 0.38298 0.0
C2694 C 0.24548 0.88862 0.46038 0.0
C2695 C 0.25137 0.89787 0.45012 0.0
C2696 C 0.27261 0.90421 0.42052 0.0
C2697 C 0.28623 0.93642 0.40005 0.0
C2698 C 0.28025 0.92676 0.4111 0.0
C2699 C 0.26231 0.8984 0.44297 0.0
C2700 C 0.26856 0.90821 0.43202 0.0
H2701 H 0.28101 0.9591 0.3824 0.0
H2702 H 0.27133 0.94338 0.40073 0.0
H2703 H 0.28127 0.90993 0.40141 0.0
H2704 H 0.26537 0.87351 0.45908 0.0
H2705 H 0.27583 0.8898 0.44129 0.0
C2706 C 0.05825 0.35641 0.37276 0.0
C2707 C 0.04789 0.34255 0.37098 0.0
C2708 C 0.06755 0.36035 0.3833 0.0
C2709 C 0.07198 0.34948 0.41608 0.0
H2710 H 0.1107 0.37537 0.41058 0.0
C2711 C 0.11345 0.36215 0.45614 0.0
C2712 C 0.12397 0.37601 0.45756 0.0
C2713 C 0.10421 0.35792 0.44553 0.0
C2714 C 0.0999 0.36825 0.41232 0.0
H2715 H 0.0391 0.32194 0.37883 0.0
H2716 H 0.05538 0.32882 0.39723 0.0
H2717 H 0.09448 0.36825 0.39216 0.0
H2718 H 0.13272 0.39639 0.44927 0.0
H2719 H 0.11655 0.38906 0.43075 0.0
H2720 H 0.07738 0.34953 0.43625 0.0
C2721 C 0.05625 0.33666 0.39054 0.0
C2722 C 0.09061 0.36417 0.40176 0.0
C2723 C 0.04697 0.33271 0.37997 0.0
C2724 C 0.12489 0.3856 0.44827 0.0
C2725 C 0.11565 0.38138 0.43766 0.0
C2726 C 0.08127 0.35358 0.42665 0.0
C2727 C 0.06666 0.35053 0.39231 0.0
C2728 C 0.07654 0.35475 0.40352 0.0
C2729 C 0.10521 0.36749 0.43615 0.0
C2730 C 0.09534 0.36303 0.42489 0.0
H2731 H 0.05919 0.36423 0.36601 0.0
H2732 H 0.07534 0.37114 0.38449 0.0
H2733 H 0.06118 0.34237 0.4178 0.0
H2734 H 0.11236 0.35458 0.46328 0.0
H2735 H 0.09636 0.34713 0.44461 0.0
C2736 C 0.02996 0.30679 0.302 0.0
C2737 C 0.03805 0.31812 0.3104 0.0
C2738 C 0.03596 0.30369 0.29147 0.0
C2739 C 0.06981 0.3111 0.27826 0.0
H2740 H 0.0507 0.30255 0.24465 0.0
C2741 C 0.09727 0.31786 0.22915 0.0
C2742 C 0.0907 0.30738 0.21953 0.0
C2743 C 0.09048 0.31759 0.24066 0.0
C2744 C 0.05608 0.30474 0.254 0.0
H2745 H 0.05877 0.33487 0.31457 0.0
H2746 H 0.06916 0.32964 0.29619 0.0
H2747 H 0.03942 0.30462 0.26421 0.0
H2748 H 0.0717 0.28875 0.21418 0.0
H2749 H 0.05976 0.28831 0.23433 0.0
H2750 H 0.08663 0.31164 0.26794 0.0
C2751 C 0.05825 0.32299 0.29778 0.0
C2752 C 0.04961 0.30589 0.26523 0.0
C2753 C 0.05227 0.32606 0.30828 0.0
C2754 C 0.07708 0.29681 0.22154 0.0
C2755 C 0.07023 0.29661 0.23302 0.0
C2756 C 0.0763 0.31003 0.26704 0.0
C2757 C 0.05016 0.31186 0.28915 0.0
C2758 C 0.05649 0.30931 0.27746 0.0
C2759 C 0.07688 0.30698 0.24271 0.0
C2760 C 0.06959 0.30706 0.25476 0.0
H2761 H 0.01897 0.30047 0.30342 0.0
H2762 H 0.02947 0.29495 0.28511 0.0
H2763 H 0.0753 0.31347 0.28757 0.0
H2764 H 0.10763 0.32633 0.22773 0.0
H2765 H 0.09576 0.32588 0.24784 0.0
C2766 C 0.68466 0.72071 0.31224 0.0
C2767 C 0.6737 0.70719 0.31016 0.0
C2768 C 0.6884 0.73054 0.30242 0.0
C2769 C 0.67517 0.73726 0.27139 0.0
H2770 H 0.71351 0.76494 0.26695 0.0
C2771 C 0.71239 0.78091 0.23165 0.0
C2772 C 0.70366 0.78596 0.22798 0.0
C2773 C 0.70886 0.77154 0.24186 0.0
C2774 C 0.70276 0.7572 0.26794 0.0
H2775 H 0.65823 0.69323 0.29613 0.0
H2776 H 0.66503 0.71012 0.27886 0.0
H2777 H 0.70724 0.74789 0.28398 0.0
H2778 H 0.68411 0.78478 0.23195 0.0
H2779 H 0.6783 0.76908 0.25013 0.0
H2780 H 0.67074 0.74608 0.25494 0.0
C2781 C 0.6705 0.71336 0.28817 0.0
C2782 C 0.69913 0.74752 0.27788 0.0
C2783 C 0.66665 0.70362 0.29805 0.0
C2784 C 0.69122 0.78132 0.23467 0.0
C2785 C 0.6878 0.77213 0.24501 0.0
C2786 C 0.67882 0.7468 0.26134 0.0
C2787 C 0.68136 0.72699 0.29024 0.0
C2788 C 0.68528 0.73741 0.27974 0.0
C2789 C 0.69653 0.76705 0.2487 0.0
C2790 C 0.69266 0.75692 0.25948 0.0
H2791 H 0.69023 0.72376 0.32152 0.0
H2792 H 0.69667 0.74097 0.30447 0.0
H2793 H 0.66437 0.7298 0.27262 0.0
H2794 H 0.72189 0.78408 0.22648 0.0
H2795 H 0.7157 0.76764 0.24418 0.0
C2796 C 0.28038 0.97332 0.30983 0.0
C2797 C 0.28446 0.96507 0.3166 0.0
C2798 C 0.2714 0.96792 0.299 0.0
C2799 C 0.24637 0.93469 0.28255 0.0
H2800 H 0.25305 0.95768 0.25222 0.0
C2801 C 0.22058 0.91275 0.23202 0.0
C2802 C 0.21476 0.9198 0.22572 0.0
C2803 C 0.22881 0.91841 0.24327 0.0
C2804 C 0.251 0.95118 0.26066 0.0
H2805 H 0.28233 0.94471 0.31741 0.0
H2806 H 0.26696 0.93541 0.29844 0.0
H2807 H 0.26772 0.9673 0.27172 0.0
H2808 H 0.21369 0.93861 0.22583 0.0
H2809 H 0.22821 0.94858 0.24544 0.0
H2810 H 0.22984 0.91849 0.27132 0.0
C2811 C 0.27042 0.94595 0.30159 0.0
C2812 C 0.25936 0.9567 0.27187 0.0
C2813 C 0.27931 0.95131 0.31243 0.0
C2814 C 0.21781 0.93285 0.23064 0.0
C2815 C 0.22618 0.93858 0.24179 0.0
C2816 C 0.2381 0.92915 0.27131 0.0
C2817 C 0.26638 0.95419 0.2947 0.0
C2818 C 0.25718 0.9485 0.28293 0.0
C2819 C 0.23167 0.93136 0.24828 0.0
C2820 C 0.24036 0.93732 0.26024 0.0
H2821 H 0.28417 0.98396 0.31285 0.0
H2822 H 0.26835 0.97451 0.29405 0.0
H2823 H 0.24421 0.92814 0.29097 0.0
H2824 H 0.21875 0.90286 0.22828 0.0
H2825 H 0.23312 0.91274 0.24795 0.0
C2826 C 0.69547 0.96228 0.31509 0.0
C2827 C 0.68144 0.95827 0.31537 0.0
C2828 C 0.7007 0.95818 0.30463 0.0
C2829 C 0.69002 0.93359 0.27609 0.0
H2830 H 0.72529 0.96094 0.26235 0.0
C2831 C 0.70825 0.93082 0.22385 0.0
C2832 C 0.72207 0.93439 0.22237 0.0
C2833 C 0.70347 0.93238 0.23601 0.0
C2834 C 0.71552 0.95313 0.26618 0.0
H2835 H 0.66186 0.94669 0.30506 0.0
H2836 H 0.67099 0.93984 0.2867 0.0
H2837 H 0.71667 0.96625 0.28214 0.0
H2838 H 0.74166 0.94205 0.23249 0.0
H2839 H 0.73336 0.94498 0.25376 0.0
H2840 H 0.68871 0.92069 0.25978 0.0
C2841 C 0.67795 0.94588 0.29464 0.0
C2842 C 0.71058 0.95614 0.27755 0.0
C2843 C 0.67271 0.94989 0.30513 0.0
C2844 C 0.73097 0.93927 0.23336 0.0
C2845 C 0.72623 0.94099 0.24549 0.0
C2846 C 0.69491 0.93063 0.26464 0.0
C2847 C 0.69203 0.95007 0.29418 0.0
C2848 C 0.69769 0.94647 0.28258 0.0
C2849 C 0.71247 0.9377 0.2469 0.0
C2850 C 0.70765 0.94042 0.2595 0.0
H2851 H 0.70243 0.96869 0.32288 0.0
H2852 H 0.71155 0.96142 0.30471 0.0
H2853 H 0.68019 0.92579 0.2798 0.0
H2854 H 0.70118 0.92706 0.21553 0.0
H2855 H 0.69285 0.92988 0.23678 0.0
C2856 C 0.02712 0.72646 0.3036 0.0
C2857 C 0.0365 0.72457 0.31122 0.0
C2858 C 0.03167 0.73534 0.29293 0.0
C2859 C 0.06039 0.75137 0.26967 0.0
H2860 H 0.04398 0.77368 0.26095 0.0
C2861 C 0.06659 0.79553 0.23023 0.0
C2862 C 0.06805 0.7895 0.21862 0.0
C2863 C 0.06386 0.78852 0.24207 0.0
C2864 C 0.0488 0.76765 0.26332 0.0
H2865 H 0.05804 0.73077 0.31388 0.0
H2866 H 0.066 0.74642 0.29542 0.0
H2867 H 0.03718 0.76017 0.28087 0.0
H2868 H 0.0676 0.77139 0.21026 0.0
H2869 H 0.06273 0.75907 0.23089 0.0
H2870 H 0.07213 0.75896 0.2522 0.0
C2871 C 0.0551 0.74087 0.29752 0.0
C2872 C 0.04476 0.75976 0.27466 0.0
C2873 C 0.05055 0.73197 0.30815 0.0
C2874 C 0.06678 0.77637 0.21911 0.0
C2875 C 0.06402 0.76935 0.23094 0.0
C2876 C 0.06444 0.75927 0.25834 0.0
C2877 C 0.0457 0.74255 0.28968 0.0
C2878 C 0.05042 0.75143 0.27793 0.0
C2879 C 0.06239 0.77527 0.24255 0.0
C2880 C 0.05861 0.76742 0.25496 0.0
H2881 H 0.01622 0.72085 0.30569 0.0
H2882 H 0.02411 0.73624 0.28702 0.0
H2883 H 0.06486 0.74496 0.2718 0.0
H2884 H 0.0673 0.80555 0.2301 0.0
H2885 H 0.0628 0.79345 0.25084 0.0
C2886 C 0.27703 0.32824 0.31195 0.0
C2887 C 0.28268 0.32017 0.31616 0.0
C2888 C 0.26865 0.32442 0.30069 0.0
C2889 C 0.26247 0.30542 0.26966 0.0
H2890 H 0.22761 0.30484 0.26858 0.0
C2891 C 0.23222 0.29704 0.22139 0.0
C2892 C 0.21826 0.28679 0.22162 0.0
C2893 C 0.23986 0.30207 0.23304 0.0
C2894 C 0.23733 0.30498 0.26876 0.0
H2895 H 0.28383 0.30171 0.312 0.0
H2896 H 0.26933 0.29515 0.29228 0.0
H2897 H 0.24124 0.31139 0.289 0.0
H2898 H 0.20135 0.2737 0.23428 0.0
H2899 H 0.21465 0.28272 0.25468 0.0
H2900 H 0.2586 0.29898 0.24949 0.0
C2901 C 0.2714 0.30442 0.29768 0.0
C2902 C 0.24515 0.30879 0.2804 0.0
C2903 C 0.27963 0.30813 0.30901 0.0
C2904 C 0.21202 0.28182 0.23379 0.0
C2905 C 0.21962 0.28697 0.24546 0.0
C2906 C 0.25476 0.30179 0.25801 0.0
C2907 C 0.26593 0.31258 0.29334 0.0
C2908 C 0.25773 0.30892 0.28098 0.0
C2909 C 0.23368 0.29697 0.24519 0.0
C2910 C 0.24207 0.30144 0.25746 0.0
H2911 H 0.27922 0.33758 0.31728 0.0
H2912 H 0.26462 0.33094 0.29752 0.0
H2913 H 0.2722 0.30557 0.2698 0.0
H2914 H 0.23733 0.30089 0.21214 0.0
H2915 H 0.25067 0.30983 0.23255 0.0
C2916 C 0.303 0.36104 0.38131 0.0
C2917 C 0.29511 0.34749 0.37633 0.0
C2918 C 0.29824 0.36561 0.39176 0.0
C2919 C 0.27346 0.35244 0.41908 0.0
H2920 H 0.28306 0.39085 0.42197 0.0
C2921 C 0.26999 0.37701 0.46783 0.0
C2922 C 0.26689 0.38772 0.46758 0.0
C2923 C 0.27169 0.37138 0.45618 0.0
C2924 C 0.28006 0.38002 0.42127 0.0
H2925 H 0.27587 0.3282 0.37808 0.0
H2926 H 0.26731 0.3363 0.39605 0.0
H2927 H 0.28892 0.38259 0.4023 0.0
H2928 H 0.26313 0.40092 0.45486 0.0
H2929 H 0.26548 0.39069 0.43451 0.0
H2930 H 0.26425 0.34979 0.43789 0.0
C2931 C 0.27736 0.34331 0.39215 0.0
C2932 C 0.28364 0.37533 0.41004 0.0
C2933 C 0.28222 0.33869 0.38179 0.0
C2934 C 0.2653 0.39253 0.45539 0.0
C2935 C 0.26683 0.38677 0.44372 0.0
C2936 C 0.26973 0.3571 0.43025 0.0
C2937 C 0.28538 0.35679 0.39737 0.0
C2938 C 0.28062 0.36153 0.40889 0.0
C2939 C 0.27029 0.37628 0.44396 0.0
C2940 C 0.27319 0.37101 0.4316 0.0
H2941 H 0.31303 0.36803 0.37734 0.0
H2942 H 0.30483 0.37597 0.39564 0.0
H2943 H 0.27105 0.34177 0.41864 0.0
H2944 H 0.27154 0.37331 0.4771 0.0
H2945 H 0.27462 0.36352 0.45681 0.0
C2946 C 0.66135 0.94649 0.38517 0.0
C2947 C 0.65281 0.94422 0.37419 0.0
C2948 C 0.65656 0.93748 0.39573 0.0
C2949 C 0.63008 0.90243 0.40536 0.0
H2950 H 0.63573 0.91901 0.4401 0.0
C2951 C 0.59989 0.87165 0.45044 0.0
C2952 C 0.60665 0.87512 0.46272 0.0
C2953 C 0.60641 0.87941 0.43941 0.0
C2954 C 0.63426 0.91417 0.43051 0.0
H2955 H 0.6327 0.93059 0.36547 0.0
H2956 H 0.62435 0.91482 0.38389 0.0
H2957 H 0.64561 0.93374 0.42123 0.0
H2958 H 0.62561 0.88921 0.47302 0.0
H2959 H 0.63717 0.90257 0.45373 0.0
H2960 H 0.6187 0.88286 0.41462 0.0
C2961 C 0.63476 0.92353 0.38432 0.0
C2962 C 0.63991 0.92264 0.41969 0.0
C2963 C 0.63951 0.93259 0.37381 0.0
C2964 C 0.62018 0.8863 0.46367 0.0
C2965 C 0.62674 0.89401 0.45264 0.0
C2966 C 0.6245 0.89395 0.4162 0.0
C2967 C 0.64317 0.92597 0.39546 0.0
C2968 C 0.63777 0.91687 0.40698 0.0
C2969 C 0.61986 0.89082 0.44041 0.0
C2970 C 0.62642 0.89972 0.42891 0.0
H2971 H 0.67165 0.95536 0.38573 0.0
H2972 H 0.66331 0.93955 0.40412 0.0
H2973 H 0.62841 0.89769 0.39569 0.0
H2974 H 0.58941 0.86314 0.44947 0.0
H2975 H 0.60073 0.87675 0.43021 0.0
C2976 C 0.05978 0.7077 0.37455 0.0
C2977 C 0.04969 0.71141 0.37236 0.0
C2978 C 0.06829 0.71255 0.38571 0.0
C2979 C 0.06889 0.72421 0.41937 0.0
H2980 H 0.10805 0.7373 0.41799 0.0
C2981 C 0.10252 0.74151 0.46631 0.0
C2982 C 0.11233 0.73727 0.46747 0.0
C2983 C 0.09585 0.74021 0.45432 0.0
C2984 C 0.09711 0.73355 0.41857 0.0
H2985 H 0.0407 0.72327 0.38 0.0
H2986 H 0.05549 0.73163 0.3996 0.0
H2987 H 0.09452 0.73144 0.39767 0.0
H2988 H 0.12312 0.72869 0.45696 0.0
H2989 H 0.1112 0.726 0.43612 0.0
H2990 H 0.07127 0.72579 0.44022 0.0
C2991 C 0.05681 0.72497 0.39267 0.0
C2992 C 0.08938 0.73025 0.40692 0.0
C2993 C 0.04839 0.72023 0.38144 0.0
C2994 C 0.11559 0.73203 0.45632 0.0
C2995 C 0.10883 0.7306 0.44436 0.0
C2996 C 0.07658 0.72738 0.43101 0.0
C2997 C 0.06678 0.7211 0.39496 0.0
C2998 C 0.07517 0.72543 0.40722 0.0
C2999 C 0.09872 0.7345 0.44325 0.0
C3000 C 0.09077 0.73198 0.43078 0.0
H3001 H 0.06102 0.70093 0.36771 0.0
H3002 H 0.07579 0.70929 0.38728 0.0
H3003 H 0.05792 0.72034 0.4199 0.0
H3004 H 0.09987 0.74564 0.47474 0.0
H3005 H 0.08833 0.74357 0.45378 0.0
C3006 C 0.31866 0.04807 0.70393 0.0
C3007 C 0.31263 0.03374 0.70199 0.0
C3008 C 0.31495 0.05343 0.71453 0.0
C3009 C 0.30025 0.04435 0.74753 0.0
H3010 H 0.30044 0.07902 0.74476 0.0
C3011 C 0.29025 0.07153 0.7915 0.0
C3012 C 0.30005 0.08563 0.79313 0.0
C3013 C 0.28992 0.06431 0.78009 0.0
C3014 C 0.30036 0.06933 0.74567 0.0
H3015 H 0.29765 0.01372 0.70941 0.0
H3016 H 0.29093 0.0231 0.72792 0.0
H3017 H 0.3025 0.0677 0.72502 0.0
H3018 H 0.31761 0.10304 0.78428 0.0
H3019 H 0.31682 0.09052 0.76426 0.0
H3020 H 0.29816 0.0461 0.76823 0.0
C3021 C 0.29872 0.0302 0.72132 0.0
C3022 C 0.30157 0.06286 0.73438 0.0
C3023 C 0.3025 0.02483 0.71069 0.0
C3024 C 0.30968 0.0923 0.78318 0.0
C3025 C 0.30924 0.08513 0.77172 0.0
C3026 C 0.2989 0.05078 0.75882 0.0
C3027 C 0.30502 0.04458 0.72344 0.0
C3028 C 0.30191 0.05047 0.73521 0.0
C3029 C 0.29936 0.07108 0.77006 0.0
C3030 C 0.29928 0.0635 0.75801 0.0
H3031 H 0.32654 0.05521 0.69742 0.0
H3032 H 0.32021 0.06454 0.71596 0.0
H3033 H 0.30061 0.0349 0.74856 0.0
H3034 H 0.28289 0.06609 0.79913 0.0
H3035 H 0.28224 0.05346 0.77906 0.0
C3036 C 0.97166 0.27781 0.71121 0.0
C3037 C 0.96487 0.2846 0.70645 0.0
C3038 C 0.96616 0.26862 0.72159 0.0
C3039 C 0.94325 0.26025 0.74969 0.0
H3040 H 0.9398 0.22401 0.74715 0.0
C3041 C 0.91147 0.21765 0.78655 0.0
C3042 C 0.91627 0.20872 0.79029 0.0
C3043 C 0.91778 0.22698 0.77644 0.0
C3044 C 0.94087 0.23416 0.74812 0.0
H3045 H 0.94709 0.28718 0.70883 0.0
H3046 H 0.93759 0.27126 0.72702 0.0
H3047 H 0.95038 0.24028 0.72936 0.0
H3048 H 0.93187 0.20309 0.78686 0.0
H3049 H 0.94308 0.21957 0.76934 0.0
H3050 H 0.93394 0.2543 0.76847 0.0
C3051 C 0.94714 0.27304 0.72274 0.0
C3052 C 0.94691 0.24346 0.73791 0.0
C3053 C 0.95254 0.28209 0.71229 0.0
C3054 C 0.92776 0.20962 0.78395 0.0
C3055 C 0.93414 0.21903 0.77389 0.0
C3056 C 0.93734 0.25102 0.75995 0.0
C3057 C 0.95388 0.2662 0.72749 0.0
C3058 C 0.94803 0.25654 0.73854 0.0
C3059 C 0.92921 0.2278 0.76998 0.0
C3060 C 0.93594 0.2378 0.75924 0.0
H3061 H 0.98118 0.27956 0.70689 0.0
H3062 H 0.97161 0.26355 0.72511 0.0
H3063 H 0.94418 0.27036 0.75052 0.0
H3064 H 0.90282 0.21741 0.79145 0.0
H3065 H 0.9136 0.23347 0.77361 0.0
C3066 C 0.72275 0.69259 0.70479 0.0
C3067 C 0.71341 0.67864 0.70179 0.0
C3068 C 0.73216 0.69622 0.71521 0.0
C3069 C 0.73795 0.68281 0.74601 0.0
H3070 H 0.77572 0.7123 0.74232 0.0
C3071 C 0.77965 0.69481 0.78563 0.0
C3072 C 0.78914 0.7088 0.78839 0.0
C3073 C 0.77056 0.69103 0.77492 0.0
C3074 C 0.76517 0.70414 0.74356 0.0
H3075 H 0.70667 0.65753 0.70727 0.0
H3076 H 0.72314 0.66385 0.72539 0.0
H3077 H 0.75962 0.70596 0.72387 0.0
H3078 H 0.79613 0.7298 0.78245 0.0
H3079 H 0.78019 0.72324 0.76382 0.0
H3080 H 0.74344 0.68105 0.76572 0.0
C3081 C 0.7231 0.672 0.71979 0.0
C3082 C 0.75595 0.7005 0.73298 0.0
C3083 C 0.71372 0.66838 0.70936 0.0
C3084 C 0.78914 0.71893 0.78038 0.0
C3085 C 0.78004 0.71516 0.76969 0.0
C3086 C 0.74716 0.68647 0.7566 0.0
C3087 C 0.7324 0.68596 0.72287 0.0
C3088 C 0.74223 0.6898 0.73409 0.0
C3089 C 0.77065 0.70117 0.76682 0.0
C3090 C 0.76088 0.69719 0.75551 0.0
H3091 H 0.72272 0.70073 0.69915 0.0
H3092 H 0.73909 0.70707 0.71742 0.0
H3093 H 0.72739 0.67466 0.74724 0.0
H3094 H 0.77924 0.68679 0.79178 0.0
H3095 H 0.76353 0.68016 0.77294 0.0
C3096 C 0.7146 0.66706 0.6359 0.0
C3097 C 0.70231 0.65683 0.64142 0.0
C3098 C 0.72058 0.6638 0.62551 0.0
C3099 C 0.72183 0.63481 0.60942 0.0
H3100 H 0.73544 0.65934 0.57982 0.0
C3101 C 0.73965 0.62024 0.56189 0.0
C3102 C 0.75122 0.63071 0.55561 0.0
C3103 C 0.7338 0.62339 0.57247 0.0
C3104 C 0.73187 0.65247 0.58809 0.0
H3105 H 0.68669 0.63514 0.64047 0.0
H3106 H 0.69718 0.62941 0.62231 0.0
H3107 H 0.72503 0.66484 0.59811 0.0
H3108 H 0.76543 0.65279 0.55521 0.0
H3109 H 0.7555 0.65829 0.57393 0.0
H3110 H 0.72877 0.6225 0.59949 0.0
C3111 C 0.70221 0.63995 0.62607 0.0
C3112 C 0.72587 0.65562 0.59855 0.0
C3113 C 0.69617 0.64323 0.63642 0.0
C3114 C 0.75669 0.64446 0.56002 0.0
C3115 C 0.75088 0.64762 0.57065 0.0
C3116 C 0.7279 0.6317 0.59899 0.0
C3117 C 0.71445 0.65021 0.62046 0.0
C3118 C 0.72078 0.64682 0.60933 0.0
C3119 C 0.73934 0.63712 0.577 0.0
C3120 C 0.73299 0.64049 0.58818 0.0
H3121 H 0.71958 0.67763 0.63955 0.0
H3122 H 0.73009 0.6719 0.6215 0.0
H3123 H 0.71816 0.62793 0.61767 0.0
H3124 H 0.73503 0.6096 0.5585 0.0
H3125 H 0.72475 0.61509 0.57693 0.0
C3126 C 0.33113 0.04699 0.63313 0.0
C3127 C 0.34077 0.0449 0.64007 0.0
C3128 C 0.33517 0.05572 0.62239 0.0
C3129 C 0.3651 0.08534 0.60823 0.0
H3130 H 0.34252 0.07446 0.57657 0.0
C3131 C 0.38125 0.1195 0.56237 0.0
C3132 C 0.37086 0.1205 0.55558 0.0
C3133 C 0.37793 0.10992 0.57234 0.0
C3134 C 0.34886 0.07773 0.58539 0.0
H3135 H 0.36219 0.05026 0.64121 0.0
H3136 H 0.3693 0.06567 0.62245 0.0
H3137 H 0.33611 0.05836 0.5946 0.0
H3138 H 0.34878 0.11177 0.55348 0.0
H3139 H 0.34298 0.09536 0.57115 0.0
H3140 H 0.37767 0.10482 0.5992 0.0
C3141 C 0.35862 0.06055 0.62536 0.0
C3142 C 0.34521 0.06848 0.59569 0.0
C3143 C 0.35454 0.05169 0.63604 0.0
C3144 C 0.35704 0.11145 0.55873 0.0
C3145 C 0.35372 0.10193 0.56875 0.0
C3146 C 0.3687 0.09464 0.59796 0.0
C3147 C 0.34896 0.06265 0.61843 0.0
C3148 C 0.35323 0.07222 0.60726 0.0
C3149 C 0.36412 0.10105 0.5757 0.0
C3150 C 0.36057 0.09099 0.58645 0.0
H3151 H 0.32044 0.04189 0.636 0.0
H3152 H 0.32753 0.05727 0.61734 0.0
H3153 H 0.37139 0.08856 0.61709 0.0
H3154 H 0.39197 0.12612 0.55991 0.0
H3155 H 0.38619 0.10933 0.57728 0.0
C3156 C 0.94781 0.30415 0.63842 0.0
C3157 C 0.9532 0.29649 0.6442 0.0
C3158 C 0.93885 0.29879 0.62759 0.0
C3159 C 0.9291 0.27386 0.60023 0.0
H3160 H 0.89553 0.27573 0.59888 0.0
C3161 C 0.88771 0.24531 0.5599 0.0
C3162 C 0.88059 0.25175 0.55508 0.0
C3163 C 0.89652 0.25084 0.5708 0.0
C3164 C 0.90495 0.27529 0.599 0.0
H3165 H 0.95341 0.2772 0.64325 0.0
H3166 H 0.93783 0.26788 0.62431 0.0
H3167 H 0.91102 0.28542 0.61783 0.0
H3168 H 0.87774 0.26942 0.55743 0.0
H3169 H 0.89336 0.27929 0.57627 0.0
H3170 H 0.92324 0.26396 0.58135 0.0
C3171 C 0.94058 0.27805 0.6281 0.0
C3172 C 0.9138 0.28082 0.60988 0.0
C3173 C 0.94943 0.28336 0.63898 0.0
C3174 C 0.88283 0.26407 0.56115 0.0
C3175 C 0.89174 0.26967 0.57197 0.0
C3176 C 0.92032 0.26845 0.5893 0.0
C3177 C 0.93521 0.28572 0.62227 0.0
C3178 C 0.92593 0.28009 0.61064 0.0
C3179 C 0.89865 0.2631 0.57698 0.0
C3180 C 0.90809 0.26903 0.58856 0.0
H3181 H 0.95054 0.31431 0.64223 0.0
H3182 H 0.93494 0.30496 0.62323 0.0
H3183 H 0.93848 0.27333 0.60046 0.0
H3184 H 0.88645 0.23597 0.55527 0.0
H3185 H 0.90156 0.24541 0.57445 0.0
C3186 C 0.33712 0.28915 0.63738 0.0
C3187 C 0.34692 0.29774 0.64686 0.0
C3188 C 0.34103 0.28412 0.62662 0.0
C3189 C 0.3716 0.29152 0.60717 0.0
H3190 H 0.34712 0.25519 0.59203 0.0
C3191 C 0.38697 0.27021 0.56259 0.0
C3192 C 0.37711 0.26458 0.55237 0.0
C3193 C 0.38344 0.27308 0.57487 0.0
C3194 C 0.35403 0.26537 0.59613 0.0
H3195 H 0.36842 0.3075 0.65272 0.0
H3196 H 0.37522 0.29848 0.63408 0.0
H3197 H 0.34079 0.26234 0.61228 0.0
H3198 H 0.35581 0.25727 0.54707 0.0
H3199 H 0.34959 0.26219 0.56858 0.0
H3200 H 0.38481 0.29453 0.59098 0.0
C3201 C 0.36455 0.29585 0.63479 0.0
C3202 C 0.35041 0.2695 0.60771 0.0
C3203 C 0.36065 0.30096 0.64552 0.0
C3204 C 0.36358 0.26153 0.55479 0.0
C3205 C 0.36002 0.2643 0.56711 0.0
C3206 C 0.37527 0.28735 0.59565 0.0
C3207 C 0.35481 0.28748 0.62513 0.0
C3208 C 0.35906 0.2827 0.61329 0.0
C3209 C 0.36997 0.27031 0.57721 0.0
C3210 C 0.36645 0.2743 0.58992 0.0
H3211 H 0.32646 0.28653 0.63812 0.0
H3212 H 0.33328 0.27789 0.61928 0.0
H3213 H 0.37842 0.30183 0.61103 0.0
H3214 H 0.39748 0.27266 0.56097 0.0
H3215 H 0.39129 0.27758 0.58251 0.0
C3216 C 0.71921 0.06034 0.6354 0.0
C3217 C 0.70528 0.05329 0.63891 0.0
C3218 C 0.7236 0.06924 0.62475 0.0
C3219 C 0.71321 0.08906 0.60323 0.0
H3220 H 0.73971 0.08838 0.57947 0.0
C3221 C 0.73373 0.10688 0.54749 0.0
C3222 C 0.73506 0.12005 0.54754 0.0
C3223 C 0.73132 0.09958 0.55912 0.0
C3224 C 0.73226 0.08866 0.58598 0.0
H3225 H 0.68502 0.05007 0.63407 0.0
H3226 H 0.69262 0.06543 0.61539 0.0
H3227 H 0.73273 0.07383 0.59872 0.0
H3228 H 0.73482 0.1359 0.55979 0.0
H3229 H 0.73096 0.12333 0.58018 0.0
H3230 H 0.71236 0.1035 0.59026 0.0
C3231 C 0.70021 0.06427 0.62097 0.0
C3232 C 0.72837 0.08043 0.59711 0.0
C3233 C 0.69584 0.0554 0.63163 0.0
C3234 C 0.73405 0.12585 0.55949 0.0
C3235 C 0.73168 0.11858 0.57114 0.0
C3236 C 0.71707 0.09726 0.5921 0.0
C3237 C 0.71414 0.07127 0.61737 0.0
C3238 C 0.71871 0.08044 0.60581 0.0
C3239 C 0.7301 0.10527 0.57107 0.0
C3240 C 0.72657 0.09709 0.58327 0.0
H3241 H 0.72673 0.05895 0.64086 0.0
H3242 H 0.73442 0.0746 0.62236 0.0
H3243 H 0.70588 0.08946 0.60981 0.0
H3244 H 0.7342 0.10206 0.53838 0.0
H3245 H 0.72992 0.08927 0.55866 0.0
C3246 C 0.939 0.64111 0.63761 0.0
C3247 C 0.94375 0.65428 0.64322 0.0
C3248 C 0.92996 0.63661 0.62686 0.0
C3249 C 0.91813 0.64971 0.59958 0.0
H3250 H 0.89049 0.61099 0.59552 0.0
C3251 C 0.89291 0.62501 0.54965 0.0
C3252 C 0.87925 0.61405 0.54928 0.0
C3253 C 0.89957 0.63079 0.56162 0.0
C3254 C 0.89799 0.62188 0.59655 0.0
H3255 H 0.94255 0.673 0.64216 0.0
H3256 H 0.9265 0.66505 0.62349 0.0
H3257 H 0.90386 0.61921 0.61578 0.0
H3258 H 0.8618 0.60054 0.56117 0.0
H3259 H 0.87322 0.61093 0.58206 0.0
H3260 H 0.91209 0.65241 0.5804 0.0
C3261 C 0.92996 0.65827 0.62726 0.0
C3262 C 0.90581 0.62657 0.60812 0.0
C3263 C 0.93909 0.6628 0.638 0.0
C3264 C 0.87228 0.60912 0.56113 0.0
C3265 C 0.87889 0.61498 0.57311 0.0
C3266 C 0.91023 0.64504 0.58802 0.0
C3267 C 0.92536 0.64515 0.6215 0.0
C3268 C 0.91618 0.64048 0.60968 0.0
C3269 C 0.8927 0.62572 0.57352 0.0
C3270 C 0.90022 0.63101 0.58626 0.0
H3271 H 0.94247 0.63433 0.64138 0.0
H3272 H 0.92685 0.62655 0.62255 0.0
H3273 H 0.92608 0.66047 0.60039 0.0
H3274 H 0.89859 0.62882 0.54066 0.0
H3275 H 0.91028 0.63885 0.56153 0.0
C3276 C 0.9493 0.67298 0.71308 0.0
C3277 C 0.95771 0.6822 0.7035 0.0
C3278 C 0.94509 0.67772 0.72384 0.0
C3279 C 0.95474 0.70966 0.74302 0.0
H3280 H 0.9192 0.68682 0.75893 0.0
C3281 C 0.93714 0.72826 0.78802 0.0
C3282 C 0.93205 0.71891 0.7984 0.0
C3283 C 0.93903 0.72398 0.77567 0.0
C3284 C 0.92917 0.69329 0.7546 0.0
H3285 H 0.96795 0.70354 0.69742 0.0
H3286 H 0.96033 0.71179 0.71604 0.0
H3287 H 0.92472 0.67912 0.73854 0.0
H3288 H 0.92461 0.69771 0.8039 0.0
H3289 H 0.9278 0.69016 0.78227 0.0
H3290 H 0.95916 0.72381 0.75911 0.0
C3291 C 0.95723 0.70094 0.71542 0.0
C3292 C 0.93236 0.68887 0.74294 0.0
C3293 C 0.96154 0.69621 0.7047 0.0
C3294 C 0.9285 0.70511 0.79606 0.0
C3295 C 0.93028 0.70079 0.78368 0.0
C3296 C 0.95149 0.71412 0.75461 0.0
C3297 C 0.9491 0.69178 0.72522 0.0
C3298 C 0.94527 0.69691 0.7371 0.0
C3299 C 0.93577 0.71024 0.77341 0.0
C3300 C 0.93875 0.70591 0.76061 0.0
H3301 H 0.94623 0.66213 0.71244 0.0
H3302 H 0.93903 0.67039 0.73127 0.0
H3303 H 0.96486 0.71603 0.73895 0.0
H3304 H 0.93993 0.73896 0.78956 0.0
H3305 H 0.94316 0.73145 0.7679 0.0
C3306 C 0.328 0.27919 0.71064 0.0
C3307 C 0.32021 0.28504 0.70619 0.0
C3308 C 0.32325 0.26972 0.72083 0.0
C3309 C 0.29173 0.24655 0.73934 0.0
H3310 H 0.31792 0.24935 0.76591 0.0
C3311 C 0.29152 0.22859 0.7958 0.0
C3312 C 0.28038 0.21501 0.79503 0.0
C3313 C 0.29692 0.23622 0.78445 0.0
C3314 C 0.31046 0.24846 0.75861 0.0
H3315 H 0.30131 0.28554 0.70886 0.0
H3316 H 0.29314 0.26927 0.72679 0.0
H3317 H 0.32598 0.26453 0.74715 0.0
H3318 H 0.26609 0.19875 0.78177 0.0
H3319 H 0.27576 0.2119 0.76189 0.0
H3320 H 0.27613 0.23092 0.75108 0.0
C3321 C 0.30279 0.27174 0.72227 0.0
C3322 C 0.3151 0.25706 0.74775 0.0
C3323 C 0.30751 0.28115 0.71204 0.0
C3324 C 0.27483 0.20913 0.78265 0.0
C3325 C 0.28027 0.21673 0.77128 0.0
C3326 C 0.28707 0.23801 0.75023 0.0
C3327 C 0.31062 0.26595 0.72684 0.0
C3328 C 0.30578 0.2563 0.73804 0.0
C3329 C 0.29126 0.23044 0.77205 0.0
C3330 C 0.29636 0.23894 0.76007 0.0
H3331 H 0.33781 0.28195 0.70627 0.0
H3332 H 0.32945 0.26531 0.72396 0.0
H3333 H 0.28428 0.24554 0.73197 0.0
H3334 H 0.29582 0.23345 0.80524 0.0
H3335 H 0.30522 0.24682 0.78545 0.0
C3336 C 0.72259 0.0302 0.70792 0.0
C3337 C 0.72003 0.03952 0.70108 0.0
C3338 C 0.73131 0.0346 0.71893 0.0
C3339 C 0.74598 0.06216 0.74446 0.0
H3340 H 0.76917 0.04639 0.75173 0.0
C3341 C 0.7887 0.06552 0.7852 0.0
C3342 C 0.78203 0.06571 0.79675 0.0
C3343 C 0.78245 0.06417 0.77296 0.0
C3344 C 0.76293 0.05107 0.74979 0.0
H3345 H 0.7248 0.06083 0.7002 0.0
H3346 H 0.74026 0.06861 0.7193 0.0
H3347 H 0.75625 0.04069 0.73117 0.0
H3348 H 0.76356 0.06448 0.80455 0.0
H3349 H 0.7525 0.06187 0.78322 0.0
H3350 H 0.75282 0.07269 0.76301 0.0
C3351 C 0.73534 0.05783 0.71631 0.0
C3352 C 0.75535 0.04764 0.73806 0.0
C3353 C 0.72655 0.0534 0.70532 0.0
C3354 C 0.76903 0.06463 0.79579 0.0
C3355 C 0.76274 0.06319 0.78355 0.0
C3356 C 0.75362 0.06565 0.75617 0.0
C3357 C 0.73775 0.04846 0.7233 0.0
C3358 C 0.74661 0.05295 0.73533 0.0
C3359 C 0.76928 0.06275 0.77199 0.0
C3360 C 0.76203 0.05998 0.75907 0.0
H3361 H 0.71766 0.01942 0.70492 0.0
H3362 H 0.73274 0.02705 0.72419 0.0
H3363 H 0.73928 0.06637 0.74274 0.0
H3364 H 0.79864 0.06613 0.78565 0.0
H3365 H 0.78786 0.06404 0.76425 0.0
C3366 C 0.02506 0.33018 0.03562 0.0
C3367 C 0.02768 0.3371 0.02366 0.0
C3368 C 0.03505 0.32799 0.04153 0.0
C3369 C 0.06486 0.32431 0.03433 0.0
H3370 H 0.07279 0.33154 0.0716 0.0
C3371 C 0.09409 0.30322 0.06408 0.0
C3372 C 0.10443 0.31247 0.07283 0.0
C3373 C 0.0853 0.3069 0.05786 0.0
C3374 C 0.07074 0.32956 0.06117 0.0
H3375 H 0.04275 0.3471 0.00846 0.0
H3376 H 0.0602 0.34306 0.01873 0.0
H3377 H 0.05641 0.33694 0.06112 0.0
H3378 H 0.11406 0.33312 0.08146 0.0
H3379 H 0.09841 0.33942 0.07083 0.0
H3380 H 0.07904 0.31675 0.03442 0.0
C3381 C 0.05041 0.33939 0.02353 0.0
C3382 C 0.06131 0.33255 0.0552 0.0
C3383 C 0.04047 0.34174 0.01768 0.0
C3384 C 0.10596 0.32562 0.07504 0.0
C3385 C 0.09704 0.32924 0.06894 0.0
C3386 C 0.07416 0.32116 0.04033 0.0
C3387 C 0.0478 0.33253 0.03553 0.0
C3388 C 0.05823 0.32989 0.04174 0.0
C3389 C 0.08664 0.31992 0.06028 0.0
C3390 C 0.07714 0.32369 0.05382 0.0
H3391 H 0.0153 0.32651 0.04047 0.0
H3392 H 0.03271 0.32255 0.05071 0.0
H3393 H 0.0626 0.32208 0.02395 0.0
H3394 H 0.09287 0.29313 0.06201 0.0
H3395 H 0.07733 0.2995 0.05128 0.0
C3396 C 0.64505 0.68565 0.03171 0.0
C3397 C 0.6557 0.68469 0.0255 0.0
C3398 C 0.64765 0.69805 0.03774 0.0
C3399 C 0.67282 0.73564 0.03897 0.0
H3400 H 0.65823 0.73424 0.07364 0.0
C3401 C 0.69444 0.78348 0.07294 0.0
C3402 C 0.68508 0.78578 0.08007 0.0
C3403 C 0.68999 0.77107 0.06605 0.0
C3404 C 0.66223 0.73479 0.0639 0.0
H3405 H 0.67732 0.696 0.02053 0.0
H3406 H 0.68187 0.71754 0.03109 0.0
H3407 H 0.65184 0.71276 0.06167 0.0
H3408 H 0.66363 0.77706 0.08522 0.0
H3409 H 0.65584 0.75521 0.07323 0.0
H3410 H 0.68339 0.75764 0.04128 0.0
C3411 C 0.67148 0.70881 0.0312 0.0
C3412 C 0.65856 0.72249 0.05702 0.0
C3413 C 0.66889 0.69643 0.0252 0.0
C3414 C 0.67112 0.77543 0.08006 0.0
C3415 C 0.66667 0.76295 0.07319 0.0
C3416 C 0.67651 0.74791 0.04585 0.0
C3417 C 0.66093 0.70974 0.03764 0.0
C3418 C 0.66397 0.72278 0.04455 0.0
C3419 C 0.67606 0.76069 0.06603 0.0
C3420 C 0.67142 0.74762 0.05846 0.0
H3421 H 0.63478 0.67676 0.03209 0.0
H3422 H 0.63927 0.69848 0.0425 0.0
H3423 H 0.67695 0.73623 0.02929 0.0
H3424 H 0.70521 0.79136 0.0726 0.0
H3425 H 0.69751 0.76958 0.06075 0.0
C3426 C 0.30942 0.98126 0.03393 0.0
C3427 C 0.31425 0.97552 0.0245 0.0
C3428 C 0.29761 0.97287 0.041 0.0
C3429 C 0.26595 0.93889 0.04063 0.0
H3430 H 0.26572 0.94758 0.07753 0.0
C3431 C 0.21919 0.90666 0.07389 0.0
C3432 C 0.21532 0.91438 0.08199 0.0
C3433 C 0.23166 0.91316 0.06721 0.0
C3434 C 0.2656 0.94507 0.06723 0.0
H3435 H 0.31042 0.95646 0.01497 0.0
H3436 H 0.28968 0.94166 0.02745 0.0
H3437 H 0.28671 0.96056 0.06507 0.0
H3438 H 0.22136 0.93496 0.08927 0.0
H3439 H 0.24314 0.9463 0.07769 0.0
H3440 H 0.24475 0.92346 0.04281 0.0
C3441 C 0.29503 0.95272 0.02928 0.0
C3442 C 0.27762 0.95251 0.06008 0.0
C3443 C 0.30691 0.96116 0.02217 0.0
C3444 C 0.22418 0.92872 0.08328 0.0
C3445 C 0.23666 0.9352 0.07667 0.0
C3446 C 0.25391 0.93141 0.04781 0.0
C3447 C 0.29033 0.95849 0.03886 0.0
C3448 C 0.27787 0.9497 0.04664 0.0
C3449 C 0.24051 0.92751 0.06851 0.0
C3450 C 0.25355 0.9346 0.06113 0.0
H3451 H 0.31479 0.9923 0.03591 0.0
H3452 H 0.29411 0.97768 0.0481 0.0
H3453 H 0.26577 0.93654 0.03027 0.0
H3454 H 0.21247 0.89561 0.07261 0.0
H3455 H 0.23438 0.90696 0.06104 0.0
C3456 C 0.3483 0.04287 0.98999 0.0
C3457 C 0.34132 0.02861 0.9872 0.0
C3458 C 0.34503 0.05161 0.98304 0.0
C3459 C 0.32812 0.05303 0.95221 0.0
H3460 H 0.32412 0.08138 0.97055 0.0
C3461 C 0.29827 0.07761 0.9303 0.0
C3462 C 0.30367 0.09189 0.93212 0.0
C3463 C 0.30437 0.07092 0.93651 0.0
C3464 C 0.3254 0.07365 0.96526 0.0
H3465 H 0.32537 0.01227 0.97509 0.0
H3466 H 0.31956 0.02738 0.96318 0.0
H3467 H 0.33204 0.06782 0.98255 0.0
H3468 H 0.3196 0.11034 0.942 0.0
H3469 H 0.33031 0.0986 0.95289 0.0
H3470 H 0.32118 0.05863 0.93499 0.0
C3471 C 0.32773 0.03192 0.97052 0.0
C3472 C 0.32994 0.06588 0.97213 0.0
C3473 C 0.33099 0.02324 0.97743 0.0
C3474 C 0.31531 0.09934 0.94032 0.0
C3475 C 0.32137 0.09262 0.94661 0.0
C3476 C 0.32354 0.06075 0.94537 0.0
C3477 C 0.33474 0.04622 0.97317 0.0
C3478 C 0.3311 0.05531 0.96573 0.0
C3479 C 0.31592 0.07832 0.94481 0.0
C3480 C 0.32191 0.07098 0.95185 0.0
H3481 H 0.35633 0.0473 0.99746 0.0
H3482 H 0.35068 0.06259 0.98526 0.0
H3483 H 0.3292 0.04517 0.94692 0.0
H3484 H 0.28919 0.07158 0.9242 0.0
H3485 H 0.29979 0.05985 0.93509 0.0
C3486 C 0.97808 0.30066 0.9796 0.0
C3487 C 0.97261 0.3051 0.98963 0.0
C3488 C 0.97015 0.2877 0.97362 0.0
C3489 C 0.93465 0.26035 0.96687 0.0
H3490 H 0.95163 0.238 0.96055 0.0
C3491 C 0.89765 0.20102 0.94078 0.0
C3492 C 0.9081 0.1978 0.92861 0.0
C3493 C 0.9072 0.2167 0.95038 0.0
C3494 C 0.94677 0.24417 0.96205 0.0
H3495 H 0.95448 0.29953 0.00121 0.0
H3496 H 0.94051 0.27676 0.99066 0.0
H3497 H 0.96456 0.26008 0.97211 0.0
H3498 H 0.9327 0.20228 0.92387 0.0
H3499 H 0.94671 0.22662 0.94038 0.0
H3500 H 0.91695 0.24456 0.95657 0.0
C3501 C 0.95096 0.28337 0.98744 0.0
C3502 C 0.95418 0.2568 0.96875 0.0
C3503 C 0.95897 0.29635 0.9935 0.0
C3504 C 0.92699 0.20515 0.93046 0.0
C3505 C 0.93559 0.22067 0.94037 0.0
C3506 C 0.92725 0.24771 0.9601 0.0
C3507 C 0.95652 0.27889 0.97749 0.0
C3508 C 0.94826 0.26511 0.97109 0.0
C3509 C 0.92581 0.22658 0.94978 0.0
C3510 C 0.93331 0.23959 0.95749 0.0
H3511 H 0.98855 0.30718 0.97636 0.0
H3512 H 0.97465 0.28462 0.96585 0.0
H3513 H 0.92987 0.2666 0.96845 0.0
H3514 H 0.88652 0.19559 0.94028 0.0
H3515 H 0.90167 0.22015 0.95656 0.0
C3516 C 0.68665 0.64853 0.98217 0.0
C3517 C 0.6866 0.65472 0.99423 0.0
C3518 C 0.69903 0.65264 0.9757 0.0
C3519 C 0.73215 0.68244 0.97067 0.0
H3520 H 0.7447 0.65722 0.96001 0.0
C3521 C 0.78562 0.70247 0.94826 0.0
C3522 C 0.78736 0.69433 0.93872 0.0
C3523 C 0.77328 0.69732 0.95502 0.0
C3524 C 0.74125 0.66439 0.96268 0.0
H3525 H 0.69938 0.66992 0.00906 0.0
H3526 H 0.721 0.6774 0.9975 0.0
H3527 H 0.72315 0.6485 0.97186 0.0
H3528 H 0.77751 0.67418 0.92901 0.0
H3529 H 0.75572 0.66548 0.94021 0.0
H3530 H 0.74976 0.69824 0.9611 0.0
C3531 C 0.71147 0.66926 0.99319 0.0
C3532 C 0.72897 0.65937 0.96956 0.0
C3533 C 0.69915 0.66493 0.9998 0.0
C3534 C 0.77646 0.68084 0.93613 0.0
C3535 C 0.76399 0.67578 0.94272 0.0
C3536 C 0.74426 0.6874 0.96356 0.0
C3537 C 0.71149 0.66322 0.98105 0.0
C3538 C 0.7244 0.66839 0.9737 0.0
C3539 C 0.76225 0.68392 0.95231 0.0
C3540 C 0.74908 0.67848 0.95956 0.0
H3541 H 0.67711 0.64062 0.97768 0.0
H3542 H 0.69881 0.64788 0.96632 0.0
H3543 H 0.72869 0.68954 0.97362 0.0
H3544 H 0.79395 0.71279 0.95064 0.0
H3545 H 0.77253 0.70381 0.96255 0.0
C3546 C 0.98134 0.67434 0.98235 0.0
C3547 C 0.97506 0.66363 0.9914 0.0
C3548 C 0.97366 0.67915 0.97577 0.0
C3549 C 0.93823 0.67012 0.96642 0.0
H3550 H 0.9543 0.70983 0.96395 0.0
C3551 C 0.90684 0.696 0.95121 0.0
C3552 C 0.9133 0.70782 0.94345 0.0
C3553 C 0.91424 0.68998 0.95608 0.0
C3554 C 0.94974 0.69871 0.96436 0.0
H3555 H 0.95575 0.64936 0.00047 0.0
H3556 H 0.94229 0.65784 0.989 0.0
H3557 H 0.96735 0.70044 0.97437 0.0
H3558 H 0.9326 0.72268 0.93476 0.0
H3559 H 0.9455 0.71201 0.94302 0.0
H3560 H 0.92057 0.66842 0.95645 0.0
C3561 C 0.95316 0.66244 0.98693 0.0
C3562 C 0.95721 0.69333 0.97036 0.0
C3563 C 0.96087 0.65763 0.99355 0.0
C3564 C 0.92731 0.71345 0.94056 0.0
C3565 C 0.93472 0.70742 0.94541 0.0
C3566 C 0.93075 0.67551 0.96038 0.0
C3567 C 0.95951 0.67335 0.97807 0.0
C3568 C 0.95155 0.67897 0.97149 0.0
C3569 C 0.92831 0.69571 0.95337 0.0
C3570 C 0.9364 0.68988 0.95931 0.0
H3571 H 0.99225 0.67913 0.98043 0.0
H3572 H 0.97882 0.68742 0.96885 0.0
H3573 H 0.93365 0.65901 0.96699 0.0
H3574 H 0.89611 0.6916 0.95377 0.0
H3575 H 0.90904 0.68112 0.96235 0.0
C3576 C 0.3467 0.31148 0.98325 0.0
C3577 C 0.34212 0.32075 0.98021 0.0
C3578 C 0.34118 0.29873 0.97664 0.0
C3579 C 0.3099 0.27356 0.95862 0.0
H3580 H 0.33182 0.25695 0.94888 0.0
C3581 C 0.28519 0.22007 0.93313 0.0
C3582 C 0.28924 0.21091 0.93796 0.0
C3583 C 0.29258 0.2341 0.93661 0.0
C3584 C 0.32555 0.26142 0.95161 0.0
H3585 H 0.32851 0.32416 0.96757 0.0
H3586 H 0.31896 0.30198 0.95599 0.0
H3587 H 0.34312 0.28039 0.95816 0.0
H3588 H 0.30414 0.20921 0.95021 0.0
H3589 H 0.31697 0.23365 0.95641 0.0
H3590 H 0.29231 0.25455 0.95238 0.0
C3591 C 0.32667 0.30446 0.9636 0.0
C3592 C 0.33202 0.27484 0.95693 0.0
C3593 C 0.3322 0.31719 0.97019 0.0
C3594 C 0.30093 0.21609 0.94618 0.0
C3595 C 0.3083 0.2301 0.94969 0.0
C3596 C 0.30343 0.26015 0.95334 0.0
C3597 C 0.33094 0.29499 0.96688 0.0
C3598 C 0.32425 0.28102 0.96059 0.0
C3599 C 0.30409 0.23925 0.94511 0.0
C3600 C 0.31115 0.25386 0.94987 0.0
H3601 H 0.35433 0.31394 0.99094 0.0
H3602 H 0.34459 0.29161 0.97948 0.0
H3603 H 0.30358 0.27791 0.96154 0.0
H3604 H 0.27611 0.21632 0.9269 0.0
H3605 H 0.28914 0.24089 0.9328 0.0
C3606 C 0.69126 0.01918 0.97843 0.0
C3607 C 0.68677 0.02508 0.98804 0.0
C3608 C 0.70401 0.02706 0.97254 0.0
C3609 C 0.73098 0.06284 0.96599 0.0
H3610 H 0.75404 0.04638 0.96147 0.0
C3611 C 0.78813 0.09434 0.95118 0.0
C3612 C 0.79322 0.088 0.94269 0.0
C3613 C 0.77479 0.08687 0.95604 0.0
C3614 C 0.74766 0.05107 0.96247 0.0
H3615 H 0.69201 0.0439 0.99892 0.0
H3616 H 0.7144 0.05772 0.98861 0.0
H3617 H 0.73153 0.03307 0.97139 0.0
H3618 H 0.78839 0.06883 0.93274 0.0
H3619 H 0.76495 0.05583 0.94095 0.0
H3620 H 0.74714 0.08086 0.95705 0.0
C3621 C 0.70799 0.047 0.98559 0.0
C3622 C 0.73476 0.04345 0.96819 0.0
C3623 C 0.69522 0.03908 0.99153 0.0
C3624 C 0.78466 0.07404 0.9391 0.0
C3625 C 0.7713 0.06657 0.94393 0.0
C3626 C 0.74389 0.07047 0.96022 0.0
C3627 C 0.71256 0.04104 0.97609 0.0
C3628 C 0.72628 0.04924 0.97002 0.0
C3629 C 0.76626 0.07285 0.95258 0.0
C3630 C 0.75238 0.06468 0.9584 0.0
H3631 H 0.68496 0.00842 0.97549 0.0
H3632 H 0.70715 0.02221 0.96512 0.0
H3633 H 0.72461 0.06752 0.96712 0.0
H3634 H 0.79461 0.10502 0.9543 0.0
H3635 H 0.77134 0.09197 0.96285 0.0
C3636 C 0.66596 0.9783 0.038 0.0
C3637 C 0.66053 0.97473 0.02519 0.0
C3638 C 0.67054 0.97041 0.04448 0.0
C3639 C 0.68475 0.94793 0.03885 0.0
H3640 H 0.67536 0.93828 0.0752 0.0
C3641 C 0.70589 0.91853 0.06877 0.0
C3642 C 0.70973 0.92294 0.08186 0.0
C3643 C 0.69881 0.92352 0.06136 0.0
C3644 C 0.6782 0.941 0.06509 0.0
H3645 H 0.65558 0.96007 0.0091 0.0
H3646 H 0.66387 0.94632 0.02043 0.0
H3647 H 0.66472 0.94927 0.06315 0.0
H3648 H 0.70929 0.93608 0.09741 0.0
H3649 H 0.69738 0.94511 0.08443 0.0
H3650 H 0.69864 0.94014 0.04091 0.0
C3651 C 0.66448 0.95522 0.02543 0.0
C3652 C 0.67204 0.94723 0.05818 0.0
C3653 C 0.65969 0.96303 0.01899 0.0
C3654 C 0.70646 0.93251 0.08734 0.0
C3655 C 0.69949 0.93755 0.07994 0.0
C3656 C 0.69104 0.94181 0.04581 0.0
C3657 C 0.66995 0.95885 0.03824 0.0
C3658 C 0.67543 0.95097 0.04507 0.0
C3659 C 0.69549 0.93306 0.06688 0.0
C3660 C 0.68803 0.93851 0.0591 0.0
H3661 H 0.66673 0.98726 0.04303 0.0
H3662 H 0.67485 0.97354 0.05429 0.0
H3663 H 0.68762 0.9508 0.02877 0.0
H3664 H 0.70826 0.91114 0.0643 0.0
H3665 H 0.69578 0.91974 0.05137 0.0
C3666 C 0.01867 0.69332 0.04211 0.0
C3667 C 0.02456 0.68881 0.03254 0.0
C3668 C 0.02635 0.70634 0.04806 0.0
C3669 C 0.06173 0.73529 0.05412 0.0
H3670 H 0.04336 0.75675 0.05723 0.0
C3671 C 0.09059 0.79418 0.06507 0.0
C3672 C 0.08412 0.79949 0.07307 0.0
C3673 C 0.08373 0.78022 0.06133 0.0
C3674 C 0.04859 0.75084 0.05665 0.0
H3675 H 0.04324 0.69423 0.02198 0.0
H3676 H 0.05669 0.71713 0.03233 0.0
H3677 H 0.03078 0.73327 0.04842 0.0
H3678 H 0.06543 0.7944 0.08345 0.0
H3679 H 0.05352 0.76993 0.07717 0.0
H3680 H 0.07961 0.75299 0.06226 0.0
C3681 C 0.04615 0.71051 0.03529 0.0
C3682 C 0.04138 0.73737 0.05157 0.0
C3683 C 0.03843 0.69744 0.02932 0.0
C3684 C 0.07072 0.79053 0.07742 0.0
C3685 C 0.06387 0.77656 0.0737 0.0
C3686 C 0.06896 0.74879 0.05924 0.0
C3687 C 0.0401 0.71519 0.04458 0.0
C3688 C 0.04785 0.72943 0.05022 0.0
C3689 C 0.07021 0.77129 0.06544 0.0
C3690 C 0.06248 0.75674 0.06053 0.0
H3691 H 0.00802 0.68687 0.04488 0.0
H3692 H 0.02146 0.70953 0.05535 0.0
H3693 H 0.06696 0.72939 0.05333 0.0
H3694 H 0.10083 0.80092 0.06141 0.0
H3695 H 0.08884 0.77655 0.05481 0.0
C3696 C 0.31425 0.33222 0.03226 0.0
C3697 C 0.31895 0.34374 0.02415 0.0
C3698 C 0.302 0.3274 0.03914 0.0
C3699 C 0.26926 0.32743 0.03838 0.0
H3700 H 0.26594 0.31445 0.07399 0.0
C3701 C 0.21911 0.30842 0.06699 0.0
C3702 C 0.21455 0.29627 0.07413 0.0
C3703 C 0.23238 0.31528 0.06191 0.0
C3704 C 0.26668 0.31794 0.06401 0.0
H3705 H 0.31462 0.35939 0.01703 0.0
H3706 H 0.29322 0.35098 0.02909 0.0
H3707 H 0.28815 0.32449 0.06314 0.0
H3708 H 0.22031 0.28181 0.08166 0.0
H3709 H 0.24349 0.29369 0.07265 0.0
H3710 H 0.24778 0.32068 0.03912 0.0
C3711 C 0.29895 0.3456 0.03003 0.0
C3712 C 0.2794 0.32369 0.0578 0.0
C3713 C 0.31123 0.35046 0.02317 0.0
C3714 C 0.22363 0.29124 0.0763 0.0
C3715 C 0.2369 0.29808 0.07118 0.0
C3716 C 0.25655 0.32165 0.04457 0.0
C3717 C 0.29416 0.33397 0.03803 0.0
C3718 C 0.28082 0.32842 0.04488 0.0
C3719 C 0.24136 0.31008 0.06375 0.0
C3720 C 0.25507 0.31676 0.05744 0.0
H3721 H 0.31997 0.32682 0.0332 0.0
H3722 H 0.29852 0.31831 0.04508 0.0
H3723 H 0.26995 0.33077 0.02835 0.0
H3724 H 0.2123 0.31249 0.06512 0.0
H3725 H 0.23555 0.3246 0.05641 0.0
C3726 C 0.70045 0.66814 0.34884 0.0
C3727 C 0.69055 0.66909 0.35639 0.0
C3728 C 0.71018 0.66555 0.35481 0.0
C3729 C 0.71812 0.65413 0.38647 0.0
H3730 H 0.75481 0.67082 0.37207 0.0
C3731 C 0.76673 0.66091 0.41394 0.0
C3732 C 0.77407 0.65558 0.40729 0.0
C3733 C 0.75591 0.66149 0.40767 0.0
C3734 C 0.74457 0.66604 0.37612 0.0
H3735 H 0.68309 0.6683 0.37606 0.0
H3736 H 0.70042 0.66456 0.38659 0.0
H3737 H 0.73731 0.67421 0.36127 0.0
H3738 H 0.77598 0.64695 0.38882 0.0
H3739 H 0.75731 0.6484 0.37773 0.0
H3740 H 0.72579 0.64659 0.40171 0.0
C3741 C 0.70046 0.66523 0.37602 0.0
C3742 C 0.73448 0.66788 0.36991 0.0
C3743 C 0.69056 0.66749 0.37 0.0
C3744 C 0.77041 0.65098 0.3942 0.0
C3745 C 0.7598 0.65184 0.38786 0.0
C3746 C 0.72832 0.65256 0.39284 0.0
C3747 C 0.71041 0.66419 0.36852 0.0
C3748 C 0.7211 0.66196 0.37499 0.0
C3749 C 0.75248 0.65711 0.39454 0.0
C3750 C 0.7416 0.6585 0.3877 0.0
H3751 H 0.70058 0.66921 0.33829 0.0
H3752 H 0.71743 0.66453 0.34863 0.0
H3753 H 0.7079 0.64913 0.39056 0.0
H3754 H 0.7694 0.66478 0.42394 0.0
H3755 H 0.75047 0.66572 0.41296 0.0
C3756 C 0.31837 0.02187 0.37334 0.0
C3757 C 0.32775 0.01874 0.36737 0.0
C3758 C 0.32308 0.03352 0.38156 0.0
C3759 C 0.35398 0.05818 0.40121 0.0
H3760 H 0.33462 0.0787 0.40397 0.0
C3761 C 0.38154 0.11342 0.4352 0.0
C3762 C 0.36858 0.11801 0.44083 0.0
C3763 C 0.37497 0.09897 0.42388 0.0
C3764 C 0.34005 0.07298 0.40336 0.0
H3765 H 0.34937 0.02562 0.3648 0.0
H3766 H 0.35763 0.04622 0.37866 0.0
H3767 H 0.32658 0.05952 0.3882 0.0
H3768 H 0.34246 0.10774 0.4454 0.0
H3769 H 0.33331 0.08426 0.42764 0.0
H3770 H 0.36757 0.07182 0.4162 0.0
C3771 C 0.34663 0.03947 0.37743 0.0
C3772 C 0.33544 0.06197 0.39435 0.0
C3773 C 0.34191 0.02773 0.36938 0.0
C3774 C 0.34974 0.10535 0.44089 0.0
C3775 C 0.3442 0.09117 0.42935 0.0
C3776 C 0.35868 0.06931 0.41006 0.0
C3777 C 0.33728 0.0424 0.38384 0.0
C3778 C 0.34232 0.05438 0.39318 0.0
C3779 C 0.35666 0.08839 0.4207 0.0
C3780 C 0.35173 0.07676 0.41125 0.0
H3781 H 0.30738 0.01507 0.37202 0.0
H3782 H 0.31554 0.03529 0.38644 0.0
H3783 H 0.35936 0.05241 0.40086 0.0
H3784 H 0.39249 0.12054 0.43623 0.0
H3785 H 0.38212 0.09678 0.41882 0.0
C3786 C 0.97512 0.31201 0.36196 0.0
C3787 C 0.98204 0.30582 0.35609 0.0
C3788 C 0.96284 0.30402 0.36858 0.0
C3789 C 0.93384 0.26853 0.37192 0.0
H3790 H 0.92885 0.28292 0.40494 0.0
C3791 C 0.88646 0.23705 0.40459 0.0
C3792 C 0.8805 0.24434 0.41022 0.0
C3793 C 0.89914 0.24411 0.39833 0.0
C3794 C 0.93003 0.27881 0.39568 0.0
H3795 H 0.98142 0.28639 0.35236 0.0
H3796 H 0.9599 0.27238 0.36401 0.0
H3797 H 0.95029 0.29598 0.39316 0.0
H3798 H 0.8829 0.26464 0.41329 0.0
H3799 H 0.90499 0.27698 0.40234 0.0
H3800 H 0.91349 0.25141 0.3744 0.0
C3801 C 0.96397 0.28341 0.36341 0.0
C3802 C 0.94232 0.2863 0.38892 0.0
C3803 C 0.9763 0.29143 0.35678 0.0
C3804 C 0.8874 0.2588 0.4093 0.0
C3805 C 0.90007 0.26585 0.40306 0.0
C3806 C 0.92152 0.26104 0.37868 0.0
C3807 C 0.95718 0.28966 0.3695 0.0
C3808 C 0.94431 0.28133 0.3769 0.0
C3809 C 0.90608 0.2586 0.39747 0.0
C3810 C 0.91942 0.26617 0.39058 0.0
H3811 H 0.97925 0.32307 0.36154 0.0
H3812 H 0.95774 0.30912 0.37296 0.0
H3813 H 0.93502 0.26449 0.36262 0.0
H3814 H 0.88123 0.22588 0.40494 0.0
H3815 H 0.90353 0.23823 0.39419 0.0
C3816 C 0.01676 0.37219 0.32569 0.0
C3817 C 0.01646 0.36104 0.31891 0.0
C3818 C 0.01635 0.38273 0.31886 0.0
C3819 C 0.00863 0.39173 0.28601 0.0
H3820 H 0.03132 0.42922 0.29939 0.0
C3821 C 0.02244 0.44073 0.25613 0.0
C3822 C 0.02136 0.45128 0.2627 0.0
C3823 C 0.02076 0.4292 0.26291 0.0
C3824 C 0.02482 0.41879 0.29561 0.0
H3825 H 0.01537 0.35208 0.29967 0.0
H3826 H 0.0151 0.37069 0.28769 0.0
H3827 H 0.0305 0.41011 0.31132 0.0
H3828 H 0.01807 0.4582 0.28154 0.0
H3829 H 0.01524 0.4381 0.29343 0.0
H3830 H 0.00334 0.40061 0.27006 0.0
C3831 C 0.01532 0.37117 0.2983 0.0
C3832 C 0.0243 0.40781 0.30247 0.0
C3833 C 0.01556 0.36054 0.30516 0.0
C3834 C 0.01872 0.45011 0.27621 0.0
C3835 C 0.0172 0.43868 0.28301 0.0
C3836 C 0.00929 0.40275 0.27907 0.0
C3837 C 0.01582 0.38247 0.30506 0.0
C3838 C 0.01618 0.39412 0.29778 0.0
C3839 C 0.01827 0.42814 0.27645 0.0
C3840 C 0.01737 0.41638 0.28382 0.0
H3841 H 0.01734 0.37279 0.33631 0.0
H3842 H 0.01645 0.39109 0.32443 0.0
H3843 H 0.0021 0.38133 0.2822 0.0
H3844 H 0.02479 0.44149 0.24579 0.0
H3845 H 0.02183 0.42132 0.25766 0.0
C3846 C 0.64106 0.63281 0.31359 0.0
C3847 C 0.63566 0.63823 0.32277 0.0
C3848 C 0.63266 0.61991 0.30766 0.0
C3849 C 0.59667 0.59462 0.29933 0.0
H3850 H 0.61104 0.56969 0.29516 0.0
C3851 C 0.55718 0.53521 0.27416 0.0
C3852 C 0.56729 0.53054 0.26288 0.0
C3853 C 0.56729 0.55112 0.28332 0.0
C3854 C 0.60693 0.57658 0.29604 0.0
H3855 H 0.6172 0.63441 0.33293 0.0
H3856 H 0.60243 0.61173 0.3225 0.0
H3857 H 0.62478 0.59166 0.30666 0.0
H3858 H 0.59135 0.5331 0.25939 0.0
H3859 H 0.60621 0.55788 0.27517 0.0
H3860 H 0.57889 0.57958 0.28855 0.0
C3861 C 0.61319 0.61755 0.31988 0.0
C3862 C 0.6148 0.58917 0.30271 0.0
C3863 C 0.62164 0.63048 0.32589 0.0
C3864 C 0.58592 0.53679 0.26541 0.0
C3865 C 0.59509 0.55261 0.27483 0.0
C3866 C 0.5888 0.58201 0.29261 0.0
C3867 C 0.61864 0.61212 0.31073 0.0
C3868 C 0.60984 0.59841 0.3043 0.0
C3869 C 0.58593 0.55987 0.28324 0.0
C3870 C 0.59393 0.57295 0.29077 0.0
H3871 H 0.65181 0.63856 0.31094 0.0
H3872 H 0.63713 0.61611 0.30051 0.0
H3873 H 0.59263 0.60158 0.3003 0.0
H3874 H 0.5461 0.53042 0.27333 0.0
H3875 H 0.5621 0.55536 0.28894 0.0
C3876 C 0.35188 0.9752 0.32926 0.0
C3877 C 0.34627 0.98353 0.32592 0.0
C3878 C 0.36253 0.97557 0.32194 0.0
C3879 C 0.39017 0.99731 0.29919 0.0
H3880 H 0.39028 0.96322 0.292 0.0
C3881 C 0.43842 0.99624 0.28175 0.0
C3882 C 0.4367 0.98601 0.27257 0.0
C3883 C 0.42699 0.99624 0.2871 0.0
C3884 C 0.39034 0.97282 0.29378 0.0
H3885 H 0.34738 0.99879 0.3123 0.0
H3886 H 0.36596 0.99938 0.29944 0.0
H3887 H 0.37094 0.9625 0.30342 0.0
H3888 H 0.42168 0.96766 0.26189 0.0
H3889 H 0.40166 0.96778 0.27106 0.0
H3890 H 0.40952 0.00761 0.28945 0.0
C3891 C 0.36222 0.99266 0.3078 0.0
C3892 C 0.37933 0.97242 0.30048 0.0
C3893 C 0.35154 0.99228 0.31513 0.0
C3894 C 0.4233 0.97578 0.26881 0.0
C3895 C 0.41185 0.97579 0.27415 0.0
C3896 C 0.40118 0.9977 0.29249 0.0
C3897 C 0.36781 0.98428 0.3111 0.0
C3898 C 0.37919 0.98467 0.3034 0.0
C3899 C 0.41357 0.98595 0.28346 0.0
C3900 C 0.40147 0.98548 0.28982 0.0
H3901 H 0.34805 0.96838 0.33754 0.0
H3902 H 0.36675 0.96915 0.32488 0.0
H3903 H 0.39042 0.00694 0.30136 0.0
H3904 H 0.44863 0.00409 0.285 0.0
H3905 H 0.42869 0.00406 0.29442 0.0
C3906 C 0.64378 0.99186 0.31381 0.0
C3907 C 0.63897 0.98236 0.32405 0.0
C3908 C 0.63487 0.99518 0.30724 0.0
C3909 C 0.60198 0.99475 0.3113 0.0
H3910 H 0.60449 0.00055 0.27377 0.0
C3911 C 0.56316 0.0045 0.28306 0.0
C3912 C 0.56867 0.0153 0.27405 0.0
C3913 C 0.57135 0.99963 0.2885 0.0
C3914 C 0.60374 0.99905 0.28427 0.0
H3915 H 0.62103 0.96869 0.33532 0.0
H3916 H 0.60544 0.97434 0.32375 0.0
H3917 H 0.61947 0.99355 0.28456 0.0
H3918 H 0.58712 0.0296 0.26379 0.0
H3919 H 0.60147 0.02105 0.27325 0.0
H3920 H 0.58628 0.00028 0.31102 0.0
C3921 C 0.61614 0.97941 0.32091 0.0
C3922 C 0.61233 0.99506 0.29046 0.0
C3923 C 0.62505 0.97611 0.3275 0.0
C3924 C 0.58254 0.02108 0.27052 0.0
C3925 C 0.59073 0.01618 0.27592 0.0
C3926 C 0.59337 0.99869 0.30511 0.0
C3927 C 0.62096 0.98905 0.31075 0.0
C3928 C 0.61159 0.99292 0.30406 0.0
C3929 C 0.58527 0.00551 0.2851 0.0
C3930 C 0.59418 0.00093 0.29154 0.0
H3931 H 0.65447 0.99686 0.31095 0.0
H3932 H 0.63898 0.00277 0.29958 0.0
H3933 H 0.6013 0.99343 0.32182 0.0
H3934 H 0.55255 -3e-05 0.28608 0.0
H3935 H 0.56681 0.99131 0.29545 0.0
C3936 C 0.00821 0.655 0.30821 0.0
C3937 C 0.01916 0.66195 0.31724 0.0
C3938 C 0.00782 0.64492 0.29966 0.0
C3939 C 0.03086 0.63522 0.28365 0.0
H3940 H 0.99771 0.6003 0.27604 0.0
C3941 C 0.03712 0.5936 0.24621 0.0
C3942 C 0.02028 0.57951 0.23986 0.0
C3943 C 0.03598 0.60488 0.25821 0.0
C3944 C 0.00701 0.61007 0.27792 0.0
H3945 H 0.03807 0.66357 0.32469 0.0
H3946 H 0.03741 0.64604 0.30973 0.0
H3947 H 0.99715 0.61631 0.29221 0.0
H3948 H 0.9949 0.57303 0.23505 0.0
H3949 H 0.99472 0.59252 0.25389 0.0
H3950 H 0.04066 0.62933 0.2692 0.0
C3951 C 0.02919 0.64844 0.3092 0.0
C3952 C 0.00669 0.61921 0.28722 0.0
C3953 C 0.02953 0.65842 0.31779 0.0
C3954 C 0.00427 0.58065 0.23999 0.0
C3955 C 0.00415 0.59236 0.25222 0.0
C3956 C 0.03115 0.62615 0.2743 0.0
C3957 C 0.01843 0.64171 0.29993 0.0
C3958 C 0.01864 0.63185 0.29021 0.0
C3959 C 0.01966 0.60392 0.26147 0.0
C3960 C 0.01925 0.61347 0.27137 0.0
H3961 H 6e-05 0.6575 0.30758 0.0
H3962 H 0.99944 0.63997 0.29256 0.0
H3963 H 0.04016 0.64501 0.28555 0.0
H3964 H 0.04651 0.59323 0.24509 0.0
H3965 H 0.04516 0.61206 0.26365 0.0
C3966 C 0.34782 0.35388 0.3131 0.0
C3967 C 0.3469 0.35757 0.32611 0.0
C3968 C 0.35993 0.3615 0.30611 0.0
C3969 C 0.39694 0.38297 0.31028 0.0
H3970 H 0.39575 0.39443 0.2748 0.0
C3971 C 0.44636 0.41355 0.27995 0.0
C3972 C 0.44542 0.41028 0.2665 0.0
C3973 C 0.4345 0.40816 0.28756 0.0
C3974 C 0.39627 0.39116 0.28463 0.0
H3975 H 0.35788 0.3721 0.34203 0.0
H3976 H 0.37924 0.3853 0.32983 0.0
H3977 H 0.37468 0.38307 0.28744 0.0
H3978 H 0.43133 0.39891 0.25046 0.0
H3979 H 0.41076 0.38902 0.26377 0.0
H3980 H 0.41839 0.39052 0.30736 0.0
C3981 C 0.37052 0.37656 0.32506 0.0
C3982 C 0.3842 0.38473 0.29188 0.0
C3983 C 0.35831 0.36906 0.332 0.0
C3984 C 0.43238 0.40153 0.26082 0.0
C3985 C 0.42057 0.39601 0.26844 0.0
C3986 C 0.409 0.38924 0.30296 0.0
C3987 C 0.37143 0.37283 0.31206 0.0
C3988 C 0.3844 0.38046 0.30472 0.0
C3989 C 0.42145 0.39928 0.28191 0.0
C3990 C 0.40879 0.39328 0.28998 0.0
H3991 H 0.33918 0.34508 0.30831 0.0
H3992 H 0.3604 0.35833 0.29614 0.0
H3993 H 0.39734 0.37966 0.32013 0.0
H3994 H 0.45626 0.42036 0.28457 0.0
H3995 H 0.43558 0.41109 0.29784 0.0
C3996 C 0.31493 0.29353 0.36582 0.0
C3997 C 0.32233 0.30796 0.36753 0.0
C3998 C 0.31948 0.28533 0.37183 0.0
C3999 C 0.3424 0.28545 0.39824 0.0
H4000 H 0.34346 0.25728 0.37655 0.0
C4001 C 0.37565 0.26097 0.41118 0.0
C4002 C 0.37049 0.24696 0.40793 0.0
C4003 C 0.36842 0.26761 0.40751 0.0
C4004 C 0.34302 0.26493 0.38284 0.0
H4005 H 0.3401 0.3251 0.37711 0.0
H4006 H 0.34807 0.31081 0.38753 0.0
H4007 H 0.33315 0.27025 0.36786 0.0
H4008 H 0.35361 0.22885 0.39856 0.0
H4009 H 0.34082 0.24033 0.39237 0.0
H4010 H 0.35246 0.28024 0.41316 0.0
C4011 C 0.33869 0.3058 0.38165 0.0
C4012 C 0.33712 0.27237 0.37784 0.0
C4013 C 0.33417 0.314 0.37561 0.0
C4014 C 0.3578 0.23964 0.40123 0.0
C4015 C 0.35054 0.24625 0.3976 0.0
C4016 C 0.34829 0.27797 0.40326 0.0
C4017 C 0.33149 0.29139 0.37972 0.0
C4018 C 0.33688 0.28283 0.38542 0.0
C4019 C 0.35588 0.26038 0.40049 0.0
C4020 C 0.34881 0.26772 0.39556 0.0
H4021 H 0.30575 0.28859 0.35968 0.0
H4022 H 0.31363 0.27423 0.37027 0.0
H4023 H 0.3422 0.29331 0.40439 0.0
H4024 H 0.38549 0.26688 0.41622 0.0
H4025 H 0.37292 0.27853 0.40975 0.0
C4026 C 0.68264 0.01705 0.37117 0.0
C4027 C 0.68903 0.01205 0.36269 0.0
C4028 C 0.69014 0.03024 0.37689 0.0
C4029 C 0.7255 0.05795 0.38514 0.0
H4030 H 0.70926 0.08148 0.38515 0.0
C4031 C 0.75706 0.11663 0.39613 0.0
C4032 C 0.75077 0.12278 0.40322 0.0
C4033 C 0.74954 0.10273 0.39224 0.0
C4034 C 0.71387 0.07498 0.38543 0.0
H4035 H 0.70833 0.01685 0.35365 0.0
H4036 H 0.72146 0.03992 0.36363 0.0
H4037 H 0.69614 0.05798 0.37634 0.0
H4038 H 0.73165 0.11924 0.41172 0.0
H4039 H 0.71853 0.09485 0.40517 0.0
H4040 H 0.74326 0.07498 0.39419 0.0
C4041 C 0.71066 0.0336 0.36594 0.0
C4042 C 0.70635 0.06151 0.38035 0.0
C4043 C 0.70313 0.02043 0.36016 0.0
C4044 C 0.7368 0.11471 0.40642 0.0
C4045 C 0.72927 0.10079 0.40255 0.0
C4046 C 0.73301 0.07142 0.39027 0.0
C4047 C 0.70423 0.03869 0.3743 0.0
C4048 C 0.71211 0.05287 0.38007 0.0
C4049 C 0.73551 0.09467 0.39528 0.0
C4050 C 0.72732 0.08013 0.3904 0.0
H4051 H 0.67179 0.01081 0.37332 0.0
H4052 H 0.68493 0.0338 0.3834 0.0
H4053 H 0.73014 0.05147 0.38523 0.0
H4054 H 0.76774 0.12268 0.39333 0.0
H4055 H 0.75461 0.09844 0.38648 0.0
C4056 C 0.98066 0.66644 0.36761 0.0
C4057 C 0.98545 0.67857 0.36037 0.0
C4058 C 0.96812 0.66086 0.37413 0.0
C4059 C 0.94235 0.66954 0.38659 0.0
H4060 H 0.91776 0.62988 0.38461 0.0
C4061 C 0.88467 0.64354 0.39897 0.0
C4062 C 0.87864 0.63087 0.40547 0.0
C4063 C 0.89829 0.64972 0.39483 0.0
C4064 C 0.92458 0.64095 0.38544 0.0
H4065 H 0.98093 0.69443 0.35434 0.0
H4066 H 0.95896 0.6846 0.36556 0.0
H4067 H 0.94035 0.63995 0.37466 0.0
H4068 H 0.88212 0.61475 0.41278 0.0
H4069 H 0.90604 0.62562 0.40565 0.0
H4070 H 0.92645 0.67054 0.3972 0.0
C4071 C 0.96497 0.67949 0.36637 0.0
C4072 C 0.93755 0.64673 0.37972 0.0
C4073 C 0.97752 0.68508 0.35986 0.0
C4074 C 0.88657 0.62458 0.4079 0.0
C4075 C 0.9002 0.63075 0.40372 0.0
C4076 C 0.92938 0.66376 0.3923 0.0
C4077 C 0.96009 0.66728 0.37354 0.0
C4078 C 0.94654 0.66111 0.38013 0.0
C4079 C 0.90617 0.64332 0.397 0.0
C4080 C 0.92029 0.64941 0.39169 0.0
H4081 H 0.98658 0.66123 0.36823 0.0
H4082 H 0.96477 0.65155 0.3797 0.0
H4083 H 0.94912 0.68063 0.38728 0.0
H4084 H 0.87872 0.64851 0.39681 0.0
H4085 H 0.90249 0.65929 0.38951 0.0
C4086 C 0.36642 0.01039 0.68565 0.0
C4087 C 0.36213 0.01961 0.6899 0.0
C4088 C 0.37749 0.01024 0.69186 0.0
C4089 C 0.39831 0.02117 0.72269 0.0
H4090 H 0.42442 0.01632 0.70187 0.0
C4091 C 0.45079 0.03106 0.74308 0.0
C4092 C 0.4549 0.0215 0.73946 0.0
C4093 C 0.43901 0.03026 0.73745 0.0
C4094 C 0.41713 0.01753 0.70783 0.0
H4095 H 0.36612 0.036 0.70389 0.0
H4096 H 0.38561 0.03598 0.71453 0.0
H4097 H 0.40489 0.01616 0.69111 0.0
H4098 H 0.45009 0.00382 0.72694 0.0
H4099 H 0.42946 0.00234 0.71714 0.0
H4100 H 0.41073 0.02277 0.73939 0.0
C4101 C 0.38028 0.02865 0.70659 0.0
C4102 C 0.40592 0.01742 0.70167 0.0
C4103 C 0.36916 0.02873 0.70043 0.0
C4104 C 0.44704 0.01119 0.73004 0.0
C4105 C 0.43531 0.01042 0.72436 0.0
C4106 C 0.40957 0.02136 0.72884 0.0
C4107 C 0.38455 0.01936 0.70242 0.0
C4108 C 0.39638 0.01927 0.70901 0.0
C4109 C 0.43122 0.02 0.72794 0.0
C4110 C 0.41911 0.01955 0.72148 0.0
H4111 H 0.36114 0.00318 0.6776 0.0
H4112 H 0.38037 0.00282 0.68851 0.0
H4113 H 0.39103 0.02239 0.72868 0.0
H4114 H 0.45682 0.0393 0.7501 0.0
H4115 H 0.43623 0.0379 0.74025 0.0
C4116 C 0.98842 0.3509 0.70696 0.0
C4117 C 0.98498 0.34821 0.69357 0.0
C4118 C 0.99012 0.36297 0.71295 0.0
C4119 C 0.98202 0.39103 0.70908 0.0
H4120 H 0.01265 0.4107 0.73347 0.0
C4121 C 0.99624 0.45087 0.72814 0.0
C4122 C 0.00135 0.45351 0.74579 0.0
C4123 C 0.99321 0.43471 0.72113 0.0
C4124 C 0.0039 0.40524 0.72688 0.0
H4125 H 0.98051 0.35597 0.67595 0.0
H4126 H 0.98366 0.37718 0.68636 0.0
H4127 H 0.00874 0.38929 0.7232 0.0
H4128 H 0.01384 0.44723 0.76377 0.0
H4129 H 0.00917 0.42209 0.75106 0.0
H4130 H 0.97724 0.40705 0.71275 0.0
C4131 C 0.98487 0.36987 0.69229 0.0
C4132 C 0.00169 0.39296 0.72094 0.0
C4133 C 0.98313 0.35776 0.6863 0.0
C4134 C 0.00971 0.44467 0.75388 0.0
C4135 C 0.00623 0.42871 0.74605 0.0
C4136 C 0.98425 0.40334 0.71503 0.0
C4137 C 0.98846 0.37265 0.70567 0.0
C4138 C 0.99072 0.38569 0.71198 0.0
C4139 C 0.9977 0.42364 0.73016 0.0
C4140 C 0.99521 0.41055 0.72399 0.0
H4141 H 0.98982 0.34368 0.71284 0.0
H4142 H 0.99266 0.36468 0.72331 0.0
H4143 H 0.97337 0.38559 0.70236 0.0
H4144 H 0.99256 0.45699 0.7233 0.0
H4145 H 0.98877 0.43172 0.71138 0.0
C4146 C 0.64239 0.64738 0.69983 0.0
C4147 C 0.64762 0.64152 0.69095 0.0
C4148 C 0.63068 0.639 0.70706 0.0
C4149 C 0.59996 0.60426 0.70783 0.0
H4150 H 0.59911 0.61436 0.74418 0.0
C4151 C 0.55376 0.57145 0.74144 0.0
C4152 C 0.54927 0.57891 0.74914 0.0
C4153 C 0.56623 0.57831 0.73479 0.0
C4154 C 0.59916 0.61145 0.73403 0.0
H4155 H 0.64463 0.62227 0.68258 0.0
H4156 H 0.62412 0.60755 0.69533 0.0
H4157 H 0.61991 0.62771 0.73155 0.0
H4158 H 0.55419 0.5994 0.75572 0.0
H4159 H 0.57595 0.61138 0.74417 0.0
H4160 H 0.57912 0.58807 0.71031 0.0
C4161 C 0.62904 0.61866 0.69661 0.0
C4162 C 0.61107 0.6191 0.72677 0.0
C4163 C 0.6408 0.62708 0.68934 0.0
C4164 C 0.55752 0.59336 0.75006 0.0
C4165 C 0.56999 0.60021 0.74347 0.0
C4166 C 0.58803 0.59658 0.7151 0.0
C4167 C 0.62392 0.62454 0.70563 0.0
C4168 C 0.61155 0.61575 0.71353 0.0
C4169 C 0.57445 0.59278 0.73568 0.0
C4170 C 0.58743 0.60022 0.72823 0.0
H4171 H 0.64737 0.65848 0.70125 0.0
H4172 H 0.62686 0.64389 0.71373 0.0
H4173 H 0.59995 0.60147 0.69762 0.0
H4174 H 0.54751 0.56031 0.74041 0.0
H4175 H 0.56943 0.57229 0.72892 0.0
C4176 C 0.67203 0.70376 0.65992 0.0
C4177 C 0.67364 0.69393 0.65269 0.0
C4178 C 0.66835 0.71251 0.65363 0.0
C4179 C 0.6545 0.71712 0.62175 0.0
H4180 H 0.66834 0.75425 0.63572 0.0
C4181 C 0.65353 0.76202 0.59429 0.0
C4182 C 0.64726 0.76836 0.60119 0.0
C4183 C 0.65607 0.75237 0.60043 0.0
C4184 C 0.66436 0.74387 0.63177 0.0
H4185 H 0.67291 0.68561 0.63323 0.0
H4186 H 0.66721 0.70129 0.62213 0.0
H4187 H 0.67453 0.73879 0.64658 0.0
H4188 H 0.63904 0.76974 0.61994 0.0
H4189 H 0.64393 0.75319 0.63077 0.0
H4190 H 0.64487 0.72264 0.60658 0.0
C4191 C 0.66824 0.70199 0.63271 0.0
C4192 C 0.66781 0.73495 0.63803 0.0
C4193 C 0.67163 0.69305 0.63905 0.0
C4194 C 0.64376 0.76492 0.61437 0.0
C4195 C 0.64658 0.75552 0.62057 0.0
C4196 C 0.65131 0.72618 0.61534 0.0
C4197 C 0.6665 0.71184 0.63991 0.0
C4198 C 0.66287 0.7214 0.63316 0.0
C4199 C 0.65277 0.74919 0.61365 0.0
C4200 C 0.65616 0.73959 0.62035 0.0
H4201 H 0.6734 0.70456 0.67048 0.0
H4202 H 0.66681 0.71969 0.65959 0.0
H4203 H 0.65024 0.70672 0.61781 0.0
H4204 H 0.65661 0.76457 0.58421 0.0
H4205 H 0.66098 0.74769 0.59496 0.0
C4206 C 0.29215 0.9787 0.64625 0.0
C4207 C 0.30041 0.97997 0.65718 0.0
C4208 C 0.28481 0.9661 0.63946 0.0
C4209 C 0.27237 0.92855 0.64133 0.0
H4210 H 0.27453 0.93085 0.60345 0.0
C4211 C 0.25431 0.87345 0.60884 0.0
C4212 C 0.24456 0.873 0.59385 0.0
C4213 C 0.26143 0.88932 0.61828 0.0
C4214 C 0.27361 0.92999 0.61399 0.0
H4215 H 0.30706 0.96896 0.66988 0.0
H4216 H 0.29434 0.94696 0.65793 0.0
H4217 H 0.28467 0.95193 0.61671 0.0
H4218 H 0.24284 0.88843 0.5759 0.0
H4219 H 0.25536 0.91346 0.59173 0.0
H4220 H 0.26144 0.90657 0.63854 0.0
C4221 C 0.29342 0.95565 0.65468 0.0
C4222 C 0.27944 0.94211 0.62162 0.0
C4223 C 0.30075 0.96826 0.6615 0.0
C4224 C 0.24764 0.88889 0.58527 0.0
C4225 C 0.25496 0.90425 0.59546 0.0
C4226 C 0.26655 0.91642 0.63367 0.0
C4227 C 0.2856 0.95451 0.64341 0.0
C4228 C 0.27892 0.94155 0.63538 0.0
C4229 C 0.26128 0.90426 0.61185 0.0
C4230 C 0.26716 0.91704 0.61994 0.0
H4231 H 0.29162 0.98752 0.64274 0.0
H4232 H 0.27867 0.9655 0.63097 0.0
H4233 H 0.27165 0.92776 0.6519 0.0
H4234 H 0.25328 0.86414 0.61303 0.0
H4235 H 0.26587 0.88985 0.62786 0.0
C4236 C 0.02068 0.3133 0.65182 0.0
C4237 C 0.01928 0.32283 0.65982 0.0
C4238 C 0.03319 0.31706 0.64576 0.0
C4239 C 0.07042 0.34286 0.64749 0.0
H4240 H 0.07004 0.33213 0.61112 0.0
C4241 C 0.11908 0.36747 0.61599 0.0
C4242 C 0.12143 0.35865 0.60786 0.0
C4243 C 0.10657 0.36256 0.62241 0.0
C4244 C 0.0703 0.33506 0.62132 0.0
H4245 H 0.02989 0.3437 0.6679 0.0
H4246 H 0.05169 0.35031 0.65728 0.0
H4247 H 0.04831 0.32448 0.62236 0.0
H4248 H 0.11268 0.33759 0.60049 0.0
H4249 H 0.09067 0.32905 0.61156 0.0
H4250 H 0.09241 0.35361 0.64639 0.0
C4251 C 0.04318 0.33988 0.65577 0.0
C4252 C 0.05786 0.33067 0.62777 0.0
C4253 C 0.03067 0.33612 0.6618 0.0
C4254 C 0.11104 0.34472 0.60642 0.0
C4255 C 0.09846 0.33983 0.61277 0.0
C4256 C 0.08284 0.34729 0.64103 0.0
C4257 C 0.04457 0.33042 0.64762 0.0
C4258 C 0.05778 0.33461 0.64091 0.0
C4259 C 0.09613 0.34869 0.62089 0.0
C4260 C 0.08292 0.34353 0.62785 0.0
H4261 H 0.01207 0.30296 0.65013 0.0
H4262 H 0.03397 0.30948 0.63967 0.0
H4263 H 0.07073 0.34587 0.65768 0.0
H4264 H 0.127 0.37817 0.61747 0.0
H4265 H 0.10505 0.36967 0.62853 0.0
C4266 C 0.29808 0.32184 0.65684 0.0
C4267 C 0.3125 0.32874 0.65611 0.0
C4268 C 0.29057 0.32683 0.6502 0.0
C4269 C 0.29427 0.3588 0.63639 0.0
H4270 H 0.25932 0.3339 0.61928 0.0
C4271 C 0.26341 0.37915 0.60833 0.0
C4272 C 0.24919 0.37236 0.61067 0.0
C4273 C 0.27135 0.37343 0.61253 0.0
C4274 C 0.26902 0.34098 0.62408 0.0
H4275 H 0.33037 0.34615 0.64768 0.0
H4276 H 0.31726 0.35482 0.63602 0.0
H4277 H 0.27278 0.32463 0.62923 0.0
H4278 H 0.23217 0.35435 0.61929 0.0
H4279 H 0.246 0.34439 0.62668 0.0
H4280 H 0.29044 0.37513 0.63145 0.0
C4281 C 0.31175 0.34564 0.64184 0.0
C4282 C 0.27673 0.33567 0.62979 0.0
C4283 C 0.31926 0.34064 0.64847 0.0
C4284 C 0.24306 0.35969 0.61717 0.0
C4285 C 0.25099 0.35397 0.62136 0.0
C4286 C 0.28657 0.36411 0.6307 0.0
C4287 C 0.29733 0.33886 0.6427 0.0
C4288 C 0.28939 0.34451 0.63611 0.0
C4289 C 0.26525 0.36086 0.61923 0.0
C4290 C 0.2738 0.35525 0.62457 0.0
H4291 H 0.29259 0.31265 0.66266 0.0
H4292 H 0.27948 0.32146 0.65119 0.0
H4293 H 0.30388 0.36588 0.64135 0.0
H4294 H 0.26842 0.38901 0.60348 0.0
H4295 H 0.28229 0.37893 0.61063 0.0
C4296 C 0.67088 0.98141 0.6424 0.0
C4297 C 0.68389 0.99 0.64821 0.0
C4298 C 0.66845 0.96992 0.63474 0.0
C4299 C 0.68684 0.95682 0.61492 0.0
H4300 H 0.65314 0.92145 0.61701 0.0
C4301 C 0.67812 0.91185 0.57246 0.0
C4302 C 0.66553 0.89408 0.57765 0.0
C4303 C 0.67931 0.92538 0.58304 0.0
C4304 C 0.66263 0.93125 0.61636 0.0
H4305 H 0.70447 0.99315 0.65079 0.0
H4306 H 0.70024 0.97311 0.63745 0.0
H4307 H 0.65664 0.9406 0.63149 0.0
H4308 H 0.65381 0.87915 0.5981 0.0
H4309 H 0.65753 0.9021 0.61459 0.0
H4310 H 0.693 0.94753 0.60006 0.0
C4311 C 0.69196 0.97533 0.63869 0.0
C4312 C 0.66457 0.94224 0.62457 0.0
C4313 C 0.69436 0.98677 0.64638 0.0
C4314 C 0.66003 0.88971 0.59498 0.0
C4315 C 0.6618 0.90401 0.60486 0.0
C4316 C 0.68486 0.94589 0.6067 0.0
C4317 C 0.67902 0.96685 0.63268 0.0
C4318 C 0.67675 0.95513 0.62397 0.0
C4319 C 0.67091 0.92145 0.59875 0.0
C4320 C 0.67275 0.933 0.60734 0.0
H4321 H 0.6626 0.98365 0.64366 0.0
H4322 H 0.65841 0.96365 0.63015 0.0
H4323 H 0.69627 0.96665 0.61412 0.0
H4324 H 0.68204 0.914 0.56259 0.0
H4325 H 0.68503 0.93595 0.57982 0.0
C4326 C 0.014 0.68567 0.64398 0.0
C4327 C 0.01012 0.69185 0.65388 0.0
C4328 C 0.02667 0.69319 0.63783 0.0
C4329 C 0.05466 0.72864 0.63144 0.0
H4330 H 0.07664 0.71101 0.62679 0.0
C4331 C 0.11231 0.75901 0.61851 0.0
C4332 C 0.11747 0.75269 0.61009 0.0
C4333 C 0.09874 0.7517 0.62281 0.0
C4334 C 0.07056 0.71603 0.6278 0.0
H4335 H 0.01635 0.7108 0.66495 0.0
H4336 H 0.03855 0.72396 0.6542 0.0
H4337 H 0.05385 0.6981 0.63625 0.0
H4338 H 0.11252 0.73371 0.59967 0.0
H4339 H 0.08867 0.72102 0.6069 0.0
H4340 H 0.0714 0.74659 0.62302 0.0
C4341 C 0.03174 0.71332 0.65114 0.0
C4342 C 0.0575 0.70863 0.63326 0.0
C4343 C 0.01907 0.70577 0.65734 0.0
C4344 C 0.10875 0.73891 0.606 0.0
C4345 C 0.09514 0.73161 0.61026 0.0
C4346 C 0.06772 0.73603 0.62592 0.0
C4347 C 0.03573 0.70707 0.6414 0.0
C4348 C 0.04943 0.71487 0.63522 0.0
C4349 C 0.09002 0.73786 0.61884 0.0
C4350 C 0.07586 0.72984 0.62412 0.0
H4351 H 0.0073 0.67497 0.64107 0.0
H4352 H 0.02937 0.68814 0.63024 0.0
H4353 H 0.04862 0.73367 0.63267 0.0
H4354 H 0.1189 0.76953 0.62202 0.0
H4355 H 0.09523 0.75677 0.6296 0.0
C4356 C 0.97483 0.62758 0.69213 0.0
C4357 C 0.98255 0.64192 0.69439 0.0
C4358 C 0.97811 0.61872 0.69875 0.0
C4359 C 0.99613 0.61622 0.72803 0.0
H4360 H 0.99635 0.58657 0.70809 0.0
C4361 C 0.01722 0.58227 0.74889 0.0
C4362 C 0.00997 0.56813 0.74551 0.0
C4363 C 0.01362 0.59138 0.74321 0.0
C4364 C 0.99616 0.59468 0.71385 0.0
H4365 H 0.99965 0.65824 0.70546 0.0
H4366 H 0.0054 0.64272 0.71704 0.0
H4367 H 0.99061 0.60228 0.69713 0.0
H4368 H 0.99332 0.55243 0.73356 0.0
H4369 H 0.98686 0.56823 0.72382 0.0
H4370 H 0.00167 0.60856 0.74477 0.0
C4371 C 0.99676 0.63834 0.7102 0.0
C4372 C 0.99288 0.6037 0.70756 0.0
C4373 C 0.99352 0.64722 0.70352 0.0
C4374 C 0.999 0.56326 0.73643 0.0
C4375 C 0.9954 0.57233 0.73077 0.0
C4376 C 0.99938 0.60716 0.73435 0.0
C4377 C 0.98914 0.62399 0.70781 0.0
C4378 C 0.99278 0.61454 0.71457 0.0
C4379 C 0.00276 0.58653 0.73396 0.0
C4380 C 0.99937 0.59624 0.72734 0.0
H4381 H 0.96629 0.62318 0.68518 0.0
H4382 H 0.97193 0.6077 0.69683 0.0
H4383 H 0.996 0.6244 0.73372 0.0
H4384 H 0.02584 0.58632 0.75573 0.0
H4385 H 0.0196 0.60227 0.74577 0.0
C4386 C 0.35527 0.35605 0.70816 0.0
C4387 C 0.3609 0.3514 0.69847 0.0
C4388 C 0.36329 0.36894 0.71431 0.0
C4389 C 0.39403 0.40277 0.70876 0.0
H4390 H 0.38974 0.40947 0.74536 0.0
C4391 C 0.42559 0.45692 0.7324 0.0
C4392 C 0.4182 0.46142 0.74008 0.0
C4393 C 0.4197 0.44305 0.72856 0.0
C4394 C 0.391 0.40777 0.73511 0.0
H4395 H 0.37949 0.35636 0.68793 0.0
H4396 H 0.39359 0.37882 0.69878 0.0
H4397 H 0.37755 0.3859 0.73639 0.0
H4398 H 0.39887 0.45496 0.74983 0.0
H4399 H 0.38849 0.43067 0.74309 0.0
H4400 H 0.40727 0.42462 0.70739 0.0
C4401 C 0.38289 0.3726 0.70148 0.0
C4402 C 0.38402 0.39427 0.72997 0.0
C4403 C 0.37485 0.35971 0.69532 0.0
C4404 C 0.40487 0.45171 0.74407 0.0
C4405 C 0.39896 0.43782 0.74023 0.0
C4406 C 0.40101 0.41624 0.7139 0.0
C4407 C 0.37715 0.37746 0.71092 0.0
C4408 C 0.38533 0.39163 0.71669 0.0
C4409 C 0.40622 0.43338 0.73223 0.0
C4410 C 0.39947 0.41892 0.72709 0.0
H4411 H 0.34454 0.34988 0.71078 0.0
H4412 H 0.35849 0.37242 0.7214 0.0
H4413 H 0.39509 0.40116 0.69844 0.0
H4414 H 0.43585 0.46422 0.72911 0.0
H4415 H 0.42562 0.43994 0.72253 0.0
C4416 C 0.65056 0.00575 0.69893 0.0
C4417 C 0.6572 0.01762 0.69126 0.0
C4418 C 0.63877 0.00286 0.7059 0.0
C4419 C 0.61906 0.01882 0.71876 0.0
H4420 H 0.5886 0.98107 0.718 0.0
C4421 C 0.56378 0.00406 0.73327 0.0
C4422 C 0.55596 0.99176 0.74012 0.0
C4423 C 0.57678 0.00758 0.7286 0.0
C4424 C 0.59708 0.99162 0.71849 0.0
H4425 H 0.65681 0.03587 0.68497 0.0
H4426 H 0.63609 0.03075 0.697 0.0
H4427 H 0.61004 0.98653 0.70731 0.0
H4428 H 0.5556 0.97348 0.74746 0.0
H4429 H 0.57844 0.97968 0.73943 0.0
H4430 H 0.60598 0.02391 0.72978 0.0
C4431 C 0.6401 0.02375 0.69778 0.0
C4432 C 0.60937 0.99476 0.71235 0.0
C4433 C 0.65191 0.02665 0.69082 0.0
C4434 C 0.56148 0.98309 0.74233 0.0
C4435 C 0.57449 0.9866 0.73764 0.0
C4436 C 0.60675 0.01568 0.7249 0.0
C4437 C 0.63334 0.01178 0.70534 0.0
C4438 C 0.62047 0.00841 0.71233 0.0
C4439 C 0.58222 0.9988 0.73059 0.0
C4440 C 0.59558 0.00206 0.72475 0.0
H4441 H 0.65445 0.99863 0.69953 0.0
H4442 H 0.63393 0.99366 0.71178 0.0
H4443 H 0.62749 0.02939 0.7191 0.0
H4444 H 0.55969 0.01082 0.73128 0.0
H4445 H 0.58238 0.01694 0.72304 0.0
loop_
_geom_bond_atom_site_label_1
_geom_bond_atom_site_label_2
_geom_bond_distance
_geom_bond_site_symmetry_2
_ccdc_geom_bond_type
In0 O1 2.294 1_455 S
In0 O2 2.326 . S
In0 O6 2.264 1_455 S
In0 O7 2.326 1_454 S
In0 O8 2.266 1_554 S
In0 O9 2.326 1_454 S
In0 O11 2.294 . S
In0 O12 2.326 . S
O1 In0 2.294 1_655 S
O1 C10 1.224 1_655 S
O2 In0 2.326 . S
O2 C10 1.286 . S
C3 O6 1.259 1_556 S
C3 O7 1.260 . S
C4 O11 1.240 . S
C4 O12 1.252 . S
C5 O8 1.252 . S
C5 O9 1.260 1_455 S
O6 In0 2.264 1_655 S
O6 C3 1.259 1_554 S
O7 In0 2.326 1_656 S
O7 C3 1.260 . S
O8 In0 2.266 1_556 S
O8 C5 1.252 . S
O9 In0 2.326 1_656 S
O9 C5 1.260 1_655 S
C10 O1 1.224 1_455 S
C10 O2 1.286 . S
O11 In0 2.294 . S
O11 C4 1.240 . S
O12 In0 2.326 . S
O12 C4 1.252 . S
In13 O14 2.294 . S
In13 O15 2.326 . S
In13 O19 2.266 . S
In13 O20 2.326 1_554 S
In13 O21 2.266 1_554 S
In13 O22 2.326 1_554 S
In13 O24 2.294 . S
In13 O25 2.326 . S
O14 In13 2.294 . S
O14 C23 1.240 . S
O15 In13 2.326 . S
O15 C23 1.252 . S
C16 O19 1.252 1_556 S
C16 O20 1.260 . S
C17 O24 1.240 . S
C17 O25 1.252 . S
C18 O21 1.252 . S
C18 O22 1.260 . S
O19 In13 2.266 . S
O19 C16 1.252 1_554 S
O20 In13 2.326 1_556 S
O20 C16 1.260 . S
O21 In13 2.266 1_556 S
O21 C18 1.252 . S
O22 In13 2.326 1_556 S
O22 C18 1.260 . S
C23 O14 1.240 . S
C23 O15 1.252 . S
O24 In13 2.294 . S
O24 C17 1.240 . S
O25 In13 2.326 . S
O25 C17 1.252 . S
In26 O27 2.304 . S
In26 O28 2.326 1_554 S
In26 O32 2.266 . S
In26 O33 2.326 1_545 S
In26 O34 2.266 1_545 S
In26 O35 2.326 1_545 S
In26 O37 2.294 1_544 S
In26 O38 2.326 1_554 S
O27 In26 2.304 . S
O27 C36 1.209 1_554 S
O28 In26 2.326 1_556 S
O28 C36 1.252 . S
C29 O32 1.252 . S
C29 O33 1.260 1_545 S
C30 O37 1.245 . S
C30 O38 1.242 1_565 S
C31 O34 1.252 . S
C31 O35 1.260 . S
O32 In26 2.266 . S
O32 C29 1.252 . S
O33 In26 2.326 1_565 S
O33 C29 1.260 1_565 S
O34 In26 2.266 1_565 S
O34 C31 1.252 . S
O35 In26 2.326 1_565 S
O35 C31 1.260 . S
C36 O27 1.209 1_556 S
C36 O28 1.252 . S
O37 In26 2.294 1_566 S
O37 C30 1.245 . S
O38 In26 2.326 1_556 S
O38 C30 1.242 1_545 S
In39 O40 2.293 1_554 S
In39 O41 2.326 1_454 S
In39 O45 2.265 . S
In39 O46 2.326 . S
In39 O47 2.267 1_455 S
In39 O48 2.324 . S
In39 O50 2.296 1_455 S
In39 O51 2.327 1_454 S
O40 In39 2.293 1_556 S
O40 C49 1.240 . S
O41 In39 2.326 1_656 S
O41 C49 1.252 1_655 S
C42 O45 1.252 . S
C42 O46 1.260 . S
C43 O50 1.240 1_556 S
C43 O51 1.252 . S
C44 O47 1.252 . S
C44 O48 1.260 1_655 S
O45 In39 2.265 . S
O45 C42 1.252 . S
O46 In39 2.326 . S
O46 C42 1.260 . S
O47 In39 2.267 1_655 S
O47 C44 1.252 . S
O48 In39 2.324 . S
O48 C44 1.260 1_455 S
C49 O40 1.240 . S
C49 O41 1.252 1_455 S
O50 In39 2.296 1_655 S
O50 C43 1.240 1_554 S
O51 In39 2.327 1_656 S
O51 C43 1.252 . S
In52 O53 2.294 1_554 S
In52 O54 2.326 1_554 S
In52 O58 2.266 . S
In52 O59 2.326 . S
In52 O60 2.266 . S
In52 O61 2.326 . S
In52 O63 2.294 1_554 S
In52 O64 2.326 1_554 S
O53 In52 2.294 1_556 S
O53 C62 1.240 . S
O54 In52 2.326 1_556 S
O54 C62 1.252 . S
C55 O58 1.252 . S
C55 O59 1.260 . S
C56 O63 1.240 . S
C56 O64 1.252 . S
C57 O60 1.252 . S
C57 O61 1.260 . S
O58 In52 2.266 . S
O58 C55 1.252 . S
O59 In52 2.326 . S
O59 C55 1.260 . S
O60 In52 2.266 . S
O60 C57 1.252 . S
O61 In52 2.326 . S
O61 C57 1.260 . S
C62 O53 1.240 . S
C62 O54 1.252 . S
O63 In52 2.294 1_556 S
O63 C56 1.240 . S
O64 In52 2.326 1_556 S
O64 C56 1.252 . S
In65 O66 2.293 . S
In65 O67 2.326 1_545 S
In65 O71 2.265 . S
In65 O72 2.326 1_554 S
In65 O73 2.267 1_544 S
In65 O74 2.324 1_554 S
In65 O76 2.296 1_545 S
In65 O77 2.327 1_545 S
O66 In65 2.293 . S
O66 C75 1.240 . S
O67 In65 2.326 1_565 S
O67 C75 1.252 1_565 S
C68 O71 1.252 1_556 S
C68 O72 1.260 . S
C69 O76 1.240 . S
C69 O77 1.252 . S
C70 O73 1.252 . S
C70 O74 1.260 1_565 S
O71 In65 2.265 . S
O71 C68 1.252 1_554 S
O72 In65 2.326 1_556 S
O72 C68 1.260 . S
O73 In65 2.267 1_566 S
O73 C70 1.252 . S
O74 In65 2.324 1_556 S
O74 C70 1.260 1_545 S
C75 O66 1.240 . S
C75 O67 1.252 1_545 S
O76 In65 2.296 1_565 S
O76 C69 1.240 . S
O77 In65 2.327 1_565 S
O77 C69 1.252 . S
In78 O79 2.294 . S
In78 O80 2.326 . S
In78 O84 2.266 . S
In78 O85 2.326 . S
In78 O86 2.266 . S
In78 O87 2.326 . S
In78 O89 2.294 . S
In78 O90 2.326 . S
O79 In78 2.294 . S
O79 C88 1.240 . S
O80 In78 2.326 . S
O80 C88 1.252 . S
C81 O84 1.252 . S
C81 O85 1.260 . S
C82 O89 1.240 . S
C82 O90 1.252 . S
C83 O86 1.252 . S
C83 O87 1.260 . S
O84 In78 2.266 . S
O84 C81 1.252 . S
O85 In78 2.326 . S
O85 C81 1.260 . S
O86 In78 2.266 . S
O86 C83 1.252 . S
O87 In78 2.326 . S
O87 C83 1.260 . S
C88 O79 1.240 . S
C88 O80 1.252 . S
O89 In78 2.294 . S
O89 C82 1.240 . S
O90 In78 2.326 . S
O90 C82 1.252 . S
In91 O92 2.294 . S
In91 O93 2.326 . S
In91 O97 2.266 . S
In91 O98 2.326 . S
In91 O99 2.266 . S
In91 O100 2.326 . S
In91 O102 2.294 . S
In91 O103 2.326 . S
O92 In91 2.294 . S
O92 C101 1.240 . S
O93 In91 2.326 . S
O93 C101 1.252 . S
C94 O97 1.252 . S
C94 O98 1.260 . S
C95 O102 1.240 1_545 S
C95 O103 1.252 1_545 S
C96 O99 1.252 . S
C96 O100 1.260 . S
O97 In91 2.266 . S
O97 C94 1.252 . S
O98 In91 2.326 . S
O98 C94 1.260 . S
O99 In91 2.266 . S
O99 C96 1.252 . S
O100 In91 2.326 . S
O100 C96 1.260 . S
C101 O92 1.240 . S
C101 O93 1.252 . S
O102 In91 2.294 . S
O102 C95 1.240 1_565 S
O103 In91 2.326 . S
O103 C95 1.252 1_565 S
In104 O105 2.294 . S
In104 O106 2.326 . S
In104 O110 2.266 . S
In104 O111 2.326 . S
In104 O112 2.266 . S
In104 O113 2.326 . S
In104 O115 2.294 . S
In104 O116 2.326 . S
O105 In104 2.294 . S
O105 C114 1.240 . S
O106 In104 2.326 . S
O106 C114 1.252 . S
C107 O110 1.252 . S
C107 O111 1.260 . S
C108 O115 1.240 . S
C108 O116 1.252 . S
C109 O112 1.264 . S
C109 O113 1.261 . S
O110 In104 2.266 . S
O110 C107 1.252 . S
O111 In104 2.326 . S
O111 C107 1.260 . S
O112 In104 2.266 . S
O112 C109 1.264 . S
O113 In104 2.326 . S
O113 C109 1.261 . S
C114 O105 1.240 . S
C114 O106 1.252 . S
O115 In104 2.294 . S
O115 C108 1.240 . S
O116 In104 2.326 . S
O116 C108 1.252 . S
In117 O118 2.294 . S
In117 O119 2.326 . S
In117 O123 2.269 . S
In117 O124 2.326 . S
In117 O125 2.266 . S
In117 O126 2.326 . S
In117 O128 2.294 . S
In117 O129 2.326 . S
O118 In117 2.294 . S
O118 C127 1.240 . S
O119 In117 2.326 . S
O119 C127 1.252 . S
C120 O123 1.248 1_545 S
C120 O124 1.260 1_545 S
C121 O128 1.240 . S
C121 O129 1.252 . S
C122 O125 1.252 . S
C122 O126 1.260 . S
O123 In117 2.269 . S
O123 C120 1.248 1_565 S
O124 In117 2.326 . S
O124 C120 1.260 1_565 S
O125 In117 2.266 . S
O125 C122 1.252 . S
O126 In117 2.326 . S
O126 C122 1.260 . S
C127 O118 1.240 . S
C127 O119 1.252 . S
O128 In117 2.294 . S
O128 C121 1.240 . S
O129 In117 2.326 . S
O129 C121 1.252 . S
In130 O131 2.294 . S
In130 O132 2.326 . S
In130 O136 2.266 . S
In130 O137 2.326 . S
In130 O138 2.266 . S
In130 O139 2.326 . S
In130 O141 2.294 . S
In130 O142 2.326 . S
O131 In130 2.294 . S
O131 C140 1.240 . S
O132 In130 2.326 . S
O132 C140 1.252 . S
C133 O136 1.252 1_655 S
C133 O137 1.260 1_655 S
C134 O141 1.240 . S
C134 O142 1.252 . S
C135 O138 1.252 . S
C135 O139 1.260 . S
O136 In130 2.266 . S
O136 C133 1.252 1_455 S
O137 In130 2.326 . S
O137 C133 1.260 1_455 S
O138 In130 2.266 . S
O138 C135 1.252 . S
O139 In130 2.326 . S
O139 C135 1.260 . S
C140 O131 1.240 . S
C140 O132 1.252 . S
O141 In130 2.294 . S
O141 C134 1.240 . S
O142 In130 2.326 . S
O142 C134 1.252 . S
In143 O144 2.294 . S
In143 O145 2.326 . S
In143 O149 2.266 . S
In143 O150 2.326 . S
In143 O151 2.266 . S
In143 O152 2.326 . S
In143 O154 2.294 . S
In143 O155 2.326 . S
O144 In143 2.294 . S
O144 C153 1.240 . S
O145 In143 2.326 . S
O145 C153 1.252 . S
C146 O149 1.252 . S
C146 O150 1.260 . S
C147 O154 1.240 . S
C147 O155 1.252 . S
C148 O151 1.252 . S
C148 O152 1.260 . S
O149 In143 2.266 . S
O149 C146 1.252 . S
O150 In143 2.326 . S
O150 C146 1.260 . S
O151 In143 2.266 . S
O151 C148 1.252 . S
O152 In143 2.326 . S
O152 C148 1.260 . S
C153 O144 1.240 . S
C153 O145 1.252 . S
O154 In143 2.294 . S
O154 C147 1.240 . S
O155 In143 2.326 . S
O155 C147 1.252 . S
In156 O157 2.294 . S
In156 O158 2.326 . S
In156 O162 2.266 . S
In156 O163 2.326 . S
In156 O164 2.266 . S
In156 O165 2.326 . S
In156 O167 2.294 . S
In156 O168 2.326 . S
O157 In156 2.294 . S
O157 C166 1.240 . S
O158 In156 2.326 . S
O158 C166 1.252 . S
C159 O162 1.252 . S
C159 O163 1.260 . S
C160 O167 1.240 . S
C160 O168 1.252 . S
C161 O164 1.252 1_565 S
C161 O165 1.260 1_565 S
O162 In156 2.266 . S
O162 C159 1.252 . S
O163 In156 2.326 . S
O163 C159 1.260 . S
O164 In156 2.266 . S
O164 C161 1.252 1_545 S
O165 In156 2.326 . S
O165 C161 1.260 1_545 S
C166 O157 1.240 . S
C166 O158 1.252 . S
O167 In156 2.294 . S
O167 C160 1.240 . S
O168 In156 2.326 . S
O168 C160 1.252 . S
In169 O170 2.294 . S
In169 O171 2.326 . S
In169 O175 2.266 . S
In169 O176 2.326 . S
In169 O177 2.268 . S
In169 O178 2.326 . S
In169 O180 2.294 . S
In169 O181 2.326 . S
O170 In169 2.294 . S
O170 C179 1.240 . S
O171 In169 2.326 . S
O171 C179 1.252 . S
C172 O175 1.252 . S
C172 O176 1.260 . S
C173 O180 1.240 . S
C173 O181 1.252 . S
C174 O177 1.252 1_455 S
C174 O178 1.260 1_455 S
O175 In169 2.266 . S
O175 C172 1.252 . S
O176 In169 2.326 . S
O176 C172 1.260 . S
O177 In169 2.268 . S
O177 C174 1.252 1_655 S
O178 In169 2.326 . S
O178 C174 1.260 1_655 S
C179 O170 1.240 . S
C179 O171 1.252 . S
O180 In169 2.294 . S
O180 C173 1.240 . S
O181 In169 2.326 . S
O181 C173 1.252 . S
In182 O183 2.294 . S
In182 O184 2.326 . S
In182 O188 2.266 . S
In182 O189 2.326 . S
In182 O190 2.266 . S
In182 O191 2.326 . S
In182 O193 2.294 . S
In182 O194 2.326 . S
O183 In182 2.294 . S
O183 C192 1.240 . S
O184 In182 2.326 . S
O184 C192 1.252 . S
C185 O188 1.252 . S
C185 O189 1.260 . S
C186 O193 1.240 . S
C186 O194 1.252 . S
C187 O190 1.252 . S
C187 O191 1.260 . S
O188 In182 2.266 . S
O188 C185 1.252 . S
O189 In182 2.326 . S
O189 C185 1.260 . S
O190 In182 2.266 . S
O190 C187 1.252 . S
O191 In182 2.326 . S
O191 C187 1.260 . S
C192 O183 1.240 . S
C192 O184 1.252 . S
O193 In182 2.294 . S
O193 C186 1.240 . S
O194 In182 2.326 . S
O194 C186 1.252 . S
In195 O196 2.294 . S
In195 O197 2.326 . S
In195 O201 2.266 . S
In195 O202 2.326 . S
In195 O203 2.266 . S
In195 O204 2.326 . S
In195 O206 2.294 . S
In195 O207 2.326 . S
O196 In195 2.294 . S
O196 C205 1.240 . S
O197 In195 2.326 . S
O197 C205 1.252 . S
C198 O201 1.252 . S
C198 O202 1.260 . S
C199 O206 1.240 . S
C199 O207 1.252 . S
C200 O203 1.252 . S
C200 O204 1.260 . S
O201 In195 2.266 . S
O201 C198 1.252 . S
O202 In195 2.326 . S
O202 C198 1.260 . S
O203 In195 2.266 . S
O203 C200 1.252 . S
O204 In195 2.326 . S
O204 C200 1.260 . S
C205 O196 1.240 . S
C205 O197 1.252 . S
O206 In195 2.294 . S
O206 C199 1.240 . S
O207 In195 2.326 . S
O207 C199 1.252 . S
In208 O209 2.294 . S
In208 O210 2.326 . S
In208 O214 2.266 . S
In208 O215 2.326 . S
In208 O216 2.266 . S
In208 O217 2.326 . S
In208 O219 2.294 . S
In208 O220 2.326 . S
O209 In208 2.294 . S
O209 C218 1.240 . S
O210 In208 2.326 . S
O210 C218 1.252 . S
C211 O214 1.252 . S
C211 O215 1.260 . S
C212 O219 1.255 1_565 S
C212 O220 1.165 1_565 S
C213 O216 1.252 . S
C213 O217 1.260 . S
O214 In208 2.266 . S
O214 C211 1.252 . S
O215 In208 2.326 . S
O215 C211 1.260 . S
O216 In208 2.266 . S
O216 C213 1.252 . S
O217 In208 2.326 . S
O217 C213 1.260 . S
C218 O209 1.240 . S
C218 O210 1.252 . S
O219 In208 2.294 . S
O219 C212 1.255 1_545 S
O220 In208 2.326 . S
O220 C212 1.165 1_545 S
In221 O222 2.294 . S
In221 O223 2.326 . S
In221 O227 2.266 . S
In221 O228 2.326 . S
In221 O229 2.266 . S
In221 O230 2.326 . S
In221 O232 2.294 . S
In221 O233 2.326 . S
O222 In221 2.294 . S
O222 C231 1.240 . S
O223 In221 2.326 . S
O223 C231 1.252 . S
C224 O227 1.252 . S
C224 O228 1.260 . S
C225 O232 1.240 . S
C225 O233 1.252 . S
C226 O229 1.252 1_455 S
C226 O230 1.260 1_455 S
O227 In221 2.266 . S
O227 C224 1.252 . S
O228 In221 2.326 . S
O228 C224 1.260 . S
O229 In221 2.266 . S
O229 C226 1.252 1_655 S
O230 In221 2.326 . S
O230 C226 1.260 1_655 S
C231 O222 1.240 . S
C231 O223 1.252 . S
O232 In221 2.294 . S
O232 C225 1.240 . S
O233 In221 2.326 . S
O233 C225 1.252 . S
C234 C235 1.560 . S
C234 H295 0.959 . S
C234 H296 0.959 . S
C234 H297 0.960 . S
C235 C234 1.560 . S
C235 O290 1.426 . S
C235 H294 0.980 . S
C236 C237 1.407 . S
C236 C241 1.418 . S
C236 O290 1.334 . S
C237 C236 1.407 . S
C237 C238 1.360 . S
C237 H298 0.929 . S
C238 C237 1.360 . S
C238 C239 1.401 . S
C238 C242 1.527 . S
C239 C238 1.401 . S
C239 C240 1.405 . S
C239 C272 1.587 . S
C240 C239 1.405 . S
C240 C241 1.332 . S
C240 C243 1.496 . S
C241 C236 1.418 . S
C241 C240 1.332 . S
C241 H299 0.929 . S
C242 C238 1.527 . S
C242 H300 0.959 . S
C242 H301 0.961 . S
C242 H302 0.961 . S
C243 C240 1.496 . S
C243 H303 0.960 . S
C243 H304 0.960 . S
C243 H305 0.961 . S
C244 C245 1.517 . S
C244 H307 0.961 . S
C244 H308 0.960 . S
C244 H309 0.959 . S
C245 C244 1.517 . S
C245 O293 1.468 . S
C245 H306 0.980 . S
C246 C247 1.349 . S
C246 C251 1.367 . S
C246 O293 1.408 . S
C247 C246 1.349 . S
C247 C248 1.407 . S
C247 H310 0.930 . S
C248 C247 1.407 . S
C248 C249 1.449 . S
C248 C252 1.535 . S
C249 C248 1.449 . S
C249 C250 1.384 . S
C249 C274 1.553 . S
C250 C249 1.384 . S
C250 C251 1.364 . S
C250 C253 1.450 . S
C251 C246 1.367 . S
C251 C250 1.364 . S
C251 H311 0.931 . S
C252 C248 1.535 . S
C252 H312 0.959 . S
C252 H313 0.961 . S
C252 H314 0.959 . S
C253 C250 1.450 . S
C253 H315 0.960 . S
C253 H316 0.960 . S
C253 H317 0.960 . S
C254 C255 1.309 . S
C254 C259 1.304 . S
C254 O292 1.435 . S
C255 C254 1.309 . S
C255 C256 1.476 . S
C255 H319 0.930 . S
C256 C255 1.476 . S
C256 C257 1.400 . S
C256 C260 1.567 . S
C257 C256 1.400 . S
C257 C258 1.373 . S
C257 C279 1.432 . S
C258 C257 1.373 . S
C258 C259 1.339 . S
C258 C261 1.530 . S
C259 C254 1.304 . S
C259 C258 1.339 . S
C259 H320 0.930 . S
C260 C256 1.567 . S
C260 H321 0.961 . S
C260 H322 0.960 . S
C260 H323 0.958 . S
C261 C258 1.530 . S
C261 H324 0.961 . S
C261 H325 0.960 . S
C261 H326 0.960 . S
C262 C263 1.530 . S
C262 H328 0.961 . S
C262 H329 0.961 . S
C262 H330 0.959 . S
C263 C262 1.530 . S
C263 O291 1.412 . S
C263 H327 0.980 . S
C264 C265 1.288 . S
C264 C269 1.377 . S
C264 O291 1.393 . S
C265 C264 1.288 . S
C265 C266 1.369 . S
C265 H331 0.932 . S
C266 C265 1.369 . S
C266 C267 1.398 . S
C266 C270 1.527 . S
C267 C266 1.398 . S
C267 C268 1.380 . S
C267 C281 1.497 . S
C268 C267 1.380 . S
C268 C269 1.383 . S
C268 C271 1.603 . S
C269 C264 1.377 . S
C269 C268 1.383 . S
C269 H332 0.929 . S
C270 C266 1.527 . S
C270 H333 0.961 . S
C270 H334 0.959 . S
C270 H335 0.959 . S
C271 C268 1.603 . S
C271 H336 0.960 . S
C271 H337 0.962 . S
C271 H338 0.961 . S
C272 C239 1.587 . S
C272 C273 1.360 . S
C272 C285 1.412 . S
C273 C272 1.360 . S
C273 C274 1.365 . S
C273 H339 0.929 . S
C274 C249 1.553 . S
C274 C273 1.365 . S
C274 C275 1.404 . S
C275 C274 1.404 . S
C275 C276 1.395 . S
C275 C286 1.451 . S
C276 C275 1.395 . S
C276 C277 1.322 . S
C276 H340 0.930 . S
C277 C276 1.322 . S
C277 C278 1.459 . S
C277 H341 0.929 . S
C278 C277 1.459 . S
C278 C279 1.445 . S
C278 C287 1.395 . S
C279 C257 1.432 . S
C279 C278 1.445 . S
C279 C280 1.370 . S
C280 C279 1.370 . S
C280 C281 1.438 . S
C280 H342 0.930 . S
C281 C267 1.497 . S
C281 C280 1.438 . S
C281 C282 1.360 . S
C282 C281 1.360 . S
C282 C283 1.401 . S
C282 C287 1.446 . S
C283 C282 1.401 . S
C283 C284 1.347 . S
C283 H343 0.929 . S
C284 C283 1.347 . S
C284 C285 1.455 . S
C284 H344 0.930 . S
C285 C272 1.412 . S
C285 C284 1.455 . S
C285 C286 1.331 . S
C286 C275 1.451 . S
C286 C285 1.331 . S
C286 C287 1.497 . S
C287 C278 1.395 . S
C287 C282 1.446 . S
C287 C286 1.497 . S
C288 C289 1.582 . S
C288 H345 0.962 . S
C288 H346 0.959 . S
C288 H347 0.958 . S
C289 C288 1.582 . S
C289 O292 1.458 . S
C289 H318 0.980 . S
O290 C235 1.426 . S
O290 C236 1.334 . S
O291 C263 1.412 . S
O291 C264 1.393 . S
O292 C254 1.435 . S
O292 C289 1.458 . S
O293 C245 1.468 . S
O293 C246 1.408 . S
H294 C235 0.980 . S
H295 C234 0.959 . S
H296 C234 0.959 . S
H297 C234 0.960 . S
H298 C237 0.929 . S
H299 C241 0.929 . S
H300 C242 0.959 . S
H301 C242 0.961 . S
H302 C242 0.961 . S
H303 C243 0.960 . S
H304 C243 0.960 . S
H305 C243 0.961 . S
H306 C245 0.980 . S
H307 C244 0.961 . S
H308 C244 0.960 . S
H309 C244 0.959 . S
H310 C247 0.930 . S
H311 C251 0.931 . S
H312 C252 0.959 . S
H313 C252 0.961 . S
H314 C252 0.959 . S
H315 C253 0.960 . S
H316 C253 0.960 . S
H317 C253 0.960 . S
H318 C289 0.980 . S
H319 C255 0.930 . S
H320 C259 0.930 . S
H321 C260 0.961 . S
H322 C260 0.960 . S
H323 C260 0.958 . S
H324 C261 0.961 . S
H325 C261 0.960 . S
H326 C261 0.960 . S
H327 C263 0.980 . S
H328 C262 0.961 . S
H329 C262 0.961 . S
H330 C262 0.959 . S
H331 C265 0.932 . S
H332 C269 0.929 . S
H333 C270 0.961 . S
H334 C270 0.959 . S
H335 C270 0.959 . S
H336 C271 0.960 . S
H337 C271 0.962 . S
H338 C271 0.961 . S
H339 C273 0.929 . S
H340 C276 0.930 . S
H341 C277 0.929 . S
H342 C280 0.930 . S
H343 C283 0.929 . S
H344 C284 0.930 . S
H345 C288 0.962 . S
H346 C288 0.959 . S
H347 C288 0.958 . S
C348 C349 1.560 . S
C348 H409 0.959 . S
C348 H410 0.959 . S
C348 H411 0.960 . S
C349 C348 1.560 . S
C349 O404 1.426 . S
C349 H408 0.980 . S
C350 C351 1.407 . S
C350 C355 1.418 . S
C350 O404 1.334 . S
C351 C350 1.407 . S
C351 C352 1.360 . S
C351 H412 0.929 . S
C352 C351 1.360 . S
C352 C353 1.401 . S
C352 C356 1.527 . S
C353 C352 1.401 . S
C353 C354 1.405 . S
C353 C386 1.587 . S
C354 C353 1.405 . S
C354 C355 1.332 . S
C354 C357 1.496 . S
C355 C350 1.418 . S
C355 C354 1.332 . S
C355 H413 0.929 . S
C356 C352 1.527 . S
C356 H414 0.959 . S
C356 H415 0.961 . S
C356 H416 0.961 . S
C357 C354 1.496 . S
C357 H417 0.960 . S
C357 H418 0.960 . S
C357 H419 0.961 . S
C358 C359 1.517 . S
C358 H421 0.961 . S
C358 H422 0.960 . S
C358 H423 0.959 . S
C359 C358 1.517 . S
C359 O407 1.468 . S
C359 H420 0.980 . S
C360 C361 1.349 . S
C360 C365 1.367 . S
C360 O407 1.408 . S
C361 C360 1.349 . S
C361 C362 1.407 . S
C361 H424 0.930 . S
C362 C361 1.407 . S
C362 C363 1.449 . S
C362 C366 1.535 . S
C363 C362 1.449 . S
C363 C364 1.384 . S
C363 C388 1.553 . S
C364 C363 1.384 . S
C364 C365 1.364 . S
C364 C367 1.450 . S
C365 C360 1.367 . S
C365 C364 1.364 . S
C365 H425 0.931 . S
C366 C362 1.535 . S
C366 H426 0.959 . S
C366 H427 0.961 . S
C366 H428 0.959 . S
C367 C364 1.450 . S
C367 H429 0.960 . S
C367 H430 0.960 . S
C367 H431 0.960 . S
C368 C369 1.309 . S
C368 C373 1.304 . S
C368 O406 1.435 . S
C369 C368 1.309 . S
C369 C370 1.476 . S
C369 H433 0.930 . S
C370 C369 1.476 . S
C370 C371 1.400 . S
C370 C374 1.567 . S
C371 C370 1.400 . S
C371 C372 1.373 . S
C371 C393 1.432 . S
C372 C371 1.373 . S
C372 C373 1.339 . S
C372 C375 1.530 . S
C373 C368 1.304 . S
C373 C372 1.339 . S
C373 H434 0.930 . S
C374 C370 1.567 . S
C374 H435 0.961 . S
C374 H436 0.960 . S
C374 H437 0.958 . S
C375 C372 1.530 . S
C375 H438 0.961 . S
C375 H439 0.960 . S
C375 H440 0.960 . S
C376 C377 1.530 . S
C376 H442 0.961 . S
C376 H443 0.961 . S
C376 H444 0.959 . S
C377 C376 1.530 . S
C377 O405 1.412 . S
C377 H441 0.980 . S
C378 C379 1.288 . S
C378 C383 1.377 . S
C378 O405 1.393 . S
C379 C378 1.288 . S
C379 C380 1.369 . S
C379 H445 0.932 . S
C380 C379 1.369 . S
C380 C381 1.398 . S
C380 C384 1.527 . S
C381 C380 1.398 . S
C381 C382 1.380 . S
C381 C395 1.497 . S
C382 C381 1.380 . S
C382 C383 1.383 . S
C382 C385 1.603 . S
C383 C378 1.377 . S
C383 C382 1.383 . S
C383 H446 0.929 . S
C384 C380 1.527 . S
C384 H447 0.961 . S
C384 H448 0.959 . S
C384 H449 0.959 . S
C385 C382 1.603 . S
C385 H450 0.960 . S
C385 H451 0.962 . S
C385 H452 0.961 . S
C386 C353 1.587 . S
C386 C387 1.360 . S
C386 C399 1.412 . S
C387 C386 1.360 . S
C387 C388 1.365 . S
C387 H453 0.929 . S
C388 C363 1.553 . S
C388 C387 1.365 . S
C388 C389 1.404 . S
C389 C388 1.404 . S
C389 C390 1.395 . S
C389 C400 1.451 . S
C390 C389 1.395 . S
C390 C391 1.322 . S
C390 H454 0.930 . S
C391 C390 1.322 . S
C391 C392 1.459 . S
C391 H455 0.929 . S
C392 C391 1.459 . S
C392 C393 1.445 . S
C392 C401 1.395 . S
C393 C371 1.432 . S
C393 C392 1.445 . S
C393 C394 1.370 . S
C394 C393 1.370 . S
C394 C395 1.438 . S
C394 H456 0.930 . S
C395 C381 1.497 . S
C395 C394 1.438 . S
C395 C396 1.360 . S
C396 C395 1.360 . S
C396 C397 1.401 . S
C396 C401 1.446 . S
C397 C396 1.401 . S
C397 C398 1.347 . S
C397 H457 0.929 . S
C398 C397 1.347 . S
C398 C399 1.455 . S
C398 H458 0.930 . S
C399 C386 1.412 . S
C399 C398 1.455 . S
C399 C400 1.331 . S
C400 C389 1.451 . S
C400 C399 1.331 . S
C400 C401 1.497 . S
C401 C392 1.395 . S
C401 C396 1.446 . S
C401 C400 1.497 . S
C402 C403 1.582 . S
C402 H459 0.962 . S
C402 H460 0.959 . S
C402 H461 0.958 . S
C403 C402 1.582 . S
C403 O406 1.458 . S
C403 H432 0.980 . S
O404 C349 1.426 . S
O404 C350 1.334 . S
O405 C377 1.412 . S
O405 C378 1.393 . S
O406 C368 1.435 . S
O406 C403 1.458 . S
O407 C359 1.468 . S
O407 C360 1.408 . S
H408 C349 0.980 . S
H409 C348 0.959 . S
H410 C348 0.959 . S
H411 C348 0.960 . S
H412 C351 0.929 . S
H413 C355 0.929 . S
H414 C356 0.959 . S
H415 C356 0.961 . S
H416 C356 0.961 . S
H417 C357 0.960 . S
H418 C357 0.960 . S
H419 C357 0.961 . S
H420 C359 0.980 . S
H421 C358 0.961 . S
H422 C358 0.960 . S
H423 C358 0.959 . S
H424 C361 0.930 . S
H425 C365 0.931 . S
H426 C366 0.959 . S
H427 C366 0.961 . S
H428 C366 0.959 . S
H429 C367 0.960 . S
H430 C367 0.960 . S
H431 C367 0.960 . S
H432 C403 0.980 . S
H433 C369 0.930 . S
H434 C373 0.930 . S
H435 C374 0.961 . S
H436 C374 0.960 . S
H437 C374 0.958 . S
H438 C375 0.961 . S
H439 C375 0.960 . S
H440 C375 0.960 . S
H441 C377 0.980 . S
H442 C376 0.961 . S
H443 C376 0.961 . S
H444 C376 0.959 . S
H445 C379 0.932 . S
H446 C383 0.929 . S
H447 C384 0.961 . S
H448 C384 0.959 . S
H449 C384 0.959 . S
H450 C385 0.960 . S
H451 C385 0.962 . S
H452 C385 0.961 . S
H453 C387 0.929 . S
H454 C390 0.930 . S
H455 C391 0.929 . S
H456 C394 0.930 . S
H457 C397 0.929 . S
H458 C398 0.930 . S
H459 C402 0.962 . S
H460 C402 0.959 . S
H461 C402 0.958 . S
C462 C463 1.560 . S
C462 H523 0.959 . S
C462 H524 0.959 . S
C462 H525 0.960 . S
C463 C462 1.560 . S
C463 O518 1.426 . S
C463 H522 0.980 . S
C464 C465 1.407 . S
C464 C469 1.418 . S
C464 O518 1.334 . S
C465 C464 1.407 . S
C465 C466 1.360 . S
C465 H526 0.929 . S
C466 C465 1.360 . S
C466 C467 1.401 . S
C466 C470 1.527 . S
C467 C466 1.401 . S
C467 C468 1.405 . S
C467 C500 1.587 . S
C468 C467 1.405 . S
C468 C469 1.332 . S
C468 C471 1.496 . S
C469 C464 1.418 . S
C469 C468 1.332 . S
C469 H527 0.929 . S
C470 C466 1.527 . S
C470 H528 0.959 . S
C470 H529 0.961 . S
C470 H530 0.961 . S
C471 C468 1.496 . S
C471 H531 0.960 . S
C471 H532 0.960 . S
C471 H533 0.961 . S
C472 C473 1.517 . S
C472 H535 0.961 . S
C472 H536 0.960 . S
C472 H537 0.959 . S
C473 C472 1.517 . S
C473 O521 1.468 . S
C473 H534 0.980 . S
C474 C475 1.349 . S
C474 C479 1.367 . S
C474 O521 1.408 . S
C475 C474 1.349 . S
C475 C476 1.407 . S
C475 H538 0.930 . S
C476 C475 1.407 . S
C476 C477 1.449 . S
C476 C480 1.535 . S
C477 C476 1.449 . S
C477 C478 1.384 . S
C477 C502 1.553 . S
C478 C477 1.384 . S
C478 C479 1.364 . S
C478 C481 1.450 . S
C479 C474 1.367 . S
C479 C478 1.364 . S
C479 H539 0.931 . S
C480 C476 1.535 . S
C480 H540 0.959 . S
C480 H541 0.961 . S
C480 H542 0.959 . S
C481 C478 1.450 . S
C481 H543 0.960 . S
C481 H544 0.960 . S
C481 H545 0.960 . S
C482 C483 1.309 . S
C482 C487 1.304 . S
C482 O520 1.435 . S
C483 C482 1.309 . S
C483 C484 1.476 . S
C483 H547 0.930 . S
C484 C483 1.476 . S
C484 C485 1.400 . S
C484 C488 1.567 . S
C485 C484 1.400 . S
C485 C486 1.373 . S
C485 C507 1.432 . S
C486 C485 1.373 . S
C486 C487 1.339 . S
C486 C489 1.530 . S
C487 C482 1.304 . S
C487 C486 1.339 . S
C487 H548 0.930 . S
C488 C484 1.567 . S
C488 H549 0.961 . S
C488 H550 0.960 . S
C488 H551 0.958 . S
C489 C486 1.530 . S
C489 H552 0.961 . S
C489 H553 0.960 . S
C489 H554 0.960 . S
C490 C491 1.530 . S
C490 H556 0.961 . S
C490 H557 0.961 . S
C490 H558 0.959 . S
C491 C490 1.530 . S
C491 O519 1.412 . S
C491 H555 0.980 . S
C492 C493 1.288 . S
C492 C497 1.377 . S
C492 O519 1.393 . S
C493 C492 1.288 . S
C493 C494 1.369 . S
C493 H559 0.932 . S
C494 C493 1.369 . S
C494 C495 1.398 . S
C494 C498 1.527 . S
C495 C494 1.398 . S
C495 C496 1.380 . S
C495 C509 1.497 . S
C496 C495 1.380 . S
C496 C497 1.383 . S
C496 C499 1.603 . S
C497 C492 1.377 . S
C497 C496 1.383 . S
C497 H560 0.929 . S
C498 C494 1.527 . S
C498 H561 0.961 . S
C498 H562 0.959 . S
C498 H563 0.959 . S
C499 C496 1.603 . S
C499 H564 0.960 . S
C499 H565 0.962 . S
C499 H566 0.961 . S
C500 C467 1.587 . S
C500 C501 1.360 . S
C500 C513 1.412 . S
C501 C500 1.360 . S
C501 C502 1.365 . S
C501 H567 0.929 . S
C502 C477 1.553 . S
C502 C501 1.365 . S
C502 C503 1.404 . S
C503 C502 1.404 . S
C503 C504 1.395 . S
C503 C514 1.451 . S
C504 C503 1.395 . S
C504 C505 1.322 . S
C504 H568 0.930 . S
C505 C504 1.322 . S
C505 C506 1.459 . S
C505 H569 0.929 . S
C506 C505 1.459 . S
C506 C507 1.445 . S
C506 C515 1.395 . S
C507 C485 1.432 . S
C507 C506 1.445 . S
C507 C508 1.370 . S
C508 C507 1.370 . S
C508 C509 1.438 . S
C508 H570 0.930 . S
C509 C495 1.497 . S
C509 C508 1.438 . S
C509 C510 1.360 . S
C510 C509 1.360 . S
C510 C511 1.401 . S
C510 C515 1.446 . S
C511 C510 1.401 . S
C511 C512 1.347 . S
C511 H571 0.929 . S
C512 C511 1.347 . S
C512 C513 1.455 . S
C512 H572 0.930 . S
C513 C500 1.412 . S
C513 C512 1.455 . S
C513 C514 1.331 . S
C514 C503 1.451 . S
C514 C513 1.331 . S
C514 C515 1.497 . S
C515 C506 1.395 . S
C515 C510 1.446 . S
C515 C514 1.497 . S
C516 C517 1.582 . S
C516 H573 0.962 . S
C516 H574 0.959 . S
C516 H575 0.958 . S
C517 C516 1.582 . S
C517 O520 1.458 . S
C517 H546 0.980 . S
O518 C463 1.426 . S
O518 C464 1.334 . S
O519 C491 1.412 . S
O519 C492 1.393 . S
O520 C482 1.435 . S
O520 C517 1.458 . S
O521 C473 1.468 . S
O521 C474 1.408 . S
H522 C463 0.980 . S
H523 C462 0.959 . S
H524 C462 0.959 . S
H525 C462 0.960 . S
H526 C465 0.929 . S
H527 C469 0.929 . S
H528 C470 0.959 . S
H529 C470 0.961 . S
H530 C470 0.961 . S
H531 C471 0.960 . S
H532 C471 0.960 . S
H533 C471 0.961 . S
H534 C473 0.980 . S
H535 C472 0.961 . S
H536 C472 0.960 . S
H537 C472 0.959 . S
H538 C475 0.930 . S
H539 C479 0.931 . S
H540 C480 0.959 . S
H541 C480 0.961 . S
H542 C480 0.959 . S
H543 C481 0.960 . S
H544 C481 0.960 . S
H545 C481 0.960 . S
H546 C517 0.980 . S
H547 C483 0.930 . S
H548 C487 0.930 . S
H549 C488 0.961 . S
H550 C488 0.960 . S
H551 C488 0.958 . S
H552 C489 0.961 . S
H553 C489 0.960 . S
H554 C489 0.960 . S
H555 C491 0.980 . S
H556 C490 0.961 . S
H557 C490 0.961 . S
H558 C490 0.959 . S
H559 C493 0.932 . S
H560 C497 0.929 . S
H561 C498 0.961 . S
H562 C498 0.959 . S
H563 C498 0.959 . S
H564 C499 0.960 . S
H565 C499 0.962 . S
H566 C499 0.961 . S
H567 C501 0.929 . S
H568 C504 0.930 . S
H569 C505 0.929 . S
H570 C508 0.930 . S
H571 C511 0.929 . S
H572 C512 0.930 . S
H573 C516 0.962 . S
H574 C516 0.959 . S
H575 C516 0.958 . S
C576 C577 1.560 . S
C576 H637 0.959 . S
C576 H638 0.959 . S
C576 H639 0.960 . S
C577 C576 1.560 . S
C577 O632 1.426 . S
C577 H636 0.980 . S
C578 C579 1.407 . S
C578 C583 1.418 . S
C578 O632 1.334 . S
C579 C578 1.407 . S
C579 C580 1.360 . S
C579 H640 0.929 . S
C580 C579 1.360 . S
C580 C581 1.401 . S
C580 C584 1.527 . S
C581 C580 1.401 . S
C581 C582 1.405 . S
C581 C614 1.587 . S
C582 C581 1.405 . S
C582 C583 1.332 . S
C582 C585 1.496 . S
C583 C578 1.418 . S
C583 C582 1.332 . S
C583 H641 0.929 . S
C584 C580 1.527 . S
C584 H642 0.959 . S
C584 H643 0.961 . S
C584 H644 0.961 . S
C585 C582 1.496 . S
C585 H645 0.960 . S
C585 H646 0.960 . S
C585 H647 0.961 . S
C586 C587 1.517 . S
C586 H649 0.961 . S
C586 H650 0.960 . S
C586 H651 0.959 . S
C587 C586 1.517 . S
C587 O635 1.468 . S
C587 H648 0.980 . S
C588 C589 1.349 . S
C588 C593 1.367 . S
C588 O635 1.408 . S
C589 C588 1.349 . S
C589 C590 1.407 . S
C589 H652 0.930 . S
C590 C589 1.407 . S
C590 C591 1.449 . S
C590 C594 1.535 . S
C591 C590 1.449 . S
C591 C592 1.384 . S
C591 C616 1.553 . S
C592 C591 1.384 . S
C592 C593 1.364 . S
C592 C595 1.450 . S
C593 C588 1.367 . S
C593 C592 1.364 . S
C593 H653 0.931 . S
C594 C590 1.535 . S
C594 H654 0.959 . S
C594 H655 0.961 . S
C594 H656 0.959 . S
C595 C592 1.450 . S
C595 H657 0.960 . S
C595 H658 0.960 . S
C595 H659 0.960 . S
C596 C597 1.309 . S
C596 C601 1.304 . S
C596 O634 1.435 . S
C597 C596 1.309 . S
C597 C598 1.476 . S
C597 H661 0.930 . S
C598 C597 1.476 . S
C598 C599 1.400 . S
C598 C602 1.567 . S
C599 C598 1.400 . S
C599 C600 1.373 . S
C599 C621 1.432 . S
C600 C599 1.373 . S
C600 C601 1.339 . S
C600 C603 1.530 . S
C601 C596 1.304 . S
C601 C600 1.339 . S
C601 H662 0.930 . S
C602 C598 1.567 . S
C602 H663 0.961 . S
C602 H664 0.960 . S
C602 H665 0.958 . S
C603 C600 1.530 . S
C603 H666 0.961 . S
C603 H667 0.960 . S
C603 H668 0.960 . S
C604 C605 1.530 . S
C604 H670 0.961 . S
C604 H671 0.961 . S
C604 H672 0.959 . S
C605 C604 1.530 . S
C605 O633 1.412 . S
C605 H669 0.980 . S
C606 C607 1.288 . S
C606 C611 1.377 . S
C606 O633 1.393 . S
C607 C606 1.288 . S
C607 C608 1.369 . S
C607 H673 0.932 . S
C608 C607 1.369 . S
C608 C609 1.398 . S
C608 C612 1.527 . S
C609 C608 1.398 . S
C609 C610 1.380 . S
C609 C623 1.497 . S
C610 C609 1.380 . S
C610 C611 1.383 . S
C610 C613 1.603 . S
C611 C606 1.377 . S
C611 C610 1.383 . S
C611 H674 0.929 . S
C612 C608 1.527 . S
C612 H675 0.961 . S
C612 H676 0.959 . S
C612 H677 0.959 . S
C613 C610 1.603 . S
C613 H678 0.960 . S
C613 H679 0.962 . S
C613 H680 0.961 . S
C614 C581 1.587 . S
C614 C615 1.360 . S
C614 C627 1.412 . S
C615 C614 1.360 . S
C615 C616 1.365 . S
C615 H681 0.929 . S
C616 C591 1.553 . S
C616 C615 1.365 . S
C616 C617 1.404 . S
C617 C616 1.404 . S
C617 C618 1.395 . S
C617 C628 1.451 . S
C618 C617 1.395 . S
C618 C619 1.322 . S
C618 H682 0.930 . S
C619 C618 1.322 . S
C619 C620 1.459 . S
C619 H683 0.929 . S
C620 C619 1.459 . S
C620 C621 1.445 . S
C620 C629 1.395 . S
C621 C599 1.432 . S
C621 C620 1.445 . S
C621 C622 1.370 . S
C622 C621 1.370 . S
C622 C623 1.438 . S
C622 H684 0.930 . S
C623 C609 1.497 . S
C623 C622 1.438 . S
C623 C624 1.360 . S
C624 C623 1.360 . S
C624 C625 1.401 . S
C624 C629 1.446 . S
C625 C624 1.401 . S
C625 C626 1.347 . S
C625 H685 0.929 . S
C626 C625 1.347 . S
C626 C627 1.455 . S
C626 H686 0.930 . S
C627 C614 1.412 . S
C627 C626 1.455 . S
C627 C628 1.331 . S
C628 C617 1.451 . S
C628 C627 1.331 . S
C628 C629 1.497 . S
C629 C620 1.395 . S
C629 C624 1.446 . S
C629 C628 1.497 . S
C630 C631 1.582 . S
C630 H687 0.962 . S
C630 H688 0.959 . S
C630 H689 0.958 . S
C631 C630 1.582 . S
C631 O634 1.458 . S
C631 H660 0.980 . S
O632 C577 1.426 . S
O632 C578 1.334 . S
O633 C605 1.412 . S
O633 C606 1.393 . S
O634 C596 1.435 . S
O634 C631 1.458 . S
O635 C587 1.468 . S
O635 C588 1.408 . S
H636 C577 0.980 . S
H637 C576 0.959 . S
H638 C576 0.959 . S
H639 C576 0.960 . S
H640 C579 0.929 . S
H641 C583 0.929 . S
H642 C584 0.959 . S
H643 C584 0.961 . S
H644 C584 0.961 . S
H645 C585 0.960 . S
H646 C585 0.960 . S
H647 C585 0.961 . S
H648 C587 0.980 . S
H649 C586 0.961 . S
H650 C586 0.960 . S
H651 C586 0.959 . S
H652 C589 0.930 . S
H653 C593 0.931 . S
H654 C594 0.959 . S
H655 C594 0.961 . S
H656 C594 0.959 . S
H657 C595 0.960 . S
H658 C595 0.960 . S
H659 C595 0.960 . S
H660 C631 0.980 . S
H661 C597 0.930 . S
H662 C601 0.930 . S
H663 C602 0.961 . S
H664 C602 0.960 . S
H665 C602 0.958 . S
H666 C603 0.961 . S
H667 C603 0.960 . S
H668 C603 0.960 . S
H669 C605 0.980 . S
H670 C604 0.961 . S
H671 C604 0.961 . S
H672 C604 0.959 . S
H673 C607 0.932 . S
H674 C611 0.929 . S
H675 C612 0.961 . S
H676 C612 0.959 . S
H677 C612 0.959 . S
H678 C613 0.960 . S
H679 C613 0.962 . S
H680 C613 0.961 . S
H681 C615 0.929 . S
H682 C618 0.930 . S
H683 C619 0.929 . S
H684 C622 0.930 . S
H685 C625 0.929 . S
H686 C626 0.930 . S
H687 C630 0.962 . S
H688 C630 0.959 . S
H689 C630 0.958 . S
C690 C691 1.560 . S
C690 H751 0.959 . S
C690 H752 0.959 . S
C690 H753 0.960 . S
C691 C690 1.560 . S
C691 O746 1.426 . S
C691 H750 0.980 . S
C692 C693 1.407 . S
C692 C697 1.418 . S
C692 O746 1.334 . S
C693 C692 1.407 . S
C693 C694 1.360 . S
C693 H754 0.929 . S
C694 C693 1.360 . S
C694 C695 1.401 . S
C694 C698 1.527 . S
C695 C694 1.401 . S
C695 C696 1.405 . S
C695 C728 1.587 . S
C696 C695 1.405 . S
C696 C697 1.332 . S
C696 C699 1.496 . S
C697 C692 1.418 . S
C697 C696 1.332 . S
C697 H755 0.929 . S
C698 C694 1.527 . S
C698 H756 0.959 . S
C698 H757 0.961 . S
C698 H758 0.961 . S
C699 C696 1.496 . S
C699 H759 0.960 . S
C699 H760 0.960 . S
C699 H761 0.961 . S
C700 C701 1.517 . S
C700 H763 0.961 . S
C700 H764 0.960 . S
C700 H765 0.959 . S
C701 C700 1.517 . S
C701 O749 1.468 . S
C701 H762 0.980 . S
C702 C703 1.349 . S
C702 C707 1.367 . S
C702 O749 1.408 . S
C703 C702 1.349 . S
C703 C704 1.407 . S
C703 H766 0.930 . S
C704 C703 1.407 . S
C704 C705 1.449 . S
C704 C708 1.535 . S
C705 C704 1.449 . S
C705 C706 1.384 . S
C705 C730 1.553 . S
C706 C705 1.384 . S
C706 C707 1.364 . S
C706 C709 1.450 . S
C707 C702 1.367 . S
C707 C706 1.364 . S
C707 H767 0.931 . S
C708 C704 1.535 . S
C708 H768 0.959 . S
C708 H769 0.961 . S
C708 H770 0.959 . S
C709 C706 1.450 . S
C709 H771 0.960 . S
C709 H772 0.960 . S
C709 H773 0.960 . S
C710 C711 1.309 . S
C710 C715 1.304 . S
C710 O748 1.435 . S
C711 C710 1.309 . S
C711 C712 1.476 . S
C711 H775 0.930 . S
C712 C711 1.476 . S
C712 C713 1.400 . S
C712 C716 1.567 . S
C713 C712 1.400 . S
C713 C714 1.373 . S
C713 C735 1.432 . S
C714 C713 1.373 . S
C714 C715 1.339 . S
C714 C717 1.530 . S
C715 C710 1.304 . S
C715 C714 1.339 . S
C715 H776 0.930 . S
C716 C712 1.567 . S
C716 H777 0.961 . S
C716 H778 0.960 . S
C716 H779 0.958 . S
C717 C714 1.530 . S
C717 H780 0.961 . S
C717 H781 0.960 . S
C717 H782 0.960 . S
C718 C719 1.530 . S
C718 H784 0.961 . S
C718 H785 0.961 . S
C718 H786 0.959 . S
C719 C718 1.530 . S
C719 O747 1.412 . S
C719 H783 0.980 . S
C720 C721 1.288 . S
C720 C725 1.377 . S
C720 O747 1.393 . S
C721 C720 1.288 . S
C721 C722 1.369 . S
C721 H787 0.932 . S
C722 C721 1.369 . S
C722 C723 1.398 . S
C722 C726 1.527 . S
C723 C722 1.398 . S
C723 C724 1.380 . S
C723 C737 1.497 . S
C724 C723 1.380 . S
C724 C725 1.383 . S
C724 C727 1.603 . S
C725 C720 1.377 . S
C725 C724 1.383 . S
C725 H788 0.929 . S
C726 C722 1.527 . S
C726 H789 0.961 . S
C726 H790 0.959 . S
C726 H791 0.959 . S
C727 C724 1.603 . S
C727 H792 0.960 . S
C727 H793 0.962 . S
C727 H794 0.961 . S
C728 C695 1.587 . S
C728 C729 1.360 . S
C728 C741 1.412 . S
C729 C728 1.360 . S
C729 C730 1.365 . S
C729 H795 0.929 . S
C730 C705 1.553 . S
C730 C729 1.365 . S
C730 C731 1.404 . S
C731 C730 1.404 . S
C731 C732 1.395 . S
C731 C742 1.451 . S
C732 C731 1.395 . S
C732 C733 1.322 . S
C732 H796 0.930 . S
C733 C732 1.322 . S
C733 C734 1.459 . S
C733 H797 0.929 . S
C734 C733 1.459 . S
C734 C735 1.445 . S
C734 C743 1.395 . S
C735 C713 1.432 . S
C735 C734 1.445 . S
C735 C736 1.370 . S
C736 C735 1.370 . S
C736 C737 1.438 . S
C736 H798 0.930 . S
C737 C723 1.497 . S
C737 C736 1.438 . S
C737 C738 1.360 . S
C738 C737 1.360 . S
C738 C739 1.401 . S
C738 C743 1.446 . S
C739 C738 1.401 . S
C739 C740 1.347 . S
C739 H799 0.929 . S
C740 C739 1.347 . S
C740 C741 1.455 . S
C740 H800 0.930 . S
C741 C728 1.412 . S
C741 C740 1.455 . S
C741 C742 1.331 . S
C742 C731 1.451 . S
C742 C741 1.331 . S
C742 C743 1.497 . S
C743 C734 1.395 . S
C743 C738 1.446 . S
C743 C742 1.497 . S
C744 C745 1.582 . S
C744 H801 0.962 . S
C744 H802 0.959 . S
C744 H803 0.958 . S
C745 C744 1.582 . S
C745 O748 1.458 . S
C745 H774 0.980 . S
O746 C691 1.426 . S
O746 C692 1.334 . S
O747 C719 1.412 . S
O747 C720 1.393 . S
O748 C710 1.435 . S
O748 C745 1.458 . S
O749 C701 1.468 . S
O749 C702 1.408 . S
H750 C691 0.980 . S
H751 C690 0.959 . S
H752 C690 0.959 . S
H753 C690 0.960 . S
H754 C693 0.929 . S
H755 C697 0.929 . S
H756 C698 0.959 . S
H757 C698 0.961 . S
H758 C698 0.961 . S
H759 C699 0.960 . S
H760 C699 0.960 . S
H761 C699 0.961 . S
H762 C701 0.980 . S
H763 C700 0.961 . S
H764 C700 0.960 . S
H765 C700 0.959 . S
H766 C703 0.930 . S
H767 C707 0.931 . S
H768 C708 0.959 . S
H769 C708 0.961 . S
H770 C708 0.959 . S
H771 C709 0.960 . S
H772 C709 0.960 . S
H773 C709 0.960 . S
H774 C745 0.980 . S
H775 C711 0.930 . S
H776 C715 0.930 . S
H777 C716 0.961 . S
H778 C716 0.960 . S
H779 C716 0.958 . S
H780 C717 0.961 . S
H781 C717 0.960 . S
H782 C717 0.960 . S
H783 C719 0.980 . S
H784 C718 0.961 . S
H785 C718 0.961 . S
H786 C718 0.959 . S
H787 C721 0.932 . S
H788 C725 0.929 . S
H789 C726 0.961 . S
H790 C726 0.959 . S
H791 C726 0.959 . S
H792 C727 0.960 . S
H793 C727 0.962 . S
H794 C727 0.961 . S
H795 C729 0.929 . S
H796 C732 0.930 . S
H797 C733 0.929 . S
H798 C736 0.930 . S
H799 C739 0.929 . S
H800 C740 0.930 . S
H801 C744 0.962 . S
H802 C744 0.959 . S
H803 C744 0.958 . S
C804 C805 1.560 . S
C804 H865 0.959 . S
C804 H866 0.959 . S
C804 H867 0.960 . S
C805 C804 1.560 . S
C805 O860 1.426 . S
C805 H864 0.980 . S
C806 C807 1.407 . S
C806 C811 1.418 . S
C806 O860 1.334 . S
C807 C806 1.407 . S
C807 C808 1.360 . S
C807 H868 0.929 . S
C808 C807 1.360 . S
C808 C809 1.401 . S
C808 C812 1.527 . S
C809 C808 1.401 . S
C809 C810 1.405 . S
C809 C842 1.587 . S
C810 C809 1.405 . S
C810 C811 1.332 . S
C810 C813 1.496 . S
C811 C806 1.418 . S
C811 C810 1.332 . S
C811 H869 0.929 . S
C812 C808 1.527 . S
C812 H870 0.959 . S
C812 H871 0.961 . S
C812 H872 0.961 . S
C813 C810 1.496 . S
C813 H873 0.960 . S
C813 H874 0.960 . S
C813 H875 0.961 . S
C814 C815 1.517 . S
C814 H877 0.961 . S
C814 H878 0.960 . S
C814 H879 0.959 . S
C815 C814 1.517 . S
C815 O863 1.468 . S
C815 H876 0.980 . S
C816 C817 1.349 . S
C816 C821 1.367 . S
C816 O863 1.408 . S
C817 C816 1.349 . S
C817 C818 1.407 . S
C817 H880 0.930 . S
C818 C817 1.407 . S
C818 C819 1.449 . S
C818 C822 1.535 . S
C819 C818 1.449 . S
C819 C820 1.384 . S
C819 C844 1.553 . S
C820 C819 1.384 . S
C820 C821 1.364 . S
C820 C823 1.450 . S
C821 C816 1.367 . S
C821 C820 1.364 . S
C821 H881 0.931 . S
C822 C818 1.535 . S
C822 H882 0.959 . S
C822 H883 0.961 . S
C822 H884 0.959 . S
C823 C820 1.450 . S
C823 H885 0.960 . S
C823 H886 0.960 . S
C823 H887 0.960 . S
C824 C825 1.309 . S
C824 C829 1.304 . S
C824 O862 1.435 . S
C825 C824 1.309 . S
C825 C826 1.476 . S
C825 H889 0.930 . S
C826 C825 1.476 . S
C826 C827 1.400 . S
C826 C830 1.567 . S
C827 C826 1.400 . S
C827 C828 1.373 . S
C827 C849 1.432 . S
C828 C827 1.373 . S
C828 C829 1.339 . S
C828 C831 1.530 . S
C829 C824 1.304 . S
C829 C828 1.339 . S
C829 H890 0.930 . S
C830 C826 1.567 . S
C830 H891 0.961 . S
C830 H892 0.960 . S
C830 H893 0.958 . S
C831 C828 1.530 . S
C831 H894 0.961 . S
C831 H895 0.960 . S
C831 H896 0.960 . S
C832 C833 1.530 . S
C832 H898 0.961 . S
C832 H899 0.961 . S
C832 H900 0.959 . S
C833 C832 1.530 . S
C833 O861 1.412 . S
C833 H897 0.980 . S
C834 C835 1.288 . S
C834 C839 1.377 . S
C834 O861 1.393 . S
C835 C834 1.288 . S
C835 C836 1.369 . S
C835 H901 0.932 . S
C836 C835 1.369 . S
C836 C837 1.398 . S
C836 C840 1.527 . S
C837 C836 1.398 . S
C837 C838 1.380 . S
C837 C851 1.497 . S
C838 C837 1.380 . S
C838 C839 1.383 . S
C838 C841 1.603 . S
C839 C834 1.377 . S
C839 C838 1.383 . S
C839 H902 0.929 . S
C840 C836 1.527 . S
C840 H903 0.961 . S
C840 H904 0.959 . S
C840 H905 0.959 . S
C841 C838 1.603 . S
C841 H906 0.960 . S
C841 H907 0.962 . S
C841 H908 0.961 . S
C842 C809 1.587 . S
C842 C843 1.360 . S
C842 C855 1.412 . S
C843 C842 1.360 . S
C843 C844 1.365 . S
C843 H909 0.929 . S
C844 C819 1.553 . S
C844 C843 1.365 . S
C844 C845 1.404 . S
C845 C844 1.404 . S
C845 C846 1.395 . S
C845 C856 1.451 . S
C846 C845 1.395 . S
C846 C847 1.322 . S
C846 H910 0.930 . S
C847 C846 1.322 . S
C847 C848 1.459 . S
C847 H911 0.929 . S
C848 C847 1.459 . S
C848 C849 1.445 . S
C848 C857 1.395 . S
C849 C827 1.432 . S
C849 C848 1.445 . S
C849 C850 1.370 . S
C850 C849 1.370 . S
C850 C851 1.438 . S
C850 H912 0.930 . S
C851 C837 1.497 . S
C851 C850 1.438 . S
C851 C852 1.360 . S
C852 C851 1.360 . S
C852 C853 1.401 . S
C852 C857 1.446 . S
C853 C852 1.401 . S
C853 C854 1.347 . S
C853 H913 0.929 . S
C854 C853 1.347 . S
C854 C855 1.455 . S
C854 H914 0.930 . S
C855 C842 1.412 . S
C855 C854 1.455 . S
C855 C856 1.331 . S
C856 C845 1.451 . S
C856 C855 1.331 . S
C856 C857 1.497 . S
C857 C848 1.395 . S
C857 C852 1.446 . S
C857 C856 1.497 . S
C858 C859 1.582 . S
C858 H915 0.962 . S
C858 H916 0.959 . S
C858 H917 0.958 . S
C859 C858 1.582 . S
C859 O862 1.458 . S
C859 H888 0.980 . S
O860 C805 1.426 . S
O860 C806 1.334 . S
O861 C833 1.412 . S
O861 C834 1.393 . S
O862 C824 1.435 . S
O862 C859 1.458 . S
O863 C815 1.468 . S
O863 C816 1.408 . S
H864 C805 0.980 . S
H865 C804 0.959 . S
H866 C804 0.959 . S
H867 C804 0.960 . S
H868 C807 0.929 . S
H869 C811 0.929 . S
H870 C812 0.959 . S
H871 C812 0.961 . S
H872 C812 0.961 . S
H873 C813 0.960 . S
H874 C813 0.960 . S
H875 C813 0.961 . S
H876 C815 0.980 . S
H877 C814 0.961 . S
H878 C814 0.960 . S
H879 C814 0.959 . S
H880 C817 0.930 . S
H881 C821 0.931 . S
H882 C822 0.959 . S
H883 C822 0.961 . S
H884 C822 0.959 . S
H885 C823 0.960 . S
H886 C823 0.960 . S
H887 C823 0.960 . S
H888 C859 0.980 . S
H889 C825 0.930 . S
H890 C829 0.930 . S
H891 C830 0.961 . S
H892 C830 0.960 . S
H893 C830 0.958 . S
H894 C831 0.961 . S
H895 C831 0.960 . S
H896 C831 0.960 . S
H897 C833 0.980 . S
H898 C832 0.961 . S
H899 C832 0.961 . S
H900 C832 0.959 . S
H901 C835 0.932 . S
H902 C839 0.929 . S
H903 C840 0.961 . S
H904 C840 0.959 . S
H905 C840 0.959 . S
H906 C841 0.960 . S
H907 C841 0.962 . S
H908 C841 0.961 . S
H909 C843 0.929 . S
H910 C846 0.930 . S
H911 C847 0.929 . S
H912 C850 0.930 . S
H913 C853 0.929 . S
H914 C854 0.930 . S
H915 C858 0.962 . S
H916 C858 0.959 . S
H917 C858 0.958 . S
C918 C919 1.560 . S
C918 H979 0.959 . S
C918 H980 0.959 . S
C918 H981 0.960 . S
C919 C918 1.560 . S
C919 O974 1.426 . S
C919 H978 0.980 . S
C920 C921 1.407 . S
C920 C925 1.418 . S
C920 O974 1.334 . S
C921 C920 1.407 . S
C921 C922 1.360 . S
C921 H982 0.929 . S
C922 C921 1.360 . S
C922 C923 1.401 . S
C922 C926 1.527 . S
C923 C922 1.401 . S
C923 C924 1.405 . S
C923 C956 1.587 . S
C924 C923 1.405 . S
C924 C925 1.332 . S
C924 C927 1.496 . S
C925 C920 1.418 . S
C925 C924 1.332 . S
C925 H983 0.929 . S
C926 C922 1.527 . S
C926 H984 0.959 . S
C926 H985 0.961 . S
C926 H986 0.961 . S
C927 C924 1.496 . S
C927 H987 0.960 . S
C927 H988 0.960 . S
C927 H989 0.961 . S
C928 C929 1.517 . S
C928 H991 0.961 . S
C928 H992 0.960 . S
C928 H993 0.959 . S
C929 C928 1.517 . S
C929 O977 1.468 . S
C929 H990 0.980 . S
C930 C931 1.349 . S
C930 C935 1.367 . S
C930 O977 1.408 . S
C931 C930 1.349 . S
C931 C932 1.407 . S
C931 H994 0.930 . S
C932 C931 1.407 . S
C932 C933 1.449 . S
C932 C936 1.535 . S
C933 C932 1.449 . S
C933 C934 1.384 . S
C933 C958 1.553 . S
C934 C933 1.384 . S
C934 C935 1.364 . S
C934 C937 1.450 . S
C935 C930 1.367 . S
C935 C934 1.364 . S
C935 H995 0.931 . S
C936 C932 1.535 . S
C936 H996 0.959 . S
C936 H997 0.961 . S
C936 H998 0.959 . S
C937 C934 1.450 . S
C937 H999 0.960 . S
C937 H1000 0.960 . S
C937 H1001 0.960 . S
C938 C939 1.309 . S
C938 C943 1.304 . S
C938 O976 1.435 . S
C939 C938 1.309 . S
C939 C940 1.476 . S
C939 H1003 0.930 . S
C940 C939 1.476 . S
C940 C941 1.400 . S
C940 C944 1.567 . S
C941 C940 1.400 . S
C941 C942 1.373 . S
C941 C963 1.432 . S
C942 C941 1.373 . S
C942 C943 1.339 . S
C942 C945 1.530 . S
C943 C938 1.304 . S
C943 C942 1.339 . S
C943 H1004 0.930 . S
C944 C940 1.567 . S
C944 H1005 0.961 . S
C944 H1006 0.960 . S
C944 H1007 0.958 . S
C945 C942 1.530 . S
C945 H1008 0.961 . S
C945 H1009 0.960 . S
C945 H1010 0.960 . S
C946 C947 1.530 . S
C946 H1012 0.961 . S
C946 H1013 0.961 . S
C946 H1014 0.959 . S
C947 C946 1.530 . S
C947 O975 1.412 . S
C947 H1011 0.980 . S
C948 C949 1.288 . S
C948 C953 1.377 . S
C948 O975 1.393 . S
C949 C948 1.288 . S
C949 C950 1.369 . S
C949 H1015 0.932 . S
C950 C949 1.369 . S
C950 C951 1.398 . S
C950 C954 1.527 . S
C951 C950 1.398 . S
C951 C952 1.380 . S
C951 C965 1.497 . S
C952 C951 1.380 . S
C952 C953 1.383 . S
C952 C955 1.603 . S
C953 C948 1.377 . S
C953 C952 1.383 . S
C953 H1016 0.929 . S
C954 C950 1.527 . S
C954 H1017 0.961 . S
C954 H1018 0.959 . S
C954 H1019 0.959 . S
C955 C952 1.603 . S
C955 H1020 0.960 . S
C955 H1021 0.962 . S
C955 H1022 0.961 . S
C956 C923 1.587 . S
C956 C957 1.360 . S
C956 C969 1.412 . S
C957 C956 1.360 . S
C957 C958 1.365 . S
C957 H1023 0.929 . S
C958 C933 1.553 . S
C958 C957 1.365 . S
C958 C959 1.404 . S
C959 C958 1.404 . S
C959 C960 1.395 . S
C959 C970 1.451 . S
C960 C959 1.395 . S
C960 C961 1.322 . S
C960 H1024 0.930 . S
C961 C960 1.322 . S
C961 C962 1.459 . S
C961 H1025 0.929 . S
C962 C961 1.459 . S
C962 C963 1.445 . S
C962 C971 1.395 . S
C963 C941 1.432 . S
C963 C962 1.445 . S
C963 C964 1.370 . S
C964 C963 1.370 . S
C964 C965 1.438 . S
C964 H1026 0.930 . S
C965 C951 1.497 . S
C965 C964 1.438 . S
C965 C966 1.360 . S
C966 C965 1.360 . S
C966 C967 1.401 . S
C966 C971 1.446 . S
C967 C966 1.401 . S
C967 C968 1.347 . S
C967 H1027 0.929 . S
C968 C967 1.347 . S
C968 C969 1.455 . S
C968 H1028 0.930 . S
C969 C956 1.412 . S
C969 C968 1.455 . S
C969 C970 1.331 . S
C970 C959 1.451 . S
C970 C969 1.331 . S
C970 C971 1.497 . S
C971 C962 1.395 . S
C971 C966 1.446 . S
C971 C970 1.497 . S
C972 C973 1.582 . S
C972 H1029 0.962 . S
C972 H1030 0.959 . S
C972 H1031 0.958 . S
C973 C972 1.582 . S
C973 O976 1.458 . S
C973 H1002 0.980 . S
O974 C919 1.426 . S
O974 C920 1.334 . S
O975 C947 1.412 . S
O975 C948 1.393 . S
O976 C938 1.435 . S
O976 C973 1.458 . S
O977 C929 1.468 . S
O977 C930 1.408 . S
H978 C919 0.980 . S
H979 C918 0.959 . S
H980 C918 0.959 . S
H981 C918 0.960 . S
H982 C921 0.929 . S
H983 C925 0.929 . S
H984 C926 0.959 . S
H985 C926 0.961 . S
H986 C926 0.961 . S
H987 C927 0.960 . S
H988 C927 0.960 . S
H989 C927 0.961 . S
H990 C929 0.980 . S
H991 C928 0.961 . S
H992 C928 0.960 . S
H993 C928 0.959 . S
H994 C931 0.930 . S
H995 C935 0.931 . S
H996 C936 0.959 . S
H997 C936 0.961 . S
H998 C936 0.959 . S
H999 C937 0.960 . S
H1000 C937 0.960 . S
H1001 C937 0.960 . S
H1002 C973 0.980 . S
H1003 C939 0.930 . S
H1004 C943 0.930 . S
H1005 C944 0.961 . S
H1006 C944 0.960 . S
H1007 C944 0.958 . S
H1008 C945 0.961 . S
H1009 C945 0.960 . S
H1010 C945 0.960 . S
H1011 C947 0.980 . S
H1012 C946 0.961 . S
H1013 C946 0.961 . S
H1014 C946 0.959 . S
H1015 C949 0.932 . S
H1016 C953 0.929 . S
H1017 C954 0.961 . S
H1018 C954 0.959 . S
H1019 C954 0.959 . S
H1020 C955 0.960 . S
H1021 C955 0.962 . S
H1022 C955 0.961 . S
H1023 C957 0.929 . S
H1024 C960 0.930 . S
H1025 C961 0.929 . S
H1026 C964 0.930 . S
H1027 C967 0.929 . S
H1028 C968 0.930 . S
H1029 C972 0.962 . S
H1030 C972 0.959 . S
H1031 C972 0.958 . S
C1032 C1033 1.560 . S
C1032 H1093 0.959 . S
C1032 H1094 0.959 . S
C1032 H1095 0.960 . S
C1033 C1032 1.560 . S
C1033 O1088 1.426 . S
C1033 H1092 0.980 . S
C1034 C1035 1.407 . S
C1034 C1039 1.418 . S
C1034 O1088 1.334 . S
C1035 C1034 1.407 . S
C1035 C1036 1.360 . S
C1035 H1096 0.929 . S
C1036 C1035 1.360 . S
C1036 C1037 1.401 . S
C1036 C1040 1.527 . S
C1037 C1036 1.401 . S
C1037 C1038 1.405 . S
C1037 C1070 1.587 . S
C1038 C1037 1.405 . S
C1038 C1039 1.332 . S
C1038 C1041 1.496 . S
C1039 C1034 1.418 . S
C1039 C1038 1.332 . S
C1039 H1097 0.929 . S
C1040 C1036 1.527 . S
C1040 H1098 0.959 . S
C1040 H1099 0.961 . S
C1040 H1100 0.961 . S
C1041 C1038 1.496 . S
C1041 H1101 0.960 . S
C1041 H1102 0.960 . S
C1041 H1103 0.961 . S
C1042 C1043 1.517 . S
C1042 H1105 0.961 . S
C1042 H1106 0.960 . S
C1042 H1107 0.959 . S
C1043 C1042 1.517 . S
C1043 O1091 1.468 . S
C1043 H1104 0.980 . S
C1044 C1045 1.349 . S
C1044 C1049 1.367 . S
C1044 O1091 1.408 . S
C1045 C1044 1.349 . S
C1045 C1046 1.407 . S
C1045 H1108 0.930 . S
C1046 C1045 1.407 . S
C1046 C1047 1.449 . S
C1046 C1050 1.535 . S
C1047 C1046 1.449 . S
C1047 C1048 1.384 . S
C1047 C1072 1.553 . S
C1048 C1047 1.384 . S
C1048 C1049 1.364 . S
C1048 C1051 1.450 . S
C1049 C1044 1.367 . S
C1049 C1048 1.364 . S
C1049 H1109 0.931 . S
C1050 C1046 1.535 . S
C1050 H1110 0.959 . S
C1050 H1111 0.961 . S
C1050 H1112 0.959 . S
C1051 C1048 1.450 . S
C1051 H1113 0.960 . S
C1051 H1114 0.960 . S
C1051 H1115 0.960 . S
C1052 C1053 1.309 . S
C1052 C1057 1.304 . S
C1052 O1090 1.435 . S
C1053 C1052 1.309 . S
C1053 C1054 1.476 . S
C1053 H1117 0.930 . S
C1054 C1053 1.476 . S
C1054 C1055 1.400 . S
C1054 C1058 1.567 . S
C1055 C1054 1.400 . S
C1055 C1056 1.373 . S
C1055 C1077 1.432 . S
C1056 C1055 1.373 . S
C1056 C1057 1.339 . S
C1056 C1059 1.530 . S
C1057 C1052 1.304 . S
C1057 C1056 1.339 . S
C1057 H1118 0.930 . S
C1058 C1054 1.567 . S
C1058 H1119 0.961 . S
C1058 H1120 0.960 . S
C1058 H1121 0.958 . S
C1059 C1056 1.530 . S
C1059 H1122 0.961 . S
C1059 H1123 0.960 . S
C1059 H1124 0.960 . S
C1060 C1061 1.530 . S
C1060 H1126 0.961 . S
C1060 H1127 0.961 . S
C1060 H1128 0.959 . S
C1061 C1060 1.530 . S
C1061 O1089 1.412 . S
C1061 H1125 0.980 . S
C1062 C1063 1.288 . S
C1062 C1067 1.377 . S
C1062 O1089 1.393 . S
C1063 C1062 1.288 . S
C1063 C1064 1.369 . S
C1063 H1129 0.932 . S
C1064 C1063 1.369 . S
C1064 C1065 1.398 . S
C1064 C1068 1.527 . S
C1065 C1064 1.398 . S
C1065 C1066 1.380 . S
C1065 C1079 1.497 . S
C1066 C1065 1.380 . S
C1066 C1067 1.383 . S
C1066 C1069 1.603 . S
C1067 C1062 1.377 . S
C1067 C1066 1.383 . S
C1067 H1130 0.929 . S
C1068 C1064 1.527 . S
C1068 H1131 0.961 . S
C1068 H1132 0.959 . S
C1068 H1133 0.959 . S
C1069 C1066 1.603 . S
C1069 H1134 0.960 . S
C1069 H1135 0.962 . S
C1069 H1136 0.961 . S
C1070 C1037 1.587 . S
C1070 C1071 1.360 . S
C1070 C1083 1.412 . S
C1071 C1070 1.360 . S
C1071 C1072 1.365 . S
C1071 H1137 0.929 . S
C1072 C1047 1.553 . S
C1072 C1071 1.365 . S
C1072 C1073 1.404 . S
C1073 C1072 1.404 . S
C1073 C1074 1.395 . S
C1073 C1084 1.451 . S
C1074 C1073 1.395 . S
C1074 C1075 1.322 . S
C1074 H1138 0.930 . S
C1075 C1074 1.322 . S
C1075 C1076 1.459 . S
C1075 H1139 0.929 . S
C1076 C1075 1.459 . S
C1076 C1077 1.445 . S
C1076 C1085 1.395 . S
C1077 C1055 1.432 . S
C1077 C1076 1.445 . S
C1077 C1078 1.370 . S
C1078 C1077 1.370 . S
C1078 C1079 1.438 . S
C1078 H1140 0.930 . S
C1079 C1065 1.497 . S
C1079 C1078 1.438 . S
C1079 C1080 1.360 . S
C1080 C1079 1.360 . S
C1080 C1081 1.401 . S
C1080 C1085 1.446 . S
C1081 C1080 1.401 . S
C1081 C1082 1.347 . S
C1081 H1141 0.929 . S
C1082 C1081 1.347 . S
C1082 C1083 1.455 . S
C1082 H1142 0.930 . S
C1083 C1070 1.412 . S
C1083 C1082 1.455 . S
C1083 C1084 1.331 . S
C1084 C1073 1.451 . S
C1084 C1083 1.331 . S
C1084 C1085 1.497 . S
C1085 C1076 1.395 . S
C1085 C1080 1.446 . S
C1085 C1084 1.497 . S
C1086 C1087 1.582 . S
C1086 H1143 0.962 . S
C1086 H1144 0.959 . S
C1086 H1145 0.958 . S
C1087 C1086 1.582 . S
C1087 O1090 1.458 . S
C1087 H1116 0.980 . S
O1088 C1033 1.426 . S
O1088 C1034 1.334 . S
O1089 C1061 1.412 . S
O1089 C1062 1.393 . S
O1090 C1052 1.435 . S
O1090 C1087 1.458 . S
O1091 C1043 1.468 . S
O1091 C1044 1.408 . S
H1092 C1033 0.980 . S
H1093 C1032 0.959 . S
H1094 C1032 0.959 . S
H1095 C1032 0.960 . S
H1096 C1035 0.929 . S
H1097 C1039 0.929 . S
H1098 C1040 0.959 . S
H1099 C1040 0.961 . S
H1100 C1040 0.961 . S
H1101 C1041 0.960 . S
H1102 C1041 0.960 . S
H1103 C1041 0.961 . S
H1104 C1043 0.980 . S
H1105 C1042 0.961 . S
H1106 C1042 0.960 . S
H1107 C1042 0.959 . S
H1108 C1045 0.930 . S
H1109 C1049 0.931 . S
H1110 C1050 0.959 . S
H1111 C1050 0.961 . S
H1112 C1050 0.959 . S
H1113 C1051 0.960 . S
H1114 C1051 0.960 . S
H1115 C1051 0.960 . S
H1116 C1087 0.980 . S
H1117 C1053 0.930 . S
H1118 C1057 0.930 . S
H1119 C1058 0.961 . S
H1120 C1058 0.960 . S
H1121 C1058 0.958 . S
H1122 C1059 0.961 . S
H1123 C1059 0.960 . S
H1124 C1059 0.960 . S
H1125 C1061 0.980 . S
H1126 C1060 0.961 . S
H1127 C1060 0.961 . S
H1128 C1060 0.959 . S
H1129 C1063 0.932 . S
H1130 C1067 0.929 . S
H1131 C1068 0.961 . S
H1132 C1068 0.959 . S
H1133 C1068 0.959 . S
H1134 C1069 0.960 . S
H1135 C1069 0.962 . S
H1136 C1069 0.961 . S
H1137 C1071 0.929 . S
H1138 C1074 0.930 . S
H1139 C1075 0.929 . S
H1140 C1078 0.930 . S
H1141 C1081 0.929 . S
H1142 C1082 0.930 . S
H1143 C1086 0.962 . S
H1144 C1086 0.959 . S
H1145 C1086 0.958 . S
C1146 C1147 1.560 . S
C1146 H1207 0.959 . S
C1146 H1208 0.959 . S
C1146 H1209 0.960 . S
C1147 C1146 1.560 . S
C1147 O1202 1.426 . S
C1147 H1206 0.980 . S
C1148 C1149 1.407 . S
C1148 C1153 1.418 . S
C1148 O1202 1.334 . S
C1149 C1148 1.407 . S
C1149 C1150 1.360 . S
C1149 H1210 0.929 . S
C1150 C1149 1.360 . S
C1150 C1151 1.401 . S
C1150 C1154 1.527 . S
C1151 C1150 1.401 . S
C1151 C1152 1.405 . S
C1151 C1184 1.587 . S
C1152 C1151 1.405 . S
C1152 C1153 1.332 . S
C1152 C1155 1.496 . S
C1153 C1148 1.418 . S
C1153 C1152 1.332 . S
C1153 H1211 0.929 . S
C1154 C1150 1.527 . S
C1154 H1212 0.959 . S
C1154 H1213 0.961 . S
C1154 H1214 0.961 . S
C1155 C1152 1.496 . S
C1155 H1215 0.960 . S
C1155 H1216 0.960 . S
C1155 H1217 0.961 . S
C1156 C1157 1.517 . S
C1156 H1219 0.961 . S
C1156 H1220 0.960 . S
C1156 H1221 0.959 . S
C1157 C1156 1.517 . S
C1157 O1205 1.468 . S
C1157 H1218 0.980 . S
C1158 C1159 1.349 . S
C1158 C1163 1.367 . S
C1158 O1205 1.408 . S
C1159 C1158 1.349 . S
C1159 C1160 1.407 . S
C1159 H1222 0.930 . S
C1160 C1159 1.407 . S
C1160 C1161 1.449 . S
C1160 C1164 1.535 . S
C1161 C1160 1.449 . S
C1161 C1162 1.384 . S
C1161 C1186 1.553 . S
C1162 C1161 1.384 . S
C1162 C1163 1.364 . S
C1162 C1165 1.450 . S
C1163 C1158 1.367 . S
C1163 C1162 1.364 . S
C1163 H1223 0.931 . S
C1164 C1160 1.535 . S
C1164 H1224 0.959 . S
C1164 H1225 0.961 . S
C1164 H1226 0.959 . S
C1165 C1162 1.450 . S
C1165 H1227 0.960 . S
C1165 H1228 0.960 . S
C1165 H1229 0.960 . S
C1166 C1167 1.309 . S
C1166 C1171 1.304 . S
C1166 O1204 1.435 . S
C1167 C1166 1.309 . S
C1167 C1168 1.476 . S
C1167 H1231 0.930 . S
C1168 C1167 1.476 . S
C1168 C1169 1.400 . S
C1168 C1172 1.567 . S
C1169 C1168 1.400 . S
C1169 C1170 1.373 . S
C1169 C1191 1.432 . S
C1170 C1169 1.373 . S
C1170 C1171 1.339 . S
C1170 C1173 1.530 . S
C1171 C1166 1.304 . S
C1171 C1170 1.339 . S
C1171 H1232 0.930 . S
C1172 C1168 1.567 . S
C1172 H1233 0.961 . S
C1172 H1234 0.960 . S
C1172 H1235 0.958 . S
C1173 C1170 1.530 . S
C1173 H1236 0.961 . S
C1173 H1237 0.960 . S
C1173 H1238 0.960 . S
C1174 C1175 1.530 . S
C1174 H1240 0.961 . S
C1174 H1241 0.961 . S
C1174 H1242 0.959 . S
C1175 C1174 1.530 . S
C1175 O1203 1.412 . S
C1175 H1239 0.980 . S
C1176 C1177 1.288 . S
C1176 C1181 1.377 . S
C1176 O1203 1.393 . S
C1177 C1176 1.288 . S
C1177 C1178 1.369 . S
C1177 H1243 0.932 . S
C1178 C1177 1.369 . S
C1178 C1179 1.398 . S
C1178 C1182 1.527 . S
C1179 C1178 1.398 . S
C1179 C1180 1.380 . S
C1179 C1193 1.497 . S
C1180 C1179 1.380 . S
C1180 C1181 1.383 . S
C1180 C1183 1.603 . S
C1181 C1176 1.377 . S
C1181 C1180 1.383 . S
C1181 H1244 0.929 . S
C1182 C1178 1.527 . S
C1182 H1245 0.961 . S
C1182 H1246 0.959 . S
C1182 H1247 0.959 . S
C1183 C1180 1.603 . S
C1183 H1248 0.960 . S
C1183 H1249 0.962 . S
C1183 H1250 0.961 . S
C1184 C1151 1.587 . S
C1184 C1185 1.360 . S
C1184 C1197 1.412 . S
C1185 C1184 1.360 . S
C1185 C1186 1.365 . S
C1185 H1251 0.929 . S
C1186 C1161 1.553 . S
C1186 C1185 1.365 . S
C1186 C1187 1.404 . S
C1187 C1186 1.404 . S
C1187 C1188 1.395 . S
C1187 C1198 1.451 . S
C1188 C1187 1.395 . S
C1188 C1189 1.322 . S
C1188 H1252 0.930 . S
C1189 C1188 1.322 . S
C1189 C1190 1.459 . S
C1189 H1253 0.929 . S
C1190 C1189 1.459 . S
C1190 C1191 1.445 . S
C1190 C1199 1.395 . S
C1191 C1169 1.432 . S
C1191 C1190 1.445 . S
C1191 C1192 1.370 . S
C1192 C1191 1.370 . S
C1192 C1193 1.438 . S
C1192 H1254 0.930 . S
C1193 C1179 1.497 . S
C1193 C1192 1.438 . S
C1193 C1194 1.360 . S
C1194 C1193 1.360 . S
C1194 C1195 1.401 . S
C1194 C1199 1.446 . S
C1195 C1194 1.401 . S
C1195 C1196 1.347 . S
C1195 H1255 0.929 . S
C1196 C1195 1.347 . S
C1196 C1197 1.455 . S
C1196 H1256 0.930 . S
C1197 C1184 1.412 . S
C1197 C1196 1.455 . S
C1197 C1198 1.331 . S
C1198 C1187 1.451 . S
C1198 C1197 1.331 . S
C1198 C1199 1.497 . S
C1199 C1190 1.395 . S
C1199 C1194 1.446 . S
C1199 C1198 1.497 . S
C1200 C1201 1.582 . S
C1200 H1257 0.962 . S
C1200 H1258 0.959 . S
C1200 H1259 0.958 . S
C1201 C1200 1.582 . S
C1201 O1204 1.458 . S
C1201 H1230 0.980 . S
O1202 C1147 1.426 . S
O1202 C1148 1.334 . S
O1203 C1175 1.412 . S
O1203 C1176 1.393 . S
O1204 C1166 1.435 . S
O1204 C1201 1.458 . S
O1205 C1157 1.468 . S
O1205 C1158 1.408 . S
H1206 C1147 0.980 . S
H1207 C1146 0.959 . S
H1208 C1146 0.959 . S
H1209 C1146 0.960 . S
H1210 C1149 0.929 . S
H1211 C1153 0.929 . S
H1212 C1154 0.959 . S
H1213 C1154 0.961 . S
H1214 C1154 0.961 . S
H1215 C1155 0.960 . S
H1216 C1155 0.960 . S
H1217 C1155 0.961 . S
H1218 C1157 0.980 . S
H1219 C1156 0.961 . S
H1220 C1156 0.960 . S
H1221 C1156 0.959 . S
H1222 C1159 0.930 . S
H1223 C1163 0.931 . S
H1224 C1164 0.959 . S
H1225 C1164 0.961 . S
H1226 C1164 0.959 . S
H1227 C1165 0.960 . S
H1228 C1165 0.960 . S
H1229 C1165 0.960 . S
H1230 C1201 0.980 . S
H1231 C1167 0.930 . S
H1232 C1171 0.930 . S
H1233 C1172 0.961 . S
H1234 C1172 0.960 . S
H1235 C1172 0.958 . S
H1236 C1173 0.961 . S
H1237 C1173 0.960 . S
H1238 C1173 0.960 . S
H1239 C1175 0.980 . S
H1240 C1174 0.961 . S
H1241 C1174 0.961 . S
H1242 C1174 0.959 . S
H1243 C1177 0.932 . S
H1244 C1181 0.929 . S
H1245 C1182 0.961 . S
H1246 C1182 0.959 . S
H1247 C1182 0.959 . S
H1248 C1183 0.960 . S
H1249 C1183 0.962 . S
H1250 C1183 0.961 . S
H1251 C1185 0.929 . S
H1252 C1188 0.930 . S
H1253 C1189 0.929 . S
H1254 C1192 0.930 . S
H1255 C1195 0.929 . S
H1256 C1196 0.930 . S
H1257 C1200 0.962 . S
H1258 C1200 0.959 . S
H1259 C1200 0.958 . S
C1260 C1261 1.560 . S
C1260 H1321 0.959 . S
C1260 H1322 0.959 . S
C1260 H1323 0.960 . S
C1261 C1260 1.560 . S
C1261 O1316 1.426 . S
C1261 H1320 0.980 . S
C1262 C1263 1.407 1_455 S
C1262 C1267 1.418 . S
C1262 O1316 1.334 . S
C1263 C1262 1.407 1_655 S
C1263 C1264 1.360 . S
C1263 H1324 0.929 . S
C1264 C1263 1.360 . S
C1264 C1265 1.401 1_655 S
C1264 C1268 1.527 . S
C1265 C1264 1.401 1_455 S
C1265 C1266 1.405 . S
C1265 C1298 1.587 1_455 S
C1266 C1265 1.405 . S
C1266 C1267 1.332 . S
C1266 C1269 1.496 . S
C1267 C1262 1.418 . S
C1267 C1266 1.332 . S
C1267 H1325 0.929 . S
C1268 C1264 1.527 . S
C1268 H1326 0.959 . S
C1268 H1327 0.961 . S
C1268 H1328 0.961 . S
C1269 C1266 1.496 . S
C1269 H1329 0.960 . S
C1269 H1330 0.960 . S
C1269 H1331 0.961 . S
C1270 C1271 1.517 . S
C1270 H1333 0.956 . S
C1270 H1334 0.960 . S
C1270 H1335 0.959 . S
C1271 C1270 1.517 . S
C1271 O1319 1.468 . S
C1271 H1332 0.980 1_655 S
C1272 C1273 1.349 . S
C1272 C1277 1.367 . S
C1272 O1319 1.408 . S
C1273 C1272 1.349 . S
C1273 C1274 1.356 1_655 S
C1273 H1336 0.930 1_655 S
C1274 C1273 1.356 1_455 S
C1274 C1275 1.404 1_455 S
C1274 C1278 1.626 . S
C1275 C1274 1.404 1_655 S
C1275 C1276 1.384 . S
C1275 C1300 1.553 . S
C1276 C1275 1.384 . S
C1276 C1277 1.364 . S
C1276 C1279 1.450 . S
C1277 C1272 1.367 . S
C1277 C1276 1.364 . S
C1277 H1337 0.931 . S
C1278 C1274 1.626 . S
C1278 H1338 0.959 . S
C1278 H1339 0.961 . S
C1278 H1340 0.959 . S
C1279 C1276 1.450 . S
C1279 H1341 0.960 . S
C1279 H1342 0.960 . S
C1279 H1343 0.960 . S
C1280 C1281 1.309 . S
C1280 C1285 1.304 . S
C1280 O1318 1.435 . S
C1281 C1280 1.309 . S
C1281 C1282 1.462 1_655 S
C1281 H1345 0.930 1_655 S
C1282 C1281 1.462 1_455 S
C1282 C1283 1.392 1_455 S
C1282 C1286 1.588 . S
C1283 C1282 1.392 1_655 S
C1283 C1284 1.373 . S
C1283 C1305 1.432 . S
C1284 C1283 1.373 . S
C1284 C1285 1.339 . S
C1284 C1287 1.530 . S
C1285 C1280 1.304 . S
C1285 C1284 1.339 . S
C1285 H1346 0.930 . S
C1286 C1282 1.588 . S
C1286 H1347 0.961 . S
C1286 H1348 0.960 . S
C1286 H1349 0.958 . S
C1287 C1284 1.530 . S
C1287 H1350 0.961 . S
C1287 H1351 0.960 . S
C1287 H1352 0.960 . S
C1288 C1289 1.494 1_455 S
C1288 H1354 0.961 . S
C1288 H1355 0.961 . S
C1288 H1356 0.959 . S
C1289 C1288 1.494 1_655 S
C1289 O1317 1.404 1_655 S
C1289 H1353 0.991 . S
C1290 C1291 1.288 . S
C1290 C1295 1.377 1_455 S
C1290 O1317 1.393 . S
C1291 C1290 1.288 . S
C1291 C1292 1.369 . S
C1291 H1357 0.932 . S
C1292 C1291 1.369 . S
C1292 C1293 1.398 1_455 S
C1292 C1296 1.527 . S
C1293 C1292 1.398 1_655 S
C1293 C1294 1.380 . S
C1293 C1307 1.497 . S
C1294 C1293 1.380 . S
C1294 C1295 1.383 . S
C1294 C1297 1.603 . S
C1295 C1290 1.377 1_655 S
C1295 C1294 1.383 . S
C1295 H1358 0.929 . S
C1296 C1292 1.527 . S
C1296 H1359 0.961 . S
C1296 H1360 0.959 . S
C1296 H1361 0.959 . S
C1297 C1294 1.603 . S
C1297 H1362 0.960 . S
C1297 H1363 0.962 . S
C1297 H1364 0.961 . S
C1298 C1265 1.587 1_655 S
C1298 C1299 1.360 . S
C1298 C1311 1.412 . S
C1299 C1298 1.360 . S
C1299 C1300 1.365 . S
C1299 H1365 0.929 . S
C1300 C1275 1.553 . S
C1300 C1299 1.365 . S
C1300 C1301 1.404 . S
C1301 C1300 1.404 . S
C1301 C1302 1.395 . S
C1301 C1312 1.451 . S
C1302 C1301 1.395 . S
C1302 C1303 1.322 . S
C1302 H1366 0.930 . S
C1303 C1302 1.322 . S
C1303 C1304 1.459 . S
C1303 H1367 0.929 . S
C1304 C1303 1.459 . S
C1304 C1305 1.445 . S
C1304 C1313 1.395 . S
C1305 C1283 1.432 . S
C1305 C1304 1.445 . S
C1305 C1306 1.370 . S
C1306 C1305 1.370 . S
C1306 C1307 1.438 . S
C1306 H1368 0.930 . S
C1307 C1293 1.497 . S
C1307 C1306 1.438 . S
C1307 C1308 1.360 . S
C1308 C1307 1.360 . S
C1308 C1309 1.401 . S
C1308 C1313 1.446 . S
C1309 C1308 1.401 . S
C1309 C1310 1.347 . S
C1309 H1369 0.929 . S
C1310 C1309 1.347 . S
C1310 C1311 1.455 . S
C1310 H1370 0.930 . S
C1311 C1298 1.412 . S
C1311 C1310 1.455 . S
C1311 C1312 1.331 . S
C1312 C1301 1.451 . S
C1312 C1311 1.331 . S
C1312 C1313 1.497 . S
C1313 C1304 1.395 . S
C1313 C1308 1.446 . S
C1313 C1312 1.497 . S
C1314 C1315 1.582 . S
C1314 H1371 0.962 . S
C1314 H1372 0.959 . S
C1314 H1373 0.958 . S
C1315 C1314 1.582 . S
C1315 O1318 1.458 . S
C1315 H1344 0.980 . S
O1316 C1261 1.426 . S
O1316 C1262 1.334 . S
O1317 C1289 1.404 1_455 S
O1317 C1290 1.393 . S
O1318 C1280 1.435 . S
O1318 C1315 1.458 . S
O1319 C1271 1.468 . S
O1319 C1272 1.408 . S
H1320 C1261 0.980 . S
H1321 C1260 0.959 . S
H1322 C1260 0.959 . S
H1323 C1260 0.960 . S
H1324 C1263 0.929 . S
H1325 C1267 0.929 . S
H1326 C1268 0.959 . S
H1327 C1268 0.961 . S
H1328 C1268 0.961 . S
H1329 C1269 0.960 . S
H1330 C1269 0.960 . S
H1331 C1269 0.961 . S
H1332 C1271 0.980 1_455 S
H1333 C1270 0.956 . S
H1334 C1270 0.960 . S
H1335 C1270 0.959 . S
H1336 C1273 0.930 1_455 S
H1337 C1277 0.931 . S
H1338 C1278 0.959 . S
H1339 C1278 0.961 . S
H1340 C1278 0.959 . S
H1341 C1279 0.960 . S
H1342 C1279 0.960 . S
H1343 C1279 0.960 . S
H1344 C1315 0.980 . S
H1345 C1281 0.930 1_455 S
H1346 C1285 0.930 . S
H1347 C1286 0.961 . S
H1348 C1286 0.960 . S
H1349 C1286 0.958 . S
H1350 C1287 0.961 . S
H1351 C1287 0.960 . S
H1352 C1287 0.960 . S
H1353 C1289 0.991 . S
H1354 C1288 0.961 . S
H1355 C1288 0.961 . S
H1356 C1288 0.959 . S
H1357 C1291 0.932 . S
H1358 C1295 0.929 . S
H1359 C1296 0.961 . S
H1360 C1296 0.959 . S
H1361 C1296 0.959 . S
H1362 C1297 0.960 . S
H1363 C1297 0.962 . S
H1364 C1297 0.961 . S
H1365 C1299 0.929 . S
H1366 C1302 0.930 . S
H1367 C1303 0.929 . S
H1368 C1306 0.930 . S
H1369 C1309 0.929 . S
H1370 C1310 0.930 . S
H1371 C1314 0.962 . S
H1372 C1314 0.959 . S
H1373 C1314 0.958 . S
C1374 C1375 1.560 . S
C1374 H1435 0.959 . S
C1374 H1436 0.959 . S
C1374 H1437 0.960 . S
C1375 C1374 1.560 . S
C1375 O1430 1.426 . S
C1375 H1434 0.980 . S
C1376 C1377 1.407 . S
C1376 C1381 1.418 . S
C1376 O1430 1.334 . S
C1377 C1376 1.407 . S
C1377 C1378 1.360 . S
C1377 H1438 0.929 . S
C1378 C1377 1.360 . S
C1378 C1379 1.401 . S
C1378 C1382 1.527 . S
C1379 C1378 1.401 . S
C1379 C1380 1.405 . S
C1379 C1412 1.587 . S
C1380 C1379 1.405 . S
C1380 C1381 1.332 . S
C1380 C1383 1.496 . S
C1381 C1376 1.418 . S
C1381 C1380 1.332 . S
C1381 H1439 0.929 . S
C1382 C1378 1.527 . S
C1382 H1440 0.959 . S
C1382 H1441 0.961 . S
C1382 H1442 0.961 . S
C1383 C1380 1.496 . S
C1383 H1443 0.960 . S
C1383 H1444 0.960 . S
C1383 H1445 0.961 . S
C1384 C1385 1.517 . S
C1384 H1447 0.961 . S
C1384 H1448 0.960 . S
C1384 H1449 0.959 . S
C1385 C1384 1.517 . S
C1385 O1433 1.468 . S
C1385 H1446 0.980 . S
C1386 C1387 1.349 . S
C1386 C1391 1.367 . S
C1386 O1433 1.408 . S
C1387 C1386 1.349 . S
C1387 C1388 1.407 . S
C1387 H1450 0.930 . S
C1388 C1387 1.407 . S
C1388 C1389 1.449 . S
C1388 C1392 1.535 . S
C1389 C1388 1.449 . S
C1389 C1390 1.384 . S
C1389 C1414 1.553 . S
C1390 C1389 1.384 . S
C1390 C1391 1.364 . S
C1390 C1393 1.450 . S
C1391 C1386 1.367 . S
C1391 C1390 1.364 . S
C1391 H1451 0.931 . S
C1392 C1388 1.535 . S
C1392 H1452 0.959 . S
C1392 H1453 0.961 . S
C1392 H1454 0.959 . S
C1393 C1390 1.450 . S
C1393 H1455 0.960 . S
C1393 H1456 0.960 . S
C1393 H1457 0.960 . S
C1394 C1395 1.309 . S
C1394 C1399 1.304 . S
C1394 O1432 1.435 . S
C1395 C1394 1.309 . S
C1395 C1396 1.476 . S
C1395 H1459 0.930 . S
C1396 C1395 1.476 . S
C1396 C1397 1.400 . S
C1396 C1400 1.567 . S
C1397 C1396 1.400 . S
C1397 C1398 1.373 . S
C1397 C1419 1.432 . S
C1398 C1397 1.373 . S
C1398 C1399 1.339 . S
C1398 C1401 1.530 . S
C1399 C1394 1.304 . S
C1399 C1398 1.339 . S
C1399 H1460 0.930 . S
C1400 C1396 1.567 . S
C1400 H1461 0.961 . S
C1400 H1462 0.960 . S
C1400 H1463 0.958 . S
C1401 C1398 1.530 . S
C1401 H1464 0.961 . S
C1401 H1465 0.960 . S
C1401 H1466 0.960 . S
C1402 C1403 1.530 . S
C1402 H1468 0.961 . S
C1402 H1469 0.961 . S
C1402 H1470 0.959 . S
C1403 C1402 1.530 . S
C1403 O1431 1.412 . S
C1403 H1467 0.980 . S
C1404 C1405 1.288 . S
C1404 C1409 1.377 . S
C1404 O1431 1.393 . S
C1405 C1404 1.288 . S
C1405 C1406 1.369 . S
C1405 H1471 0.932 . S
C1406 C1405 1.369 . S
C1406 C1407 1.398 . S
C1406 C1410 1.527 . S
C1407 C1406 1.398 . S
C1407 C1408 1.380 . S
C1407 C1421 1.497 . S
C1408 C1407 1.380 . S
C1408 C1409 1.383 . S
C1408 C1411 1.603 . S
C1409 C1404 1.377 . S
C1409 C1408 1.383 . S
C1409 H1472 0.929 . S
C1410 C1406 1.527 . S
C1410 H1473 0.961 . S
C1410 H1474 0.959 . S
C1410 H1475 0.959 . S
C1411 C1408 1.603 . S
C1411 H1476 0.960 . S
C1411 H1477 0.962 . S
C1411 H1478 0.961 . S
C1412 C1379 1.587 . S
C1412 C1413 1.360 . S
C1412 C1425 1.412 . S
C1413 C1412 1.360 . S
C1413 C1414 1.365 . S
C1413 H1479 0.929 . S
C1414 C1389 1.553 . S
C1414 C1413 1.365 . S
C1414 C1415 1.404 . S
C1415 C1414 1.404 . S
C1415 C1416 1.395 . S
C1415 C1426 1.451 . S
C1416 C1415 1.395 . S
C1416 C1417 1.322 . S
C1416 H1480 0.930 . S
C1417 C1416 1.322 . S
C1417 C1418 1.459 . S
C1417 H1481 0.929 . S
C1418 C1417 1.459 . S
C1418 C1419 1.445 . S
C1418 C1427 1.395 . S
C1419 C1397 1.432 . S
C1419 C1418 1.445 . S
C1419 C1420 1.370 . S
C1420 C1419 1.370 . S
C1420 C1421 1.438 . S
C1420 H1482 0.930 . S
C1421 C1407 1.497 . S
C1421 C1420 1.438 . S
C1421 C1422 1.360 . S
C1422 C1421 1.360 . S
C1422 C1423 1.401 . S
C1422 C1427 1.446 . S
C1423 C1422 1.401 . S
C1423 C1424 1.347 . S
C1423 H1483 0.929 . S
C1424 C1423 1.347 . S
C1424 C1425 1.455 . S
C1424 H1484 0.930 . S
C1425 C1412 1.412 . S
C1425 C1424 1.455 . S
C1425 C1426 1.331 . S
C1426 C1415 1.451 . S
C1426 C1425 1.331 . S
C1426 C1427 1.497 . S
C1427 C1418 1.395 . S
C1427 C1422 1.446 . S
C1427 C1426 1.497 . S
C1428 C1429 1.582 . S
C1428 H1485 0.962 . S
C1428 H1486 0.959 . S
C1428 H1487 0.958 . S
C1429 C1428 1.582 . S
C1429 O1432 1.458 . S
C1429 H1458 0.980 . S
O1430 C1375 1.426 . S
O1430 C1376 1.334 . S
O1431 C1403 1.412 . S
O1431 C1404 1.393 . S
O1432 C1394 1.435 . S
O1432 C1429 1.458 . S
O1433 C1385 1.468 . S
O1433 C1386 1.408 . S
H1434 C1375 0.980 . S
H1435 C1374 0.959 . S
H1436 C1374 0.959 . S
H1437 C1374 0.960 . S
H1438 C1377 0.929 . S
H1439 C1381 0.929 . S
H1440 C1382 0.959 . S
H1441 C1382 0.961 . S
H1442 C1382 0.961 . S
H1443 C1383 0.960 . S
H1444 C1383 0.960 . S
H1445 C1383 0.961 . S
H1446 C1385 0.980 . S
H1447 C1384 0.961 . S
H1448 C1384 0.960 . S
H1449 C1384 0.959 . S
H1450 C1387 0.930 . S
H1451 C1391 0.931 . S
H1452 C1392 0.959 . S
H1453 C1392 0.961 . S
H1454 C1392 0.959 . S
H1455 C1393 0.960 . S
H1456 C1393 0.960 . S
H1457 C1393 0.960 . S
H1458 C1429 0.980 . S
H1459 C1395 0.930 . S
H1460 C1399 0.930 . S
H1461 C1400 0.961 . S
H1462 C1400 0.960 . S
H1463 C1400 0.958 . S
H1464 C1401 0.961 . S
H1465 C1401 0.960 . S
H1466 C1401 0.960 . S
H1467 C1403 0.980 . S
H1468 C1402 0.961 . S
H1469 C1402 0.961 . S
H1470 C1402 0.959 . S
H1471 C1405 0.932 . S
H1472 C1409 0.929 . S
H1473 C1410 0.961 . S
H1474 C1410 0.959 . S
H1475 C1410 0.959 . S
H1476 C1411 0.960 . S
H1477 C1411 0.962 . S
H1478 C1411 0.961 . S
H1479 C1413 0.929 . S
H1480 C1416 0.930 . S
H1481 C1417 0.929 . S
H1482 C1420 0.930 . S
H1483 C1423 0.929 . S
H1484 C1424 0.930 . S
H1485 C1428 0.962 . S
H1486 C1428 0.959 . S
H1487 C1428 0.958 . S
C1488 C1489 1.560 . S
C1488 H1549 0.959 . S
C1488 H1550 0.959 . S
C1488 H1551 0.960 . S
C1489 C1488 1.560 . S
C1489 O1544 1.426 . S
C1489 H1548 0.980 . S
C1490 C1491 1.407 1_565 S
C1490 C1495 1.418 . S
C1490 O1544 1.334 . S
C1491 C1490 1.407 1_545 S
C1491 C1492 1.360 . S
C1491 H1552 0.929 . S
C1492 C1491 1.360 . S
C1492 C1493 1.401 1_545 S
C1492 C1496 1.527 . S
C1493 C1492 1.401 1_565 S
C1493 C1494 1.405 . S
C1493 C1526 1.587 1_565 S
C1494 C1493 1.405 . S
C1494 C1495 1.332 . S
C1494 C1497 1.496 . S
C1495 C1490 1.418 . S
C1495 C1494 1.332 . S
C1495 H1553 0.929 . S
C1496 C1492 1.527 . S
C1496 H1554 0.959 . S
C1496 H1555 0.961 . S
C1496 H1556 0.961 . S
C1497 C1494 1.496 . S
C1497 H1557 0.960 . S
C1497 H1558 0.960 . S
C1497 H1559 0.961 . S
C1498 C1499 1.517 . S
C1498 H1561 0.910 1_545 S
C1498 H1562 0.960 . S
C1498 H1563 0.959 . S
C1499 C1498 1.517 . S
C1499 O1547 1.468 . S
C1499 H1560 0.980 1_545 S
C1500 C1501 1.402 . S
C1500 C1505 1.367 . S
C1500 O1547 1.408 . S
C1501 C1500 1.402 . S
C1501 C1502 1.438 1_545 S
C1501 H1564 0.848 1_545 S
C1502 C1501 1.438 1_565 S
C1502 C1503 1.449 1_565 S
C1502 C1506 1.535 . S
C1503 C1502 1.449 1_545 S
C1503 C1504 1.384 . S
C1503 C1528 1.553 . S
C1504 C1503 1.384 . S
C1504 C1505 1.364 . S
C1504 C1507 1.450 . S
C1505 C1500 1.367 . S
C1505 C1504 1.364 . S
C1505 H1565 0.931 . S
C1506 C1502 1.535 . S
C1506 H1566 0.959 . S
C1506 H1567 0.961 . S
C1506 H1568 0.959 . S
C1507 C1504 1.450 . S
C1507 H1569 0.960 . S
C1507 H1570 0.960 . S
C1507 H1571 0.960 . S
C1508 C1509 1.309 . S
C1508 C1513 1.304 . S
C1508 O1546 1.435 . S
C1509 C1508 1.309 . S
C1509 C1510 1.491 1_545 S
C1509 H1573 0.930 1_545 S
C1510 C1509 1.491 1_565 S
C1510 C1511 1.351 1_565 S
C1510 C1514 1.601 . S
C1511 C1510 1.351 1_545 S
C1511 C1512 1.373 . S
C1511 C1533 1.432 . S
C1512 C1511 1.373 . S
C1512 C1513 1.339 . S
C1512 C1515 1.530 . S
C1513 C1508 1.304 . S
C1513 C1512 1.339 . S
C1513 H1574 0.930 . S
C1514 C1510 1.601 . S
C1514 H1575 0.961 . S
C1514 H1576 0.960 . S
C1514 H1577 0.958 . S
C1515 C1512 1.530 . S
C1515 H1578 0.961 . S
C1515 H1579 0.960 . S
C1515 H1580 0.960 . S
C1516 C1517 1.530 1_565 S
C1516 H1582 0.961 . S
C1516 H1583 0.961 . S
C1516 H1584 0.959 . S
C1517 C1516 1.530 1_545 S
C1517 O1545 1.412 1_545 S
C1517 H1581 0.980 . S
C1518 C1519 1.288 . S
C1518 C1523 1.377 1_565 S
C1518 O1545 1.393 . S
C1519 C1518 1.288 . S
C1519 C1520 1.369 . S
C1519 H1585 0.932 . S
C1520 C1519 1.369 . S
C1520 C1521 1.398 1_565 S
C1520 C1524 1.527 . S
C1521 C1520 1.398 1_545 S
C1521 C1522 1.380 . S
C1521 C1535 1.497 . S
C1522 C1521 1.380 . S
C1522 C1523 1.383 . S
C1522 C1525 1.603 . S
C1523 C1518 1.377 1_545 S
C1523 C1522 1.383 . S
C1523 H1586 0.929 . S
C1524 C1520 1.527 . S
C1524 H1587 0.961 . S
C1524 H1588 0.959 . S
C1524 H1589 0.959 . S
C1525 C1522 1.603 . S
C1525 H1590 0.960 . S
C1525 H1591 0.962 . S
C1525 H1592 0.961 . S
C1526 C1493 1.587 1_545 S
C1526 C1527 1.360 . S
C1526 C1539 1.412 . S
C1527 C1526 1.360 . S
C1527 C1528 1.365 . S
C1527 H1593 0.929 . S
C1528 C1503 1.553 . S
C1528 C1527 1.365 . S
C1528 C1529 1.404 . S
C1529 C1528 1.404 . S
C1529 C1530 1.395 . S
C1529 C1540 1.451 . S
C1530 C1529 1.395 . S
C1530 C1531 1.322 . S
C1530 H1594 0.930 . S
C1531 C1530 1.322 . S
C1531 C1532 1.459 . S
C1531 H1595 0.929 . S
C1532 C1531 1.459 . S
C1532 C1533 1.445 . S
C1532 C1541 1.395 . S
C1533 C1511 1.432 . S
C1533 C1532 1.445 . S
C1533 C1534 1.370 . S
C1534 C1533 1.370 . S
C1534 C1535 1.438 . S
C1534 H1596 0.930 . S
C1535 C1521 1.497 . S
C1535 C1534 1.438 . S
C1535 C1536 1.360 . S
C1536 C1535 1.360 . S
C1536 C1537 1.401 . S
C1536 C1541 1.446 . S
C1537 C1536 1.401 . S
C1537 C1538 1.347 . S
C1537 H1597 0.929 . S
C1538 C1537 1.347 . S
C1538 C1539 1.455 . S
C1538 H1598 0.930 . S
C1539 C1526 1.412 . S
C1539 C1538 1.455 . S
C1539 C1540 1.331 . S
C1540 C1529 1.451 . S
C1540 C1539 1.331 . S
C1540 C1541 1.497 . S
C1541 C1532 1.395 . S
C1541 C1536 1.446 . S
C1541 C1540 1.497 . S
C1542 C1543 1.582 . S
C1542 H1599 0.962 . S
C1542 H1600 0.959 . S
C1542 H1601 0.958 . S
C1543 C1542 1.582 . S
C1543 O1546 1.458 . S
C1543 H1572 0.980 . S
O1544 C1489 1.426 . S
O1544 C1490 1.334 . S
O1545 C1517 1.412 1_565 S
O1545 C1518 1.393 . S
O1546 C1508 1.435 . S
O1546 C1543 1.458 . S
O1547 C1499 1.468 . S
O1547 C1500 1.408 . S
H1548 C1489 0.980 . S
H1549 C1488 0.959 . S
H1550 C1488 0.959 . S
H1551 C1488 0.960 . S
H1552 C1491 0.929 . S
H1553 C1495 0.929 . S
H1554 C1496 0.959 . S
H1555 C1496 0.961 . S
H1556 C1496 0.961 . S
H1557 C1497 0.960 . S
H1558 C1497 0.960 . S
H1559 C1497 0.961 . S
H1560 C1499 0.980 1_565 S
H1561 C1498 0.910 1_565 S
H1562 C1498 0.960 . S
H1563 C1498 0.959 . S
H1564 C1501 0.848 1_565 S
H1565 C1505 0.931 . S
H1566 C1506 0.959 . S
H1567 C1506 0.961 . S
H1568 C1506 0.959 . S
H1569 C1507 0.960 . S
H1570 C1507 0.960 . S
H1571 C1507 0.960 . S
H1572 C1543 0.980 . S
H1573 C1509 0.930 1_565 S
H1574 C1513 0.930 . S
H1575 C1514 0.961 . S
H1576 C1514 0.960 . S
H1577 C1514 0.958 . S
H1578 C1515 0.961 . S
H1579 C1515 0.960 . S
H1580 C1515 0.960 . S
H1581 C1517 0.980 . S
H1582 C1516 0.961 . S
H1583 C1516 0.961 . S
H1584 C1516 0.959 . S
H1585 C1519 0.932 . S
H1586 C1523 0.929 . S
H1587 C1524 0.961 . S
H1588 C1524 0.959 . S
H1589 C1524 0.959 . S
H1590 C1525 0.960 . S
H1591 C1525 0.962 . S
H1592 C1525 0.961 . S
H1593 C1527 0.929 . S
H1594 C1530 0.930 . S
H1595 C1531 0.929 . S
H1596 C1534 0.930 . S
H1597 C1537 0.929 . S
H1598 C1538 0.930 . S
H1599 C1542 0.962 . S
H1600 C1542 0.959 . S
H1601 C1542 0.958 . S
C1602 C1603 1.560 . S
C1602 H1663 0.959 . S
C1602 H1664 0.959 . S
C1602 H1665 0.960 . S
C1603 C1602 1.560 . S
C1603 O1658 1.426 . S
C1603 H1662 0.980 1_565 S
C1604 C1605 1.407 1_565 S
C1604 C1609 1.418 . S
C1604 O1658 1.334 . S
C1605 C1604 1.407 1_545 S
C1605 C1606 1.360 . S
C1605 H1666 0.929 . S
C1606 C1605 1.360 . S
C1606 C1607 1.401 . S
C1606 C1610 1.527 . S
C1607 C1606 1.401 . S
C1607 C1608 1.405 1_545 S
C1607 C1640 1.587 . S
C1608 C1607 1.405 1_565 S
C1608 C1609 1.332 . S
C1608 C1611 1.496 . S
C1609 C1604 1.418 . S
C1609 C1608 1.332 . S
C1609 H1667 0.929 . S
C1610 C1606 1.527 . S
C1610 H1668 0.959 . S
C1610 H1669 0.961 . S
C1610 H1670 0.961 . S
C1611 C1608 1.496 . S
C1611 H1671 0.960 . S
C1611 H1672 0.960 . S
C1611 H1673 0.961 . S
C1612 C1613 1.517 . S
C1612 H1675 0.961 . S
C1612 H1676 0.960 . S
C1612 H1677 0.959 . S
C1613 C1612 1.517 . S
C1613 O1661 1.468 . S
C1613 H1674 0.980 . S
C1614 C1615 1.349 . S
C1614 C1619 1.367 . S
C1614 O1661 1.408 . S
C1615 C1614 1.349 . S
C1615 C1616 1.407 . S
C1615 H1678 0.929 1_545 S
C1616 C1615 1.407 . S
C1616 C1617 1.449 . S
C1616 C1620 1.535 1_545 S
C1617 C1616 1.449 . S
C1617 C1618 1.384 . S
C1617 C1642 1.553 . S
C1618 C1617 1.384 . S
C1618 C1619 1.364 . S
C1618 C1621 1.450 . S
C1619 C1614 1.367 . S
C1619 C1618 1.364 . S
C1619 H1679 0.931 . S
C1620 C1616 1.535 1_565 S
C1620 H1680 0.959 . S
C1620 H1681 0.961 . S
C1620 H1682 0.959 . S
C1621 C1618 1.450 . S
C1621 H1683 0.960 . S
C1621 H1684 0.960 . S
C1621 H1685 0.960 . S
C1622 C1623 1.309 1_545 S
C1622 C1627 1.304 . S
C1622 O1660 1.435 . S
C1623 C1622 1.309 1_565 S
C1623 C1624 1.476 . S
C1623 H1687 0.930 . S
C1624 C1623 1.476 . S
C1624 C1625 1.400 1_565 S
C1624 C1628 1.567 . S
C1625 C1624 1.400 1_545 S
C1625 C1626 1.373 . S
C1625 C1647 1.432 . S
C1626 C1625 1.373 . S
C1626 C1627 1.339 . S
C1626 C1629 1.530 . S
C1627 C1622 1.304 . S
C1627 C1626 1.339 . S
C1627 H1688 0.930 . S
C1628 C1624 1.567 . S
C1628 H1689 0.961 . S
C1628 H1690 0.960 . S
C1628 H1691 0.958 . S
C1629 C1626 1.530 . S
C1629 H1692 0.961 . S
C1629 H1693 0.960 . S
C1629 H1694 0.960 . S
C1630 C1631 1.530 . S
C1630 H1696 0.961 . S
C1630 H1697 0.961 . S
C1630 H1698 0.959 . S
C1631 C1630 1.530 . S
C1631 O1659 1.412 . S
C1631 H1695 0.992 . S
C1632 C1633 1.288 . S
C1632 C1637 1.377 1_565 S
C1632 O1659 1.393 . S
C1633 C1632 1.288 . S
C1633 C1634 1.369 . S
C1633 H1699 0.932 . S
C1634 C1633 1.369 . S
C1634 C1635 1.398 . S
C1634 C1638 1.527 . S
C1635 C1634 1.398 . S
C1635 C1636 1.380 1_565 S
C1635 C1649 1.497 1_565 S
C1636 C1635 1.380 1_545 S
C1636 C1637 1.383 . S
C1636 C1639 1.603 . S
C1637 C1632 1.377 1_545 S
C1637 C1636 1.383 . S
C1637 H1700 0.929 . S
C1638 C1634 1.527 . S
C1638 H1701 0.961 . S
C1638 H1702 0.959 . S
C1638 H1703 0.959 . S
C1639 C1636 1.603 . S
C1639 H1704 0.960 . S
C1639 H1705 0.962 . S
C1639 H1706 0.961 . S
C1640 C1607 1.587 . S
C1640 C1641 1.360 . S
C1640 C1653 1.412 . S
C1641 C1640 1.360 . S
C1641 C1642 1.365 . S
C1641 H1707 0.929 . S
C1642 C1617 1.553 . S
C1642 C1641 1.365 . S
C1642 C1643 1.404 . S
C1643 C1642 1.404 . S
C1643 C1644 1.395 . S
C1643 C1654 1.451 . S
C1644 C1643 1.395 . S
C1644 C1645 1.322 . S
C1644 H1708 0.930 . S
C1645 C1644 1.322 . S
C1645 C1646 1.459 . S
C1645 H1709 0.929 . S
C1646 C1645 1.459 . S
C1646 C1647 1.445 . S
C1646 C1655 1.395 . S
C1647 C1625 1.432 . S
C1647 C1646 1.445 . S
C1647 C1648 1.370 . S
C1648 C1647 1.370 . S
C1648 C1649 1.438 . S
C1648 H1710 0.930 . S
C1649 C1635 1.497 1_545 S
C1649 C1648 1.438 . S
C1649 C1650 1.360 . S
C1650 C1649 1.360 . S
C1650 C1651 1.401 . S
C1650 C1655 1.446 . S
C1651 C1650 1.401 . S
C1651 C1652 1.347 . S
C1651 H1711 0.969 . S
C1652 C1651 1.347 . S
C1652 C1653 1.455 . S
C1652 H1712 0.930 . S
C1653 C1640 1.412 . S
C1653 C1652 1.455 . S
C1653 C1654 1.331 . S
C1654 C1643 1.451 . S
C1654 C1653 1.331 . S
C1654 C1655 1.497 . S
C1655 C1646 1.395 . S
C1655 C1650 1.446 . S
C1655 C1654 1.497 . S
C1656 C1657 1.623 . S
C1656 H1713 0.962 . S
C1656 H1714 0.959 . S
C1656 H1715 0.958 . S
C1657 C1656 1.623 . S
C1657 O1660 1.475 . S
C1657 H1686 0.980 1_545 S
O1658 C1603 1.426 . S
O1658 C1604 1.334 . S
O1659 C1631 1.412 . S
O1659 C1632 1.393 . S
O1660 C1622 1.435 . S
O1660 C1657 1.475 . S
O1661 C1613 1.468 . S
O1661 C1614 1.408 . S
H1662 C1603 0.980 1_545 S
H1663 C1602 0.959 . S
H1664 C1602 0.959 . S
H1665 C1602 0.960 . S
H1666 C1605 0.929 . S
H1667 C1609 0.929 . S
H1668 C1610 0.959 . S
H1669 C1610 0.961 . S
H1670 C1610 0.961 . S
H1671 C1611 0.960 . S
H1672 C1611 0.960 . S
H1673 C1611 0.961 . S
H1674 C1613 0.980 . S
H1675 C1612 0.961 . S
H1676 C1612 0.960 . S
H1677 C1612 0.959 . S
H1678 C1615 0.929 1_565 S
H1679 C1619 0.931 . S
H1680 C1620 0.959 . S
H1681 C1620 0.961 . S
H1682 C1620 0.959 . S
H1683 C1621 0.960 . S
H1684 C1621 0.960 . S
H1685 C1621 0.960 . S
H1686 C1657 0.980 1_565 S
H1687 C1623 0.930 . S
H1688 C1627 0.930 . S
H1689 C1628 0.961 . S
H1690 C1628 0.960 . S
H1691 C1628 0.958 . S
H1692 C1629 0.961 . S
H1693 C1629 0.960 . S
H1694 C1629 0.960 . S
H1695 C1631 0.992 . S
H1696 C1630 0.961 . S
H1697 C1630 0.961 . S
H1698 C1630 0.959 . S
H1699 C1633 0.932 . S
H1700 C1637 0.929 . S
H1701 C1638 0.961 . S
H1702 C1638 0.959 . S
H1703 C1638 0.959 . S
H1704 C1639 0.960 . S
H1705 C1639 0.962 . S
H1706 C1639 0.961 . S
H1707 C1641 0.929 . S
H1708 C1644 0.930 . S
H1709 C1645 0.929 . S
H1710 C1648 0.930 . S
H1711 C1651 0.969 . S
H1712 C1652 0.930 . S
H1713 C1656 0.962 . S
H1714 C1656 0.959 . S
H1715 C1656 0.958 . S
C1716 C1717 1.560 . S
C1716 H1777 0.959 . S
C1716 H1778 0.959 . S
C1716 H1779 0.960 . S
C1717 C1716 1.560 . S
C1717 O1772 1.426 . S
C1717 H1776 0.980 1_455 S
C1718 C1719 1.407 1_455 S
C1718 C1723 1.418 . S
C1718 O1772 1.334 . S
C1719 C1718 1.407 1_655 S
C1719 C1720 1.360 . S
C1719 H1780 0.929 . S
C1720 C1719 1.360 . S
C1720 C1721 1.401 . S
C1720 C1724 1.527 . S
C1721 C1720 1.401 . S
C1721 C1722 1.405 1_655 S
C1721 C1754 1.587 . S
C1722 C1721 1.405 1_455 S
C1722 C1723 1.332 . S
C1722 C1725 1.496 . S
C1723 C1718 1.418 . S
C1723 C1722 1.332 . S
C1723 H1781 0.929 . S
C1724 C1720 1.527 . S
C1724 H1782 0.959 . S
C1724 H1783 0.961 . S
C1724 H1784 0.961 . S
C1725 C1722 1.496 . S
C1725 H1785 0.960 . S
C1725 H1786 0.960 . S
C1725 H1787 0.961 . S
C1726 C1727 1.517 . S
C1726 H1789 0.961 . S
C1726 H1790 0.960 . S
C1726 H1791 0.959 . S
C1727 C1726 1.517 . S
C1727 O1775 1.468 . S
C1727 H1788 0.980 . S
C1728 C1729 1.349 . S
C1728 C1733 1.367 . S
C1728 O1775 1.408 . S
C1729 C1728 1.349 . S
C1729 C1730 1.407 . S
C1729 H1792 0.921 1_655 S
C1730 C1729 1.407 . S
C1730 C1731 1.449 . S
C1730 C1734 1.535 1_655 S
C1731 C1730 1.449 . S
C1731 C1732 1.384 . S
C1731 C1756 1.553 . S
C1732 C1731 1.384 . S
C1732 C1733 1.364 . S
C1732 C1735 1.450 . S
C1733 C1728 1.367 . S
C1733 C1732 1.364 . S
C1733 H1793 0.931 . S
C1734 C1730 1.535 1_455 S
C1734 H1794 0.959 . S
C1734 H1795 0.961 . S
C1734 H1796 0.959 . S
C1735 C1732 1.450 . S
C1735 H1797 0.960 . S
C1735 H1798 0.960 . S
C1735 H1799 0.960 . S
C1736 C1737 1.309 1_655 S
C1736 C1741 1.304 . S
C1736 O1774 1.435 . S
C1737 C1736 1.309 1_455 S
C1737 C1738 1.476 . S
C1737 H1801 0.930 . S
C1738 C1737 1.476 . S
C1738 C1739 1.400 1_455 S
C1738 C1742 1.567 . S
C1739 C1738 1.400 1_655 S
C1739 C1740 1.373 . S
C1739 C1761 1.432 . S
C1740 C1739 1.373 . S
C1740 C1741 1.339 . S
C1740 C1743 1.530 . S
C1741 C1736 1.304 . S
C1741 C1740 1.339 . S
C1741 H1802 0.930 . S
C1742 C1738 1.567 . S
C1742 H1803 0.961 . S
C1742 H1804 0.960 . S
C1742 H1805 0.958 . S
C1743 C1740 1.530 . S
C1743 H1806 0.961 . S
C1743 H1807 0.960 . S
C1743 H1808 0.960 . S
C1744 C1745 1.530 . S
C1744 H1810 0.961 . S
C1744 H1811 0.961 . S
C1744 H1812 0.959 . S
C1745 C1744 1.530 . S
C1745 O1773 1.412 . S
C1745 H1809 0.983 . S
C1746 C1747 1.288 . S
C1746 C1751 1.377 1_455 S
C1746 O1773 1.393 . S
C1747 C1746 1.288 . S
C1747 C1748 1.369 . S
C1747 H1813 0.932 . S
C1748 C1747 1.369 . S
C1748 C1749 1.398 . S
C1748 C1752 1.527 . S
C1749 C1748 1.398 . S
C1749 C1750 1.380 1_455 S
C1749 C1763 1.497 1_455 S
C1750 C1749 1.380 1_655 S
C1750 C1751 1.383 . S
C1750 C1753 1.603 . S
C1751 C1746 1.377 1_655 S
C1751 C1750 1.383 . S
C1751 H1814 0.929 . S
C1752 C1748 1.527 . S
C1752 H1815 0.961 . S
C1752 H1816 0.959 . S
C1752 H1817 0.959 . S
C1753 C1750 1.603 . S
C1753 H1818 0.960 . S
C1753 H1819 0.962 . S
C1753 H1820 0.961 . S
C1754 C1721 1.587 . S
C1754 C1755 1.360 . S
C1754 C1767 1.412 . S
C1755 C1754 1.360 . S
C1755 C1756 1.365 . S
C1755 H1821 0.929 . S
C1756 C1731 1.553 . S
C1756 C1755 1.365 . S
C1756 C1757 1.404 . S
C1757 C1756 1.404 . S
C1757 C1758 1.395 . S
C1757 C1768 1.451 . S
C1758 C1757 1.395 . S
C1758 C1759 1.322 . S
C1758 H1822 0.930 . S
C1759 C1758 1.322 . S
C1759 C1760 1.459 . S
C1759 H1823 0.929 . S
C1760 C1759 1.459 . S
C1760 C1761 1.445 . S
C1760 C1769 1.395 . S
C1761 C1739 1.432 . S
C1761 C1760 1.445 . S
C1761 C1762 1.370 . S
C1762 C1761 1.370 . S
C1762 C1763 1.438 . S
C1762 H1824 0.930 . S
C1763 C1749 1.497 1_655 S
C1763 C1762 1.438 . S
C1763 C1764 1.360 . S
C1764 C1763 1.360 . S
C1764 C1765 1.401 . S
C1764 C1769 1.446 . S
C1765 C1764 1.401 . S
C1765 C1766 1.347 . S
C1765 H1825 0.911 . S
C1766 C1765 1.347 . S
C1766 C1767 1.455 . S
C1766 H1826 0.930 . S
C1767 C1754 1.412 . S
C1767 C1766 1.455 . S
C1767 C1768 1.331 . S
C1768 C1757 1.451 . S
C1768 C1767 1.331 . S
C1768 C1769 1.497 . S
C1769 C1760 1.395 . S
C1769 C1764 1.446 . S
C1769 C1768 1.497 . S
C1770 C1771 1.581 1_655 S
C1770 H1827 0.997 . S
C1770 H1828 0.959 . S
C1770 H1829 0.958 . S
C1771 C1770 1.581 1_455 S
C1771 O1774 1.442 1_455 S
C1771 H1800 0.986 . S
O1772 C1717 1.426 . S
O1772 C1718 1.334 . S
O1773 C1745 1.412 . S
O1773 C1746 1.393 . S
O1774 C1736 1.435 . S
O1774 C1771 1.442 1_655 S
O1775 C1727 1.468 . S
O1775 C1728 1.408 . S
H1776 C1717 0.980 1_655 S
H1777 C1716 0.959 . S
H1778 C1716 0.959 . S
H1779 C1716 0.960 . S
H1780 C1719 0.929 . S
H1781 C1723 0.929 . S
H1782 C1724 0.959 . S
H1783 C1724 0.961 . S
H1784 C1724 0.961 . S
H1785 C1725 0.960 . S
H1786 C1725 0.960 . S
H1787 C1725 0.961 . S
H1788 C1727 0.980 . S
H1789 C1726 0.961 . S
H1790 C1726 0.960 . S
H1791 C1726 0.959 . S
H1792 C1729 0.921 1_455 S
H1793 C1733 0.931 . S
H1794 C1734 0.959 . S
H1795 C1734 0.961 . S
H1796 C1734 0.959 . S
H1797 C1735 0.960 . S
H1798 C1735 0.960 . S
H1799 C1735 0.960 . S
H1800 C1771 0.986 . S
H1801 C1737 0.930 . S
H1802 C1741 0.930 . S
H1803 C1742 0.961 . S
H1804 C1742 0.960 . S
H1805 C1742 0.958 . S
H1806 C1743 0.961 . S
H1807 C1743 0.960 . S
H1808 C1743 0.960 . S
H1809 C1745 0.983 . S
H1810 C1744 0.961 . S
H1811 C1744 0.961 . S
H1812 C1744 0.959 . S
H1813 C1747 0.932 . S
H1814 C1751 0.929 . S
H1815 C1752 0.961 . S
H1816 C1752 0.959 . S
H1817 C1752 0.959 . S
H1818 C1753 0.960 . S
H1819 C1753 0.962 . S
H1820 C1753 0.961 . S
H1821 C1755 0.929 . S
H1822 C1758 0.930 . S
H1823 C1759 0.929 . S
H1824 C1762 0.930 . S
H1825 C1765 0.911 . S
H1826 C1766 0.930 . S
H1827 C1770 0.997 . S
H1828 C1770 0.959 . S
H1829 C1770 0.958 . S
C1830 C1831 1.560 . S
C1830 H1891 0.959 . S
C1830 H1892 0.959 . S
C1830 H1893 0.960 . S
C1831 C1830 1.560 . S
C1831 O1886 1.426 . S
C1831 H1890 0.980 . S
C1832 C1833 1.407 . S
C1832 C1837 1.418 . S
C1832 O1886 1.334 . S
C1833 C1832 1.407 . S
C1833 C1834 1.360 . S
C1833 H1894 0.929 . S
C1834 C1833 1.360 . S
C1834 C1835 1.401 . S
C1834 C1838 1.527 . S
C1835 C1834 1.401 . S
C1835 C1836 1.405 . S
C1835 C1868 1.587 . S
C1836 C1835 1.405 . S
C1836 C1837 1.332 . S
C1836 C1839 1.496 . S
C1837 C1832 1.418 . S
C1837 C1836 1.332 . S
C1837 H1895 0.929 . S
C1838 C1834 1.527 . S
C1838 H1896 0.959 . S
C1838 H1897 0.961 . S
C1838 H1898 0.961 . S
C1839 C1836 1.496 . S
C1839 H1899 0.960 . S
C1839 H1900 0.960 . S
C1839 H1901 0.961 . S
C1840 C1841 1.517 . S
C1840 H1903 0.961 . S
C1840 H1904 0.960 . S
C1840 H1905 0.959 . S
C1841 C1840 1.517 . S
C1841 O1889 1.468 . S
C1841 H1902 0.980 . S
C1842 C1843 1.349 . S
C1842 C1847 1.367 . S
C1842 O1889 1.408 . S
C1843 C1842 1.349 . S
C1843 C1844 1.407 . S
C1843 H1906 0.930 . S
C1844 C1843 1.407 . S
C1844 C1845 1.449 . S
C1844 C1848 1.535 . S
C1845 C1844 1.449 . S
C1845 C1846 1.384 . S
C1845 C1870 1.553 . S
C1846 C1845 1.384 . S
C1846 C1847 1.364 . S
C1846 C1849 1.450 . S
C1847 C1842 1.367 . S
C1847 C1846 1.364 . S
C1847 H1907 0.931 . S
C1848 C1844 1.535 . S
C1848 H1908 0.959 . S
C1848 H1909 0.961 . S
C1848 H1910 0.959 . S
C1849 C1846 1.450 . S
C1849 H1911 0.960 . S
C1849 H1912 0.960 . S
C1849 H1913 0.960 . S
C1850 C1851 1.309 . S
C1850 C1855 1.304 . S
C1850 O1888 1.435 . S
C1851 C1850 1.309 . S
C1851 C1852 1.476 . S
C1851 H1915 0.930 . S
C1852 C1851 1.476 . S
C1852 C1853 1.400 . S
C1852 C1856 1.567 . S
C1853 C1852 1.400 . S
C1853 C1854 1.373 . S
C1853 C1875 1.432 . S
C1854 C1853 1.373 . S
C1854 C1855 1.339 . S
C1854 C1857 1.530 . S
C1855 C1850 1.304 . S
C1855 C1854 1.339 . S
C1855 H1916 0.930 . S
C1856 C1852 1.567 . S
C1856 H1917 0.961 . S
C1856 H1918 0.960 . S
C1856 H1919 0.958 . S
C1857 C1854 1.530 . S
C1857 H1920 0.961 . S
C1857 H1921 0.960 . S
C1857 H1922 0.960 . S
C1858 C1859 1.530 . S
C1858 H1924 0.961 . S
C1858 H1925 0.961 . S
C1858 H1926 0.959 . S
C1859 C1858 1.530 . S
C1859 O1887 1.412 . S
C1859 H1923 0.980 . S
C1860 C1861 1.288 . S
C1860 C1865 1.377 . S
C1860 O1887 1.393 . S
C1861 C1860 1.288 . S
C1861 C1862 1.369 . S
C1861 H1927 0.932 . S
C1862 C1861 1.369 . S
C1862 C1863 1.398 . S
C1862 C1866 1.527 . S
C1863 C1862 1.398 . S
C1863 C1864 1.380 . S
C1863 C1877 1.497 . S
C1864 C1863 1.380 . S
C1864 C1865 1.383 . S
C1864 C1867 1.603 . S
C1865 C1860 1.377 . S
C1865 C1864 1.383 . S
C1865 H1928 0.929 . S
C1866 C1862 1.527 . S
C1866 H1929 0.961 . S
C1866 H1930 0.959 . S
C1866 H1931 0.959 . S
C1867 C1864 1.603 . S
C1867 H1932 0.960 . S
C1867 H1933 0.962 . S
C1867 H1934 0.961 . S
C1868 C1835 1.587 . S
C1868 C1869 1.360 . S
C1868 C1881 1.412 . S
C1869 C1868 1.360 . S
C1869 C1870 1.365 . S
C1869 H1935 0.929 . S
C1870 C1845 1.553 . S
C1870 C1869 1.365 . S
C1870 C1871 1.404 . S
C1871 C1870 1.404 . S
C1871 C1872 1.395 . S
C1871 C1882 1.451 . S
C1872 C1871 1.395 . S
C1872 C1873 1.322 . S
C1872 H1936 0.930 . S
C1873 C1872 1.322 . S
C1873 C1874 1.459 . S
C1873 H1937 0.929 . S
C1874 C1873 1.459 . S
C1874 C1875 1.445 . S
C1874 C1883 1.395 . S
C1875 C1853 1.432 . S
C1875 C1874 1.445 . S
C1875 C1876 1.370 . S
C1876 C1875 1.370 . S
C1876 C1877 1.438 . S
C1876 H1938 0.930 . S
C1877 C1863 1.497 . S
C1877 C1876 1.438 . S
C1877 C1878 1.360 . S
C1878 C1877 1.360 . S
C1878 C1879 1.401 . S
C1878 C1883 1.446 . S
C1879 C1878 1.401 . S
C1879 C1880 1.347 . S
C1879 H1939 0.929 . S
C1880 C1879 1.347 . S
C1880 C1881 1.455 . S
C1880 H1940 0.930 . S
C1881 C1868 1.412 . S
C1881 C1880 1.455 . S
C1881 C1882 1.331 . S
C1882 C1871 1.451 . S
C1882 C1881 1.331 . S
C1882 C1883 1.497 . S
C1883 C1874 1.395 . S
C1883 C1878 1.446 . S
C1883 C1882 1.497 . S
C1884 C1885 1.582 . S
C1884 H1941 0.962 . S
C1884 H1942 0.959 . S
C1884 H1943 0.958 . S
C1885 C1884 1.582 . S
C1885 O1888 1.458 . S
C1885 H1914 0.980 . S
O1886 C1831 1.426 . S
O1886 C1832 1.334 . S
O1887 C1859 1.412 . S
O1887 C1860 1.393 . S
O1888 C1850 1.435 . S
O1888 C1885 1.458 . S
O1889 C1841 1.468 . S
O1889 C1842 1.408 . S
H1890 C1831 0.980 . S
H1891 C1830 0.959 . S
H1892 C1830 0.959 . S
H1893 C1830 0.960 . S
H1894 C1833 0.929 . S
H1895 C1837 0.929 . S
H1896 C1838 0.959 . S
H1897 C1838 0.961 . S
H1898 C1838 0.961 . S
H1899 C1839 0.960 . S
H1900 C1839 0.960 . S
H1901 C1839 0.961 . S
H1902 C1841 0.980 . S
H1903 C1840 0.961 . S
H1904 C1840 0.960 . S
H1905 C1840 0.959 . S
H1906 C1843 0.930 . S
H1907 C1847 0.931 . S
H1908 C1848 0.959 . S
H1909 C1848 0.961 . S
H1910 C1848 0.959 . S
H1911 C1849 0.960 . S
H1912 C1849 0.960 . S
H1913 C1849 0.960 . S
H1914 C1885 0.980 . S
H1915 C1851 0.930 . S
H1916 C1855 0.930 . S
H1917 C1856 0.961 . S
H1918 C1856 0.960 . S
H1919 C1856 0.958 . S
H1920 C1857 0.961 . S
H1921 C1857 0.960 . S
H1922 C1857 0.960 . S
H1923 C1859 0.980 . S
H1924 C1858 0.961 . S
H1925 C1858 0.961 . S
H1926 C1858 0.959 . S
H1927 C1861 0.932 . S
H1928 C1865 0.929 . S
H1929 C1866 0.961 . S
H1930 C1866 0.959 . S
H1931 C1866 0.959 . S
H1932 C1867 0.960 . S
H1933 C1867 0.962 . S
H1934 C1867 0.961 . S
H1935 C1869 0.929 . S
H1936 C1872 0.930 . S
H1937 C1873 0.929 . S
H1938 C1876 0.930 . S
H1939 C1879 0.929 . S
H1940 C1880 0.930 . S
H1941 C1884 0.962 . S
H1942 C1884 0.959 . S
H1943 C1884 0.958 . S
C1944 C1945 1.560 . S
C1944 H2005 0.959 . S
C1944 H2006 0.959 . S
C1944 H2007 0.960 . S
C1945 C1944 1.560 . S
C1945 O2000 1.426 . S
C1945 H2004 0.980 . S
C1946 C1947 1.407 . S
C1946 C1951 1.418 . S
C1946 O2000 1.334 . S
C1947 C1946 1.407 . S
C1947 C1948 1.360 . S
C1947 H2008 0.929 . S
C1948 C1947 1.360 . S
C1948 C1949 1.401 . S
C1948 C1952 1.527 . S
C1949 C1948 1.401 . S
C1949 C1950 1.405 . S
C1949 C1982 1.587 . S
C1950 C1949 1.405 . S
C1950 C1951 1.332 . S
C1950 C1953 1.496 . S
C1951 C1946 1.418 . S
C1951 C1950 1.332 . S
C1951 H2009 0.929 . S
C1952 C1948 1.527 . S
C1952 H2010 0.959 . S
C1952 H2011 0.961 . S
C1952 H2012 0.961 . S
C1953 C1950 1.496 . S
C1953 H2013 0.960 . S
C1953 H2014 0.960 . S
C1953 H2015 0.961 . S
C1954 C1955 1.517 . S
C1954 H2017 0.961 . S
C1954 H2018 0.960 . S
C1954 H2019 0.959 . S
C1955 C1954 1.517 . S
C1955 O2003 1.468 . S
C1955 H2016 0.980 . S
C1956 C1957 1.349 . S
C1956 C1961 1.367 . S
C1956 O2003 1.408 . S
C1957 C1956 1.349 . S
C1957 C1958 1.407 . S
C1957 H2020 0.930 . S
C1958 C1957 1.407 . S
C1958 C1959 1.449 . S
C1958 C1962 1.535 . S
C1959 C1958 1.449 . S
C1959 C1960 1.384 . S
C1959 C1984 1.553 . S
C1960 C1959 1.384 . S
C1960 C1961 1.364 . S
C1960 C1963 1.450 . S
C1961 C1956 1.367 . S
C1961 C1960 1.364 . S
C1961 H2021 0.931 . S
C1962 C1958 1.535 . S
C1962 H2022 0.959 . S
C1962 H2023 0.961 . S
C1962 H2024 0.959 . S
C1963 C1960 1.450 . S
C1963 H2025 0.960 . S
C1963 H2026 0.960 . S
C1963 H2027 0.960 . S
C1964 C1965 1.309 . S
C1964 C1969 1.304 . S
C1964 O2002 1.435 . S
C1965 C1964 1.309 . S
C1965 C1966 1.476 . S
C1965 H2029 0.930 . S
C1966 C1965 1.476 . S
C1966 C1967 1.400 . S
C1966 C1970 1.567 . S
C1967 C1966 1.400 . S
C1967 C1968 1.373 . S
C1967 C1989 1.432 . S
C1968 C1967 1.373 . S
C1968 C1969 1.339 . S
C1968 C1971 1.530 . S
C1969 C1964 1.304 . S
C1969 C1968 1.339 . S
C1969 H2030 0.930 . S
C1970 C1966 1.567 . S
C1970 H2031 0.961 . S
C1970 H2032 0.960 . S
C1970 H2033 0.958 . S
C1971 C1968 1.530 . S
C1971 H2034 0.961 . S
C1971 H2035 0.960 . S
C1971 H2036 0.960 . S
C1972 C1973 1.530 . S
C1972 H2038 0.961 . S
C1972 H2039 0.961 . S
C1972 H2040 0.959 . S
C1973 C1972 1.530 . S
C1973 O2001 1.412 . S
C1973 H2037 0.980 . S
C1974 C1975 1.288 . S
C1974 C1979 1.377 . S
C1974 O2001 1.393 . S
C1975 C1974 1.288 . S
C1975 C1976 1.369 . S
C1975 H2041 0.932 . S
C1976 C1975 1.369 . S
C1976 C1977 1.398 . S
C1976 C1980 1.527 . S
C1977 C1976 1.398 . S
C1977 C1978 1.380 . S
C1977 C1991 1.497 . S
C1978 C1977 1.380 . S
C1978 C1979 1.383 . S
C1978 C1981 1.603 . S
C1979 C1974 1.377 . S
C1979 C1978 1.383 . S
C1979 H2042 0.929 . S
C1980 C1976 1.527 . S
C1980 H2043 0.961 . S
C1980 H2044 0.959 . S
C1980 H2045 0.959 . S
C1981 C1978 1.603 . S
C1981 H2046 0.960 . S
C1981 H2047 0.962 . S
C1981 H2048 0.961 . S
C1982 C1949 1.587 . S
C1982 C1983 1.360 . S
C1982 C1995 1.412 . S
C1983 C1982 1.360 . S
C1983 C1984 1.365 . S
C1983 H2049 0.929 . S
C1984 C1959 1.553 . S
C1984 C1983 1.365 . S
C1984 C1985 1.404 . S
C1985 C1984 1.404 . S
C1985 C1986 1.395 . S
C1985 C1996 1.451 . S
C1986 C1985 1.395 . S
C1986 C1987 1.322 . S
C1986 H2050 0.930 . S
C1987 C1986 1.322 . S
C1987 C1988 1.459 . S
C1987 H2051 0.929 . S
C1988 C1987 1.459 . S
C1988 C1989 1.445 . S
C1988 C1997 1.395 . S
C1989 C1967 1.432 . S
C1989 C1988 1.445 . S
C1989 C1990 1.370 . S
C1990 C1989 1.370 . S
C1990 C1991 1.438 . S
C1990 H2052 0.930 . S
C1991 C1977 1.497 . S
C1991 C1990 1.438 . S
C1991 C1992 1.360 . S
C1992 C1991 1.360 . S
C1992 C1993 1.401 . S
C1992 C1997 1.446 . S
C1993 C1992 1.401 . S
C1993 C1994 1.347 . S
C1993 H2053 0.929 . S
C1994 C1993 1.347 . S
C1994 C1995 1.455 . S
C1994 H2054 0.930 . S
C1995 C1982 1.412 . S
C1995 C1994 1.455 . S
C1995 C1996 1.331 . S
C1996 C1985 1.451 . S
C1996 C1995 1.331 . S
C1996 C1997 1.497 . S
C1997 C1988 1.395 . S
C1997 C1992 1.446 . S
C1997 C1996 1.497 . S
C1998 C1999 1.582 . S
C1998 H2055 0.962 . S
C1998 H2056 0.959 . S
C1998 H2057 0.958 . S
C1999 C1998 1.582 . S
C1999 O2002 1.458 . S
C1999 H2028 0.980 . S
O2000 C1945 1.426 . S
O2000 C1946 1.334 . S
O2001 C1973 1.412 . S
O2001 C1974 1.393 . S
O2002 C1964 1.435 . S
O2002 C1999 1.458 . S
O2003 C1955 1.468 . S
O2003 C1956 1.408 . S
H2004 C1945 0.980 . S
H2005 C1944 0.959 . S
H2006 C1944 0.959 . S
H2007 C1944 0.960 . S
H2008 C1947 0.929 . S
H2009 C1951 0.929 . S
H2010 C1952 0.959 . S
H2011 C1952 0.961 . S
H2012 C1952 0.961 . S
H2013 C1953 0.960 . S
H2014 C1953 0.960 . S
H2015 C1953 0.961 . S
H2016 C1955 0.980 . S
H2017 C1954 0.961 . S
H2018 C1954 0.960 . S
H2019 C1954 0.959 . S
H2020 C1957 0.930 . S
H2021 C1961 0.931 . S
H2022 C1962 0.959 . S
H2023 C1962 0.961 . S
H2024 C1962 0.959 . S
H2025 C1963 0.960 . S
H2026 C1963 0.960 . S
H2027 C1963 0.960 . S
H2028 C1999 0.980 . S
H2029 C1965 0.930 . S
H2030 C1969 0.930 . S
H2031 C1970 0.961 . S
H2032 C1970 0.960 . S
H2033 C1970 0.958 . S
H2034 C1971 0.961 . S
H2035 C1971 0.960 . S
H2036 C1971 0.960 . S
H2037 C1973 0.980 . S
H2038 C1972 0.961 . S
H2039 C1972 0.961 . S
H2040 C1972 0.959 . S
H2041 C1975 0.932 . S
H2042 C1979 0.929 . S
H2043 C1980 0.961 . S
H2044 C1980 0.959 . S
H2045 C1980 0.959 . S
H2046 C1981 0.960 . S
H2047 C1981 0.962 . S
H2048 C1981 0.961 . S
H2049 C1983 0.929 . S
H2050 C1986 0.930 . S
H2051 C1987 0.929 . S
H2052 C1990 0.930 . S
H2053 C1993 0.929 . S
H2054 C1994 0.930 . S
H2055 C1998 0.962 . S
H2056 C1998 0.959 . S
H2057 C1998 0.958 . S
C2058 C2059 1.560 . S
C2058 H2119 0.959 . S
C2058 H2120 0.959 . S
C2058 H2121 0.960 . S
C2059 C2058 1.560 . S
C2059 O2114 1.426 . S
C2059 H2118 0.980 . S
C2060 C2061 1.407 . S
C2060 C2065 1.418 . S
C2060 O2114 1.334 . S
C2061 C2060 1.407 . S
C2061 C2062 1.360 . S
C2061 H2122 0.929 . S
C2062 C2061 1.360 . S
C2062 C2063 1.401 . S
C2062 C2066 1.527 . S
C2063 C2062 1.401 . S
C2063 C2064 1.405 . S
C2063 C2096 1.587 . S
C2064 C2063 1.405 . S
C2064 C2065 1.332 . S
C2064 C2067 1.496 . S
C2065 C2060 1.418 . S
C2065 C2064 1.332 . S
C2065 H2123 0.929 . S
C2066 C2062 1.527 . S
C2066 H2124 0.959 . S
C2066 H2125 0.961 . S
C2066 H2126 0.961 . S
C2067 C2064 1.496 . S
C2067 H2127 0.960 . S
C2067 H2128 0.960 . S
C2067 H2129 0.961 . S
C2068 C2069 1.517 . S
C2068 H2131 0.961 . S
C2068 H2132 0.960 . S
C2068 H2133 0.959 . S
C2069 C2068 1.517 . S
C2069 O2117 1.468 . S
C2069 H2130 0.980 . S
C2070 C2071 1.349 . S
C2070 C2075 1.367 . S
C2070 O2117 1.408 . S
C2071 C2070 1.349 . S
C2071 C2072 1.407 . S
C2071 H2134 0.930 . S
C2072 C2071 1.407 . S
C2072 C2073 1.449 . S
C2072 C2076 1.535 . S
C2073 C2072 1.449 . S
C2073 C2074 1.384 . S
C2073 C2098 1.553 . S
C2074 C2073 1.384 . S
C2074 C2075 1.364 . S
C2074 C2077 1.450 . S
C2075 C2070 1.367 . S
C2075 C2074 1.364 . S
C2075 H2135 0.931 . S
C2076 C2072 1.535 . S
C2076 H2136 0.959 . S
C2076 H2137 0.961 . S
C2076 H2138 0.959 . S
C2077 C2074 1.450 . S
C2077 H2139 0.960 . S
C2077 H2140 0.960 . S
C2077 H2141 0.960 . S
C2078 C2079 1.309 . S
C2078 C2083 1.304 . S
C2078 O2116 1.435 . S
C2079 C2078 1.309 . S
C2079 C2080 1.476 . S
C2079 H2143 0.930 . S
C2080 C2079 1.476 . S
C2080 C2081 1.400 . S
C2080 C2084 1.567 . S
C2081 C2080 1.400 . S
C2081 C2082 1.373 . S
C2081 C2103 1.432 . S
C2082 C2081 1.373 . S
C2082 C2083 1.339 . S
C2082 C2085 1.530 . S
C2083 C2078 1.304 . S
C2083 C2082 1.339 . S
C2083 H2144 0.930 . S
C2084 C2080 1.567 . S
C2084 H2145 0.961 . S
C2084 H2146 0.960 . S
C2084 H2147 0.958 . S
C2085 C2082 1.530 . S
C2085 H2148 0.961 . S
C2085 H2149 0.960 . S
C2085 H2150 0.960 . S
C2086 C2087 1.530 . S
C2086 H2152 0.961 . S
C2086 H2153 0.961 . S
C2086 H2154 0.959 . S
C2087 C2086 1.530 . S
C2087 O2115 1.412 . S
C2087 H2151 0.980 . S
C2088 C2089 1.288 . S
C2088 C2093 1.377 . S
C2088 O2115 1.393 . S
C2089 C2088 1.288 . S
C2089 C2090 1.369 . S
C2089 H2155 0.932 . S
C2090 C2089 1.369 . S
C2090 C2091 1.398 . S
C2090 C2094 1.527 . S
C2091 C2090 1.398 . S
C2091 C2092 1.380 . S
C2091 C2105 1.497 . S
C2092 C2091 1.380 . S
C2092 C2093 1.383 . S
C2092 C2095 1.603 . S
C2093 C2088 1.377 . S
C2093 C2092 1.383 . S
C2093 H2156 0.929 . S
C2094 C2090 1.527 . S
C2094 H2157 0.961 . S
C2094 H2158 0.959 . S
C2094 H2159 0.959 . S
C2095 C2092 1.603 . S
C2095 H2160 0.960 . S
C2095 H2161 0.962 . S
C2095 H2162 0.961 . S
C2096 C2063 1.587 . S
C2096 C2097 1.360 . S
C2096 C2109 1.412 . S
C2097 C2096 1.360 . S
C2097 C2098 1.365 . S
C2097 H2163 0.929 . S
C2098 C2073 1.553 . S
C2098 C2097 1.365 . S
C2098 C2099 1.404 . S
C2099 C2098 1.404 . S
C2099 C2100 1.395 . S
C2099 C2110 1.451 . S
C2100 C2099 1.395 . S
C2100 C2101 1.322 . S
C2100 H2164 0.930 . S
C2101 C2100 1.322 . S
C2101 C2102 1.459 . S
C2101 H2165 0.929 . S
C2102 C2101 1.459 . S
C2102 C2103 1.445 . S
C2102 C2111 1.395 . S
C2103 C2081 1.432 . S
C2103 C2102 1.445 . S
C2103 C2104 1.370 . S
C2104 C2103 1.370 . S
C2104 C2105 1.438 . S
C2104 H2166 0.930 . S
C2105 C2091 1.497 . S
C2105 C2104 1.438 . S
C2105 C2106 1.360 . S
C2106 C2105 1.360 . S
C2106 C2107 1.401 . S
C2106 C2111 1.446 . S
C2107 C2106 1.401 . S
C2107 C2108 1.347 . S
C2107 H2167 0.929 . S
C2108 C2107 1.347 . S
C2108 C2109 1.455 . S
C2108 H2168 0.930 . S
C2109 C2096 1.412 . S
C2109 C2108 1.455 . S
C2109 C2110 1.331 . S
C2110 C2099 1.451 . S
C2110 C2109 1.331 . S
C2110 C2111 1.497 . S
C2111 C2102 1.395 . S
C2111 C2106 1.446 . S
C2111 C2110 1.497 . S
C2112 C2113 1.582 . S
C2112 H2169 0.962 . S
C2112 H2170 0.959 . S
C2112 H2171 0.958 . S
C2113 C2112 1.582 . S
C2113 O2116 1.458 . S
C2113 H2142 0.980 . S
O2114 C2059 1.426 . S
O2114 C2060 1.334 . S
O2115 C2087 1.412 . S
O2115 C2088 1.393 . S
O2116 C2078 1.435 . S
O2116 C2113 1.458 . S
O2117 C2069 1.468 . S
O2117 C2070 1.408 . S
H2118 C2059 0.980 . S
H2119 C2058 0.959 . S
H2120 C2058 0.959 . S
H2121 C2058 0.960 . S
H2122 C2061 0.929 . S
H2123 C2065 0.929 . S
H2124 C2066 0.959 . S
H2125 C2066 0.961 . S
H2126 C2066 0.961 . S
H2127 C2067 0.960 . S
H2128 C2067 0.960 . S
H2129 C2067 0.961 . S
H2130 C2069 0.980 . S
H2131 C2068 0.961 . S
H2132 C2068 0.960 . S
H2133 C2068 0.959 . S
H2134 C2071 0.930 . S
H2135 C2075 0.931 . S
H2136 C2076 0.959 . S
H2137 C2076 0.961 . S
H2138 C2076 0.959 . S
H2139 C2077 0.960 . S
H2140 C2077 0.960 . S
H2141 C2077 0.960 . S
H2142 C2113 0.980 . S
H2143 C2079 0.930 . S
H2144 C2083 0.930 . S
H2145 C2084 0.961 . S
H2146 C2084 0.960 . S
H2147 C2084 0.958 . S
H2148 C2085 0.961 . S
H2149 C2085 0.960 . S
H2150 C2085 0.960 . S
H2151 C2087 0.980 . S
H2152 C2086 0.961 . S
H2153 C2086 0.961 . S
H2154 C2086 0.959 . S
H2155 C2089 0.932 . S
H2156 C2093 0.929 . S
H2157 C2094 0.961 . S
H2158 C2094 0.959 . S
H2159 C2094 0.959 . S
H2160 C2095 0.960 . S
H2161 C2095 0.962 . S
H2162 C2095 0.961 . S
H2163 C2097 0.929 . S
H2164 C2100 0.930 . S
H2165 C2101 0.929 . S
H2166 C2104 0.930 . S
H2167 C2107 0.929 . S
H2168 C2108 0.930 . S
H2169 C2112 0.962 . S
H2170 C2112 0.959 . S
H2171 C2112 0.958 . S
C2172 C2173 1.560 . S
C2172 H2233 0.959 . S
C2172 H2234 0.959 . S
C2172 H2235 0.960 . S
C2173 C2172 1.560 . S
C2173 O2228 1.426 . S
C2173 H2232 0.980 . S
C2174 C2175 1.407 . S
C2174 C2179 1.418 . S
C2174 O2228 1.334 . S
C2175 C2174 1.407 . S
C2175 C2176 1.360 . S
C2175 H2236 0.929 . S
C2176 C2175 1.360 . S
C2176 C2177 1.401 . S
C2176 C2180 1.527 . S
C2177 C2176 1.401 . S
C2177 C2178 1.405 . S
C2177 C2210 1.587 . S
C2178 C2177 1.405 . S
C2178 C2179 1.332 . S
C2178 C2181 1.496 . S
C2179 C2174 1.418 . S
C2179 C2178 1.332 . S
C2179 H2237 0.929 . S
C2180 C2176 1.527 . S
C2180 H2238 0.959 . S
C2180 H2239 0.961 . S
C2180 H2240 0.961 . S
C2181 C2178 1.496 . S
C2181 H2241 0.960 . S
C2181 H2242 0.960 . S
C2181 H2243 0.961 . S
C2182 C2183 1.517 . S
C2182 H2245 0.961 . S
C2182 H2246 0.960 . S
C2182 H2247 0.959 . S
C2183 C2182 1.517 . S
C2183 O2231 1.468 . S
C2183 H2244 0.980 . S
C2184 C2185 1.349 . S
C2184 C2189 1.367 . S
C2184 O2231 1.408 . S
C2185 C2184 1.349 . S
C2185 C2186 1.407 . S
C2185 H2248 0.930 . S
C2186 C2185 1.407 . S
C2186 C2187 1.449 . S
C2186 C2190 1.535 . S
C2187 C2186 1.449 . S
C2187 C2188 1.384 . S
C2187 C2212 1.553 . S
C2188 C2187 1.384 . S
C2188 C2189 1.364 . S
C2188 C2191 1.450 . S
C2189 C2184 1.367 . S
C2189 C2188 1.364 . S
C2189 H2249 0.931 . S
C2190 C2186 1.535 . S
C2190 H2250 0.959 . S
C2190 H2251 0.961 . S
C2190 H2252 0.959 . S
C2191 C2188 1.450 . S
C2191 H2253 0.960 . S
C2191 H2254 0.960 . S
C2191 H2255 0.960 . S
C2192 C2193 1.309 . S
C2192 C2197 1.304 . S
C2192 O2230 1.435 . S
C2193 C2192 1.309 . S
C2193 C2194 1.476 . S
C2193 H2257 0.930 . S
C2194 C2193 1.476 . S
C2194 C2195 1.400 . S
C2194 C2198 1.567 . S
C2195 C2194 1.400 . S
C2195 C2196 1.373 . S
C2195 C2217 1.432 . S
C2196 C2195 1.373 . S
C2196 C2197 1.339 . S
C2196 C2199 1.530 . S
C2197 C2192 1.304 . S
C2197 C2196 1.339 . S
C2197 H2258 0.930 . S
C2198 C2194 1.567 . S
C2198 H2259 0.961 . S
C2198 H2260 0.960 . S
C2198 H2261 0.958 . S
C2199 C2196 1.530 . S
C2199 H2262 0.961 . S
C2199 H2263 0.960 . S
C2199 H2264 0.960 . S
C2200 C2201 1.530 . S
C2200 H2266 0.961 . S
C2200 H2267 0.961 . S
C2200 H2268 0.959 . S
C2201 C2200 1.530 . S
C2201 O2229 1.412 . S
C2201 H2265 0.980 . S
C2202 C2203 1.288 . S
C2202 C2207 1.377 . S
C2202 O2229 1.393 . S
C2203 C2202 1.288 . S
C2203 C2204 1.369 . S
C2203 H2269 0.932 . S
C2204 C2203 1.369 . S
C2204 C2205 1.398 . S
C2204 C2208 1.527 . S
C2205 C2204 1.398 . S
C2205 C2206 1.380 . S
C2205 C2219 1.497 . S
C2206 C2205 1.380 . S
C2206 C2207 1.383 . S
C2206 C2209 1.603 . S
C2207 C2202 1.377 . S
C2207 C2206 1.383 . S
C2207 H2270 0.929 . S
C2208 C2204 1.527 . S
C2208 H2271 0.961 . S
C2208 H2272 0.959 . S
C2208 H2273 0.959 . S
C2209 C2206 1.603 . S
C2209 H2274 0.960 . S
C2209 H2275 0.962 . S
C2209 H2276 0.961 . S
C2210 C2177 1.587 . S
C2210 C2211 1.360 . S
C2210 C2223 1.412 . S
C2211 C2210 1.360 . S
C2211 C2212 1.365 . S
C2211 H2277 0.929 . S
C2212 C2187 1.553 . S
C2212 C2211 1.365 . S
C2212 C2213 1.404 . S
C2213 C2212 1.404 . S
C2213 C2214 1.395 . S
C2213 C2224 1.451 . S
C2214 C2213 1.395 . S
C2214 C2215 1.322 . S
C2214 H2278 0.930 . S
C2215 C2214 1.322 . S
C2215 C2216 1.459 . S
C2215 H2279 0.929 . S
C2216 C2215 1.459 . S
C2216 C2217 1.445 . S
C2216 C2225 1.395 . S
C2217 C2195 1.432 . S
C2217 C2216 1.445 . S
C2217 C2218 1.370 . S
C2218 C2217 1.370 . S
C2218 C2219 1.438 . S
C2218 H2280 0.930 . S
C2219 C2205 1.497 . S
C2219 C2218 1.438 . S
C2219 C2220 1.360 . S
C2220 C2219 1.360 . S
C2220 C2221 1.401 . S
C2220 C2225 1.446 . S
C2221 C2220 1.401 . S
C2221 C2222 1.347 . S
C2221 H2281 0.929 . S
C2222 C2221 1.347 . S
C2222 C2223 1.455 . S
C2222 H2282 0.930 . S
C2223 C2210 1.412 . S
C2223 C2222 1.455 . S
C2223 C2224 1.331 . S
C2224 C2213 1.451 . S
C2224 C2223 1.331 . S
C2224 C2225 1.497 . S
C2225 C2216 1.395 . S
C2225 C2220 1.446 . S
C2225 C2224 1.497 . S
C2226 C2227 1.582 . S
C2226 H2283 0.962 . S
C2226 H2284 0.959 . S
C2226 H2285 0.958 . S
C2227 C2226 1.582 . S
C2227 O2230 1.458 . S
C2227 H2256 0.980 . S
O2228 C2173 1.426 . S
O2228 C2174 1.334 . S
O2229 C2201 1.412 . S
O2229 C2202 1.393 . S
O2230 C2192 1.435 . S
O2230 C2227 1.458 . S
O2231 C2183 1.468 . S
O2231 C2184 1.408 . S
H2232 C2173 0.980 . S
H2233 C2172 0.959 . S
H2234 C2172 0.959 . S
H2235 C2172 0.960 . S
H2236 C2175 0.929 . S
H2237 C2179 0.929 . S
H2238 C2180 0.959 . S
H2239 C2180 0.961 . S
H2240 C2180 0.961 . S
H2241 C2181 0.960 . S
H2242 C2181 0.960 . S
H2243 C2181 0.961 . S
H2244 C2183 0.980 . S
H2245 C2182 0.961 . S
H2246 C2182 0.960 . S
H2247 C2182 0.959 . S
H2248 C2185 0.930 . S
H2249 C2189 0.931 . S
H2250 C2190 0.959 . S
H2251 C2190 0.961 . S
H2252 C2190 0.959 . S
H2253 C2191 0.960 . S
H2254 C2191 0.960 . S
H2255 C2191 0.960 . S
H2256 C2227 0.980 . S
H2257 C2193 0.930 . S
H2258 C2197 0.930 . S
H2259 C2198 0.961 . S
H2260 C2198 0.960 . S
H2261 C2198 0.958 . S
H2262 C2199 0.961 . S
H2263 C2199 0.960 . S
H2264 C2199 0.960 . S
H2265 C2201 0.980 . S
H2266 C2200 0.961 . S
H2267 C2200 0.961 . S
H2268 C2200 0.959 . S
H2269 C2203 0.932 . S
H2270 C2207 0.929 . S
H2271 C2208 0.961 . S
H2272 C2208 0.959 . S
H2273 C2208 0.959 . S
H2274 C2209 0.960 . S
H2275 C2209 0.962 . S
H2276 C2209 0.961 . S
H2277 C2211 0.929 . S
H2278 C2214 0.930 . S
H2279 C2215 0.929 . S
H2280 C2218 0.930 . S
H2281 C2221 0.929 . S
H2282 C2222 0.930 . S
H2283 C2226 0.962 . S
H2284 C2226 0.959 . S
H2285 C2226 0.958 . S
C2286 C2287 1.312 1_455 S
C2286 C2288 1.327 . S
C2286 H2311 0.950 . S
C2287 C2286 1.312 1_655 S
C2287 C2303 1.413 . S
C2288 C2286 1.327 . S
C2288 C2307 1.429 1_455 S
C2288 H2312 0.950 . S
C2289 C2306 1.574 . S
C2289 C2308 1.368 . S
C2289 H2313 0.949 . S
H2290 C2294 0.949 . S
C2291 C2292 1.349 . S
C2291 C2293 1.327 . S
C2291 H2314 0.950 . S
C2292 C2291 1.349 . S
C2292 C2304 1.349 1_655 S
C2293 C2291 1.327 . S
C2293 C2309 1.429 . S
C2293 H2315 0.950 . S
C2294 H2290 0.949 . S
C2294 C2302 1.574 . S
C2294 C2310 1.368 1_455 S
H2295 C2303 0.950 . S
H2296 C2301 0.950 . S
H2297 C2302 0.949 . S
H2298 C2304 0.950 . S
H2299 C2305 0.950 . S
H2300 C2306 0.949 . S
C2301 H2296 0.950 . S
C2301 C2303 1.327 . S
C2301 C2307 1.429 . S
C2302 C2294 1.574 . S
C2302 H2297 0.949 . S
C2302 C2308 1.368 1_455 S
C2303 C2287 1.413 . S
C2303 H2295 0.950 . S
C2303 C2301 1.327 . S
C2304 C2292 1.349 1_455 S
C2304 H2298 0.950 . S
C2304 C2305 1.327 . S
C2305 H2299 0.950 . S
C2305 C2304 1.327 . S
C2305 C2309 1.429 1_455 S
C2306 C2289 1.574 . S
C2306 H2300 0.949 . S
C2306 C2310 1.368 . S
C2307 C2288 1.429 1_655 S
C2307 C2301 1.429 . S
C2307 C2308 1.523 . S
C2308 C2289 1.368 . S
C2308 C2302 1.368 1_655 S
C2308 C2307 1.523 . S
C2309 C2293 1.429 . S
C2309 C2305 1.429 1_655 S
C2309 C2310 1.523 . S
C2310 C2294 1.368 1_655 S
C2310 C2306 1.368 . S
C2310 C2309 1.523 . S
H2311 C2286 0.950 . S
H2312 C2288 0.950 . S
H2313 C2289 0.949 . S
H2314 C2291 0.950 . S
H2315 C2293 0.950 . S
C2316 C2317 1.349 . S
C2316 C2318 1.327 . S
C2316 H2341 0.950 . S
C2317 C2316 1.349 . S
C2317 C2333 1.349 . S
C2318 C2316 1.327 . S
C2318 C2337 1.429 . S
C2318 H2342 0.950 . S
C2319 C2336 1.574 . S
C2319 C2338 1.368 . S
C2319 H2343 0.949 . S
H2320 C2324 0.949 . S
C2321 C2322 1.349 . S
C2321 C2323 1.327 . S
C2321 H2344 0.950 . S
C2322 C2321 1.349 . S
C2322 C2334 1.349 . S
C2323 C2321 1.327 . S
C2323 C2339 1.429 . S
C2323 H2345 0.950 . S
C2324 H2320 0.949 . S
C2324 C2332 1.574 . S
C2324 C2340 1.368 . S
H2325 C2333 0.950 . S
H2326 C2331 0.950 . S
H2327 C2332 0.949 . S
H2328 C2334 0.950 . S
H2329 C2335 0.950 . S
H2330 C2336 0.949 . S
C2331 H2326 0.950 . S
C2331 C2333 1.327 . S
C2331 C2337 1.429 . S
C2332 C2324 1.574 . S
C2332 H2327 0.949 . S
C2332 C2338 1.368 . S
C2333 C2317 1.349 . S
C2333 H2325 0.950 . S
C2333 C2331 1.327 . S
C2334 C2322 1.349 . S
C2334 H2328 0.950 . S
C2334 C2335 1.327 . S
C2335 H2329 0.950 . S
C2335 C2334 1.327 . S
C2335 C2339 1.429 . S
C2336 C2319 1.574 . S
C2336 H2330 0.949 . S
C2336 C2340 1.368 . S
C2337 C2318 1.429 . S
C2337 C2331 1.429 . S
C2337 C2338 1.523 . S
C2338 C2319 1.368 . S
C2338 C2332 1.368 . S
C2338 C2337 1.523 . S
C2339 C2323 1.429 . S
C2339 C2335 1.429 . S
C2339 C2340 1.523 . S
C2340 C2324 1.368 . S
C2340 C2336 1.368 . S
C2340 C2339 1.523 . S
H2341 C2316 0.950 . S
H2342 C2318 0.950 . S
H2343 C2319 0.949 . S
H2344 C2321 0.950 . S
H2345 C2323 0.950 . S
C2346 C2347 1.349 . S
C2346 C2348 1.327 . S
C2346 H2371 0.950 . S
C2347 C2346 1.349 . S
C2347 C2363 1.349 1_545 S
C2348 C2346 1.327 . S
C2348 C2367 1.429 . S
C2348 H2372 0.950 . S
C2349 C2366 1.574 . S
C2349 C2368 1.368 1_565 S
C2349 H2373 0.949 . S
H2350 C2354 0.949 . S
C2351 C2352 1.349 1_565 S
C2351 C2353 1.327 . S
C2351 H2374 0.950 . S
C2352 C2351 1.349 1_545 S
C2352 C2364 1.349 . S
C2353 C2351 1.327 . S
C2353 C2369 1.429 1_565 S
C2353 H2375 0.950 . S
C2354 H2350 0.949 . S
C2354 C2362 1.574 . S
C2354 C2370 1.368 . S
H2355 C2363 0.950 . S
H2356 C2361 0.950 . S
H2357 C2362 0.949 . S
H2358 C2364 0.950 . S
H2359 C2365 0.950 . S
H2360 C2366 0.949 . S
C2361 H2356 0.950 . S
C2361 C2363 1.327 . S
C2361 C2367 1.429 1_565 S
C2362 C2354 1.574 . S
C2362 H2357 0.949 . S
C2362 C2368 1.368 . S
C2363 C2347 1.349 1_565 S
C2363 H2355 0.950 . S
C2363 C2361 1.327 . S
C2364 C2352 1.349 . S
C2364 H2358 0.950 . S
C2364 C2365 1.327 . S
C2365 H2359 0.950 . S
C2365 C2364 1.327 . S
C2365 C2369 1.429 . S
C2366 C2349 1.574 . S
C2366 H2360 0.949 . S
C2366 C2370 1.368 1_565 S
C2367 C2348 1.429 . S
C2367 C2361 1.429 1_545 S
C2367 C2368 1.523 . S
C2368 C2349 1.368 1_545 S
C2368 C2362 1.368 . S
C2368 C2367 1.523 . S
C2369 C2353 1.429 1_545 S
C2369 C2365 1.429 . S
C2369 C2370 1.523 . S
C2370 C2354 1.368 . S
C2370 C2366 1.368 1_545 S
C2370 C2369 1.523 . S
H2371 C2346 0.950 . S
H2372 C2348 0.950 . S
H2373 C2349 0.949 . S
H2374 C2351 0.950 . S
H2375 C2353 0.950 . S
C2376 C2377 1.349 1_545 S
C2376 C2378 1.327 . S
C2376 H2401 0.950 . S
C2377 C2376 1.349 1_565 S
C2377 C2393 1.349 . S
C2378 C2376 1.327 . S
C2378 C2397 1.429 1_545 S
C2378 H2402 0.950 . S
C2379 C2396 1.574 . S
C2379 C2398 1.368 . S
C2379 H2403 0.949 . S
H2380 C2384 0.949 . S
C2381 C2382 1.349 . S
C2381 C2383 1.327 . S
C2381 H2404 0.950 . S
C2382 C2381 1.349 . S
C2382 C2394 1.349 1_565 S
C2383 C2381 1.327 . S
C2383 C2399 1.429 . S
C2383 H2405 0.950 . S
C2384 H2380 0.949 . S
C2384 C2392 1.574 . S
C2384 C2400 1.368 1_545 S
H2385 C2393 0.950 . S
H2386 C2391 0.950 . S
H2387 C2392 0.949 . S
H2388 C2394 0.950 . S
H2389 C2395 0.950 . S
H2390 C2396 0.949 . S
C2391 H2386 0.950 . S
C2391 C2393 1.327 . S
C2391 C2397 1.429 . S
C2392 C2384 1.574 . S
C2392 H2387 0.949 . S
C2392 C2398 1.368 1_545 S
C2393 C2377 1.349 . S
C2393 H2385 0.950 . S
C2393 C2391 1.327 . S
C2394 C2382 1.349 1_545 S
C2394 H2388 0.950 . S
C2394 C2395 1.327 . S
C2395 H2389 0.950 . S
C2395 C2394 1.327 . S
C2395 C2399 1.429 1_545 S
C2396 C2379 1.574 . S
C2396 H2390 0.949 . S
C2396 C2400 1.368 . S
C2397 C2378 1.429 1_565 S
C2397 C2391 1.429 . S
C2397 C2398 1.523 . S
C2398 C2379 1.368 . S
C2398 C2392 1.368 1_565 S
C2398 C2397 1.523 . S
C2399 C2383 1.429 . S
C2399 C2395 1.429 1_565 S
C2399 C2400 1.523 . S
C2400 C2384 1.368 1_565 S
C2400 C2396 1.368 . S
C2400 C2399 1.523 . S
H2401 C2376 0.950 . S
H2402 C2378 0.950 . S
H2403 C2379 0.949 . S
H2404 C2381 0.950 . S
H2405 C2383 0.950 . S
C2406 C2407 1.349 1_655 S
C2406 C2408 1.327 . S
C2406 H2431 0.950 . S
C2407 C2406 1.349 1_455 S
C2407 C2423 1.349 . S
C2408 C2406 1.327 . S
C2408 C2427 1.429 1_655 S
C2408 H2432 0.950 . S
C2409 C2426 1.574 . S
C2409 C2428 1.368 . S
C2409 H2433 0.949 . S
H2410 C2414 0.949 . S
C2411 C2412 1.349 . S
C2411 C2413 1.327 . S
C2411 H2434 0.950 . S
C2412 C2411 1.349 . S
C2412 C2424 1.349 1_455 S
C2413 C2411 1.327 . S
C2413 C2429 1.429 . S
C2413 H2435 0.950 . S
C2414 H2410 0.949 . S
C2414 C2422 1.574 . S
C2414 C2430 1.368 1_655 S
H2415 C2423 0.950 . S
H2416 C2421 0.950 . S
H2417 C2422 0.949 . S
H2418 C2424 0.950 . S
H2419 C2425 0.950 . S
H2420 C2426 0.949 . S
C2421 H2416 0.950 . S
C2421 C2423 1.327 . S
C2421 C2427 1.429 . S
C2422 C2414 1.574 . S
C2422 H2417 0.949 . S
C2422 C2428 1.368 1_655 S
C2423 C2407 1.349 . S
C2423 H2415 0.950 . S
C2423 C2421 1.327 . S
C2424 C2412 1.349 1_655 S
C2424 H2418 0.950 . S
C2424 C2425 1.327 . S
C2425 H2419 0.950 . S
C2425 C2424 1.327 . S
C2425 C2429 1.429 1_655 S
C2426 C2409 1.574 . S
C2426 H2420 0.949 . S
C2426 C2430 1.368 . S
C2427 C2408 1.429 1_455 S
C2427 C2421 1.429 . S
C2427 C2428 1.523 . S
C2428 C2409 1.368 . S
C2428 C2422 1.368 1_455 S
C2428 C2427 1.523 . S
C2429 C2413 1.429 . S
C2429 C2425 1.429 1_455 S
C2429 C2430 1.523 . S
C2430 C2414 1.368 1_455 S
C2430 C2426 1.368 . S
C2430 C2429 1.523 . S
H2431 C2406 0.950 . S
H2432 C2408 0.950 . S
H2433 C2409 0.949 . S
H2434 C2411 0.950 . S
H2435 C2413 0.950 . S
C2436 C2437 1.349 . S
C2436 C2438 1.327 . S
C2436 H2461 0.950 . S
C2437 C2436 1.349 . S
C2437 C2453 1.349 . S
C2438 C2436 1.327 . S
C2438 C2457 1.429 . S
C2438 H2462 0.950 . S
C2439 C2456 1.574 . S
C2439 C2458 1.368 . S
C2439 H2463 0.949 . S
H2440 C2444 0.949 . S
C2441 C2442 1.349 . S
C2441 C2443 1.327 . S
C2441 H2464 0.950 . S
C2442 C2441 1.349 . S
C2442 C2454 1.349 . S
C2443 C2441 1.327 . S
C2443 C2459 1.429 . S
C2443 H2465 0.950 . S
C2444 H2440 0.949 . S
C2444 C2452 1.574 . S
C2444 C2460 1.368 . S
H2445 C2453 0.950 . S
H2446 C2451 0.950 . S
H2447 C2452 0.949 . S
H2448 C2454 0.950 . S
H2449 C2455 0.950 . S
H2450 C2456 0.949 . S
C2451 H2446 0.950 . S
C2451 C2453 1.327 . S
C2451 C2457 1.429 . S
C2452 C2444 1.574 . S
C2452 H2447 0.949 . S
C2452 C2458 1.368 . S
C2453 C2437 1.349 . S
C2453 H2445 0.950 . S
C2453 C2451 1.327 . S
C2454 C2442 1.349 . S
C2454 H2448 0.950 . S
C2454 C2455 1.327 . S
C2455 H2449 0.950 . S
C2455 C2454 1.327 . S
C2455 C2459 1.429 . S
C2456 C2439 1.574 . S
C2456 H2450 0.949 . S
C2456 C2460 1.368 . S
C2457 C2438 1.429 . S
C2457 C2451 1.429 . S
C2457 C2458 1.523 . S
C2458 C2439 1.368 . S
C2458 C2452 1.368 . S
C2458 C2457 1.523 . S
C2459 C2443 1.429 . S
C2459 C2455 1.429 . S
C2459 C2460 1.523 . S
C2460 C2444 1.368 . S
C2460 C2456 1.368 . S
C2460 C2459 1.523 . S
H2461 C2436 0.950 . S
H2462 C2438 0.950 . S
H2463 C2439 0.949 . S
H2464 C2441 0.950 . S
H2465 C2443 0.950 . S
C2466 C2467 1.349 1_655 S
C2466 C2468 1.327 . S
C2466 H2491 0.950 . S
C2467 C2466 1.349 1_455 S
C2467 C2483 1.349 . S
C2468 C2466 1.327 . S
C2468 C2487 1.429 1_655 S
C2468 H2492 0.950 . S
C2469 C2486 1.574 . S
C2469 C2488 1.368 . S
C2469 H2493 0.949 . S
H2470 C2474 0.949 . S
C2471 C2472 1.349 . S
C2471 C2473 1.327 . S
C2471 H2494 0.950 . S
C2472 C2471 1.349 . S
C2472 C2484 1.349 1_455 S
C2473 C2471 1.327 . S
C2473 C2489 1.429 . S
C2473 H2495 0.950 . S
C2474 H2470 0.949 . S
C2474 C2482 1.574 . S
C2474 C2490 1.368 1_655 S
H2475 C2483 0.950 . S
H2476 C2481 0.950 . S
H2477 C2482 0.949 . S
H2478 C2484 0.950 . S
H2479 C2485 0.950 . S
H2480 C2486 0.949 . S
C2481 H2476 0.950 . S
C2481 C2483 1.327 . S
C2481 C2487 1.429 . S
C2482 C2474 1.574 . S
C2482 H2477 0.949 . S
C2482 C2488 1.368 1_655 S
C2483 C2467 1.349 . S
C2483 H2475 0.950 . S
C2483 C2481 1.327 . S
C2484 C2472 1.349 1_655 S
C2484 H2478 0.950 . S
C2484 C2485 1.327 . S
C2485 H2479 0.950 . S
C2485 C2484 1.327 . S
C2485 C2489 1.429 1_655 S
C2486 C2469 1.574 . S
C2486 H2480 0.949 . S
C2486 C2490 1.368 . S
C2487 C2468 1.429 1_455 S
C2487 C2481 1.429 . S
C2487 C2488 1.523 . S
C2488 C2469 1.368 . S
C2488 C2482 1.368 1_455 S
C2488 C2487 1.523 . S
C2489 C2473 1.429 . S
C2489 C2485 1.429 1_455 S
C2489 C2490 1.523 . S
C2490 C2474 1.368 1_455 S
C2490 C2486 1.368 . S
C2490 C2489 1.523 . S
H2491 C2466 0.950 . S
H2492 C2468 0.950 . S
H2493 C2469 0.949 . S
H2494 C2471 0.950 . S
H2495 C2473 0.950 . S
C2496 C2497 1.349 . S
C2496 C2498 1.327 . S
C2496 H2521 0.950 . S
C2497 C2496 1.349 . S
C2497 C2513 1.349 . S
C2498 C2496 1.327 . S
C2498 C2517 1.429 . S
C2498 H2522 0.950 . S
C2499 C2516 1.574 . S
C2499 C2518 1.368 . S
C2499 H2523 0.949 . S
H2500 C2504 0.949 . S
C2501 C2502 1.349 . S
C2501 C2503 1.327 . S
C2501 H2524 0.950 . S
C2502 C2501 1.349 . S
C2502 C2514 1.349 . S
C2503 C2501 1.327 . S
C2503 C2519 1.429 . S
C2503 H2525 0.950 . S
C2504 H2500 0.949 . S
C2504 C2512 1.574 . S
C2504 C2520 1.368 . S
H2505 C2513 0.950 . S
H2506 C2511 0.950 . S
H2507 C2512 0.949 . S
H2508 C2514 0.950 . S
H2509 C2515 0.950 . S
H2510 C2516 0.949 . S
C2511 H2506 0.950 . S
C2511 C2513 1.327 . S
C2511 C2517 1.429 . S
C2512 C2504 1.574 . S
C2512 H2507 0.949 . S
C2512 C2518 1.368 . S
C2513 C2497 1.349 . S
C2513 H2505 0.950 . S
C2513 C2511 1.327 . S
C2514 C2502 1.349 . S
C2514 H2508 0.950 . S
C2514 C2515 1.327 . S
C2515 H2509 0.950 . S
C2515 C2514 1.327 . S
C2515 C2519 1.429 . S
C2516 C2499 1.574 . S
C2516 H2510 0.949 . S
C2516 C2520 1.368 . S
C2517 C2498 1.429 . S
C2517 C2511 1.429 . S
C2517 C2518 1.523 . S
C2518 C2499 1.368 . S
C2518 C2512 1.368 . S
C2518 C2517 1.523 . S
C2519 C2503 1.429 . S
C2519 C2515 1.429 . S
C2519 C2520 1.523 . S
C2520 C2504 1.368 . S
C2520 C2516 1.368 . S
C2520 C2519 1.523 . S
H2521 C2496 0.950 . S
H2522 C2498 0.950 . S
H2523 C2499 0.949 . S
H2524 C2501 0.950 . S
H2525 C2503 0.950 . S
C2526 C2527 1.349 1_545 S
C2526 C2528 1.327 . S
C2526 H2551 0.950 . S
C2527 C2526 1.349 1_565 S
C2527 C2543 1.349 . S
C2528 C2526 1.327 . S
C2528 C2547 1.429 1_545 S
C2528 H2552 0.950 . S
C2529 C2546 1.574 . S
C2529 C2548 1.368 . S
C2529 H2553 0.949 . S
H2530 C2534 0.949 . S
C2531 C2532 1.349 . S
C2531 C2533 1.327 . S
C2531 H2554 0.950 . S
C2532 C2531 1.349 . S
C2532 C2544 1.349 1_565 S
C2533 C2531 1.327 . S
C2533 C2549 1.429 . S
C2533 H2555 0.950 . S
C2534 H2530 0.949 . S
C2534 C2542 1.574 . S
C2534 C2550 1.368 1_545 S
H2535 C2543 0.950 . S
H2536 C2541 0.950 . S
H2537 C2542 0.949 . S
H2538 C2544 0.950 . S
H2539 C2545 0.950 . S
H2540 C2546 0.949 . S
C2541 H2536 0.950 . S
C2541 C2543 1.327 . S
C2541 C2547 1.429 . S
C2542 C2534 1.574 . S
C2542 H2537 0.949 . S
C2542 C2548 1.368 1_545 S
C2543 C2527 1.349 . S
C2543 H2535 0.950 . S
C2543 C2541 1.327 . S
C2544 C2532 1.349 1_545 S
C2544 H2538 0.950 . S
C2544 C2545 1.327 . S
C2545 H2539 0.950 . S
C2545 C2544 1.327 . S
C2545 C2549 1.429 1_545 S
C2546 C2529 1.574 . S
C2546 H2540 0.949 . S
C2546 C2550 1.368 . S
C2547 C2528 1.429 1_565 S
C2547 C2541 1.429 . S
C2547 C2548 1.523 . S
C2548 C2529 1.368 . S
C2548 C2542 1.368 1_565 S
C2548 C2547 1.523 . S
C2549 C2533 1.429 . S
C2549 C2545 1.429 1_565 S
C2549 C2550 1.523 . S
C2550 C2534 1.368 1_565 S
C2550 C2546 1.368 . S
C2550 C2549 1.523 . S
H2551 C2526 0.950 . S
H2552 C2528 0.950 . S
H2553 C2529 0.949 . S
H2554 C2531 0.950 . S
H2555 C2533 0.950 . S
C2556 C2557 1.349 . S
C2556 C2558 1.327 . S
C2556 H2581 0.950 . S
C2557 C2556 1.349 . S
C2557 C2573 1.349 1_545 S
C2558 C2556 1.327 . S
C2558 C2577 1.429 . S
C2558 H2582 0.950 . S
C2559 C2576 1.574 . S
C2559 C2578 1.368 1_565 S
C2559 H2583 0.949 . S
H2560 C2564 0.949 . S
C2561 C2562 1.349 1_565 S
C2561 C2563 1.327 . S
C2561 H2584 0.950 . S
C2562 C2561 1.349 1_545 S
C2562 C2574 1.349 . S
C2563 C2561 1.327 . S
C2563 C2579 1.429 1_565 S
C2563 H2585 0.950 . S
C2564 H2560 0.949 . S
C2564 C2572 1.574 . S
C2564 C2580 1.368 . S
H2565 C2573 0.950 . S
H2566 C2571 0.950 . S
H2567 C2572 0.949 . S
H2568 C2574 0.950 . S
H2569 C2575 0.950 . S
H2570 C2576 0.949 . S
C2571 H2566 0.950 . S
C2571 C2573 1.327 . S
C2571 C2577 1.429 1_565 S
C2572 C2564 1.574 . S
C2572 H2567 0.949 . S
C2572 C2578 1.368 . S
C2573 C2557 1.349 1_565 S
C2573 H2565 0.950 . S
C2573 C2571 1.327 . S
C2574 C2562 1.349 . S
C2574 H2568 0.950 . S
C2574 C2575 1.327 . S
C2575 H2569 0.950 . S
C2575 C2574 1.327 . S
C2575 C2579 1.429 . S
C2576 C2559 1.574 . S
C2576 H2570 0.949 . S
C2576 C2580 1.368 1_565 S
C2577 C2558 1.429 . S
C2577 C2571 1.429 1_545 S
C2577 C2578 1.523 . S
C2578 C2559 1.368 1_545 S
C2578 C2572 1.368 . S
C2578 C2577 1.523 . S
C2579 C2563 1.429 1_545 S
C2579 C2575 1.429 . S
C2579 C2580 1.523 . S
C2580 C2564 1.368 . S
C2580 C2576 1.368 1_545 S
C2580 C2579 1.523 . S
H2581 C2556 0.950 . S
H2582 C2558 0.950 . S
H2583 C2559 0.949 . S
H2584 C2561 0.950 . S
H2585 C2563 0.950 . S
C2586 C2587 1.349 . S
C2586 C2588 1.327 . S
C2586 H2611 0.950 . S
C2587 C2586 1.349 . S
C2587 C2603 1.410 . S
C2588 C2586 1.327 . S
C2588 C2607 1.429 . S
C2588 H2612 0.950 . S
C2589 C2606 1.567 . S
C2589 C2608 1.388 . S
C2589 H2613 0.934 1_655 S
H2590 C2594 0.949 . S
C2591 C2592 1.348 1_455 S
C2591 C2593 1.323 . S
C2591 H2614 0.952 . S
C2592 C2591 1.348 1_655 S
C2592 C2604 1.349 . S
C2593 C2591 1.323 . S
C2593 C2609 1.434 1_455 S
C2593 H2615 0.947 . S
C2594 H2590 0.949 . S
C2594 C2602 1.574 . S
C2594 C2610 1.368 . S
H2595 C2603 0.929 . S
H2596 C2601 0.894 1_455 S
H2597 C2602 0.949 . S
H2598 C2604 0.950 . S
H2599 C2605 0.950 . S
H2600 C2606 0.896 1_455 S
C2601 H2596 0.894 1_655 S
C2601 C2603 1.320 . S
C2601 C2607 1.448 . S
C2602 C2594 1.574 . S
C2602 H2597 0.949 . S
C2602 C2608 1.368 . S
C2603 C2587 1.410 . S
C2603 H2595 0.929 . S
C2603 C2601 1.320 . S
C2604 C2592 1.349 . S
C2604 H2598 0.950 . S
C2604 C2605 1.327 . S
C2605 H2599 0.950 . S
C2605 C2604 1.327 . S
C2605 C2609 1.429 . S
C2606 C2589 1.567 . S
C2606 H2600 0.896 1_655 S
C2606 C2610 1.373 . S
C2607 C2588 1.429 . S
C2607 C2601 1.448 . S
C2607 C2608 1.523 . S
C2608 C2589 1.388 . S
C2608 C2602 1.368 . S
C2608 C2607 1.523 . S
C2609 C2593 1.434 1_655 S
C2609 C2605 1.429 . S
C2609 C2610 1.523 . S
C2610 C2594 1.368 . S
C2610 C2606 1.373 . S
C2610 C2609 1.523 . S
H2611 C2586 0.950 . S
H2612 C2588 0.950 . S
H2613 C2589 0.934 1_455 S
H2614 C2591 0.952 . S
H2615 C2593 0.947 . S
C2616 C2617 1.349 . S
C2616 C2618 1.327 . S
C2616 H2641 0.950 . S
C2617 C2616 1.349 . S
C2617 C2633 1.349 . S
C2618 C2616 1.327 . S
C2618 C2637 1.429 . S
C2618 H2642 0.950 . S
C2619 C2636 1.574 . S
C2619 C2638 1.368 . S
C2619 H2643 0.949 . S
H2620 C2624 0.949 . S
C2621 C2622 1.349 . S
C2621 C2623 1.327 . S
C2621 H2644 0.950 . S
C2622 C2621 1.349 . S
C2622 C2634 1.349 . S
C2623 C2621 1.327 . S
C2623 C2639 1.429 . S
C2623 H2645 0.950 . S
C2624 H2620 0.949 . S
C2624 C2632 1.574 . S
C2624 C2640 1.368 . S
H2625 C2633 0.950 . S
H2626 C2631 0.950 . S
H2627 C2632 0.949 . S
H2628 C2634 0.950 . S
H2629 C2635 0.950 . S
H2630 C2636 0.949 . S
C2631 H2626 0.950 . S
C2631 C2633 1.327 . S
C2631 C2637 1.429 . S
C2632 C2624 1.574 . S
C2632 H2627 0.949 . S
C2632 C2638 1.368 . S
C2633 C2617 1.349 . S
C2633 H2625 0.950 . S
C2633 C2631 1.327 . S
C2634 C2622 1.349 . S
C2634 H2628 0.950 . S
C2634 C2635 1.327 . S
C2635 H2629 0.950 . S
C2635 C2634 1.327 . S
C2635 C2639 1.429 . S
C2636 C2619 1.574 . S
C2636 H2630 0.949 . S
C2636 C2640 1.368 . S
C2637 C2618 1.429 . S
C2637 C2631 1.429 . S
C2637 C2638 1.523 . S
C2638 C2619 1.368 . S
C2638 C2632 1.368 . S
C2638 C2637 1.523 . S
C2639 C2623 1.429 . S
C2639 C2635 1.429 . S
C2639 C2640 1.523 . S
C2640 C2624 1.368 . S
C2640 C2636 1.368 . S
C2640 C2639 1.523 . S
H2641 C2616 0.950 . S
H2642 C2618 0.950 . S
H2643 C2619 0.949 . S
H2644 C2621 0.950 . S
H2645 C2623 0.950 . S
C2646 C2647 1.349 . S
C2646 C2648 1.327 . S
C2646 H2671 0.950 . S
C2647 C2646 1.349 . S
C2647 C2663 1.349 . S
C2648 C2646 1.327 . S
C2648 C2667 1.429 . S
C2648 H2672 0.950 . S
C2649 C2666 1.574 . S
C2649 C2668 1.368 . S
C2649 H2673 0.949 . S
H2650 C2654 0.949 . S
C2651 C2652 1.349 . S
C2651 C2653 1.327 . S
C2651 H2674 0.950 . S
C2652 C2651 1.349 . S
C2652 C2664 1.349 . S
C2653 C2651 1.327 . S
C2653 C2669 1.429 . S
C2653 H2675 0.950 . S
C2654 H2650 0.949 . S
C2654 C2662 1.574 . S
C2654 C2670 1.368 . S
H2655 C2663 0.950 . S
H2656 C2661 0.950 . S
H2657 C2662 0.949 . S
H2658 C2664 0.950 . S
H2659 C2665 0.950 . S
H2660 C2666 0.949 . S
C2661 H2656 0.950 . S
C2661 C2663 1.327 . S
C2661 C2667 1.429 . S
C2662 C2654 1.574 . S
C2662 H2657 0.949 . S
C2662 C2668 1.368 . S
C2663 C2647 1.349 . S
C2663 H2655 0.950 . S
C2663 C2661 1.327 . S
C2664 C2652 1.349 . S
C2664 H2658 0.950 . S
C2664 C2665 1.327 . S
C2665 H2659 0.950 . S
C2665 C2664 1.327 . S
C2665 C2669 1.429 . S
C2666 C2649 1.574 . S
C2666 H2660 0.949 . S
C2666 C2670 1.368 . S
C2667 C2648 1.429 . S
C2667 C2661 1.429 . S
C2667 C2668 1.523 . S
C2668 C2649 1.368 . S
C2668 C2662 1.368 . S
C2668 C2667 1.523 . S
C2669 C2653 1.429 . S
C2669 C2665 1.429 . S
C2669 C2670 1.523 . S
C2670 C2654 1.368 . S
C2670 C2666 1.368 . S
C2670 C2669 1.523 . S
H2671 C2646 0.950 . S
H2672 C2648 0.950 . S
H2673 C2649 0.949 . S
H2674 C2651 0.950 . S
H2675 C2653 0.950 . S
C2676 C2677 1.349 . S
C2676 C2678 1.327 . S
C2676 H2701 0.950 . S
C2677 C2676 1.349 . S
C2677 C2693 1.349 . S
C2678 C2676 1.327 . S
C2678 C2697 1.429 . S
C2678 H2702 0.950 . S
C2679 C2696 1.574 . S
C2679 C2698 1.368 . S
C2679 H2703 0.949 . S
H2680 C2684 0.949 . S
C2681 C2682 1.349 . S
C2681 C2683 1.327 . S
C2681 H2704 0.950 . S
C2682 C2681 1.349 . S
C2682 C2694 1.349 . S
C2683 C2681 1.327 . S
C2683 C2699 1.429 . S
C2683 H2705 0.950 . S
C2684 H2680 0.949 . S
C2684 C2692 1.574 . S
C2684 C2700 1.368 . S
H2685 C2693 0.950 . S
H2686 C2691 0.950 . S
H2687 C2692 0.949 . S
H2688 C2694 0.950 . S
H2689 C2695 0.950 . S
H2690 C2696 0.949 . S
C2691 H2686 0.950 . S
C2691 C2693 1.327 . S
C2691 C2697 1.429 . S
C2692 C2684 1.574 . S
C2692 H2687 0.949 . S
C2692 C2698 1.368 . S
C2693 C2677 1.349 . S
C2693 H2685 0.950 . S
C2693 C2691 1.327 . S
C2694 C2682 1.349 . S
C2694 H2688 0.950 . S
C2694 C2695 1.327 . S
C2695 H2689 0.950 . S
C2695 C2694 1.327 . S
C2695 C2699 1.429 . S
C2696 C2679 1.574 . S
C2696 H2690 0.949 . S
C2696 C2700 1.368 . S
C2697 C2678 1.429 . S
C2697 C2691 1.429 . S
C2697 C2698 1.523 . S
C2698 C2679 1.368 . S
C2698 C2692 1.368 . S
C2698 C2697 1.523 . S
C2699 C2683 1.429 . S
C2699 C2695 1.429 . S
C2699 C2700 1.523 . S
C2700 C2684 1.368 . S
C2700 C2696 1.368 . S
C2700 C2699 1.523 . S
H2701 C2676 0.950 . S
H2702 C2678 0.950 . S
H2703 C2679 0.949 . S
H2704 C2681 0.950 . S
H2705 C2683 0.950 . S
C2706 C2707 1.349 . S
C2706 C2708 1.327 . S
C2706 H2731 0.950 . S
C2707 C2706 1.349 . S
C2707 C2723 1.349 . S
C2708 C2706 1.327 . S
C2708 C2727 1.429 . S
C2708 H2732 0.950 . S
C2709 C2726 1.574 . S
C2709 C2728 1.368 . S
C2709 H2733 0.949 . S
H2710 C2714 0.949 . S
C2711 C2712 1.349 . S
C2711 C2713 1.327 . S
C2711 H2734 0.950 . S
C2712 C2711 1.349 . S
C2712 C2724 1.349 . S
C2713 C2711 1.327 . S
C2713 C2729 1.429 . S
C2713 H2735 0.950 . S
C2714 H2710 0.949 . S
C2714 C2722 1.574 . S
C2714 C2730 1.368 . S
H2715 C2723 0.950 . S
H2716 C2721 0.950 . S
H2717 C2722 0.949 . S
H2718 C2724 0.950 . S
H2719 C2725 0.950 . S
H2720 C2726 0.949 . S
C2721 H2716 0.950 . S
C2721 C2723 1.327 . S
C2721 C2727 1.429 . S
C2722 C2714 1.574 . S
C2722 H2717 0.949 . S
C2722 C2728 1.368 . S
C2723 C2707 1.349 . S
C2723 H2715 0.950 . S
C2723 C2721 1.327 . S
C2724 C2712 1.349 . S
C2724 H2718 0.950 . S
C2724 C2725 1.327 . S
C2725 H2719 0.950 . S
C2725 C2724 1.327 . S
C2725 C2729 1.429 . S
C2726 C2709 1.574 . S
C2726 H2720 0.949 . S
C2726 C2730 1.368 . S
C2727 C2708 1.429 . S
C2727 C2721 1.429 . S
C2727 C2728 1.523 . S
C2728 C2709 1.368 . S
C2728 C2722 1.368 . S
C2728 C2727 1.523 . S
C2729 C2713 1.429 . S
C2729 C2725 1.429 . S
C2729 C2730 1.523 . S
C2730 C2714 1.368 . S
C2730 C2726 1.368 . S
C2730 C2729 1.523 . S
H2731 C2706 0.950 . S
H2732 C2708 0.950 . S
H2733 C2709 0.949 . S
H2734 C2711 0.950 . S
H2735 C2713 0.950 . S
C2736 C2737 1.349 . S
C2736 C2738 1.327 . S
C2736 H2761 0.950 . S
C2737 C2736 1.349 . S
C2737 C2753 1.349 . S
C2738 C2736 1.327 . S
C2738 C2757 1.429 . S
C2738 H2762 0.950 . S
C2739 C2756 1.574 . S
C2739 C2758 1.368 . S
C2739 H2763 0.949 . S
H2740 C2744 0.949 . S
C2741 C2742 1.349 . S
C2741 C2743 1.327 . S
C2741 H2764 0.950 . S
C2742 C2741 1.349 . S
C2742 C2754 1.349 . S
C2743 C2741 1.327 . S
C2743 C2759 1.429 . S
C2743 H2765 0.950 . S
C2744 H2740 0.949 . S
C2744 C2752 1.574 . S
C2744 C2760 1.368 . S
H2745 C2753 0.950 . S
H2746 C2751 0.950 . S
H2747 C2752 0.949 . S
H2748 C2754 0.950 . S
H2749 C2755 0.950 . S
H2750 C2756 0.949 . S
C2751 H2746 0.950 . S
C2751 C2753 1.327 . S
C2751 C2757 1.429 . S
C2752 C2744 1.574 . S
C2752 H2747 0.949 . S
C2752 C2758 1.368 . S
C2753 C2737 1.349 . S
C2753 H2745 0.950 . S
C2753 C2751 1.327 . S
C2754 C2742 1.349 . S
C2754 H2748 0.950 . S
C2754 C2755 1.327 . S
C2755 H2749 0.950 . S
C2755 C2754 1.327 . S
C2755 C2759 1.429 . S
C2756 C2739 1.574 . S
C2756 H2750 0.949 . S
C2756 C2760 1.368 . S
C2757 C2738 1.429 . S
C2757 C2751 1.429 . S
C2757 C2758 1.523 . S
C2758 C2739 1.368 . S
C2758 C2752 1.368 . S
C2758 C2757 1.523 . S
C2759 C2743 1.429 . S
C2759 C2755 1.429 . S
C2759 C2760 1.523 . S
C2760 C2744 1.368 . S
C2760 C2756 1.368 . S
C2760 C2759 1.523 . S
H2761 C2736 0.950 . S
H2762 C2738 0.950 . S
H2763 C2739 0.949 . S
H2764 C2741 0.950 . S
H2765 C2743 0.950 . S
C2766 C2767 1.349 . S
C2766 C2768 1.327 . S
C2766 H2791 0.950 . S
C2767 C2766 1.349 . S
C2767 C2783 1.349 . S
C2768 C2766 1.327 . S
C2768 C2787 1.429 . S
C2768 H2792 0.950 . S
C2769 C2786 1.574 . S
C2769 C2788 1.368 . S
C2769 H2793 0.949 . S
H2770 C2774 0.949 . S
C2771 C2772 1.349 . S
C2771 C2773 1.327 . S
C2771 H2794 0.950 . S
C2772 C2771 1.349 . S
C2772 C2784 1.349 . S
C2773 C2771 1.327 . S
C2773 C2789 1.429 . S
C2773 H2795 0.950 . S
C2774 H2770 0.949 . S
C2774 C2782 1.574 . S
C2774 C2790 1.368 . S
H2775 C2783 0.950 . S
H2776 C2781 0.950 . S
H2777 C2782 0.949 . S
H2778 C2784 0.950 . S
H2779 C2785 0.950 . S
H2780 C2786 0.949 . S
C2781 H2776 0.950 . S
C2781 C2783 1.327 . S
C2781 C2787 1.429 . S
C2782 C2774 1.574 . S
C2782 H2777 0.949 . S
C2782 C2788 1.368 . S
C2783 C2767 1.349 . S
C2783 H2775 0.950 . S
C2783 C2781 1.327 . S
C2784 C2772 1.349 . S
C2784 H2778 0.950 . S
C2784 C2785 1.327 . S
C2785 H2779 0.950 . S
C2785 C2784 1.327 . S
C2785 C2789 1.429 . S
C2786 C2769 1.574 . S
C2786 H2780 0.949 . S
C2786 C2790 1.368 . S
C2787 C2768 1.429 . S
C2787 C2781 1.429 . S
C2787 C2788 1.523 . S
C2788 C2769 1.368 . S
C2788 C2782 1.368 . S
C2788 C2787 1.523 . S
C2789 C2773 1.429 . S
C2789 C2785 1.429 . S
C2789 C2790 1.523 . S
C2790 C2774 1.368 . S
C2790 C2786 1.368 . S
C2790 C2789 1.523 . S
H2791 C2766 0.950 . S
H2792 C2768 0.950 . S
H2793 C2769 0.949 . S
H2794 C2771 0.950 . S
H2795 C2773 0.950 . S
C2796 C2797 1.349 . S
C2796 C2798 1.327 . S
C2796 H2821 0.950 . S
C2797 C2796 1.349 . S
C2797 C2813 1.349 . S
C2798 C2796 1.327 . S
C2798 C2817 1.429 . S
C2798 H2822 0.950 . S
C2799 C2816 1.574 . S
C2799 C2818 1.368 . S
C2799 H2823 0.949 . S
H2800 C2804 0.949 . S
C2801 C2802 1.349 . S
C2801 C2803 1.327 . S
C2801 H2824 0.950 . S
C2802 C2801 1.349 . S
C2802 C2814 1.349 . S
C2803 C2801 1.327 . S
C2803 C2819 1.429 . S
C2803 H2825 0.950 . S
C2804 H2800 0.949 . S
C2804 C2812 1.574 . S
C2804 C2820 1.368 . S
H2805 C2813 0.950 . S
H2806 C2811 0.950 . S
H2807 C2812 0.949 . S
H2808 C2814 0.950 . S
H2809 C2815 0.950 . S
H2810 C2816 0.949 . S
C2811 H2806 0.950 . S
C2811 C2813 1.327 . S
C2811 C2817 1.429 . S
C2812 C2804 1.574 . S
C2812 H2807 0.949 . S
C2812 C2818 1.368 . S
C2813 C2797 1.349 . S
C2813 H2805 0.950 . S
C2813 C2811 1.327 . S
C2814 C2802 1.349 . S
C2814 H2808 0.950 . S
C2814 C2815 1.327 . S
C2815 H2809 0.950 . S
C2815 C2814 1.327 . S
C2815 C2819 1.429 . S
C2816 C2799 1.574 . S
C2816 H2810 0.949 . S
C2816 C2820 1.368 . S
C2817 C2798 1.429 . S
C2817 C2811 1.429 . S
C2817 C2818 1.523 . S
C2818 C2799 1.368 . S
C2818 C2812 1.368 . S
C2818 C2817 1.523 . S
C2819 C2803 1.429 . S
C2819 C2815 1.429 . S
C2819 C2820 1.523 . S
C2820 C2804 1.368 . S
C2820 C2816 1.368 . S
C2820 C2819 1.523 . S
H2821 C2796 0.950 . S
H2822 C2798 0.950 . S
H2823 C2799 0.949 . S
H2824 C2801 0.950 . S
H2825 C2803 0.950 . S
C2826 C2827 1.349 . S
C2826 C2828 1.327 . S
C2826 H2851 0.950 . S
C2827 C2826 1.349 . S
C2827 C2843 1.349 . S
C2828 C2826 1.327 . S
C2828 C2847 1.429 . S
C2828 H2852 0.950 . S
C2829 C2846 1.574 . S
C2829 C2848 1.368 . S
C2829 H2853 0.949 . S
H2830 C2834 0.949 . S
C2831 C2832 1.349 . S
C2831 C2833 1.327 . S
C2831 H2854 0.950 . S
C2832 C2831 1.349 . S
C2832 C2844 1.349 . S
C2833 C2831 1.327 . S
C2833 C2849 1.429 . S
C2833 H2855 0.950 . S
C2834 H2830 0.949 . S
C2834 C2842 1.574 . S
C2834 C2850 1.368 . S
H2835 C2843 0.950 . S
H2836 C2841 0.950 . S
H2837 C2842 0.949 . S
H2838 C2844 0.950 . S
H2839 C2845 0.950 . S
H2840 C2846 0.949 . S
C2841 H2836 0.950 . S
C2841 C2843 1.327 . S
C2841 C2847 1.429 . S
C2842 C2834 1.574 . S
C2842 H2837 0.949 . S
C2842 C2848 1.368 . S
C2843 C2827 1.349 . S
C2843 H2835 0.950 . S
C2843 C2841 1.327 . S
C2844 C2832 1.349 . S
C2844 H2838 0.950 . S
C2844 C2845 1.327 . S
C2845 H2839 0.950 . S
C2845 C2844 1.327 . S
C2845 C2849 1.429 . S
C2846 C2829 1.574 . S
C2846 H2840 0.949 . S
C2846 C2850 1.368 . S
C2847 C2828 1.429 . S
C2847 C2841 1.429 . S
C2847 C2848 1.523 . S
C2848 C2829 1.368 . S
C2848 C2842 1.368 . S
C2848 C2847 1.523 . S
C2849 C2833 1.429 . S
C2849 C2845 1.429 . S
C2849 C2850 1.523 . S
C2850 C2834 1.368 . S
C2850 C2846 1.368 . S
C2850 C2849 1.523 . S
H2851 C2826 0.950 . S
H2852 C2828 0.950 . S
H2853 C2829 0.949 . S
H2854 C2831 0.950 . S
H2855 C2833 0.950 . S
C2856 C2857 1.349 . S
C2856 C2858 1.327 . S
C2856 H2881 0.950 . S
C2857 C2856 1.349 . S
C2857 C2873 1.349 . S
C2858 C2856 1.327 . S
C2858 C2877 1.429 . S
C2858 H2882 0.950 . S
C2859 C2876 1.574 . S
C2859 C2878 1.368 . S
C2859 H2883 0.949 . S
H2860 C2864 0.949 . S
C2861 C2862 1.349 . S
C2861 C2863 1.327 . S
C2861 H2884 0.950 . S
C2862 C2861 1.349 . S
C2862 C2874 1.349 . S
C2863 C2861 1.327 . S
C2863 C2879 1.429 . S
C2863 H2885 0.950 . S
C2864 H2860 0.949 . S
C2864 C2872 1.574 . S
C2864 C2880 1.368 . S
H2865 C2873 0.950 . S
H2866 C2871 0.950 . S
H2867 C2872 0.949 . S
H2868 C2874 0.950 . S
H2869 C2875 0.950 . S
H2870 C2876 0.949 . S
C2871 H2866 0.950 . S
C2871 C2873 1.327 . S
C2871 C2877 1.429 . S
C2872 C2864 1.574 . S
C2872 H2867 0.949 . S
C2872 C2878 1.368 . S
C2873 C2857 1.349 . S
C2873 H2865 0.950 . S
C2873 C2871 1.327 . S
C2874 C2862 1.349 . S
C2874 H2868 0.950 . S
C2874 C2875 1.327 . S
C2875 H2869 0.950 . S
C2875 C2874 1.327 . S
C2875 C2879 1.429 . S
C2876 C2859 1.574 . S
C2876 H2870 0.949 . S
C2876 C2880 1.368 . S
C2877 C2858 1.429 . S
C2877 C2871 1.429 . S
C2877 C2878 1.523 . S
C2878 C2859 1.368 . S
C2878 C2872 1.368 . S
C2878 C2877 1.523 . S
C2879 C2863 1.429 . S
C2879 C2875 1.429 . S
C2879 C2880 1.523 . S
C2880 C2864 1.368 . S
C2880 C2876 1.368 . S
C2880 C2879 1.523 . S
H2881 C2856 0.950 . S
H2882 C2858 0.950 . S
H2883 C2859 0.949 . S
H2884 C2861 0.950 . S
H2885 C2863 0.950 . S
C2886 C2887 1.349 . S
C2886 C2888 1.327 . S
C2886 H2911 0.950 . S
C2887 C2886 1.349 . S
C2887 C2903 1.349 . S
C2888 C2886 1.327 . S
C2888 C2907 1.429 . S
C2888 H2912 0.950 . S
C2889 C2906 1.574 . S
C2889 C2908 1.368 . S
C2889 H2913 0.949 . S
H2890 C2894 0.949 . S
C2891 C2892 1.349 . S
C2891 C2893 1.327 . S
C2891 H2914 0.950 . S
C2892 C2891 1.349 . S
C2892 C2904 1.349 . S
C2893 C2891 1.327 . S
C2893 C2909 1.429 . S
C2893 H2915 0.950 . S
C2894 H2890 0.949 . S
C2894 C2902 1.574 . S
C2894 C2910 1.368 . S
H2895 C2903 0.950 . S
H2896 C2901 0.950 . S
H2897 C2902 0.949 . S
H2898 C2904 0.950 . S
H2899 C2905 0.950 . S
H2900 C2906 0.949 . S
C2901 H2896 0.950 . S
C2901 C2903 1.327 . S
C2901 C2907 1.429 . S
C2902 C2894 1.574 . S
C2902 H2897 0.949 . S
C2902 C2908 1.368 . S
C2903 C2887 1.349 . S
C2903 H2895 0.950 . S
C2903 C2901 1.327 . S
C2904 C2892 1.349 . S
C2904 H2898 0.950 . S
C2904 C2905 1.327 . S
C2905 H2899 0.950 . S
C2905 C2904 1.327 . S
C2905 C2909 1.429 . S
C2906 C2889 1.574 . S
C2906 H2900 0.949 . S
C2906 C2910 1.368 . S
C2907 C2888 1.429 . S
C2907 C2901 1.429 . S
C2907 C2908 1.523 . S
C2908 C2889 1.368 . S
C2908 C2902 1.368 . S
C2908 C2907 1.523 . S
C2909 C2893 1.429 . S
C2909 C2905 1.429 . S
C2909 C2910 1.523 . S
C2910 C2894 1.368 . S
C2910 C2906 1.368 . S
C2910 C2909 1.523 . S
H2911 C2886 0.950 . S
H2912 C2888 0.950 . S
H2913 C2889 0.949 . S
H2914 C2891 0.950 . S
H2915 C2893 0.950 . S
C2916 C2917 1.349 . S
C2916 C2918 1.327 . S
C2916 H2941 0.950 . S
C2917 C2916 1.349 . S
C2917 C2933 1.349 . S
C2918 C2916 1.327 . S
C2918 C2937 1.429 . S
C2918 H2942 0.950 . S
C2919 C2936 1.574 . S
C2919 C2938 1.368 . S
C2919 H2943 0.949 . S
H2920 C2924 0.949 . S
C2921 C2922 1.349 . S
C2921 C2923 1.327 . S
C2921 H2944 0.950 . S
C2922 C2921 1.349 . S
C2922 C2934 1.349 . S
C2923 C2921 1.327 . S
C2923 C2939 1.429 . S
C2923 H2945 0.950 . S
C2924 H2920 0.949 . S
C2924 C2932 1.574 . S
C2924 C2940 1.368 . S
H2925 C2933 0.950 . S
H2926 C2931 0.950 . S
H2927 C2932 0.949 . S
H2928 C2934 0.950 . S
H2929 C2935 0.950 . S
H2930 C2936 0.949 . S
C2931 H2926 0.950 . S
C2931 C2933 1.327 . S
C2931 C2937 1.429 . S
C2932 C2924 1.574 . S
C2932 H2927 0.949 . S
C2932 C2938 1.368 . S
C2933 C2917 1.349 . S
C2933 H2925 0.950 . S
C2933 C2931 1.327 . S
C2934 C2922 1.349 . S
C2934 H2928 0.950 . S
C2934 C2935 1.327 . S
C2935 H2929 0.950 . S
C2935 C2934 1.327 . S
C2935 C2939 1.429 . S
C2936 C2919 1.574 . S
C2936 H2930 0.949 . S
C2936 C2940 1.368 . S
C2937 C2918 1.429 . S
C2937 C2931 1.429 . S
C2937 C2938 1.523 . S
C2938 C2919 1.368 . S
C2938 C2932 1.368 . S
C2938 C2937 1.523 . S
C2939 C2923 1.429 . S
C2939 C2935 1.429 . S
C2939 C2940 1.523 . S
C2940 C2924 1.368 . S
C2940 C2936 1.368 . S
C2940 C2939 1.523 . S
H2941 C2916 0.950 . S
H2942 C2918 0.950 . S
H2943 C2919 0.949 . S
H2944 C2921 0.950 . S
H2945 C2923 0.950 . S
C2946 C2947 1.349 . S
C2946 C2948 1.327 . S
C2946 H2971 0.950 . S
C2947 C2946 1.349 . S
C2947 C2963 1.349 . S
C2948 C2946 1.327 . S
C2948 C2967 1.429 . S
C2948 H2972 0.950 . S
C2949 C2966 1.574 . S
C2949 C2968 1.368 . S
C2949 H2973 0.949 . S
H2950 C2954 0.949 . S
C2951 C2952 1.349 . S
C2951 C2953 1.327 . S
C2951 H2974 0.950 . S
C2952 C2951 1.349 . S
C2952 C2964 1.349 . S
C2953 C2951 1.327 . S
C2953 C2969 1.429 . S
C2953 H2975 0.950 . S
C2954 H2950 0.949 . S
C2954 C2962 1.574 . S
C2954 C2970 1.368 . S
H2955 C2963 0.950 . S
H2956 C2961 0.950 . S
H2957 C2962 0.949 . S
H2958 C2964 0.950 . S
H2959 C2965 0.950 . S
H2960 C2966 0.949 . S
C2961 H2956 0.950 . S
C2961 C2963 1.327 . S
C2961 C2967 1.429 . S
C2962 C2954 1.574 . S
C2962 H2957 0.949 . S
C2962 C2968 1.368 . S
C2963 C2947 1.349 . S
C2963 H2955 0.950 . S
C2963 C2961 1.327 . S
C2964 C2952 1.349 . S
C2964 H2958 0.950 . S
C2964 C2965 1.327 . S
C2965 H2959 0.950 . S
C2965 C2964 1.327 . S
C2965 C2969 1.429 . S
C2966 C2949 1.574 . S
C2966 H2960 0.949 . S
C2966 C2970 1.368 . S
C2967 C2948 1.429 . S
C2967 C2961 1.429 . S
C2967 C2968 1.523 . S
C2968 C2949 1.368 . S
C2968 C2962 1.368 . S
C2968 C2967 1.523 . S
C2969 C2953 1.429 . S
C2969 C2965 1.429 . S
C2969 C2970 1.523 . S
C2970 C2954 1.368 . S
C2970 C2966 1.368 . S
C2970 C2969 1.523 . S
H2971 C2946 0.950 . S
H2972 C2948 0.950 . S
H2973 C2949 0.949 . S
H2974 C2951 0.950 . S
H2975 C2953 0.950 . S
C2976 C2977 1.349 . S
C2976 C2978 1.327 . S
C2976 H3001 0.950 . S
C2977 C2976 1.349 . S
C2977 C2993 1.349 . S
C2978 C2976 1.327 . S
C2978 C2997 1.429 . S
C2978 H3002 0.950 . S
C2979 C2996 1.574 . S
C2979 C2998 1.368 . S
C2979 H3003 0.949 . S
H2980 C2984 0.949 . S
C2981 C2982 1.349 . S
C2981 C2983 1.327 . S
C2981 H3004 0.950 . S
C2982 C2981 1.349 . S
C2982 C2994 1.349 . S
C2983 C2981 1.327 . S
C2983 C2999 1.429 . S
C2983 H3005 0.950 . S
C2984 H2980 0.949 . S
C2984 C2992 1.574 . S
C2984 C3000 1.368 . S
H2985 C2993 0.950 . S
H2986 C2991 0.950 . S
H2987 C2992 0.949 . S
H2988 C2994 0.950 . S
H2989 C2995 0.950 . S
H2990 C2996 0.949 . S
C2991 H2986 0.950 . S
C2991 C2993 1.327 . S
C2991 C2997 1.429 . S
C2992 C2984 1.574 . S
C2992 H2987 0.949 . S
C2992 C2998 1.368 . S
C2993 C2977 1.349 . S
C2993 H2985 0.950 . S
C2993 C2991 1.327 . S
C2994 C2982 1.349 . S
C2994 H2988 0.950 . S
C2994 C2995 1.327 . S
C2995 H2989 0.950 . S
C2995 C2994 1.327 . S
C2995 C2999 1.429 . S
C2996 C2979 1.574 . S
C2996 H2990 0.949 . S
C2996 C3000 1.368 . S
C2997 C2978 1.429 . S
C2997 C2991 1.429 . S
C2997 C2998 1.523 . S
C2998 C2979 1.368 . S
C2998 C2992 1.368 . S
C2998 C2997 1.523 . S
C2999 C2983 1.429 . S
C2999 C2995 1.429 . S
C2999 C3000 1.523 . S
C3000 C2984 1.368 . S
C3000 C2996 1.368 . S
C3000 C2999 1.523 . S
H3001 C2976 0.950 . S
H3002 C2978 0.950 . S
H3003 C2979 0.949 . S
H3004 C2981 0.950 . S
H3005 C2983 0.950 . S
C3006 C3007 1.349 . S
C3006 C3008 1.327 . S
C3006 H3031 0.950 . S
C3007 C3006 1.349 . S
C3007 C3023 1.349 . S
C3008 C3006 1.327 . S
C3008 C3027 1.429 . S
C3008 H3032 0.950 . S
C3009 C3026 1.574 . S
C3009 C3028 1.368 . S
C3009 H3033 0.949 . S
H3010 C3014 0.949 . S
C3011 C3012 1.349 . S
C3011 C3013 1.327 . S
C3011 H3034 0.950 . S
C3012 C3011 1.349 . S
C3012 C3024 1.349 . S
C3013 C3011 1.327 . S
C3013 C3029 1.429 . S
C3013 H3035 0.950 . S
C3014 H3010 0.949 . S
C3014 C3022 1.574 . S
C3014 C3030 1.368 . S
H3015 C3023 0.950 . S
H3016 C3021 0.950 . S
H3017 C3022 0.949 . S
H3018 C3024 0.950 . S
H3019 C3025 0.950 . S
H3020 C3026 0.949 . S
C3021 H3016 0.950 . S
C3021 C3023 1.327 . S
C3021 C3027 1.429 . S
C3022 C3014 1.574 . S
C3022 H3017 0.949 . S
C3022 C3028 1.368 . S
C3023 C3007 1.349 . S
C3023 H3015 0.950 . S
C3023 C3021 1.327 . S
C3024 C3012 1.349 . S
C3024 H3018 0.950 . S
C3024 C3025 1.327 . S
C3025 H3019 0.950 . S
C3025 C3024 1.327 . S
C3025 C3029 1.429 . S
C3026 C3009 1.574 . S
C3026 H3020 0.949 . S
C3026 C3030 1.368 . S
C3027 C3008 1.429 . S
C3027 C3021 1.429 . S
C3027 C3028 1.523 . S
C3028 C3009 1.368 . S
C3028 C3022 1.368 . S
C3028 C3027 1.523 . S
C3029 C3013 1.429 . S
C3029 C3025 1.429 . S
C3029 C3030 1.523 . S
C3030 C3014 1.368 . S
C3030 C3026 1.368 . S
C3030 C3029 1.523 . S
H3031 C3006 0.950 . S
H3032 C3008 0.950 . S
H3033 C3009 0.949 . S
H3034 C3011 0.950 . S
H3035 C3013 0.950 . S
C3036 C3037 1.349 . S
C3036 C3038 1.327 . S
C3036 H3061 0.950 . S
C3037 C3036 1.349 . S
C3037 C3053 1.349 . S
C3038 C3036 1.327 . S
C3038 C3057 1.429 . S
C3038 H3062 0.950 . S
C3039 C3056 1.574 . S
C3039 C3058 1.368 . S
C3039 H3063 0.949 . S
H3040 C3044 0.949 . S
C3041 C3042 1.349 . S
C3041 C3043 1.327 . S
C3041 H3064 0.950 . S
C3042 C3041 1.349 . S
C3042 C3054 1.349 . S
C3043 C3041 1.327 . S
C3043 C3059 1.429 . S
C3043 H3065 0.950 . S
C3044 H3040 0.949 . S
C3044 C3052 1.574 . S
C3044 C3060 1.368 . S
H3045 C3053 0.950 . S
H3046 C3051 0.950 . S
H3047 C3052 0.949 . S
H3048 C3054 0.950 . S
H3049 C3055 0.950 . S
H3050 C3056 0.949 . S
C3051 H3046 0.950 . S
C3051 C3053 1.327 . S
C3051 C3057 1.429 . S
C3052 C3044 1.574 . S
C3052 H3047 0.949 . S
C3052 C3058 1.368 . S
C3053 C3037 1.349 . S
C3053 H3045 0.950 . S
C3053 C3051 1.327 . S
C3054 C3042 1.349 . S
C3054 H3048 0.950 . S
C3054 C3055 1.327 . S
C3055 H3049 0.950 . S
C3055 C3054 1.327 . S
C3055 C3059 1.429 . S
C3056 C3039 1.574 . S
C3056 H3050 0.949 . S
C3056 C3060 1.368 . S
C3057 C3038 1.429 . S
C3057 C3051 1.429 . S
C3057 C3058 1.523 . S
C3058 C3039 1.368 . S
C3058 C3052 1.368 . S
C3058 C3057 1.523 . S
C3059 C3043 1.429 . S
C3059 C3055 1.429 . S
C3059 C3060 1.523 . S
C3060 C3044 1.368 . S
C3060 C3056 1.368 . S
C3060 C3059 1.523 . S
H3061 C3036 0.950 . S
H3062 C3038 0.950 . S
H3063 C3039 0.949 . S
H3064 C3041 0.950 . S
H3065 C3043 0.950 . S
C3066 C3067 1.349 . S
C3066 C3068 1.327 . S
C3066 H3091 0.950 . S
C3067 C3066 1.349 . S
C3067 C3083 1.349 . S
C3068 C3066 1.327 . S
C3068 C3087 1.429 . S
C3068 H3092 0.950 . S
C3069 C3086 1.574 . S
C3069 C3088 1.368 . S
C3069 H3093 0.949 . S
H3070 C3074 0.949 . S
C3071 C3072 1.349 . S
C3071 C3073 1.327 . S
C3071 H3094 0.950 . S
C3072 C3071 1.349 . S
C3072 C3084 1.349 . S
C3073 C3071 1.327 . S
C3073 C3089 1.429 . S
C3073 H3095 0.950 . S
C3074 H3070 0.949 . S
C3074 C3082 1.574 . S
C3074 C3090 1.368 . S
H3075 C3083 0.950 . S
H3076 C3081 0.950 . S
H3077 C3082 0.949 . S
H3078 C3084 0.950 . S
H3079 C3085 0.950 . S
H3080 C3086 0.949 . S
C3081 H3076 0.950 . S
C3081 C3083 1.327 . S
C3081 C3087 1.429 . S
C3082 C3074 1.574 . S
C3082 H3077 0.949 . S
C3082 C3088 1.368 . S
C3083 C3067 1.349 . S
C3083 H3075 0.950 . S
C3083 C3081 1.327 . S
C3084 C3072 1.349 . S
C3084 H3078 0.950 . S
C3084 C3085 1.327 . S
C3085 H3079 0.950 . S
C3085 C3084 1.327 . S
C3085 C3089 1.429 . S
C3086 C3069 1.574 . S
C3086 H3080 0.949 . S
C3086 C3090 1.368 . S
C3087 C3068 1.429 . S
C3087 C3081 1.429 . S
C3087 C3088 1.523 . S
C3088 C3069 1.368 . S
C3088 C3082 1.368 . S
C3088 C3087 1.523 . S
C3089 C3073 1.429 . S
C3089 C3085 1.429 . S
C3089 C3090 1.523 . S
C3090 C3074 1.368 . S
C3090 C3086 1.368 . S
C3090 C3089 1.523 . S
H3091 C3066 0.950 . S
H3092 C3068 0.950 . S
H3093 C3069 0.949 . S
H3094 C3071 0.950 . S
H3095 C3073 0.950 . S
C3096 C3097 1.349 . S
C3096 C3098 1.327 . S
C3096 H3121 0.950 . S
C3097 C3096 1.349 . S
C3097 C3113 1.349 . S
C3098 C3096 1.327 . S
C3098 C3117 1.429 . S
C3098 H3122 0.950 . S
C3099 C3116 1.574 . S
C3099 C3118 1.368 . S
C3099 H3123 0.949 . S
H3100 C3104 0.949 . S
C3101 C3102 1.349 . S
C3101 C3103 1.327 . S
C3101 H3124 0.950 . S
C3102 C3101 1.349 . S
C3102 C3114 1.349 . S
C3103 C3101 1.327 . S
C3103 C3119 1.429 . S
C3103 H3125 0.950 . S
C3104 H3100 0.949 . S
C3104 C3112 1.574 . S
C3104 C3120 1.368 . S
H3105 C3113 0.950 . S
H3106 C3111 0.950 . S
H3107 C3112 0.949 . S
H3108 C3114 0.950 . S
H3109 C3115 0.950 . S
H3110 C3116 0.949 . S
C3111 H3106 0.950 . S
C3111 C3113 1.327 . S
C3111 C3117 1.429 . S
C3112 C3104 1.574 . S
C3112 H3107 0.949 . S
C3112 C3118 1.368 . S
C3113 C3097 1.349 . S
C3113 H3105 0.950 . S
C3113 C3111 1.327 . S
C3114 C3102 1.349 . S
C3114 H3108 0.950 . S
C3114 C3115 1.327 . S
C3115 H3109 0.950 . S
C3115 C3114 1.327 . S
C3115 C3119 1.429 . S
C3116 C3099 1.574 . S
C3116 H3110 0.949 . S
C3116 C3120 1.368 . S
C3117 C3098 1.429 . S
C3117 C3111 1.429 . S
C3117 C3118 1.523 . S
C3118 C3099 1.368 . S
C3118 C3112 1.368 . S
C3118 C3117 1.523 . S
C3119 C3103 1.429 . S
C3119 C3115 1.429 . S
C3119 C3120 1.523 . S
C3120 C3104 1.368 . S
C3120 C3116 1.368 . S
C3120 C3119 1.523 . S
H3121 C3096 0.950 . S
H3122 C3098 0.950 . S
H3123 C3099 0.949 . S
H3124 C3101 0.950 . S
H3125 C3103 0.950 . S
C3126 C3127 1.349 . S
C3126 C3128 1.327 . S
C3126 H3151 0.950 . S
C3127 C3126 1.349 . S
C3127 C3143 1.349 . S
C3128 C3126 1.327 . S
C3128 C3147 1.429 . S
C3128 H3152 0.950 . S
C3129 C3146 1.574 . S
C3129 C3148 1.368 . S
C3129 H3153 0.949 . S
H3130 C3134 0.949 . S
C3131 C3132 1.349 . S
C3131 C3133 1.327 . S
C3131 H3154 0.950 . S
C3132 C3131 1.349 . S
C3132 C3144 1.349 . S
C3133 C3131 1.327 . S
C3133 C3149 1.429 . S
C3133 H3155 0.950 . S
C3134 H3130 0.949 . S
C3134 C3142 1.574 . S
C3134 C3150 1.368 . S
H3135 C3143 0.950 . S
H3136 C3141 0.950 . S
H3137 C3142 0.949 . S
H3138 C3144 0.950 . S
H3139 C3145 0.950 . S
H3140 C3146 0.949 . S
C3141 H3136 0.950 . S
C3141 C3143 1.327 . S
C3141 C3147 1.429 . S
C3142 C3134 1.574 . S
C3142 H3137 0.949 . S
C3142 C3148 1.368 . S
C3143 C3127 1.349 . S
C3143 H3135 0.950 . S
C3143 C3141 1.327 . S
C3144 C3132 1.349 . S
C3144 H3138 0.950 . S
C3144 C3145 1.327 . S
C3145 H3139 0.950 . S
C3145 C3144 1.327 . S
C3145 C3149 1.429 . S
C3146 C3129 1.574 . S
C3146 H3140 0.949 . S
C3146 C3150 1.368 . S
C3147 C3128 1.429 . S
C3147 C3141 1.429 . S
C3147 C3148 1.523 . S
C3148 C3129 1.368 . S
C3148 C3142 1.368 . S
C3148 C3147 1.523 . S
C3149 C3133 1.429 . S
C3149 C3145 1.429 . S
C3149 C3150 1.523 . S
C3150 C3134 1.368 . S
C3150 C3146 1.368 . S
C3150 C3149 1.523 . S
H3151 C3126 0.950 . S
H3152 C3128 0.950 . S
H3153 C3129 0.949 . S
H3154 C3131 0.950 . S
H3155 C3133 0.950 . S
C3156 C3157 1.349 . S
C3156 C3158 1.327 . S
C3156 H3181 0.950 . S
C3157 C3156 1.349 . S
C3157 C3173 1.349 . S
C3158 C3156 1.327 . S
C3158 C3177 1.429 . S
C3158 H3182 0.950 . S
C3159 C3176 1.574 . S
C3159 C3178 1.368 . S
C3159 H3183 0.949 . S
H3160 C3164 0.949 . S
C3161 C3162 1.349 . S
C3161 C3163 1.327 . S
C3161 H3184 0.950 . S
C3162 C3161 1.349 . S
C3162 C3174 1.349 . S
C3163 C3161 1.327 . S
C3163 C3179 1.429 . S
C3163 H3185 0.950 . S
C3164 H3160 0.949 . S
C3164 C3172 1.574 . S
C3164 C3180 1.368 . S
H3165 C3173 0.950 . S
H3166 C3171 0.950 . S
H3167 C3172 0.949 . S
H3168 C3174 0.950 . S
H3169 C3175 0.950 . S
H3170 C3176 0.949 . S
C3171 H3166 0.950 . S
C3171 C3173 1.327 . S
C3171 C3177 1.429 . S
C3172 C3164 1.574 . S
C3172 H3167 0.949 . S
C3172 C3178 1.368 . S
C3173 C3157 1.349 . S
C3173 H3165 0.950 . S
C3173 C3171 1.327 . S
C3174 C3162 1.349 . S
C3174 H3168 0.950 . S
C3174 C3175 1.327 . S
C3175 H3169 0.950 . S
C3175 C3174 1.327 . S
C3175 C3179 1.429 . S
C3176 C3159 1.574 . S
C3176 H3170 0.949 . S
C3176 C3180 1.368 . S
C3177 C3158 1.429 . S
C3177 C3171 1.429 . S
C3177 C3178 1.523 . S
C3178 C3159 1.368 . S
C3178 C3172 1.368 . S
C3178 C3177 1.523 . S
C3179 C3163 1.429 . S
C3179 C3175 1.429 . S
C3179 C3180 1.523 . S
C3180 C3164 1.368 . S
C3180 C3176 1.368 . S
C3180 C3179 1.523 . S
H3181 C3156 0.950 . S
H3182 C3158 0.950 . S
H3183 C3159 0.949 . S
H3184 C3161 0.950 . S
H3185 C3163 0.950 . S
C3186 C3187 1.349 . S
C3186 C3188 1.327 . S
C3186 H3211 0.950 . S
C3187 C3186 1.349 . S
C3187 C3203 1.349 . S
C3188 C3186 1.327 . S
C3188 C3207 1.429 . S
C3188 H3212 0.950 . S
C3189 C3206 1.574 . S
C3189 C3208 1.368 . S
C3189 H3213 0.949 . S
H3190 C3194 0.949 . S
C3191 C3192 1.349 . S
C3191 C3193 1.327 . S
C3191 H3214 0.950 . S
C3192 C3191 1.349 . S
C3192 C3204 1.349 . S
C3193 C3191 1.327 . S
C3193 C3209 1.429 . S
C3193 H3215 0.950 . S
C3194 H3190 0.949 . S
C3194 C3202 1.574 . S
C3194 C3210 1.368 . S
H3195 C3203 0.950 . S
H3196 C3201 0.950 . S
H3197 C3202 0.949 . S
H3198 C3204 0.950 . S
H3199 C3205 0.950 . S
H3200 C3206 0.949 . S
C3201 H3196 0.950 . S
C3201 C3203 1.327 . S
C3201 C3207 1.429 . S
C3202 C3194 1.574 . S
C3202 H3197 0.949 . S
C3202 C3208 1.368 . S
C3203 C3187 1.349 . S
C3203 H3195 0.950 . S
C3203 C3201 1.327 . S
C3204 C3192 1.349 . S
C3204 H3198 0.950 . S
C3204 C3205 1.327 . S
C3205 H3199 0.950 . S
C3205 C3204 1.327 . S
C3205 C3209 1.429 . S
C3206 C3189 1.574 . S
C3206 H3200 0.949 . S
C3206 C3210 1.368 . S
C3207 C3188 1.429 . S
C3207 C3201 1.429 . S
C3207 C3208 1.523 . S
C3208 C3189 1.368 . S
C3208 C3202 1.368 . S
C3208 C3207 1.523 . S
C3209 C3193 1.429 . S
C3209 C3205 1.429 . S
C3209 C3210 1.523 . S
C3210 C3194 1.368 . S
C3210 C3206 1.368 . S
C3210 C3209 1.523 . S
H3211 C3186 0.950 . S
H3212 C3188 0.950 . S
H3213 C3189 0.949 . S
H3214 C3191 0.950 . S
H3215 C3193 0.950 . S
C3216 C3217 1.349 . S
C3216 C3218 1.327 . S
C3216 H3241 0.950 . S
C3217 C3216 1.349 . S
C3217 C3233 1.349 . S
C3218 C3216 1.327 . S
C3218 C3237 1.429 . S
C3218 H3242 0.950 . S
C3219 C3236 1.574 . S
C3219 C3238 1.368 . S
C3219 H3243 0.949 . S
H3220 C3224 0.949 . S
C3221 C3222 1.349 . S
C3221 C3223 1.327 . S
C3221 H3244 0.950 . S
C3222 C3221 1.349 . S
C3222 C3234 1.349 . S
C3223 C3221 1.327 . S
C3223 C3239 1.429 . S
C3223 H3245 0.950 . S
C3224 H3220 0.949 . S
C3224 C3232 1.574 . S
C3224 C3240 1.368 . S
H3225 C3233 0.950 . S
H3226 C3231 0.950 . S
H3227 C3232 0.949 . S
H3228 C3234 0.950 . S
H3229 C3235 0.950 . S
H3230 C3236 0.949 . S
C3231 H3226 0.950 . S
C3231 C3233 1.327 . S
C3231 C3237 1.429 . S
C3232 C3224 1.574 . S
C3232 H3227 0.949 . S
C3232 C3238 1.368 . S
C3233 C3217 1.349 . S
C3233 H3225 0.950 . S
C3233 C3231 1.327 . S
C3234 C3222 1.349 . S
C3234 H3228 0.950 . S
C3234 C3235 1.327 . S
C3235 H3229 0.950 . S
C3235 C3234 1.327 . S
C3235 C3239 1.429 . S
C3236 C3219 1.574 . S
C3236 H3230 0.949 . S
C3236 C3240 1.368 . S
C3237 C3218 1.429 . S
C3237 C3231 1.429 . S
C3237 C3238 1.523 . S
C3238 C3219 1.368 . S
C3238 C3232 1.368 . S
C3238 C3237 1.523 . S
C3239 C3223 1.429 . S
C3239 C3235 1.429 . S
C3239 C3240 1.523 . S
C3240 C3224 1.368 . S
C3240 C3236 1.368 . S
C3240 C3239 1.523 . S
H3241 C3216 0.950 . S
H3242 C3218 0.950 . S
H3243 C3219 0.949 . S
H3244 C3221 0.950 . S
H3245 C3223 0.950 . S
C3246 C3247 1.349 . S
C3246 C3248 1.327 . S
C3246 H3271 0.950 . S
C3247 C3246 1.349 . S
C3247 C3263 1.349 . S
C3248 C3246 1.327 . S
C3248 C3267 1.429 . S
C3248 H3272 0.950 . S
C3249 C3266 1.574 . S
C3249 C3268 1.368 . S
C3249 H3273 0.949 . S
H3250 C3254 0.949 . S
C3251 C3252 1.349 . S
C3251 C3253 1.327 . S
C3251 H3274 0.950 . S
C3252 C3251 1.349 . S
C3252 C3264 1.349 . S
C3253 C3251 1.327 . S
C3253 C3269 1.429 . S
C3253 H3275 0.950 . S
C3254 H3250 0.949 . S
C3254 C3262 1.574 . S
C3254 C3270 1.368 . S
H3255 C3263 0.950 . S
H3256 C3261 0.950 . S
H3257 C3262 0.949 . S
H3258 C3264 0.950 . S
H3259 C3265 0.950 . S
H3260 C3266 0.949 . S
C3261 H3256 0.950 . S
C3261 C3263 1.327 . S
C3261 C3267 1.429 . S
C3262 C3254 1.574 . S
C3262 H3257 0.949 . S
C3262 C3268 1.368 . S
C3263 C3247 1.349 . S
C3263 H3255 0.950 . S
C3263 C3261 1.327 . S
C3264 C3252 1.349 . S
C3264 H3258 0.950 . S
C3264 C3265 1.327 . S
C3265 H3259 0.950 . S
C3265 C3264 1.327 . S
C3265 C3269 1.429 . S
C3266 C3249 1.574 . S
C3266 H3260 0.949 . S
C3266 C3270 1.368 . S
C3267 C3248 1.429 . S
C3267 C3261 1.429 . S
C3267 C3268 1.523 . S
C3268 C3249 1.368 . S
C3268 C3262 1.368 . S
C3268 C3267 1.523 . S
C3269 C3253 1.429 . S
C3269 C3265 1.429 . S
C3269 C3270 1.523 . S
C3270 C3254 1.368 . S
C3270 C3266 1.368 . S
C3270 C3269 1.523 . S
H3271 C3246 0.950 . S
H3272 C3248 0.950 . S
H3273 C3249 0.949 . S
H3274 C3251 0.950 . S
H3275 C3253 0.950 . S
C3276 C3277 1.349 . S
C3276 C3278 1.327 . S
C3276 H3301 0.950 . S
C3277 C3276 1.349 . S
C3277 C3293 1.349 . S
C3278 C3276 1.327 . S
C3278 C3297 1.429 . S
C3278 H3302 0.950 . S
C3279 C3296 1.574 . S
C3279 C3298 1.368 . S
C3279 H3303 0.949 . S
H3280 C3284 0.949 . S
C3281 C3282 1.349 . S
C3281 C3283 1.327 . S
C3281 H3304 0.950 . S
C3282 C3281 1.349 . S
C3282 C3294 1.349 . S
C3283 C3281 1.327 . S
C3283 C3299 1.429 . S
C3283 H3305 0.950 . S
C3284 H3280 0.949 . S
C3284 C3292 1.574 . S
C3284 C3300 1.368 . S
H3285 C3293 0.950 . S
H3286 C3291 0.950 . S
H3287 C3292 0.949 . S
H3288 C3294 0.950 . S
H3289 C3295 0.950 . S
H3290 C3296 0.949 . S
C3291 H3286 0.950 . S
C3291 C3293 1.327 . S
C3291 C3297 1.429 . S
C3292 C3284 1.574 . S
C3292 H3287 0.949 . S
C3292 C3298 1.368 . S
C3293 C3277 1.349 . S
C3293 H3285 0.950 . S
C3293 C3291 1.327 . S
C3294 C3282 1.349 . S
C3294 H3288 0.950 . S
C3294 C3295 1.327 . S
C3295 H3289 0.950 . S
C3295 C3294 1.327 . S
C3295 C3299 1.429 . S
C3296 C3279 1.574 . S
C3296 H3290 0.949 . S
C3296 C3300 1.368 . S
C3297 C3278 1.429 . S
C3297 C3291 1.429 . S
C3297 C3298 1.523 . S
C3298 C3279 1.368 . S
C3298 C3292 1.368 . S
C3298 C3297 1.523 . S
C3299 C3283 1.429 . S
C3299 C3295 1.429 . S
C3299 C3300 1.523 . S
C3300 C3284 1.368 . S
C3300 C3296 1.368 . S
C3300 C3299 1.523 . S
H3301 C3276 0.950 . S
H3302 C3278 0.950 . S
H3303 C3279 0.949 . S
H3304 C3281 0.950 . S
H3305 C3283 0.950 . S
C3306 C3307 1.349 . S
C3306 C3308 1.327 . S
C3306 H3331 0.950 . S
C3307 C3306 1.349 . S
C3307 C3323 1.349 . S
C3308 C3306 1.327 . S
C3308 C3327 1.429 . S
C3308 H3332 0.950 . S
C3309 C3326 1.574 . S
C3309 C3328 1.368 . S
C3309 H3333 0.949 . S
H3310 C3314 0.949 . S
C3311 C3312 1.349 . S
C3311 C3313 1.327 . S
C3311 H3334 0.950 . S
C3312 C3311 1.349 . S
C3312 C3324 1.349 . S
C3313 C3311 1.327 . S
C3313 C3329 1.429 . S
C3313 H3335 0.950 . S
C3314 H3310 0.949 . S
C3314 C3322 1.574 . S
C3314 C3330 1.368 . S
H3315 C3323 0.950 . S
H3316 C3321 0.950 . S
H3317 C3322 0.949 . S
H3318 C3324 0.950 . S
H3319 C3325 0.950 . S
H3320 C3326 0.949 . S
C3321 H3316 0.950 . S
C3321 C3323 1.327 . S
C3321 C3327 1.429 . S
C3322 C3314 1.574 . S
C3322 H3317 0.949 . S
C3322 C3328 1.368 . S
C3323 C3307 1.349 . S
C3323 H3315 0.950 . S
C3323 C3321 1.327 . S
C3324 C3312 1.349 . S
C3324 H3318 0.950 . S
C3324 C3325 1.327 . S
C3325 H3319 0.950 . S
C3325 C3324 1.327 . S
C3325 C3329 1.429 . S
C3326 C3309 1.574 . S
C3326 H3320 0.949 . S
C3326 C3330 1.368 . S
C3327 C3308 1.429 . S
C3327 C3321 1.429 . S
C3327 C3328 1.523 . S
C3328 C3309 1.368 . S
C3328 C3322 1.368 . S
C3328 C3327 1.523 . S
C3329 C3313 1.429 . S
C3329 C3325 1.429 . S
C3329 C3330 1.523 . S
C3330 C3314 1.368 . S
C3330 C3326 1.368 . S
C3330 C3329 1.523 . S
H3331 C3306 0.950 . S
H3332 C3308 0.950 . S
H3333 C3309 0.949 . S
H3334 C3311 0.950 . S
H3335 C3313 0.950 . S
C3336 C3337 1.349 . S
C3336 C3338 1.327 . S
C3336 H3361 0.950 . S
C3337 C3336 1.349 . S
C3337 C3353 1.349 . S
C3338 C3336 1.327 . S
C3338 C3357 1.429 . S
C3338 H3362 0.950 . S
C3339 C3356 1.574 . S
C3339 C3358 1.368 . S
C3339 H3363 0.949 . S
H3340 C3344 0.949 . S
C3341 C3342 1.349 . S
C3341 C3343 1.327 . S
C3341 H3364 0.950 . S
C3342 C3341 1.349 . S
C3342 C3354 1.349 . S
C3343 C3341 1.327 . S
C3343 C3359 1.429 . S
C3343 H3365 0.950 . S
C3344 H3340 0.949 . S
C3344 C3352 1.574 . S
C3344 C3360 1.368 . S
H3345 C3353 0.950 . S
H3346 C3351 0.950 . S
H3347 C3352 0.949 . S
H3348 C3354 0.950 . S
H3349 C3355 0.950 . S
H3350 C3356 0.949 . S
C3351 H3346 0.950 . S
C3351 C3353 1.327 . S
C3351 C3357 1.429 . S
C3352 C3344 1.574 . S
C3352 H3347 0.949 . S
C3352 C3358 1.368 . S
C3353 C3337 1.349 . S
C3353 H3345 0.950 . S
C3353 C3351 1.327 . S
C3354 C3342 1.349 . S
C3354 H3348 0.950 . S
C3354 C3355 1.327 . S
C3355 H3349 0.950 . S
C3355 C3354 1.327 . S
C3355 C3359 1.429 . S
C3356 C3339 1.574 . S
C3356 H3350 0.949 . S
C3356 C3360 1.368 . S
C3357 C3338 1.429 . S
C3357 C3351 1.429 . S
C3357 C3358 1.523 . S
C3358 C3339 1.368 . S
C3358 C3352 1.368 . S
C3358 C3357 1.523 . S
C3359 C3343 1.429 . S
C3359 C3355 1.429 . S
C3359 C3360 1.523 . S
C3360 C3344 1.368 . S
C3360 C3356 1.368 . S
C3360 C3359 1.523 . S
H3361 C3336 0.950 . S
H3362 C3338 0.950 . S
H3363 C3339 0.949 . S
H3364 C3341 0.950 . S
H3365 C3343 0.950 . S
C3366 C3367 1.349 . S
C3366 C3368 1.327 . S
C3366 H3391 0.950 . S
C3367 C3366 1.349 . S
C3367 C3383 1.349 . S
C3368 C3366 1.327 . S
C3368 C3387 1.429 . S
C3368 H3392 0.950 . S
C3369 C3386 1.574 . S
C3369 C3388 1.368 . S
C3369 H3393 0.949 . S
H3370 C3374 0.949 . S
C3371 C3372 1.349 . S
C3371 C3373 1.327 . S
C3371 H3394 0.950 . S
C3372 C3371 1.349 . S
C3372 C3384 1.349 . S
C3373 C3371 1.327 . S
C3373 C3389 1.429 . S
C3373 H3395 0.950 . S
C3374 H3370 0.949 . S
C3374 C3382 1.574 . S
C3374 C3390 1.368 . S
H3375 C3383 0.950 . S
H3376 C3381 0.950 . S
H3377 C3382 0.949 . S
H3378 C3384 0.950 . S
H3379 C3385 0.950 . S
H3380 C3386 0.949 . S
C3381 H3376 0.950 . S
C3381 C3383 1.327 . S
C3381 C3387 1.429 . S
C3382 C3374 1.574 . S
C3382 H3377 0.949 . S
C3382 C3388 1.368 . S
C3383 C3367 1.349 . S
C3383 H3375 0.950 . S
C3383 C3381 1.327 . S
C3384 C3372 1.349 . S
C3384 H3378 0.950 . S
C3384 C3385 1.327 . S
C3385 H3379 0.950 . S
C3385 C3384 1.327 . S
C3385 C3389 1.429 . S
C3386 C3369 1.574 . S
C3386 H3380 0.949 . S
C3386 C3390 1.368 . S
C3387 C3368 1.429 . S
C3387 C3381 1.429 . S
C3387 C3388 1.523 . S
C3388 C3369 1.368 . S
C3388 C3382 1.368 . S
C3388 C3387 1.523 . S
C3389 C3373 1.429 . S
C3389 C3385 1.429 . S
C3389 C3390 1.523 . S
C3390 C3374 1.368 . S
C3390 C3386 1.368 . S
C3390 C3389 1.523 . S
H3391 C3366 0.950 . S
H3392 C3368 0.950 . S
H3393 C3369 0.949 . S
H3394 C3371 0.950 . S
H3395 C3373 0.950 . S
C3396 C3397 1.349 . S
C3396 C3398 1.327 . S
C3396 H3421 0.950 . S
C3397 C3396 1.349 . S
C3397 C3413 1.349 . S
C3398 C3396 1.327 . S
C3398 C3417 1.429 . S
C3398 H3422 0.950 . S
C3399 C3416 1.574 . S
C3399 C3418 1.368 . S
C3399 H3423 0.949 . S
H3400 C3404 0.949 . S
C3401 C3402 1.349 . S
C3401 C3403 1.327 . S
C3401 H3424 0.950 . S
C3402 C3401 1.349 . S
C3402 C3414 1.349 . S
C3403 C3401 1.327 . S
C3403 C3419 1.429 . S
C3403 H3425 0.950 . S
C3404 H3400 0.949 . S
C3404 C3412 1.574 . S
C3404 C3420 1.368 . S
H3405 C3413 0.950 . S
H3406 C3411 0.950 . S
H3407 C3412 0.949 . S
H3408 C3414 0.950 . S
H3409 C3415 0.950 . S
H3410 C3416 0.949 . S
C3411 H3406 0.950 . S
C3411 C3413 1.327 . S
C3411 C3417 1.429 . S
C3412 C3404 1.574 . S
C3412 H3407 0.949 . S
C3412 C3418 1.368 . S
C3413 C3397 1.349 . S
C3413 H3405 0.950 . S
C3413 C3411 1.327 . S
C3414 C3402 1.349 . S
C3414 H3408 0.950 . S
C3414 C3415 1.327 . S
C3415 H3409 0.950 . S
C3415 C3414 1.327 . S
C3415 C3419 1.429 . S
C3416 C3399 1.574 . S
C3416 H3410 0.949 . S
C3416 C3420 1.368 . S
C3417 C3398 1.429 . S
C3417 C3411 1.429 . S
C3417 C3418 1.523 . S
C3418 C3399 1.368 . S
C3418 C3412 1.368 . S
C3418 C3417 1.523 . S
C3419 C3403 1.429 . S
C3419 C3415 1.429 . S
C3419 C3420 1.523 . S
C3420 C3404 1.368 . S
C3420 C3416 1.368 . S
C3420 C3419 1.523 . S
H3421 C3396 0.950 . S
H3422 C3398 0.950 . S
H3423 C3399 0.949 . S
H3424 C3401 0.950 . S
H3425 C3403 0.950 . S
C3426 C3427 1.349 . S
C3426 C3428 1.327 . S
C3426 H3451 0.950 . S
C3427 C3426 1.349 . S
C3427 C3443 1.349 . S
C3428 C3426 1.327 . S
C3428 C3447 1.429 . S
C3428 H3452 0.950 . S
C3429 C3446 1.574 . S
C3429 C3448 1.368 . S
C3429 H3453 0.949 . S
H3430 C3434 0.949 . S
C3431 C3432 1.349 . S
C3431 C3433 1.327 . S
C3431 H3454 0.950 . S
C3432 C3431 1.349 . S
C3432 C3444 1.349 . S
C3433 C3431 1.327 . S
C3433 C3449 1.429 . S
C3433 H3455 0.950 . S
C3434 H3430 0.949 . S
C3434 C3442 1.574 . S
C3434 C3450 1.368 . S
H3435 C3443 0.950 . S
H3436 C3441 0.950 . S
H3437 C3442 0.949 . S
H3438 C3444 0.950 . S
H3439 C3445 0.950 . S
H3440 C3446 0.949 . S
C3441 H3436 0.950 . S
C3441 C3443 1.327 . S
C3441 C3447 1.429 . S
C3442 C3434 1.574 . S
C3442 H3437 0.949 . S
C3442 C3448 1.368 . S
C3443 C3427 1.349 . S
C3443 H3435 0.950 . S
C3443 C3441 1.327 . S
C3444 C3432 1.349 . S
C3444 H3438 0.950 . S
C3444 C3445 1.327 . S
C3445 H3439 0.950 . S
C3445 C3444 1.327 . S
C3445 C3449 1.429 . S
C3446 C3429 1.574 . S
C3446 H3440 0.949 . S
C3446 C3450 1.368 . S
C3447 C3428 1.429 . S
C3447 C3441 1.429 . S
C3447 C3448 1.523 . S
C3448 C3429 1.368 . S
C3448 C3442 1.368 . S
C3448 C3447 1.523 . S
C3449 C3433 1.429 . S
C3449 C3445 1.429 . S
C3449 C3450 1.523 . S
C3450 C3434 1.368 . S
C3450 C3446 1.368 . S
C3450 C3449 1.523 . S
H3451 C3426 0.950 . S
H3452 C3428 0.950 . S
H3453 C3429 0.949 . S
H3454 C3431 0.950 . S
H3455 C3433 0.950 . S
C3456 C3457 1.349 . S
C3456 C3458 1.327 . S
C3456 H3481 0.950 . S
C3457 C3456 1.349 . S
C3457 C3473 1.349 . S
C3458 C3456 1.327 . S
C3458 C3477 1.429 . S
C3458 H3482 0.950 . S
C3459 C3476 1.574 . S
C3459 C3478 1.368 . S
C3459 H3483 0.949 . S
H3460 C3464 0.949 . S
C3461 C3462 1.349 . S
C3461 C3463 1.327 . S
C3461 H3484 0.950 . S
C3462 C3461 1.349 . S
C3462 C3474 1.349 . S
C3463 C3461 1.327 . S
C3463 C3479 1.429 . S
C3463 H3485 0.950 . S
C3464 H3460 0.949 . S
C3464 C3472 1.574 . S
C3464 C3480 1.368 . S
H3465 C3473 0.950 . S
H3466 C3471 0.950 . S
H3467 C3472 0.949 . S
H3468 C3474 0.950 . S
H3469 C3475 0.950 . S
H3470 C3476 0.949 . S
C3471 H3466 0.950 . S
C3471 C3473 1.327 . S
C3471 C3477 1.429 . S
C3472 C3464 1.574 . S
C3472 H3467 0.949 . S
C3472 C3478 1.368 . S
C3473 C3457 1.349 . S
C3473 H3465 0.950 . S
C3473 C3471 1.327 . S
C3474 C3462 1.349 . S
C3474 H3468 0.950 . S
C3474 C3475 1.327 . S
C3475 H3469 0.950 . S
C3475 C3474 1.327 . S
C3475 C3479 1.429 . S
C3476 C3459 1.574 . S
C3476 H3470 0.949 . S
C3476 C3480 1.368 . S
C3477 C3458 1.429 . S
C3477 C3471 1.429 . S
C3477 C3478 1.523 . S
C3478 C3459 1.368 . S
C3478 C3472 1.368 . S
C3478 C3477 1.523 . S
C3479 C3463 1.429 . S
C3479 C3475 1.429 . S
C3479 C3480 1.523 . S
C3480 C3464 1.368 . S
C3480 C3476 1.368 . S
C3480 C3479 1.523 . S
H3481 C3456 0.950 . S
H3482 C3458 0.950 . S
H3483 C3459 0.949 . S
H3484 C3461 0.950 . S
H3485 C3463 0.950 . S
C3486 C3487 1.349 . S
C3486 C3488 1.327 . S
C3486 H3511 0.950 . S
C3487 C3486 1.349 . S
C3487 C3503 1.349 . S
C3488 C3486 1.327 . S
C3488 C3507 1.429 . S
C3488 H3512 0.950 . S
C3489 C3506 1.574 . S
C3489 C3508 1.368 . S
C3489 H3513 0.949 . S
H3490 C3494 0.949 . S
C3491 C3492 1.349 . S
C3491 C3493 1.327 . S
C3491 H3514 0.950 . S
C3492 C3491 1.349 . S
C3492 C3504 1.349 . S
C3493 C3491 1.327 . S
C3493 C3509 1.429 . S
C3493 H3515 0.950 . S
C3494 H3490 0.949 . S
C3494 C3502 1.574 . S
C3494 C3510 1.368 . S
H3495 C3503 0.950 . S
H3496 C3501 0.950 . S
H3497 C3502 0.949 . S
H3498 C3504 0.950 . S
H3499 C3505 0.950 . S
H3500 C3506 0.949 . S
C3501 H3496 0.950 . S
C3501 C3503 1.327 . S
C3501 C3507 1.429 . S
C3502 C3494 1.574 . S
C3502 H3497 0.949 . S
C3502 C3508 1.368 . S
C3503 C3487 1.349 . S
C3503 H3495 0.950 . S
C3503 C3501 1.327 . S
C3504 C3492 1.349 . S
C3504 H3498 0.950 . S
C3504 C3505 1.327 . S
C3505 H3499 0.950 . S
C3505 C3504 1.327 . S
C3505 C3509 1.429 . S
C3506 C3489 1.574 . S
C3506 H3500 0.949 . S
C3506 C3510 1.368 . S
C3507 C3488 1.429 . S
C3507 C3501 1.429 . S
C3507 C3508 1.523 . S
C3508 C3489 1.368 . S
C3508 C3502 1.368 . S
C3508 C3507 1.523 . S
C3509 C3493 1.429 . S
C3509 C3505 1.429 . S
C3509 C3510 1.523 . S
C3510 C3494 1.368 . S
C3510 C3506 1.368 . S
C3510 C3509 1.523 . S
H3511 C3486 0.950 . S
H3512 C3488 0.950 . S
H3513 C3489 0.949 . S
H3514 C3491 0.950 . S
H3515 C3493 0.950 . S
C3516 C3517 1.349 . S
C3516 C3518 1.327 . S
C3516 H3541 0.950 . S
C3517 C3516 1.349 . S
C3517 C3533 1.349 . S
C3518 C3516 1.327 . S
C3518 C3537 1.429 . S
C3518 H3542 0.950 . S
C3519 C3536 1.574 . S
C3519 C3538 1.368 . S
C3519 H3543 0.949 . S
H3520 C3524 0.949 . S
C3521 C3522 1.349 . S
C3521 C3523 1.327 . S
C3521 H3544 0.950 . S
C3522 C3521 1.349 . S
C3522 C3534 1.349 . S
C3523 C3521 1.327 . S
C3523 C3539 1.429 . S
C3523 H3545 0.950 . S
C3524 H3520 0.949 . S
C3524 C3532 1.574 . S
C3524 C3540 1.368 . S
H3525 C3533 0.950 . S
H3526 C3531 0.950 . S
H3527 C3532 0.949 . S
H3528 C3534 0.950 . S
H3529 C3535 0.950 . S
H3530 C3536 0.949 . S
C3531 H3526 0.950 . S
C3531 C3533 1.327 . S
C3531 C3537 1.429 . S
C3532 C3524 1.574 . S
C3532 H3527 0.949 . S
C3532 C3538 1.368 . S
C3533 C3517 1.349 . S
C3533 H3525 0.950 . S
C3533 C3531 1.327 . S
C3534 C3522 1.349 . S
C3534 H3528 0.950 . S
C3534 C3535 1.327 . S
C3535 H3529 0.950 . S
C3535 C3534 1.327 . S
C3535 C3539 1.429 . S
C3536 C3519 1.574 . S
C3536 H3530 0.949 . S
C3536 C3540 1.368 . S
C3537 C3518 1.429 . S
C3537 C3531 1.429 . S
C3537 C3538 1.523 . S
C3538 C3519 1.368 . S
C3538 C3532 1.368 . S
C3538 C3537 1.523 . S
C3539 C3523 1.429 . S
C3539 C3535 1.429 . S
C3539 C3540 1.523 . S
C3540 C3524 1.368 . S
C3540 C3536 1.368 . S
C3540 C3539 1.523 . S
H3541 C3516 0.950 . S
H3542 C3518 0.950 . S
H3543 C3519 0.949 . S
H3544 C3521 0.950 . S
H3545 C3523 0.950 . S
C3546 C3547 1.349 . S
C3546 C3548 1.327 . S
C3546 H3571 0.950 . S
C3547 C3546 1.349 . S
C3547 C3563 1.349 . S
C3548 C3546 1.327 . S
C3548 C3567 1.429 . S
C3548 H3572 0.950 . S
C3549 C3566 1.574 . S
C3549 C3568 1.368 . S
C3549 H3573 0.949 . S
H3550 C3554 0.949 . S
C3551 C3552 1.349 . S
C3551 C3553 1.327 . S
C3551 H3574 0.950 . S
C3552 C3551 1.349 . S
C3552 C3564 1.349 . S
C3553 C3551 1.327 . S
C3553 C3569 1.429 . S
C3553 H3575 0.950 . S
C3554 H3550 0.949 . S
C3554 C3562 1.574 . S
C3554 C3570 1.368 . S
H3555 C3563 0.950 . S
H3556 C3561 0.950 . S
H3557 C3562 0.949 . S
H3558 C3564 0.950 . S
H3559 C3565 0.950 . S
H3560 C3566 0.949 . S
C3561 H3556 0.950 . S
C3561 C3563 1.327 . S
C3561 C3567 1.429 . S
C3562 C3554 1.574 . S
C3562 H3557 0.949 . S
C3562 C3568 1.368 . S
C3563 C3547 1.349 . S
C3563 H3555 0.950 . S
C3563 C3561 1.327 . S
C3564 C3552 1.349 . S
C3564 H3558 0.950 . S
C3564 C3565 1.327 . S
C3565 H3559 0.950 . S
C3565 C3564 1.327 . S
C3565 C3569 1.429 . S
C3566 C3549 1.574 . S
C3566 H3560 0.949 . S
C3566 C3570 1.368 . S
C3567 C3548 1.429 . S
C3567 C3561 1.429 . S
C3567 C3568 1.523 . S
C3568 C3549 1.368 . S
C3568 C3562 1.368 . S
C3568 C3567 1.523 . S
C3569 C3553 1.429 . S
C3569 C3565 1.429 . S
C3569 C3570 1.523 . S
C3570 C3554 1.368 . S
C3570 C3566 1.368 . S
C3570 C3569 1.523 . S
H3571 C3546 0.950 . S
H3572 C3548 0.950 . S
H3573 C3549 0.949 . S
H3574 C3551 0.950 . S
H3575 C3553 0.950 . S
C3576 C3577 1.349 . S
C3576 C3578 1.327 . S
C3576 H3601 0.950 . S
C3577 C3576 1.349 . S
C3577 C3593 1.349 . S
C3578 C3576 1.327 . S
C3578 C3597 1.429 . S
C3578 H3602 0.950 . S
C3579 C3596 1.574 . S
C3579 C3598 1.368 . S
C3579 H3603 0.949 . S
H3580 C3584 0.949 . S
C3581 C3582 1.349 . S
C3581 C3583 1.327 . S
C3581 H3604 0.950 . S
C3582 C3581 1.349 . S
C3582 C3594 1.349 . S
C3583 C3581 1.327 . S
C3583 C3599 1.429 . S
C3583 H3605 0.950 . S
C3584 H3580 0.949 . S
C3584 C3592 1.574 . S
C3584 C3600 1.368 . S
H3585 C3593 0.950 . S
H3586 C3591 0.950 . S
H3587 C3592 0.949 . S
H3588 C3594 0.950 . S
H3589 C3595 0.950 . S
H3590 C3596 0.949 . S
C3591 H3586 0.950 . S
C3591 C3593 1.327 . S
C3591 C3597 1.429 . S
C3592 C3584 1.574 . S
C3592 H3587 0.949 . S
C3592 C3598 1.368 . S
C3593 C3577 1.349 . S
C3593 H3585 0.950 . S
C3593 C3591 1.327 . S
C3594 C3582 1.349 . S
C3594 H3588 0.950 . S
C3594 C3595 1.327 . S
C3595 H3589 0.950 . S
C3595 C3594 1.327 . S
C3595 C3599 1.429 . S
C3596 C3579 1.574 . S
C3596 H3590 0.949 . S
C3596 C3600 1.368 . S
C3597 C3578 1.429 . S
C3597 C3591 1.429 . S
C3597 C3598 1.523 . S
C3598 C3579 1.368 . S
C3598 C3592 1.368 . S
C3598 C3597 1.523 . S
C3599 C3583 1.429 . S
C3599 C3595 1.429 . S
C3599 C3600 1.523 . S
C3600 C3584 1.368 . S
C3600 C3596 1.368 . S
C3600 C3599 1.523 . S
H3601 C3576 0.950 . S
H3602 C3578 0.950 . S
H3603 C3579 0.949 . S
H3604 C3581 0.950 . S
H3605 C3583 0.950 . S
C3606 C3607 1.349 . S
C3606 C3608 1.327 . S
C3606 H3631 0.950 . S
C3607 C3606 1.349 . S
C3607 C3623 1.349 . S
C3608 C3606 1.327 . S
C3608 C3627 1.429 . S
C3608 H3632 0.950 . S
C3609 C3626 1.574 . S
C3609 C3628 1.368 . S
C3609 H3633 0.949 . S
H3610 C3614 0.949 . S
C3611 C3612 1.349 . S
C3611 C3613 1.327 . S
C3611 H3634 0.950 . S
C3612 C3611 1.349 . S
C3612 C3624 1.349 . S
C3613 C3611 1.327 . S
C3613 C3629 1.429 . S
C3613 H3635 0.950 . S
C3614 H3610 0.949 . S
C3614 C3622 1.574 . S
C3614 C3630 1.368 . S
H3615 C3623 0.950 . S
H3616 C3621 0.950 . S
H3617 C3622 0.949 . S
H3618 C3624 0.950 . S
H3619 C3625 0.950 . S
H3620 C3626 0.949 . S
C3621 H3616 0.950 . S
C3621 C3623 1.327 . S
C3621 C3627 1.429 . S
C3622 C3614 1.574 . S
C3622 H3617 0.949 . S
C3622 C3628 1.368 . S
C3623 C3607 1.349 . S
C3623 H3615 0.950 . S
C3623 C3621 1.327 . S
C3624 C3612 1.349 . S
C3624 H3618 0.950 . S
C3624 C3625 1.327 . S
C3625 H3619 0.950 . S
C3625 C3624 1.327 . S
C3625 C3629 1.429 . S
C3626 C3609 1.574 . S
C3626 H3620 0.949 . S
C3626 C3630 1.368 . S
C3627 C3608 1.429 . S
C3627 C3621 1.429 . S
C3627 C3628 1.523 . S
C3628 C3609 1.368 . S
C3628 C3622 1.368 . S
C3628 C3627 1.523 . S
C3629 C3613 1.429 . S
C3629 C3625 1.429 . S
C3629 C3630 1.523 . S
C3630 C3614 1.368 . S
C3630 C3626 1.368 . S
C3630 C3629 1.523 . S
H3631 C3606 0.950 . S
H3632 C3608 0.950 . S
H3633 C3609 0.949 . S
H3634 C3611 0.950 . S
H3635 C3613 0.950 . S
C3636 C3637 1.349 . S
C3636 C3638 1.327 . S
C3636 H3661 0.950 . S
C3637 C3636 1.349 . S
C3637 C3653 1.349 . S
C3638 C3636 1.327 . S
C3638 C3657 1.429 . S
C3638 H3662 0.950 . S
C3639 C3656 1.574 . S
C3639 C3658 1.368 . S
C3639 H3663 0.949 . S
H3640 C3644 0.949 . S
C3641 C3642 1.349 . S
C3641 C3643 1.327 . S
C3641 H3664 0.950 . S
C3642 C3641 1.349 . S
C3642 C3654 1.349 . S
C3643 C3641 1.327 . S
C3643 C3659 1.429 . S
C3643 H3665 0.950 . S
C3644 H3640 0.949 . S
C3644 C3652 1.574 . S
C3644 C3660 1.368 . S
H3645 C3653 0.950 . S
H3646 C3651 0.950 . S
H3647 C3652 0.949 . S
H3648 C3654 0.950 . S
H3649 C3655 0.950 . S
H3650 C3656 0.949 . S
C3651 H3646 0.950 . S
C3651 C3653 1.327 . S
C3651 C3657 1.429 . S
C3652 C3644 1.574 . S
C3652 H3647 0.949 . S
C3652 C3658 1.368 . S
C3653 C3637 1.349 . S
C3653 H3645 0.950 . S
C3653 C3651 1.327 . S
C3654 C3642 1.349 . S
C3654 H3648 0.950 . S
C3654 C3655 1.327 . S
C3655 H3649 0.950 . S
C3655 C3654 1.327 . S
C3655 C3659 1.429 . S
C3656 C3639 1.574 . S
C3656 H3650 0.949 . S
C3656 C3660 1.368 . S
C3657 C3638 1.429 . S
C3657 C3651 1.429 . S
C3657 C3658 1.523 . S
C3658 C3639 1.368 . S
C3658 C3652 1.368 . S
C3658 C3657 1.523 . S
C3659 C3643 1.429 . S
C3659 C3655 1.429 . S
C3659 C3660 1.523 . S
C3660 C3644 1.368 . S
C3660 C3656 1.368 . S
C3660 C3659 1.523 . S
H3661 C3636 0.950 . S
H3662 C3638 0.950 . S
H3663 C3639 0.949 . S
H3664 C3641 0.950 . S
H3665 C3643 0.950 . S
C3666 C3667 1.349 . S
C3666 C3668 1.327 . S
C3666 H3691 0.950 . S
C3667 C3666 1.349 . S
C3667 C3683 1.349 . S
C3668 C3666 1.327 . S
C3668 C3687 1.429 . S
C3668 H3692 0.950 . S
C3669 C3686 1.574 . S
C3669 C3688 1.368 . S
C3669 H3693 0.949 . S
H3670 C3674 0.949 . S
C3671 C3672 1.349 . S
C3671 C3673 1.327 . S
C3671 H3694 0.950 . S
C3672 C3671 1.349 . S
C3672 C3684 1.349 . S
C3673 C3671 1.327 . S
C3673 C3689 1.429 . S
C3673 H3695 0.950 . S
C3674 H3670 0.949 . S
C3674 C3682 1.574 . S
C3674 C3690 1.368 . S
H3675 C3683 0.950 . S
H3676 C3681 0.950 . S
H3677 C3682 0.949 . S
H3678 C3684 0.950 . S
H3679 C3685 0.950 . S
H3680 C3686 0.949 . S
C3681 H3676 0.950 . S
C3681 C3683 1.327 . S
C3681 C3687 1.429 . S
C3682 C3674 1.574 . S
C3682 H3677 0.949 . S
C3682 C3688 1.368 . S
C3683 C3667 1.349 . S
C3683 H3675 0.950 . S
C3683 C3681 1.327 . S
C3684 C3672 1.349 . S
C3684 H3678 0.950 . S
C3684 C3685 1.327 . S
C3685 H3679 0.950 . S
C3685 C3684 1.327 . S
C3685 C3689 1.429 . S
C3686 C3669 1.574 . S
C3686 H3680 0.949 . S
C3686 C3690 1.368 . S
C3687 C3668 1.429 . S
C3687 C3681 1.429 . S
C3687 C3688 1.523 . S
C3688 C3669 1.368 . S
C3688 C3682 1.368 . S
C3688 C3687 1.523 . S
C3689 C3673 1.429 . S
C3689 C3685 1.429 . S
C3689 C3690 1.523 . S
C3690 C3674 1.368 . S
C3690 C3686 1.368 . S
C3690 C3689 1.523 . S
H3691 C3666 0.950 . S
H3692 C3668 0.950 . S
H3693 C3669 0.949 . S
H3694 C3671 0.950 . S
H3695 C3673 0.950 . S
C3696 C3697 1.349 . S
C3696 C3698 1.327 . S
C3696 H3721 0.950 . S
C3697 C3696 1.349 . S
C3697 C3713 1.349 . S
C3698 C3696 1.327 . S
C3698 C3717 1.429 . S
C3698 H3722 0.950 . S
C3699 C3716 1.574 . S
C3699 C3718 1.368 . S
C3699 H3723 0.949 . S
H3700 C3704 0.949 . S
C3701 C3702 1.349 . S
C3701 C3703 1.327 . S
C3701 H3724 0.950 . S
C3702 C3701 1.349 . S
C3702 C3714 1.349 . S
C3703 C3701 1.327 . S
C3703 C3719 1.429 . S
C3703 H3725 0.950 . S
C3704 H3700 0.949 . S
C3704 C3712 1.574 . S
C3704 C3720 1.368 . S
H3705 C3713 0.950 . S
H3706 C3711 0.950 . S
H3707 C3712 0.949 . S
H3708 C3714 0.950 . S
H3709 C3715 0.950 . S
H3710 C3716 0.949 . S
C3711 H3706 0.950 . S
C3711 C3713 1.327 . S
C3711 C3717 1.429 . S
C3712 C3704 1.574 . S
C3712 H3707 0.949 . S
C3712 C3718 1.368 . S
C3713 C3697 1.349 . S
C3713 H3705 0.950 . S
C3713 C3711 1.327 . S
C3714 C3702 1.349 . S
C3714 H3708 0.950 . S
C3714 C3715 1.327 . S
C3715 H3709 0.950 . S
C3715 C3714 1.327 . S
C3715 C3719 1.429 . S
C3716 C3699 1.574 . S
C3716 H3710 0.949 . S
C3716 C3720 1.368 . S
C3717 C3698 1.429 . S
C3717 C3711 1.429 . S
C3717 C3718 1.523 . S
C3718 C3699 1.368 . S
C3718 C3712 1.368 . S
C3718 C3717 1.523 . S
C3719 C3703 1.429 . S
C3719 C3715 1.429 . S
C3719 C3720 1.523 . S
C3720 C3704 1.368 . S
C3720 C3716 1.368 . S
C3720 C3719 1.523 . S
H3721 C3696 0.950 . S
H3722 C3698 0.950 . S
H3723 C3699 0.949 . S
H3724 C3701 0.950 . S
H3725 C3703 0.950 . S
C3726 C3727 1.349 . S
C3726 C3728 1.327 . S
C3726 H3751 0.950 . S
C3727 C3726 1.349 . S
C3727 C3743 1.349 . S
C3728 C3726 1.327 . S
C3728 C3747 1.429 . S
C3728 H3752 0.950 . S
C3729 C3746 1.574 . S
C3729 C3748 1.368 . S
C3729 H3753 0.949 . S
H3730 C3734 0.949 . S
C3731 C3732 1.349 . S
C3731 C3733 1.327 . S
C3731 H3754 0.950 . S
C3732 C3731 1.349 . S
C3732 C3744 1.349 . S
C3733 C3731 1.327 . S
C3733 C3749 1.429 . S
C3733 H3755 0.950 . S
C3734 H3730 0.949 . S
C3734 C3742 1.574 . S
C3734 C3750 1.368 . S
H3735 C3743 0.950 . S
H3736 C3741 0.950 . S
H3737 C3742 0.949 . S
H3738 C3744 0.950 . S
H3739 C3745 0.950 . S
H3740 C3746 0.949 . S
C3741 H3736 0.950 . S
C3741 C3743 1.327 . S
C3741 C3747 1.429 . S
C3742 C3734 1.574 . S
C3742 H3737 0.949 . S
C3742 C3748 1.368 . S
C3743 C3727 1.349 . S
C3743 H3735 0.950 . S
C3743 C3741 1.327 . S
C3744 C3732 1.349 . S
C3744 H3738 0.950 . S
C3744 C3745 1.327 . S
C3745 H3739 0.950 . S
C3745 C3744 1.327 . S
C3745 C3749 1.429 . S
C3746 C3729 1.574 . S
C3746 H3740 0.949 . S
C3746 C3750 1.368 . S
C3747 C3728 1.429 . S
C3747 C3741 1.429 . S
C3747 C3748 1.523 . S
C3748 C3729 1.368 . S
C3748 C3742 1.368 . S
C3748 C3747 1.523 . S
C3749 C3733 1.429 . S
C3749 C3745 1.429 . S
C3749 C3750 1.523 . S
C3750 C3734 1.368 . S
C3750 C3746 1.368 . S
C3750 C3749 1.523 . S
H3751 C3726 0.950 . S
H3752 C3728 0.950 . S
H3753 C3729 0.949 . S
H3754 C3731 0.950 . S
H3755 C3733 0.950 . S
C3756 C3757 1.349 . S
C3756 C3758 1.327 . S
C3756 H3781 0.950 . S
C3757 C3756 1.349 . S
C3757 C3773 1.349 . S
C3758 C3756 1.327 . S
C3758 C3777 1.429 . S
C3758 H3782 0.950 . S
C3759 C3776 1.574 . S
C3759 C3778 1.368 . S
C3759 H3783 0.949 . S
H3760 C3764 0.949 . S
C3761 C3762 1.349 . S
C3761 C3763 1.327 . S
C3761 H3784 0.950 . S
C3762 C3761 1.349 . S
C3762 C3774 1.349 . S
C3763 C3761 1.327 . S
C3763 C3779 1.429 . S
C3763 H3785 0.950 . S
C3764 H3760 0.949 . S
C3764 C3772 1.574 . S
C3764 C3780 1.368 . S
H3765 C3773 0.950 . S
H3766 C3771 0.950 . S
H3767 C3772 0.949 . S
H3768 C3774 0.950 . S
H3769 C3775 0.950 . S
H3770 C3776 0.949 . S
C3771 H3766 0.950 . S
C3771 C3773 1.327 . S
C3771 C3777 1.429 . S
C3772 C3764 1.574 . S
C3772 H3767 0.949 . S
C3772 C3778 1.368 . S
C3773 C3757 1.349 . S
C3773 H3765 0.950 . S
C3773 C3771 1.327 . S
C3774 C3762 1.349 . S
C3774 H3768 0.950 . S
C3774 C3775 1.327 . S
C3775 H3769 0.950 . S
C3775 C3774 1.327 . S
C3775 C3779 1.429 . S
C3776 C3759 1.574 . S
C3776 H3770 0.949 . S
C3776 C3780 1.368 . S
C3777 C3758 1.429 . S
C3777 C3771 1.429 . S
C3777 C3778 1.523 . S
C3778 C3759 1.368 . S
C3778 C3772 1.368 . S
C3778 C3777 1.523 . S
C3779 C3763 1.429 . S
C3779 C3775 1.429 . S
C3779 C3780 1.523 . S
C3780 C3764 1.368 . S
C3780 C3776 1.368 . S
C3780 C3779 1.523 . S
H3781 C3756 0.950 . S
H3782 C3758 0.950 . S
H3783 C3759 0.949 . S
H3784 C3761 0.950 . S
H3785 C3763 0.950 . S
C3786 C3787 1.349 . S
C3786 C3788 1.327 . S
C3786 H3811 0.950 . S
C3787 C3786 1.349 . S
C3787 C3803 1.349 . S
C3788 C3786 1.327 . S
C3788 C3807 1.429 . S
C3788 H3812 0.950 . S
C3789 C3806 1.574 . S
C3789 C3808 1.368 . S
C3789 H3813 0.949 . S
H3790 C3794 0.949 . S
C3791 C3792 1.349 . S
C3791 C3793 1.327 . S
C3791 H3814 0.950 . S
C3792 C3791 1.349 . S
C3792 C3804 1.349 . S
C3793 C3791 1.327 . S
C3793 C3809 1.429 . S
C3793 H3815 0.950 . S
C3794 H3790 0.949 . S
C3794 C3802 1.574 . S
C3794 C3810 1.368 . S
H3795 C3803 0.950 . S
H3796 C3801 0.950 . S
H3797 C3802 0.949 . S
H3798 C3804 0.950 . S
H3799 C3805 0.950 . S
H3800 C3806 0.949 . S
C3801 H3796 0.950 . S
C3801 C3803 1.327 . S
C3801 C3807 1.429 . S
C3802 C3794 1.574 . S
C3802 H3797 0.949 . S
C3802 C3808 1.368 . S
C3803 C3787 1.349 . S
C3803 H3795 0.950 . S
C3803 C3801 1.327 . S
C3804 C3792 1.349 . S
C3804 H3798 0.950 . S
C3804 C3805 1.327 . S
C3805 H3799 0.950 . S
C3805 C3804 1.327 . S
C3805 C3809 1.429 . S
C3806 C3789 1.574 . S
C3806 H3800 0.949 . S
C3806 C3810 1.368 . S
C3807 C3788 1.429 . S
C3807 C3801 1.429 . S
C3807 C3808 1.523 . S
C3808 C3789 1.368 . S
C3808 C3802 1.368 . S
C3808 C3807 1.523 . S
C3809 C3793 1.429 . S
C3809 C3805 1.429 . S
C3809 C3810 1.523 . S
C3810 C3794 1.368 . S
C3810 C3806 1.368 . S
C3810 C3809 1.523 . S
H3811 C3786 0.950 . S
H3812 C3788 0.950 . S
H3813 C3789 0.949 . S
H3814 C3791 0.950 . S
H3815 C3793 0.950 . S
C3816 C3817 1.349 . S
C3816 C3818 1.327 . S
C3816 H3841 0.950 . S
C3817 C3816 1.349 . S
C3817 C3833 1.349 . S
C3818 C3816 1.327 . S
C3818 C3837 1.429 . S
C3818 H3842 0.950 . S
C3819 C3836 1.574 . S
C3819 C3838 1.368 . S
C3819 H3843 0.949 . S
H3820 C3824 0.949 . S
C3821 C3822 1.349 . S
C3821 C3823 1.327 . S
C3821 H3844 0.950 . S
C3822 C3821 1.349 . S
C3822 C3834 1.349 . S
C3823 C3821 1.327 . S
C3823 C3839 1.429 . S
C3823 H3845 0.950 . S
C3824 H3820 0.949 . S
C3824 C3832 1.574 . S
C3824 C3840 1.368 . S
H3825 C3833 0.950 . S
H3826 C3831 0.950 . S
H3827 C3832 0.949 . S
H3828 C3834 0.950 . S
H3829 C3835 0.950 . S
H3830 C3836 0.949 . S
C3831 H3826 0.950 . S
C3831 C3833 1.327 . S
C3831 C3837 1.429 . S
C3832 C3824 1.574 . S
C3832 H3827 0.949 . S
C3832 C3838 1.368 . S
C3833 C3817 1.349 . S
C3833 H3825 0.950 . S
C3833 C3831 1.327 . S
C3834 C3822 1.349 . S
C3834 H3828 0.950 . S
C3834 C3835 1.327 . S
C3835 H3829 0.950 . S
C3835 C3834 1.327 . S
C3835 C3839 1.429 . S
C3836 C3819 1.574 . S
C3836 H3830 0.949 . S
C3836 C3840 1.368 . S
C3837 C3818 1.429 . S
C3837 C3831 1.429 . S
C3837 C3838 1.523 . S
C3838 C3819 1.368 . S
C3838 C3832 1.368 . S
C3838 C3837 1.523 . S
C3839 C3823 1.429 . S
C3839 C3835 1.429 . S
C3839 C3840 1.523 . S
C3840 C3824 1.368 . S
C3840 C3836 1.368 . S
C3840 C3839 1.523 . S
H3841 C3816 0.950 . S
H3842 C3818 0.950 . S
H3843 C3819 0.949 . S
H3844 C3821 0.950 . S
H3845 C3823 0.950 . S
C3846 C3847 1.349 . S
C3846 C3848 1.327 . S
C3846 H3871 0.950 . S
C3847 C3846 1.349 . S
C3847 C3863 1.349 . S
C3848 C3846 1.327 . S
C3848 C3867 1.429 . S
C3848 H3872 0.950 . S
C3849 C3866 1.574 . S
C3849 C3868 1.368 . S
C3849 H3873 0.949 . S
H3850 C3854 0.949 . S
C3851 C3852 1.349 . S
C3851 C3853 1.327 . S
C3851 H3874 0.950 . S
C3852 C3851 1.349 . S
C3852 C3864 1.349 . S
C3853 C3851 1.327 . S
C3853 C3869 1.429 . S
C3853 H3875 0.950 . S
C3854 H3850 0.949 . S
C3854 C3862 1.574 . S
C3854 C3870 1.368 . S
H3855 C3863 0.950 . S
H3856 C3861 0.950 . S
H3857 C3862 0.949 . S
H3858 C3864 0.950 . S
H3859 C3865 0.950 . S
H3860 C3866 0.949 . S
C3861 H3856 0.950 . S
C3861 C3863 1.327 . S
C3861 C3867 1.429 . S
C3862 C3854 1.574 . S
C3862 H3857 0.949 . S
C3862 C3868 1.368 . S
C3863 C3847 1.349 . S
C3863 H3855 0.950 . S
C3863 C3861 1.327 . S
C3864 C3852 1.349 . S
C3864 H3858 0.950 . S
C3864 C3865 1.327 . S
C3865 H3859 0.950 . S
C3865 C3864 1.327 . S
C3865 C3869 1.429 . S
C3866 C3849 1.574 . S
C3866 H3860 0.949 . S
C3866 C3870 1.368 . S
C3867 C3848 1.429 . S
C3867 C3861 1.429 . S
C3867 C3868 1.523 . S
C3868 C3849 1.368 . S
C3868 C3862 1.368 . S
C3868 C3867 1.523 . S
C3869 C3853 1.429 . S
C3869 C3865 1.429 . S
C3869 C3870 1.523 . S
C3870 C3854 1.368 . S
C3870 C3866 1.368 . S
C3870 C3869 1.523 . S
H3871 C3846 0.950 . S
H3872 C3848 0.950 . S
H3873 C3849 0.949 . S
H3874 C3851 0.950 . S
H3875 C3853 0.950 . S
C3876 C3877 1.349 . S
C3876 C3878 1.327 . S
C3876 H3901 0.950 . S
C3877 C3876 1.349 . S
C3877 C3893 1.349 . S
C3878 C3876 1.327 . S
C3878 C3897 1.429 . S
C3878 H3902 0.950 . S
C3879 C3896 1.604 1_565 S
C3879 C3898 1.397 . S
C3879 H3903 0.902 1_565 S
H3880 C3884 0.949 . S
C3881 C3882 1.349 1_545 S
C3881 C3883 1.327 . S
C3881 H3904 0.950 . S
C3882 C3881 1.349 1_565 S
C3882 C3894 1.349 . S
C3883 C3881 1.327 . S
C3883 C3899 1.429 1_545 S
C3883 H3905 0.950 . S
C3884 H3880 0.949 . S
C3884 C3892 1.574 . S
C3884 C3900 1.368 . S
H3885 C3893 0.950 1_545 S
H3886 C3891 0.950 1_545 S
H3887 C3892 0.949 . S
H3888 C3894 0.950 . S
H3889 C3895 0.950 . S
H3890 C3896 0.948 . S
C3891 H3886 0.950 1_565 S
C3891 C3893 1.327 . S
C3891 C3897 1.429 . S
C3892 C3884 1.574 . S
C3892 H3887 0.949 . S
C3892 C3898 1.368 . S
C3893 C3877 1.349 . S
C3893 H3885 0.950 1_565 S
C3893 C3891 1.327 . S
C3894 C3882 1.349 . S
C3894 H3888 0.950 . S
C3894 C3895 1.327 . S
C3895 H3889 0.950 . S
C3895 C3894 1.327 . S
C3895 C3899 1.429 . S
C3896 C3879 1.604 1_545 S
C3896 H3890 0.948 . S
C3896 C3900 1.370 1_545 S
C3897 C3878 1.429 . S
C3897 C3891 1.429 . S
C3897 C3898 1.523 . S
C3898 C3879 1.397 . S
C3898 C3892 1.368 . S
C3898 C3897 1.523 . S
C3899 C3883 1.429 1_565 S
C3899 C3895 1.429 . S
C3899 C3900 1.523 . S
C3900 C3884 1.368 . S
C3900 C3896 1.370 1_565 S
C3900 C3899 1.523 . S
H3901 C3876 0.950 . S
H3902 C3878 0.950 . S
H3903 C3879 0.902 1_545 S
H3904 C3881 0.950 . S
H3905 C3883 0.950 . S
C3906 C3907 1.349 . S
C3906 C3908 1.327 . S
C3906 H3931 0.950 . S
C3907 C3906 1.349 . S
C3907 C3923 1.349 . S
C3908 C3906 1.327 . S
C3908 C3927 1.429 . S
C3908 H3932 0.950 . S
C3909 C3926 1.574 . S
C3909 C3928 1.368 . S
C3909 H3933 0.949 . S
H3910 C3914 0.949 . S
C3911 C3912 1.349 . S
C3911 C3913 1.327 . S
C3911 H3934 0.950 . S
C3912 C3911 1.349 . S
C3912 C3924 1.349 . S
C3913 C3911 1.327 . S
C3913 C3929 1.429 . S
C3913 H3935 0.950 . S
C3914 H3910 0.949 . S
C3914 C3922 1.574 . S
C3914 C3930 1.368 . S
H3915 C3923 0.950 . S
H3916 C3921 0.950 . S
H3917 C3922 0.949 . S
H3918 C3924 0.950 . S
H3919 C3925 0.950 . S
H3920 C3926 0.949 . S
C3921 H3916 0.950 . S
C3921 C3923 1.327 . S
C3921 C3927 1.429 . S
C3922 C3914 1.574 . S
C3922 H3917 0.949 . S
C3922 C3928 1.368 . S
C3923 C3907 1.349 . S
C3923 H3915 0.950 . S
C3923 C3921 1.327 . S
C3924 C3912 1.349 . S
C3924 H3918 0.950 . S
C3924 C3925 1.327 . S
C3925 H3919 0.950 . S
C3925 C3924 1.327 . S
C3925 C3929 1.429 . S
C3926 C3909 1.574 . S
C3926 H3920 0.949 . S
C3926 C3930 1.368 . S
C3927 C3908 1.429 . S
C3927 C3921 1.429 . S
C3927 C3928 1.523 . S
C3928 C3909 1.368 . S
C3928 C3922 1.368 . S
C3928 C3927 1.523 . S
C3929 C3913 1.429 . S
C3929 C3925 1.429 . S
C3929 C3930 1.523 . S
C3930 C3914 1.368 . S
C3930 C3926 1.368 . S
C3930 C3929 1.523 . S
H3931 C3906 0.950 . S
H3932 C3908 0.950 . S
H3933 C3909 0.949 . S
H3934 C3911 0.950 . S
H3935 C3913 0.950 . S
C3936 C3937 1.358 . S
C3936 C3938 1.332 1_455 S
C3936 H3961 0.936 1_455 S
C3937 C3936 1.358 . S
C3937 C3953 1.349 . S
C3938 C3936 1.332 1_655 S
C3938 C3957 1.429 1_655 S
C3938 H3962 0.950 . S
C3939 C3956 1.574 . S
C3939 C3958 1.368 . S
C3939 H3963 0.949 . S
H3940 C3944 0.949 . S
C3941 C3942 1.349 . S
C3941 C3943 1.327 . S
C3941 H3964 0.950 . S
C3942 C3941 1.349 . S
C3942 C3954 1.349 1_455 S
C3943 C3941 1.327 . S
C3943 C3959 1.429 . S
C3943 H3965 0.950 . S
C3944 H3940 0.949 . S
C3944 C3952 1.574 . S
C3944 C3960 1.368 1_655 S
H3945 C3953 0.950 . S
H3946 C3951 0.950 . S
H3947 C3952 0.949 . S
H3948 C3954 0.950 . S
H3949 C3955 0.950 . S
H3950 C3956 0.949 . S
C3951 H3946 0.950 . S
C3951 C3953 1.327 . S
C3951 C3957 1.429 . S
C3952 C3944 1.574 . S
C3952 H3947 0.949 . S
C3952 C3958 1.368 1_655 S
C3953 C3937 1.349 . S
C3953 H3945 0.950 . S
C3953 C3951 1.327 . S
C3954 C3942 1.349 1_655 S
C3954 H3948 0.950 . S
C3954 C3955 1.327 . S
C3955 H3949 0.950 . S
C3955 C3954 1.327 . S
C3955 C3959 1.429 1_655 S
C3956 C3939 1.574 . S
C3956 H3950 0.949 . S
C3956 C3960 1.368 . S
C3957 C3938 1.429 1_455 S
C3957 C3951 1.429 . S
C3957 C3958 1.523 . S
C3958 C3939 1.368 . S
C3958 C3952 1.368 1_455 S
C3958 C3957 1.523 . S
C3959 C3943 1.429 . S
C3959 C3955 1.429 1_455 S
C3959 C3960 1.523 . S
C3960 C3944 1.368 1_455 S
C3960 C3956 1.368 . S
C3960 C3959 1.523 . S
H3961 C3936 0.936 1_655 S
H3962 C3938 0.950 . S
H3963 C3939 0.949 . S
H3964 C3941 0.950 . S
H3965 C3943 0.950 . S
C3966 C3967 1.349 . S
C3966 C3968 1.327 . S
C3966 H3991 0.950 . S
C3967 C3966 1.349 . S
C3967 C3983 1.349 . S
C3968 C3966 1.327 . S
C3968 C3987 1.429 . S
C3968 H3992 0.950 . S
C3969 C3986 1.574 . S
C3969 C3988 1.368 . S
C3969 H3993 0.949 . S
H3970 C3974 0.949 . S
C3971 C3972 1.349 . S
C3971 C3973 1.327 . S
C3971 H3994 0.950 . S
C3972 C3971 1.349 . S
C3972 C3984 1.349 . S
C3973 C3971 1.327 . S
C3973 C3989 1.429 . S
C3973 H3995 0.950 . S
C3974 H3970 0.949 . S
C3974 C3982 1.574 . S
C3974 C3990 1.368 . S
H3975 C3983 0.950 . S
H3976 C3981 0.950 . S
H3977 C3982 0.949 . S
H3978 C3984 0.950 . S
H3979 C3985 0.950 . S
H3980 C3986 0.949 . S
C3981 H3976 0.950 . S
C3981 C3983 1.327 . S
C3981 C3987 1.429 . S
C3982 C3974 1.574 . S
C3982 H3977 0.949 . S
C3982 C3988 1.368 . S
C3983 C3967 1.349 . S
C3983 H3975 0.950 . S
C3983 C3981 1.327 . S
C3984 C3972 1.349 . S
C3984 H3978 0.950 . S
C3984 C3985 1.327 . S
C3985 H3979 0.950 . S
C3985 C3984 1.327 . S
C3985 C3989 1.429 . S
C3986 C3969 1.574 . S
C3986 H3980 0.949 . S
C3986 C3990 1.368 . S
C3987 C3968 1.429 . S
C3987 C3981 1.429 . S
C3987 C3988 1.523 . S
C3988 C3969 1.368 . S
C3988 C3982 1.368 . S
C3988 C3987 1.523 . S
C3989 C3973 1.429 . S
C3989 C3985 1.429 . S
C3989 C3990 1.523 . S
C3990 C3974 1.368 . S
C3990 C3986 1.368 . S
C3990 C3989 1.523 . S
H3991 C3966 0.950 . S
H3992 C3968 0.950 . S
H3993 C3969 0.949 . S
H3994 C3971 0.950 . S
H3995 C3973 0.950 . S
C3996 C3997 1.349 . S
C3996 C3998 1.327 . S
C3996 H4021 0.950 . S
C3997 C3996 1.349 . S
C3997 C4013 1.349 . S
C3998 C3996 1.327 . S
C3998 C4017 1.429 . S
C3998 H4022 0.950 . S
C3999 C4016 1.574 . S
C3999 C4018 1.368 . S
C3999 H4023 0.949 . S
H4000 C4004 0.949 . S
C4001 C4002 1.349 . S
C4001 C4003 1.327 . S
C4001 H4024 0.950 . S
C4002 C4001 1.349 . S
C4002 C4014 1.349 . S
C4003 C4001 1.327 . S
C4003 C4019 1.429 . S
C4003 H4025 0.950 . S
C4004 H4000 0.949 . S
C4004 C4012 1.574 . S
C4004 C4020 1.368 . S
H4005 C4013 0.950 . S
H4006 C4011 0.950 . S
H4007 C4012 0.949 . S
H4008 C4014 0.950 . S
H4009 C4015 0.950 . S
H4010 C4016 0.949 . S
C4011 H4006 0.950 . S
C4011 C4013 1.327 . S
C4011 C4017 1.429 . S
C4012 C4004 1.574 . S
C4012 H4007 0.949 . S
C4012 C4018 1.368 . S
C4013 C3997 1.349 . S
C4013 H4005 0.950 . S
C4013 C4011 1.327 . S
C4014 C4002 1.349 . S
C4014 H4008 0.950 . S
C4014 C4015 1.327 . S
C4015 H4009 0.950 . S
C4015 C4014 1.327 . S
C4015 C4019 1.429 . S
C4016 C3999 1.574 . S
C4016 H4010 0.949 . S
C4016 C4020 1.368 . S
C4017 C3998 1.429 . S
C4017 C4011 1.429 . S
C4017 C4018 1.523 . S
C4018 C3999 1.368 . S
C4018 C4012 1.368 . S
C4018 C4017 1.523 . S
C4019 C4003 1.429 . S
C4019 C4015 1.429 . S
C4019 C4020 1.523 . S
C4020 C4004 1.368 . S
C4020 C4016 1.368 . S
C4020 C4019 1.523 . S
H4021 C3996 0.950 . S
H4022 C3998 0.950 . S
H4023 C3999 0.949 . S
H4024 C4001 0.950 . S
H4025 C4003 0.950 . S
C4026 C4027 1.349 . S
C4026 C4028 1.327 . S
C4026 H4051 0.950 . S
C4027 C4026 1.349 . S
C4027 C4043 1.349 . S
C4028 C4026 1.327 . S
C4028 C4047 1.429 . S
C4028 H4052 0.950 . S
C4029 C4046 1.574 . S
C4029 C4048 1.368 . S
C4029 H4053 0.949 . S
H4030 C4034 0.949 . S
C4031 C4032 1.349 . S
C4031 C4033 1.327 . S
C4031 H4054 0.950 . S
C4032 C4031 1.349 . S
C4032 C4044 1.349 . S
C4033 C4031 1.327 . S
C4033 C4049 1.429 . S
C4033 H4055 0.950 . S
C4034 H4030 0.949 . S
C4034 C4042 1.574 . S
C4034 C4050 1.368 . S
H4035 C4043 0.950 . S
H4036 C4041 0.950 . S
H4037 C4042 0.949 . S
H4038 C4044 0.950 . S
H4039 C4045 0.950 . S
H4040 C4046 0.949 . S
C4041 H4036 0.950 . S
C4041 C4043 1.327 . S
C4041 C4047 1.429 . S
C4042 C4034 1.574 . S
C4042 H4037 0.949 . S
C4042 C4048 1.368 . S
C4043 C4027 1.349 . S
C4043 H4035 0.950 . S
C4043 C4041 1.327 . S
C4044 C4032 1.349 . S
C4044 H4038 0.950 . S
C4044 C4045 1.327 . S
C4045 H4039 0.950 . S
C4045 C4044 1.327 . S
C4045 C4049 1.429 . S
C4046 C4029 1.574 . S
C4046 H4040 0.949 . S
C4046 C4050 1.368 . S
C4047 C4028 1.429 . S
C4047 C4041 1.429 . S
C4047 C4048 1.523 . S
C4048 C4029 1.368 . S
C4048 C4042 1.368 . S
C4048 C4047 1.523 . S
C4049 C4033 1.429 . S
C4049 C4045 1.429 . S
C4049 C4050 1.523 . S
C4050 C4034 1.368 . S
C4050 C4046 1.368 . S
C4050 C4049 1.523 . S
H4051 C4026 0.950 . S
H4052 C4028 0.950 . S
H4053 C4029 0.949 . S
H4054 C4031 0.950 . S
H4055 C4033 0.950 . S
C4056 C4057 1.349 . S
C4056 C4058 1.327 . S
C4056 H4081 0.950 . S
C4057 C4056 1.349 . S
C4057 C4073 1.349 . S
C4058 C4056 1.327 . S
C4058 C4077 1.429 . S
C4058 H4082 0.950 . S
C4059 C4076 1.574 . S
C4059 C4078 1.368 . S
C4059 H4083 0.949 . S
H4060 C4064 0.949 . S
C4061 C4062 1.349 . S
C4061 C4063 1.327 . S
C4061 H4084 0.950 . S
C4062 C4061 1.349 . S
C4062 C4074 1.349 . S
C4063 C4061 1.327 . S
C4063 C4079 1.429 . S
C4063 H4085 0.950 . S
C4064 H4060 0.949 . S
C4064 C4072 1.574 . S
C4064 C4080 1.368 . S
H4065 C4073 0.950 . S
H4066 C4071 0.950 . S
H4067 C4072 0.949 . S
H4068 C4074 0.950 . S
H4069 C4075 0.950 . S
H4070 C4076 0.949 . S
C4071 H4066 0.950 . S
C4071 C4073 1.327 . S
C4071 C4077 1.429 . S
C4072 C4064 1.574 . S
C4072 H4067 0.949 . S
C4072 C4078 1.368 . S
C4073 C4057 1.349 . S
C4073 H4065 0.950 . S
C4073 C4071 1.327 . S
C4074 C4062 1.349 . S
C4074 H4068 0.950 . S
C4074 C4075 1.327 . S
C4075 H4069 0.950 . S
C4075 C4074 1.327 . S
C4075 C4079 1.429 . S
C4076 C4059 1.574 . S
C4076 H4070 0.949 . S
C4076 C4080 1.368 . S
C4077 C4058 1.429 . S
C4077 C4071 1.429 . S
C4077 C4078 1.523 . S
C4078 C4059 1.368 . S
C4078 C4072 1.368 . S
C4078 C4077 1.523 . S
C4079 C4063 1.429 . S
C4079 C4075 1.429 . S
C4079 C4080 1.523 . S
C4080 C4064 1.368 . S
C4080 C4076 1.368 . S
C4080 C4079 1.523 . S
H4081 C4056 0.950 . S
H4082 C4058 0.950 . S
H4083 C4059 0.949 . S
H4084 C4061 0.950 . S
H4085 C4063 0.950 . S
C4086 C4087 1.349 . S
C4086 C4088 1.327 . S
C4086 H4111 0.950 1_545 S
C4087 C4086 1.349 . S
C4087 C4103 1.349 . S
C4088 C4086 1.327 . S
C4088 C4107 1.429 . S
C4088 H4112 0.950 1_545 S
C4089 C4106 1.574 . S
C4089 C4108 1.368 . S
C4089 H4113 0.949 . S
H4090 C4094 1.030 . S
C4091 C4092 1.349 . S
C4091 C4093 1.327 . S
C4091 H4114 0.950 . S
C4092 C4091 1.349 . S
C4092 C4104 1.349 1_545 S
C4093 C4091 1.327 . S
C4093 C4109 1.429 . S
C4093 H4115 0.950 . S
C4094 H4090 1.030 . S
C4094 C4102 1.537 1_565 S
C4094 C4110 1.319 1_565 S
H4095 C4103 0.950 . S
H4096 C4101 0.950 . S
H4097 C4102 0.949 1_565 S
H4098 C4104 0.950 . S
H4099 C4105 0.950 . S
H4100 C4106 0.949 . S
C4101 H4096 0.950 . S
C4101 C4103 1.327 . S
C4101 C4107 1.429 . S
C4102 C4094 1.537 1_545 S
C4102 H4097 0.949 1_545 S
C4102 C4108 1.369 . S
C4103 C4087 1.349 . S
C4103 H4095 0.950 . S
C4103 C4101 1.327 . S
C4104 C4092 1.349 1_565 S
C4104 H4098 0.950 . S
C4104 C4105 1.327 . S
C4105 H4099 0.950 . S
C4105 C4104 1.327 . S
C4105 C4109 1.429 1_565 S
C4106 C4089 1.574 . S
C4106 H4100 0.949 . S
C4106 C4110 1.368 . S
C4107 C4088 1.429 . S
C4107 C4101 1.429 . S
C4107 C4108 1.523 . S
C4108 C4089 1.368 . S
C4108 C4102 1.369 . S
C4108 C4107 1.523 . S
C4109 C4093 1.429 . S
C4109 C4105 1.429 1_545 S
C4109 C4110 1.523 . S
C4110 C4094 1.319 1_545 S
C4110 C4106 1.368 . S
C4110 C4109 1.523 . S
H4111 C4086 0.950 1_565 S
H4112 C4088 0.950 1_565 S
H4113 C4089 0.949 . S
H4114 C4091 0.950 . S
H4115 C4093 0.950 . S
C4116 C4117 1.349 . S
C4116 C4118 1.327 . S
C4116 H4141 0.950 . S
C4117 C4116 1.349 . S
C4117 C4133 1.349 . S
C4118 C4116 1.327 . S
C4118 C4137 1.429 . S
C4118 H4142 0.946 . S
C4119 C4136 1.574 . S
C4119 C4138 1.368 . S
C4119 H4143 0.949 . S
H4120 C4124 0.949 1_455 S
C4121 C4122 1.349 . S
C4121 C4123 1.327 . S
C4121 H4144 0.950 . S
C4122 C4121 1.349 . S
C4122 C4134 1.359 . S
C4123 C4121 1.327 . S
C4123 C4139 1.429 . S
C4123 H4145 0.950 . S
C4124 H4120 0.949 1_655 S
C4124 C4132 1.574 . S
C4124 C4140 1.368 . S
H4125 C4133 0.950 . S
H4126 C4131 0.950 . S
H4127 C4132 0.949 1_455 S
H4128 C4134 0.945 1_455 S
H4129 C4135 0.892 1_455 S
H4130 C4136 0.949 . S
C4131 H4126 0.950 . S
C4131 C4133 1.327 . S
C4131 C4137 1.429 . S
C4132 C4124 1.574 . S
C4132 H4127 0.949 1_655 S
C4132 C4138 1.368 . S
C4133 C4117 1.349 . S
C4133 H4125 0.950 . S
C4133 C4131 1.327 . S
C4134 C4122 1.359 . S
C4134 H4128 0.945 1_655 S
C4134 C4135 1.352 . S
C4135 H4129 0.892 1_655 S
C4135 C4134 1.352 . S
C4135 C4139 1.459 . S
C4136 C4119 1.574 . S
C4136 H4130 0.949 . S
C4136 C4140 1.368 . S
C4137 C4118 1.429 . S
C4137 C4131 1.429 . S
C4137 C4138 1.523 . S
C4138 C4119 1.368 . S
C4138 C4132 1.368 . S
C4138 C4137 1.523 . S
C4139 C4123 1.429 . S
C4139 C4135 1.459 . S
C4139 C4140 1.523 . S
C4140 C4124 1.368 . S
C4140 C4136 1.368 . S
C4140 C4139 1.523 . S
H4141 C4116 0.950 . S
H4142 C4118 0.946 . S
H4143 C4119 0.949 . S
H4144 C4121 0.950 . S
H4145 C4123 0.950 . S
C4146 C4147 1.349 . S
C4146 C4148 1.327 . S
C4146 H4171 0.950 . S
C4147 C4146 1.349 . S
C4147 C4163 1.349 . S
C4148 C4146 1.327 . S
C4148 C4167 1.429 . S
C4148 H4172 0.950 . S
C4149 C4166 1.574 . S
C4149 C4168 1.368 . S
C4149 H4173 0.949 . S
H4150 C4154 0.949 . S
C4151 C4152 1.349 . S
C4151 C4153 1.327 . S
C4151 H4174 0.950 . S
C4152 C4151 1.349 . S
C4152 C4164 1.349 . S
C4153 C4151 1.327 . S
C4153 C4169 1.429 . S
C4153 H4175 0.950 . S
C4154 H4150 0.949 . S
C4154 C4162 1.574 . S
C4154 C4170 1.368 . S
H4155 C4163 0.950 . S
H4156 C4161 0.950 . S
H4157 C4162 0.949 . S
H4158 C4164 0.950 . S
H4159 C4165 0.950 . S
H4160 C4166 0.949 . S
C4161 H4156 0.950 . S
C4161 C4163 1.327 . S
C4161 C4167 1.429 . S
C4162 C4154 1.574 . S
C4162 H4157 0.949 . S
C4162 C4168 1.368 . S
C4163 C4147 1.349 . S
C4163 H4155 0.950 . S
C4163 C4161 1.327 . S
C4164 C4152 1.349 . S
C4164 H4158 0.950 . S
C4164 C4165 1.327 . S
C4165 H4159 0.950 . S
C4165 C4164 1.327 . S
C4165 C4169 1.429 . S
C4166 C4149 1.574 . S
C4166 H4160 0.949 . S
C4166 C4170 1.368 . S
C4167 C4148 1.429 . S
C4167 C4161 1.429 . S
C4167 C4168 1.523 . S
C4168 C4149 1.368 . S
C4168 C4162 1.368 . S
C4168 C4167 1.523 . S
C4169 C4153 1.429 . S
C4169 C4165 1.429 . S
C4169 C4170 1.523 . S
C4170 C4154 1.368 . S
C4170 C4166 1.368 . S
C4170 C4169 1.523 . S
H4171 C4146 0.950 . S
H4172 C4148 0.950 . S
H4173 C4149 0.949 . S
H4174 C4151 0.950 . S
H4175 C4153 0.950 . S
C4176 C4177 1.349 . S
C4176 C4178 1.327 . S
C4176 H4201 0.950 . S
C4177 C4176 1.349 . S
C4177 C4193 1.349 . S
C4178 C4176 1.327 . S
C4178 C4197 1.429 . S
C4178 H4202 0.950 . S
C4179 C4196 1.574 . S
C4179 C4198 1.368 . S
C4179 H4203 0.949 . S
H4180 C4184 0.949 . S
C4181 C4182 1.349 . S
C4181 C4183 1.327 . S
C4181 H4204 0.950 . S
C4182 C4181 1.349 . S
C4182 C4194 1.349 . S
C4183 C4181 1.327 . S
C4183 C4199 1.429 . S
C4183 H4205 0.950 . S
C4184 H4180 0.949 . S
C4184 C4192 1.574 . S
C4184 C4200 1.368 . S
H4185 C4193 0.950 . S
H4186 C4191 0.950 . S
H4187 C4192 0.949 . S
H4188 C4194 0.950 . S
H4189 C4195 0.950 . S
H4190 C4196 0.949 . S
C4191 H4186 0.950 . S
C4191 C4193 1.327 . S
C4191 C4197 1.429 . S
C4192 C4184 1.574 . S
C4192 H4187 0.949 . S
C4192 C4198 1.368 . S
C4193 C4177 1.349 . S
C4193 H4185 0.950 . S
C4193 C4191 1.327 . S
C4194 C4182 1.349 . S
C4194 H4188 0.950 . S
C4194 C4195 1.327 . S
C4195 H4189 0.950 . S
C4195 C4194 1.327 . S
C4195 C4199 1.429 . S
C4196 C4179 1.574 . S
C4196 H4190 0.949 . S
C4196 C4200 1.368 . S
C4197 C4178 1.429 . S
C4197 C4191 1.429 . S
C4197 C4198 1.523 . S
C4198 C4179 1.368 . S
C4198 C4192 1.368 . S
C4198 C4197 1.523 . S
C4199 C4183 1.429 . S
C4199 C4195 1.429 . S
C4199 C4200 1.523 . S
C4200 C4184 1.368 . S
C4200 C4196 1.368 . S
C4200 C4199 1.523 . S
H4201 C4176 0.950 . S
H4202 C4178 0.950 . S
H4203 C4179 0.949 . S
H4204 C4181 0.950 . S
H4205 C4183 0.950 . S
C4206 C4207 1.349 . S
C4206 C4208 1.327 . S
C4206 H4231 0.950 . S
C4207 C4206 1.349 . S
C4207 C4223 1.349 . S
C4208 C4206 1.327 . S
C4208 C4227 1.429 . S
C4208 H4232 0.950 . S
C4209 C4226 1.574 . S
C4209 C4228 1.368 . S
C4209 H4233 0.949 . S
H4210 C4214 0.949 . S
C4211 C4212 1.349 . S
C4211 C4213 1.327 . S
C4211 H4234 0.950 . S
C4212 C4211 1.349 . S
C4212 C4224 1.349 . S
C4213 C4211 1.327 . S
C4213 C4229 1.429 . S
C4213 H4235 0.950 . S
C4214 H4210 0.949 . S
C4214 C4222 1.574 . S
C4214 C4230 1.368 . S
H4215 C4223 0.950 . S
H4216 C4221 0.950 . S
H4217 C4222 0.949 . S
H4218 C4224 0.950 . S
H4219 C4225 0.950 . S
H4220 C4226 0.949 . S
C4221 H4216 0.950 . S
C4221 C4223 1.327 . S
C4221 C4227 1.429 . S
C4222 C4214 1.574 . S
C4222 H4217 0.949 . S
C4222 C4228 1.368 . S
C4223 C4207 1.349 . S
C4223 H4215 0.950 . S
C4223 C4221 1.327 . S
C4224 C4212 1.349 . S
C4224 H4218 0.950 . S
C4224 C4225 1.327 . S
C4225 H4219 0.950 . S
C4225 C4224 1.327 . S
C4225 C4229 1.429 . S
C4226 C4209 1.574 . S
C4226 H4220 0.949 . S
C4226 C4230 1.368 . S
C4227 C4208 1.429 . S
C4227 C4221 1.429 . S
C4227 C4228 1.523 . S
C4228 C4209 1.368 . S
C4228 C4222 1.368 . S
C4228 C4227 1.523 . S
C4229 C4213 1.429 . S
C4229 C4225 1.429 . S
C4229 C4230 1.523 . S
C4230 C4214 1.368 . S
C4230 C4226 1.368 . S
C4230 C4229 1.523 . S
H4231 C4206 0.950 . S
H4232 C4208 0.950 . S
H4233 C4209 0.949 . S
H4234 C4211 0.950 . S
H4235 C4213 0.950 . S
C4236 C4237 1.349 . S
C4236 C4238 1.327 . S
C4236 H4261 0.950 . S
C4237 C4236 1.349 . S
C4237 C4253 1.349 . S
C4238 C4236 1.327 . S
C4238 C4257 1.429 . S
C4238 H4262 0.950 . S
C4239 C4256 1.574 . S
C4239 C4258 1.368 . S
C4239 H4263 0.949 . S
H4240 C4244 0.949 . S
C4241 C4242 1.349 . S
C4241 C4243 1.327 . S
C4241 H4264 0.950 . S
C4242 C4241 1.349 . S
C4242 C4254 1.349 . S
C4243 C4241 1.327 . S
C4243 C4259 1.429 . S
C4243 H4265 0.950 . S
C4244 H4240 0.949 . S
C4244 C4252 1.574 . S
C4244 C4260 1.368 . S
H4245 C4253 0.950 . S
H4246 C4251 0.950 . S
H4247 C4252 0.949 . S
H4248 C4254 0.950 . S
H4249 C4255 0.950 . S
H4250 C4256 0.949 . S
C4251 H4246 0.950 . S
C4251 C4253 1.327 . S
C4251 C4257 1.429 . S
C4252 C4244 1.574 . S
C4252 H4247 0.949 . S
C4252 C4258 1.368 . S
C4253 C4237 1.349 . S
C4253 H4245 0.950 . S
C4253 C4251 1.327 . S
C4254 C4242 1.349 . S
C4254 H4248 0.950 . S
C4254 C4255 1.327 . S
C4255 H4249 0.950 . S
C4255 C4254 1.327 . S
C4255 C4259 1.429 . S
C4256 C4239 1.574 . S
C4256 H4250 0.949 . S
C4256 C4260 1.368 . S
C4257 C4238 1.429 . S
C4257 C4251 1.429 . S
C4257 C4258 1.523 . S
C4258 C4239 1.368 . S
C4258 C4252 1.368 . S
C4258 C4257 1.523 . S
C4259 C4243 1.429 . S
C4259 C4255 1.429 . S
C4259 C4260 1.523 . S
C4260 C4244 1.368 . S
C4260 C4256 1.368 . S
C4260 C4259 1.523 . S
H4261 C4236 0.950 . S
H4262 C4238 0.950 . S
H4263 C4239 0.949 . S
H4264 C4241 0.950 . S
H4265 C4243 0.950 . S
C4266 C4267 1.349 . S
C4266 C4268 1.327 . S
C4266 H4291 0.950 . S
C4267 C4266 1.349 . S
C4267 C4283 1.349 . S
C4268 C4266 1.327 . S
C4268 C4287 1.429 . S
C4268 H4292 0.950 . S
C4269 C4286 1.574 . S
C4269 C4288 1.368 . S
C4269 H4293 0.949 . S
H4270 C4274 0.949 . S
C4271 C4272 1.349 . S
C4271 C4273 1.327 . S
C4271 H4294 0.950 . S
C4272 C4271 1.349 . S
C4272 C4284 1.349 . S
C4273 C4271 1.327 . S
C4273 C4289 1.429 . S
C4273 H4295 0.950 . S
C4274 H4270 0.949 . S
C4274 C4282 1.574 . S
C4274 C4290 1.368 . S
H4275 C4283 0.950 . S
H4276 C4281 0.950 . S
H4277 C4282 0.949 . S
H4278 C4284 0.950 . S
H4279 C4285 0.950 . S
H4280 C4286 0.949 . S
C4281 H4276 0.950 . S
C4281 C4283 1.327 . S
C4281 C4287 1.429 . S
C4282 C4274 1.574 . S
C4282 H4277 0.949 . S
C4282 C4288 1.368 . S
C4283 C4267 1.349 . S
C4283 H4275 0.950 . S
C4283 C4281 1.327 . S
C4284 C4272 1.349 . S
C4284 H4278 0.950 . S
C4284 C4285 1.327 . S
C4285 H4279 0.950 . S
C4285 C4284 1.327 . S
C4285 C4289 1.429 . S
C4286 C4269 1.574 . S
C4286 H4280 0.949 . S
C4286 C4290 1.368 . S
C4287 C4268 1.429 . S
C4287 C4281 1.429 . S
C4287 C4288 1.523 . S
C4288 C4269 1.368 . S
C4288 C4282 1.368 . S
C4288 C4287 1.523 . S
C4289 C4273 1.429 . S
C4289 C4285 1.429 . S
C4289 C4290 1.523 . S
C4290 C4274 1.368 . S
C4290 C4286 1.368 . S
C4290 C4289 1.523 . S
H4291 C4266 0.950 . S
H4292 C4268 0.950 . S
H4293 C4269 0.949 . S
H4294 C4271 0.950 . S
H4295 C4273 0.950 . S
C4296 C4297 1.349 . S
C4296 C4298 1.327 . S
C4296 H4321 0.950 . S
C4297 C4296 1.349 . S
C4297 C4313 1.349 . S
C4298 C4296 1.327 . S
C4298 C4317 1.429 . S
C4298 H4322 0.950 . S
C4299 C4316 1.574 . S
C4299 C4318 1.368 . S
C4299 H4323 0.949 . S
H4300 C4304 0.949 . S
C4301 C4302 1.349 . S
C4301 C4303 1.327 . S
C4301 H4324 0.950 . S
C4302 C4301 1.349 . S
C4302 C4314 1.349 . S
C4303 C4301 1.327 . S
C4303 C4319 1.429 . S
C4303 H4325 0.950 . S
C4304 H4300 0.949 . S
C4304 C4312 1.574 . S
C4304 C4320 1.368 . S
H4305 C4313 0.950 . S
H4306 C4311 0.950 . S
H4307 C4312 0.949 . S
H4308 C4314 0.950 . S
H4309 C4315 0.950 . S
H4310 C4316 0.949 . S
C4311 H4306 0.950 . S
C4311 C4313 1.327 . S
C4311 C4317 1.429 . S
C4312 C4304 1.574 . S
C4312 H4307 0.949 . S
C4312 C4318 1.368 . S
C4313 C4297 1.349 . S
C4313 H4305 0.950 . S
C4313 C4311 1.327 . S
C4314 C4302 1.349 . S
C4314 H4308 0.950 . S
C4314 C4315 1.327 . S
C4315 H4309 0.950 . S
C4315 C4314 1.327 . S
C4315 C4319 1.429 . S
C4316 C4299 1.574 . S
C4316 H4310 0.949 . S
C4316 C4320 1.368 . S
C4317 C4298 1.429 . S
C4317 C4311 1.429 . S
C4317 C4318 1.523 . S
C4318 C4299 1.368 . S
C4318 C4312 1.368 . S
C4318 C4317 1.523 . S
C4319 C4303 1.429 . S
C4319 C4315 1.429 . S
C4319 C4320 1.523 . S
C4320 C4304 1.368 . S
C4320 C4316 1.368 . S
C4320 C4319 1.523 . S
H4321 C4296 0.950 . S
H4322 C4298 0.950 . S
H4323 C4299 0.949 . S
H4324 C4301 0.950 . S
H4325 C4303 0.950 . S
C4326 C4327 1.349 . S
C4326 C4328 1.327 . S
C4326 H4351 0.950 . S
C4327 C4326 1.349 . S
C4327 C4343 1.349 . S
C4328 C4326 1.327 . S
C4328 C4347 1.429 . S
C4328 H4352 0.950 . S
C4329 C4346 1.574 . S
C4329 C4348 1.368 . S
C4329 H4353 0.949 . S
H4330 C4334 0.949 . S
C4331 C4332 1.349 . S
C4331 C4333 1.327 . S
C4331 H4354 0.950 . S
C4332 C4331 1.349 . S
C4332 C4344 1.349 . S
C4333 C4331 1.327 . S
C4333 C4349 1.429 . S
C4333 H4355 0.950 . S
C4334 H4330 0.949 . S
C4334 C4342 1.574 . S
C4334 C4350 1.368 . S
H4335 C4343 0.950 . S
H4336 C4341 0.950 . S
H4337 C4342 0.949 . S
H4338 C4344 0.950 . S
H4339 C4345 0.950 . S
H4340 C4346 0.949 . S
C4341 H4336 0.950 . S
C4341 C4343 1.327 . S
C4341 C4347 1.429 . S
C4342 C4334 1.574 . S
C4342 H4337 0.949 . S
C4342 C4348 1.368 . S
C4343 C4327 1.349 . S
C4343 H4335 0.950 . S
C4343 C4341 1.327 . S
C4344 C4332 1.349 . S
C4344 H4338 0.950 . S
C4344 C4345 1.327 . S
C4345 H4339 0.950 . S
C4345 C4344 1.327 . S
C4345 C4349 1.429 . S
C4346 C4329 1.574 . S
C4346 H4340 0.949 . S
C4346 C4350 1.368 . S
C4347 C4328 1.429 . S
C4347 C4341 1.429 . S
C4347 C4348 1.523 . S
C4348 C4329 1.368 . S
C4348 C4342 1.368 . S
C4348 C4347 1.523 . S
C4349 C4333 1.429 . S
C4349 C4345 1.429 . S
C4349 C4350 1.523 . S
C4350 C4334 1.368 . S
C4350 C4346 1.368 . S
C4350 C4349 1.523 . S
H4351 C4326 0.950 . S
H4352 C4328 0.950 . S
H4353 C4329 0.949 . S
H4354 C4331 0.950 . S
H4355 C4333 0.950 . S
C4356 C4357 1.349 . S
C4356 C4358 1.327 . S
C4356 H4381 0.950 . S
C4357 C4356 1.349 . S
C4357 C4373 1.349 . S
C4358 C4356 1.327 . S
C4358 C4377 1.429 . S
C4358 H4382 0.882 1_655 S
C4359 C4376 1.574 . S
C4359 C4378 1.368 . S
C4359 H4383 0.949 . S
H4360 C4364 0.953 . S
C4361 C4362 1.349 . S
C4361 C4363 1.327 . S
C4361 H4384 0.950 . S
C4362 C4361 1.349 . S
C4362 C4374 1.349 1_655 S
C4363 C4361 1.327 . S
C4363 C4379 1.429 . S
C4363 H4385 0.950 . S
C4364 H4360 0.953 . S
C4364 C4372 1.571 1_455 S
C4364 C4380 1.366 1_455 S
H4365 C4373 0.950 . S
H4366 C4371 0.950 . S
H4367 C4372 0.949 1_455 S
H4368 C4374 0.950 . S
H4369 C4375 0.950 . S
H4370 C4376 0.949 . S
C4371 H4366 0.950 . S
C4371 C4373 1.327 . S
C4371 C4377 1.429 . S
C4372 C4364 1.571 1_655 S
C4372 H4367 0.949 1_655 S
C4372 C4378 1.368 . S
C4373 C4357 1.349 . S
C4373 H4365 0.950 . S
C4373 C4371 1.327 . S
C4374 C4362 1.349 1_455 S
C4374 H4368 0.950 . S
C4374 C4375 1.327 . S
C4375 H4369 0.950 . S
C4375 C4374 1.327 . S
C4375 C4379 1.429 1_455 S
C4376 C4359 1.574 . S
C4376 H4370 0.949 . S
C4376 C4380 1.368 . S
C4377 C4358 1.429 . S
C4377 C4371 1.429 . S
C4377 C4378 1.523 . S
C4378 C4359 1.368 . S
C4378 C4372 1.368 . S
C4378 C4377 1.523 . S
C4379 C4363 1.429 . S
C4379 C4375 1.429 1_655 S
C4379 C4380 1.523 . S
C4380 C4364 1.366 1_655 S
C4380 C4376 1.368 . S
C4380 C4379 1.523 . S
H4381 C4356 0.950 . S
H4382 C4358 0.882 1_455 S
H4383 C4359 0.949 . S
H4384 C4361 0.950 . S
H4385 C4363 0.950 . S
C4386 C4387 1.349 . S
C4386 C4388 1.327 . S
C4386 H4411 0.950 . S
C4387 C4386 1.349 . S
C4387 C4403 1.349 . S
C4388 C4386 1.327 . S
C4388 C4407 1.429 . S
C4388 H4412 0.950 . S
C4389 C4406 1.574 . S
C4389 C4408 1.368 . S
C4389 H4413 0.949 . S
H4390 C4394 0.949 . S
C4391 C4392 1.349 . S
C4391 C4393 1.327 . S
C4391 H4414 0.950 . S
C4392 C4391 1.349 . S
C4392 C4404 1.349 . S
C4393 C4391 1.327 . S
C4393 C4409 1.429 . S
C4393 H4415 0.950 . S
C4394 H4390 0.949 . S
C4394 C4402 1.574 . S
C4394 C4410 1.368 . S
H4395 C4403 0.950 . S
H4396 C4401 0.950 . S
H4397 C4402 0.949 . S
H4398 C4404 0.950 . S
H4399 C4405 0.950 . S
H4400 C4406 0.949 . S
C4401 H4396 0.950 . S
C4401 C4403 1.327 . S
C4401 C4407 1.429 . S
C4402 C4394 1.574 . S
C4402 H4397 0.949 . S
C4402 C4408 1.368 . S
C4403 C4387 1.349 . S
C4403 H4395 0.950 . S
C4403 C4401 1.327 . S
C4404 C4392 1.349 . S
C4404 H4398 0.950 . S
C4404 C4405 1.327 . S
C4405 H4399 0.950 . S
C4405 C4404 1.327 . S
C4405 C4409 1.429 . S
C4406 C4389 1.574 . S
C4406 H4400 0.949 . S
C4406 C4410 1.368 . S
C4407 C4388 1.429 . S
C4407 C4401 1.429 . S
C4407 C4408 1.523 . S
C4408 C4389 1.368 . S
C4408 C4402 1.368 . S
C4408 C4407 1.523 . S
C4409 C4393 1.429 . S
C4409 C4405 1.429 . S
C4409 C4410 1.523 . S
C4410 C4394 1.368 . S
C4410 C4406 1.368 . S
C4410 C4409 1.523 . S
H4411 C4386 0.950 . S
H4412 C4388 0.950 . S
H4413 C4389 0.949 . S
H4414 C4391 0.950 . S
H4415 C4393 0.950 . S
C4416 C4417 1.349 . S
C4416 C4418 1.327 . S
C4416 H4441 0.950 1_545 S
C4417 C4416 1.349 . S
C4417 C4433 1.349 . S
C4418 C4416 1.327 . S
C4418 C4437 1.429 . S
C4418 H4442 0.950 1_545 S
C4419 C4436 1.574 . S
C4419 C4438 1.368 . S
C4419 H4443 0.949 . S
H4420 C4424 0.949 . S
C4421 C4422 1.349 . S
C4421 C4423 1.327 . S
C4421 H4444 0.950 . S
C4422 C4421 1.349 . S
C4422 C4434 1.349 1_545 S
C4423 C4421 1.327 . S
C4423 C4439 1.429 . S
C4423 H4445 0.950 . S
C4424 H4420 0.949 . S
C4424 C4432 1.574 . S
C4424 C4440 1.368 1_565 S
H4425 C4433 0.950 . S
H4426 C4431 0.950 . S
H4427 C4432 0.949 . S
H4428 C4434 0.950 . S
H4429 C4435 0.950 . S
H4430 C4436 0.949 . S
C4431 H4426 0.950 . S
C4431 C4433 1.327 . S
C4431 C4437 1.429 . S
C4432 C4424 1.574 . S
C4432 H4427 0.949 . S
C4432 C4438 1.368 1_565 S
C4433 C4417 1.349 . S
C4433 H4425 0.950 . S
C4433 C4431 1.327 . S
C4434 C4422 1.349 1_565 S
C4434 H4428 0.950 . S
C4434 C4435 1.327 . S
C4435 H4429 0.950 . S
C4435 C4434 1.327 . S
C4435 C4439 1.429 1_565 S
C4436 C4419 1.574 . S
C4436 H4430 0.949 . S
C4436 C4440 1.368 . S
C4437 C4418 1.429 . S
C4437 C4431 1.429 . S
C4437 C4438 1.523 . S
C4438 C4419 1.368 . S
C4438 C4432 1.368 1_545 S
C4438 C4437 1.523 . S
C4439 C4423 1.429 . S
C4439 C4435 1.429 1_545 S
C4439 C4440 1.523 . S
C4440 C4424 1.368 1_545 S
C4440 C4436 1.368 . S
C4440 C4439 1.523 . S
H4441 C4416 0.950 1_565 S
H4442 C4418 0.950 1_565 S
H4443 C4419 0.949 . S
H4444 C4421 0.950 . S
H4445 C4423 0.950 . S
C2287 C10 1.345 1_655 S
C2292 C1289 1.151 . S
C2317 C23 1.686 . S
C2322 C1429 1.164 . S
C2352 C1517 1.206 . S
C2347 C29 1.451 . S
C2377 C30 1.547 . S
C2382 C1657 1.139 1_565 S
C2407 C5 1.492 . S
C2412 C1771 1.134 . S
C2437 C18 1.692 . S
C2442 C1859 1.324 . S
C2467 C49 1.358 . S
C2472 C1745 1.136 . S
C2502 C1885 1.337 . S
C2497 C62 1.616 . S
C2532 C1631 1.230 . S
C2527 C70 1.448 . S
C2557 C75 1.517 . S
C2562 C1543 1.163 . S
C2592 C1315 1.155 . S
C2587 C44 1.492 . S
C2617 C57 1.619 . S
C2622 C1403 1.444 . S
C2647 C88 1.711 . S
C2652 C1973 1.326 . S
C2677 C101 1.778 . S
C2682 C2113 1.237 . S
C2712 C2201 1.333 . S
C2707 C107 1.702 . S
C2737 C108 1.760 . S
C2742 C289 1.224 . S
C2767 C83 1.763 . S
C2772 C403 1.222 . S
C2797 C96 1.741 . S
C2802 C491 1.363 . S
C2827 C127 1.514 . S
C2832 C377 1.346 . S
C2857 C140 1.667 . S
C2862 C517 1.397 . S
C2892 C263 1.457 . S
C2887 C146 1.634 . S
C2922 C2227 1.521 . S
C2917 C147 1.809 . S
C2952 C1999 1.409 . S
C2947 C122 1.683 . S
C2982 C2087 1.542 . S
C2977 C135 1.711 . S
C3007 C160 1.594 . S
C3012 C605 1.228 . S
C3037 C173 1.738 . S
C3042 C745 1.202 . S
C3067 C185 1.706 . S
C3072 C833 1.338 . S
C3097 C186 1.876 . S
C3102 C973 1.320 . S
C3132 C1087 1.218 . S
C3127 C159 1.761 . S
C3162 C1175 1.404 . S
C3157 C172 1.786 . S
C3192 C1061 1.460 . S
C3187 C205 1.640 . S
C3222 C1201 1.431 . S
C3217 C218 1.706 . S
C3247 C224 1.623 . S
C3252 C947 1.451 . S
C3282 C859 1.412 . S
C3277 C225 1.685 . S
C3307 C200 1.692 . S
C3312 C631 1.412 . S
C3342 C719 1.500 . S
C3337 C213 1.667 . S
C3372 C245 0.991 . S
C3367 C4 1.729 . S
C3397 C17 1.526 . S
C3402 C359 0.873 . S
C3432 C463 1.183 . S
C3427 C31 1.595 . S
C3462 C577 1.142 . S
C3457 C36 1.525 . S
C3492 C701 0.959 . S
C3487 C3 1.669 . S
C3522 C805 1.140 . S
C3517 C16 1.537 . S
C3547 C43 1.805 . S
C3552 C815 1.285 . S
C3577 C56 1.594 . S
C3582 C587 1.133 . S
C3607 C68 1.662 . S
C3612 C691 1.404 . S
C3637 C69 1.607 . S
C3642 C349 1.373 . S
C3672 C473 1.245 . S
C3667 C42 1.730 . S
C3697 C55 1.606 . S
C3702 C235 1.352 . S
C3732 C929 0.979 . S
C3727 C82 1.687 . S
C3757 C95 1.682 . S
C3762 C1043 0.984 . S
C3787 C109 1.642 1_655 S
C3792 C1147 1.251 . S
C3822 C1261 1.041 . S
C3817 C114 1.287 . S
C3847 C81 1.632 . S
C3852 C1385 0.947 . S
C3877 C94 1.405 . S
C3882 C1489 1.117 . S
C3907 C121 1.523 . S
C3912 C1499 0.969 1_565 S
C3937 C134 1.415 . S
C3942 C1271 0.927 1_455 S
C3972 C1375 1.376 . S
C3967 C148 1.639 . S
C3997 C153 1.563 . S
C4002 C1033 1.331 . S
C4027 C120 1.781 . S
C4032 C1157 1.286 . S
C4062 C919 1.479 . S
C4057 C133 1.752 . S
C4092 C1613 0.950 . S
C4087 C166 1.514 . S
C4117 C179 1.397 . S
C4122 C1727 0.898 . S
C4147 C187 1.569 . S
C4152 C1831 1.173 . S
C4182 C1945 1.122 . S
C4177 C192 1.484 . S
C4212 C2069 1.021 . S
C4207 C161 1.721 . S
C4237 C174 1.686 . S
C4242 C2173 1.266 . S
C4267 C199 1.759 . S
C4272 C2183 1.245 . S
C4297 C212 1.823 . S
C4302 C1955 1.249 . S
C4332 C2059 1.456 . S
C4327 C226 1.718 . S
C4362 C1717 1.063 1_655 S
C4357 C231 1.292 . S
C4392 C1841 1.208 . S
C4387 C198 1.700 . S
C4417 C211 1.423 . S
C4422 C1603 1.147 1_545 S
