# Generated by pormake.
# Topology tbo, (3,4)-cn, num edge types: 1
# Building blocks:
#     Node 0, Type 0, BuildingBlock: VETTIZ_charged_linker_0, # of connection points: 3
#     Node 1, Type 0, BuildingBlock: VETTIZ_charged_linker_0, # of connection points: 3
#     Node 2, Type 0, BuildingBlock: VETTIZ_charged_linker_0, # of connection points: 3
#     Node 3, Type 0, BuildingBlock: VETTIZ_charged_linker_0, # of connection points: 3
#     Node 4, Type 0, BuildingBlock: VETTIZ_charged_linker_0, # of connection points: 3
#     Node 5, Type 0, BuildingBlock: VETTIZ_charged_linker_0, # of connection points: 3
#     Node 6, Type 0, BuildingBlock: VETTIZ_charged_linker_0, # of connection points: 3
#     Node 7, Type 0, BuildingBlock: VETTIZ_charged_linker_0, # of connection points: 3
#     Node 8, Type 0, BuildingBlock: VETTIZ_charged_linker_0, # of connection points: 3
#     Node 9, Type 0, BuildingBlock: VETTIZ_charged_linker_0, # of connection points: 3
#     Node 10, Type 0, BuildingBlock: VETTIZ_charged_linker_0, # of connection points: 3
#     Node 11, Type 0, BuildingBlock: VETTIZ_charged_linker_0, # of connection points: 3
#     Node 12, Type 0, BuildingBlock: VETTIZ_charged_linker_0, # of connection points: 3
#     Node 13, Type 0, BuildingBlock: VETTIZ_charged_linker_0, # of connection points: 3
#     Node 14, Type 0, BuildingBlock: VETTIZ_charged_linker_0, # of connection points: 3
#     Node 15, Type 0, BuildingBlock: VETTIZ_charged_linker_0, # of connection points: 3
#     Node 16, Type 0, BuildingBlock: VETTIZ_charged_linker_0, # of connection points: 3
#     Node 17, Type 0, BuildingBlock: VETTIZ_charged_linker_0, # of connection points: 3
#     Node 18, Type 0, BuildingBlock: VETTIZ_charged_linker_0, # of connection points: 3
#     Node 19, Type 0, BuildingBlock: VETTIZ_charged_linker_0, # of connection points: 3
#     Node 20, Type 0, BuildingBlock: VETTIZ_charged_linker_0, # of connection points: 3
#     Node 21, Type 0, BuildingBlock: VETTIZ_charged_linker_0, # of connection points: 3
#     Node 22, Type 0, BuildingBlock: VETTIZ_charged_linker_0, # of connection points: 3
#     Node 23, Type 0, BuildingBlock: VETTIZ_charged_linker_0, # of connection points: 3
#     Node 24, Type 0, BuildingBlock: VETTIZ_charged_linker_0, # of connection points: 3
#     Node 25, Type 0, BuildingBlock: VETTIZ_charged_linker_0, # of connection points: 3
#     Node 26, Type 0, BuildingBlock: VETTIZ_charged_linker_0, # of connection points: 3
#     Node 27, Type 0, BuildingBlock: VETTIZ_charged_linker_0, # of connection points: 3
#     Node 28, Type 0, BuildingBlock: VETTIZ_charged_linker_0, # of connection points: 3
#     Node 29, Type 0, BuildingBlock: VETTIZ_charged_linker_0, # of connection points: 3
#     Node 30, Type 0, BuildingBlock: VETTIZ_charged_linker_0, # of connection points: 3
#     Node 31, Type 0, BuildingBlock: VETTIZ_charged_linker_0, # of connection points: 3
#     Node 32, Type 1, BuildingBlock: ESEHIV_clean_sbu_0, # of connection points: 4
#     Node 33, Type 1, BuildingBlock: ESEHIV_clean_sbu_0, # of connection points: 4
#     Node 34, Type 1, BuildingBlock: ESEHIV_clean_sbu_0, # of connection points: 4
#     Node 35, Type 1, BuildingBlock: ESEHIV_clean_sbu_0, # of connection points: 4
#     Node 36, Type 1, BuildingBlock: ESEHIV_clean_sbu_0, # of connection points: 4
#     Node 37, Type 1, BuildingBlock: ESEHIV_clean_sbu_0, # of connection points: 4
#     Node 38, Type 1, BuildingBlock: ESEHIV_clean_sbu_0, # of connection points: 4
#     Node 39, Type 1, BuildingBlock: ESEHIV_clean_sbu_0, # of connection points: 4
#     Node 40, Type 1, BuildingBlock: ESEHIV_clean_sbu_0, # of connection points: 4
#     Node 41, Type 1, BuildingBlock: ESEHIV_clean_sbu_0, # of connection points: 4
#     Node 42, Type 1, BuildingBlock: ESEHIV_clean_sbu_0, # of connection points: 4
#     Node 43, Type 1, BuildingBlock: ESEHIV_clean_sbu_0, # of connection points: 4
#     Node 44, Type 1, BuildingBlock: ESEHIV_clean_sbu_0, # of connection points: 4
#     Node 45, Type 1, BuildingBlock: ESEHIV_clean_sbu_0, # of connection points: 4
#     Node 46, Type 1, BuildingBlock: ESEHIV_clean_sbu_0, # of connection points: 4
#     Node 47, Type 1, BuildingBlock: ESEHIV_clean_sbu_0, # of connection points: 4
#     Node 48, Type 1, BuildingBlock: ESEHIV_clean_sbu_0, # of connection points: 4
#     Node 49, Type 1, BuildingBlock: ESEHIV_clean_sbu_0, # of connection points: 4
#     Node 50, Type 1, BuildingBlock: ESEHIV_clean_sbu_0, # of connection points: 4
#     Node 51, Type 1, BuildingBlock: ESEHIV_clean_sbu_0, # of connection points: 4
#     Node 52, Type 1, BuildingBlock: ESEHIV_clean_sbu_0, # of connection points: 4
#     Node 53, Type 1, BuildingBlock: ESEHIV_clean_sbu_0, # of connection points: 4
#     Node 54, Type 1, BuildingBlock: ESEHIV_clean_sbu_0, # of connection points: 4
#     Node 55, Type 1, BuildingBlock: ESEHIV_clean_sbu_0, # of connection points: 4
#     Edge 56, Type (0, 1), BuildingBlock: OJICUG_clean_linker_0, # of connection points: 2
#     Edge 57, Type (0, 1), BuildingBlock: OJICUG_clean_linker_0, # of connection points: 2
#     Edge 58, Type (0, 1), BuildingBlock: OJICUG_clean_linker_0, # of connection points: 2
#     Edge 59, Type (0, 1), BuildingBlock: OJICUG_clean_linker_0, # of connection points: 2
#     Edge 60, Type (0, 1), BuildingBlock: OJICUG_clean_linker_0, # of connection points: 2
#     Edge 61, Type (0, 1), BuildingBlock: OJICUG_clean_linker_0, # of connection points: 2
#     Edge 62, Type (0, 1), BuildingBlock: OJICUG_clean_linker_0, # of connection points: 2
#     Edge 63, Type (0, 1), BuildingBlock: OJICUG_clean_linker_0, # of connection points: 2
#     Edge 64, Type (0, 1), BuildingBlock: OJICUG_clean_linker_0, # of connection points: 2
#     Edge 65, Type (0, 1), BuildingBlock: OJICUG_clean_linker_0, # of connection points: 2
#     Edge 66, Type (0, 1), BuildingBlock: OJICUG_clean_linker_0, # of connection points: 2
#     Edge 67, Type (0, 1), BuildingBlock: OJICUG_clean_linker_0, # of connection points: 2
#     Edge 68, Type (0, 1), BuildingBlock: OJICUG_clean_linker_0, # of connection points: 2
#     Edge 69, Type (0, 1), BuildingBlock: OJICUG_clean_linker_0, # of connection points: 2
#     Edge 70, Type (0, 1), BuildingBlock: OJICUG_clean_linker_0, # of connection points: 2
#     Edge 71, Type (0, 1), BuildingBlock: OJICUG_clean_linker_0, # of connection points: 2
#     Edge 72, Type (0, 1), BuildingBlock: OJICUG_clean_linker_0, # of connection points: 2
#     Edge 73, Type (0, 1), BuildingBlock: OJICUG_clean_linker_0, # of connection points: 2
#     Edge 74, Type (0, 1), BuildingBlock: OJICUG_clean_linker_0, # of connection points: 2
#     Edge 75, Type (0, 1), BuildingBlock: OJICUG_clean_linker_0, # of connection points: 2
#     Edge 76, Type (0, 1), BuildingBlock: OJICUG_clean_linker_0, # of connection points: 2
#     Edge 77, Type (0, 1), BuildingBlock: OJICUG_clean_linker_0, # of connection points: 2
#     Edge 78, Type (0, 1), BuildingBlock: OJICUG_clean_linker_0, # of connection points: 2
#     Edge 79, Type (0, 1), BuildingBlock: OJICUG_clean_linker_0, # of connection points: 2
#     Edge 80, Type (0, 1), BuildingBlock: OJICUG_clean_linker_0, # of connection points: 2
#     Edge 81, Type (0, 1), BuildingBlock: OJICUG_clean_linker_0, # of connection points: 2
#     Edge 82, Type (0, 1), BuildingBlock: OJICUG_clean_linker_0, # of connection points: 2
#     Edge 83, Type (0, 1), BuildingBlock: OJICUG_clean_linker_0, # of connection points: 2
#     Edge 84, Type (0, 1), BuildingBlock: OJICUG_clean_linker_0, # of connection points: 2
#     Edge 85, Type (0, 1), BuildingBlock: OJICUG_clean_linker_0, # of connection points: 2
#     Edge 86, Type (0, 1), BuildingBlock: OJICUG_clean_linker_0, # of connection points: 2
#     Edge 87, Type (0, 1), BuildingBlock: OJICUG_clean_linker_0, # of connection points: 2
#     Edge 88, Type (0, 1), BuildingBlock: OJICUG_clean_linker_0, # of connection points: 2
#     Edge 89, Type (0, 1), BuildingBlock: OJICUG_clean_linker_0, # of connection points: 2
#     Edge 90, Type (0, 1), BuildingBlock: OJICUG_clean_linker_0, # of connection points: 2
#     Edge 91, Type (0, 1), BuildingBlock: OJICUG_clean_linker_0, # of connection points: 2
#     Edge 92, Type (0, 1), BuildingBlock: OJICUG_clean_linker_0, # of connection points: 2
#     Edge 93, Type (0, 1), BuildingBlock: OJICUG_clean_linker_0, # of connection points: 2
#     Edge 94, Type (0, 1), BuildingBlock: OJICUG_clean_linker_0, # of connection points: 2
#     Edge 95, Type (0, 1), BuildingBlock: OJICUG_clean_linker_0, # of connection points: 2
#     Edge 96, Type (0, 1), BuildingBlock: OJICUG_clean_linker_0, # of connection points: 2
#     Edge 97, Type (0, 1), BuildingBlock: OJICUG_clean_linker_0, # of connection points: 2
#     Edge 98, Type (0, 1), BuildingBlock: OJICUG_clean_linker_0, # of connection points: 2
#     Edge 99, Type (0, 1), BuildingBlock: OJICUG_clean_linker_0, # of connection points: 2
#     Edge 100, Type (0, 1), BuildingBlock: OJICUG_clean_linker_0, # of connection points: 2
#     Edge 101, Type (0, 1), BuildingBlock: OJICUG_clean_linker_0, # of connection points: 2
#     Edge 102, Type (0, 1), BuildingBlock: OJICUG_clean_linker_0, # of connection points: 2
#     Edge 103, Type (0, 1), BuildingBlock: OJICUG_clean_linker_0, # of connection points: 2
#     Edge 104, Type (0, 1), BuildingBlock: OJICUG_clean_linker_0, # of connection points: 2
#     Edge 105, Type (0, 1), BuildingBlock: OJICUG_clean_linker_0, # of connection points: 2
#     Edge 106, Type (0, 1), BuildingBlock: OJICUG_clean_linker_0, # of connection points: 2
#     Edge 107, Type (0, 1), BuildingBlock: OJICUG_clean_linker_0, # of connection points: 2
#     Edge 108, Type (0, 1), BuildingBlock: OJICUG_clean_linker_0, # of connection points: 2
#     Edge 109, Type (0, 1), BuildingBlock: OJICUG_clean_linker_0, # of connection points: 2
#     Edge 110, Type (0, 1), BuildingBlock: OJICUG_clean_linker_0, # of connection points: 2
#     Edge 111, Type (0, 1), BuildingBlock: OJICUG_clean_linker_0, # of connection points: 2
#     Edge 112, Type (0, 1), BuildingBlock: OJICUG_clean_linker_0, # of connection points: 2
#     Edge 113, Type (0, 1), BuildingBlock: OJICUG_clean_linker_0, # of connection points: 2
#     Edge 114, Type (0, 1), BuildingBlock: OJICUG_clean_linker_0, # of connection points: 2
#     Edge 115, Type (0, 1), BuildingBlock: OJICUG_clean_linker_0, # of connection points: 2
#     Edge 116, Type (0, 1), BuildingBlock: OJICUG_clean_linker_0, # of connection points: 2
#     Edge 117, Type (0, 1), BuildingBlock: OJICUG_clean_linker_0, # of connection points: 2
#     Edge 118, Type (0, 1), BuildingBlock: OJICUG_clean_linker_0, # of connection points: 2
#     Edge 119, Type (0, 1), BuildingBlock: OJICUG_clean_linker_0, # of connection points: 2
#     Edge 120, Type (0, 1), BuildingBlock: OJICUG_clean_linker_0, # of connection points: 2
#     Edge 121, Type (0, 1), BuildingBlock: OJICUG_clean_linker_0, # of connection points: 2
#     Edge 122, Type (0, 1), BuildingBlock: OJICUG_clean_linker_0, # of connection points: 2
#     Edge 123, Type (0, 1), BuildingBlock: OJICUG_clean_linker_0, # of connection points: 2
#     Edge 124, Type (0, 1), BuildingBlock: OJICUG_clean_linker_0, # of connection points: 2
#     Edge 125, Type (0, 1), BuildingBlock: OJICUG_clean_linker_0, # of connection points: 2
#     Edge 126, Type (0, 1), BuildingBlock: OJICUG_clean_linker_0, # of connection points: 2
#     Edge 127, Type (0, 1), BuildingBlock: OJICUG_clean_linker_0, # of connection points: 2
#     Edge 128, Type (0, 1), BuildingBlock: OJICUG_clean_linker_0, # of connection points: 2
#     Edge 129, Type (0, 1), BuildingBlock: OJICUG_clean_linker_0, # of connection points: 2
#     Edge 130, Type (0, 1), BuildingBlock: OJICUG_clean_linker_0, # of connection points: 2
#     Edge 131, Type (0, 1), BuildingBlock: OJICUG_clean_linker_0, # of connection points: 2
#     Edge 132, Type (0, 1), BuildingBlock: OJICUG_clean_linker_0, # of connection points: 2
#     Edge 133, Type (0, 1), BuildingBlock: OJICUG_clean_linker_0, # of connection points: 2
#     Edge 134, Type (0, 1), BuildingBlock: OJICUG_clean_linker_0, # of connection points: 2
#     Edge 135, Type (0, 1), BuildingBlock: OJICUG_clean_linker_0, # of connection points: 2
#     Edge 136, Type (0, 1), BuildingBlock: OJICUG_clean_linker_0, # of connection points: 2
#     Edge 137, Type (0, 1), BuildingBlock: OJICUG_clean_linker_0, # of connection points: 2
#     Edge 138, Type (0, 1), BuildingBlock: OJICUG_clean_linker_0, # of connection points: 2
#     Edge 139, Type (0, 1), BuildingBlock: OJICUG_clean_linker_0, # of connection points: 2
#     Edge 140, Type (0, 1), BuildingBlock: OJICUG_clean_linker_0, # of connection points: 2
#     Edge 141, Type (0, 1), BuildingBlock: OJICUG_clean_linker_0, # of connection points: 2
#     Edge 142, Type (0, 1), BuildingBlock: OJICUG_clean_linker_0, # of connection points: 2
#     Edge 143, Type (0, 1), BuildingBlock: OJICUG_clean_linker_0, # of connection points: 2
#     Edge 144, Type (0, 1), BuildingBlock: OJICUG_clean_linker_0, # of connection points: 2
#     Edge 145, Type (0, 1), BuildingBlock: OJICUG_clean_linker_0, # of connection points: 2
#     Edge 146, Type (0, 1), BuildingBlock: OJICUG_clean_linker_0, # of connection points: 2
#     Edge 147, Type (0, 1), BuildingBlock: OJICUG_clean_linker_0, # of connection points: 2
#     Edge 148, Type (0, 1), BuildingBlock: OJICUG_clean_linker_0, # of connection points: 2
#     Edge 149, Type (0, 1), BuildingBlock: OJICUG_clean_linker_0, # of connection points: 2
#     Edge 150, Type (0, 1), BuildingBlock: OJICUG_clean_linker_0, # of connection points: 2
#     Edge 151, Type (0, 1), BuildingBlock: OJICUG_clean_linker_0, # of connection points: 2
# Relax obj value: 0.003
# Max RMSD: 0.122
# Mean RMSD: 0.049
data_MOF--net-tbo--node1-ESEHIV_clean_sbu_0--node2-VETTIZ_charged_linker_0--edge1-OJICUG_clean_linker_0
_symmetry_space_group_name_H-M    P1
_symmetry_Int_Tables_number       1
_symmetry_cell_setting            triclinic
loop_
_symmetry_equiv_pos_as_xyz
'x, y, z'
_cell_length_a     70.29705
_cell_length_b     70.18718
_cell_length_c     70.376664
_cell_angle_alpha  90.056377
_cell_angle_beta   92.527121
_cell_angle_gamma 90.618533
loop_
_atom_site_label
_atom_site_type_symbol
_atom_site_fract_x
_atom_site_fract_y
_atom_site_fract_z
_atom_type_partial_charge
C0 C 0.20432 0.21458 0.13914 0.0
C1 C 0.22043 0.21042 0.12882 0.0
C2 C 0.2304 0.19345 0.13297 0.0
C3 C 0.20849 0.18556 0.1576 0.0
C4 C 0.19867 0.20208 0.15334 0.0
C5 C 0.18199 0.20478 0.16562 0.0
H6 H 0.12707 0.17284 0.23541 0.0
C7 C 0.19883 0.17583 0.17326 0.0
C8 C 0.18325 0.18708 0.1779 0.0
H9 H 0.12261 0.22592 0.20428 0.0
H10 H 0.14928 0.21729 0.18605 0.0
H11 H 0.1371 0.1459 0.20002 0.0
H12 H 0.1707 0.17604 0.24289 0.0
H13 H 0.18321 0.15513 0.23867 0.0
H14 H 0.15956 0.15354 0.24759 0.0
H15 H 0.13886 0.13867 0.22448 0.0
H16 H 0.15559 0.13064 0.20756 0.0
C17 C 0.16365 0.2048 0.15258 0.0
C18 C 0.18545 0.22327 0.17746 0.0
C19 C 0.22522 0.11441 0.20273 0.0
C20 C 0.21916 0.1032 0.21793 0.0
C21 C 0.20213 0.1077 0.2266 0.0
C22 C 0.19144 0.12341 0.22068 0.0
C23 C 0.19787 0.13496 0.20597 0.0
C24 C 0.21434 0.13032 0.19702 0.0
C25 C 0.2188 0.14455 0.18171 0.0
C26 C 0.20258 0.15861 0.18338 0.0
C27 C 0.19042 0.15281 0.19766 0.0
C28 C 0.21778 0.13405 0.16235 0.0
C29 C 0.23841 0.15384 0.1869 0.0
C30 C 0.13185 0.18271 0.22476 0.0
C31 C 0.12244 0.20007 0.22129 0.0
C32 C 0.12919 0.21227 0.20708 0.0
C33 C 0.14488 0.20732 0.19658 0.0
C34 C 0.15418 0.19003 0.20037 0.0
C35 C 0.14768 0.17811 0.21432 0.0
C36 C 0.15985 0.16075 0.217 0.0
C37 C 0.17463 0.16415 0.20222 0.0
C38 C 0.17115 0.18124 0.19246 0.0
C39 C 0.1473 0.14296 0.21218 0.0
C40 C 0.16876 0.16117 0.23759 0.0
H41 H 0.23277 0.16844 0.14988 0.0
H42 H 0.19612 0.22729 0.13617 0.0
H43 H 0.20093 0.22604 0.18033 0.0
H44 H 0.17951 0.22242 0.19172 0.0
H45 H 0.1795 0.23587 0.16986 0.0
H46 H 0.16454 0.19407 0.14101 0.0
H47 H 0.16146 0.21895 0.1458 0.0
H48 H 0.15074 0.20082 0.16009 0.0
H49 H 0.23832 0.11122 0.1959 0.0
H50 H 0.19725 0.09913 0.23828 0.0
H51 H 0.17872 0.12612 0.22805 0.0
H52 H 0.20599 0.12333 0.16178 0.0
H53 H 0.23124 0.12643 0.15997 0.0
H54 H 0.21465 0.14366 0.15024 0.0
H55 H 0.23985 0.1569 0.20241 0.0
H56 H 0.2405 0.1677 0.17986 0.0
H57 H 0.25019 0.14425 0.18328 0.0
H58 H 0.24296 0.18995 0.12536 0.0
C59 C 0.22453 0.18102 0.14729 0.0
C60 C 0.84339 0.15652 0.20529 0.0
C61 C 0.82652 0.14714 0.19902 0.0
C62 C 0.81699 0.15362 0.18217 0.0
C63 C 0.84091 0.17865 0.17873 0.0
C64 C 0.85017 0.17209 0.19513 0.0
C65 C 0.86774 0.18345 0.20052 0.0
H66 H 0.92978 0.25478 0.18373 0.0
C67 C 0.85199 0.19529 0.17183 0.0
C68 C 0.86765 0.19805 0.1847 0.0
H69 H 0.93108 0.21363 0.22939 0.0
H70 H 0.90173 0.1997 0.21729 0.0
H71 H 0.88321 0.26256 0.18405 0.0
H72 H 0.91743 0.22541 0.15124 0.0
H73 H 0.89928 0.23405 0.13576 0.0
H74 H 0.91627 0.25055 0.1468 0.0
H75 H 0.89863 0.27117 0.16621 0.0
H76 H 0.87453 0.26353 0.16026 0.0
C77 C 0.86487 0.19276 0.2202 0.0
C78 C 0.88507 0.16996 0.19982 0.0
C79 C 0.83114 0.23113 0.11128 0.0
C80 C 0.8389 0.24694 0.1018 0.0
C81 C 0.85593 0.25529 0.10943 0.0
C82 C 0.86489 0.24834 0.12615 0.0
C83 C 0.8569 0.23273 0.13551 0.0
C84 C 0.84034 0.22429 0.12806 0.0
C85 C 0.8341 0.20769 0.14003 0.0
C86 C 0.8496 0.20765 0.15584 0.0
C87 C 0.86292 0.22244 0.15307 0.0
C88 C 0.81436 0.21223 0.14767 0.0
C89 C 0.83437 0.18942 0.12776 0.0
C90 C 0.92351 0.2429 0.19111 0.0
C91 C 0.93271 0.23519 0.20748 0.0
C92 C 0.92427 0.21967 0.21669 0.0
C93 C 0.90719 0.21158 0.20961 0.0
C94 C 0.89831 0.21898 0.19301 0.0
C95 C 0.90633 0.23445 0.18406 0.0
C96 C 0.89481 0.23993 0.16633 0.0
C97 C 0.87869 0.22518 0.16624 0.0
C98 C 0.88093 0.21304 0.18193 0.0
C99 C 0.88744 0.26041 0.16915 0.0
C100 C 0.90752 0.23755 0.14905 0.0
H101 H 0.81613 0.17367 0.15941 0.0
H102 H 0.85141 0.15177 0.21787 0.0
H103 H 0.88269 0.15881 0.18869 0.0
H104 H 0.89828 0.17736 0.19589 0.0
H105 H 0.88768 0.16257 0.21362 0.0
H106 H 0.84961 0.19601 0.22211 0.0
H107 H 0.86961 0.18317 0.23199 0.0
H108 H 0.87226 0.20667 0.22197 0.0
H109 H 0.81804 0.22439 0.10595 0.0
H110 H 0.86253 0.26717 0.10234 0.0
H111 H 0.87777 0.25541 0.13111 0.0
H112 H 0.81375 0.2274 0.15218 0.0
H113 H 0.80288 0.20976 0.13656 0.0
H114 H 0.81112 0.20385 0.1604 0.0
H115 H 0.84722 0.18928 0.11908 0.0
H116 H 0.83512 0.17629 0.13635 0.0
H117 H 0.82163 0.18856 0.11787 0.0
H118 H 0.8039 0.14675 0.17699 0.0
C119 C 0.82407 0.16933 0.17202 0.0
C120 C 0.89985 0.85885 0.21868 0.0
C121 C 0.90968 0.84225 0.21376 0.0
C122 C 0.9037 0.8323 0.1971 0.0
C123 C 0.87866 0.85517 0.19059 0.0
C124 C 0.88433 0.86495 0.20698 0.0
C125 C 0.87181 0.88191 0.21024 0.0
H126 H 0.8005 0.93969 0.17682 0.0
C127 C 0.86224 0.86514 0.18145 0.0
C128 C 0.85805 0.88086 0.19291 0.0
H129 H 0.83272 0.94473 0.23021 0.0
H130 H 0.84998 0.9159 0.22323 0.0
H131 H 0.79193 0.89652 0.18102 0.0
H132 H 0.83494 0.92637 0.15104 0.0
H133 H 0.82568 0.90826 0.13591 0.0
H134 H 0.81007 0.92644 0.14403 0.0
H135 H 0.78707 0.90624 0.15779 0.0
H136 H 0.79593 0.88234 0.1611 0.0
C137 C 0.86151 0.87872 0.22898 0.0
C138 C 0.88439 0.90011 0.21016 0.0
C139 C 0.83304 0.84092 0.11809 0.0
C140 C 0.81791 0.84752 0.10613 0.0
C141 C 0.80781 0.86369 0.11181 0.0
C142 C 0.81286 0.87335 0.12868 0.0
C143 C 0.82814 0.86683 0.1403 0.0
C144 C 0.83787 0.85079 0.13506 0.0
C145 C 0.85352 0.84587 0.1495 0.0
C146 C 0.85148 0.8616 0.16419 0.0
C147 C 0.83666 0.87386 0.15859 0.0
C148 C 0.84904 0.82592 0.15773 0.0
C149 C 0.87274 0.84734 0.13961 0.0
C150 C 0.81129 0.93455 0.18696 0.0
C151 C 0.81542 0.94444 0.20397 0.0
C152 C 0.82934 0.93723 0.217 0.0
C153 C 0.83936 0.92057 0.21289 0.0
C154 C 0.83524 0.91088 0.19565 0.0
C155 C 0.82113 0.91777 0.18323 0.0
C156 C 0.81778 0.90522 0.16611 0.0
C157 C 0.83247 0.88986 0.16999 0.0
C158 C 0.8429 0.89328 0.18719 0.0
C159 C 0.79711 0.8972 0.16631 0.0
C160 C 0.82219 0.91709 0.14823 0.0
H161 H 0.88463 0.83039 0.17307 0.0
H162 H 0.90396 0.8667 0.23149 0.0
H163 H 0.89413 0.89973 0.19813 0.0
H164 H 0.87609 0.91325 0.20824 0.0
H165 H 0.89328 0.90135 0.22356 0.0
H166 H 0.85803 0.86337 0.23098 0.0
H167 H 0.87057 0.88346 0.24147 0.0
H168 H 0.84768 0.88601 0.22913 0.0
H169 H 0.8411 0.82854 0.11424 0.0
H170 H 0.79576 0.86885 0.10325 0.0
H171 H 0.80461 0.88557 0.13198 0.0
H172 H 0.83341 0.8235 0.15831 0.0
H173 H 0.85479 0.81443 0.14883 0.0
H174 H 0.85451 0.82418 0.17258 0.0
H175 H 0.8727 0.85951 0.12948 0.0
H176 H 0.88497 0.85019 0.14961 0.0
H177 H 0.87548 0.83418 0.13143 0.0
H178 H 0.91111 0.81964 0.19284 0.0
C179 C 0.88834 0.83864 0.18554 0.0
C180 C 0.18979 0.90321 0.21229 0.0
C181 C 0.1809 0.90983 0.22857 0.0
C182 C 0.16426 0.90031 0.2342 0.0
C183 C 0.16607 0.87797 0.20802 0.0
C184 C 0.18205 0.88751 0.2022 0.0
C185 C 0.18938 0.87924 0.18424 0.0
H186 H 0.18343 0.81305 0.11425 0.0
C187 C 0.16184 0.86215 0.19448 0.0
C188 C 0.17527 0.86297 0.18038 0.0
H189 H 0.22315 0.86027 0.12178 0.0
H190 H 0.20794 0.86984 0.14998 0.0
H191 H 0.18313 0.80132 0.16054 0.0
H192 H 0.1455 0.83688 0.12591 0.0
H193 H 0.13209 0.82167 0.14022 0.0
H194 H 0.14656 0.81156 0.12234 0.0
H195 H 0.16859 0.79188 0.14102 0.0
H196 H 0.1591 0.7953 0.16408 0.0
C197 C 0.20978 0.87186 0.1888 0.0
C198 C 0.188 0.89475 0.16854 0.0
C199 C 0.1088 0.81554 0.20814 0.0
C200 C 0.10124 0.79922 0.19896 0.0
C201 C 0.10849 0.7937 0.18145 0.0
C202 C 0.12359 0.80406 0.17358 0.0
C203 C 0.13132 0.82018 0.18327 0.0
C204 C 0.1236 0.82575 0.20012 0.0
C205 C 0.13288 0.8434 0.2084 0.0
C206 C 0.14785 0.84741 0.19409 0.0
C207 C 0.14708 0.83378 0.17935 0.0
C208 C 0.14187 0.83832 0.22824 0.0
C209 C 0.11773 0.85932 0.20862 0.0
C210 C 0.18884 0.8254 0.12206 0.0
C211 C 0.20448 0.83601 0.11559 0.0
C212 C 0.21096 0.85205 0.12615 0.0
C213 C 0.20215 0.85755 0.14267 0.0
C214 C 0.18658 0.84695 0.14892 0.0
C215 C 0.18006 0.83119 0.13871 0.0
C216 C 0.1631 0.82193 0.14766 0.0
C217 C 0.16062 0.83479 0.16483 0.0
C218 C 0.17456 0.84934 0.16543 0.0
C219 C 0.1686 0.80146 0.1536 0.0
C220 C 0.14584 0.82288 0.13332 0.0
H221 H 0.1443 0.87784 0.22926 0.0
H222 H 0.20265 0.90992 0.20749 0.0
H223 H 0.17644 0.90501 0.17115 0.0
H224 H 0.18423 0.88879 0.1543 0.0
H225 H 0.20149 0.90306 0.16793 0.0
H226 H 0.21077 0.86513 0.20311 0.0
H227 H 0.22039 0.88371 0.18876 0.0
H228 H 0.21412 0.86066 0.17891 0.0
H229 H 0.10326 0.82031 0.22144 0.0
H230 H 0.10276 0.7812 0.17411 0.0
H231 H 0.12874 0.79909 0.16035 0.0
H232 H 0.1488 0.82415 0.22788 0.0
H233 H 0.13088 0.8377 0.23909 0.0
H234 H 0.15323 0.84834 0.23317 0.0
H235 H 0.10644 0.85713 0.19722 0.0
H236 H 0.12377 0.87359 0.20568 0.0
H237 H 0.11064 0.8597 0.22241 0.0
H238 H 0.15673 0.90522 0.24633 0.0
C239 C 0.15689 0.88444 0.22411 0.0
C240 C 0.20985 0.82903 0.90782 0.0
C241 C 0.2034 0.81216 0.91652 0.0
C242 C 0.18639 0.80354 0.90923 0.0
C243 C 0.18299 0.82804 0.8849 0.0
C244 C 0.19953 0.83664 0.89213 0.0
C245 C 0.20465 0.85429 0.88113 0.0
H246 H 0.18255 0.91563 0.80884 0.0
C247 C 0.1758 0.83945 0.86841 0.0
C248 C 0.18843 0.8549 0.86614 0.0
H249 H 0.23154 0.9183 0.84808 0.0
H250 H 0.22081 0.88956 0.86364 0.0
H251 H 0.15204 0.90429 0.83948 0.0
H252 H 0.18482 0.87187 0.80104 0.0
H253 H 0.16245 0.86061 0.80125 0.0
H254 H 0.16417 0.88494 0.79315 0.0
H255 H 0.14692 0.90377 0.81428 0.0
H256 H 0.13683 0.88639 0.82991 0.0
C257 C 0.2044 0.87157 0.89477 0.0
C258 C 0.22409 0.85103 0.8722 0.0
C259 C 0.11526 0.81882 0.83123 0.0
C260 C 0.10504 0.82655 0.81542 0.0
C261 C 0.11189 0.84341 0.80715 0.0
C262 C 0.1285 0.85244 0.81452 0.0
C263 C 0.13849 0.84456 0.83034 0.0
C264 C 0.13182 0.82802 0.83844 0.0
C265 C 0.14427 0.82173 0.85521 0.0
C266 C 0.15957 0.8372 0.85578 0.0
C267 C 0.15608 0.85048 0.84118 0.0
C268 C 0.13225 0.82211 0.87314 0.0
C269 C 0.15244 0.80195 0.85054 0.0
C270 C 0.19088 0.91019 0.82093 0.0
C271 C 0.20782 0.91937 0.82732 0.0
C272 C 0.21846 0.91147 0.84282 0.0
C273 C 0.21217 0.89481 0.85188 0.0
C274 C 0.19513 0.88583 0.84528 0.0
C275 C 0.18491 0.89356 0.82997 0.0
C276 C 0.16746 0.88202 0.82441 0.0
C277 C 0.1687 0.86613 0.83896 0.0
C278 C 0.18487 0.86836 0.85128 0.0
C279 C 0.14981 0.89468 0.82697 0.0
C280 C 0.16962 0.87451 0.80387 0.0
H281 H 0.16346 0.80399 0.8886 0.0
H282 H 0.22267 0.83628 0.91317 0.0
H283 H 0.22531 0.83602 0.86735 0.0
H284 H 0.22605 0.85974 0.85938 0.0
H285 H 0.23606 0.85396 0.88267 0.0
H286 H 0.1921 0.87051 0.90415 0.0
H287 H 0.21761 0.87227 0.90402 0.0
H288 H 0.20267 0.88527 0.88725 0.0
H289 H 0.1106 0.80571 0.83778 0.0
H290 H 0.10424 0.84979 0.79511 0.0
H291 H 0.13288 0.86526 0.80759 0.0
H292 H 0.12199 0.83409 0.87245 0.0
H293 H 0.12391 0.80869 0.8745 0.0
H294 H 0.14092 0.82459 0.88639 0.0
H295 H 0.15597 0.8011 0.83531 0.0
H296 H 0.16593 0.79893 0.85855 0.0
H297 H 0.14199 0.7904 0.85327 0.0
H298 H 0.18112 0.79051 0.91545 0.0
C299 C 0.1762 0.81135 0.89352 0.0
C300 C 0.15961 0.19705 0.84374 0.0
C301 C 0.14962 0.21175 0.85255 0.0
C302 C 0.15725 0.21955 0.86974 0.0
C303 C 0.18388 0.19792 0.86951 0.0
C304 C 0.17663 0.19027 0.85256 0.0
C305 C 0.18888 0.17426 0.84576 0.0
H306 H 0.26324 0.11437 0.86378 0.0
C307 C 0.20146 0.18761 0.87525 0.0
C308 C 0.20455 0.17364 0.86146 0.0
H309 H 0.2246 0.11504 0.81439 0.0
H310 H 0.20902 0.14285 0.82654 0.0
H311 H 0.27098 0.15916 0.86318 0.0
H312 H 0.2326 0.12559 0.89602 0.0
H313 H 0.24558 0.14157 0.91119 0.0
H314 H 0.25809 0.12383 0.89836 0.0
H315 H 0.27926 0.14603 0.88372 0.0
H316 H 0.27023 0.16993 0.88564 0.0
C317 C 0.19677 0.18008 0.8264 0.0
C318 C 0.17665 0.1558 0.84505 0.0
C319 C 0.23673 0.20592 0.93708 0.0
C320 C 0.25337 0.19939 0.94664 0.0
C321 C 0.26381 0.18479 0.93832 0.0
C322 C 0.25736 0.17645 0.92095 0.0
C323 C 0.24043 0.18295 0.91174 0.0
C324 C 0.23064 0.19766 0.91977 0.0
C325 C 0.21331 0.20329 0.90795 0.0
C326 C 0.21416 0.18952 0.89142 0.0
C327 C 0.22992 0.17748 0.89374 0.0
C328 C 0.21606 0.22426 0.90158 0.0
C329 C 0.19557 0.19963 0.91987 0.0
C330 C 0.25136 0.1205 0.85569 0.0
C331 C 0.24496 0.11243 0.83824 0.0
C332 C 0.22974 0.12103 0.82787 0.0
C333 C 0.22066 0.1371 0.835 0.0
C334 C 0.22695 0.14483 0.85265 0.0
C335 C 0.24236 0.13677 0.86247 0.0
C336 C 0.24791 0.14763 0.88035 0.0
C337 C 0.23287 0.16301 0.88006 0.0
C338 C 0.22043 0.16123 0.86388 0.0
C339 C 0.26819 0.15607 0.87831 0.0
C340 C 0.24609 0.13402 0.89748 0.0
H341 H 0.17912 0.2194 0.89126 0.0
H342 H 0.15411 0.19072 0.83055 0.0
H343 H 0.16804 0.15467 0.8579 0.0
H344 H 0.18521 0.14274 0.84496 0.0
H345 H 0.16666 0.15566 0.83237 0.0
H346 H 0.19993 0.19564 0.82603 0.0
H347 H 0.18632 0.1768 0.81451 0.0
H348 H 0.21043 0.17319 0.82363 0.0
H349 H 0.2286 0.21738 0.94295 0.0
H350 H 0.27672 0.17961 0.94543 0.0
H351 H 0.26571 0.16517 0.91543 0.0
H352 H 0.23131 0.22745 0.89915 0.0
H353 H 0.21137 0.23436 0.91255 0.0
H354 H 0.20856 0.22748 0.88785 0.0
H355 H 0.19777 0.18724 0.92954 0.0
H356 H 0.18269 0.19583 0.91107 0.0
H357 H 0.1925 0.21218 0.92882 0.0
H358 H 0.15008 0.23106 0.87666 0.0
C359 C 0.17424 0.21279 0.87818 0.0
C360 C 0.83898 0.12905 0.82014 0.0
C361 C 0.84395 0.11712 0.80515 0.0
C362 C 0.8607 0.12124 0.79554 0.0
C363 C 0.86712 0.14873 0.81588 0.0
C364 C 0.85064 0.14468 0.82518 0.0
C365 C 0.84705 0.15885 0.84057 0.0
H366 H 0.87509 0.23606 0.8922 0.0
C367 C 0.87584 0.16616 0.82459 0.0
C368 C 0.86404 0.17216 0.83899 0.0
H369 H 0.82422 0.20134 0.8969 0.0
H370 H 0.83334 0.18201 0.87083 0.0
H371 H 0.8714 0.23936 0.84746 0.0
H372 H 0.90452 0.20108 0.88307 0.0
H373 H 0.91904 0.21075 0.86558 0.0
H374 H 0.90859 0.22638 0.88236 0.0
H375 H 0.8937 0.24665 0.8587 0.0
H376 H 0.89245 0.235 0.83576 0.0
C377 C 0.82799 0.16898 0.83543 0.0
C378 C 0.84753 0.14805 0.8598 0.0
C379 C 0.93867 0.1923 0.80152 0.0
C380 C 0.94943 0.20877 0.80622 0.0
C381 C 0.94291 0.22133 0.82007 0.0
C382 C 0.92609 0.21744 0.82939 0.0
C383 C 0.9155 0.20088 0.82469 0.0
C384 C 0.92164 0.1888 0.81072 0.0
C385 C 0.90787 0.17254 0.80678 0.0
C386 C 0.89272 0.17663 0.82096 0.0
C387 C 0.8974 0.19314 0.83159 0.0
C388 C 0.89999 0.17422 0.78594 0.0
C389 C 0.91831 0.15368 0.81133 0.0
C390 C 0.86586 0.22435 0.88756 0.0
C391 C 0.84903 0.22011 0.89701 0.0
C392 C 0.83752 0.20469 0.89037 0.0
C393 C 0.84276 0.19352 0.87504 0.0
C394 C 0.8597 0.19773 0.86599 0.0
C395 C 0.87086 0.21305 0.8721 0.0
C396 C 0.88804 0.21565 0.86022 0.0
C397 C 0.88551 0.19909 0.84631 0.0
C398 C 0.86892 0.18866 0.84988 0.0
C399 C 0.88652 0.2352 0.85005 0.0
C400 C 0.90609 0.21348 0.8734 0.0
H401 H 0.88493 0.13925 0.79307 0.0
H402 H 0.82605 0.12648 0.82761 0.0
H403 H 0.85848 0.13671 0.86005 0.0
H404 H 0.85157 0.15724 0.87209 0.0
H405 H 0.83358 0.14111 0.86225 0.0
H406 H 0.82542 0.16995 0.81975 0.0
H407 H 0.81573 0.16115 0.84124 0.0
H408 H 0.82787 0.18393 0.84039 0.0
H409 H 0.94327 0.18255 0.79074 0.0
H410 H 0.95106 0.23406 0.82391 0.0
H411 H 0.922 0.22746 0.83993 0.0
H412 H 0.89905 0.18939 0.78145 0.0
H413 H 0.90933 0.16686 0.776 0.0
H414 H 0.88531 0.16859 0.78389 0.0
H415 H 0.9273 0.15507 0.82468 0.0
H416 H 0.9085 0.14164 0.81377 0.0
H417 H 0.92776 0.14979 0.79972 0.0
H418 H 0.86492 0.11218 0.78401 0.0
C419 C 0.87233 0.13693 0.80086 0.0
C420 C 0.82139 0.83504 0.89032 0.0
C421 C 0.80578 0.84521 0.8968 0.0
C422 C 0.79916 0.86104 0.88615 0.0
C423 C 0.82363 0.85639 0.86336 0.0
C424 C 0.82994 0.84078 0.87364 0.0
C425 C 0.84644 0.83127 0.86477 0.0
H426 H 0.91118 0.82913 0.79667 0.0
C427 C 0.83578 0.85858 0.84681 0.0
C428 C 0.84906 0.84382 0.8475 0.0
H429 H 0.90368 0.78969 0.84307 0.0
H430 H 0.877 0.80749 0.8531 0.0
H431 H 0.90239 0.86824 0.8205 0.0
H432 H 0.86581 0.83192 0.78487 0.0
H433 H 0.86022 0.85582 0.77994 0.0
H434 H 0.8836 0.84715 0.77512 0.0
H435 H 0.90521 0.86582 0.79537 0.0
H436 H 0.88852 0.88233 0.80459 0.0
C437 C 0.86381 0.83255 0.87911 0.0
C438 C 0.84023 0.81067 0.85911 0.0
C439 C 0.82599 0.91493 0.80269 0.0
C440 C 0.83493 0.92133 0.78638 0.0
C441 C 0.8495 0.91027 0.77898 0.0
C442 C 0.85549 0.89339 0.78819 0.0
C443 C 0.84667 0.88748 0.80484 0.0
C444 C 0.83198 0.89812 0.81159 0.0
C445 C 0.8238 0.8897 0.8291 0.0
C446 C 0.83617 0.87234 0.83205 0.0
C447 C 0.84966 0.87107 0.81792 0.0
C448 C 0.8268 0.9043 0.84553 0.0
C449 C 0.8027 0.88419 0.82437 0.0
C450 C 0.90369 0.82426 0.8089 0.0
C451 C 0.90983 0.80805 0.81923 0.0
C452 C 0.89965 0.80232 0.83511 0.0
C453 C 0.88399 0.81263 0.84086 0.0
C454 C 0.87824 0.8289 0.83064 0.0
C455 C 0.88788 0.83442 0.81484 0.0
C456 C 0.87934 0.85195 0.80561 0.0
C457 C 0.86313 0.85605 0.81862 0.0
C458 C 0.86271 0.8425 0.83329 0.0
C459 C 0.89461 0.868 0.80639 0.0
C460 C 0.87192 0.84661 0.78525 0.0
H461 H 0.80227 0.87884 0.86214 0.0
H462 H 0.82706 0.82295 0.89817 0.0
H463 H 0.82463 0.8097 0.8558 0.0
H464 H 0.84674 0.80573 0.84598 0.0
H465 H 0.84364 0.80046 0.87078 0.0
H466 H 0.86422 0.84654 0.88659 0.0
H467 H 0.86311 0.82123 0.89008 0.0
H468 H 0.8776 0.8317 0.87227 0.0
H469 H 0.81448 0.92292 0.80848 0.0
H470 H 0.85652 0.91491 0.76637 0.0
H471 H 0.86685 0.88569 0.7821 0.0
H472 H 0.84098 0.91144 0.84491 0.0
H473 H 0.8158 0.91554 0.84464 0.0
H474 H 0.82676 0.89771 0.85975 0.0
H475 H 0.80045 0.88007 0.80916 0.0
H476 H 0.79797 0.87158 0.83238 0.0
H477 H 0.7931 0.89627 0.82708 0.0
H478 H 0.78698 0.86899 0.89054 0.0
C479 C 0.80798 0.86667 0.86953 0.0
C480 C 0.22074 0.63067 0.69851 0.0
C481 C 0.23472 0.62164 0.68804 0.0
C482 C 0.23951 0.62972 0.67046 0.0
C483 C 0.21668 0.65503 0.67424 0.0
C484 C 0.21177 0.64699 0.69125 0.0
C485 C 0.19565 0.65721 0.7 0.0
H486 H 0.12815 0.72499 0.69446 0.0
C487 C 0.20448 0.67187 0.67075 0.0
C488 C 0.19197 0.67304 0.68566 0.0
H489 H 0.13674 0.68084 0.73676 0.0
H490 H 0.16466 0.6705 0.72152 0.0
H491 H 0.1388 0.69984 0.6572 0.0
H492 H 0.17382 0.73669 0.69382 0.0
H493 H 0.18046 0.73995 0.67025 0.0
H494 H 0.15671 0.74609 0.67672 0.0
H495 H 0.13494 0.72503 0.65906 0.0
H496 H 0.15214 0.71576 0.64345 0.0
C497 C 0.17851 0.64311 0.70087 0.0
C498 C 0.20295 0.6652 0.71956 0.0
C499 C 0.21483 0.71348 0.61327 0.0
C500 C 0.20669 0.73047 0.60641 0.0
C501 C 0.19214 0.7389 0.61662 0.0
C502 C 0.18557 0.73021 0.63319 0.0
C503 C 0.19381 0.71306 0.63973 0.0
C504 C 0.20834 0.70516 0.62983 0.0
C505 C 0.21603 0.68734 0.63897 0.0
C506 C 0.20384 0.68579 0.65612 0.0
C507 C 0.19064 0.70073 0.65646 0.0
C508 C 0.21237 0.67053 0.62492 0.0
C509 C 0.23729 0.69091 0.64478 0.0
C510 C 0.13614 0.71317 0.70045 0.0
C511 C 0.12993 0.70347 0.71666 0.0
C512 C 0.14084 0.68823 0.72404 0.0
C513 C 0.15715 0.68226 0.71519 0.0
C514 C 0.16277 0.69154 0.69867 0.0
C515 C 0.15257 0.70693 0.69168 0.0
C516 C 0.16113 0.71514 0.6741 0.0
C517 C 0.17751 0.70152 0.67129 0.0
C518 C 0.17832 0.68779 0.68581 0.0
C519 C 0.14601 0.71403 0.6575 0.0
C520 C 0.16833 0.7356 0.67878 0.0
H521 H 0.23498 0.65172 0.65015 0.0
H522 H 0.2167 0.62523 0.71215 0.0
H523 H 0.21777 0.67079 0.7188 0.0
H524 H 0.19458 0.67738 0.72438 0.0
H525 H 0.203 0.65393 0.73064 0.0
H526 H 0.17913 0.63175 0.68988 0.0
H527 H 0.17823 0.63595 0.71493 0.0
H528 H 0.16466 0.65002 0.69779 0.0
H529 H 0.22632 0.70686 0.606 0.0
H530 H 0.18572 0.75204 0.61164 0.0
H531 H 0.17431 0.73712 0.64026 0.0
H532 H 0.19925 0.6728 0.6158 0.0
H533 H 0.2244 0.66888 0.61535 0.0
H534 H 0.2098 0.65686 0.63221 0.0
H535 H 0.23947 0.70552 0.65069 0.0
H536 H 0.24269 0.68127 0.65609 0.0
H537 H 0.24636 0.68955 0.63233 0.0
H538 H 0.24985 0.62304 0.66175 0.0
C539 C 0.23068 0.64636 0.6636 0.0
C540 C 0.83431 0.64756 0.68369 0.0
C541 C 0.81733 0.63966 0.67557 0.0
C542 C 0.8084 0.64894 0.65983 0.0
C543 C 0.83314 0.67339 0.66066 0.0
C544 C 0.84191 0.66431 0.67605 0.0
C545 C 0.85998 0.67435 0.68286 0.0
H546 H 0.92364 0.74673 0.67366 0.0
C547 C 0.84467 0.69052 0.65628 0.0
C548 C 0.86039 0.69117 0.6693 0.0
H549 H 0.92656 0.69918 0.71262 0.0
H550 H 0.89607 0.68757 0.70037 0.0
H551 H 0.87919 0.75561 0.67816 0.0
H552 H 0.90813 0.72191 0.63747 0.0
H553 H 0.89102 0.73572 0.625 0.0
H554 H 0.90999 0.74743 0.63862 0.0
H555 H 0.89161 0.76633 0.6591 0.0
H556 H 0.86701 0.75877 0.65608 0.0
C557 C 0.85761 0.68083 0.70366 0.0
C558 C 0.87684 0.66066 0.68018 0.0
C559 C 0.825 0.73307 0.60048 0.0
C560 C 0.83243 0.75023 0.59345 0.0
C561 C 0.84827 0.75885 0.60307 0.0
C562 C 0.85696 0.75017 0.61913 0.0
C563 C 0.84965 0.73276 0.62572 0.0
C564 C 0.83369 0.7247 0.61666 0.0
C565 C 0.82729 0.70672 0.62625 0.0
C566 C 0.84238 0.70498 0.64224 0.0
C567 C 0.85556 0.72017 0.64172 0.0
C568 C 0.80724 0.71011 0.63386 0.0
C569 C 0.82817 0.69012 0.61182 0.0
C570 C 0.91757 0.73393 0.67961 0.0
C571 C 0.92754 0.72377 0.694 0.0
C572 C 0.91924 0.70709 0.70133 0.0
C573 C 0.90152 0.70038 0.69423 0.0
C574 C 0.89192 0.71033 0.67948 0.0
C575 C 0.8999 0.72685 0.67246 0.0
C576 C 0.88786 0.73514 0.65637 0.0
C577 C 0.87151 0.72077 0.65482 0.0
C578 C 0.87393 0.70632 0.66846 0.0
C579 C 0.8811 0.75507 0.66255 0.0
C580 C 0.89977 0.73523 0.63837 0.0
H581 H 0.80866 0.67203 0.64042 0.0
H582 H 0.84174 0.6407 0.69559 0.0
H583 H 0.87389 0.65086 0.66794 0.0
H584 H 0.89012 0.66822 0.6767 0.0
H585 H 0.87959 0.65175 0.69302 0.0
H586 H 0.84298 0.68623 0.70552 0.0
H587 H 0.85995 0.66881 0.71372 0.0
H588 H 0.86721 0.69275 0.708 0.0
H589 H 0.81256 0.72636 0.5936 0.0
H590 H 0.85415 0.77211 0.59792 0.0
H591 H 0.86912 0.75729 0.6257 0.0
H592 H 0.80556 0.72522 0.63823 0.0
H593 H 0.7959 0.70681 0.62283 0.0
H594 H 0.80458 0.70177 0.64681 0.0
H595 H 0.84116 0.69139 0.60341 0.0
H596 H 0.82911 0.67601 0.61868 0.0
H597 H 0.81561 0.69017 0.60167 0.0
H598 H 0.79521 0.64335 0.6534 0.0
C599 C 0.81618 0.6657 0.65237 0.0
C600 C 0.92979 0.35191 0.73713 0.0
C601 C 0.93933 0.33489 0.73315 0.0
C602 C 0.93319 0.32422 0.71695 0.0
C603 C 0.90827 0.34697 0.70944 0.0
C604 C 0.91433 0.35762 0.72515 0.0
C605 C 0.90246 0.37519 0.72736 0.0
H606 H 0.82811 0.42932 0.69592 0.0
C607 C 0.89173 0.35661 0.70008 0.0
C608 C 0.88822 0.37318 0.71053 0.0
H609 H 0.86754 0.44069 0.74363 0.0
H610 H 0.88393 0.4114 0.73741 0.0
H611 H 0.82302 0.38446 0.70324 0.0
H612 H 0.85995 0.4164 0.66749 0.0
H613 H 0.85151 0.39647 0.65444 0.0
H614 H 0.83484 0.41389 0.66217 0.0
H615 H 0.81439 0.39626 0.68199 0.0
H616 H 0.82361 0.37239 0.68138 0.0
C617 C 0.89266 0.37384 0.74659 0.0
C618 C 0.91557 0.3929 0.72545 0.0
C619 C 0.85902 0.32733 0.64068 0.0
C620 C 0.84317 0.33265 0.62896 0.0
C621 C 0.83342 0.34942 0.63356 0.0
C622 C 0.83931 0.36062 0.64934 0.0
C623 C 0.85518 0.35512 0.66083 0.0
C624 C 0.86471 0.33868 0.65643 0.0
C625 C 0.88114 0.33491 0.67034 0.0
C626 C 0.87996 0.35183 0.68374 0.0
C627 C 0.86474 0.36365 0.6781 0.0
C628 C 0.87716 0.31578 0.68048 0.0
C629 C 0.89973 0.33536 0.6593 0.0
C630 C 0.8404 0.4257 0.70496 0.0
C631 C 0.84652 0.43758 0.72027 0.0
C632 C 0.86234 0.43185 0.73186 0.0
C633 C 0.87195 0.41486 0.72813 0.0
C634 C 0.86577 0.40336 0.7126 0.0
C635 C 0.85022 0.4089 0.70134 0.0
C636 C 0.84574 0.39516 0.68528 0.0
C637 C 0.86117 0.38044 0.68868 0.0
C638 C 0.87286 0.38523 0.70476 0.0
C639 C 0.8256 0.38663 0.6879 0.0
C640 C 0.84795 0.40593 0.66627 0.0
H641 H 0.91393 0.32131 0.69312 0.0
H642 H 0.93402 0.36045 0.74945 0.0
H643 H 0.92648 0.39035 0.71477 0.0
H644 H 0.90783 0.4056 0.72024 0.0
H645 H 0.9232 0.39637 0.73919 0.0
H646 H 0.8878 0.35898 0.74926 0.0
H647 H 0.90261 0.37811 0.75858 0.0
H648 H 0.87971 0.38254 0.74703 0.0
H649 H 0.86702 0.31469 0.63757 0.0
H650 H 0.82099 0.35379 0.6251 0.0
H651 H 0.83121 0.37313 0.65202 0.0
H652 H 0.86166 0.31382 0.6826 0.0
H653 H 0.88189 0.3035 0.67199 0.0
H654 H 0.88389 0.31503 0.69493 0.0
H655 H 0.89899 0.34636 0.64792 0.0
H656 H 0.9124 0.33934 0.66832 0.0
H657 H 0.90222 0.32141 0.65242 0.0
H658 H 0.94045 0.31129 0.71323 0.0
C659 C 0.9178 0.33013 0.70516 0.0
C660 C 0.2115 0.43543 0.72345 0.0
C661 C 0.20567 0.44101 0.7414 0.0
C662 C 0.19296 0.42931 0.7511 0.0
C663 C 0.19185 0.40683 0.72474 0.0
C664 C 0.20463 0.41828 0.71552 0.0
C665 C 0.21039 0.40982 0.69706 0.0
H666 H 0.20521 0.33787 0.6332 0.0
C667 C 0.1877 0.38991 0.71255 0.0
C668 C 0.19867 0.39154 0.69644 0.0
H669 H 0.24081 0.38858 0.63331 0.0
H670 H 0.22691 0.39944 0.66182 0.0
H671 H 0.21066 0.32954 0.67867 0.0
H672 H 0.16687 0.35924 0.64603 0.0
H673 H 0.15586 0.34554 0.6634 0.0
H674 H 0.16887 0.33378 0.6453 0.0
H675 H 0.19431 0.31758 0.66222 0.0
H676 H 0.18825 0.3222 0.68637 0.0
C677 C 0.23211 0.40593 0.6987 0.0
C678 C 0.20416 0.42361 0.68082 0.0
C679 C 0.13978 0.34012 0.73273 0.0
C680 C 0.13287 0.32289 0.72468 0.0
C681 C 0.13942 0.31721 0.70691 0.0
C682 C 0.15294 0.32831 0.69758 0.0
C683 C 0.15996 0.3453 0.70607 0.0
C684 C 0.15322 0.35099 0.7233 0.0
C685 C 0.16214 0.3694 0.73033 0.0
C686 C 0.17531 0.37396 0.71444 0.0
C687 C 0.17409 0.35978 0.70027 0.0
C688 C 0.17331 0.36547 0.74939 0.0
C689 C 0.14619 0.38432 0.73169 0.0
C690 C 0.21007 0.35126 0.63945 0.0
C691 C 0.22415 0.36238 0.63086 0.0
C692 C 0.22982 0.37985 0.63936 0.0
C693 C 0.22183 0.38608 0.65609 0.0
C694 C 0.20802 0.37475 0.66462 0.0
C695 C 0.20224 0.35771 0.65628 0.0
C696 C 0.18736 0.34763 0.66752 0.0
C697 C 0.18556 0.36127 0.68415 0.0
C698 C 0.1977 0.37711 0.68228 0.0
C699 C 0.19538 0.32813 0.67401 0.0
C700 C 0.16873 0.34628 0.65498 0.0
H701 H 0.17614 0.40397 0.75078 0.0
H702 H 0.22157 0.44407 0.71591 0.0
H703 H 0.19005 0.42988 0.6835 0.0
H704 H 0.20224 0.41649 0.66686 0.0
H705 H 0.21454 0.43555 0.67964 0.0
H706 H 0.23705 0.40339 0.71372 0.0
H707 H 0.24045 0.41819 0.69338 0.0
H708 H 0.23609 0.39286 0.69111 0.0
H709 H 0.13481 0.34514 0.74619 0.0
H710 H 0.13441 0.30399 0.70041 0.0
H711 H 0.15754 0.32313 0.6842 0.0
H712 H 0.17913 0.35079 0.74972 0.0
H713 H 0.164 0.36691 0.76166 0.0
H714 H 0.18592 0.37487 0.75164 0.0
H715 H 0.13596 0.38318 0.71921 0.0
H716 H 0.15157 0.39913 0.73158 0.0
H717 H 0.13807 0.3821 0.74471 0.0
H718 H 0.18845 0.43341 0.76504 0.0
C719 C 0.18589 0.41228 0.74279 0.0
C720 C 0.20666 0.34168 0.42904 0.0
C721 C 0.19907 0.32513 0.43716 0.0
C722 C 0.18471 0.31478 0.42697 0.0
C723 C 0.18526 0.33797 0.40129 0.0
C724 C 0.19968 0.34773 0.41119 0.0
C725 C 0.20668 0.36477 0.40053 0.0
H726 H 0.20437 0.41901 0.32124 0.0
C727 C 0.18126 0.34831 0.38321 0.0
C728 C 0.19384 0.36391 0.38264 0.0
H729 H 0.24037 0.42514 0.37248 0.0
H730 H 0.22476 0.39851 0.38639 0.0
H731 H 0.16529 0.41138 0.34488 0.0
H732 H 0.20357 0.37211 0.31912 0.0
H733 H 0.1797 0.36617 0.31253 0.0
H734 H 0.1894 0.38873 0.30539 0.0
H735 H 0.16629 0.40908 0.31953 0.0
H736 H 0.1519 0.39321 0.33321 0.0
C737 C 0.20308 0.38283 0.41252 0.0
C738 C 0.22786 0.36143 0.39625 0.0
C739 C 0.12825 0.32451 0.33816 0.0
C740 C 0.12077 0.33051 0.32035 0.0
C741 C 0.12846 0.34703 0.31209 0.0
C742 C 0.14376 0.35704 0.32128 0.0
C743 C 0.15129 0.35054 0.33898 0.0
C744 C 0.14333 0.33458 0.34711 0.0
C745 C 0.15279 0.32953 0.36593 0.0
C746 C 0.16772 0.34515 0.36798 0.0
C747 C 0.16697 0.35745 0.35216 0.0
C748 C 0.13778 0.33096 0.38133 0.0
C749 C 0.16181 0.30957 0.36414 0.0
C750 C 0.20882 0.41467 0.33549 0.0
C751 C 0.22408 0.42407 0.34551 0.0
C752 C 0.22921 0.4179 0.36409 0.0
C753 C 0.21997 0.40244 0.37228 0.0
C754 C 0.2052 0.39292 0.36198 0.0
C755 C 0.19956 0.39921 0.34403 0.0
C756 C 0.18295 0.38761 0.33571 0.0
C757 C 0.18012 0.37301 0.35138 0.0
C758 C 0.19331 0.37625 0.36665 0.0
C759 C 0.16565 0.40093 0.33301 0.0
C760 C 0.18907 0.37817 0.31712 0.0
H761 H 0.16657 0.31283 0.4021 0.0
H762 H 0.21802 0.34969 0.43638 0.0
H763 H 0.23049 0.34609 0.39352 0.0
H764 H 0.2323 0.36876 0.38328 0.0
H765 H 0.23745 0.36592 0.40844 0.0
H766 H 0.19008 0.38108 0.42085 0.0
H767 H 0.21521 0.38584 0.42277 0.0
H768 H 0.20031 0.39561 0.4037 0.0
H769 H 0.12245 0.31209 0.34508 0.0
H770 H 0.12293 0.35193 0.29836 0.0
H771 H 0.14926 0.36933 0.31421 0.0
H772 H 0.12838 0.34341 0.37862 0.0
H773 H 0.12859 0.31798 0.3814 0.0
H774 H 0.14414 0.33326 0.39577 0.0
H775 H 0.1664 0.30698 0.34943 0.0
H776 H 0.17493 0.30796 0.37322 0.0
H777 H 0.15153 0.29809 0.36757 0.0
H778 H 0.17876 0.30193 0.43295 0.0
C779 C 0.17767 0.32118 0.4091 0.0
C780 C 0.21771 0.62322 0.32718 0.0
C781 C 0.20919 0.61503 0.3106 0.0
C782 C 0.1934 0.62419 0.30172 0.0
C783 C 0.1943 0.64849 0.32659 0.0
C784 C 0.21016 0.63978 0.33484 0.0
C785 C 0.21777 0.65 0.35241 0.0
H786 H 0.2106 0.72116 0.41666 0.0
C787 C 0.18978 0.66514 0.33867 0.0
C788 C 0.20362 0.66604 0.35376 0.0
H789 H 0.25435 0.67845 0.41434 0.0
H790 H 0.23873 0.66482 0.38628 0.0
H791 H 0.17615 0.69399 0.40749 0.0
H792 H 0.2083 0.72979 0.37086 0.0
H793 H 0.18401 0.73266 0.36453 0.0
H794 H 0.19272 0.73883 0.38821 0.0
H795 H 0.17195 0.71909 0.40562 0.0
H796 H 0.15984 0.70214 0.38984 0.0
C797 C 0.21679 0.6361 0.36944 0.0
C798 C 0.23807 0.65754 0.34863 0.0
C799 C 0.13142 0.70619 0.32291 0.0
C800 C 0.12333 0.72179 0.33228 0.0
C801 C 0.13222 0.7282 0.34955 0.0
C802 C 0.14886 0.71975 0.35707 0.0
C803 C 0.15684 0.70445 0.34747 0.0
C804 C 0.14805 0.69772 0.3308 0.0
C805 C 0.15832 0.68077 0.32307 0.0
C806 C 0.17478 0.67867 0.33774 0.0
C807 C 0.17385 0.69274 0.35192 0.0
C808 C 0.14458 0.6634 0.32304 0.0
C809 C 0.16539 0.68602 0.30323 0.0
C810 C 0.21695 0.70899 0.41002 0.0
C811 C 0.2338 0.70092 0.4179 0.0
C812 C 0.24129 0.68486 0.40885 0.0
C813 C 0.23225 0.67702 0.39241 0.0
C814 C 0.21545 0.68524 0.38475 0.0
C815 C 0.2081 0.70098 0.39355 0.0
C816 C 0.19011 0.70782 0.38343 0.0
C817 C 0.18803 0.69376 0.36697 0.0
C818 C 0.20286 0.68053 0.36785 0.0
C819 C 0.1736 0.70584 0.39723 0.0
C820 C 0.19378 0.7284 0.37643 0.0
H821 H 0.17371 0.64701 0.30238 0.0
H822 H 0.23014 0.61685 0.33413 0.0
H823 H 0.2394 0.66126 0.33337 0.0
H824 H 0.24169 0.67088 0.35639 0.0
H825 H 0.24899 0.64668 0.35232 0.0
H826 H 0.2035 0.62733 0.36832 0.0
H827 H 0.22903 0.6262 0.36988 0.0
H828 H 0.21633 0.64344 0.38328 0.0
H829 H 0.12512 0.70079 0.30964 0.0
H830 H 0.1262 0.73969 0.35752 0.0
H831 H 0.1548 0.72544 0.37019 0.0
H832 H 0.13634 0.66321 0.33618 0.0
H833 H 0.13423 0.6639 0.31066 0.0
H834 H 0.15202 0.64966 0.32294 0.0
H835 H 0.1708 0.70098 0.3031 0.0
H836 H 0.17745 0.67724 0.29905 0.0
H837 H 0.15369 0.68472 0.29215 0.0
H838 H 0.18662 0.61824 0.2889 0.0
C839 C 0.18587 0.64082 0.30966 0.0
C840 C 0.81727 0.6173 0.31336 0.0
C841 C 0.82378 0.60892 0.29677 0.0
C842 C 0.8403 0.61654 0.28873 0.0
C843 C 0.84295 0.64084 0.31322 0.0
C844 C 0.82702 0.63312 0.32127 0.0
C845 C 0.82169 0.64374 0.3387 0.0
H846 H 0.835 0.71747 0.39951 0.0
C847 C 0.84936 0.65755 0.32477 0.0
C848 C 0.83694 0.65922 0.33974 0.0
H849 H 0.79317 0.67189 0.40028 0.0
H850 H 0.80619 0.65782 0.37272 0.0
H851 H 0.83404 0.7231 0.35241 0.0
H852 H 0.86983 0.69054 0.39132 0.0
H853 H 0.88431 0.69924 0.37352 0.0
H854 H 0.87283 0.71582 0.38883 0.0
H855 H 0.85018 0.73382 0.36991 0.0
H856 H 0.85805 0.72677 0.34698 0.0
C857 C 0.80151 0.65202 0.33481 0.0
C858 C 0.82346 0.62991 0.35589 0.0
C859 C 0.90595 0.69817 0.30531 0.0
C860 C 0.91479 0.71469 0.31315 0.0
C861 C 0.90792 0.72213 0.3302 0.0
C862 C 0.89235 0.71378 0.3389 0.0
C863 C 0.88341 0.69763 0.33067 0.0
C864 C 0.89037 0.68992 0.31429 0.0
C865 C 0.87921 0.67244 0.30783 0.0
C866 C 0.86442 0.67107 0.32295 0.0
C867 C 0.86688 0.68597 0.33625 0.0
C868 C 0.86999 0.67651 0.28788 0.0
C869 C 0.89282 0.65524 0.30854 0.0
C870 C 0.82866 0.70453 0.39356 0.0
C871 C 0.81303 0.69574 0.40203 0.0
C872 C 0.8053 0.6788 0.3941 0.0
C873 C 0.81287 0.67067 0.37803 0.0
C874 C 0.82845 0.67949 0.36968 0.0
C875 C 0.83626 0.69603 0.37748 0.0
C876 C 0.85332 0.70277 0.36692 0.0
C877 C 0.85415 0.6877 0.35137 0.0
C878 C 0.83941 0.67427 0.35308 0.0
C879 C 0.84886 0.72272 0.35865 0.0
C880 C 0.87105 0.70225 0.38078 0.0
H881 H 0.86225 0.63756 0.28997 0.0
H882 H 0.8046 0.61195 0.31987 0.0
H883 H 0.83429 0.61877 0.35364 0.0
H884 H 0.82848 0.63712 0.3692 0.0
H885 H 0.80973 0.62249 0.35824 0.0
H886 H 0.79953 0.65666 0.31974 0.0
H887 H 0.79029 0.64121 0.3375 0.0
H888 H 0.79886 0.66492 0.34323 0.0
H889 H 0.91076 0.69202 0.29228 0.0
H890 H 0.91468 0.73448 0.33695 0.0
H891 H 0.88783 0.72028 0.35172 0.0
H892 H 0.8647 0.69138 0.28703 0.0
H893 H 0.88045 0.67471 0.27665 0.0
H894 H 0.85741 0.66743 0.28441 0.0
H895 H 0.90329 0.65648 0.32083 0.0
H896 H 0.88537 0.64153 0.31068 0.0
H897 H 0.90097 0.65438 0.2954 0.0
H898 H 0.84591 0.61015 0.27616 0.0
C899 C 0.84987 0.63242 0.29683 0.0
C900 C 0.83395 0.33309 0.42509 0.0
C901 C 0.81756 0.34187 0.43155 0.0
C902 C 0.80835 0.35561 0.41991 0.0
C903 C 0.83238 0.35211 0.39624 0.0
C904 C 0.84098 0.33825 0.40751 0.0
C905 C 0.85805 0.32982 0.39867 0.0
H906 H 0.91609 0.32579 0.3247 0.0
C907 C 0.84352 0.35415 0.37887 0.0
C908 C 0.85845 0.34089 0.38023 0.0
H909 H 0.92051 0.29375 0.37721 0.0
H910 H 0.89244 0.30915 0.38804 0.0
H911 H 0.91031 0.36396 0.34409 0.0
H912 H 0.87067 0.32391 0.31828 0.0
H913 H 0.8629 0.34664 0.31121 0.0
H914 H 0.88623 0.33884 0.3051 0.0
H915 H 0.90514 0.36368 0.31894 0.0
H916 H 0.89171 0.37801 0.3348 0.0
C917 C 0.87581 0.33412 0.41187 0.0
C918 C 0.854 0.30833 0.39517 0.0
C919 C 0.82819 0.40581 0.32929 0.0
C920 C 0.83696 0.41097 0.31233 0.0
C921 C 0.85205 0.39984 0.30613 0.0
C922 C 0.85869 0.38429 0.31671 0.0
C923 C 0.85028 0.37964 0.33385 0.0
C924 C 0.83514 0.39012 0.33986 0.0
C925 C 0.828 0.38264 0.35843 0.0
C926 C 0.84185 0.36648 0.36278 0.0
C927 C 0.85476 0.36487 0.34821 0.0
C928 C 0.82996 0.39874 0.37342 0.0
C929 C 0.80737 0.37519 0.35479 0.0
C930 C 0.91124 0.32212 0.33863 0.0
C931 C 0.92074 0.30843 0.35003 0.0
C932 C 0.91344 0.30399 0.36791 0.0
C933 C 0.89718 0.3131 0.37428 0.0
C934 C 0.88809 0.32695 0.36276 0.0
C935 C 0.89527 0.33127 0.34532 0.0
C936 C 0.88457 0.34698 0.33531 0.0
C937 C 0.86948 0.3512 0.34944 0.0
C938 C 0.87145 0.33937 0.36542 0.0
C939 C 0.89854 0.36405 0.33298 0.0
C940 C 0.87567 0.33886 0.31639 0.0
H941 H 0.80829 0.37158 0.39419 0.0
H942 H 0.84113 0.32219 0.43352 0.0
H943 H 0.83888 0.30588 0.39034 0.0
H944 H 0.86244 0.30229 0.3838 0.0
H945 H 0.85668 0.29997 0.40839 0.0
H946 H 0.87463 0.34825 0.41889 0.0
H947 H 0.87749 0.32323 0.42325 0.0
H948 H 0.8891 0.33507 0.40411 0.0
H949 H 0.81649 0.414 0.3344 0.0
H950 H 0.85873 0.40313 0.29293 0.0
H951 H 0.87025 0.37655 0.31112 0.0
H952 H 0.8441 0.40593 0.37278 0.0
H953 H 0.81883 0.40967 0.37083 0.0
H954 H 0.82907 0.39351 0.38812 0.0
H955 H 0.80559 0.36842 0.34051 0.0
H956 H 0.80343 0.36397 0.36491 0.0
H957 H 0.797 0.38699 0.35535 0.0
H958 H 0.79566 0.3625 0.42457 0.0
C959 C 0.81574 0.36086 0.40233 0.0
C960 C 0.70485 0.22148 0.61164 0.0
C961 C 0.71929 0.21605 0.59954 0.0
C962 C 0.7297 0.19941 0.60383 0.0
C963 C 0.71136 0.19374 0.6316 0.0
C964 C 0.70101 0.21001 0.62748 0.0
C965 C 0.68566 0.21299 0.6415 0.0
H966 H 0.64315 0.18394 0.72164 0.0
C967 C 0.70406 0.18498 0.64898 0.0
C968 C 0.68893 0.19619 0.6549 0.0
H969 H 0.62651 0.23066 0.68466 0.0
H970 H 0.65265 0.22388 0.66461 0.0
H971 H 0.64938 0.15469 0.68795 0.0
H972 H 0.68716 0.19093 0.72164 0.0
H973 H 0.69985 0.16999 0.71783 0.0
H974 H 0.6781 0.16886 0.73055 0.0
H975 H 0.65589 0.14992 0.7124 0.0
H976 H 0.66987 0.14136 0.69336 0.0
C977 C 0.66608 0.21162 0.63058 0.0
C978 C 0.6895 0.23227 0.65167 0.0
C979 C 0.7351 0.12499 0.67684 0.0
C980 C 0.73219 0.11477 0.69368 0.0
C981 C 0.71785 0.12065 0.70568 0.0
C982 C 0.7066 0.13644 0.70116 0.0
C983 C 0.70969 0.14669 0.68445 0.0
C984 C 0.72381 0.14104 0.67264 0.0
C985 C 0.72548 0.15435 0.65596 0.0
C986 C 0.70988 0.16865 0.65965 0.0
C987 C 0.70063 0.16393 0.67627 0.0
C988 C 0.72109 0.14277 0.63751 0.0
C989 C 0.74558 0.1637 0.65733 0.0
C990 C 0.64486 0.19263 0.70912 0.0
C991 C 0.63252 0.20784 0.70484 0.0
C992 C 0.63582 0.21898 0.68855 0.0
C993 C 0.65095 0.21491 0.67677 0.0
C994 C 0.66292 0.19945 0.68117 0.0
C995 C 0.65967 0.18862 0.69712 0.0
C996 C 0.67334 0.17243 0.69949 0.0
C997 C 0.6853 0.17515 0.68226 0.0
C998 C 0.67932 0.1911 0.6716 0.0
C999 C 0.66166 0.15354 0.6984 0.0
C1000 C 0.68521 0.1755 0.71838 0.0
H1001 H 0.73434 0.17586 0.62208 0.0
H1002 H 0.69651 0.23409 0.60862 0.0
H1003 H 0.7049 0.23393 0.65577 0.0
H1004 H 0.68195 0.23359 0.665 0.0
H1005 H 0.68542 0.24436 0.64221 0.0
H1006 H 0.6664 0.20105 0.6188 0.0
H1007 H 0.66201 0.22556 0.62424 0.0
H1008 H 0.6546 0.20652 0.63957 0.0
H1009 H 0.74617 0.12088 0.66746 0.0
H1010 H 0.71531 0.1129 0.71866 0.0
H1011 H 0.69596 0.14007 0.71097 0.0
H1012 H 0.70955 0.13211 0.63961 0.0
H1013 H 0.73384 0.13492 0.63318 0.0
H1014 H 0.71579 0.15167 0.62552 0.0
H1015 H 0.75047 0.16594 0.67243 0.0
H1016 H 0.74598 0.17805 0.65094 0.0
H1017 H 0.75621 0.15459 0.65059 0.0
H1018 H 0.74104 0.19504 0.59489 0.0
C1019 C 0.72585 0.1883 0.61971 0.0
C1020 C 0.3325 0.1358 0.70679 0.0
C1021 C 0.31478 0.12891 0.69927 0.0
C1022 C 0.30578 0.13871 0.68396 0.0
C1023 C 0.33196 0.16143 0.68358 0.0
C1024 C 0.34083 0.15202 0.6987 0.0
C1025 C 0.35972 0.1612 0.70458 0.0
H1026 H 0.42603 0.23074 0.69015 0.0
C1027 C 0.34434 0.1775 0.67818 0.0
C1028 C 0.36073 0.1775 0.69037 0.0
H1029 H 0.42783 0.18655 0.73293 0.0
H1030 H 0.39732 0.17441 0.72113 0.0
H1031 H 0.38055 0.24058 0.69404 0.0
H1032 H 0.41144 0.20494 0.65663 0.0
H1033 H 0.3924 0.21434 0.64282 0.0
H1034 H 0.41025 0.23026 0.6534 0.0
H1035 H 0.39623 0.24974 0.67668 0.0
H1036 H 0.37158 0.24444 0.67064 0.0
C1037 C 0.35851 0.16853 0.72523 0.0
C1038 C 0.37558 0.14644 0.70188 0.0
C1039 C 0.32245 0.22093 0.62392 0.0
C1040 C 0.3309 0.23676 0.61524 0.0
C1041 C 0.3495 0.24241 0.62149 0.0
C1042 C 0.35918 0.23299 0.63646 0.0
C1043 C 0.35034 0.21756 0.64532 0.0
C1044 C 0.33243 0.21156 0.6388 0.0
C1045 C 0.32557 0.19447 0.64948 0.0
C1046 C 0.34217 0.19144 0.66369 0.0
C1047 C 0.35656 0.20512 0.6613 0.0
C1048 C 0.30721 0.20006 0.65945 0.0
C1049 C 0.32304 0.17765 0.63522 0.0
C1050 C 0.41977 0.21858 0.69711 0.0
C1051 C 0.42949 0.2096 0.71247 0.0
C1052 C 0.42084 0.19362 0.72091 0.0
C1053 C 0.40304 0.18661 0.71409 0.0
C1054 C 0.39362 0.1956 0.6986 0.0
C1055 C 0.402 0.21134 0.69041 0.0
C1056 C 0.39006 0.21895 0.67393 0.0
C1057 C 0.37312 0.20531 0.67364 0.0
C1058 C 0.37521 0.19162 0.68814 0.0
C1059 C 0.38432 0.23956 0.67888 0.0
C1060 C 0.40156 0.21722 0.6557 0.0
H1061 H 0.30656 0.16157 0.6645 0.0
H1062 H 0.33986 0.12856 0.71849 0.0
H1063 H 0.37262 0.13796 0.68869 0.0
H1064 H 0.38969 0.15308 0.70009 0.0
H1065 H 0.37657 0.13635 0.71402 0.0
H1066 H 0.34422 0.17456 0.72754 0.0
H1067 H 0.36088 0.1568 0.73563 0.0
H1068 H 0.36867 0.18024 0.72869 0.0
H1069 H 0.30823 0.21614 0.61955 0.0
H1070 H 0.35665 0.25418 0.61476 0.0
H1071 H 0.37317 0.23815 0.64059 0.0
H1072 H 0.30829 0.21495 0.66486 0.0
H1073 H 0.29455 0.19915 0.64945 0.0
H1074 H 0.30456 0.19131 0.67211 0.0
H1075 H 0.33304 0.17898 0.62345 0.0
H1076 H 0.3264 0.1637 0.64176 0.0
H1077 H 0.30836 0.17712 0.62869 0.0
H1078 H 0.29201 0.13401 0.67811 0.0
C1079 C 0.31423 0.15485 0.67611 0.0
C1080 C 0.42511 0.84704 0.74273 0.0
C1081 C 0.43429 0.83011 0.73779 0.0
C1082 C 0.42676 0.81952 0.72205 0.0
C1083 C 0.40165 0.84262 0.71663 0.0
C1084 C 0.40885 0.85285 0.73215 0.0
C1085 C 0.39703 0.86997 0.73618 0.0
H1086 H 0.31967 0.92401 0.71669 0.0
C1087 C 0.38449 0.85255 0.70888 0.0
C1088 C 0.38163 0.86846 0.7204 0.0
H1089 H 0.36285 0.93014 0.76212 0.0
H1090 H 0.37944 0.90333 0.75032 0.0
H1091 H 0.31667 0.87714 0.71748 0.0
H1092 H 0.35089 0.91412 0.68317 0.0
H1093 H 0.34011 0.89604 0.6689 0.0
H1094 H 0.32538 0.91316 0.68022 0.0
H1095 H 0.30619 0.89303 0.70005 0.0
H1096 H 0.31481 0.87003 0.69339 0.0
C1097 C 0.38888 0.86739 0.75619 0.0
C1098 C 0.40969 0.888 0.73398 0.0
C1099 C 0.35016 0.82711 0.64905 0.0
C1100 C 0.3343 0.83307 0.63778 0.0
C1101 C 0.32428 0.84923 0.64373 0.0
C1102 C 0.33018 0.85936 0.66032 0.0
C1103 C 0.3463 0.85332 0.6712 0.0
C1104 C 0.3559 0.83736 0.66545 0.0
C1105 C 0.37269 0.8328 0.67851 0.0
C1106 C 0.37189 0.84878 0.69294 0.0
C1107 C 0.35636 0.86084 0.68876 0.0
C1108 C 0.36911 0.81302 0.6876 0.0
C1109 C 0.39088 0.83407 0.66689 0.0
C1110 C 0.33276 0.91958 0.72398 0.0
C1111 C 0.33974 0.92911 0.74064 0.0
C1112 C 0.35685 0.92286 0.74962 0.0
C1113 C 0.36658 0.90727 0.74265 0.0
C1114 C 0.35926 0.89759 0.72642 0.0
C1115 C 0.34274 0.90382 0.71716 0.0
C1116 C 0.33746 0.89163 0.69991 0.0
C1117 C 0.35326 0.87686 0.70077 0.0
C1118 C 0.36593 0.88059 0.71639 0.0
C1119 C 0.31768 0.88249 0.70268 0.0
C1120 C 0.33835 0.90431 0.68202 0.0
H1121 H 0.40566 0.81697 0.69969 0.0
H1122 H 0.43045 0.85572 0.75456 0.0
H1123 H 0.4196 0.88617 0.72222 0.0
H1124 H 0.40143 0.90083 0.73007 0.0
H1125 H 0.41845 0.89095 0.74719 0.0
H1126 H 0.38702 0.85205 0.75973 0.0
H1127 H 0.39851 0.87381 0.76743 0.0
H1128 H 0.37449 0.87339 0.75721 0.0
H1129 H 0.35801 0.81456 0.64528 0.0
H1130 H 0.31206 0.85427 0.63535 0.0
H1131 H 0.32204 0.87156 0.66401 0.0
H1132 H 0.35363 0.8103 0.68916 0.0
H1133 H 0.3746 0.80137 0.67873 0.0
H1134 H 0.37545 0.81187 0.7022 0.0
H1135 H 0.39011 0.84635 0.65691 0.0
H1136 H 0.40398 0.83656 0.67581 0.0
H1137 H 0.39264 0.82096 0.65833 0.0
H1138 H 0.43314 0.80622 0.71805 0.0
C1139 C 0.41061 0.8257 0.71145 0.0
C1140 C 0.69984 0.90137 0.69247 0.0
C1141 C 0.69306 0.91143 0.70816 0.0
C1142 C 0.67629 0.90476 0.7164 0.0
C1143 C 0.67437 0.87791 0.69477 0.0
C1144 C 0.69016 0.88483 0.68591 0.0
C1145 C 0.69494 0.8727 0.66909 0.0
H1146 H 0.67514 0.79438 0.61462 0.0
C1147 C 0.66801 0.86013 0.68511 0.0
C1148 C 0.67975 0.8571 0.6698 0.0
H1149 H 0.71919 0.83694 0.60722 0.0
H1150 H 0.70895 0.85403 0.63464 0.0
H1151 H 0.68309 0.79076 0.65888 0.0
H1152 H 0.64155 0.82295 0.62604 0.0
H1153 H 0.63 0.81186 0.64488 0.0
H1154 H 0.64111 0.7974 0.62742 0.0
H1155 H 0.66212 0.77976 0.64814 0.0
H1156 H 0.66219 0.79028 0.67156 0.0
C1157 C 0.71521 0.86474 0.67277 0.0
C1158 C 0.69255 0.885 0.6509 0.0
C1159 C 0.61789 0.81885 0.71492 0.0
C1160 C 0.61047 0.80056 0.71077 0.0
C1161 C 0.61515 0.79162 0.6937 0.0
C1162 C 0.62791 0.80039 0.68149 0.0
C1163 C 0.63606 0.81825 0.68646 0.0
C1164 C 0.63068 0.8273 0.70276 0.0
C1165 C 0.64083 0.84603 0.70608 0.0
C1166 C 0.65377 0.8465 0.68941 0.0
C1167 C 0.65091 0.83025 0.67795 0.0
C1168 C 0.65223 0.84487 0.72541 0.0
C1169 C 0.62587 0.86214 0.70489 0.0
C1170 C 0.68271 0.8073 0.61891 0.0
C1171 C 0.69798 0.81428 0.60856 0.0
C1172 C 0.70719 0.83135 0.61465 0.0
C1173 C 0.70129 0.84123 0.63068 0.0
C1174 C 0.68606 0.83399 0.64086 0.0
C1175 C 0.67711 0.81725 0.63493 0.0
C1176 C 0.66163 0.81125 0.6478 0.0
C1177 C 0.66235 0.82744 0.66208 0.0
C1178 C 0.67671 0.84075 0.65802 0.0
C1179 C 0.66735 0.79196 0.65705 0.0
C1180 C 0.64251 0.81067 0.63601 0.0
H1181 H 0.65452 0.88379 0.71697 0.0
H1182 H 0.71255 0.90601 0.68558 0.0
H1183 H 0.68064 0.89519 0.65207 0.0
H1184 H 0.68876 0.87649 0.63806 0.0
H1185 H 0.70568 0.89344 0.64847 0.0
H1186 H 0.71737 0.86023 0.68786 0.0
H1187 H 0.72622 0.87571 0.66987 0.0
H1188 H 0.71791 0.85192 0.66426 0.0
H1189 H 0.6142 0.82628 0.72772 0.0
H1190 H 0.60952 0.77757 0.69017 0.0
H1191 H 0.63128 0.79273 0.66889 0.0
H1192 H 0.65943 0.83087 0.72691 0.0
H1193 H 0.64269 0.84638 0.73747 0.0
H1194 H 0.6637 0.85564 0.72705 0.0
H1195 H 0.61294 0.85777 0.69619 0.0
H1196 H 0.63121 0.87504 0.6977 0.0
H1197 H 0.62119 0.8661 0.71922 0.0
H1198 H 0.67015 0.91246 0.72794 0.0
C1199 C 0.66702 0.88813 0.70988 0.0
C1200 C 0.71584 0.84176 0.40121 0.0
C1201 C 0.70743 0.82596 0.40999 0.0
C1202 C 0.69083 0.81768 0.40129 0.0
C1203 C 0.69087 0.8412 0.37612 0.0
C1204 C 0.70734 0.84909 0.38436 0.0
C1205 C 0.71431 0.86588 0.37324 0.0
H1206 H 0.70366 0.92652 0.29894 0.0
C1207 C 0.68551 0.85238 0.35891 0.0
C1208 C 0.69923 0.8668 0.35709 0.0
H1209 H 0.74855 0.92479 0.34296 0.0
H1210 H 0.73368 0.89776 0.35711 0.0
H1211 H 0.66796 0.91679 0.32777 0.0
H1212 H 0.70076 0.88003 0.29253 0.0
H1213 H 0.67635 0.87418 0.28973 0.0
H1214 H 0.6846 0.89732 0.28243 0.0
H1215 H 0.66691 0.91852 0.30227 0.0
H1216 H 0.65275 0.90123 0.31434 0.0
C1217 C 0.71397 0.88369 0.38627 0.0
C1218 C 0.73421 0.86098 0.366 0.0
C1219 C 0.62457 0.83536 0.32134 0.0
C1220 C 0.61501 0.8429 0.30513 0.0
C1221 C 0.62357 0.85823 0.29559 0.0
C1222 C 0.64105 0.86624 0.30253 0.0
C1223 C 0.65016 0.85874 0.31911 0.0
C1224 C 0.64188 0.84339 0.32802 0.0
C1225 C 0.65332 0.83689 0.34527 0.0
C1226 C 0.66982 0.85096 0.34554 0.0
C1227 C 0.66802 0.86385 0.33025 0.0
C1228 C 0.64095 0.83927 0.36281 0.0
C1229 C 0.65989 0.81622 0.34168 0.0
C1230 C 0.71015 0.92033 0.31169 0.0
C1231 C 0.72745 0.92777 0.31974 0.0
C1232 C 0.73549 0.9192 0.33626 0.0
C1233 C 0.72674 0.9035 0.34456 0.0
C1234 C 0.70965 0.89611 0.33636 0.0
C1235 C 0.70156 0.90443 0.32019 0.0
C1236 C 0.68342 0.89421 0.3135 0.0
C1237 C 0.68206 0.8785 0.32835 0.0
C1238 C 0.69752 0.87986 0.34171 0.0
C1239 C 0.66679 0.90837 0.31436 0.0
C1240 C 0.68625 0.88605 0.29343 0.0
H1241 H 0.6699 0.81824 0.37876 0.0
H1242 H 0.72856 0.84851 0.40746 0.0
H1243 H 0.73554 0.8454 0.36349 0.0
H1244 H 0.73693 0.86754 0.35209 0.0
H1245 H 0.74574 0.86528 0.37648 0.0
H1246 H 0.70152 0.88313 0.39551 0.0
H1247 H 0.72703 0.88464 0.39572 0.0
H1248 H 0.71232 0.89715 0.37829 0.0
H1249 H 0.61866 0.82332 0.3288 0.0
H1250 H 0.61653 0.86428 0.28303 0.0
H1251 H 0.64675 0.87803 0.29484 0.0
H1252 H 0.63211 0.85229 0.36147 0.0
H1253 H 0.63114 0.8269 0.36431 0.0
H1254 H 0.64944 0.84122 0.37626 0.0
H1255 H 0.66215 0.81374 0.32632 0.0
H1256 H 0.67379 0.81302 0.34887 0.0
H1257 H 0.64912 0.80565 0.34618 0.0
H1258 H 0.68426 0.80523 0.40741 0.0
C1259 C 0.68254 0.82519 0.38451 0.0
C1260 C 0.7152 0.13132 0.32015 0.0
C1261 C 0.70607 0.12241 0.30423 0.0
C1262 C 0.68936 0.13063 0.29618 0.0
C1263 C 0.69084 0.1556 0.32029 0.0
C1264 C 0.70742 0.14773 0.32788 0.0
C1265 C 0.71546 0.15867 0.34484 0.0
H1266 H 0.7094 0.23159 0.40729 0.0
C1267 C 0.68646 0.17248 0.33204 0.0
C1268 C 0.7009 0.17436 0.34637 0.0
H1269 H 0.753 0.18873 0.40475 0.0
H1270 H 0.73682 0.17462 0.37738 0.0
H1271 H 0.67331 0.20203 0.39804 0.0
H1272 H 0.70514 0.23899 0.36176 0.0
H1273 H 0.68077 0.24081 0.35526 0.0
H1274 H 0.68921 0.24814 0.37873 0.0
H1275 H 0.67198 0.22754 0.39934 0.0
H1276 H 0.65729 0.21404 0.38244 0.0
C1277 C 0.71564 0.1452 0.3623 0.0
C1278 C 0.73529 0.16667 0.33992 0.0
C1279 C 0.62594 0.20955 0.31733 0.0
C1280 C 0.61744 0.22535 0.32576 0.0
C1281 C 0.62719 0.23441 0.34129 0.0
C1282 C 0.64479 0.2275 0.34856 0.0
C1283 C 0.65282 0.21138 0.3402 0.0
C1284 C 0.64343 0.20283 0.32472 0.0
C1285 C 0.65393 0.18595 0.31745 0.0
C1286 C 0.67113 0.18555 0.33122 0.0
C1287 C 0.67047 0.20045 0.34459 0.0
C1288 C 0.64108 0.16804 0.31937 0.0
C1289 C 0.6596 0.19029 0.29686 0.0
C1290 C 0.71537 0.21908 0.4009 0.0
C1291 C 0.73266 0.2114 0.40823 0.0
C1292 C 0.73995 0.1952 0.3993 0.0
C1293 C 0.73044 0.18691 0.38341 0.0
C1294 C 0.7133 0.19477 0.3762 0.0
C1295 C 0.706 0.21059 0.3849 0.0
C1296 C 0.68762 0.21695 0.37507 0.0
C1297 C 0.6852 0.20236 0.35907 0.0
C1298 C 0.7003 0.18939 0.3599 0.0
C1299 C 0.67162 0.21522 0.3894 0.0
C1300 C 0.69065 0.23734 0.36735 0.0
H1301 H 0.66884 0.15256 0.29747 0.0
H1302 H 0.72829 0.12568 0.32648 0.0
H1303 H 0.73572 0.17021 0.32453 0.0
H1304 H 0.73896 0.18019 0.34732 0.0
H1305 H 0.74666 0.15614 0.34318 0.0
H1306 H 0.70298 0.13553 0.36165 0.0
H1307 H 0.72853 0.13618 0.36287 0.0
H1308 H 0.71477 0.15286 0.37593 0.0
H1309 H 0.61911 0.20246 0.30512 0.0
H1310 H 0.621 0.24658 0.34807 0.0
H1311 H 0.65139 0.23487 0.36053 0.0
H1312 H 0.63326 0.16858 0.33276 0.0
H1313 H 0.63036 0.16698 0.30733 0.0
H1314 H 0.64918 0.15467 0.32025 0.0
H1315 H 0.66312 0.20567 0.29514 0.0
H1316 H 0.67256 0.18274 0.29292 0.0
H1317 H 0.64779 0.18668 0.28642 0.0
H1318 H 0.68202 0.12409 0.28395 0.0
C1319 C 0.6817 0.14712 0.30413 0.0
C1320 C 0.30549 0.13456 0.35296 0.0
C1321 C 0.30906 0.12242 0.33759 0.0
C1322 C 0.32455 0.12661 0.32618 0.0
C1323 C 0.33241 0.15464 0.34512 0.0
C1324 C 0.31728 0.1506 0.3564 0.0
C1325 C 0.31536 0.1653 0.37182 0.0
H1326 H 0.34879 0.24633 0.41506 0.0
C1327 C 0.34182 0.1723 0.3523 0.0
C1328 C 0.33191 0.17869 0.36796 0.0
H1329 H 0.29946 0.2126 0.42898 0.0
H1330 H 0.30563 0.19063 0.40365 0.0
H1331 H 0.34013 0.24543 0.37054 0.0
H1332 H 0.37629 0.21135 0.40745 0.0
H1333 H 0.3889 0.216 0.38694 0.0
H1334 H 0.38194 0.23559 0.40162 0.0
H1335 H 0.3625 0.25415 0.38048 0.0
H1336 H 0.36086 0.24122 0.35828 0.0
C1337 C 0.29588 0.17515 0.3686 0.0
C1338 C 0.31805 0.15524 0.39129 0.0
C1339 C 0.39968 0.19834 0.31963 0.0
C1340 C 0.41143 0.21446 0.32296 0.0
C1341 C 0.40766 0.22669 0.33822 0.0
C1342 C 0.39246 0.22298 0.34993 0.0
C1343 C 0.38081 0.20686 0.34638 0.0
C1344 C 0.38452 0.19486 0.33146 0.0
C1345 C 0.3706 0.17846 0.3298 0.0
C1346 C 0.35791 0.18263 0.34619 0.0
C1347 C 0.36397 0.19925 0.35583 0.0
C1348 C 0.35964 0.17989 0.31025 0.0
C1349 C 0.38184 0.15975 0.33293 0.0
C1350 C 0.33917 0.23434 0.41259 0.0
C1351 C 0.32363 0.23128 0.42417 0.0
C1352 C 0.31172 0.21522 0.42053 0.0
C1353 C 0.31523 0.20252 0.4057 0.0
C1354 C 0.33079 0.20587 0.39424 0.0
C1355 C 0.34241 0.2216 0.39779 0.0
C1356 C 0.35811 0.22316 0.38406 0.0
C1357 C 0.35403 0.20578 0.37166 0.0
C1358 C 0.33806 0.19561 0.37769 0.0
C1359 C 0.35548 0.24198 0.37276 0.0
C1360 C 0.37739 0.2216 0.39548 0.0
H1361 H 0.34772 0.14489 0.32061 0.0
H1362 H 0.29361 0.13182 0.36191 0.0
H1363 H 0.32967 0.14462 0.39095 0.0
H1364 H 0.32234 0.16511 0.40296 0.0
H1365 H 0.30484 0.14757 0.39505 0.0
H1366 H 0.29215 0.17665 0.35314 0.0
H1367 H 0.28432 0.16676 0.37502 0.0
H1368 H 0.29583 0.18983 0.37424 0.0
H1369 H 0.40207 0.18876 0.30792 0.0
H1370 H 0.41666 0.23904 0.34128 0.0
H1371 H 0.39041 0.23281 0.36131 0.0
H1372 H 0.35757 0.19503 0.30603 0.0
H1373 H 0.36753 0.17285 0.2989 0.0
H1374 H 0.34509 0.17382 0.31036 0.0
H1375 H 0.39382 0.16184 0.34363 0.0
H1376 H 0.37316 0.14811 0.33874 0.0
H1377 H 0.38799 0.15486 0.31952 0.0
H1378 H 0.32781 0.11736 0.31446 0.0
C1379 C 0.3362 0.14258 0.32985 0.0
C1380 C 0.33282 0.8249 0.42116 0.0
C1381 C 0.31718 0.83273 0.43019 0.0
C1382 C 0.30728 0.84785 0.42124 0.0
C1383 C 0.32898 0.84757 0.39528 0.0
C1384 C 0.33844 0.83249 0.40383 0.0
C1385 C 0.35493 0.82599 0.39259 0.0
H1386 H 0.40798 0.83494 0.31483 0.0
C1387 C 0.33874 0.85237 0.37762 0.0
C1388 C 0.35391 0.83973 0.37591 0.0
H1389 H 0.41548 0.79572 0.362 0.0
H1390 H 0.3884 0.80885 0.3766 0.0
H1391 H 0.4008 0.87118 0.34199 0.0
H1392 H 0.36138 0.83359 0.31121 0.0
H1393 H 0.35416 0.85735 0.30764 0.0
H1394 H 0.37686 0.8499 0.2995 0.0
H1395 H 0.39748 0.87211 0.31657 0.0
H1396 H 0.38228 0.885 0.33195 0.0
C1397 C 0.37348 0.82878 0.40509 0.0
C1398 C 0.35089 0.80516 0.38619 0.0
C1399 C 0.31644 0.90909 0.33853 0.0
C1400 C 0.32294 0.91809 0.32215 0.0
C1401 C 0.33798 0.90975 0.31257 0.0
C1402 C 0.3468 0.89312 0.31965 0.0
C1403 C 0.34052 0.88474 0.33649 0.0
C1404 C 0.32541 0.89269 0.34546 0.0
C1405 C 0.32057 0.8822 0.36322 0.0
C1406 C 0.33547 0.86677 0.36374 0.0
C1407 C 0.34715 0.86821 0.34806 0.0
C1408 C 0.3233 0.89615 0.38026 0.0
C1409 C 0.30015 0.87384 0.36031 0.0
C1410 C 0.40392 0.8292 0.32835 0.0
C1411 C 0.41393 0.8139 0.33695 0.0
C1412 C 0.40788 0.80702 0.35459 0.0
C1413 C 0.39217 0.81482 0.36324 0.0
C1414 C 0.38232 0.82994 0.35442 0.0
C1415 C 0.38833 0.83703 0.33736 0.0
C1416 C 0.3766 0.85377 0.33057 0.0
C1417 C 0.36236 0.85522 0.34616 0.0
C1418 C 0.36576 0.84114 0.36007 0.0
C1419 C 0.38987 0.8715 0.33007 0.0
C1420 C 0.36676 0.84856 0.31114 0.0
H1421 H 0.30505 0.86694 0.39795 0.0
H1422 H 0.34057 0.81304 0.42741 0.0
H1423 H 0.33556 0.80309 0.38199 0.0
H1424 H 0.35862 0.80108 0.37352 0.0
H1425 H 0.35445 0.79501 0.39787 0.0
H1426 H 0.37243 0.84131 0.41467 0.0
H1427 H 0.37641 0.81612 0.41415 0.0
H1428 H 0.38604 0.83189 0.39666 0.0
H1429 H 0.30461 0.91478 0.34601 0.0
H1430 H 0.34323 0.91634 0.2999 0.0
H1431 H 0.35832 0.88755 0.31189 0.0
H1432 H 0.33568 0.90586 0.37832 0.0
H1433 H 0.31053 0.90512 0.3817 0.0
H1434 H 0.32655 0.88889 0.3939 0.0
H1435 H 0.29708 0.86973 0.3452 0.0
H1436 H 0.298 0.86057 0.36842 0.0
H1437 H 0.2893 0.88437 0.36421 0.0
H1438 H 0.29527 0.85423 0.42788 0.0
C1439 C 0.31308 0.85529 0.40388 0.0
C1440 C 0.7107 0.62519 0.1927 0.0
C1441 C 0.72527 0.61765 0.18179 0.0
C1442 C 0.73067 0.62777 0.16554 0.0
C1443 C 0.70751 0.6522 0.17128 0.0
C1444 C 0.70197 0.64234 0.18711 0.0
C1445 C 0.6859 0.65212 0.19665 0.0
H1446 H 0.62302 0.72516 0.1972 0.0
C1447 C 0.69548 0.66926 0.16904 0.0
C1448 C 0.68262 0.66929 0.18375 0.0
H1449 H 0.62928 0.6792 0.23781 0.0
H1450 H 0.65488 0.66621 0.22023 0.0
H1451 H 0.62678 0.70059 0.16073 0.0
H1452 H 0.66927 0.73283 0.19339 0.0
H1453 H 0.6716 0.7379 0.16909 0.0
H1454 H 0.64977 0.74355 0.18014 0.0
H1455 H 0.62873 0.726 0.15868 0.0
H1456 H 0.64247 0.71023 0.14447 0.0
C1457 C 0.66848 0.63842 0.19614 0.0
C1458 C 0.69308 0.65809 0.21692 0.0
C1459 C 0.70711 0.71521 0.11501 0.0
C1460 C 0.69744 0.73135 0.10785 0.0
C1461 C 0.68111 0.7374 0.11713 0.0
C1462 C 0.6748 0.72781 0.13322 0.0
C1463 C 0.68469 0.71176 0.1401 0.0
C1464 C 0.70034 0.70554 0.13077 0.0
C1465 C 0.70824 0.68739 0.13905 0.0
C1466 C 0.69514 0.68408 0.15532 0.0
C1467 C 0.68153 0.69851 0.15605 0.0
C1468 C 0.70604 0.67157 0.12363 0.0
C1469 C 0.72903 0.69135 0.14633 0.0
C1470 C 0.63003 0.71243 0.20247 0.0
C1471 C 0.62403 0.70326 0.21898 0.0
C1472 C 0.63339 0.68647 0.22503 0.0
C1473 C 0.64835 0.67898 0.21485 0.0
C1474 C 0.65411 0.6883 0.19836 0.0
C1475 C 0.645 0.70478 0.19248 0.0
C1476 C 0.65296 0.71284 0.17466 0.0
C1477 C 0.66844 0.69859 0.17087 0.0
C1478 C 0.66905 0.68416 0.18475 0.0
C1479 C 0.63698 0.71259 0.15876 0.0
C1480 C 0.66128 0.73289 0.17938 0.0
H1481 H 0.72692 0.65188 0.14788 0.0
H1482 H 0.70622 0.61801 0.20538 0.0
H1483 H 0.7082 0.66297 0.21696 0.0
H1484 H 0.68525 0.67027 0.22253 0.0
H1485 H 0.69224 0.64597 0.22699 0.0
H1486 H 0.66717 0.63069 0.18232 0.0
H1487 H 0.66987 0.6276 0.20762 0.0
H1488 H 0.65484 0.64585 0.19731 0.0
H1489 H 0.71979 0.71007 0.10861 0.0
H1490 H 0.67294 0.74941 0.11185 0.0
H1491 H 0.66234 0.73317 0.13959 0.0
H1492 H 0.69456 0.67488 0.11277 0.0
H1493 H 0.7194 0.66978 0.116 0.0
H1494 H 0.70171 0.65767 0.12957 0.0
H1495 H 0.73016 0.70532 0.1538 0.0
H1496 H 0.73434 0.68076 0.1568 0.0
H1497 H 0.73879 0.69179 0.13434 0.0
H1498 H 0.74146 0.62227 0.15655 0.0
C1499 C 0.72201 0.64495 0.16033 0.0
C1500 C 0.3481 0.64098 0.21526 0.0
C1501 C 0.33096 0.63076 0.21181 0.0
C1502 C 0.31866 0.63655 0.19649 0.0
C1503 C 0.34042 0.6623 0.18886 0.0
C1504 C 0.35241 0.65664 0.20384 0.0
C1505 C 0.36972 0.66928 0.20631 0.0
H1506 H 0.42095 0.74646 0.18046 0.0
C1507 C 0.34908 0.67937 0.18007 0.0
C1508 C 0.36618 0.68355 0.19039 0.0
H1509 H 0.43375 0.7056 0.225 0.0
H1510 H 0.40492 0.68833 0.21693 0.0
H1511 H 0.37491 0.74901 0.18722 0.0
H1512 H 0.40683 0.71478 0.14924 0.0
H1513 H 0.38624 0.72255 0.13664 0.0
H1514 H 0.40353 0.73987 0.14563 0.0
H1515 H 0.38649 0.75894 0.1672 0.0
H1516 H 0.36283 0.74881 0.1648 0.0
C1517 C 0.36935 0.67876 0.22622 0.0
C1518 C 0.38753 0.65701 0.20309 0.0
C1519 C 0.3162 0.7111 0.1224 0.0
C1520 C 0.32044 0.72763 0.11204 0.0
C1521 C 0.33724 0.73801 0.11705 0.0
C1522 C 0.34945 0.73228 0.13219 0.0
C1523 C 0.34491 0.71598 0.14266 0.0
C1524 C 0.32853 0.70564 0.13772 0.0
C1525 C 0.32573 0.68909 0.15097 0.0
C1526 C 0.34324 0.69102 0.16437 0.0
C1527 C 0.35447 0.70684 0.15942 0.0
C1528 C 0.30705 0.69219 0.16139 0.0
C1529 C 0.32598 0.6705 0.13916 0.0
C1530 C 0.41735 0.73386 0.18847 0.0
C1531 C 0.42969 0.72733 0.20336 0.0
C1532 C 0.42461 0.7108 0.21337 0.0
C1533 C 0.40778 0.70078 0.20868 0.0
C1534 C 0.39568 0.70721 0.1937 0.0
C1535 C 0.40051 0.72343 0.18377 0.0
C1536 C 0.38598 0.72753 0.16786 0.0
C1537 C 0.37169 0.71123 0.17012 0.0
C1538 C 0.3775 0.69952 0.18539 0.0
C1539 C 0.37708 0.74715 0.17177 0.0
C1540 C 0.39605 0.72629 0.14877 0.0
H1541 H 0.31334 0.65583 0.17366 0.0
H1542 H 0.35813 0.6369 0.22661 0.0
H1543 H 0.38425 0.64548 0.19254 0.0
H1544 H 0.3993 0.66522 0.197 0.0
H1545 H 0.39277 0.65015 0.2165 0.0
H1546 H 0.35449 0.68166 0.23012 0.0
H1547 H 0.37585 0.66941 0.23739 0.0
H1548 H 0.37653 0.69283 0.22689 0.0
H1549 H 0.30331 0.70295 0.11903 0.0
H1550 H 0.34092 0.75069 0.10919 0.0
H1551 H 0.3619 0.7409 0.13527 0.0
H1552 H 0.30457 0.70763 0.16379 0.0
H1553 H 0.29455 0.68641 0.15298 0.0
H1554 H 0.30739 0.68584 0.17575 0.0
H1555 H 0.33752 0.6711 0.12883 0.0
H1556 H 0.32891 0.65776 0.14792 0.0
H1557 H 0.31227 0.6683 0.13096 0.0
H1558 H 0.30522 0.62922 0.19355 0.0
C1559 C 0.32332 0.65216 0.18501 0.0
C1560 C 0.42061 0.35007 0.22996 0.0
C1561 C 0.43162 0.33527 0.22273 0.0
C1562 C 0.42541 0.32626 0.20563 0.0
C1563 C 0.39817 0.34699 0.20269 0.0
C1564 C 0.404 0.35581 0.21958 0.0
C1565 C 0.39085 0.37185 0.22439 0.0
H1566 H 0.31217 0.42441 0.2008 0.0
C1567 C 0.38077 0.35643 0.19503 0.0
C1568 C 0.37634 0.37112 0.2076 0.0
H1569 H 0.35067 0.43048 0.25014 0.0
H1570 H 0.36937 0.40439 0.2394 0.0
H1571 H 0.31031 0.37867 0.20129 0.0
H1572 H 0.34517 0.41798 0.17082 0.0
H1573 H 0.3383 0.39949 0.15505 0.0
H1574 H 0.32032 0.41435 0.16478 0.0
H1575 H 0.30097 0.39286 0.18191 0.0
H1576 H 0.31165 0.37003 0.17796 0.0
C1577 C 0.38166 0.36692 0.24337 0.0
C1578 C 0.40254 0.39068 0.22484 0.0
C1579 C 0.34972 0.33305 0.13244 0.0
C1580 C 0.33391 0.33924 0.12125 0.0
C1581 C 0.32322 0.35465 0.12781 0.0
C1582 C 0.32827 0.36385 0.14503 0.0
C1583 C 0.34424 0.35768 0.15593 0.0
C1584 C 0.35463 0.3425 0.14959 0.0
C1585 C 0.37134 0.33811 0.16287 0.0
C1586 C 0.36922 0.35308 0.17825 0.0
C1587 C 0.3533 0.3645 0.17415 0.0
C1588 C 0.3685 0.31764 0.17061 0.0
C1589 C 0.38981 0.34115 0.1519 0.0
C1590 C 0.3247 0.42023 0.20922 0.0
C1591 C 0.32971 0.42951 0.22649 0.0
C1592 C 0.34615 0.42341 0.23699 0.0
C1593 C 0.35713 0.40828 0.23068 0.0
C1594 C 0.3518 0.39899 0.21357 0.0
C1595 C 0.33585 0.40504 0.20311 0.0
C1596 C 0.33234 0.39342 0.18528 0.0
C1597 C 0.34872 0.37944 0.1868 0.0
C1598 C 0.36014 0.38274 0.20343 0.0
C1599 C 0.31276 0.38325 0.18646 0.0
C1600 C 0.33395 0.4069 0.16798 0.0
H1601 H 0.40507 0.32449 0.18273 0.0
H1602 H 0.42506 0.35728 0.24305 0.0
H1603 H 0.41308 0.39076 0.2135 0.0
H1604 H 0.3937 0.40334 0.22199 0.0
H1605 H 0.41051 0.39255 0.23871 0.0
H1606 H 0.37798 0.35148 0.24396 0.0
H1607 H 0.39158 0.37021 0.2557 0.0
H1608 H 0.36813 0.37436 0.24523 0.0
H1609 H 0.35833 0.32138 0.12777 0.0
H1610 H 0.31078 0.35953 0.11967 0.0
H1611 H 0.31953 0.37546 0.14914 0.0
H1612 H 0.3532 0.31469 0.17298 0.0
H1613 H 0.37334 0.30682 0.16042 0.0
H1614 H 0.37582 0.31532 0.18461 0.0
H1615 H 0.38788 0.35229 0.14076 0.0
H1616 H 0.40189 0.34644 0.16109 0.0
H1617 H 0.39402 0.32784 0.14472 0.0
H1618 H 0.43348 0.31467 0.19991 0.0
C1619 C 0.40883 0.33197 0.19565 0.0
C1620 C 0.71315 0.41012 0.19099 0.0
C1621 C 0.70714 0.41767 0.20823 0.0
C1622 C 0.69053 0.41019 0.21604 0.0
C1623 C 0.68699 0.3873 0.19011 0.0
C1624 C 0.70295 0.39508 0.18222 0.0
C1625 C 0.70776 0.38538 0.164 0.0
H1626 H 0.68876 0.31519 0.09958 0.0
C1627 C 0.68003 0.37148 0.17761 0.0
C1628 C 0.69207 0.37042 0.16219 0.0
H1629 H 0.73425 0.35714 0.09936 0.0
H1630 H 0.72291 0.3713 0.12804 0.0
H1631 H 0.69199 0.30697 0.1442 0.0
H1632 H 0.65647 0.34337 0.10923 0.0
H1633 H 0.64214 0.33568 0.12757 0.0
H1634 H 0.65145 0.3184 0.11145 0.0
H1635 H 0.67341 0.29826 0.12805 0.0
H1636 H 0.66876 0.30466 0.15217 0.0
C1637 C 0.72769 0.37635 0.16693 0.0
C1638 C 0.70625 0.40019 0.14771 0.0
C1639 C 0.62427 0.32966 0.19653 0.0
C1640 C 0.61477 0.31404 0.18759 0.0
C1641 C 0.62033 0.30828 0.16947 0.0
C1642 C 0.63539 0.31739 0.16071 0.0
C1643 C 0.64505 0.33256 0.17002 0.0
C1644 C 0.63924 0.33875 0.18745 0.0
C1645 C 0.65075 0.35568 0.19473 0.0
C1646 C 0.66473 0.35821 0.17902 0.0
C1647 C 0.66139 0.34447 0.16473 0.0
C1648 C 0.6609 0.35009 0.21385 0.0
C1649 C 0.63726 0.3729 0.19607 0.0
C1650 C 0.69617 0.32759 0.10551 0.0
C1651 C 0.71242 0.33504 0.0971 0.0
C1652 C 0.72181 0.35098 0.10562 0.0
C1653 C 0.71515 0.35923 0.12224 0.0
C1654 C 0.69896 0.35145 0.13054 0.0
C1655 C 0.68975 0.33595 0.12206 0.0
C1656 C 0.6729 0.32936 0.13278 0.0
C1657 C 0.67349 0.34343 0.14917 0.0
C1658 C 0.68877 0.35632 0.14787 0.0
C1659 C 0.67675 0.3087 0.13962 0.0
C1660 C 0.65474 0.33164 0.11965 0.0
H1661 H 0.66809 0.38969 0.21387 0.0
H1662 H 0.72566 0.4158 0.18443 0.0
H1663 H 0.69426 0.41009 0.1498 0.0
H1664 H 0.70311 0.39363 0.13364 0.0
H1665 H 0.7195 0.40889 0.14715 0.0
H1666 H 0.72967 0.37048 0.18156 0.0
H1667 H 0.73916 0.38707 0.16495 0.0
H1668 H 0.72984 0.36413 0.15742 0.0
H1669 H 0.62041 0.33454 0.21042 0.0
H1670 H 0.61297 0.29673 0.16193 0.0
H1671 H 0.63896 0.31214 0.14702 0.0
H1672 H 0.66687 0.33552 0.21296 0.0
H1673 H 0.65081 0.35015 0.22556 0.0
H1674 H 0.6731 0.35948 0.21786 0.0
H1675 H 0.62552 0.37209 0.18495 0.0
H1676 H 0.64449 0.38665 0.19348 0.0
H1677 H 0.63067 0.37339 0.21012 0.0
H1678 H 0.68564 0.41578 0.2293 0.0
C1679 C 0.68045 0.395 0.2071 0.0
C1680 C 0.72547 0.34511 0.8901 0.0
C1681 C 0.71999 0.32942 0.90116 0.0
C1682 C 0.70302 0.31949 0.89577 0.0
C1683 C 0.69735 0.34084 0.86901 0.0
C1684 C 0.714 0.35054 0.8742 0.0
C1685 C 0.71782 0.36688 0.86099 0.0
H1686 H 0.68822 0.42266 0.78724 0.0
C1687 C 0.68863 0.35028 0.85194 0.0
C1688 C 0.70057 0.36558 0.84721 0.0
H1689 H 0.74151 0.42597 0.82051 0.0
H1690 H 0.73226 0.39874 0.83864 0.0
H1691 H 0.66065 0.41111 0.82128 0.0
H1692 H 0.69076 0.37783 0.78112 0.0
H1693 H 0.66886 0.36627 0.78413 0.0
H1694 H 0.66923 0.39006 0.77441 0.0
H1695 H 0.65449 0.41073 0.79624 0.0
H1696 H 0.64514 0.39316 0.81208 0.0
C1697 C 0.71801 0.38553 0.87278 0.0
C1698 C 0.73663 0.36294 0.85104 0.0
C1699 C 0.62598 0.32519 0.822 0.0
C1700 C 0.61418 0.3311 0.80642 0.0
C1701 C 0.61973 0.34725 0.79603 0.0
C1702 C 0.63656 0.35736 0.80111 0.0
C1703 C 0.64812 0.35127 0.81674 0.0
C1704 C 0.64273 0.33542 0.82689 0.0
C1705 C 0.65668 0.33101 0.84312 0.0
C1706 C 0.6715 0.34666 0.84092 0.0
C1707 C 0.66639 0.35853 0.82547 0.0
C1708 C 0.64623 0.33296 0.86195 0.0
C1709 C 0.66497 0.311 0.83971 0.0
C1710 C 0.69805 0.41753 0.7983 0.0
C1711 C 0.71556 0.42698 0.8025 0.0
C1712 C 0.72769 0.41956 0.81719 0.0
C1713 C 0.72238 0.40353 0.82766 0.0
C1714 C 0.70481 0.39447 0.8234 0.0
C1715 C 0.69312 0.4013 0.80871 0.0
C1716 C 0.6755 0.38913 0.80544 0.0
C1717 C 0.67837 0.37415 0.82085 0.0
C1718 C 0.69547 0.37749 0.83149 0.0
C1719 C 0.65792 0.40159 0.80878 0.0
C1720 C 0.67589 0.3804 0.78521 0.0
H1721 H 0.679 0.31695 0.87657 0.0
H1722 H 0.73853 0.35292 0.89358 0.0
H1723 H 0.73905 0.34738 0.84957 0.0
H1724 H 0.73648 0.36842 0.8363 0.0
H1725 H 0.74909 0.3691 0.85924 0.0
H1726 H 0.70622 0.38541 0.88283 0.0
H1727 H 0.73161 0.38721 0.8813 0.0
H1728 H 0.71579 0.39838 0.86401 0.0
H1729 H 0.62241 0.31268 0.83016 0.0
H1730 H 0.61089 0.35226 0.7841 0.0
H1731 H 0.63989 0.36959 0.7927 0.0
H1732 H 0.63561 0.3446 0.86096 0.0
H1733 H 0.6385 0.31959 0.86534 0.0
H1734 H 0.65587 0.33693 0.87416 0.0
H1735 H 0.66734 0.30875 0.82434 0.0
H1736 H 0.67904 0.30896 0.84696 0.0
H1737 H 0.65509 0.29961 0.84431 0.0
H1738 H 0.69826 0.30752 0.90408 0.0
C1739 C 0.69173 0.32509 0.87982 0.0
C1740 C 0.66157 0.69827 0.83956 0.0
C1741 C 0.65305 0.71364 0.84881 0.0
C1742 C 0.66301 0.72245 0.86431 0.0
C1743 C 0.68866 0.69996 0.86224 0.0
C1744 C 0.67937 0.69162 0.84659 0.0
C1745 C 0.69057 0.6752 0.83901 0.0
H1746 H 0.7661 0.61556 0.84981 0.0
C1747 C 0.70623 0.68922 0.86676 0.0
C1748 C 0.70753 0.67463 0.85329 0.0
H1749 H 0.72403 0.61771 0.80326 0.0
H1750 H 0.70867 0.64417 0.81814 0.0
H1751 H 0.77242 0.66189 0.85204 0.0
H1752 H 0.73728 0.62389 0.88412 0.0
H1753 H 0.74835 0.64055 0.89982 0.0
H1754 H 0.76278 0.62416 0.88712 0.0
H1755 H 0.78231 0.6444 0.86816 0.0
H1756 H 0.77529 0.66744 0.87641 0.0
C1757 C 0.69667 0.68043 0.81875 0.0
C1758 C 0.67813 0.65694 0.83986 0.0
C1759 C 0.74694 0.70876 0.92468 0.0
C1760 C 0.76287 0.7009 0.93424 0.0
C1761 C 0.77069 0.68401 0.9273 0.0
C1762 C 0.76278 0.67526 0.91067 0.0
C1763 C 0.7468 0.68344 0.90112 0.0
C1764 C 0.73909 0.69979 0.90842 0.0
C1765 C 0.72147 0.70597 0.89748 0.0
C1766 C 0.72005 0.69101 0.88196 0.0
C1767 C 0.73497 0.6779 0.88393 0.0
C1768 C 0.72531 0.72611 0.88932 0.0
C1769 C 0.70455 0.70473 0.91094 0.0
C1770 C 0.75351 0.6217 0.84295 0.0
C1771 C 0.74619 0.61454 0.8254 0.0
C1772 C 0.72995 0.62306 0.81673 0.0
C1773 C 0.72104 0.63839 0.8254 0.0
C1774 C 0.72854 0.64549 0.84286 0.0
C1775 C 0.74465 0.63731 0.85126 0.0
C1776 C 0.75121 0.6475 0.86928 0.0
C1777 C 0.73645 0.6631 0.87026 0.0
C1778 C 0.72299 0.66166 0.85487 0.0
C1779 C 0.77142 0.6557 0.86652 0.0
C1780 C 0.75002 0.63336 0.88605 0.0
H1781 H 0.6873 0.72308 0.88295 0.0
H1782 H 0.65436 0.6913 0.8275 0.0
H1783 H 0.67136 0.65591 0.85382 0.0
H1784 H 0.68636 0.64376 0.83848 0.0
H1785 H 0.6666 0.65701 0.82854 0.0
H1786 H 0.69825 0.69612 0.81705 0.0
H1787 H 0.68599 0.67537 0.80774 0.0
H1788 H 0.71079 0.67472 0.81562 0.0
H1789 H 0.74047 0.72154 0.93001 0.0
H1790 H 0.78291 0.67769 0.93466 0.0
H1791 H 0.76933 0.66246 0.90593 0.0
H1792 H 0.74024 0.72747 0.88481 0.0
H1793 H 0.72312 0.73733 0.90013 0.0
H1794 H 0.71642 0.72927 0.8764 0.0
H1795 H 0.70721 0.69415 0.92249 0.0
H1796 H 0.69118 0.6997 0.90361 0.0
H1797 H 0.70202 0.71868 0.91781 0.0
H1798 H 0.6571 0.73463 0.87135 0.0
C1799 C 0.68066 0.71574 0.87102 0.0
C1800 C 0.32775 0.63041 0.83444 0.0
C1801 C 0.33437 0.62006 0.81892 0.0
C1802 C 0.3525 0.62444 0.81222 0.0
C1803 C 0.35672 0.64976 0.83533 0.0
C1804 C 0.33916 0.64529 0.84237 0.0
C1805 C 0.33441 0.65839 0.8585 0.0
H1806 H 0.36104 0.73313 0.91596 0.0
C1807 C 0.3649 0.66615 0.84609 0.0
C1808 C 0.35198 0.67135 0.85982 0.0
H1809 H 0.30859 0.70036 0.91636 0.0
H1810 H 0.31903 0.68087 0.89057 0.0
H1811 H 0.36131 0.73681 0.87059 0.0
H1812 H 0.38843 0.69859 0.91076 0.0
H1813 H 0.40513 0.70349 0.89356 0.0
H1814 H 0.39651 0.7227 0.90781 0.0
H1815 H 0.38105 0.74394 0.88612 0.0
H1816 H 0.38453 0.7334 0.86316 0.0
C1817 C 0.31621 0.66947 0.85248 0.0
C1818 C 0.33252 0.6462 0.87662 0.0
C1819 C 0.42939 0.69316 0.82872 0.0
C1820 C 0.44095 0.70787 0.83659 0.0
C1821 C 0.43437 0.71849 0.85197 0.0
C1822 C 0.41673 0.71444 0.85955 0.0
C1823 C 0.4054 0.69955 0.85175 0.0
C1824 C 0.41178 0.68919 0.83662 0.0
C1825 C 0.39796 0.67362 0.83052 0.0
C1826 C 0.38226 0.67644 0.84443 0.0
C1827 C 0.38667 0.6917 0.85674 0.0
C1828 C 0.39099 0.67773 0.80973 0.0
C1829 C 0.40805 0.65421 0.83346 0.0
C1830 C 0.35164 0.72192 0.91041 0.0
C1831 C 0.33393 0.71839 0.91835 0.0
C1832 C 0.32242 0.70331 0.91078 0.0
C1833 C 0.32845 0.69205 0.89568 0.0
C1834 C 0.34619 0.69585 0.88793 0.0
C1835 C 0.35739 0.71064 0.89532 0.0
C1836 C 0.37572 0.71286 0.88534 0.0
C1837 C 0.37377 0.69697 0.87074 0.0
C1838 C 0.35646 0.68694 0.87228 0.0
C1839 C 0.37588 0.7328 0.87586 0.0
C1840 C 0.39242 0.70939 0.90003 0.0
H1841 H 0.37718 0.64175 0.81432 0.0
H1842 H 0.31388 0.62735 0.8399 0.0
H1843 H 0.34379 0.63519 0.87758 0.0
H1844 H 0.3344 0.65459 0.88985 0.0
H1845 H 0.3185 0.63874 0.87651 0.0
H1846 H 0.31632 0.67348 0.83719 0.0
H1847 H 0.30323 0.66068 0.85453 0.0
H1848 H 0.31498 0.68306 0.8602 0.0
H1849 H 0.43411 0.68468 0.81699 0.0
H1850 H 0.4429 0.73009 0.8581 0.0
H1851 H 0.41264 0.72305 0.87126 0.0
H1852 H 0.38914 0.69329 0.80742 0.0
H1853 H 0.4014 0.67265 0.79949 0.0
H1854 H 0.37689 0.67137 0.80597 0.0
H1855 H 0.41911 0.65497 0.84526 0.0
H1856 H 0.39825 0.64272 0.83777 0.0
H1857 H 0.41519 0.64973 0.82044 0.0
H1858 H 0.35808 0.61645 0.80056 0.0
C1859 C 0.36364 0.63915 0.82028 0.0
C1860 C 0.33792 0.32591 0.91304 0.0
C1861 C 0.32109 0.33489 0.91835 0.0
C1862 C 0.314 0.35009 0.90708 0.0
C1863 C 0.34051 0.34756 0.88634 0.0
C1864 C 0.34724 0.33234 0.89698 0.0
C1865 C 0.36487 0.32399 0.88901 0.0
H1866 H 0.43096 0.32539 0.82163 0.0
C1867 C 0.35366 0.35094 0.87082 0.0
C1868 C 0.3679 0.33709 0.8722 0.0
H1869 H 0.42498 0.28484 0.86729 0.0
H1870 H 0.39807 0.30208 0.87826 0.0
H1871 H 0.42413 0.36241 0.84715 0.0
H1872 H 0.38585 0.32932 0.81037 0.0
H1873 H 0.38237 0.35371 0.80554 0.0
H1874 H 0.4052 0.34336 0.80182 0.0
H1875 H 0.42405 0.36465 0.82175 0.0
H1876 H 0.4083 0.37841 0.83586 0.0
C1877 C 0.38132 0.3258 0.90429 0.0
C1878 C 0.36018 0.30324 0.88264 0.0
C1879 C 0.34283 0.40732 0.82661 0.0
C1880 C 0.35323 0.41527 0.81185 0.0
C1881 C 0.37008 0.40615 0.80672 0.0
C1882 C 0.37639 0.38955 0.81607 0.0
C1883 C 0.36587 0.38195 0.83087 0.0
C1884 C 0.34947 0.39094 0.83598 0.0
C1885 C 0.34048 0.38141 0.85252 0.0
C1886 C 0.35416 0.36517 0.85651 0.0
C1887 C 0.36891 0.3654 0.84368 0.0
C1888 C 0.34059 0.39589 0.86918 0.0
C1889 C 0.32041 0.37407 0.8458 0.0
C1890 C 0.42398 0.32031 0.8341 0.0
C1891 C 0.43011 0.3036 0.8435 0.0
C1892 C 0.42042 0.29745 0.85957 0.0
C1893 C 0.4048 0.30753 0.86597 0.0
C1894 C 0.39866 0.32397 0.85622 0.0
C1895 C 0.40829 0.33019 0.84065 0.0
C1896 C 0.39975 0.34799 0.83208 0.0
C1897 C 0.38311 0.35111 0.84476 0.0
C1898 C 0.3826 0.33703 0.85893 0.0
C1899 C 0.41478 0.36427 0.83412 0.0
C1900 C 0.39299 0.34354 0.8113 0.0
H1901 H 0.31744 0.36812 0.88335 0.0
H1902 H 0.34393 0.31424 0.92127 0.0
H1903 H 0.34492 0.30163 0.87792 0.0
H1904 H 0.3681 0.29883 0.87019 0.0
H1905 H 0.36299 0.29302 0.89444 0.0
H1906 H 0.38093 0.33987 0.91156 0.0
H1907 H 0.3802 0.31456 0.91531 0.0
H1908 H 0.39554 0.32511 0.89829 0.0
H1909 H 0.32968 0.41363 0.83085 0.0
H1910 H 0.37865 0.41199 0.79568 0.0
H1911 H 0.3893 0.38334 0.8115 0.0
H1912 H 0.35387 0.40468 0.86964 0.0
H1913 H 0.32837 0.40575 0.8676 0.0
H1914 H 0.3404 0.38905 0.88328 0.0
H1915 H 0.32013 0.3697 0.83058 0.0
H1916 H 0.31595 0.36115 0.85347 0.0
H1917 H 0.30954 0.38527 0.84726 0.0
H1918 H 0.30085 0.357 0.91035 0.0
C1919 C 0.32361 0.35648 0.89123 0.0
Cu1920 Cu 0.28126 0.27771 0.0318 0.0
N1921 N 0.27699 0.29507 0.01195 0.0
N1922 N 0.28266 0.31059 0.98505 0.0
C1923 C 0.28869 0.29707 0.99744 0.0
C1924 C 0.26646 0.31735 0.99198 0.0
C1925 C 0.26288 0.3076 1.00852 0.0
O1926 O 0.28391 0.25335 0.01878 0.0
C1927 C 0.3025 0.30446 0.05235 0.0
O1928 O 0.28979 0.31528 0.04358 0.0
H1929 H 0.30157 0.28894 0.99617 0.0
H1930 H 0.25087 0.30957 0.01733 0.0
N1931 N 0.26104 0.27546 0.04807 0.0
N1932 N 0.24403 0.26281 0.07113 0.0
C1933 C 0.25742 0.25976 0.05834 0.0
C1934 C 0.24966 0.28902 0.05465 0.0
C1935 C 0.23906 0.28123 0.06881 0.0
C1936 C 0.26817 0.2472 0.01127 0.0
O1937 O 0.25263 0.25687 0.01402 0.0
H1938 H 0.26531 0.24668 0.05717 0.0
H1939 H 0.24976 0.30376 0.05025 0.0
O1940 O 0.30258 0.28671 0.04836 0.0
H1941 H 0.25772 0.32836 0.98544 0.0
H1942 H 0.22889 0.28873 0.07708 0.0
Cu1943 Cu 0.78143 0.27895 0.9963 0.0
N1944 N 0.75905 0.28291 0.01122 0.0
N1945 N 0.73995 0.29472 0.03271 0.0
C1946 C 0.75726 0.29581 0.02517 0.0
C1947 C 0.73053 0.28064 0.023 0.0
C1948 C 0.74238 0.27336 0.00974 0.0
O1949 O 0.79556 0.26813 0.0199 0.0
C1950 C 0.76483 0.30617 0.96862 0.0
O1951 O 0.77262 0.31897 0.98026 0.0
H1952 H 0.76835 0.30588 0.02956 0.0
H1953 H 0.73916 0.26186 0.99982 0.0
N1954 N 0.8039 0.27546 0.98138 0.0
N1955 N 0.82306 0.26477 0.95937 0.0
C1956 C 0.80691 0.26158 0.96867 0.0
C1957 C 0.81855 0.28781 0.98015 0.0
C1958 C 0.83041 0.28125 0.96655 0.0
C1959 C 0.80446 0.27867 0.03213 0.0
O1960 O 0.80542 0.29712 0.0291 0.0
H1961 H 0.79706 0.24987 0.96574 0.0
H1962 H 0.82016 0.30091 0.98819 0.0
O1963 O 0.7668 0.28857 0.97252 0.0
H1964 H 0.71624 0.27565 0.02556 0.0
H1965 H 0.84333 0.28817 0.96215 0.0
Cu1966 Cu 0.76974 0.787 0.01146 0.0
N1967 N 0.76691 0.80619 0.99309 0.0
N1968 N 0.77212 0.82261 0.96658 0.0
C1969 C 0.77693 0.80729 0.97726 0.0
C1970 C 0.75851 0.83151 0.97605 0.0
C1971 C 0.75524 0.82129 0.99234 0.0
O1972 O 0.77841 0.76507 0.9974 0.0
C1973 C 0.78429 0.81191 0.03887 0.0
O1974 O 0.76946 0.82141 0.03227 0.0
H1975 H 0.78776 0.79716 0.9738 0.0
H1976 H 0.74509 0.82473 1.00289 0.0
N1977 N 0.74651 0.78158 0.02235 0.0
N1978 N 0.72592 0.77099 0.04321 0.0
C1979 C 0.74426 0.77159 0.03844 0.0
C1980 C 0.72893 0.78741 0.01679 0.0
C1981 C 0.71617 0.78098 0.02976 0.0
C1982 C 0.77407 0.74766 1.00006 0.0
O1983 O 0.76493 0.74282 0.01522 0.0
H1984 H 0.75586 0.76508 0.04662 0.0
H1985 H 0.72558 0.79574 1.0042 0.0
O1986 O 0.78763 0.79564 0.03177 0.0
H1987 H 0.75128 0.84435 0.97143 0.0
H1988 H 0.70094 0.78317 0.02923 0.0
Cu1989 Cu 0.2664 0.77607 0.01498 0.0
N1990 N 0.26169 0.79822 0.0288 0.0
N1991 N 0.24807 0.81556 0.05114 0.0
C1992 C 0.24924 0.79831 0.0428 0.0
C1993 C 0.26031 0.82684 0.04185 0.0
C1994 C 0.26871 0.8161 0.02808 0.0
O1995 O 0.26959 0.75638 0.0347 0.0
C1996 C 0.24842 0.78834 0.98281 0.0
O1997 O 0.26249 0.80054 0.986 0.0
H1998 H 0.2411 0.78584 0.04665 0.0
H1999 H 0.27918 0.82099 0.01835 0.0
N2000 N 0.28896 0.77558 1.00175 0.0
N2001 N 0.30843 0.76467 0.98 0.0
C2002 C 0.29228 0.76164 0.98923 0.0
C2003 C 0.30363 0.78795 1.00058 0.0
C2004 C 0.31566 0.78126 0.98707 0.0
C2005 C 0.28298 0.76146 0.0466 0.0
O2006 O 0.29234 0.77736 0.0434 0.0
H2007 H 0.28249 0.74987 0.9864 0.0
H2008 H 0.30527 0.80105 1.00859 0.0
O2009 O 0.24617 0.77489 0.9948 0.0
H2010 H 0.26327 0.8417 0.04496 0.0
H2011 H 0.32861 0.78814 0.98272 0.0
Cu2012 Cu 0.02486 0.26609 0.28056 0.0
N2013 N 0.03878 0.24372 0.27754 0.0
N2014 N 0.06041 0.22439 0.26586 0.0
C2015 C 0.05201 0.24154 0.2645 0.0
C2016 C 0.05213 0.21535 0.28028 0.0
C2017 C 0.03866 0.22726 0.28739 0.0
O2018 O 0.04369 0.28671 0.28334 0.0
C2019 C 0.99828 0.25252 0.25434 0.0
O2020 O 1.00159 0.23747 0.26499 0.0
H2021 H 0.05572 0.25254 0.2545 0.0
H2022 H 0.0294 0.22403 0.29883 0.0
N2023 N 1.01048 0.26552 0.30231 0.0
N2024 N 0.98733 0.27265 0.3218 0.0
C2025 C 0.99454 0.27557 0.30457 0.0
C2026 C 0.01359 0.25607 0.31879 0.0
C2027 C 0.9992 0.26031 0.33079 0.0
C2028 C 0.05722 0.28309 0.2954 0.0
O2029 O 0.05653 0.2671 0.30505 0.0
H2030 H 0.98835 0.28487 0.29376 0.0
H2031 H 0.02568 0.2471 0.3221 0.0
O2032 O 1.00706 0.26805 0.25854 0.0
H2033 H 0.05545 0.2011 0.28519 0.0
H2034 H 0.99789 0.25521 0.34519 0.0
Cu2035 Cu 0.77026 0.03702 0.25461 0.0
N2036 N 0.78959 0.05552 0.25311 0.0
N2037 N 0.80431 0.08189 0.2431 0.0
C2038 C 0.79052 0.06873 0.23925 0.0
C2039 C 0.81229 0.0768 0.26012 0.0
C2040 C 0.80313 0.06061 0.2663 0.0
O2041 O 0.74743 0.05167 0.25952 0.0
C2042 C 0.78484 0.01727 0.22348 0.0
O2043 O 0.79872 0.0299 0.22493 0.0
H2044 H 0.78069 0.06912 0.22697 0.0
H2045 H 0.80564 0.05362 0.27983 0.0
N2046 N 0.77388 0.01965 0.27453 0.0
N2047 N 0.76721 0.99354 0.29139 0.0
C2048 C 0.7603 1.00714 0.27949 0.0
C2049 C 0.79004 0.01378 0.28352 0.0
C2050 C 0.78594 0.9978 0.29407 0.0
C2051 C 0.74749 0.05839 0.27641 0.0
O2052 O 0.76159 0.05389 0.28838 0.0
H2053 H 0.74593 1.00729 0.27334 0.0
H2054 H 0.80401 0.01988 0.28163 0.0
O2055 O 0.76985 0.01981 0.23273 0.0
H2056 H 0.82373 0.0844 0.26775 0.0
H2057 H 0.79617 0.98961 0.30249 0.0
Cu2058 Cu 0.0111 0.76853 0.26675 0.0
N2059 N 0.9989 0.79217 0.26388 0.0
N2060 N 0.97628 0.81289 0.2544 0.0
C2061 C 0.98227 0.79463 0.25396 0.0
C2062 C 0.9899 0.82229 0.26497 0.0
C2063 C 1.00379 0.8095 0.27079 0.0
O2064 O 0.9907 0.74985 0.27085 0.0
C2065 C 0.04065 0.77721 0.24473 0.0
O2066 O 0.04232 0.78978 0.25854 0.0
H2067 H 0.97483 0.78313 0.24645 0.0
H2068 H 0.01652 0.81266 0.27944 0.0
N2069 N 0.02824 0.76743 0.288 0.0
N2070 N 0.05403 0.75891 0.3057 0.0
C2071 C 0.04306 0.75539 0.28981 0.0
C2072 C 0.02974 0.77881 0.3034 0.0
C2073 C 0.04567 0.77365 0.31429 0.0
C2074 C 0.98005 0.75474 0.28424 0.0
O2075 O 0.98434 0.77045 0.29371 0.0
H2076 H 0.04618 0.74477 0.27926 0.0
H2077 H 0.02015 0.79028 0.30634 0.0
O2078 O 0.02675 0.76533 0.2446 0.0
H2079 H 0.9898 0.83729 0.2685 0.0
H2080 H 0.05076 0.78029 0.32747 0.0
Cu2081 Cu 0.25638 1.01036 0.28238 0.0
N2082 N 0.25819 0.02719 0.30318 0.0
N2083 N 0.26726 0.05333 0.31961 0.0
C2084 C 0.26812 0.04369 0.30306 0.0
C2085 C 0.2564 0.04237 0.33067 0.0
C2086 C 0.25079 0.02628 0.3205 0.0
O2087 O 0.25647 0.02664 0.25999 0.0
C2088 C 0.2784 0.98359 0.30065 0.0
O2089 O 0.26599 0.98752 0.31344 0.0
H2090 H 0.27608 0.04833 0.29106 0.0
H2091 H 0.24215 0.01469 0.32555 0.0
N2092 N 0.2338 0.99602 0.28122 0.0
N2093 N 0.213 0.97349 0.27128 0.0
C2094 C 0.22981 0.98218 0.26835 0.0
C2095 C 0.21887 0.99623 0.29257 0.0
C2096 C 0.20606 0.98221 0.28654 0.0
C2097 C 0.24302 0.03865 0.25961 0.0
O2098 O 0.23069 0.0381 0.2731 0.0
H2099 H 0.23931 0.97826 0.25733 0.0
H2100 H 0.21733 1.00583 0.30438 0.0
O2101 O 0.27726 0.99228 0.28476 0.0
H2102 H 0.25267 0.04574 0.34503 0.0
H2103 H 0.19264 0.9788 0.29277 0.0
Cu2104 Cu 0.01864 0.75854 0.764 0.0
N2105 N 0.0363 0.73879 0.76379 0.0
N2106 N 0.06189 0.72299 0.75483 0.0
C2107 C 0.05173 0.73915 0.75312 0.0
C2108 C 0.05245 0.71205 0.76718 0.0
C2109 C 0.03668 0.72183 0.77269 0.0
O2110 O 0.03392 0.78129 0.76971 0.0
C2111 C 0.99788 0.74192 0.73436 0.0
O2112 O 1.00437 0.72687 0.74349 0.0
H2113 H 0.05507 0.7509 0.74385 0.0
H2114 H 0.02606 0.71669 0.78211 0.0
N2115 N 1.00056 0.75641 0.7826 0.0
N2116 N 0.97494 0.76482 0.79823 0.0
C2117 C 0.98512 0.76757 0.78266 0.0
C2118 C 1.00013 0.74607 0.79869 0.0
C2119 C 0.98433 0.75128 0.80839 0.0
C2120 C 0.04118 0.78139 0.78664 0.0
O2121 O 0.03709 0.76724 0.798 0.0
H2122 H 0.98193 0.77814 0.77182 0.0
H2123 H 1.01088 0.73608 0.80348 0.0
O2124 O 1.00347 0.75837 0.74011 0.0
H2125 H 0.05657 0.69795 0.77189 0.0
H2126 H 0.98028 0.74575 0.822 0.0
Cu2127 Cu 0.27303 0.02304 0.77015 0.0
N2128 N 0.26991 0.03893 0.74909 0.0
N2129 N 0.27685 0.063 0.72966 0.0
C2130 C 0.28071 0.0546 0.74661 0.0
C2131 C 0.26297 0.05209 0.72114 0.0
C2132 C 0.25874 0.03721 0.73317 0.0
O2133 O 0.27858 0.04108 0.79088 0.0
C2134 C 0.30088 0.99292 0.77413 0.0
O2135 O 0.29829 0.99333 0.7925 0.0
H2136 H 0.29173 0.05928 0.75684 0.0
H2137 H 0.24858 0.02576 0.73033 0.0
N2138 N 0.25094 1.00889 0.77474 0.0
N2139 N 0.23224 0.98615 0.78665 0.0
C2140 C 0.25023 0.99274 0.78506 0.0
C2141 C 0.23276 0.0127 0.76951 0.0
C2142 C 0.2212 0.9987 0.77679 0.0
C2143 C 0.26968 0.04157 0.80627 0.0
O2144 O 0.25962 0.02665 0.81121 0.0
H2145 H 0.26267 0.98635 0.79181 0.0
H2146 H 0.2282 0.02491 0.76121 0.0
O2147 O 0.29268 1.00518 0.7634 0.0
H2148 H 0.2564 0.05455 0.70718 0.0
H2149 H 0.20586 0.99793 0.77488 0.0
Cu2150 Cu 0.04467 0.26609 0.78063 0.0
N2151 N 0.02939 0.28753 0.78326 0.0
N2152 N 1.00502 0.30699 0.77622 0.0
C2153 C 0.01303 0.28998 0.77291 0.0
C2154 C 0.01691 0.31568 0.78919 0.0
C2155 C 0.03193 0.30359 0.79356 0.0
O2156 O 0.02605 0.2463 0.7734 0.0
C2157 C 0.07634 0.28427 0.76831 0.0
O2158 O 0.0757 0.29031 0.78594 0.0
H2159 H 1.0075 0.27968 0.76258 0.0
H2160 H 0.04398 0.30647 0.80327 0.0
N2161 N 0.05793 0.25931 0.80332 0.0
N2162 N 0.08039 0.24664 0.82297 0.0
C2163 C 0.07405 0.24902 0.8047 0.0
C2164 C 0.05386 0.26364 0.82127 0.0
C2165 C 0.06766 0.25588 0.8334 0.0
C2166 C 0.02369 0.23104 0.78285 0.0
O2167 O 0.03745 0.22517 0.79456 0.0
H2168 H 0.08084 0.24333 0.79246 0.0
H2169 H 0.04181 0.27198 0.82524 0.0
O2170 O 0.06346 0.27267 0.76201 0.0
H2171 H 0.01496 0.32975 0.79505 0.0
H2172 H 0.06836 0.25733 0.84872 0.0
Cu2173 Cu 0.77468 0.01574 0.74449 0.0
N2174 N 0.7799 0.0311 0.76596 0.0
N2175 N 0.79425 0.05424 0.78338 0.0
C2176 C 0.79297 0.04526 0.76639 0.0
C2177 C 0.78143 0.04528 0.7941 0.0
C2178 C 0.77261 0.03102 0.78333 0.0
O2179 O 0.77255 0.03381 0.72341 0.0
C2180 C 0.79589 0.98755 0.76005 0.0
O2181 O 0.78364 0.99137 0.77305 0.0
H2182 H 0.80157 0.04864 0.75445 0.0
H2183 H 0.76186 0.02118 0.78799 0.0
N2184 N 0.75173 1.00208 0.74542 0.0
N2185 N 0.73027 0.97894 0.73922 0.0
C2186 C 0.74726 0.98649 0.73488 0.0
C2187 C 0.73693 1.00459 0.75665 0.0
C2188 C 0.72373 0.99023 0.75295 0.0
C2189 C 0.76005 0.04638 0.72638 0.0
O2190 O 0.74997 0.04485 0.74159 0.0
H2191 H 0.75655 0.9805 0.72461 0.0
H2192 H 0.73577 0.016 0.76683 0.0
O2193 O 0.79488 0.99679 0.74444 0.0
H2194 H 0.77849 0.0488 0.80864 0.0
H2195 H 0.71032 0.98828 0.75973 0.0
Cu2196 Cu 0.27804 0.77443 0.52518 0.0
N2197 N 0.29734 0.77698 0.54452 0.0
N2198 N 0.31323 0.78892 0.57033 0.0
C2199 C 0.29704 0.78938 0.55921 0.0
C2200 C 0.32407 0.77559 0.56232 0.0
C2201 C 0.31428 0.76829 0.54648 0.0
O2202 O 0.25417 0.77267 0.53841 0.0
C2203 C 0.29724 0.79632 0.50036 0.0
O2204 O 0.31038 0.78464 0.50703 0.0
H2205 H 0.28535 0.79895 0.56133 0.0
H2206 H 0.31945 0.75777 0.53682 0.0
N2207 N 0.27957 0.75252 0.50983 0.0
N2208 N 0.27187 0.73263 0.48562 0.0
C2209 C 0.26879 0.74975 0.4937 0.0
C2210 C 0.28993 0.7366 0.51205 0.0
C2211 C 0.28521 0.72433 0.49718 0.0
C2212 C 0.25157 0.7565 0.54621 0.0
O2213 O 0.26438 0.74324 0.54433 0.0
H2214 H 0.25849 0.75998 0.48833 0.0
H2215 H 0.29983 0.73381 0.52386 0.0
O2216 O 0.28072 0.79534 0.50715 0.0
H2217 H 0.33814 0.7714 0.56748 0.0
H2218 H 0.29115 0.71036 0.49511 0.0
Cu2219 Cu 0.76013 0.76654 0.50157 0.0
N2220 N 0.7622 0.74411 0.48764 0.0
N2221 N 0.77397 0.72446 0.46609 0.0
C2222 C 0.77119 0.74277 0.47118 0.0
C2223 C 0.76626 0.71394 0.47994 0.0
C2224 C 0.75929 0.72607 0.49329 0.0
O2225 O 0.75419 0.78676 0.48336 0.0
C2226 C 0.78954 0.78018 0.52874 0.0
O2227 O 0.78005 0.79603 0.53058 0.0
H2228 H 0.77671 0.75505 0.46387 0.0
H2229 H 0.75374 0.72193 0.50676 0.0
N2230 N 0.74087 0.76503 0.51921 0.0
N2231 N 0.72321 0.77307 0.54359 0.0
C2232 C 0.7373 0.77843 0.53227 0.0
C2233 C 0.72823 0.75088 0.52211 0.0
C2234 C 0.71744 0.75573 0.53725 0.0
C2235 C 0.73701 0.78652 0.47673 0.0
O2236 O 0.72523 0.77359 0.48306 0.0
H2237 H 0.74505 0.79175 0.53364 0.0
H2238 H 0.72676 0.73799 0.51378 0.0
O2239 O 0.78422 0.7682 0.51598 0.0
H2240 H 0.76623 0.69857 0.48088 0.0
H2241 H 0.70613 0.74723 0.54302 0.0
Cu2242 Cu 0.77917 0.277 0.51996 0.0
N2243 N 0.78175 0.25853 0.50097 0.0
N2244 N 0.77426 0.2418 0.47447 0.0
C2245 C 0.76804 0.25398 0.48767 0.0
C2246 C 0.79268 0.23861 0.47975 0.0
C2247 C 0.79727 0.24901 0.49601 0.0
O2248 O 0.77994 0.30083 0.50554 0.0
C2249 C 0.75442 0.25317 0.53785 0.0
O2250 O 0.76675 0.24111 0.53139 0.0
H2251 H 0.75399 0.26016 0.48733 0.0
H2252 H 0.8111 0.25001 0.50332 0.0
N2253 N 0.799 0.27709 0.5388 0.0
N2254 N 0.81654 0.28673 0.56453 0.0
C2255 C 0.80305 0.29149 0.55111 0.0
C2256 C 0.81023 0.26266 0.54467 0.0
C2257 C 0.8211 0.26857 0.56046 0.0
C2258 C 0.79656 0.30565 0.50054 0.0
O2259 O 0.81119 0.29592 0.50733 0.0
H2260 H 0.79559 0.3049 0.55066 0.0
H2261 H 0.81006 0.2486 0.53837 0.0
O2262 O 0.75629 0.27083 0.53383 0.0
H2263 H 0.80228 0.22958 0.47232 0.0
H2264 H 0.83136 0.26002 0.56845 0.0
Cu2265 Cu 0.27325 0.29651 0.52671 0.0
N2266 N 0.27233 0.31878 0.54139 0.0
N2267 N 0.26262 0.33738 0.56481 0.0
C2268 C 0.26177 0.3199 0.55683 0.0
C2269 C 0.27425 0.34772 0.55394 0.0
C2270 C 0.28027 0.33619 0.53952 0.0
O2271 O 0.2797 0.27653 0.5449 0.0
C2272 C 0.24446 0.30956 0.50368 0.0
O2273 O 0.25567 0.32454 0.50594 0.0
H2274 H 0.25323 0.30814 0.56179 0.0
H2275 H 0.2894 0.34042 0.5283 0.0
N2276 N 0.2918 0.29594 0.50855 0.0
N2277 N 0.30708 0.28351 0.48434 0.0
C2278 C 0.2932 0.28101 0.49674 0.0
C2279 C 0.30536 0.30843 0.50355 0.0
C2280 C 0.31477 0.30081 0.4885 0.0
C2281 C 0.29515 0.28059 0.55429 0.0
O2282 O 0.30446 0.29621 0.54992 0.0
H2283 H 0.28383 0.26868 0.49701 0.0
H2284 H 0.30828 0.32204 0.51025 0.0
O2285 O 0.24908 0.29414 0.51218 0.0
H2286 H 0.27815 0.36253 0.55624 0.0
H2287 H 0.32644 0.3074 0.48132 0.0
Cu2288 Cu 0.77923 0.53231 0.74834 0.0
N2289 N 0.77825 0.54689 0.72597 0.0
N2290 N 0.78476 0.57076 0.70602 0.0
C2291 C 0.78835 0.56305 0.72341 0.0
C2292 C 0.77185 0.55888 0.69734 0.0
C2293 C 0.76785 0.54423 0.70965 0.0
O2294 O 0.78053 0.55125 0.76872 0.0
C2295 C 0.80078 0.50445 0.73241 0.0
O2296 O 0.78751 0.50715 0.719 0.0
H2297 H 0.7983 0.56888 0.73411 0.0
H2298 H 0.75811 0.53244 0.70683 0.0
N2299 N 0.75735 0.51722 0.75074 0.0
N2300 N 0.73895 0.49341 0.76076 0.0
C2301 C 0.75633 0.50175 0.76199 0.0
C2302 C 0.73994 0.51875 0.74212 0.0
C2303 C 0.72858 0.50396 0.74818 0.0
C2304 C 0.77427 0.5493 0.78532 0.0
O2305 O 0.76904 0.53234 0.79113 0.0
H2306 H 0.76819 0.49664 0.77082 0.0
H2307 H 0.73574 0.52989 0.73225 0.0
O2308 O 0.80056 0.5146 0.74747 0.0
H2309 H 0.7655 0.56072 0.68318 0.0
H2310 H 0.71377 0.50138 0.744 0.0
Cu2311 Cu 0.28519 0.52277 0.76513 0.0
N2312 N 0.30663 0.50722 0.76567 0.0
N2313 N 0.32581 0.48313 0.77393 0.0
C2314 C 0.30945 0.49219 0.77729 0.0
C2315 C 0.33364 0.49287 0.75966 0.0
C2316 C 0.32183 0.50782 0.75468 0.0
O2317 O 0.26376 0.50608 0.77043 0.0
C2318 C 0.30194 0.55597 0.77773 0.0
O2319 O 0.31018 0.55314 0.76158 0.0
H2320 H 0.29946 0.48773 0.78773 0.0
H2321 H 0.32415 0.51832 0.74377 0.0
N2322 N 0.28088 0.53361 0.74099 0.0
N2323 N 0.27114 0.5547 0.71904 0.0
C2324 C 0.27109 0.54971 0.7375 0.0
C2325 C 0.28729 0.52822 0.72407 0.0
C2326 C 0.28141 0.54135 0.71047 0.0
C2327 C 0.2469 0.50875 0.76368 0.0
O2328 O 0.24273 0.52505 0.75548 0.0
H2329 H 0.26432 0.55781 0.74838 0.0
H2330 H 0.29572 0.5157 0.72176 0.0
O2331 O 0.2899 0.54364 0.78315 0.0
H2332 H 0.347 0.48953 0.75342 0.0
H2333 H 0.28422 0.54101 0.69548 0.0
Cu2334 Cu 0.27604 0.52488 0.2735 0.0
N2335 N 0.27519 0.51114 0.29636 0.0
N2336 N 0.26536 0.4882 0.3158 0.0
C2337 C 0.2626 0.49683 0.29882 0.0
C2338 C 0.28026 0.49749 0.32446 0.0
C2339 C 0.28625 0.5117 0.31248 0.0
O2340 O 0.2799 0.50495 0.25443 0.0
C2341 C 0.25267 0.55103 0.28763 0.0
O2342 O 0.26671 0.54965 0.30047 0.0
H2343 H 0.25198 0.49247 0.28803 0.0
H2344 H 0.29789 0.52157 0.31537 0.0
N2345 N 0.29621 0.54242 0.27174 0.0
N2346 N 0.31215 0.56714 0.25981 0.0
C2347 C 0.29655 0.5558 0.25804 0.0
C2348 C 0.31228 0.54528 0.28253 0.0
C2349 C 0.32209 0.56061 0.27526 0.0
C2350 C 0.29488 0.49544 0.25885 0.0
O2351 O 0.30552 0.50092 0.27371 0.0
H2352 H 0.2853 0.55739 0.24716 0.0
H2353 H 0.31673 0.53685 0.29471 0.0
O2354 O 0.2531 0.5407 0.27266 0.0
H2355 H 0.28636 0.49427 0.33847 0.0
H2356 H 0.3356 0.56632 0.28075 0.0
Cu2357 Cu 0.77436 0.511 0.24526 0.0
N2358 N 0.79584 0.49573 0.24927 0.0
N2359 N 0.81356 0.47315 0.26354 0.0
C2360 C 0.79677 0.48228 0.26289 0.0
C2361 C 0.82366 0.48128 0.24973 0.0
C2362 C 0.81268 0.49521 0.24093 0.0
O2363 O 0.7528 0.49331 0.24577 0.0
C2364 C 0.79127 0.54237 0.25963 0.0
O2365 O 0.80145 0.53768 0.24518 0.0
H2366 H 0.78532 0.47952 0.27233 0.0
H2367 H 0.81679 0.50434 0.22943 0.0
N2368 N 0.77201 0.52358 0.22184 0.0
N2369 N 0.76214 0.54715 0.20262 0.0
C2370 C 0.75948 0.53776 0.21898 0.0
C2371 C 0.7829 0.52376 0.20657 0.0
C2372 C 0.77688 0.53842 0.1947 0.0
C2373 C 0.7548 0.4803 0.23335 0.0
O2374 O 0.76942 0.48142 0.22239 0.0
H2375 H 0.74948 0.54196 0.22943 0.0
H2376 H 0.7949 0.51458 0.20462 0.0
O2377 O 0.77728 0.53162 0.2638 0.0
H2378 H 0.83789 0.47735 0.24608 0.0
H2379 H 0.78321 0.54269 0.1816 0.0
Cu2380 Cu 0.52695 0.2548 0.77019 0.0
N2381 N 0.51297 0.25222 0.79213 0.0
N2382 N 0.49094 0.26026 0.81268 0.0
C2383 C 0.50211 0.26626 0.7987 0.0
C2384 C 0.49502 0.24161 0.81502 0.0
C2385 C 0.50852 0.23668 0.80226 0.0
O2386 O 0.50771 0.25131 0.74943 0.0
C2387 C 0.55037 0.28084 0.78808 0.0
O2388 O 0.54892 0.26733 0.80086 0.0
H2389 H 0.50156 0.28032 0.7924 0.0
H2390 H 0.51382 0.22253 0.79987 0.0
N2391 N 0.54612 0.23675 0.7674 0.0
N2392 N 0.57104 0.22297 0.75445 0.0
C2393 C 0.55833 0.23724 0.75317 0.0
C2394 C 0.5514 0.22176 0.77823 0.0
C2395 C 0.56669 0.21313 0.77018 0.0
C2396 C 0.50178 0.2341 0.74757 0.0
O2397 O 0.51017 0.22093 0.75809 0.0
H2398 H 0.5578 0.24785 0.74201 0.0
H2399 H 0.54486 0.21749 0.79117 0.0
O2400 O 0.54088 0.27905 0.77227 0.0
H2401 H 0.4883 0.23203 0.82478 0.0
H2402 H 0.57427 0.20084 0.7757 0.0
Cu2403 Cu 0.53628 0.75979 0.79195 0.0
N2404 N 0.55496 0.75801 0.81185 0.0
N2405 N 0.58121 0.74796 0.82783 0.0
C2406 C 0.57036 0.74672 0.81155 0.0
C2407 C 0.57232 0.76059 0.83877 0.0
C2408 C 0.5562 0.76679 0.82889 0.0
O2409 O 0.54999 0.76014 0.76855 0.0
C2410 C 0.51084 0.73927 0.81146 0.0
O2411 O 0.5173 0.75188 0.82399 0.0
H2412 H 0.57334 0.73755 0.79969 0.0
H2413 H 0.54598 0.7767 0.83404 0.0
N2414 N 0.5222 0.78225 0.79176 0.0
N2415 N 0.49941 0.80227 0.78165 0.0
C2416 C 0.50805 0.78555 0.77871 0.0
C2417 C 0.52267 0.79757 0.80333 0.0
C2418 C 0.50849 0.8099 0.79719 0.0
C2419 C 0.56255 0.77339 0.76906 0.0
O2420 O 0.56401 0.78449 0.78412 0.0
H2421 H 0.5039 0.77559 0.76748 0.0
H2422 H 0.53256 0.79975 0.81531 0.0
O2423 O 0.5176 0.73939 0.79495 0.0
H2424 H 0.57716 0.76517 0.85287 0.0
H2425 H 0.50523 0.82347 0.80353 0.0
Cu2426 Cu 0.52163 0.77388 0.26791 0.0
N2427 N 0.50581 0.7741 0.28883 0.0
N2428 N 0.48113 0.78087 0.30663 0.0
C2429 C 0.48969 0.78422 0.29013 0.0
C2430 C 0.49233 0.76828 0.31613 0.0
C2431 C 0.50757 0.76423 0.30521 0.0
O2432 O 0.50422 0.77196 0.24533 0.0
C2433 C 0.54724 0.79886 0.28563 0.0
O2434 O 0.54325 0.7873 0.29959 0.0
H2435 H 0.48418 0.79361 0.27905 0.0
H2436 H 0.51926 0.75499 0.30917 0.0
N2437 N 0.53772 0.75257 0.26805 0.0
N2438 N 0.56108 0.73327 0.25941 0.0
C2439 C 0.55299 0.7506 0.25728 0.0
C2440 C 0.53613 0.73591 0.27736 0.0
C2441 C 0.55048 0.72405 0.2721 0.0
C2442 C 0.49583 0.75579 0.24351 0.0
O2443 O 0.4997 0.74253 0.25619 0.0
H2444 H 0.55763 0.76148 0.24757 0.0
H2445 H 0.52491 0.73225 0.28673 0.0
O2446 O 0.53875 0.79622 0.26941 0.0
H2447 H 0.48985 0.76267 0.33015 0.0
H2448 H 0.55275 0.70965 0.27713 0.0
Cu2449 Cu 0.51932 0.26624 0.26616 0.0
N2450 N 0.50157 0.24634 0.26793 0.0
N2451 N 0.47604 0.23079 0.2781 0.0
C2452 C 0.48609 0.24729 0.27844 0.0
C2453 C 0.48558 0.21897 0.26686 0.0
C2454 C 0.50131 0.2286 0.26059 0.0
O2455 O 0.50431 0.28968 0.26526 0.0
C2456 C 0.54706 0.24759 0.28699 0.0
O2457 O 0.54149 0.23487 0.27418 0.0
H2458 H 0.48268 0.25971 0.2867 0.0
H2459 H 0.51202 0.22278 0.25178 0.0
N2460 N 0.5327 0.2652 0.24385 0.0
N2461 N 0.55418 0.27357 0.22292 0.0
C2462 C 0.54684 0.2774 0.23985 0.0
C2463 C 0.53092 0.25329 0.22884 0.0
C2464 C 0.54427 0.25836 0.21594 0.0
C2465 C 0.49497 0.29204 0.24948 0.0
O2466 O 0.49658 0.27935 0.23595 0.0
H2467 H 0.55176 0.28876 0.24932 0.0
H2468 H 0.52046 0.24197 0.22713 0.0
O2469 O 0.53879 0.2637 0.28685 0.0
H2470 H 0.4816 0.20438 0.2635 0.0
H2471 H 0.54628 0.25167 0.20232 0.0
C2472 C 0.2332 0.21711 0.09658 0.0
C2473 C 0.22674 0.22386 0.11394 0.0
H2474 H 0.2434 0.2242 0.06921 0.0
C2475 C 0.22599 0.24367 0.11689 0.0
H2476 H 0.2337 0.20196 0.09372 0.0
C2477 C 0.23145 0.25639 0.10283 0.0
C2478 C 0.23789 0.24967 0.08546 0.0
H2479 H 0.22141 0.24938 0.13022 0.0
H2480 H 0.23098 0.27151 0.10575 0.0
C2481 C 0.23872 0.22986 0.08251 0.0
C2482 C 0.82109 0.24294 0.06997 0.0
C2483 C 0.82949 0.25492 0.08411 0.0
H2484 H 0.80675 0.24094 0.04247 0.0
C2485 C 0.82929 0.27474 0.08101 0.0
H2486 H 0.82112 0.22762 0.07175 0.0
C2487 C 0.82126 0.28235 0.06417 0.0
C2488 C 0.81307 0.27039 0.04994 0.0
H2489 H 0.83526 0.28448 0.09169 0.0
H2490 H 0.82142 0.29767 0.06237 0.0
C2491 C 0.81297 0.25059 0.05309 0.0
C2492 C 0.80621 0.84879 0.07205 0.0
C2493 C 0.81226 0.83783 0.08785 0.0
H2494 H 0.7927 0.84907 0.04426 0.0
C2495 C 0.81141 0.81781 0.08632 0.0
H2496 H 0.8072 0.8642 0.07244 0.0
C2497 C 0.80345 0.80907 0.0698 0.0
C2498 C 0.79607 0.82025 0.05472 0.0
H2499 H 0.81594 0.80894 0.09822 0.0
H2500 H 0.80201 0.79369 0.06931 0.0
C2501 C 0.79803 0.84013 0.05581 0.0
C2502 C 0.2206 0.84447 0.08546 0.0
C2503 C 0.21448 0.83046 0.09821 0.0
H2504 H 0.23581 0.85077 0.06052 0.0
C2505 C 0.21908 0.81137 0.09482 0.0
H2506 H 0.21706 0.8593 0.08748 0.0
C2507 C 0.22996 0.80649 0.07937 0.0
C2508 C 0.23645 0.82056 0.06684 0.0
H2509 H 0.21482 0.80027 0.10448 0.0
H2510 H 0.2337 0.79171 0.0776 0.0
C2511 C 0.23143 0.8396 0.07001 0.0
C2512 C 0.23459 0.804 0.93306 0.0
C2513 C 0.21461 0.80357 0.93287 0.0
H2514 H 0.26072 0.79911 0.94884 0.0
C2515 C 0.20569 0.7955 0.94862 0.0
H2516 H 0.24201 0.80951 0.92104 0.0
C2517 C 0.21658 0.78911 0.96461 0.0
C2518 C 0.23651 0.79078 0.96509 0.0
H2519 H 0.19032 0.79494 0.94898 0.0
H2520 H 0.2094 0.78395 0.97693 0.0
C2521 C 0.24534 0.79781 0.94896 0.0
C2522 C 0.27739 0.2164 0.96852 0.0
C2523 C 0.25926 0.20798 0.96529 0.0
H2524 H 0.29469 0.23553 0.98607 0.0
C2525 C 0.24568 0.20992 0.97916 0.0
H2526 H 0.28809 0.21513 0.958 0.0
C2527 C 0.24943 0.22141 0.99506 0.0
C2528 C 0.26687 0.23124 0.99752 0.0
H2529 H 0.23171 0.20336 0.97717 0.0
H2530 H 0.23819 0.22351 1.00489 0.0
C2531 C 0.28118 0.228 0.98459 0.0
C2532 C 0.83402 0.22289 0.92873 0.0
C2533 C 0.84321 0.23164 0.91357 0.0
H2534 H 0.82044 0.22659 0.95512 0.0
C2535 C 0.8462 0.25149 0.91416 0.0
H2536 H 0.83186 0.2076 0.92906 0.0
C2537 C 0.83989 0.26231 0.92932 0.0
C2538 C 0.83027 0.25357 0.94415 0.0
H2539 H 0.85297 0.25878 0.90266 0.0
H2540 H 0.84205 0.27759 0.92915 0.0
C2541 C 0.82751 0.23374 0.94373 0.0
C2542 C 0.79465 0.82 0.91932 0.0
C2543 C 0.79655 0.83939 0.91459 0.0
H2544 H 0.7853 0.7995 0.93949 0.0
C2545 C 0.78985 0.85313 0.92717 0.0
H2546 H 0.79925 0.80898 0.90982 0.0
C2547 C 0.78162 0.84763 0.94407 0.0
C2548 C 0.78006 0.82828 0.9489 0.0
H2549 H 0.79134 0.86819 0.92419 0.0
H2550 H 0.7769 0.85855 0.95361 0.0
C2551 C 0.78661 0.81453 0.9363 0.0
C2552 C 0.09091 0.21626 0.22435 0.0
C2553 C 0.10599 0.20567 0.23267 0.0
H2554 H 0.0646 0.23051 0.22846 0.0
C2555 C 0.10538 0.20085 0.25207 0.0
H2556 H 0.09059 0.21989 0.20939 0.0
C2557 C 0.09021 0.2066 0.26284 0.0
C2558 C 0.07548 0.21758 0.25457 0.0
H2559 H 0.11684 0.19303 0.25911 0.0
H2560 H 0.09028 0.20299 0.27779 0.0
C2561 C 0.07594 0.22229 0.23522 0.0
C2562 C 0.82099 0.13104 0.23025 0.0
C2563 C 0.81926 0.13073 0.21024 0.0
H2564 H 0.81761 0.11593 0.25628 0.0
C2565 C 0.81157 0.11428 0.20125 0.0
H2566 H 0.82637 0.14361 0.23774 0.0
C2567 C 0.80637 0.09836 0.21201 0.0
C2568 C 0.80883 0.09851 0.23197 0.0
H2569 H 0.81016 0.11344 0.18588 0.0
H2570 H 0.80096 0.08573 0.20467 0.0
C2571 C 0.81597 0.11514 0.24094 0.0
C2572 C 0.94096 0.84743 0.23215 0.0
C2573 C 0.92618 0.8351 0.22565 0.0
H2574 H 0.9686 0.85011 0.24599 0.0
C2575 C 0.92775 0.81555 0.22965 0.0
H2576 H 0.94023 0.86255 0.22918 0.0
C2577 C 0.9439 0.8084 0.23938 0.0
C2578 C 0.95909 0.82056 0.2453 0.0
H2579 H 0.91646 0.8057 0.22513 0.0
H2580 H 0.94441 0.79327 0.2422 0.0
C2581 C 0.95725 0.84025 0.24179 0.0
C2582 C 0.18742 0.92753 0.25948 0.0
C2583 C 0.18888 0.92652 0.2396 0.0
H2584 H 0.19383 0.94338 0.28509 0.0
C2585 C 0.19821 0.94154 0.23039 0.0
H2586 H 0.18073 0.91614 0.26721 0.0
C2587 C 0.20612 0.95689 0.24079 0.0
C2588 C 0.20457 0.95782 0.26058 0.0
H2589 H 0.19928 0.94161 0.2151 0.0
H2590 H 0.21324 0.96821 0.23333 0.0
C2591 C 0.195 0.94309 0.2698 0.0
C2592 C 0.08351 0.81528 0.78789 0.0
C2593 C 0.08737 0.81699 0.80765 0.0
H2594 H 0.06558 0.80279 0.76558 0.0
C2595 C 0.07455 0.80878 0.82009 0.0
H2596 H 0.09315 0.8214 0.77791 0.0
C2597 C 0.05894 0.79814 0.81304 0.0
C2598 C 0.05564 0.79555 0.79337 0.0
H2599 H 0.07677 0.81025 0.83535 0.0
H2600 H 0.04974 0.79143 0.82309 0.0
C2601 C 0.06772 0.80468 0.7808 0.0
C2602 C 0.25394 0.07808 0.84197 0.0
C2603 C 0.25369 0.09481 0.831 0.0
H2604 H 0.2592 0.04801 0.84271 0.0
C2605 C 0.26073 0.09427 0.81265 0.0
H2606 H 0.24854 0.07813 0.85615 0.0
C2607 C 0.2673 0.07719 0.80514 0.0
C2608 C 0.26652 0.06016 0.81566 0.0
H2609 H 0.26076 0.107 0.80395 0.0
H2610 H 0.27198 0.07713 0.79067 0.0
C2611 C 0.26007 0.06088 0.83428 0.0
C2612 C 0.97036 0.23024 0.78773 0.0
C2613 C 0.96766 0.21288 0.79716 0.0
H2614 H 0.99008 0.2493 0.77511 0.0
C2615 C 0.98302 0.20034 0.79947 0.0
H2616 H 0.95869 0.2401 0.78574 0.0
C2617 C 1.00113 0.2057 0.79367 0.0
C2618 C 1.00409 0.22352 0.78509 0.0
H2619 H 0.98125 0.18689 0.80676 0.0
H2620 H 0.01297 0.19625 0.79665 0.0
C2621 C 0.98833 0.23541 0.78154 0.0
C2622 C 0.82273 0.94119 0.75857 0.0
C2623 C 0.829 0.93977 0.7778 0.0
H2624 H 0.80728 0.95794 0.7375 0.0
C2625 C 0.82729 0.95564 0.78972 0.0
H2626 H 0.82388 0.92912 0.7491 0.0
C2627 C 0.81792 0.97188 0.78316 0.0
C2628 C 0.81016 0.97276 0.76448 0.0
H2629 H 0.83225 0.95505 0.80451 0.0
H2630 H 0.81574 0.98338 0.7931 0.0
C2631 C 0.81333 0.95766 0.75192 0.0
C2632 C 0.23847 0.08937 0.24461 0.0
C2633 C 0.23062 0.08743 0.22603 0.0
H2634 H 0.24894 0.07507 0.26972 0.0
C2635 C 0.23029 0.0694 0.2173 0.0
H2636 H 0.23864 0.10311 0.25167 0.0
C2637 C 0.2363 0.05328 0.22765 0.0
C2638 C 0.24262 0.05515 0.24677 0.0
H2639 H 0.22397 0.06758 0.20308 0.0
H2640 H 0.23449 0.03929 0.22127 0.0
C2641 C 0.24436 0.07337 0.2549 0.0
C2642 C 0.23341 0.93917 0.81272 0.0
C2643 C 0.21435 0.93692 0.81755 0.0
H2644 H 0.25395 0.9561 0.79874 0.0
C2645 C 0.20133 0.95125 0.81227 0.0
H2646 H 0.24374 0.92827 0.81634 0.0
C2647 C 0.20717 0.96735 0.80228 0.0
C2648 C 0.2262 0.96954 0.79715 0.0
H2649 H 0.18657 0.95006 0.81598 0.0
H2650 H 0.19673 0.97812 0.79872 0.0
C2651 C 0.23925 0.95521 0.80258 0.0
C2652 C 0.116 0.22239 0.85613 0.0
C2653 C 0.13124 0.21914 0.84429 0.0
H2654 H 0.08796 0.23317 0.8587 0.0
C2655 C 0.1291 0.22416 0.825 0.0
H2656 H 0.11705 0.2184 0.871 0.0
C2657 C 0.11238 0.23292 0.81791 0.0
C2658 C 0.09732 0.23673 0.82992 0.0
H2659 H 0.14063 0.22196 0.81555 0.0
H2660 H 0.11156 0.23718 0.80314 0.0
C2661 C 0.09929 0.23099 0.84906 0.0
C2662 C 0.82374 0.08885 0.81338 0.0
C2663 C 0.83152 0.10064 0.7995 0.0
H2664 H 0.80611 0.06475 0.8192 0.0
C2665 C 0.8269 0.09687 0.78023 0.0
H2666 H 0.8272 0.09127 0.82834 0.0
C2667 C 0.81465 0.08175 0.77497 0.0
C2668 C 0.80683 0.06993 0.78885 0.0
H2669 H 0.83243 0.10587 0.76922 0.0
H2670 H 0.8111 0.07958 0.76001 0.0
C2671 C 0.81158 0.07367 0.80812 0.0
C2672 C 0.93936 0.78943 0.82772 0.0
C2673 C 0.92674 0.79705 0.81369 0.0
H2674 H 0.96453 0.77326 0.83382 0.0
C2675 C 0.93024 0.79375 0.79446 0.0
H2676 H 0.93735 0.79198 0.84267 0.0
C2677 C 0.94595 0.78307 0.78941 0.0
C2678 C 0.95847 0.77538 0.80346 0.0
H2679 H 0.92068 0.79915 0.78328 0.0
H2680 H 0.94815 0.78063 0.77448 0.0
C2681 C 0.95497 0.77866 0.82267 0.0
C2682 C 0.79368 0.96428 0.22308 0.0
C2683 C 0.8057 0.96261 0.20776 0.0
H2684 H 0.77689 0.98293 0.2396 0.0
C2685 C 0.80889 0.97859 0.1963 0.0
H2686 H 0.79099 0.9521 0.23206 0.0
C2687 C 0.80109 0.99624 0.20073 0.0
C2688 C 0.78945 0.99809 0.21635 0.0
H2689 H 0.81811 0.9776 0.18441 0.0
H2690 H 0.80466 1.00859 0.19233 0.0
C2691 C 0.78543 0.98183 0.2272 0.0
C2692 C 0.06752 0.78683 0.20045 0.0
C2693 C 0.08619 0.78821 0.20843 0.0
H2694 H 0.03794 0.78174 0.20586 0.0
C2695 C 0.08977 0.7821 0.22722 0.0
H2696 H 0.06439 0.79166 0.18605 0.0
C2697 C 0.07482 0.77646 0.2384 0.0
C2698 C 0.05595 0.77669 0.23104 0.0
H2699 H 0.10403 0.78302 0.2337 0.0
H2700 H 0.07787 0.77329 0.25329 0.0
C2701 C 0.05242 0.78109 0.21173 0.0
C2702 C 0.95376 0.26034 0.22328 0.0
C2703 C 0.9515 0.24215 0.21501 0.0
H2704 H 0.97088 0.2782 0.24235 0.0
C2705 C 0.96638 0.22907 0.21712 0.0
H2706 H 0.94236 0.27058 0.22194 0.0
C2707 C 0.98239 0.23331 0.22875 0.0
C2708 C 0.98398 0.25078 0.23843 0.0
H2709 H 0.96498 0.21499 0.21083 0.0
H2710 H 0.99304 0.2224 0.2311 0.0
C2711 C 0.97001 0.26468 0.23492 0.0
C2712 C 0.22018 0.75823 0.58834 0.0
C2713 C 0.21393 0.73911 0.58881 0.0
H2714 H 0.23704 0.77909 0.57397 0.0
C2715 C 0.21708 0.72733 0.57314 0.0
H2716 H 0.21797 0.76761 0.60026 0.0
C2717 C 0.22791 0.73383 0.55831 0.0
C2718 C 0.23567 0.75233 0.55864 0.0
H2719 H 0.21215 0.71264 0.57294 0.0
H2720 H 0.23125 0.72393 0.54713 0.0
C2721 C 0.23101 0.76483 0.57329 0.0
C2722 C 0.81799 0.77806 0.5758 0.0
C2723 C 0.82365 0.75891 0.57604 0.0
H2724 H 0.80274 0.79997 0.56054 0.0
C2725 C 0.82004 0.74768 0.55976 0.0
H2726 H 0.82065 0.78702 0.5882 0.0
C2727 C 0.81013 0.7551 0.54389 0.0
C2728 C 0.8033 0.77389 0.54401 0.0
H2729 H 0.82453 0.73296 0.55949 0.0
H2730 H 0.80706 0.74576 0.53186 0.0
C2731 C 0.80778 0.78546 0.55996 0.0
C2732 C 0.82965 0.32935 0.59522 0.0
C2733 C 0.83668 0.32078 0.61216 0.0
H2734 H 0.81802 0.32536 0.56683 0.0
C2735 C 0.83724 0.30075 0.61296 0.0
H2736 H 0.82931 0.34471 0.59389 0.0
C2737 C 0.83083 0.28964 0.59735 0.0
C2738 C 0.82361 0.29822 0.5805 0.0
H2739 H 0.84226 0.29358 0.62582 0.0
H2740 H 0.83114 0.27429 0.59869 0.0
C2741 C 0.82318 0.31823 0.57964 0.0
C2742 C 0.23834 0.33655 0.61133 0.0
C2743 C 0.23337 0.35575 0.61343 0.0
H2744 H 0.25184 0.31573 0.59443 0.0
C2745 C 0.23799 0.36876 0.59908 0.0
H2746 H 0.23529 0.32621 0.62223 0.0
C2747 C 0.24762 0.36277 0.58321 0.0
C2748 C 0.25274 0.34361 0.58121 0.0
H2749 H 0.2341 0.3836 0.60007 0.0
H2750 H 0.25082 0.37311 0.57238 0.0
C2751 C 0.24789 0.33055 0.59541 0.0
C2752 C 0.20848 0.33249 0.47085 0.0
C2753 C 0.20652 0.31899 0.45617 0.0
H2754 H 0.22176 0.33968 0.4978 0.0
C2755 C 0.21403 0.30066 0.4591 0.0
H2756 H 0.20258 0.3466 0.46906 0.0
C2757 C 0.22498 0.2966 0.47576 0.0
C2758 C 0.22846 0.31087 0.48953 0.0
H2759 H 0.21269 0.29002 0.44795 0.0
H2760 H 0.23203 0.28299 0.47707 0.0
C2761 C 0.21936 0.32848 0.48733 0.0
C2762 C 0.25191 0.6972 0.44946 0.0
C2763 C 0.24357 0.70914 0.43542 0.0
H2764 H 0.26714 0.69518 0.47637 0.0
C2765 C 0.24478 0.72898 0.43824 0.0
H2766 H 0.25102 0.68186 0.44798 0.0
C2767 C 0.25406 0.73665 0.45459 0.0
C2768 C 0.26241 0.72471 0.46863 0.0
H2769 H 0.23882 0.73865 0.42763 0.0
H2770 H 0.25492 0.75198 0.45608 0.0
C2771 C 0.2612 0.70487 0.4658 0.0
C2772 C 0.80101 0.69198 0.43467 0.0
C2773 C 0.80452 0.70382 0.41913 0.0
H2774 H 0.78902 0.68918 0.46177 0.0
C2775 C 0.79849 0.7228 0.41948 0.0
H2776 H 0.80569 0.67732 0.43482 0.0
C2777 C 0.78851 0.72961 0.43485 0.0
C2778 C 0.78457 0.71763 0.45031 0.0
H2779 H 0.80086 0.73215 0.40756 0.0
H2780 H 0.78353 0.74413 0.43435 0.0
C2781 C 0.79126 0.6988 0.45008 0.0
C2782 C 0.79161 0.33017 0.45257 0.0
C2783 C 0.8105 0.33642 0.45045 0.0
H2784 H 0.7721 0.31554 0.47042 0.0
C2785 C 0.82345 0.33542 0.46617 0.0
H2786 H 0.78134 0.33077 0.44066 0.0
C2787 C 0.81818 0.32691 0.48308 0.0
C2788 C 0.79983 0.31912 0.48474 0.0
H2789 H 0.838 0.3404 0.46506 0.0
H2790 H 0.8289 0.32543 0.49451 0.0
C2791 C 0.7863 0.32154 0.46962 0.0
C2792 C 0.09974 0.69441 0.73228 0.0
C2793 C 0.11205 0.70873 0.72584 0.0
H2794 H 0.07419 0.68767 0.74631 0.0
C2795 C 0.10736 0.72789 0.72877 0.0
H2796 H 0.10272 0.67951 0.72992 0.0
C2797 C 0.09093 0.73258 0.73825 0.0
C2798 C 0.07879 0.71821 0.74496 0.0
H2799 H 0.11662 0.73925 0.72415 0.0
H2800 H 0.08796 0.74746 0.74064 0.0
C2801 C 0.08337 0.69909 0.74174 0.0
C2802 C 0.80105 0.60768 0.67126 0.0
C2803 C 0.80895 0.62186 0.68343 0.0
H2804 H 0.78753 0.5803 0.66877 0.0
C2805 C 0.80876 0.61891 0.70319 0.0
H2806 H 0.80122 0.60933 0.65597 0.0
C2807 C 0.80084 0.60223 0.71057 0.0
C2808 C 0.79294 0.58801 0.6984 0.0
H2809 H 0.81445 0.62964 0.713 0.0
H2810 H 0.80067 0.60068 0.72585 0.0
C2811 C 0.79318 0.59098 0.67863 0.0
C2812 C 0.96964 0.34077 0.75317 0.0
C2813 C 0.95561 0.32806 0.74562 0.0
H2814 H 0.99643 0.34405 0.76874 0.0
C2815 C 0.95761 0.30851 0.74948 0.0
H2816 H 0.96863 0.35591 0.75039 0.0
C2817 C 0.97351 0.30175 0.75991 0.0
C2818 C 0.98789 0.31433 0.76685 0.0
H2819 H 0.94688 0.29833 0.74435 0.0
H2820 H 0.97458 0.28658 0.76246 0.0
C2821 C 0.98559 0.33398 0.76369 0.0
C2822 C 0.22743 0.45823 0.76473 0.0
C2823 C 0.21347 0.45883 0.74988 0.0
H2824 H 0.24903 0.47374 0.78093 0.0
C2825 C 0.2089 0.47635 0.7414 0.0
H2826 H 0.23125 0.44478 0.77133 0.0
C2827 C 0.21879 0.49294 0.74703 0.0
C2828 C 0.23377 0.4922 0.76094 0.0
H2829 H 0.19823 0.47705 0.72984 0.0
H2830 H 0.2155 0.50607 0.73958 0.0
C2831 C 0.23759 0.47478 0.77016 0.0
C2832 C 0.10675 0.29902 0.31079 0.0
C2833 C 0.10533 0.31896 0.3107 0.0
H2834 H 0.09271 0.27228 0.30593 0.0
C2835 C 0.0885 0.32726 0.30313 0.0
H2836 H 0.11968 0.29219 0.31609 0.0
C2837 C 0.07291 0.3157 0.29703 0.0
C2838 C 0.07401 0.29576 0.29859 0.0
H2839 H 0.08703 0.3426 0.30288 0.0
H2840 H 0.05975 0.32233 0.29213 0.0
C2841 C 0.09129 0.28761 0.30494 0.0
C2842 C 0.22115 0.59453 0.28395 0.0
C2843 C 0.21683 0.59684 0.30319 0.0
H2844 H 0.23587 0.57778 0.26358 0.0
C2845 C 0.22153 0.58213 0.31602 0.0
H2846 H 0.2177 0.60562 0.27372 0.0
C2847 C 0.23172 0.56638 0.31024 0.0
C2848 C 0.23741 0.56473 0.29144 0.0
H2849 H 0.21807 0.58324 0.33083 0.0
H2850 H 0.2361 0.55592 0.32083 0.0
C2851 C 0.23142 0.57856 0.2781 0.0
C2852 C 0.94533 0.71442 0.29501 0.0
C2853 C 0.93081 0.72456 0.30371 0.0
H2854 H 0.97241 0.71595 0.28175 0.0
C2855 C 0.932 0.74456 0.304 0.0
H2856 H 0.94491 0.699 0.2945 0.0
C2857 C 0.9477 0.7541 0.29699 0.0
C2858 C 0.96263 0.74402 0.28914 0.0
H2859 H 0.92086 0.75296 0.30994 0.0
H2860 H 0.94826 0.76951 0.298 0.0
C2861 C 0.96109 0.72409 0.2877 0.0
C2862 C 0.84432 0.43982 0.29282 0.0
C2863 C 0.83072 0.42777 0.30086 0.0
H2864 H 0.84959 0.4637 0.27487 0.0
C2865 C 0.81133 0.4313 0.29692 0.0
H2866 H 0.8594 0.43771 0.29584 0.0
C2867 C 0.8057 0.44622 0.28479 0.0
C2868 C 0.81934 0.458 0.27638 0.0
H2869 H 0.80051 0.42216 0.30272 0.0
H2870 H 0.79065 0.44817 0.28163 0.0
C2871 C 0.83871 0.45471 0.28073 0.0
C2872 C 0.26302 0.59964 0.6913 0.0
C2873 C 0.24404 0.60386 0.69536 0.0
H2874 H 0.28641 0.58039 0.69551 0.0
C2875 C 0.23408 0.591 0.70679 0.0
H2876 H 0.27135 0.60923 0.68287 0.0
C2877 C 0.24301 0.57491 0.71448 0.0
C2878 C 0.26189 0.5709 0.71048 0.0
H2879 H 0.21931 0.59325 0.70982 0.0
H2880 H 0.23511 0.56543 0.72345 0.0
C2881 C 0.27175 0.5832 0.6986 0.0
C2882 C 0.25445 0.44262 0.34112 0.0
C2883 C 0.23477 0.44025 0.33698 0.0
H2884 H 0.2795 0.45972 0.33775 0.0
C2885 C 0.22546 0.45378 0.32522 0.0
H2886 H 0.2623 0.43228 0.34965 0.0
C2887 C 0.23551 0.4694 0.31813 0.0
C2888 C 0.25504 0.47196 0.32279 0.0
H2889 H 0.21031 0.45259 0.32187 0.0
H2890 H 0.22791 0.47973 0.30938 0.0
C2891 C 0.2644 0.45834 0.33427 0.0
C2892 C 0.09097 0.72105 0.31475 0.0
C2893 C 0.10571 0.7314 0.32446 0.0
H2894 H 0.06297 0.7217 0.30122 0.0
C2895 C 0.10321 0.75111 0.32719 0.0
H2896 H 0.09217 0.70586 0.31251 0.0
C2897 C 0.08633 0.76003 0.32108 0.0
C2898 C 0.07154 0.74964 0.3117 0.0
H2899 H 0.11435 0.75978 0.33404 0.0
H2900 H 0.08493 0.77517 0.3235 0.0
C2901 C 0.07416 0.7301 0.30835 0.0
C2902 C 0.80548 0.57774 0.29846 0.0
C2903 C 0.81328 0.59257 0.28761 0.0
H2904 H 0.79193 0.55004 0.29807 0.0
C2905 C 0.81138 0.59151 0.26771 0.0
H2906 H 0.80671 0.57811 0.31385 0.0
C2907 C 0.80308 0.57556 0.25884 0.0
C2908 C 0.79624 0.56032 0.2696 0.0
H2909 H 0.81665 0.60289 0.25891 0.0
H2910 H 0.80253 0.57489 0.24344 0.0
C2911 C 0.79694 0.56172 0.2895 0.0
C2912 C 0.94242 0.28006 0.34773 0.0
C2913 C 0.93827 0.29919 0.3433 0.0
H2914 H 0.96141 0.25664 0.34434 0.0
C2915 C 0.95094 0.30942 0.33205 0.0
H2916 H 0.93295 0.2716 0.35612 0.0
C2917 C 0.96691 0.30068 0.32497 0.0
C2918 C 0.97092 0.2816 0.32928 0.0
H2919 H 0.94865 0.32431 0.32876 0.0
H2920 H 0.97634 0.30894 0.31633 0.0
C2921 C 0.95867 0.27142 0.34092 0.0
C2922 C 0.8335 0.46242 0.74242 0.0
C2923 C 0.83647 0.45586 0.72383 0.0
H2924 H 0.82005 0.48313 0.75985 0.0
C2925 C 0.82914 0.46667 0.70842 0.0
H2926 H 0.83885 0.45447 0.75467 0.0
C2927 C 0.81827 0.48283 0.71142 0.0
C2928 C 0.81461 0.48892 0.72991 0.0
H2929 H 0.83157 0.46251 0.69391 0.0
H2930 H 0.8124 0.4904 0.69913 0.0
C2931 C 0.82274 0.47885 0.74543 0.0
C2932 C 0.10321 0.30215 0.72594 0.0
C2933 C 0.1192 0.31093 0.7352 0.0
H2934 H 0.07697 0.28661 0.72913 0.0
C2935 C 0.12169 0.30903 0.75501 0.0
H2936 H 0.10089 0.30335 0.71067 0.0
C2937 C 0.10806 0.29968 0.76546 0.0
C2938 C 0.0916 0.29175 0.75642 0.0
H2939 H 0.13407 0.31512 0.76256 0.0
H2940 H 0.11027 0.299 0.78078 0.0
C2941 C 0.08952 0.29258 0.73648 0.0
C2942 C 0.96134 0.71645 0.70291 0.0
C2943 C 0.94677 0.72991 0.70121 0.0
H2944 H 0.98918 0.70999 0.71422 0.0
C2945 C 0.95037 0.74859 0.70783 0.0
H2946 H 0.95909 0.70207 0.69758 0.0
C2947 C 0.96777 0.7532 0.71742 0.0
C2948 C 0.98174 0.73919 0.7204 0.0
H2949 H 0.93936 0.75924 0.70662 0.0
H2950 H 0.96973 0.76728 0.72357 0.0
C2951 C 0.97862 0.72104 0.71235 0.0
C2952 C 0.72626 0.21765 0.56512 0.0
C2953 C 0.7239 0.22725 0.58235 0.0
H2954 H 0.73735 0.21863 0.53736 0.0
C2955 C 0.72841 0.24683 0.58347 0.0
H2956 H 0.72262 0.20266 0.56372 0.0
C2957 C 0.73681 0.25612 0.56817 0.0
C2958 C 0.74076 0.2459 0.55162 0.0
H2959 H 0.72675 0.25456 0.59661 0.0
H2960 H 0.74157 0.27078 0.56988 0.0
C2961 C 0.73461 0.22684 0.54998 0.0
C2962 C 0.30845 0.2387 0.58614 0.0
C2963 C 0.3204 0.24775 0.60011 0.0
H2964 H 0.29079 0.24203 0.56059 0.0
C2965 C 0.32258 0.26765 0.59945 0.0
H2966 H 0.30648 0.22338 0.58619 0.0
C2967 C 0.31391 0.27812 0.58476 0.0
C2968 C 0.30254 0.26908 0.57047 0.0
H2969 H 0.3311 0.27522 0.61026 0.0
H2970 H 0.31625 0.2934 0.58456 0.0
C2971 C 0.29948 0.24932 0.57147 0.0
C2972 C 0.34258 0.81512 0.60827 0.0
C2973 C 0.32859 0.82247 0.61989 0.0
H2974 H 0.34876 0.79905 0.58352 0.0
C2975 C 0.30932 0.8191 0.61448 0.0
H2976 H 0.35756 0.81777 0.61164 0.0
C2977 C 0.30424 0.80831 0.59817 0.0
C2978 C 0.3183 0.80058 0.58685 0.0
H2979 H 0.29814 0.82437 0.62313 0.0
H2980 H 0.2893 0.80563 0.59469 0.0
C2981 C 0.33752 0.80433 0.59207 0.0
C2982 C 0.71066 0.81344 0.57562 0.0
C2983 C 0.70437 0.80366 0.59166 0.0
H2984 H 0.7214 0.81135 0.54768 0.0
C2985 C 0.70418 0.7836 0.59141 0.0
H2986 H 0.71069 0.82886 0.57512 0.0
C2987 C 0.71006 0.77361 0.57555 0.0
C2988 C 0.71649 0.7834 0.55964 0.0
H2989 H 0.69981 0.77554 0.60362 0.0
H2990 H 0.71001 0.75819 0.57594 0.0
C2991 C 0.71673 0.80342 0.55984 0.0
C2992 C 0.70339 0.81151 0.4421 0.0
C2993 C 0.7156 0.81799 0.42816 0.0
H2994 H 0.70066 0.79675 0.46836 0.0
C2995 C 0.7354 0.81594 0.43143 0.0
H2996 H 0.68813 0.81333 0.44036 0.0
C2997 C 0.74267 0.80663 0.44781 0.0
C2998 C 0.73024 0.79914 0.46108 0.0
H2999 H 0.74521 0.82077 0.42097 0.0
H3000 H 0.75788 0.80446 0.44959 0.0
C3001 C 0.7106 0.80212 0.45826 0.0
C3002 C 0.76324 0.22128 0.42569 0.0
C3003 C 0.74323 0.22 0.42509 0.0
H3004 H 0.7887 0.22932 0.44155 0.0
C3005 C 0.73357 0.22642 0.44092 0.0
H3006 H 0.77117 0.21683 0.41363 0.0
C3007 C 0.74369 0.23358 0.45706 0.0
C3008 C 0.76375 0.23457 0.45776 0.0
H3009 H 0.71819 0.22545 0.44106 0.0
H3010 H 0.73579 0.23798 0.46912 0.0
C3011 C 0.77334 0.22843 0.44178 0.0
C3012 C 0.3227 0.26455 0.43765 0.0
C3013 C 0.31981 0.2448 0.43987 0.0
H3014 H 0.3209 0.29235 0.45006 0.0
C3015 C 0.31323 0.23806 0.45723 0.0
H3016 H 0.32749 0.2703 0.4244 0.0
C3017 C 0.30933 0.25074 0.47184 0.0
C3018 C 0.31201 0.27047 0.46954 0.0
H3019 H 0.31124 0.22295 0.45964 0.0
H3020 H 0.30434 0.24506 0.48504 0.0
C3021 C 0.31892 0.27723 0.45235 0.0
C3022 C 0.32567 0.82033 0.46282 0.0
C3023 C 0.31156 0.8253 0.44902 0.0
H3024 H 0.33211 0.80773 0.4899 0.0
C3025 C 0.29229 0.82259 0.45323 0.0
H3026 H 0.3406 0.82268 0.46032 0.0
C3027 C 0.28735 0.81416 0.47046 0.0
C3028 C 0.30161 0.80828 0.48373 0.0
H3029 H 0.28105 0.82624 0.44289 0.0
H3030 H 0.27248 0.81142 0.47296 0.0
C3031 C 0.32076 0.81191 0.47989 0.0
C3032 C 0.60665 0.19682 0.72622 0.0
C3033 C 0.61629 0.21184 0.71729 0.0
H3034 H 0.58483 0.18861 0.745 0.0
C3035 C 0.61045 0.23063 0.72066 0.0
H3036 H 0.61033 0.18213 0.72367 0.0
C3037 C 0.59553 0.23426 0.73269 0.0
C3038 C 0.58621 0.21924 0.74182 0.0
H3039 H 0.61764 0.24261 0.71434 0.0
H3040 H 0.59157 0.24888 0.73518 0.0
C3041 C 0.59194 0.20049 0.73843 0.0
C3042 C 0.29626 0.09822 0.69499 0.0
C3043 C 0.30549 0.11165 0.70719 0.0
H3044 H 0.28013 0.07227 0.69247 0.0
C3045 C 0.30519 0.10873 0.72692 0.0
H3046 H 0.29646 0.09986 0.6797 0.0
C3047 C 0.29571 0.09289 0.73426 0.0
C3048 C 0.28637 0.07951 0.72206 0.0
H3049 H 0.31191 0.11892 0.73672 0.0
H3050 H 0.29547 0.09133 0.74954 0.0
C3051 C 0.28682 0.08239 0.70232 0.0
C3052 C 0.46607 0.81372 0.74025 0.0
C3053 C 0.45141 0.82339 0.74911 0.0
H3054 H 0.49281 0.79949 0.74369 0.0
C3055 C 0.45322 0.82643 0.76892 0.0
H3056 H 0.46549 0.81146 0.72502 0.0
C3057 C 0.46916 0.81991 0.77952 0.0
C3058 C 0.4835 0.80991 0.77065 0.0
H3059 H 0.44214 0.83349 0.77638 0.0
H3060 H 0.47 0.82219 0.79475 0.0
C3061 C 0.48182 0.80694 0.75091 0.0
C3062 C 0.70309 0.93279 0.73572 0.0
C3063 C 0.70324 0.9287 0.71611 0.0
H3064 H 0.71139 0.95205 0.75832 0.0
C3065 C 0.71295 0.9414 0.70432 0.0
H3066 H 0.69635 0.92317 0.74545 0.0
C3067 C 0.72205 0.95773 0.71193 0.0
C3068 C 0.72135 0.96194 0.7314 0.0
H3069 H 0.71322 0.93898 0.68914 0.0
H3070 H 0.72925 0.96735 0.70253 0.0
C3071 C 0.71181 0.9493 0.7432 0.0
C3072 C 0.58275 0.83041 0.31259 0.0
C3073 C 0.59606 0.83469 0.29886 0.0
H3074 H 0.55688 0.81607 0.319 0.0
C3075 C 0.59172 0.82943 0.27982 0.0
H3076 H 0.5854 0.83461 0.32729 0.0
C3077 C 0.57506 0.81883 0.27496 0.0
C3078 C 0.56257 0.81334 0.28911 0.0
H3079 H 0.6017 0.83254 0.26891 0.0
H3080 H 0.57259 0.81395 0.26045 0.0
C3081 C 0.56632 0.81983 0.3078 0.0
C3082 C 0.71553 0.10173 0.27669 0.0
C3083 C 0.71405 0.10456 0.29641 0.0
H3084 H 0.72719 0.08464 0.25467 0.0
C3085 C 0.72135 0.0906 0.30892 0.0
H3086 H 0.71004 0.11222 0.26666 0.0
C3087 C 0.73107 0.07497 0.3021 0.0
C3088 C 0.73369 0.07274 0.28255 0.0
H3089 H 0.72002 0.09201 0.32414 0.0
H3090 H 0.73719 0.06495 0.31229 0.0
C3091 C 0.72528 0.08591 0.2698 0.0
C3092 C 0.43951 0.20376 0.30499 0.0
C3093 C 0.42764 0.2185 0.31069 0.0
H3094 H 0.46433 0.19611 0.29034 0.0
C3095 C 0.43156 0.23723 0.30488 0.0
H3096 H 0.43698 0.1892 0.30941 0.0
C3097 C 0.44721 0.24118 0.29392 0.0
C3098 C 0.45933 0.22651 0.28854 0.0
H3099 H 0.42248 0.24885 0.30873 0.0
H3100 H 0.44976 0.25575 0.28963 0.0
C3101 C 0.45518 0.20771 0.29403 0.0
C3102 C 0.30926 0.94987 0.32933 0.0
C3103 C 0.3141 0.9363 0.31571 0.0
H3104 H 0.29435 0.97542 0.33509 0.0
C3105 C 0.30923 0.93983 0.29641 0.0
H3106 H 0.31327 0.94794 0.34423 0.0
C3107 C 0.29858 0.95597 0.29108 0.0
C3108 C 0.29259 0.96866 0.30502 0.0
H3109 H 0.31279 0.92966 0.28557 0.0
H3110 H 0.29412 0.9579 0.27628 0.0
C3111 C 0.29853 0.96572 0.32407 0.0
C3112 C 0.75317 0.09825 0.71759 0.0
C3113 C 0.74399 0.09821 0.69948 0.0
H3114 H 0.76598 0.08161 0.74003 0.0
C3115 C 0.74362 0.08133 0.68865 0.0
H3116 H 0.75368 0.11109 0.72617 0.0
C3117 C 0.75077 0.06433 0.69662 0.0
C3118 C 0.7584 0.06419 0.7154 0.0
H3119 H 0.73648 0.08095 0.6747 0.0
H3120 H 0.74889 0.05113 0.68875 0.0
C3121 C 0.76026 0.08142 0.72547 0.0
C3122 C 0.7573 0.94435 0.31001 0.0
C3123 C 0.73738 0.94437 0.31127 0.0
H3124 H 0.7823 0.95966 0.30261 0.0
C3125 C 0.72735 0.9607 0.30543 0.0
H3126 H 0.76544 0.93187 0.3141 0.0
C3127 C 0.7371 0.97681 0.29895 0.0
C3128 C 0.7571 0.97692 0.29805 0.0
H3129 H 0.71203 0.96125 0.30641 0.0
H3130 H 0.72896 0.98931 0.29502 0.0
C3131 C 0.76701 0.96037 0.3035 0.0
C3132 C 0.5942 0.25126 0.31559 0.0
C3133 C 0.59833 0.23182 0.31841 0.0
H3134 H 0.57448 0.27173 0.30351 0.0
C3135 C 0.58431 0.2182 0.31306 0.0
H3136 H 0.60469 0.26212 0.31958 0.0
C3137 C 0.56724 0.22367 0.30391 0.0
C3138 C 0.56354 0.24293 0.29997 0.0
H3139 H 0.58673 0.20317 0.31547 0.0
H3140 H 0.55714 0.21264 0.29932 0.0
C3141 C 0.5769 0.25678 0.30645 0.0
C3142 C 0.29141 0.10087 0.31435 0.0
C3143 C 0.2969 0.10537 0.33328 0.0
H3144 H 0.27739 0.08112 0.29522 0.0
C3145 C 0.29148 0.09298 0.34781 0.0
H3146 H 0.29502 0.11032 0.30286 0.0
C3147 C 0.28141 0.0761 0.34341 0.0
C3148 C 0.27651 0.07129 0.32438 0.0
H3149 H 0.29562 0.096 0.36253 0.0
H3150 H 0.27803 0.06655 0.35486 0.0
C3151 C 0.28133 0.08408 0.30996 0.0
C3152 C 0.4433 0.81633 0.31733 0.0
C3153 C 0.43074 0.80523 0.32796 0.0
H3154 H 0.46914 0.81719 0.30209 0.0
C3155 C 0.43473 0.78573 0.33044 0.0
H3156 H 0.44095 0.83141 0.31524 0.0
C3157 C 0.45112 0.77779 0.32329 0.0
C3158 C 0.46377 0.78897 0.31306 0.0
H3159 H 0.42522 0.77648 0.33797 0.0
H3160 H 0.45388 0.76282 0.3257 0.0
C3161 C 0.45953 0.80824 0.30983 0.0
C3162 C 0.32144 0.95982 0.73749 0.0
C3163 C 0.32944 0.94539 0.74902 0.0
H3164 H 0.3065 0.98627 0.73632 0.0
C3165 C 0.32818 0.94692 0.76889 0.0
H3166 H 0.32231 0.9592 0.72218 0.0
C3167 C 0.31929 0.96249 0.77703 0.0
C3168 C 0.31136 0.97698 0.76554 0.0
H3169 H 0.33393 0.93594 0.77822 0.0
H3170 H 0.31847 0.96304 0.79235 0.0
C3171 C 0.31255 0.97545 0.74565 0.0
C3172 C 0.58155 0.78157 0.72008 0.0
C3173 C 0.59899 0.79072 0.72505 0.0
H3174 H 0.55605 0.76858 0.73034 0.0
C3175 C 0.60516 0.79155 0.74427 0.0
H3176 H 0.57652 0.78066 0.70534 0.0
C3177 C 0.59359 0.78482 0.75834 0.0
C3178 C 0.57561 0.77688 0.75359 0.0
H3179 H 0.61877 0.79801 0.74851 0.0
H3180 H 0.59849 0.78642 0.77308 0.0
C3181 C 0.56989 0.77464 0.73432 0.0
C3182 C 0.45288 0.23603 0.72204 0.0
C3183 C 0.44869 0.21646 0.71956 0.0
H3184 H 0.47306 0.25714 0.73277 0.0
C3185 C 0.46291 0.20323 0.72448 0.0
H3186 H 0.44223 0.2466 0.71838 0.0
C3187 C 0.48043 0.20924 0.73258 0.0
C3188 C 0.48434 0.22868 0.73602 0.0
H3189 H 0.46039 0.18811 0.72233 0.0
H3190 H 0.49078 0.1985 0.73665 0.0
C3191 C 0.47055 0.24209 0.73023 0.0
C3192 C 0.71403 0.73183 0.0767 0.0
C3193 C 0.70431 0.74164 0.09078 0.0
H3194 H 0.72886 0.73374 0.05072 0.0
C3195 C 0.70151 0.7614 0.08846 0.0
H3196 H 0.71604 0.71659 0.07746 0.0
C3197 C 0.70822 0.77096 0.0726 0.0
C3198 C 0.71834 0.76112 0.05906 0.0
H3199 H 0.69447 0.76964 0.09903 0.0
H3200 H 0.706 0.78614 0.07114 0.0
C3201 C 0.72124 0.74154 0.06122 0.0
C3202 C 0.30107 0.72337 0.08099 0.0
C3203 C 0.30734 0.73488 0.09653 0.0
H3204 H 0.28803 0.72274 0.05263 0.0
C3205 C 0.30244 0.7542 0.09645 0.0
H3206 H 0.30464 0.7084 0.08071 0.0
C3207 C 0.29295 0.76223 0.08066 0.0
C3208 C 0.28803 0.7512 0.06448 0.0
H3209 H 0.30672 0.76334 0.10833 0.0
H3210 H 0.29035 0.77742 0.08072 0.0
C3211 C 0.29148 0.73151 0.06499 0.0
C3212 C 0.32271 0.34112 0.08704 0.0
C3213 C 0.32847 0.32992 0.10273 0.0
H3214 H 0.3105 0.34179 0.05874 0.0
C3215 C 0.32804 0.30993 0.10077 0.0
H3216 H 0.32332 0.35653 0.08788 0.0
C3217 C 0.32078 0.30139 0.08386 0.0
C3218 C 0.31387 0.31271 0.06865 0.0
H3219 H 0.3324 0.30091 0.11261 0.0
H3220 H 0.31961 0.28601 0.0831 0.0
C3221 C 0.3155 0.33264 0.07026 0.0
C3222 C 0.73931 0.32311 0.07801 0.0
C3223 C 0.71968 0.32581 0.07984 0.0
H3224 H 0.76112 0.31089 0.06174 0.0
C3225 C 0.70694 0.31879 0.06545 0.0
H3226 H 0.7495 0.32809 0.08894 0.0
C3227 C 0.7136 0.30885 0.04992 0.0
C3228 C 0.73317 0.30574 0.04831 0.0
H3229 H 0.69176 0.32093 0.06622 0.0
H3230 H 0.7034 0.30362 0.03914 0.0
C3231 C 0.74598 0.3132 0.06241 0.0
C3232 C 0.74038 0.33713 0.93066 0.0
C3233 C 0.73179 0.32347 0.9183 0.0
H3234 H 0.75742 0.34247 0.95616 0.0
C3235 C 0.73439 0.30405 0.92257 0.0
H3236 H 0.73852 0.3522 0.92799 0.0
C3237 C 0.74516 0.29846 0.93879 0.0
C3238 C 0.75363 0.31213 0.95122 0.0
H3239 H 0.72823 0.29311 0.91325 0.0
H3240 H 0.74681 0.28339 0.94159 0.0
C3241 C 0.75115 0.33153 0.94691 0.0
C3242 C 0.77865 0.72881 0.95019 0.0
C3243 C 0.77056 0.71055 0.95161 0.0
H3244 H 0.78662 0.75472 0.9645 0.0
C3245 C 0.76633 0.70345 0.96959 0.0
H3246 H 0.78181 0.73461 0.9364 0.0
C3247 C 0.7688 0.71505 0.98575 0.0
C3248 C 0.77557 0.73392 0.98414 0.0
H3249 H 0.75982 0.68948 0.97092 0.0
H3250 H 0.76431 0.70964 0.99926 0.0
C3251 C 0.7813 0.74033 0.96631 0.0
C3252 C 0.33166 0.75004 0.93517 0.0
C3253 C 0.32758 0.73034 0.93442 0.0
H3254 H 0.3288 0.77637 0.9502 0.0
C3255 C 0.31752 0.72215 0.94925 0.0
H3256 H 0.33912 0.75695 0.92389 0.0
C3257 C 0.31152 0.73336 0.96427 0.0
C3258 C 0.31548 0.75305 0.96493 0.0
H3259 H 0.31445 0.70701 0.94942 0.0
H3260 H 0.30389 0.72655 0.97547 0.0
C3261 C 0.32576 0.76123 0.95027 0.0
C3262 C 0.30144 0.34175 0.9467 0.0
C3263 C 0.31094 0.32853 0.9355 0.0
H3264 H 0.2849 0.34635 0.97115 0.0
C3265 C 0.31065 0.30921 0.94088 0.0
H3266 H 0.30163 0.3568 0.94334 0.0
C3267 C 0.30138 0.30336 0.9571 0.0
C3268 C 0.29189 0.3166 0.96816 0.0
H3269 H 0.31741 0.2985 0.93248 0.0
H3270 H 0.30138 0.28841 0.96086 0.0
C3271 C 0.29188 0.33582 0.96272 0.0
C3272 C 0.59431 0.69875 0.23728 0.0
C3273 C 0.60796 0.71103 0.22969 0.0
H3274 H 0.56866 0.69611 0.25231 0.0
C3275 C 0.60597 0.7308 0.23221 0.0
H3276 H 0.59517 0.68348 0.23534 0.0
C3277 C 0.5907 0.73808 0.24197 0.0
C3278 C 0.577 0.7258 0.2495 0.0
H3279 H 0.61636 0.74069 0.22682 0.0
H3280 H 0.58977 0.75335 0.24381 0.0
C3281 C 0.57905 0.70603 0.24703 0.0
C3282 C 0.33117 0.61443 0.24379 0.0
C3283 C 0.32596 0.61431 0.22422 0.0
H3284 H 0.33091 0.59956 0.27038 0.0
C3285 C 0.31609 0.59826 0.21665 0.0
H3286 H 0.33839 0.62664 0.25031 0.0
C3287 C 0.31154 0.58286 0.22831 0.0
C3288 C 0.31693 0.58299 0.24779 0.0
H3289 H 0.31212 0.59741 0.20163 0.0
H3290 H 0.30409 0.57068 0.222 0.0
C3291 C 0.32684 0.59892 0.25538 0.0
C3292 C 0.46595 0.32726 0.22134 0.0
C3293 C 0.44978 0.32891 0.23223 0.0
H3294 H 0.49318 0.31449 0.21864 0.0
C3295 C 0.4504 0.32149 0.25083 0.0
H3296 H 0.46594 0.33297 0.20704 0.0
C3297 C 0.46625 0.31099 0.25762 0.0
C3298 C 0.48156 0.30783 0.24584 0.0
H3299 H 0.43807 0.32247 0.25947 0.0
H3300 H 0.46577 0.30396 0.27129 0.0
C3301 C 0.48158 0.31676 0.22802 0.0
C3302 C 0.7105 0.44967 0.22471 0.0
C3303 C 0.71873 0.43286 0.21802 0.0
H3304 H 0.71561 0.47825 0.23517 0.0
C3305 C 0.7386 0.43108 0.21937 0.0
H3306 H 0.69519 0.45137 0.22388 0.0
C3307 C 0.75008 0.44625 0.22573 0.0
C3308 C 0.74203 0.46357 0.23104 0.0
H3309 H 0.74534 0.41814 0.2148 0.0
H3310 H 0.7654 0.44468 0.22571 0.0
C3311 C 0.72212 0.46499 0.23122 0.0
C3312 C 0.58507 0.31286 0.81555 0.0
C3313 C 0.59624 0.32034 0.8012 0.0
H3314 H 0.5617 0.29488 0.82252 0.0
C3315 C 0.59057 0.31664 0.78206 0.0
H3316 H 0.58863 0.31582 0.83039 0.0
C3317 C 0.57476 0.30478 0.77749 0.0
C3318 C 0.56446 0.29637 0.792 0.0
H3319 H 0.59885 0.32214 0.77063 0.0
H3320 H 0.57132 0.30134 0.76273 0.0
C3321 C 0.56949 0.30098 0.81101 0.0
C3322 C 0.76047 0.59994 0.79692 0.0
C3323 C 0.75537 0.59834 0.81592 0.0
H3324 H 0.77094 0.58591 0.77254 0.0
C3325 C 0.75813 0.58089 0.82537 0.0
H3326 H 0.7586 0.61327 0.78935 0.0
C3327 C 0.76495 0.56506 0.81567 0.0
C3328 C 0.76953 0.5665 0.79645 0.0
H3329 H 0.75427 0.57929 0.84002 0.0
H3330 H 0.76621 0.55159 0.82309 0.0
C3331 C 0.76766 0.58427 0.78735 0.0
C3332 C 0.46246 0.71504 0.80966 0.0
C3333 C 0.45995 0.7123 0.82922 0.0
H3334 H 0.48096 0.72569 0.78843 0.0
C3335 C 0.47543 0.7155 0.84212 0.0
H3336 H 0.45073 0.71263 0.79942 0.0
C3337 C 0.49253 0.72284 0.83589 0.0
C3338 C 0.49462 0.7271 0.81659 0.0
H3339 H 0.47406 0.71309 0.8572 0.0
H3340 H 0.50385 0.72611 0.84637 0.0
C3341 C 0.47974 0.72241 0.80337 0.0
C3342 C 0.33723 0.44727 0.81211 0.0
C3343 C 0.34659 0.43305 0.80205 0.0
H3344 H 0.32329 0.47428 0.81103 0.0
C3345 C 0.34932 0.43592 0.78254 0.0
H3346 H 0.33525 0.44591 0.82722 0.0
C3347 C 0.3428 0.45247 0.77339 0.0
C3348 C 0.33312 0.4664 0.78344 0.0
H3349 H 0.35616 0.42523 0.77419 0.0
H3350 H 0.34488 0.45416 0.75834 0.0
C3351 C 0.33043 0.46363 0.80288 0.0
C3352 C 0.72449 0.58429 0.19522 0.0
C3353 C 0.73475 0.5993 0.18706 0.0
H3354 H 0.72518 0.55587 0.20639 0.0
C3355 C 0.75416 0.59652 0.1837 0.0
H3356 H 0.70948 0.58566 0.19771 0.0
C3357 C 0.76298 0.57924 0.18826 0.0
C3358 C 0.75275 0.56442 0.1966 0.0
H3359 H 0.76271 0.60781 0.17785 0.0
H3360 H 0.77798 0.57769 0.1858 0.0
C3361 C 0.73342 0.56712 0.20005 0.0
C3362 C 0.71549 0.44679 0.77238 0.0
C3363 C 0.72127 0.44436 0.79168 0.0
H3364 H 0.71648 0.46443 0.74751 0.0
C3365 C 0.73271 0.45871 0.80054 0.0
H3366 H 0.707 0.43601 0.76485 0.0
C3367 C 0.73856 0.47468 0.79036 0.0
C3368 C 0.73275 0.477 0.77118 0.0
H3369 H 0.73708 0.45779 0.81545 0.0
H3370 H 0.74739 0.48542 0.79757 0.0
C3371 C 0.72099 0.46302 0.76234 0.0
C3372 C 0.62845 0.72377 0.82367 0.0
C3373 C 0.63377 0.72066 0.8429 0.0
H3374 H 0.60756 0.73519 0.80377 0.0
C3375 C 0.62092 0.72548 0.85684 0.0
H3376 H 0.63808 0.72029 0.81261 0.0
C3377 C 0.60361 0.73405 0.85183 0.0
C3378 C 0.59857 0.73794 0.83272 0.0
H3379 H 0.62437 0.72286 0.87176 0.0
H3380 H 0.59418 0.7377 0.86299 0.0
C3381 C 0.611 0.73234 0.81862 0.0
C3382 C 0.31459 0.58972 0.81881 0.0
C3383 C 0.3227 0.60502 0.80896 0.0
H3384 H 0.30143 0.56189 0.81659 0.0
C3385 C 0.3215 0.60493 0.789 0.0
H3386 H 0.31533 0.58945 0.83421 0.0
C3387 C 0.31385 0.5893 0.77906 0.0
C3388 C 0.30697 0.57338 0.78879 0.0
H3389 H 0.32725 0.6167 0.78101 0.0
H3390 H 0.3139 0.58944 0.76367 0.0
C3391 C 0.3067 0.57397 0.80876 0.0
C3392 C 0.44541 0.27235 0.83599 0.0
C3393 C 0.44624 0.29239 0.83636 0.0
H3394 H 0.45877 0.24646 0.82809 0.0
C3395 C 0.46242 0.3016 0.8295 0.0
H3396 H 0.43307 0.26478 0.84091 0.0
C3397 C 0.47721 0.29106 0.82214 0.0
C3398 C 0.47622 0.27103 0.82142 0.0
H3399 H 0.4637 0.31699 0.82987 0.0
H3400 H 0.48945 0.29864 0.81703 0.0
C3401 C 0.4602 0.26181 0.82863 0.0
C3402 C 0.31046 0.45982 0.222 0.0
C3403 C 0.31798 0.44532 0.23394 0.0
H3404 H 0.29683 0.48724 0.22045 0.0
C3405 C 0.31512 0.44651 0.25353 0.0
H3406 H 0.31238 0.45936 0.20683 0.0
C3407 C 0.30638 0.46233 0.26119 0.0
C3408 C 0.29995 0.47737 0.24951 0.0
H3409 H 0.32016 0.43541 0.26312 0.0
H3410 H 0.30526 0.46314 0.27648 0.0
C3411 C 0.30147 0.47575 0.22974 0.0
C3412 C 0.58624 0.31337 0.20804 0.0
C3413 C 0.59921 0.30362 0.19699 0.0
H3414 H 0.56165 0.31138 0.22489 0.0
C3415 C 0.59711 0.28375 0.19481 0.0
H3416 H 0.58721 0.32868 0.2098 0.0
C3417 C 0.58226 0.27395 0.20317 0.0
C3418 C 0.56936 0.28371 0.21418 0.0
H3419 H 0.60706 0.27567 0.1868 0.0
H3420 H 0.58105 0.25867 0.20133 0.0
C3421 C 0.57155 0.30349 0.21663 0.0
C3422 C 0.44875 0.75598 0.21533 0.0
C3423 C 0.44806 0.737 0.20881 0.0
H3424 H 0.46494 0.77722 0.23144 0.0
C3425 C 0.46463 0.72603 0.21058 0.0
H3426 H 0.43613 0.76469 0.21425 0.0
C3427 C 0.48089 0.73311 0.22034 0.0
C3428 C 0.4811 0.7514 0.22843 0.0
H3429 H 0.46456 0.71143 0.20555 0.0
H3430 H 0.49292 0.72374 0.22271 0.0
C3431 C 0.46524 0.76317 0.2251 0.0
loop_
_geom_bond_atom_site_label_1
_geom_bond_atom_site_label_2
_geom_bond_distance
_geom_bond_site_symmetry_2
_ccdc_geom_bond_type
C0 C1 1.391 . S
C0 C4 1.391 . S
C0 H42 0.948 . S
C1 C0 1.391 . S
C1 C2 1.391 . S
C2 C1 1.391 . S
C2 H58 0.947 . S
C2 C59 1.392 . S
C3 C4 1.391 . S
C3 C7 1.397 . S
C3 C59 1.419 . S
C4 C0 1.391 . S
C4 C3 1.391 . S
C4 C5 1.399 . S
C5 C4 1.399 . S
C5 C8 1.396 . S
C5 C17 1.453 . S
C5 C18 1.684 . S
H6 C30 0.948 . S
C7 C3 1.397 . S
C7 C8 1.394 . S
C7 C26 1.723 . S
C8 C5 1.396 . S
C8 C7 1.394 . S
C8 C38 1.723 . S
H9 C32 0.947 . S
H10 C33 0.948 . S
H11 C39 0.982 . S
H12 C40 0.979 . S
H13 C40 0.980 . S
H14 C40 0.983 . S
H15 C39 0.979 . S
H16 C39 0.977 . S
C17 C5 1.453 . S
C17 H46 0.982 . S
C17 H47 0.979 . S
C17 H48 0.977 . S
C18 C5 1.684 . S
C18 H43 0.979 . S
C18 H44 0.980 . S
C18 H45 0.983 . S
C19 C20 1.391 . S
C19 C24 1.391 . S
C19 H49 0.948 . S
C20 C19 1.391 . S
C20 C21 1.391 . S
C21 C20 1.391 . S
C21 C22 1.392 . S
C21 H50 0.947 . S
C22 C21 1.392 . S
C22 C23 1.419 . S
C22 H51 0.948 . S
C23 C22 1.419 . S
C23 C24 1.391 . S
C23 C27 1.397 . S
C24 C19 1.391 . S
C24 C23 1.391 . S
C24 C25 1.399 . S
C25 C24 1.399 . S
C25 C26 1.396 . S
C25 C28 1.453 . S
C25 C29 1.684 . S
C26 C7 1.723 . S
C26 C25 1.396 . S
C26 C27 1.394 . S
C27 C23 1.397 . S
C27 C26 1.394 . S
C27 C37 1.723 . S
C28 C25 1.453 . S
C28 H52 0.982 . S
C28 H53 0.979 . S
C28 H54 0.977 . S
C29 C25 1.684 . S
C29 H55 0.979 . S
C29 H56 0.980 . S
C29 H57 0.983 . S
C30 H6 0.948 . S
C30 C31 1.391 . S
C30 C35 1.391 . S
C31 C30 1.391 . S
C31 C32 1.391 . S
C32 H9 0.947 . S
C32 C31 1.391 . S
C32 C33 1.392 . S
C33 H10 0.948 . S
C33 C32 1.392 . S
C33 C34 1.419 . S
C34 C33 1.419 . S
C34 C35 1.391 . S
C34 C38 1.397 . S
C35 C30 1.391 . S
C35 C34 1.391 . S
C35 C36 1.399 . S
C36 C35 1.399 . S
C36 C37 1.396 . S
C36 C39 1.453 . S
C36 C40 1.684 . S
C37 C27 1.723 . S
C37 C36 1.396 . S
C37 C38 1.394 . S
C38 C8 1.723 . S
C38 C34 1.397 . S
C38 C37 1.394 . S
C39 H11 0.982 . S
C39 H15 0.979 . S
C39 H16 0.977 . S
C39 C36 1.453 . S
C40 H12 0.979 . S
C40 H13 0.980 . S
C40 H14 0.983 . S
C40 C36 1.684 . S
H41 C59 0.948 . S
H42 C0 0.948 . S
H43 C18 0.979 . S
H44 C18 0.980 . S
H45 C18 0.983 . S
H46 C17 0.982 . S
H47 C17 0.979 . S
H48 C17 0.977 . S
H49 C19 0.948 . S
H50 C21 0.947 . S
H51 C22 0.948 . S
H52 C28 0.982 . S
H53 C28 0.979 . S
H54 C28 0.977 . S
H55 C29 0.979 . S
H56 C29 0.980 . S
H57 C29 0.983 . S
H58 C2 0.947 . S
C59 C2 1.392 . S
C59 C3 1.419 . S
C59 H41 0.948 . S
C60 C61 1.391 . S
C60 C64 1.391 . S
C60 H102 0.948 . S
C61 C60 1.391 . S
C61 C62 1.391 . S
C62 C61 1.391 . S
C62 H118 0.947 . S
C62 C119 1.392 . S
C63 C64 1.391 . S
C63 C67 1.397 . S
C63 C119 1.419 . S
C64 C60 1.391 . S
C64 C63 1.391 . S
C64 C65 1.399 . S
C65 C64 1.399 . S
C65 C68 1.396 . S
C65 C77 1.453 . S
C65 C78 1.684 . S
H66 C90 0.948 . S
C67 C63 1.397 . S
C67 C68 1.394 . S
C67 C86 1.723 . S
C68 C65 1.396 . S
C68 C67 1.394 . S
C68 C98 1.723 . S
H69 C92 0.947 . S
H70 C93 0.948 . S
H71 C99 0.982 . S
H72 C100 0.979 . S
H73 C100 0.980 . S
H74 C100 0.983 . S
H75 C99 0.979 . S
H76 C99 0.977 . S
C77 C65 1.453 . S
C77 H106 0.982 . S
C77 H107 0.979 . S
C77 H108 0.977 . S
C78 C65 1.684 . S
C78 H103 0.979 . S
C78 H104 0.980 . S
C78 H105 0.983 . S
C79 C80 1.391 . S
C79 C84 1.391 . S
C79 H109 0.948 . S
C80 C79 1.391 . S
C80 C81 1.391 . S
C81 C80 1.391 . S
C81 C82 1.392 . S
C81 H110 0.947 . S
C82 C81 1.392 . S
C82 C83 1.419 . S
C82 H111 0.948 . S
C83 C82 1.419 . S
C83 C84 1.391 . S
C83 C87 1.397 . S
C84 C79 1.391 . S
C84 C83 1.391 . S
C84 C85 1.399 . S
C85 C84 1.399 . S
C85 C86 1.396 . S
C85 C88 1.453 . S
C85 C89 1.684 . S
C86 C67 1.723 . S
C86 C85 1.396 . S
C86 C87 1.394 . S
C87 C83 1.397 . S
C87 C86 1.394 . S
C87 C97 1.723 . S
C88 C85 1.453 . S
C88 H112 0.982 . S
C88 H113 0.979 . S
C88 H114 0.977 . S
C89 C85 1.684 . S
C89 H115 0.979 . S
C89 H116 0.980 . S
C89 H117 0.983 . S
C90 H66 0.948 . S
C90 C91 1.391 . S
C90 C95 1.391 . S
C91 C90 1.391 . S
C91 C92 1.391 . S
C92 H69 0.947 . S
C92 C91 1.391 . S
C92 C93 1.392 . S
C93 H70 0.948 . S
C93 C92 1.392 . S
C93 C94 1.419 . S
C94 C93 1.419 . S
C94 C95 1.391 . S
C94 C98 1.397 . S
C95 C90 1.391 . S
C95 C94 1.391 . S
C95 C96 1.399 . S
C96 C95 1.399 . S
C96 C97 1.396 . S
C96 C99 1.453 . S
C96 C100 1.684 . S
C97 C87 1.723 . S
C97 C96 1.396 . S
C97 C98 1.394 . S
C98 C68 1.723 . S
C98 C94 1.397 . S
C98 C97 1.394 . S
C99 H71 0.982 . S
C99 H75 0.979 . S
C99 H76 0.977 . S
C99 C96 1.453 . S
C100 H72 0.979 . S
C100 H73 0.980 . S
C100 H74 0.983 . S
C100 C96 1.684 . S
H101 C119 0.948 . S
H102 C60 0.948 . S
H103 C78 0.979 . S
H104 C78 0.980 . S
H105 C78 0.983 . S
H106 C77 0.982 . S
H107 C77 0.979 . S
H108 C77 0.977 . S
H109 C79 0.948 . S
H110 C81 0.947 . S
H111 C82 0.948 . S
H112 C88 0.982 . S
H113 C88 0.979 . S
H114 C88 0.977 . S
H115 C89 0.979 . S
H116 C89 0.980 . S
H117 C89 0.983 . S
H118 C62 0.947 . S
C119 C62 1.392 . S
C119 C63 1.419 . S
C119 H101 0.948 . S
C120 C121 1.391 . S
C120 C124 1.391 . S
C120 H162 0.948 . S
C121 C120 1.391 . S
C121 C122 1.391 . S
C122 C121 1.391 . S
C122 H178 0.947 . S
C122 C179 1.392 . S
C123 C124 1.391 . S
C123 C127 1.397 . S
C123 C179 1.419 . S
C124 C120 1.391 . S
C124 C123 1.391 . S
C124 C125 1.399 . S
C125 C124 1.399 . S
C125 C128 1.396 . S
C125 C137 1.453 . S
C125 C138 1.684 . S
H126 C150 0.948 . S
C127 C123 1.397 . S
C127 C128 1.394 . S
C127 C146 1.723 . S
C128 C125 1.396 . S
C128 C127 1.394 . S
C128 C158 1.723 . S
H129 C152 0.947 . S
H130 C153 0.948 . S
H131 C159 0.982 . S
H132 C160 0.979 . S
H133 C160 0.980 . S
H134 C160 0.983 . S
H135 C159 0.979 . S
H136 C159 0.977 . S
C137 C125 1.453 . S
C137 H166 0.982 . S
C137 H167 0.979 . S
C137 H168 0.977 . S
C138 C125 1.684 . S
C138 H163 0.979 . S
C138 H164 0.980 . S
C138 H165 0.983 . S
C139 C140 1.391 . S
C139 C144 1.391 . S
C139 H169 0.948 . S
C140 C139 1.391 . S
C140 C141 1.391 . S
C141 C140 1.391 . S
C141 C142 1.392 . S
C141 H170 0.947 . S
C142 C141 1.392 . S
C142 C143 1.419 . S
C142 H171 0.948 . S
C143 C142 1.419 . S
C143 C144 1.391 . S
C143 C147 1.397 . S
C144 C139 1.391 . S
C144 C143 1.391 . S
C144 C145 1.399 . S
C145 C144 1.399 . S
C145 C146 1.396 . S
C145 C148 1.453 . S
C145 C149 1.684 . S
C146 C127 1.723 . S
C146 C145 1.396 . S
C146 C147 1.394 . S
C147 C143 1.397 . S
C147 C146 1.394 . S
C147 C157 1.723 . S
C148 C145 1.453 . S
C148 H172 0.982 . S
C148 H173 0.979 . S
C148 H174 0.977 . S
C149 C145 1.684 . S
C149 H175 0.979 . S
C149 H176 0.980 . S
C149 H177 0.983 . S
C150 H126 0.948 . S
C150 C151 1.391 . S
C150 C155 1.391 . S
C151 C150 1.391 . S
C151 C152 1.391 . S
C152 H129 0.947 . S
C152 C151 1.391 . S
C152 C153 1.392 . S
C153 H130 0.948 . S
C153 C152 1.392 . S
C153 C154 1.419 . S
C154 C153 1.419 . S
C154 C155 1.391 . S
C154 C158 1.397 . S
C155 C150 1.391 . S
C155 C154 1.391 . S
C155 C156 1.399 . S
C156 C155 1.399 . S
C156 C157 1.396 . S
C156 C159 1.453 . S
C156 C160 1.684 . S
C157 C147 1.723 . S
C157 C156 1.396 . S
C157 C158 1.394 . S
C158 C128 1.723 . S
C158 C154 1.397 . S
C158 C157 1.394 . S
C159 H131 0.982 . S
C159 H135 0.979 . S
C159 H136 0.977 . S
C159 C156 1.453 . S
C160 H132 0.979 . S
C160 H133 0.980 . S
C160 H134 0.983 . S
C160 C156 1.684 . S
H161 C179 0.948 . S
H162 C120 0.948 . S
H163 C138 0.979 . S
H164 C138 0.980 . S
H165 C138 0.983 . S
H166 C137 0.982 . S
H167 C137 0.979 . S
H168 C137 0.977 . S
H169 C139 0.948 . S
H170 C141 0.947 . S
H171 C142 0.948 . S
H172 C148 0.982 . S
H173 C148 0.979 . S
H174 C148 0.977 . S
H175 C149 0.979 . S
H176 C149 0.980 . S
H177 C149 0.983 . S
H178 C122 0.947 . S
C179 C122 1.392 . S
C179 C123 1.419 . S
C179 H161 0.948 . S
C180 C181 1.391 . S
C180 C184 1.391 . S
C180 H222 0.948 . S
C181 C180 1.391 . S
C181 C182 1.391 . S
C182 C181 1.391 . S
C182 H238 0.947 . S
C182 C239 1.392 . S
C183 C184 1.391 . S
C183 C187 1.397 . S
C183 C239 1.419 . S
C184 C180 1.391 . S
C184 C183 1.391 . S
C184 C185 1.399 . S
C185 C184 1.399 . S
C185 C188 1.396 . S
C185 C197 1.453 . S
C185 C198 1.684 . S
H186 C210 0.948 . S
C187 C183 1.397 . S
C187 C188 1.394 . S
C187 C206 1.723 . S
C188 C185 1.396 . S
C188 C187 1.394 . S
C188 C218 1.723 . S
H189 C212 0.947 . S
H190 C213 0.948 . S
H191 C219 0.982 . S
H192 C220 0.979 . S
H193 C220 0.980 . S
H194 C220 0.983 . S
H195 C219 0.979 . S
H196 C219 0.977 . S
C197 C185 1.453 . S
C197 H226 0.982 . S
C197 H227 0.979 . S
C197 H228 0.977 . S
C198 C185 1.684 . S
C198 H223 0.979 . S
C198 H224 0.980 . S
C198 H225 0.983 . S
C199 C200 1.391 . S
C199 C204 1.391 . S
C199 H229 0.948 . S
C200 C199 1.391 . S
C200 C201 1.391 . S
C201 C200 1.391 . S
C201 C202 1.392 . S
C201 H230 0.947 . S
C202 C201 1.392 . S
C202 C203 1.419 . S
C202 H231 0.948 . S
C203 C202 1.419 . S
C203 C204 1.391 . S
C203 C207 1.397 . S
C204 C199 1.391 . S
C204 C203 1.391 . S
C204 C205 1.399 . S
C205 C204 1.399 . S
C205 C206 1.396 . S
C205 C208 1.453 . S
C205 C209 1.684 . S
C206 C187 1.723 . S
C206 C205 1.396 . S
C206 C207 1.394 . S
C207 C203 1.397 . S
C207 C206 1.394 . S
C207 C217 1.723 . S
C208 C205 1.453 . S
C208 H232 0.982 . S
C208 H233 0.979 . S
C208 H234 0.977 . S
C209 C205 1.684 . S
C209 H235 0.979 . S
C209 H236 0.980 . S
C209 H237 0.983 . S
C210 H186 0.948 . S
C210 C211 1.391 . S
C210 C215 1.391 . S
C211 C210 1.391 . S
C211 C212 1.391 . S
C212 H189 0.947 . S
C212 C211 1.391 . S
C212 C213 1.392 . S
C213 H190 0.948 . S
C213 C212 1.392 . S
C213 C214 1.419 . S
C214 C213 1.419 . S
C214 C215 1.391 . S
C214 C218 1.397 . S
C215 C210 1.391 . S
C215 C214 1.391 . S
C215 C216 1.399 . S
C216 C215 1.399 . S
C216 C217 1.396 . S
C216 C219 1.453 . S
C216 C220 1.684 . S
C217 C207 1.723 . S
C217 C216 1.396 . S
C217 C218 1.394 . S
C218 C188 1.723 . S
C218 C214 1.397 . S
C218 C217 1.394 . S
C219 H191 0.982 . S
C219 H195 0.979 . S
C219 H196 0.977 . S
C219 C216 1.453 . S
C220 H192 0.979 . S
C220 H193 0.980 . S
C220 H194 0.983 . S
C220 C216 1.684 . S
H221 C239 0.948 . S
H222 C180 0.948 . S
H223 C198 0.979 . S
H224 C198 0.980 . S
H225 C198 0.983 . S
H226 C197 0.982 . S
H227 C197 0.979 . S
H228 C197 0.977 . S
H229 C199 0.948 . S
H230 C201 0.947 . S
H231 C202 0.948 . S
H232 C208 0.982 . S
H233 C208 0.979 . S
H234 C208 0.977 . S
H235 C209 0.979 . S
H236 C209 0.980 . S
H237 C209 0.983 . S
H238 C182 0.947 . S
C239 C182 1.392 . S
C239 C183 1.419 . S
C239 H221 0.948 . S
C240 C241 1.391 . S
C240 C244 1.391 . S
C240 H282 0.948 . S
C241 C240 1.391 . S
C241 C242 1.391 . S
C242 C241 1.391 . S
C242 H298 0.947 . S
C242 C299 1.392 . S
C243 C244 1.391 . S
C243 C247 1.397 . S
C243 C299 1.419 . S
C244 C240 1.391 . S
C244 C243 1.391 . S
C244 C245 1.399 . S
C245 C244 1.399 . S
C245 C248 1.396 . S
C245 C257 1.453 . S
C245 C258 1.684 . S
H246 C270 0.948 . S
C247 C243 1.397 . S
C247 C248 1.394 . S
C247 C266 1.723 . S
C248 C245 1.396 . S
C248 C247 1.394 . S
C248 C278 1.723 . S
H249 C272 0.947 . S
H250 C273 0.948 . S
H251 C279 0.982 . S
H252 C280 0.979 . S
H253 C280 0.980 . S
H254 C280 0.983 . S
H255 C279 0.979 . S
H256 C279 0.977 . S
C257 C245 1.453 . S
C257 H286 0.982 . S
C257 H287 0.979 . S
C257 H288 0.977 . S
C258 C245 1.684 . S
C258 H283 0.979 . S
C258 H284 0.980 . S
C258 H285 0.983 . S
C259 C260 1.391 . S
C259 C264 1.391 . S
C259 H289 0.948 . S
C260 C259 1.391 . S
C260 C261 1.391 . S
C261 C260 1.391 . S
C261 C262 1.392 . S
C261 H290 0.947 . S
C262 C261 1.392 . S
C262 C263 1.419 . S
C262 H291 0.948 . S
C263 C262 1.419 . S
C263 C264 1.391 . S
C263 C267 1.397 . S
C264 C259 1.391 . S
C264 C263 1.391 . S
C264 C265 1.399 . S
C265 C264 1.399 . S
C265 C266 1.396 . S
C265 C268 1.453 . S
C265 C269 1.684 . S
C266 C247 1.723 . S
C266 C265 1.396 . S
C266 C267 1.394 . S
C267 C263 1.397 . S
C267 C266 1.394 . S
C267 C277 1.723 . S
C268 C265 1.453 . S
C268 H292 0.982 . S
C268 H293 0.979 . S
C268 H294 0.977 . S
C269 C265 1.684 . S
C269 H295 0.979 . S
C269 H296 0.980 . S
C269 H297 0.983 . S
C270 H246 0.948 . S
C270 C271 1.391 . S
C270 C275 1.391 . S
C271 C270 1.391 . S
C271 C272 1.391 . S
C272 H249 0.947 . S
C272 C271 1.391 . S
C272 C273 1.392 . S
C273 H250 0.948 . S
C273 C272 1.392 . S
C273 C274 1.419 . S
C274 C273 1.419 . S
C274 C275 1.391 . S
C274 C278 1.397 . S
C275 C270 1.391 . S
C275 C274 1.391 . S
C275 C276 1.399 . S
C276 C275 1.399 . S
C276 C277 1.396 . S
C276 C279 1.453 . S
C276 C280 1.684 . S
C277 C267 1.723 . S
C277 C276 1.396 . S
C277 C278 1.394 . S
C278 C248 1.723 . S
C278 C274 1.397 . S
C278 C277 1.394 . S
C279 H251 0.982 . S
C279 H255 0.979 . S
C279 H256 0.977 . S
C279 C276 1.453 . S
C280 H252 0.979 . S
C280 H253 0.980 . S
C280 H254 0.983 . S
C280 C276 1.684 . S
H281 C299 0.948 . S
H282 C240 0.948 . S
H283 C258 0.979 . S
H284 C258 0.980 . S
H285 C258 0.983 . S
H286 C257 0.982 . S
H287 C257 0.979 . S
H288 C257 0.977 . S
H289 C259 0.948 . S
H290 C261 0.947 . S
H291 C262 0.948 . S
H292 C268 0.982 . S
H293 C268 0.979 . S
H294 C268 0.977 . S
H295 C269 0.979 . S
H296 C269 0.980 . S
H297 C269 0.983 . S
H298 C242 0.947 . S
C299 C242 1.392 . S
C299 C243 1.419 . S
C299 H281 0.948 . S
C300 C301 1.391 . S
C300 C304 1.391 . S
C300 H342 0.948 . S
C301 C300 1.391 . S
C301 C302 1.391 . S
C302 C301 1.391 . S
C302 H358 0.947 . S
C302 C359 1.392 . S
C303 C304 1.391 . S
C303 C307 1.397 . S
C303 C359 1.419 . S
C304 C300 1.391 . S
C304 C303 1.391 . S
C304 C305 1.399 . S
C305 C304 1.399 . S
C305 C308 1.396 . S
C305 C317 1.453 . S
C305 C318 1.684 . S
H306 C330 0.948 . S
C307 C303 1.397 . S
C307 C308 1.394 . S
C307 C326 1.723 . S
C308 C305 1.396 . S
C308 C307 1.394 . S
C308 C338 1.723 . S
H309 C332 0.947 . S
H310 C333 0.948 . S
H311 C339 0.982 . S
H312 C340 0.979 . S
H313 C340 0.980 . S
H314 C340 0.983 . S
H315 C339 0.979 . S
H316 C339 0.977 . S
C317 C305 1.453 . S
C317 H346 0.982 . S
C317 H347 0.979 . S
C317 H348 0.977 . S
C318 C305 1.684 . S
C318 H343 0.979 . S
C318 H344 0.980 . S
C318 H345 0.983 . S
C319 C320 1.391 . S
C319 C324 1.391 . S
C319 H349 0.948 . S
C320 C319 1.391 . S
C320 C321 1.391 . S
C321 C320 1.391 . S
C321 C322 1.392 . S
C321 H350 0.947 . S
C322 C321 1.392 . S
C322 C323 1.419 . S
C322 H351 0.948 . S
C323 C322 1.419 . S
C323 C324 1.391 . S
C323 C327 1.397 . S
C324 C319 1.391 . S
C324 C323 1.391 . S
C324 C325 1.399 . S
C325 C324 1.399 . S
C325 C326 1.396 . S
C325 C328 1.453 . S
C325 C329 1.684 . S
C326 C307 1.723 . S
C326 C325 1.396 . S
C326 C327 1.394 . S
C327 C323 1.397 . S
C327 C326 1.394 . S
C327 C337 1.723 . S
C328 C325 1.453 . S
C328 H352 0.982 . S
C328 H353 0.979 . S
C328 H354 0.977 . S
C329 C325 1.684 . S
C329 H355 0.979 . S
C329 H356 0.980 . S
C329 H357 0.983 . S
C330 H306 0.948 . S
C330 C331 1.391 . S
C330 C335 1.391 . S
C331 C330 1.391 . S
C331 C332 1.391 . S
C332 H309 0.947 . S
C332 C331 1.391 . S
C332 C333 1.392 . S
C333 H310 0.948 . S
C333 C332 1.392 . S
C333 C334 1.419 . S
C334 C333 1.419 . S
C334 C335 1.391 . S
C334 C338 1.397 . S
C335 C330 1.391 . S
C335 C334 1.391 . S
C335 C336 1.399 . S
C336 C335 1.399 . S
C336 C337 1.396 . S
C336 C339 1.453 . S
C336 C340 1.684 . S
C337 C327 1.723 . S
C337 C336 1.396 . S
C337 C338 1.394 . S
C338 C308 1.723 . S
C338 C334 1.397 . S
C338 C337 1.394 . S
C339 H311 0.982 . S
C339 H315 0.979 . S
C339 H316 0.977 . S
C339 C336 1.453 . S
C340 H312 0.979 . S
C340 H313 0.980 . S
C340 H314 0.983 . S
C340 C336 1.684 . S
H341 C359 0.948 . S
H342 C300 0.948 . S
H343 C318 0.979 . S
H344 C318 0.980 . S
H345 C318 0.983 . S
H346 C317 0.982 . S
H347 C317 0.979 . S
H348 C317 0.977 . S
H349 C319 0.948 . S
H350 C321 0.947 . S
H351 C322 0.948 . S
H352 C328 0.982 . S
H353 C328 0.979 . S
H354 C328 0.977 . S
H355 C329 0.979 . S
H356 C329 0.980 . S
H357 C329 0.983 . S
H358 C302 0.947 . S
C359 C302 1.392 . S
C359 C303 1.419 . S
C359 H341 0.948 . S
C360 C361 1.391 . S
C360 C364 1.391 . S
C360 H402 0.948 . S
C361 C360 1.391 . S
C361 C362 1.391 . S
C362 C361 1.391 . S
C362 H418 0.947 . S
C362 C419 1.392 . S
C363 C364 1.391 . S
C363 C367 1.397 . S
C363 C419 1.419 . S
C364 C360 1.391 . S
C364 C363 1.391 . S
C364 C365 1.399 . S
C365 C364 1.399 . S
C365 C368 1.396 . S
C365 C377 1.453 . S
C365 C378 1.684 . S
H366 C390 0.948 . S
C367 C363 1.397 . S
C367 C368 1.394 . S
C367 C386 1.723 . S
C368 C365 1.396 . S
C368 C367 1.394 . S
C368 C398 1.723 . S
H369 C392 0.947 . S
H370 C393 0.948 . S
H371 C399 0.982 . S
H372 C400 0.979 . S
H373 C400 0.980 . S
H374 C400 0.983 . S
H375 C399 0.979 . S
H376 C399 0.977 . S
C377 C365 1.453 . S
C377 H406 0.982 . S
C377 H407 0.979 . S
C377 H408 0.977 . S
C378 C365 1.684 . S
C378 H403 0.979 . S
C378 H404 0.980 . S
C378 H405 0.983 . S
C379 C380 1.391 . S
C379 C384 1.391 . S
C379 H409 0.948 . S
C380 C379 1.391 . S
C380 C381 1.391 . S
C381 C380 1.391 . S
C381 C382 1.392 . S
C381 H410 0.947 . S
C382 C381 1.392 . S
C382 C383 1.419 . S
C382 H411 0.948 . S
C383 C382 1.419 . S
C383 C384 1.391 . S
C383 C387 1.397 . S
C384 C379 1.391 . S
C384 C383 1.391 . S
C384 C385 1.399 . S
C385 C384 1.399 . S
C385 C386 1.396 . S
C385 C388 1.453 . S
C385 C389 1.684 . S
C386 C367 1.723 . S
C386 C385 1.396 . S
C386 C387 1.394 . S
C387 C383 1.397 . S
C387 C386 1.394 . S
C387 C397 1.723 . S
C388 C385 1.453 . S
C388 H412 0.982 . S
C388 H413 0.979 . S
C388 H414 0.977 . S
C389 C385 1.684 . S
C389 H415 0.979 . S
C389 H416 0.980 . S
C389 H417 0.983 . S
C390 H366 0.948 . S
C390 C391 1.391 . S
C390 C395 1.391 . S
C391 C390 1.391 . S
C391 C392 1.391 . S
C392 H369 0.947 . S
C392 C391 1.391 . S
C392 C393 1.392 . S
C393 H370 0.948 . S
C393 C392 1.392 . S
C393 C394 1.419 . S
C394 C393 1.419 . S
C394 C395 1.391 . S
C394 C398 1.397 . S
C395 C390 1.391 . S
C395 C394 1.391 . S
C395 C396 1.399 . S
C396 C395 1.399 . S
C396 C397 1.396 . S
C396 C399 1.453 . S
C396 C400 1.684 . S
C397 C387 1.723 . S
C397 C396 1.396 . S
C397 C398 1.394 . S
C398 C368 1.723 . S
C398 C394 1.397 . S
C398 C397 1.394 . S
C399 H371 0.982 . S
C399 H375 0.979 . S
C399 H376 0.977 . S
C399 C396 1.453 . S
C400 H372 0.979 . S
C400 H373 0.980 . S
C400 H374 0.983 . S
C400 C396 1.684 . S
H401 C419 0.948 . S
H402 C360 0.948 . S
H403 C378 0.979 . S
H404 C378 0.980 . S
H405 C378 0.983 . S
H406 C377 0.982 . S
H407 C377 0.979 . S
H408 C377 0.977 . S
H409 C379 0.948 . S
H410 C381 0.947 . S
H411 C382 0.948 . S
H412 C388 0.982 . S
H413 C388 0.979 . S
H414 C388 0.977 . S
H415 C389 0.979 . S
H416 C389 0.980 . S
H417 C389 0.983 . S
H418 C362 0.947 . S
C419 C362 1.392 . S
C419 C363 1.419 . S
C419 H401 0.948 . S
C420 C421 1.391 . S
C420 C424 1.391 . S
C420 H462 0.948 . S
C421 C420 1.391 . S
C421 C422 1.391 . S
C422 C421 1.391 . S
C422 H478 0.947 . S
C422 C479 1.392 . S
C423 C424 1.391 . S
C423 C427 1.397 . S
C423 C479 1.419 . S
C424 C420 1.391 . S
C424 C423 1.391 . S
C424 C425 1.399 . S
C425 C424 1.399 . S
C425 C428 1.396 . S
C425 C437 1.453 . S
C425 C438 1.684 . S
H426 C450 0.948 . S
C427 C423 1.397 . S
C427 C428 1.394 . S
C427 C446 1.723 . S
C428 C425 1.396 . S
C428 C427 1.394 . S
C428 C458 1.723 . S
H429 C452 0.947 . S
H430 C453 0.948 . S
H431 C459 0.982 . S
H432 C460 0.979 . S
H433 C460 0.980 . S
H434 C460 0.983 . S
H435 C459 0.979 . S
H436 C459 0.977 . S
C437 C425 1.453 . S
C437 H466 0.982 . S
C437 H467 0.979 . S
C437 H468 0.977 . S
C438 C425 1.684 . S
C438 H463 0.979 . S
C438 H464 0.980 . S
C438 H465 0.983 . S
C439 C440 1.391 . S
C439 C444 1.391 . S
C439 H469 0.948 . S
C440 C439 1.391 . S
C440 C441 1.391 . S
C441 C440 1.391 . S
C441 C442 1.392 . S
C441 H470 0.947 . S
C442 C441 1.392 . S
C442 C443 1.419 . S
C442 H471 0.948 . S
C443 C442 1.419 . S
C443 C444 1.391 . S
C443 C447 1.397 . S
C444 C439 1.391 . S
C444 C443 1.391 . S
C444 C445 1.399 . S
C445 C444 1.399 . S
C445 C446 1.396 . S
C445 C448 1.453 . S
C445 C449 1.684 . S
C446 C427 1.723 . S
C446 C445 1.396 . S
C446 C447 1.394 . S
C447 C443 1.397 . S
C447 C446 1.394 . S
C447 C457 1.723 . S
C448 C445 1.453 . S
C448 H472 0.982 . S
C448 H473 0.979 . S
C448 H474 0.977 . S
C449 C445 1.684 . S
C449 H475 0.979 . S
C449 H476 0.980 . S
C449 H477 0.983 . S
C450 H426 0.948 . S
C450 C451 1.391 . S
C450 C455 1.391 . S
C451 C450 1.391 . S
C451 C452 1.391 . S
C452 H429 0.947 . S
C452 C451 1.391 . S
C452 C453 1.392 . S
C453 H430 0.948 . S
C453 C452 1.392 . S
C453 C454 1.419 . S
C454 C453 1.419 . S
C454 C455 1.391 . S
C454 C458 1.397 . S
C455 C450 1.391 . S
C455 C454 1.391 . S
C455 C456 1.399 . S
C456 C455 1.399 . S
C456 C457 1.396 . S
C456 C459 1.453 . S
C456 C460 1.684 . S
C457 C447 1.723 . S
C457 C456 1.396 . S
C457 C458 1.394 . S
C458 C428 1.723 . S
C458 C454 1.397 . S
C458 C457 1.394 . S
C459 H431 0.982 . S
C459 H435 0.979 . S
C459 H436 0.977 . S
C459 C456 1.453 . S
C460 H432 0.979 . S
C460 H433 0.980 . S
C460 H434 0.983 . S
C460 C456 1.684 . S
H461 C479 0.948 . S
H462 C420 0.948 . S
H463 C438 0.979 . S
H464 C438 0.980 . S
H465 C438 0.983 . S
H466 C437 0.982 . S
H467 C437 0.979 . S
H468 C437 0.977 . S
H469 C439 0.948 . S
H470 C441 0.947 . S
H471 C442 0.948 . S
H472 C448 0.982 . S
H473 C448 0.979 . S
H474 C448 0.977 . S
H475 C449 0.979 . S
H476 C449 0.980 . S
H477 C449 0.983 . S
H478 C422 0.947 . S
C479 C422 1.392 . S
C479 C423 1.419 . S
C479 H461 0.948 . S
C480 C481 1.391 . S
C480 C484 1.391 . S
C480 H522 0.948 . S
C481 C480 1.391 . S
C481 C482 1.391 . S
C482 C481 1.391 . S
C482 H538 0.947 . S
C482 C539 1.392 . S
C483 C484 1.391 . S
C483 C487 1.397 . S
C483 C539 1.419 . S
C484 C480 1.391 . S
C484 C483 1.391 . S
C484 C485 1.399 . S
C485 C484 1.399 . S
C485 C488 1.396 . S
C485 C497 1.453 . S
C485 C498 1.684 . S
H486 C510 0.948 . S
C487 C483 1.397 . S
C487 C488 1.394 . S
C487 C506 1.723 . S
C488 C485 1.396 . S
C488 C487 1.394 . S
C488 C518 1.723 . S
H489 C512 0.947 . S
H490 C513 0.948 . S
H491 C519 0.982 . S
H492 C520 0.979 . S
H493 C520 0.980 . S
H494 C520 0.983 . S
H495 C519 0.979 . S
H496 C519 0.977 . S
C497 C485 1.453 . S
C497 H526 0.982 . S
C497 H527 0.979 . S
C497 H528 0.977 . S
C498 C485 1.684 . S
C498 H523 0.979 . S
C498 H524 0.980 . S
C498 H525 0.983 . S
C499 C500 1.391 . S
C499 C504 1.391 . S
C499 H529 0.948 . S
C500 C499 1.391 . S
C500 C501 1.391 . S
C501 C500 1.391 . S
C501 C502 1.392 . S
C501 H530 0.947 . S
C502 C501 1.392 . S
C502 C503 1.419 . S
C502 H531 0.948 . S
C503 C502 1.419 . S
C503 C504 1.391 . S
C503 C507 1.397 . S
C504 C499 1.391 . S
C504 C503 1.391 . S
C504 C505 1.399 . S
C505 C504 1.399 . S
C505 C506 1.396 . S
C505 C508 1.453 . S
C505 C509 1.684 . S
C506 C487 1.723 . S
C506 C505 1.396 . S
C506 C507 1.394 . S
C507 C503 1.397 . S
C507 C506 1.394 . S
C507 C517 1.723 . S
C508 C505 1.453 . S
C508 H532 0.982 . S
C508 H533 0.979 . S
C508 H534 0.977 . S
C509 C505 1.684 . S
C509 H535 0.979 . S
C509 H536 0.980 . S
C509 H537 0.983 . S
C510 H486 0.948 . S
C510 C511 1.391 . S
C510 C515 1.391 . S
C511 C510 1.391 . S
C511 C512 1.391 . S
C512 H489 0.947 . S
C512 C511 1.391 . S
C512 C513 1.392 . S
C513 H490 0.948 . S
C513 C512 1.392 . S
C513 C514 1.419 . S
C514 C513 1.419 . S
C514 C515 1.391 . S
C514 C518 1.397 . S
C515 C510 1.391 . S
C515 C514 1.391 . S
C515 C516 1.399 . S
C516 C515 1.399 . S
C516 C517 1.396 . S
C516 C519 1.453 . S
C516 C520 1.684 . S
C517 C507 1.723 . S
C517 C516 1.396 . S
C517 C518 1.394 . S
C518 C488 1.723 . S
C518 C514 1.397 . S
C518 C517 1.394 . S
C519 H491 0.982 . S
C519 H495 0.979 . S
C519 H496 0.977 . S
C519 C516 1.453 . S
C520 H492 0.979 . S
C520 H493 0.980 . S
C520 H494 0.983 . S
C520 C516 1.684 . S
H521 C539 0.948 . S
H522 C480 0.948 . S
H523 C498 0.979 . S
H524 C498 0.980 . S
H525 C498 0.983 . S
H526 C497 0.982 . S
H527 C497 0.979 . S
H528 C497 0.977 . S
H529 C499 0.948 . S
H530 C501 0.947 . S
H531 C502 0.948 . S
H532 C508 0.982 . S
H533 C508 0.979 . S
H534 C508 0.977 . S
H535 C509 0.979 . S
H536 C509 0.980 . S
H537 C509 0.983 . S
H538 C482 0.947 . S
C539 C482 1.392 . S
C539 C483 1.419 . S
C539 H521 0.948 . S
C540 C541 1.391 . S
C540 C544 1.391 . S
C540 H582 0.948 . S
C541 C540 1.391 . S
C541 C542 1.391 . S
C542 C541 1.391 . S
C542 H598 0.947 . S
C542 C599 1.392 . S
C543 C544 1.391 . S
C543 C547 1.397 . S
C543 C599 1.419 . S
C544 C540 1.391 . S
C544 C543 1.391 . S
C544 C545 1.399 . S
C545 C544 1.399 . S
C545 C548 1.396 . S
C545 C557 1.453 . S
C545 C558 1.684 . S
H546 C570 0.948 . S
C547 C543 1.397 . S
C547 C548 1.394 . S
C547 C566 1.723 . S
C548 C545 1.396 . S
C548 C547 1.394 . S
C548 C578 1.723 . S
H549 C572 0.947 . S
H550 C573 0.948 . S
H551 C579 0.982 . S
H552 C580 0.979 . S
H553 C580 0.980 . S
H554 C580 0.983 . S
H555 C579 0.979 . S
H556 C579 0.977 . S
C557 C545 1.453 . S
C557 H586 0.982 . S
C557 H587 0.979 . S
C557 H588 0.977 . S
C558 C545 1.684 . S
C558 H583 0.979 . S
C558 H584 0.980 . S
C558 H585 0.983 . S
C559 C560 1.391 . S
C559 C564 1.391 . S
C559 H589 0.948 . S
C560 C559 1.391 . S
C560 C561 1.391 . S
C561 C560 1.391 . S
C561 C562 1.392 . S
C561 H590 0.947 . S
C562 C561 1.392 . S
C562 C563 1.419 . S
C562 H591 0.948 . S
C563 C562 1.419 . S
C563 C564 1.391 . S
C563 C567 1.397 . S
C564 C559 1.391 . S
C564 C563 1.391 . S
C564 C565 1.399 . S
C565 C564 1.399 . S
C565 C566 1.396 . S
C565 C568 1.453 . S
C565 C569 1.684 . S
C566 C547 1.723 . S
C566 C565 1.396 . S
C566 C567 1.394 . S
C567 C563 1.397 . S
C567 C566 1.394 . S
C567 C577 1.723 . S
C568 C565 1.453 . S
C568 H592 0.982 . S
C568 H593 0.979 . S
C568 H594 0.977 . S
C569 C565 1.684 . S
C569 H595 0.979 . S
C569 H596 0.980 . S
C569 H597 0.983 . S
C570 H546 0.948 . S
C570 C571 1.391 . S
C570 C575 1.391 . S
C571 C570 1.391 . S
C571 C572 1.391 . S
C572 H549 0.947 . S
C572 C571 1.391 . S
C572 C573 1.392 . S
C573 H550 0.948 . S
C573 C572 1.392 . S
C573 C574 1.419 . S
C574 C573 1.419 . S
C574 C575 1.391 . S
C574 C578 1.397 . S
C575 C570 1.391 . S
C575 C574 1.391 . S
C575 C576 1.399 . S
C576 C575 1.399 . S
C576 C577 1.396 . S
C576 C579 1.453 . S
C576 C580 1.684 . S
C577 C567 1.723 . S
C577 C576 1.396 . S
C577 C578 1.394 . S
C578 C548 1.723 . S
C578 C574 1.397 . S
C578 C577 1.394 . S
C579 H551 0.982 . S
C579 H555 0.979 . S
C579 H556 0.977 . S
C579 C576 1.453 . S
C580 H552 0.979 . S
C580 H553 0.980 . S
C580 H554 0.983 . S
C580 C576 1.684 . S
H581 C599 0.948 . S
H582 C540 0.948 . S
H583 C558 0.979 . S
H584 C558 0.980 . S
H585 C558 0.983 . S
H586 C557 0.982 . S
H587 C557 0.979 . S
H588 C557 0.977 . S
H589 C559 0.948 . S
H590 C561 0.947 . S
H591 C562 0.948 . S
H592 C568 0.982 . S
H593 C568 0.979 . S
H594 C568 0.977 . S
H595 C569 0.979 . S
H596 C569 0.980 . S
H597 C569 0.983 . S
H598 C542 0.947 . S
C599 C542 1.392 . S
C599 C543 1.419 . S
C599 H581 0.948 . S
C600 C601 1.391 . S
C600 C604 1.391 . S
C600 H642 0.948 . S
C601 C600 1.391 . S
C601 C602 1.391 . S
C602 C601 1.391 . S
C602 H658 0.947 . S
C602 C659 1.392 . S
C603 C604 1.391 . S
C603 C607 1.397 . S
C603 C659 1.419 . S
C604 C600 1.391 . S
C604 C603 1.391 . S
C604 C605 1.399 . S
C605 C604 1.399 . S
C605 C608 1.396 . S
C605 C617 1.453 . S
C605 C618 1.684 . S
H606 C630 0.948 . S
C607 C603 1.397 . S
C607 C608 1.394 . S
C607 C626 1.723 . S
C608 C605 1.396 . S
C608 C607 1.394 . S
C608 C638 1.723 . S
H609 C632 0.947 . S
H610 C633 0.948 . S
H611 C639 0.982 . S
H612 C640 0.979 . S
H613 C640 0.980 . S
H614 C640 0.983 . S
H615 C639 0.979 . S
H616 C639 0.977 . S
C617 C605 1.453 . S
C617 H646 0.982 . S
C617 H647 0.979 . S
C617 H648 0.977 . S
C618 C605 1.684 . S
C618 H643 0.979 . S
C618 H644 0.980 . S
C618 H645 0.983 . S
C619 C620 1.391 . S
C619 C624 1.391 . S
C619 H649 0.948 . S
C620 C619 1.391 . S
C620 C621 1.391 . S
C621 C620 1.391 . S
C621 C622 1.392 . S
C621 H650 0.947 . S
C622 C621 1.392 . S
C622 C623 1.419 . S
C622 H651 0.948 . S
C623 C622 1.419 . S
C623 C624 1.391 . S
C623 C627 1.397 . S
C624 C619 1.391 . S
C624 C623 1.391 . S
C624 C625 1.399 . S
C625 C624 1.399 . S
C625 C626 1.396 . S
C625 C628 1.453 . S
C625 C629 1.684 . S
C626 C607 1.723 . S
C626 C625 1.396 . S
C626 C627 1.394 . S
C627 C623 1.397 . S
C627 C626 1.394 . S
C627 C637 1.723 . S
C628 C625 1.453 . S
C628 H652 0.982 . S
C628 H653 0.979 . S
C628 H654 0.977 . S
C629 C625 1.684 . S
C629 H655 0.979 . S
C629 H656 0.980 . S
C629 H657 0.983 . S
C630 H606 0.948 . S
C630 C631 1.391 . S
C630 C635 1.391 . S
C631 C630 1.391 . S
C631 C632 1.391 . S
C632 H609 0.947 . S
C632 C631 1.391 . S
C632 C633 1.392 . S
C633 H610 0.948 . S
C633 C632 1.392 . S
C633 C634 1.419 . S
C634 C633 1.419 . S
C634 C635 1.391 . S
C634 C638 1.397 . S
C635 C630 1.391 . S
C635 C634 1.391 . S
C635 C636 1.399 . S
C636 C635 1.399 . S
C636 C637 1.396 . S
C636 C639 1.453 . S
C636 C640 1.684 . S
C637 C627 1.723 . S
C637 C636 1.396 . S
C637 C638 1.394 . S
C638 C608 1.723 . S
C638 C634 1.397 . S
C638 C637 1.394 . S
C639 H611 0.982 . S
C639 H615 0.979 . S
C639 H616 0.977 . S
C639 C636 1.453 . S
C640 H612 0.979 . S
C640 H613 0.980 . S
C640 H614 0.983 . S
C640 C636 1.684 . S
H641 C659 0.948 . S
H642 C600 0.948 . S
H643 C618 0.979 . S
H644 C618 0.980 . S
H645 C618 0.983 . S
H646 C617 0.982 . S
H647 C617 0.979 . S
H648 C617 0.977 . S
H649 C619 0.948 . S
H650 C621 0.947 . S
H651 C622 0.948 . S
H652 C628 0.982 . S
H653 C628 0.979 . S
H654 C628 0.977 . S
H655 C629 0.979 . S
H656 C629 0.980 . S
H657 C629 0.983 . S
H658 C602 0.947 . S
C659 C602 1.392 . S
C659 C603 1.419 . S
C659 H641 0.948 . S
C660 C661 1.391 . S
C660 C664 1.391 . S
C660 H702 0.948 . S
C661 C660 1.391 . S
C661 C662 1.391 . S
C662 C661 1.391 . S
C662 H718 0.947 . S
C662 C719 1.392 . S
C663 C664 1.391 . S
C663 C667 1.397 . S
C663 C719 1.419 . S
C664 C660 1.391 . S
C664 C663 1.391 . S
C664 C665 1.399 . S
C665 C664 1.399 . S
C665 C668 1.396 . S
C665 C677 1.453 . S
C665 C678 1.684 . S
H666 C690 0.948 . S
C667 C663 1.397 . S
C667 C668 1.394 . S
C667 C686 1.723 . S
C668 C665 1.396 . S
C668 C667 1.394 . S
C668 C698 1.723 . S
H669 C692 0.947 . S
H670 C693 0.948 . S
H671 C699 0.982 . S
H672 C700 0.979 . S
H673 C700 0.980 . S
H674 C700 0.983 . S
H675 C699 0.979 . S
H676 C699 0.977 . S
C677 C665 1.453 . S
C677 H706 0.982 . S
C677 H707 0.979 . S
C677 H708 0.977 . S
C678 C665 1.684 . S
C678 H703 0.979 . S
C678 H704 0.980 . S
C678 H705 0.983 . S
C679 C680 1.391 . S
C679 C684 1.391 . S
C679 H709 0.948 . S
C680 C679 1.391 . S
C680 C681 1.391 . S
C681 C680 1.391 . S
C681 C682 1.392 . S
C681 H710 0.947 . S
C682 C681 1.392 . S
C682 C683 1.419 . S
C682 H711 0.948 . S
C683 C682 1.419 . S
C683 C684 1.391 . S
C683 C687 1.397 . S
C684 C679 1.391 . S
C684 C683 1.391 . S
C684 C685 1.399 . S
C685 C684 1.399 . S
C685 C686 1.396 . S
C685 C688 1.453 . S
C685 C689 1.684 . S
C686 C667 1.723 . S
C686 C685 1.396 . S
C686 C687 1.394 . S
C687 C683 1.397 . S
C687 C686 1.394 . S
C687 C697 1.723 . S
C688 C685 1.453 . S
C688 H712 0.982 . S
C688 H713 0.979 . S
C688 H714 0.977 . S
C689 C685 1.684 . S
C689 H715 0.979 . S
C689 H716 0.980 . S
C689 H717 0.983 . S
C690 H666 0.948 . S
C690 C691 1.391 . S
C690 C695 1.391 . S
C691 C690 1.391 . S
C691 C692 1.391 . S
C692 H669 0.947 . S
C692 C691 1.391 . S
C692 C693 1.392 . S
C693 H670 0.948 . S
C693 C692 1.392 . S
C693 C694 1.419 . S
C694 C693 1.419 . S
C694 C695 1.391 . S
C694 C698 1.397 . S
C695 C690 1.391 . S
C695 C694 1.391 . S
C695 C696 1.399 . S
C696 C695 1.399 . S
C696 C697 1.396 . S
C696 C699 1.453 . S
C696 C700 1.684 . S
C697 C687 1.723 . S
C697 C696 1.396 . S
C697 C698 1.394 . S
C698 C668 1.723 . S
C698 C694 1.397 . S
C698 C697 1.394 . S
C699 H671 0.982 . S
C699 H675 0.979 . S
C699 H676 0.977 . S
C699 C696 1.453 . S
C700 H672 0.979 . S
C700 H673 0.980 . S
C700 H674 0.983 . S
C700 C696 1.684 . S
H701 C719 0.948 . S
H702 C660 0.948 . S
H703 C678 0.979 . S
H704 C678 0.980 . S
H705 C678 0.983 . S
H706 C677 0.982 . S
H707 C677 0.979 . S
H708 C677 0.977 . S
H709 C679 0.948 . S
H710 C681 0.947 . S
H711 C682 0.948 . S
H712 C688 0.982 . S
H713 C688 0.979 . S
H714 C688 0.977 . S
H715 C689 0.979 . S
H716 C689 0.980 . S
H717 C689 0.983 . S
H718 C662 0.947 . S
C719 C662 1.392 . S
C719 C663 1.419 . S
C719 H701 0.948 . S
C720 C721 1.391 . S
C720 C724 1.391 . S
C720 H762 0.948 . S
C721 C720 1.391 . S
C721 C722 1.391 . S
C722 C721 1.391 . S
C722 H778 0.947 . S
C722 C779 1.392 . S
C723 C724 1.391 . S
C723 C727 1.397 . S
C723 C779 1.419 . S
C724 C720 1.391 . S
C724 C723 1.391 . S
C724 C725 1.399 . S
C725 C724 1.399 . S
C725 C728 1.396 . S
C725 C737 1.453 . S
C725 C738 1.684 . S
H726 C750 0.948 . S
C727 C723 1.397 . S
C727 C728 1.394 . S
C727 C746 1.723 . S
C728 C725 1.396 . S
C728 C727 1.394 . S
C728 C758 1.723 . S
H729 C752 0.947 . S
H730 C753 0.948 . S
H731 C759 0.982 . S
H732 C760 0.979 . S
H733 C760 0.980 . S
H734 C760 0.983 . S
H735 C759 0.979 . S
H736 C759 0.977 . S
C737 C725 1.453 . S
C737 H766 0.982 . S
C737 H767 0.979 . S
C737 H768 0.977 . S
C738 C725 1.684 . S
C738 H763 0.979 . S
C738 H764 0.980 . S
C738 H765 0.983 . S
C739 C740 1.391 . S
C739 C744 1.391 . S
C739 H769 0.948 . S
C740 C739 1.391 . S
C740 C741 1.391 . S
C741 C740 1.391 . S
C741 C742 1.392 . S
C741 H770 0.947 . S
C742 C741 1.392 . S
C742 C743 1.419 . S
C742 H771 0.948 . S
C743 C742 1.419 . S
C743 C744 1.391 . S
C743 C747 1.397 . S
C744 C739 1.391 . S
C744 C743 1.391 . S
C744 C745 1.399 . S
C745 C744 1.399 . S
C745 C746 1.396 . S
C745 C748 1.453 . S
C745 C749 1.684 . S
C746 C727 1.723 . S
C746 C745 1.396 . S
C746 C747 1.394 . S
C747 C743 1.397 . S
C747 C746 1.394 . S
C747 C757 1.723 . S
C748 C745 1.453 . S
C748 H772 0.982 . S
C748 H773 0.979 . S
C748 H774 0.977 . S
C749 C745 1.684 . S
C749 H775 0.979 . S
C749 H776 0.980 . S
C749 H777 0.983 . S
C750 H726 0.948 . S
C750 C751 1.391 . S
C750 C755 1.391 . S
C751 C750 1.391 . S
C751 C752 1.391 . S
C752 H729 0.947 . S
C752 C751 1.391 . S
C752 C753 1.392 . S
C753 H730 0.948 . S
C753 C752 1.392 . S
C753 C754 1.419 . S
C754 C753 1.419 . S
C754 C755 1.391 . S
C754 C758 1.397 . S
C755 C750 1.391 . S
C755 C754 1.391 . S
C755 C756 1.399 . S
C756 C755 1.399 . S
C756 C757 1.396 . S
C756 C759 1.453 . S
C756 C760 1.684 . S
C757 C747 1.723 . S
C757 C756 1.396 . S
C757 C758 1.394 . S
C758 C728 1.723 . S
C758 C754 1.397 . S
C758 C757 1.394 . S
C759 H731 0.982 . S
C759 H735 0.979 . S
C759 H736 0.977 . S
C759 C756 1.453 . S
C760 H732 0.979 . S
C760 H733 0.980 . S
C760 H734 0.983 . S
C760 C756 1.684 . S
H761 C779 0.948 . S
H762 C720 0.948 . S
H763 C738 0.979 . S
H764 C738 0.980 . S
H765 C738 0.983 . S
H766 C737 0.982 . S
H767 C737 0.979 . S
H768 C737 0.977 . S
H769 C739 0.948 . S
H770 C741 0.947 . S
H771 C742 0.948 . S
H772 C748 0.982 . S
H773 C748 0.979 . S
H774 C748 0.977 . S
H775 C749 0.979 . S
H776 C749 0.980 . S
H777 C749 0.983 . S
H778 C722 0.947 . S
C779 C722 1.392 . S
C779 C723 1.419 . S
C779 H761 0.948 . S
C780 C781 1.391 . S
C780 C784 1.391 . S
C780 H822 0.948 . S
C781 C780 1.391 . S
C781 C782 1.391 . S
C782 C781 1.391 . S
C782 H838 0.947 . S
C782 C839 1.392 . S
C783 C784 1.391 . S
C783 C787 1.397 . S
C783 C839 1.419 . S
C784 C780 1.391 . S
C784 C783 1.391 . S
C784 C785 1.399 . S
C785 C784 1.399 . S
C785 C788 1.396 . S
C785 C797 1.453 . S
C785 C798 1.684 . S
H786 C810 0.948 . S
C787 C783 1.397 . S
C787 C788 1.394 . S
C787 C806 1.723 . S
C788 C785 1.396 . S
C788 C787 1.394 . S
C788 C818 1.723 . S
H789 C812 0.947 . S
H790 C813 0.948 . S
H791 C819 0.982 . S
H792 C820 0.979 . S
H793 C820 0.980 . S
H794 C820 0.983 . S
H795 C819 0.979 . S
H796 C819 0.977 . S
C797 C785 1.453 . S
C797 H826 0.982 . S
C797 H827 0.979 . S
C797 H828 0.977 . S
C798 C785 1.684 . S
C798 H823 0.979 . S
C798 H824 0.980 . S
C798 H825 0.983 . S
C799 C800 1.391 . S
C799 C804 1.391 . S
C799 H829 0.948 . S
C800 C799 1.391 . S
C800 C801 1.391 . S
C801 C800 1.391 . S
C801 C802 1.392 . S
C801 H830 0.947 . S
C802 C801 1.392 . S
C802 C803 1.419 . S
C802 H831 0.948 . S
C803 C802 1.419 . S
C803 C804 1.391 . S
C803 C807 1.397 . S
C804 C799 1.391 . S
C804 C803 1.391 . S
C804 C805 1.399 . S
C805 C804 1.399 . S
C805 C806 1.396 . S
C805 C808 1.453 . S
C805 C809 1.684 . S
C806 C787 1.723 . S
C806 C805 1.396 . S
C806 C807 1.394 . S
C807 C803 1.397 . S
C807 C806 1.394 . S
C807 C817 1.723 . S
C808 C805 1.453 . S
C808 H832 0.982 . S
C808 H833 0.979 . S
C808 H834 0.977 . S
C809 C805 1.684 . S
C809 H835 0.979 . S
C809 H836 0.980 . S
C809 H837 0.983 . S
C810 H786 0.948 . S
C810 C811 1.391 . S
C810 C815 1.391 . S
C811 C810 1.391 . S
C811 C812 1.391 . S
C812 H789 0.947 . S
C812 C811 1.391 . S
C812 C813 1.392 . S
C813 H790 0.948 . S
C813 C812 1.392 . S
C813 C814 1.419 . S
C814 C813 1.419 . S
C814 C815 1.391 . S
C814 C818 1.397 . S
C815 C810 1.391 . S
C815 C814 1.391 . S
C815 C816 1.399 . S
C816 C815 1.399 . S
C816 C817 1.396 . S
C816 C819 1.453 . S
C816 C820 1.684 . S
C817 C807 1.723 . S
C817 C816 1.396 . S
C817 C818 1.394 . S
C818 C788 1.723 . S
C818 C814 1.397 . S
C818 C817 1.394 . S
C819 H791 0.982 . S
C819 H795 0.979 . S
C819 H796 0.977 . S
C819 C816 1.453 . S
C820 H792 0.979 . S
C820 H793 0.980 . S
C820 H794 0.983 . S
C820 C816 1.684 . S
H821 C839 0.948 . S
H822 C780 0.948 . S
H823 C798 0.979 . S
H824 C798 0.980 . S
H825 C798 0.983 . S
H826 C797 0.982 . S
H827 C797 0.979 . S
H828 C797 0.977 . S
H829 C799 0.948 . S
H830 C801 0.947 . S
H831 C802 0.948 . S
H832 C808 0.982 . S
H833 C808 0.979 . S
H834 C808 0.977 . S
H835 C809 0.979 . S
H836 C809 0.980 . S
H837 C809 0.983 . S
H838 C782 0.947 . S
C839 C782 1.392 . S
C839 C783 1.419 . S
C839 H821 0.948 . S
C840 C841 1.391 . S
C840 C844 1.391 . S
C840 H882 0.948 . S
C841 C840 1.391 . S
C841 C842 1.391 . S
C842 C841 1.391 . S
C842 H898 0.947 . S
C842 C899 1.392 . S
C843 C844 1.391 . S
C843 C847 1.397 . S
C843 C899 1.419 . S
C844 C840 1.391 . S
C844 C843 1.391 . S
C844 C845 1.399 . S
C845 C844 1.399 . S
C845 C848 1.396 . S
C845 C857 1.453 . S
C845 C858 1.684 . S
H846 C870 0.948 . S
C847 C843 1.397 . S
C847 C848 1.394 . S
C847 C866 1.723 . S
C848 C845 1.396 . S
C848 C847 1.394 . S
C848 C878 1.723 . S
H849 C872 0.947 . S
H850 C873 0.948 . S
H851 C879 0.982 . S
H852 C880 0.979 . S
H853 C880 0.980 . S
H854 C880 0.983 . S
H855 C879 0.979 . S
H856 C879 0.977 . S
C857 C845 1.453 . S
C857 H886 0.982 . S
C857 H887 0.979 . S
C857 H888 0.977 . S
C858 C845 1.684 . S
C858 H883 0.979 . S
C858 H884 0.980 . S
C858 H885 0.983 . S
C859 C860 1.391 . S
C859 C864 1.391 . S
C859 H889 0.948 . S
C860 C859 1.391 . S
C860 C861 1.391 . S
C861 C860 1.391 . S
C861 C862 1.392 . S
C861 H890 0.947 . S
C862 C861 1.392 . S
C862 C863 1.419 . S
C862 H891 0.948 . S
C863 C862 1.419 . S
C863 C864 1.391 . S
C863 C867 1.397 . S
C864 C859 1.391 . S
C864 C863 1.391 . S
C864 C865 1.399 . S
C865 C864 1.399 . S
C865 C866 1.396 . S
C865 C868 1.453 . S
C865 C869 1.684 . S
C866 C847 1.723 . S
C866 C865 1.396 . S
C866 C867 1.394 . S
C867 C863 1.397 . S
C867 C866 1.394 . S
C867 C877 1.723 . S
C868 C865 1.453 . S
C868 H892 0.982 . S
C868 H893 0.979 . S
C868 H894 0.977 . S
C869 C865 1.684 . S
C869 H895 0.979 . S
C869 H896 0.980 . S
C869 H897 0.983 . S
C870 H846 0.948 . S
C870 C871 1.391 . S
C870 C875 1.391 . S
C871 C870 1.391 . S
C871 C872 1.391 . S
C872 H849 0.947 . S
C872 C871 1.391 . S
C872 C873 1.392 . S
C873 H850 0.948 . S
C873 C872 1.392 . S
C873 C874 1.419 . S
C874 C873 1.419 . S
C874 C875 1.391 . S
C874 C878 1.397 . S
C875 C870 1.391 . S
C875 C874 1.391 . S
C875 C876 1.399 . S
C876 C875 1.399 . S
C876 C877 1.396 . S
C876 C879 1.453 . S
C876 C880 1.684 . S
C877 C867 1.723 . S
C877 C876 1.396 . S
C877 C878 1.394 . S
C878 C848 1.723 . S
C878 C874 1.397 . S
C878 C877 1.394 . S
C879 H851 0.982 . S
C879 H855 0.979 . S
C879 H856 0.977 . S
C879 C876 1.453 . S
C880 H852 0.979 . S
C880 H853 0.980 . S
C880 H854 0.983 . S
C880 C876 1.684 . S
H881 C899 0.948 . S
H882 C840 0.948 . S
H883 C858 0.979 . S
H884 C858 0.980 . S
H885 C858 0.983 . S
H886 C857 0.982 . S
H887 C857 0.979 . S
H888 C857 0.977 . S
H889 C859 0.948 . S
H890 C861 0.947 . S
H891 C862 0.948 . S
H892 C868 0.982 . S
H893 C868 0.979 . S
H894 C868 0.977 . S
H895 C869 0.979 . S
H896 C869 0.980 . S
H897 C869 0.983 . S
H898 C842 0.947 . S
C899 C842 1.392 . S
C899 C843 1.419 . S
C899 H881 0.948 . S
C900 C901 1.391 . S
C900 C904 1.391 . S
C900 H942 0.948 . S
C901 C900 1.391 . S
C901 C902 1.391 . S
C902 C901 1.391 . S
C902 H958 0.947 . S
C902 C959 1.392 . S
C903 C904 1.391 . S
C903 C907 1.397 . S
C903 C959 1.419 . S
C904 C900 1.391 . S
C904 C903 1.391 . S
C904 C905 1.399 . S
C905 C904 1.399 . S
C905 C908 1.396 . S
C905 C917 1.453 . S
C905 C918 1.684 . S
H906 C930 0.948 . S
C907 C903 1.397 . S
C907 C908 1.394 . S
C907 C926 1.723 . S
C908 C905 1.396 . S
C908 C907 1.394 . S
C908 C938 1.723 . S
H909 C932 0.947 . S
H910 C933 0.948 . S
H911 C939 0.982 . S
H912 C940 0.979 . S
H913 C940 0.980 . S
H914 C940 0.983 . S
H915 C939 0.979 . S
H916 C939 0.977 . S
C917 C905 1.453 . S
C917 H946 0.982 . S
C917 H947 0.979 . S
C917 H948 0.977 . S
C918 C905 1.684 . S
C918 H943 0.979 . S
C918 H944 0.980 . S
C918 H945 0.983 . S
C919 C920 1.391 . S
C919 C924 1.391 . S
C919 H949 0.948 . S
C920 C919 1.391 . S
C920 C921 1.391 . S
C921 C920 1.391 . S
C921 C922 1.392 . S
C921 H950 0.947 . S
C922 C921 1.392 . S
C922 C923 1.419 . S
C922 H951 0.948 . S
C923 C922 1.419 . S
C923 C924 1.391 . S
C923 C927 1.397 . S
C924 C919 1.391 . S
C924 C923 1.391 . S
C924 C925 1.399 . S
C925 C924 1.399 . S
C925 C926 1.396 . S
C925 C928 1.453 . S
C925 C929 1.684 . S
C926 C907 1.723 . S
C926 C925 1.396 . S
C926 C927 1.394 . S
C927 C923 1.397 . S
C927 C926 1.394 . S
C927 C937 1.723 . S
C928 C925 1.453 . S
C928 H952 0.982 . S
C928 H953 0.979 . S
C928 H954 0.977 . S
C929 C925 1.684 . S
C929 H955 0.979 . S
C929 H956 0.980 . S
C929 H957 0.983 . S
C930 H906 0.948 . S
C930 C931 1.391 . S
C930 C935 1.391 . S
C931 C930 1.391 . S
C931 C932 1.391 . S
C932 H909 0.947 . S
C932 C931 1.391 . S
C932 C933 1.392 . S
C933 H910 0.948 . S
C933 C932 1.392 . S
C933 C934 1.419 . S
C934 C933 1.419 . S
C934 C935 1.391 . S
C934 C938 1.397 . S
C935 C930 1.391 . S
C935 C934 1.391 . S
C935 C936 1.399 . S
C936 C935 1.399 . S
C936 C937 1.396 . S
C936 C939 1.453 . S
C936 C940 1.684 . S
C937 C927 1.723 . S
C937 C936 1.396 . S
C937 C938 1.394 . S
C938 C908 1.723 . S
C938 C934 1.397 . S
C938 C937 1.394 . S
C939 H911 0.982 . S
C939 H915 0.979 . S
C939 H916 0.977 . S
C939 C936 1.453 . S
C940 H912 0.979 . S
C940 H913 0.980 . S
C940 H914 0.983 . S
C940 C936 1.684 . S
H941 C959 0.948 . S
H942 C900 0.948 . S
H943 C918 0.979 . S
H944 C918 0.980 . S
H945 C918 0.983 . S
H946 C917 0.982 . S
H947 C917 0.979 . S
H948 C917 0.977 . S
H949 C919 0.948 . S
H950 C921 0.947 . S
H951 C922 0.948 . S
H952 C928 0.982 . S
H953 C928 0.979 . S
H954 C928 0.977 . S
H955 C929 0.979 . S
H956 C929 0.980 . S
H957 C929 0.983 . S
H958 C902 0.947 . S
C959 C902 1.392 . S
C959 C903 1.419 . S
C959 H941 0.948 . S
C960 C961 1.391 . S
C960 C964 1.391 . S
C960 H1002 0.948 . S
C961 C960 1.391 . S
C961 C962 1.391 . S
C962 C961 1.391 . S
C962 H1018 0.947 . S
C962 C1019 1.392 . S
C963 C964 1.391 . S
C963 C967 1.397 . S
C963 C1019 1.419 . S
C964 C960 1.391 . S
C964 C963 1.391 . S
C964 C965 1.399 . S
C965 C964 1.399 . S
C965 C968 1.396 . S
C965 C977 1.453 . S
C965 C978 1.684 . S
H966 C990 0.948 . S
C967 C963 1.397 . S
C967 C968 1.394 . S
C967 C986 1.723 . S
C968 C965 1.396 . S
C968 C967 1.394 . S
C968 C998 1.723 . S
H969 C992 0.947 . S
H970 C993 0.948 . S
H971 C999 0.982 . S
H972 C1000 0.979 . S
H973 C1000 0.980 . S
H974 C1000 0.983 . S
H975 C999 0.979 . S
H976 C999 0.977 . S
C977 C965 1.453 . S
C977 H1006 0.982 . S
C977 H1007 0.979 . S
C977 H1008 0.977 . S
C978 C965 1.684 . S
C978 H1003 0.979 . S
C978 H1004 0.980 . S
C978 H1005 0.983 . S
C979 C980 1.391 . S
C979 C984 1.391 . S
C979 H1009 0.948 . S
C980 C979 1.391 . S
C980 C981 1.391 . S
C981 C980 1.391 . S
C981 C982 1.392 . S
C981 H1010 0.947 . S
C982 C981 1.392 . S
C982 C983 1.419 . S
C982 H1011 0.948 . S
C983 C982 1.419 . S
C983 C984 1.391 . S
C983 C987 1.397 . S
C984 C979 1.391 . S
C984 C983 1.391 . S
C984 C985 1.399 . S
C985 C984 1.399 . S
C985 C986 1.396 . S
C985 C988 1.453 . S
C985 C989 1.684 . S
C986 C967 1.723 . S
C986 C985 1.396 . S
C986 C987 1.394 . S
C987 C983 1.397 . S
C987 C986 1.394 . S
C987 C997 1.723 . S
C988 C985 1.453 . S
C988 H1012 0.982 . S
C988 H1013 0.979 . S
C988 H1014 0.977 . S
C989 C985 1.684 . S
C989 H1015 0.979 . S
C989 H1016 0.980 . S
C989 H1017 0.983 . S
C990 H966 0.948 . S
C990 C991 1.391 . S
C990 C995 1.391 . S
C991 C990 1.391 . S
C991 C992 1.391 . S
C992 H969 0.947 . S
C992 C991 1.391 . S
C992 C993 1.392 . S
C993 H970 0.948 . S
C993 C992 1.392 . S
C993 C994 1.419 . S
C994 C993 1.419 . S
C994 C995 1.391 . S
C994 C998 1.397 . S
C995 C990 1.391 . S
C995 C994 1.391 . S
C995 C996 1.399 . S
C996 C995 1.399 . S
C996 C997 1.396 . S
C996 C999 1.453 . S
C996 C1000 1.684 . S
C997 C987 1.723 . S
C997 C996 1.396 . S
C997 C998 1.394 . S
C998 C968 1.723 . S
C998 C994 1.397 . S
C998 C997 1.394 . S
C999 H971 0.982 . S
C999 H975 0.979 . S
C999 H976 0.977 . S
C999 C996 1.453 . S
C1000 H972 0.979 . S
C1000 H973 0.980 . S
C1000 H974 0.983 . S
C1000 C996 1.684 . S
H1001 C1019 0.948 . S
H1002 C960 0.948 . S
H1003 C978 0.979 . S
H1004 C978 0.980 . S
H1005 C978 0.983 . S
H1006 C977 0.982 . S
H1007 C977 0.979 . S
H1008 C977 0.977 . S
H1009 C979 0.948 . S
H1010 C981 0.947 . S
H1011 C982 0.948 . S
H1012 C988 0.982 . S
H1013 C988 0.979 . S
H1014 C988 0.977 . S
H1015 C989 0.979 . S
H1016 C989 0.980 . S
H1017 C989 0.983 . S
H1018 C962 0.947 . S
C1019 C962 1.392 . S
C1019 C963 1.419 . S
C1019 H1001 0.948 . S
C1020 C1021 1.391 . S
C1020 C1024 1.391 . S
C1020 H1062 0.948 . S
C1021 C1020 1.391 . S
C1021 C1022 1.391 . S
C1022 C1021 1.391 . S
C1022 H1078 0.947 . S
C1022 C1079 1.392 . S
C1023 C1024 1.391 . S
C1023 C1027 1.397 . S
C1023 C1079 1.419 . S
C1024 C1020 1.391 . S
C1024 C1023 1.391 . S
C1024 C1025 1.399 . S
C1025 C1024 1.399 . S
C1025 C1028 1.396 . S
C1025 C1037 1.453 . S
C1025 C1038 1.684 . S
H1026 C1050 0.948 . S
C1027 C1023 1.397 . S
C1027 C1028 1.394 . S
C1027 C1046 1.723 . S
C1028 C1025 1.396 . S
C1028 C1027 1.394 . S
C1028 C1058 1.723 . S
H1029 C1052 0.947 . S
H1030 C1053 0.948 . S
H1031 C1059 0.982 . S
H1032 C1060 0.979 . S
H1033 C1060 0.980 . S
H1034 C1060 0.983 . S
H1035 C1059 0.979 . S
H1036 C1059 0.977 . S
C1037 C1025 1.453 . S
C1037 H1066 0.982 . S
C1037 H1067 0.979 . S
C1037 H1068 0.977 . S
C1038 C1025 1.684 . S
C1038 H1063 0.979 . S
C1038 H1064 0.980 . S
C1038 H1065 0.983 . S
C1039 C1040 1.391 . S
C1039 C1044 1.391 . S
C1039 H1069 0.948 . S
C1040 C1039 1.391 . S
C1040 C1041 1.391 . S
C1041 C1040 1.391 . S
C1041 C1042 1.392 . S
C1041 H1070 0.947 . S
C1042 C1041 1.392 . S
C1042 C1043 1.419 . S
C1042 H1071 0.948 . S
C1043 C1042 1.419 . S
C1043 C1044 1.391 . S
C1043 C1047 1.397 . S
C1044 C1039 1.391 . S
C1044 C1043 1.391 . S
C1044 C1045 1.399 . S
C1045 C1044 1.399 . S
C1045 C1046 1.396 . S
C1045 C1048 1.453 . S
C1045 C1049 1.684 . S
C1046 C1027 1.723 . S
C1046 C1045 1.396 . S
C1046 C1047 1.394 . S
C1047 C1043 1.397 . S
C1047 C1046 1.394 . S
C1047 C1057 1.723 . S
C1048 C1045 1.453 . S
C1048 H1072 0.982 . S
C1048 H1073 0.979 . S
C1048 H1074 0.977 . S
C1049 C1045 1.684 . S
C1049 H1075 0.979 . S
C1049 H1076 0.980 . S
C1049 H1077 0.983 . S
C1050 H1026 0.948 . S
C1050 C1051 1.391 . S
C1050 C1055 1.391 . S
C1051 C1050 1.391 . S
C1051 C1052 1.391 . S
C1052 H1029 0.947 . S
C1052 C1051 1.391 . S
C1052 C1053 1.392 . S
C1053 H1030 0.948 . S
C1053 C1052 1.392 . S
C1053 C1054 1.419 . S
C1054 C1053 1.419 . S
C1054 C1055 1.391 . S
C1054 C1058 1.397 . S
C1055 C1050 1.391 . S
C1055 C1054 1.391 . S
C1055 C1056 1.399 . S
C1056 C1055 1.399 . S
C1056 C1057 1.396 . S
C1056 C1059 1.453 . S
C1056 C1060 1.684 . S
C1057 C1047 1.723 . S
C1057 C1056 1.396 . S
C1057 C1058 1.394 . S
C1058 C1028 1.723 . S
C1058 C1054 1.397 . S
C1058 C1057 1.394 . S
C1059 H1031 0.982 . S
C1059 H1035 0.979 . S
C1059 H1036 0.977 . S
C1059 C1056 1.453 . S
C1060 H1032 0.979 . S
C1060 H1033 0.980 . S
C1060 H1034 0.983 . S
C1060 C1056 1.684 . S
H1061 C1079 0.948 . S
H1062 C1020 0.948 . S
H1063 C1038 0.979 . S
H1064 C1038 0.980 . S
H1065 C1038 0.983 . S
H1066 C1037 0.982 . S
H1067 C1037 0.979 . S
H1068 C1037 0.977 . S
H1069 C1039 0.948 . S
H1070 C1041 0.947 . S
H1071 C1042 0.948 . S
H1072 C1048 0.982 . S
H1073 C1048 0.979 . S
H1074 C1048 0.977 . S
H1075 C1049 0.979 . S
H1076 C1049 0.980 . S
H1077 C1049 0.983 . S
H1078 C1022 0.947 . S
C1079 C1022 1.392 . S
C1079 C1023 1.419 . S
C1079 H1061 0.948 . S
C1080 C1081 1.391 . S
C1080 C1084 1.391 . S
C1080 H1122 0.948 . S
C1081 C1080 1.391 . S
C1081 C1082 1.391 . S
C1082 C1081 1.391 . S
C1082 H1138 0.947 . S
C1082 C1139 1.392 . S
C1083 C1084 1.391 . S
C1083 C1087 1.397 . S
C1083 C1139 1.419 . S
C1084 C1080 1.391 . S
C1084 C1083 1.391 . S
C1084 C1085 1.399 . S
C1085 C1084 1.399 . S
C1085 C1088 1.396 . S
C1085 C1097 1.453 . S
C1085 C1098 1.684 . S
H1086 C1110 0.948 . S
C1087 C1083 1.397 . S
C1087 C1088 1.394 . S
C1087 C1106 1.723 . S
C1088 C1085 1.396 . S
C1088 C1087 1.394 . S
C1088 C1118 1.723 . S
H1089 C1112 0.947 . S
H1090 C1113 0.948 . S
H1091 C1119 0.982 . S
H1092 C1120 0.979 . S
H1093 C1120 0.980 . S
H1094 C1120 0.983 . S
H1095 C1119 0.979 . S
H1096 C1119 0.977 . S
C1097 C1085 1.453 . S
C1097 H1126 0.982 . S
C1097 H1127 0.979 . S
C1097 H1128 0.977 . S
C1098 C1085 1.684 . S
C1098 H1123 0.979 . S
C1098 H1124 0.980 . S
C1098 H1125 0.983 . S
C1099 C1100 1.391 . S
C1099 C1104 1.391 . S
C1099 H1129 0.948 . S
C1100 C1099 1.391 . S
C1100 C1101 1.391 . S
C1101 C1100 1.391 . S
C1101 C1102 1.392 . S
C1101 H1130 0.947 . S
C1102 C1101 1.392 . S
C1102 C1103 1.419 . S
C1102 H1131 0.948 . S
C1103 C1102 1.419 . S
C1103 C1104 1.391 . S
C1103 C1107 1.397 . S
C1104 C1099 1.391 . S
C1104 C1103 1.391 . S
C1104 C1105 1.399 . S
C1105 C1104 1.399 . S
C1105 C1106 1.396 . S
C1105 C1108 1.453 . S
C1105 C1109 1.684 . S
C1106 C1087 1.723 . S
C1106 C1105 1.396 . S
C1106 C1107 1.394 . S
C1107 C1103 1.397 . S
C1107 C1106 1.394 . S
C1107 C1117 1.723 . S
C1108 C1105 1.453 . S
C1108 H1132 0.982 . S
C1108 H1133 0.979 . S
C1108 H1134 0.977 . S
C1109 C1105 1.684 . S
C1109 H1135 0.979 . S
C1109 H1136 0.980 . S
C1109 H1137 0.983 . S
C1110 H1086 0.948 . S
C1110 C1111 1.391 . S
C1110 C1115 1.391 . S
C1111 C1110 1.391 . S
C1111 C1112 1.391 . S
C1112 H1089 0.947 . S
C1112 C1111 1.391 . S
C1112 C1113 1.392 . S
C1113 H1090 0.948 . S
C1113 C1112 1.392 . S
C1113 C1114 1.419 . S
C1114 C1113 1.419 . S
C1114 C1115 1.391 . S
C1114 C1118 1.397 . S
C1115 C1110 1.391 . S
C1115 C1114 1.391 . S
C1115 C1116 1.399 . S
C1116 C1115 1.399 . S
C1116 C1117 1.396 . S
C1116 C1119 1.453 . S
C1116 C1120 1.684 . S
C1117 C1107 1.723 . S
C1117 C1116 1.396 . S
C1117 C1118 1.394 . S
C1118 C1088 1.723 . S
C1118 C1114 1.397 . S
C1118 C1117 1.394 . S
C1119 H1091 0.982 . S
C1119 H1095 0.979 . S
C1119 H1096 0.977 . S
C1119 C1116 1.453 . S
C1120 H1092 0.979 . S
C1120 H1093 0.980 . S
C1120 H1094 0.983 . S
C1120 C1116 1.684 . S
H1121 C1139 0.948 . S
H1122 C1080 0.948 . S
H1123 C1098 0.979 . S
H1124 C1098 0.980 . S
H1125 C1098 0.983 . S
H1126 C1097 0.982 . S
H1127 C1097 0.979 . S
H1128 C1097 0.977 . S
H1129 C1099 0.948 . S
H1130 C1101 0.947 . S
H1131 C1102 0.948 . S
H1132 C1108 0.982 . S
H1133 C1108 0.979 . S
H1134 C1108 0.977 . S
H1135 C1109 0.979 . S
H1136 C1109 0.980 . S
H1137 C1109 0.983 . S
H1138 C1082 0.947 . S
C1139 C1082 1.392 . S
C1139 C1083 1.419 . S
C1139 H1121 0.948 . S
C1140 C1141 1.391 . S
C1140 C1144 1.391 . S
C1140 H1182 0.948 . S
C1141 C1140 1.391 . S
C1141 C1142 1.391 . S
C1142 C1141 1.391 . S
C1142 H1198 0.947 . S
C1142 C1199 1.392 . S
C1143 C1144 1.391 . S
C1143 C1147 1.397 . S
C1143 C1199 1.419 . S
C1144 C1140 1.391 . S
C1144 C1143 1.391 . S
C1144 C1145 1.399 . S
C1145 C1144 1.399 . S
C1145 C1148 1.396 . S
C1145 C1157 1.453 . S
C1145 C1158 1.684 . S
H1146 C1170 0.948 . S
C1147 C1143 1.397 . S
C1147 C1148 1.394 . S
C1147 C1166 1.723 . S
C1148 C1145 1.396 . S
C1148 C1147 1.394 . S
C1148 C1178 1.723 . S
H1149 C1172 0.947 . S
H1150 C1173 0.948 . S
H1151 C1179 0.982 . S
H1152 C1180 0.979 . S
H1153 C1180 0.980 . S
H1154 C1180 0.983 . S
H1155 C1179 0.979 . S
H1156 C1179 0.977 . S
C1157 C1145 1.453 . S
C1157 H1186 0.982 . S
C1157 H1187 0.979 . S
C1157 H1188 0.977 . S
C1158 C1145 1.684 . S
C1158 H1183 0.979 . S
C1158 H1184 0.980 . S
C1158 H1185 0.983 . S
C1159 C1160 1.391 . S
C1159 C1164 1.391 . S
C1159 H1189 0.948 . S
C1160 C1159 1.391 . S
C1160 C1161 1.391 . S
C1161 C1160 1.391 . S
C1161 C1162 1.392 . S
C1161 H1190 0.947 . S
C1162 C1161 1.392 . S
C1162 C1163 1.419 . S
C1162 H1191 0.948 . S
C1163 C1162 1.419 . S
C1163 C1164 1.391 . S
C1163 C1167 1.397 . S
C1164 C1159 1.391 . S
C1164 C1163 1.391 . S
C1164 C1165 1.399 . S
C1165 C1164 1.399 . S
C1165 C1166 1.396 . S
C1165 C1168 1.453 . S
C1165 C1169 1.684 . S
C1166 C1147 1.723 . S
C1166 C1165 1.396 . S
C1166 C1167 1.394 . S
C1167 C1163 1.397 . S
C1167 C1166 1.394 . S
C1167 C1177 1.723 . S
C1168 C1165 1.453 . S
C1168 H1192 0.982 . S
C1168 H1193 0.979 . S
C1168 H1194 0.977 . S
C1169 C1165 1.684 . S
C1169 H1195 0.979 . S
C1169 H1196 0.980 . S
C1169 H1197 0.983 . S
C1170 H1146 0.948 . S
C1170 C1171 1.391 . S
C1170 C1175 1.391 . S
C1171 C1170 1.391 . S
C1171 C1172 1.391 . S
C1172 H1149 0.947 . S
C1172 C1171 1.391 . S
C1172 C1173 1.392 . S
C1173 H1150 0.948 . S
C1173 C1172 1.392 . S
C1173 C1174 1.419 . S
C1174 C1173 1.419 . S
C1174 C1175 1.391 . S
C1174 C1178 1.397 . S
C1175 C1170 1.391 . S
C1175 C1174 1.391 . S
C1175 C1176 1.399 . S
C1176 C1175 1.399 . S
C1176 C1177 1.396 . S
C1176 C1179 1.453 . S
C1176 C1180 1.684 . S
C1177 C1167 1.723 . S
C1177 C1176 1.396 . S
C1177 C1178 1.394 . S
C1178 C1148 1.723 . S
C1178 C1174 1.397 . S
C1178 C1177 1.394 . S
C1179 H1151 0.982 . S
C1179 H1155 0.979 . S
C1179 H1156 0.977 . S
C1179 C1176 1.453 . S
C1180 H1152 0.979 . S
C1180 H1153 0.980 . S
C1180 H1154 0.983 . S
C1180 C1176 1.684 . S
H1181 C1199 0.948 . S
H1182 C1140 0.948 . S
H1183 C1158 0.979 . S
H1184 C1158 0.980 . S
H1185 C1158 0.983 . S
H1186 C1157 0.982 . S
H1187 C1157 0.979 . S
H1188 C1157 0.977 . S
H1189 C1159 0.948 . S
H1190 C1161 0.947 . S
H1191 C1162 0.948 . S
H1192 C1168 0.982 . S
H1193 C1168 0.979 . S
H1194 C1168 0.977 . S
H1195 C1169 0.979 . S
H1196 C1169 0.980 . S
H1197 C1169 0.983 . S
H1198 C1142 0.947 . S
C1199 C1142 1.392 . S
C1199 C1143 1.419 . S
C1199 H1181 0.948 . S
C1200 C1201 1.391 . S
C1200 C1204 1.391 . S
C1200 H1242 0.948 . S
C1201 C1200 1.391 . S
C1201 C1202 1.391 . S
C1202 C1201 1.391 . S
C1202 H1258 0.947 . S
C1202 C1259 1.392 . S
C1203 C1204 1.391 . S
C1203 C1207 1.397 . S
C1203 C1259 1.419 . S
C1204 C1200 1.391 . S
C1204 C1203 1.391 . S
C1204 C1205 1.399 . S
C1205 C1204 1.399 . S
C1205 C1208 1.396 . S
C1205 C1217 1.453 . S
C1205 C1218 1.684 . S
H1206 C1230 0.948 . S
C1207 C1203 1.397 . S
C1207 C1208 1.394 . S
C1207 C1226 1.723 . S
C1208 C1205 1.396 . S
C1208 C1207 1.394 . S
C1208 C1238 1.723 . S
H1209 C1232 0.947 . S
H1210 C1233 0.948 . S
H1211 C1239 0.982 . S
H1212 C1240 0.979 . S
H1213 C1240 0.980 . S
H1214 C1240 0.983 . S
H1215 C1239 0.979 . S
H1216 C1239 0.977 . S
C1217 C1205 1.453 . S
C1217 H1246 0.982 . S
C1217 H1247 0.979 . S
C1217 H1248 0.977 . S
C1218 C1205 1.684 . S
C1218 H1243 0.979 . S
C1218 H1244 0.980 . S
C1218 H1245 0.983 . S
C1219 C1220 1.391 . S
C1219 C1224 1.391 . S
C1219 H1249 0.948 . S
C1220 C1219 1.391 . S
C1220 C1221 1.391 . S
C1221 C1220 1.391 . S
C1221 C1222 1.392 . S
C1221 H1250 0.947 . S
C1222 C1221 1.392 . S
C1222 C1223 1.419 . S
C1222 H1251 0.948 . S
C1223 C1222 1.419 . S
C1223 C1224 1.391 . S
C1223 C1227 1.397 . S
C1224 C1219 1.391 . S
C1224 C1223 1.391 . S
C1224 C1225 1.399 . S
C1225 C1224 1.399 . S
C1225 C1226 1.396 . S
C1225 C1228 1.453 . S
C1225 C1229 1.684 . S
C1226 C1207 1.723 . S
C1226 C1225 1.396 . S
C1226 C1227 1.394 . S
C1227 C1223 1.397 . S
C1227 C1226 1.394 . S
C1227 C1237 1.723 . S
C1228 C1225 1.453 . S
C1228 H1252 0.982 . S
C1228 H1253 0.979 . S
C1228 H1254 0.977 . S
C1229 C1225 1.684 . S
C1229 H1255 0.979 . S
C1229 H1256 0.980 . S
C1229 H1257 0.983 . S
C1230 H1206 0.948 . S
C1230 C1231 1.391 . S
C1230 C1235 1.391 . S
C1231 C1230 1.391 . S
C1231 C1232 1.391 . S
C1232 H1209 0.947 . S
C1232 C1231 1.391 . S
C1232 C1233 1.392 . S
C1233 H1210 0.948 . S
C1233 C1232 1.392 . S
C1233 C1234 1.419 . S
C1234 C1233 1.419 . S
C1234 C1235 1.391 . S
C1234 C1238 1.397 . S
C1235 C1230 1.391 . S
C1235 C1234 1.391 . S
C1235 C1236 1.399 . S
C1236 C1235 1.399 . S
C1236 C1237 1.396 . S
C1236 C1239 1.453 . S
C1236 C1240 1.684 . S
C1237 C1227 1.723 . S
C1237 C1236 1.396 . S
C1237 C1238 1.394 . S
C1238 C1208 1.723 . S
C1238 C1234 1.397 . S
C1238 C1237 1.394 . S
C1239 H1211 0.982 . S
C1239 H1215 0.979 . S
C1239 H1216 0.977 . S
C1239 C1236 1.453 . S
C1240 H1212 0.979 . S
C1240 H1213 0.980 . S
C1240 H1214 0.983 . S
C1240 C1236 1.684 . S
H1241 C1259 0.948 . S
H1242 C1200 0.948 . S
H1243 C1218 0.979 . S
H1244 C1218 0.980 . S
H1245 C1218 0.983 . S
H1246 C1217 0.982 . S
H1247 C1217 0.979 . S
H1248 C1217 0.977 . S
H1249 C1219 0.948 . S
H1250 C1221 0.947 . S
H1251 C1222 0.948 . S
H1252 C1228 0.982 . S
H1253 C1228 0.979 . S
H1254 C1228 0.977 . S
H1255 C1229 0.979 . S
H1256 C1229 0.980 . S
H1257 C1229 0.983 . S
H1258 C1202 0.947 . S
C1259 C1202 1.392 . S
C1259 C1203 1.419 . S
C1259 H1241 0.948 . S
C1260 C1261 1.391 . S
C1260 C1264 1.391 . S
C1260 H1302 0.948 . S
C1261 C1260 1.391 . S
C1261 C1262 1.391 . S
C1262 C1261 1.391 . S
C1262 H1318 0.947 . S
C1262 C1319 1.392 . S
C1263 C1264 1.391 . S
C1263 C1267 1.397 . S
C1263 C1319 1.419 . S
C1264 C1260 1.391 . S
C1264 C1263 1.391 . S
C1264 C1265 1.399 . S
C1265 C1264 1.399 . S
C1265 C1268 1.396 . S
C1265 C1277 1.453 . S
C1265 C1278 1.684 . S
H1266 C1290 0.948 . S
C1267 C1263 1.397 . S
C1267 C1268 1.394 . S
C1267 C1286 1.723 . S
C1268 C1265 1.396 . S
C1268 C1267 1.394 . S
C1268 C1298 1.723 . S
H1269 C1292 0.947 . S
H1270 C1293 0.948 . S
H1271 C1299 0.982 . S
H1272 C1300 0.979 . S
H1273 C1300 0.980 . S
H1274 C1300 0.983 . S
H1275 C1299 0.979 . S
H1276 C1299 0.977 . S
C1277 C1265 1.453 . S
C1277 H1306 0.982 . S
C1277 H1307 0.979 . S
C1277 H1308 0.977 . S
C1278 C1265 1.684 . S
C1278 H1303 0.979 . S
C1278 H1304 0.980 . S
C1278 H1305 0.983 . S
C1279 C1280 1.391 . S
C1279 C1284 1.391 . S
C1279 H1309 0.948 . S
C1280 C1279 1.391 . S
C1280 C1281 1.391 . S
C1281 C1280 1.391 . S
C1281 C1282 1.392 . S
C1281 H1310 0.947 . S
C1282 C1281 1.392 . S
C1282 C1283 1.419 . S
C1282 H1311 0.948 . S
C1283 C1282 1.419 . S
C1283 C1284 1.391 . S
C1283 C1287 1.397 . S
C1284 C1279 1.391 . S
C1284 C1283 1.391 . S
C1284 C1285 1.399 . S
C1285 C1284 1.399 . S
C1285 C1286 1.396 . S
C1285 C1288 1.453 . S
C1285 C1289 1.684 . S
C1286 C1267 1.723 . S
C1286 C1285 1.396 . S
C1286 C1287 1.394 . S
C1287 C1283 1.397 . S
C1287 C1286 1.394 . S
C1287 C1297 1.723 . S
C1288 C1285 1.453 . S
C1288 H1312 0.982 . S
C1288 H1313 0.979 . S
C1288 H1314 0.977 . S
C1289 C1285 1.684 . S
C1289 H1315 0.979 . S
C1289 H1316 0.980 . S
C1289 H1317 0.983 . S
C1290 H1266 0.948 . S
C1290 C1291 1.391 . S
C1290 C1295 1.391 . S
C1291 C1290 1.391 . S
C1291 C1292 1.391 . S
C1292 H1269 0.947 . S
C1292 C1291 1.391 . S
C1292 C1293 1.392 . S
C1293 H1270 0.948 . S
C1293 C1292 1.392 . S
C1293 C1294 1.419 . S
C1294 C1293 1.419 . S
C1294 C1295 1.391 . S
C1294 C1298 1.397 . S
C1295 C1290 1.391 . S
C1295 C1294 1.391 . S
C1295 C1296 1.399 . S
C1296 C1295 1.399 . S
C1296 C1297 1.396 . S
C1296 C1299 1.453 . S
C1296 C1300 1.684 . S
C1297 C1287 1.723 . S
C1297 C1296 1.396 . S
C1297 C1298 1.394 . S
C1298 C1268 1.723 . S
C1298 C1294 1.397 . S
C1298 C1297 1.394 . S
C1299 H1271 0.982 . S
C1299 H1275 0.979 . S
C1299 H1276 0.977 . S
C1299 C1296 1.453 . S
C1300 H1272 0.979 . S
C1300 H1273 0.980 . S
C1300 H1274 0.983 . S
C1300 C1296 1.684 . S
H1301 C1319 0.948 . S
H1302 C1260 0.948 . S
H1303 C1278 0.979 . S
H1304 C1278 0.980 . S
H1305 C1278 0.983 . S
H1306 C1277 0.982 . S
H1307 C1277 0.979 . S
H1308 C1277 0.977 . S
H1309 C1279 0.948 . S
H1310 C1281 0.947 . S
H1311 C1282 0.948 . S
H1312 C1288 0.982 . S
H1313 C1288 0.979 . S
H1314 C1288 0.977 . S
H1315 C1289 0.979 . S
H1316 C1289 0.980 . S
H1317 C1289 0.983 . S
H1318 C1262 0.947 . S
C1319 C1262 1.392 . S
C1319 C1263 1.419 . S
C1319 H1301 0.948 . S
C1320 C1321 1.391 . S
C1320 C1324 1.391 . S
C1320 H1362 0.948 . S
C1321 C1320 1.391 . S
C1321 C1322 1.391 . S
C1322 C1321 1.391 . S
C1322 H1378 0.947 . S
C1322 C1379 1.392 . S
C1323 C1324 1.391 . S
C1323 C1327 1.397 . S
C1323 C1379 1.419 . S
C1324 C1320 1.391 . S
C1324 C1323 1.391 . S
C1324 C1325 1.399 . S
C1325 C1324 1.399 . S
C1325 C1328 1.396 . S
C1325 C1337 1.453 . S
C1325 C1338 1.684 . S
H1326 C1350 0.948 . S
C1327 C1323 1.397 . S
C1327 C1328 1.394 . S
C1327 C1346 1.723 . S
C1328 C1325 1.396 . S
C1328 C1327 1.394 . S
C1328 C1358 1.723 . S
H1329 C1352 0.947 . S
H1330 C1353 0.948 . S
H1331 C1359 0.982 . S
H1332 C1360 0.979 . S
H1333 C1360 0.980 . S
H1334 C1360 0.983 . S
H1335 C1359 0.979 . S
H1336 C1359 0.977 . S
C1337 C1325 1.453 . S
C1337 H1366 0.982 . S
C1337 H1367 0.979 . S
C1337 H1368 0.977 . S
C1338 C1325 1.684 . S
C1338 H1363 0.979 . S
C1338 H1364 0.980 . S
C1338 H1365 0.983 . S
C1339 C1340 1.391 . S
C1339 C1344 1.391 . S
C1339 H1369 0.948 . S
C1340 C1339 1.391 . S
C1340 C1341 1.391 . S
C1341 C1340 1.391 . S
C1341 C1342 1.392 . S
C1341 H1370 0.947 . S
C1342 C1341 1.392 . S
C1342 C1343 1.419 . S
C1342 H1371 0.948 . S
C1343 C1342 1.419 . S
C1343 C1344 1.391 . S
C1343 C1347 1.397 . S
C1344 C1339 1.391 . S
C1344 C1343 1.391 . S
C1344 C1345 1.399 . S
C1345 C1344 1.399 . S
C1345 C1346 1.396 . S
C1345 C1348 1.453 . S
C1345 C1349 1.684 . S
C1346 C1327 1.723 . S
C1346 C1345 1.396 . S
C1346 C1347 1.394 . S
C1347 C1343 1.397 . S
C1347 C1346 1.394 . S
C1347 C1357 1.723 . S
C1348 C1345 1.453 . S
C1348 H1372 0.982 . S
C1348 H1373 0.979 . S
C1348 H1374 0.977 . S
C1349 C1345 1.684 . S
C1349 H1375 0.979 . S
C1349 H1376 0.980 . S
C1349 H1377 0.983 . S
C1350 H1326 0.948 . S
C1350 C1351 1.391 . S
C1350 C1355 1.391 . S
C1351 C1350 1.391 . S
C1351 C1352 1.391 . S
C1352 H1329 0.947 . S
C1352 C1351 1.391 . S
C1352 C1353 1.392 . S
C1353 H1330 0.948 . S
C1353 C1352 1.392 . S
C1353 C1354 1.419 . S
C1354 C1353 1.419 . S
C1354 C1355 1.391 . S
C1354 C1358 1.397 . S
C1355 C1350 1.391 . S
C1355 C1354 1.391 . S
C1355 C1356 1.399 . S
C1356 C1355 1.399 . S
C1356 C1357 1.396 . S
C1356 C1359 1.453 . S
C1356 C1360 1.684 . S
C1357 C1347 1.723 . S
C1357 C1356 1.396 . S
C1357 C1358 1.394 . S
C1358 C1328 1.723 . S
C1358 C1354 1.397 . S
C1358 C1357 1.394 . S
C1359 H1331 0.982 . S
C1359 H1335 0.979 . S
C1359 H1336 0.977 . S
C1359 C1356 1.453 . S
C1360 H1332 0.979 . S
C1360 H1333 0.980 . S
C1360 H1334 0.983 . S
C1360 C1356 1.684 . S
H1361 C1379 0.948 . S
H1362 C1320 0.948 . S
H1363 C1338 0.979 . S
H1364 C1338 0.980 . S
H1365 C1338 0.983 . S
H1366 C1337 0.982 . S
H1367 C1337 0.979 . S
H1368 C1337 0.977 . S
H1369 C1339 0.948 . S
H1370 C1341 0.947 . S
H1371 C1342 0.948 . S
H1372 C1348 0.982 . S
H1373 C1348 0.979 . S
H1374 C1348 0.977 . S
H1375 C1349 0.979 . S
H1376 C1349 0.980 . S
H1377 C1349 0.983 . S
H1378 C1322 0.947 . S
C1379 C1322 1.392 . S
C1379 C1323 1.419 . S
C1379 H1361 0.948 . S
C1380 C1381 1.391 . S
C1380 C1384 1.391 . S
C1380 H1422 0.948 . S
C1381 C1380 1.391 . S
C1381 C1382 1.391 . S
C1382 C1381 1.391 . S
C1382 H1438 0.947 . S
C1382 C1439 1.392 . S
C1383 C1384 1.391 . S
C1383 C1387 1.397 . S
C1383 C1439 1.419 . S
C1384 C1380 1.391 . S
C1384 C1383 1.391 . S
C1384 C1385 1.399 . S
C1385 C1384 1.399 . S
C1385 C1388 1.396 . S
C1385 C1397 1.453 . S
C1385 C1398 1.684 . S
H1386 C1410 0.948 . S
C1387 C1383 1.397 . S
C1387 C1388 1.394 . S
C1387 C1406 1.723 . S
C1388 C1385 1.396 . S
C1388 C1387 1.394 . S
C1388 C1418 1.723 . S
H1389 C1412 0.947 . S
H1390 C1413 0.948 . S
H1391 C1419 0.982 . S
H1392 C1420 0.979 . S
H1393 C1420 0.980 . S
H1394 C1420 0.983 . S
H1395 C1419 0.979 . S
H1396 C1419 0.977 . S
C1397 C1385 1.453 . S
C1397 H1426 0.982 . S
C1397 H1427 0.979 . S
C1397 H1428 0.977 . S
C1398 C1385 1.684 . S
C1398 H1423 0.979 . S
C1398 H1424 0.980 . S
C1398 H1425 0.983 . S
C1399 C1400 1.391 . S
C1399 C1404 1.391 . S
C1399 H1429 0.948 . S
C1400 C1399 1.391 . S
C1400 C1401 1.391 . S
C1401 C1400 1.391 . S
C1401 C1402 1.392 . S
C1401 H1430 0.947 . S
C1402 C1401 1.392 . S
C1402 C1403 1.419 . S
C1402 H1431 0.948 . S
C1403 C1402 1.419 . S
C1403 C1404 1.391 . S
C1403 C1407 1.397 . S
C1404 C1399 1.391 . S
C1404 C1403 1.391 . S
C1404 C1405 1.399 . S
C1405 C1404 1.399 . S
C1405 C1406 1.396 . S
C1405 C1408 1.453 . S
C1405 C1409 1.684 . S
C1406 C1387 1.723 . S
C1406 C1405 1.396 . S
C1406 C1407 1.394 . S
C1407 C1403 1.397 . S
C1407 C1406 1.394 . S
C1407 C1417 1.723 . S
C1408 C1405 1.453 . S
C1408 H1432 0.982 . S
C1408 H1433 0.979 . S
C1408 H1434 0.977 . S
C1409 C1405 1.684 . S
C1409 H1435 0.979 . S
C1409 H1436 0.980 . S
C1409 H1437 0.983 . S
C1410 H1386 0.948 . S
C1410 C1411 1.391 . S
C1410 C1415 1.391 . S
C1411 C1410 1.391 . S
C1411 C1412 1.391 . S
C1412 H1389 0.947 . S
C1412 C1411 1.391 . S
C1412 C1413 1.392 . S
C1413 H1390 0.948 . S
C1413 C1412 1.392 . S
C1413 C1414 1.419 . S
C1414 C1413 1.419 . S
C1414 C1415 1.391 . S
C1414 C1418 1.397 . S
C1415 C1410 1.391 . S
C1415 C1414 1.391 . S
C1415 C1416 1.399 . S
C1416 C1415 1.399 . S
C1416 C1417 1.396 . S
C1416 C1419 1.453 . S
C1416 C1420 1.684 . S
C1417 C1407 1.723 . S
C1417 C1416 1.396 . S
C1417 C1418 1.394 . S
C1418 C1388 1.723 . S
C1418 C1414 1.397 . S
C1418 C1417 1.394 . S
C1419 H1391 0.982 . S
C1419 H1395 0.979 . S
C1419 H1396 0.977 . S
C1419 C1416 1.453 . S
C1420 H1392 0.979 . S
C1420 H1393 0.980 . S
C1420 H1394 0.983 . S
C1420 C1416 1.684 . S
H1421 C1439 0.948 . S
H1422 C1380 0.948 . S
H1423 C1398 0.979 . S
H1424 C1398 0.980 . S
H1425 C1398 0.983 . S
H1426 C1397 0.982 . S
H1427 C1397 0.979 . S
H1428 C1397 0.977 . S
H1429 C1399 0.948 . S
H1430 C1401 0.947 . S
H1431 C1402 0.948 . S
H1432 C1408 0.982 . S
H1433 C1408 0.979 . S
H1434 C1408 0.977 . S
H1435 C1409 0.979 . S
H1436 C1409 0.980 . S
H1437 C1409 0.983 . S
H1438 C1382 0.947 . S
C1439 C1382 1.392 . S
C1439 C1383 1.419 . S
C1439 H1421 0.948 . S
C1440 C1441 1.391 . S
C1440 C1444 1.391 . S
C1440 H1482 0.948 . S
C1441 C1440 1.391 . S
C1441 C1442 1.391 . S
C1442 C1441 1.391 . S
C1442 H1498 0.947 . S
C1442 C1499 1.392 . S
C1443 C1444 1.391 . S
C1443 C1447 1.397 . S
C1443 C1499 1.419 . S
C1444 C1440 1.391 . S
C1444 C1443 1.391 . S
C1444 C1445 1.399 . S
C1445 C1444 1.399 . S
C1445 C1448 1.396 . S
C1445 C1457 1.453 . S
C1445 C1458 1.684 . S
H1446 C1470 0.948 . S
C1447 C1443 1.397 . S
C1447 C1448 1.394 . S
C1447 C1466 1.723 . S
C1448 C1445 1.396 . S
C1448 C1447 1.394 . S
C1448 C1478 1.723 . S
H1449 C1472 0.947 . S
H1450 C1473 0.948 . S
H1451 C1479 0.982 . S
H1452 C1480 0.979 . S
H1453 C1480 0.980 . S
H1454 C1480 0.983 . S
H1455 C1479 0.979 . S
H1456 C1479 0.977 . S
C1457 C1445 1.453 . S
C1457 H1486 0.982 . S
C1457 H1487 0.979 . S
C1457 H1488 0.977 . S
C1458 C1445 1.684 . S
C1458 H1483 0.979 . S
C1458 H1484 0.980 . S
C1458 H1485 0.983 . S
C1459 C1460 1.391 . S
C1459 C1464 1.391 . S
C1459 H1489 0.948 . S
C1460 C1459 1.391 . S
C1460 C1461 1.391 . S
C1461 C1460 1.391 . S
C1461 C1462 1.392 . S
C1461 H1490 0.947 . S
C1462 C1461 1.392 . S
C1462 C1463 1.419 . S
C1462 H1491 0.948 . S
C1463 C1462 1.419 . S
C1463 C1464 1.391 . S
C1463 C1467 1.397 . S
C1464 C1459 1.391 . S
C1464 C1463 1.391 . S
C1464 C1465 1.399 . S
C1465 C1464 1.399 . S
C1465 C1466 1.396 . S
C1465 C1468 1.453 . S
C1465 C1469 1.684 . S
C1466 C1447 1.723 . S
C1466 C1465 1.396 . S
C1466 C1467 1.394 . S
C1467 C1463 1.397 . S
C1467 C1466 1.394 . S
C1467 C1477 1.723 . S
C1468 C1465 1.453 . S
C1468 H1492 0.982 . S
C1468 H1493 0.979 . S
C1468 H1494 0.977 . S
C1469 C1465 1.684 . S
C1469 H1495 0.979 . S
C1469 H1496 0.980 . S
C1469 H1497 0.983 . S
C1470 H1446 0.948 . S
C1470 C1471 1.391 . S
C1470 C1475 1.391 . S
C1471 C1470 1.391 . S
C1471 C1472 1.391 . S
C1472 H1449 0.947 . S
C1472 C1471 1.391 . S
C1472 C1473 1.392 . S
C1473 H1450 0.948 . S
C1473 C1472 1.392 . S
C1473 C1474 1.419 . S
C1474 C1473 1.419 . S
C1474 C1475 1.391 . S
C1474 C1478 1.397 . S
C1475 C1470 1.391 . S
C1475 C1474 1.391 . S
C1475 C1476 1.399 . S
C1476 C1475 1.399 . S
C1476 C1477 1.396 . S
C1476 C1479 1.453 . S
C1476 C1480 1.684 . S
C1477 C1467 1.723 . S
C1477 C1476 1.396 . S
C1477 C1478 1.394 . S
C1478 C1448 1.723 . S
C1478 C1474 1.397 . S
C1478 C1477 1.394 . S
C1479 H1451 0.982 . S
C1479 H1455 0.979 . S
C1479 H1456 0.977 . S
C1479 C1476 1.453 . S
C1480 H1452 0.979 . S
C1480 H1453 0.980 . S
C1480 H1454 0.983 . S
C1480 C1476 1.684 . S
H1481 C1499 0.948 . S
H1482 C1440 0.948 . S
H1483 C1458 0.979 . S
H1484 C1458 0.980 . S
H1485 C1458 0.983 . S
H1486 C1457 0.982 . S
H1487 C1457 0.979 . S
H1488 C1457 0.977 . S
H1489 C1459 0.948 . S
H1490 C1461 0.947 . S
H1491 C1462 0.948 . S
H1492 C1468 0.982 . S
H1493 C1468 0.979 . S
H1494 C1468 0.977 . S
H1495 C1469 0.979 . S
H1496 C1469 0.980 . S
H1497 C1469 0.983 . S
H1498 C1442 0.947 . S
C1499 C1442 1.392 . S
C1499 C1443 1.419 . S
C1499 H1481 0.948 . S
C1500 C1501 1.391 . S
C1500 C1504 1.391 . S
C1500 H1542 0.948 . S
C1501 C1500 1.391 . S
C1501 C1502 1.391 . S
C1502 C1501 1.391 . S
C1502 H1558 0.947 . S
C1502 C1559 1.392 . S
C1503 C1504 1.391 . S
C1503 C1507 1.397 . S
C1503 C1559 1.419 . S
C1504 C1500 1.391 . S
C1504 C1503 1.391 . S
C1504 C1505 1.399 . S
C1505 C1504 1.399 . S
C1505 C1508 1.396 . S
C1505 C1517 1.453 . S
C1505 C1518 1.684 . S
H1506 C1530 0.948 . S
C1507 C1503 1.397 . S
C1507 C1508 1.394 . S
C1507 C1526 1.723 . S
C1508 C1505 1.396 . S
C1508 C1507 1.394 . S
C1508 C1538 1.723 . S
H1509 C1532 0.947 . S
H1510 C1533 0.948 . S
H1511 C1539 0.982 . S
H1512 C1540 0.979 . S
H1513 C1540 0.980 . S
H1514 C1540 0.983 . S
H1515 C1539 0.979 . S
H1516 C1539 0.977 . S
C1517 C1505 1.453 . S
C1517 H1546 0.982 . S
C1517 H1547 0.979 . S
C1517 H1548 0.977 . S
C1518 C1505 1.684 . S
C1518 H1543 0.979 . S
C1518 H1544 0.980 . S
C1518 H1545 0.983 . S
C1519 C1520 1.391 . S
C1519 C1524 1.391 . S
C1519 H1549 0.948 . S
C1520 C1519 1.391 . S
C1520 C1521 1.391 . S
C1521 C1520 1.391 . S
C1521 C1522 1.392 . S
C1521 H1550 0.947 . S
C1522 C1521 1.392 . S
C1522 C1523 1.419 . S
C1522 H1551 0.948 . S
C1523 C1522 1.419 . S
C1523 C1524 1.391 . S
C1523 C1527 1.397 . S
C1524 C1519 1.391 . S
C1524 C1523 1.391 . S
C1524 C1525 1.399 . S
C1525 C1524 1.399 . S
C1525 C1526 1.396 . S
C1525 C1528 1.453 . S
C1525 C1529 1.684 . S
C1526 C1507 1.723 . S
C1526 C1525 1.396 . S
C1526 C1527 1.394 . S
C1527 C1523 1.397 . S
C1527 C1526 1.394 . S
C1527 C1537 1.723 . S
C1528 C1525 1.453 . S
C1528 H1552 0.982 . S
C1528 H1553 0.979 . S
C1528 H1554 0.977 . S
C1529 C1525 1.684 . S
C1529 H1555 0.979 . S
C1529 H1556 0.980 . S
C1529 H1557 0.983 . S
C1530 H1506 0.948 . S
C1530 C1531 1.391 . S
C1530 C1535 1.391 . S
C1531 C1530 1.391 . S
C1531 C1532 1.391 . S
C1532 H1509 0.947 . S
C1532 C1531 1.391 . S
C1532 C1533 1.392 . S
C1533 H1510 0.948 . S
C1533 C1532 1.392 . S
C1533 C1534 1.419 . S
C1534 C1533 1.419 . S
C1534 C1535 1.391 . S
C1534 C1538 1.397 . S
C1535 C1530 1.391 . S
C1535 C1534 1.391 . S
C1535 C1536 1.399 . S
C1536 C1535 1.399 . S
C1536 C1537 1.396 . S
C1536 C1539 1.453 . S
C1536 C1540 1.684 . S
C1537 C1527 1.723 . S
C1537 C1536 1.396 . S
C1537 C1538 1.394 . S
C1538 C1508 1.723 . S
C1538 C1534 1.397 . S
C1538 C1537 1.394 . S
C1539 H1511 0.982 . S
C1539 H1515 0.979 . S
C1539 H1516 0.977 . S
C1539 C1536 1.453 . S
C1540 H1512 0.979 . S
C1540 H1513 0.980 . S
C1540 H1514 0.983 . S
C1540 C1536 1.684 . S
H1541 C1559 0.948 . S
H1542 C1500 0.948 . S
H1543 C1518 0.979 . S
H1544 C1518 0.980 . S
H1545 C1518 0.983 . S
H1546 C1517 0.982 . S
H1547 C1517 0.979 . S
H1548 C1517 0.977 . S
H1549 C1519 0.948 . S
H1550 C1521 0.947 . S
H1551 C1522 0.948 . S
H1552 C1528 0.982 . S
H1553 C1528 0.979 . S
H1554 C1528 0.977 . S
H1555 C1529 0.979 . S
H1556 C1529 0.980 . S
H1557 C1529 0.983 . S
H1558 C1502 0.947 . S
C1559 C1502 1.392 . S
C1559 C1503 1.419 . S
C1559 H1541 0.948 . S
C1560 C1561 1.391 . S
C1560 C1564 1.391 . S
C1560 H1602 0.948 . S
C1561 C1560 1.391 . S
C1561 C1562 1.391 . S
C1562 C1561 1.391 . S
C1562 H1618 0.947 . S
C1562 C1619 1.392 . S
C1563 C1564 1.391 . S
C1563 C1567 1.397 . S
C1563 C1619 1.419 . S
C1564 C1560 1.391 . S
C1564 C1563 1.391 . S
C1564 C1565 1.399 . S
C1565 C1564 1.399 . S
C1565 C1568 1.396 . S
C1565 C1577 1.453 . S
C1565 C1578 1.684 . S
H1566 C1590 0.948 . S
C1567 C1563 1.397 . S
C1567 C1568 1.394 . S
C1567 C1586 1.723 . S
C1568 C1565 1.396 . S
C1568 C1567 1.394 . S
C1568 C1598 1.723 . S
H1569 C1592 0.947 . S
H1570 C1593 0.948 . S
H1571 C1599 0.982 . S
H1572 C1600 0.979 . S
H1573 C1600 0.980 . S
H1574 C1600 0.983 . S
H1575 C1599 0.979 . S
H1576 C1599 0.977 . S
C1577 C1565 1.453 . S
C1577 H1606 0.982 . S
C1577 H1607 0.979 . S
C1577 H1608 0.977 . S
C1578 C1565 1.684 . S
C1578 H1603 0.979 . S
C1578 H1604 0.980 . S
C1578 H1605 0.983 . S
C1579 C1580 1.391 . S
C1579 C1584 1.391 . S
C1579 H1609 0.948 . S
C1580 C1579 1.391 . S
C1580 C1581 1.391 . S
C1581 C1580 1.391 . S
C1581 C1582 1.392 . S
C1581 H1610 0.947 . S
C1582 C1581 1.392 . S
C1582 C1583 1.419 . S
C1582 H1611 0.948 . S
C1583 C1582 1.419 . S
C1583 C1584 1.391 . S
C1583 C1587 1.397 . S
C1584 C1579 1.391 . S
C1584 C1583 1.391 . S
C1584 C1585 1.399 . S
C1585 C1584 1.399 . S
C1585 C1586 1.396 . S
C1585 C1588 1.453 . S
C1585 C1589 1.684 . S
C1586 C1567 1.723 . S
C1586 C1585 1.396 . S
C1586 C1587 1.394 . S
C1587 C1583 1.397 . S
C1587 C1586 1.394 . S
C1587 C1597 1.723 . S
C1588 C1585 1.453 . S
C1588 H1612 0.982 . S
C1588 H1613 0.979 . S
C1588 H1614 0.977 . S
C1589 C1585 1.684 . S
C1589 H1615 0.979 . S
C1589 H1616 0.980 . S
C1589 H1617 0.983 . S
C1590 H1566 0.948 . S
C1590 C1591 1.391 . S
C1590 C1595 1.391 . S
C1591 C1590 1.391 . S
C1591 C1592 1.391 . S
C1592 H1569 0.947 . S
C1592 C1591 1.391 . S
C1592 C1593 1.392 . S
C1593 H1570 0.948 . S
C1593 C1592 1.392 . S
C1593 C1594 1.419 . S
C1594 C1593 1.419 . S
C1594 C1595 1.391 . S
C1594 C1598 1.397 . S
C1595 C1590 1.391 . S
C1595 C1594 1.391 . S
C1595 C1596 1.399 . S
C1596 C1595 1.399 . S
C1596 C1597 1.396 . S
C1596 C1599 1.453 . S
C1596 C1600 1.684 . S
C1597 C1587 1.723 . S
C1597 C1596 1.396 . S
C1597 C1598 1.394 . S
C1598 C1568 1.723 . S
C1598 C1594 1.397 . S
C1598 C1597 1.394 . S
C1599 H1571 0.982 . S
C1599 H1575 0.979 . S
C1599 H1576 0.977 . S
C1599 C1596 1.453 . S
C1600 H1572 0.979 . S
C1600 H1573 0.980 . S
C1600 H1574 0.983 . S
C1600 C1596 1.684 . S
H1601 C1619 0.948 . S
H1602 C1560 0.948 . S
H1603 C1578 0.979 . S
H1604 C1578 0.980 . S
H1605 C1578 0.983 . S
H1606 C1577 0.982 . S
H1607 C1577 0.979 . S
H1608 C1577 0.977 . S
H1609 C1579 0.948 . S
H1610 C1581 0.947 . S
H1611 C1582 0.948 . S
H1612 C1588 0.982 . S
H1613 C1588 0.979 . S
H1614 C1588 0.977 . S
H1615 C1589 0.979 . S
H1616 C1589 0.980 . S
H1617 C1589 0.983 . S
H1618 C1562 0.947 . S
C1619 C1562 1.392 . S
C1619 C1563 1.419 . S
C1619 H1601 0.948 . S
C1620 C1621 1.391 . S
C1620 C1624 1.391 . S
C1620 H1662 0.948 . S
C1621 C1620 1.391 . S
C1621 C1622 1.391 . S
C1622 C1621 1.391 . S
C1622 H1678 0.947 . S
C1622 C1679 1.392 . S
C1623 C1624 1.391 . S
C1623 C1627 1.397 . S
C1623 C1679 1.419 . S
C1624 C1620 1.391 . S
C1624 C1623 1.391 . S
C1624 C1625 1.399 . S
C1625 C1624 1.399 . S
C1625 C1628 1.396 . S
C1625 C1637 1.453 . S
C1625 C1638 1.684 . S
H1626 C1650 0.948 . S
C1627 C1623 1.397 . S
C1627 C1628 1.394 . S
C1627 C1646 1.723 . S
C1628 C1625 1.396 . S
C1628 C1627 1.394 . S
C1628 C1658 1.723 . S
H1629 C1652 0.947 . S
H1630 C1653 0.948 . S
H1631 C1659 0.982 . S
H1632 C1660 0.979 . S
H1633 C1660 0.980 . S
H1634 C1660 0.983 . S
H1635 C1659 0.979 . S
H1636 C1659 0.977 . S
C1637 C1625 1.453 . S
C1637 H1666 0.982 . S
C1637 H1667 0.979 . S
C1637 H1668 0.977 . S
C1638 C1625 1.684 . S
C1638 H1663 0.979 . S
C1638 H1664 0.980 . S
C1638 H1665 0.983 . S
C1639 C1640 1.391 . S
C1639 C1644 1.391 . S
C1639 H1669 0.948 . S
C1640 C1639 1.391 . S
C1640 C1641 1.391 . S
C1641 C1640 1.391 . S
C1641 C1642 1.392 . S
C1641 H1670 0.947 . S
C1642 C1641 1.392 . S
C1642 C1643 1.419 . S
C1642 H1671 0.948 . S
C1643 C1642 1.419 . S
C1643 C1644 1.391 . S
C1643 C1647 1.397 . S
C1644 C1639 1.391 . S
C1644 C1643 1.391 . S
C1644 C1645 1.399 . S
C1645 C1644 1.399 . S
C1645 C1646 1.396 . S
C1645 C1648 1.453 . S
C1645 C1649 1.684 . S
C1646 C1627 1.723 . S
C1646 C1645 1.396 . S
C1646 C1647 1.394 . S
C1647 C1643 1.397 . S
C1647 C1646 1.394 . S
C1647 C1657 1.723 . S
C1648 C1645 1.453 . S
C1648 H1672 0.982 . S
C1648 H1673 0.979 . S
C1648 H1674 0.977 . S
C1649 C1645 1.684 . S
C1649 H1675 0.979 . S
C1649 H1676 0.980 . S
C1649 H1677 0.983 . S
C1650 H1626 0.948 . S
C1650 C1651 1.391 . S
C1650 C1655 1.391 . S
C1651 C1650 1.391 . S
C1651 C1652 1.391 . S
C1652 H1629 0.947 . S
C1652 C1651 1.391 . S
C1652 C1653 1.392 . S
C1653 H1630 0.948 . S
C1653 C1652 1.392 . S
C1653 C1654 1.419 . S
C1654 C1653 1.419 . S
C1654 C1655 1.391 . S
C1654 C1658 1.397 . S
C1655 C1650 1.391 . S
C1655 C1654 1.391 . S
C1655 C1656 1.399 . S
C1656 C1655 1.399 . S
C1656 C1657 1.396 . S
C1656 C1659 1.453 . S
C1656 C1660 1.684 . S
C1657 C1647 1.723 . S
C1657 C1656 1.396 . S
C1657 C1658 1.394 . S
C1658 C1628 1.723 . S
C1658 C1654 1.397 . S
C1658 C1657 1.394 . S
C1659 H1631 0.982 . S
C1659 H1635 0.979 . S
C1659 H1636 0.977 . S
C1659 C1656 1.453 . S
C1660 H1632 0.979 . S
C1660 H1633 0.980 . S
C1660 H1634 0.983 . S
C1660 C1656 1.684 . S
H1661 C1679 0.948 . S
H1662 C1620 0.948 . S
H1663 C1638 0.979 . S
H1664 C1638 0.980 . S
H1665 C1638 0.983 . S
H1666 C1637 0.982 . S
H1667 C1637 0.979 . S
H1668 C1637 0.977 . S
H1669 C1639 0.948 . S
H1670 C1641 0.947 . S
H1671 C1642 0.948 . S
H1672 C1648 0.982 . S
H1673 C1648 0.979 . S
H1674 C1648 0.977 . S
H1675 C1649 0.979 . S
H1676 C1649 0.980 . S
H1677 C1649 0.983 . S
H1678 C1622 0.947 . S
C1679 C1622 1.392 . S
C1679 C1623 1.419 . S
C1679 H1661 0.948 . S
C1680 C1681 1.391 . S
C1680 C1684 1.391 . S
C1680 H1722 0.948 . S
C1681 C1680 1.391 . S
C1681 C1682 1.391 . S
C1682 C1681 1.391 . S
C1682 H1738 0.947 . S
C1682 C1739 1.392 . S
C1683 C1684 1.391 . S
C1683 C1687 1.397 . S
C1683 C1739 1.419 . S
C1684 C1680 1.391 . S
C1684 C1683 1.391 . S
C1684 C1685 1.399 . S
C1685 C1684 1.399 . S
C1685 C1688 1.396 . S
C1685 C1697 1.453 . S
C1685 C1698 1.684 . S
H1686 C1710 0.948 . S
C1687 C1683 1.397 . S
C1687 C1688 1.394 . S
C1687 C1706 1.723 . S
C1688 C1685 1.396 . S
C1688 C1687 1.394 . S
C1688 C1718 1.723 . S
H1689 C1712 0.947 . S
H1690 C1713 0.948 . S
H1691 C1719 0.982 . S
H1692 C1720 0.979 . S
H1693 C1720 0.980 . S
H1694 C1720 0.983 . S
H1695 C1719 0.979 . S
H1696 C1719 0.977 . S
C1697 C1685 1.453 . S
C1697 H1726 0.982 . S
C1697 H1727 0.979 . S
C1697 H1728 0.977 . S
C1698 C1685 1.684 . S
C1698 H1723 0.979 . S
C1698 H1724 0.980 . S
C1698 H1725 0.983 . S
C1699 C1700 1.391 . S
C1699 C1704 1.391 . S
C1699 H1729 0.948 . S
C1700 C1699 1.391 . S
C1700 C1701 1.391 . S
C1701 C1700 1.391 . S
C1701 C1702 1.392 . S
C1701 H1730 0.947 . S
C1702 C1701 1.392 . S
C1702 C1703 1.419 . S
C1702 H1731 0.948 . S
C1703 C1702 1.419 . S
C1703 C1704 1.391 . S
C1703 C1707 1.397 . S
C1704 C1699 1.391 . S
C1704 C1703 1.391 . S
C1704 C1705 1.399 . S
C1705 C1704 1.399 . S
C1705 C1706 1.396 . S
C1705 C1708 1.453 . S
C1705 C1709 1.684 . S
C1706 C1687 1.723 . S
C1706 C1705 1.396 . S
C1706 C1707 1.394 . S
C1707 C1703 1.397 . S
C1707 C1706 1.394 . S
C1707 C1717 1.723 . S
C1708 C1705 1.453 . S
C1708 H1732 0.982 . S
C1708 H1733 0.979 . S
C1708 H1734 0.977 . S
C1709 C1705 1.684 . S
C1709 H1735 0.979 . S
C1709 H1736 0.980 . S
C1709 H1737 0.983 . S
C1710 H1686 0.948 . S
C1710 C1711 1.391 . S
C1710 C1715 1.391 . S
C1711 C1710 1.391 . S
C1711 C1712 1.391 . S
C1712 H1689 0.947 . S
C1712 C1711 1.391 . S
C1712 C1713 1.392 . S
C1713 H1690 0.948 . S
C1713 C1712 1.392 . S
C1713 C1714 1.419 . S
C1714 C1713 1.419 . S
C1714 C1715 1.391 . S
C1714 C1718 1.397 . S
C1715 C1710 1.391 . S
C1715 C1714 1.391 . S
C1715 C1716 1.399 . S
C1716 C1715 1.399 . S
C1716 C1717 1.396 . S
C1716 C1719 1.453 . S
C1716 C1720 1.684 . S
C1717 C1707 1.723 . S
C1717 C1716 1.396 . S
C1717 C1718 1.394 . S
C1718 C1688 1.723 . S
C1718 C1714 1.397 . S
C1718 C1717 1.394 . S
C1719 H1691 0.982 . S
C1719 H1695 0.979 . S
C1719 H1696 0.977 . S
C1719 C1716 1.453 . S
C1720 H1692 0.979 . S
C1720 H1693 0.980 . S
C1720 H1694 0.983 . S
C1720 C1716 1.684 . S
H1721 C1739 0.948 . S
H1722 C1680 0.948 . S
H1723 C1698 0.979 . S
H1724 C1698 0.980 . S
H1725 C1698 0.983 . S
H1726 C1697 0.982 . S
H1727 C1697 0.979 . S
H1728 C1697 0.977 . S
H1729 C1699 0.948 . S
H1730 C1701 0.947 . S
H1731 C1702 0.948 . S
H1732 C1708 0.982 . S
H1733 C1708 0.979 . S
H1734 C1708 0.977 . S
H1735 C1709 0.979 . S
H1736 C1709 0.980 . S
H1737 C1709 0.983 . S
H1738 C1682 0.947 . S
C1739 C1682 1.392 . S
C1739 C1683 1.419 . S
C1739 H1721 0.948 . S
C1740 C1741 1.391 . S
C1740 C1744 1.391 . S
C1740 H1782 0.948 . S
C1741 C1740 1.391 . S
C1741 C1742 1.391 . S
C1742 C1741 1.391 . S
C1742 H1798 0.947 . S
C1742 C1799 1.392 . S
C1743 C1744 1.391 . S
C1743 C1747 1.397 . S
C1743 C1799 1.419 . S
C1744 C1740 1.391 . S
C1744 C1743 1.391 . S
C1744 C1745 1.399 . S
C1745 C1744 1.399 . S
C1745 C1748 1.396 . S
C1745 C1757 1.453 . S
C1745 C1758 1.684 . S
H1746 C1770 0.948 . S
C1747 C1743 1.397 . S
C1747 C1748 1.394 . S
C1747 C1766 1.723 . S
C1748 C1745 1.396 . S
C1748 C1747 1.394 . S
C1748 C1778 1.723 . S
H1749 C1772 0.947 . S
H1750 C1773 0.948 . S
H1751 C1779 0.982 . S
H1752 C1780 0.979 . S
H1753 C1780 0.980 . S
H1754 C1780 0.983 . S
H1755 C1779 0.979 . S
H1756 C1779 0.977 . S
C1757 C1745 1.453 . S
C1757 H1786 0.982 . S
C1757 H1787 0.979 . S
C1757 H1788 0.977 . S
C1758 C1745 1.684 . S
C1758 H1783 0.979 . S
C1758 H1784 0.980 . S
C1758 H1785 0.983 . S
C1759 C1760 1.391 . S
C1759 C1764 1.391 . S
C1759 H1789 0.948 . S
C1760 C1759 1.391 . S
C1760 C1761 1.391 . S
C1761 C1760 1.391 . S
C1761 C1762 1.392 . S
C1761 H1790 0.947 . S
C1762 C1761 1.392 . S
C1762 C1763 1.419 . S
C1762 H1791 0.948 . S
C1763 C1762 1.419 . S
C1763 C1764 1.391 . S
C1763 C1767 1.397 . S
C1764 C1759 1.391 . S
C1764 C1763 1.391 . S
C1764 C1765 1.399 . S
C1765 C1764 1.399 . S
C1765 C1766 1.396 . S
C1765 C1768 1.453 . S
C1765 C1769 1.684 . S
C1766 C1747 1.723 . S
C1766 C1765 1.396 . S
C1766 C1767 1.394 . S
C1767 C1763 1.397 . S
C1767 C1766 1.394 . S
C1767 C1777 1.723 . S
C1768 C1765 1.453 . S
C1768 H1792 0.982 . S
C1768 H1793 0.979 . S
C1768 H1794 0.977 . S
C1769 C1765 1.684 . S
C1769 H1795 0.979 . S
C1769 H1796 0.980 . S
C1769 H1797 0.983 . S
C1770 H1746 0.948 . S
C1770 C1771 1.391 . S
C1770 C1775 1.391 . S
C1771 C1770 1.391 . S
C1771 C1772 1.391 . S
C1772 H1749 0.947 . S
C1772 C1771 1.391 . S
C1772 C1773 1.392 . S
C1773 H1750 0.948 . S
C1773 C1772 1.392 . S
C1773 C1774 1.419 . S
C1774 C1773 1.419 . S
C1774 C1775 1.391 . S
C1774 C1778 1.397 . S
C1775 C1770 1.391 . S
C1775 C1774 1.391 . S
C1775 C1776 1.399 . S
C1776 C1775 1.399 . S
C1776 C1777 1.396 . S
C1776 C1779 1.453 . S
C1776 C1780 1.684 . S
C1777 C1767 1.723 . S
C1777 C1776 1.396 . S
C1777 C1778 1.394 . S
C1778 C1748 1.723 . S
C1778 C1774 1.397 . S
C1778 C1777 1.394 . S
C1779 H1751 0.982 . S
C1779 H1755 0.979 . S
C1779 H1756 0.977 . S
C1779 C1776 1.453 . S
C1780 H1752 0.979 . S
C1780 H1753 0.980 . S
C1780 H1754 0.983 . S
C1780 C1776 1.684 . S
H1781 C1799 0.948 . S
H1782 C1740 0.948 . S
H1783 C1758 0.979 . S
H1784 C1758 0.980 . S
H1785 C1758 0.983 . S
H1786 C1757 0.982 . S
H1787 C1757 0.979 . S
H1788 C1757 0.977 . S
H1789 C1759 0.948 . S
H1790 C1761 0.947 . S
H1791 C1762 0.948 . S
H1792 C1768 0.982 . S
H1793 C1768 0.979 . S
H1794 C1768 0.977 . S
H1795 C1769 0.979 . S
H1796 C1769 0.980 . S
H1797 C1769 0.983 . S
H1798 C1742 0.947 . S
C1799 C1742 1.392 . S
C1799 C1743 1.419 . S
C1799 H1781 0.948 . S
C1800 C1801 1.391 . S
C1800 C1804 1.391 . S
C1800 H1842 0.948 . S
C1801 C1800 1.391 . S
C1801 C1802 1.391 . S
C1802 C1801 1.391 . S
C1802 H1858 0.947 . S
C1802 C1859 1.392 . S
C1803 C1804 1.391 . S
C1803 C1807 1.397 . S
C1803 C1859 1.419 . S
C1804 C1800 1.391 . S
C1804 C1803 1.391 . S
C1804 C1805 1.399 . S
C1805 C1804 1.399 . S
C1805 C1808 1.396 . S
C1805 C1817 1.453 . S
C1805 C1818 1.684 . S
H1806 C1830 0.948 . S
C1807 C1803 1.397 . S
C1807 C1808 1.394 . S
C1807 C1826 1.723 . S
C1808 C1805 1.396 . S
C1808 C1807 1.394 . S
C1808 C1838 1.723 . S
H1809 C1832 0.947 . S
H1810 C1833 0.948 . S
H1811 C1839 0.982 . S
H1812 C1840 0.979 . S
H1813 C1840 0.980 . S
H1814 C1840 0.983 . S
H1815 C1839 0.979 . S
H1816 C1839 0.977 . S
C1817 C1805 1.453 . S
C1817 H1846 0.982 . S
C1817 H1847 0.979 . S
C1817 H1848 0.977 . S
C1818 C1805 1.684 . S
C1818 H1843 0.979 . S
C1818 H1844 0.980 . S
C1818 H1845 0.983 . S
C1819 C1820 1.391 . S
C1819 C1824 1.391 . S
C1819 H1849 0.948 . S
C1820 C1819 1.391 . S
C1820 C1821 1.391 . S
C1821 C1820 1.391 . S
C1821 C1822 1.392 . S
C1821 H1850 0.947 . S
C1822 C1821 1.392 . S
C1822 C1823 1.419 . S
C1822 H1851 0.948 . S
C1823 C1822 1.419 . S
C1823 C1824 1.391 . S
C1823 C1827 1.397 . S
C1824 C1819 1.391 . S
C1824 C1823 1.391 . S
C1824 C1825 1.399 . S
C1825 C1824 1.399 . S
C1825 C1826 1.396 . S
C1825 C1828 1.453 . S
C1825 C1829 1.684 . S
C1826 C1807 1.723 . S
C1826 C1825 1.396 . S
C1826 C1827 1.394 . S
C1827 C1823 1.397 . S
C1827 C1826 1.394 . S
C1827 C1837 1.723 . S
C1828 C1825 1.453 . S
C1828 H1852 0.982 . S
C1828 H1853 0.979 . S
C1828 H1854 0.977 . S
C1829 C1825 1.684 . S
C1829 H1855 0.979 . S
C1829 H1856 0.980 . S
C1829 H1857 0.983 . S
C1830 H1806 0.948 . S
C1830 C1831 1.391 . S
C1830 C1835 1.391 . S
C1831 C1830 1.391 . S
C1831 C1832 1.391 . S
C1832 H1809 0.947 . S
C1832 C1831 1.391 . S
C1832 C1833 1.392 . S
C1833 H1810 0.948 . S
C1833 C1832 1.392 . S
C1833 C1834 1.419 . S
C1834 C1833 1.419 . S
C1834 C1835 1.391 . S
C1834 C1838 1.397 . S
C1835 C1830 1.391 . S
C1835 C1834 1.391 . S
C1835 C1836 1.399 . S
C1836 C1835 1.399 . S
C1836 C1837 1.396 . S
C1836 C1839 1.453 . S
C1836 C1840 1.684 . S
C1837 C1827 1.723 . S
C1837 C1836 1.396 . S
C1837 C1838 1.394 . S
C1838 C1808 1.723 . S
C1838 C1834 1.397 . S
C1838 C1837 1.394 . S
C1839 H1811 0.982 . S
C1839 H1815 0.979 . S
C1839 H1816 0.977 . S
C1839 C1836 1.453 . S
C1840 H1812 0.979 . S
C1840 H1813 0.980 . S
C1840 H1814 0.983 . S
C1840 C1836 1.684 . S
H1841 C1859 0.948 . S
H1842 C1800 0.948 . S
H1843 C1818 0.979 . S
H1844 C1818 0.980 . S
H1845 C1818 0.983 . S
H1846 C1817 0.982 . S
H1847 C1817 0.979 . S
H1848 C1817 0.977 . S
H1849 C1819 0.948 . S
H1850 C1821 0.947 . S
H1851 C1822 0.948 . S
H1852 C1828 0.982 . S
H1853 C1828 0.979 . S
H1854 C1828 0.977 . S
H1855 C1829 0.979 . S
H1856 C1829 0.980 . S
H1857 C1829 0.983 . S
H1858 C1802 0.947 . S
C1859 C1802 1.392 . S
C1859 C1803 1.419 . S
C1859 H1841 0.948 . S
C1860 C1861 1.391 . S
C1860 C1864 1.391 . S
C1860 H1902 0.948 . S
C1861 C1860 1.391 . S
C1861 C1862 1.391 . S
C1862 C1861 1.391 . S
C1862 H1918 0.947 . S
C1862 C1919 1.392 . S
C1863 C1864 1.391 . S
C1863 C1867 1.397 . S
C1863 C1919 1.419 . S
C1864 C1860 1.391 . S
C1864 C1863 1.391 . S
C1864 C1865 1.399 . S
C1865 C1864 1.399 . S
C1865 C1868 1.396 . S
C1865 C1877 1.453 . S
C1865 C1878 1.684 . S
H1866 C1890 0.948 . S
C1867 C1863 1.397 . S
C1867 C1868 1.394 . S
C1867 C1886 1.723 . S
C1868 C1865 1.396 . S
C1868 C1867 1.394 . S
C1868 C1898 1.723 . S
H1869 C1892 0.947 . S
H1870 C1893 0.948 . S
H1871 C1899 0.982 . S
H1872 C1900 0.979 . S
H1873 C1900 0.980 . S
H1874 C1900 0.983 . S
H1875 C1899 0.979 . S
H1876 C1899 0.977 . S
C1877 C1865 1.453 . S
C1877 H1906 0.982 . S
C1877 H1907 0.979 . S
C1877 H1908 0.977 . S
C1878 C1865 1.684 . S
C1878 H1903 0.979 . S
C1878 H1904 0.980 . S
C1878 H1905 0.983 . S
C1879 C1880 1.391 . S
C1879 C1884 1.391 . S
C1879 H1909 0.948 . S
C1880 C1879 1.391 . S
C1880 C1881 1.391 . S
C1881 C1880 1.391 . S
C1881 C1882 1.392 . S
C1881 H1910 0.947 . S
C1882 C1881 1.392 . S
C1882 C1883 1.419 . S
C1882 H1911 0.948 . S
C1883 C1882 1.419 . S
C1883 C1884 1.391 . S
C1883 C1887 1.397 . S
C1884 C1879 1.391 . S
C1884 C1883 1.391 . S
C1884 C1885 1.399 . S
C1885 C1884 1.399 . S
C1885 C1886 1.396 . S
C1885 C1888 1.453 . S
C1885 C1889 1.684 . S
C1886 C1867 1.723 . S
C1886 C1885 1.396 . S
C1886 C1887 1.394 . S
C1887 C1883 1.397 . S
C1887 C1886 1.394 . S
C1887 C1897 1.723 . S
C1888 C1885 1.453 . S
C1888 H1912 0.982 . S
C1888 H1913 0.979 . S
C1888 H1914 0.977 . S
C1889 C1885 1.684 . S
C1889 H1915 0.979 . S
C1889 H1916 0.980 . S
C1889 H1917 0.983 . S
C1890 H1866 0.948 . S
C1890 C1891 1.391 . S
C1890 C1895 1.391 . S
C1891 C1890 1.391 . S
C1891 C1892 1.391 . S
C1892 H1869 0.947 . S
C1892 C1891 1.391 . S
C1892 C1893 1.392 . S
C1893 H1870 0.948 . S
C1893 C1892 1.392 . S
C1893 C1894 1.419 . S
C1894 C1893 1.419 . S
C1894 C1895 1.391 . S
C1894 C1898 1.397 . S
C1895 C1890 1.391 . S
C1895 C1894 1.391 . S
C1895 C1896 1.399 . S
C1896 C1895 1.399 . S
C1896 C1897 1.396 . S
C1896 C1899 1.453 . S
C1896 C1900 1.684 . S
C1897 C1887 1.723 . S
C1897 C1896 1.396 . S
C1897 C1898 1.394 . S
C1898 C1868 1.723 . S
C1898 C1894 1.397 . S
C1898 C1897 1.394 . S
C1899 H1871 0.982 . S
C1899 H1875 0.979 . S
C1899 H1876 0.977 . S
C1899 C1896 1.453 . S
C1900 H1872 0.979 . S
C1900 H1873 0.980 . S
C1900 H1874 0.983 . S
C1900 C1896 1.684 . S
H1901 C1919 0.948 . S
H1902 C1860 0.948 . S
H1903 C1878 0.979 . S
H1904 C1878 0.980 . S
H1905 C1878 0.983 . S
H1906 C1877 0.982 . S
H1907 C1877 0.979 . S
H1908 C1877 0.977 . S
H1909 C1879 0.948 . S
H1910 C1881 0.947 . S
H1911 C1882 0.948 . S
H1912 C1888 0.982 . S
H1913 C1888 0.979 . S
H1914 C1888 0.977 . S
H1915 C1889 0.979 . S
H1916 C1889 0.980 . S
H1917 C1889 0.983 . S
H1918 C1862 0.947 . S
C1919 C1862 1.392 . S
C1919 C1863 1.419 . S
C1919 H1901 0.948 . S
Cu1920 N1921 1.999 . S
Cu1920 O1926 1.974 1_554 S
Cu1920 N1931 1.985 . S
Cu1920 O1940 1.959 . S
N1921 Cu1920 1.999 . S
N1921 C1923 1.263 1_554 S
N1921 C1925 1.389 . S
N1922 C1923 1.358 . S
N1922 C1924 1.400 . S
C1923 N1921 1.263 1_556 S
C1923 N1922 1.358 . S
C1923 H1929 0.930 . S
C1924 N1922 1.400 . S
C1924 C1925 1.351 1_556 S
C1924 H1941 0.930 . S
C1925 N1921 1.389 . S
C1925 C1924 1.351 1_554 S
C1925 H1930 0.930 . S
O1926 Cu1920 1.974 1_556 S
O1926 C1936 1.282 . S
C1927 O1928 1.261 . S
C1927 O1940 1.251 . S
O1928 C1927 1.261 . S
H1929 C1923 0.930 . S
H1930 C1925 0.930 . S
N1931 Cu1920 1.985 . S
N1931 C1933 1.335 . S
N1931 C1934 1.390 . S
N1932 C1933 1.345 . S
N1932 C1935 1.336 . S
C1933 N1931 1.335 . S
C1933 N1932 1.345 . S
C1933 H1938 0.930 . S
C1934 N1931 1.390 . S
C1934 C1935 1.346 . S
C1934 H1939 0.930 . S
C1935 N1932 1.336 . S
C1935 C1934 1.346 . S
C1935 H1942 0.929 . S
C1936 O1926 1.282 . S
C1936 O1937 1.216 . S
O1937 C1936 1.216 . S
H1938 C1933 0.930 . S
H1939 C1934 0.930 . S
O1940 Cu1920 1.959 . S
O1940 C1927 1.251 . S
H1941 C1924 0.930 . S
H1942 C1935 0.929 . S
Cu1943 N1944 1.999 . S
Cu1943 O1949 1.974 . S
Cu1943 N1954 1.985 1_554 S
Cu1943 O1963 1.959 1_554 S
N1944 Cu1943 1.999 . S
N1944 C1946 1.263 . S
N1944 C1948 1.389 . S
N1945 C1946 1.358 . S
N1945 C1947 1.400 . S
C1946 N1944 1.263 . S
C1946 N1945 1.358 . S
C1946 H1952 0.930 . S
C1947 N1945 1.400 . S
C1947 C1948 1.351 . S
C1947 H1964 0.930 . S
C1948 N1944 1.389 . S
C1948 C1947 1.351 . S
C1948 H1953 0.930 . S
O1949 Cu1943 1.974 . S
O1949 C1959 1.282 . S
C1950 O1951 1.261 . S
C1950 O1963 1.251 . S
O1951 C1950 1.261 . S
H1952 C1946 0.930 . S
H1953 C1948 0.930 . S
N1954 Cu1943 1.985 1_556 S
N1954 C1956 1.335 . S
N1954 C1957 1.390 . S
N1955 C1956 1.345 . S
N1955 C1958 1.336 . S
C1956 N1954 1.335 . S
C1956 N1955 1.345 . S
C1956 H1961 0.930 . S
C1957 N1954 1.390 . S
C1957 C1958 1.346 . S
C1957 H1962 0.930 1_556 S
C1958 N1955 1.336 . S
C1958 C1957 1.346 . S
C1958 H1965 0.929 . S
C1959 O1949 1.282 . S
C1959 O1960 1.216 . S
O1960 C1959 1.216 . S
H1961 C1956 0.930 . S
H1962 C1957 0.930 1_554 S
O1963 Cu1943 1.959 1_556 S
O1963 C1950 1.251 . S
H1964 C1947 0.930 . S
H1965 C1958 0.929 . S
Cu1966 N1967 1.999 1_554 S
Cu1966 O1972 1.974 1_554 S
Cu1966 N1977 1.985 . S
Cu1966 O1986 1.959 . S
N1967 Cu1966 1.999 1_556 S
N1967 C1969 1.263 . S
N1967 C1971 1.389 . S
N1968 C1969 1.358 . S
N1968 C1970 1.400 . S
C1969 N1967 1.263 . S
C1969 N1968 1.358 . S
C1969 H1975 0.930 . S
C1970 N1968 1.400 . S
C1970 C1971 1.351 . S
C1970 H1987 0.930 . S
C1971 N1967 1.389 . S
C1971 C1970 1.351 . S
C1971 H1976 0.970 . S
O1972 Cu1966 1.974 1_556 S
O1972 C1982 1.282 . S
C1973 O1974 1.261 . S
C1973 O1986 1.251 . S
O1974 C1973 1.261 . S
H1975 C1969 0.930 . S
H1976 C1971 0.970 . S
N1977 Cu1966 1.985 . S
N1977 C1979 1.335 . S
N1977 C1980 1.390 . S
N1978 C1979 1.345 . S
N1978 C1981 1.336 . S
C1979 N1977 1.335 . S
C1979 N1978 1.345 . S
C1979 H1984 0.930 . S
C1980 N1977 1.390 . S
C1980 C1981 1.346 . S
C1980 H1985 0.941 . S
C1981 N1978 1.336 . S
C1981 C1980 1.346 . S
C1981 H1988 0.929 . S
C1982 O1972 1.282 . S
C1982 O1983 1.216 . S
O1983 C1982 1.216 . S
H1984 C1979 0.930 . S
H1985 C1980 0.941 . S
O1986 Cu1966 1.959 . S
O1986 C1973 1.251 . S
H1987 C1970 0.930 . S
H1988 C1981 0.929 . S
Cu1989 N1990 2.030 . S
Cu1989 O1995 2.010 . S
Cu1989 N2000 1.956 1_554 S
Cu1989 O2009 1.924 1_554 S
N1990 Cu1989 2.030 . S
N1990 C1992 1.263 . S
N1990 C1994 1.389 . S
N1991 C1992 1.358 . S
N1991 C1993 1.400 . S
C1992 N1990 1.263 . S
C1992 N1991 1.358 . S
C1992 H1998 0.930 . S
C1993 N1991 1.400 . S
C1993 C1994 1.351 . S
C1993 H2010 0.930 . S
C1994 N1990 1.389 . S
C1994 C1993 1.351 . S
C1994 H1999 0.930 . S
O1995 Cu1989 2.010 . S
O1995 C2005 1.282 . S
C1996 O1997 1.261 . S
C1996 O2009 1.251 . S
O1997 C1996 1.261 . S
H1998 C1992 0.930 . S
H1999 C1994 0.930 . S
N2000 Cu1989 1.956 1_556 S
N2000 C2002 1.335 . S
N2000 C2003 1.390 . S
N2001 C2002 1.345 . S
N2001 C2004 1.336 . S
C2002 N2000 1.335 . S
C2002 N2001 1.345 . S
C2002 H2007 0.930 . S
C2003 N2000 1.390 . S
C2003 C2004 1.346 . S
C2003 H2008 0.930 1_556 S
C2004 N2001 1.336 . S
C2004 C2003 1.346 . S
C2004 H2011 0.929 . S
C2005 O1995 1.282 . S
C2005 O2006 1.216 . S
O2006 C2005 1.216 . S
H2007 C2002 0.930 . S
H2008 C2003 0.930 1_554 S
O2009 Cu1989 1.924 1_556 S
O2009 C1996 1.251 . S
H2010 C1993 0.930 . S
H2011 C2004 0.929 . S
Cu2012 N2013 1.999 . S
Cu2012 O2018 1.974 . S
Cu2012 N2023 1.985 1_455 S
Cu2012 O2032 1.959 1_455 S
N2013 Cu2012 1.999 . S
N2013 C2015 1.263 . S
N2013 C2017 1.389 . S
N2014 C2015 1.358 . S
N2014 C2016 1.400 . S
C2015 N2013 1.263 . S
C2015 N2014 1.358 . S
C2015 H2021 0.930 . S
C2016 N2014 1.400 . S
C2016 C2017 1.351 . S
C2016 H2033 0.930 . S
C2017 N2013 1.389 . S
C2017 C2016 1.351 . S
C2017 H2022 0.930 . S
O2018 Cu2012 1.974 . S
O2018 C2028 1.282 . S
C2019 O2020 1.261 . S
C2019 O2032 1.251 . S
O2020 C2019 1.261 . S
H2021 C2015 0.930 . S
H2022 C2017 0.930 . S
N2023 Cu2012 1.985 1_655 S
N2023 C2025 1.335 . S
N2023 C2026 1.384 1_655 S
N2024 C2025 1.345 . S
N2024 C2027 1.336 . S
C2025 N2023 1.335 . S
C2025 N2024 1.345 . S
C2025 H2030 0.930 . S
C2026 N2023 1.384 1_455 S
C2026 C2027 1.317 1_455 S
C2026 H2031 0.960 . S
C2027 N2024 1.336 . S
C2027 C2026 1.317 1_655 S
C2027 H2034 0.929 . S
C2028 O2018 1.282 . S
C2028 O2029 1.216 . S
O2029 C2028 1.216 . S
H2030 C2025 0.930 . S
H2031 C2026 0.960 . S
O2032 Cu2012 1.959 1_655 S
O2032 C2019 1.251 . S
H2033 C2016 0.930 . S
H2034 C2027 0.929 . S
Cu2035 N2036 1.999 . S
Cu2035 O2041 1.974 . S
Cu2035 N2046 1.985 1_545 S
Cu2035 O2055 1.959 1_545 S
N2036 Cu2035 1.999 . S
N2036 C2038 1.263 . S
N2036 C2040 1.389 . S
N2037 C2038 1.358 . S
N2037 C2039 1.400 . S
C2038 N2036 1.263 . S
C2038 N2037 1.358 . S
C2038 H2044 0.930 . S
C2039 N2037 1.400 . S
C2039 C2040 1.351 . S
C2039 H2056 0.930 . S
C2040 N2036 1.389 . S
C2040 C2039 1.351 . S
C2040 H2045 0.930 . S
O2041 Cu2035 1.974 . S
O2041 C2051 1.282 . S
C2042 O2043 1.261 . S
C2042 O2055 1.251 . S
O2043 C2042 1.261 . S
H2044 C2038 0.930 . S
H2045 C2040 0.930 . S
N2046 Cu2035 1.985 1_565 S
N2046 C2048 1.335 . S
N2046 C2049 1.390 . S
N2047 C2048 1.345 . S
N2047 C2050 1.336 . S
C2048 N2046 1.335 . S
C2048 N2047 1.345 . S
C2048 H2053 0.930 . S
C2049 N2046 1.390 . S
C2049 C2050 1.346 . S
C2049 H2054 0.930 1_565 S
C2050 N2047 1.336 . S
C2050 C2049 1.346 . S
C2050 H2057 0.929 . S
C2051 O2041 1.282 . S
C2051 O2052 1.216 . S
O2052 C2051 1.216 . S
H2053 C2048 0.930 . S
H2054 C2049 0.930 1_545 S
O2055 Cu2035 1.959 1_565 S
O2055 C2042 1.251 . S
H2056 C2039 0.930 . S
H2057 C2050 0.929 . S
Cu2058 N2059 1.999 . S
Cu2058 O2064 1.973 . S
Cu2058 N2069 1.985 1_655 S
Cu2058 O2078 1.960 1_655 S
N2059 Cu2058 1.999 . S
N2059 C2061 1.263 . S
N2059 C2063 1.389 . S
N2060 C2061 1.358 . S
N2060 C2062 1.400 . S
C2061 N2059 1.263 . S
C2061 N2060 1.358 . S
C2061 H2067 0.930 . S
C2062 N2060 1.400 . S
C2062 C2063 1.351 . S
C2062 H2079 0.930 . S
C2063 N2059 1.389 . S
C2063 C2062 1.351 . S
C2063 H2068 0.930 . S
O2064 Cu2058 1.973 . S
O2064 C2074 1.282 . S
C2065 O2066 1.261 . S
C2065 O2078 1.251 . S
O2066 C2065 1.261 . S
H2067 C2061 0.930 . S
H2068 C2063 0.930 . S
N2069 Cu2058 1.985 1_455 S
N2069 C2071 1.335 . S
N2069 C2072 1.390 . S
N2070 C2071 1.345 . S
N2070 C2073 1.336 . S
C2071 N2069 1.335 . S
C2071 N2070 1.345 . S
C2071 H2076 0.930 . S
C2072 N2069 1.390 . S
C2072 C2073 1.346 . S
C2072 H2077 0.930 . S
C2073 N2070 1.336 . S
C2073 C2072 1.346 . S
C2073 H2080 0.929 . S
C2074 O2064 1.282 . S
C2074 O2075 1.216 . S
O2075 C2074 1.216 . S
H2076 C2071 0.930 . S
H2077 C2072 0.930 . S
O2078 Cu2058 1.960 1_455 S
O2078 C2065 1.251 . S
H2079 C2062 0.930 . S
H2080 C2073 0.929 . S
Cu2081 N2082 1.983 1_565 S
Cu2081 O2087 1.953 1_565 S
Cu2081 N2092 2.001 . S
Cu2081 O2101 1.980 . S
N2082 Cu2081 1.983 1_545 S
N2082 C2084 1.263 . S
N2082 C2086 1.389 . S
N2083 C2084 1.358 . S
N2083 C2085 1.400 . S
C2084 N2082 1.263 . S
C2084 N2083 1.358 . S
C2084 H2090 0.930 . S
C2085 N2083 1.400 . S
C2085 C2086 1.351 . S
C2085 H2102 0.930 . S
C2086 N2082 1.389 . S
C2086 C2085 1.351 . S
C2086 H2091 0.930 . S
O2087 Cu2081 1.953 1_545 S
O2087 C2097 1.282 . S
C2088 O2089 1.261 . S
C2088 O2101 1.251 . S
O2089 C2088 1.261 . S
H2090 C2084 0.930 . S
H2091 C2086 0.930 . S
N2092 Cu2081 2.001 . S
N2092 C2094 1.335 . S
N2092 C2095 1.390 . S
N2093 C2094 1.345 . S
N2093 C2096 1.336 . S
C2094 N2092 1.335 . S
C2094 N2093 1.345 . S
C2094 H2099 0.930 . S
C2095 N2092 1.390 . S
C2095 C2096 1.346 . S
C2095 H2100 0.930 . S
C2096 N2093 1.336 . S
C2096 C2095 1.346 . S
C2096 H2103 0.929 . S
C2097 O2087 1.282 . S
C2097 O2098 1.216 . S
O2098 C2097 1.216 . S
H2099 C2094 0.930 . S
H2100 C2095 0.930 . S
O2101 Cu2081 1.980 . S
O2101 C2088 1.251 . S
H2102 C2085 0.930 . S
H2103 C2096 0.929 . S
Cu2104 N2105 1.999 . S
Cu2104 O2110 1.974 . S
Cu2104 N2115 1.985 1_455 S
Cu2104 O2124 1.959 1_455 S
N2105 Cu2104 1.999 . S
N2105 C2107 1.263 . S
N2105 C2109 1.389 . S
N2106 C2107 1.358 . S
N2106 C2108 1.400 . S
C2107 N2105 1.263 . S
C2107 N2106 1.358 . S
C2107 H2113 0.930 . S
C2108 N2106 1.400 . S
C2108 C2109 1.351 . S
C2108 H2125 0.930 . S
C2109 N2105 1.389 . S
C2109 C2108 1.351 . S
C2109 H2114 0.930 . S
O2110 Cu2104 1.974 . S
O2110 C2120 1.282 . S
C2111 O2112 1.261 . S
C2111 O2124 1.251 . S
O2112 C2111 1.261 . S
H2113 C2107 0.930 . S
H2114 C2109 0.930 . S
N2115 Cu2104 1.985 1_655 S
N2115 C2117 1.335 . S
N2115 C2118 1.393 . S
N2116 C2117 1.345 . S
N2116 C2119 1.336 . S
C2117 N2115 1.335 . S
C2117 N2116 1.345 . S
C2117 H2122 0.930 . S
C2118 N2115 1.393 . S
C2118 C2119 1.360 . S
C2118 H2123 0.916 1_655 S
C2119 N2116 1.336 . S
C2119 C2118 1.360 . S
C2119 H2126 0.929 . S
C2120 O2110 1.282 . S
C2120 O2121 1.216 . S
O2121 C2120 1.216 . S
H2122 C2117 0.930 . S
H2123 C2118 0.916 1_455 S
O2124 Cu2104 1.959 1_655 S
O2124 C2111 1.251 . S
H2125 C2108 0.930 . S
H2126 C2119 0.929 . S
Cu2127 N2128 1.999 . S
Cu2127 O2133 1.974 . S
Cu2127 N2138 1.985 1_545 S
Cu2127 O2147 1.959 1_545 S
N2128 Cu2127 1.999 . S
N2128 C2130 1.263 . S
N2128 C2132 1.389 . S
N2129 C2130 1.358 . S
N2129 C2131 1.400 . S
C2130 N2128 1.263 . S
C2130 N2129 1.358 . S
C2130 H2136 0.930 . S
C2131 N2129 1.400 . S
C2131 C2132 1.351 . S
C2131 H2148 0.930 . S
C2132 N2128 1.389 . S
C2132 C2131 1.351 . S
C2132 H2137 0.930 . S
O2133 Cu2127 1.974 . S
O2133 C2143 1.282 . S
C2134 O2135 1.261 . S
C2134 O2147 1.251 . S
O2135 C2134 1.261 . S
H2136 C2130 0.930 . S
H2137 C2132 0.930 . S
N2138 Cu2127 1.985 1_565 S
N2138 C2140 1.335 . S
N2138 C2141 1.390 1_565 S
N2139 C2140 1.345 . S
N2139 C2142 1.336 . S
C2140 N2138 1.335 . S
C2140 N2139 1.345 . S
C2140 H2145 0.930 . S
C2141 N2138 1.390 1_545 S
C2141 C2142 1.346 1_545 S
C2141 H2146 0.930 . S
C2142 N2139 1.336 . S
C2142 C2141 1.346 1_565 S
C2142 H2149 0.929 . S
C2143 O2133 1.282 . S
C2143 O2144 1.216 . S
O2144 C2143 1.216 . S
H2145 C2140 0.930 . S
H2146 C2141 0.930 . S
O2147 Cu2127 1.959 1_565 S
O2147 C2134 1.251 . S
H2148 C2131 0.930 . S
H2149 C2142 0.929 . S
Cu2150 N2151 1.999 . S
Cu2150 O2156 1.974 . S
Cu2150 N2161 1.985 . S
Cu2150 O2170 1.959 . S
N2151 Cu2150 1.999 . S
N2151 C2153 1.263 1_455 S
N2151 C2155 1.389 . S
N2152 C2153 1.358 . S
N2152 C2154 1.400 . S
C2153 N2151 1.263 1_655 S
C2153 N2152 1.358 . S
C2153 H2159 0.930 . S
C2154 N2152 1.400 . S
C2154 C2155 1.351 1_655 S
C2154 H2171 0.930 . S
C2155 N2151 1.389 . S
C2155 C2154 1.351 1_455 S
C2155 H2160 0.930 . S
O2156 Cu2150 1.974 . S
O2156 C2166 1.282 1_455 S
C2157 O2158 1.261 . S
C2157 O2170 1.251 . S
O2158 C2157 1.261 . S
H2159 C2153 0.930 . S
H2160 C2155 0.930 . S
N2161 Cu2150 1.985 . S
N2161 C2163 1.335 . S
N2161 C2164 1.390 . S
N2162 C2163 1.345 . S
N2162 C2165 1.336 . S
C2163 N2161 1.335 . S
C2163 N2162 1.345 . S
C2163 H2168 0.930 . S
C2164 N2161 1.390 . S
C2164 C2165 1.346 . S
C2164 H2169 0.930 . S
C2165 N2162 1.336 . S
C2165 C2164 1.346 . S
C2165 H2172 0.929 . S
C2166 O2156 1.282 1_655 S
C2166 O2167 1.216 1_655 S
O2167 C2166 1.216 1_455 S
H2168 C2163 0.930 . S
H2169 C2164 0.930 . S
O2170 Cu2150 1.959 . S
O2170 C2157 1.251 . S
H2171 C2154 0.930 . S
H2172 C2165 0.929 . S
Cu2173 N2174 1.999 . S
Cu2173 O2179 1.974 . S
Cu2173 N2184 1.985 . S
Cu2173 O2193 1.959 1_545 S
N2174 Cu2173 1.999 . S
N2174 C2176 1.263 . S
N2174 C2178 1.389 . S
N2175 C2176 1.358 . S
N2175 C2177 1.400 . S
C2176 N2174 1.263 . S
C2176 N2175 1.358 . S
C2176 H2182 0.930 . S
C2177 N2175 1.400 . S
C2177 C2178 1.351 . S
C2177 H2194 0.930 . S
C2178 N2174 1.389 . S
C2178 C2177 1.351 . S
C2178 H2183 0.930 . S
O2179 Cu2173 1.974 . S
O2179 C2189 1.282 . S
C2180 O2181 1.244 1_565 S
C2180 O2193 1.251 . S
O2181 C2180 1.244 1_545 S
H2182 C2176 0.930 . S
H2183 C2178 0.930 . S
N2184 Cu2173 1.985 . S
N2184 C2186 1.335 1_545 S
N2184 C2187 1.390 . S
N2185 C2186 1.345 . S
N2185 C2188 1.336 . S
C2186 N2184 1.335 1_565 S
C2186 N2185 1.345 . S
C2186 H2191 0.930 . S
C2187 N2184 1.390 . S
C2187 C2188 1.346 1_545 S
C2187 H2192 0.930 . S
C2188 N2185 1.336 . S
C2188 C2187 1.346 1_565 S
C2188 H2195 0.929 . S
C2189 O2179 1.282 . S
C2189 O2190 1.216 . S
O2190 C2189 1.216 . S
H2191 C2186 0.930 . S
H2192 C2187 0.930 . S
O2193 Cu2173 1.959 1_565 S
O2193 C2180 1.251 . S
H2194 C2177 0.930 . S
H2195 C2188 0.929 . S
Cu2196 N2197 1.999 . S
Cu2196 O2202 1.974 . S
Cu2196 N2207 1.985 . S
Cu2196 O2216 1.959 . S
N2197 Cu2196 1.999 . S
N2197 C2199 1.263 . S
N2197 C2201 1.389 . S
N2198 C2199 1.358 . S
N2198 C2200 1.400 . S
C2199 N2197 1.263 . S
C2199 N2198 1.358 . S
C2199 H2205 0.930 . S
C2200 N2198 1.400 . S
C2200 C2201 1.351 . S
C2200 H2217 0.930 . S
C2201 N2197 1.389 . S
C2201 C2200 1.351 . S
C2201 H2206 0.930 . S
O2202 Cu2196 1.974 . S
O2202 C2212 1.282 . S
C2203 O2204 1.261 . S
C2203 O2216 1.251 . S
O2204 C2203 1.261 . S
H2205 C2199 0.930 . S
H2206 C2201 0.930 . S
N2207 Cu2196 1.985 . S
N2207 C2209 1.335 . S
N2207 C2210 1.390 . S
N2208 C2209 1.345 . S
N2208 C2211 1.336 . S
C2209 N2207 1.335 . S
C2209 N2208 1.345 . S
C2209 H2214 0.930 . S
C2210 N2207 1.390 . S
C2210 C2211 1.346 . S
C2210 H2215 0.930 . S
C2211 N2208 1.336 . S
C2211 C2210 1.346 . S
C2211 H2218 0.929 . S
C2212 O2202 1.282 . S
C2212 O2213 1.216 . S
O2213 C2212 1.216 . S
H2214 C2209 0.930 . S
H2215 C2210 0.930 . S
O2216 Cu2196 1.959 . S
O2216 C2203 1.251 . S
H2217 C2200 0.930 . S
H2218 C2211 0.929 . S
Cu2219 N2220 1.999 . S
Cu2219 O2225 1.974 . S
Cu2219 N2230 1.985 . S
Cu2219 O2239 1.959 . S
N2220 Cu2219 1.999 . S
N2220 C2222 1.263 . S
N2220 C2224 1.389 . S
N2221 C2222 1.358 . S
N2221 C2223 1.400 . S
C2222 N2220 1.263 . S
C2222 N2221 1.358 . S
C2222 H2228 0.930 . S
C2223 N2221 1.400 . S
C2223 C2224 1.351 . S
C2223 H2240 0.930 . S
C2224 N2220 1.389 . S
C2224 C2223 1.351 . S
C2224 H2229 0.930 . S
O2225 Cu2219 1.974 . S
O2225 C2235 1.282 . S
C2226 O2227 1.261 . S
C2226 O2239 1.251 . S
O2227 C2226 1.261 . S
H2228 C2222 0.930 . S
H2229 C2224 0.930 . S
N2230 Cu2219 1.985 . S
N2230 C2232 1.335 . S
N2230 C2233 1.390 . S
N2231 C2232 1.345 . S
N2231 C2234 1.336 . S
C2232 N2230 1.335 . S
C2232 N2231 1.345 . S
C2232 H2237 0.930 . S
C2233 N2230 1.390 . S
C2233 C2234 1.346 . S
C2233 H2238 0.930 . S
C2234 N2231 1.336 . S
C2234 C2233 1.346 . S
C2234 H2241 0.929 . S
C2235 O2225 1.282 . S
C2235 O2236 1.216 . S
O2236 C2235 1.216 . S
H2237 C2232 0.930 . S
H2238 C2233 0.930 . S
O2239 Cu2219 1.959 . S
O2239 C2226 1.251 . S
H2240 C2223 0.930 . S
H2241 C2234 0.929 . S
Cu2242 N2243 1.999 . S
Cu2242 O2248 1.974 . S
Cu2242 N2253 1.985 . S
Cu2242 O2262 1.959 . S
N2243 Cu2242 1.999 . S
N2243 C2245 1.263 . S
N2243 C2247 1.389 . S
N2244 C2245 1.358 . S
N2244 C2246 1.400 . S
C2245 N2243 1.263 . S
C2245 N2244 1.358 . S
C2245 H2251 0.930 . S
C2246 N2244 1.400 . S
C2246 C2247 1.351 . S
C2246 H2263 0.930 . S
C2247 N2243 1.389 . S
C2247 C2246 1.351 . S
C2247 H2252 0.930 . S
O2248 Cu2242 1.974 . S
O2248 C2258 1.282 . S
C2249 O2250 1.261 . S
C2249 O2262 1.251 . S
O2250 C2249 1.261 . S
H2251 C2245 0.930 . S
H2252 C2247 0.930 . S
N2253 Cu2242 1.985 . S
N2253 C2255 1.335 . S
N2253 C2256 1.390 . S
N2254 C2255 1.345 . S
N2254 C2257 1.336 . S
C2255 N2253 1.335 . S
C2255 N2254 1.345 . S
C2255 H2260 0.930 . S
C2256 N2253 1.390 . S
C2256 C2257 1.346 . S
C2256 H2261 0.930 . S
C2257 N2254 1.336 . S
C2257 C2256 1.346 . S
C2257 H2264 0.929 . S
C2258 O2248 1.282 . S
C2258 O2259 1.216 . S
O2259 C2258 1.216 . S
H2260 C2255 0.930 . S
H2261 C2256 0.930 . S
O2262 Cu2242 1.959 . S
O2262 C2249 1.251 . S
H2263 C2246 0.930 . S
H2264 C2257 0.929 . S
Cu2265 N2266 1.999 . S
Cu2265 O2271 1.974 . S
Cu2265 N2276 1.985 . S
Cu2265 O2285 1.959 . S
N2266 Cu2265 1.999 . S
N2266 C2268 1.263 . S
N2266 C2270 1.389 . S
N2267 C2268 1.358 . S
N2267 C2269 1.400 . S
C2268 N2266 1.263 . S
C2268 N2267 1.358 . S
C2268 H2274 0.930 . S
C2269 N2267 1.400 . S
C2269 C2270 1.351 . S
C2269 H2286 0.930 . S
C2270 N2266 1.389 . S
C2270 C2269 1.351 . S
C2270 H2275 0.930 . S
O2271 Cu2265 1.974 . S
O2271 C2281 1.282 . S
C2272 O2273 1.261 . S
C2272 O2285 1.251 . S
O2273 C2272 1.261 . S
H2274 C2268 0.930 . S
H2275 C2270 0.930 . S
N2276 Cu2265 1.985 . S
N2276 C2278 1.335 . S
N2276 C2279 1.390 . S
N2277 C2278 1.345 . S
N2277 C2280 1.336 . S
C2278 N2276 1.335 . S
C2278 N2277 1.345 . S
C2278 H2283 0.930 . S
C2279 N2276 1.390 . S
C2279 C2280 1.346 . S
C2279 H2284 0.930 . S
C2280 N2277 1.336 . S
C2280 C2279 1.346 . S
C2280 H2287 0.929 . S
C2281 O2271 1.282 . S
C2281 O2282 1.216 . S
O2282 C2281 1.216 . S
H2283 C2278 0.930 . S
H2284 C2279 0.930 . S
O2285 Cu2265 1.959 . S
O2285 C2272 1.251 . S
H2286 C2269 0.930 . S
H2287 C2280 0.929 . S
Cu2288 N2289 1.999 . S
Cu2288 O2294 1.974 . S
Cu2288 N2299 1.985 . S
Cu2288 O2308 1.959 . S
N2289 Cu2288 1.999 . S
N2289 C2291 1.263 . S
N2289 C2293 1.389 . S
N2290 C2291 1.358 . S
N2290 C2292 1.400 . S
C2291 N2289 1.263 . S
C2291 N2290 1.358 . S
C2291 H2297 0.930 . S
C2292 N2290 1.400 . S
C2292 C2293 1.351 . S
C2292 H2309 0.930 . S
C2293 N2289 1.389 . S
C2293 C2292 1.351 . S
C2293 H2298 0.930 . S
O2294 Cu2288 1.974 . S
O2294 C2304 1.282 . S
C2295 O2296 1.261 . S
C2295 O2308 1.251 . S
O2296 C2295 1.261 . S
H2297 C2291 0.930 . S
H2298 C2293 0.930 . S
N2299 Cu2288 1.985 . S
N2299 C2301 1.335 . S
N2299 C2302 1.390 . S
N2300 C2301 1.345 . S
N2300 C2303 1.336 . S
C2301 N2299 1.335 . S
C2301 N2300 1.345 . S
C2301 H2306 0.930 . S
C2302 N2299 1.390 . S
C2302 C2303 1.346 . S
C2302 H2307 0.930 . S
C2303 N2300 1.336 . S
C2303 C2302 1.346 . S
C2303 H2310 0.929 . S
C2304 O2294 1.282 . S
C2304 O2305 1.216 . S
O2305 C2304 1.216 . S
H2306 C2301 0.930 . S
H2307 C2302 0.930 . S
O2308 Cu2288 1.959 . S
O2308 C2295 1.251 . S
H2309 C2292 0.930 . S
H2310 C2303 0.929 . S
Cu2311 N2312 1.999 . S
Cu2311 O2317 1.974 . S
Cu2311 N2322 1.985 . S
Cu2311 O2331 1.959 . S
N2312 Cu2311 1.999 . S
N2312 C2314 1.263 . S
N2312 C2316 1.389 . S
N2313 C2314 1.358 . S
N2313 C2315 1.400 . S
C2314 N2312 1.263 . S
C2314 N2313 1.358 . S
C2314 H2320 0.930 . S
C2315 N2313 1.400 . S
C2315 C2316 1.351 . S
C2315 H2332 0.930 . S
C2316 N2312 1.389 . S
C2316 C2315 1.351 . S
C2316 H2321 0.930 . S
O2317 Cu2311 1.974 . S
O2317 C2327 1.282 . S
C2318 O2319 1.261 . S
C2318 O2331 1.251 . S
O2319 C2318 1.261 . S
H2320 C2314 0.930 . S
H2321 C2316 0.930 . S
N2322 Cu2311 1.985 . S
N2322 C2324 1.335 . S
N2322 C2325 1.390 . S
N2323 C2324 1.345 . S
N2323 C2326 1.336 . S
C2324 N2322 1.335 . S
C2324 N2323 1.345 . S
C2324 H2329 0.930 . S
C2325 N2322 1.390 . S
C2325 C2326 1.346 . S
C2325 H2330 0.930 . S
C2326 N2323 1.336 . S
C2326 C2325 1.346 . S
C2326 H2333 0.929 . S
C2327 O2317 1.282 . S
C2327 O2328 1.216 . S
O2328 C2327 1.216 . S
H2329 C2324 0.930 . S
H2330 C2325 0.930 . S
O2331 Cu2311 1.959 . S
O2331 C2318 1.251 . S
H2332 C2315 0.930 . S
H2333 C2326 0.929 . S
Cu2334 N2335 1.999 . S
Cu2334 O2340 1.974 . S
Cu2334 N2345 1.985 . S
Cu2334 O2354 1.959 . S
N2335 Cu2334 1.999 . S
N2335 C2337 1.263 . S
N2335 C2339 1.389 . S
N2336 C2337 1.358 . S
N2336 C2338 1.400 . S
C2337 N2335 1.263 . S
C2337 N2336 1.358 . S
C2337 H2343 0.930 . S
C2338 N2336 1.400 . S
C2338 C2339 1.351 . S
C2338 H2355 0.930 . S
C2339 N2335 1.389 . S
C2339 C2338 1.351 . S
C2339 H2344 0.930 . S
O2340 Cu2334 1.974 . S
O2340 C2350 1.282 . S
C2341 O2342 1.261 . S
C2341 O2354 1.251 . S
O2342 C2341 1.261 . S
H2343 C2337 0.930 . S
H2344 C2339 0.930 . S
N2345 Cu2334 1.985 . S
N2345 C2347 1.335 . S
N2345 C2348 1.390 . S
N2346 C2347 1.345 . S
N2346 C2349 1.336 . S
C2347 N2345 1.335 . S
C2347 N2346 1.345 . S
C2347 H2352 0.930 . S
C2348 N2345 1.390 . S
C2348 C2349 1.346 . S
C2348 H2353 0.930 . S
C2349 N2346 1.336 . S
C2349 C2348 1.346 . S
C2349 H2356 0.929 . S
C2350 O2340 1.282 . S
C2350 O2351 1.216 . S
O2351 C2350 1.216 . S
H2352 C2347 0.930 . S
H2353 C2348 0.930 . S
O2354 Cu2334 1.959 . S
O2354 C2341 1.251 . S
H2355 C2338 0.930 . S
H2356 C2349 0.929 . S
Cu2357 N2358 1.999 . S
Cu2357 O2363 1.974 . S
Cu2357 N2368 1.985 . S
Cu2357 O2377 1.959 . S
N2358 Cu2357 1.999 . S
N2358 C2360 1.263 . S
N2358 C2362 1.389 . S
N2359 C2360 1.358 . S
N2359 C2361 1.400 . S
C2360 N2358 1.263 . S
C2360 N2359 1.358 . S
C2360 H2366 0.930 . S
C2361 N2359 1.400 . S
C2361 C2362 1.351 . S
C2361 H2378 0.930 . S
C2362 N2358 1.389 . S
C2362 C2361 1.351 . S
C2362 H2367 0.930 . S
O2363 Cu2357 1.974 . S
O2363 C2373 1.282 . S
C2364 O2365 1.261 . S
C2364 O2377 1.251 . S
O2365 C2364 1.261 . S
H2366 C2360 0.930 . S
H2367 C2362 0.930 . S
N2368 Cu2357 1.985 . S
N2368 C2370 1.335 . S
N2368 C2371 1.390 . S
N2369 C2370 1.345 . S
N2369 C2372 1.336 . S
C2370 N2368 1.335 . S
C2370 N2369 1.345 . S
C2370 H2375 0.930 . S
C2371 N2368 1.390 . S
C2371 C2372 1.346 . S
C2371 H2376 0.930 . S
C2372 N2369 1.336 . S
C2372 C2371 1.346 . S
C2372 H2379 0.929 . S
C2373 O2363 1.282 . S
C2373 O2374 1.216 . S
O2374 C2373 1.216 . S
H2375 C2370 0.930 . S
H2376 C2371 0.930 . S
O2377 Cu2357 1.959 . S
O2377 C2364 1.251 . S
H2378 C2361 0.930 . S
H2379 C2372 0.929 . S
Cu2380 N2381 1.999 . S
Cu2380 O2386 1.974 . S
Cu2380 N2391 1.985 . S
Cu2380 O2400 1.959 . S
N2381 Cu2380 1.999 . S
N2381 C2383 1.263 . S
N2381 C2385 1.389 . S
N2382 C2383 1.358 . S
N2382 C2384 1.400 . S
C2383 N2381 1.263 . S
C2383 N2382 1.358 . S
C2383 H2389 0.930 . S
C2384 N2382 1.400 . S
C2384 C2385 1.351 . S
C2384 H2401 0.930 . S
C2385 N2381 1.389 . S
C2385 C2384 1.351 . S
C2385 H2390 0.930 . S
O2386 Cu2380 1.974 . S
O2386 C2396 1.282 . S
C2387 O2388 1.261 . S
C2387 O2400 1.251 . S
O2388 C2387 1.261 . S
H2389 C2383 0.930 . S
H2390 C2385 0.930 . S
N2391 Cu2380 1.985 . S
N2391 C2393 1.335 . S
N2391 C2394 1.390 . S
N2392 C2393 1.345 . S
N2392 C2395 1.336 . S
C2393 N2391 1.335 . S
C2393 N2392 1.345 . S
C2393 H2398 0.930 . S
C2394 N2391 1.390 . S
C2394 C2395 1.346 . S
C2394 H2399 0.930 . S
C2395 N2392 1.336 . S
C2395 C2394 1.346 . S
C2395 H2402 0.929 . S
C2396 O2386 1.282 . S
C2396 O2397 1.216 . S
O2397 C2396 1.216 . S
H2398 C2393 0.930 . S
H2399 C2394 0.930 . S
O2400 Cu2380 1.959 . S
O2400 C2387 1.251 . S
H2401 C2384 0.930 . S
H2402 C2395 0.929 . S
Cu2403 N2404 1.999 . S
Cu2403 O2409 1.974 . S
Cu2403 N2414 1.985 . S
Cu2403 O2423 1.959 . S
N2404 Cu2403 1.999 . S
N2404 C2406 1.263 . S
N2404 C2408 1.389 . S
N2405 C2406 1.358 . S
N2405 C2407 1.400 . S
C2406 N2404 1.263 . S
C2406 N2405 1.358 . S
C2406 H2412 0.930 . S
C2407 N2405 1.400 . S
C2407 C2408 1.351 . S
C2407 H2424 0.930 . S
C2408 N2404 1.389 . S
C2408 C2407 1.351 . S
C2408 H2413 0.930 . S
O2409 Cu2403 1.974 . S
O2409 C2419 1.282 . S
C2410 O2411 1.261 . S
C2410 O2423 1.251 . S
O2411 C2410 1.261 . S
H2412 C2406 0.930 . S
H2413 C2408 0.930 . S
N2414 Cu2403 1.985 . S
N2414 C2416 1.335 . S
N2414 C2417 1.390 . S
N2415 C2416 1.345 . S
N2415 C2418 1.336 . S
C2416 N2414 1.335 . S
C2416 N2415 1.345 . S
C2416 H2421 0.930 . S
C2417 N2414 1.390 . S
C2417 C2418 1.346 . S
C2417 H2422 0.930 . S
C2418 N2415 1.336 . S
C2418 C2417 1.346 . S
C2418 H2425 0.929 . S
C2419 O2409 1.282 . S
C2419 O2420 1.216 . S
O2420 C2419 1.216 . S
H2421 C2416 0.930 . S
H2422 C2417 0.930 . S
O2423 Cu2403 1.959 . S
O2423 C2410 1.251 . S
H2424 C2407 0.930 . S
H2425 C2418 0.929 . S
Cu2426 N2427 1.999 . S
Cu2426 O2432 1.974 . S
Cu2426 N2437 1.985 . S
Cu2426 O2446 1.959 . S
N2427 Cu2426 1.999 . S
N2427 C2429 1.263 . S
N2427 C2431 1.389 . S
N2428 C2429 1.358 . S
N2428 C2430 1.400 . S
C2429 N2427 1.263 . S
C2429 N2428 1.358 . S
C2429 H2435 0.930 . S
C2430 N2428 1.400 . S
C2430 C2431 1.351 . S
C2430 H2447 0.930 . S
C2431 N2427 1.389 . S
C2431 C2430 1.351 . S
C2431 H2436 0.930 . S
O2432 Cu2426 1.974 . S
O2432 C2442 1.282 . S
C2433 O2434 1.261 . S
C2433 O2446 1.251 . S
O2434 C2433 1.261 . S
H2435 C2429 0.930 . S
H2436 C2431 0.930 . S
N2437 Cu2426 1.985 . S
N2437 C2439 1.335 . S
N2437 C2440 1.390 . S
N2438 C2439 1.345 . S
N2438 C2441 1.336 . S
C2439 N2437 1.335 . S
C2439 N2438 1.345 . S
C2439 H2444 0.930 . S
C2440 N2437 1.390 . S
C2440 C2441 1.346 . S
C2440 H2445 0.930 . S
C2441 N2438 1.336 . S
C2441 C2440 1.346 . S
C2441 H2448 0.929 . S
C2442 O2432 1.282 . S
C2442 O2443 1.216 . S
O2443 C2442 1.216 . S
H2444 C2439 0.930 . S
H2445 C2440 0.930 . S
O2446 Cu2426 1.959 . S
O2446 C2433 1.251 . S
H2447 C2430 0.930 . S
H2448 C2441 0.929 . S
Cu2449 N2450 1.999 . S
Cu2449 O2455 1.974 . S
Cu2449 N2460 1.985 . S
Cu2449 O2469 1.959 . S
N2450 Cu2449 1.999 . S
N2450 C2452 1.263 . S
N2450 C2454 1.389 . S
N2451 C2452 1.358 . S
N2451 C2453 1.400 . S
C2452 N2450 1.263 . S
C2452 N2451 1.358 . S
C2452 H2458 0.930 . S
C2453 N2451 1.400 . S
C2453 C2454 1.351 . S
C2453 H2470 0.930 . S
C2454 N2450 1.389 . S
C2454 C2453 1.351 . S
C2454 H2459 0.930 . S
O2455 Cu2449 1.974 . S
O2455 C2465 1.282 . S
C2456 O2457 1.261 . S
C2456 O2469 1.251 . S
O2457 C2456 1.261 . S
H2458 C2452 0.930 . S
H2459 C2454 0.930 . S
N2460 Cu2449 1.985 . S
N2460 C2462 1.335 . S
N2460 C2463 1.390 . S
N2461 C2462 1.345 . S
N2461 C2464 1.336 . S
C2462 N2460 1.335 . S
C2462 N2461 1.345 . S
C2462 H2467 0.930 . S
C2463 N2460 1.390 . S
C2463 C2464 1.346 . S
C2463 H2468 0.930 . S
C2464 N2461 1.336 . S
C2464 C2463 1.346 . S
C2464 H2471 0.929 . S
C2465 O2455 1.282 . S
C2465 O2466 1.216 . S
O2466 C2465 1.216 . S
H2467 C2462 0.930 . S
H2468 C2463 0.930 . S
O2469 Cu2449 1.959 . S
O2469 C2456 1.251 . S
H2470 C2453 0.930 . S
H2471 C2464 0.929 . S
C2472 C2473 1.387 . S
C2472 H2476 0.950 . S
C2472 C2481 1.390 . S
C2473 C2472 1.387 . S
C2473 C2475 1.387 . S
H2474 C2481 0.950 . S
C2475 C2473 1.387 . S
C2475 C2477 1.390 . S
C2475 H2479 0.950 . S
H2476 C2472 0.950 . S
C2477 C2475 1.390 . S
C2477 C2478 1.387 . S
C2477 H2480 0.950 . S
C2478 C2477 1.387 . S
C2478 C2481 1.387 . S
H2479 C2475 0.950 . S
H2480 C2477 0.950 . S
C2481 C2472 1.390 . S
C2481 H2474 0.950 . S
C2481 C2478 1.387 . S
C2482 C2483 1.387 . S
C2482 H2486 0.950 . S
C2482 C2491 1.390 . S
C2483 C2482 1.387 . S
C2483 C2485 1.387 . S
H2484 C2491 0.950 . S
C2485 C2483 1.387 . S
C2485 C2487 1.390 . S
C2485 H2489 0.950 . S
H2486 C2482 0.950 . S
C2487 C2485 1.390 . S
C2487 C2488 1.387 . S
C2487 H2490 0.950 . S
C2488 C2487 1.387 . S
C2488 C2491 1.387 . S
H2489 C2485 0.950 . S
H2490 C2487 0.950 . S
C2491 C2482 1.390 . S
C2491 H2484 0.950 . S
C2491 C2488 1.387 . S
C2492 C2493 1.387 . S
C2492 H2496 0.950 . S
C2492 C2501 1.390 . S
C2493 C2492 1.387 . S
C2493 C2495 1.387 . S
H2494 C2501 0.950 . S
C2495 C2493 1.387 . S
C2495 C2497 1.390 . S
C2495 H2499 0.950 . S
H2496 C2492 0.950 . S
C2497 C2495 1.390 . S
C2497 C2498 1.387 . S
C2497 H2500 0.950 . S
C2498 C2497 1.387 . S
C2498 C2501 1.387 . S
H2499 C2495 0.950 . S
H2500 C2497 0.950 . S
C2501 C2492 1.390 . S
C2501 H2494 0.950 . S
C2501 C2498 1.387 . S
C2502 C2503 1.387 . S
C2502 H2506 0.950 . S
C2502 C2511 1.390 . S
C2503 C2502 1.387 . S
C2503 C2505 1.387 . S
H2504 C2511 0.950 . S
C2505 C2503 1.387 . S
C2505 C2507 1.390 . S
C2505 H2509 0.950 . S
H2506 C2502 0.950 . S
C2507 C2505 1.390 . S
C2507 C2508 1.387 . S
C2507 H2510 0.950 . S
C2508 C2507 1.387 . S
C2508 C2511 1.387 . S
H2509 C2505 0.950 . S
H2510 C2507 0.950 . S
C2511 C2502 1.390 . S
C2511 H2504 0.950 . S
C2511 C2508 1.387 . S
C2512 C2513 1.387 . S
C2512 H2516 0.950 . S
C2512 C2521 1.390 . S
C2513 C2512 1.387 . S
C2513 C2515 1.387 . S
H2514 C2521 0.950 . S
C2515 C2513 1.387 . S
C2515 C2517 1.390 . S
C2515 H2519 0.950 . S
H2516 C2512 0.950 . S
C2517 C2515 1.390 . S
C2517 C2518 1.387 . S
C2517 H2520 0.950 . S
C2518 C2517 1.387 . S
C2518 C2521 1.387 . S
H2519 C2515 0.950 . S
H2520 C2517 0.950 . S
C2521 C2512 1.390 . S
C2521 H2514 0.950 . S
C2521 C2518 1.387 . S
C2522 C2523 1.387 . S
C2522 H2526 0.950 . S
C2522 C2531 1.390 . S
C2523 C2522 1.387 . S
C2523 C2525 1.387 . S
H2524 C2531 0.950 . S
C2525 C2523 1.387 . S
C2525 C2527 1.390 . S
C2525 H2529 0.950 . S
H2526 C2522 0.950 . S
C2527 C2525 1.390 . S
C2527 C2528 1.387 . S
C2527 H2530 0.950 . S
C2528 C2527 1.387 . S
C2528 C2531 1.387 . S
H2529 C2525 0.950 . S
H2530 C2527 0.950 . S
C2531 C2522 1.390 . S
C2531 H2524 0.950 . S
C2531 C2528 1.387 . S
C2532 C2533 1.387 . S
C2532 H2536 0.950 . S
C2532 C2541 1.390 . S
C2533 C2532 1.387 . S
C2533 C2535 1.387 . S
H2534 C2541 0.950 . S
C2535 C2533 1.387 . S
C2535 C2537 1.390 . S
C2535 H2539 0.950 . S
H2536 C2532 0.950 . S
C2537 C2535 1.390 . S
C2537 C2538 1.387 . S
C2537 H2540 0.950 . S
C2538 C2537 1.387 . S
C2538 C2541 1.387 . S
H2539 C2535 0.950 . S
H2540 C2537 0.950 . S
C2541 C2532 1.390 . S
C2541 H2534 0.950 . S
C2541 C2538 1.387 . S
C2542 C2543 1.387 . S
C2542 H2546 0.950 . S
C2542 C2551 1.390 . S
C2543 C2542 1.387 . S
C2543 C2545 1.387 . S
H2544 C2551 0.950 . S
C2545 C2543 1.387 . S
C2545 C2547 1.390 . S
C2545 H2549 0.950 . S
H2546 C2542 0.950 . S
C2547 C2545 1.390 . S
C2547 C2548 1.387 . S
C2547 H2550 0.950 . S
C2548 C2547 1.387 . S
C2548 C2551 1.387 . S
H2549 C2545 0.950 . S
H2550 C2547 0.950 . S
C2551 C2542 1.390 . S
C2551 H2544 0.950 . S
C2551 C2548 1.387 . S
C2552 C2553 1.387 . S
C2552 H2556 0.950 . S
C2552 C2561 1.390 . S
C2553 C2552 1.387 . S
C2553 C2555 1.387 . S
H2554 C2561 0.950 . S
C2555 C2553 1.387 . S
C2555 C2557 1.390 . S
C2555 H2559 0.950 . S
H2556 C2552 0.950 . S
C2557 C2555 1.390 . S
C2557 C2558 1.387 . S
C2557 H2560 0.950 . S
C2558 C2557 1.387 . S
C2558 C2561 1.387 . S
H2559 C2555 0.950 . S
H2560 C2557 0.950 . S
C2561 C2552 1.390 . S
C2561 H2554 0.950 . S
C2561 C2558 1.387 . S
C2562 C2563 1.387 . S
C2562 H2566 0.950 . S
C2562 C2571 1.390 . S
C2563 C2562 1.387 . S
C2563 C2565 1.387 . S
H2564 C2571 0.950 . S
C2565 C2563 1.387 . S
C2565 C2567 1.390 . S
C2565 H2569 0.950 . S
H2566 C2562 0.950 . S
C2567 C2565 1.390 . S
C2567 C2568 1.387 . S
C2567 H2570 0.950 . S
C2568 C2567 1.387 . S
C2568 C2571 1.387 . S
H2569 C2565 0.950 . S
H2570 C2567 0.950 . S
C2571 C2562 1.390 . S
C2571 H2564 0.950 . S
C2571 C2568 1.387 . S
C2572 C2573 1.387 . S
C2572 H2576 0.950 . S
C2572 C2581 1.390 . S
C2573 C2572 1.387 . S
C2573 C2575 1.387 . S
H2574 C2581 0.950 . S
C2575 C2573 1.387 . S
C2575 C2577 1.390 . S
C2575 H2579 0.950 . S
H2576 C2572 0.950 . S
C2577 C2575 1.390 . S
C2577 C2578 1.387 . S
C2577 H2580 0.950 . S
C2578 C2577 1.387 . S
C2578 C2581 1.387 . S
H2579 C2575 0.950 . S
H2580 C2577 0.950 . S
C2581 C2572 1.390 . S
C2581 H2574 0.950 . S
C2581 C2578 1.387 . S
C2582 C2583 1.387 . S
C2582 H2586 0.950 . S
C2582 C2591 1.390 . S
C2583 C2582 1.387 . S
C2583 C2585 1.387 . S
H2584 C2591 0.950 . S
C2585 C2583 1.387 . S
C2585 C2587 1.390 . S
C2585 H2589 0.950 . S
H2586 C2582 0.950 . S
C2587 C2585 1.390 . S
C2587 C2588 1.387 . S
C2587 H2590 0.950 . S
C2588 C2587 1.387 . S
C2588 C2591 1.387 . S
H2589 C2585 0.950 . S
H2590 C2587 0.950 . S
C2591 C2582 1.390 . S
C2591 H2584 0.950 . S
C2591 C2588 1.387 . S
C2592 C2593 1.387 . S
C2592 H2596 0.950 . S
C2592 C2601 1.390 . S
C2593 C2592 1.387 . S
C2593 C2595 1.387 . S
H2594 C2601 0.950 . S
C2595 C2593 1.387 . S
C2595 C2597 1.390 . S
C2595 H2599 0.950 . S
H2596 C2592 0.950 . S
C2597 C2595 1.390 . S
C2597 C2598 1.387 . S
C2597 H2600 0.950 . S
C2598 C2597 1.387 . S
C2598 C2601 1.387 . S
H2599 C2595 0.950 . S
H2600 C2597 0.950 . S
C2601 C2592 1.390 . S
C2601 H2594 0.950 . S
C2601 C2598 1.387 . S
C2602 C2603 1.387 . S
C2602 H2606 0.950 . S
C2602 C2611 1.390 . S
C2603 C2602 1.387 . S
C2603 C2605 1.387 . S
H2604 C2611 0.950 . S
C2605 C2603 1.387 . S
C2605 C2607 1.390 . S
C2605 H2609 0.950 . S
H2606 C2602 0.950 . S
C2607 C2605 1.390 . S
C2607 C2608 1.387 . S
C2607 H2610 0.950 . S
C2608 C2607 1.387 . S
C2608 C2611 1.387 . S
H2609 C2605 0.950 . S
H2610 C2607 0.950 . S
C2611 C2602 1.390 . S
C2611 H2604 0.950 . S
C2611 C2608 1.387 . S
C2612 C2613 1.387 . S
C2612 H2616 0.950 . S
C2612 C2621 1.390 . S
C2613 C2612 1.387 . S
C2613 C2615 1.387 . S
H2614 C2621 0.950 . S
C2615 C2613 1.387 . S
C2615 C2617 1.390 . S
C2615 H2619 0.950 . S
H2616 C2612 0.950 . S
C2617 C2615 1.390 . S
C2617 C2618 1.387 . S
C2617 H2620 0.950 . S
C2618 C2617 1.387 . S
C2618 C2621 1.387 . S
H2619 C2615 0.950 . S
H2620 C2617 0.950 . S
C2621 C2612 1.390 . S
C2621 H2614 0.950 . S
C2621 C2618 1.387 . S
C2622 C2623 1.387 . S
C2622 H2626 0.950 . S
C2622 C2631 1.390 . S
C2623 C2622 1.387 . S
C2623 C2625 1.387 . S
H2624 C2631 0.950 . S
C2625 C2623 1.387 . S
C2625 C2627 1.390 . S
C2625 H2629 0.950 . S
H2626 C2622 0.950 . S
C2627 C2625 1.390 . S
C2627 C2628 1.387 . S
C2627 H2630 0.950 . S
C2628 C2627 1.387 . S
C2628 C2631 1.387 . S
H2629 C2625 0.950 . S
H2630 C2627 0.950 . S
C2631 C2622 1.390 . S
C2631 H2624 0.950 . S
C2631 C2628 1.387 . S
C2632 C2633 1.387 . S
C2632 H2636 0.950 . S
C2632 C2641 1.390 . S
C2633 C2632 1.387 . S
C2633 C2635 1.387 . S
H2634 C2641 0.950 . S
C2635 C2633 1.387 . S
C2635 C2637 1.390 . S
C2635 H2639 0.950 . S
H2636 C2632 0.950 . S
C2637 C2635 1.390 . S
C2637 C2638 1.387 . S
C2637 H2640 0.950 . S
C2638 C2637 1.387 . S
C2638 C2641 1.387 . S
H2639 C2635 0.950 . S
H2640 C2637 0.950 . S
C2641 C2632 1.390 . S
C2641 H2634 0.950 . S
C2641 C2638 1.387 . S
C2642 C2643 1.387 . S
C2642 H2646 0.950 . S
C2642 C2651 1.390 . S
C2643 C2642 1.387 . S
C2643 C2645 1.387 . S
H2644 C2651 0.950 . S
C2645 C2643 1.387 . S
C2645 C2647 1.390 . S
C2645 H2649 0.950 . S
H2646 C2642 0.950 . S
C2647 C2645 1.390 . S
C2647 C2648 1.387 . S
C2647 H2650 0.950 . S
C2648 C2647 1.387 . S
C2648 C2651 1.387 . S
H2649 C2645 0.950 . S
H2650 C2647 0.950 . S
C2651 C2642 1.390 . S
C2651 H2644 0.950 . S
C2651 C2648 1.387 . S
C2652 C2653 1.387 . S
C2652 H2656 0.950 . S
C2652 C2661 1.390 . S
C2653 C2652 1.387 . S
C2653 C2655 1.387 . S
H2654 C2661 0.950 . S
C2655 C2653 1.387 . S
C2655 C2657 1.390 . S
C2655 H2659 0.950 . S
H2656 C2652 0.950 . S
C2657 C2655 1.390 . S
C2657 C2658 1.387 . S
C2657 H2660 0.950 . S
C2658 C2657 1.387 . S
C2658 C2661 1.387 . S
H2659 C2655 0.950 . S
H2660 C2657 0.950 . S
C2661 C2652 1.390 . S
C2661 H2654 0.950 . S
C2661 C2658 1.387 . S
C2662 C2663 1.387 . S
C2662 H2666 0.950 . S
C2662 C2671 1.390 . S
C2663 C2662 1.387 . S
C2663 C2665 1.387 . S
H2664 C2671 0.950 . S
C2665 C2663 1.387 . S
C2665 C2667 1.390 . S
C2665 H2669 0.950 . S
H2666 C2662 0.950 . S
C2667 C2665 1.390 . S
C2667 C2668 1.387 . S
C2667 H2670 0.950 . S
C2668 C2667 1.387 . S
C2668 C2671 1.387 . S
H2669 C2665 0.950 . S
H2670 C2667 0.950 . S
C2671 C2662 1.390 . S
C2671 H2664 0.950 . S
C2671 C2668 1.387 . S
C2672 C2673 1.387 . S
C2672 H2676 0.950 . S
C2672 C2681 1.390 . S
C2673 C2672 1.387 . S
C2673 C2675 1.387 . S
H2674 C2681 0.950 . S
C2675 C2673 1.387 . S
C2675 C2677 1.390 . S
C2675 H2679 0.950 . S
H2676 C2672 0.950 . S
C2677 C2675 1.390 . S
C2677 C2678 1.387 . S
C2677 H2680 0.950 . S
C2678 C2677 1.387 . S
C2678 C2681 1.387 . S
H2679 C2675 0.950 . S
H2680 C2677 0.950 . S
C2681 C2672 1.390 . S
C2681 H2674 0.950 . S
C2681 C2678 1.387 . S
C2682 C2683 1.387 . S
C2682 H2686 0.950 . S
C2682 C2691 1.390 . S
C2683 C2682 1.387 . S
C2683 C2685 1.387 . S
H2684 C2691 0.950 . S
C2685 C2683 1.387 . S
C2685 C2687 1.390 . S
C2685 H2689 0.950 . S
H2686 C2682 0.950 . S
C2687 C2685 1.390 . S
C2687 C2688 1.387 . S
C2687 H2690 0.950 . S
C2688 C2687 1.387 . S
C2688 C2691 1.387 . S
H2689 C2685 0.950 . S
H2690 C2687 0.950 . S
C2691 C2682 1.390 . S
C2691 H2684 0.950 . S
C2691 C2688 1.387 . S
C2692 C2693 1.387 . S
C2692 H2696 0.950 . S
C2692 C2701 1.390 . S
C2693 C2692 1.387 . S
C2693 C2695 1.387 . S
H2694 C2701 0.950 . S
C2695 C2693 1.387 . S
C2695 C2697 1.390 . S
C2695 H2699 0.950 . S
H2696 C2692 0.950 . S
C2697 C2695 1.390 . S
C2697 C2698 1.387 . S
C2697 H2700 0.950 . S
C2698 C2697 1.387 . S
C2698 C2701 1.387 . S
H2699 C2695 0.950 . S
H2700 C2697 0.950 . S
C2701 C2692 1.390 . S
C2701 H2694 0.950 . S
C2701 C2698 1.387 . S
C2702 C2703 1.387 . S
C2702 H2706 0.950 . S
C2702 C2711 1.390 . S
C2703 C2702 1.387 . S
C2703 C2705 1.387 . S
H2704 C2711 0.950 . S
C2705 C2703 1.387 . S
C2705 C2707 1.390 . S
C2705 H2709 0.950 . S
H2706 C2702 0.950 . S
C2707 C2705 1.390 . S
C2707 C2708 1.387 . S
C2707 H2710 0.950 . S
C2708 C2707 1.387 . S
C2708 C2711 1.387 . S
H2709 C2705 0.950 . S
H2710 C2707 0.950 . S
C2711 C2702 1.390 . S
C2711 H2704 0.950 . S
C2711 C2708 1.387 . S
C2712 C2713 1.387 . S
C2712 H2716 0.950 . S
C2712 C2721 1.390 . S
C2713 C2712 1.387 . S
C2713 C2715 1.387 . S
H2714 C2721 0.950 . S
C2715 C2713 1.387 . S
C2715 C2717 1.390 . S
C2715 H2719 0.950 . S
H2716 C2712 0.950 . S
C2717 C2715 1.390 . S
C2717 C2718 1.387 . S
C2717 H2720 0.950 . S
C2718 C2717 1.387 . S
C2718 C2721 1.387 . S
H2719 C2715 0.950 . S
H2720 C2717 0.950 . S
C2721 C2712 1.390 . S
C2721 H2714 0.950 . S
C2721 C2718 1.387 . S
C2722 C2723 1.387 . S
C2722 H2726 0.950 . S
C2722 C2731 1.390 . S
C2723 C2722 1.387 . S
C2723 C2725 1.387 . S
H2724 C2731 0.950 . S
C2725 C2723 1.387 . S
C2725 C2727 1.390 . S
C2725 H2729 0.950 . S
H2726 C2722 0.950 . S
C2727 C2725 1.390 . S
C2727 C2728 1.387 . S
C2727 H2730 0.950 . S
C2728 C2727 1.387 . S
C2728 C2731 1.387 . S
H2729 C2725 0.950 . S
H2730 C2727 0.950 . S
C2731 C2722 1.390 . S
C2731 H2724 0.950 . S
C2731 C2728 1.387 . S
C2732 C2733 1.387 . S
C2732 H2736 0.950 . S
C2732 C2741 1.390 . S
C2733 C2732 1.387 . S
C2733 C2735 1.387 . S
H2734 C2741 0.950 . S
C2735 C2733 1.387 . S
C2735 C2737 1.390 . S
C2735 H2739 0.950 . S
H2736 C2732 0.950 . S
C2737 C2735 1.390 . S
C2737 C2738 1.387 . S
C2737 H2740 0.950 . S
C2738 C2737 1.387 . S
C2738 C2741 1.387 . S
H2739 C2735 0.950 . S
H2740 C2737 0.950 . S
C2741 C2732 1.390 . S
C2741 H2734 0.950 . S
C2741 C2738 1.387 . S
C2742 C2743 1.387 . S
C2742 H2746 0.950 . S
C2742 C2751 1.390 . S
C2743 C2742 1.387 . S
C2743 C2745 1.387 . S
H2744 C2751 0.950 . S
C2745 C2743 1.387 . S
C2745 C2747 1.390 . S
C2745 H2749 0.950 . S
H2746 C2742 0.950 . S
C2747 C2745 1.390 . S
C2747 C2748 1.387 . S
C2747 H2750 0.950 . S
C2748 C2747 1.387 . S
C2748 C2751 1.387 . S
H2749 C2745 0.950 . S
H2750 C2747 0.950 . S
C2751 C2742 1.390 . S
C2751 H2744 0.950 . S
C2751 C2748 1.387 . S
C2752 C2753 1.387 . S
C2752 H2756 0.950 . S
C2752 C2761 1.390 . S
C2753 C2752 1.387 . S
C2753 C2755 1.387 . S
H2754 C2761 0.950 . S
C2755 C2753 1.387 . S
C2755 C2757 1.390 . S
C2755 H2759 0.950 . S
H2756 C2752 0.950 . S
C2757 C2755 1.390 . S
C2757 C2758 1.387 . S
C2757 H2760 0.950 . S
C2758 C2757 1.387 . S
C2758 C2761 1.387 . S
H2759 C2755 0.950 . S
H2760 C2757 0.950 . S
C2761 C2752 1.390 . S
C2761 H2754 0.950 . S
C2761 C2758 1.387 . S
C2762 C2763 1.387 . S
C2762 H2766 0.950 . S
C2762 C2771 1.390 . S
C2763 C2762 1.387 . S
C2763 C2765 1.387 . S
H2764 C2771 0.950 . S
C2765 C2763 1.387 . S
C2765 C2767 1.390 . S
C2765 H2769 0.950 . S
H2766 C2762 0.950 . S
C2767 C2765 1.390 . S
C2767 C2768 1.387 . S
C2767 H2770 0.950 . S
C2768 C2767 1.387 . S
C2768 C2771 1.387 . S
H2769 C2765 0.950 . S
H2770 C2767 0.950 . S
C2771 C2762 1.390 . S
C2771 H2764 0.950 . S
C2771 C2768 1.387 . S
C2772 C2773 1.387 . S
C2772 H2776 0.950 . S
C2772 C2781 1.390 . S
C2773 C2772 1.387 . S
C2773 C2775 1.387 . S
H2774 C2781 0.950 . S
C2775 C2773 1.387 . S
C2775 C2777 1.390 . S
C2775 H2779 0.950 . S
H2776 C2772 0.950 . S
C2777 C2775 1.390 . S
C2777 C2778 1.387 . S
C2777 H2780 0.950 . S
C2778 C2777 1.387 . S
C2778 C2781 1.387 . S
H2779 C2775 0.950 . S
H2780 C2777 0.950 . S
C2781 C2772 1.390 . S
C2781 H2774 0.950 . S
C2781 C2778 1.387 . S
C2782 C2783 1.387 . S
C2782 H2786 0.950 . S
C2782 C2791 1.390 . S
C2783 C2782 1.387 . S
C2783 C2785 1.387 . S
H2784 C2791 0.950 . S
C2785 C2783 1.387 . S
C2785 C2787 1.390 . S
C2785 H2789 0.950 . S
H2786 C2782 0.950 . S
C2787 C2785 1.390 . S
C2787 C2788 1.387 . S
C2787 H2790 0.950 . S
C2788 C2787 1.387 . S
C2788 C2791 1.387 . S
H2789 C2785 0.950 . S
H2790 C2787 0.950 . S
C2791 C2782 1.390 . S
C2791 H2784 0.950 . S
C2791 C2788 1.387 . S
C2792 C2793 1.387 . S
C2792 H2796 0.950 . S
C2792 C2801 1.390 . S
C2793 C2792 1.387 . S
C2793 C2795 1.387 . S
H2794 C2801 0.950 . S
C2795 C2793 1.387 . S
C2795 C2797 1.390 . S
C2795 H2799 0.950 . S
H2796 C2792 0.950 . S
C2797 C2795 1.390 . S
C2797 C2798 1.387 . S
C2797 H2800 0.950 . S
C2798 C2797 1.387 . S
C2798 C2801 1.387 . S
H2799 C2795 0.950 . S
H2800 C2797 0.950 . S
C2801 C2792 1.390 . S
C2801 H2794 0.950 . S
C2801 C2798 1.387 . S
C2802 C2803 1.387 . S
C2802 H2806 0.950 . S
C2802 C2811 1.390 . S
C2803 C2802 1.387 . S
C2803 C2805 1.387 . S
H2804 C2811 0.950 . S
C2805 C2803 1.387 . S
C2805 C2807 1.390 . S
C2805 H2809 0.950 . S
H2806 C2802 0.950 . S
C2807 C2805 1.390 . S
C2807 C2808 1.387 . S
C2807 H2810 0.950 . S
C2808 C2807 1.387 . S
C2808 C2811 1.387 . S
H2809 C2805 0.950 . S
H2810 C2807 0.950 . S
C2811 C2802 1.390 . S
C2811 H2804 0.950 . S
C2811 C2808 1.387 . S
C2812 C2813 1.387 . S
C2812 H2816 0.950 . S
C2812 C2821 1.390 . S
C2813 C2812 1.387 . S
C2813 C2815 1.387 . S
H2814 C2821 0.950 . S
C2815 C2813 1.387 . S
C2815 C2817 1.390 . S
C2815 H2819 0.950 . S
H2816 C2812 0.950 . S
C2817 C2815 1.390 . S
C2817 C2818 1.387 . S
C2817 H2820 0.950 . S
C2818 C2817 1.387 . S
C2818 C2821 1.387 . S
H2819 C2815 0.950 . S
H2820 C2817 0.950 . S
C2821 C2812 1.390 . S
C2821 H2814 0.950 . S
C2821 C2818 1.387 . S
C2822 C2823 1.387 . S
C2822 H2826 0.950 . S
C2822 C2831 1.390 . S
C2823 C2822 1.387 . S
C2823 C2825 1.387 . S
H2824 C2831 0.950 . S
C2825 C2823 1.387 . S
C2825 C2827 1.390 . S
C2825 H2829 0.950 . S
H2826 C2822 0.950 . S
C2827 C2825 1.390 . S
C2827 C2828 1.387 . S
C2827 H2830 0.950 . S
C2828 C2827 1.387 . S
C2828 C2831 1.387 . S
H2829 C2825 0.950 . S
H2830 C2827 0.950 . S
C2831 C2822 1.390 . S
C2831 H2824 0.950 . S
C2831 C2828 1.387 . S
C2832 C2833 1.387 . S
C2832 H2836 0.950 . S
C2832 C2841 1.390 . S
C2833 C2832 1.387 . S
C2833 C2835 1.387 . S
H2834 C2841 0.950 . S
C2835 C2833 1.387 . S
C2835 C2837 1.390 . S
C2835 H2839 0.950 . S
H2836 C2832 0.950 . S
C2837 C2835 1.390 . S
C2837 C2838 1.387 . S
C2837 H2840 0.950 . S
C2838 C2837 1.387 . S
C2838 C2841 1.387 . S
H2839 C2835 0.950 . S
H2840 C2837 0.950 . S
C2841 C2832 1.390 . S
C2841 H2834 0.950 . S
C2841 C2838 1.387 . S
C2842 C2843 1.387 . S
C2842 H2846 0.950 . S
C2842 C2851 1.390 . S
C2843 C2842 1.387 . S
C2843 C2845 1.387 . S
H2844 C2851 0.950 . S
C2845 C2843 1.387 . S
C2845 C2847 1.390 . S
C2845 H2849 0.950 . S
H2846 C2842 0.950 . S
C2847 C2845 1.390 . S
C2847 C2848 1.387 . S
C2847 H2850 0.950 . S
C2848 C2847 1.387 . S
C2848 C2851 1.387 . S
H2849 C2845 0.950 . S
H2850 C2847 0.950 . S
C2851 C2842 1.390 . S
C2851 H2844 0.950 . S
C2851 C2848 1.387 . S
C2852 C2853 1.387 . S
C2852 H2856 0.950 . S
C2852 C2861 1.390 . S
C2853 C2852 1.387 . S
C2853 C2855 1.387 . S
H2854 C2861 0.950 . S
C2855 C2853 1.387 . S
C2855 C2857 1.390 . S
C2855 H2859 0.950 . S
H2856 C2852 0.950 . S
C2857 C2855 1.390 . S
C2857 C2858 1.387 . S
C2857 H2860 0.950 . S
C2858 C2857 1.387 . S
C2858 C2861 1.387 . S
H2859 C2855 0.950 . S
H2860 C2857 0.950 . S
C2861 C2852 1.390 . S
C2861 H2854 0.950 . S
C2861 C2858 1.387 . S
C2862 C2863 1.387 . S
C2862 H2866 0.950 . S
C2862 C2871 1.390 . S
C2863 C2862 1.387 . S
C2863 C2865 1.387 . S
H2864 C2871 0.950 . S
C2865 C2863 1.387 . S
C2865 C2867 1.390 . S
C2865 H2869 0.950 . S
H2866 C2862 0.950 . S
C2867 C2865 1.390 . S
C2867 C2868 1.387 . S
C2867 H2870 0.950 . S
C2868 C2867 1.387 . S
C2868 C2871 1.387 . S
H2869 C2865 0.950 . S
H2870 C2867 0.950 . S
C2871 C2862 1.390 . S
C2871 H2864 0.950 . S
C2871 C2868 1.387 . S
C2872 C2873 1.387 . S
C2872 H2876 0.950 . S
C2872 C2881 1.390 . S
C2873 C2872 1.387 . S
C2873 C2875 1.387 . S
H2874 C2881 0.950 . S
C2875 C2873 1.387 . S
C2875 C2877 1.390 . S
C2875 H2879 0.950 . S
H2876 C2872 0.950 . S
C2877 C2875 1.390 . S
C2877 C2878 1.387 . S
C2877 H2880 0.950 . S
C2878 C2877 1.387 . S
C2878 C2881 1.387 . S
H2879 C2875 0.950 . S
H2880 C2877 0.950 . S
C2881 C2872 1.390 . S
C2881 H2874 0.950 . S
C2881 C2878 1.387 . S
C2882 C2883 1.387 . S
C2882 H2886 0.950 . S
C2882 C2891 1.390 . S
C2883 C2882 1.387 . S
C2883 C2885 1.387 . S
H2884 C2891 0.950 . S
C2885 C2883 1.387 . S
C2885 C2887 1.390 . S
C2885 H2889 0.950 . S
H2886 C2882 0.950 . S
C2887 C2885 1.390 . S
C2887 C2888 1.387 . S
C2887 H2890 0.950 . S
C2888 C2887 1.387 . S
C2888 C2891 1.387 . S
H2889 C2885 0.950 . S
H2890 C2887 0.950 . S
C2891 C2882 1.390 . S
C2891 H2884 0.950 . S
C2891 C2888 1.387 . S
C2892 C2893 1.387 . S
C2892 H2896 0.950 . S
C2892 C2901 1.390 . S
C2893 C2892 1.387 . S
C2893 C2895 1.387 . S
H2894 C2901 0.950 . S
C2895 C2893 1.387 . S
C2895 C2897 1.390 . S
C2895 H2899 0.950 . S
H2896 C2892 0.950 . S
C2897 C2895 1.390 . S
C2897 C2898 1.387 . S
C2897 H2900 0.950 . S
C2898 C2897 1.387 . S
C2898 C2901 1.387 . S
H2899 C2895 0.950 . S
H2900 C2897 0.950 . S
C2901 C2892 1.390 . S
C2901 H2894 0.950 . S
C2901 C2898 1.387 . S
C2902 C2903 1.387 . S
C2902 H2906 0.950 . S
C2902 C2911 1.390 . S
C2903 C2902 1.387 . S
C2903 C2905 1.387 . S
H2904 C2911 0.950 . S
C2905 C2903 1.387 . S
C2905 C2907 1.390 . S
C2905 H2909 0.950 . S
H2906 C2902 0.950 . S
C2907 C2905 1.390 . S
C2907 C2908 1.387 . S
C2907 H2910 0.950 . S
C2908 C2907 1.387 . S
C2908 C2911 1.387 . S
H2909 C2905 0.950 . S
H2910 C2907 0.950 . S
C2911 C2902 1.390 . S
C2911 H2904 0.950 . S
C2911 C2908 1.387 . S
C2912 C2913 1.387 . S
C2912 H2916 0.950 . S
C2912 C2921 1.390 . S
C2913 C2912 1.387 . S
C2913 C2915 1.387 . S
H2914 C2921 0.950 . S
C2915 C2913 1.387 . S
C2915 C2917 1.390 . S
C2915 H2919 0.950 . S
H2916 C2912 0.950 . S
C2917 C2915 1.390 . S
C2917 C2918 1.387 . S
C2917 H2920 0.950 . S
C2918 C2917 1.387 . S
C2918 C2921 1.387 . S
H2919 C2915 0.950 . S
H2920 C2917 0.950 . S
C2921 C2912 1.390 . S
C2921 H2914 0.950 . S
C2921 C2918 1.387 . S
C2922 C2923 1.387 . S
C2922 H2926 0.950 . S
C2922 C2931 1.390 . S
C2923 C2922 1.387 . S
C2923 C2925 1.387 . S
H2924 C2931 0.950 . S
C2925 C2923 1.387 . S
C2925 C2927 1.390 . S
C2925 H2929 0.950 . S
H2926 C2922 0.950 . S
C2927 C2925 1.390 . S
C2927 C2928 1.387 . S
C2927 H2930 0.950 . S
C2928 C2927 1.387 . S
C2928 C2931 1.387 . S
H2929 C2925 0.950 . S
H2930 C2927 0.950 . S
C2931 C2922 1.390 . S
C2931 H2924 0.950 . S
C2931 C2928 1.387 . S
C2932 C2933 1.387 . S
C2932 H2936 0.950 . S
C2932 C2941 1.390 . S
C2933 C2932 1.387 . S
C2933 C2935 1.387 . S
H2934 C2941 0.950 . S
C2935 C2933 1.387 . S
C2935 C2937 1.390 . S
C2935 H2939 0.950 . S
H2936 C2932 0.950 . S
C2937 C2935 1.390 . S
C2937 C2938 1.387 . S
C2937 H2940 0.950 . S
C2938 C2937 1.387 . S
C2938 C2941 1.387 . S
H2939 C2935 0.950 . S
H2940 C2937 0.950 . S
C2941 C2932 1.390 . S
C2941 H2934 0.950 . S
C2941 C2938 1.387 . S
C2942 C2943 1.387 . S
C2942 H2946 0.950 . S
C2942 C2951 1.390 . S
C2943 C2942 1.387 . S
C2943 C2945 1.387 . S
H2944 C2951 0.950 . S
C2945 C2943 1.387 . S
C2945 C2947 1.390 . S
C2945 H2949 0.950 . S
H2946 C2942 0.950 . S
C2947 C2945 1.390 . S
C2947 C2948 1.387 . S
C2947 H2950 0.950 . S
C2948 C2947 1.387 . S
C2948 C2951 1.387 . S
H2949 C2945 0.950 . S
H2950 C2947 0.950 . S
C2951 C2942 1.390 . S
C2951 H2944 0.950 . S
C2951 C2948 1.387 . S
C2952 C2953 1.387 . S
C2952 H2956 0.950 . S
C2952 C2961 1.390 . S
C2953 C2952 1.387 . S
C2953 C2955 1.387 . S
H2954 C2961 0.950 . S
C2955 C2953 1.387 . S
C2955 C2957 1.390 . S
C2955 H2959 0.950 . S
H2956 C2952 0.950 . S
C2957 C2955 1.390 . S
C2957 C2958 1.387 . S
C2957 H2960 0.950 . S
C2958 C2957 1.387 . S
C2958 C2961 1.387 . S
H2959 C2955 0.950 . S
H2960 C2957 0.950 . S
C2961 C2952 1.390 . S
C2961 H2954 0.950 . S
C2961 C2958 1.387 . S
C2962 C2963 1.387 . S
C2962 H2966 0.950 . S
C2962 C2971 1.390 . S
C2963 C2962 1.387 . S
C2963 C2965 1.387 . S
H2964 C2971 0.950 . S
C2965 C2963 1.387 . S
C2965 C2967 1.390 . S
C2965 H2969 0.950 . S
H2966 C2962 0.950 . S
C2967 C2965 1.390 . S
C2967 C2968 1.387 . S
C2967 H2970 0.950 . S
C2968 C2967 1.387 . S
C2968 C2971 1.387 . S
H2969 C2965 0.950 . S
H2970 C2967 0.950 . S
C2971 C2962 1.390 . S
C2971 H2964 0.950 . S
C2971 C2968 1.387 . S
C2972 C2973 1.387 . S
C2972 H2976 0.950 . S
C2972 C2981 1.390 . S
C2973 C2972 1.387 . S
C2973 C2975 1.387 . S
H2974 C2981 0.950 . S
C2975 C2973 1.387 . S
C2975 C2977 1.390 . S
C2975 H2979 0.950 . S
H2976 C2972 0.950 . S
C2977 C2975 1.390 . S
C2977 C2978 1.387 . S
C2977 H2980 0.950 . S
C2978 C2977 1.387 . S
C2978 C2981 1.387 . S
H2979 C2975 0.950 . S
H2980 C2977 0.950 . S
C2981 C2972 1.390 . S
C2981 H2974 0.950 . S
C2981 C2978 1.387 . S
C2982 C2983 1.387 . S
C2982 H2986 0.950 . S
C2982 C2991 1.390 . S
C2983 C2982 1.387 . S
C2983 C2985 1.387 . S
H2984 C2991 0.950 . S
C2985 C2983 1.387 . S
C2985 C2987 1.390 . S
C2985 H2989 0.950 . S
H2986 C2982 0.950 . S
C2987 C2985 1.390 . S
C2987 C2988 1.387 . S
C2987 H2990 0.950 . S
C2988 C2987 1.387 . S
C2988 C2991 1.387 . S
H2989 C2985 0.950 . S
H2990 C2987 0.950 . S
C2991 C2982 1.390 . S
C2991 H2984 0.950 . S
C2991 C2988 1.387 . S
C2992 C2993 1.387 . S
C2992 H2996 0.950 . S
C2992 C3001 1.390 . S
C2993 C2992 1.387 . S
C2993 C2995 1.387 . S
H2994 C3001 0.950 . S
C2995 C2993 1.387 . S
C2995 C2997 1.390 . S
C2995 H2999 0.950 . S
H2996 C2992 0.950 . S
C2997 C2995 1.390 . S
C2997 C2998 1.387 . S
C2997 H3000 0.950 . S
C2998 C2997 1.387 . S
C2998 C3001 1.387 . S
H2999 C2995 0.950 . S
H3000 C2997 0.950 . S
C3001 C2992 1.390 . S
C3001 H2994 0.950 . S
C3001 C2998 1.387 . S
C3002 C3003 1.387 . S
C3002 H3006 0.950 . S
C3002 C3011 1.390 . S
C3003 C3002 1.387 . S
C3003 C3005 1.387 . S
H3004 C3011 0.950 . S
C3005 C3003 1.387 . S
C3005 C3007 1.390 . S
C3005 H3009 0.950 . S
H3006 C3002 0.950 . S
C3007 C3005 1.390 . S
C3007 C3008 1.387 . S
C3007 H3010 0.950 . S
C3008 C3007 1.387 . S
C3008 C3011 1.387 . S
H3009 C3005 0.950 . S
H3010 C3007 0.950 . S
C3011 C3002 1.390 . S
C3011 H3004 0.950 . S
C3011 C3008 1.387 . S
C3012 C3013 1.387 . S
C3012 H3016 0.950 . S
C3012 C3021 1.390 . S
C3013 C3012 1.387 . S
C3013 C3015 1.387 . S
H3014 C3021 0.950 . S
C3015 C3013 1.387 . S
C3015 C3017 1.390 . S
C3015 H3019 0.950 . S
H3016 C3012 0.950 . S
C3017 C3015 1.390 . S
C3017 C3018 1.387 . S
C3017 H3020 0.950 . S
C3018 C3017 1.387 . S
C3018 C3021 1.387 . S
H3019 C3015 0.950 . S
H3020 C3017 0.950 . S
C3021 C3012 1.390 . S
C3021 H3014 0.950 . S
C3021 C3018 1.387 . S
C3022 C3023 1.387 . S
C3022 H3026 0.950 . S
C3022 C3031 1.390 . S
C3023 C3022 1.387 . S
C3023 C3025 1.387 . S
H3024 C3031 0.950 . S
C3025 C3023 1.387 . S
C3025 C3027 1.390 . S
C3025 H3029 0.950 . S
H3026 C3022 0.950 . S
C3027 C3025 1.390 . S
C3027 C3028 1.387 . S
C3027 H3030 0.950 . S
C3028 C3027 1.387 . S
C3028 C3031 1.387 . S
H3029 C3025 0.950 . S
H3030 C3027 0.950 . S
C3031 C3022 1.390 . S
C3031 H3024 0.950 . S
C3031 C3028 1.387 . S
C3032 C3033 1.387 . S
C3032 H3036 0.950 . S
C3032 C3041 1.390 . S
C3033 C3032 1.387 . S
C3033 C3035 1.387 . S
H3034 C3041 0.950 . S
C3035 C3033 1.387 . S
C3035 C3037 1.390 . S
C3035 H3039 0.950 . S
H3036 C3032 0.950 . S
C3037 C3035 1.390 . S
C3037 C3038 1.387 . S
C3037 H3040 0.950 . S
C3038 C3037 1.387 . S
C3038 C3041 1.387 . S
H3039 C3035 0.950 . S
H3040 C3037 0.950 . S
C3041 C3032 1.390 . S
C3041 H3034 0.950 . S
C3041 C3038 1.387 . S
C3042 C3043 1.387 . S
C3042 H3046 0.950 . S
C3042 C3051 1.390 . S
C3043 C3042 1.387 . S
C3043 C3045 1.387 . S
H3044 C3051 0.950 . S
C3045 C3043 1.387 . S
C3045 C3047 1.390 . S
C3045 H3049 0.950 . S
H3046 C3042 0.950 . S
C3047 C3045 1.390 . S
C3047 C3048 1.387 . S
C3047 H3050 0.950 . S
C3048 C3047 1.387 . S
C3048 C3051 1.387 . S
H3049 C3045 0.950 . S
H3050 C3047 0.950 . S
C3051 C3042 1.390 . S
C3051 H3044 0.950 . S
C3051 C3048 1.387 . S
C3052 C3053 1.387 . S
C3052 H3056 0.950 . S
C3052 C3061 1.390 . S
C3053 C3052 1.387 . S
C3053 C3055 1.387 . S
H3054 C3061 0.950 . S
C3055 C3053 1.387 . S
C3055 C3057 1.390 . S
C3055 H3059 0.950 . S
H3056 C3052 0.950 . S
C3057 C3055 1.390 . S
C3057 C3058 1.387 . S
C3057 H3060 0.950 . S
C3058 C3057 1.387 . S
C3058 C3061 1.387 . S
H3059 C3055 0.950 . S
H3060 C3057 0.950 . S
C3061 C3052 1.390 . S
C3061 H3054 0.950 . S
C3061 C3058 1.387 . S
C3062 C3063 1.387 . S
C3062 H3066 0.950 . S
C3062 C3071 1.390 . S
C3063 C3062 1.387 . S
C3063 C3065 1.387 . S
H3064 C3071 0.950 . S
C3065 C3063 1.387 . S
C3065 C3067 1.390 . S
C3065 H3069 0.950 . S
H3066 C3062 0.950 . S
C3067 C3065 1.390 . S
C3067 C3068 1.387 . S
C3067 H3070 0.950 . S
C3068 C3067 1.387 . S
C3068 C3071 1.387 . S
H3069 C3065 0.950 . S
H3070 C3067 0.950 . S
C3071 C3062 1.390 . S
C3071 H3064 0.950 . S
C3071 C3068 1.387 . S
C3072 C3073 1.387 . S
C3072 H3076 0.950 . S
C3072 C3081 1.390 . S
C3073 C3072 1.387 . S
C3073 C3075 1.387 . S
H3074 C3081 0.950 . S
C3075 C3073 1.387 . S
C3075 C3077 1.390 . S
C3075 H3079 0.950 . S
H3076 C3072 0.950 . S
C3077 C3075 1.390 . S
C3077 C3078 1.387 . S
C3077 H3080 0.950 . S
C3078 C3077 1.387 . S
C3078 C3081 1.387 . S
H3079 C3075 0.950 . S
H3080 C3077 0.950 . S
C3081 C3072 1.390 . S
C3081 H3074 0.950 . S
C3081 C3078 1.387 . S
C3082 C3083 1.387 . S
C3082 H3086 0.950 . S
C3082 C3091 1.390 . S
C3083 C3082 1.387 . S
C3083 C3085 1.387 . S
H3084 C3091 0.950 . S
C3085 C3083 1.387 . S
C3085 C3087 1.390 . S
C3085 H3089 0.950 . S
H3086 C3082 0.950 . S
C3087 C3085 1.390 . S
C3087 C3088 1.387 . S
C3087 H3090 0.950 . S
C3088 C3087 1.387 . S
C3088 C3091 1.387 . S
H3089 C3085 0.950 . S
H3090 C3087 0.950 . S
C3091 C3082 1.390 . S
C3091 H3084 0.950 . S
C3091 C3088 1.387 . S
C3092 C3093 1.387 . S
C3092 H3096 0.950 . S
C3092 C3101 1.390 . S
C3093 C3092 1.387 . S
C3093 C3095 1.387 . S
H3094 C3101 0.950 . S
C3095 C3093 1.387 . S
C3095 C3097 1.390 . S
C3095 H3099 0.950 . S
H3096 C3092 0.950 . S
C3097 C3095 1.390 . S
C3097 C3098 1.387 . S
C3097 H3100 0.950 . S
C3098 C3097 1.387 . S
C3098 C3101 1.387 . S
H3099 C3095 0.950 . S
H3100 C3097 0.950 . S
C3101 C3092 1.390 . S
C3101 H3094 0.950 . S
C3101 C3098 1.387 . S
C3102 C3103 1.387 . S
C3102 H3106 0.950 . S
C3102 C3111 1.390 . S
C3103 C3102 1.387 . S
C3103 C3105 1.387 . S
H3104 C3111 0.950 . S
C3105 C3103 1.387 . S
C3105 C3107 1.390 . S
C3105 H3109 0.950 . S
H3106 C3102 0.950 . S
C3107 C3105 1.390 . S
C3107 C3108 1.387 . S
C3107 H3110 0.950 . S
C3108 C3107 1.387 . S
C3108 C3111 1.387 . S
H3109 C3105 0.950 . S
H3110 C3107 0.950 . S
C3111 C3102 1.390 . S
C3111 H3104 0.950 . S
C3111 C3108 1.387 . S
C3112 C3113 1.387 . S
C3112 H3116 0.950 . S
C3112 C3121 1.390 . S
C3113 C3112 1.387 . S
C3113 C3115 1.387 . S
H3114 C3121 0.950 . S
C3115 C3113 1.387 . S
C3115 C3117 1.390 . S
C3115 H3119 0.950 . S
H3116 C3112 0.950 . S
C3117 C3115 1.390 . S
C3117 C3118 1.387 . S
C3117 H3120 0.950 . S
C3118 C3117 1.387 . S
C3118 C3121 1.387 . S
H3119 C3115 0.950 . S
H3120 C3117 0.950 . S
C3121 C3112 1.390 . S
C3121 H3114 0.950 . S
C3121 C3118 1.387 . S
C3122 C3123 1.387 . S
C3122 H3126 0.950 . S
C3122 C3131 1.390 . S
C3123 C3122 1.387 . S
C3123 C3125 1.387 . S
H3124 C3131 0.950 . S
C3125 C3123 1.387 . S
C3125 C3127 1.390 . S
C3125 H3129 0.950 . S
H3126 C3122 0.950 . S
C3127 C3125 1.390 . S
C3127 C3128 1.387 . S
C3127 H3130 0.950 . S
C3128 C3127 1.387 . S
C3128 C3131 1.387 . S
H3129 C3125 0.950 . S
H3130 C3127 0.950 . S
C3131 C3122 1.390 . S
C3131 H3124 0.950 . S
C3131 C3128 1.387 . S
C3132 C3133 1.387 . S
C3132 H3136 0.950 . S
C3132 C3141 1.390 . S
C3133 C3132 1.387 . S
C3133 C3135 1.387 . S
H3134 C3141 0.950 . S
C3135 C3133 1.387 . S
C3135 C3137 1.390 . S
C3135 H3139 0.950 . S
H3136 C3132 0.950 . S
C3137 C3135 1.390 . S
C3137 C3138 1.387 . S
C3137 H3140 0.950 . S
C3138 C3137 1.387 . S
C3138 C3141 1.387 . S
H3139 C3135 0.950 . S
H3140 C3137 0.950 . S
C3141 C3132 1.390 . S
C3141 H3134 0.950 . S
C3141 C3138 1.387 . S
C3142 C3143 1.387 . S
C3142 H3146 0.950 . S
C3142 C3151 1.390 . S
C3143 C3142 1.387 . S
C3143 C3145 1.387 . S
H3144 C3151 0.950 . S
C3145 C3143 1.387 . S
C3145 C3147 1.390 . S
C3145 H3149 0.950 . S
H3146 C3142 0.950 . S
C3147 C3145 1.390 . S
C3147 C3148 1.387 . S
C3147 H3150 0.950 . S
C3148 C3147 1.387 . S
C3148 C3151 1.387 . S
H3149 C3145 0.950 . S
H3150 C3147 0.950 . S
C3151 C3142 1.390 . S
C3151 H3144 0.950 . S
C3151 C3148 1.387 . S
C3152 C3153 1.387 . S
C3152 H3156 0.950 . S
C3152 C3161 1.390 . S
C3153 C3152 1.387 . S
C3153 C3155 1.387 . S
H3154 C3161 0.950 . S
C3155 C3153 1.387 . S
C3155 C3157 1.390 . S
C3155 H3159 0.950 . S
H3156 C3152 0.950 . S
C3157 C3155 1.390 . S
C3157 C3158 1.387 . S
C3157 H3160 0.950 . S
C3158 C3157 1.387 . S
C3158 C3161 1.387 . S
H3159 C3155 0.950 . S
H3160 C3157 0.950 . S
C3161 C3152 1.390 . S
C3161 H3154 0.950 . S
C3161 C3158 1.387 . S
C3162 C3163 1.387 . S
C3162 H3166 0.950 . S
C3162 C3171 1.390 . S
C3163 C3162 1.387 . S
C3163 C3165 1.387 . S
H3164 C3171 0.950 . S
C3165 C3163 1.387 . S
C3165 C3167 1.390 . S
C3165 H3169 0.950 . S
H3166 C3162 0.950 . S
C3167 C3165 1.390 . S
C3167 C3168 1.387 . S
C3167 H3170 0.950 . S
C3168 C3167 1.387 . S
C3168 C3171 1.387 . S
H3169 C3165 0.950 . S
H3170 C3167 0.950 . S
C3171 C3162 1.390 . S
C3171 H3164 0.950 . S
C3171 C3168 1.387 . S
C3172 C3173 1.387 . S
C3172 H3176 0.950 . S
C3172 C3181 1.390 . S
C3173 C3172 1.387 . S
C3173 C3175 1.387 . S
H3174 C3181 0.950 . S
C3175 C3173 1.387 . S
C3175 C3177 1.390 . S
C3175 H3179 0.950 . S
H3176 C3172 0.950 . S
C3177 C3175 1.390 . S
C3177 C3178 1.387 . S
C3177 H3180 0.950 . S
C3178 C3177 1.387 . S
C3178 C3181 1.387 . S
H3179 C3175 0.950 . S
H3180 C3177 0.950 . S
C3181 C3172 1.390 . S
C3181 H3174 0.950 . S
C3181 C3178 1.387 . S
C3182 C3183 1.387 . S
C3182 H3186 0.950 . S
C3182 C3191 1.390 . S
C3183 C3182 1.387 . S
C3183 C3185 1.387 . S
H3184 C3191 0.950 . S
C3185 C3183 1.387 . S
C3185 C3187 1.390 . S
C3185 H3189 0.950 . S
H3186 C3182 0.950 . S
C3187 C3185 1.390 . S
C3187 C3188 1.387 . S
C3187 H3190 0.950 . S
C3188 C3187 1.387 . S
C3188 C3191 1.387 . S
H3189 C3185 0.950 . S
H3190 C3187 0.950 . S
C3191 C3182 1.390 . S
C3191 H3184 0.950 . S
C3191 C3188 1.387 . S
C3192 C3193 1.387 . S
C3192 H3196 0.950 . S
C3192 C3201 1.390 . S
C3193 C3192 1.387 . S
C3193 C3195 1.387 . S
H3194 C3201 0.950 . S
C3195 C3193 1.387 . S
C3195 C3197 1.390 . S
C3195 H3199 0.950 . S
H3196 C3192 0.950 . S
C3197 C3195 1.390 . S
C3197 C3198 1.387 . S
C3197 H3200 0.950 . S
C3198 C3197 1.387 . S
C3198 C3201 1.387 . S
H3199 C3195 0.950 . S
H3200 C3197 0.950 . S
C3201 C3192 1.390 . S
C3201 H3194 0.950 . S
C3201 C3198 1.387 . S
C3202 C3203 1.387 . S
C3202 H3206 0.950 . S
C3202 C3211 1.390 . S
C3203 C3202 1.387 . S
C3203 C3205 1.387 . S
H3204 C3211 0.950 . S
C3205 C3203 1.387 . S
C3205 C3207 1.390 . S
C3205 H3209 0.950 . S
H3206 C3202 0.950 . S
C3207 C3205 1.390 . S
C3207 C3208 1.387 . S
C3207 H3210 0.950 . S
C3208 C3207 1.387 . S
C3208 C3211 1.387 . S
H3209 C3205 0.950 . S
H3210 C3207 0.950 . S
C3211 C3202 1.390 . S
C3211 H3204 0.950 . S
C3211 C3208 1.387 . S
C3212 C3213 1.387 . S
C3212 H3216 0.950 . S
C3212 C3221 1.390 . S
C3213 C3212 1.387 . S
C3213 C3215 1.387 . S
H3214 C3221 0.950 . S
C3215 C3213 1.387 . S
C3215 C3217 1.390 . S
C3215 H3219 0.950 . S
H3216 C3212 0.950 . S
C3217 C3215 1.390 . S
C3217 C3218 1.387 . S
C3217 H3220 0.950 . S
C3218 C3217 1.387 . S
C3218 C3221 1.387 . S
H3219 C3215 0.950 . S
H3220 C3217 0.950 . S
C3221 C3212 1.390 . S
C3221 H3214 0.950 . S
C3221 C3218 1.387 . S
C3222 C3223 1.387 . S
C3222 H3226 0.950 . S
C3222 C3231 1.390 . S
C3223 C3222 1.387 . S
C3223 C3225 1.387 . S
H3224 C3231 0.950 . S
C3225 C3223 1.387 . S
C3225 C3227 1.390 . S
C3225 H3229 0.950 . S
H3226 C3222 0.950 . S
C3227 C3225 1.390 . S
C3227 C3228 1.387 . S
C3227 H3230 0.950 . S
C3228 C3227 1.387 . S
C3228 C3231 1.387 . S
H3229 C3225 0.950 . S
H3230 C3227 0.950 . S
C3231 C3222 1.390 . S
C3231 H3224 0.950 . S
C3231 C3228 1.387 . S
C3232 C3233 1.387 . S
C3232 H3236 0.950 . S
C3232 C3241 1.390 . S
C3233 C3232 1.387 . S
C3233 C3235 1.387 . S
H3234 C3241 0.950 . S
C3235 C3233 1.387 . S
C3235 C3237 1.390 . S
C3235 H3239 0.950 . S
H3236 C3232 0.950 . S
C3237 C3235 1.390 . S
C3237 C3238 1.387 . S
C3237 H3240 0.950 . S
C3238 C3237 1.387 . S
C3238 C3241 1.387 . S
H3239 C3235 0.950 . S
H3240 C3237 0.950 . S
C3241 C3232 1.390 . S
C3241 H3234 0.950 . S
C3241 C3238 1.387 . S
C3242 C3243 1.387 . S
C3242 H3246 0.950 . S
C3242 C3251 1.390 . S
C3243 C3242 1.387 . S
C3243 C3245 1.387 . S
H3244 C3251 0.950 . S
C3245 C3243 1.387 . S
C3245 C3247 1.390 . S
C3245 H3249 0.950 . S
H3246 C3242 0.950 . S
C3247 C3245 1.390 . S
C3247 C3248 1.387 . S
C3247 H3250 0.950 . S
C3248 C3247 1.387 . S
C3248 C3251 1.387 . S
H3249 C3245 0.950 . S
H3250 C3247 0.950 . S
C3251 C3242 1.390 . S
C3251 H3244 0.950 . S
C3251 C3248 1.387 . S
C3252 C3253 1.387 . S
C3252 H3256 0.950 . S
C3252 C3261 1.390 . S
C3253 C3252 1.387 . S
C3253 C3255 1.387 . S
H3254 C3261 0.950 . S
C3255 C3253 1.387 . S
C3255 C3257 1.390 . S
C3255 H3259 0.950 . S
H3256 C3252 0.950 . S
C3257 C3255 1.390 . S
C3257 C3258 1.387 . S
C3257 H3260 0.950 . S
C3258 C3257 1.387 . S
C3258 C3261 1.387 . S
H3259 C3255 0.950 . S
H3260 C3257 0.950 . S
C3261 C3252 1.390 . S
C3261 H3254 0.950 . S
C3261 C3258 1.387 . S
C3262 C3263 1.387 . S
C3262 H3266 0.950 . S
C3262 C3271 1.390 . S
C3263 C3262 1.387 . S
C3263 C3265 1.387 . S
H3264 C3271 0.950 . S
C3265 C3263 1.387 . S
C3265 C3267 1.390 . S
C3265 H3269 0.950 . S
H3266 C3262 0.950 . S
C3267 C3265 1.390 . S
C3267 C3268 1.387 . S
C3267 H3270 0.950 . S
C3268 C3267 1.387 . S
C3268 C3271 1.387 . S
H3269 C3265 0.950 . S
H3270 C3267 0.950 . S
C3271 C3262 1.390 . S
C3271 H3264 0.950 . S
C3271 C3268 1.387 . S
C3272 C3273 1.387 . S
C3272 H3276 0.950 . S
C3272 C3281 1.390 . S
C3273 C3272 1.387 . S
C3273 C3275 1.387 . S
H3274 C3281 0.950 . S
C3275 C3273 1.387 . S
C3275 C3277 1.390 . S
C3275 H3279 0.950 . S
H3276 C3272 0.950 . S
C3277 C3275 1.390 . S
C3277 C3278 1.387 . S
C3277 H3280 0.950 . S
C3278 C3277 1.387 . S
C3278 C3281 1.387 . S
H3279 C3275 0.950 . S
H3280 C3277 0.950 . S
C3281 C3272 1.390 . S
C3281 H3274 0.950 . S
C3281 C3278 1.387 . S
C3282 C3283 1.387 . S
C3282 H3286 0.950 . S
C3282 C3291 1.390 . S
C3283 C3282 1.387 . S
C3283 C3285 1.387 . S
H3284 C3291 0.950 . S
C3285 C3283 1.387 . S
C3285 C3287 1.390 . S
C3285 H3289 0.950 . S
H3286 C3282 0.950 . S
C3287 C3285 1.390 . S
C3287 C3288 1.387 . S
C3287 H3290 0.950 . S
C3288 C3287 1.387 . S
C3288 C3291 1.387 . S
H3289 C3285 0.950 . S
H3290 C3287 0.950 . S
C3291 C3282 1.390 . S
C3291 H3284 0.950 . S
C3291 C3288 1.387 . S
C3292 C3293 1.387 . S
C3292 H3296 0.950 . S
C3292 C3301 1.390 . S
C3293 C3292 1.387 . S
C3293 C3295 1.387 . S
H3294 C3301 0.950 . S
C3295 C3293 1.387 . S
C3295 C3297 1.390 . S
C3295 H3299 0.950 . S
H3296 C3292 0.950 . S
C3297 C3295 1.390 . S
C3297 C3298 1.387 . S
C3297 H3300 0.950 . S
C3298 C3297 1.387 . S
C3298 C3301 1.387 . S
H3299 C3295 0.950 . S
H3300 C3297 0.950 . S
C3301 C3292 1.390 . S
C3301 H3294 0.950 . S
C3301 C3298 1.387 . S
C3302 C3303 1.387 . S
C3302 H3306 0.950 . S
C3302 C3311 1.390 . S
C3303 C3302 1.387 . S
C3303 C3305 1.387 . S
H3304 C3311 0.950 . S
C3305 C3303 1.387 . S
C3305 C3307 1.390 . S
C3305 H3309 0.950 . S
H3306 C3302 0.950 . S
C3307 C3305 1.390 . S
C3307 C3308 1.387 . S
C3307 H3310 0.950 . S
C3308 C3307 1.387 . S
C3308 C3311 1.387 . S
H3309 C3305 0.950 . S
H3310 C3307 0.950 . S
C3311 C3302 1.390 . S
C3311 H3304 0.950 . S
C3311 C3308 1.387 . S
C3312 C3313 1.387 . S
C3312 H3316 0.950 . S
C3312 C3321 1.390 . S
C3313 C3312 1.387 . S
C3313 C3315 1.387 . S
H3314 C3321 0.950 . S
C3315 C3313 1.387 . S
C3315 C3317 1.390 . S
C3315 H3319 0.950 . S
H3316 C3312 0.950 . S
C3317 C3315 1.390 . S
C3317 C3318 1.387 . S
C3317 H3320 0.950 . S
C3318 C3317 1.387 . S
C3318 C3321 1.387 . S
H3319 C3315 0.950 . S
H3320 C3317 0.950 . S
C3321 C3312 1.390 . S
C3321 H3314 0.950 . S
C3321 C3318 1.387 . S
C3322 C3323 1.387 . S
C3322 H3326 0.950 . S
C3322 C3331 1.390 . S
C3323 C3322 1.387 . S
C3323 C3325 1.387 . S
H3324 C3331 0.950 . S
C3325 C3323 1.387 . S
C3325 C3327 1.390 . S
C3325 H3329 0.950 . S
H3326 C3322 0.950 . S
C3327 C3325 1.390 . S
C3327 C3328 1.387 . S
C3327 H3330 0.950 . S
C3328 C3327 1.387 . S
C3328 C3331 1.387 . S
H3329 C3325 0.950 . S
H3330 C3327 0.950 . S
C3331 C3322 1.390 . S
C3331 H3324 0.950 . S
C3331 C3328 1.387 . S
C3332 C3333 1.387 . S
C3332 H3336 0.950 . S
C3332 C3341 1.390 . S
C3333 C3332 1.387 . S
C3333 C3335 1.387 . S
H3334 C3341 0.950 . S
C3335 C3333 1.387 . S
C3335 C3337 1.390 . S
C3335 H3339 0.950 . S
H3336 C3332 0.950 . S
C3337 C3335 1.390 . S
C3337 C3338 1.387 . S
C3337 H3340 0.950 . S
C3338 C3337 1.387 . S
C3338 C3341 1.387 . S
H3339 C3335 0.950 . S
H3340 C3337 0.950 . S
C3341 C3332 1.390 . S
C3341 H3334 0.950 . S
C3341 C3338 1.387 . S
C3342 C3343 1.387 . S
C3342 H3346 0.950 . S
C3342 C3351 1.390 . S
C3343 C3342 1.387 . S
C3343 C3345 1.387 . S
H3344 C3351 0.950 . S
C3345 C3343 1.387 . S
C3345 C3347 1.390 . S
C3345 H3349 0.950 . S
H3346 C3342 0.950 . S
C3347 C3345 1.390 . S
C3347 C3348 1.387 . S
C3347 H3350 0.950 . S
C3348 C3347 1.387 . S
C3348 C3351 1.387 . S
H3349 C3345 0.950 . S
H3350 C3347 0.950 . S
C3351 C3342 1.390 . S
C3351 H3344 0.950 . S
C3351 C3348 1.387 . S
C3352 C3353 1.387 . S
C3352 H3356 0.950 . S
C3352 C3361 1.390 . S
C3353 C3352 1.387 . S
C3353 C3355 1.387 . S
H3354 C3361 0.950 . S
C3355 C3353 1.387 . S
C3355 C3357 1.390 . S
C3355 H3359 0.950 . S
H3356 C3352 0.950 . S
C3357 C3355 1.390 . S
C3357 C3358 1.387 . S
C3357 H3360 0.950 . S
C3358 C3357 1.387 . S
C3358 C3361 1.387 . S
H3359 C3355 0.950 . S
H3360 C3357 0.950 . S
C3361 C3352 1.390 . S
C3361 H3354 0.950 . S
C3361 C3358 1.387 . S
C3362 C3363 1.387 . S
C3362 H3366 0.950 . S
C3362 C3371 1.390 . S
C3363 C3362 1.387 . S
C3363 C3365 1.387 . S
H3364 C3371 0.950 . S
C3365 C3363 1.387 . S
C3365 C3367 1.390 . S
C3365 H3369 0.950 . S
H3366 C3362 0.950 . S
C3367 C3365 1.390 . S
C3367 C3368 1.387 . S
C3367 H3370 0.950 . S
C3368 C3367 1.387 . S
C3368 C3371 1.387 . S
H3369 C3365 0.950 . S
H3370 C3367 0.950 . S
C3371 C3362 1.390 . S
C3371 H3364 0.950 . S
C3371 C3368 1.387 . S
C3372 C3373 1.387 . S
C3372 H3376 0.950 . S
C3372 C3381 1.390 . S
C3373 C3372 1.387 . S
C3373 C3375 1.387 . S
H3374 C3381 0.950 . S
C3375 C3373 1.387 . S
C3375 C3377 1.390 . S
C3375 H3379 0.950 . S
H3376 C3372 0.950 . S
C3377 C3375 1.390 . S
C3377 C3378 1.387 . S
C3377 H3380 0.950 . S
C3378 C3377 1.387 . S
C3378 C3381 1.387 . S
H3379 C3375 0.950 . S
H3380 C3377 0.950 . S
C3381 C3372 1.390 . S
C3381 H3374 0.950 . S
C3381 C3378 1.387 . S
C3382 C3383 1.387 . S
C3382 H3386 0.950 . S
C3382 C3391 1.390 . S
C3383 C3382 1.387 . S
C3383 C3385 1.387 . S
H3384 C3391 0.950 . S
C3385 C3383 1.387 . S
C3385 C3387 1.390 . S
C3385 H3389 0.950 . S
H3386 C3382 0.950 . S
C3387 C3385 1.390 . S
C3387 C3388 1.387 . S
C3387 H3390 0.950 . S
C3388 C3387 1.387 . S
C3388 C3391 1.387 . S
H3389 C3385 0.950 . S
H3390 C3387 0.950 . S
C3391 C3382 1.390 . S
C3391 H3384 0.950 . S
C3391 C3388 1.387 . S
C3392 C3393 1.387 . S
C3392 H3396 0.950 . S
C3392 C3401 1.390 . S
C3393 C3392 1.387 . S
C3393 C3395 1.387 . S
H3394 C3401 0.950 . S
C3395 C3393 1.387 . S
C3395 C3397 1.390 . S
C3395 H3399 0.950 . S
H3396 C3392 0.950 . S
C3397 C3395 1.390 . S
C3397 C3398 1.387 . S
C3397 H3400 0.950 . S
C3398 C3397 1.387 . S
C3398 C3401 1.387 . S
H3399 C3395 0.950 . S
H3400 C3397 0.950 . S
C3401 C3392 1.390 . S
C3401 H3394 0.950 . S
C3401 C3398 1.387 . S
C3402 C3403 1.387 . S
C3402 H3406 0.950 . S
C3402 C3411 1.390 . S
C3403 C3402 1.387 . S
C3403 C3405 1.387 . S
H3404 C3411 0.950 . S
C3405 C3403 1.387 . S
C3405 C3407 1.390 . S
C3405 H3409 0.950 . S
H3406 C3402 0.950 . S
C3407 C3405 1.390 . S
C3407 C3408 1.387 . S
C3407 H3410 0.950 . S
C3408 C3407 1.387 . S
C3408 C3411 1.387 . S
H3409 C3405 0.950 . S
H3410 C3407 0.950 . S
C3411 C3402 1.390 . S
C3411 H3404 0.950 . S
C3411 C3408 1.387 . S
C3412 C3413 1.387 . S
C3412 H3416 0.950 . S
C3412 C3421 1.390 . S
C3413 C3412 1.387 . S
C3413 C3415 1.387 . S
H3414 C3421 0.950 . S
C3415 C3413 1.387 . S
C3415 C3417 1.390 . S
C3415 H3419 0.950 . S
H3416 C3412 0.950 . S
C3417 C3415 1.390 . S
C3417 C3418 1.387 . S
C3417 H3420 0.950 . S
C3418 C3417 1.387 . S
C3418 C3421 1.387 . S
H3419 C3415 0.950 . S
H3420 C3417 0.950 . S
C3421 C3412 1.390 . S
C3421 H3414 0.950 . S
C3421 C3418 1.387 . S
C3422 C3423 1.387 . S
C3422 H3426 0.950 . S
C3422 C3431 1.390 . S
C3423 C3422 1.387 . S
C3423 C3425 1.387 . S
H3424 C3431 0.950 . S
C3425 C3423 1.387 . S
C3425 C3427 1.390 . S
C3425 H3429 0.950 . S
H3426 C3422 0.950 . S
C3427 C3425 1.390 . S
C3427 C3428 1.387 . S
C3427 H3430 0.950 . S
C3428 C3427 1.387 . S
C3428 C3431 1.387 . S
H3429 C3425 0.950 . S
H3430 C3427 0.950 . S
C3431 C3422 1.390 . S
C3431 H3424 0.950 . S
C3431 C3428 1.387 . S
C2478 N1932 1.453 . S
C2473 C1 1.462 . S
C2488 C1959 1.605 . S
C2483 C80 1.581 . S
C2493 C140 1.503 . S
C2498 C1973 1.509 . S
C2508 N1991 1.453 . S
C2503 C211 1.477 . S
C2513 C241 1.573 . S
C2518 C1996 1.588 . S
C2523 C320 1.521 . S
C2528 C1936 1.522 . S
C2533 C391 1.411 . S
C2538 N1955 1.398 . S
C2548 N1968 1.451 . S
C2543 C421 1.471 . S
C2558 N2014 1.406 . S
C2553 C31 1.410 . S
C2563 C61 1.515 . S
C2568 N2037 1.522 . S
C2573 C121 1.534 . S
C2578 N2060 1.576 . S
C2588 N2093 1.420 . S
C2583 C181 1.468 . S
C2593 C260 1.522 . S
C2598 C2120 1.543 . S
C2608 C2143 1.573 . S
C2603 C331 1.562 . S
C2613 C380 1.485 . S
C2618 C2166 1.520 . S
C2628 C2180 1.440 . S
C2623 C440 1.411 . S
C2633 C20 1.406 . S
C2638 C2097 1.454 . S
C2643 C271 1.478 . S
C2648 N2139 1.458 . S
C2658 N2162 1.441 . S
C2653 C301 1.464 . S
C2663 C361 1.470 . S
C2668 N2175 1.452 . S
C2678 N2116 1.411 . S
C2673 C451 1.442 . S
C2688 C2042 1.665 . S
C2683 C151 1.641 . S
C2693 C200 1.524 . S
C2698 C2065 1.521 . S
C2708 C2019 1.612 . S
C2703 C91 1.574 . S
C2718 C2212 1.459 . S
C2713 C500 1.438 . S
C2723 C560 1.596 . S
C2728 C2226 1.610 . S
C2733 C620 1.497 . S
C2738 N2254 1.456 . S
C2748 N2267 1.438 . S
C2743 C691 1.460 . S
C2753 C721 1.589 . S
C2758 C2272 1.601 . S
C2763 C811 1.514 . S
C2768 N2208 1.459 . S
C2773 C871 1.491 . S
C2778 N2221 1.505 . S
C2783 C901 1.429 . S
C2788 C2258 1.447 . S
C2798 N2106 1.417 . S
C2793 C511 1.426 . S
C2803 C541 1.502 . S
C2808 N2290 1.475 . S
C2818 N2152 1.459 . S
C2813 C601 1.450 . S
C2823 C661 1.538 . S
C2828 C2327 1.537 . S
C2833 C740 1.564 . S
C2838 C2028 1.590 . S
C2848 C2341 1.599 . S
C2843 C781 1.580 . S
C2853 C860 1.535 . S
C2858 C2074 1.544 . S
C2868 N2359 1.400 . S
C2863 C920 1.412 . S
C2873 C481 1.452 . S
C2878 N2323 1.426 . S
C2888 N2336 1.499 . S
C2883 C751 1.516 . S
C2893 C800 1.453 . S
C2898 N2070 1.435 . S
C2908 C2364 1.444 . S
C2903 C841 1.424 . S
C2913 C931 1.423 . S
C2918 N2024 1.397 . S
C2923 C631 1.545 . S
C2928 C2295 1.571 . S
C2933 C680 1.561 . S
C2938 C2157 1.566 . S
C2943 C571 1.567 . S
C2948 C2111 1.606 . S
C2953 C961 1.485 . S
C2958 C2249 1.520 . S
C2968 C2281 1.551 . S
C2963 C1040 1.540 . S
C2973 C1100 1.471 . S
C2978 N2198 1.442 . S
C2983 C1171 1.450 . S
C2988 N2231 1.422 . S
C2993 C1201 1.586 . S
C2998 C2235 1.599 . S
C3003 C1291 1.543 . S
C3008 N2244 1.529 . S
C3018 N2277 1.372 . S
C3013 C1351 1.401 . S
C3023 C1381 1.471 . S
C3028 C2203 1.493 . S
C3038 N2392 1.427 . S
C3033 C991 1.438 . S
C3043 C1021 1.451 . S
C3048 N2129 1.448 . S
C3058 N2415 1.390 . S
C3053 C1081 1.410 . S
C3063 C1141 1.520 . S
C3068 N2185 1.466 . S
C3073 C1220 1.534 . S
C3078 C2433 1.563 . S
C3083 C1261 1.645 . S
C3088 C2051 1.661 . S
C3098 N2451 1.395 . S
C3093 C1340 1.420 . S
C3103 C1400 1.466 . S
C3108 C2088 1.488 . S
C3118 C2189 1.500 . S
C3113 C980 1.450 . S
C3128 N2047 1.498 . S
C3123 C1231 1.539 . S
C3133 C1280 1.541 . S
C3138 C2456 1.574 . S
C3143 C1321 1.396 . S
C3148 N2083 1.361 . S
C3158 N2428 1.471 . S
C3153 C1411 1.485 . S
C3168 C2134 1.578 . S
C3163 C1111 1.540 . S
C3178 C2419 1.576 . S
C3173 C1160 1.573 . S
C3188 C2396 1.583 . S
C3183 C1051 1.537 . S
C3193 C1460 1.395 . S
C3198 N1978 1.365 . S
C3203 C1520 1.553 . S
C3208 C2005 1.570 . S
C3218 C1927 1.544 . S
C3213 C1580 1.529 . S
C3228 N1945 1.391 . S
C3223 C1651 1.420 . S
C3238 C1950 1.606 . S
C3233 C1681 1.605 . S
C3248 C1982 1.552 . S
C3243 C1760 1.563 . S
C3258 N2001 1.497 . S
C3253 C1831 1.501 . S
C3263 C1861 1.500 . S
C3268 N1922 1.492 . S
C3273 C1471 1.370 . S
C3278 N2438 1.348 . S
C3288 N2346 1.471 . S
C3283 C1501 1.483 . S
C3298 C2465 1.607 . S
C3293 C1561 1.550 . S
C3308 C2373 1.399 . S
C3303 C1621 1.400 . S
C3313 C1700 1.556 . S
C3318 C2387 1.583 . S
C3328 C2304 1.584 . S
C3323 C1771 1.574 . S
C3338 C2410 1.644 . S
C3333 C1820 1.617 . S
C3343 C1880 1.450 . S
C3348 N2313 1.441 . S
C3358 N2369 1.352 . S
C3353 C1441 1.375 . S
C3368 N2300 1.462 . S
C3363 C1711 1.478 . S
C3378 N2405 1.405 . S
C3373 C1741 1.411 . S
C3383 C1801 1.506 . S
C3388 C2318 1.516 . S
C3393 C1891 1.424 . S
C3398 N2382 1.414 . S
C3403 C1591 1.642 . S
C3408 C2350 1.665 . S
C3413 C1640 1.437 . S
C3418 N2461 1.403 . S
C3428 C2442 1.560 . S
C3423 C1531 1.525 . S
