# Generated by pormake.
# Topology pyr, (3,6)-cn, num edge types: 1
# Building blocks:
#     Node 0, Type 0, BuildingBlock: KAKCAD_clean_linker_0, # of connection points: 3
#     Node 1, Type 0, BuildingBlock: KAKCAD_clean_linker_0, # of connection points: 3
#     Node 2, Type 0, BuildingBlock: KAKCAD_clean_linker_0, # of connection points: 3
#     Node 3, Type 0, BuildingBlock: KAKCAD_clean_linker_0, # of connection points: 3
#     Node 4, Type 0, BuildingBlock: KAKCAD_clean_linker_0, # of connection points: 3
#     Node 5, Type 0, BuildingBlock: KAKCAD_clean_linker_0, # of connection points: 3
#     Node 6, Type 0, BuildingBlock: KAKCAD_clean_linker_0, # of connection points: 3
#     Node 7, Type 0, BuildingBlock: KAKCAD_clean_linker_0, # of connection points: 3
#     Node 8, Type 1, BuildingBlock: BETFEN_clean_sbu_0, # of connection points: 6
#     Node 9, Type 1, BuildingBlock: BETFEN_clean_sbu_0, # of connection points: 6
#     Node 10, Type 1, BuildingBlock: BETFEN_clean_sbu_0, # of connection points: 6
#     Node 11, Type 1, BuildingBlock: BETFEN_clean_sbu_0, # of connection points: 6
#     Edge 12, Type (0, 1), BuildingBlock: EZIPEK_clean_linker_0, # of connection points: 2
#     Edge 13, Type (0, 1), BuildingBlock: EZIPEK_clean_linker_0, # of connection points: 2
#     Edge 14, Type (0, 1), BuildingBlock: EZIPEK_clean_linker_0, # of connection points: 2
#     Edge 15, Type (0, 1), BuildingBlock: EZIPEK_clean_linker_0, # of connection points: 2
#     Edge 16, Type (0, 1), BuildingBlock: EZIPEK_clean_linker_0, # of connection points: 2
#     Edge 17, Type (0, 1), BuildingBlock: EZIPEK_clean_linker_0, # of connection points: 2
#     Edge 18, Type (0, 1), BuildingBlock: EZIPEK_clean_linker_0, # of connection points: 2
#     Edge 19, Type (0, 1), BuildingBlock: EZIPEK_clean_linker_0, # of connection points: 2
#     Edge 20, Type (0, 1), BuildingBlock: EZIPEK_clean_linker_0, # of connection points: 2
#     Edge 21, Type (0, 1), BuildingBlock: EZIPEK_clean_linker_0, # of connection points: 2
#     Edge 22, Type (0, 1), BuildingBlock: EZIPEK_clean_linker_0, # of connection points: 2
#     Edge 23, Type (0, 1), BuildingBlock: EZIPEK_clean_linker_0, # of connection points: 2
#     Edge 24, Type (0, 1), BuildingBlock: EZIPEK_clean_linker_0, # of connection points: 2
#     Edge 25, Type (0, 1), BuildingBlock: EZIPEK_clean_linker_0, # of connection points: 2
#     Edge 26, Type (0, 1), BuildingBlock: EZIPEK_clean_linker_0, # of connection points: 2
#     Edge 27, Type (0, 1), BuildingBlock: EZIPEK_clean_linker_0, # of connection points: 2
#     Edge 28, Type (0, 1), BuildingBlock: EZIPEK_clean_linker_0, # of connection points: 2
#     Edge 29, Type (0, 1), BuildingBlock: EZIPEK_clean_linker_0, # of connection points: 2
#     Edge 30, Type (0, 1), BuildingBlock: EZIPEK_clean_linker_0, # of connection points: 2
#     Edge 31, Type (0, 1), BuildingBlock: EZIPEK_clean_linker_0, # of connection points: 2
#     Edge 32, Type (0, 1), BuildingBlock: EZIPEK_clean_linker_0, # of connection points: 2
#     Edge 33, Type (0, 1), BuildingBlock: EZIPEK_clean_linker_0, # of connection points: 2
#     Edge 34, Type (0, 1), BuildingBlock: EZIPEK_clean_linker_0, # of connection points: 2
#     Edge 35, Type (0, 1), BuildingBlock: EZIPEK_clean_linker_0, # of connection points: 2
# Relax obj value: 0.169
# Max RMSD: 0.259
# Mean RMSD: 0.125
data_MOF--net-pyr--node1-BETFEN_clean_sbu_0--node2-KAKCAD_clean_linker_0--edge1-EZIPEK_clean_linker_0
_symmetry_space_group_name_H-M    P1
_symmetry_Int_Tables_number       1
_symmetry_cell_setting            triclinic
loop_
_symmetry_equiv_pos_as_xyz
'x, y, z'
_cell_length_a     35.320178
_cell_length_b     39.345596
_cell_length_c     36.565859
_cell_angle_alpha  91.635618
_cell_angle_beta   99.562183
_cell_angle_gamma 110.546
loop_
_atom_site_label
_atom_site_type_symbol
_atom_site_fract_x
_atom_site_fract_y
_atom_site_fract_z
_atom_type_partial_charge
C0 C 0.33927 0.31053 0.42262 0.0
C1 C 0.35916 0.28875 0.44061 0.0
C2 C 0.35874 0.33603 0.39962 0.0
C3 C 0.3986 0.34023 0.39408 0.0
C4 C 0.41992 0.32087 0.41522 0.0
C5 C 0.40033 0.29528 0.43829 0.0
C6 C 0.41381 0.35877 0.36152 0.0
C7 C 0.40304 0.38829 0.34924 0.0
C8 C 0.4059 0.39864 0.31298 0.0
C9 C 0.42367 0.38145 0.29029 0.0
C10 C 0.43564 0.35251 0.30236 0.0
C11 C 0.43103 0.34175 0.33815 0.0
C12 C 0.44549 0.32894 0.27569 0.0
C13 C 0.42246 0.31928 0.23915 0.0
C14 C 0.47414 0.31227 0.2878 0.0
C15 C 0.47768 0.28496 0.26481 0.0
C16 C 0.45305 0.2742 0.22919 0.0
C17 C 0.38242 0.42099 0.29592 0.0
C18 C 0.34227 0.41415 0.30229 0.0
C19 C 0.39679 0.44479 0.26904 0.0
C20 C 0.37059 0.45927 0.2473 0.0
C21 C 0.32975 0.45014 0.25222 0.0
C22 C 0.31625 0.42858 0.28064 0.0
C23 C 0.4264 0.29232 0.21607 0.0
H24 H 0.30739 0.30571 0.42395 0.0
H25 H 0.34089 0.34985 0.38361 0.0
H26 H 0.45066 0.32349 0.41188 0.0
H27 H 0.41619 0.27872 0.45206 0.0
H28 H 0.38932 0.40139 0.36682 0.0
H29 H 0.43676 0.31746 0.34619 0.0
H30 H 0.4251 0.38857 0.26203 0.0
H31 H 0.39955 0.33091 0.229 0.0
H32 H 0.49267 0.31936 0.31559 0.0
H33 H 0.49854 0.2713 0.27528 0.0
H34 H 0.32973 0.39548 0.32216 0.0
H35 H 0.4276 0.45082 0.26362 0.0
H36 H 0.40714 0.28427 0.18863 0.0
H37 H 0.28473 0.42115 0.28463 0.0
H38 H 0.3814 0.47589 0.22536 0.0
C39 C 0.31548 0.8702 0.82869 0.0
C40 C 0.35754 0.87732 0.84072 0.0
C41 C 0.29634 0.85475 0.79239 0.0
C42 C 0.31924 0.84673 0.76756 0.0
C43 C 0.36071 0.85155 0.78087 0.0
C44 C 0.37961 0.86662 0.81715 0.0
C45 C 0.30209 0.83809 0.727 0.0
C46 C 0.27873 0.85722 0.70887 0.0
C47 C 0.26807 0.85402 0.66984 0.0
C48 C 0.28107 0.83127 0.64865 0.0
C49 C 0.30416 0.81166 0.66646 0.0
C50 C 0.31362 0.8146 0.70552 0.0
C51 C 0.3233 0.79163 0.64527 0.0
C52 C 0.32133 0.75653 0.65387 0.0
C53 C 0.34936 0.80977 0.62118 0.0
C54 C 0.3752 0.79417 0.60814 0.0
C55 C 0.37492 0.76008 0.61871 0.0
C56 C 0.24497 0.876 0.65175 0.0
C57 C 0.25708 0.91325 0.66356 0.0
C58 C 0.20954 0.85964 0.62421 0.0
C59 C 0.18585 0.8799 0.60976 0.0
C60 C 0.19752 0.91684 0.62237 0.0
C61 C 0.23364 0.93352 0.6489 0.0
C62 C 0.34684 0.74083 0.64057 0.0
H63 H 0.29818 0.87866 0.84655 0.0
H64 H 0.2642 0.85082 0.78319 0.0
H65 H 0.37958 0.84629 0.76257 0.0
H66 H 0.41228 0.87243 0.82596 0.0
H67 H 0.27006 0.87585 0.72506 0.0
H68 H 0.33211 0.80004 0.71919 0.0
H69 H 0.27432 0.82964 0.61849 0.0
H70 H 0.30153 0.74206 0.67242 0.0
H71 H 0.35183 0.83704 0.61456 0.0
H72 H 0.39679 0.80939 0.59135 0.0
H73 H 0.28457 0.92665 0.68441 0.0
H74 H 0.19947 0.83098 0.61477 0.0
H75 H 0.34623 0.71447 0.64892 0.0
H76 H 0.24327 0.96207 0.65865 0.0
H77 H 0.15811 0.86668 0.58913 0.0
C78 C 0.78413 0.43123 0.89135 0.0
C79 C 0.80925 0.41154 0.90419 0.0
C80 C 0.745 0.41329 0.86941 0.0
C81 C 0.73036 0.37534 0.85987 0.0
C82 C 0.75623 0.35604 0.87211 0.0
C83 C 0.79516 0.37393 0.89408 0.0
C84 C 0.68775 0.35556 0.83858 0.0
C85 C 0.67088 0.37019 0.80833 0.0
C86 C 0.63018 0.35226 0.78858 0.0
C87 C 0.60656 0.31781 0.79956 0.0
C88 C 0.62367 0.30228 0.82975 0.0
C89 C 0.66386 0.32189 0.84894 0.0
C90 C 0.60152 0.26601 0.84317 0.0
C91 C 0.56458 0.25897 0.85656 0.0
C92 C 0.62177 0.24088 0.84928 0.0
C93 C 0.60698 0.21089 0.86975 0.0
C94 C 0.57132 0.20487 0.88472 0.0
C95 C 0.61416 0.3707 0.75692 0.0
C96 C 0.6262 0.40908 0.75974 0.0
C97 C 0.58991 0.35138 0.72289 0.0
C98 C 0.57938 0.37002 0.69253 0.0
C99 C 0.59318 0.40849 0.69525 0.0
C100 C 0.61628 0.42753 0.7295 0.0
C101 C 0.54965 0.22872 0.87709 0.0
H102 H 0.79459 0.46033 0.89882 0.0
H103 H 0.72581 0.42895 0.86075 0.0
H104 H 0.74633 0.32697 0.86478 0.0
H105 H 0.81425 0.35834 0.90348 0.0
H106 H 0.69014 0.39558 0.79969 0.0
H107 H 0.67647 0.31099 0.8729 0.0
H108 H 0.57537 0.3033 0.7849 0.0
H109 H 0.54854 0.27793 0.853 0.0
H110 H 0.65038 0.24545 0.8396 0.0
H111 H 0.62418 0.19295 0.87492 0.0
H112 H 0.64383 0.42523 0.78551 0.0
H113 H 0.58 0.32195 0.71934 0.0
H114 H 0.52198 0.22468 0.88821 0.0
H115 H 0.62671 0.45702 0.73293 0.0
H116 H 0.56088 0.35443 0.66676 0.0
C117 C 0.91569 0.58953 0.23337 0.0
C118 C 0.93562 0.61202 0.20758 0.0
C119 C 0.90087 0.60343 0.26213 0.0
C120 C 0.90498 0.64062 0.26659 0.0
C121 C 0.92483 0.66295 0.24039 0.0
C122 C 0.93983 0.64905 0.21181 0.0
C123 C 0.88892 0.65588 0.29798 0.0
C124 C 0.85514 0.63308 0.31374 0.0
C125 C 0.83993 0.64713 0.34215 0.0
C126 C 0.85957 0.68405 0.35545 0.0
C127 C 0.89179 0.70827 0.34044 0.0
C128 C 0.90666 0.69368 0.31209 0.0
C129 C 0.90796 0.74863 0.35479 0.0
C130 C 0.88122 0.76441 0.36651 0.0
C131 C 0.94987 0.77102 0.3605 0.0
C132 C 0.96394 0.80769 0.37643 0.0
C133 C 0.93662 0.82463 0.3858 0.0
C134 C 0.80254 0.62538 0.35826 0.0
C135 C 0.79995 0.59364 0.37637 0.0
C136 C 0.77155 0.63993 0.36049 0.0
C137 C 0.74017 0.62437 0.38092 0.0
C138 C 0.73836 0.59358 0.40018 0.0
C139 C 0.76836 0.57801 0.39705 0.0
C140 C 0.89539 0.80042 0.38306 0.0
H141 H 0.91179 0.56094 0.23147 0.0
H142 H 0.88667 0.58476 0.28128 0.0
H143 H 0.92846 0.69143 0.24137 0.0
H144 H 0.95471 0.66744 0.19269 0.0
H145 H 0.83966 0.60472 0.3032 0.0
H146 H 0.932 0.71201 0.30102 0.0
H147 H 0.84922 0.69401 0.37837 0.0
H148 H 0.84869 0.74867 0.36366 0.0
H149 H 0.97222 0.75986 0.354 0.0
H150 H 0.99684 0.82194 0.38247 0.0
H151 H 0.82334 0.58183 0.37591 0.0
H152 H 0.77228 0.66433 0.34714 0.0
H153 H 0.87311 0.80801 0.39467 0.0
H154 H 0.76785 0.55414 0.41129 0.0
H155 H 0.71763 0.637 0.38234 0.0
C156 C 0.72522 0.71455 0.65101 0.0
C157 C 0.74423 0.75264 0.65651 0.0
C158 C 0.69567 0.69634 0.67199 0.0
C159 C 0.68452 0.7161 0.69829 0.0
C160 C 0.70218 0.75439 0.70203 0.0
C161 C 0.73176 0.77242 0.68137 0.0
C162 C 0.65934 0.6974 0.72554 0.0
C163 C 0.67051 0.67158 0.74587 0.0
C164 C 0.65485 0.66011 0.77822 0.0
C165 C 0.62604 0.67371 0.78897 0.0
C166 C 0.61518 0.70018 0.76937 0.0
C167 C 0.63081 0.71083 0.73693 0.0
C168 C 0.59637 0.72304 0.78717 0.0
C169 C 0.56764 0.73554 0.76598 0.0
C170 C 0.61261 0.73748 0.82447 0.0
C171 C 0.6028 0.76561 0.83939 0.0
C172 C 0.57638 0.77967 0.81747 0.0
C173 C 0.6754 0.64066 0.80432 0.0
C174 C 0.6914 0.61579 0.79057 0.0
C175 C 0.68539 0.65152 0.84287 0.0
C176 C 0.71365 0.64061 0.86628 0.0
C177 C 0.73302 0.61932 0.85146 0.0
C178 C 0.72037 0.60558 0.81386 0.0
C179 C 0.55743 0.76354 0.78116 0.0
H180 H 0.73443 0.69897 0.63168 0.0
H181 H 0.68253 0.66683 0.66858 0.0
H182 H 0.69492 0.77041 0.72249 0.0
H183 H 0.7461 0.80186 0.68578 0.0
H184 H 0.69499 0.66361 0.73875 0.0
H185 H 0.62399 0.73232 0.72256 0.0
H186 H 0.61437 0.66584 0.81425 0.0
H187 H 0.55467 0.72488 0.7372 0.0
H188 H 0.63531 0.72896 0.84139 0.0
H189 H 0.61755 0.77774 0.86749 0.0
H190 H 0.68364 0.60614 0.76128 0.0
H191 H 0.67422 0.67089 0.85466 0.0
H192 H 0.5368 0.77408 0.76396 0.0
H193 H 0.73477 0.5888 0.80205 0.0
H194 H 0.72304 0.65136 0.8953 0.0
C195 C 0.68666 0.13189 0.24192 0.0
C196 C 0.68648 0.15863 0.21748 0.0
C197 C 0.7035 0.1418 0.27953 0.0
C198 C 0.72014 0.17866 0.29352 0.0
C199 C 0.72048 0.20561 0.26904 0.0
C200 C 0.7042 0.19564 0.23102 0.0
C201 C 0.73521 0.18801 0.33401 0.0
C202 C 0.76171 0.17231 0.35286 0.0
C203 C 0.76986 0.17401 0.39201 0.0
C204 C 0.75281 0.19435 0.41221 0.0
C205 C 0.72827 0.21242 0.3934 0.0
C206 C 0.71936 0.2087 0.35426 0.0
C207 C 0.70956 0.23371 0.41375 0.0
C208 C 0.68857 0.21934 0.44257 0.0
C209 C 0.70914 0.26722 0.40167 0.0
C210 C 0.68634 0.28493 0.41648 0.0
C211 C 0.6636 0.26958 0.44372 0.0
C212 C 0.79558 0.15393 0.41075 0.0
C213 C 0.79706 0.1227 0.39198 0.0
C214 C 0.82018 0.16624 0.44646 0.0
C215 C 0.84648 0.14865 0.46207 0.0
C216 C 0.85009 0.11942 0.44169 0.0
C217 C 0.82482 0.10651 0.40665 0.0
C218 C 0.66571 0.2372 0.45749 0.0
H219 H 0.67309 0.10321 0.23192 0.0
H220 H 0.70247 0.12052 0.29795 0.0
H221 H 0.73324 0.23419 0.27933 0.0
H222 H 0.70443 0.21658 0.21238 0.0
H223 H 0.77532 0.15814 0.33635 0.0
H224 H 0.69827 0.22035 0.33951 0.0
H225 H 0.75818 0.19603 0.44233 0.0
H226 H 0.68814 0.19347 0.45226 0.0
H227 H 0.72547 0.27919 0.37987 0.0
H228 H 0.6853 0.31005 0.40577 0.0
H229 H 0.77722 0.11072 0.36547 0.0
H230 H 0.82025 0.19007 0.46201 0.0
H231 H 0.6484 0.2251 0.47865 0.0
H232 H 0.82659 0.08378 0.39049 0.0
H233 H 0.86536 0.15883 0.48943 0.0
C234 C 0.27815 0.64086 0.17566 0.0
C235 C 0.27356 0.64166 0.13684 0.0
C236 C 0.31625 0.65997 0.19872 0.0
C237 C 0.35047 0.68008 0.18332 0.0
C238 C 0.34592 0.6795 0.14427 0.0
C239 C 0.30784 0.66066 0.12132 0.0
C240 C 0.39033 0.70286 0.20764 0.0
C241 C 0.40581 0.69048 0.24042 0.0
C242 C 0.44362 0.71169 0.2632 0.0
C243 C 0.46651 0.74636 0.25238 0.0
C244 C 0.45064 0.75957 0.2197 0.0
C245 C 0.41277 0.73748 0.19801 0.0
C246 C 0.47133 0.79625 0.20666 0.0
C247 C 0.45396 0.82334 0.20876 0.0
C248 C 0.50095 0.80107 0.18388 0.0
C249 C 0.51194 0.83153 0.16299 0.0
C250 C 0.49344 0.8579 0.16416 0.0
C251 C 0.45721 0.69625 0.29802 0.0
C252 C 0.4337 0.69009 0.32644 0.0
C253 C 0.48824 0.68128 0.3001 0.0
C254 C 0.49454 0.65969 0.32906 0.0
C255 C 0.47009 0.65259 0.35683 0.0
C256 C 0.44033 0.66897 0.35558 0.0
C257 C 0.46501 0.85379 0.18802 0.0
H258 H 0.25197 0.62628 0.18809 0.0
H259 H 0.3185 0.65997 0.22862 0.0
H260 H 0.37175 0.69397 0.13137 0.0
H261 H 0.30492 0.66142 0.09142 0.0
H262 H 0.38868 0.66376 0.24806 0.0
H263 H 0.40045 0.74774 0.17339 0.0
H264 H 0.49564 0.7631 0.26954 0.0
H265 H 0.43013 0.81994 0.22505 0.0
H266 H 0.51389 0.7802 0.18059 0.0
H267 H 0.53384 0.83383 0.14482 0.0
H268 H 0.40903 0.70059 0.32533 0.0
H269 H 0.50623 0.68471 0.27828 0.0
H270 H 0.45012 0.87349 0.18949 0.0
H271 H 0.42108 0.66425 0.37649 0.0
H272 H 0.51772 0.64754 0.32913 0.0
C273 C 0.15862 0.24951 0.66981 0.0
C274 C 0.11593 0.23115 0.65904 0.0
C275 C 0.17495 0.28502 0.68796 0.0
C276 C 0.14931 0.30386 0.69599 0.0
C277 C 0.10638 0.28496 0.6864 0.0
C278 C 0.08994 0.24914 0.66812 0.0
C279 C 0.16834 0.34392 0.71076 0.0
C280 C 0.2007 0.36653 0.69492 0.0
C281 C 0.22424 0.40293 0.70905 0.0
C282 C 0.21148 0.41806 0.7388 0.0
C283 C 0.17682 0.39692 0.75466 0.0
C284 C 0.15616 0.35951 0.74017 0.0
C285 C 0.16233 0.41309 0.7865 0.0
C286 C 0.18964 0.44166 0.81326 0.0
C287 C 0.12059 0.39976 0.79097 0.0
C288 C 0.10706 0.41383 0.82048 0.0
C289 C 0.13442 0.4421 0.8472 0.0
C290 C 0.26187 0.42314 0.69173 0.0
C291 C 0.28281 0.40325 0.67598 0.0
C292 C 0.2763 0.46112 0.68843 0.0
C293 C 0.30907 0.47785 0.66916 0.0
C294 C 0.3279 0.45712 0.65162 0.0
C295 C 0.31397 0.41953 0.6557 0.0
C296 C 0.17604 0.45574 0.84283 0.0
H297 H 0.17952 0.23645 0.66369 0.0
H298 H 0.20811 0.29813 0.69521 0.0
H299 H 0.08551 0.29832 0.69178 0.0
H300 H 0.05686 0.2357 0.66042 0.0
H301 H 0.20744 0.35511 0.67063 0.0
H302 H 0.1313 0.34201 0.75245 0.0
H303 H 0.22847 0.44619 0.74948 0.0
H304 H 0.22202 0.45295 0.81194 0.0
H305 H 0.09774 0.37848 0.77125 0.0
H306 H 0.0748 0.40255 0.82234 0.0
H307 H 0.27513 0.37447 0.67901 0.0
H308 H 0.26182 0.4779 0.70004 0.0
H309 H 0.19833 0.4774 0.86258 0.0
H310 H 0.32771 0.40247 0.64337 0.0
H311 H 0.31924 0.50702 0.66742 0.0
Pr312 Pr 1.00529 1.00909 0.55272 0.0
Pr313 Pr 0.05634 0.03983 0.50397 0.0
C314 C 0.95251 0.97024 0.59474 0.0
C315 C 0.9305 0.93325 0.6036 0.0
C316 C 0.90604 0.92891 0.63083 0.0
C317 C 0.87913 0.8944 0.63564 0.0
C318 C 0.87638 0.86375 0.61331 0.0
C319 C 0.90227 0.86773 0.58717 0.0
C320 C 0.9291 0.90247 0.58214 0.0
C321 C 0.04692 0.08497 0.57615 0.0
C322 C 0.0915 0.99453 0.56472 0.0
C323 C 0.11415 0.07719 0.46537 0.0
C324 C 0.15429 0.10766 0.47062 0.0
C325 C 0.19142 0.10278 0.48484 0.0
C326 C 0.22921 0.13128 0.48648 0.0
C327 C 0.23029 0.16483 0.47369 0.0
C328 C 0.19335 0.17011 0.4607 0.0
C329 C 0.15571 0.14178 0.45908 0.0
C330 C 0.99808 0.97058 0.47061 0.0
C331 C 0.97121 0.05356 0.49306 0.0
O332 O 0.94119 0.97743 0.56093 0.0
O333 O 0.9922 0.98502 0.6072 0.0
O334 O 0.06375 0.06389 0.56505 0.0
O335 O 1.0083 0.067 0.57482 0.0
O336 O 0.10297 0.02151 0.54381 0.0
O337 O 0.05354 0.9817 0.57051 0.0
O338 O 0.11282 0.04645 0.47878 0.0
O339 O 0.08227 0.08561 0.4689 0.0
O340 O 1.01747 0.9773 0.50392 0.0
O341 O 1.00782 1.00029 0.45425 0.0
O342 O 0.95952 0.02194 0.50684 0.0
O343 O 1.01058 0.07075 0.49395 0.0
H344 H 0.9065 0.95243 0.64732 0.0
H345 H 0.85948 0.89167 0.65605 0.0
H346 H 0.90055 0.84424 0.56986 0.0
H347 H 0.94753 0.90551 0.56069 0.0
H348 H 0.19137 0.07677 0.49382 0.0
H349 H 0.25758 0.1268 0.49642 0.0
H350 H 0.19373 0.19584 0.4506 0.0
H351 H 0.12768 0.14632 0.44783 0.0
Pr352 Pr 0.49317 0.03688 0.0363 0.0
Pr353 Pr 0.55766 0.02262 1.0102 0.0
C354 C 0.44489 0.05185 0.07925 0.0
C355 C 0.44553 0.0847 0.10021 0.0
C356 C 0.44922 0.11701 0.08311 0.0
C357 C 0.45079 0.14809 0.10375 0.0
C358 C 0.44923 0.14747 0.14182 0.0
C359 C 0.44593 0.11536 0.15899 0.0
C360 C 0.44391 0.08417 0.13829 0.0
C361 C 0.52003 0.08463 0.98113 0.0
C362 C 0.58885 0.08174 0.07936 0.0
C363 C 0.60599 1.00648 0.96842 0.0
C364 C 0.59961 0.97467 0.94241 0.0
C365 C 0.6238 0.95317 0.95046 0.0
C366 C 0.61635 0.92167 0.92743 0.0
C367 C 0.5848 0.91137 0.89586 0.0
C368 C 0.56098 0.93303 0.88729 0.0
C369 C 0.56813 0.96434 0.9105 0.0
C370 C 0.53119 0.97777 0.06686 0.0
C371 C 0.46211 0.97631 0.96668 0.0
O372 O 0.47388 0.03954 0.09208 0.0
O373 O 0.43736 0.05044 0.04293 0.0
O374 O 0.54353 0.07588 1.00629 0.0
O375 O 0.48234 0.06969 0.98565 0.0
O376 O 0.60001 0.07464 0.04846 0.0
O377 O 0.55051 0.06603 0.08352 0.0
O378 O 0.5847 0.02696 0.95798 0.0
O379 O 0.60807 1.00097 1.00367 0.0
O380 O 0.50735 0.98371 0.03979 0.0
O381 O 0.56944 0.99606 0.06564 0.0
O382 O 0.44952 0.98731 0.99504 0.0
O383 O 0.50131 0.98822 0.96473 0.0
H384 H 0.45105 0.11836 0.05388 0.0
H385 H 0.45335 0.17267 0.09011 0.0
H386 H 0.4447 0.11446 0.18837 0.0
H387 H 0.44135 0.05965 0.15206 0.0
H388 H 0.64813 0.96049 0.97485 0.0
H389 H 0.63518 0.9053 0.93418 0.0
H390 H 0.53666 0.92547 0.86287 0.0
H391 H 0.5487 0.98015 0.90359 0.0
Pr392 Pr 0.55384 0.5664 0.55018 0.0
Pr393 Pr 0.50957 0.48933 0.49726 0.0
C394 C 0.57037 0.63603 0.57517 0.0
C395 C 0.54366 0.65667 0.5794 0.0
C396 C 0.56048 0.69434 0.58956 0.0
C397 C 0.53467 0.71352 0.59441 0.0
C398 C 0.49187 0.69505 0.5895 0.0
C399 C 0.47515 0.65745 0.57886 0.0
C400 C 0.50084 0.63843 0.57365 0.0
C401 C 0.57323 0.51039 0.58637 0.0
C402 C 0.45932 0.50785 0.56123 0.0
C403 C 0.49082 0.41974 0.47086 0.0
C404 C 0.51312 0.39421 0.47045 0.0
C405 C 0.52328 0.38494 0.43696 0.0
C406 C 0.54639 0.3626 0.43629 0.0
C407 C 0.55973 0.3491 0.46908 0.0
C408 C 0.54883 0.35747 0.50246 0.0
C409 C 0.52574 0.37992 0.50318 0.0
C410 C 0.48929 0.54573 0.46158 0.0
C411 C 0.60635 0.54545 0.48964 0.0
O412 O 0.571 0.62617 0.54085 0.0
O413 O 0.5678 0.61001 0.59721 0.0
O414 O 0.55216 0.50804 0.55411 0.0
O415 O 0.58878 0.54452 0.59968 0.0
O416 O 0.46082 0.48329 0.53637 0.0
O417 O 0.48798 0.54123 0.56819 0.0
O418 O 0.48327 0.42877 0.50292 0.0
O419 O 0.50185 0.44718 0.45058 0.0
O420 O 0.51105 0.54768 0.4934 0.0
O421 O 0.47424 0.51173 0.44801 0.0
O422 O 0.60526 0.57048 0.51427 0.0
O423 O 0.5767 0.51261 0.4821 0.0
H424 H 0.59347 0.70879 0.59401 0.0
H425 H 0.54801 0.74257 0.60259 0.0
H426 H 0.44222 0.64281 0.5749 0.0
H427 H 0.48732 0.6094 0.56551 0.0
H428 H 0.5136 0.39522 0.41128 0.0
H429 H 0.55426 0.35612 0.41023 0.0
H430 H 0.55877 0.34709 0.52797 0.0
H431 H 0.5184 0.38649 0.52946 0.0
Pr432 Pr 0.03157 0.55542 1.00409 0.0
Pr433 Pr 0.04425 0.49956 0.05247 0.0
C434 C 1.00144 0.59574 0.95814 0.0
C435 C 0.96228 0.60125 0.94743 0.0
C436 C 0.95071 0.608 0.91065 0.0
C437 C 0.91212 0.61016 0.89861 0.0
C438 C 0.88459 0.60563 0.92323 0.0
C439 C 0.89625 0.59933 0.96028 0.0
C440 C 0.93486 0.59683 0.97227 0.0
C441 C 0.11399 0.57446 0.04019 0.0
C442 C 1.00084 0.55451 0.08729 0.0
C443 C 0.07157 0.46386 0.10655 0.0
C444 C 0.11236 0.46601 0.12588 0.0
C445 C 0.11607 0.44982 0.15924 0.0
C446 C 0.15469 0.45137 0.17766 0.0
C447 C 0.19 0.46911 0.16289 0.0
C448 C 0.18645 0.48585 0.12978 0.0
C449 C 0.1478 0.48446 0.11143 0.0
C450 C 0.9699 0.47269 1.00099 0.0
C451 C 0.07246 0.4999 0.96987 0.0
O452 O 1.00063 0.56339 0.94772 0.0
O453 O 1.02257 0.60845 0.99178 0.0
O454 O 0.08278 0.56002 0.05438 0.0
O455 O 0.10334 0.58242 1.00686 0.0
O456 O 1.01196 0.52572 0.09222 0.0
O457 O 1.00507 0.57085 0.05607 0.0
O458 O 0.06148 0.49192 0.11336 0.0
O459 O 0.06153 0.45177 0.07136 0.0
O460 O 0.98451 0.50354 1.01918 0.0
O461 O 0.9918 0.45315 1.01166 0.0
O462 O 0.0464 0.51707 0.96103 0.0
O463 O 0.08322 0.49567 1.00556 0.0
H464 H 0.97132 0.61104 0.89106 0.0
H465 H 0.90364 0.61532 0.87003 0.0
H466 H 0.87539 0.59606 0.97965 0.0
H467 H 0.94309 0.59107 1.00066 0.0
H468 H 0.08907 0.43571 0.17085 0.0
H469 H 0.15699 0.43817 0.2031 0.0
H470 H 0.21344 0.49945 0.11799 0.0
H471 H 0.14547 0.49741 0.08582 0.0
C472 C 0.31659 0.25725 0.48728 0.0
C473 C 0.33386 0.25517 0.45539 0.0
C474 C 0.28796 0.19151 0.43911 0.0
C475 C 0.26975 0.19379 0.47049 0.0
N476 N 0.27162 0.22502 0.5287 0.0
N477 N 0.34428 0.22064 0.40636 0.0
C478 C 0.28582 0.22552 0.49607 0.0
C479 C 0.32221 0.22185 0.43328 0.0
N480 N 0.32894 0.28982 0.50837 0.0
N481 N 0.2707 0.16147 0.41373 0.0
H482 H 0.34036 0.19726 0.38972 0.0
H483 H 0.34036 0.19726 0.38972 0.0
H484 H 0.24605 0.1385 0.41738 0.0
H485 H 0.27874 0.15994 0.3878 0.0
H486 H 0.31464 0.2946 0.52961 0.0
H487 H 0.35305 0.31277 0.50357 0.0
H488 H 0.28404 0.2461 0.55002 0.0
H489 H 0.24918 0.20202 0.53569 0.0
C490 C 0.38296 0.89016 0.91036 0.0
C491 C 0.38065 0.90246 0.87439 0.0
C492 C 0.43116 0.96259 0.8987 0.0
C493 C 0.43231 0.95126 0.9354 0.0
N494 N 0.40654 0.90552 0.97706 0.0
N495 N 0.39365 0.95002 0.83454 0.0
C496 C 0.40703 0.91548 0.94157 0.0
C497 C 0.40231 0.93887 0.86888 0.0
N498 N 0.36347 0.8541 0.91431 0.0
N499 N 0.45842 0.99532 0.89204 0.0
H500 H 0.4051 0.97686 0.82783 0.0
H501 H 0.4051 0.97686 0.82783 0.0
H502 H 0.47896 1.01456 0.91291 0.0
H503 H 0.46309 1.00248 0.86552 0.0
H504 H 0.36729 0.84222 0.93905 0.0
H505 H 0.34509 0.83535 0.89191 0.0
H506 H 0.38578 0.88137 0.98368 0.0
H507 H 0.42555 0.92226 1.00048 0.0
C508 C 0.55855 0.45133 0.66887 0.0
C509 C 0.5823 0.42963 0.66362 0.0
C510 C 0.59007 0.45375 0.60218 0.0
C511 C 0.57223 0.47962 0.61051 0.0
N512 N 0.54089 0.504 0.65348 0.0
N513 N 0.62363 0.41222 0.62593 0.0
C514 C 0.55696 0.47865 0.64437 0.0
C515 C 0.59837 0.43098 0.63014 0.0
N516 N 0.53605 0.44485 0.69666 0.0
N517 N 0.59964 0.45126 0.56776 0.0
H518 H 0.6308 0.39576 0.64568 0.0
H519 H 0.63997 0.41503 0.60428 0.0
H520 H 0.595 0.46807 0.54729 0.0
H521 H 0.60886 0.43069 0.55842 0.0
H522 H 0.51476 0.45699 0.69975 0.0
H523 H 0.53541 0.42438 0.71434 0.0
H524 H 0.53513 0.5082 0.67994 0.0
H525 H 0.53414 0.52159 0.6349 0.0
C526 C 0.93036 0.58933 0.13888 0.0
C527 C 0.95219 0.59705 0.17657 0.0
C528 C 1.00722 0.57974 0.15513 0.0
C529 C 0.9839 0.56927 0.11806 0.0
N530 N 0.91983 0.55959 0.07653 0.0
N531 N 1.00987 0.59524 0.22085 0.0
C532 C 0.94464 0.57313 0.1105 0.0
C533 C 0.99006 0.59079 0.18464 0.0
N534 N 0.89578 0.59776 0.12997 0.0
N535 N 0.04704 0.58124 0.1619 0.0
H536 H 0.99988 0.60509 0.24274 0.0
H537 H 0.0345 0.58684 0.22959 0.0
H538 H 0.06108 0.57446 0.14134 0.0
H539 H 0.0675 0.59243 0.18685 0.0
H540 H 0.88107 0.59735 0.10273 0.0
H541 H 0.88318 0.60758 0.14985 0.0
H542 H 0.88923 0.55755 0.07013 0.0
H543 H 0.92868 0.54738 0.05546 0.0
C544 C 0.48679 0.24365 0.1905 0.0
C545 C 0.45247 0.2419 0.20676 0.0
C546 C 0.41461 0.17994 0.17683 0.0
C547 C 0.45033 0.1803 0.16373 0.0
N548 N 0.52269 0.2101 0.1632 0.0
N549 N 0.38688 0.20596 0.22177 0.0
C550 C 0.48712 0.21153 0.17195 0.0
C551 C 0.41722 0.20934 0.20172 0.0
N552 N 0.51848 0.2762 0.19181 0.0
N553 N 0.37782 0.15208 0.16454 0.0
H554 H 0.38788 0.22661 0.24086 0.0
H555 H 0.36267 0.18149 0.22216 0.0
H556 H 0.37448 0.13022 0.14588 0.0
H557 H 0.34993 0.15238 0.17005 0.0
H558 H 0.54224 0.27997 0.17706 0.0
H559 H 0.51924 0.30031 0.20512 0.0
H560 H 0.5514 0.23057 0.17209 0.0
H561 H 0.5241 0.187 0.14975 0.0
C562 C 0.14884 0.9488 0.63154 0.0
C563 C 0.17167 0.93807 0.60802 0.0
C564 C 0.14074 0.96305 0.55567 0.0
C565 C 0.12069 0.97668 0.57994 0.0
N566 N 0.1128 0.98923 0.64262 0.0
N567 N 0.19623 0.94177 0.55001 0.0
C568 C 0.12678 0.97147 0.6184 0.0
C569 C 0.16975 0.94731 0.57078 0.0
N570 N 0.14703 0.93631 0.66595 0.0
N571 N 0.13044 0.96312 0.51797 0.0
H572 H 0.21802 0.93035 0.56014 0.0
H573 H 0.19921 0.95161 0.52408 0.0
H574 H 0.10842 0.97322 0.50548 0.0
H575 H 0.14069 0.94984 0.49892 0.0
H576 H 0.12733 0.94 0.68264 0.0
H577 H 0.16249 0.91942 0.67651 0.0
H578 H 0.11993 0.98935 0.67145 0.0
H579 H 0.09757 1.00692 0.6342 0.0
C580 C 0.88643 0.43469 0.91395 0.0
C581 C 0.85037 0.42988 0.92861 0.0
C582 C 0.89274 0.4562 0.99026 0.0
C583 C 0.92859 0.45786 0.97629 0.0
N584 N 0.95893 0.44365 0.92613 0.0
N585 N 0.8181 0.43166 0.98139 0.0
C586 C 0.92522 0.44557 0.93852 0.0
C587 C 0.85322 0.43978 0.9669 0.0
N588 N 0.88368 0.42991 0.87628 0.0
N589 N 0.89625 0.46963 1.02607 0.0
H590 H 0.78865 0.41983 0.96525 0.0
H591 H 0.8179 0.43408 1.00976 0.0
H592 H 0.92362 0.47801 0.04554 0.0
H593 H 0.87232 0.47404 0.03617 0.0
H594 H 0.90918 0.43685 0.86338 0.0
H595 H 0.85579 0.42216 0.85746 0.0
H596 H 0.95745 0.43099 0.90026 0.0
H597 H 0.98813 0.45209 0.94273 0.0
C598 C 0.66301 0.56181 0.40577 0.0
C599 C 0.70505 0.57837 0.42349 0.0
C600 C 0.68284 0.5685 0.48467 0.0
C601 C 0.64062 0.55571 0.46696 0.0
N602 N 0.59118 0.54689 0.41 0.0
N603 N 0.75433 0.60196 0.48065 0.0
C604 C 0.63094 0.55398 0.4273 0.0
C605 C 0.71475 0.58277 0.46322 0.0
N606 N 0.65359 0.55269 0.36816 0.0
N607 N 0.69263 0.56593 0.52198 0.0
H608 H 0.77836 0.61262 0.46621 0.0
H609 H 0.76276 0.60984 0.50915 0.0
H610 H 0.67036 0.55536 0.5383 0.0
H611 H 0.72253 0.57107 0.53602 0.0
H612 H 0.62409 0.53702 0.35402 0.0
H613 H 0.67599 0.55774 0.35159 0.0
H614 H 0.58285 0.54945 0.38182 0.0
H615 H 0.56688 0.54194 0.4243 0.0
C616 C 0.27551 0.4327 0.19436 0.0
C617 C 0.29904 0.45871 0.22496 0.0
C618 C 0.25656 0.49558 0.20909 0.0
C619 C 0.23017 0.46776 0.18113 0.0
N620 N 0.21367 0.40978 0.14645 0.0
N621 N 0.31487 0.51664 0.25963 0.0
C622 C 0.23978 0.4365 0.17319 0.0
C623 C 0.2906 0.49071 0.23152 0.0
N624 N 0.2877 0.40461 0.1855 0.0
N625 N 0.24944 0.52684 0.21569 0.0
H626 H 0.34059 0.51445 0.27663 0.0
H627 H 0.30934 0.54042 0.2655 0.0
H628 H 0.22529 0.53298 0.20048 0.0
H629 H 0.22529 0.53298 0.20048 0.0
H630 H 0.27455 0.38659 0.16159 0.0
H631 H 0.31326 0.40068 0.20082 0.0
H632 H 0.21571 0.38429 0.14213 0.0
H633 H 0.18836 0.41244 0.12923 0.0
C634 C 0.57758 0.17912 0.94757 0.0
C635 C 0.55795 0.17447 0.90961 0.0
C636 C 0.51114 0.11338 0.91948 0.0
C637 C 0.53334 0.11611 0.95677 0.0
N638 N 0.58924 0.1532 1.00575 0.0
N639 N 0.51075 0.13484 0.85775 0.0
C640 C 0.56721 0.14933 0.97047 0.0
C641 C 0.52609 0.14096 0.8952 0.0
N642 N 0.60499 0.21283 0.96238 0.0
N643 N 0.47489 0.08501 0.907 0.0
H644 H 0.52009 0.15449 0.83926 0.0
H645 H 0.49155 0.10937 0.84451 0.0
H646 H 0.46224 0.06349 0.92229 0.0
H647 H 0.45504 0.08431 0.88227 0.0
H648 H 0.61678 0.21981 0.99072 0.0
H649 H 0.61366 0.23502 0.94662 0.0
H650 H 0.61807 0.17339 1.01493 0.0
H651 H 0.57939 0.13607 1.02602 0.0
C652 C 0.99229 0.89055 0.40307 0.0
C653 C 0.95134 0.86543 0.40177 0.0
C654 C 0.94031 0.91161 0.44216 0.0
C655 C 0.98271 0.93356 0.44855 0.0
N656 N 0.04982 0.94357 0.43436 0.0
N657 N 0.88525 0.87216 0.39522 0.0
C658 C 1.00889 0.92283 0.42881 0.0
C659 C 0.92434 0.88094 0.41472 0.0
N660 N 1.01242 0.88754 0.37507 0.0
N661 N 0.91462 0.92031 0.46156 0.0
H662 H 0.87588 0.85748 0.36902 0.0
H663 H 0.86527 0.88471 0.40154 0.0
H664 H 0.92487 0.94276 0.4814 0.0
H665 H 0.88401 0.9033 0.45992 0.0
H666 H 0.04081 0.90651 0.37232 0.0
H667 H 0.99748 0.86957 0.35123 0.0
H668 H 0.07131 0.9349 0.42457 0.0
H669 H 0.06261 0.96834 0.45089 0.0
C670 C 0.40456 0.73163 0.57365 0.0
C671 C 0.40676 0.74603 0.61027 0.0
C672 C 0.46476 0.72703 0.6334 0.0
C673 C 0.46423 0.71461 0.59643 0.0
N674 N 0.4395 0.71179 0.53043 0.0
N675 N 0.44474 0.76539 0.67318 0.0
C676 C 0.43586 0.71896 0.56622 0.0
C677 C 0.43869 0.74619 0.6396 0.0
N678 N 0.3718 0.72882 0.54634 0.0
N679 N 0.48872 0.71909 0.66279 0.0
H680 H 0.42653 0.78011 0.67872 0.0
H681 H 0.47015 0.76963 0.69426 0.0
H682 H 0.50803 0.70479 0.65962 0.0
H683 H 0.48678 0.72387 0.69046 0.0
H684 H 0.3661 0.71487 0.52019 0.0
H685 H 0.34844 0.73801 0.55073 0.0
H686 H 0.42238 0.71785 0.50724 0.0
H687 H 0.46234 0.70282 0.52401 0.0
C688 C 0.81969 0.77859 0.65632 0.0
C689 C 0.77887 0.77267 0.6381 0.0
C690 C 0.80495 0.81778 0.59481 0.0
C691 C 0.84486 0.82801 0.61707 0.0
N692 N 0.89197 0.81765 0.66706 0.0
N693 N 0.73158 0.7838 0.58888 0.0
C694 C 0.85288 0.80773 0.64685 0.0
C695 C 0.77127 0.79097 0.60647 0.0
N696 N 0.82638 0.7566 0.68299 0.0
N697 N 0.79943 0.83419 0.56293 0.0
H698 H 0.70661 0.76302 0.59577 0.0
H699 H 0.72301 0.79891 0.56842 0.0
H700 H 0.82345 0.85441 0.55415 0.0
H701 H 0.77195 0.82616 0.54369 0.0
H702 H 0.8554 0.75731 0.69538 0.0
H703 H 0.80254 0.73549 0.69092 0.0
H704 H 0.89954 0.80713 0.69183 0.0
H705 H 0.91712 0.83769 0.65952 0.0
C706 C 0.6278 0.14968 0.16421 0.0
C707 C 0.66637 0.14674 0.17798 0.0
C708 C 0.65678 0.10372 0.1246 0.0
C709 C 0.61862 0.1074 0.1102 0.0
N710 N 0.57461 0.14254 0.11049 0.0
N711 N 0.72294 0.13015 0.16615 0.0
C712 C 0.60643 0.13332 0.12809 0.0
C713 C 0.68273 0.12699 0.1562 0.0
N714 N 0.61012 0.16588 0.18634 0.0
N715 N 0.66696 0.07628 0.11034 0.0
H716 H 0.74263 0.14721 0.1892 0.0
H717 H 0.73762 0.11891 0.14949 0.0
H718 H 0.64827 0.05725 0.08841 0.0
H719 H 0.69231 0.07019 0.1227 0.0
H720 H 0.57979 0.16453 0.17916 0.0
H721 H 0.62437 0.17806 0.21316 0.0
H722 H 0.56744 0.16405 0.12072 0.0
H723 H 0.55827 0.13141 0.08383 0.0
C724 C 0.44154 0.59355 0.38749 0.0
C725 C 0.47444 0.62692 0.38618 0.0
C726 C 0.51785 0.60862 0.43611 0.0
C727 C 0.48396 0.5765 0.43946 0.0
N728 N 0.4105 0.54461 0.42438 0.0
N729 N 0.54082 0.66973 0.41607 0.0
C730 C 0.44491 0.57096 0.41696 0.0
C731 C 0.51159 0.63551 0.41266 0.0
N732 N 0.40763 0.58231 0.35959 0.0
N733 N 0.55671 0.61267 0.45319 0.0
H734 H 0.53725 0.69013 0.39979 0.0
H735 H 0.56657 0.67884 0.43745 0.0
H736 H 0.56297 0.59357 0.46958 0.0
H737 H 0.583 0.63317 0.44818 0.0
H738 H 0.38478 0.55648 0.35693 0.0
H739 H 0.40427 0.59725 0.33698 0.0
H740 H 0.38078 0.54147 0.41127 0.0
H741 H 0.41137 0.52871 0.44664 0.0
C742 C 0.1192 0.49346 0.88096 0.0
C743 C 0.11941 0.45722 0.8793 0.0
C744 C 0.08641 0.44802 0.93553 0.0
C745 C 0.08955 0.48525 0.93912 0.0
N746 N 0.11715 0.54496 0.91806 0.0
N747 N 0.10948 0.40233 0.91008 0.0
C748 C 0.10815 0.50828 0.91248 0.0
C749 C 0.10473 0.43525 0.90808 0.0
N750 N 0.12811 0.51359 0.85159 0.0
N751 N 0.06403 0.42406 0.95715 0.0
H752 H 0.12274 0.39218 0.89103 0.0
H753 H 0.1039 0.38671 0.93247 0.0
H754 H 0.0496 0.43176 0.9768 0.0
H755 H 0.05643 0.39597 0.95316 0.0
H756 H 0.12396 0.53838 0.84881 0.0
H757 H 0.13604 0.50396 0.82823 0.0
H758 H 0.13472 0.56379 0.90234 0.0
H759 H 0.11069 0.55702 0.94079 0.0
C760 C 0.59913 0.84769 0.82363 0.0
C761 C 0.57235 0.81358 0.832 0.0
C762 C 0.54731 0.84462 0.8763 0.0
C763 C 0.57769 0.87821 0.87131 0.0
N764 N 0.63252 0.91286 0.84081 0.0
N765 N 0.5208 0.77849 0.86545 0.0
C766 C 0.60326 0.88012 0.84475 0.0
C767 C 0.54598 0.81178 0.8578 0.0
N768 N 0.62069 0.84893 0.79555 0.0
N769 N 0.51984 0.84428 0.89875 0.0
H770 H 0.51762 0.75413 0.85092 0.0
H771 H 0.5043 0.77463 0.88701 0.0
H772 H 0.52083 0.86768 0.91364 0.0
H773 H 0.4944 0.82144 0.90091 0.0
H774 H 0.6374 0.8729 0.78528 0.0
H775 H 0.61977 0.8257 0.78044 0.0
H776 H 0.65568 0.91577 0.82557 0.0
H777 H 0.63497 0.93745 0.85435 0.0
C778 C 0.92333 0.12493 0.46701 0.0
C779 C 0.88109 0.10283 0.45605 0.0
C780 C 0.89959 0.04861 0.46249 0.0
C781 C 0.94052 0.07071 0.47951 0.0
N782 N 0.98623 0.13083 0.50829 0.0
N783 N 0.82835 0.04315 0.45349 0.0
C784 C 0.95112 0.10919 0.48477 0.0
C785 C 0.86893 0.06447 0.45694 0.0
N786 N 0.93752 0.16052 0.45942 0.0
N787 N 0.89006 1.01307 0.44977 0.0
H788 H 0.80507 0.05394 0.45146 0.0
H789 H 0.81858 1.01537 0.45697 0.0
H790 H 0.91218 1.00118 0.44968 0.0
H791 H 0.86107 0.997 0.4348 0.0
H792 H 0.96881 0.17647 0.46435 0.0
H793 H 0.91886 0.17273 0.44433 0.0
H794 H 0.99301 0.15859 0.51464 0.0
H795 H 1.0055 0.12062 0.52539 0.0
C796 C 0.20231 0.6406 0.11182 0.0
C797 C 0.23243 0.6243 0.11226 0.0
C798 C 0.18733 0.57954 0.0608 0.0
C799 C 0.15555 0.59319 0.06326 0.0
N800 N 0.13121 0.6352 0.09274 0.0
N801 N 0.25162 0.57505 0.09136 0.0
C802 C 0.16254 0.6232 0.08938 0.0
C803 C 0.22439 0.59285 0.08786 0.0
N804 N 0.21234 0.67365 0.13147 0.0
N805 N 0.18244 0.5544 0.03215 0.0
H806 H 0.27882 0.5838 0.11117 0.0
H807 H 0.24565 0.54996 0.07695 0.0
H808 H 0.15609 0.54477 1.01143 0.0
H809 H 0.20588 0.54581 1.02681 0.0
H810 H 0.19338 0.68894 0.12899 0.0
H811 H 0.24117 0.68749 0.14802 0.0
H812 H 0.13265 0.6534 0.11463 0.0
H813 H 0.10278 0.62564 0.07465 0.0
C814 C 0.35848 0.49403 0.59872 0.0
C815 C 0.3628 0.47363 0.62991 0.0
C816 C 0.4276 0.47263 0.61302 0.0
C817 C 0.42574 0.49629 0.5846 0.0
N818 N 0.39163 0.53413 0.5545 0.0
N819 N 0.40918 0.45358 0.67209 0.0
C820 C 0.39203 0.50868 0.57902 0.0
C821 C 0.39966 0.46593 0.63854 0.0
N822 N 0.32153 0.49754 0.58619 0.0
N823 N 0.45551 0.45565 0.61543 0.0
H824 H 0.39106 0.45044 0.69247 0.0
H825 H 0.43734 0.45068 0.68131 0.0
H826 H 0.47651 0.45959 0.59758 0.0
H827 H 0.45532 0.43524 0.63303 0.0
H828 H 0.31517 0.50878 0.56152 0.0
H829 H 0.29582 0.48597 0.59834 0.0
H830 H 0.37043 0.54722 0.55208 0.0
H831 H 0.41445 0.54412 0.53859 0.0
C832 C 0.80758 0.64724 0.88172 0.0
C833 C 0.77062 0.61604 0.87361 0.0
C834 C 0.80769 0.5779 0.90084 0.0
C835 C 0.84432 0.60922 0.90991 0.0
N836 N 0.87682 0.67466 0.91763 0.0
N837 N 0.73459 0.552 0.87805 0.0
C838 C 0.84346 0.64423 0.9031 0.0
C839 C 0.7704 0.58165 0.8843 0.0
N840 N 0.80928 0.67917 0.8669 0.0
N841 N 0.80735 0.54384 0.90712 0.0
H842 H 0.70617 0.55351 0.86669 0.0
H843 H 0.7334 0.52621 0.88529 0.0
H844 H 0.83327 0.53815 0.91874 0.0
H845 H 0.83327 0.53815 0.91874 0.0
H846 H 0.83655 0.70138 0.86832 0.0
H847 H 0.78424 0.68254 0.85004 0.0
H848 H 0.87647 0.701 0.91702 0.0
H849 H 0.90363 0.67344 0.93358 0.0
C850 C 0.48584 0.88182 0.10027 0.0
C851 C 0.50221 0.8888 0.13919 0.0
C852 C 0.53189 0.95454 0.13098 0.0
C853 C 0.519 0.94709 0.09161 0.0
N854 N 0.49083 0.90198 0.03854 0.0
N855 N 0.54582 0.93149 0.19082 0.0
C856 C 0.49768 0.91028 0.07618 0.0
C857 C 0.52655 0.92514 0.15431 0.0
N858 N 0.45803 0.84809 0.08629 0.0
N859 N 0.54818 0.98992 0.14632 0.0
H860 H 0.54254 0.91086 0.20868 0.0
H861 H 0.56769 0.95652 0.20263 0.0
H862 H 0.55239 1.01205 0.13037 0.0
H863 H 0.5541 0.99735 0.17483 0.0
H864 H 0.44146 0.84238 0.05907 0.0
H865 H 0.44872 0.82657 0.10279 0.0
H866 H 0.47954 0.87537 1.02598 0.0
H867 H 0.50003 0.92151 1.01996 0.0
C868 C 0.10158 0.1889 0.59984 0.0
C869 C 0.09906 0.19333 0.6381 0.0
C870 C 0.06569 0.12622 0.63674 0.0
C871 C 0.06911 0.12176 0.59869 0.0
N872 N 0.09749 0.14849 0.54638 0.0
N873 N 0.08499 0.16573 0.69459 0.0
C874 C 0.08945 0.15305 0.58109 0.0
C875 C 0.08272 0.16178 0.65692 0.0
N876 N 0.11407 0.21914 0.58091 0.0
N877 N 0.04617 0.09624 0.65378 0.0
H878 H 0.09671 0.19108 0.7101 0.0
H879 H 0.07811 0.14405 0.71107 0.0
H880 H 0.03769 0.06965 0.64177 0.0
H881 H 0.03719 0.09757 0.67932 0.0
H882 H 0.11242 0.21812 0.5522 0.0
H883 H 0.12308 0.24559 0.59351 0.0
H884 H 0.11589 0.16947 0.53326 0.0
H885 H 0.08854 0.12292 0.53186 0.0
C886 C 0.59295 0.27193 0.44103 0.0
C887 C 0.63586 0.28682 0.45579 0.0
C888 C 0.62853 0.34171 0.48206 0.0
C889 C 0.5855 0.32643 0.46801 0.0
N890 N 0.52533 0.27408 0.44217 0.0
N891 N 0.693 0.33145 0.49718 0.0
C892 C 0.56726 0.2905 0.45011 0.0
C893 C 0.65313 0.32032 0.47862 0.0
N894 N 0.57706 0.2411 0.41675 0.0
N895 N 0.64619 0.37722 0.49696 0.0
H896 H 0.71171 0.31628 0.49515 0.0
H897 H 0.70631 0.3538 0.51709 0.0
H898 H 0.62926 0.39377 0.50016 0.0
H899 H 0.67787 0.39116 0.5037 0.0
H900 H 0.54705 0.23146 0.40163 0.0
H901 H 0.59467 0.22644 0.40952 0.0
H902 H 0.51013 0.24667 0.43252 0.0
H903 H 0.50566 0.287 0.44849 0.0
loop_
_geom_bond_atom_site_label_1
_geom_bond_atom_site_label_2
_geom_bond_distance
_geom_bond_site_symmetry_2
_ccdc_geom_bond_type
C0 C1 1.386 . S
C0 C2 1.397 . S
C0 H24 0.931 . S
C1 C0 1.386 . S
C1 C5 1.397 . S
C2 C0 1.397 . S
C2 C3 1.384 . S
C2 H25 0.930 . S
C3 C2 1.384 . S
C3 C4 1.377 . S
C3 C6 1.481 . S
C4 C3 1.377 . S
C4 C5 1.389 . S
C4 H26 0.929 . S
C5 C1 1.397 . S
C5 C4 1.389 . S
C5 H27 0.931 . S
C6 C3 1.481 . S
C6 C7 1.387 . S
C6 C11 1.390 . S
C7 C6 1.387 . S
C7 C8 1.401 . S
C7 H28 0.930 . S
C8 C7 1.401 . S
C8 C9 1.376 . S
C8 C17 1.511 . S
C9 C8 1.376 . S
C9 C10 1.392 . S
C9 H30 0.931 . S
C10 C9 1.392 . S
C10 C11 1.361 . S
C10 C12 1.500 . S
C11 C6 1.390 . S
C11 C10 1.361 . S
C11 H29 0.931 . S
C12 C10 1.500 . S
C12 C13 1.371 . S
C12 C14 1.365 . S
C13 C12 1.371 . S
C13 C23 1.386 . S
C13 H31 0.931 . S
C14 C12 1.365 . S
C14 C15 1.409 . S
C14 H32 0.929 . S
C15 C14 1.409 . S
C15 C16 1.380 . S
C15 H33 0.930 . S
C16 C15 1.380 . S
C16 C23 1.357 . S
C17 C8 1.511 . S
C17 C18 1.341 . S
C17 C19 1.371 . S
C18 C17 1.341 . S
C18 C22 1.394 . S
C18 H34 0.930 . S
C19 C17 1.371 . S
C19 C20 1.392 . S
C19 H35 0.931 . S
C20 C19 1.392 . S
C20 C21 1.331 . S
C20 H38 0.932 . S
C21 C20 1.331 . S
C21 C22 1.336 . S
C22 C18 1.394 . S
C22 C21 1.336 . S
C22 H37 0.929 . S
C23 C13 1.386 . S
C23 C16 1.357 . S
C23 H36 0.928 . S
H24 C0 0.931 . S
H25 C2 0.930 . S
H26 C4 0.929 . S
H27 C5 0.931 . S
H28 C7 0.930 . S
H29 C11 0.931 . S
H30 C9 0.931 . S
H31 C13 0.931 . S
H32 C14 0.929 . S
H33 C15 0.930 . S
H34 C18 0.930 . S
H35 C19 0.931 . S
H36 C23 0.928 . S
H37 C22 0.929 . S
H38 C20 0.932 . S
C39 C40 1.386 . S
C39 C41 1.397 . S
C39 H63 0.931 . S
C40 C39 1.386 . S
C40 C44 1.397 . S
C41 C39 1.397 . S
C41 C42 1.384 . S
C41 H64 0.930 . S
C42 C41 1.384 . S
C42 C43 1.377 . S
C42 C45 1.481 . S
C43 C42 1.377 . S
C43 C44 1.389 . S
C43 H65 0.929 . S
C44 C40 1.397 . S
C44 C43 1.389 . S
C44 H66 0.931 . S
C45 C42 1.481 . S
C45 C46 1.387 . S
C45 C50 1.390 . S
C46 C45 1.387 . S
C46 C47 1.401 . S
C46 H67 0.930 . S
C47 C46 1.401 . S
C47 C48 1.376 . S
C47 C56 1.511 . S
C48 C47 1.376 . S
C48 C49 1.392 . S
C48 H69 0.931 . S
C49 C48 1.392 . S
C49 C50 1.361 . S
C49 C51 1.500 . S
C50 C45 1.390 . S
C50 C49 1.361 . S
C50 H68 0.931 . S
C51 C49 1.500 . S
C51 C52 1.371 . S
C51 C53 1.365 . S
C52 C51 1.371 . S
C52 C62 1.386 . S
C52 H70 0.931 . S
C53 C51 1.365 . S
C53 C54 1.409 . S
C53 H71 0.929 . S
C54 C53 1.409 . S
C54 C55 1.380 . S
C54 H72 0.930 . S
C55 C54 1.380 . S
C55 C62 1.357 . S
C56 C47 1.511 . S
C56 C57 1.341 . S
C56 C58 1.371 . S
C57 C56 1.341 . S
C57 C61 1.394 . S
C57 H73 0.930 . S
C58 C56 1.371 . S
C58 C59 1.392 . S
C58 H74 0.931 . S
C59 C58 1.392 . S
C59 C60 1.331 . S
C59 H77 0.932 . S
C60 C59 1.331 . S
C60 C61 1.336 . S
C61 C57 1.394 . S
C61 C60 1.336 . S
C61 H76 0.929 . S
C62 C52 1.386 . S
C62 C55 1.357 . S
C62 H75 0.928 . S
H63 C39 0.931 . S
H64 C41 0.930 . S
H65 C43 0.929 . S
H66 C44 0.931 . S
H67 C46 0.930 . S
H68 C50 0.931 . S
H69 C48 0.931 . S
H70 C52 0.931 . S
H71 C53 0.929 . S
H72 C54 0.930 . S
H73 C57 0.930 . S
H74 C58 0.931 . S
H75 C62 0.928 . S
H76 C61 0.929 . S
H77 C59 0.932 . S
C78 C79 1.386 . S
C78 C80 1.397 . S
C78 H102 0.931 . S
C79 C78 1.386 . S
C79 C83 1.397 . S
C80 C78 1.397 . S
C80 C81 1.384 . S
C80 H103 0.930 . S
C81 C80 1.384 . S
C81 C82 1.377 . S
C81 C84 1.481 . S
C82 C81 1.377 . S
C82 C83 1.389 . S
C82 H104 0.929 . S
C83 C79 1.397 . S
C83 C82 1.389 . S
C83 H105 0.931 . S
C84 C81 1.481 . S
C84 C85 1.387 . S
C84 C89 1.390 . S
C85 C84 1.387 . S
C85 C86 1.401 . S
C85 H106 0.930 . S
C86 C85 1.401 . S
C86 C87 1.376 . S
C86 C95 1.511 . S
C87 C86 1.376 . S
C87 C88 1.392 . S
C87 H108 0.931 . S
C88 C87 1.392 . S
C88 C89 1.361 . S
C88 C90 1.500 . S
C89 C84 1.390 . S
C89 C88 1.361 . S
C89 H107 0.931 . S
C90 C88 1.500 . S
C90 C91 1.371 . S
C90 C92 1.365 . S
C91 C90 1.371 . S
C91 C101 1.386 . S
C91 H109 0.931 . S
C92 C90 1.365 . S
C92 C93 1.409 . S
C92 H110 0.929 . S
C93 C92 1.409 . S
C93 C94 1.380 . S
C93 H111 0.930 . S
C94 C93 1.380 . S
C94 C101 1.357 . S
C95 C86 1.511 . S
C95 C96 1.341 . S
C95 C97 1.371 . S
C96 C95 1.341 . S
C96 C100 1.394 . S
C96 H112 0.930 . S
C97 C95 1.371 . S
C97 C98 1.392 . S
C97 H113 0.931 . S
C98 C97 1.392 . S
C98 C99 1.331 . S
C98 H116 0.932 . S
C99 C98 1.331 . S
C99 C100 1.336 . S
C100 C96 1.394 . S
C100 C99 1.336 . S
C100 H115 0.929 . S
C101 C91 1.386 . S
C101 C94 1.357 . S
C101 H114 0.928 . S
H102 C78 0.931 . S
H103 C80 0.930 . S
H104 C82 0.929 . S
H105 C83 0.931 . S
H106 C85 0.930 . S
H107 C89 0.931 . S
H108 C87 0.931 . S
H109 C91 0.931 . S
H110 C92 0.929 . S
H111 C93 0.930 . S
H112 C96 0.930 . S
H113 C97 0.931 . S
H114 C101 0.928 . S
H115 C100 0.929 . S
H116 C98 0.932 . S
C117 C118 1.386 . S
C117 C119 1.397 . S
C117 H141 0.931 . S
C118 C117 1.386 . S
C118 C122 1.397 . S
C119 C117 1.397 . S
C119 C120 1.384 . S
C119 H142 0.930 . S
C120 C119 1.384 . S
C120 C121 1.377 . S
C120 C123 1.481 . S
C121 C120 1.377 . S
C121 C122 1.389 . S
C121 H143 0.929 . S
C122 C118 1.397 . S
C122 C121 1.389 . S
C122 H144 0.931 . S
C123 C120 1.481 . S
C123 C124 1.387 . S
C123 C128 1.390 . S
C124 C123 1.387 . S
C124 C125 1.401 . S
C124 H145 0.930 . S
C125 C124 1.401 . S
C125 C126 1.376 . S
C125 C134 1.511 . S
C126 C125 1.376 . S
C126 C127 1.392 . S
C126 H147 0.931 . S
C127 C126 1.392 . S
C127 C128 1.361 . S
C127 C129 1.500 . S
C128 C123 1.390 . S
C128 C127 1.361 . S
C128 H146 0.931 . S
C129 C127 1.500 . S
C129 C130 1.371 . S
C129 C131 1.365 . S
C130 C129 1.371 . S
C130 C140 1.386 . S
C130 H148 0.931 . S
C131 C129 1.365 . S
C131 C132 1.409 . S
C131 H149 0.929 . S
C132 C131 1.409 . S
C132 C133 1.380 . S
C132 H150 0.930 . S
C133 C132 1.380 . S
C133 C140 1.357 . S
C134 C125 1.511 . S
C134 C135 1.341 . S
C134 C136 1.371 . S
C135 C134 1.341 . S
C135 C139 1.394 . S
C135 H151 0.930 . S
C136 C134 1.371 . S
C136 C137 1.392 . S
C136 H152 0.931 . S
C137 C136 1.392 . S
C137 C138 1.331 . S
C137 H155 0.932 . S
C138 C137 1.331 . S
C138 C139 1.336 . S
C139 C135 1.394 . S
C139 C138 1.336 . S
C139 H154 0.929 . S
C140 C130 1.386 . S
C140 C133 1.357 . S
C140 H153 0.928 . S
H141 C117 0.931 . S
H142 C119 0.930 . S
H143 C121 0.929 . S
H144 C122 0.931 . S
H145 C124 0.930 . S
H146 C128 0.931 . S
H147 C126 0.931 . S
H148 C130 0.931 . S
H149 C131 0.929 . S
H150 C132 0.930 . S
H151 C135 0.930 . S
H152 C136 0.931 . S
H153 C140 0.928 . S
H154 C139 0.929 . S
H155 C137 0.932 . S
C156 C157 1.386 . S
C156 C158 1.397 . S
C156 H180 0.931 . S
C157 C156 1.386 . S
C157 C161 1.397 . S
C158 C156 1.397 . S
C158 C159 1.384 . S
C158 H181 0.930 . S
C159 C158 1.384 . S
C159 C160 1.377 . S
C159 C162 1.481 . S
C160 C159 1.377 . S
C160 C161 1.389 . S
C160 H182 0.929 . S
C161 C157 1.397 . S
C161 C160 1.389 . S
C161 H183 0.931 . S
C162 C159 1.481 . S
C162 C163 1.387 . S
C162 C167 1.390 . S
C163 C162 1.387 . S
C163 C164 1.401 . S
C163 H184 0.930 . S
C164 C163 1.401 . S
C164 C165 1.376 . S
C164 C173 1.511 . S
C165 C164 1.376 . S
C165 C166 1.392 . S
C165 H186 0.931 . S
C166 C165 1.392 . S
C166 C167 1.361 . S
C166 C168 1.500 . S
C167 C162 1.390 . S
C167 C166 1.361 . S
C167 H185 0.931 . S
C168 C166 1.500 . S
C168 C169 1.371 . S
C168 C170 1.365 . S
C169 C168 1.371 . S
C169 C179 1.386 . S
C169 H187 0.931 . S
C170 C168 1.365 . S
C170 C171 1.409 . S
C170 H188 0.929 . S
C171 C170 1.409 . S
C171 C172 1.380 . S
C171 H189 0.930 . S
C172 C171 1.380 . S
C172 C179 1.357 . S
C173 C164 1.511 . S
C173 C174 1.341 . S
C173 C175 1.371 . S
C174 C173 1.341 . S
C174 C178 1.394 . S
C174 H190 0.930 . S
C175 C173 1.371 . S
C175 C176 1.392 . S
C175 H191 0.931 . S
C176 C175 1.392 . S
C176 C177 1.331 . S
C176 H194 0.932 . S
C177 C176 1.331 . S
C177 C178 1.336 . S
C178 C174 1.394 . S
C178 C177 1.336 . S
C178 H193 0.929 . S
C179 C169 1.386 . S
C179 C172 1.357 . S
C179 H192 0.928 . S
H180 C156 0.931 . S
H181 C158 0.930 . S
H182 C160 0.929 . S
H183 C161 0.931 . S
H184 C163 0.930 . S
H185 C167 0.931 . S
H186 C165 0.931 . S
H187 C169 0.931 . S
H188 C170 0.929 . S
H189 C171 0.930 . S
H190 C174 0.930 . S
H191 C175 0.931 . S
H192 C179 0.928 . S
H193 C178 0.929 . S
H194 C176 0.932 . S
C195 C196 1.386 . S
C195 C197 1.397 . S
C195 H219 0.931 . S
C196 C195 1.386 . S
C196 C200 1.397 . S
C197 C195 1.397 . S
C197 C198 1.384 . S
C197 H220 0.930 . S
C198 C197 1.384 . S
C198 C199 1.377 . S
C198 C201 1.481 . S
C199 C198 1.377 . S
C199 C200 1.389 . S
C199 H221 0.929 . S
C200 C196 1.397 . S
C200 C199 1.389 . S
C200 H222 0.931 . S
C201 C198 1.481 . S
C201 C202 1.387 . S
C201 C206 1.390 . S
C202 C201 1.387 . S
C202 C203 1.401 . S
C202 H223 0.930 . S
C203 C202 1.401 . S
C203 C204 1.376 . S
C203 C212 1.511 . S
C204 C203 1.376 . S
C204 C205 1.392 . S
C204 H225 0.931 . S
C205 C204 1.392 . S
C205 C206 1.361 . S
C205 C207 1.500 . S
C206 C201 1.390 . S
C206 C205 1.361 . S
C206 H224 0.931 . S
C207 C205 1.500 . S
C207 C208 1.371 . S
C207 C209 1.365 . S
C208 C207 1.371 . S
C208 C218 1.386 . S
C208 H226 0.931 . S
C209 C207 1.365 . S
C209 C210 1.409 . S
C209 H227 0.929 . S
C210 C209 1.409 . S
C210 C211 1.380 . S
C210 H228 0.930 . S
C211 C210 1.380 . S
C211 C218 1.357 . S
C212 C203 1.511 . S
C212 C213 1.341 . S
C212 C214 1.371 . S
C213 C212 1.341 . S
C213 C217 1.394 . S
C213 H229 0.930 . S
C214 C212 1.371 . S
C214 C215 1.392 . S
C214 H230 0.931 . S
C215 C214 1.392 . S
C215 C216 1.331 . S
C215 H233 0.932 . S
C216 C215 1.331 . S
C216 C217 1.336 . S
C217 C213 1.394 . S
C217 C216 1.336 . S
C217 H232 0.929 . S
C218 C208 1.386 . S
C218 C211 1.357 . S
C218 H231 0.928 . S
H219 C195 0.931 . S
H220 C197 0.930 . S
H221 C199 0.929 . S
H222 C200 0.931 . S
H223 C202 0.930 . S
H224 C206 0.931 . S
H225 C204 0.931 . S
H226 C208 0.931 . S
H227 C209 0.929 . S
H228 C210 0.930 . S
H229 C213 0.930 . S
H230 C214 0.931 . S
H231 C218 0.928 . S
H232 C217 0.929 . S
H233 C215 0.932 . S
C234 C235 1.386 . S
C234 C236 1.397 . S
C234 H258 0.931 . S
C235 C234 1.386 . S
C235 C239 1.397 . S
C236 C234 1.397 . S
C236 C237 1.384 . S
C236 H259 0.930 . S
C237 C236 1.384 . S
C237 C238 1.377 . S
C237 C240 1.481 . S
C238 C237 1.377 . S
C238 C239 1.389 . S
C238 H260 0.929 . S
C239 C235 1.397 . S
C239 C238 1.389 . S
C239 H261 0.931 . S
C240 C237 1.481 . S
C240 C241 1.387 . S
C240 C245 1.390 . S
C241 C240 1.387 . S
C241 C242 1.401 . S
C241 H262 0.930 . S
C242 C241 1.401 . S
C242 C243 1.376 . S
C242 C251 1.511 . S
C243 C242 1.376 . S
C243 C244 1.392 . S
C243 H264 0.931 . S
C244 C243 1.392 . S
C244 C245 1.361 . S
C244 C246 1.500 . S
C245 C240 1.390 . S
C245 C244 1.361 . S
C245 H263 0.931 . S
C246 C244 1.500 . S
C246 C247 1.371 . S
C246 C248 1.365 . S
C247 C246 1.371 . S
C247 C257 1.386 . S
C247 H265 0.931 . S
C248 C246 1.365 . S
C248 C249 1.409 . S
C248 H266 0.929 . S
C249 C248 1.409 . S
C249 C250 1.380 . S
C249 H267 0.930 . S
C250 C249 1.380 . S
C250 C257 1.357 . S
C251 C242 1.511 . S
C251 C252 1.341 . S
C251 C253 1.371 . S
C252 C251 1.341 . S
C252 C256 1.394 . S
C252 H268 0.930 . S
C253 C251 1.371 . S
C253 C254 1.392 . S
C253 H269 0.931 . S
C254 C253 1.392 . S
C254 C255 1.331 . S
C254 H272 0.932 . S
C255 C254 1.331 . S
C255 C256 1.336 . S
C256 C252 1.394 . S
C256 C255 1.336 . S
C256 H271 0.929 . S
C257 C247 1.386 . S
C257 C250 1.357 . S
C257 H270 0.928 . S
H258 C234 0.931 . S
H259 C236 0.930 . S
H260 C238 0.929 . S
H261 C239 0.931 . S
H262 C241 0.930 . S
H263 C245 0.931 . S
H264 C243 0.931 . S
H265 C247 0.931 . S
H266 C248 0.929 . S
H267 C249 0.930 . S
H268 C252 0.930 . S
H269 C253 0.931 . S
H270 C257 0.928 . S
H271 C256 0.929 . S
H272 C254 0.932 . S
C273 C274 1.386 . S
C273 C275 1.397 . S
C273 H297 0.931 . S
C274 C273 1.386 . S
C274 C278 1.397 . S
C275 C273 1.397 . S
C275 C276 1.384 . S
C275 H298 0.930 . S
C276 C275 1.384 . S
C276 C277 1.377 . S
C276 C279 1.481 . S
C277 C276 1.377 . S
C277 C278 1.389 . S
C277 H299 0.929 . S
C278 C274 1.397 . S
C278 C277 1.389 . S
C278 H300 0.931 . S
C279 C276 1.481 . S
C279 C280 1.387 . S
C279 C284 1.390 . S
C280 C279 1.387 . S
C280 C281 1.401 . S
C280 H301 0.930 . S
C281 C280 1.401 . S
C281 C282 1.376 . S
C281 C290 1.511 . S
C282 C281 1.376 . S
C282 C283 1.392 . S
C282 H303 0.931 . S
C283 C282 1.392 . S
C283 C284 1.361 . S
C283 C285 1.500 . S
C284 C279 1.390 . S
C284 C283 1.361 . S
C284 H302 0.931 . S
C285 C283 1.500 . S
C285 C286 1.371 . S
C285 C287 1.365 . S
C286 C285 1.371 . S
C286 C296 1.386 . S
C286 H304 0.931 . S
C287 C285 1.365 . S
C287 C288 1.409 . S
C287 H305 0.929 . S
C288 C287 1.409 . S
C288 C289 1.380 . S
C288 H306 0.930 . S
C289 C288 1.380 . S
C289 C296 1.357 . S
C290 C281 1.511 . S
C290 C291 1.341 . S
C290 C292 1.371 . S
C291 C290 1.341 . S
C291 C295 1.394 . S
C291 H307 0.930 . S
C292 C290 1.371 . S
C292 C293 1.392 . S
C292 H308 0.931 . S
C293 C292 1.392 . S
C293 C294 1.331 . S
C293 H311 0.932 . S
C294 C293 1.331 . S
C294 C295 1.336 . S
C295 C291 1.394 . S
C295 C294 1.336 . S
C295 H310 0.929 . S
C296 C286 1.386 . S
C296 C289 1.357 . S
C296 H309 0.928 . S
H297 C273 0.931 . S
H298 C275 0.930 . S
H299 C277 0.929 . S
H300 C278 0.931 . S
H301 C280 0.930 . S
H302 C284 0.931 . S
H303 C282 0.931 . S
H304 C286 0.931 . S
H305 C287 0.929 . S
H306 C288 0.930 . S
H307 C291 0.930 . S
H308 C292 0.931 . S
H309 C296 0.928 . S
H310 C295 0.929 . S
H311 C293 0.932 . S
Pr312 C314 2.880 . S
Pr312 O332 2.562 . S
Pr312 O333 2.490 . S
Pr312 O334 2.695 1_665 S
Pr312 O335 2.512 1_665 S
Pr312 O337 2.437 1_655 S
Pr312 O340 2.436 . S
Pr312 O342 2.438 1_565 S
Pr313 C323 2.880 . S
Pr313 O334 2.436 . S
Pr313 O336 2.438 1_545 S
Pr313 O338 2.562 . S
Pr313 O339 2.490 . S
Pr313 O340 2.695 1_445 S
Pr313 O341 2.512 1_545 S
Pr313 O343 2.437 1_455 S
C314 Pr312 2.880 . S
C314 C315 1.491 . S
C314 O332 1.254 . S
C314 O333 1.225 . S
C315 C314 1.491 . S
C315 C316 1.392 . S
C315 C320 1.356 . S
C316 C315 1.392 . S
C316 C317 1.368 . S
C316 H344 0.929 . S
C317 C316 1.368 . S
C317 C318 1.386 . S
C317 H345 0.929 . S
C318 C317 1.386 . S
C318 C319 1.373 . S
C319 C318 1.373 . S
C319 C320 1.409 . S
C319 H346 0.931 . S
C320 C315 1.356 . S
C320 C319 1.409 . S
C320 H347 0.930 . S
C321 O334 1.270 . S
C321 O335 1.248 . S
C322 O336 1.267 . S
C322 O337 1.278 . S
C323 Pr313 2.880 . S
C323 C324 1.491 . S
C323 O338 1.254 . S
C323 O339 1.225 . S
C324 C323 1.491 . S
C324 C325 1.392 . S
C324 C329 1.356 . S
C325 C324 1.392 . S
C325 C326 1.368 . S
C325 H348 0.929 . S
C326 C325 1.368 . S
C326 C327 1.386 . S
C326 H349 0.929 . S
C327 C326 1.386 . S
C327 C328 1.373 . S
C328 C327 1.373 . S
C328 C329 1.409 . S
C328 H350 0.931 . S
C329 C324 1.356 . S
C329 C328 1.409 . S
C329 H351 0.930 . S
C330 O340 1.270 . S
C330 O341 1.248 1_655 S
C331 O342 1.267 . S
C331 O343 1.278 . S
O332 Pr312 2.562 . S
O332 C314 1.254 . S
O333 Pr312 2.490 . S
O333 C314 1.225 . S
O334 Pr312 2.695 1_445 S
O334 Pr313 2.436 . S
O334 C321 1.270 . S
O335 Pr312 2.512 1_445 S
O335 C321 1.248 . S
O336 Pr313 2.438 1_565 S
O336 C322 1.267 . S
O337 Pr312 2.437 1_455 S
O337 C322 1.278 . S
O338 Pr313 2.562 . S
O338 C323 1.254 . S
O339 Pr313 2.490 . S
O339 C323 1.225 . S
O340 Pr312 2.436 . S
O340 Pr313 2.695 1_665 S
O340 C330 1.270 . S
O341 Pr313 2.512 1_565 S
O341 C330 1.248 1_455 S
O342 Pr312 2.438 1_545 S
O342 C331 1.267 . S
O343 Pr313 2.437 1_655 S
O343 C331 1.278 . S
H344 C316 0.929 . S
H345 C317 0.929 . S
H346 C319 0.931 . S
H347 C320 0.930 . S
H348 C325 0.929 . S
H349 C326 0.929 . S
H350 C328 0.931 . S
H351 C329 0.930 . S
Pr352 C354 2.880 . S
Pr352 O372 2.562 . S
Pr352 O373 2.490 . S
Pr352 O374 2.695 1_554 S
Pr352 O375 2.512 1_554 S
Pr352 O377 2.437 . S
Pr352 O380 2.436 1_545 S
Pr352 O382 2.438 1_544 S
Pr353 C363 2.861 1_554 S
Pr353 O374 2.426 1_564 S
Pr353 O376 2.456 1_565 S
Pr353 O378 2.537 1_554 S
Pr353 O379 2.480 1_554 S
Pr353 O380 2.712 . S
Pr353 O381 2.531 . S
Pr353 O383 2.427 1_554 S
C354 Pr352 2.880 . S
C354 C355 1.491 . S
C354 O372 1.254 . S
C354 O373 1.225 . S
C355 C354 1.491 . S
C355 C356 1.392 . S
C355 C360 1.356 . S
C356 C355 1.392 . S
C356 C357 1.368 . S
C356 H384 0.929 . S
C357 C356 1.368 . S
C357 C358 1.386 . S
C357 H385 0.929 . S
C358 C357 1.386 . S
C358 C359 1.373 . S
C359 C358 1.373 . S
C359 C360 1.409 . S
C359 H386 0.931 . S
C360 C355 1.356 . S
C360 C359 1.409 . S
C360 H387 0.930 . S
C361 O374 1.270 . S
C361 O375 1.248 . S
C362 O376 1.267 . S
C362 O377 1.278 . S
C363 Pr353 2.861 1_556 S
C363 C364 1.491 . S
C363 O378 1.254 . S
C363 O379 1.225 . S
C364 C363 1.491 . S
C364 C365 1.392 . S
C364 C369 1.356 . S
C365 C364 1.392 . S
C365 C366 1.368 . S
C365 H388 0.929 . S
C366 C365 1.368 . S
C366 C367 1.386 . S
C366 H389 0.929 . S
C367 C366 1.386 . S
C367 C368 1.373 . S
C368 C367 1.373 . S
C368 C369 1.409 . S
C368 H390 0.931 . S
C369 C364 1.356 . S
C369 C368 1.409 . S
C369 H391 0.930 . S
C370 O380 1.270 . S
C370 O381 1.248 . S
C371 O382 1.267 . S
C371 O383 1.278 . S
O372 Pr352 2.562 . S
O372 C354 1.254 . S
O373 Pr352 2.490 . S
O373 C354 1.225 . S
O374 Pr352 2.695 1_556 S
O374 Pr353 2.426 1_546 S
O374 C361 1.270 . S
O375 Pr352 2.512 1_556 S
O375 C361 1.248 . S
O376 Pr353 2.456 1_545 S
O376 C362 1.267 . S
O377 Pr352 2.437 . S
O377 C362 1.278 . S
O378 Pr353 2.537 1_556 S
O378 C363 1.254 . S
O379 Pr353 2.480 1_556 S
O379 C363 1.225 . S
O380 Pr352 2.436 1_565 S
O380 Pr353 2.712 . S
O380 C370 1.270 . S
O381 Pr353 2.531 . S
O381 C370 1.248 . S
O382 Pr352 2.438 1_566 S
O382 C371 1.267 . S
O383 Pr353 2.427 1_556 S
O383 C371 1.278 . S
H384 C356 0.929 . S
H385 C357 0.929 . S
H386 C359 0.931 . S
H387 C360 0.930 . S
H388 C365 0.929 . S
H389 C366 0.929 . S
H390 C368 0.931 . S
H391 C369 0.930 . S
Pr392 C394 2.880 . S
Pr392 O412 2.562 . S
Pr392 O413 2.490 . S
Pr392 O414 2.695 . S
Pr392 O415 2.512 . S
Pr392 O417 2.437 . S
Pr392 O420 2.436 . S
Pr392 O422 2.438 . S
Pr393 C403 2.880 . S
Pr393 O414 2.436 . S
Pr393 O416 2.438 . S
Pr393 O418 2.562 . S
Pr393 O419 2.490 . S
Pr393 O420 2.695 . S
Pr393 O421 2.512 . S
Pr393 O423 2.437 . S
C394 Pr392 2.880 . S
C394 C395 1.491 . S
C394 O412 1.254 . S
C394 O413 1.225 . S
C395 C394 1.491 . S
C395 C396 1.392 . S
C395 C400 1.356 . S
C396 C395 1.392 . S
C396 C397 1.368 . S
C396 H424 0.929 . S
C397 C396 1.368 . S
C397 C398 1.386 . S
C397 H425 0.929 . S
C398 C397 1.386 . S
C398 C399 1.373 . S
C399 C398 1.373 . S
C399 C400 1.409 . S
C399 H426 0.931 . S
C400 C395 1.356 . S
C400 C399 1.409 . S
C400 H427 0.930 . S
C401 O414 1.270 . S
C401 O415 1.248 . S
C402 O416 1.267 . S
C402 O417 1.278 . S
C403 Pr393 2.880 . S
C403 C404 1.491 . S
C403 O418 1.254 . S
C403 O419 1.225 . S
C404 C403 1.491 . S
C404 C405 1.392 . S
C404 C409 1.356 . S
C405 C404 1.392 . S
C405 C406 1.368 . S
C405 H428 0.929 . S
C406 C405 1.368 . S
C406 C407 1.386 . S
C406 H429 0.929 . S
C407 C406 1.386 . S
C407 C408 1.373 . S
C408 C407 1.373 . S
C408 C409 1.409 . S
C408 H430 0.931 . S
C409 C404 1.356 . S
C409 C408 1.409 . S
C409 H431 0.930 . S
C410 O420 1.270 . S
C410 O421 1.248 . S
C411 O422 1.267 . S
C411 O423 1.278 . S
O412 Pr392 2.562 . S
O412 C394 1.254 . S
O413 Pr392 2.490 . S
O413 C394 1.225 . S
O414 Pr392 2.695 . S
O414 Pr393 2.436 . S
O414 C401 1.270 . S
O415 Pr392 2.512 . S
O415 C401 1.248 . S
O416 Pr393 2.438 . S
O416 C402 1.267 . S
O417 Pr392 2.437 . S
O417 C402 1.278 . S
O418 Pr393 2.562 . S
O418 C403 1.254 . S
O419 Pr393 2.490 . S
O419 C403 1.225 . S
O420 Pr392 2.436 . S
O420 Pr393 2.695 . S
O420 C410 1.270 . S
O421 Pr393 2.512 . S
O421 C410 1.248 . S
O422 Pr392 2.438 . S
O422 C411 1.267 . S
O423 Pr393 2.437 . S
O423 C411 1.278 . S
H424 C396 0.929 . S
H425 C397 0.929 . S
H426 C399 0.931 . S
H427 C400 0.930 . S
H428 C405 0.929 . S
H429 C406 0.929 . S
H430 C408 0.931 . S
H431 C409 0.930 . S
Pr432 C434 2.880 . S
Pr432 O452 2.562 . S
Pr432 O453 2.490 . S
Pr432 O454 2.695 1_656 S
Pr432 O455 2.512 1_656 S
Pr432 O457 2.437 1_556 S
Pr432 O460 2.436 . S
Pr432 O462 2.438 1_655 S
Pr433 C443 2.880 . S
Pr433 O454 2.436 . S
Pr433 O456 2.438 1_455 S
Pr433 O458 2.562 . S
Pr433 O459 2.490 . S
Pr433 O460 2.695 1_454 S
Pr433 O461 2.512 1_454 S
Pr433 O463 2.437 1_554 S
C434 Pr432 2.880 . S
C434 C435 1.491 . S
C434 O452 1.254 . S
C434 O453 1.225 . S
C435 C434 1.491 . S
C435 C436 1.392 . S
C435 C440 1.356 . S
C436 C435 1.392 . S
C436 C437 1.368 . S
C436 H464 0.929 . S
C437 C436 1.368 . S
C437 C438 1.386 . S
C437 H465 0.929 . S
C438 C437 1.386 . S
C438 C439 1.373 . S
C439 C438 1.373 . S
C439 C440 1.409 . S
C439 H466 0.931 . S
C440 C435 1.356 . S
C440 C439 1.409 . S
C440 H467 0.930 . S
C441 O454 1.270 . S
C441 O455 1.248 . S
C442 O456 1.267 . S
C442 O457 1.278 . S
C443 Pr433 2.880 . S
C443 C444 1.491 . S
C443 O458 1.254 . S
C443 O459 1.225 . S
C444 C443 1.491 . S
C444 C445 1.392 . S
C444 C449 1.356 . S
C445 C444 1.392 . S
C445 C446 1.368 . S
C445 H468 0.929 . S
C446 C445 1.368 . S
C446 C447 1.386 . S
C446 H469 0.929 . S
C447 C446 1.386 . S
C447 C448 1.373 . S
C448 C447 1.373 . S
C448 C449 1.409 . S
C448 H470 0.931 . S
C449 C444 1.356 . S
C449 C448 1.409 . S
C449 H471 0.930 . S
C450 O460 1.270 . S
C450 O461 1.248 . S
C451 O462 1.267 . S
C451 O463 1.278 . S
O452 Pr432 2.562 . S
O452 C434 1.254 . S
O453 Pr432 2.490 . S
O453 C434 1.225 . S
O454 Pr432 2.695 1_454 S
O454 Pr433 2.436 . S
O454 C441 1.270 . S
O455 Pr432 2.512 1_454 S
O455 C441 1.248 . S
O456 Pr433 2.438 1_655 S
O456 C442 1.267 . S
O457 Pr432 2.437 1_554 S
O457 C442 1.278 . S
O458 Pr433 2.562 . S
O458 C443 1.254 . S
O459 Pr433 2.490 . S
O459 C443 1.225 . S
O460 Pr432 2.436 . S
O460 Pr433 2.695 1_656 S
O460 C450 1.270 . S
O461 Pr433 2.512 1_656 S
O461 C450 1.248 . S
O462 Pr432 2.438 1_455 S
O462 C451 1.267 . S
O463 Pr433 2.437 1_556 S
O463 C451 1.278 . S
H464 C436 0.929 . S
H465 C437 0.929 . S
H466 C439 0.931 . S
H467 C440 0.930 . S
H468 C445 0.929 . S
H469 C446 0.929 . S
H470 C448 0.931 . S
H471 C449 0.930 . S
C472 C473 1.363 . S
C472 C478 1.379 . S
C472 N480 1.356 . S
C473 C472 1.363 . S
C473 C479 1.363 . S
C474 C475 1.363 . S
C474 C479 1.379 . S
C474 N481 1.356 . S
C475 C474 1.363 . S
C475 C478 1.363 . S
N476 C478 1.356 . S
N476 H488 0.984 . S
N476 H489 0.985 . S
N477 C479 1.356 . S
N477 H482 0.984 . S
N477 H483 0.985 . S
C478 C472 1.379 . S
C478 C475 1.363 . S
C478 N476 1.356 . S
C479 C473 1.363 . S
C479 C474 1.379 . S
C479 N477 1.356 . S
N480 C472 1.356 . S
N480 H486 0.984 . S
N480 H487 0.984 . S
N481 C474 1.356 . S
N481 H484 0.984 . S
N481 H485 0.985 . S
H482 N477 0.984 . S
H483 N477 0.985 . S
H484 N481 0.984 . S
H485 N481 0.985 . S
H486 N480 0.984 . S
H487 N480 0.984 . S
H488 N476 0.984 . S
H489 N476 0.985 . S
C490 C491 1.363 . S
C490 C496 1.379 . S
C490 N498 1.356 . S
C491 C490 1.363 . S
C491 C497 1.363 . S
C492 C493 1.363 . S
C492 C497 1.379 . S
C492 N499 1.356 . S
C493 C492 1.363 . S
C493 C496 1.363 . S
N494 C496 1.356 . S
N494 H506 0.984 . S
N494 H507 0.985 . S
N495 C497 1.356 . S
N495 H500 0.984 . S
N495 H501 0.985 . S
C496 C490 1.379 . S
C496 C493 1.363 . S
C496 N494 1.356 . S
C497 C491 1.363 . S
C497 C492 1.379 . S
C497 N495 1.356 . S
N498 C490 1.356 . S
N498 H504 0.984 . S
N498 H505 0.984 . S
N499 C492 1.356 . S
N499 H502 0.984 . S
N499 H503 0.985 . S
H500 N495 0.984 . S
H501 N495 0.985 . S
H502 N499 0.984 . S
H503 N499 0.985 . S
H504 N498 0.984 . S
H505 N498 0.984 . S
H506 N494 0.984 . S
H507 N494 0.985 . S
C508 C509 1.363 . S
C508 C514 1.379 . S
C508 N516 1.356 . S
C509 C508 1.363 . S
C509 C515 1.363 . S
C510 C511 1.363 . S
C510 C515 1.379 . S
C510 N517 1.356 . S
C511 C510 1.363 . S
C511 C514 1.363 . S
N512 C514 1.356 . S
N512 H524 0.984 . S
N512 H525 0.985 . S
N513 C515 1.356 . S
N513 H518 0.984 . S
N513 H519 0.985 . S
C514 C508 1.379 . S
C514 C511 1.363 . S
C514 N512 1.356 . S
C515 C509 1.363 . S
C515 C510 1.379 . S
C515 N513 1.356 . S
N516 C508 1.356 . S
N516 H522 0.984 . S
N516 H523 0.984 . S
N517 C510 1.356 . S
N517 H520 0.984 . S
N517 H521 0.985 . S
H518 N513 0.984 . S
H519 N513 0.985 . S
H520 N517 0.984 . S
H521 N517 0.985 . S
H522 N516 0.984 . S
H523 N516 0.984 . S
H524 N512 0.984 . S
H525 N512 0.985 . S
C526 C527 1.363 . S
C526 C532 1.379 . S
C526 N534 1.356 . S
C527 C526 1.363 . S
C527 C533 1.363 . S
C528 C529 1.363 . S
C528 C533 1.379 . S
C528 N535 1.356 . S
C529 C528 1.363 . S
C529 C532 1.363 . S
N530 C532 1.356 . S
N530 H542 0.984 . S
N530 H543 0.985 . S
N531 C533 1.356 . S
N531 H536 0.984 . S
N531 H537 0.985 . S
C532 C526 1.379 . S
C532 C529 1.363 . S
C532 N530 1.356 . S
C533 C527 1.363 . S
C533 C528 1.379 . S
C533 N531 1.356 . S
N534 C526 1.356 . S
N534 H540 0.984 . S
N534 H541 0.984 . S
N535 C528 1.356 . S
N535 H538 0.984 . S
N535 H539 0.985 . S
H536 N531 0.984 . S
H537 N531 0.985 . S
H538 N535 0.984 . S
H539 N535 0.985 . S
H540 N534 0.984 . S
H541 N534 0.984 . S
H542 N530 0.984 . S
H543 N530 0.985 . S
C544 C545 1.363 . S
C544 C550 1.379 . S
C544 N552 1.356 . S
C545 C544 1.363 . S
C545 C551 1.363 . S
C546 C547 1.363 . S
C546 C551 1.379 . S
C546 N553 1.356 . S
C547 C546 1.363 . S
C547 C550 1.363 . S
N548 C550 1.356 . S
N548 H560 0.984 . S
N548 H561 0.985 . S
N549 C551 1.356 . S
N549 H554 0.984 . S
N549 H555 0.985 . S
C550 C544 1.379 . S
C550 C547 1.363 . S
C550 N548 1.356 . S
C551 C545 1.363 . S
C551 C546 1.379 . S
C551 N549 1.356 . S
N552 C544 1.356 . S
N552 H558 0.984 . S
N552 H559 0.984 . S
N553 C546 1.356 . S
N553 H556 0.984 . S
N553 H557 0.985 . S
H554 N549 0.984 . S
H555 N549 0.985 . S
H556 N553 0.984 . S
H557 N553 0.985 . S
H558 N552 0.984 . S
H559 N552 0.984 . S
H560 N548 0.984 . S
H561 N548 0.985 . S
C562 C563 1.363 . S
C562 C568 1.379 . S
C562 N570 1.356 . S
C563 C562 1.363 . S
C563 C569 1.363 . S
C564 C565 1.363 . S
C564 C569 1.379 . S
C564 N571 1.356 . S
C565 C564 1.363 . S
C565 C568 1.363 . S
N566 C568 1.356 . S
N566 H578 0.984 1_455 S
N566 H579 0.985 . S
N567 C569 1.356 . S
N567 H572 0.984 . S
N567 H573 0.985 . S
C568 C562 1.379 . S
C568 C565 1.363 . S
C568 N566 1.356 . S
C569 C563 1.363 . S
C569 C564 1.379 . S
C569 N567 1.356 . S
N570 C562 1.356 . S
N570 H576 0.984 . S
N570 H577 0.984 . S
N571 C564 1.356 . S
N571 H574 0.984 . S
N571 H575 0.985 . S
H572 N567 0.984 . S
H573 N567 0.985 . S
H574 N571 0.984 . S
H575 N571 0.985 . S
H576 N570 0.984 . S
H577 N570 0.984 . S
H578 N566 0.984 1_655 S
H579 N566 0.985 . S
C580 C581 1.363 . S
C580 C586 1.379 . S
C580 N588 1.356 . S
C581 C580 1.363 . S
C581 C587 1.363 . S
C582 C583 1.363 . S
C582 C587 1.379 . S
C582 N589 1.356 . S
C583 C582 1.363 . S
C583 C586 1.363 . S
N584 C586 1.356 . S
N584 H596 0.984 . S
N584 H597 0.985 . S
N585 C587 1.356 . S
N585 H590 0.984 . S
N585 H591 0.985 . S
C586 C580 1.379 . S
C586 C583 1.363 . S
C586 N584 1.356 . S
C587 C581 1.363 . S
C587 C582 1.379 . S
C587 N585 1.356 . S
N588 C580 1.356 . S
N588 H594 0.984 . S
N588 H595 0.984 . S
N589 C582 1.356 . S
N589 H592 0.984 . S
N589 H593 0.985 . S
H590 N585 0.984 . S
H591 N585 0.985 . S
H592 N589 0.984 . S
H593 N589 0.985 . S
H594 N588 0.984 . S
H595 N588 0.984 . S
H596 N584 0.984 . S
H597 N584 0.985 . S
C598 C599 1.363 . S
C598 C604 1.379 . S
C598 N606 1.356 . S
C599 C598 1.363 . S
C599 C605 1.363 . S
C600 C601 1.363 . S
C600 C605 1.379 . S
C600 N607 1.356 . S
C601 C600 1.363 . S
C601 C604 1.363 . S
N602 C604 1.356 . S
N602 H614 0.984 . S
N602 H615 0.985 . S
N603 C605 1.356 . S
N603 H608 0.984 . S
N603 H609 0.985 . S
C604 C598 1.379 . S
C604 C601 1.363 . S
C604 N602 1.356 . S
C605 C599 1.363 . S
C605 C600 1.379 . S
C605 N603 1.356 . S
N606 C598 1.356 . S
N606 H612 0.984 . S
N606 H613 0.984 . S
N607 C600 1.356 . S
N607 H610 0.984 . S
N607 H611 0.985 . S
H608 N603 0.984 . S
H609 N603 0.985 . S
H610 N607 0.984 . S
H611 N607 0.985 . S
H612 N606 0.984 . S
H613 N606 0.984 . S
H614 N602 0.984 . S
H615 N602 0.985 . S
C616 C617 1.363 . S
C616 C622 1.379 . S
C616 N624 1.356 . S
C617 C616 1.363 . S
C617 C623 1.363 . S
C618 C619 1.363 . S
C618 C623 1.379 . S
C618 N625 1.356 . S
C619 C618 1.363 . S
C619 C622 1.363 . S
N620 C622 1.356 . S
N620 H632 0.984 . S
N620 H633 0.985 . S
N621 C623 1.356 . S
N621 H626 0.984 . S
N621 H627 0.985 . S
C622 C616 1.379 . S
C622 C619 1.363 . S
C622 N620 1.356 . S
C623 C617 1.363 . S
C623 C618 1.379 . S
C623 N621 1.356 . S
N624 C616 1.356 . S
N624 H630 0.984 . S
N624 H631 0.984 . S
N625 C618 1.356 . S
N625 H628 0.984 . S
N625 H629 0.985 . S
H626 N621 0.984 . S
H627 N621 0.985 . S
H628 N625 0.984 . S
H629 N625 0.985 . S
H630 N624 0.984 . S
H631 N624 0.984 . S
H632 N620 0.984 . S
H633 N620 0.985 . S
C634 C635 1.363 . S
C634 C640 1.379 . S
C634 N642 1.356 . S
C635 C634 1.363 . S
C635 C641 1.363 . S
C636 C637 1.363 . S
C636 C641 1.379 . S
C636 N643 1.356 . S
C637 C636 1.363 . S
C637 C640 1.363 . S
N638 C640 1.356 . S
N638 H650 0.984 . S
N638 H651 0.985 . S
N639 C641 1.356 . S
N639 H644 0.984 . S
N639 H645 0.985 . S
C640 C634 1.379 . S
C640 C637 1.363 . S
C640 N638 1.356 . S
C641 C635 1.363 . S
C641 C636 1.379 . S
C641 N639 1.356 . S
N642 C634 1.356 . S
N642 H648 0.984 . S
N642 H649 0.984 . S
N643 C636 1.356 . S
N643 H646 0.984 . S
N643 H647 0.985 . S
H644 N639 0.984 . S
H645 N639 0.985 . S
H646 N643 0.984 . S
H647 N643 0.985 . S
H648 N642 0.984 . S
H649 N642 0.984 . S
H650 N638 0.984 . S
H651 N638 0.985 . S
C652 C653 1.363 . S
C652 C658 1.379 . S
C652 N660 1.356 . S
C653 C652 1.363 . S
C653 C659 1.363 . S
C654 C655 1.363 . S
C654 C659 1.379 . S
C654 N661 1.356 . S
C655 C654 1.363 . S
C655 C658 1.363 . S
N656 C658 1.356 1_455 S
N656 H668 0.984 . S
N656 H669 0.985 . S
N657 C659 1.356 . S
N657 H662 0.984 . S
N657 H663 0.985 . S
C658 C652 1.379 . S
C658 C655 1.363 . S
C658 N656 1.356 1_655 S
C659 C653 1.363 . S
C659 C654 1.379 . S
C659 N657 1.356 . S
N660 C652 1.356 . S
N660 H666 0.984 . S
N660 H667 0.984 . S
N661 C654 1.356 . S
N661 H664 0.984 . S
N661 H665 0.985 . S
H662 N657 0.984 . S
H663 N657 0.985 . S
H664 N661 0.984 . S
H665 N661 0.985 . S
H666 N660 0.984 . S
H667 N660 0.984 . S
H668 N656 0.984 . S
H669 N656 0.985 . S
C670 C671 1.363 . S
C670 C676 1.379 . S
C670 N678 1.356 . S
C671 C670 1.363 . S
C671 C677 1.363 . S
C672 C673 1.363 . S
C672 C677 1.379 . S
C672 N679 1.356 . S
C673 C672 1.363 . S
C673 C676 1.363 . S
N674 C676 1.356 . S
N674 H686 0.984 . S
N674 H687 0.985 . S
N675 C677 1.356 . S
N675 H680 0.984 . S
N675 H681 0.985 . S
C676 C670 1.379 . S
C676 C673 1.363 . S
C676 N674 1.356 . S
C677 C671 1.363 . S
C677 C672 1.379 . S
C677 N675 1.356 . S
N678 C670 1.356 . S
N678 H684 0.984 . S
N678 H685 0.984 . S
N679 C672 1.356 . S
N679 H682 0.984 . S
N679 H683 0.985 . S
H680 N675 0.984 . S
H681 N675 0.985 . S
H682 N679 0.984 . S
H683 N679 0.985 . S
H684 N678 0.984 . S
H685 N678 0.984 . S
H686 N674 0.984 . S
H687 N674 0.985 . S
C688 C689 1.363 . S
C688 C694 1.379 . S
C688 N696 1.356 . S
C689 C688 1.363 . S
C689 C695 1.363 . S
C690 C691 1.363 . S
C690 C695 1.379 . S
C690 N697 1.356 . S
C691 C690 1.363 . S
C691 C694 1.363 . S
N692 C694 1.356 . S
N692 H704 0.984 . S
N692 H705 0.985 . S
N693 C695 1.356 . S
N693 H698 0.984 . S
N693 H699 0.985 . S
C694 C688 1.379 . S
C694 C691 1.363 . S
C694 N692 1.356 . S
C695 C689 1.363 . S
C695 C690 1.379 . S
C695 N693 1.356 . S
N696 C688 1.356 . S
N696 H702 0.984 . S
N696 H703 0.984 . S
N697 C690 1.356 . S
N697 H700 0.984 . S
N697 H701 0.985 . S
H698 N693 0.984 . S
H699 N693 0.985 . S
H700 N697 0.984 . S
H701 N697 0.985 . S
H702 N696 0.984 . S
H703 N696 0.984 . S
H704 N692 0.984 . S
H705 N692 0.985 . S
C706 C707 1.363 . S
C706 C712 1.379 . S
C706 N714 1.356 . S
C707 C706 1.363 . S
C707 C713 1.363 . S
C708 C709 1.363 . S
C708 C713 1.379 . S
C708 N715 1.356 . S
C709 C708 1.363 . S
C709 C712 1.363 . S
N710 C712 1.356 . S
N710 H722 0.984 . S
N710 H723 0.985 . S
N711 C713 1.356 . S
N711 H716 0.984 . S
N711 H717 0.985 . S
C712 C706 1.379 . S
C712 C709 1.363 . S
C712 N710 1.356 . S
C713 C707 1.363 . S
C713 C708 1.379 . S
C713 N711 1.356 . S
N714 C706 1.356 . S
N714 H720 0.984 . S
N714 H721 0.984 . S
N715 C708 1.356 . S
N715 H718 0.984 . S
N715 H719 0.985 . S
H716 N711 0.984 . S
H717 N711 0.985 . S
H718 N715 0.984 . S
H719 N715 0.985 . S
H720 N714 0.984 . S
H721 N714 0.984 . S
H722 N710 0.984 . S
H723 N710 0.985 . S
C724 C725 1.363 . S
C724 C730 1.379 . S
C724 N732 1.356 . S
C725 C724 1.363 . S
C725 C731 1.363 . S
C726 C727 1.363 . S
C726 C731 1.379 . S
C726 N733 1.356 . S
C727 C726 1.363 . S
C727 C730 1.363 . S
N728 C730 1.356 . S
N728 H740 0.984 . S
N728 H741 0.985 . S
N729 C731 1.356 . S
N729 H734 0.984 . S
N729 H735 0.985 . S
C730 C724 1.379 . S
C730 C727 1.363 . S
C730 N728 1.356 . S
C731 C725 1.363 . S
C731 C726 1.379 . S
C731 N729 1.356 . S
N732 C724 1.356 . S
N732 H738 0.984 . S
N732 H739 0.984 . S
N733 C726 1.356 . S
N733 H736 0.984 . S
N733 H737 0.985 . S
H734 N729 0.984 . S
H735 N729 0.985 . S
H736 N733 0.984 . S
H737 N733 0.985 . S
H738 N732 0.984 . S
H739 N732 0.984 . S
H740 N728 0.984 . S
H741 N728 0.985 . S
C742 C743 1.363 . S
C742 C748 1.379 . S
C742 N750 1.356 . S
C743 C742 1.363 . S
C743 C749 1.363 . S
C744 C745 1.363 . S
C744 C749 1.379 . S
C744 N751 1.356 . S
C745 C744 1.363 . S
C745 C748 1.363 . S
N746 C748 1.356 . S
N746 H758 0.984 . S
N746 H759 0.985 . S
N747 C749 1.356 . S
N747 H752 0.984 . S
N747 H753 0.985 . S
C748 C742 1.379 . S
C748 C745 1.363 . S
C748 N746 1.356 . S
C749 C743 1.363 . S
C749 C744 1.379 . S
C749 N747 1.356 . S
N750 C742 1.356 . S
N750 H756 0.984 . S
N750 H757 0.984 . S
N751 C744 1.356 . S
N751 H754 0.984 . S
N751 H755 0.985 . S
H752 N747 0.984 . S
H753 N747 0.985 . S
H754 N751 0.984 . S
H755 N751 0.985 . S
H756 N750 0.984 . S
H757 N750 0.984 . S
H758 N746 0.984 . S
H759 N746 0.985 . S
C760 C761 1.363 . S
C760 C766 1.379 . S
C760 N768 1.356 . S
C761 C760 1.363 . S
C761 C767 1.363 . S
C762 C763 1.363 . S
C762 C767 1.379 . S
C762 N769 1.356 . S
C763 C762 1.363 . S
C763 C766 1.363 . S
N764 C766 1.356 . S
N764 H776 0.984 . S
N764 H777 0.985 . S
N765 C767 1.356 . S
N765 H770 0.984 . S
N765 H771 0.985 . S
C766 C760 1.379 . S
C766 C763 1.363 . S
C766 N764 1.356 . S
C767 C761 1.363 . S
C767 C762 1.379 . S
C767 N765 1.356 . S
N768 C760 1.356 . S
N768 H774 0.984 . S
N768 H775 0.984 . S
N769 C762 1.356 . S
N769 H772 0.984 . S
N769 H773 0.985 . S
H770 N765 0.984 . S
H771 N765 0.985 . S
H772 N769 0.984 . S
H773 N769 0.985 . S
H774 N768 0.984 . S
H775 N768 0.984 . S
H776 N764 0.984 . S
H777 N764 0.985 . S
C778 C779 1.363 . S
C778 C784 1.379 . S
C778 N786 1.356 . S
C779 C778 1.363 . S
C779 C785 1.363 . S
C780 C781 1.363 . S
C780 C785 1.379 . S
C780 N787 1.356 . S
C781 C780 1.363 . S
C781 C784 1.363 . S
N782 C784 1.356 1_455 S
N782 H794 0.984 . S
N782 H795 0.985 . S
N783 C785 1.356 . S
N783 H788 0.984 . S
N783 H789 0.985 . S
C784 C778 1.379 . S
C784 C781 1.363 . S
C784 N782 1.356 1_655 S
C785 C779 1.363 . S
C785 C780 1.379 . S
C785 N783 1.356 . S
N786 C778 1.356 . S
N786 H792 0.984 1_655 S
N786 H793 0.984 . S
N787 C780 1.356 . S
N787 H790 0.984 . S
N787 H791 0.985 . S
H788 N783 0.984 . S
H789 N783 0.985 . S
H790 N787 0.984 . S
H791 N787 0.985 . S
H792 N786 0.984 1_455 S
H793 N786 0.984 . S
H794 N782 0.984 . S
H795 N782 0.985 . S
C796 C797 1.363 . S
C796 C802 1.379 . S
C796 N804 1.356 . S
C797 C796 1.363 . S
C797 C803 1.363 . S
C798 C799 1.363 . S
C798 C803 1.379 . S
C798 N805 1.356 . S
C799 C798 1.363 . S
C799 C802 1.363 . S
N800 C802 1.356 . S
N800 H812 0.984 . S
N800 H813 0.985 . S
N801 C803 1.356 . S
N801 H806 0.984 . S
N801 H807 0.985 . S
C802 C796 1.379 . S
C802 C799 1.363 . S
C802 N800 1.356 . S
C803 C797 1.363 . S
C803 C798 1.379 . S
C803 N801 1.356 . S
N804 C796 1.356 . S
N804 H810 0.984 . S
N804 H811 0.984 . S
N805 C798 1.356 . S
N805 H808 0.984 . S
N805 H809 0.985 . S
H806 N801 0.984 . S
H807 N801 0.985 . S
H808 N805 0.984 . S
H809 N805 0.985 . S
H810 N804 0.984 . S
H811 N804 0.984 . S
H812 N800 0.984 . S
H813 N800 0.985 . S
C814 C815 1.363 . S
C814 C820 1.379 . S
C814 N822 1.356 . S
C815 C814 1.363 . S
C815 C821 1.363 . S
C816 C817 1.363 . S
C816 C821 1.379 . S
C816 N823 1.356 . S
C817 C816 1.363 . S
C817 C820 1.363 . S
N818 C820 1.356 . S
N818 H830 0.984 . S
N818 H831 0.985 . S
N819 C821 1.356 . S
N819 H824 0.984 . S
N819 H825 0.985 . S
C820 C814 1.379 . S
C820 C817 1.363 . S
C820 N818 1.356 . S
C821 C815 1.363 . S
C821 C816 1.379 . S
C821 N819 1.356 . S
N822 C814 1.356 . S
N822 H828 0.984 . S
N822 H829 0.984 . S
N823 C816 1.356 . S
N823 H826 0.984 . S
N823 H827 0.985 . S
H824 N819 0.984 . S
H825 N819 0.985 . S
H826 N823 0.984 . S
H827 N823 0.985 . S
H828 N822 0.984 . S
H829 N822 0.984 . S
H830 N818 0.984 . S
H831 N818 0.985 . S
C832 C833 1.363 . S
C832 C838 1.379 . S
C832 N840 1.356 . S
C833 C832 1.363 . S
C833 C839 1.363 . S
C834 C835 1.363 . S
C834 C839 1.379 . S
C834 N841 1.356 . S
C835 C834 1.363 . S
C835 C838 1.363 . S
N836 C838 1.356 . S
N836 H848 0.984 . S
N836 H849 0.985 . S
N837 C839 1.356 . S
N837 H842 0.984 . S
N837 H843 0.985 . S
C838 C832 1.379 . S
C838 C835 1.363 . S
C838 N836 1.356 . S
C839 C833 1.363 . S
C839 C834 1.379 . S
C839 N837 1.356 . S
N840 C832 1.356 . S
N840 H846 0.984 . S
N840 H847 0.984 . S
N841 C834 1.356 . S
N841 H844 0.984 . S
N841 H845 0.985 . S
H842 N837 0.984 . S
H843 N837 0.985 . S
H844 N841 0.984 . S
H845 N841 0.985 . S
H846 N840 0.984 . S
H847 N840 0.984 . S
H848 N836 0.984 . S
H849 N836 0.985 . S
C850 C851 1.363 . S
C850 C856 1.379 . S
C850 N858 1.356 . S
C851 C850 1.363 . S
C851 C857 1.363 . S
C852 C853 1.363 . S
C852 C857 1.379 . S
C852 N859 1.356 . S
C853 C852 1.363 . S
C853 C856 1.363 . S
N854 C856 1.356 . S
N854 H866 0.984 . S
N854 H867 0.985 . S
N855 C857 1.356 . S
N855 H860 0.984 . S
N855 H861 0.985 . S
C856 C850 1.379 . S
C856 C853 1.363 . S
C856 N854 1.356 . S
C857 C851 1.363 . S
C857 C852 1.379 . S
C857 N855 1.356 . S
N858 C850 1.356 . S
N858 H864 0.984 . S
N858 H865 0.984 . S
N859 C852 1.356 . S
N859 H862 0.984 . S
N859 H863 0.985 . S
H860 N855 0.984 . S
H861 N855 0.985 . S
H862 N859 0.984 . S
H863 N859 0.985 . S
H864 N858 0.984 . S
H865 N858 0.984 . S
H866 N854 0.984 . S
H867 N854 0.985 . S
C868 C869 1.363 . S
C868 C874 1.379 . S
C868 N876 1.356 . S
C869 C868 1.363 . S
C869 C875 1.363 . S
C870 C871 1.363 . S
C870 C875 1.379 . S
C870 N877 1.356 . S
C871 C870 1.363 . S
C871 C874 1.363 . S
N872 C874 1.356 . S
N872 H884 0.984 . S
N872 H885 0.985 . S
N873 C875 1.356 . S
N873 H878 0.984 . S
N873 H879 0.985 . S
C874 C868 1.379 . S
C874 C871 1.363 . S
C874 N872 1.356 . S
C875 C869 1.363 . S
C875 C870 1.379 . S
C875 N873 1.356 . S
N876 C868 1.356 . S
N876 H882 0.984 . S
N876 H883 0.984 . S
N877 C870 1.356 . S
N877 H880 0.984 . S
N877 H881 0.985 . S
H878 N873 0.984 . S
H879 N873 0.985 . S
H880 N877 0.984 . S
H881 N877 0.985 . S
H882 N876 0.984 . S
H883 N876 0.984 . S
H884 N872 0.984 . S
H885 N872 0.985 . S
C886 C887 1.363 . S
C886 C892 1.379 . S
C886 N894 1.356 . S
C887 C886 1.363 . S
C887 C893 1.363 . S
C888 C889 1.363 . S
C888 C893 1.379 . S
C888 N895 1.356 . S
C889 C888 1.363 . S
C889 C892 1.363 . S
N890 C892 1.356 . S
N890 H902 0.984 . S
N890 H903 0.985 . S
N891 C893 1.356 . S
N891 H896 0.984 . S
N891 H897 0.985 . S
C892 C886 1.379 . S
C892 C889 1.363 . S
C892 N890 1.356 . S
C893 C887 1.363 . S
C893 C888 1.379 . S
C893 N891 1.356 . S
N894 C886 1.356 . S
N894 H900 0.984 . S
N894 H901 0.984 . S
N895 C888 1.356 . S
N895 H898 0.984 . S
N895 H899 0.985 . S
H896 N891 0.984 . S
H897 N891 0.985 . S
H898 N895 0.984 . S
H899 N895 0.985 . S
H900 N894 0.984 . S
H901 N894 0.984 . S
H902 N890 0.984 . S
H903 N890 0.985 . S
C473 C1 1.376 . S
C475 C327 1.451 . S
C491 C40 1.699 . S
C493 C371 1.705 . S
C511 C401 2.393 . S
C509 C99 2.330 . S
C527 C118 2.778 . S
C529 C442 2.744 . S
C547 C358 1.048 . S
C545 C16 0.994 . S
C565 C322 2.539 . S
C563 C60 2.456 . S
C583 C450 1.264 . S
C581 C79 1.239 . S
C601 C411 2.411 . S
C599 C138 2.461 . S
C617 C21 1.589 . S
C619 C447 1.678 . S
C637 C361 2.160 . S
C635 C94 2.178 . S
C653 C133 2.082 . S
C655 C330 2.037 . S
C671 C55 2.072 . S
C673 C398 2.090 . S
C691 C318 1.454 . S
C689 C157 1.395 . S
C707 C196 1.687 . S
C709 C362 1.707 . S
C725 C255 2.343 . S
C727 C410 2.393 . S
C743 C289 2.771 . S
C745 C451 2.739 . S
C761 C172 0.987 . S
C763 C367 1.045 . S
C781 C331 2.539 . S
C779 C216 2.434 . S
C799 C441 1.263 . S
C797 C235 1.244 . S
C817 C402 2.405 . S
C815 C294 2.473 . S
C833 C177 1.630 . S
C835 C438 1.675 . S
C853 C370 2.161 . S
C851 C250 2.176 . S
C871 C321 2.040 . S
C869 C274 2.086 . S
C887 C211 2.079 . S
C889 C407 2.091 . S
