# Generated by pormake.
# Topology pto, (3,4)-cn, num edge types: 1
# Building blocks:
#     Node 0, Type 0, BuildingBlock: WUSLED_clean_sbu_0, # of connection points: 3
#     Node 1, Type 0, BuildingBlock: WUSLED_clean_sbu_0, # of connection points: 3
#     Node 2, Type 0, BuildingBlock: WUSLED_clean_sbu_0, # of connection points: 3
#     Node 3, Type 0, BuildingBlock: WUSLED_clean_sbu_0, # of connection points: 3
#     Node 4, Type 0, BuildingBlock: WUSLED_clean_sbu_0, # of connection points: 3
#     Node 5, Type 0, BuildingBlock: WUSLED_clean_sbu_0, # of connection points: 3
#     Node 6, Type 0, BuildingBlock: WUSLED_clean_sbu_0, # of connection points: 3
#     Node 7, Type 0, BuildingBlock: WUSLED_clean_sbu_0, # of connection points: 3
#     Node 8, Type 1, BuildingBlock: MUDLON_clean_linker_0, # of connection points: 4
#     Node 9, Type 1, BuildingBlock: MUDLON_clean_linker_0, # of connection points: 4
#     Node 10, Type 1, BuildingBlock: MUDLON_clean_linker_0, # of connection points: 4
#     Node 11, Type 1, BuildingBlock: MUDLON_clean_linker_0, # of connection points: 4
#     Node 12, Type 1, BuildingBlock: MUDLON_clean_linker_0, # of connection points: 4
#     Node 13, Type 1, BuildingBlock: MUDLON_clean_linker_0, # of connection points: 4
#     Edge 14, Type (0, 1), BuildingBlock: ZUJKAS_clean_linker_0, # of connection points: 2
#     Edge 15, Type (0, 1), BuildingBlock: ZUJKAS_clean_linker_0, # of connection points: 2
#     Edge 16, Type (0, 1), BuildingBlock: ZUJKAS_clean_linker_0, # of connection points: 2
#     Edge 17, Type (0, 1), BuildingBlock: ZUJKAS_clean_linker_0, # of connection points: 2
#     Edge 18, Type (0, 1), BuildingBlock: ZUJKAS_clean_linker_0, # of connection points: 2
#     Edge 19, Type (0, 1), BuildingBlock: ZUJKAS_clean_linker_0, # of connection points: 2
#     Edge 20, Type (0, 1), BuildingBlock: ZUJKAS_clean_linker_0, # of connection points: 2
#     Edge 21, Type (0, 1), BuildingBlock: ZUJKAS_clean_linker_0, # of connection points: 2
#     Edge 22, Type (0, 1), BuildingBlock: ZUJKAS_clean_linker_0, # of connection points: 2
#     Edge 23, Type (0, 1), BuildingBlock: ZUJKAS_clean_linker_0, # of connection points: 2
#     Edge 24, Type (0, 1), BuildingBlock: ZUJKAS_clean_linker_0, # of connection points: 2
#     Edge 25, Type (0, 1), BuildingBlock: ZUJKAS_clean_linker_0, # of connection points: 2
#     Edge 26, Type (0, 1), BuildingBlock: ZUJKAS_clean_linker_0, # of connection points: 2
#     Edge 27, Type (0, 1), BuildingBlock: ZUJKAS_clean_linker_0, # of connection points: 2
#     Edge 28, Type (0, 1), BuildingBlock: ZUJKAS_clean_linker_0, # of connection points: 2
#     Edge 29, Type (0, 1), BuildingBlock: ZUJKAS_clean_linker_0, # of connection points: 2
#     Edge 30, Type (0, 1), BuildingBlock: ZUJKAS_clean_linker_0, # of connection points: 2
#     Edge 31, Type (0, 1), BuildingBlock: ZUJKAS_clean_linker_0, # of connection points: 2
#     Edge 32, Type (0, 1), BuildingBlock: ZUJKAS_clean_linker_0, # of connection points: 2
#     Edge 33, Type (0, 1), BuildingBlock: ZUJKAS_clean_linker_0, # of connection points: 2
#     Edge 34, Type (0, 1), BuildingBlock: ZUJKAS_clean_linker_0, # of connection points: 2
#     Edge 35, Type (0, 1), BuildingBlock: ZUJKAS_clean_linker_0, # of connection points: 2
#     Edge 36, Type (0, 1), BuildingBlock: ZUJKAS_clean_linker_0, # of connection points: 2
#     Edge 37, Type (0, 1), BuildingBlock: ZUJKAS_clean_linker_0, # of connection points: 2
# Relax obj value: 0.005
# Max RMSD: 0.037
# Mean RMSD: 0.021
data_MOF--net-pto--node1-WUSLED_clean_sbu_0--node2-MUDLON_clean_linker_0--edge1-ZUJKAS_clean_linker_0
_symmetry_space_group_name_H-M    P1
_symmetry_Int_Tables_number       1
_symmetry_cell_setting            triclinic
loop_
_symmetry_equiv_pos_as_xyz
'x, y, z'
_cell_length_a     58.460437
_cell_length_b     97.1477
_cell_length_c     78.464949
_cell_angle_alpha  89.631487
_cell_angle_beta   90.730275
_cell_angle_gamma 90.641108
loop_
_atom_site_label
_atom_site_type_symbol
_atom_site_fract_x
_atom_site_fract_y
_atom_site_fract_z
_atom_type_partial_charge
C0 C 0.2298 0.24496 0.35527 0.0
C1 C 0.24291 0.23386 0.34979 0.0
C2 C 0.22567 0.21902 0.37137 0.0
C3 C 0.24089 0.221 0.35778 0.0
C4 C 0.21254 0.23021 0.37674 0.0
C5 C 0.21461 0.24306 0.36875 0.0
U6 U 0.25223 0.26811 0.31975 0.0
O7 O 0.23495 0.28428 0.30487 0.0
O8 O 0.26514 0.28946 0.32056 0.0
C9 C 0.24823 0.29411 0.31103 0.0
C10 C 0.2316 0.2585 0.34692 0.0
C11 C 0.23621 0.30604 0.31782 0.0
C12 C 0.21086 0.31617 0.33845 0.0
C13 C 0.22272 0.3048 0.33242 0.0
C14 C 0.22608 0.33013 0.31543 0.0
C15 C 0.21228 0.32896 0.32995 0.0
C16 C 0.23793 0.31876 0.30943 0.0
C17 C 0.28968 0.25324 0.28524 0.0
C18 C 0.29982 0.26633 0.25989 0.0
C19 C 0.31631 0.24387 0.265 0.0
C20 C 0.30413 0.24267 0.28016 0.0
C21 C 0.31418 0.25567 0.2546 0.0
C22 C 0.28769 0.26512 0.2751 0.0
C23 C 0.27658 0.25165 0.301 0.0
O24 O 0.25202 0.2643 0.34741 0.0
O25 O 0.22155 0.25941 0.33189 0.0
O26 O 0.25432 0.25294 0.29921 0.0
O27 O 0.285 0.25819 0.31433 0.0
H28 H 0.25472 0.23517 0.33935 0.0
H29 H 0.25143 0.21265 0.35345 0.0
H30 H 0.2004 0.22901 0.38697 0.0
H31 H 0.20426 0.25151 0.37306 0.0
H32 H 0.20019 0.31487 0.34954 0.0
H33 H 0.22119 0.29501 0.33902 0.0
H34 H 0.22781 0.33986 0.30873 0.0
H35 H 0.24834 0.31988 0.29817 0.0
H36 H 0.29761 0.27549 0.25214 0.0
H37 H 0.32752 0.23559 0.26149 0.0
H38 H 0.30595 0.23346 0.2879 0.0
H39 H 0.27659 0.2734 0.27887 0.0
C40 C 0.22569 0.78809 0.66339 0.0
C41 C 0.23798 0.79936 0.67004 0.0
C42 C 0.22171 0.81432 0.64808 0.0
C43 C 0.23601 0.81237 0.66244 0.0
C44 C 0.2094 0.80294 0.64154 0.0
C45 C 0.21139 0.78995 0.64914 0.0
U46 U 0.249 0.76466 0.69828 0.0
O47 O 0.23227 0.74798 0.71271 0.0
O48 O 0.26208 0.74356 0.69701 0.0
C49 C 0.24542 0.73847 0.70631 0.0
C50 C 0.22756 0.7744 0.67129 0.0
C51 C 0.23323 0.72652 0.69909 0.0
C52 C 0.2093 0.71616 0.67701 0.0
C53 C 0.2214 0.72753 0.68347 0.0
C54 C 0.22084 0.70269 0.7017 0.0
C55 C 0.20874 0.70363 0.68612 0.0
C56 C 0.23297 0.71404 0.70811 0.0
C57 C 0.28759 0.78004 0.73303 0.0
C58 C 0.30235 0.76642 0.75673 0.0
C59 C 0.31216 0.79066 0.75446 0.0
C60 C 0.29909 0.79163 0.73948 0.0
C61 C 0.31397 0.77805 0.76327 0.0
C62 C 0.28928 0.76741 0.7417 0.0
C63 C 0.27375 0.78134 0.71738 0.0
O64 O 0.24794 0.76886 0.67071 0.0
O65 O 0.21793 0.77308 0.68627 0.0
O66 O 0.25162 0.77951 0.71926 0.0
O67 O 0.28179 0.7751 0.70393 0.0
H68 H 0.24912 0.79808 0.68106 0.0
H69 H 0.24593 0.82086 0.66769 0.0
H70 H 0.19798 0.80411 0.63066 0.0
H71 H 0.2017 0.78135 0.64391 0.0
H72 H 0.19996 0.71726 0.66508 0.0
H73 H 0.22136 0.73714 0.67638 0.0
H74 H 0.221 0.69315 0.70892 0.0
H75 H 0.24205 0.7131 0.72018 0.0
H76 H 0.30356 0.75653 0.76311 0.0
H77 H 0.32058 0.79986 0.75927 0.0
H78 H 0.29787 0.80147 0.73296 0.0
H79 H 0.28048 0.75834 0.73685 0.0
C80 C 0.7381 0.77948 0.28397 0.0
C81 C 0.73601 0.76646 0.27643 0.0
C82 C 0.71273 0.77614 0.25344 0.0
C83 C 0.72341 0.76479 0.26131 0.0
C84 C 0.71494 0.78916 0.26109 0.0
C85 C 0.72752 0.7908 0.27623 0.0
U86 U 0.77656 0.76502 0.31888 0.0
O87 O 0.80721 0.774 0.33127 0.0
O88 O 0.7772 0.76853 0.34653 0.0
C89 C 0.79736 0.77466 0.3462 0.0
C90 C 0.75146 0.78134 0.29977 0.0
C91 C 0.79874 0.78817 0.35451 0.0
C92 C 0.7842 0.81122 0.35877 0.0
C93 C 0.78267 0.79841 0.35074 0.0
C94 C 0.81807 0.80373 0.37418 0.0
C95 C 0.80193 0.81402 0.37058 0.0
C96 C 0.81645 0.79091 0.36622 0.0
C97 C 0.79308 0.72707 0.31683 0.0
C98 C 0.81574 0.71575 0.33886 0.0
C99 C 0.80609 0.70371 0.31273 0.0
C100 C 0.79419 0.71523 0.30683 0.0
C101 C 0.81709 0.70385 0.32878 0.0
C102 C 0.80388 0.72729 0.3329 0.0
C103 C 0.78092 0.73915 0.31016 0.0
O104 O 0.74354 0.77477 0.31318 0.0
O105 O 0.77371 0.78025 0.29814 0.0
O106 O 0.79403 0.74911 0.30424 0.0
O107 O 0.76411 0.74358 0.31956 0.0
H108 H 0.74421 0.75761 0.28224 0.0
H109 H 0.72227 0.75466 0.25566 0.0
H110 H 0.70668 0.79807 0.25549 0.0
H111 H 0.72896 0.80092 0.2819 0.0
H112 H 0.77167 0.81898 0.35558 0.0
H113 H 0.76897 0.79651 0.3416 0.0
H114 H 0.83177 0.80551 0.38335 0.0
H115 H 0.82901 0.78312 0.36925 0.0
H116 H 0.82424 0.71623 0.35119 0.0
H117 H 0.80655 0.69466 0.30476 0.0
H118 H 0.78591 0.71489 0.2944 0.0
H119 H 0.80326 0.73641 0.34075 0.0
C120 C 0.7685 0.22129 0.69186 0.0
C121 C 0.78434 0.22286 0.67869 0.0
C122 C 0.77762 0.19907 0.6701 0.0
C123 C 0.78891 0.21183 0.66792 0.0
C124 C 0.76165 0.19763 0.68328 0.0
C125 C 0.75716 0.20865 0.69407 0.0
U126 U 0.77452 0.259 0.70448 0.0
O127 O 0.74929 0.27307 0.71514 0.0
O128 O 0.78049 0.26822 0.72971 0.0
C129 C 0.76049 0.27426 0.72969 0.0
C130 C 0.76377 0.23271 0.70344 0.0
C131 C 0.74675 0.27197 0.745 0.0
C132 C 0.7243 0.25696 0.76335 0.0
C133 C 0.73764 0.25891 0.74883 0.0
C134 C 0.72917 0.28109 0.77034 0.0
C135 C 0.71983 0.26804 0.77425 0.0
C136 C 0.7425 0.28302 0.75584 0.0
C137 C 0.80837 0.28416 0.67687 0.0
C138 C 0.82343 0.30621 0.68663 0.0
C139 C 0.8198 0.3017 0.65639 0.0
C140 C 0.81097 0.28858 0.65997 0.0
C141 C 0.82632 0.31066 0.66967 0.0
C142 C 0.81444 0.29312 0.6902 0.0
C143 C 0.79925 0.27025 0.68035 0.0
O144 O 0.7816 0.2376 0.71189 0.0
O145 O 0.75051 0.24238 0.69716 0.0
O146 O 0.77688 0.26893 0.67924 0.0
O147 O 0.80814 0.26386 0.69364 0.0
H148 H 0.79318 0.2326 0.67678 0.0
H149 H 0.80108 0.21333 0.65777 0.0
H150 H 0.75287 0.18791 0.68543 0.0
H151 H 0.74491 0.20727 0.7042 0.0
H152 H 0.71716 0.24682 0.76588 0.0
H153 H 0.74073 0.25027 0.74053 0.0
H154 H 0.72634 0.28979 0.77858 0.0
H155 H 0.74948 0.29316 0.75308 0.0
H156 H 0.82849 0.31274 0.69719 0.0
H157 H 0.82136 0.30485 0.64319 0.0
H158 H 0.80618 0.28186 0.64952 0.0
H159 H 0.81242 0.28995 0.70336 0.0
C160 C 0.7932 0.72459 0.70726 0.0
C161 C 0.81012 0.72616 0.69485 0.0
C162 C 0.81596 0.70135 0.69474 0.0
C163 C 0.82144 0.71465 0.68867 0.0
C164 C 0.79873 0.69987 0.70701 0.0
C165 C 0.78749 0.7114 0.71321 0.0
U166 U 0.77759 0.76257 0.70531 0.0
O167 O 0.74498 0.77265 0.71087 0.0
O168 O 0.77594 0.77791 0.72568 0.0
C169 C 0.75368 0.7793 0.724 0.0
C170 C 0.78151 0.7366 0.71416 0.0
C171 C 0.7405 0.77826 0.73981 0.0
C172 C 0.73356 0.76808 0.76767 0.0
C173 C 0.74603 0.76863 0.75257 0.0
C174 C 0.70958 0.78656 0.7572 0.0
C175 C 0.71525 0.7771 0.77022 0.0
C176 C 0.72214 0.78714 0.74218 0.0
C177 C 0.79857 0.78564 0.66944 0.0
C178 C 0.79429 0.81047 0.6704 0.0
C179 C 0.80602 0.79956 0.64428 0.0
C180 C 0.80498 0.78669 0.65234 0.0
C181 C 0.80073 0.8116 0.65322 0.0
C182 C 0.79312 0.79759 0.67841 0.0
C183 C 0.79734 0.77204 0.67772 0.0
O184 O 0.79499 0.74643 0.72011 0.0
O185 O 0.76439 0.74126 0.70485 0.0
O186 O 0.77698 0.76617 0.67757 0.0
O187 O 0.80792 0.77109 0.69256 0.0
H188 H 0.8147 0.7363 0.69008 0.0
H189 H 0.83478 0.7162 0.67938 0.0
H190 H 0.79381 0.68979 0.71175 0.0
H191 H 0.77436 0.71 0.72271 0.0
H192 H 0.73853 0.76075 0.77746 0.0
H193 H 0.76011 0.76161 0.75093 0.0
H194 H 0.69531 0.79346 0.75855 0.0
H195 H 0.71751 0.79457 0.7324 0.0
H196 H 0.78986 0.81953 0.67756 0.0
H197 H 0.81126 0.8001 0.6311 0.0
H198 H 0.8092 0.77756 0.64522 0.0
H199 H 0.78793 0.79694 0.69161 0.0
C200 C 0.73489 0.24769 0.28658 0.0
C201 C 0.7398 0.25836 0.275 0.0
C202 C 0.70995 0.24987 0.25566 0.0
C203 C 0.7275 0.25941 0.25964 0.0
C204 C 0.70494 0.23933 0.26748 0.0
C205 C 0.71734 0.23824 0.28277 0.0
U206 U 0.7713 0.26296 0.32257 0.0
O207 O 0.77079 0.25866 0.35015 0.0
O208 O 0.80185 0.25484 0.33557 0.0
C209 C 0.79135 0.25332 0.35019 0.0
C210 C 0.74785 0.24627 0.30267 0.0
C211 C 0.79312 0.23962 0.35812 0.0
C212 C 0.78977 0.21471 0.35647 0.0
C213 C 0.78796 0.22769 0.34878 0.0
C214 C 0.80157 0.22549 0.38298 0.0
C215 C 0.79658 0.21347 0.37367 0.0
C216 C 0.79988 0.23845 0.37525 0.0
C217 C 0.78614 0.30129 0.3222 0.0
C218 C 0.81375 0.31141 0.34198 0.0
C219 C 0.79256 0.32601 0.32237 0.0
C220 C 0.78118 0.31443 0.31583 0.0
C221 C 0.80916 0.32463 0.33541 0.0
C222 C 0.80231 0.29983 0.33543 0.0
C223 C 0.77464 0.2892 0.31472 0.0
O224 O 0.7701 0.2481 0.3016 0.0
O225 O 0.73895 0.25236 0.3159 0.0
O226 O 0.75768 0.28398 0.32359 0.0
O227 O 0.78832 0.27981 0.30867 0.0
H228 H 0.75325 0.26581 0.27777 0.0
H229 H 0.73198 0.26757 0.25079 0.0
H230 H 0.69127 0.23197 0.26501 0.0
H231 H 0.7132 0.23001 0.29163 0.0
H232 H 0.78555 0.20566 0.34902 0.0
H233 H 0.78252 0.22842 0.33555 0.0
H234 H 0.8071 0.22487 0.39619 0.0
H235 H 0.8039 0.24757 0.38264 0.0
H236 H 0.82659 0.30996 0.35188 0.0
H237 H 0.78835 0.33604 0.31722 0.0
H238 H 0.76863 0.31573 0.30568 0.0
H239 H 0.80631 0.28973 0.34051 0.0
C240 C 0.23032 0.24091 0.66091 0.0
C241 C 0.23201 0.22887 0.67082 0.0
C242 C 0.22779 0.21484 0.64536 0.0
C243 C 0.23061 0.21595 0.66312 0.0
C244 C 0.22642 0.22694 0.63546 0.0
C245 C 0.22762 0.23986 0.64319 0.0
U246 U 0.25137 0.2642 0.69658 0.0
O247 O 0.26442 0.28553 0.69601 0.0
O248 O 0.23386 0.28033 0.71079 0.0
C249 C 0.24731 0.29016 0.70497 0.0
C250 C 0.23165 0.25459 0.66885 0.0
C251 C 0.23544 0.30215 0.69779 0.0
C252 C 0.21356 0.31309 0.67504 0.0
C253 C 0.22561 0.30176 0.6814 0.0
C254 C 0.22116 0.3253 0.70138 0.0
C255 C 0.21105 0.32497 0.68501 0.0
C256 C 0.23324 0.31399 0.70769 0.0
C257 C 0.28813 0.24866 0.73218 0.0
C258 C 0.3067 0.2625 0.75414 0.0
C259 C 0.30783 0.2376 0.75587 0.0
C260 C 0.29507 0.2367 0.74074 0.0
C261 C 0.31395 0.25051 0.7627 0.0
C262 C 0.29386 0.26158 0.739 0.0
C263 C 0.27504 0.24746 0.71617 0.0
O264 O 0.221 0.25574 0.68343 0.0
O265 O 0.25202 0.26044 0.66893 0.0
O266 O 0.28376 0.25403 0.70302 0.0
O267 O 0.25283 0.24899 0.71746 0.0
H268 H 0.23438 0.22946 0.68452 0.0
H269 H 0.23199 0.20681 0.67104 0.0
H270 H 0.22405 0.22641 0.62177 0.0
H271 H 0.22637 0.24905 0.63534 0.0
H272 H 0.20623 0.31254 0.66231 0.0
H273 H 0.22711 0.29266 0.67359 0.0
H274 H 0.21928 0.33416 0.70952 0.0
H275 H 0.24061 0.31441 0.72043 0.0
H276 H 0.31129 0.2726 0.75895 0.0
H277 H 0.31277 0.22816 0.76228 0.0
H278 H 0.29064 0.22665 0.73569 0.0
H279 H 0.28857 0.27093 0.73254 0.0
C280 C 0.22204 0.74097 0.34835 0.0
C281 C 0.21783 0.73205 0.33463 0.0
C282 C 0.20316 0.71452 0.35407 0.0
C283 C 0.20835 0.71897 0.33746 0.0
C284 C 0.20786 0.72339 0.36781 0.0
C285 C 0.21716 0.73652 0.36495 0.0
U286 U 0.25713 0.76651 0.32226 0.0
O287 O 0.25031 0.78795 0.31495 0.0
O288 O 0.28063 0.78311 0.33056 0.0
C289 C 0.26759 0.7928 0.32405 0.0
C290 C 0.23139 0.75491 0.34555 0.0
C291 C 0.26217 0.80412 0.33562 0.0
C292 C 0.23724 0.81466 0.35624 0.0
C293 C 0.24244 0.80365 0.34562 0.0
C294 C 0.27171 0.82658 0.34727 0.0
C295 C 0.25177 0.8263 0.35715 0.0
C296 C 0.27681 0.8156 0.33659 0.0
C297 C 0.28642 0.75429 0.28198 0.0
C298 C 0.30237 0.76984 0.26074 0.0
C299 C 0.31052 0.74545 0.2597 0.0
C300 C 0.29723 0.74325 0.27416 0.0
C301 C 0.31317 0.75876 0.25278 0.0
C302 C 0.28917 0.76762 0.27528 0.0
C303 C 0.27231 0.75169 0.29706 0.0
O304 O 0.25371 0.75616 0.34718 0.0
O305 O 0.22307 0.76155 0.33223 0.0
O306 O 0.25211 0.7575 0.29686 0.0
O307 O 0.28305 0.75275 0.31182 0.0
H308 H 0.22172 0.73524 0.32172 0.0
H309 H 0.20518 0.7123 0.32665 0.0
H310 H 0.20387 0.7203 0.38073 0.0
H311 H 0.22037 0.74325 0.3757 0.0
H312 H 0.22163 0.81414 0.3635 0.0
H313 H 0.23095 0.79483 0.3451 0.0
H314 H 0.2835 0.83525 0.34787 0.0
H315 H 0.2922 0.81609 0.32904 0.0
H316 H 0.3043 0.78022 0.25582 0.0
H317 H 0.31839 0.73669 0.25376 0.0
H318 H 0.29528 0.73289 0.27918 0.0
H319 H 0.28107 0.7763 0.28125 0.0
H320 H 0.97987 0.45296 0.41946 0.0
N321 N 0.01175 0.46326 0.39906 0.0
H322 H 0.94835 0.43732 0.4117 0.0
H323 H 0.9978 0.45681 0.36652 0.0
H324 H 0.96601 0.44177 0.35861 0.0
H325 H 0.03674 0.46442 0.36977 0.0
H326 H 0.06764 0.44892 0.36233 0.0
H327 H 0.03327 0.44588 0.4197 0.0
H328 H 0.06483 0.43069 0.41268 0.0
H329 H 0.02298 0.48012 0.42422 0.0
H330 H 0.00219 0.47991 0.37134 0.0
H331 H 0.02422 0.50526 0.42376 0.0
H332 H 0.00236 0.50497 0.37091 0.0
H333 H 0.99336 0.58518 0.41714 0.0
H334 H 0.96196 0.6001 0.40836 0.0
H335 H 0.9567 0.57855 0.3604 0.0
H336 H 0.98856 0.56391 0.36921 0.0
H337 H 0.02797 0.57339 0.36632 0.0
H338 H 0.05968 0.58865 0.35902 0.0
H339 H 0.07705 0.59262 0.41251 0.0
H340 H 0.04582 0.57672 0.41959 0.0
H341 H 1.0008 0.54955 0.42308 0.0
H342 H 0.99968 0.52441 0.42281 0.0
H343 H 0.02623 0.52493 0.37163 0.0
N344 N 0.01411 0.56653 0.39855 0.0
H345 H 0.02627 0.54998 0.37178 0.0
C346 C 0.99114 0.45615 0.39367 0.0
C347 C 0.97656 0.45076 0.40614 0.0
C348 C 0.95855 0.44185 0.40165 0.0
C349 C 0.95476 0.43817 0.38453 0.0
C350 C 0.96868 0.44418 0.37195 0.0
C351 C 0.98676 0.453 0.37646 0.0
C352 C 0.03257 0.45617 0.39528 0.0
C353 C 0.04296 0.45721 0.37927 0.0
C354 C 0.06076 0.44838 0.37507 0.0
C355 C 0.06853 0.43841 0.38683 0.0
C356 C 0.05896 0.43803 0.40318 0.0
C357 C 0.04111 0.44678 0.4073 0.0
C358 C 0.01227 0.47808 0.39797 0.0
C359 C 0.01851 0.48552 0.41255 0.0
C360 C 0.01903 0.4999 0.41227 0.0
C361 C 0.01315 0.50721 0.39734 0.0
C362 C 0.00718 0.49971 0.3826 0.0
C363 C 0.00687 0.4853 0.38287 0.0
C364 C 0.99328 0.57347 0.3939 0.0
C365 C 0.98507 0.58352 0.40489 0.0
C366 C 0.96707 0.592 0.39984 0.0
C367 C 0.95682 0.59058 0.38362 0.0
C368 C 0.96441 0.58005 0.37288 0.0
C369 C 0.98252 0.57159 0.37795 0.0
C370 C 0.03466 0.57376 0.39357 0.0
C371 C 0.03902 0.57715 0.37645 0.0
C372 C 0.05702 0.58609 0.37231 0.0
C373 C 0.07083 0.59204 0.38517 0.0
C374 C 0.06701 0.58814 0.40222 0.0
C375 C 0.04914 0.57908 0.40633 0.0
C376 C 0.01384 0.5517 0.39762 0.0
C377 C 0.00634 0.5442 0.41182 0.0
C378 C 0.00588 0.52983 0.41166 0.0
C379 C 0.0131 0.52257 0.39726 0.0
C380 C 0.02036 0.53013 0.3829 0.0
C381 C 0.02061 0.54455 0.38303 0.0
H382 H 0.99368 0.453 0.65195 0.0
N383 N 0.00725 0.46099 0.62008 0.0
H384 H 0.96262 0.43691 0.65844 0.0
H385 H 0.97496 0.45192 0.59868 0.0
H386 H 0.94351 0.43587 0.60509 0.0
H387 H 0.02728 0.44338 0.59956 0.0
H388 H 0.05872 0.42784 0.60658 0.0
H389 H 0.03309 0.46157 0.64935 0.0
H390 H 0.06426 0.44582 0.65672 0.0
H391 H 0.98699 0.47711 0.64454 0.0
H392 H 0.03028 0.47838 0.60044 0.0
H393 H 0.98747 0.50208 0.64558 0.0
H394 H 0.03217 0.5034 0.60208 0.0
H395 H 0.99877 0.57169 0.65551 0.0
H396 H 0.96785 0.58646 0.66454 0.0
H397 H 0.93982 0.58614 0.61327 0.0
H398 H 0.97152 0.57175 0.60424 0.0
H399 H 0.02434 0.58379 0.60259 0.0
H400 H 0.05579 0.59983 0.60889 0.0
H401 H 0.06973 0.57783 0.65588 0.0
H402 H 0.03795 0.56217 0.6497 0.0
H403 H 0.00603 0.54746 0.65102 0.0
H404 H 0.00777 0.52238 0.65137 0.0
H405 H 0.01008 0.5225 0.59627 0.0
N406 N 0.00767 0.56421 0.6227 0.0
H407 H 0.00994 0.54759 0.59626 0.0
C408 C 0.98661 0.45369 0.62476 0.0
C409 C 0.98251 0.44958 0.64169 0.0
C410 C 0.96467 0.44039 0.6454 0.0
C411 C 0.95071 0.43502 0.63225 0.0
C412 C 0.95414 0.43969 0.61546 0.0
C413 C 0.97192 0.44895 0.61179 0.0
C414 C 0.02785 0.45353 0.62392 0.0
C415 C 0.03563 0.44412 0.61193 0.0
C416 C 0.05342 0.43519 0.61603 0.0
C417 C 0.06377 0.43546 0.6323 0.0
C418 C 0.05671 0.44539 0.64406 0.0
C419 C 0.03886 0.45436 0.63991 0.0
C420 C 0.00835 0.47576 0.62214 0.0
C421 C 0.99684 0.48268 0.63515 0.0
C422 C 0.99731 0.49709 0.63584 0.0
C423 C 0.00965 0.5049 0.62379 0.0
C424 C 0.02192 0.49785 0.61129 0.0
C425 C 0.02108 0.48351 0.61042 0.0
C426 C 0.98754 0.57073 0.6291 0.0
C427 C 0.98578 0.57458 0.64628 0.0
C428 C 0.96796 0.58301 0.65144 0.0
C429 C 0.95145 0.58767 0.63958 0.0
C430 C 0.95249 0.58301 0.62266 0.0
C431 C 0.97042 0.57468 0.6175 0.0
C432 C 0.02873 0.57177 0.62557 0.0
C433 C 0.03454 0.58228 0.61405 0.0
C434 C 0.05256 0.59141 0.61768 0.0
C435 C 0.06521 0.59019 0.63297 0.0
C436 C 0.0601 0.5792 0.64412 0.0
C437 C 0.04199 0.57011 0.6405 0.0
C438 C 0.0083 0.54941 0.62356 0.0
C439 C 0.00732 0.54209 0.63906 0.0
C440 C 0.00801 0.52768 0.6392 0.0
C441 C 0.00924 0.52028 0.62385 0.0
C442 C 0.00978 0.52773 0.6084 0.0
C443 C 0.00949 0.5421 0.60831 0.0
H444 H 0.14964 0.07991 0.52562 0.0
N445 N 0.17885 0.06623 0.50675 0.0
H446 H 0.15875 0.09531 0.54938 0.0
H447 H 0.22047 0.06853 0.52279 0.0
H448 H 0.22988 0.08408 0.5464 0.0
H449 H 0.22085 0.07161 0.49295 0.0
H450 H 0.22887 0.08785 0.46998 0.0
H451 H 0.14857 0.07844 0.48646 0.0
H452 H 0.15642 0.0951 0.46371 0.0
H453 H 0.14339 0.0497 0.51189 0.0
H454 H 0.21568 0.04942 0.50206 0.0
H455 H 0.14262 0.02458 0.51247 0.0
H456 H 0.21499 0.02429 0.50171 0.0
H457 H 0.14237 0.95554 0.53253 0.0
H458 H 0.14913 0.94027 0.55702 0.0
H459 H 0.22103 0.93938 0.54499 0.0
H460 H 0.21417 0.95477 0.52088 0.0
H461 H 0.21227 0.96373 0.4912 0.0
H462 H 0.22297 0.94759 0.46885 0.0
H463 H 0.15574 0.92878 0.47112 0.0
H464 H 0.1454 0.94481 0.49361 0.0
H465 H 0.14204 0.98041 0.49597 0.0
H466 H 0.14456 1.00548 0.49444 0.0
H467 H 0.21121 1.0042 0.51891 0.0
N468 N 0.17229 0.96313 0.50898 0.0
H469 H 0.20896 0.97911 0.51953 0.0
C470 C 0.18433 0.07321 0.5224 0.0
C471 C 0.16707 0.08053 0.53042 0.0
C472 C 0.17232 0.08929 0.54398 0.0
C473 C 0.19507 0.09098 0.54966 0.0
C474 C 0.21224 0.0831 0.54215 0.0
C475 C 0.20689 0.07419 0.52868 0.0
C476 C 0.18399 0.07373 0.49137 0.0
C477 C 0.20662 0.07633 0.48634 0.0
C478 C 0.21122 0.08579 0.47329 0.0
C479 C 0.19332 0.09292 0.4651 0.0
C480 C 0.17063 0.08972 0.46958 0.0
C481 C 0.16608 0.08022 0.48258 0.0
C482 C 0.17941 0.05143 0.50672 0.0
C483 C 0.15905 0.04417 0.50966 0.0
C484 C 0.15865 0.0298 0.50984 0.0
C485 C 0.1787 0.02232 0.5069 0.0
C486 C 0.19925 0.02967 0.50412 0.0
C487 C 0.19964 0.0441 0.50413 0.0
C488 C 0.17765 0.95631 0.52489 0.0
C489 C 0.15965 0.95232 0.5355 0.0
C490 C 0.16353 0.9435 0.54936 0.0
C491 C 0.18558 0.93847 0.55284 0.0
C492 C 0.20387 0.94314 0.54277 0.0
C493 C 0.19996 0.95196 0.52892 0.0
C494 C 0.178 0.9554 0.49406 0.0
C495 C 0.19974 0.95629 0.48666 0.0
C496 C 0.20581 0.94708 0.47387 0.0
C497 C 0.19028 0.93681 0.46838 0.0
C498 C 0.16821 0.93642 0.47528 0.0
C499 C 0.16219 0.94563 0.48799 0.0
C500 C 0.17503 0.97788 0.50807 0.0
C501 C 0.15722 0.98558 0.50092 0.0
C502 C 0.15865 0.99992 0.5002 0.0
C503 C 0.17795 1.00696 0.50681 0.0
C504 C 0.19614 0.99917 0.51361 0.0
C505 C 0.19478 0.98476 0.51414 0.0
H506 H 0.52877 0.73883 0.09065 0.0
N507 N 0.50999 0.75864 0.072 0.0
H508 H 0.56087 0.74093 0.11079 0.0
H509 H 0.53906 0.78106 0.07507 0.0
H510 H 0.57128 0.78315 0.0948 0.0
H511 H 0.50047 0.78298 0.08782 0.0
H512 H 0.4695 0.78684 0.10772 0.0
H513 H 0.47516 0.74181 0.07872 0.0
H514 H 0.44415 0.74553 0.0988 0.0
H515 H 0.51145 0.74168 0.04575 0.0
H516 H 0.50713 0.78467 0.05824 0.0
H517 H 0.51034 0.74747 0.01542 0.0
H518 H 0.50792 0.79071 0.02819 0.0
H519 H 0.52476 0.7627 0.93132 0.0
H520 H 0.55659 0.76048 0.91193 0.0
H521 H 0.58048 0.80125 0.92572 0.0
H522 H 0.54774 0.80358 0.94461 0.0
H523 H 0.4943 0.8061 0.93015 0.0
H524 H 0.46355 0.80414 0.90887 0.0
H525 H 0.45567 0.76095 0.92125 0.0
H526 H 0.48606 0.76317 0.94294 0.0
H527 H 0.53183 0.76276 0.9631 0.0
H528 H 0.53094 0.7564 0.993 0.0
H529 H 0.48755 0.79116 1.00296 0.0
N530 N 0.51291 0.78602 0.94842 0.0
H531 H 0.49007 0.79805 0.9731 0.0
C532 C 0.5314 0.7597 0.0813 0.0
C533 C 0.53835 0.74843 0.09124 0.0
C534 C 0.55672 0.74965 0.10272 0.0
C535 C 0.56854 0.76226 0.10452 0.0
C536 C 0.5623 0.77337 0.09392 0.0
C537 C 0.5439 0.77213 0.08246 0.0
C538 C 0.49014 0.76203 0.08177 0.0
C539 C 0.48801 0.77484 0.08982 0.0
C540 C 0.47037 0.77701 0.10133 0.0
C541 C 0.45448 0.76645 0.10495 0.0
C542 C 0.45597 0.75392 0.09619 0.0
C543 C 0.47368 0.75175 0.08475 0.0
C544 C 0.50976 0.76267 0.05429 0.0
C545 C 0.51062 0.75239 0.04191 0.0
C546 C 0.51017 0.75577 0.02456 0.0
C547 C 0.5092 0.76961 0.01917 0.0
C548 C 0.5083 0.77992 0.0317 0.0
C549 C 0.50826 0.77649 0.04904 0.0
C550 C 0.53371 0.78343 0.9393 0.0
C551 C 0.53694 0.77112 0.93034 0.0
C552 C 0.55535 0.76981 0.91932 0.0
C553 C 0.57103 0.78075 0.91707 0.0
C554 C 0.56849 0.79273 0.92685 0.0
C555 C 0.54996 0.79405 0.93779 0.0
C556 C 0.4925 0.78482 0.93801 0.0
C557 C 0.48556 0.7963 0.92849 0.0
C558 C 0.46819 0.79511 0.91623 0.0
C559 C 0.45743 0.78232 0.91313 0.0
C560 C 0.46356 0.77094 0.92334 0.0
C561 C 0.48096 0.77218 0.9357 0.0
C562 C 0.51128 0.78111 0.96579 0.0
C563 C 0.52221 0.7691 0.97163 0.0
C564 C 0.52147 0.76536 0.98887 0.0
C565 C 0.50933 0.7733 1.00063 0.0
C566 C 0.49764 0.78497 0.99452 0.0
C567 C 0.49881 0.78886 0.97738 0.0
H568 H 0.80782 0.06316 0.53242 0.0
N569 N 0.84616 0.06427 0.51279 0.0
H570 H 0.79894 0.07886 0.55569 0.0
H571 H 0.87445 0.08206 0.52774 0.0
H572 H 0.86607 0.09754 0.55127 0.0
H573 H 0.8733 0.07349 0.48825 0.0
H574 H 0.8632 0.08927 0.46496 0.0
H575 H 0.80268 0.07154 0.50326 0.0
H576 H 0.79236 0.08702 0.47991 0.0
H577 H 0.80917 0.04763 0.50481 0.0
H578 H 0.87933 0.0475 0.52226 0.0
H579 H 0.80864 0.0225 0.50448 0.0
H580 H 0.87871 0.02238 0.52283 0.0
H581 H 0.80422 0.9524 0.52129 0.0
H582 H 0.79397 0.93662 0.54436 0.0
H583 H 0.86417 0.93711 0.56226 0.0
H584 H 0.87421 0.95308 0.53919 0.0
H585 H 0.87563 0.94316 0.49988 0.0
H586 H 0.86768 0.9276 0.47618 0.0
H587 H 0.80202 0.94681 0.46815 0.0
H588 H 0.81006 0.96215 0.49222 0.0
H589 H 0.81019 0.97687 0.52092 0.0
H590 H 0.80898 1.00199 0.52127 0.0
H591 H 0.87888 1.00375 0.50391 0.0
N592 N 0.84755 0.96111 0.51344 0.0
H593 H 0.88018 0.97865 0.50446 0.0
C594 C 0.8418 0.07154 0.52832 0.0
C595 C 0.82071 0.07049 0.53666 0.0
C596 C 0.81571 0.07945 0.54999 0.0
C597 C 0.83169 0.08958 0.55517 0.0
C598 C 0.85321 0.09004 0.54737 0.0
C599 C 0.85815 0.08113 0.53407 0.0
C600 C 0.83886 0.07132 0.49748 0.0
C601 C 0.85553 0.07615 0.48619 0.0
C602 C 0.8497 0.08515 0.4729 0.0
C603 C 0.82699 0.08951 0.47068 0.0
C604 C 0.81006 0.08402 0.48143 0.0
C605 C 0.81593 0.07503 0.49472 0.0
C606 C 0.84452 0.04946 0.51329 0.0
C607 C 0.82444 0.04222 0.50866 0.0
C608 C 0.82411 0.02779 0.50863 0.0
C609 C 0.84373 0.02033 0.51342 0.0
C610 C 0.86346 0.0277 0.5186 0.0
C611 C 0.86383 0.04207 0.51845 0.0
C612 C 0.84009 0.95391 0.52853 0.0
C613 C 0.81731 0.9494 0.5304 0.0
C614 C 0.81149 0.94027 0.54353 0.0
C615 C 0.8283 0.93549 0.55503 0.0
C616 C 0.85077 0.94067 0.55371 0.0
C617 C 0.85657 0.94978 0.54055 0.0
C618 C 0.84354 0.95377 0.49777 0.0
C619 C 0.85975 0.94417 0.49274 0.0
C620 C 0.85516 0.93533 0.47915 0.0
C621 C 0.83415 0.93591 0.47024 0.0
C622 C 0.81824 0.94597 0.47487 0.0
C623 C 0.82287 0.95482 0.48853 0.0
C624 C 0.84552 0.97588 0.51294 0.0
C625 C 0.82528 0.98265 0.51729 0.0
C626 C 0.82456 0.99707 0.51734 0.0
C627 C 0.84393 1.00498 0.51283 0.0
C628 C 0.86382 0.99807 0.50792 0.0
C629 C 0.86458 0.98372 0.50807 0.0
H630 H 0.54048 0.2229 0.08539 0.0
N631 N 0.51035 0.24107 0.0739 0.0
H632 H 0.57274 0.22724 0.10488 0.0
H633 H 0.52732 0.26639 0.08265 0.0
H634 H 0.55964 0.27089 0.10192 0.0
H635 H 0.48699 0.265 0.0775 0.0
H636 H 0.45699 0.26911 0.09838 0.0
H637 H 0.48805 0.22217 0.09181 0.0
H638 H 0.45742 0.22593 0.11213 0.0
H639 H 0.49906 0.22045 0.05354 0.0
H640 H 0.51889 0.26326 0.05316 0.0
H641 H 0.49858 0.22029 0.02244 0.0
H642 H 0.51965 0.26311 0.02195 0.0
H643 H 0.53417 0.22002 0.92728 0.0
H644 H 0.56626 0.22506 0.90852 0.0
H645 H 0.56835 0.26697 0.92674 0.0
H646 H 0.53594 0.26176 0.94536 0.0
H647 H 0.49642 0.26226 0.93447 0.0
H648 H 0.4651 0.26555 0.91403 0.0
H649 H 0.44946 0.222 0.91633 0.0
H650 H 0.48119 0.2188 0.93661 0.0
H651 H 0.52521 0.2189 0.9691 0.0
H652 H 0.52498 0.2205 1.00011 0.0
H653 H 0.4977 0.26161 0.996 0.0
N654 N 0.51186 0.23752 0.94651 0.0
H655 H 0.49911 0.26008 0.96491 0.0
C656 C 0.53154 0.24426 0.08259 0.0
C657 C 0.54501 0.23341 0.08862 0.0
C658 C 0.56343 0.23593 0.09973 0.0
C659 C 0.56865 0.24941 0.10506 0.0
C660 C 0.55587 0.26037 0.09823 0.0
C661 C 0.53747 0.25783 0.08708 0.0
C662 C 0.48986 0.24329 0.08337 0.0
C663 C 0.48038 0.25643 0.0849 0.0
C664 C 0.46315 0.25873 0.09677 0.0
C665 C 0.45509 0.24789 0.10718 0.0
C666 C 0.46362 0.23458 0.10466 0.0
C667 C 0.4809 0.23235 0.09293 0.0
C668 C 0.50929 0.24176 0.05561 0.0
C669 C 0.5034 0.22981 0.04667 0.0
C670 C 0.50337 0.22973 0.02889 0.0
C671 C 0.50952 0.24162 0.01961 0.0
C672 C 0.51477 0.25377 0.02864 0.0
C673 C 0.51453 0.25386 0.04652 0.0
C674 C 0.53273 0.24048 0.93763 0.0
C675 C 0.5419 0.2302 0.92743 0.0
C676 C 0.56027 0.23311 0.91677 0.0
C677 C 0.56986 0.24644 0.91608 0.0
C678 C 0.56117 0.25664 0.92683 0.0
C679 C 0.54276 0.25368 0.93755 0.0
C680 C 0.49114 0.24023 0.93704 0.0
C681 C 0.48594 0.25348 0.93091 0.0
C682 C 0.46797 0.25535 0.91922 0.0
C683 C 0.45495 0.24401 0.91341 0.0
C684 C 0.4594 0.23091 0.92034 0.0
C685 C 0.47734 0.22907 0.93203 0.0
C686 C 0.51192 0.23923 0.96472 0.0
C687 C 0.51929 0.22826 0.97494 0.0
C688 C 0.51893 0.22918 0.99267 0.0
C689 C 0.51091 0.2411 1.00064 0.0
C690 C 0.50404 0.25228 0.99033 0.0
C691 C 0.50466 0.25139 0.97251 0.0
H692 H 0.18864 0.34765 0.31058 0.0
H693 H 0.1665 0.36721 0.32035 0.0
H694 H 0.18283 0.35667 0.37253 0.0
H695 H 0.20565 0.33731 0.36285 0.0
H696 H 0.1287 0.36639 0.34097 0.0
H697 H 0.19824 0.39788 0.37041 0.0
H698 H 0.20374 0.3838 0.35618 0.0
H699 H 0.19688 0.38044 0.37809 0.0
C700 C 0.18787 0.34962 0.32413 0.0
C701 C 0.19904 0.34095 0.33593 0.0
C702 C 0.17509 0.36076 0.32969 0.0
C703 C 0.17329 0.36351 0.34714 0.0
C704 C 0.18435 0.35489 0.35898 0.0
H705 H 0.06795 0.41098 0.39481 0.0
H706 H 0.0941 0.39327 0.38542 0.0
C707 C 0.19715 0.34373 0.35344 0.0
C708 C 0.15891 0.37502 0.35292 0.0
H709 H 0.16007 0.40492 0.37563 0.0
C710 C 0.13558 0.37484 0.34849 0.0
C711 C 0.16798 0.38612 0.36255 0.0
C712 C 0.19312 0.3872 0.36697 0.0
C713 C 0.12096 0.38533 0.35369 0.0
C714 C 0.12985 0.39617 0.36384 0.0
C715 C 0.15328 0.39652 0.36798 0.0
C716 C 0.11496 0.40715 0.37037 0.0
C717 C 0.09617 0.38477 0.3481 0.0
C718 C 0.11852 0.42093 0.36553 0.0
C719 C 0.10375 0.43117 0.37109 0.0
C720 C 0.08524 0.4278 0.38169 0.0
C721 C 0.08216 0.41401 0.38685 0.0
C722 C 0.09693 0.40382 0.38131 0.0
H723 H 0.09354 0.37805 0.33682 0.0
H724 H 0.08572 0.38051 0.35864 0.0
H725 H 0.08978 0.39522 0.34493 0.0
H726 H 0.13247 0.42372 0.35718 0.0
H727 H 0.10678 0.44171 0.36705 0.0
H728 H 0.18104 0.68628 0.70429 0.0
H729 H 0.1585 0.66669 0.69377 0.0
H730 H 0.18241 0.67458 0.64284 0.0
H731 H 0.20546 0.69407 0.65333 0.0
H732 H 0.12356 0.66762 0.66794 0.0
H733 H 0.19475 0.63299 0.65077 0.0
H734 H 0.19879 0.64752 0.66479 0.0
H735 H 0.19606 0.65019 0.6422 0.0
C736 C 0.18177 0.68374 0.69089 0.0
C737 C 0.19516 0.69169 0.67966 0.0
C738 C 0.16878 0.6726 0.68489 0.0
C739 C 0.16902 0.6691 0.66758 0.0
C740 C 0.18227 0.677 0.6563 0.0
H741 H 0.09637 0.60358 0.61256 0.0
H742 H 0.12169 0.62288 0.62031 0.0
C743 C 0.19524 0.6882 0.66228 0.0
C744 C 0.15471 0.65744 0.66136 0.0
H745 H 0.15719 0.62517 0.6445 0.0
C746 C 0.13089 0.65833 0.66281 0.0
C747 C 0.16436 0.64541 0.65455 0.0
C748 C 0.1899 0.64385 0.65306 0.0
C749 C 0.1164 0.64749 0.65766 0.0
C750 C 0.12605 0.63529 0.65127 0.0
C751 C 0.14986 0.6345 0.64949 0.0
C752 C 0.11164 0.62317 0.64674 0.0
C753 C 0.09086 0.64927 0.65893 0.0
C754 C 0.09809 0.61671 0.65913 0.0
C755 C 0.0835 0.60579 0.65474 0.0
C756 C 0.08232 0.60098 0.63786 0.0
C757 C 0.0966 0.60715 0.62561 0.0
C758 C 0.11117 0.61812 0.63002 0.0
H759 H 0.08617 0.66031 0.65932 0.0
H760 H 0.08173 0.64437 0.64801 0.0
H761 H 0.0848 0.64432 0.67085 0.0
H762 H 0.09853 0.62027 0.67219 0.0
H763 H 0.07261 0.60141 0.66448 0.0
H764 H 0.84629 0.68813 0.31045 0.0
H765 H 0.86789 0.66809 0.3202 0.0
H766 H 0.83992 0.67226 0.37046 0.0
H767 H 0.81784 0.69219 0.36071 0.0
H768 H 0.90068 0.66756 0.34756 0.0
H769 H 0.82804 0.63121 0.3583 0.0
H770 H 0.82525 0.64661 0.34544 0.0
H771 H 0.82592 0.64775 0.36827 0.0
C772 C 0.84449 0.68468 0.32352 0.0
C773 C 0.83024 0.6917 0.33478 0.0
C774 C 0.85693 0.67328 0.32909 0.0
C775 C 0.85526 0.6686 0.34597 0.0
C776 C 0.84116 0.67559 0.3573 0.0
H777 H 0.92203 0.60218 0.40165 0.0
H778 H 0.89707 0.62097 0.39254 0.0
C779 C 0.82875 0.68705 0.35176 0.0
C780 C 0.86897 0.65669 0.3518 0.0
H781 H 0.86492 0.62355 0.36634 0.0
C782 C 0.89289 0.65792 0.35163 0.0
C783 C 0.85871 0.64419 0.35721 0.0
C784 C 0.83307 0.64224 0.35723 0.0
C785 C 0.90689 0.647 0.35685 0.0
C786 C 0.89666 0.63438 0.36197 0.0
C787 C 0.87271 0.6332 0.36231 0.0
C788 C 0.91063 0.62235 0.36705 0.0
C789 C 0.9325 0.64918 0.35715 0.0
C790 C 0.92601 0.6166 0.35558 0.0
C791 C 0.94046 0.60597 0.36079 0.0
C792 C 0.93965 0.60076 0.37755 0.0
C793 C 0.92339 0.6061 0.38875 0.0
C794 C 0.90901 0.61679 0.38354 0.0
H795 H 0.93718 0.66029 0.35748 0.0
H796 H 0.94047 0.64401 0.36837 0.0
H797 H 0.93983 0.64476 0.34545 0.0
H798 H 0.92719 0.62055 0.34267 0.0
H799 H 0.95285 0.60221 0.35185 0.0
H800 H 0.81959 0.33505 0.68641 0.0
H801 H 0.83728 0.35751 0.68045 0.0
H802 H 0.87329 0.34013 0.63826 0.0
H803 H 0.8563 0.31758 0.64435 0.0
H804 H 0.88653 0.36332 0.679 0.0
H805 H 0.84071 0.37496 0.61826 0.0
H806 H 0.83022 0.36248 0.63353 0.0
H807 H 0.85314 0.35813 0.6196 0.0
C808 C 0.83138 0.33596 0.67592 0.0
C809 C 0.83645 0.32447 0.66584 0.0
C810 C 0.84133 0.34883 0.67248 0.0
C811 C 0.85631 0.35049 0.65879 0.0
C812 C 0.86141 0.3391 0.64869 0.0
H813 H 0.94366 0.41151 0.61404 0.0
H814 H 0.919 0.39191 0.62113 0.0
C815 C 0.85161 0.32622 0.65217 0.0
C816 C 0.86744 0.36398 0.6554 0.0
H817 H 0.87275 0.38922 0.6252 0.0
C818 C 0.88337 0.3691 0.66735 0.0
C819 C 0.86326 0.37142 0.64017 0.0
C820 C 0.84577 0.36656 0.62718 0.0
C821 C 0.89599 0.38121 0.66414 0.0
C822 C 0.89209 0.38856 0.64874 0.0
C823 C 0.87571 0.38359 0.637 0.0
C824 C 0.90582 0.40094 0.6441 0.0
C825 C 0.91408 0.38567 0.67691 0.0
C826 C 0.90619 0.4127 0.65443 0.0
C827 C 0.92034 0.42394 0.65041 0.0
C828 C 0.93412 0.4237 0.63585 0.0
C829 C 0.93304 0.41211 0.62522 0.0
C830 C 0.91904 0.40086 0.6293 0.0
H831 H 0.91868 0.37721 0.68587 0.0
H832 H 0.92983 0.38925 0.6704 0.0
H833 H 0.90751 0.39432 0.68452 0.0
H834 H 0.89571 0.41312 0.66569 0.0
H835 H 0.9206 0.4328 0.65873 0.0
H836 H 0.22129 0.21362 0.40549 0.0
H837 H 0.21658 0.19124 0.41947 0.0
H838 H 0.22043 0.17107 0.37082 0.0
H839 H 0.22484 0.19346 0.35665 0.0
H840 H 0.18157 0.17143 0.41339 0.0
H841 H 0.26797 0.15069 0.40093 0.0
H842 H 0.26151 0.16876 0.39891 0.0
H843 H 0.25261 0.15697 0.38253 0.0
C844 C 0.22102 0.20445 0.39772 0.0
C845 C 0.22344 0.20535 0.37993 0.0
C846 C 0.21844 0.19166 0.40576 0.0
C847 C 0.2184 0.1795 0.3962 0.0
C848 C 0.22084 0.18032 0.37846 0.0
H849 H 0.17057 0.09974 0.43539 0.0
H850 H 0.17662 0.12019 0.41749 0.0
C851 C 0.22339 0.19313 0.3704 0.0
C852 C 0.21511 0.16603 0.40485 0.0
H853 H 0.24144 0.13562 0.41417 0.0
C854 C 0.1946 0.16357 0.41352 0.0
C855 C 0.23225 0.15586 0.40508 0.0
C856 C 0.25493 0.15818 0.3965 0.0
C857 C 0.19077 0.15123 0.42247 0.0
C858 C 0.20781 0.141 0.42257 0.0
C859 C 0.22832 0.14344 0.4139 0.0
C860 C 0.20514 0.12805 0.43248 0.0
C861 C 0.16881 0.14939 0.43218 0.0
C862 C 0.21963 0.12549 0.44649 0.0
C863 C 0.2162 0.11386 0.45675 0.0
C864 C 0.19828 0.10449 0.45313 0.0
C865 C 0.1843 0.10684 0.43868 0.0
C866 C 0.18774 0.11851 0.42844 0.0
H867 H 0.15968 0.15927 0.43368 0.0
H868 H 0.15732 0.14217 0.42516 0.0
H869 H 0.17222 0.14494 0.44502 0.0
H870 H 0.23314 0.13275 0.44983 0.0
H871 H 0.22708 0.11252 0.46789 0.0
H872 H 0.30362 0.76413 0.79281 0.0
H873 H 0.32586 0.76365 0.81951 0.0
H874 H 0.3777 0.78942 0.79662 0.0
H875 H 0.3558 0.78984 0.76991 0.0
H876 H 0.372 0.75517 0.82618 0.0
H877 H 0.35958 0.81051 0.83982 0.0
H878 H 0.3423 0.80125 0.82438 0.0
H879 H 0.37048 0.80729 0.81895 0.0
C880 C 0.31987 0.76958 0.79341 0.0
C881 C 0.32782 0.77715 0.77927 0.0
C882 C 0.33249 0.76934 0.80869 0.0
C883 C 0.35318 0.77671 0.81012 0.0
C884 C 0.36149 0.78392 0.7959 0.0
H885 H 0.46106 0.79338 0.88124 0.0
H886 H 0.43429 0.79122 0.85731 0.0
C887 C 0.34893 0.78416 0.78065 0.0
C888 C 0.36617 0.777 0.82646 0.0
H889 H 0.38801 0.799 0.85641 0.0
C890 C 0.37531 0.7647 0.83293 0.0
C891 C 0.37032 0.78946 0.83525 0.0
C892 C 0.35999 0.80287 0.82936 0.0
C893 C 0.38943 0.76465 0.84758 0.0
C894 C 0.39416 0.7772 0.85605 0.0
C895 C 0.38442 0.78941 0.84985 0.0
C896 C 0.41031 0.77811 0.87073 0.0
C897 C 0.39991 0.7513 0.85348 0.0
C898 C 0.40565 0.77149 0.88629 0.0
C899 C 0.42092 0.77277 0.90011 0.0
C900 C 0.441 0.7808 0.89862 0.0
C901 C 0.44556 0.78735 0.88296 0.0
C902 C 0.43035 0.78605 0.86921 0.0
H903 H 0.39814 0.74311 0.84372 0.0
H904 H 0.41835 0.75279 0.85661 0.0
H905 H 0.39121 0.74768 0.8652 0.0
H906 H 0.39007 0.76549 0.88781 0.0
H907 H 0.41683 0.76769 0.91203 0.0
H908 H 0.84024 0.82984 0.37634 0.0
H909 H 0.84305 0.85174 0.39157 0.0
H910 H 0.77018 0.85086 0.39935 0.0
H911 H 0.76725 0.82885 0.38436 0.0
H912 H 0.81854 0.87757 0.3843 0.0
H913 H 0.79989 0.85482 0.44798 0.0
H914 H 0.80895 0.84454 0.43025 0.0
H915 H 0.78011 0.85063 0.431 0.0
C916 C 0.82483 0.83427 0.38136 0.0
C917 C 0.80354 0.82757 0.37924 0.0
C918 C 0.82645 0.84682 0.38995 0.0
C919 C 0.80686 0.85283 0.3967 0.0
C920 C 0.78552 0.84631 0.39436 0.0
H921 H 0.79314 0.9226 0.46484 0.0
H922 H 0.78493 0.90361 0.44536 0.0
C923 C 0.78386 0.8338 0.38569 0.0
C924 C 0.80888 0.8658 0.40645 0.0
H925 H 0.80499 0.87885 0.44655 0.0
C926 C 0.81553 0.8779 0.39791 0.0
C927 C 0.80483 0.86616 0.42415 0.0
C928 C 0.7982 0.85335 0.43399 0.0
C929 C 0.81819 0.89041 0.40663 0.0
C930 C 0.81462 0.89072 0.42444 0.0
C931 C 0.80766 0.87863 0.4329 0.0
C932 C 0.8189 0.90328 0.43475 0.0
C933 C 0.82449 0.90319 0.39665 0.0
C934 C 0.84065 0.90955 0.43512 0.0
C935 C 0.84531 0.92055 0.44607 0.0
C936 C 0.82842 0.9254 0.45709 0.0
C937 C 0.80647 0.91931 0.45637 0.0
C938 C 0.80179 0.90835 0.44534 0.0
H939 H 0.81936 0.90225 0.38302 0.0
H940 H 0.81634 0.91246 0.40198 0.0
H941 H 0.84333 0.90471 0.3972 0.0
H942 H 0.85428 0.90566 0.42735 0.0
H943 H 0.86233 0.92507 0.44617 0.0
H944 H 0.68678 0.28514 0.78605 0.0
H945 H 0.66314 0.28205 0.81131 0.0
H946 H 0.69567 0.24325 0.82193 0.0
H947 H 0.71988 0.24645 0.79695 0.0
H948 H 0.63243 0.26049 0.81815 0.0
H949 H 0.70105 0.26341 0.86765 0.0
H950 H 0.70533 0.26906 0.84594 0.0
H951 H 0.70578 0.25103 0.85119 0.0
C952 C 0.68915 0.27604 0.79389 0.0
C953 C 0.70534 0.26609 0.78954 0.0
C954 C 0.67553 0.27425 0.80826 0.0
C955 C 0.6779 0.26253 0.81863 0.0
C956 C 0.69387 0.2525 0.81427 0.0
H957 H 0.60655 0.23086 0.90699 0.0
H958 H 0.633 0.23518 0.88358 0.0
C959 C 0.7075 0.25427 0.79988 0.0
C960 C 0.66306 0.2606 0.83366 0.0
H961 H 0.664 0.25688 0.87699 0.0
C962 C 0.63931 0.25977 0.83103 0.0
C963 C 0.67212 0.25963 0.85043 0.0
C964 C 0.69745 0.26094 0.85406 0.0
C965 C 0.62434 0.25776 0.84469 0.0
C966 C 0.63337 0.25683 0.86147 0.0
C967 C 0.65714 0.25764 0.86412 0.0
C968 C 0.61837 0.25476 0.87639 0.0
C969 C 0.59904 0.25629 0.84098 0.0
C970 C 0.60183 0.26454 0.88042 0.0
C971 C 0.58659 0.26207 0.89372 0.0
C972 C 0.58771 0.24979 0.9033 0.0
C973 C 0.605 0.24031 0.89969 0.0
C974 C 0.6202 0.24279 0.88638 0.0
H975 H 0.59554 0.25379 0.82739 0.0
H976 H 0.59123 0.24813 0.84907 0.0
H977 H 0.59052 0.26616 0.8438 0.0
H978 H 0.60041 0.27396 0.87306 0.0
H979 H 0.57341 0.26954 0.89605 0.0
H980 H 0.21977 0.8205 0.614 0.0
H981 H 0.21522 0.84309 0.60063 0.0
H982 H 0.21494 0.86206 0.65016 0.0
H983 H 0.21869 0.83941 0.6637 0.0
H984 H 0.18037 0.87139 0.62912 0.0
H985 H 0.2631 0.87353 0.59558 0.0
H986 H 0.24687 0.8582 0.59089 0.0
H987 H 0.25719 0.86117 0.61227 0.0
C988 C 0.21864 0.82946 0.62207 0.0
C989 C 0.21962 0.82813 0.63993 0.0
C990 C 0.21633 0.84239 0.6144 0.0
C991 C 0.21515 0.85429 0.62439 0.0
C992 C 0.21604 0.85302 0.64221 0.0
H993 H 0.22115 0.93581 0.57584 0.0
H994 H 0.22849 0.91643 0.59523 0.0
C995 C 0.21833 0.84008 0.64991 0.0
C996 C 0.21206 0.86795 0.61619 0.0
H997 H 0.23476 0.88965 0.58631 0.0
C998 C 0.19238 0.87547 0.6199 0.0
C999 C 0.22793 0.87338 0.60438 0.0
C1000 C 0.25008 0.86622 0.60066 0.0
C1001 C 0.18767 0.88798 0.61158 0.0
C1002 C 0.20284 0.89296 0.599 0.0
C1003 C 0.22301 0.88575 0.59583 0.0
C1004 C 0.19758 0.90522 0.58833 0.0
C1005 C 0.16645 0.8957 0.61631 0.0
C1006 C 0.17779 0.90535 0.57802 0.0
C1007 C 0.17358 0.91638 0.56696 0.0
C1008 C 0.18917 0.92747 0.56584 0.0
C1009 C 0.20886 0.9274 0.57634 0.0
C1010 C 0.21304 0.91636 0.58745 0.0
H1011 H 0.16091 0.89305 0.62943 0.0
H1012 H 0.16926 0.907 0.61545 0.0
H1013 H 0.1523 0.89283 0.60741 0.0
H1014 H 0.16594 0.89671 0.57812 0.0
H1015 H 0.15852 0.91593 0.55878 0.0
H1016 H 0.71214 0.79305 0.22538 0.0
H1017 H 0.68884 0.79058 0.19941 0.0
H1018 H 0.66008 0.75267 0.21894 0.0
H1019 H 0.68283 0.75525 0.24515 0.0
H1020 H 0.6871 0.76885 0.17541 0.0
H1021 H 0.60371 0.77615 0.20711 0.0
H1022 H 0.6307 0.78051 0.21724 0.0
H1023 H 0.62118 0.76288 0.21633 0.0
C1024 C 0.70071 0.78425 0.22422 0.0
C1025 C 0.69921 0.7744 0.2374 0.0
C1026 C 0.68756 0.7828 0.20932 0.0
C1027 C 0.67255 0.77154 0.20736 0.0
C1028 C 0.67133 0.76154 0.22032 0.0
H1029 H 0.60181 0.7442 0.115 0.0
H1030 H 0.62801 0.74655 0.13944 0.0
C1031 C 0.6845 0.76297 0.23521 0.0
C1032 C 0.65801 0.77034 0.19182 0.0
H1033 H 0.60238 0.76968 0.17807 0.0
C1034 C 0.66857 0.76904 0.17595 0.0
C1035 C 0.63387 0.77076 0.19259 0.0
C1036 C 0.62163 0.77277 0.2092 0.0
C1037 C 0.65559 0.76798 0.16081 0.0
C1038 C 0.63143 0.76807 0.16164 0.0
C1039 C 0.62091 0.76952 0.1775 0.0
C1040 C 0.61664 0.7669 0.14621 0.0
C1041 C 0.6678 0.76702 0.14405 0.0
C1042 C 0.60144 0.7775 0.14201 0.0
C1043 C 0.58633 0.77613 0.12818 0.0
C1044 C 0.58602 0.76409 0.11829 0.0
C1045 C 0.60153 0.75357 0.1224 0.0
C1046 C 0.61667 0.75495 0.13625 0.0
H1047 H 0.68595 0.77046 0.14518 0.0
H1048 H 0.66757 0.75615 0.13978 0.0
H1049 H 0.65915 0.77332 0.13409 0.0
H1050 H 0.60104 0.78676 0.1496 0.0
H1051 H 0.57436 0.78434 0.12559 0.0
H1052 H 0.74707 0.1808 0.65582 0.0
H1053 H 0.75525 0.16123 0.63746 0.0
H1054 H 0.82722 0.17135 0.63988 0.0
H1055 H 0.81926 0.19073 0.6586 0.0
H1056 H 0.7764 0.16161 0.60564 0.0
H1057 H 0.82526 0.13019 0.65253 0.0
H1058 H 0.80763 0.14442 0.65872 0.0
H1059 H 0.83565 0.14757 0.65026 0.0
C1060 C 0.76467 0.17876 0.65262 0.0
C1061 C 0.78253 0.18729 0.65875 0.0
C1062 C 0.7693 0.16762 0.64205 0.0
C1063 C 0.79186 0.16472 0.63752 0.0
C1064 C 0.80971 0.17326 0.64348 0.0
H1065 H 0.84106 0.11714 0.55372 0.0
H1066 H 0.83063 0.13484 0.57404 0.0
C1067 C 0.80511 0.18443 0.65401 0.0
C1068 C 0.79665 0.15302 0.62611 0.0
H1069 H 0.82622 0.12298 0.62359 0.0
C1070 C 0.78718 0.15312 0.60959 0.0
C1071 C 0.81047 0.14186 0.63138 0.0
C1072 C 0.82019 0.14088 0.64924 0.0
C1073 C 0.79168 0.14256 0.59802 0.0
C1074 C 0.80626 0.1317 0.60306 0.0
C1075 C 0.8152 0.13138 0.61973 0.0
C1076 C 0.81292 0.12081 0.591 0.0
C1077 C 0.78075 0.1431 0.5805 0.0
C1078 C 0.80693 0.10699 0.59403 0.0
C1079 C 0.81307 0.09678 0.58248 0.0
C1080 C 0.82553 0.10023 0.5678 0.0
C1081 C 0.83173 0.11409 0.56499 0.0
C1082 C 0.82555 0.12426 0.57649 0.0
H1083 H 0.76558 0.14989 0.58018 0.0
H1084 H 0.79334 0.14726 0.57129 0.0
H1085 H 0.77541 0.13265 0.57623 0.0
H1086 H 0.79731 0.10412 0.60524 0.0
H1087 H 0.80821 0.08619 0.58508 0.0
H1088 H 0.33581 0.27839 0.24104 0.0
H1089 H 0.35699 0.27995 0.21437 0.0
H1090 H 0.34323 0.23693 0.20502 0.0
H1091 H 0.32127 0.23541 0.23121 0.0
H1092 H 0.39521 0.26643 0.20585 0.0
H1093 H 0.32626 0.25384 0.15946 0.0
H1094 H 0.32055 0.25829 0.18129 0.0
H1095 H 0.32858 0.24102 0.17593 0.0
C1096 C 0.33692 0.26932 0.23315 0.0
C1097 C 0.32679 0.25677 0.23828 0.0
C1098 C 0.34915 0.27022 0.21796 0.0
C1099 C 0.35138 0.25862 0.20755 0.0
C1100 C 0.3413 0.2461 0.21263 0.0
H1101 H 0.45666 0.23691 0.13926 0.0
H1102 H 0.43098 0.24103 0.16282 0.0
C1103 C 0.32903 0.2452 0.22776 0.0
C1104 C 0.36541 0.25933 0.19192 0.0
H1105 H 0.36483 0.25138 0.14957 0.0
C1106 C 0.38848 0.26332 0.1935 0.0
C1107 C 0.35655 0.25552 0.17573 0.0
C1108 C 0.33156 0.25207 0.17294 0.0
C1109 C 0.40319 0.26294 0.17952 0.0
C1110 C 0.39472 0.25816 0.16363 0.0
C1111 C 0.37138 0.25486 0.16182 0.0
C1112 C 0.41007 0.25573 0.14907 0.0
C1113 C 0.42774 0.26757 0.18197 0.0
C1114 C 0.40642 0.26228 0.13328 0.0
C1115 C 0.42092 0.25976 0.11959 0.0
C1116 C 0.43919 0.25052 0.12144 0.0
C1117 C 0.44259 0.24392 0.13727 0.0
C1118 C 0.42811 0.24642 0.15087 0.0
H1119 H 0.42955 0.27493 0.1927 0.0
H1120 H 0.43841 0.25849 0.18506 0.0
H1121 H 0.43449 0.27253 0.17025 0.0
H1122 H 0.39244 0.26941 0.13158 0.0
H1123 H 0.41771 0.26492 0.10754 0.0
H1124 H 0.83054 0.679 0.71322 0.0
H1125 H 0.85151 0.65909 0.70304 0.0
H1126 H 0.85092 0.67609 0.65217 0.0
H1127 H 0.82954 0.69594 0.66212 0.0
H1128 H 0.83902 0.63995 0.67595 0.0
H1129 H 0.91963 0.66905 0.66355 0.0
H1130 H 0.8973 0.67568 0.67679 0.0
H1131 H 0.89416 0.67606 0.65399 0.0
C1132 C 0.83461 0.67845 0.69982 0.0
C1133 C 0.8284 0.68912 0.6885 0.0
C1134 C 0.84669 0.66709 0.69406 0.0
C1135 C 0.85296 0.66621 0.67692 0.0
C1136 C 0.84654 0.6767 0.66551 0.0
H1137 H 0.93673 0.60975 0.62079 0.0
H1138 H 0.91103 0.62794 0.62943 0.0
C1139 C 0.83439 0.68805 0.67124 0.0
C1140 C 0.8664 0.65436 0.67102 0.0
H1141 H 0.91844 0.64572 0.65534 0.0
C1142 C 0.8564 0.64117 0.67146 0.0
C1143 C 0.88903 0.65604 0.66515 0.0
C1144 C 0.90082 0.66994 0.66493 0.0
C1145 C 0.86835 0.62959 0.66591 0.0
C1146 C 0.89107 0.63124 0.66015 0.0
C1147 C 0.90102 0.64447 0.65972 0.0
C1148 C 0.90499 0.61946 0.65455 0.0
C1149 C 0.85636 0.61575 0.66592 0.0
C1150 C 0.91002 0.60854 0.66575 0.0
C1151 C 0.92449 0.59797 0.66075 0.0
C1152 C 0.93442 0.59818 0.6445 0.0
C1153 C 0.92907 0.60906 0.63326 0.0
C1154 C 0.91453 0.61957 0.63824 0.0
H1155 H 0.83746 0.61683 0.66594 0.0
H1156 H 0.86117 0.6096 0.65467 0.0
H1157 H 0.86141 0.60997 0.67759 0.0
H1158 H 0.90322 0.60837 0.67853 0.0
H1159 H 0.9281 0.58972 0.6697 0.0
H1160 H 0.82621 0.34619 0.31672 0.0
H1161 H 0.84854 0.36596 0.3269 0.0
H1162 H 0.84412 0.3506 0.37844 0.0
H1163 H 0.82153 0.3308 0.36839 0.0
H1164 H 0.83797 0.38633 0.35108 0.0
H1165 H 0.91339 0.3554 0.3708 0.0
H1166 H 0.89074 0.34857 0.35737 0.0
H1167 H 0.88664 0.35008 0.37993 0.0
C1168 C 0.82971 0.34708 0.33026 0.0
C1169 C 0.82212 0.33688 0.34174 0.0
C1170 C 0.84256 0.35837 0.33603 0.0
C1171 C 0.8482 0.35965 0.35338 0.0
C1172 C 0.84029 0.34966 0.36495 0.0
H1173 H 0.91174 0.43392 0.39758 0.0
H1174 H 0.88486 0.41511 0.39096 0.0
C1175 C 0.82742 0.33835 0.35918 0.0
C1176 C 0.86275 0.37135 0.35919 0.0
H1177 H 0.91527 0.37923 0.37619 0.0
C1178 C 0.85483 0.38481 0.35665 0.0
C1179 C 0.88481 0.36929 0.36629 0.0
C1180 C 0.89456 0.35508 0.36866 0.0
C1181 C 0.86849 0.3963 0.36091 0.0
C1182 C 0.89052 0.39424 0.36809 0.0
C1183 C 0.89832 0.38077 0.37078 0.0
C1184 C 0.90634 0.40586 0.37202 0.0
C1185 C 0.85955 0.41053 0.35718 0.0
C1186 C 0.92745 0.40677 0.36378 0.0
C1187 C 0.94291 0.41737 0.36767 0.0
C1188 C 0.93762 0.42733 0.37991 0.0
C1189 C 0.91639 0.42641 0.38813 0.0
C1190 C 0.90091 0.41575 0.38425 0.0
H1191 H 0.84465 0.41027 0.34825 0.0
H1192 H 0.85399 0.41527 0.36924 0.0
H1193 H 0.87312 0.4172 0.35163 0.0
H1194 H 0.93205 0.39919 0.35438 0.0
H1195 H 0.95927 0.41755 0.36135 0.0
H1196 H 0.22028 0.35255 0.68882 0.0
H1197 H 0.19636 0.37191 0.68001 0.0
H1198 H 0.1475 0.34367 0.65739 0.0
H1199 H 0.17078 0.32424 0.66674 0.0
H1200 H 0.18108 0.38041 0.64804 0.0
H1201 H 0.10804 0.36602 0.68916 0.0
H1202 H 0.13588 0.35836 0.6916 0.0
H1203 H 0.11645 0.3525 0.67516 0.0
C1204 C 0.20434 0.35044 0.68211 0.0
C1205 C 0.19736 0.33682 0.67865 0.0
C1206 C 0.19079 0.36153 0.67697 0.0
C1207 C 0.16996 0.35921 0.66833 0.0
C1208 C 0.16329 0.34567 0.66436 0.0
H1209 H 0.06153 0.40798 0.62561 0.0
H1210 H 0.08855 0.39019 0.63421 0.0
C1211 C 0.17678 0.33458 0.66953 0.0
C1212 C 0.15511 0.37094 0.66356 0.0
H1213 H 0.10145 0.38369 0.66862 0.0
C1214 C 0.16373 0.3812 0.65263 0.0
C1215 C 0.13252 0.37198 0.66966 0.0
C1216 C 0.12271 0.36171 0.68218 0.0
C1217 C 0.15008 0.39226 0.6472 0.0
C1218 C 0.12735 0.3931 0.65302 0.0
C1219 C 0.11887 0.38297 0.66414 0.0
C1220 C 0.11174 0.40416 0.64729 0.0
C1221 C 0.15979 0.40272 0.6349 0.0
C1222 C 0.11581 0.41793 0.65186 0.0
C1223 C 0.10039 0.42818 0.6469 0.0
C1224 C 0.08068 0.4248 0.63727 0.0
C1225 C 0.07675 0.41098 0.63273 0.0
C1226 C 0.09208 0.40077 0.63774 0.0
H1227 H 0.17593 0.39917 0.62912 0.0
H1228 H 0.14725 0.405 0.62454 0.0
H1229 H 0.16349 0.41245 0.64178 0.0
H1230 H 0.13074 0.42071 0.65945 0.0
H1231 H 0.10391 0.43873 0.65056 0.0
H1232 H 0.16771 0.70272 0.33626 0.0
H1233 H 0.1488 0.68058 0.34177 0.0
H1234 H 0.19532 0.67314 0.38385 0.0
H1235 H 0.21411 0.69539 0.37855 0.0
H1236 H 0.16482 0.65433 0.34185 0.0
H1237 H 0.13389 0.66777 0.40623 0.0
H1238 H 0.14562 0.68047 0.39181 0.0
H1239 H 0.1643 0.66938 0.40386 0.0
C1240 C 0.174 0.69633 0.34662 0.0
C1241 C 0.1923 0.70083 0.35704 0.0
C1242 C 0.16315 0.6837 0.34978 0.0
C1243 C 0.17038 0.67531 0.3634 0.0
C1244 C 0.18906 0.6796 0.37355 0.0
H1245 H 0.11328 0.59675 0.39977 0.0
H1246 H 0.13943 0.61613 0.39431 0.0
C1247 C 0.19981 0.69229 0.37048 0.0
C1248 C 0.15822 0.66212 0.36693 0.0
H1249 H 0.12683 0.64501 0.39698 0.0
C1250 C 0.15657 0.65228 0.35392 0.0
C1251 C 0.14746 0.65945 0.38271 0.0
C1252 C 0.14768 0.66986 0.39691 0.0
C1253 C 0.14433 0.6399 0.3562 0.0
C1254 C 0.13334 0.63735 0.37186 0.0
C1255 C 0.13541 0.647 0.38502 0.0
C1256 C 0.11833 0.62516 0.37447 0.0
C1257 C 0.14316 0.62966 0.34184 0.0
C1258 C 0.09781 0.62389 0.36516 0.0
C1259 C 0.08271 0.61297 0.36837 0.0
C1260 C 0.08784 0.60305 0.38097 0.0
C1261 C 0.10866 0.60425 0.3901 0.0
C1262 C 0.12369 0.61527 0.38694 0.0
H1263 H 0.15693 0.6315 0.33244 0.0
H1264 H 0.14449 0.61896 0.34681 0.0
H1265 H 0.12645 0.63061 0.33509 0.0
H1266 H 0.09314 0.63158 0.35572 0.0
H1267 H 0.06664 0.6126 0.36136 0.0
H1268 H 0.81913 0.83556 0.66579 0.0
H1269 H 0.82179 0.85798 0.6514 0.0
H1270 H 0.7884 0.84088 0.6069 0.0
H1271 H 0.78534 0.81851 0.62127 0.0
H1272 H 0.84426 0.86339 0.61971 0.0
H1273 H 0.75204 0.87632 0.61668 0.0
H1274 H 0.76339 0.86346 0.63111 0.0
H1275 H 0.75873 0.85947 0.60899 0.0
C1276 C 0.81208 0.83663 0.65302 0.0
C1277 C 0.80199 0.82527 0.64467 0.0
C1278 C 0.81371 0.84942 0.64481 0.0
C1279 C 0.80503 0.85111 0.62819 0.0
C1280 C 0.79488 0.83983 0.61983 0.0
H1281 H 0.8028 0.91227 0.54915 0.0
H1282 H 0.79686 0.89267 0.56826 0.0
C1283 C 0.79336 0.82703 0.62799 0.0
C1284 C 0.80752 0.8645 0.61923 0.0
H1285 H 0.77708 0.89013 0.59987 0.0
C1286 C 0.82961 0.86934 0.61552 0.0
C1287 C 0.78835 0.87218 0.61377 0.0
C1288 C 0.76427 0.86769 0.61795 0.0
C1289 C 0.83305 0.88142 0.60592 0.0
C1290 C 0.81385 0.88902 0.60023 0.0
C1291 C 0.79176 0.88431 0.60426 0.0
C1292 C 0.81629 0.90143 0.58927 0.0
C1293 C 0.85716 0.8856 0.60135 0.0
C1294 C 0.8287 0.91304 0.59488 0.0
C1295 C 0.83215 0.9243 0.58396 0.0
C1296 C 0.82299 0.9242 0.56729 0.0
C1297 C 0.80984 0.91277 0.56197 0.0
C1298 C 0.80652 0.90151 0.57285 0.0
H1299 H 0.86935 0.87701 0.60318 0.0
H1300 H 0.85801 0.88918 0.5879 0.0
H1301 H 0.86288 0.89421 0.60966 0.0
H1302 H 0.83595 0.91333 0.60765 0.0
H1303 H 0.8421 0.93303 0.5885 0.0
H1304 H 0.6952 0.27318 0.23903 0.0
H1305 H 0.67298 0.27461 0.21242 0.0
H1306 H 0.67249 0.23037 0.20878 0.0
H1307 H 0.69522 0.2288 0.23506 0.0
H1308 H 0.68372 0.26218 0.17827 0.0
H1309 H 0.6033 0.24313 0.20788 0.0
H1310 H 0.62677 0.25032 0.22024 0.0
H1311 H 0.62849 0.23314 0.21212 0.0
C1312 C 0.69066 0.26375 0.23247 0.0
C1313 C 0.6969 0.25086 0.23928 0.0
C1314 C 0.67788 0.2646 0.21731 0.0
C1315 C 0.67097 0.25259 0.20878 0.0
C1316 C 0.67746 0.23974 0.21533 0.0
H1317 H 0.61081 0.2376 0.10924 0.0
H1318 H 0.6367 0.23957 0.13394 0.0
C1319 C 0.69033 0.23888 0.23041 0.0
C1320 C 0.65651 0.25343 0.19321 0.0
H1321 H 0.60301 0.24581 0.1779 0.0
C1322 C 0.66605 0.25867 0.17815 0.0
C1323 C 0.63344 0.24894 0.19322 0.0
C1324 C 0.62223 0.24365 0.20923 0.0
C1325 C 0.65315 0.25925 0.16293 0.0
C1326 C 0.63025 0.25441 0.16284 0.0
C1327 C 0.62062 0.24946 0.178 0.0
C1328 C 0.61588 0.25426 0.14715 0.0
C1329 C 0.66403 0.26512 0.1471 0.0
C1330 C 0.59565 0.26186 0.14641 0.0
C1331 C 0.5808 0.26071 0.13239 0.0
C1332 C 0.58582 0.25182 0.11889 0.0
C1333 C 0.60642 0.24448 0.11947 0.0
C1334 C 0.62132 0.24568 0.13349 0.0
H1335 H 0.67967 0.27127 0.15016 0.0
H1336 H 0.66894 0.25656 0.13865 0.0
H1337 H 0.6518 0.27173 0.13995 0.0
H1338 H 0.59107 0.26845 0.15689 0.0
H1339 H 0.56492 0.26634 0.13249 0.0
H1340 H 0.20239 0.19257 0.65563 0.0
H1341 H 0.19863 0.17015 0.64166 0.0
H1342 H 0.24506 0.18375 0.6026 0.0
H1343 H 0.24904 0.20617 0.61655 0.0
H1344 H 0.18354 0.16653 0.60588 0.0
H1345 H 0.26987 0.14546 0.61979 0.0
H1346 H 0.25758 0.15905 0.63221 0.0
H1347 H 0.26906 0.16278 0.61156 0.0
C1348 C 0.21202 0.19072 0.64419 0.0
C1349 C 0.22602 0.20112 0.63719 0.0
C1350 C 0.20979 0.17794 0.6362 0.0
C1351 C 0.22176 0.17528 0.62123 0.0
C1352 C 0.23592 0.18557 0.61428 0.0
H1353 H 0.22962 0.11001 0.54796 0.0
H1354 H 0.23623 0.12979 0.56658 0.0
C1355 C 0.238 0.19839 0.62217 0.0
C1356 C 0.21852 0.16199 0.61234 0.0
H1357 H 0.24633 0.13297 0.60037 0.0
C1358 C 0.19717 0.15911 0.60478 0.0
C1359 C 0.23643 0.15244 0.61088 0.0
C1360 C 0.25952 0.15497 0.61913 0.0
C1361 C 0.19339 0.14707 0.59532 0.0
C1362 C 0.2113 0.13746 0.59383 0.0
C1363 C 0.2326 0.1403 0.60159 0.0
C1364 C 0.20851 0.12473 0.58362 0.0
C1365 C 0.17052 0.14504 0.58647 0.0
C1366 C 0.19125 0.11505 0.58735 0.0
C1367 C 0.18736 0.10377 0.57668 0.0
C1368 C 0.20093 0.10185 0.56224 0.0
C1369 C 0.21901 0.11114 0.55907 0.0
C1370 C 0.22274 0.12249 0.56966 0.0
H1371 H 0.16109 0.15486 0.58515 0.0
H1372 H 0.17263 0.1406 0.57359 0.0
H1373 H 0.15986 0.13783 0.59408 0.0
H1374 H 0.18047 0.11637 0.59833 0.0
H1375 H 0.1735 0.09667 0.57955 0.0
H1376 H 0.30275 0.77477 0.22494 0.0
H1377 H 0.32469 0.77748 0.1987 0.0
H1378 H 0.3766 0.75065 0.21924 0.0
H1379 H 0.35475 0.74784 0.24542 0.0
H1380 H 0.36845 0.78725 0.19289 0.0
H1381 H 0.36029 0.73254 0.174 0.0
H1382 H 0.3433 0.73989 0.19061 0.0
H1383 H 0.37224 0.7347 0.195 0.0
C1384 C 0.31893 0.76953 0.22391 0.0
C1385 C 0.32692 0.76098 0.23719 0.0
C1386 C 0.33139 0.77105 0.2089 0.0
C1387 C 0.35203 0.76404 0.20689 0.0
C1388 C 0.36041 0.75586 0.22034 0.0
H1389 H 0.4617 0.77754 0.13646 0.0
H1390 H 0.43518 0.77813 0.16021 0.0
C1391 C 0.34792 0.75428 0.2353 0.0
C1392 C 0.36486 0.76524 0.19075 0.0
H1393 H 0.38753 0.74618 0.15885 0.0
C1394 C 0.37248 0.7783 0.18536 0.0
C1395 C 0.36973 0.75358 0.18077 0.0
C1396 C 0.36077 0.73941 0.18527 0.0
C1397 C 0.38554 0.77994 0.17056 0.0
C1398 C 0.39145 0.76817 0.16109 0.0
C1399 C 0.38316 0.75519 0.16619 0.0
C1400 C 0.40682 0.76895 0.1462 0.0
C1401 C 0.39274 0.79426 0.16516 0.0
C1402 C 0.39983 0.76345 0.13044 0.0
C1403 C 0.41504 0.76302 0.11684 0.0
C1404 C 0.43756 0.76806 0.11876 0.0
C1405 C 0.44435 0.77383 0.13445 0.0
C1406 C 0.42918 0.77419 0.14805 0.0
H1407 H 0.38112 0.80215 0.1703 0.0
H1408 H 0.4102 0.79647 0.17021 0.0
H1409 H 0.39303 0.79528 0.15106 0.0
H1410 H 0.38268 0.7593 0.12874 0.0
H1411 H 0.40926 0.75859 0.10488 0.0
H1412 H 0.78209 0.20562 0.40531 0.0
H1413 H 0.78637 0.18313 0.41917 0.0
H1414 H 0.81933 0.16764 0.37447 0.0
H1415 H 0.81546 0.19019 0.36058 0.0
H1416 H 0.77006 0.1563 0.40688 0.0
H1417 H 0.86473 0.15974 0.41489 0.0
H1418 H 0.84736 0.17469 0.41079 0.0
H1419 H 0.85337 0.163 0.39385 0.0
C1420 C 0.79039 0.19746 0.39847 0.0
C1421 C 0.79857 0.1997 0.38189 0.0
C1422 C 0.79268 0.1846 0.40636 0.0
C1423 C 0.80335 0.1738 0.39789 0.0
C1424 C 0.81125 0.17591 0.38127 0.0
H1425 H 0.84249 0.09294 0.43799 0.0
H1426 H 0.83554 0.11246 0.41871 0.0
C1427 C 0.80886 0.18875 0.37332 0.0
C1428 C 0.80633 0.16036 0.4066 0.0
H1429 H 0.84664 0.13944 0.42453 0.0
C1430 C 0.78679 0.15256 0.41069 0.0
C1431 C 0.82819 0.1555 0.41142 0.0
C1432 C 0.84967 0.16367 0.40765 0.0
C1433 C 0.78853 0.14003 0.4196 0.0
C1434 C 0.81036 0.13537 0.42491 0.0
C1435 C 0.82993 0.14302 0.42044 0.0
C1436 C 0.81324 0.12305 0.43597 0.0
C1437 C 0.76698 0.13188 0.42318 0.0
C1438 C 0.80307 0.12254 0.45207 0.0
C1439 C 0.807 0.11144 0.46307 0.0
C1440 C 0.82138 0.10065 0.45828 0.0
C1441 C 0.83141 0.10111 0.44208 0.0
C1442 C 0.8274 0.11223 0.43104 0.0
H1443 H 0.75318 0.13436 0.41383 0.0
H1444 H 0.77012 0.12063 0.42285 0.0
H1445 H 0.76078 0.13453 0.43604 0.0
H1446 H 0.79263 0.13094 0.45636 0.0
H1447 H 0.79944 0.11158 0.47559 0.0
H1448 H 0.30938 0.2683 0.78949 0.0
H1449 H 0.3328 0.26954 0.81557 0.0
H1450 H 0.37316 0.23563 0.79818 0.0
H1451 H 0.35051 0.23466 0.77188 0.0
H1452 H 0.33943 0.2496 0.84038 0.0
H1453 H 0.42194 0.26392 0.81091 0.0
H1454 H 0.39499 0.26507 0.79954 0.0
H1455 H 0.40927 0.24881 0.80155 0.0
C1456 C 0.32347 0.26124 0.79111 0.0
C1457 C 0.32809 0.25139 0.77856 0.0
C1458 C 0.33673 0.26191 0.80606 0.0
C1459 C 0.35494 0.25282 0.80869 0.0
C1460 C 0.35949 0.24293 0.79626 0.0
H1461 H 0.44934 0.22736 0.88582 0.0
H1462 H 0.42375 0.23053 0.86131 0.0
C1463 C 0.34631 0.24227 0.78133 0.0
C1464 C 0.36881 0.25328 0.82464 0.0
H1465 H 0.42386 0.25521 0.83955 0.0
C1466 C 0.35785 0.25102 0.84026 0.0
C1467 C 0.39283 0.25522 0.82444 0.0
C1468 C 0.40543 0.25853 0.80822 0.0
C1469 C 0.37043 0.25 0.85558 0.0
C1470 C 0.39451 0.25136 0.85524 0.0
C1471 C 0.40538 0.25407 0.83972 0.0
C1472 C 0.40893 0.24928 0.87065 0.0
C1473 C 0.35806 0.24692 0.87195 0.0
C1474 C 0.40897 0.25878 0.88406 0.0
C1475 C 0.42357 0.25697 0.89817 0.0
C1476 C 0.43828 0.24562 0.89909 0.0
C1477 C 0.43793 0.23607 0.88568 0.0
C1478 C 0.42346 0.23792 0.87159 0.0
H1479 H 0.33977 0.24419 0.86967 0.0
H1480 H 0.36642 0.23832 0.87892 0.0
H1481 H 0.3589 0.25612 0.88026 0.0
H1482 H 0.39803 0.26769 0.88346 0.0
H1483 H 0.42342 0.26448 0.90831 0.0
H1484 H 0.23331 0.82561 0.38913 0.0
H1485 H 0.22333 0.84509 0.40701 0.0
H1486 H 0.24845 0.87324 0.36868 0.0
H1487 H 0.25747 0.85386 0.35036 0.0
H1488 H 0.25097 0.86518 0.4205 0.0
H1489 H 0.18562 0.88852 0.37764 0.0
H1490 H 0.19644 0.87142 0.37444 0.0
H1491 H 0.21287 0.88623 0.36783 0.0
C1492 C 0.23638 0.83594 0.38436 0.0
C1493 C 0.24607 0.83814 0.36823 0.0
C1494 C 0.23084 0.84707 0.39467 0.0
C1495 C 0.23481 0.86063 0.38908 0.0
C1496 C 0.24478 0.86288 0.37312 0.0
H1497 H 0.21473 0.93989 0.43891 0.0
H1498 H 0.22674 0.92168 0.41946 0.0
C1499 C 0.25023 0.85176 0.36275 0.0
C1500 C 0.229 0.87237 0.40016 0.0
H1501 H 0.19659 0.90137 0.40208 0.0
C1502 C 0.23905 0.87308 0.41648 0.0
C1503 C 0.21347 0.88269 0.39487 0.0
C1504 C 0.20129 0.88215 0.37781 0.0
C1505 C 0.23405 0.88384 0.42764 0.0
C1506 C 0.21847 0.89409 0.42238 0.0
C1507 C 0.20863 0.89351 0.406 0.0
C1508 C 0.21134 0.90511 0.43404 0.0
C1509 C 0.24555 0.88421 0.44496 0.0
C1510 C 0.19852 0.90179 0.44849 0.0
C1511 C 0.19163 0.91211 0.45954 0.0
C1512 C 0.19739 0.92598 0.45633 0.0
C1513 C 0.21019 0.92929 0.44177 0.0
C1514 C 0.21696 0.91894 0.43064 0.0
H1515 H 0.26087 0.87755 0.44554 0.0
H1516 H 0.25077 0.89489 0.44832 0.0
H1517 H 0.23332 0.88047 0.45469 0.0
H1518 H 0.19381 0.8912 0.45122 0.0
H1519 H 0.18205 0.9092 0.47075 0.0
H1520 H 0.69877 0.79896 0.78801 0.0
H1521 H 0.67589 0.7984 0.81384 0.0
H1522 H 0.67958 0.75413 0.81524 0.0
H1523 H 0.70198 0.7545 0.78906 0.0
H1524 H 0.63214 0.78245 0.81716 0.0
H1525 H 0.69973 0.76808 0.86447 0.0
H1526 H 0.70639 0.77602 0.84422 0.0
H1527 H 0.69767 0.75828 0.84509 0.0
C1528 C 0.69461 0.78907 0.7937 0.0
C1529 C 0.70214 0.77676 0.78636 0.0
C1530 C 0.68169 0.7888 0.80854 0.0
C1531 C 0.67625 0.77624 0.81648 0.0
C1532 C 0.68391 0.76393 0.8094 0.0
H1533 H 0.59668 0.75852 0.90763 0.0
H1534 H 0.62227 0.75698 0.88327 0.0
C1535 C 0.69675 0.76418 0.79447 0.0
C1536 C 0.66163 0.77608 0.83173 0.0
H1537 H 0.66228 0.77064 0.87476 0.0
C1538 C 0.63868 0.77986 0.82976 0.0
C1539 C 0.67024 0.77255 0.84806 0.0
C1540 C 0.69489 0.76856 0.85074 0.0
C1541 C 0.62403 0.78025 0.84376 0.0
C1542 C 0.63278 0.77716 0.86024 0.0
C1543 C 0.65566 0.77311 0.86215 0.0
C1544 C 0.61844 0.77828 0.87562 0.0
C1545 C 0.59922 0.78377 0.8407 0.0
C1546 C 0.60835 0.79085 0.87969 0.0
C1547 C 0.59351 0.79172 0.89344 0.0
C1548 C 0.58868 0.78007 0.90358 0.0
C1549 C 0.59968 0.76763 0.89992 0.0
C1550 C 0.61444 0.76675 0.88607 0.0
H1551 H 0.59387 0.7818 0.82729 0.0
H1552 H 0.58786 0.77775 0.84926 0.0
H1553 H 0.59674 0.79488 0.84323 0.0
H1554 H 0.61161 0.79995 0.87202 0.0
H1555 H 0.58523 0.80144 0.89571 0.0
loop_
_geom_bond_atom_site_label_1
_geom_bond_atom_site_label_2
_geom_bond_distance
_geom_bond_site_symmetry_2
_ccdc_geom_bond_type
C0 C1 1.264 . S
C0 C5 1.479 . S
C0 C10 1.465 . S
C1 C0 1.264 . S
C1 C3 1.339 . S
C1 H28 0.931 . S
C2 C3 1.395 . S
C2 C4 1.320 . S
C3 C1 1.339 . S
C3 C2 1.395 . S
C3 H29 0.929 . S
C4 C2 1.320 . S
C4 C5 1.405 . S
C4 H30 0.930 . S
C5 C0 1.479 . S
C5 C4 1.405 . S
C5 H31 0.931 . S
U6 O7 2.454 . S
U6 O8 2.458 . S
U6 C9 2.984 . S
U6 C10 2.847 . S
U6 C23 2.882 . S
U6 O24 2.441 . S
U6 O25 2.420 . S
U6 O26 2.455 . S
U6 O27 2.449 . S
O7 U6 2.454 . S
O7 C9 1.353 . S
O8 U6 2.458 . S
O8 C9 1.286 . S
C9 U6 2.984 . S
C9 O7 1.353 . S
C9 O8 1.286 . S
C9 C11 1.363 . S
C10 C0 1.465 . S
C10 U6 2.847 . S
C10 O24 1.249 . S
C10 O25 1.202 . S
C11 C9 1.363 . S
C11 C13 1.408 . S
C11 C16 1.342 . S
C12 C13 1.310 . S
C12 C15 1.461 . S
C12 H32 0.932 . S
C13 C11 1.408 . S
C13 C12 1.310 . S
C13 H33 0.930 . S
C14 C15 1.474 . S
C14 C16 1.285 . S
C14 H34 0.929 . S
C15 C12 1.461 . S
C15 C14 1.474 . S
C16 C11 1.342 . S
C16 C14 1.285 . S
C16 H35 0.930 . S
C17 C20 1.424 . S
C17 C22 1.245 . S
C17 C23 1.428 . S
C18 C21 1.260 . S
C18 C22 1.477 . S
C18 H36 0.932 . S
C19 C20 1.384 . S
C19 C21 1.479 . S
C19 H37 0.929 . S
C20 C17 1.424 . S
C20 C19 1.384 . S
C20 H38 0.928 . S
C21 C18 1.260 . S
C21 C19 1.479 . S
C22 C17 1.245 . S
C22 C18 1.477 . S
C22 H39 0.932 . S
C23 U6 2.882 . S
C23 C17 1.428 . S
C23 O26 1.301 . S
C23 O27 1.282 . S
O24 U6 2.441 . S
O24 C10 1.249 . S
O25 U6 2.420 . S
O25 C10 1.202 . S
O26 U6 2.455 . S
O26 C23 1.301 . S
O27 U6 2.449 . S
O27 C23 1.282 . S
H28 C1 0.931 . S
H29 C3 0.929 . S
H30 C4 0.930 . S
H31 C5 0.931 . S
H32 C12 0.932 . S
H33 C13 0.930 . S
H34 C14 0.929 . S
H35 C16 0.930 . S
H36 C18 0.932 . S
H37 C19 0.929 . S
H38 C20 0.928 . S
H39 C22 0.932 . S
C40 C41 1.264 . S
C40 C45 1.479 . S
C40 C50 1.465 . S
C41 C40 1.264 . S
C41 C43 1.339 . S
C41 H68 0.931 . S
C42 C43 1.395 . S
C42 C44 1.320 . S
C43 C41 1.339 . S
C43 C42 1.395 . S
C43 H69 0.929 . S
C44 C42 1.320 . S
C44 C45 1.405 . S
C44 H70 0.930 . S
C45 C40 1.479 . S
C45 C44 1.405 . S
C45 H71 0.931 . S
U46 O47 2.454 . S
U46 O48 2.458 . S
U46 C49 2.984 . S
U46 C50 2.847 . S
U46 C63 2.882 . S
U46 O64 2.441 . S
U46 O65 2.420 . S
U46 O66 2.455 . S
U46 O67 2.449 . S
O47 U46 2.454 . S
O47 C49 1.353 . S
O48 U46 2.458 . S
O48 C49 1.286 . S
C49 U46 2.984 . S
C49 O47 1.353 . S
C49 O48 1.286 . S
C49 C51 1.363 . S
C50 C40 1.465 . S
C50 U46 2.847 . S
C50 O64 1.249 . S
C50 O65 1.202 . S
C51 C49 1.363 . S
C51 C53 1.408 . S
C51 C56 1.342 . S
C52 C53 1.310 . S
C52 C55 1.461 . S
C52 H72 0.932 . S
C53 C51 1.408 . S
C53 C52 1.310 . S
C53 H73 0.930 . S
C54 C55 1.474 . S
C54 C56 1.285 . S
C54 H74 0.929 . S
C55 C52 1.461 . S
C55 C54 1.474 . S
C56 C51 1.342 . S
C56 C54 1.285 . S
C56 H75 0.930 . S
C57 C60 1.424 . S
C57 C62 1.245 . S
C57 C63 1.428 . S
C58 C61 1.260 . S
C58 C62 1.477 . S
C58 H76 0.932 . S
C59 C60 1.384 . S
C59 C61 1.479 . S
C59 H77 0.929 . S
C60 C57 1.424 . S
C60 C59 1.384 . S
C60 H78 0.928 . S
C61 C58 1.260 . S
C61 C59 1.479 . S
C62 C57 1.245 . S
C62 C58 1.477 . S
C62 H79 0.932 . S
C63 U46 2.882 . S
C63 C57 1.428 . S
C63 O66 1.301 . S
C63 O67 1.282 . S
O64 U46 2.441 . S
O64 C50 1.249 . S
O65 U46 2.420 . S
O65 C50 1.202 . S
O66 U46 2.455 . S
O66 C63 1.301 . S
O67 U46 2.449 . S
O67 C63 1.282 . S
H68 C41 0.931 . S
H69 C43 0.929 . S
H70 C44 0.930 . S
H71 C45 0.931 . S
H72 C52 0.932 . S
H73 C53 0.930 . S
H74 C54 0.929 . S
H75 C56 0.930 . S
H76 C58 0.932 . S
H77 C59 0.929 . S
H78 C60 0.928 . S
H79 C62 0.932 . S
C80 C81 1.264 . S
C80 C85 1.479 . S
C80 C90 1.465 . S
C81 C80 1.264 . S
C81 C83 1.339 . S
C81 H108 0.931 . S
C82 C83 1.395 . S
C82 C84 1.320 . S
C83 C81 1.339 . S
C83 C82 1.395 . S
C83 H109 0.929 . S
C84 C82 1.320 . S
C84 C85 1.405 . S
C84 H110 0.930 . S
C85 C80 1.479 . S
C85 C84 1.405 . S
C85 H111 0.931 . S
U86 O87 2.454 . S
U86 O88 2.458 . S
U86 C89 2.984 . S
U86 C90 2.847 . S
U86 C103 2.882 . S
U86 O104 2.441 . S
U86 O105 2.420 . S
U86 O106 2.455 . S
U86 O107 2.449 . S
O87 U86 2.454 . S
O87 C89 1.353 . S
O88 U86 2.458 . S
O88 C89 1.286 . S
C89 U86 2.984 . S
C89 O87 1.353 . S
C89 O88 1.286 . S
C89 C91 1.363 . S
C90 C80 1.465 . S
C90 U86 2.847 . S
C90 O104 1.249 . S
C90 O105 1.202 . S
C91 C89 1.363 . S
C91 C93 1.408 . S
C91 C96 1.342 . S
C92 C93 1.310 . S
C92 C95 1.461 . S
C92 H112 0.932 . S
C93 C91 1.408 . S
C93 C92 1.310 . S
C93 H113 0.930 . S
C94 C95 1.474 . S
C94 C96 1.285 . S
C94 H114 0.929 . S
C95 C92 1.461 . S
C95 C94 1.474 . S
C96 C91 1.342 . S
C96 C94 1.285 . S
C96 H115 0.930 . S
C97 C100 1.424 . S
C97 C102 1.245 . S
C97 C103 1.428 . S
C98 C101 1.260 . S
C98 C102 1.477 . S
C98 H116 0.932 . S
C99 C100 1.384 . S
C99 C101 1.479 . S
C99 H117 0.929 . S
C100 C97 1.424 . S
C100 C99 1.384 . S
C100 H118 0.928 . S
C101 C98 1.260 . S
C101 C99 1.479 . S
C102 C97 1.245 . S
C102 C98 1.477 . S
C102 H119 0.932 . S
C103 U86 2.882 . S
C103 C97 1.428 . S
C103 O106 1.301 . S
C103 O107 1.282 . S
O104 U86 2.441 . S
O104 C90 1.249 . S
O105 U86 2.420 . S
O105 C90 1.202 . S
O106 U86 2.455 . S
O106 C103 1.301 . S
O107 U86 2.449 . S
O107 C103 1.282 . S
H108 C81 0.931 . S
H109 C83 0.929 . S
H110 C84 0.930 . S
H111 C85 0.931 . S
H112 C92 0.932 . S
H113 C93 0.930 . S
H114 C94 0.929 . S
H115 C96 0.930 . S
H116 C98 0.932 . S
H117 C99 0.929 . S
H118 C100 0.928 . S
H119 C102 0.932 . S
C120 C121 1.264 . S
C120 C125 1.479 . S
C120 C130 1.465 . S
C121 C120 1.264 . S
C121 C123 1.339 . S
C121 H148 0.931 . S
C122 C123 1.395 . S
C122 C124 1.320 . S
C123 C121 1.339 . S
C123 C122 1.395 . S
C123 H149 0.929 . S
C124 C122 1.320 . S
C124 C125 1.405 . S
C124 H150 0.930 . S
C125 C120 1.479 . S
C125 C124 1.405 . S
C125 H151 0.931 . S
U126 O127 2.454 . S
U126 O128 2.458 . S
U126 C129 2.984 . S
U126 C130 2.847 . S
U126 C143 2.882 . S
U126 O144 2.441 . S
U126 O145 2.420 . S
U126 O146 2.455 . S
U126 O147 2.449 . S
O127 U126 2.454 . S
O127 C129 1.353 . S
O128 U126 2.458 . S
O128 C129 1.286 . S
C129 U126 2.984 . S
C129 O127 1.353 . S
C129 O128 1.286 . S
C129 C131 1.363 . S
C130 C120 1.465 . S
C130 U126 2.847 . S
C130 O144 1.249 . S
C130 O145 1.202 . S
C131 C129 1.363 . S
C131 C133 1.408 . S
C131 C136 1.342 . S
C132 C133 1.310 . S
C132 C135 1.461 . S
C132 H152 0.932 . S
C133 C131 1.408 . S
C133 C132 1.310 . S
C133 H153 0.930 . S
C134 C135 1.474 . S
C134 C136 1.285 . S
C134 H154 0.929 . S
C135 C132 1.461 . S
C135 C134 1.474 . S
C136 C131 1.342 . S
C136 C134 1.285 . S
C136 H155 0.930 . S
C137 C140 1.424 . S
C137 C142 1.245 . S
C137 C143 1.428 . S
C138 C141 1.260 . S
C138 C142 1.477 . S
C138 H156 0.932 . S
C139 C140 1.384 . S
C139 C141 1.479 . S
C139 H157 0.929 . S
C140 C137 1.424 . S
C140 C139 1.384 . S
C140 H158 0.928 . S
C141 C138 1.260 . S
C141 C139 1.479 . S
C142 C137 1.245 . S
C142 C138 1.477 . S
C142 H159 0.932 . S
C143 U126 2.882 . S
C143 C137 1.428 . S
C143 O146 1.301 . S
C143 O147 1.282 . S
O144 U126 2.441 . S
O144 C130 1.249 . S
O145 U126 2.420 . S
O145 C130 1.202 . S
O146 U126 2.455 . S
O146 C143 1.301 . S
O147 U126 2.449 . S
O147 C143 1.282 . S
H148 C121 0.931 . S
H149 C123 0.929 . S
H150 C124 0.930 . S
H151 C125 0.931 . S
H152 C132 0.932 . S
H153 C133 0.930 . S
H154 C134 0.929 . S
H155 C136 0.930 . S
H156 C138 0.932 . S
H157 C139 0.929 . S
H158 C140 0.928 . S
H159 C142 0.932 . S
C160 C161 1.264 . S
C160 C165 1.479 . S
C160 C170 1.465 . S
C161 C160 1.264 . S
C161 C163 1.339 . S
C161 H188 0.931 . S
C162 C163 1.395 . S
C162 C164 1.320 . S
C163 C161 1.339 . S
C163 C162 1.395 . S
C163 H189 0.929 . S
C164 C162 1.320 . S
C164 C165 1.405 . S
C164 H190 0.930 . S
C165 C160 1.479 . S
C165 C164 1.405 . S
C165 H191 0.931 . S
U166 O167 2.454 . S
U166 O168 2.458 . S
U166 C169 2.984 . S
U166 C170 2.847 . S
U166 C183 2.882 . S
U166 O184 2.441 . S
U166 O185 2.420 . S
U166 O186 2.455 . S
U166 O187 2.449 . S
O167 U166 2.454 . S
O167 C169 1.353 . S
O168 U166 2.458 . S
O168 C169 1.286 . S
C169 U166 2.984 . S
C169 O167 1.353 . S
C169 O168 1.286 . S
C169 C171 1.363 . S
C170 C160 1.465 . S
C170 U166 2.847 . S
C170 O184 1.249 . S
C170 O185 1.202 . S
C171 C169 1.363 . S
C171 C173 1.408 . S
C171 C176 1.342 . S
C172 C173 1.310 . S
C172 C175 1.461 . S
C172 H192 0.932 . S
C173 C171 1.408 . S
C173 C172 1.310 . S
C173 H193 0.930 . S
C174 C175 1.474 . S
C174 C176 1.285 . S
C174 H194 0.929 . S
C175 C172 1.461 . S
C175 C174 1.474 . S
C176 C171 1.342 . S
C176 C174 1.285 . S
C176 H195 0.930 . S
C177 C180 1.424 . S
C177 C182 1.245 . S
C177 C183 1.428 . S
C178 C181 1.260 . S
C178 C182 1.477 . S
C178 H196 0.932 . S
C179 C180 1.384 . S
C179 C181 1.479 . S
C179 H197 0.929 . S
C180 C177 1.424 . S
C180 C179 1.384 . S
C180 H198 0.928 . S
C181 C178 1.260 . S
C181 C179 1.479 . S
C182 C177 1.245 . S
C182 C178 1.477 . S
C182 H199 0.932 . S
C183 U166 2.882 . S
C183 C177 1.428 . S
C183 O186 1.301 . S
C183 O187 1.282 . S
O184 U166 2.441 . S
O184 C170 1.249 . S
O185 U166 2.420 . S
O185 C170 1.202 . S
O186 U166 2.455 . S
O186 C183 1.301 . S
O187 U166 2.449 . S
O187 C183 1.282 . S
H188 C161 0.931 . S
H189 C163 0.929 . S
H190 C164 0.930 . S
H191 C165 0.931 . S
H192 C172 0.932 . S
H193 C173 0.930 . S
H194 C174 0.929 . S
H195 C176 0.930 . S
H196 C178 0.932 . S
H197 C179 0.929 . S
H198 C180 0.928 . S
H199 C182 0.932 . S
C200 C201 1.264 . S
C200 C205 1.479 . S
C200 C210 1.465 . S
C201 C200 1.264 . S
C201 C203 1.339 . S
C201 H228 0.931 . S
C202 C203 1.395 . S
C202 C204 1.320 . S
C203 C201 1.339 . S
C203 C202 1.395 . S
C203 H229 0.929 . S
C204 C202 1.320 . S
C204 C205 1.405 . S
C204 H230 0.930 . S
C205 C200 1.479 . S
C205 C204 1.405 . S
C205 H231 0.931 . S
U206 O207 2.454 . S
U206 O208 2.458 . S
U206 C209 2.984 . S
U206 C210 2.847 . S
U206 C223 2.882 . S
U206 O224 2.441 . S
U206 O225 2.420 . S
U206 O226 2.455 . S
U206 O227 2.449 . S
O207 U206 2.454 . S
O207 C209 1.353 . S
O208 U206 2.458 . S
O208 C209 1.286 . S
C209 U206 2.984 . S
C209 O207 1.353 . S
C209 O208 1.286 . S
C209 C211 1.363 . S
C210 C200 1.465 . S
C210 U206 2.847 . S
C210 O224 1.249 . S
C210 O225 1.202 . S
C211 C209 1.363 . S
C211 C213 1.408 . S
C211 C216 1.342 . S
C212 C213 1.310 . S
C212 C215 1.461 . S
C212 H232 0.932 . S
C213 C211 1.408 . S
C213 C212 1.310 . S
C213 H233 0.930 . S
C214 C215 1.474 . S
C214 C216 1.285 . S
C214 H234 0.929 . S
C215 C212 1.461 . S
C215 C214 1.474 . S
C216 C211 1.342 . S
C216 C214 1.285 . S
C216 H235 0.930 . S
C217 C220 1.424 . S
C217 C222 1.245 . S
C217 C223 1.428 . S
C218 C221 1.260 . S
C218 C222 1.477 . S
C218 H236 0.932 . S
C219 C220 1.384 . S
C219 C221 1.479 . S
C219 H237 0.929 . S
C220 C217 1.424 . S
C220 C219 1.384 . S
C220 H238 0.928 . S
C221 C218 1.260 . S
C221 C219 1.479 . S
C222 C217 1.245 . S
C222 C218 1.477 . S
C222 H239 0.932 . S
C223 U206 2.882 . S
C223 C217 1.428 . S
C223 O226 1.301 . S
C223 O227 1.282 . S
O224 U206 2.441 . S
O224 C210 1.249 . S
O225 U206 2.420 . S
O225 C210 1.202 . S
O226 U206 2.455 . S
O226 C223 1.301 . S
O227 U206 2.449 . S
O227 C223 1.282 . S
H228 C201 0.931 . S
H229 C203 0.929 . S
H230 C204 0.930 . S
H231 C205 0.931 . S
H232 C212 0.932 . S
H233 C213 0.930 . S
H234 C214 0.929 . S
H235 C216 0.930 . S
H236 C218 0.932 . S
H237 C219 0.929 . S
H238 C220 0.928 . S
H239 C222 0.932 . S
C240 C241 1.264 . S
C240 C245 1.479 . S
C240 C250 1.465 . S
C241 C240 1.264 . S
C241 C243 1.339 . S
C241 H268 0.931 . S
C242 C243 1.395 . S
C242 C244 1.320 . S
C243 C241 1.339 . S
C243 C242 1.395 . S
C243 H269 0.929 . S
C244 C242 1.320 . S
C244 C245 1.405 . S
C244 H270 0.930 . S
C245 C240 1.479 . S
C245 C244 1.405 . S
C245 H271 0.931 . S
U246 O247 2.454 . S
U246 O248 2.458 . S
U246 C249 2.984 . S
U246 C250 2.847 . S
U246 C263 2.882 . S
U246 O264 2.441 . S
U246 O265 2.420 . S
U246 O266 2.455 . S
U246 O267 2.449 . S
O247 U246 2.454 . S
O247 C249 1.353 . S
O248 U246 2.458 . S
O248 C249 1.286 . S
C249 U246 2.984 . S
C249 O247 1.353 . S
C249 O248 1.286 . S
C249 C251 1.363 . S
C250 C240 1.465 . S
C250 U246 2.847 . S
C250 O264 1.249 . S
C250 O265 1.202 . S
C251 C249 1.363 . S
C251 C253 1.408 . S
C251 C256 1.342 . S
C252 C253 1.310 . S
C252 C255 1.461 . S
C252 H272 0.932 . S
C253 C251 1.408 . S
C253 C252 1.310 . S
C253 H273 0.930 . S
C254 C255 1.474 . S
C254 C256 1.285 . S
C254 H274 0.929 . S
C255 C252 1.461 . S
C255 C254 1.474 . S
C256 C251 1.342 . S
C256 C254 1.285 . S
C256 H275 0.930 . S
C257 C260 1.424 . S
C257 C262 1.245 . S
C257 C263 1.428 . S
C258 C261 1.260 . S
C258 C262 1.477 . S
C258 H276 0.932 . S
C259 C260 1.384 . S
C259 C261 1.479 . S
C259 H277 0.929 . S
C260 C257 1.424 . S
C260 C259 1.384 . S
C260 H278 0.928 . S
C261 C258 1.260 . S
C261 C259 1.479 . S
C262 C257 1.245 . S
C262 C258 1.477 . S
C262 H279 0.932 . S
C263 U246 2.882 . S
C263 C257 1.428 . S
C263 O266 1.301 . S
C263 O267 1.282 . S
O264 U246 2.441 . S
O264 C250 1.249 . S
O265 U246 2.420 . S
O265 C250 1.202 . S
O266 U246 2.455 . S
O266 C263 1.301 . S
O267 U246 2.449 . S
O267 C263 1.282 . S
H268 C241 0.931 . S
H269 C243 0.929 . S
H270 C244 0.930 . S
H271 C245 0.931 . S
H272 C252 0.932 . S
H273 C253 0.930 . S
H274 C254 0.929 . S
H275 C256 0.930 . S
H276 C258 0.932 . S
H277 C259 0.929 . S
H278 C260 0.928 . S
H279 C262 0.932 . S
C280 C281 1.264 . S
C280 C285 1.479 . S
C280 C290 1.465 . S
C281 C280 1.264 . S
C281 C283 1.339 . S
C281 H308 0.931 . S
C282 C283 1.395 . S
C282 C284 1.320 . S
C283 C281 1.339 . S
C283 C282 1.395 . S
C283 H309 0.929 . S
C284 C282 1.320 . S
C284 C285 1.405 . S
C284 H310 0.930 . S
C285 C280 1.479 . S
C285 C284 1.405 . S
C285 H311 0.931 . S
U286 O287 2.454 . S
U286 O288 2.458 . S
U286 C289 2.984 . S
U286 C290 2.847 . S
U286 C303 2.882 . S
U286 O304 2.441 . S
U286 O305 2.420 . S
U286 O306 2.455 . S
U286 O307 2.449 . S
O287 U286 2.454 . S
O287 C289 1.353 . S
O288 U286 2.458 . S
O288 C289 1.286 . S
C289 U286 2.984 . S
C289 O287 1.353 . S
C289 O288 1.286 . S
C289 C291 1.363 . S
C290 C280 1.465 . S
C290 U286 2.847 . S
C290 O304 1.249 . S
C290 O305 1.202 . S
C291 C289 1.363 . S
C291 C293 1.408 . S
C291 C296 1.342 . S
C292 C293 1.310 . S
C292 C295 1.461 . S
C292 H312 0.932 . S
C293 C291 1.408 . S
C293 C292 1.310 . S
C293 H313 0.930 . S
C294 C295 1.474 . S
C294 C296 1.285 . S
C294 H314 0.929 . S
C295 C292 1.461 . S
C295 C294 1.474 . S
C296 C291 1.342 . S
C296 C294 1.285 . S
C296 H315 0.930 . S
C297 C300 1.424 . S
C297 C302 1.245 . S
C297 C303 1.428 . S
C298 C301 1.260 . S
C298 C302 1.477 . S
C298 H316 0.932 . S
C299 C300 1.384 . S
C299 C301 1.479 . S
C299 H317 0.929 . S
C300 C297 1.424 . S
C300 C299 1.384 . S
C300 H318 0.928 . S
C301 C298 1.260 . S
C301 C299 1.479 . S
C302 C297 1.245 . S
C302 C298 1.477 . S
C302 H319 0.932 . S
C303 U286 2.882 . S
C303 C297 1.428 . S
C303 O306 1.301 . S
C303 O307 1.282 . S
O304 U286 2.441 . S
O304 C290 1.249 . S
O305 U286 2.420 . S
O305 C290 1.202 . S
O306 U286 2.455 . S
O306 C303 1.301 . S
O307 U286 2.449 . S
O307 C303 1.282 . S
H308 C281 0.931 . S
H309 C283 0.929 . S
H310 C284 0.930 . S
H311 C285 0.931 . S
H312 C292 0.932 . S
H313 C293 0.930 . S
H314 C294 0.929 . S
H315 C296 0.930 . S
H316 C298 0.932 . S
H317 C299 0.929 . S
H318 C300 0.928 . S
H319 C302 0.932 . S
H320 C347 0.929 . S
N321 C346 1.433 1_455 S
N321 C352 1.435 . S
N321 C358 1.423 . S
H322 C348 0.930 . S
H323 C351 0.931 . S
H324 C350 0.929 . S
H325 C353 0.930 . S
H326 C354 0.932 . S
H327 C357 0.929 . S
H328 C356 0.931 . S
H329 C359 0.931 1_655 S
H330 C363 0.932 . S
H331 C360 0.931 1_655 S
H332 C362 0.929 . S
H333 C365 0.929 . S
H334 C366 0.930 . S
H335 C368 0.929 . S
H336 C369 0.931 . S
H337 C371 0.930 . S
H338 C372 0.932 . S
H339 C374 0.931 . S
H340 C375 0.929 . S
H341 C377 0.930 1_655 S
H342 C378 0.931 1_655 S
H343 C380 0.929 . S
N344 C364 1.433 1_455 S
N344 C370 1.435 . S
N344 C376 1.423 . S
H345 C381 0.932 . S
C346 N321 1.433 1_655 S
C346 C347 1.363 . S
C346 C351 1.370 . S
C347 H320 0.929 . S
C347 C346 1.363 . S
C347 C348 1.385 . S
C348 H322 0.930 . S
C348 C347 1.385 . S
C348 C349 1.357 . S
C349 C348 1.357 . S
C349 C350 1.406 . S
C350 H324 0.929 . S
C350 C349 1.406 . S
C350 C351 1.391 . S
C351 H323 0.931 . S
C351 C346 1.370 . S
C351 C350 1.391 . S
C352 N321 1.435 . S
C352 C353 1.358 . S
C352 C357 1.371 . S
C353 H325 0.930 . S
C353 C352 1.358 . S
C353 C354 1.405 . S
C354 H326 0.932 . S
C354 C353 1.405 . S
C354 C355 1.383 . S
C355 C354 1.383 . S
C355 C356 1.393 . S
C356 H328 0.931 . S
C356 C355 1.393 . S
C356 C357 1.382 . S
C357 H327 0.929 . S
C357 C352 1.371 . S
C357 C356 1.382 . S
C358 N321 1.423 . S
C358 C359 1.360 . S
C358 C363 1.388 . S
C359 H329 0.931 1_455 S
C359 C358 1.360 . S
C359 C360 1.376 . S
C360 H331 0.931 1_455 S
C360 C359 1.376 . S
C360 C361 1.396 . S
C361 C360 1.396 . S
C361 C362 1.348 . S
C361 C379 1.472 . S
C362 H332 0.929 . S
C362 C361 1.348 . S
C362 C363 1.443 . S
C363 H330 0.932 . S
C363 C358 1.388 . S
C363 C362 1.443 . S
C364 N344 1.433 1_655 S
C364 C365 1.363 . S
C364 C369 1.370 . S
C365 H333 0.929 . S
C365 C364 1.363 . S
C365 C366 1.385 . S
C366 H334 0.930 . S
C366 C365 1.385 . S
C366 C367 1.357 . S
C367 C366 1.357 . S
C367 C368 1.406 . S
C368 H335 0.929 . S
C368 C367 1.406 . S
C368 C369 1.391 . S
C369 H336 0.931 . S
C369 C364 1.370 . S
C369 C368 1.391 . S
C370 N344 1.435 . S
C370 C371 1.358 . S
C370 C375 1.371 . S
C371 H337 0.930 . S
C371 C370 1.358 . S
C371 C372 1.405 . S
C372 H338 0.932 . S
C372 C371 1.405 . S
C372 C373 1.383 . S
C373 C372 1.383 . S
C373 C374 1.393 . S
C374 H339 0.931 . S
C374 C373 1.393 . S
C374 C375 1.382 . S
C375 H340 0.929 . S
C375 C370 1.371 . S
C375 C374 1.382 . S
C376 N344 1.423 . S
C376 C377 1.361 . S
C376 C381 1.388 . S
C377 H341 0.930 1_455 S
C377 C376 1.361 . S
C377 C378 1.376 . S
C378 H342 0.931 1_455 S
C378 C377 1.376 . S
C378 C379 1.396 . S
C379 C361 1.472 . S
C379 C378 1.396 . S
C379 C380 1.348 . S
C380 H343 0.929 . S
C380 C379 1.348 . S
C380 C381 1.443 . S
C381 H345 0.932 . S
C381 C376 1.388 . S
C381 C380 1.443 . S
H382 C409 0.929 . S
N383 C408 1.433 1_455 S
N383 C414 1.435 . S
N383 C420 1.423 . S
H384 C410 0.930 . S
H385 C413 0.931 . S
H386 C412 0.929 . S
H387 C415 0.930 . S
H388 C416 0.932 . S
H389 C419 0.929 . S
H390 C418 0.931 . S
H391 C421 0.929 . S
H392 C425 0.932 . S
H393 C422 0.920 1_655 S
H394 C424 0.929 . S
H395 C427 0.929 . S
H396 C428 0.930 . S
H397 C430 0.929 . S
H398 C431 0.931 . S
H399 C433 0.930 . S
H400 C434 0.932 . S
H401 C436 0.931 . S
H402 C437 0.929 . S
H403 C439 0.929 . S
H404 C440 0.919 1_655 S
H405 C442 0.929 . S
N406 C426 1.433 1_455 S
N406 C432 1.435 . S
N406 C438 1.423 . S
H407 C443 0.932 . S
C408 N383 1.433 1_655 S
C408 C409 1.363 . S
C408 C413 1.370 . S
C409 H382 0.929 . S
C409 C408 1.363 . S
C409 C410 1.385 . S
C410 H384 0.930 . S
C410 C409 1.385 . S
C410 C411 1.357 . S
C411 C410 1.357 . S
C411 C412 1.406 . S
C412 H386 0.929 . S
C412 C411 1.406 . S
C412 C413 1.391 . S
C413 H385 0.931 . S
C413 C408 1.370 . S
C413 C412 1.391 . S
C414 N383 1.435 . S
C414 C415 1.358 . S
C414 C419 1.371 . S
C415 H387 0.930 . S
C415 C414 1.358 . S
C415 C416 1.405 . S
C416 H388 0.932 . S
C416 C415 1.405 . S
C416 C417 1.383 . S
C417 C416 1.383 . S
C417 C418 1.393 . S
C418 H390 0.931 . S
C418 C417 1.393 . S
C418 C419 1.382 . S
C419 H389 0.929 . S
C419 C414 1.371 . S
C419 C418 1.382 . S
C420 N383 1.423 . S
C420 C421 1.362 1_455 S
C420 C425 1.388 . S
C421 H391 0.929 . S
C421 C420 1.362 1_655 S
C421 C422 1.375 1_655 S
C422 H393 0.920 1_455 S
C422 C421 1.375 1_455 S
C422 C423 1.408 . S
C423 C422 1.408 . S
C423 C424 1.348 . S
C423 C441 1.472 . S
C424 H394 0.929 . S
C424 C423 1.348 . S
C424 C425 1.443 . S
C425 H392 0.932 . S
C425 C420 1.388 . S
C425 C424 1.443 . S
C426 N406 1.433 1_655 S
C426 C427 1.363 . S
C426 C431 1.370 . S
C427 H395 0.929 . S
C427 C426 1.363 . S
C427 C428 1.385 . S
C428 H396 0.930 . S
C428 C427 1.385 . S
C428 C429 1.357 . S
C429 C428 1.357 . S
C429 C430 1.406 . S
C430 H397 0.929 . S
C430 C429 1.406 . S
C430 C431 1.391 . S
C431 H398 0.931 . S
C431 C426 1.370 . S
C431 C430 1.391 . S
C432 N406 1.435 . S
C432 C433 1.358 . S
C432 C437 1.371 . S
C433 H399 0.930 . S
C433 C432 1.358 . S
C433 C434 1.405 . S
C434 H400 0.932 . S
C434 C433 1.405 . S
C434 C435 1.383 . S
C435 C434 1.383 . S
C435 C436 1.393 . S
C436 H401 0.931 . S
C436 C435 1.393 . S
C436 C437 1.382 . S
C437 H402 0.929 . S
C437 C432 1.371 . S
C437 C436 1.382 . S
C438 N406 1.423 . S
C438 C439 1.362 1_455 S
C438 C443 1.388 . S
C439 H403 0.929 . S
C439 C438 1.362 1_655 S
C439 C440 1.374 1_655 S
C440 H404 0.919 1_455 S
C440 C439 1.374 1_455 S
C440 C441 1.410 . S
C441 C423 1.472 . S
C441 C440 1.410 . S
C441 C442 1.348 . S
C442 H405 0.929 . S
C442 C441 1.348 . S
C442 C443 1.443 . S
C443 H407 0.932 . S
C443 C438 1.388 . S
C443 C442 1.443 . S
H444 C471 0.929 . S
N445 C470 1.433 . S
N445 C476 1.435 . S
N445 C482 1.423 . S
H446 C472 0.930 . S
H447 C475 0.931 . S
H448 C474 0.929 . S
H449 C477 0.930 . S
H450 C478 0.932 . S
H451 C481 0.929 . S
H452 C480 0.931 . S
H453 C483 0.929 . S
H454 C487 0.932 . S
H455 C484 0.931 . S
H456 C486 0.929 . S
H457 C489 0.929 . S
H458 C490 0.930 . S
H459 C492 0.929 . S
H460 C493 0.931 . S
H461 C495 0.930 . S
H462 C496 0.932 . S
H463 C498 0.931 . S
H464 C499 0.929 . S
H465 C501 0.929 . S
H466 C502 0.931 . S
H467 C504 0.929 . S
N468 C488 1.433 . S
N468 C494 1.435 . S
N468 C500 1.423 . S
H469 C505 0.932 . S
C470 N445 1.433 . S
C470 C471 1.363 . S
C470 C475 1.370 . S
C471 H444 0.929 . S
C471 C470 1.363 . S
C471 C472 1.385 . S
C472 H446 0.930 . S
C472 C471 1.385 . S
C472 C473 1.357 . S
C473 C472 1.357 . S
C473 C474 1.406 . S
C474 H448 0.929 . S
C474 C473 1.406 . S
C474 C475 1.391 . S
C475 H447 0.931 . S
C475 C470 1.370 . S
C475 C474 1.391 . S
C476 N445 1.435 . S
C476 C477 1.358 . S
C476 C481 1.371 . S
C477 H449 0.930 . S
C477 C476 1.358 . S
C477 C478 1.405 . S
C478 H450 0.932 . S
C478 C477 1.405 . S
C478 C479 1.383 . S
C479 C478 1.383 . S
C479 C480 1.393 . S
C480 H452 0.931 . S
C480 C479 1.393 . S
C480 C481 1.382 . S
C481 H451 0.929 . S
C481 C476 1.371 . S
C481 C480 1.382 . S
C482 N445 1.423 . S
C482 C483 1.362 . S
C482 C487 1.388 . S
C483 H453 0.929 . S
C483 C482 1.362 . S
C483 C484 1.376 . S
C484 H455 0.931 . S
C484 C483 1.376 . S
C484 C485 1.396 . S
C485 C484 1.396 . S
C485 C486 1.348 . S
C485 C503 1.472 1_545 S
C486 H456 0.929 . S
C486 C485 1.348 . S
C486 C487 1.443 . S
C487 H454 0.932 . S
C487 C482 1.388 . S
C487 C486 1.443 . S
C488 N468 1.433 . S
C488 C489 1.363 . S
C488 C493 1.370 . S
C489 H457 0.929 . S
C489 C488 1.363 . S
C489 C490 1.385 . S
C490 H458 0.930 . S
C490 C489 1.385 . S
C490 C491 1.357 . S
C491 C490 1.357 . S
C491 C492 1.406 . S
C492 H459 0.929 . S
C492 C491 1.406 . S
C492 C493 1.391 . S
C493 H460 0.931 . S
C493 C488 1.370 . S
C493 C492 1.391 . S
C494 N468 1.435 . S
C494 C495 1.358 . S
C494 C499 1.371 . S
C495 H461 0.930 . S
C495 C494 1.358 . S
C495 C496 1.405 . S
C496 H462 0.932 . S
C496 C495 1.405 . S
C496 C497 1.383 . S
C497 C496 1.383 . S
C497 C498 1.393 . S
C498 H463 0.931 . S
C498 C497 1.393 . S
C498 C499 1.382 . S
C499 H464 0.929 . S
C499 C494 1.371 . S
C499 C498 1.382 . S
C500 N468 1.423 . S
C500 C501 1.362 . S
C500 C505 1.388 . S
C501 H465 0.929 . S
C501 C500 1.362 . S
C501 C502 1.376 . S
C502 H466 0.931 . S
C502 C501 1.376 . S
C502 C503 1.396 . S
C503 C485 1.472 1_565 S
C503 C502 1.396 . S
C503 C504 1.348 . S
C504 H467 0.929 . S
C504 C503 1.348 . S
C504 C505 1.443 . S
C505 H469 0.932 . S
C505 C500 1.388 . S
C505 C504 1.443 . S
H506 C533 0.929 . S
N507 C532 1.433 . S
N507 C538 1.435 . S
N507 C544 1.423 . S
H508 C534 0.930 . S
H509 C537 0.931 . S
H510 C536 0.929 . S
H511 C539 0.930 . S
H512 C540 0.932 . S
H513 C543 0.929 . S
H514 C542 0.931 . S
H515 C545 0.929 . S
H516 C549 0.932 . S
H517 C546 0.931 . S
H518 C548 0.929 . S
H519 C551 0.929 . S
H520 C552 0.930 . S
H521 C554 0.929 . S
H522 C555 0.931 . S
H523 C557 0.930 . S
H524 C558 0.932 . S
H525 C560 0.931 . S
H526 C561 0.929 . S
H527 C563 0.929 . S
H528 C564 0.931 . S
H529 C566 0.929 . S
N530 C550 1.433 . S
N530 C556 1.435 . S
N530 C562 1.423 . S
H531 C567 0.932 . S
C532 N507 1.433 . S
C532 C533 1.363 . S
C532 C537 1.370 . S
C533 H506 0.929 . S
C533 C532 1.363 . S
C533 C534 1.385 . S
C534 H508 0.930 . S
C534 C533 1.385 . S
C534 C535 1.357 . S
C535 C534 1.357 . S
C535 C536 1.406 . S
C536 H510 0.929 . S
C536 C535 1.406 . S
C536 C537 1.391 . S
C537 H509 0.931 . S
C537 C532 1.370 . S
C537 C536 1.391 . S
C538 N507 1.435 . S
C538 C539 1.358 . S
C538 C543 1.371 . S
C539 H511 0.930 . S
C539 C538 1.358 . S
C539 C540 1.405 . S
C540 H512 0.932 . S
C540 C539 1.405 . S
C540 C541 1.383 . S
C541 C540 1.383 . S
C541 C542 1.393 . S
C542 H514 0.931 . S
C542 C541 1.393 . S
C542 C543 1.382 . S
C543 H513 0.929 . S
C543 C538 1.371 . S
C543 C542 1.382 . S
C544 N507 1.423 . S
C544 C545 1.362 . S
C544 C549 1.388 . S
C545 H515 0.929 . S
C545 C544 1.362 . S
C545 C546 1.376 . S
C546 H517 0.931 . S
C546 C545 1.376 . S
C546 C547 1.396 . S
C547 C546 1.396 . S
C547 C548 1.348 . S
C547 C565 1.472 1_554 S
C548 H518 0.929 . S
C548 C547 1.348 . S
C548 C549 1.443 . S
C549 H516 0.932 . S
C549 C544 1.388 . S
C549 C548 1.443 . S
C550 N530 1.433 . S
C550 C551 1.363 . S
C550 C555 1.370 . S
C551 H519 0.929 . S
C551 C550 1.363 . S
C551 C552 1.385 . S
C552 H520 0.930 . S
C552 C551 1.385 . S
C552 C553 1.357 . S
C553 C552 1.357 . S
C553 C554 1.406 . S
C554 H521 0.929 . S
C554 C553 1.406 . S
C554 C555 1.391 . S
C555 H522 0.931 . S
C555 C550 1.370 . S
C555 C554 1.391 . S
C556 N530 1.435 . S
C556 C557 1.358 . S
C556 C561 1.371 . S
C557 H523 0.930 . S
C557 C556 1.358 . S
C557 C558 1.405 . S
C558 H524 0.932 . S
C558 C557 1.405 . S
C558 C559 1.383 . S
C559 C558 1.383 . S
C559 C560 1.393 . S
C560 H525 0.931 . S
C560 C559 1.393 . S
C560 C561 1.382 . S
C561 H526 0.929 . S
C561 C556 1.371 . S
C561 C560 1.382 . S
C562 N530 1.423 . S
C562 C563 1.362 . S
C562 C567 1.388 . S
C563 H527 0.929 . S
C563 C562 1.362 . S
C563 C564 1.376 . S
C564 H528 0.931 . S
C564 C563 1.376 . S
C564 C565 1.396 . S
C565 C547 1.472 1_556 S
C565 C564 1.396 . S
C565 C566 1.348 . S
C566 H529 0.929 . S
C566 C565 1.348 . S
C566 C567 1.443 . S
C567 H531 0.932 . S
C567 C562 1.388 . S
C567 C566 1.443 . S
H568 C595 0.929 . S
N569 C594 1.433 . S
N569 C600 1.435 . S
N569 C606 1.423 . S
H570 C596 0.930 . S
H571 C599 0.931 . S
H572 C598 0.929 . S
H573 C601 0.930 . S
H574 C602 0.932 . S
H575 C605 0.929 . S
H576 C604 0.931 . S
H577 C607 0.929 . S
H578 C611 0.932 . S
H579 C608 0.931 . S
H580 C610 0.929 . S
H581 C613 0.929 . S
H582 C614 0.930 . S
H583 C616 0.929 . S
H584 C617 0.931 . S
H585 C619 0.930 . S
H586 C620 0.932 . S
H587 C622 0.931 . S
H588 C623 0.929 . S
H589 C625 0.929 . S
H590 C626 0.931 . S
H591 C628 0.929 . S
N592 C612 1.433 . S
N592 C618 1.435 . S
N592 C624 1.423 . S
H593 C629 0.932 . S
C594 N569 1.433 . S
C594 C595 1.363 . S
C594 C599 1.370 . S
C595 H568 0.929 . S
C595 C594 1.363 . S
C595 C596 1.385 . S
C596 H570 0.930 . S
C596 C595 1.385 . S
C596 C597 1.357 . S
C597 C596 1.357 . S
C597 C598 1.406 . S
C598 H572 0.929 . S
C598 C597 1.406 . S
C598 C599 1.391 . S
C599 H571 0.931 . S
C599 C594 1.370 . S
C599 C598 1.391 . S
C600 N569 1.435 . S
C600 C601 1.358 . S
C600 C605 1.371 . S
C601 H573 0.930 . S
C601 C600 1.358 . S
C601 C602 1.405 . S
C602 H574 0.932 . S
C602 C601 1.405 . S
C602 C603 1.383 . S
C603 C602 1.383 . S
C603 C604 1.393 . S
C604 H576 0.931 . S
C604 C603 1.393 . S
C604 C605 1.382 . S
C605 H575 0.929 . S
C605 C600 1.371 . S
C605 C604 1.382 . S
C606 N569 1.423 . S
C606 C607 1.362 . S
C606 C611 1.388 . S
C607 H577 0.929 . S
C607 C606 1.362 . S
C607 C608 1.376 . S
C608 H579 0.931 . S
C608 C607 1.376 . S
C608 C609 1.396 . S
C609 C608 1.396 . S
C609 C610 1.348 . S
C609 C627 1.472 1_545 S
C610 H580 0.929 . S
C610 C609 1.348 . S
C610 C611 1.443 . S
C611 H578 0.932 . S
C611 C606 1.388 . S
C611 C610 1.443 . S
C612 N592 1.433 . S
C612 C613 1.363 . S
C612 C617 1.370 . S
C613 H581 0.929 . S
C613 C612 1.363 . S
C613 C614 1.385 . S
C614 H582 0.930 . S
C614 C613 1.385 . S
C614 C615 1.357 . S
C615 C614 1.357 . S
C615 C616 1.406 . S
C616 H583 0.929 . S
C616 C615 1.406 . S
C616 C617 1.391 . S
C617 H584 0.931 . S
C617 C612 1.370 . S
C617 C616 1.391 . S
C618 N592 1.435 . S
C618 C619 1.358 . S
C618 C623 1.371 . S
C619 H585 0.930 . S
C619 C618 1.358 . S
C619 C620 1.405 . S
C620 H586 0.932 . S
C620 C619 1.405 . S
C620 C621 1.383 . S
C621 C620 1.383 . S
C621 C622 1.393 . S
C622 H587 0.931 . S
C622 C621 1.393 . S
C622 C623 1.382 . S
C623 H588 0.929 . S
C623 C618 1.371 . S
C623 C622 1.382 . S
C624 N592 1.423 . S
C624 C625 1.362 . S
C624 C629 1.388 . S
C625 H589 0.929 . S
C625 C624 1.362 . S
C625 C626 1.376 . S
C626 H590 0.931 . S
C626 C625 1.376 . S
C626 C627 1.396 . S
C627 C609 1.472 1_565 S
C627 C626 1.396 . S
C627 C628 1.348 . S
C628 H591 0.929 . S
C628 C627 1.348 . S
C628 C629 1.443 . S
C629 H593 0.932 . S
C629 C624 1.388 . S
C629 C628 1.443 . S
H630 C657 0.929 . S
N631 C656 1.433 . S
N631 C662 1.435 . S
N631 C668 1.423 . S
H632 C658 0.930 . S
H633 C661 0.931 . S
H634 C660 0.929 . S
H635 C663 0.930 . S
H636 C664 0.932 . S
H637 C667 0.929 . S
H638 C666 0.931 . S
H639 C669 0.929 . S
H640 C673 0.932 . S
H641 C670 0.931 . S
H642 C672 0.929 . S
H643 C675 0.929 . S
H644 C676 0.930 . S
H645 C678 0.929 . S
H646 C679 0.931 . S
H647 C681 0.930 . S
H648 C682 0.932 . S
H649 C684 0.931 . S
H650 C685 0.929 . S
H651 C687 0.929 . S
H652 C688 0.931 . S
H653 C690 0.929 . S
N654 C674 1.433 . S
N654 C680 1.435 . S
N654 C686 1.423 . S
H655 C691 0.932 . S
C656 N631 1.433 . S
C656 C657 1.363 . S
C656 C661 1.370 . S
C657 H630 0.929 . S
C657 C656 1.363 . S
C657 C658 1.385 . S
C658 H632 0.930 . S
C658 C657 1.385 . S
C658 C659 1.357 . S
C659 C658 1.357 . S
C659 C660 1.406 . S
C660 H634 0.929 . S
C660 C659 1.406 . S
C660 C661 1.391 . S
C661 H633 0.931 . S
C661 C656 1.370 . S
C661 C660 1.391 . S
C662 N631 1.435 . S
C662 C663 1.358 . S
C662 C667 1.371 . S
C663 H635 0.930 . S
C663 C662 1.358 . S
C663 C664 1.405 . S
C664 H636 0.932 . S
C664 C663 1.405 . S
C664 C665 1.383 . S
C665 C664 1.383 . S
C665 C666 1.393 . S
C666 H638 0.931 . S
C666 C665 1.393 . S
C666 C667 1.382 . S
C667 H637 0.929 . S
C667 C662 1.371 . S
C667 C666 1.382 . S
C668 N631 1.423 . S
C668 C669 1.362 . S
C668 C673 1.388 . S
C669 H639 0.929 . S
C669 C668 1.362 . S
C669 C670 1.376 . S
C670 H641 0.931 . S
C670 C669 1.376 . S
C670 C671 1.396 . S
C671 C670 1.396 . S
C671 C672 1.348 . S
C671 C689 1.472 1_554 S
C672 H642 0.929 . S
C672 C671 1.348 . S
C672 C673 1.443 . S
C673 H640 0.932 . S
C673 C668 1.388 . S
C673 C672 1.443 . S
C674 N654 1.433 . S
C674 C675 1.363 . S
C674 C679 1.370 . S
C675 H643 0.929 . S
C675 C674 1.363 . S
C675 C676 1.385 . S
C676 H644 0.930 . S
C676 C675 1.385 . S
C676 C677 1.357 . S
C677 C676 1.357 . S
C677 C678 1.406 . S
C678 H645 0.929 . S
C678 C677 1.406 . S
C678 C679 1.391 . S
C679 H646 0.931 . S
C679 C674 1.370 . S
C679 C678 1.391 . S
C680 N654 1.435 . S
C680 C681 1.358 . S
C680 C685 1.371 . S
C681 H647 0.930 . S
C681 C680 1.358 . S
C681 C682 1.405 . S
C682 H648 0.932 . S
C682 C681 1.405 . S
C682 C683 1.383 . S
C683 C682 1.383 . S
C683 C684 1.393 . S
C684 H649 0.931 . S
C684 C683 1.393 . S
C684 C685 1.382 . S
C685 H650 0.929 . S
C685 C680 1.371 . S
C685 C684 1.382 . S
C686 N654 1.423 . S
C686 C687 1.362 . S
C686 C691 1.388 . S
C687 H651 0.929 . S
C687 C686 1.362 . S
C687 C688 1.376 . S
C688 H652 0.931 . S
C688 C687 1.376 . S
C688 C689 1.396 . S
C689 C671 1.472 1_556 S
C689 C688 1.396 . S
C689 C690 1.348 . S
C690 H653 0.929 . S
C690 C689 1.348 . S
C690 C691 1.443 . S
C691 H655 0.932 . S
C691 C686 1.388 . S
C691 C690 1.443 . S
H692 C700 0.929 . S
H693 C702 0.930 . S
H694 C704 0.930 . S
H695 C707 0.929 . S
H696 C710 0.930 . S
H697 C712 0.960 . S
H698 C712 0.960 . S
H699 C712 0.960 . S
C700 H692 0.929 . S
C700 C701 1.377 . S
C700 C702 1.384 . S
C701 C700 1.377 . S
C701 C707 1.390 . S
C702 H693 0.930 . S
C702 C700 1.384 . S
C702 C703 1.372 . S
C703 C702 1.372 . S
C703 C704 1.400 . S
C703 C708 1.490 . S
C704 H694 0.930 . S
C704 C703 1.400 . S
C704 C707 1.386 . S
H705 C721 0.930 . S
H706 C722 0.931 . S
C707 H695 0.929 . S
C707 C701 1.390 . S
C707 C704 1.386 . S
C708 C703 1.490 . S
C708 C710 1.395 . S
C708 C711 1.403 . S
H709 C715 0.930 . S
C710 H696 0.930 . S
C710 C708 1.395 . S
C710 C713 1.403 . S
C711 C708 1.403 . S
C711 C712 1.524 . S
C711 C715 1.400 . S
C712 H697 0.960 . S
C712 H698 0.960 . S
C712 H699 0.960 . S
C712 C711 1.524 . S
C713 C710 1.403 . S
C713 C714 1.392 . S
C713 C717 1.495 . S
C714 C713 1.392 . S
C714 C715 1.385 . S
C714 C716 1.478 . S
C715 H709 0.930 . S
C715 C711 1.400 . S
C715 C714 1.385 . S
C716 C714 1.478 . S
C716 C718 1.381 . S
C716 C722 1.383 . S
C717 C713 1.495 . S
C717 H723 0.959 . S
C717 H724 0.961 . S
C717 H725 0.960 . S
C718 C716 1.381 . S
C718 C719 1.394 . S
C718 H726 0.930 . S
C719 C718 1.394 . S
C719 C720 1.383 . S
C719 H727 0.929 . S
C720 C719 1.383 . S
C720 C721 1.377 . S
C721 H705 0.930 . S
C721 C720 1.377 . S
C721 C722 1.379 . S
C722 H706 0.931 . S
C722 C716 1.383 . S
C722 C721 1.379 . S
H723 C717 0.959 . S
H724 C717 0.961 . S
H725 C717 0.960 . S
H726 C718 0.930 . S
H727 C719 0.929 . S
H728 C736 0.929 . S
H729 C738 0.930 . S
H730 C740 0.930 . S
H731 C743 0.929 . S
H732 C746 0.930 . S
H733 C748 0.960 . S
H734 C748 0.960 . S
H735 C748 0.960 . S
C736 H728 0.929 . S
C736 C737 1.377 . S
C736 C738 1.384 . S
C737 C736 1.377 . S
C737 C743 1.390 . S
C738 H729 0.930 . S
C738 C736 1.384 . S
C738 C739 1.372 . S
C739 C738 1.372 . S
C739 C740 1.400 . S
C739 C744 1.490 . S
C740 H730 0.930 . S
C740 C739 1.400 . S
C740 C743 1.386 . S
H741 C757 0.930 . S
H742 C758 0.931 . S
C743 H731 0.929 . S
C743 C737 1.390 . S
C743 C740 1.386 . S
C744 C739 1.490 . S
C744 C746 1.395 . S
C744 C747 1.403 . S
H745 C751 0.930 . S
C746 H732 0.930 . S
C746 C744 1.395 . S
C746 C749 1.403 . S
C747 C744 1.403 . S
C747 C748 1.524 . S
C747 C751 1.400 . S
C748 H733 0.960 . S
C748 H734 0.960 . S
C748 H735 0.960 . S
C748 C747 1.524 . S
C749 C746 1.403 . S
C749 C750 1.392 . S
C749 C753 1.495 . S
C750 C749 1.392 . S
C750 C751 1.385 . S
C750 C752 1.478 . S
C751 H745 0.930 . S
C751 C747 1.400 . S
C751 C750 1.385 . S
C752 C750 1.478 . S
C752 C754 1.381 . S
C752 C758 1.383 . S
C753 C749 1.495 . S
C753 H759 0.959 . S
C753 H760 0.961 . S
C753 H761 0.960 . S
C754 C752 1.381 . S
C754 C755 1.394 . S
C754 H762 0.930 . S
C755 C754 1.394 . S
C755 C756 1.383 . S
C755 H763 0.929 . S
C756 C755 1.383 . S
C756 C757 1.377 . S
C757 H741 0.930 . S
C757 C756 1.377 . S
C757 C758 1.379 . S
C758 H742 0.931 . S
C758 C752 1.383 . S
C758 C757 1.379 . S
H759 C753 0.959 . S
H760 C753 0.961 . S
H761 C753 0.960 . S
H762 C754 0.930 . S
H763 C755 0.929 . S
H764 C772 0.929 . S
H765 C774 0.930 . S
H766 C776 0.930 . S
H767 C779 0.929 . S
H768 C782 0.930 . S
H769 C784 0.960 . S
H770 C784 0.960 . S
H771 C784 0.960 . S
C772 H764 0.929 . S
C772 C773 1.377 . S
C772 C774 1.384 . S
C773 C772 1.377 . S
C773 C779 1.390 . S
C774 H765 0.930 . S
C774 C772 1.384 . S
C774 C775 1.372 . S
C775 C774 1.372 . S
C775 C776 1.400 . S
C775 C780 1.490 . S
C776 H766 0.930 . S
C776 C775 1.400 . S
C776 C779 1.386 . S
H777 C793 0.930 . S
H778 C794 0.931 . S
C779 H767 0.929 . S
C779 C773 1.390 . S
C779 C776 1.386 . S
C780 C775 1.490 . S
C780 C782 1.395 . S
C780 C783 1.403 . S
H781 C787 0.930 . S
C782 H768 0.930 . S
C782 C780 1.395 . S
C782 C785 1.403 . S
C783 C780 1.403 . S
C783 C784 1.524 . S
C783 C787 1.400 . S
C784 H769 0.960 . S
C784 H770 0.960 . S
C784 H771 0.960 . S
C784 C783 1.524 . S
C785 C782 1.403 . S
C785 C786 1.392 . S
C785 C789 1.495 . S
C786 C785 1.392 . S
C786 C787 1.385 . S
C786 C788 1.478 . S
C787 H781 0.930 . S
C787 C783 1.400 . S
C787 C786 1.385 . S
C788 C786 1.478 . S
C788 C790 1.381 . S
C788 C794 1.383 . S
C789 C785 1.495 . S
C789 H795 0.959 . S
C789 H796 0.961 . S
C789 H797 0.960 . S
C790 C788 1.381 . S
C790 C791 1.394 . S
C790 H798 0.930 . S
C791 C790 1.394 . S
C791 C792 1.383 . S
C791 H799 0.929 . S
C792 C791 1.383 . S
C792 C793 1.377 . S
C793 H777 0.930 . S
C793 C792 1.377 . S
C793 C794 1.379 . S
C794 H778 0.931 . S
C794 C788 1.383 . S
C794 C793 1.379 . S
H795 C789 0.959 . S
H796 C789 0.961 . S
H797 C789 0.960 . S
H798 C790 0.930 . S
H799 C791 0.929 . S
H800 C808 0.929 . S
H801 C810 0.930 . S
H802 C812 0.930 . S
H803 C815 0.929 . S
H804 C818 0.930 . S
H805 C820 0.960 . S
H806 C820 0.960 . S
H807 C820 0.960 . S
C808 H800 0.929 . S
C808 C809 1.377 . S
C808 C810 1.384 . S
C809 C808 1.377 . S
C809 C815 1.390 . S
C810 H801 0.930 . S
C810 C808 1.384 . S
C810 C811 1.372 . S
C811 C810 1.372 . S
C811 C812 1.400 . S
C811 C816 1.490 . S
C812 H802 0.930 . S
C812 C811 1.400 . S
C812 C815 1.386 . S
H813 C829 0.930 . S
H814 C830 0.931 . S
C815 H803 0.929 . S
C815 C809 1.390 . S
C815 C812 1.386 . S
C816 C811 1.490 . S
C816 C818 1.395 . S
C816 C819 1.403 . S
H817 C823 0.930 . S
C818 H804 0.930 . S
C818 C816 1.395 . S
C818 C821 1.403 . S
C819 C816 1.403 . S
C819 C820 1.524 . S
C819 C823 1.400 . S
C820 H805 0.960 . S
C820 H806 0.960 . S
C820 H807 0.960 . S
C820 C819 1.524 . S
C821 C818 1.403 . S
C821 C822 1.392 . S
C821 C825 1.495 . S
C822 C821 1.392 . S
C822 C823 1.385 . S
C822 C824 1.478 . S
C823 H817 0.930 . S
C823 C819 1.400 . S
C823 C822 1.385 . S
C824 C822 1.478 . S
C824 C826 1.381 . S
C824 C830 1.383 . S
C825 C821 1.495 . S
C825 H831 0.959 . S
C825 H832 0.961 . S
C825 H833 0.960 . S
C826 C824 1.381 . S
C826 C827 1.394 . S
C826 H834 0.930 . S
C827 C826 1.394 . S
C827 C828 1.383 . S
C827 H835 0.929 . S
C828 C827 1.383 . S
C828 C829 1.377 . S
C829 H813 0.930 . S
C829 C828 1.377 . S
C829 C830 1.379 . S
C830 H814 0.931 . S
C830 C824 1.383 . S
C830 C829 1.379 . S
H831 C825 0.959 . S
H832 C825 0.961 . S
H833 C825 0.960 . S
H834 C826 0.930 . S
H835 C827 0.929 . S
H836 C844 0.929 . S
H837 C846 0.930 . S
H838 C848 0.930 . S
H839 C851 0.929 . S
H840 C854 0.930 . S
H841 C856 0.960 . S
H842 C856 0.960 . S
H843 C856 0.960 . S
C844 H836 0.929 . S
C844 C845 1.377 . S
C844 C846 1.384 . S
C845 C844 1.377 . S
C845 C851 1.390 . S
C846 H837 0.930 . S
C846 C844 1.384 . S
C846 C847 1.372 . S
C847 C846 1.372 . S
C847 C848 1.400 . S
C847 C852 1.490 . S
C848 H838 0.930 . S
C848 C847 1.400 . S
C848 C851 1.386 . S
H849 C865 0.930 . S
H850 C866 0.931 . S
C851 H839 0.929 . S
C851 C845 1.390 . S
C851 C848 1.386 . S
C852 C847 1.490 . S
C852 C854 1.395 . S
C852 C855 1.403 . S
H853 C859 0.930 . S
C854 H840 0.930 . S
C854 C852 1.395 . S
C854 C857 1.403 . S
C855 C852 1.403 . S
C855 C856 1.524 . S
C855 C859 1.400 . S
C856 H841 0.960 . S
C856 H842 0.960 . S
C856 H843 0.960 . S
C856 C855 1.524 . S
C857 C854 1.403 . S
C857 C858 1.392 . S
C857 C861 1.495 . S
C858 C857 1.392 . S
C858 C859 1.385 . S
C858 C860 1.478 . S
C859 H853 0.930 . S
C859 C855 1.400 . S
C859 C858 1.385 . S
C860 C858 1.478 . S
C860 C862 1.381 . S
C860 C866 1.383 . S
C861 C857 1.495 . S
C861 H867 0.959 . S
C861 H868 0.961 . S
C861 H869 0.960 . S
C862 C860 1.381 . S
C862 C863 1.394 . S
C862 H870 0.930 . S
C863 C862 1.394 . S
C863 C864 1.383 . S
C863 H871 0.929 . S
C864 C863 1.383 . S
C864 C865 1.377 . S
C865 H849 0.930 . S
C865 C864 1.377 . S
C865 C866 1.379 . S
C866 H850 0.931 . S
C866 C860 1.383 . S
C866 C865 1.379 . S
H867 C861 0.959 . S
H868 C861 0.961 . S
H869 C861 0.960 . S
H870 C862 0.930 . S
H871 C863 0.929 . S
H872 C880 0.929 . S
H873 C882 0.930 . S
H874 C884 0.930 . S
H875 C887 0.929 . S
H876 C890 0.930 . S
H877 C892 0.960 . S
H878 C892 0.960 . S
H879 C892 0.960 . S
C880 H872 0.929 . S
C880 C881 1.377 . S
C880 C882 1.384 . S
C881 C880 1.377 . S
C881 C887 1.390 . S
C882 H873 0.930 . S
C882 C880 1.384 . S
C882 C883 1.372 . S
C883 C882 1.372 . S
C883 C884 1.400 . S
C883 C888 1.490 . S
C884 H874 0.930 . S
C884 C883 1.400 . S
C884 C887 1.386 . S
H885 C901 0.930 . S
H886 C902 0.931 . S
C887 H875 0.929 . S
C887 C881 1.390 . S
C887 C884 1.386 . S
C888 C883 1.490 . S
C888 C890 1.395 . S
C888 C891 1.403 . S
H889 C895 0.930 . S
C890 H876 0.930 . S
C890 C888 1.395 . S
C890 C893 1.403 . S
C891 C888 1.403 . S
C891 C892 1.524 . S
C891 C895 1.400 . S
C892 H877 0.960 . S
C892 H878 0.960 . S
C892 H879 0.960 . S
C892 C891 1.524 . S
C893 C890 1.403 . S
C893 C894 1.392 . S
C893 C897 1.495 . S
C894 C893 1.392 . S
C894 C895 1.385 . S
C894 C896 1.478 . S
C895 H889 0.930 . S
C895 C891 1.400 . S
C895 C894 1.385 . S
C896 C894 1.478 . S
C896 C898 1.381 . S
C896 C902 1.383 . S
C897 C893 1.495 . S
C897 H903 0.959 . S
C897 H904 0.961 . S
C897 H905 0.960 . S
C898 C896 1.381 . S
C898 C899 1.394 . S
C898 H906 0.930 . S
C899 C898 1.394 . S
C899 C900 1.383 . S
C899 H907 0.929 . S
C900 C899 1.383 . S
C900 C901 1.377 . S
C901 H885 0.930 . S
C901 C900 1.377 . S
C901 C902 1.379 . S
C902 H886 0.931 . S
C902 C896 1.383 . S
C902 C901 1.379 . S
H903 C897 0.959 . S
H904 C897 0.961 . S
H905 C897 0.960 . S
H906 C898 0.930 . S
H907 C899 0.929 . S
H908 C916 0.929 . S
H909 C918 0.930 . S
H910 C920 0.930 . S
H911 C923 0.929 . S
H912 C926 0.930 . S
H913 C928 0.960 . S
H914 C928 0.960 . S
H915 C928 0.960 . S
C916 H908 0.929 . S
C916 C917 1.377 . S
C916 C918 1.384 . S
C917 C916 1.377 . S
C917 C923 1.390 . S
C918 H909 0.930 . S
C918 C916 1.384 . S
C918 C919 1.372 . S
C919 C918 1.372 . S
C919 C920 1.400 . S
C919 C924 1.490 . S
C920 H910 0.930 . S
C920 C919 1.400 . S
C920 C923 1.386 . S
H921 C937 0.930 . S
H922 C938 0.931 . S
C923 H911 0.929 . S
C923 C917 1.390 . S
C923 C920 1.386 . S
C924 C919 1.490 . S
C924 C926 1.395 . S
C924 C927 1.403 . S
H925 C931 0.930 . S
C926 H912 0.930 . S
C926 C924 1.395 . S
C926 C929 1.403 . S
C927 C924 1.403 . S
C927 C928 1.524 . S
C927 C931 1.400 . S
C928 H913 0.960 . S
C928 H914 0.960 . S
C928 H915 0.960 . S
C928 C927 1.524 . S
C929 C926 1.403 . S
C929 C930 1.392 . S
C929 C933 1.495 . S
C930 C929 1.392 . S
C930 C931 1.385 . S
C930 C932 1.478 . S
C931 H925 0.930 . S
C931 C927 1.400 . S
C931 C930 1.385 . S
C932 C930 1.478 . S
C932 C934 1.381 . S
C932 C938 1.383 . S
C933 C929 1.495 . S
C933 H939 0.959 . S
C933 H940 0.961 . S
C933 H941 0.960 . S
C934 C932 1.381 . S
C934 C935 1.394 . S
C934 H942 0.930 . S
C935 C934 1.394 . S
C935 C936 1.383 . S
C935 H943 0.929 . S
C936 C935 1.383 . S
C936 C937 1.377 . S
C937 H921 0.930 . S
C937 C936 1.377 . S
C937 C938 1.379 . S
C938 H922 0.931 . S
C938 C932 1.383 . S
C938 C937 1.379 . S
H939 C933 0.959 . S
H940 C933 0.961 . S
H941 C933 0.960 . S
H942 C934 0.930 . S
H943 C935 0.929 . S
H944 C952 0.929 . S
H945 C954 0.930 . S
H946 C956 0.930 . S
H947 C959 0.929 . S
H948 C962 0.930 . S
H949 C964 0.960 . S
H950 C964 0.960 . S
H951 C964 0.960 . S
C952 H944 0.929 . S
C952 C953 1.377 . S
C952 C954 1.384 . S
C953 C952 1.377 . S
C953 C959 1.390 . S
C954 H945 0.930 . S
C954 C952 1.384 . S
C954 C955 1.372 . S
C955 C954 1.372 . S
C955 C956 1.400 . S
C955 C960 1.490 . S
C956 H946 0.930 . S
C956 C955 1.400 . S
C956 C959 1.386 . S
H957 C973 0.930 . S
H958 C974 0.931 . S
C959 H947 0.929 . S
C959 C953 1.390 . S
C959 C956 1.386 . S
C960 C955 1.490 . S
C960 C962 1.395 . S
C960 C963 1.403 . S
H961 C967 0.930 . S
C962 H948 0.930 . S
C962 C960 1.395 . S
C962 C965 1.403 . S
C963 C960 1.403 . S
C963 C964 1.524 . S
C963 C967 1.400 . S
C964 H949 0.960 . S
C964 H950 0.960 . S
C964 H951 0.960 . S
C964 C963 1.524 . S
C965 C962 1.403 . S
C965 C966 1.392 . S
C965 C969 1.495 . S
C966 C965 1.392 . S
C966 C967 1.385 . S
C966 C968 1.478 . S
C967 H961 0.930 . S
C967 C963 1.400 . S
C967 C966 1.385 . S
C968 C966 1.478 . S
C968 C970 1.381 . S
C968 C974 1.383 . S
C969 C965 1.495 . S
C969 H975 0.959 . S
C969 H976 0.961 . S
C969 H977 0.960 . S
C970 C968 1.381 . S
C970 C971 1.394 . S
C970 H978 0.930 . S
C971 C970 1.394 . S
C971 C972 1.383 . S
C971 H979 0.929 . S
C972 C971 1.383 . S
C972 C973 1.377 . S
C973 H957 0.930 . S
C973 C972 1.377 . S
C973 C974 1.379 . S
C974 H958 0.931 . S
C974 C968 1.383 . S
C974 C973 1.379 . S
H975 C969 0.959 . S
H976 C969 0.961 . S
H977 C969 0.960 . S
H978 C970 0.930 . S
H979 C971 0.929 . S
H980 C988 0.929 . S
H981 C990 0.930 . S
H982 C992 0.930 . S
H983 C995 0.929 . S
H984 C998 0.930 . S
H985 C1000 0.960 . S
H986 C1000 0.960 . S
H987 C1000 0.960 . S
C988 H980 0.929 . S
C988 C989 1.377 . S
C988 C990 1.384 . S
C989 C988 1.377 . S
C989 C995 1.390 . S
C990 H981 0.930 . S
C990 C988 1.384 . S
C990 C991 1.372 . S
C991 C990 1.372 . S
C991 C992 1.400 . S
C991 C996 1.490 . S
C992 H982 0.930 . S
C992 C991 1.400 . S
C992 C995 1.386 . S
H993 C1009 0.930 . S
H994 C1010 0.931 . S
C995 H983 0.929 . S
C995 C989 1.390 . S
C995 C992 1.386 . S
C996 C991 1.490 . S
C996 C998 1.395 . S
C996 C999 1.403 . S
H997 C1003 0.930 . S
C998 H984 0.930 . S
C998 C996 1.395 . S
C998 C1001 1.403 . S
C999 C996 1.403 . S
C999 C1000 1.524 . S
C999 C1003 1.400 . S
C1000 H985 0.960 . S
C1000 H986 0.960 . S
C1000 H987 0.960 . S
C1000 C999 1.524 . S
C1001 C998 1.403 . S
C1001 C1002 1.392 . S
C1001 C1005 1.495 . S
C1002 C1001 1.392 . S
C1002 C1003 1.385 . S
C1002 C1004 1.478 . S
C1003 H997 0.930 . S
C1003 C999 1.400 . S
C1003 C1002 1.385 . S
C1004 C1002 1.478 . S
C1004 C1006 1.381 . S
C1004 C1010 1.383 . S
C1005 C1001 1.495 . S
C1005 H1011 0.959 . S
C1005 H1012 0.961 . S
C1005 H1013 0.960 . S
C1006 C1004 1.381 . S
C1006 C1007 1.394 . S
C1006 H1014 0.930 . S
C1007 C1006 1.394 . S
C1007 C1008 1.383 . S
C1007 H1015 0.929 . S
C1008 C1007 1.383 . S
C1008 C1009 1.377 . S
C1009 H993 0.930 . S
C1009 C1008 1.377 . S
C1009 C1010 1.379 . S
C1010 H994 0.931 . S
C1010 C1004 1.383 . S
C1010 C1009 1.379 . S
H1011 C1005 0.959 . S
H1012 C1005 0.961 . S
H1013 C1005 0.960 . S
H1014 C1006 0.930 . S
H1015 C1007 0.929 . S
H1016 C1024 0.929 . S
H1017 C1026 0.930 . S
H1018 C1028 0.930 . S
H1019 C1031 0.929 . S
H1020 C1034 0.930 . S
H1021 C1036 0.960 . S
H1022 C1036 0.960 . S
H1023 C1036 0.960 . S
C1024 H1016 0.929 . S
C1024 C1025 1.377 . S
C1024 C1026 1.384 . S
C1025 C1024 1.377 . S
C1025 C1031 1.390 . S
C1026 H1017 0.930 . S
C1026 C1024 1.384 . S
C1026 C1027 1.372 . S
C1027 C1026 1.372 . S
C1027 C1028 1.400 . S
C1027 C1032 1.490 . S
C1028 H1018 0.930 . S
C1028 C1027 1.400 . S
C1028 C1031 1.386 . S
H1029 C1045 0.930 . S
H1030 C1046 0.931 . S
C1031 H1019 0.929 . S
C1031 C1025 1.390 . S
C1031 C1028 1.386 . S
C1032 C1027 1.490 . S
C1032 C1034 1.395 . S
C1032 C1035 1.403 . S
H1033 C1039 0.930 . S
C1034 H1020 0.930 . S
C1034 C1032 1.395 . S
C1034 C1037 1.403 . S
C1035 C1032 1.403 . S
C1035 C1036 1.524 . S
C1035 C1039 1.400 . S
C1036 H1021 0.960 . S
C1036 H1022 0.960 . S
C1036 H1023 0.960 . S
C1036 C1035 1.524 . S
C1037 C1034 1.403 . S
C1037 C1038 1.392 . S
C1037 C1041 1.495 . S
C1038 C1037 1.392 . S
C1038 C1039 1.385 . S
C1038 C1040 1.478 . S
C1039 H1033 0.930 . S
C1039 C1035 1.400 . S
C1039 C1038 1.385 . S
C1040 C1038 1.478 . S
C1040 C1042 1.381 . S
C1040 C1046 1.383 . S
C1041 C1037 1.495 . S
C1041 H1047 0.959 . S
C1041 H1048 0.961 . S
C1041 H1049 0.960 . S
C1042 C1040 1.381 . S
C1042 C1043 1.394 . S
C1042 H1050 0.930 . S
C1043 C1042 1.394 . S
C1043 C1044 1.383 . S
C1043 H1051 0.929 . S
C1044 C1043 1.383 . S
C1044 C1045 1.377 . S
C1045 H1029 0.930 . S
C1045 C1044 1.377 . S
C1045 C1046 1.379 . S
C1046 H1030 0.931 . S
C1046 C1040 1.383 . S
C1046 C1045 1.379 . S
H1047 C1041 0.959 . S
H1048 C1041 0.961 . S
H1049 C1041 0.960 . S
H1050 C1042 0.930 . S
H1051 C1043 0.929 . S
H1052 C1060 0.929 . S
H1053 C1062 0.930 . S
H1054 C1064 0.930 . S
H1055 C1067 0.929 . S
H1056 C1070 0.930 . S
H1057 C1072 0.960 . S
H1058 C1072 0.960 . S
H1059 C1072 0.960 . S
C1060 H1052 0.929 . S
C1060 C1061 1.377 . S
C1060 C1062 1.384 . S
C1061 C1060 1.377 . S
C1061 C1067 1.390 . S
C1062 H1053 0.930 . S
C1062 C1060 1.384 . S
C1062 C1063 1.372 . S
C1063 C1062 1.372 . S
C1063 C1064 1.400 . S
C1063 C1068 1.490 . S
C1064 H1054 0.930 . S
C1064 C1063 1.400 . S
C1064 C1067 1.386 . S
H1065 C1081 0.930 . S
H1066 C1082 0.931 . S
C1067 H1055 0.929 . S
C1067 C1061 1.390 . S
C1067 C1064 1.386 . S
C1068 C1063 1.490 . S
C1068 C1070 1.395 . S
C1068 C1071 1.403 . S
H1069 C1075 0.930 . S
C1070 H1056 0.930 . S
C1070 C1068 1.395 . S
C1070 C1073 1.403 . S
C1071 C1068 1.403 . S
C1071 C1072 1.524 . S
C1071 C1075 1.400 . S
C1072 H1057 0.960 . S
C1072 H1058 0.960 . S
C1072 H1059 0.960 . S
C1072 C1071 1.524 . S
C1073 C1070 1.403 . S
C1073 C1074 1.392 . S
C1073 C1077 1.495 . S
C1074 C1073 1.392 . S
C1074 C1075 1.385 . S
C1074 C1076 1.478 . S
C1075 H1069 0.930 . S
C1075 C1071 1.400 . S
C1075 C1074 1.385 . S
C1076 C1074 1.478 . S
C1076 C1078 1.381 . S
C1076 C1082 1.383 . S
C1077 C1073 1.495 . S
C1077 H1083 0.959 . S
C1077 H1084 0.961 . S
C1077 H1085 0.960 . S
C1078 C1076 1.381 . S
C1078 C1079 1.394 . S
C1078 H1086 0.930 . S
C1079 C1078 1.394 . S
C1079 C1080 1.383 . S
C1079 H1087 0.929 . S
C1080 C1079 1.383 . S
C1080 C1081 1.377 . S
C1081 H1065 0.930 . S
C1081 C1080 1.377 . S
C1081 C1082 1.379 . S
C1082 H1066 0.931 . S
C1082 C1076 1.383 . S
C1082 C1081 1.379 . S
H1083 C1077 0.959 . S
H1084 C1077 0.961 . S
H1085 C1077 0.960 . S
H1086 C1078 0.930 . S
H1087 C1079 0.929 . S
H1088 C1096 0.929 . S
H1089 C1098 0.930 . S
H1090 C1100 0.930 . S
H1091 C1103 0.929 . S
H1092 C1106 0.930 . S
H1093 C1108 0.960 . S
H1094 C1108 0.960 . S
H1095 C1108 0.960 . S
C1096 H1088 0.929 . S
C1096 C1097 1.377 . S
C1096 C1098 1.384 . S
C1097 C1096 1.377 . S
C1097 C1103 1.390 . S
C1098 H1089 0.930 . S
C1098 C1096 1.384 . S
C1098 C1099 1.372 . S
C1099 C1098 1.372 . S
C1099 C1100 1.400 . S
C1099 C1104 1.490 . S
C1100 H1090 0.930 . S
C1100 C1099 1.400 . S
C1100 C1103 1.386 . S
H1101 C1117 0.930 . S
H1102 C1118 0.931 . S
C1103 H1091 0.929 . S
C1103 C1097 1.390 . S
C1103 C1100 1.386 . S
C1104 C1099 1.490 . S
C1104 C1106 1.395 . S
C1104 C1107 1.403 . S
H1105 C1111 0.930 . S
C1106 H1092 0.930 . S
C1106 C1104 1.395 . S
C1106 C1109 1.403 . S
C1107 C1104 1.403 . S
C1107 C1108 1.524 . S
C1107 C1111 1.400 . S
C1108 H1093 0.960 . S
C1108 H1094 0.960 . S
C1108 H1095 0.960 . S
C1108 C1107 1.524 . S
C1109 C1106 1.403 . S
C1109 C1110 1.392 . S
C1109 C1113 1.495 . S
C1110 C1109 1.392 . S
C1110 C1111 1.385 . S
C1110 C1112 1.478 . S
C1111 H1105 0.930 . S
C1111 C1107 1.400 . S
C1111 C1110 1.385 . S
C1112 C1110 1.478 . S
C1112 C1114 1.381 . S
C1112 C1118 1.383 . S
C1113 C1109 1.495 . S
C1113 H1119 0.959 . S
C1113 H1120 0.961 . S
C1113 H1121 0.960 . S
C1114 C1112 1.381 . S
C1114 C1115 1.394 . S
C1114 H1122 0.930 . S
C1115 C1114 1.394 . S
C1115 C1116 1.383 . S
C1115 H1123 0.929 . S
C1116 C1115 1.383 . S
C1116 C1117 1.377 . S
C1117 H1101 0.930 . S
C1117 C1116 1.377 . S
C1117 C1118 1.379 . S
C1118 H1102 0.931 . S
C1118 C1112 1.383 . S
C1118 C1117 1.379 . S
H1119 C1113 0.959 . S
H1120 C1113 0.961 . S
H1121 C1113 0.960 . S
H1122 C1114 0.930 . S
H1123 C1115 0.929 . S
H1124 C1132 0.929 . S
H1125 C1134 0.930 . S
H1126 C1136 0.930 . S
H1127 C1139 0.929 . S
H1128 C1142 0.930 . S
H1129 C1144 0.960 . S
H1130 C1144 0.960 . S
H1131 C1144 0.960 . S
C1132 H1124 0.929 . S
C1132 C1133 1.377 . S
C1132 C1134 1.384 . S
C1133 C1132 1.377 . S
C1133 C1139 1.390 . S
C1134 H1125 0.930 . S
C1134 C1132 1.384 . S
C1134 C1135 1.372 . S
C1135 C1134 1.372 . S
C1135 C1136 1.400 . S
C1135 C1140 1.490 . S
C1136 H1126 0.930 . S
C1136 C1135 1.400 . S
C1136 C1139 1.386 . S
H1137 C1153 0.930 . S
H1138 C1154 0.931 . S
C1139 H1127 0.929 . S
C1139 C1133 1.390 . S
C1139 C1136 1.386 . S
C1140 C1135 1.490 . S
C1140 C1142 1.395 . S
C1140 C1143 1.403 . S
H1141 C1147 0.930 . S
C1142 H1128 0.930 . S
C1142 C1140 1.395 . S
C1142 C1145 1.403 . S
C1143 C1140 1.403 . S
C1143 C1144 1.524 . S
C1143 C1147 1.400 . S
C1144 H1129 0.960 . S
C1144 H1130 0.960 . S
C1144 H1131 0.960 . S
C1144 C1143 1.524 . S
C1145 C1142 1.403 . S
C1145 C1146 1.392 . S
C1145 C1149 1.495 . S
C1146 C1145 1.392 . S
C1146 C1147 1.385 . S
C1146 C1148 1.478 . S
C1147 H1141 0.930 . S
C1147 C1143 1.400 . S
C1147 C1146 1.385 . S
C1148 C1146 1.478 . S
C1148 C1150 1.381 . S
C1148 C1154 1.383 . S
C1149 C1145 1.495 . S
C1149 H1155 0.959 . S
C1149 H1156 0.961 . S
C1149 H1157 0.960 . S
C1150 C1148 1.381 . S
C1150 C1151 1.394 . S
C1150 H1158 0.930 . S
C1151 C1150 1.394 . S
C1151 C1152 1.383 . S
C1151 H1159 0.929 . S
C1152 C1151 1.383 . S
C1152 C1153 1.377 . S
C1153 H1137 0.930 . S
C1153 C1152 1.377 . S
C1153 C1154 1.379 . S
C1154 H1138 0.931 . S
C1154 C1148 1.383 . S
C1154 C1153 1.379 . S
H1155 C1149 0.959 . S
H1156 C1149 0.961 . S
H1157 C1149 0.960 . S
H1158 C1150 0.930 . S
H1159 C1151 0.929 . S
H1160 C1168 0.929 . S
H1161 C1170 0.930 . S
H1162 C1172 0.930 . S
H1163 C1175 0.929 . S
H1164 C1178 0.930 . S
H1165 C1180 0.960 . S
H1166 C1180 0.960 . S
H1167 C1180 0.960 . S
C1168 H1160 0.929 . S
C1168 C1169 1.377 . S
C1168 C1170 1.384 . S
C1169 C1168 1.377 . S
C1169 C1175 1.390 . S
C1170 H1161 0.930 . S
C1170 C1168 1.384 . S
C1170 C1171 1.372 . S
C1171 C1170 1.372 . S
C1171 C1172 1.400 . S
C1171 C1176 1.490 . S
C1172 H1162 0.930 . S
C1172 C1171 1.400 . S
C1172 C1175 1.386 . S
H1173 C1189 0.930 . S
H1174 C1190 0.931 . S
C1175 H1163 0.929 . S
C1175 C1169 1.390 . S
C1175 C1172 1.386 . S
C1176 C1171 1.490 . S
C1176 C1178 1.395 . S
C1176 C1179 1.403 . S
H1177 C1183 0.930 . S
C1178 H1164 0.930 . S
C1178 C1176 1.395 . S
C1178 C1181 1.403 . S
C1179 C1176 1.403 . S
C1179 C1180 1.524 . S
C1179 C1183 1.400 . S
C1180 H1165 0.960 . S
C1180 H1166 0.960 . S
C1180 H1167 0.960 . S
C1180 C1179 1.524 . S
C1181 C1178 1.403 . S
C1181 C1182 1.392 . S
C1181 C1185 1.495 . S
C1182 C1181 1.392 . S
C1182 C1183 1.385 . S
C1182 C1184 1.478 . S
C1183 H1177 0.930 . S
C1183 C1179 1.400 . S
C1183 C1182 1.385 . S
C1184 C1182 1.478 . S
C1184 C1186 1.381 . S
C1184 C1190 1.383 . S
C1185 C1181 1.495 . S
C1185 H1191 0.959 . S
C1185 H1192 0.961 . S
C1185 H1193 0.960 . S
C1186 C1184 1.381 . S
C1186 C1187 1.394 . S
C1186 H1194 0.930 . S
C1187 C1186 1.394 . S
C1187 C1188 1.383 . S
C1187 H1195 0.929 . S
C1188 C1187 1.383 . S
C1188 C1189 1.377 . S
C1189 H1173 0.930 . S
C1189 C1188 1.377 . S
C1189 C1190 1.379 . S
C1190 H1174 0.931 . S
C1190 C1184 1.383 . S
C1190 C1189 1.379 . S
H1191 C1185 0.959 . S
H1192 C1185 0.961 . S
H1193 C1185 0.960 . S
H1194 C1186 0.930 . S
H1195 C1187 0.929 . S
H1196 C1204 0.929 . S
H1197 C1206 0.930 . S
H1198 C1208 0.930 . S
H1199 C1211 0.929 . S
H1200 C1214 0.930 . S
H1201 C1216 0.960 . S
H1202 C1216 0.960 . S
H1203 C1216 0.960 . S
C1204 H1196 0.929 . S
C1204 C1205 1.377 . S
C1204 C1206 1.384 . S
C1205 C1204 1.377 . S
C1205 C1211 1.390 . S
C1206 H1197 0.930 . S
C1206 C1204 1.384 . S
C1206 C1207 1.372 . S
C1207 C1206 1.372 . S
C1207 C1208 1.400 . S
C1207 C1212 1.490 . S
C1208 H1198 0.930 . S
C1208 C1207 1.400 . S
C1208 C1211 1.386 . S
H1209 C1225 0.930 . S
H1210 C1226 0.931 . S
C1211 H1199 0.929 . S
C1211 C1205 1.390 . S
C1211 C1208 1.386 . S
C1212 C1207 1.490 . S
C1212 C1214 1.395 . S
C1212 C1215 1.403 . S
H1213 C1219 0.930 . S
C1214 H1200 0.930 . S
C1214 C1212 1.395 . S
C1214 C1217 1.403 . S
C1215 C1212 1.403 . S
C1215 C1216 1.524 . S
C1215 C1219 1.400 . S
C1216 H1201 0.960 . S
C1216 H1202 0.960 . S
C1216 H1203 0.960 . S
C1216 C1215 1.524 . S
C1217 C1214 1.403 . S
C1217 C1218 1.392 . S
C1217 C1221 1.495 . S
C1218 C1217 1.392 . S
C1218 C1219 1.385 . S
C1218 C1220 1.478 . S
C1219 H1213 0.930 . S
C1219 C1215 1.400 . S
C1219 C1218 1.385 . S
C1220 C1218 1.478 . S
C1220 C1222 1.381 . S
C1220 C1226 1.383 . S
C1221 C1217 1.495 . S
C1221 H1227 0.959 . S
C1221 H1228 0.961 . S
C1221 H1229 0.960 . S
C1222 C1220 1.381 . S
C1222 C1223 1.394 . S
C1222 H1230 0.930 . S
C1223 C1222 1.394 . S
C1223 C1224 1.383 . S
C1223 H1231 0.929 . S
C1224 C1223 1.383 . S
C1224 C1225 1.377 . S
C1225 H1209 0.930 . S
C1225 C1224 1.377 . S
C1225 C1226 1.379 . S
C1226 H1210 0.931 . S
C1226 C1220 1.383 . S
C1226 C1225 1.379 . S
H1227 C1221 0.959 . S
H1228 C1221 0.961 . S
H1229 C1221 0.960 . S
H1230 C1222 0.930 . S
H1231 C1223 0.929 . S
H1232 C1240 0.929 . S
H1233 C1242 0.930 . S
H1234 C1244 0.930 . S
H1235 C1247 0.929 . S
H1236 C1250 0.930 . S
H1237 C1252 0.960 . S
H1238 C1252 0.960 . S
H1239 C1252 0.960 . S
C1240 H1232 0.929 . S
C1240 C1241 1.377 . S
C1240 C1242 1.384 . S
C1241 C1240 1.377 . S
C1241 C1247 1.390 . S
C1242 H1233 0.930 . S
C1242 C1240 1.384 . S
C1242 C1243 1.372 . S
C1243 C1242 1.372 . S
C1243 C1244 1.400 . S
C1243 C1248 1.490 . S
C1244 H1234 0.930 . S
C1244 C1243 1.400 . S
C1244 C1247 1.386 . S
H1245 C1261 0.930 . S
H1246 C1262 0.931 . S
C1247 H1235 0.929 . S
C1247 C1241 1.390 . S
C1247 C1244 1.386 . S
C1248 C1243 1.490 . S
C1248 C1250 1.395 . S
C1248 C1251 1.403 . S
H1249 C1255 0.930 . S
C1250 H1236 0.930 . S
C1250 C1248 1.395 . S
C1250 C1253 1.403 . S
C1251 C1248 1.403 . S
C1251 C1252 1.524 . S
C1251 C1255 1.400 . S
C1252 H1237 0.960 . S
C1252 H1238 0.960 . S
C1252 H1239 0.960 . S
C1252 C1251 1.524 . S
C1253 C1250 1.403 . S
C1253 C1254 1.392 . S
C1253 C1257 1.495 . S
C1254 C1253 1.392 . S
C1254 C1255 1.385 . S
C1254 C1256 1.478 . S
C1255 H1249 0.930 . S
C1255 C1251 1.400 . S
C1255 C1254 1.385 . S
C1256 C1254 1.478 . S
C1256 C1258 1.381 . S
C1256 C1262 1.383 . S
C1257 C1253 1.495 . S
C1257 H1263 0.959 . S
C1257 H1264 0.961 . S
C1257 H1265 0.960 . S
C1258 C1256 1.381 . S
C1258 C1259 1.394 . S
C1258 H1266 0.930 . S
C1259 C1258 1.394 . S
C1259 C1260 1.383 . S
C1259 H1267 0.929 . S
C1260 C1259 1.383 . S
C1260 C1261 1.377 . S
C1261 H1245 0.930 . S
C1261 C1260 1.377 . S
C1261 C1262 1.379 . S
C1262 H1246 0.931 . S
C1262 C1256 1.383 . S
C1262 C1261 1.379 . S
H1263 C1257 0.959 . S
H1264 C1257 0.961 . S
H1265 C1257 0.960 . S
H1266 C1258 0.930 . S
H1267 C1259 0.929 . S
H1268 C1276 0.929 . S
H1269 C1278 0.930 . S
H1270 C1280 0.930 . S
H1271 C1283 0.929 . S
H1272 C1286 0.930 . S
H1273 C1288 0.960 . S
H1274 C1288 0.960 . S
H1275 C1288 0.960 . S
C1276 H1268 0.929 . S
C1276 C1277 1.377 . S
C1276 C1278 1.384 . S
C1277 C1276 1.377 . S
C1277 C1283 1.390 . S
C1278 H1269 0.930 . S
C1278 C1276 1.384 . S
C1278 C1279 1.372 . S
C1279 C1278 1.372 . S
C1279 C1280 1.400 . S
C1279 C1284 1.490 . S
C1280 H1270 0.930 . S
C1280 C1279 1.400 . S
C1280 C1283 1.386 . S
H1281 C1297 0.930 . S
H1282 C1298 0.931 . S
C1283 H1271 0.929 . S
C1283 C1277 1.390 . S
C1283 C1280 1.386 . S
C1284 C1279 1.490 . S
C1284 C1286 1.395 . S
C1284 C1287 1.403 . S
H1285 C1291 0.930 . S
C1286 H1272 0.930 . S
C1286 C1284 1.395 . S
C1286 C1289 1.403 . S
C1287 C1284 1.403 . S
C1287 C1288 1.524 . S
C1287 C1291 1.400 . S
C1288 H1273 0.960 . S
C1288 H1274 0.960 . S
C1288 H1275 0.960 . S
C1288 C1287 1.524 . S
C1289 C1286 1.403 . S
C1289 C1290 1.392 . S
C1289 C1293 1.495 . S
C1290 C1289 1.392 . S
C1290 C1291 1.385 . S
C1290 C1292 1.478 . S
C1291 H1285 0.930 . S
C1291 C1287 1.400 . S
C1291 C1290 1.385 . S
C1292 C1290 1.478 . S
C1292 C1294 1.381 . S
C1292 C1298 1.383 . S
C1293 C1289 1.495 . S
C1293 H1299 0.959 . S
C1293 H1300 0.961 . S
C1293 H1301 0.960 . S
C1294 C1292 1.381 . S
C1294 C1295 1.394 . S
C1294 H1302 0.930 . S
C1295 C1294 1.394 . S
C1295 C1296 1.383 . S
C1295 H1303 0.929 . S
C1296 C1295 1.383 . S
C1296 C1297 1.377 . S
C1297 H1281 0.930 . S
C1297 C1296 1.377 . S
C1297 C1298 1.379 . S
C1298 H1282 0.931 . S
C1298 C1292 1.383 . S
C1298 C1297 1.379 . S
H1299 C1293 0.959 . S
H1300 C1293 0.961 . S
H1301 C1293 0.960 . S
H1302 C1294 0.930 . S
H1303 C1295 0.929 . S
H1304 C1312 0.929 . S
H1305 C1314 0.930 . S
H1306 C1316 0.930 . S
H1307 C1319 0.929 . S
H1308 C1322 0.930 . S
H1309 C1324 0.960 . S
H1310 C1324 0.960 . S
H1311 C1324 0.960 . S
C1312 H1304 0.929 . S
C1312 C1313 1.377 . S
C1312 C1314 1.384 . S
C1313 C1312 1.377 . S
C1313 C1319 1.390 . S
C1314 H1305 0.930 . S
C1314 C1312 1.384 . S
C1314 C1315 1.372 . S
C1315 C1314 1.372 . S
C1315 C1316 1.400 . S
C1315 C1320 1.490 . S
C1316 H1306 0.930 . S
C1316 C1315 1.400 . S
C1316 C1319 1.386 . S
H1317 C1333 0.930 . S
H1318 C1334 0.931 . S
C1319 H1307 0.929 . S
C1319 C1313 1.390 . S
C1319 C1316 1.386 . S
C1320 C1315 1.490 . S
C1320 C1322 1.395 . S
C1320 C1323 1.403 . S
H1321 C1327 0.930 . S
C1322 H1308 0.930 . S
C1322 C1320 1.395 . S
C1322 C1325 1.403 . S
C1323 C1320 1.403 . S
C1323 C1324 1.524 . S
C1323 C1327 1.400 . S
C1324 H1309 0.960 . S
C1324 H1310 0.960 . S
C1324 H1311 0.960 . S
C1324 C1323 1.524 . S
C1325 C1322 1.403 . S
C1325 C1326 1.392 . S
C1325 C1329 1.495 . S
C1326 C1325 1.392 . S
C1326 C1327 1.385 . S
C1326 C1328 1.478 . S
C1327 H1321 0.930 . S
C1327 C1323 1.400 . S
C1327 C1326 1.385 . S
C1328 C1326 1.478 . S
C1328 C1330 1.381 . S
C1328 C1334 1.383 . S
C1329 C1325 1.495 . S
C1329 H1335 0.959 . S
C1329 H1336 0.961 . S
C1329 H1337 0.960 . S
C1330 C1328 1.381 . S
C1330 C1331 1.394 . S
C1330 H1338 0.930 . S
C1331 C1330 1.394 . S
C1331 C1332 1.383 . S
C1331 H1339 0.929 . S
C1332 C1331 1.383 . S
C1332 C1333 1.377 . S
C1333 H1317 0.930 . S
C1333 C1332 1.377 . S
C1333 C1334 1.379 . S
C1334 H1318 0.931 . S
C1334 C1328 1.383 . S
C1334 C1333 1.379 . S
H1335 C1329 0.959 . S
H1336 C1329 0.961 . S
H1337 C1329 0.960 . S
H1338 C1330 0.930 . S
H1339 C1331 0.929 . S
H1340 C1348 0.929 . S
H1341 C1350 0.930 . S
H1342 C1352 0.930 . S
H1343 C1355 0.929 . S
H1344 C1358 0.930 . S
H1345 C1360 0.960 . S
H1346 C1360 0.960 . S
H1347 C1360 0.960 . S
C1348 H1340 0.929 . S
C1348 C1349 1.377 . S
C1348 C1350 1.384 . S
C1349 C1348 1.377 . S
C1349 C1355 1.390 . S
C1350 H1341 0.930 . S
C1350 C1348 1.384 . S
C1350 C1351 1.372 . S
C1351 C1350 1.372 . S
C1351 C1352 1.400 . S
C1351 C1356 1.490 . S
C1352 H1342 0.930 . S
C1352 C1351 1.400 . S
C1352 C1355 1.386 . S
H1353 C1369 0.930 . S
H1354 C1370 0.931 . S
C1355 H1343 0.929 . S
C1355 C1349 1.390 . S
C1355 C1352 1.386 . S
C1356 C1351 1.490 . S
C1356 C1358 1.395 . S
C1356 C1359 1.403 . S
H1357 C1363 0.930 . S
C1358 H1344 0.930 . S
C1358 C1356 1.395 . S
C1358 C1361 1.403 . S
C1359 C1356 1.403 . S
C1359 C1360 1.524 . S
C1359 C1363 1.400 . S
C1360 H1345 0.960 . S
C1360 H1346 0.960 . S
C1360 H1347 0.960 . S
C1360 C1359 1.524 . S
C1361 C1358 1.403 . S
C1361 C1362 1.392 . S
C1361 C1365 1.495 . S
C1362 C1361 1.392 . S
C1362 C1363 1.385 . S
C1362 C1364 1.478 . S
C1363 H1357 0.930 . S
C1363 C1359 1.400 . S
C1363 C1362 1.385 . S
C1364 C1362 1.478 . S
C1364 C1366 1.381 . S
C1364 C1370 1.383 . S
C1365 C1361 1.495 . S
C1365 H1371 0.959 . S
C1365 H1372 0.961 . S
C1365 H1373 0.960 . S
C1366 C1364 1.381 . S
C1366 C1367 1.394 . S
C1366 H1374 0.930 . S
C1367 C1366 1.394 . S
C1367 C1368 1.383 . S
C1367 H1375 0.929 . S
C1368 C1367 1.383 . S
C1368 C1369 1.377 . S
C1369 H1353 0.930 . S
C1369 C1368 1.377 . S
C1369 C1370 1.379 . S
C1370 H1354 0.931 . S
C1370 C1364 1.383 . S
C1370 C1369 1.379 . S
H1371 C1365 0.959 . S
H1372 C1365 0.961 . S
H1373 C1365 0.960 . S
H1374 C1366 0.930 . S
H1375 C1367 0.929 . S
H1376 C1384 0.929 . S
H1377 C1386 0.930 . S
H1378 C1388 0.930 . S
H1379 C1391 0.929 . S
H1380 C1394 0.930 . S
H1381 C1396 0.960 . S
H1382 C1396 0.960 . S
H1383 C1396 0.960 . S
C1384 H1376 0.929 . S
C1384 C1385 1.377 . S
C1384 C1386 1.384 . S
C1385 C1384 1.377 . S
C1385 C1391 1.390 . S
C1386 H1377 0.930 . S
C1386 C1384 1.384 . S
C1386 C1387 1.372 . S
C1387 C1386 1.372 . S
C1387 C1388 1.400 . S
C1387 C1392 1.490 . S
C1388 H1378 0.930 . S
C1388 C1387 1.400 . S
C1388 C1391 1.386 . S
H1389 C1405 0.930 . S
H1390 C1406 0.931 . S
C1391 H1379 0.929 . S
C1391 C1385 1.390 . S
C1391 C1388 1.386 . S
C1392 C1387 1.490 . S
C1392 C1394 1.395 . S
C1392 C1395 1.403 . S
H1393 C1399 0.930 . S
C1394 H1380 0.930 . S
C1394 C1392 1.395 . S
C1394 C1397 1.403 . S
C1395 C1392 1.403 . S
C1395 C1396 1.524 . S
C1395 C1399 1.400 . S
C1396 H1381 0.960 . S
C1396 H1382 0.960 . S
C1396 H1383 0.960 . S
C1396 C1395 1.524 . S
C1397 C1394 1.403 . S
C1397 C1398 1.392 . S
C1397 C1401 1.495 . S
C1398 C1397 1.392 . S
C1398 C1399 1.385 . S
C1398 C1400 1.478 . S
C1399 H1393 0.930 . S
C1399 C1395 1.400 . S
C1399 C1398 1.385 . S
C1400 C1398 1.478 . S
C1400 C1402 1.381 . S
C1400 C1406 1.383 . S
C1401 C1397 1.495 . S
C1401 H1407 0.959 . S
C1401 H1408 0.961 . S
C1401 H1409 0.960 . S
C1402 C1400 1.381 . S
C1402 C1403 1.394 . S
C1402 H1410 0.930 . S
C1403 C1402 1.394 . S
C1403 C1404 1.383 . S
C1403 H1411 0.929 . S
C1404 C1403 1.383 . S
C1404 C1405 1.377 . S
C1405 H1389 0.930 . S
C1405 C1404 1.377 . S
C1405 C1406 1.379 . S
C1406 H1390 0.931 . S
C1406 C1400 1.383 . S
C1406 C1405 1.379 . S
H1407 C1401 0.959 . S
H1408 C1401 0.961 . S
H1409 C1401 0.960 . S
H1410 C1402 0.930 . S
H1411 C1403 0.929 . S
H1412 C1420 0.929 . S
H1413 C1422 0.930 . S
H1414 C1424 0.930 . S
H1415 C1427 0.929 . S
H1416 C1430 0.930 . S
H1417 C1432 0.960 . S
H1418 C1432 0.960 . S
H1419 C1432 0.960 . S
C1420 H1412 0.929 . S
C1420 C1421 1.377 . S
C1420 C1422 1.384 . S
C1421 C1420 1.377 . S
C1421 C1427 1.390 . S
C1422 H1413 0.930 . S
C1422 C1420 1.384 . S
C1422 C1423 1.372 . S
C1423 C1422 1.372 . S
C1423 C1424 1.400 . S
C1423 C1428 1.490 . S
C1424 H1414 0.930 . S
C1424 C1423 1.400 . S
C1424 C1427 1.386 . S
H1425 C1441 0.930 . S
H1426 C1442 0.931 . S
C1427 H1415 0.929 . S
C1427 C1421 1.390 . S
C1427 C1424 1.386 . S
C1428 C1423 1.490 . S
C1428 C1430 1.395 . S
C1428 C1431 1.403 . S
H1429 C1435 0.930 . S
C1430 H1416 0.930 . S
C1430 C1428 1.395 . S
C1430 C1433 1.403 . S
C1431 C1428 1.403 . S
C1431 C1432 1.524 . S
C1431 C1435 1.400 . S
C1432 H1417 0.960 . S
C1432 H1418 0.960 . S
C1432 H1419 0.960 . S
C1432 C1431 1.524 . S
C1433 C1430 1.403 . S
C1433 C1434 1.392 . S
C1433 C1437 1.495 . S
C1434 C1433 1.392 . S
C1434 C1435 1.385 . S
C1434 C1436 1.478 . S
C1435 H1429 0.930 . S
C1435 C1431 1.400 . S
C1435 C1434 1.385 . S
C1436 C1434 1.478 . S
C1436 C1438 1.381 . S
C1436 C1442 1.383 . S
C1437 C1433 1.495 . S
C1437 H1443 0.959 . S
C1437 H1444 0.961 . S
C1437 H1445 0.960 . S
C1438 C1436 1.381 . S
C1438 C1439 1.394 . S
C1438 H1446 0.930 . S
C1439 C1438 1.394 . S
C1439 C1440 1.383 . S
C1439 H1447 0.929 . S
C1440 C1439 1.383 . S
C1440 C1441 1.377 . S
C1441 H1425 0.930 . S
C1441 C1440 1.377 . S
C1441 C1442 1.379 . S
C1442 H1426 0.931 . S
C1442 C1436 1.383 . S
C1442 C1441 1.379 . S
H1443 C1437 0.959 . S
H1444 C1437 0.961 . S
H1445 C1437 0.960 . S
H1446 C1438 0.930 . S
H1447 C1439 0.929 . S
H1448 C1456 0.929 . S
H1449 C1458 0.930 . S
H1450 C1460 0.930 . S
H1451 C1463 0.929 . S
H1452 C1466 0.930 . S
H1453 C1468 0.960 . S
H1454 C1468 0.960 . S
H1455 C1468 0.960 . S
C1456 H1448 0.929 . S
C1456 C1457 1.377 . S
C1456 C1458 1.384 . S
C1457 C1456 1.377 . S
C1457 C1463 1.390 . S
C1458 H1449 0.930 . S
C1458 C1456 1.384 . S
C1458 C1459 1.372 . S
C1459 C1458 1.372 . S
C1459 C1460 1.400 . S
C1459 C1464 1.490 . S
C1460 H1450 0.930 . S
C1460 C1459 1.400 . S
C1460 C1463 1.386 . S
H1461 C1477 0.930 . S
H1462 C1478 0.931 . S
C1463 H1451 0.929 . S
C1463 C1457 1.390 . S
C1463 C1460 1.386 . S
C1464 C1459 1.490 . S
C1464 C1466 1.395 . S
C1464 C1467 1.403 . S
H1465 C1471 0.930 . S
C1466 H1452 0.930 . S
C1466 C1464 1.395 . S
C1466 C1469 1.403 . S
C1467 C1464 1.403 . S
C1467 C1468 1.524 . S
C1467 C1471 1.400 . S
C1468 H1453 0.960 . S
C1468 H1454 0.960 . S
C1468 H1455 0.960 . S
C1468 C1467 1.524 . S
C1469 C1466 1.403 . S
C1469 C1470 1.392 . S
C1469 C1473 1.495 . S
C1470 C1469 1.392 . S
C1470 C1471 1.385 . S
C1470 C1472 1.478 . S
C1471 H1465 0.930 . S
C1471 C1467 1.400 . S
C1471 C1470 1.385 . S
C1472 C1470 1.478 . S
C1472 C1474 1.381 . S
C1472 C1478 1.383 . S
C1473 C1469 1.495 . S
C1473 H1479 0.959 . S
C1473 H1480 0.961 . S
C1473 H1481 0.960 . S
C1474 C1472 1.381 . S
C1474 C1475 1.394 . S
C1474 H1482 0.930 . S
C1475 C1474 1.394 . S
C1475 C1476 1.383 . S
C1475 H1483 0.929 . S
C1476 C1475 1.383 . S
C1476 C1477 1.377 . S
C1477 H1461 0.930 . S
C1477 C1476 1.377 . S
C1477 C1478 1.379 . S
C1478 H1462 0.931 . S
C1478 C1472 1.383 . S
C1478 C1477 1.379 . S
H1479 C1473 0.959 . S
H1480 C1473 0.961 . S
H1481 C1473 0.960 . S
H1482 C1474 0.930 . S
H1483 C1475 0.929 . S
H1484 C1492 0.929 . S
H1485 C1494 0.930 . S
H1486 C1496 0.930 . S
H1487 C1499 0.929 . S
H1488 C1502 0.930 . S
H1489 C1504 0.960 . S
H1490 C1504 0.960 . S
H1491 C1504 0.960 . S
C1492 H1484 0.929 . S
C1492 C1493 1.377 . S
C1492 C1494 1.384 . S
C1493 C1492 1.377 . S
C1493 C1499 1.390 . S
C1494 H1485 0.930 . S
C1494 C1492 1.384 . S
C1494 C1495 1.372 . S
C1495 C1494 1.372 . S
C1495 C1496 1.400 . S
C1495 C1500 1.490 . S
C1496 H1486 0.930 . S
C1496 C1495 1.400 . S
C1496 C1499 1.386 . S
H1497 C1513 0.930 . S
H1498 C1514 0.931 . S
C1499 H1487 0.929 . S
C1499 C1493 1.390 . S
C1499 C1496 1.386 . S
C1500 C1495 1.490 . S
C1500 C1502 1.395 . S
C1500 C1503 1.403 . S
H1501 C1507 0.930 . S
C1502 H1488 0.930 . S
C1502 C1500 1.395 . S
C1502 C1505 1.403 . S
C1503 C1500 1.403 . S
C1503 C1504 1.524 . S
C1503 C1507 1.400 . S
C1504 H1489 0.960 . S
C1504 H1490 0.960 . S
C1504 H1491 0.960 . S
C1504 C1503 1.524 . S
C1505 C1502 1.403 . S
C1505 C1506 1.392 . S
C1505 C1509 1.495 . S
C1506 C1505 1.392 . S
C1506 C1507 1.385 . S
C1506 C1508 1.478 . S
C1507 H1501 0.930 . S
C1507 C1503 1.400 . S
C1507 C1506 1.385 . S
C1508 C1506 1.478 . S
C1508 C1510 1.381 . S
C1508 C1514 1.383 . S
C1509 C1505 1.495 . S
C1509 H1515 0.959 . S
C1509 H1516 0.961 . S
C1509 H1517 0.960 . S
C1510 C1508 1.381 . S
C1510 C1511 1.394 . S
C1510 H1518 0.930 . S
C1511 C1510 1.394 . S
C1511 C1512 1.383 . S
C1511 H1519 0.929 . S
C1512 C1511 1.383 . S
C1512 C1513 1.377 . S
C1513 H1497 0.930 . S
C1513 C1512 1.377 . S
C1513 C1514 1.379 . S
C1514 H1498 0.931 . S
C1514 C1508 1.383 . S
C1514 C1513 1.379 . S
H1515 C1509 0.959 . S
H1516 C1509 0.961 . S
H1517 C1509 0.960 . S
H1518 C1510 0.930 . S
H1519 C1511 0.929 . S
H1520 C1528 0.929 . S
H1521 C1530 0.930 . S
H1522 C1532 0.930 . S
H1523 C1535 0.929 . S
H1524 C1538 0.930 . S
H1525 C1540 0.960 . S
H1526 C1540 0.960 . S
H1527 C1540 0.960 . S
C1528 H1520 0.929 . S
C1528 C1529 1.377 . S
C1528 C1530 1.384 . S
C1529 C1528 1.377 . S
C1529 C1535 1.390 . S
C1530 H1521 0.930 . S
C1530 C1528 1.384 . S
C1530 C1531 1.372 . S
C1531 C1530 1.372 . S
C1531 C1532 1.400 . S
C1531 C1536 1.490 . S
C1532 H1522 0.930 . S
C1532 C1531 1.400 . S
C1532 C1535 1.386 . S
H1533 C1549 0.930 . S
H1534 C1550 0.931 . S
C1535 H1523 0.929 . S
C1535 C1529 1.390 . S
C1535 C1532 1.386 . S
C1536 C1531 1.490 . S
C1536 C1538 1.395 . S
C1536 C1539 1.403 . S
H1537 C1543 0.930 . S
C1538 H1524 0.930 . S
C1538 C1536 1.395 . S
C1538 C1541 1.403 . S
C1539 C1536 1.403 . S
C1539 C1540 1.524 . S
C1539 C1543 1.400 . S
C1540 H1525 0.960 . S
C1540 H1526 0.960 . S
C1540 H1527 0.960 . S
C1540 C1539 1.524 . S
C1541 C1538 1.403 . S
C1541 C1542 1.392 . S
C1541 C1545 1.495 . S
C1542 C1541 1.392 . S
C1542 C1543 1.385 . S
C1542 C1544 1.478 . S
C1543 H1537 0.930 . S
C1543 C1539 1.400 . S
C1543 C1542 1.385 . S
C1544 C1542 1.478 . S
C1544 C1546 1.381 . S
C1544 C1550 1.383 . S
C1545 C1541 1.495 . S
C1545 H1551 0.959 . S
C1545 H1552 0.961 . S
C1545 H1553 0.960 . S
C1546 C1544 1.381 . S
C1546 C1547 1.394 . S
C1546 H1554 0.930 . S
C1547 C1546 1.394 . S
C1547 C1548 1.383 . S
C1547 H1555 0.929 . S
C1548 C1547 1.383 . S
C1548 C1549 1.377 . S
C1549 H1533 0.930 . S
C1549 C1548 1.377 . S
C1549 C1550 1.379 . S
C1550 H1534 0.931 . S
C1550 C1544 1.383 . S
C1550 C1549 1.379 . S
H1551 C1545 0.959 . S
H1552 C1545 0.961 . S
H1553 C1545 0.960 . S
H1554 C1546 0.930 . S
H1555 C1547 0.929 . S
C720 C355 1.452 . S
C701 C15 1.490 . S
C756 C435 1.636 . S
C737 C55 1.718 . S
C792 C367 1.605 . S
C773 C101 1.724 . S
C828 C411 1.807 . S
C809 C141 2.000 . S
C864 C479 1.411 . S
C845 C2 1.407 . S
C900 C559 1.458 . S
C881 C61 1.490 . S
C917 C95 1.828 . S
C936 C621 1.787 . S
C972 C677 1.475 . S
C953 C135 1.625 . S
C1008 C491 1.507 . S
C989 C42 1.586 . S
C1025 C82 1.610 . S
C1044 C535 1.535 . S
C1080 C597 1.834 . S
C1061 C122 2.049 . S
C1116 C665 1.455 . S
C1097 C21 1.492 . S
C1133 C162 1.998 . S
C1152 C429 1.832 . S
C1188 C349 1.658 . S
C1169 C221 1.730 . S
C1205 C255 1.720 . S
C1224 C417 1.682 . S
C1241 C282 1.456 . S
C1260 C373 1.463 . S
C1296 C615 1.887 . S
C1277 C181 2.063 . S
C1332 C659 1.550 . S
C1313 C202 1.633 . S
C1368 C473 1.506 . S
C1349 C242 1.628 . S
C1385 C301 1.489 . S
C1404 C541 1.483 . S
C1440 C603 1.748 . S
C1421 C215 1.827 . S
C1476 C683 1.502 . S
C1457 C261 1.517 . S
C1512 C497 1.371 . S
C1493 C295 1.426 . S
C1529 C175 1.627 . S
C1548 C553 1.474 . S
