# Generated by pormake.
# Topology pth, (4,4)-cn, num edge types: 1
# Building blocks:
#     Node 0, Type 0, BuildingBlock: AZAVOO_clean_sbu_0, # of connection points: 4
#     Node 1, Type 0, BuildingBlock: AZAVOO_clean_sbu_0, # of connection points: 4
#     Node 2, Type 0, BuildingBlock: AZAVOO_clean_sbu_0, # of connection points: 4
#     Node 3, Type 1, BuildingBlock: AZAVOO_clean_linker_0, # of connection points: 4
#     Node 4, Type 1, BuildingBlock: AZAVOO_clean_linker_0, # of connection points: 4
#     Node 5, Type 1, BuildingBlock: AZAVOO_clean_linker_0, # of connection points: 4
#     Edge 6, Type (0, 1), BuildingBlock: KIFKEQ_clean_linker_1, # of connection points: 2
#     Edge 7, Type (0, 1), BuildingBlock: KIFKEQ_clean_linker_1, # of connection points: 2
#     Edge 8, Type (0, 1), BuildingBlock: KIFKEQ_clean_linker_1, # of connection points: 2
#     Edge 9, Type (0, 1), BuildingBlock: KIFKEQ_clean_linker_1, # of connection points: 2
#     Edge 10, Type (0, 1), BuildingBlock: KIFKEQ_clean_linker_1, # of connection points: 2
#     Edge 11, Type (0, 1), BuildingBlock: KIFKEQ_clean_linker_1, # of connection points: 2
#     Edge 12, Type (0, 1), BuildingBlock: KIFKEQ_clean_linker_1, # of connection points: 2
#     Edge 13, Type (0, 1), BuildingBlock: KIFKEQ_clean_linker_1, # of connection points: 2
#     Edge 14, Type (0, 1), BuildingBlock: KIFKEQ_clean_linker_1, # of connection points: 2
#     Edge 15, Type (0, 1), BuildingBlock: KIFKEQ_clean_linker_1, # of connection points: 2
#     Edge 16, Type (0, 1), BuildingBlock: KIFKEQ_clean_linker_1, # of connection points: 2
#     Edge 17, Type (0, 1), BuildingBlock: KIFKEQ_clean_linker_1, # of connection points: 2
# Relax obj value: 0.174
# Max RMSD: 0.231
# Mean RMSD: 0.224
data_MOF--net-pth--node1-AZAVOO_clean_sbu_0--node2-AZAVOO_clean_linker_0--edge1-KIFKEQ_clean_linker_1
_symmetry_space_group_name_H-M    P1
_symmetry_Int_Tables_number       1
_symmetry_cell_setting            triclinic
loop_
_symmetry_equiv_pos_as_xyz
'x, y, z'
_cell_length_a     26.412119
_cell_length_b     27.092105
_cell_length_c     71.129076
_cell_angle_alpha  92.409163
_cell_angle_beta   91.943788
_cell_angle_gamma 122.01488
loop_
_atom_site_label
_atom_site_type_symbol
_atom_site_fract_x
_atom_site_fract_y
_atom_site_fract_z
_atom_type_partial_charge
Mg0 Mg 0.15507 0.10887 0.06376 0.0
O1 O 0.08942 0.07244 0.03773 0.0
O2 O 0.08908 0.14585 0.02463 0.0
Mg3 Mg 0.15438 0.22939 0.04276 0.0
C4 C 0.07094 0.09186 0.02491 0.0
C5 C 0.14328 0.99122 0.07225 0.0
O6 O 0.19558 0.01686 0.0649 0.0
O7 O 0.08953 0.11983 0.08036 0.0
O8 O 0.09308 0.19517 0.0674 0.0
O9 O 0.22653 0.12291 0.04507 0.0
O10 O 0.20338 0.18875 0.0522 0.0
C11 C 0.07322 0.15637 0.07943 0.0
C12 C 0.23316 0.17296 0.04239 0.0
O13 O 0.11538 0.01751 0.07328 0.0
Mg14 Mg 0.92477 0.97621 0.38615 0.0
O15 O 0.01821 0.02683 0.40122 0.0
O16 O 0.02716 0.10079 0.41944 0.0
Mg17 Mg 0.93805 0.09575 0.41674 0.0
C18 C 0.04853 0.07152 0.41282 0.0
C19 C 0.92117 0.87376 0.36465 0.0
O20 O 0.87068 0.84766 0.37307 0.0
O21 O 0.95221 0.05004 0.36632 0.0
O22 O 0.95442 0.11743 0.38614 0.0
O23 O 0.88989 0.91917 0.41045 0.0
O24 O 0.89384 0.00239 0.40842 0.0
C25 C 0.95943 0.10019 0.36973 0.0
C26 C 0.88378 0.95959 0.41822 0.0
O27 O 0.95451 0.92905 0.36661 0.0
Mg28 Mg 0.05946 0.07051 0.71232 0.0
O29 O 0.12162 0.1536 0.73082 0.0
O30 O 0.06856 0.17142 0.75062 0.0
Mg31 Mg 0.97038 0.09854 0.74429 0.0
C32 C 0.11832 0.18467 0.74408 0.0
C33 C 0.16071 0.06546 0.69299 0.0
O34 O 0.13795 0.01768 0.70208 0.0
O35 O 0.02752 0.11857 0.69494 0.0
O36 O 0.97003 0.12994 0.71479 0.0
O37 O 0.06587 0.01632 0.734 0.0
O38 O -0.00275 0.03941 0.73277 0.0
C39 C 0.9919 0.1355 0.69869 0.0
C40 C 0.0205 0.01427 0.74123 0.0
O41 O 0.13693 0.09567 0.6939 0.0
H42 H 0.89839 0.35943 0.09619 0.0
H43 H 0.14557 0.89478 0.24047 0.0
H44 H 0.88358 0.36646 0.19911 0.0
H45 H 0.86184 0.2749 0.1831 0.0
H46 H 0.04779 0.33028 0.19294 0.0
H47 H 0.06807 0.42015 0.20944 0.0
H48 H 0.90424 0.46282 0.17077 0.0
H49 H 0.88602 0.41883 0.13853 0.0
H50 H 0.05669 0.43233 0.1433 0.0
H51 H 0.07462 0.47697 0.1754 0.0
H52 H 0.93814 0.58786 0.18918 0.0
H53 H 0.94914 0.65181 0.16422 0.0
H54 H 0.11491 0.66674 0.1507 0.0
H55 H 0.10307 0.60228 0.17556 0.0
H56 H 0.94915 0.60704 0.23356 0.0
H57 H 0.97375 0.70567 0.24294 0.0
H58 H 0.15042 0.77652 0.22276 0.0
H59 H 0.12558 0.67755 0.21377 0.0
H60 H 0.92773 0.502 0.25717 0.0
H61 H 0.92736 0.55609 0.28544 0.0
H62 H 0.11545 0.6834 0.28156 0.0
H63 H 0.11578 0.62812 0.25344 0.0
H64 H 0.90257 0.39182 0.24204 0.0
H65 H 0.8964 0.32391 0.26491 0.0
H66 H 0.08948 0.41983 0.27193 0.0
H67 H 0.09514 0.48759 0.24902 0.0
O68 O 0.90697 0.37788 0.10882 0.0
O69 O 0.99446 0.38455 0.11218 0.0
O70 O 0.04349 0.81661 0.24722 0.0
O71 O 0.13441 0.85538 0.23667 0.0
C72 C 0.99359 0.46031 0.21003 0.0
C73 C -0.00016 0.49616 0.19532 0.0
C74 C 0.01406 0.55352 0.1996 0.0
C75 C 0.02202 0.57509 0.21858 0.0
C76 C 0.01684 0.53939 0.23333 0.0
C77 C 0.00296 0.48208 0.22899 0.0
C78 C 0.97746 0.39984 0.2052 0.0
C79 C 0.9189 0.3575 0.19841 0.0
C80 C 0.90675 0.30553 0.18915 0.0
C81 C 0.95325 0.29565 0.18639 0.0
C82 C 0.01067 0.33596 0.19491 0.0
C83 C 0.02258 0.38761 0.2043 0.0
C84 C 0.99065 0.47294 0.17538 0.0
C85 C 0.93784 0.45674 0.16473 0.0
C86 C 0.92747 0.43141 0.14637 0.0
C87 C 0.96979 0.42182 0.13836 0.0
C88 C 0.02311 0.43895 0.14904 0.0
C89 C 0.03349 0.46447 0.16737 0.0
C90 C 0.01995 0.59081 0.18416 0.0
C91 C 0.97667 0.6049 0.18076 0.0
C92 C 0.98312 0.64144 0.16656 0.0
C93 C 0.03294 0.66434 0.15552 0.0
C94 C 0.07565 0.64916 0.15879 0.0
C95 C 0.0692 0.6127 0.17302 0.0
C96 C 0.03565 0.6352 0.22305 0.0
C97 C 0.99307 0.64395 0.23114 0.0
C98 C 0.00725 0.70031 0.23648 0.0
C99 C 0.06415 0.749 0.23364 0.0
C100 C 0.10626 0.74002 0.22518 0.0
C101 C 0.09212 0.68359 0.21994 0.0
C102 C 0.02163 0.5614 0.25317 0.0
C103 C 0.96949 0.53999 0.26292 0.0
C104 C 0.96932 0.57115 0.27902 0.0
C105 C 0.0212 0.6244 0.28549 0.0
C106 C 0.07473 0.64282 0.27672 0.0
C107 C 0.07507 0.61114 0.26077 0.0
C108 C -0.00075 0.44473 0.24409 0.0
C109 C 0.94342 0.39847 0.24873 0.0
C110 C 0.94003 0.35981 0.26171 0.0
C111 C 0.99251 0.36654 0.2701 0.0
C112 C 0.04841 0.41331 0.26551 0.0
C113 C 0.05172 0.4523 0.25264 0.0
C114 C 0.95807 0.39371 0.11901 0.0
C115 C 0.07979 0.8089 0.23959 0.0
H116 H 0.58295 0.99518 0.4263 0.0
H117 H 0.32789 0.266 0.56537 0.0
H118 H 0.57685 0.01076 0.53817 0.0
H119 H 0.6297 0.96331 0.52814 0.0
H120 H 0.78138 0.13095 0.51613 0.0
H121 H 0.72802 0.178 0.5262 0.0
H122 H 0.53031 0.01752 0.50429 0.0
H123 H 0.54202 0.99062 0.47219 0.0
H124 H 0.65227 0.17346 0.46188 0.0
H125 H 0.64066 0.19968 0.49413 0.0
H126 H 0.44592 0.05098 0.50511 0.0
H127 H 0.37638 0.04922 0.481 0.0
H128 H 0.47487 0.23761 0.48559 0.0
H129 H 0.54583 0.23913 0.50921 0.0
H130 H 0.41994 0.08103 0.55225 0.0
H131 H 0.34136 0.09878 0.56047 0.0
H132 H 0.45994 0.28179 0.5517 0.0
H133 H 0.53819 0.2634 0.54368 0.0
H134 H 0.51775 0.07387 0.58265 0.0
H135 H 0.47112 0.07568 0.61146 0.0
H136 H 0.5364 0.25798 0.60638 0.0
H137 H 0.58492 0.25632 0.57774 0.0
H138 H 0.60647 0.05579 0.57395 0.0
H139 H 0.68157 0.06594 0.59761 0.0
H140 H 0.78354 0.25258 0.59292 0.0
H141 H 0.70779 0.24189 0.56944 0.0
O142 O 0.57892 0.00679 0.43894 0.0
O143 O 0.63492 0.10136 0.4343 0.0
O144 O 0.29885 0.16322 0.56642 0.0
O145 O 0.35788 0.25762 0.56197 0.0
C146 C 0.61285 0.12388 0.53624 0.0
C147 C 0.57885 0.12681 0.52109 0.0
C148 C 0.53935 0.14574 0.52458 0.0
C149 C 0.53264 0.16005 0.54326 0.0
C150 C 0.56796 0.15856 0.55836 0.0
C151 C 0.60946 0.14232 0.55471 0.0
C152 C 0.64875 0.09761 0.5328 0.0
C153 C 0.62203 0.03727 0.53376 0.0
C154 C 0.65211 0.0103 0.52802 0.0
C155 C 0.70951 0.04347 0.52137 0.0
C156 C 0.73746 0.10447 0.52145 0.0
C157 C 0.70708 0.13137 0.52706 0.0
C158 C 0.58506 0.1105 0.50153 0.0
C159 C 0.55724 0.05165 0.4951 0.0
C160 C 0.56386 0.03644 0.47674 0.0
C161 C 0.5982 0.0799 0.46447 0.0
C162 C 0.62561 0.13891 0.47097 0.0
C163 C 0.61904 0.15403 0.48935 0.0
C164 C 0.50062 0.14517 0.50892 0.0
C165 C 0.45323 0.09185 0.5006 0.0
C166 C 0.41372 0.09091 0.48686 0.0
C167 C 0.42048 0.14331 0.48153 0.0
C168 C 0.46878 0.19671 0.48957 0.0
C169 C 0.50902 0.19762 0.50304 0.0
C170 C 0.48441 0.17086 0.54724 0.0
C171 C 0.42859 0.1248 0.55199 0.0
C172 C 0.38392 0.13511 0.55672 0.0
C173 C 0.39438 0.19175 0.55674 0.0
C174 C 0.45036 0.23768 0.5518 0.0
C175 C 0.49503 0.22729 0.54712 0.0
C176 C 0.55425 0.16482 0.57803 0.0
C177 C 0.52424 0.11486 0.58818 0.0
C178 C 0.49747 0.11593 0.60461 0.0
C179 C 0.49968 0.16683 0.611 0.0
C180 C 0.53368 0.21808 0.60162 0.0
C181 C 0.56141 0.21722 0.58533 0.0
C182 C 0.65204 0.14809 0.56998 0.0
C183 C 0.64498 0.09878 0.5781 0.0
C184 C 0.68805 0.10469 0.59151 0.0
C185 C 0.73876 0.16006 0.597 0.0
C186 C 0.74481 0.20945 0.58909 0.0
C187 C 0.70174 0.20345 0.57568 0.0
C188 C 0.60525 0.06359 0.44499 0.0
C189 C 0.34735 0.20308 0.562 0.0
H190 H 0.614 0.68189 0.00734 0.0
H191 H 0.29894 0.24416 0.83263 0.0
H192 H 0.6525 0.74081 0.89882 0.0
H193 H 0.73111 0.82952 0.91673 0.0
H194 H 0.8348 0.74958 0.92392 0.0
H195 H 0.75747 0.66286 0.90505 0.0
H196 H 0.54933 0.63425 0.92624 0.0
H197 H 0.56349 0.65816 0.96034 0.0
H198 H 0.70118 0.61745 0.96349 0.0
H199 H 0.68613 0.59325 0.9294 0.0
H200 H 0.4415 0.50561 0.9037 0.0
H201 H 0.37938 0.43324 0.92559 0.0
H202 H 0.52823 0.4157 0.9419 0.0
H203 H 0.58787 0.48443 0.91901 0.0
H204 H 0.44729 0.52714 0.86105 0.0
H205 H 0.35979 0.4416 0.84469 0.0
H206 H 0.43196 0.33638 0.85923 0.0
H207 H 0.51981 0.42266 0.87532 0.0
H208 H 0.54886 0.62769 0.84182 0.0
H209 H 0.48798 0.58227 0.81234 0.0
H210 H 0.52551 0.44523 0.8142 0.0
H211 H 0.58928 0.49325 0.84283 0.0
H212 H 0.64543 0.72213 0.85878 0.0
H213 H 0.72224 0.79242 0.83925 0.0
H214 H 0.80966 0.69529 0.84068 0.0
H215 H 0.73144 0.62439 0.85976 0.0
O216 O 0.60905 0.67212 0.99387 0.0
O217 O 0.67958 0.65076 0.99473 0.0
O218 O 0.29843 0.33497 0.83182 0.0
O219 O 0.33237 0.27836 0.83945 0.0
C220 C 0.64813 0.63931 0.89259 0.0
C221 C 0.60812 0.59832 0.90469 0.0
C222 C 0.55784 0.54518 0.89707 0.0
C223 C 0.54574 0.53453 0.87738 0.0
C224 C 0.58654 0.57531 0.86525 0.0
C225 C 0.63813 0.6272 0.87289 0.0
C226 C 0.69947 0.69565 0.90077 0.0
C227 C 0.69303 0.74335 0.90388 0.0
C228 C 0.73767 0.79363 0.91431 0.0
C229 C 0.78904 0.79655 0.92206 0.0
C230 C 0.79636 0.74941 0.91804 0.0
C231 C 0.7521 0.69957 0.90735 0.0
C232 C 0.617 0.61247 0.92539 0.0
C233 C 0.5825 0.63055 0.93434 0.0
C234 C 0.59072 0.64419 0.95381 0.0
C235 C 0.63359 0.63987 0.96464 0.0
C236 C 0.66791 0.62142 0.95557 0.0
C237 C 0.65957 0.60774 0.9361 0.0
C238 C 0.51912 0.50024 0.90984 0.0
C239 C 0.4601 0.48525 0.91181 0.0
C240 C 0.42499 0.44438 0.92447 0.0
C241 C 0.44879 0.41869 0.93562 0.0
C242 C 0.50788 0.4336 0.93336 0.0
C243 C 0.54242 0.47351 0.92046 0.0
C244 C 0.48991 0.48107 0.8693 0.0
C245 C 0.44388 0.48547 0.8608 0.0
C246 C 0.39402 0.43657 0.85144 0.0
C247 C 0.38904 0.38219 0.85055 0.0
C248 C 0.43448 0.37763 0.85959 0.0
C249 C 0.48453 0.42671 0.86889 0.0
C250 C 0.57264 0.56319 0.84459 0.0
C251 C 0.54681 0.58985 0.83522 0.0
C252 C 0.511 0.56307 0.81856 0.0
C253 C 0.49984 0.5088 0.81126 0.0
C254 C 0.53271 0.4868 0.81933 0.0
C255 C 0.56944 0.51427 0.83577 0.0
C256 C 0.68285 0.66817 0.86045 0.0
C257 C 0.68095 0.71595 0.8547 0.0
C258 C 0.72522 0.75629 0.84375 0.0
C259 C 0.7723 0.74961 0.8385 0.0
C260 C 0.77371 0.70134 0.8443 0.0
C261 C 0.72925 0.66091 0.8552 0.0
C262 C 0.6423 0.65451 0.98532 0.0
C263 C 0.3371 0.33056 0.84006 0.0
H264 H 0.02877 0.22699 0.08171 0.0
H265 H 0.02933 0.08831 0.10949 0.0
H266 H 0.97993 0.24096 0.10767 0.0
H267 H 0.97838 0.10129 0.13545 0.0
H268 H 0.00172 0.22759 0.18747 0.0
H269 H 0.01271 0.17659 0.1605 0.0
H270 H 0.89569 0.20757 0.12602 0.0
H271 H 0.88812 0.26195 0.15253 0.0
C272 C 0.01724 0.19849 0.09317 0.0
C273 C 0.03412 0.15734 0.09367 0.0
C274 C 0.98848 0.20608 0.10804 0.0
C275 C 0.97548 0.17245 0.12376 0.0
C276 C 0.98856 0.12845 0.12367 0.0
C277 C 0.01759 0.12093 0.10876 0.0
C278 C 0.97754 0.22265 0.17421 0.0
C279 C 0.94527 0.25011 0.17209 0.0
C280 C 0.9832 0.19272 0.15877 0.0
C281 C 0.95616 0.18918 0.14097 0.0
C282 C 0.91826 0.21076 0.13944 0.0
C283 C 0.91323 0.24129 0.15478 0.0
H284 H 0.79776 0.86783 0.43616 0.0
H285 H 0.93665 0.04997 0.44474 0.0
H286 H 0.75939 0.87364 0.46657 0.0
H287 H 0.89768 0.05701 0.47432 0.0
H288 H 0.82483 0.07014 0.52616 0.0
H289 H 0.87379 0.0351 0.50585 0.0
H290 H 0.70455 0.91836 0.47448 0.0
H291 H 0.65594 0.95199 0.49507 0.0
C292 C 0.82071 0.90872 0.44474 0.0
C293 C 0.86871 0.95902 0.43792 0.0
C294 C 0.79866 0.91223 0.46206 0.0
C295 C 0.82467 0.96606 0.47275 0.0
C296 C 0.87638 0.01476 0.4666 0.0
C297 C 0.89813 0.01116 0.44939 0.0
C298 C 0.79809 0.03587 0.51522 0.0
C299 C 0.73689 0.01429 0.512 0.0
C300 C 0.82599 0.01582 0.50357 0.0
C301 C 0.79335 0.97466 0.4883 0.0
C302 C 0.73111 0.94959 0.48618 0.0
C303 C 0.70316 0.96911 0.49795 0.0
H304 H 0.93093 0.00982 0.76054 0.0
H305 H 0.05022 0.94606 0.76012 0.0
H306 H 0.88096 0.95061 0.78637 0.0
H307 H -0.00092 0.8857 0.78613 0.0
H308 H 0.82706 0.86839 0.84141 0.0
H309 H 0.89686 0.93786 0.82026 0.0
H310 H 0.89405 0.79747 0.78816 0.0
H311 H 0.82349 0.72774 0.80908 0.0
C312 C 0.9474 0.98413 0.76618 0.0
C313 C 0.99479 0.98292 0.75828 0.0
C314 C 0.9187 0.95018 0.78107 0.0
C315 C 0.9362 0.91365 0.78828 0.0
C316 C 0.98459 0.91338 0.78076 0.0
C317 C 0.01394 0.94806 0.76595 0.0
C318 C 0.84134 0.85233 0.82985 0.0
C319 C 0.81908 0.79244 0.82677 0.0
C320 C 0.88155 0.89214 0.81783 0.0
C321 C 0.90062 0.87296 0.80255 0.0
C322 C 0.88065 0.81353 0.79997 0.0
C323 C 0.84015 0.77362 0.81194 0.0
H324 H 0.19792 0.93008 0.07677 0.0
H325 H 0.03617 0.92647 0.08797 0.0
H326 H 0.16509 0.84527 0.09506 0.0
H327 H 0.00289 0.84101 0.10591 0.0
H328 H 0.01587 0.75495 0.159 0.0
H329 H 0.03617 0.82738 0.13649 0.0
H330 H 0.09124 0.74121 0.09727 0.0
H331 H 0.07083 0.6684 0.11992 0.0
C332 C 0.15491 0.91061 0.08285 0.0
C333 C 0.12006 0.93548 0.08115 0.0
C334 C 0.13594 0.8618 0.09325 0.0
C335 C 0.08169 0.83687 0.1021 0.0
C336 C 0.04544 0.85995 0.09955 0.0
C337 C 0.06442 0.90876 0.0892 0.0
C338 C 0.03124 0.75079 0.14545 0.0
C339 C 0.0418 0.70602 0.14124 0.0
C340 C 0.04283 0.79228 0.13252 0.0
C341 C 0.06522 0.78995 0.11508 0.0
C342 C 0.07465 0.74449 0.11069 0.0
C343 C 0.06303 0.7029 0.12365 0.0
H344 H 0.13933 0.17763 0.42817 0.0
H345 H 0.09447 0.00218 0.41312 0.0
H346 H 0.2364 0.20219 0.44186 0.0
H347 H 0.18982 0.02546 0.42765 0.0
H348 H 0.3773 0.08564 0.44681 0.0
H349 H 0.29386 0.07515 0.42726 0.0
H350 H 0.27405 0.18369 0.46899 0.0
H351 H 0.35913 0.19621 0.48785 0.0
C352 C 0.1503 0.14434 0.42778 0.0
C353 C 0.1092 0.0879 0.41969 0.0
C354 C 0.2058 0.15826 0.43573 0.0
C355 C 0.22096 0.11571 0.43608 0.0
C356 C 0.18037 0.05975 0.42742 0.0
C357 C 0.12537 0.04617 0.41917 0.0
C358 C 0.35544 0.10787 0.45155 0.0
C359 C 0.37436 0.14169 0.46876 0.0
C360 C 0.30744 0.10161 0.44046 0.0
C361 C 0.27665 0.12811 0.44658 0.0
C362 C 0.29711 0.16344 0.46359 0.0
C363 C 0.34573 0.17048 0.47448 0.0
H364 H 0.13719 0.24315 0.77835 0.0
H365 H 0.22604 0.24443 0.72831 0.0
H366 H 0.23061 0.32595 0.79252 0.0
H367 H 0.31904 0.32911 0.74209 0.0
H368 H 0.48795 0.43058 0.78275 0.0
H369 H 0.39565 0.35505 0.76561 0.0
H370 H 0.30027 0.42623 0.79175 0.0
H371 H 0.39102 0.49845 0.80993 0.0
C372 C 0.1765 0.26175 0.77026 0.0
C373 C 0.17426 0.2371 0.75226 0.0
C374 C 0.23011 0.30958 0.77832 0.0
C375 C 0.28259 0.33456 0.76844 0.0
C376 C 0.27989 0.31054 0.75025 0.0
C377 C 0.22645 0.26214 0.7423 0.0
C378 C 0.44733 0.43025 0.78478 0.0
C379 C 0.4472 0.4706 0.79784 0.0
C380 C 0.39437 0.38722 0.77479 0.0
C381 C 0.34013 0.38395 0.77745 0.0
C382 C 0.34083 0.42651 0.78964 0.0
C383 C 0.39347 0.46893 0.7998 0.0
H384 H 0.01267 0.13756 0.66111 0.0
H385 H 0.91894 0.17819 0.70151 0.0
H386 H 0.9608 0.15394 0.63545 0.0
H387 H 0.86645 0.19318 0.67592 0.0
H388 H 0.79764 0.24282 0.62635 0.0
H389 H 0.87127 0.25016 0.64985 0.0
H390 H 0.85698 0.09712 0.62271 0.0
H391 H 0.78532 0.0912 0.59885 0.0
C392 C 0.98185 0.15093 0.66456 0.0
C393 C 0.96932 0.15569 0.68338 0.0
C394 C 0.95182 0.1599 0.64984 0.0
C395 C 0.90888 0.174 0.65364 0.0
C396 C 0.89947 0.18268 0.6725 0.0
C397 C 0.92938 0.17369 0.68719 0.0
C398 C 0.81104 0.21138 0.62523 0.0
C399 C 0.78528 0.1661 0.61085 0.0
C400 C 0.85288 0.21535 0.63876 0.0
C401 C 0.86988 0.17417 0.63817 0.0
C402 C 0.84543 0.12998 0.62345 0.0
C403 C 0.80363 0.12601 0.60994 0.0
H404 H -0.00295 0.10583 0.00084 0.0
H405 H 0.05135 0.9853 0.01376 0.0
H406 H 0.9301 0.03823 0.97469 0.0
H407 H 0.98515 0.91852 0.98753 0.0
H408 H 0.91118 0.84867 0.92623 0.0
H409 H 0.97988 0.92219 0.95074 0.0
H410 H 0.83452 0.93172 0.97244 0.0
H411 H 0.76506 0.85644 0.94861 0.0
C412 C 0.99476 0.06504 -0.00191 0.0
C413 C 0.02931 0.05078 0.00939 0.0
C414 C 0.95646 0.02646 0.98318 0.0
C415 C 0.95297 0.97355 0.97908 0.0
C416 C 0.98763 0.9594 0.9903 0.0
C417 C 0.02507 -0.00259 0.00539 0.0
C418 C 0.89367 0.86617 0.93625 0.0
C419 C 0.83237 0.84619 0.93546 0.0
C420 C 0.9331 0.90841 0.9502 0.0
C421 C 0.91226 0.93226 0.96345 0.0
C422 C 0.85168 0.91429 0.96226 0.0
C423 C 0.81204 0.87139 0.9485 0.0
H424 H 0.02936 0.91178 0.34989 0.0
H425 H 0.8554 0.75674 0.35508 0.0
H426 H 0.06052 0.85331 0.3328 0.0
H427 H 0.88575 0.69874 0.33754 0.0
H428 H 0.96812 0.59824 0.31906 0.0
H429 H 0.94891 0.66047 0.33953 0.0
H430 H 0.04223 0.80102 0.30286 0.0
H431 H 0.06247 0.73929 0.28279 0.0
C432 C -0.00236 0.8653 0.34728 0.0
C433 C 0.93986 0.83891 0.35381 0.0
C434 C 0.01546 0.83179 0.33745 0.0
C435 C 0.97577 0.77122 0.33385 0.0
C436 C 0.91795 0.74502 0.34038 0.0
C437 C 0.9003 0.77842 0.35029 0.0
C438 C 0.98525 0.64276 0.31561 0.0
C439 C 0.01692 0.66401 0.29941 0.0
C440 C 0.97393 0.67829 0.32722 0.0
C441 C 0.99345 0.7356 0.32274 0.0
C442 C 0.02718 0.75745 0.3069 0.0
C443 C 0.0389 0.72209 0.2954 0.0
H444 H 0.23012 0.17063 0.67803 0.0
H445 H 0.21333 0.00461 0.68408 0.0
H446 H 0.31913 0.20297 0.66062 0.0
H447 H 0.30103 0.03609 0.66612 0.0
H448 H 0.48462 0.11946 0.64511 0.0
H449 H 0.40715 0.10038 0.6667 0.0
H450 H 0.34464 0.1843 0.63052 0.0
H451 H 0.42287 0.20452 0.60936 0.0
C452 C 0.24524 0.1409 0.67554 0.0
C453 C 0.21451 0.08493 0.68234 0.0
C454 C 0.29622 0.15941 0.66553 0.0
C455 C 0.31734 0.12219 0.66195 0.0
C456 C 0.28675 0.06634 0.6689 0.0
C457 C 0.23607 0.04803 0.67905 0.0
C458 C 0.45489 0.13468 0.64204 0.0
C459 C 0.45977 0.16359 0.62564 0.0
C460 C 0.41026 0.1234 0.65428 0.0
C461 C 0.36919 0.14021 0.65025 0.0
C462 C 0.37589 0.17139 0.63423 0.0
C463 C 0.42083 0.18311 0.6221 0.0
H464 H 0.28321 0.28906 0.0398 0.0
H465 H 0.25885 0.13484 0.01015 0.0
H466 H 0.33463 0.34643 0.01362 0.0
H467 H 0.30737 0.19136 0.98336 0.0
H468 H 0.44798 0.32209 0.9463 0.0
H469 H 0.39849 0.26319 0.97235 0.0
H470 H 0.31586 0.36236 0.98292 0.0
H471 H 0.3696 0.42456 0.95805 0.0
C472 C 0.28876 0.26748 0.0276 0.0
C473 C 0.2673 0.2077 0.02696 0.0
C474 C 0.31764 0.30016 0.01249 0.0
C475 C 0.32456 0.27348 -0.00378 0.0
C476 C 0.30357 0.21358 -0.00427 0.0
C477 C 0.27566 0.1811 0.01104 0.0
C478 C 0.41984 0.33184 0.95433 0.0
C479 C 0.41344 0.37863 0.95017 0.0
C480 C 0.39066 0.29739 0.96912 0.0
C481 C 0.35351 0.30824 0.9799 0.0
C482 C 0.34522 0.35353 0.97523 0.0
C483 C 0.37522 0.38862 0.96068 0.0
H484 H 0.9818 0.21046 0.37309 0.0
H485 H 0.9637 0.07958 0.33162 0.0
H486 H 0.99138 0.27262 0.34822 0.0
H487 H 0.97367 0.14311 0.3065 0.0
H488 H 0.92108 0.32755 0.29949 0.0
H489 H 0.91596 0.26137 0.32262 0.0
H490 H 0.05061 0.24628 0.29492 0.0
H491 H 0.05539 0.31247 0.27153 0.0
C492 C 0.98015 0.19489 0.35867 0.0
C493 C 0.97115 0.13949 0.35436 0.0
C494 C 0.98547 0.23063 0.34442 0.0
C495 C 0.98231 0.21224 0.32548 0.0
C496 C 0.97613 0.15815 0.32106 0.0
C497 C 0.97035 0.12186 0.33541 0.0
C498 C 0.94917 0.30971 0.29823 0.0
C499 C 0.98878 0.32527 0.28379 0.0
C500 C 0.94655 0.27218 0.31151 0.0
C501 C 0.98317 0.24908 0.31057 0.0
C502 C 0.02181 0.26341 0.29588 0.0
C503 C 0.0249 0.30157 0.28266 0.0
loop_
_geom_bond_atom_site_label_1
_geom_bond_atom_site_label_2
_geom_bond_distance
_geom_bond_site_symmetry_2
_ccdc_geom_bond_type
Mg0 O1 2.028 . S
Mg0 O7 1.986 . S
Mg0 O9 2.114 . S
Mg0 O10 2.251 . S
Mg0 O13 2.010 . S
O1 Mg0 2.028 . S
O1 C4 1.250 . S
O2 Mg3 2.028 . S
O2 C4 1.248 . S
Mg3 O2 2.028 . S
Mg3 O8 2.032 . S
Mg3 O10 2.079 . S
C4 O1 1.250 . S
C4 O2 1.248 . S
C5 O6 1.264 . S
C5 O13 1.249 . S
O6 C5 1.264 . S
O7 Mg0 1.986 . S
O7 C11 1.246 . S
O8 Mg3 2.032 . S
O8 C11 1.259 . S
O9 Mg0 2.114 . S
O9 C12 1.252 . S
O10 Mg0 2.251 . S
O10 Mg3 2.079 . S
O10 C12 1.273 . S
C11 O7 1.246 . S
C11 O8 1.259 . S
C12 O9 1.252 . S
C12 O10 1.273 . S
O13 Mg0 2.010 . S
O13 C5 1.249 . S
Mg14 O15 2.028 1_655 S
Mg14 O21 1.986 1_655 S
Mg14 O23 2.114 1_545 S
Mg14 O24 2.251 . S
Mg14 O27 2.010 1_545 S
O15 Mg14 2.028 1_455 S
O15 C18 1.250 . S
O16 Mg17 2.028 . S
O16 C18 1.248 . S
Mg17 O16 2.028 . S
Mg17 O22 2.032 . S
Mg17 O24 2.079 1_455 S
C18 O15 1.250 . S
C18 O16 1.248 . S
C19 O20 1.264 . S
C19 O27 1.249 . S
O20 C19 1.264 . S
O21 Mg14 1.986 1_455 S
O21 C25 1.246 . S
O22 Mg17 2.032 . S
O22 C25 1.259 . S
O23 Mg14 2.114 1_565 S
O23 C26 1.252 . S
O24 Mg14 2.251 . S
O24 Mg17 2.079 1_655 S
O24 C26 1.273 1_545 S
C25 O21 1.246 . S
C25 O22 1.259 . S
C26 O23 1.252 . S
C26 O24 1.273 1_565 S
O27 Mg14 2.010 1_565 S
O27 C19 1.249 . S
Mg28 O29 2.028 . S
Mg28 O35 1.986 . S
Mg28 O37 2.114 . S
Mg28 O38 2.251 . S
Mg28 O41 2.010 . S
O29 Mg28 2.028 . S
O29 C32 1.250 . S
O30 Mg31 2.028 . S
O30 C32 1.248 . S
Mg31 O30 2.028 . S
Mg31 O36 2.032 . S
Mg31 O38 2.079 . S
C32 O29 1.250 . S
C32 O30 1.248 . S
C33 O34 1.264 . S
C33 O41 1.249 . S
O34 C33 1.264 . S
O35 Mg28 1.986 . S
O35 C39 1.246 . S
O36 Mg31 2.032 . S
O36 C39 1.259 . S
O37 Mg28 2.114 . S
O37 C40 1.252 . S
O38 Mg28 2.251 . S
O38 Mg31 2.079 . S
O38 C40 1.273 . S
C39 O35 1.246 . S
C39 O36 1.259 . S
C40 O37 1.252 . S
C40 O38 1.273 . S
O41 Mg28 2.010 . S
O41 C33 1.249 . S
H42 O68 0.856 . S
H43 O71 0.854 . S
H44 C79 0.932 . S
H45 C80 0.930 . S
H46 C82 0.930 . S
H47 C83 0.930 . S
H48 C85 0.933 1_655 S
H49 C86 0.930 . S
H50 C88 0.930 . S
H51 C89 0.929 . S
H52 C91 0.930 1_655 S
H53 C92 0.931 . S
H54 C94 0.930 . S
H55 C95 0.929 . S
H56 C97 0.931 1_655 S
H57 C98 0.930 1_655 S
H58 C100 0.930 . S
H59 C101 0.932 . S
H60 C103 0.930 . S
H61 C104 0.929 . S
H62 C106 0.931 . S
H63 C107 0.930 . S
H64 C109 0.929 . S
H65 C110 0.925 1_655 S
H66 C112 0.930 . S
H67 C113 0.929 . S
O68 H42 0.856 . S
O68 C114 1.300 . S
O69 C114 1.209 . S
O70 C115 1.199 . S
O71 H43 0.854 . S
O71 C115 1.297 . S
C72 C73 1.404 . S
C72 C77 1.397 . S
C72 C78 1.492 . S
C73 C72 1.404 . S
C73 C74 1.396 . S
C73 C84 1.492 . S
C74 C73 1.396 . S
C74 C75 1.397 . S
C74 C90 1.509 . S
C75 C74 1.397 . S
C75 C76 1.412 . S
C75 C96 1.485 . S
C76 C75 1.412 . S
C76 C77 1.388 . S
C76 C102 1.490 . S
C77 C72 1.397 . S
C77 C76 1.388 . S
C77 C108 1.519 . S
C78 C72 1.492 . S
C78 C79 1.362 1_455 S
C78 C83 1.390 . S
C79 H44 0.932 . S
C79 C78 1.362 1_655 S
C79 C80 1.371 . S
C80 H45 0.930 . S
C80 C79 1.371 . S
C80 C81 1.383 1_655 S
C81 C80 1.383 1_455 S
C81 C82 1.395 . S
C82 H46 0.930 . S
C82 C81 1.395 . S
C82 C83 1.362 . S
C83 H47 0.930 . S
C83 C78 1.390 . S
C83 C82 1.362 . S
C84 C73 1.492 . S
C84 C85 1.377 . S
C84 C89 1.397 . S
C85 H48 0.933 1_455 S
C85 C84 1.377 . S
C85 C86 1.376 . S
C86 H49 0.930 . S
C86 C85 1.376 . S
C86 C87 1.376 . S
C87 C86 1.376 . S
C87 C88 1.378 . S
C87 C114 1.486 . S
C88 H50 0.930 . S
C88 C87 1.378 . S
C88 C89 1.376 . S
C89 H51 0.929 . S
C89 C84 1.397 . S
C89 C88 1.376 . S
C90 C74 1.509 . S
C90 C91 1.391 . S
C90 C95 1.386 . S
C91 H52 0.930 1_455 S
C91 C90 1.391 . S
C91 C92 1.375 . S
C92 H53 0.931 . S
C92 C91 1.375 . S
C92 C93 1.375 . S
C93 C92 1.375 . S
C93 C94 1.361 . S
C94 H54 0.930 . S
C94 C93 1.361 . S
C94 C95 1.399 . S
C95 H55 0.929 . S
C95 C90 1.386 . S
C95 C94 1.399 . S
C96 C75 1.485 . S
C96 C97 1.394 . S
C96 C101 1.360 . S
C97 H56 0.931 1_455 S
C97 C96 1.394 . S
C97 C98 1.372 . S
C98 H57 0.930 1_455 S
C98 C97 1.372 . S
C98 C99 1.397 . S
C99 C98 1.397 . S
C99 C100 1.390 . S
C99 C115 1.476 . S
C100 H58 0.930 . S
C100 C99 1.390 . S
C100 C101 1.366 . S
C101 H59 0.932 . S
C101 C96 1.360 . S
C101 C100 1.366 . S
C102 C76 1.490 . S
C102 C103 1.380 1_455 S
C102 C107 1.386 . S
C103 H60 0.930 . S
C103 C102 1.380 1_655 S
C103 C104 1.381 . S
C104 H61 0.929 . S
C104 C103 1.381 . S
C104 C105 1.371 1_655 S
C105 C104 1.371 1_455 S
C105 C106 1.380 . S
C106 H62 0.931 . S
C106 C105 1.380 . S
C106 C107 1.387 . S
C107 H63 0.930 . S
C107 C102 1.386 . S
C107 C106 1.387 . S
C108 C77 1.519 . S
C108 C109 1.377 1_455 S
C108 C113 1.361 . S
C109 H64 0.929 . S
C109 C108 1.377 1_655 S
C109 C110 1.379 1_655 S
C110 H65 0.925 1_455 S
C110 C109 1.379 1_455 S
C110 C111 1.377 . S
C111 C110 1.377 . S
C111 C112 1.385 . S
C112 H66 0.930 . S
C112 C111 1.385 . S
C112 C113 1.396 . S
C113 H67 0.929 . S
C113 C108 1.361 . S
C113 C112 1.396 . S
C114 O68 1.300 . S
C114 O69 1.209 . S
C114 C87 1.486 . S
C115 O70 1.199 . S
C115 O71 1.297 . S
C115 C99 1.476 . S
H116 O142 0.856 . S
H117 O145 0.854 . S
H118 C153 0.930 . S
H119 C154 0.930 1_565 S
H120 C156 0.930 . S
H121 C157 0.930 . S
H122 C159 0.931 . S
H123 C160 0.930 . S
H124 C162 0.930 . S
H125 C163 0.929 . S
H126 C165 0.930 . S
H127 C166 0.931 . S
H128 C168 0.930 . S
H129 C169 0.929 . S
H130 C171 0.931 . S
H131 C172 0.930 . S
H132 C174 0.930 . S
H133 C175 0.932 . S
H134 C177 0.930 . S
H135 C178 0.929 . S
H136 C180 0.931 . S
H137 C181 0.930 . S
H138 C183 0.929 . S
H139 C184 0.931 . S
H140 C186 0.930 . S
H141 C187 0.929 . S
O142 H116 0.856 . S
O142 C188 1.300 . S
O143 C188 1.209 . S
O144 C189 1.199 . S
O145 H117 0.854 . S
O145 C189 1.297 . S
C146 C147 1.404 . S
C146 C151 1.397 . S
C146 C152 1.492 . S
C147 C146 1.404 . S
C147 C148 1.396 . S
C147 C158 1.492 . S
C148 C147 1.396 . S
C148 C149 1.397 . S
C148 C164 1.509 . S
C149 C148 1.397 . S
C149 C150 1.412 . S
C149 C170 1.485 . S
C150 C149 1.412 . S
C150 C151 1.388 . S
C150 C176 1.490 . S
C151 C146 1.397 . S
C151 C150 1.388 . S
C151 C182 1.519 . S
C152 C146 1.492 . S
C152 C153 1.363 . S
C152 C157 1.390 . S
C153 H118 0.930 . S
C153 C152 1.363 . S
C153 C154 1.372 . S
C154 H119 0.930 1_545 S
C154 C153 1.372 . S
C154 C155 1.383 . S
C155 C154 1.383 . S
C155 C156 1.395 . S
C156 H120 0.930 . S
C156 C155 1.395 . S
C156 C157 1.362 . S
C157 H121 0.930 . S
C157 C152 1.390 . S
C157 C156 1.362 . S
C158 C147 1.492 . S
C158 C159 1.377 . S
C158 C163 1.397 . S
C159 H122 0.931 . S
C159 C158 1.377 . S
C159 C160 1.376 . S
C160 H123 0.930 . S
C160 C159 1.376 . S
C160 C161 1.376 . S
C161 C160 1.376 . S
C161 C162 1.378 . S
C161 C188 1.486 . S
C162 H124 0.930 . S
C162 C161 1.378 . S
C162 C163 1.376 . S
C163 H125 0.929 . S
C163 C158 1.397 . S
C163 C162 1.376 . S
C164 C148 1.509 . S
C164 C165 1.391 . S
C164 C169 1.386 . S
C165 H126 0.930 . S
C165 C164 1.391 . S
C165 C166 1.375 . S
C166 H127 0.931 . S
C166 C165 1.375 . S
C166 C167 1.375 . S
C167 C166 1.375 . S
C167 C168 1.361 . S
C168 H128 0.930 . S
C168 C167 1.361 . S
C168 C169 1.399 . S
C169 H129 0.929 . S
C169 C164 1.386 . S
C169 C168 1.399 . S
C170 C149 1.485 . S
C170 C171 1.394 . S
C170 C175 1.360 . S
C171 H130 0.931 . S
C171 C170 1.394 . S
C171 C172 1.372 . S
C172 H131 0.930 . S
C172 C171 1.372 . S
C172 C173 1.397 . S
C173 C172 1.397 . S
C173 C174 1.390 . S
C173 C189 1.476 . S
C174 H132 0.930 . S
C174 C173 1.390 . S
C174 C175 1.366 . S
C175 H133 0.932 . S
C175 C170 1.360 . S
C175 C174 1.366 . S
C176 C150 1.490 . S
C176 C177 1.380 . S
C176 C181 1.386 . S
C177 H134 0.930 . S
C177 C176 1.380 . S
C177 C178 1.381 . S
C178 H135 0.929 . S
C178 C177 1.381 . S
C178 C179 1.371 . S
C179 C178 1.371 . S
C179 C180 1.380 . S
C180 H136 0.931 . S
C180 C179 1.380 . S
C180 C181 1.387 . S
C181 H137 0.930 . S
C181 C176 1.386 . S
C181 C180 1.387 . S
C182 C151 1.519 . S
C182 C183 1.377 . S
C182 C187 1.361 . S
C183 H138 0.929 . S
C183 C182 1.377 . S
C183 C184 1.386 . S
C184 H139 0.931 . S
C184 C183 1.386 . S
C184 C185 1.363 . S
C185 C184 1.363 . S
C185 C186 1.385 . S
C186 H140 0.930 . S
C186 C185 1.385 . S
C186 C187 1.396 . S
C187 H141 0.929 . S
C187 C182 1.361 . S
C187 C186 1.396 . S
C188 O142 1.300 . S
C188 O143 1.209 . S
C188 C161 1.486 . S
C189 O144 1.199 . S
C189 O145 1.297 . S
C189 C173 1.476 . S
H190 O216 0.856 . S
H191 O219 0.854 . S
H192 C227 0.930 . S
H193 C228 0.930 . S
H194 C230 0.930 . S
H195 C231 0.930 . S
H196 C233 0.931 . S
H197 C234 0.930 . S
H198 C236 0.930 . S
H199 C237 0.929 . S
H200 C239 0.930 . S
H201 C240 0.931 . S
H202 C242 0.930 . S
H203 C243 0.929 . S
H204 C245 0.931 . S
H205 C246 0.930 . S
H206 C248 0.930 . S
H207 C249 0.932 . S
H208 C251 0.930 . S
H209 C252 0.929 . S
H210 C254 0.931 . S
H211 C255 0.930 . S
H212 C257 0.929 . S
H213 C258 0.931 . S
H214 C260 0.930 . S
H215 C261 0.929 . S
O216 H190 0.856 . S
O216 C262 1.300 . S
O217 C262 1.209 . S
O218 C263 1.199 . S
O219 H191 0.854 . S
O219 C263 1.297 . S
C220 C221 1.404 . S
C220 C225 1.397 . S
C220 C226 1.492 . S
C221 C220 1.404 . S
C221 C222 1.396 . S
C221 C232 1.492 . S
C222 C221 1.396 . S
C222 C223 1.397 . S
C222 C238 1.509 . S
C223 C222 1.397 . S
C223 C224 1.412 . S
C223 C244 1.485 . S
C224 C223 1.412 . S
C224 C225 1.388 . S
C224 C250 1.490 . S
C225 C220 1.397 . S
C225 C224 1.388 . S
C225 C256 1.519 . S
C226 C220 1.492 . S
C226 C227 1.363 . S
C226 C231 1.390 . S
C227 H192 0.930 . S
C227 C226 1.363 . S
C227 C228 1.372 . S
C228 H193 0.930 . S
C228 C227 1.372 . S
C228 C229 1.383 . S
C229 C228 1.383 . S
C229 C230 1.395 . S
C230 H194 0.930 . S
C230 C229 1.395 . S
C230 C231 1.362 . S
C231 H195 0.930 . S
C231 C226 1.390 . S
C231 C230 1.362 . S
C232 C221 1.492 . S
C232 C233 1.377 . S
C232 C237 1.397 . S
C233 H196 0.931 . S
C233 C232 1.377 . S
C233 C234 1.376 . S
C234 H197 0.930 . S
C234 C233 1.376 . S
C234 C235 1.376 . S
C235 C234 1.376 . S
C235 C236 1.378 . S
C235 C262 1.486 1_556 S
C236 H198 0.930 . S
C236 C235 1.378 . S
C236 C237 1.376 . S
C237 H199 0.929 . S
C237 C232 1.397 . S
C237 C236 1.376 . S
C238 C222 1.509 . S
C238 C239 1.391 . S
C238 C243 1.386 . S
C239 H200 0.930 . S
C239 C238 1.391 . S
C239 C240 1.375 . S
C240 H201 0.931 . S
C240 C239 1.375 . S
C240 C241 1.375 . S
C241 C240 1.375 . S
C241 C242 1.361 . S
C242 H202 0.930 . S
C242 C241 1.361 . S
C242 C243 1.399 . S
C243 H203 0.929 . S
C243 C238 1.386 . S
C243 C242 1.399 . S
C244 C223 1.485 . S
C244 C245 1.394 . S
C244 C249 1.360 . S
C245 H204 0.931 . S
C245 C244 1.394 . S
C245 C246 1.372 . S
C246 H205 0.930 . S
C246 C245 1.372 . S
C246 C247 1.397 . S
C247 C246 1.397 . S
C247 C248 1.390 . S
C247 C263 1.476 . S
C248 H206 0.930 . S
C248 C247 1.390 . S
C248 C249 1.366 . S
C249 H207 0.932 . S
C249 C244 1.360 . S
C249 C248 1.366 . S
C250 C224 1.490 . S
C250 C251 1.380 . S
C250 C255 1.386 . S
C251 H208 0.930 . S
C251 C250 1.380 . S
C251 C252 1.381 . S
C252 H209 0.929 . S
C252 C251 1.381 . S
C252 C253 1.371 . S
C253 C252 1.371 . S
C253 C254 1.380 . S
C254 H210 0.931 . S
C254 C253 1.380 . S
C254 C255 1.387 . S
C255 H211 0.930 . S
C255 C250 1.386 . S
C255 C254 1.387 . S
C256 C225 1.519 . S
C256 C257 1.377 . S
C256 C261 1.361 . S
C257 H212 0.929 . S
C257 C256 1.377 . S
C257 C258 1.386 . S
C258 H213 0.931 . S
C258 C257 1.386 . S
C258 C259 1.363 . S
C259 C258 1.363 . S
C259 C260 1.385 . S
C260 H214 0.930 . S
C260 C259 1.385 . S
C260 C261 1.396 . S
C261 H215 0.929 . S
C261 C256 1.361 . S
C261 C260 1.396 . S
C262 O216 1.300 . S
C262 O217 1.209 . S
C262 C235 1.486 1_554 S
C263 O218 1.199 . S
C263 O219 1.297 . S
C263 C247 1.476 . S
H264 C272 0.950 1_655 S
H265 C277 0.950 . S
H266 C274 0.950 1_655 S
H267 C276 0.950 . S
H268 C278 0.950 . S
H269 C280 0.950 . S
H270 C282 0.950 . S
H271 C283 0.950 . S
C272 H264 0.950 1_455 S
C272 C273 1.386 . S
C272 C274 1.391 . S
C273 C272 1.386 . S
C273 C277 1.393 . S
C274 H266 0.950 1_455 S
C274 C272 1.391 . S
C274 C275 1.400 . S
C275 C274 1.400 . S
C275 C276 1.398 . S
C275 C281 1.491 . S
C276 H267 0.950 . S
C276 C275 1.398 . S
C276 C277 1.391 . S
C277 H265 0.950 . S
C277 C273 1.393 . S
C277 C276 1.391 . S
C278 H268 0.950 . S
C278 C279 1.386 . S
C278 C280 1.391 . S
C279 C278 1.386 . S
C279 C283 1.393 1_455 S
C280 H269 0.950 . S
C280 C278 1.391 . S
C280 C281 1.400 . S
C281 C275 1.491 . S
C281 C280 1.400 . S
C281 C282 1.398 1_455 S
C282 H270 0.950 . S
C282 C281 1.398 1_655 S
C282 C283 1.391 . S
C283 H271 0.950 . S
C283 C279 1.393 1_655 S
C283 C282 1.391 . S
H284 C292 0.950 . S
H285 C297 0.950 . S
H286 C294 0.950 . S
H287 C296 0.950 . S
H288 C298 0.950 . S
H289 C300 0.950 . S
H290 C302 0.950 1_565 S
H291 C303 0.950 . S
C292 H284 0.950 . S
C292 C293 1.386 . S
C292 C294 1.391 . S
C293 C292 1.386 . S
C293 C297 1.393 1_565 S
C294 H286 0.950 . S
C294 C292 1.391 . S
C294 C295 1.400 1_565 S
C295 C294 1.400 1_545 S
C295 C296 1.398 . S
C295 C301 1.491 . S
C296 H287 0.950 . S
C296 C295 1.398 . S
C296 C297 1.391 . S
C297 H285 0.950 . S
C297 C293 1.393 1_545 S
C297 C296 1.391 . S
C298 H288 0.950 . S
C298 C299 1.386 . S
C298 C300 1.391 . S
C299 C298 1.386 . S
C299 C303 1.393 . S
C300 H289 0.950 . S
C300 C298 1.391 . S
C300 C301 1.400 . S
C301 C295 1.491 . S
C301 C300 1.400 . S
C301 C302 1.398 . S
C302 H290 0.950 1_545 S
C302 C301 1.398 . S
C302 C303 1.391 . S
C303 H291 0.950 . S
C303 C299 1.393 . S
C303 C302 1.391 . S
H304 C312 0.950 . S
H305 C317 0.950 . S
H306 C314 0.950 . S
H307 C316 0.950 . S
H308 C318 0.950 . S
H309 C320 0.950 . S
H310 C322 0.950 . S
H311 C323 0.950 . S
C312 H304 0.950 . S
C312 C313 1.386 . S
C312 C314 1.391 . S
C313 C312 1.386 . S
C313 C317 1.393 1_655 S
C314 H306 0.950 . S
C314 C312 1.391 . S
C314 C315 1.400 . S
C315 C314 1.400 . S
C315 C316 1.398 . S
C315 C321 1.491 . S
C316 H307 0.950 . S
C316 C315 1.398 . S
C316 C317 1.391 1_655 S
C317 H305 0.950 . S
C317 C313 1.393 1_455 S
C317 C316 1.391 1_455 S
C318 H308 0.950 . S
C318 C319 1.386 . S
C318 C320 1.391 . S
C319 C318 1.386 . S
C319 C323 1.393 . S
C320 H309 0.950 . S
C320 C318 1.391 . S
C320 C321 1.400 . S
C321 C315 1.491 . S
C321 C320 1.400 . S
C321 C322 1.398 . S
C322 H310 0.950 . S
C322 C321 1.398 . S
C322 C323 1.391 . S
C323 H311 0.950 . S
C323 C319 1.393 . S
C323 C322 1.391 . S
H324 C332 0.950 . S
H325 C337 0.950 . S
H326 C334 0.950 . S
H327 C336 0.950 . S
H328 C338 0.950 . S
H329 C340 0.950 . S
H330 C342 0.950 . S
H331 C343 0.950 . S
C332 H324 0.950 . S
C332 C333 1.386 . S
C332 C334 1.391 . S
C333 C332 1.386 . S
C333 C337 1.393 . S
C334 H326 0.950 . S
C334 C332 1.391 . S
C334 C335 1.400 . S
C335 C334 1.400 . S
C335 C336 1.398 . S
C335 C341 1.491 . S
C336 H327 0.950 . S
C336 C335 1.398 . S
C336 C337 1.391 . S
C337 H325 0.950 . S
C337 C333 1.393 . S
C337 C336 1.391 . S
C338 H328 0.950 . S
C338 C339 1.386 . S
C338 C340 1.391 . S
C339 C338 1.386 . S
C339 C343 1.393 . S
C340 H329 0.950 . S
C340 C338 1.391 . S
C340 C341 1.400 . S
C341 C335 1.491 . S
C341 C340 1.400 . S
C341 C342 1.398 . S
C342 H330 0.950 . S
C342 C341 1.398 . S
C342 C343 1.391 . S
C343 H331 0.950 . S
C343 C339 1.393 . S
C343 C342 1.391 . S
H344 C352 0.950 . S
H345 C357 0.950 1_565 S
H346 C354 0.950 . S
H347 C356 0.950 1_565 S
H348 C358 0.950 . S
H349 C360 0.950 . S
H350 C362 0.950 . S
H351 C363 0.950 . S
C352 H344 0.950 . S
C352 C353 1.386 . S
C352 C354 1.391 . S
C353 C352 1.386 . S
C353 C357 1.393 . S
C354 H346 0.950 . S
C354 C352 1.391 . S
C354 C355 1.400 . S
C355 C354 1.400 . S
C355 C356 1.398 . S
C355 C361 1.491 . S
C356 H347 0.950 1_545 S
C356 C355 1.398 . S
C356 C357 1.391 . S
C357 H345 0.950 1_545 S
C357 C353 1.393 . S
C357 C356 1.391 . S
C358 H348 0.950 . S
C358 C359 1.386 . S
C358 C360 1.391 . S
C359 C358 1.386 . S
C359 C363 1.393 . S
C360 H349 0.950 . S
C360 C358 1.391 . S
C360 C361 1.400 . S
C361 C355 1.491 . S
C361 C360 1.400 . S
C361 C362 1.398 . S
C362 H350 0.950 . S
C362 C361 1.398 . S
C362 C363 1.391 . S
C363 H351 0.950 . S
C363 C359 1.393 . S
C363 C362 1.391 . S
H364 C372 0.950 . S
H365 C377 0.950 . S
H366 C374 0.950 . S
H367 C376 0.950 . S
H368 C378 0.950 . S
H369 C380 0.950 . S
H370 C382 0.950 . S
H371 C383 0.950 . S
C372 H364 0.950 . S
C372 C373 1.386 . S
C372 C374 1.391 . S
C373 C372 1.386 . S
C373 C377 1.393 . S
C374 H366 0.950 . S
C374 C372 1.391 . S
C374 C375 1.400 . S
C375 C374 1.400 . S
C375 C376 1.398 . S
C375 C381 1.491 . S
C376 H367 0.950 . S
C376 C375 1.398 . S
C376 C377 1.391 . S
C377 H365 0.950 . S
C377 C373 1.393 . S
C377 C376 1.391 . S
C378 H368 0.950 . S
C378 C379 1.386 . S
C378 C380 1.391 . S
C379 C378 1.386 . S
C379 C383 1.393 . S
C380 H369 0.950 . S
C380 C378 1.391 . S
C380 C381 1.400 . S
C381 C375 1.491 . S
C381 C380 1.400 . S
C381 C382 1.398 . S
C382 H370 0.950 . S
C382 C381 1.398 . S
C382 C383 1.391 . S
C383 H371 0.950 . S
C383 C379 1.393 . S
C383 C382 1.391 . S
H384 C392 0.950 . S
H385 C397 0.950 . S
H386 C394 0.950 . S
H387 C396 0.950 . S
H388 C398 0.950 . S
H389 C400 0.950 . S
H390 C402 0.950 . S
H391 C403 0.950 . S
C392 H384 0.950 . S
C392 C393 1.386 . S
C392 C394 1.391 . S
C393 C392 1.386 . S
C393 C397 1.393 . S
C394 H386 0.950 . S
C394 C392 1.391 . S
C394 C395 1.400 . S
C395 C394 1.400 . S
C395 C396 1.398 . S
C395 C401 1.491 . S
C396 H387 0.950 . S
C396 C395 1.398 . S
C396 C397 1.391 . S
C397 H385 0.950 . S
C397 C393 1.393 . S
C397 C396 1.391 . S
C398 H388 0.950 . S
C398 C399 1.386 . S
C398 C400 1.391 . S
C399 C398 1.386 . S
C399 C403 1.393 . S
C400 H389 0.950 . S
C400 C398 1.391 . S
C400 C401 1.400 . S
C401 C395 1.491 . S
C401 C400 1.400 . S
C401 C402 1.398 . S
C402 H390 0.950 . S
C402 C401 1.398 . S
C402 C403 1.391 . S
C403 H391 0.950 . S
C403 C399 1.393 . S
C403 C402 1.391 . S
H404 C412 0.950 . S
H405 C417 0.950 . S
H406 C414 0.950 . S
H407 C416 0.950 . S
H408 C418 0.950 . S
H409 C420 0.950 . S
H410 C422 0.950 . S
H411 C423 0.950 . S
C412 H404 0.950 . S
C412 C413 1.386 . S
C412 C414 1.391 . S
C413 C412 1.386 . S
C413 C417 1.393 1_655 S
C414 H406 0.950 . S
C414 C412 1.391 . S
C414 C415 1.400 1_554 S
C415 C414 1.400 1_556 S
C415 C416 1.398 . S
C415 C421 1.491 . S
C416 H407 0.950 . S
C416 C415 1.398 . S
C416 C417 1.391 1_656 S
C417 H405 0.950 . S
C417 C413 1.393 1_455 S
C417 C416 1.391 1_454 S
C418 H408 0.950 . S
C418 C419 1.386 . S
C418 C420 1.391 . S
C419 C418 1.386 . S
C419 C423 1.393 . S
C420 H409 0.950 . S
C420 C418 1.391 . S
C420 C421 1.400 . S
C421 C415 1.491 . S
C421 C420 1.400 . S
C421 C422 1.398 . S
C422 H410 0.950 . S
C422 C421 1.398 . S
C422 C423 1.391 . S
C423 H411 0.950 . S
C423 C419 1.393 . S
C423 C422 1.391 . S
H424 C432 0.950 . S
H425 C437 0.950 . S
H426 C434 0.950 . S
H427 C436 0.950 . S
H428 C438 0.950 . S
H429 C440 0.950 . S
H430 C442 0.950 . S
H431 C443 0.950 . S
C432 H424 0.950 . S
C432 C433 1.386 1_455 S
C432 C434 1.391 . S
C433 C432 1.386 1_655 S
C433 C437 1.393 . S
C434 H426 0.950 . S
C434 C432 1.391 . S
C434 C435 1.400 1_455 S
C435 C434 1.400 1_655 S
C435 C436 1.398 . S
C435 C441 1.491 . S
C436 H427 0.950 . S
C436 C435 1.398 . S
C436 C437 1.391 . S
C437 H425 0.950 . S
C437 C433 1.393 . S
C437 C436 1.391 . S
C438 H428 0.950 . S
C438 C439 1.386 . S
C438 C440 1.391 . S
C439 C438 1.386 . S
C439 C443 1.393 1_655 S
C440 H429 0.950 . S
C440 C438 1.391 . S
C440 C441 1.400 . S
C441 C435 1.491 . S
C441 C440 1.400 . S
C441 C442 1.398 1_655 S
C442 H430 0.950 . S
C442 C441 1.398 1_455 S
C442 C443 1.391 . S
C443 H431 0.950 . S
C443 C439 1.393 1_455 S
C443 C442 1.391 . S
H444 C452 0.950 . S
H445 C457 0.950 . S
H446 C454 0.950 . S
H447 C456 0.950 . S
H448 C458 0.950 . S
H449 C460 0.950 . S
H450 C462 0.950 . S
H451 C463 0.950 . S
C452 H444 0.950 . S
C452 C453 1.386 . S
C452 C454 1.391 . S
C453 C452 1.386 . S
C453 C457 1.393 . S
C454 H446 0.950 . S
C454 C452 1.391 . S
C454 C455 1.400 . S
C455 C454 1.400 . S
C455 C456 1.398 . S
C455 C461 1.491 . S
C456 H447 0.950 . S
C456 C455 1.398 . S
C456 C457 1.391 . S
C457 H445 0.950 . S
C457 C453 1.393 . S
C457 C456 1.391 . S
C458 H448 0.950 . S
C458 C459 1.386 . S
C458 C460 1.391 . S
C459 C458 1.386 . S
C459 C463 1.393 . S
C460 H449 0.950 . S
C460 C458 1.391 . S
C460 C461 1.400 . S
C461 C455 1.491 . S
C461 C460 1.400 . S
C461 C462 1.398 . S
C462 H450 0.950 . S
C462 C461 1.398 . S
C462 C463 1.391 . S
C463 H451 0.950 . S
C463 C459 1.393 . S
C463 C462 1.391 . S
H464 C472 0.950 . S
H465 C477 0.950 . S
H466 C474 0.950 . S
H467 C476 1.002 . S
H468 C478 0.950 . S
H469 C480 0.950 . S
H470 C482 0.950 1_554 S
H471 C483 0.950 . S
C472 H464 0.950 . S
C472 C473 1.386 . S
C472 C474 1.391 . S
C473 C472 1.386 . S
C473 C477 1.393 . S
C474 H466 0.950 . S
C474 C472 1.391 . S
C474 C475 1.400 . S
C475 C474 1.400 . S
C475 C476 1.386 1_554 S
C475 C481 1.491 1_554 S
C476 H467 1.002 . S
C476 C475 1.386 1_556 S
C476 C477 1.354 1_556 S
C477 H465 0.950 . S
C477 C473 1.393 . S
C477 C476 1.354 1_554 S
C478 H468 0.950 . S
C478 C479 1.386 . S
C478 C480 1.391 . S
C479 C478 1.386 . S
C479 C483 1.393 . S
C480 H469 0.950 . S
C480 C478 1.391 . S
C480 C481 1.400 . S
C481 C475 1.491 1_556 S
C481 C480 1.400 . S
C481 C482 1.398 . S
C482 H470 0.950 1_556 S
C482 C481 1.398 . S
C482 C483 1.391 . S
C483 H471 0.950 . S
C483 C479 1.393 . S
C483 C482 1.391 . S
H484 C492 0.950 . S
H485 C497 0.950 . S
H486 C494 0.950 . S
H487 C496 0.950 . S
H488 C498 0.950 . S
H489 C500 0.950 . S
H490 C502 0.950 . S
H491 C503 0.950 . S
C492 H484 0.950 . S
C492 C493 1.386 . S
C492 C494 1.391 . S
C493 C492 1.386 . S
C493 C497 1.393 1_455 S
C494 H486 0.950 . S
C494 C492 1.391 . S
C494 C495 1.400 . S
C495 C494 1.400 . S
C495 C496 1.398 1_455 S
C495 C501 1.491 . S
C496 H487 0.950 . S
C496 C495 1.398 1_655 S
C496 C497 1.391 . S
C497 H485 0.950 . S
C497 C493 1.393 1_655 S
C497 C496 1.391 . S
C498 H488 0.950 . S
C498 C499 1.386 1_655 S
C498 C500 1.391 . S
C499 C498 1.386 1_455 S
C499 C503 1.393 . S
C500 H489 0.950 . S
C500 C498 1.391 . S
C500 C501 1.400 1_655 S
C501 C495 1.491 . S
C501 C500 1.400 1_455 S
C501 C502 1.398 . S
C502 H490 0.950 . S
C502 C501 1.398 . S
C502 C503 1.391 . S
C503 H491 0.950 . S
C503 C499 1.393 . S
C503 C502 1.391 . S
C279 C81 1.278 . S
C273 C11 1.376 . S
C293 C26 1.450 . S
C299 C155 1.389 . S
C313 C40 2.023 1_665 S
C319 C259 2.029 . S
C333 C5 0.681 1_565 S
C339 C93 0.696 . S
C359 C167 0.890 . S
C353 C18 0.869 . S
C373 C32 1.462 . S
C379 C253 1.382 . S
C399 C185 1.958 . S
C393 C39 1.947 1_655 S
C413 C4 1.359 1_665 S
C419 C229 1.328 . S
C439 C105 1.351 1_655 S
C433 C19 1.330 . S
C459 C179 1.228 . S
C453 C33 1.200 . S
C479 C241 0.742 . S
C473 C12 0.756 . S
C493 C25 2.094 . S
C499 C111 2.104 . S
