# Generated by pormake.
# Topology hwx, (6,3)-cn, num edge types: 1
# Building blocks:
#     Node 0, Type 0, BuildingBlock: OJICUG_clean_sbu_0, # of connection points: 6
#     Node 1, Type 0, BuildingBlock: OJICUG_clean_sbu_0, # of connection points: 6
#     Node 2, Type 0, BuildingBlock: OJICUG_clean_sbu_0, # of connection points: 6
#     Node 3, Type 0, BuildingBlock: OJICUG_clean_sbu_0, # of connection points: 6
#     Node 4, Type 1, BuildingBlock: BELTOD_clean_linker_0, # of connection points: 3
#     Node 5, Type 1, BuildingBlock: BELTOD_clean_linker_0, # of connection points: 3
#     Node 6, Type 1, BuildingBlock: BELTOD_clean_linker_0, # of connection points: 3
#     Node 7, Type 1, BuildingBlock: BELTOD_clean_linker_0, # of connection points: 3
#     Node 8, Type 1, BuildingBlock: BELTOD_clean_linker_0, # of connection points: 3
#     Node 9, Type 1, BuildingBlock: BELTOD_clean_linker_0, # of connection points: 3
#     Node 10, Type 1, BuildingBlock: BELTOD_clean_linker_0, # of connection points: 3
#     Node 11, Type 1, BuildingBlock: BELTOD_clean_linker_0, # of connection points: 3
#     Edge 12, Type (0, 1), BuildingBlock: TEMPAE_clean_linker_10, # of connection points: 2
#     Edge 13, Type (0, 1), BuildingBlock: TEMPAE_clean_linker_10, # of connection points: 2
#     Edge 14, Type (0, 1), BuildingBlock: TEMPAE_clean_linker_10, # of connection points: 2
#     Edge 15, Type (0, 1), BuildingBlock: TEMPAE_clean_linker_10, # of connection points: 2
#     Edge 16, Type (0, 1), BuildingBlock: TEMPAE_clean_linker_10, # of connection points: 2
#     Edge 17, Type (0, 1), BuildingBlock: TEMPAE_clean_linker_10, # of connection points: 2
#     Edge 18, Type (0, 1), BuildingBlock: TEMPAE_clean_linker_10, # of connection points: 2
#     Edge 19, Type (0, 1), BuildingBlock: TEMPAE_clean_linker_10, # of connection points: 2
#     Edge 20, Type (0, 1), BuildingBlock: TEMPAE_clean_linker_10, # of connection points: 2
#     Edge 21, Type (0, 1), BuildingBlock: TEMPAE_clean_linker_10, # of connection points: 2
#     Edge 22, Type (0, 1), BuildingBlock: TEMPAE_clean_linker_10, # of connection points: 2
#     Edge 23, Type (0, 1), BuildingBlock: TEMPAE_clean_linker_10, # of connection points: 2
#     Edge 24, Type (0, 1), BuildingBlock: TEMPAE_clean_linker_10, # of connection points: 2
#     Edge 25, Type (0, 1), BuildingBlock: TEMPAE_clean_linker_10, # of connection points: 2
#     Edge 26, Type (0, 1), BuildingBlock: TEMPAE_clean_linker_10, # of connection points: 2
#     Edge 27, Type (0, 1), BuildingBlock: TEMPAE_clean_linker_10, # of connection points: 2
#     Edge 28, Type (0, 1), BuildingBlock: TEMPAE_clean_linker_10, # of connection points: 2
#     Edge 29, Type (0, 1), BuildingBlock: TEMPAE_clean_linker_10, # of connection points: 2
#     Edge 30, Type (0, 1), BuildingBlock: TEMPAE_clean_linker_10, # of connection points: 2
#     Edge 31, Type (0, 1), BuildingBlock: TEMPAE_clean_linker_10, # of connection points: 2
#     Edge 32, Type (0, 1), BuildingBlock: TEMPAE_clean_linker_10, # of connection points: 2
#     Edge 33, Type (0, 1), BuildingBlock: TEMPAE_clean_linker_10, # of connection points: 2
#     Edge 34, Type (0, 1), BuildingBlock: TEMPAE_clean_linker_10, # of connection points: 2
#     Edge 35, Type (0, 1), BuildingBlock: TEMPAE_clean_linker_10, # of connection points: 2
# Relax obj value: 0.069
# Max RMSD: 0.096
# Mean RMSD: 0.086
data_MOF--net-hwx--node1-OJICUG_clean_sbu_0--node2-BELTOD_clean_linker_0--edge1-TEMPAE_clean_linker_10
_symmetry_space_group_name_H-M    P1
_symmetry_Int_Tables_number       1
_symmetry_cell_setting            triclinic
loop_
_symmetry_equiv_pos_as_xyz
'x, y, z'
_cell_length_a     57.309073
_cell_length_b     57.314934
_cell_length_c     25.531342
_cell_angle_alpha  89.366322
_cell_angle_beta   90.623026
_cell_angle_gamma 90.004919
loop_
_atom_site_label
_atom_site_type_symbol
_atom_site_fract_x
_atom_site_fract_y
_atom_site_fract_z
_atom_type_partial_charge
Sc0 Sc 0.20711 0.20565 0.07133 0.0
Sc1 Sc 0.16863 0.16705 0.00759 0.0
Sc2 Sc 0.20602 0.20381 0.93469 0.0
O3 O 0.19385 0.19213 0.00447 0.0
C4 C 0.20326 0.25088 0.00076 0.0
C5 C 0.15327 0.19959 0.10071 0.0
C6 C 0.15156 0.19969 0.91169 0.0
C7 C 0.20432 0.15174 0.09929 0.0
C8 C 0.25286 0.20296 0.0004 0.0
C9 C 0.19973 0.1493 0.91369 0.0
O10 O 0.20115 0.24097 0.04523 0.0
O11 O 0.14803 0.18605 0.06329 0.0
O12 O 0.17141 0.20904 0.9049 0.0
O13 O 0.21417 0.17155 0.10217 0.0
O14 O 0.24203 0.19979 0.9574 0.0
O15 O 0.18642 0.14518 0.95224 0.0
O16 O 0.24238 0.20648 0.04319 0.0
O17 O 0.18671 0.14779 0.06972 0.0
O18 O 0.2072 0.16955 0.90227 0.0
O19 O 0.17391 0.20679 0.10903 0.0
O20 O 0.20648 0.23972 0.95869 0.0
O21 O 0.14794 0.18375 0.9459 0.0
Sc22 Sc 0.27557 0.71315 0.41924 0.0
Sc23 Sc 0.32266 0.68396 0.48093 0.0
Sc24 Sc 0.27933 0.71094 0.55687 0.0
O25 O 0.29249 0.70258 0.48572 0.0
C26 C 0.27288 0.75819 0.49106 0.0
C27 C 0.32891 0.7204 0.38718 0.0
C28 C 0.33405 0.71734 0.57678 0.0
C29 C 0.29105 0.66158 0.39042 0.0
C30 C 0.23236 0.70116 0.49264 0.0
C31 C 0.29638 0.6588 0.57623 0.0
O32 O 0.27268 0.74834 0.44667 0.0
O33 O 0.33734 0.7065 0.42157 0.0
O34 O 0.3128 0.72038 0.58828 0.0
O35 O 0.27732 0.67893 0.38562 0.0
O36 O 0.2439 0.70275 0.5352 0.0
O37 O 0.31135 0.65912 0.53975 0.0
O38 O 0.24158 0.70427 0.44811 0.0
O39 O 0.30826 0.66115 0.42234 0.0
O40 O 0.28332 0.67601 0.58671 0.0
O41 O 0.30716 0.72398 0.38164 0.0
O42 O 0.27475 0.74694 0.53412 0.0
O43 O 0.34054 0.7051 0.53836 0.0
Sc44 Sc 0.76118 0.76235 0.93274 0.0
Sc45 Sc 0.79979 0.79764 0.00477 0.0
Sc46 Sc 0.7612 0.76022 0.07137 0.0
O47 O 0.77403 0.77341 0.00298 0.0
C48 C 0.71506 0.766 0.00165 0.0
C49 C 0.76755 0.81675 0.91056 0.0
C50 C 0.76793 0.81407 0.0991 0.0
C51 C 0.81572 0.76624 0.90955 0.0
C52 C 0.76395 0.71502 -0.00069 0.0
C53 C 0.81552 0.76332 0.09805 0.0
O54 O 0.72545 0.76476 0.958 0.0
O55 O 0.78307 0.81926 0.94601 0.0
O56 O 0.75878 0.79413 0.10704 0.0
O57 O 0.79534 0.75881 0.89872 0.0
O58 O 0.76241 0.72477 0.04368 0.0
O59 O 0.81953 0.77885 0.0634 0.0
O60 O 0.76386 0.72634 0.95624 0.0
O61 O 0.81991 0.77999 0.94712 0.0
O62 O 0.79536 0.75473 0.10557 0.0
O63 O 0.7577 0.79729 0.90158 0.0
O64 O 0.72572 0.76475 0.04546 0.0
O65 O 0.78265 0.81789 0.06317 0.0
Sc66 Sc 0.71005 0.2756 0.57573 0.0
Sc67 Sc 0.68444 0.32335 0.50898 0.0
Sc68 Sc 0.70833 0.27687 0.43791 0.0
O69 O 0.70085 0.2919 0.50751 0.0
C70 C 0.75521 0.26974 0.50563 0.0
C71 C 0.71942 0.32897 0.60523 0.0
C72 C 0.71885 0.3307 0.41332 0.0
C73 C 0.65913 0.294 0.59997 0.0
C74 C 0.69668 0.23159 0.50562 0.0
C75 C 0.65752 0.2972 0.41569 0.0
O76 O 0.74541 0.27158 0.54993 0.0
O77 O 0.70763 0.33761 0.56738 0.0
O78 O 0.72022 0.30907 0.40357 0.0
O79 O 0.6753 0.27893 0.60588 0.0
O80 O 0.69764 0.24247 0.46216 0.0
O81 O 0.65929 0.31304 0.45007 0.0
O82 O 0.70107 0.24129 0.54904 0.0
O83 O 0.66046 0.31121 0.56808 0.0
O84 O 0.67358 0.2824 0.40754 0.0
O85 O 0.72091 0.30716 0.6136 0.0
O86 O 0.74396 0.27044 0.46231 0.0
O87 O 0.707 0.33868 0.45091 0.0
P88 P 0.29403 0.48249 0.99035 0.0
H89 H 0.30918 0.48351 0.09978 0.0
H90 H 0.30333 0.51181 0.16966 0.0
H91 H 0.26062 0.55379 0.06489 0.0
H92 H 0.26624 0.52531 0.9954 0.0
H93 H 0.28221 0.44663 0.91439 0.0
H94 H 0.25728 0.41196 0.9193 0.0
H95 H 0.23726 0.43048 0.07578 0.0
H96 H 0.26133 0.46561 0.07022 0.0
H97 H 0.32649 0.51649 0.95002 0.0
H98 H 0.26157 0.48569 0.8993 0.0
O99 O 0.32044 0.47081 -0.00033 0.0
H100 H 0.32634 0.54171 0.87294 0.0
H101 H 0.26229 0.50923 0.81942 0.0
C102 C 0.28865 0.50267 0.04218 0.0
C103 C 0.29851 0.49877 0.09196 0.0
C104 C 0.295 0.51481 0.13189 0.0
C105 C 0.28167 0.53502 0.12239 0.0
C106 C 0.27119 0.53847 0.07292 0.0
C107 C 0.27446 0.52226 0.03325 0.0
C108 C 0.27317 0.45907 0.99128 0.0
C109 C 0.27182 0.4437 0.94903 0.0
C110 C 0.25763 0.42395 0.95182 0.0
C111 C 0.24523 0.41891 0.99764 0.0
C112 C 0.24646 0.43431 0.03985 0.0
C113 C 0.26025 0.45435 0.03658 0.0
C114 C 0.29445 0.49875 0.92971 0.0
C115 C 0.31256 0.51466 0.92133 0.0
C116 C 0.31251 0.52897 0.87681 0.0
C117 C 0.29447 0.5274 0.83909 0.0
C118 C 0.2764 0.51116 0.84756 0.0
C119 C 0.27617 0.49729 0.89295 0.0
P120 P 0.99193 0.77538 0.51037 0.0
H121 H 0.98735 0.79921 0.61044 0.0
H122 H 0.96146 0.7926 0.68456 0.0
H123 H 0.93679 0.72892 0.61384 0.0
H124 H 0.963 0.73551 0.54002 0.0
H125 H 0.03097 0.78198 0.44107 0.0
H126 H 0.06921 0.76342 0.43556 0.0
H127 H 0.05075 0.71625 0.56167 0.0
H128 H 0.01228 0.73461 0.56619 0.0
H129 H 0.9449 0.79128 0.49077 0.0
H130 H 0.99512 0.74821 0.41247 0.0
O131 O 0.99803 0.80385 0.5105 0.0
H132 H 0.91684 0.78485 0.42012 0.0
H133 H 0.96744 0.74252 0.34016 0.0
C134 C 0.97673 0.76805 0.56948 0.0
C135 C 0.97669 0.78363 0.6113 0.0
C136 C 0.96182 0.77988 0.6535 0.0
C137 C 0.94685 0.76044 0.6545 0.0
C138 C 0.94816 0.74401 0.61418 0.0
C139 C 0.96303 0.74781 0.57193 0.0
C140 C 0.01897 0.75987 0.5044 0.0
C141 C 0.03511 0.76752 0.46723 0.0
C142 C 0.05695 0.75696 0.46428 0.0
C143 C 0.06308 0.73858 0.49867 0.0
C144 C 0.04648 0.73031 0.53454 0.0
C145 C 0.02454 0.7409 0.53736 0.0
C146 C 0.97207 0.77032 0.45679 0.0
C147 C 0.94993 0.78057 0.45806 0.0
C148 C 0.93397 0.77699 0.41743 0.0
C149 C 0.93996 0.76334 0.37417 0.0
C150 C 0.96221 0.75296 0.37311 0.0
C151 C 0.97815 0.75639 0.41424 0.0
P152 P 0.83418 0.46852 0.01202 0.0
H153 H 0.8463 0.46406 0.90188 0.0
H154 H 0.82748 0.44415 0.82834 0.0
H155 H 0.7737 0.41901 0.93226 0.0
H156 H 0.79197 0.43977 0.00448 0.0
H157 H 0.85931 0.51284 0.0004 0.0
H158 H 0.84614 0.55324 0.99447 0.0
H159 H 0.77458 0.53002 0.00821 0.0
H160 H 0.78795 0.48962 0.01071 0.0
H161 H 0.83993 0.42161 0.05459 0.0
H162 H 0.81027 0.48663 0.10561 0.0
O163 O 0.86314 0.46704 0.00694 0.0
H164 H 0.82416 0.4019 0.1322 0.0
H165 H 0.79409 0.46693 0.1821 0.0
C166 C 0.82089 0.45287 0.95883 0.0
C167 C 0.83052 0.45413 0.9087 0.0
C168 C 0.81977 0.44269 0.86677 0.0
C169 C 0.7991 0.42986 0.87434 0.0
C170 C 0.78942 0.42893 0.92474 0.0
C171 C 0.80006 0.44054 0.9664 0.0
C172 C 0.82459 0.49832 0.00645 0.0
C173 C 0.84079 0.51647 0.00174 0.0
C174 C 0.8332 0.53962 0.99884 0.0
C175 C 0.80926 0.54504 0.0014 0.0
C176 C 0.7931 0.52662 0.00538 0.0
C177 C 0.80071 0.50348 0.00724 0.0
C178 C 0.82586 0.45544 0.07358 0.0
C179 C 0.83032 0.4317 0.08277 0.0
C180 C 0.82136 0.42049 0.1271 0.0
C181 C 0.80771 0.43289 0.16272 0.0
C182 C 0.80429 0.45693 0.15478 0.0
C183 C 0.81348 0.46817 0.1108 0.0
P184 P 0.00875 0.30254 0.50289 0.0
H185 H 0.00497 0.31008 0.39021 0.0
H186 H 0.02325 0.29117 0.31541 0.0
H187 H 0.06255 0.24675 0.42206 0.0
H188 H 0.04406 0.2653 0.49603 0.0
H189 H 0.96941 0.32799 0.54509 0.0
H190 H 0.92733 0.3209 0.54331 0.0
H191 H 0.93822 0.25989 0.44852 0.0
H192 H 0.98022 0.26671 0.45187 0.0
H193 H 0.04355 0.3177 0.57985 0.0
H194 H 0.99672 0.25955 0.55911 0.0
O195 O 0.01438 0.33111 0.50141 0.0
H196 H 0.05987 0.29901 0.65857 0.0
H197 H 0.01276 0.24087 0.63821 0.0
C198 C 0.02312 0.28913 0.44861 0.0
C199 C 0.01756 0.29628 0.39731 0.0
C200 C 0.02802 0.28549 0.35469 0.0
C201 C 0.04421 0.26733 0.36281 0.0
C202 C 0.04979 0.26035 0.41442 0.0
C203 C 0.03933 0.27113 0.4569 0.0
C204 C 0.97781 0.29821 0.49762 0.0
C205 C 0.96266 0.31326 0.52346 0.0
C206 C 0.93864 0.3092 0.52229 0.0
C207 C 0.92943 0.2899 0.4955 0.0
C208 C 0.94477 0.27481 0.46978 0.0
C209 C 0.96878 0.27886 0.47114 0.0
C210 C 0.0187 0.29018 0.56418 0.0
C211 C 0.03643 0.30115 0.59289 0.0
C212 C 0.04567 0.29048 0.63799 0.0
C213 C 0.03749 0.26852 0.65475 0.0
C214 C 0.01944 0.25775 0.6262 0.0
C215 C 0.01016 0.26849 0.58121 0.0
P216 P 0.76764 0.99447 0.49881 0.0
H217 H 0.80172 0.97016 0.43554 0.0
H218 H 0.79791 0.94073 0.36777 0.0
H219 H 0.72279 0.94419 0.3796 0.0
H220 H 0.72682 0.9743 0.44647 0.0
H221 H 0.73933 0.01961 0.57524 0.0
H222 H 0.71769 0.05633 0.56842 0.0
H223 H 0.73152 0.0596 0.40263 0.0
H224 H 0.75292 0.02272 0.40947 0.0
H225 H 0.80097 0.97817 0.57816 0.0
H226 H 0.72705 0.97246 0.54748 0.0
O227 O 0.79437 0.00601 0.49794 0.0
H228 H 0.79749 0.9511 0.65198 0.0
H229 H 0.72348 0.94487 0.62104 0.0
C230 C 0.76455 0.97463 0.4453 0.0
C231 C 0.78443 0.96487 0.42296 0.0
C232 C 0.78221 0.94784 0.38463 0.0
C233 C 0.76004 0.93999 0.36852 0.0
C234 C 0.7401 0.95003 0.39073 0.0
C235 C 0.74237 0.96718 0.42899 0.0
C236 C 0.74736 0.01825 0.49265 0.0
C237 C 0.73702 0.02776 0.5371 0.0
C238 C 0.72464 0.04874 0.53319 0.0
C239 C 0.72294 0.06072 0.48498 0.0
C240 C 0.73257 0.05066 0.4402 0.0
C241 C 0.7447 0.02959 0.44406 0.0
C242 C 0.76421 0.9775 0.55777 0.0
C243 C 0.7839 0.97137 0.5878 0.0
C244 C 0.78193 0.95572 0.62973 0.0
C245 C 0.76024 0.94572 0.64204 0.0
C246 C 0.74038 0.95244 0.61277 0.0
C247 C 0.7424 0.96814 0.57072 0.0
P248 P 0.4811 0.31151 -0.00036 0.0
H249 H 0.48028 0.32307 0.88805 0.0
H250 H 0.50756 0.3151 0.81714 0.0
H251 H 0.55023 0.27422 0.9242 0.0
H252 H 0.52301 0.28212 0.9946 0.0
H253 H 0.43972 0.3134 0.06323 0.0
H254 H 0.40399 0.29013 0.0654 0.0
H255 H 0.43146 0.24551 0.94545 0.0
H256 H 0.46734 0.26862 0.94418 0.0
H257 H 0.51057 0.34568 0.05141 0.0
H258 H 0.4887 0.27463 0.07859 0.0
O259 O 0.47179 0.3388 0.98951 0.0
H260 H 0.5367 0.34322 0.12742 0.0
H261 H 0.5153 0.27177 0.15399 0.0
C262 C 0.49998 0.30376 0.94683 0.0
C263 C 0.49545 0.31229 0.8961 0.0
C264 C 0.51092 0.30759 0.8556 0.0
C265 C 0.53113 0.29428 0.86544 0.0
C266 C 0.53498 0.28485 0.91581 0.0
C267 C 0.51943 0.28941 0.95609 0.0
C268 C 0.45596 0.29292 0.00312 0.0
C269 C 0.43808 0.29851 0.03767 0.0
C270 C 0.41767 0.28527 0.03871 0.0
C271 C 0.41483 0.26617 0.00512 0.0
C272 C 0.4332 0.26007 0.97189 0.0
C273 C 0.45365 0.27338 0.97089 0.0
C274 C 0.49744 0.3105 0.06005 0.0
C275 C 0.51112 0.32967 0.07433 0.0
C276 C 0.52623 0.32814 0.11744 0.0
C277 C 0.52818 0.30725 0.14658 0.0
C278 C 0.51398 0.2882 0.13281 0.0
C279 C 0.49877 0.28981 0.08973 0.0
P280 P 0.3093 0.011 0.5176 0.0
H281 H 0.32233 0.01218 0.62837 0.0
H282 H 0.30253 0.02711 0.70571 0.0
H283 H 0.24502 0.05024 0.60709 0.0
H284 H 0.26436 0.03452 0.53102 0.0
H285 H 0.33587 0.97292 0.47257 0.0
H286 H 0.32858 0.93095 0.46668 0.0
H287 H 0.26498 0.93938 0.55404 0.0
H288 H 0.272 0.98122 0.55826 0.0
H289 H 0.31112 0.05858 0.47812 0.0
H290 H 0.28089 0.99326 0.42932 0.0
O291 O 0.33782 0.01661 0.52154 0.0
H292 H 0.29206 0.07842 0.4038 0.0
H293 H 0.26191 0.01299 0.35505 0.0
C294 C 0.29514 0.02285 0.57387 0.0
C295 C 0.30549 0.02056 0.6236 0.0
C296 C 0.29415 0.02907 0.6677 0.0
C297 C 0.27219 0.03992 0.66263 0.0
C298 C 0.26174 0.04171 0.61264 0.0
C299 C 0.27301 0.03307 0.5688 0.0
C300 C 0.30478 0.98003 0.51686 0.0
C301 C 0.32051 0.96563 0.49086 0.0
C302 C 0.31633 0.94168 0.48762 0.0
C303 C 0.29624 0.93184 0.5101 0.0
C304 C 0.28049 0.94644 0.53592 0.0
C305 C 0.28464 0.97036 0.53891 0.0
C306 C 0.29759 0.02448 0.45905 0.0
C307 C 0.30066 0.04847 0.45101 0.0
C308 C 0.28963 0.05979 0.40887 0.0
C309 C 0.27541 0.04723 0.37393 0.0
C310 C 0.27289 0.02304 0.38123 0.0
C311 C 0.28376 0.01176 0.42373 0.0
P312 P 0.468 0.83445 0.97777 0.0
H313 H 0.44831 0.85283 0.07475 0.0
H314 H 0.42659 0.83436 0.146 0.0
H315 H 0.43287 0.7677 0.06966 0.0
H316 H 0.45352 0.78649 0.99774 0.0
H317 H 0.51043 0.85868 0.01204 0.0
H318 H 0.55112 0.84631 0.0203 0.0
H319 H 0.53201 0.77784 0.96467 0.0
H320 H 0.49139 0.79008 0.95864 0.0
H321 H 0.41969 0.82979 0.94329 0.0
H322 H 0.48785 0.82001 0.87672 0.0
O323 O 0.46607 0.86344 0.98107 0.0
H324 H 0.40165 0.81389 0.86393 0.0
H325 H 0.46986 0.80323 0.79834 0.0
C326 C 0.45234 0.82105 0.03082 0.0
C327 C 0.44489 0.83427 0.07332 0.0
C328 C 0.43265 0.82363 0.11427 0.0
C329 C 0.42789 0.79953 0.11355 0.0
C330 C 0.43583 0.78635 0.07113 0.0
C331 C 0.44785 0.79703 0.03013 0.0
C332 C 0.49798 0.82543 0.98375 0.0
C333 C 0.51504 0.84102 0.00162 0.0
C334 C 0.53832 0.83394 0.00609 0.0
C335 C 0.54492 0.81112 0.99272 0.0
C336 C 0.52758 0.79545 0.97588 0.0
C337 C 0.50432 0.80248 0.972 0.0
C338 C 0.45511 0.82527 0.91675 0.0
C339 C 0.43077 0.82428 0.91162 0.0
C340 C 0.42048 0.81533 0.86627 0.0
C341 C 0.43445 0.80714 0.82552 0.0
C342 C 0.4588 0.80918 0.82963 0.0
C343 C 0.46905 0.81859 0.8746 0.0
C344 C 0.14114 0.21716 0.18498 0.0
C345 C 0.13483 0.20771 0.13638 0.0
C346 C 0.12431 0.2259 0.21884 0.0
C347 C 0.1005 0.2254 0.2037 0.0
C348 C 0.09388 0.21566 0.155 0.0
C349 C 0.11115 0.2068 0.12193 0.0
C350 C 0.13208 0.2359 0.27072 0.0
C351 C 0.06865 0.21501 0.13753 0.0
C352 C 0.05968 0.23193 0.31817 0.0
C353 C 0.05592 0.25612 0.318 0.0
C354 C 0.07305 0.22141 0.27926 0.0
C355 C 0.08282 0.23543 0.23915 0.0
C356 C 0.07795 0.25964 0.23701 0.0
C357 C 0.06458 0.26972 0.27655 0.0
C358 C 0.07781 0.19553 0.28285 0.0
C359 C 0.088 0.27516 0.19473 0.0
H360 H 0.15936 0.21774 0.19675 0.0
H361 H 0.10615 0.19962 0.08434 0.0
H362 H 0.12711 0.25458 0.27261 0.0
H363 H 0.12321 0.22669 0.30334 0.0
H364 H 0.15124 0.23449 0.27706 0.0
H365 H 0.0663 0.20619 0.0993 0.0
H366 H 0.05798 0.20579 0.16728 0.0
H367 H 0.06176 0.23305 0.1339 0.0
H368 H 0.05261 0.22126 0.34953 0.0
H369 H 0.06186 0.28843 0.27629 0.0
H370 H 0.0964 0.19261 0.29356 0.0
H371 H 0.07468 0.18721 0.24439 0.0
H372 H 0.06679 0.18671 0.31264 0.0
H373 H 0.10713 0.27678 0.20084 0.0
H374 H 0.08025 0.29293 0.19475 0.0
H375 H 0.08512 0.26739 0.15559 0.0
C376 C 0.29309 0.64071 0.66448 0.0
C377 C 0.29499 0.63798 0.61029 0.0
C378 C 0.2928 0.62129 0.69822 0.0
C379 C 0.29359 0.59858 0.67699 0.0
C380 C 0.29484 0.59572 0.62205 0.0
C381 C 0.296 0.61553 0.58929 0.0
C382 C 0.29216 0.62511 0.75665 0.0
C383 C 0.29484 0.57178 0.59798 0.0
C384 C 0.31501 0.55129 0.77043 0.0
C385 C 0.29406 0.54352 0.79278 0.0
C386 C 0.31509 0.56873 0.7315 0.0
C387 C 0.29366 0.57801 0.71286 0.0
C388 C 0.2724 0.56911 0.73236 0.0
C389 C 0.27284 0.55228 0.77269 0.0
C390 C 0.33817 0.5781 0.71247 0.0
C391 C 0.24916 0.5781 0.7123 0.0
H392 H 0.29255 0.65812 0.68063 0.0
H393 H 0.29729 0.61351 0.54725 0.0
H394 H 0.27626 0.61702 0.7733 0.0
H395 H 0.30744 0.61656 0.77583 0.0
H396 H 0.2923 0.64391 0.76676 0.0
H397 H 0.29463 0.57259 0.55449 0.0
H398 H 0.31053 0.56193 0.61116 0.0
H399 H 0.27937 0.56178 0.61127 0.0
H400 H 0.3315 0.54419 0.78427 0.0
H401 H 0.2565 0.54672 0.7897 0.0
H402 H 0.33997 0.59666 0.7238 0.0
H403 H 0.33892 0.57749 0.66914 0.0
H404 H 0.35326 0.56822 0.72902 0.0
H405 H 0.24628 0.59604 0.7267 0.0
H406 H 0.23442 0.56697 0.72547 0.0
H407 H 0.24895 0.57896 0.66885 0.0
C408 C 0.83015 0.74864 0.18486 0.0
C409 C 0.83486 0.75671 0.13402 0.0
C410 C 0.8481 0.74643 0.2224 0.0
C411 C 0.87127 0.75211 0.20839 0.0
C412 C 0.87636 0.75836 0.15599 0.0
C413 C 0.85805 0.76076 0.11949 0.0
C414 C 0.84195 0.73984 0.27798 0.0
C415 C 0.90092 0.76408 0.13927 0.0
C416 C 0.90925 0.77926 0.31341 0.0
C417 C 0.92302 0.76034 0.33029 0.0
C418 C 0.89239 0.7767 0.27386 0.0
C419 C 0.88944 0.75476 0.24979 0.0
C420 C 0.90363 0.73568 0.26557 0.0
C421 C 0.92021 0.73866 0.30591 0.0
C422 C 0.87757 0.7975 0.25817 0.0
C423 C 0.90112 0.71213 0.24027 0.0
H424 H 0.81227 0.74545 0.19634 0.0
H425 H 0.86184 0.76665 0.07998 0.0
H426 H 0.85416 0.72642 0.29372 0.0
H427 H 0.84362 0.75541 0.30319 0.0
H428 H 0.82384 0.73308 0.281 0.0
H429 H 0.90247 0.76505 0.09596 0.0
H430 H 0.90615 0.78118 0.1556 0.0
H431 H 0.91339 0.75083 0.15471 0.0
H432 H 0.91168 0.79619 0.33117 0.0
H433 H 0.93065 0.72391 0.31901 0.0
H434 H 0.85883 0.79334 0.26359 0.0
H435 H 0.88004 0.80171 0.21608 0.0
H436 H 0.88187 0.81325 0.28135 0.0
H437 H 0.88345 0.70501 0.24768 0.0
H438 H 0.91427 0.69939 0.25525 0.0
H439 H 0.90297 0.71387 0.19719 0.0
C440 C 0.73578 0.36826 0.62803 0.0
C441 C 0.73171 0.34484 0.64176 0.0
C442 C 0.74732 0.38334 0.66275 0.0
C443 C 0.75463 0.37488 0.71258 0.0
C444 C 0.7506 0.35127 0.7266 0.0
C445 C 0.73934 0.33653 0.69094 0.0
C446 C 0.75164 0.40833 0.6462 0.0
C447 C 0.7579 0.34165 0.77962 0.0
C448 C 0.80125 0.40534 0.79352 0.0
C449 C 0.78775 0.41723 0.83024 0.0
C450 C 0.79069 0.39222 0.75366 0.0
C451 C 0.76605 0.3907 0.75085 0.0
C452 C 0.75233 0.40313 0.78685 0.0
C453 C 0.76333 0.41637 0.82582 0.0
C454 C 0.8059 0.37938 0.71561 0.0
C455 C 0.726 0.40185 0.7853 0.0
H456 H 0.7301 0.37478 0.58997 0.0
H457 H 0.73619 0.3185 0.70204 0.0
H458 H 0.74251 0.42032 0.67294 0.0
H459 H 0.77055 0.41234 0.64905 0.0
H460 H 0.74555 0.41198 0.60547 0.0
H461 H 0.75354 0.32286 0.78436 0.0
H462 H 0.77698 0.34383 0.78546 0.0
H463 H 0.74913 0.35151 0.81097 0.0
H464 H 0.82011 0.40569 0.79683 0.0
H465 H 0.75275 0.42591 0.85323 0.0
H466 H 0.80028 0.38328 0.67473 0.0
H467 H 0.80403 0.36029 0.72191 0.0
H468 H 0.82463 0.38403 0.72009 0.0
H469 H 0.71934 0.40689 0.74583 0.0
H470 H 0.71785 0.41334 0.81469 0.0
H471 H 0.72032 0.38363 0.79298 0.0
C472 C 0.63292 0.27866 0.34581 0.0
C473 C 0.63633 0.29672 0.3818 0.0
C474 C 0.61406 0.2791 0.31031 0.0
C475 C 0.5983 0.2981 0.31062 0.0
C476 C 0.60107 0.3159 0.34814 0.0
C477 C 0.62001 0.31497 0.38337 0.0
C478 C 0.61155 0.25968 0.27113 0.0
C479 C 0.58463 0.33646 0.34957 0.0
C480 C 0.56836 0.31416 0.1822 0.0
C481 C 0.5459 0.305 0.18922 0.0
C482 C 0.58549 0.31206 0.2215 0.0
C483 C 0.58011 0.30036 0.26896 0.0
C484 C 0.55753 0.29096 0.27634 0.0
C485 C 0.54066 0.2934 0.23633 0.0
C486 C 0.6094 0.32228 0.21209 0.0
C487 C 0.55123 0.27834 0.32644 0.0
H488 H 0.64527 0.26436 0.34454 0.0
H489 H 0.6224 0.32899 0.41107 0.0
H490 H 0.59353 0.25262 0.27152 0.0
H491 H 0.61472 0.26663 0.2311 0.0
H492 H 0.62398 0.24516 0.27907 0.0
H493 H 0.58805 0.34783 0.38377 0.0
H494 H 0.58652 0.34709 0.31327 0.0
H495 H 0.56627 0.33038 0.35098 0.0
H496 H 0.57269 0.32271 0.1455 0.0
H497 H 0.52328 0.28643 0.24212 0.0
H498 H 0.62279 0.30832 0.21455 0.0
H499 H 0.61369 0.33517 0.24286 0.0
H500 H 0.61066 0.33106 0.17321 0.0
H501 H 0.56313 0.26331 0.33309 0.0
H502 H 0.53296 0.27185 0.32582 0.0
H503 H 0.55347 0.29018 0.36021 0.0
C504 C 0.21009 0.10723 0.90093 0.0
C505 C 0.20741 0.12989 0.88047 0.0
C506 C 0.21966 0.08942 0.87038 0.0
C507 C 0.22629 0.09444 0.81817 0.0
C508 C 0.22265 0.11705 0.79681 0.0
C509 C 0.21342 0.1345 0.82832 0.0
C510 C 0.2235 0.06555 0.8945 0.0
C511 C 0.22911 0.12304 0.74101 0.0
C512 C 0.27374 0.06331 0.7449 0.0
C513 C 0.26064 0.05051 0.70846 0.0
C514 C 0.26275 0.07628 0.78381 0.0
C515 C 0.23808 0.07666 0.78591 0.0
C516 C 0.22483 0.06253 0.7516 0.0
C517 C 0.23628 0.04952 0.71345 0.0
C518 C 0.27752 0.09092 0.82014 0.0
C519 C 0.19849 0.06246 0.75261 0.0
H520 H 0.20556 0.10365 0.94134 0.0
H521 H 0.2111 0.15193 0.81215 0.0
H522 H 0.21617 0.05185 0.86875 0.0
H523 H 0.2425 0.06217 0.89854 0.0
H524 H 0.21548 0.06388 0.93378 0.0
H525 H 0.22391 0.14108 0.72959 0.0
H526 H 0.24825 0.12134 0.73617 0.0
H527 H 0.22062 0.1107 0.71358 0.0
H528 H 0.29254 0.0643 0.74128 0.0
H529 H 0.22607 0.03919 0.68627 0.0
H530 H 0.27149 0.08902 0.86111 0.0
H531 H 0.27576 0.10959 0.80885 0.0
H532 H 0.29628 0.08611 0.81867 0.0
H533 H 0.19215 0.0607 0.79335 0.0
H534 H 0.19095 0.04814 0.72885 0.0
H535 H 0.19185 0.07932 0.73667 0.0
C536 C 0.36716 0.72407 0.34109 0.0
C537 C 0.3449 0.73295 0.35148 0.0
C538 C 0.38175 0.73513 0.30458 0.0
C539 C 0.37401 0.75572 0.27859 0.0
C540 C 0.35193 0.76523 0.29046 0.0
C541 C 0.33758 0.75364 0.32643 0.0
C542 C 0.40509 0.72435 0.29252 0.0
C543 C 0.34322 0.78738 0.26426 0.0
C544 C 0.41788 0.79452 0.2087 0.0
C545 C 0.41437 0.78817 0.15625 0.0
C546 C 0.40498 0.78403 0.24908 0.0
C547 C 0.38835 0.76662 0.23675 0.0
C548 C 0.38488 0.75997 0.18402 0.0
C549 C 0.3978 0.77092 0.14444 0.0
C550 C 0.40901 0.79169 0.30484 0.0
C551 C 0.36733 0.74143 0.16929 0.0
H552 H 0.37289 0.70807 0.36026 0.0
H553 H 0.32052 0.76078 0.33482 0.0
H554 H 0.40526 0.71871 0.25109 0.0
H555 H 0.41921 0.73741 0.29735 0.0
H556 H 0.40906 0.70902 0.31807 0.0
H557 H 0.32642 0.79341 0.28072 0.0
H558 H 0.35631 0.8015 0.26861 0.0
H559 H 0.34069 0.78445 0.22169 0.0
H560 H 0.43085 0.80759 0.2183 0.0
H561 H 0.39463 0.76618 0.10401 0.0
H562 H 0.41428 0.77654 0.32965 0.0
H563 H 0.39255 0.79862 0.32107 0.0
H564 H 0.42268 0.80536 0.30793 0.0
H565 H 0.37106 0.72505 0.19142 0.0
H566 H 0.36743 0.73759 0.12674 0.0
H567 H 0.34954 0.74715 0.18 0.0
C568 C 0.74794 0.83428 0.83107 0.0
C569 C 0.76196 0.83703 0.87603 0.0
C570 C 0.74499 0.85262 0.79471 0.0
C571 C 0.75626 0.87421 0.80358 0.0
C572 C 0.76928 0.87754 0.85029 0.0
C573 C 0.77199 0.85892 0.88592 0.0
C574 C 0.73088 0.84844 0.7454 0.0
C575 C 0.78145 0.90037 0.86132 0.0
C576 C 0.77552 0.90957 0.68561 0.0
C577 C 0.75875 0.92737 0.68329 0.0
C578 C 0.77471 0.89209 0.72427 0.0
C579 C 0.75664 0.89237 0.76162 0.0
C580 C 0.73947 0.91012 0.75925 0.0
C581 C 0.7407 0.92742 0.71995 0.0
C582 C 0.79329 0.87338 0.72526 0.0
C583 C 0.72 0.91096 0.79854 0.0
H584 H 0.73998 0.81752 0.82314 0.0
H585 H 0.78263 0.86137 0.92079 0.0
H586 H 0.71836 0.86292 0.7383 0.0
H587 H 0.74272 0.84793 0.71133 0.0
H588 H 0.72105 0.83175 0.74719 0.0
H589 H 0.78872 0.90099 0.90179 0.0
H590 H 0.79597 0.90285 0.83339 0.0
H591 H 0.76923 0.9152 0.85555 0.0
H592 H 0.78924 0.90919 0.65672 0.0
H593 H 0.72776 0.94122 0.7184 0.0
H594 H 0.78508 0.85591 0.7222 0.0
H595 H 0.80302 0.8738 0.76304 0.0
H596 H 0.80594 0.8755 0.69289 0.0
H597 H 0.71017 0.89429 0.7984 0.0
H598 H 0.70764 0.92551 0.79037 0.0
H599 H 0.7274 0.91308 0.83854 0.0
C600 C 0.83122 0.75219 0.82415 0.0
C601 C 0.83536 0.75986 0.87539 0.0
C602 C 0.84972 0.74929 0.7892 0.0
C603 C 0.87284 0.75394 0.80619 0.0
C604 C 0.87724 0.76012 0.85886 0.0
C605 C 0.85844 0.76311 0.89276 0.0
C606 C 0.84434 0.74273 0.73325 0.0
C607 C 0.90168 0.76493 0.87865 0.0
C608 C 0.92368 0.7372 0.71975 0.0
C609 C 0.92847 0.75854 0.69469 0.0
C610 C 0.90562 0.73534 0.75636 0.0
C611 C 0.892 0.75524 0.76759 0.0
C612 C 0.89675 0.77677 0.74223 0.0
C613 C 0.91494 0.77816 0.70621 0.0
C614 C 0.90113 0.71217 0.78305 0.0
C615 C 0.88251 0.79837 0.75284 0.0
H616 H 0.81345 0.74957 0.81047 0.0
H617 H 0.86182 0.76867 0.93258 0.0
H618 H 0.84745 0.75801 0.70717 0.0
H619 H 0.85606 0.72854 0.72047 0.0
H620 H 0.82596 0.737 0.7279 0.0
H621 H 0.90244 0.76658 0.92195 0.0
H622 H 0.91373 0.75082 0.86692 0.0
H623 H 0.90814 0.78143 0.86088 0.0
H624 H 0.93416 0.72203 0.71097 0.0
H625 H 0.91827 0.79457 0.68612 0.0
H626 H 0.88299 0.70641 0.77489 0.0
H627 H 0.90294 0.714 0.82612 0.0
H628 H 0.91331 0.69838 0.76999 0.0
H629 H 0.86383 0.79504 0.74372 0.0
H630 H 0.88833 0.81369 0.72936 0.0
H631 H 0.88378 0.80282 0.79495 0.0
C632 C 0.73913 0.36888 0.3981 0.0
C633 C 0.73185 0.34712 0.37938 0.0
C634 C 0.75222 0.38413 0.3665 0.0
C635 C 0.75769 0.3776 0.31473 0.0
C636 C 0.75011 0.35578 0.29549 0.0
C637 C 0.73749 0.34072 0.3282 0.0
C638 C 0.76038 0.40709 0.38859 0.0
C639 C 0.75521 0.34836 0.24016 0.0
C640 C 0.77137 0.42332 0.21117 0.0
C641 C 0.79548 0.42041 0.20542 0.0
C642 C 0.75893 0.41 0.24782 0.0
C643 C 0.771 0.39362 0.27998 0.0
C644 C 0.79552 0.39133 0.27588 0.0
C645 C 0.80746 0.4046 0.23818 0.0
C646 C 0.73275 0.41266 0.25034 0.0
C647 C 0.80902 0.37434 0.31017 0.0
H648 H 0.73501 0.3738 0.43782 0.0
H649 H 0.73178 0.32398 0.3134 0.0
H650 H 0.77967 0.40827 0.3865 0.0
H651 H 0.75313 0.42175 0.36485 0.0
H652 H 0.75508 0.40934 0.42996 0.0
H653 H 0.7477 0.33099 0.23098 0.0
H654 H 0.74799 0.36137 0.21184 0.0
H655 H 0.77434 0.34766 0.23417 0.0
H656 H 0.76206 0.43535 0.1854 0.0
H657 H 0.82614 0.40248 0.23393 0.0
H658 H 0.72731 0.41591 0.29117 0.0
H659 H 0.72424 0.39623 0.23773 0.0
H660 H 0.72622 0.42716 0.22493 0.0
H661 H 0.80458 0.37684 0.35193 0.0
H662 H 0.82819 0.37631 0.30572 0.0
H663 H 0.80414 0.35621 0.29993 0.0
C664 C 0.1371 0.22096 0.83212 0.0
C665 C 0.1321 0.20789 0.87744 0.0
C666 C 0.11928 0.22952 0.79936 0.0
C667 C 0.09574 0.22507 0.81221 0.0
C668 C 0.09044 0.21178 0.85767 0.0
C669 C 0.10873 0.20323 0.88973 0.0
C670 C 0.12572 0.24344 0.75098 0.0
C671 C 0.06551 0.20685 0.87262 0.0
C672 C 0.05529 0.26834 0.74483 0.0
C673 C 0.04907 0.25622 0.69937 0.0
C674 C 0.06909 0.25775 0.78411 0.0
C675 C 0.07697 0.23457 0.7775 0.0
C676 C 0.0695 0.22177 0.73327 0.0
C677 C 0.05562 0.23276 0.69472 0.0
C678 C 0.0765 0.27191 0.83095 0.0
C679 C 0.07759 0.19706 0.72464 0.0
H680 H 0.15508 0.22451 0.82193 0.0
H681 H 0.10472 0.19323 0.92476 0.0
H682 H 0.1183 0.23506 0.71555 0.0
H683 H 0.11819 0.26123 0.753 0.0
H684 H 0.1449 0.24503 0.74621 0.0
H685 H 0.06432 0.19597 0.90878 0.0
H686 H 0.05615 0.22351 0.87897 0.0
H687 H 0.05633 0.19775 0.84028 0.0
H688 H 0.04994 0.28636 0.74896 0.0
H689 H 0.05102 0.22334 0.6595 0.0
H690 H 0.09524 0.2765 0.82762 0.0
H691 H 0.07446 0.2616 0.86765 0.0
H692 H 0.06631 0.28832 0.83406 0.0
H693 H 0.09636 0.19717 0.71436 0.0
H694 H 0.06769 0.18849 0.69253 0.0
H695 H 0.07577 0.18644 0.76095 0.0
C696 C 0.30597 0.62601 0.34615 0.0
C697 C 0.2875 0.64141 0.35557 0.0
C698 C 0.30355 0.60795 0.30995 0.0
C699 C 0.28202 0.60498 0.28317 0.0
C700 C 0.263 0.61983 0.29406 0.0
C701 C 0.26602 0.63802 0.32984 0.0
C702 C 0.32433 0.59263 0.29889 0.0
C703 C 0.23966 0.61688 0.26694 0.0
C704 C 0.28522 0.57634 0.15049 0.0
C705 C 0.27991 0.5531 0.16301 0.0
C706 C 0.28549 0.5935 0.18914 0.0
C707 C 0.28 0.58727 0.24139 0.0
C708 C 0.27384 0.56396 0.25392 0.0
C709 C 0.27409 0.54706 0.21457 0.0
C710 C 0.29246 0.6181 0.17438 0.0
C711 C 0.26748 0.55681 0.30903 0.0
H712 H 0.32264 0.62856 0.36572 0.0
H713 H 0.25159 0.6497 0.33735 0.0
H714 H 0.31967 0.57399 0.30441 0.0
H715 H 0.3296 0.595 0.25747 0.0
H716 H 0.33955 0.59664 0.32456 0.0
H717 H 0.22609 0.62852 0.28316 0.0
H718 H 0.24139 0.62082 0.22453 0.0
H719 H 0.23365 0.59853 0.27064 0.0
H720 H 0.28997 0.58094 0.1107 0.0
H721 H 0.26981 0.52909 0.22408 0.0
H722 H 0.30869 0.62293 0.19578 0.0
H723 H 0.27871 0.63058 0.18601 0.0
H724 H 0.29551 0.62021 0.13169 0.0
H725 H 0.28287 0.55877 0.33534 0.0
H726 H 0.26137 0.53844 0.31143 0.0
H727 H 0.25358 0.56836 0.32397 0.0
C728 C 0.372 0.73844 0.58771 0.0
C729 C 0.35175 0.72898 0.60971 0.0
C730 C 0.38768 0.7515 0.61834 0.0
C731 C 0.38317 0.75459 0.67227 0.0
C732 C 0.36319 0.74425 0.69492 0.0
C733 C 0.34758 0.73183 0.66321 0.0
C734 C 0.40856 0.76267 0.59271 0.0
C735 C 0.35803 0.74665 0.75253 0.0
C736 C 0.43005 0.77191 0.77014 0.0
C737 C 0.42356 0.79491 0.78088 0.0
C738 C 0.41772 0.7588 0.73293 0.0
C739 C 0.39877 0.76917 0.70528 0.0
C740 C 0.39312 0.79288 0.71375 0.0
C741 C 0.40541 0.8054 0.75205 0.0
C742 C 0.42398 0.73345 0.7258 0.0
C743 C 0.37337 0.8047 0.68421 0.0
H744 H 0.3751 0.7364 0.5462 0.0
H745 H 0.332 0.72434 0.68032 0.0
H746 H 0.40705 0.78194 0.59477 0.0
H747 H 0.42482 0.75765 0.61392 0.0
H748 H 0.41018 0.75769 0.55098 0.0
H749 H 0.34258 0.73627 0.76457 0.0
H750 H 0.3733 0.74089 0.77644 0.0
H751 H 0.35475 0.76523 0.7617 0.0
H752 H 0.44398 0.76378 0.79289 0.0
H753 H 0.40055 0.82326 0.76028 0.0
H754 H 0.42559 0.72939 0.68363 0.0
H755 H 0.40985 0.72229 0.74171 0.0
H756 H 0.44058 0.72873 0.74614 0.0
H757 H 0.37469 0.80135 0.64162 0.0
H758 H 0.37317 0.82386 0.69038 0.0
H759 H 0.35646 0.79742 0.69745 0.0
C760 C 0.77384 0.85498 0.12973 0.0
C761 C 0.76247 0.8334 0.13519 0.0
C762 C 0.771 0.87262 0.16665 0.0
C763 C 0.75629 0.86871 0.21 0.0
C764 C 0.74379 0.84749 0.21442 0.0
C765 C 0.74707 0.83004 0.17701 0.0
C766 C 0.78465 0.89502 0.16057 0.0
C767 C 0.72774 0.84282 0.25985 0.0
C768 C 0.77311 0.90189 0.33212 0.0
C769 C 0.7579 0.92105 0.32952 0.0
C770 C 0.77231 0.88443 0.29419 0.0
C771 C 0.75573 0.88603 0.25282 0.0
C772 C 0.73976 0.90487 0.25088 0.0
C773 C 0.74108 0.92222 0.28922 0.0
C774 C 0.78965 0.8646 0.29764 0.0
C775 C 0.72176 0.90704 0.2075 0.0
H776 H 0.78565 0.8579 0.09744 0.0
H777 H 0.73804 0.81353 0.18143 0.0
H778 H 0.77288 0.91031 0.16331 0.0
H779 H 0.79771 0.89635 0.19282 0.0
H780 H 0.79396 0.89603 0.12267 0.0
H781 H 0.71733 0.82666 0.2545 0.0
H782 H 0.73819 0.841 0.2965 0.0
H783 H 0.71563 0.8577 0.26503 0.0
H784 H 0.7858 0.90059 0.36382 0.0
H785 H 0.72935 0.93704 0.28682 0.0
H786 H 0.80109 0.86502 0.26285 0.0
H787 H 0.78037 0.84762 0.29761 0.0
H788 H 0.80082 0.86546 0.33341 0.0
H789 H 0.73059 0.91018 0.16963 0.0
H790 H 0.70933 0.92156 0.21415 0.0
H791 H 0.71176 0.89055 0.20383 0.0
C792 C 0.6238 0.31145 0.6407 0.0
C793 C 0.63828 0.29204 0.63349 0.0
C794 C 0.60522 0.31054 0.67593 0.0
C795 C 0.60082 0.28962 0.70408 0.0
C796 C 0.61467 0.26964 0.69523 0.0
C797 C 0.63336 0.27114 0.6603 0.0
C798 C 0.59097 0.33229 0.68473 0.0
C799 C 0.61025 0.24693 0.72395 0.0
C800 C 0.57243 0.29621 0.83631 0.0
C801 C 0.54896 0.29162 0.82442 0.0
C802 C 0.58951 0.29524 0.79759 0.0
C803 C 0.58298 0.2893 0.74581 0.0
C804 C 0.55939 0.28406 0.73378 0.0
C805 C 0.54258 0.28547 0.77324 0.0
C806 C 0.61444 0.30121 0.81184 0.0
C807 C 0.55189 0.27732 0.67914 0.0
H808 H 0.62748 0.32769 0.62022 0.0
H809 H 0.64431 0.25597 0.65452 0.0
H810 H 0.57211 0.32849 0.67971 0.0
H811 H 0.59367 0.33831 0.72552 0.0
H812 H 0.59575 0.34673 0.65751 0.0
H813 H 0.62104 0.23243 0.70881 0.0
H814 H 0.61429 0.24902 0.76623 0.0
H815 H 0.59157 0.24201 0.72055 0.0
H816 H 0.57734 0.30128 0.87571 0.0
H817 H 0.52445 0.28174 0.76415 0.0
H818 H 0.62013 0.31673 0.78895 0.0
H819 H 0.62618 0.2866 0.80168 0.0
H820 H 0.61669 0.30497 0.85419 0.0
H821 H 0.55491 0.29211 0.65165 0.0
H822 H 0.53315 0.2724 0.67699 0.0
H823 H 0.56252 0.26244 0.66549 0.0
C824 C 0.23737 0.13376 0.14901 0.0
C825 C 0.21394 0.13278 0.13277 0.0
C826 C 0.24657 0.11744 0.18477 0.0
C827 C 0.2319 0.09982 0.20539 0.0
C828 C 0.20848 0.09808 0.18752 0.0
C829 C 0.19978 0.11454 0.15102 0.0
C830 C 0.27174 0.11971 0.20219 0.0
C831 C 0.19232 0.07957 0.20885 0.0
C832 C 0.26324 0.05114 0.27965 0.0
C833 C 0.26276 0.05955 0.33098 0.0
C834 C 0.25242 0.06357 0.23834 0.0
C835 C 0.24073 0.08473 0.24892 0.0
C836 C 0.23937 0.09273 0.30107 0.0
C837 C 0.25049 0.08009 0.34142 0.0
C838 C 0.25438 0.0546 0.1832 0.0
C839 C 0.22688 0.11511 0.31405 0.0
H840 H 0.24852 0.1476 0.13435 0.0
H841 H 0.18166 0.11373 0.13854 0.0
H842 H 0.27253 0.12465 0.24407 0.0
H843 H 0.28089 0.10276 0.19858 0.0
H844 H 0.28131 0.13308 0.17902 0.0
H845 H 0.17547 0.079 0.187 0.0
H846 H 0.20067 0.06213 0.20723 0.0
H847 H 0.18869 0.08314 0.2506 0.0
H848 H 0.27277 0.03527 0.27155 0.0
H849 H 0.24973 0.08637 0.38127 0.0
H850 H 0.26568 0.06647 0.16004 0.0
H851 H 0.237 0.05437 0.16367 0.0
H852 H 0.26192 0.03676 0.18221 0.0
H853 H 0.23625 0.13015 0.29641 0.0
H854 H 0.22573 0.11785 0.35695 0.0
H855 H 0.20896 0.11503 0.29716 0.0
C856 C 0.21945 0.28742 0.96311 0.0
C857 C 0.20429 0.27654 0.99843 0.0
C858 C 0.22302 0.31156 0.96413 0.0
C859 C 0.21056 0.32521 0.00028 0.0
C860 C 0.19419 0.31448 0.03398 0.0
C861 C 0.19156 0.29013 0.03335 0.0
C862 C 0.2411 0.32223 0.92845 0.0
C863 C 0.18003 0.32862 0.07172 0.0
C864 C 0.24249 0.37999 0.03994 0.0
C865 C 0.23359 0.39617 0.00353 0.0
C866 C 0.23432 0.35698 0.04098 0.0
C867 C 0.21641 0.35028 0.00554 0.0
C868 C 0.20626 0.36706 0.97113 0.0
C869 C 0.21531 0.38982 0.96984 0.0
C870 C 0.24601 0.3395 0.07737 0.0
C871 C 0.18664 0.36072 0.93404 0.0
H872 H 0.22946 0.27689 0.9364 0.0
H873 H 0.17968 0.28169 0.06037 0.0
H874 H 0.23322 0.33645 0.90436 0.0
H875 H 0.25533 0.33004 0.95232 0.0
H876 H 0.24886 0.30923 0.9018 0.0
H877 H 0.16583 0.31816 0.08975 0.0
H878 H 0.19153 0.33521 0.10347 0.0
H879 H 0.17223 0.34401 0.05142 0.0
H880 H 0.2568 0.38503 0.06558 0.0
H881 H 0.20847 0.4025 0.94183 0.0
H882 H 0.25548 0.3264 0.05399 0.0
H883 H 0.23282 0.32998 0.10077 0.0
H884 H 0.25864 0.34786 0.10463 0.0
H885 H 0.19354 0.34992 0.90192 0.0
H886 H 0.17818 0.37643 0.91642 0.0
H887 H 0.17323 0.35021 0.95464 0.0
C888 C 0.19324 0.69774 0.44878 0.0
C889 C 0.20664 0.69848 0.49509 0.0
C890 C 0.1689 0.70017 0.44987 0.0
C891 C 0.15773 0.70339 0.4984 0.0
C892 C 0.17088 0.702 0.54556 0.0
C893 C 0.1952 0.69953 0.54337 0.0
C894 C 0.15545 0.70129 0.39872 0.0
C895 C 0.15957 0.70514 0.59815 0.0
C896 C 0.10612 0.74455 0.49621 0.0
C897 C 0.08718 0.72915 0.49893 0.0
C898 C 0.12909 0.73629 0.49624 0.0
C899 C 0.13328 0.71197 0.49922 0.0
C900 C 0.11428 0.69626 0.50247 0.0
C901 C 0.09138 0.70506 0.50238 0.0
C902 C 0.14888 0.75367 0.49303 0.0
C903 C 0.11815 0.67024 0.50564 0.0
H904 H 0.20182 0.69657 0.41128 0.0
H905 H 0.20531 0.69983 0.57948 0.0
H906 H 0.13915 0.69093 0.40122 0.0
H907 H 0.15042 0.71966 0.39016 0.0
H908 H 0.1659 0.69482 0.36549 0.0
H909 H 0.17134 0.6998 0.63101 0.0
H910 H 0.15497 0.72379 0.6031 0.0
H911 H 0.14319 0.69491 0.60068 0.0
H912 H 0.10299 0.7632 0.49465 0.0
H913 H 0.07675 0.6931 0.50426 0.0
H914 H 0.15945 0.75032 0.45774 0.0
H915 H 0.16059 0.75164 0.52768 0.0
H916 H 0.1426 0.772 0.49117 0.0
H917 H 0.12725 0.66428 0.47007 0.0
H918 H 0.10152 0.66041 0.50931 0.0
H919 H 0.12954 0.66584 0.53974 0.0
C920 C 0.76071 0.67505 0.03926 0.0
C921 C 0.76779 0.68952 0.99775 0.0
C922 C 0.76579 0.65108 0.03953 0.0
C923 C 0.77873 0.64155 0.99796 0.0
C924 C 0.7856 0.65602 0.95559 0.0
C925 C 0.77982 0.67977 0.95573 0.0
C926 C 0.7577 0.63605 0.08475 0.0
C927 C 0.79984 0.64661 0.91107 0.0
C928 C 0.81447 0.58705 0.02592 0.0
C929 C 0.80123 0.56977 0.00079 0.0
C930 C 0.80734 0.61045 0.02523 0.0
C931 C 0.78614 0.61671 -0.00012 0.0
C932 C 0.77242 0.59938 0.97531 0.0
C933 C 0.78026 0.57618 0.9755 0.0
C934 C 0.82263 0.62851 0.05123 0.0
C935 C 0.74953 0.60537 0.94855 0.0
H936 H 0.75128 0.68248 0.07165 0.0
H937 H 0.78555 0.69091 0.92376 0.0
H938 H 0.74802 0.62066 0.06993 0.0
H939 H 0.77302 0.62941 0.10727 0.0
H940 H 0.74627 0.64575 0.11182 0.0
H941 H 0.8032 0.66002 0.88034 0.0
H942 H 0.81686 0.64009 0.92638 0.0
H943 H 0.79075 0.63164 0.89276 0.0
H944 H 0.83042 0.5823 0.04659 0.0
H945 H 0.77003 0.56311 0.95525 0.0
H946 H 0.81287 0.63728 0.0827 0.0
H947 H 0.82762 0.64214 0.02224 0.0
H948 H 0.8388 0.62082 0.06851 0.0
H949 H 0.73796 0.61457 0.97611 0.0
H950 H 0.7403 0.58966 0.93387 0.0
H951 H 0.75264 0.61739 0.915 0.0
C952 C 0.79263 0.26648 0.45635 0.0
C953 C 0.78104 0.26873 0.50421 0.0
C954 C 0.817 0.26825 0.45373 0.0
C955 C 0.83006 0.27245 0.5 0.0
C956 C 0.81861 0.27384 0.54867 0.0
C957 C 0.79425 0.27189 0.55023 0.0
C958 C 0.82868 0.26649 0.40118 0.0
C959 C 0.83199 0.27835 0.59885 0.0
C960 C 0.8955 0.26251 0.5024 0.0
C961 C 0.90397 0.28529 0.49525 0.0
C962 C 0.87146 0.25799 0.50331 0.0
C963 C 0.85555 0.27672 0.49723 0.0
C964 C 0.86396 0.29971 0.48955 0.0
C965 C 0.88808 0.30371 0.48854 0.0
C966 C 0.86309 0.23325 0.51146 0.0
C967 C 0.84749 0.32013 0.48287 0.0
H968 H 0.78264 0.26393 0.42059 0.0
H969 H 0.78553 0.27366 0.58743 0.0
H970 H 0.83652 0.28356 0.39047 0.0
H971 H 0.84304 0.25352 0.40315 0.0
H972 H 0.81626 0.26139 0.3696 0.0
H973 H 0.82065 0.27752 0.63384 0.0
H974 H 0.84628 0.26544 0.60397 0.0
H975 H 0.84015 0.29589 0.5969 0.0
H976 H 0.9077 0.24825 0.5083 0.0
H977 H 0.89452 0.32129 0.48221 0.0
H978 H 0.85115 0.22821 0.47901 0.0
H979 H 0.85305 0.23196 0.54829 0.0
H980 H 0.87773 0.22055 0.51361 0.0
H981 H 0.83567 0.31725 0.44885 0.0
H982 H 0.85686 0.33689 0.47681 0.0
H983 H 0.8364 0.32167 0.51802 0.0
C984 C 0.6838 0.19497 0.46086 0.0
C985 C 0.69321 0.20599 0.50513 0.0
C986 C 0.68415 0.17056 0.45667 0.0
C987 C 0.69468 0.15698 0.4971 0.0
C988 C 0.70287 0.16792 0.54321 0.0
C989 C 0.70179 0.19226 0.5469 0.0
C990 C 0.67458 0.15946 0.40762 0.0
C991 C 0.71454 0.15413 0.58694 0.0
C992 C 0.69262 0.09077 0.50534 0.0
C993 C 0.71402 0.08493 0.4829 0.0
C994 C 0.68535 0.11415 0.5077 0.0
C995 C 0.70018 0.13199 0.48852 0.0
C996 C 0.72153 0.12605 0.46463 0.0
C997 C 0.72807 0.10257 0.46171 0.0
C998 C 0.6622 0.11981 0.53216 0.0
C999 C 0.73807 0.14453 0.44449 0.0
H1000 H 0.67686 0.20546 0.4287 0.0
H1001 H 0.70911 0.2006 0.58126 0.0
H1002 H 0.68923 0.15391 0.3826 0.0
H1003 H 0.66426 0.14365 0.41746 0.0
H1004 H 0.66338 0.17171 0.38454 0.0
H1005 H 0.71805 0.16493 0.62202 0.0
H1006 H 0.70357 0.13906 0.59868 0.0
H1007 H 0.73138 0.14707 0.57301 0.0
H1008 H 0.68173 0.07707 0.52153 0.0
H1009 H 0.74477 0.09808 0.445 0.0
H1010 H 0.65228 0.13233 0.50704 0.0
H1011 H 0.66518 0.12824 0.57054 0.0
H1012 H 0.65139 0.10396 0.53847 0.0
H1013 H 0.72902 0.15608 0.41568 0.0
H1014 H 0.75364 0.13692 0.42554 0.0
H1015 H 0.74406 0.1556 0.47741 0.0
C1016 C 0.29112 0.20727 0.0473 0.0
C1017 C 0.27863 0.20515 -0.0 0.0
C1018 C 0.31473 0.21367 0.04772 0.0
C1019 C 0.32608 0.2181 -0.00029 0.0
C1020 C 0.31414 0.21416 0.95181 0.0
C1021 C 0.29053 0.20768 0.95251 0.0
C1022 C 0.32694 0.21743 0.09965 0.0
C1023 C 0.32571 0.21854 0.89979 0.0
C1024 C 0.37134 0.26614 0.00218 0.0
C1025 C 0.39228 0.25351 0.00308 0.0
C1026 C 0.34976 0.25474 0.00056 0.0
C1027 C 0.34906 0.23006 -0.00023 0.0
C1028 C 0.37012 0.21715 7e-05 0.0
C1029 C 0.39155 0.22906 0.00162 0.0
C1030 C 0.32768 0.26917 -4e-05 0.0
C1031 C 0.36998 0.19082 -0.00063 0.0
H1032 H 0.28221 0.20499 0.08424 0.0
H1033 H 0.28111 0.2059 0.91572 0.0
H1034 H 0.34455 0.2094 0.09982 0.0
H1035 H 0.32925 0.23642 0.10601 0.0
H1036 H 0.31691 0.21006 0.13294 0.0
H1037 H 0.31539 0.21132 0.86664 0.0
H1038 H 0.32768 0.23762 0.89333 0.0
H1039 H 0.34343 0.21077 0.8995 0.0
H1040 H 0.37184 0.28505 0.00224 0.0
H1041 H 0.40772 0.21925 0.00256 0.0
H1042 H 0.31705 0.2648 0.03478 0.0
H1043 H 0.317 0.26508 0.96474 0.0
H1044 H 0.3313 0.28821 -4e-05 0.0
H1045 H 0.36126 0.18395 0.03493 0.0
H1046 H 0.38787 0.1834 0.99788 0.0
H1047 H 0.35984 0.18456 0.96503 0.0
C1048 C 0.27741 0.79704 0.44688 0.0
C1049 C 0.2729 0.784 0.49252 0.0
C1050 C 0.28014 0.82131 0.44864 0.0
C1051 C 0.27808 0.83283 0.49709 0.0
C1052 C 0.27264 0.81993 0.54292 0.0
C1053 C 0.2702 0.79564 0.54013 0.0
C1054 C 0.28608 0.83451 0.39901 0.0
C1055 C 0.2701 0.8317 0.59519 0.0
C1056 C 0.30975 0.89033 0.51396 0.0
C1057 C 0.2916 0.90646 0.50638 0.0
C1058 C 0.30558 0.86629 0.51089 0.0
C1059 C 0.28268 0.85823 0.50025 0.0
C1060 C 0.26428 0.87439 0.4926 0.0
C1061 C 0.26898 0.89833 0.49557 0.0
C1062 C 0.32565 0.84952 0.5192 0.0
C1063 C 0.23965 0.86637 0.48127 0.0
H1064 H 0.27966 0.78822 0.40993 0.0
H1065 H 0.2666 0.78572 0.57553 0.0
H1066 H 0.2735 0.84896 0.39217 0.0
H1067 H 0.30366 0.84245 0.40308 0.0
H1068 H 0.28598 0.82311 0.36409 0.0
H1069 H 0.26436 0.81938 0.62639 0.0
H1070 H 0.28704 0.83942 0.60729 0.0
H1071 H 0.25729 0.84617 0.59197 0.0
H1072 H 0.3272 0.8965 0.52302 0.0
H1073 H 0.25495 0.91073 0.4889 0.0
H1074 H 0.32752 0.83829 0.48437 0.0
H1075 H 0.3221 0.83786 0.55316 0.0
H1076 H 0.34246 0.85866 0.52635 0.0
H1077 H 0.23918 0.85609 0.44471 0.0
H1078 H 0.22726 0.8812 0.47695 0.0
H1079 H 0.23355 0.85475 0.51335 0.0
C1080 C 0.67606 0.76697 0.95627 0.0
C1081 C 0.6896 0.77048 0.0016 0.0
C1082 C 0.65221 0.77252 0.95506 0.0
C1083 C 0.64177 0.78213 -3e-05 0.0
C1084 C 0.65525 0.7854 0.04605 0.0
C1085 C 0.67896 0.77938 0.04643 0.0
C1086 C 0.63825 0.76847 0.90548 0.0
C1087 C 0.6448 0.79588 0.09449 0.0
C1088 C 0.58749 0.81916 0.97981 0.0
C1089 C 0.56979 0.80376 0.99545 0.0
C1090 C 0.611 0.81237 0.98135 0.0
C1091 C 0.61693 0.78951 0.99827 0.0
C1092 C 0.5992 0.77384 0.01395 0.0
C1093 C 0.57585 0.7812 0.01272 0.0
C1094 C 0.62948 0.82964 0.96476 0.0
C1095 C 0.60488 0.74928 0.03195 0.0
H1096 H 0.68412 0.75998 0.92159 0.0
H1097 H 0.68931 0.78232 0.08152 0.0
H1098 H 0.62273 0.75757 0.91411 0.0
H1099 H 0.63182 0.78537 0.88943 0.0
H1100 H 0.64867 0.75974 0.87493 0.0
H1101 H 0.65751 0.7967 0.12759 0.0
H1102 H 0.63853 0.81382 0.08553 0.0
H1103 H 0.62948 0.78553 0.10718 0.0
H1104 H 0.58297 0.83648 0.96557 0.0
H1105 H 0.56235 0.7693 0.02567 0.0
H1106 H 0.63919 0.82278 0.93089 0.0
H1107 H 0.64229 0.83214 0.99711 0.0
H1108 H 0.62199 0.8469 0.95363 0.0
H1109 H 0.6145 0.74003 0.00093 0.0
H1110 H 0.58899 0.73907 0.04167 0.0
H1111 H 0.61642 0.74973 0.06709 0.0
loop_
_geom_bond_atom_site_label_1
_geom_bond_atom_site_label_2
_geom_bond_distance
_geom_bond_site_symmetry_2
_ccdc_geom_bond_type
Sc0 O3 2.025 . S
Sc0 O10 2.105 . S
Sc0 O13 2.105 . S
Sc0 O16 2.105 . S
Sc0 O19 2.105 . S
Sc1 O3 2.025 . S
Sc1 O11 2.105 . S
Sc1 O15 2.105 1_554 S
Sc1 O17 2.105 . S
Sc1 O21 2.105 1_554 S
Sc2 O3 2.025 1_556 S
Sc2 O12 2.105 . S
Sc2 O14 2.105 . S
Sc2 O18 2.105 . S
Sc2 O20 2.105 . S
O3 Sc0 2.025 . S
O3 Sc1 2.025 . S
O3 Sc2 2.025 1_554 S
C4 O10 1.268 . S
C4 O20 1.268 1_554 S
C5 O11 1.268 . S
C5 O19 1.268 . S
C6 O12 1.268 . S
C6 O21 1.268 . S
C7 O13 1.268 . S
C7 O17 1.268 . S
C8 O14 1.268 1_554 S
C8 O16 1.268 . S
C9 O15 1.268 . S
C9 O18 1.268 . S
O10 Sc0 2.105 . S
O10 C4 1.268 . S
O11 Sc1 2.105 . S
O11 C5 1.268 . S
O12 Sc2 2.105 . S
O12 C6 1.268 . S
O13 Sc0 2.105 . S
O13 C7 1.268 . S
O14 Sc2 2.105 . S
O14 C8 1.268 1_556 S
O15 Sc1 2.105 1_556 S
O15 C9 1.268 . S
O16 Sc0 2.105 . S
O16 C8 1.268 . S
O17 Sc1 2.105 . S
O17 C7 1.268 . S
O18 Sc2 2.105 . S
O18 C9 1.268 . S
O19 Sc0 2.105 . S
O19 C5 1.268 . S
O20 Sc2 2.105 . S
O20 C4 1.268 1_556 S
O21 Sc1 2.105 1_556 S
O21 C6 1.268 . S
Sc22 O25 2.025 . S
Sc22 O32 2.105 . S
Sc22 O35 2.105 . S
Sc22 O38 2.105 . S
Sc22 O41 2.105 . S
Sc23 O25 2.025 . S
Sc23 O33 2.105 . S
Sc23 O37 2.105 . S
Sc23 O39 2.105 . S
Sc23 O43 2.105 . S
Sc24 O25 2.025 . S
Sc24 O34 2.105 . S
Sc24 O36 2.105 . S
Sc24 O40 2.105 . S
Sc24 O42 2.105 . S
O25 Sc22 2.025 . S
O25 Sc23 2.025 . S
O25 Sc24 2.025 . S
C26 O32 1.268 . S
C26 O42 1.268 . S
C27 O33 1.268 . S
C27 O41 1.268 . S
C28 O34 1.268 . S
C28 O43 1.268 . S
C29 O35 1.268 . S
C29 O39 1.268 . S
C30 O36 1.268 . S
C30 O38 1.268 . S
C31 O37 1.268 . S
C31 O40 1.268 . S
O32 Sc22 2.105 . S
O32 C26 1.268 . S
O33 Sc23 2.105 . S
O33 C27 1.268 . S
O34 Sc24 2.105 . S
O34 C28 1.268 . S
O35 Sc22 2.105 . S
O35 C29 1.268 . S
O36 Sc24 2.105 . S
O36 C30 1.268 . S
O37 Sc23 2.105 . S
O37 C31 1.268 . S
O38 Sc22 2.105 . S
O38 C30 1.268 . S
O39 Sc23 2.105 . S
O39 C29 1.268 . S
O40 Sc24 2.105 . S
O40 C31 1.268 . S
O41 Sc22 2.105 . S
O41 C27 1.268 . S
O42 Sc24 2.105 . S
O42 C26 1.268 . S
O43 Sc23 2.105 . S
O43 C28 1.268 . S
Sc44 O47 2.025 1_556 S
Sc44 O54 2.105 . S
Sc44 O57 2.105 . S
Sc44 O60 2.105 . S
Sc44 O63 2.105 . S
Sc45 O47 2.025 . S
Sc45 O55 2.105 1_554 S
Sc45 O59 2.105 . S
Sc45 O61 2.105 1_554 S
Sc45 O65 2.105 . S
Sc46 O47 2.025 . S
Sc46 O56 2.105 . S
Sc46 O58 2.105 . S
Sc46 O62 2.105 . S
Sc46 O64 2.105 . S
O47 Sc44 2.025 1_554 S
O47 Sc45 2.025 . S
O47 Sc46 2.025 . S
C48 O54 1.268 1_554 S
C48 O64 1.268 . S
C49 O55 1.268 . S
C49 O63 1.268 . S
C50 O56 1.268 . S
C50 O65 1.268 . S
C51 O57 1.268 . S
C51 O61 1.268 . S
C52 O58 1.268 . S
C52 O60 1.268 1_554 S
C53 O59 1.268 . S
C53 O62 1.268 . S
O54 Sc44 2.105 . S
O54 C48 1.268 1_556 S
O55 Sc45 2.105 1_556 S
O55 C49 1.268 . S
O56 Sc46 2.105 . S
O56 C50 1.268 . S
O57 Sc44 2.105 . S
O57 C51 1.268 . S
O58 Sc46 2.105 . S
O58 C52 1.268 . S
O59 Sc45 2.105 . S
O59 C53 1.268 . S
O60 Sc44 2.105 . S
O60 C52 1.268 1_556 S
O61 Sc45 2.105 1_556 S
O61 C51 1.268 . S
O62 Sc46 2.105 . S
O62 C53 1.268 . S
O63 Sc44 2.105 . S
O63 C49 1.268 . S
O64 Sc46 2.105 . S
O64 C48 1.268 . S
O65 Sc45 2.105 . S
O65 C50 1.268 . S
Sc66 O69 2.025 . S
Sc66 O76 2.105 . S
Sc66 O79 2.105 . S
Sc66 O82 2.105 . S
Sc66 O85 2.105 . S
Sc67 O69 2.025 . S
Sc67 O77 2.105 . S
Sc67 O81 2.105 . S
Sc67 O83 2.105 . S
Sc67 O87 2.105 . S
Sc68 O69 2.025 . S
Sc68 O78 2.105 . S
Sc68 O80 2.105 . S
Sc68 O84 2.105 . S
Sc68 O86 2.105 . S
O69 Sc66 2.025 . S
O69 Sc67 2.025 . S
O69 Sc68 2.025 . S
C70 O76 1.268 . S
C70 O86 1.268 . S
C71 O77 1.268 . S
C71 O85 1.268 . S
C72 O78 1.268 . S
C72 O87 1.268 . S
C73 O79 1.268 . S
C73 O83 1.268 . S
C74 O80 1.268 . S
C74 O82 1.268 . S
C75 O81 1.268 . S
C75 O84 1.268 . S
O76 Sc66 2.105 . S
O76 C70 1.268 . S
O77 Sc67 2.105 . S
O77 C71 1.268 . S
O78 Sc68 2.105 . S
O78 C72 1.268 . S
O79 Sc66 2.105 . S
O79 C73 1.268 . S
O80 Sc68 2.105 . S
O80 C74 1.268 . S
O81 Sc67 2.105 . S
O81 C75 1.268 . S
O82 Sc66 2.105 . S
O82 C74 1.268 . S
O83 Sc67 2.105 . S
O83 C73 1.268 . S
O84 Sc68 2.105 . S
O84 C75 1.268 . S
O85 Sc66 2.105 . S
O85 C71 1.268 . S
O86 Sc68 2.105 . S
O86 C70 1.268 . S
O87 Sc67 2.105 . S
O87 C72 1.268 . S
P88 O99 1.490 . S
P88 C102 1.812 . S
P88 C108 1.803 . S
P88 C114 1.819 1_554 S
H89 C103 0.941 . S
H90 C104 0.939 . S
H91 C106 0.940 . S
H92 C107 0.940 . S
H93 C109 0.939 . S
H94 C110 0.942 . S
H95 C112 0.940 . S
H96 C113 0.939 . S
H97 C115 0.941 . S
H98 C119 0.939 . S
O99 P88 1.490 . S
H100 C116 0.939 . S
H101 C118 0.940 . S
C102 P88 1.812 . S
C102 C103 1.389 . S
C102 C107 1.391 . S
C103 H89 0.941 . S
C103 C102 1.389 . S
C103 C104 1.397 . S
C104 H90 0.939 . S
C104 C103 1.397 . S
C104 C105 1.378 . S
C105 C104 1.378 . S
C105 C106 1.378 . S
C106 H91 0.940 . S
C106 C105 1.378 . S
C106 C107 1.396 . S
C107 H92 0.940 . S
C107 C102 1.391 . S
C107 C106 1.396 . S
C108 P88 1.803 . S
C108 C109 1.378 1_554 S
C108 C113 1.400 . S
C109 H93 0.939 . S
C109 C108 1.378 1_556 S
C109 C110 1.361 . S
C110 H94 0.942 . S
C110 C109 1.361 . S
C110 C111 1.369 1_556 S
C111 C110 1.369 1_554 S
C111 C112 1.404 . S
C112 H95 0.940 . S
C112 C111 1.404 . S
C112 C113 1.389 . S
C113 H96 0.939 . S
C113 C108 1.400 . S
C113 C112 1.389 . S
C114 P88 1.819 1_556 S
C114 C115 1.391 . S
C114 C119 1.391 . S
C115 H97 0.941 . S
C115 C114 1.391 . S
C115 C116 1.396 . S
C116 H100 0.939 . S
C116 C115 1.396 . S
C116 C117 1.397 . S
C117 C116 1.397 . S
C117 C118 1.385 . S
C118 H101 0.940 . S
C118 C117 1.385 . S
C118 C119 1.388 . S
C119 H98 0.939 . S
C119 C114 1.391 . S
C119 C118 1.388 . S
P120 O131 1.490 . S
P120 C134 1.812 . S
P120 C140 1.803 1_655 S
P120 C146 1.819 . S
H121 C135 0.941 . S
H122 C136 0.939 . S
H123 C138 0.940 . S
H124 C139 0.940 . S
H125 C141 0.939 . S
H126 C142 0.942 . S
H127 C144 0.940 . S
H128 C145 0.939 . S
H129 C147 0.941 . S
H130 C151 0.939 . S
O131 P120 1.490 . S
H132 C148 0.939 . S
H133 C150 0.940 . S
C134 P120 1.812 . S
C134 C135 1.389 . S
C134 C139 1.391 . S
C135 H121 0.941 . S
C135 C134 1.389 . S
C135 C136 1.397 . S
C136 H122 0.939 . S
C136 C135 1.397 . S
C136 C137 1.378 . S
C137 C136 1.378 . S
C137 C138 1.378 . S
C138 H123 0.940 . S
C138 C137 1.378 . S
C138 C139 1.396 . S
C139 H124 0.940 . S
C139 C134 1.391 . S
C139 C138 1.396 . S
C140 P120 1.803 1_455 S
C140 C141 1.378 . S
C140 C145 1.400 . S
C141 H125 0.939 . S
C141 C140 1.378 . S
C141 C142 1.361 . S
C142 H126 0.942 . S
C142 C141 1.361 . S
C142 C143 1.369 . S
C143 C142 1.369 . S
C143 C144 1.404 . S
C144 H127 0.940 . S
C144 C143 1.404 . S
C144 C145 1.389 . S
C145 H128 0.939 . S
C145 C140 1.400 . S
C145 C144 1.389 . S
C146 P120 1.819 . S
C146 C147 1.391 . S
C146 C151 1.391 . S
C147 H129 0.941 . S
C147 C146 1.391 . S
C147 C148 1.396 . S
C148 H132 0.939 . S
C148 C147 1.396 . S
C148 C149 1.397 . S
C149 C148 1.397 . S
C149 C150 1.385 . S
C150 H133 0.940 . S
C150 C149 1.385 . S
C150 C151 1.388 . S
C151 H130 0.939 . S
C151 C146 1.391 . S
C151 C150 1.388 . S
P152 O163 1.490 . S
P152 C166 1.812 . S
P152 C172 1.803 . S
P152 C178 1.819 1_556 S
H153 C167 0.941 . S
H154 C168 0.939 . S
H155 C170 0.940 . S
H156 C171 0.940 . S
H157 C173 0.939 . S
H158 C174 0.942 . S
H159 C176 0.940 . S
H160 C177 0.939 . S
H161 C179 0.941 . S
H162 C183 0.939 . S
O163 P152 1.490 . S
H164 C180 0.939 . S
H165 C182 0.940 . S
C166 P152 1.812 . S
C166 C167 1.389 . S
C166 C171 1.391 . S
C167 H153 0.941 . S
C167 C166 1.389 . S
C167 C168 1.397 . S
C168 H154 0.939 . S
C168 C167 1.397 . S
C168 C169 1.378 . S
C169 C168 1.378 . S
C169 C170 1.378 . S
C170 H155 0.940 . S
C170 C169 1.378 . S
C170 C171 1.396 . S
C171 H156 0.940 . S
C171 C166 1.391 . S
C171 C170 1.396 . S
C172 P152 1.803 . S
C172 C173 1.378 1_556 S
C172 C177 1.400 . S
C173 H157 0.939 . S
C173 C172 1.378 1_554 S
C173 C174 1.361 . S
C174 H158 0.942 . S
C174 C173 1.361 . S
C174 C175 1.369 . S
C175 C174 1.369 . S
C175 C176 1.404 1_554 S
C176 H159 0.940 . S
C176 C175 1.404 1_556 S
C176 C177 1.389 . S
C177 H160 0.939 . S
C177 C172 1.400 . S
C177 C176 1.389 . S
C178 P152 1.819 1_554 S
C178 C179 1.391 . S
C178 C183 1.391 . S
C179 H161 0.941 . S
C179 C178 1.391 . S
C179 C180 1.396 . S
C180 H164 0.939 . S
C180 C179 1.396 . S
C180 C181 1.397 . S
C181 C180 1.397 . S
C181 C182 1.385 . S
C182 H165 0.940 . S
C182 C181 1.385 . S
C182 C183 1.388 . S
C183 H162 0.939 . S
C183 C178 1.391 . S
C183 C182 1.388 . S
P184 O195 1.490 . S
P184 C198 1.812 . S
P184 C204 1.803 1_455 S
P184 C210 1.819 . S
H185 C199 0.941 . S
H186 C200 0.939 . S
H187 C202 0.940 . S
H188 C203 0.940 . S
H189 C205 0.939 . S
H190 C206 0.942 . S
H191 C208 0.940 . S
H192 C209 0.939 . S
H193 C211 0.941 . S
H194 C215 0.939 . S
O195 P184 1.490 . S
H196 C212 0.939 . S
H197 C214 0.940 . S
C198 P184 1.812 . S
C198 C199 1.389 . S
C198 C203 1.391 . S
C199 H185 0.941 . S
C199 C198 1.389 . S
C199 C200 1.397 . S
C200 H186 0.939 . S
C200 C199 1.397 . S
C200 C201 1.378 . S
C201 C200 1.378 . S
C201 C202 1.378 . S
C202 H187 0.940 . S
C202 C201 1.378 . S
C202 C203 1.396 . S
C203 H188 0.940 . S
C203 C198 1.391 . S
C203 C202 1.396 . S
C204 P184 1.803 1_655 S
C204 C205 1.378 . S
C204 C209 1.400 . S
C205 H189 0.939 . S
C205 C204 1.378 . S
C205 C206 1.361 . S
C206 H190 0.942 . S
C206 C205 1.361 . S
C206 C207 1.369 . S
C207 C206 1.369 . S
C207 C208 1.404 . S
C208 H191 0.940 . S
C208 C207 1.404 . S
C208 C209 1.389 . S
C209 H192 0.939 . S
C209 C204 1.400 . S
C209 C208 1.389 . S
C210 P184 1.819 . S
C210 C211 1.391 . S
C210 C215 1.391 . S
C211 H193 0.941 . S
C211 C210 1.391 . S
C211 C212 1.396 . S
C212 H196 0.939 . S
C212 C211 1.396 . S
C212 C213 1.397 . S
C213 C212 1.397 . S
C213 C214 1.385 . S
C214 H197 0.940 . S
C214 C213 1.385 . S
C214 C215 1.388 . S
C215 H194 0.939 . S
C215 C210 1.391 . S
C215 C214 1.388 . S
P216 O227 1.490 . S
P216 C230 1.812 . S
P216 C236 1.803 1_565 S
P216 C242 1.819 . S
H217 C231 0.941 . S
H218 C232 0.939 . S
H219 C234 0.940 . S
H220 C235 0.940 . S
H221 C237 0.939 . S
H222 C238 0.942 . S
H223 C240 0.940 . S
H224 C241 0.939 . S
H225 C243 0.941 . S
H226 C247 0.939 . S
O227 P216 1.490 . S
H228 C244 0.939 . S
H229 C246 0.940 . S
C230 P216 1.812 . S
C230 C231 1.389 . S
C230 C235 1.391 . S
C231 H217 0.941 . S
C231 C230 1.389 . S
C231 C232 1.397 . S
C232 H218 0.939 . S
C232 C231 1.397 . S
C232 C233 1.378 . S
C233 C232 1.378 . S
C233 C234 1.378 . S
C234 H219 0.940 . S
C234 C233 1.378 . S
C234 C235 1.396 . S
C235 H220 0.940 . S
C235 C230 1.391 . S
C235 C234 1.396 . S
C236 P216 1.803 1_545 S
C236 C237 1.378 . S
C236 C241 1.400 . S
C237 H221 0.939 . S
C237 C236 1.378 . S
C237 C238 1.361 . S
C238 H222 0.942 . S
C238 C237 1.361 . S
C238 C239 1.369 . S
C239 C238 1.369 . S
C239 C240 1.404 . S
C240 H223 0.940 . S
C240 C239 1.404 . S
C240 C241 1.389 . S
C241 H224 0.939 . S
C241 C236 1.400 . S
C241 C240 1.389 . S
C242 P216 1.819 . S
C242 C243 1.391 . S
C242 C247 1.391 . S
C243 H225 0.941 . S
C243 C242 1.391 . S
C243 C244 1.396 . S
C244 H228 0.939 . S
C244 C243 1.396 . S
C244 C245 1.397 . S
C245 C244 1.397 . S
C245 C246 1.385 . S
C246 H229 0.940 . S
C246 C245 1.385 . S
C246 C247 1.388 . S
C247 H226 0.939 . S
C247 C242 1.391 . S
C247 C246 1.388 . S
P248 O259 1.490 . S
P248 C262 1.812 . S
P248 C268 1.803 . S
P248 C274 1.819 1_556 S
H249 C263 0.941 . S
H250 C264 0.939 . S
H251 C266 0.940 . S
H252 C267 0.940 . S
H253 C269 0.939 . S
H254 C270 0.942 . S
H255 C272 0.940 . S
H256 C273 0.939 . S
H257 C275 0.941 . S
H258 C279 0.939 . S
O259 P248 1.490 . S
H260 C276 0.939 . S
H261 C278 0.940 . S
C262 P248 1.812 . S
C262 C263 1.389 . S
C262 C267 1.391 . S
C263 H249 0.941 . S
C263 C262 1.389 . S
C263 C264 1.397 . S
C264 H250 0.939 . S
C264 C263 1.397 . S
C264 C265 1.378 . S
C265 C264 1.378 . S
C265 C266 1.378 . S
C266 H251 0.940 . S
C266 C265 1.378 . S
C266 C267 1.396 . S
C267 H252 0.940 . S
C267 C262 1.391 . S
C267 C266 1.396 . S
C268 P248 1.803 . S
C268 C269 1.378 1_556 S
C268 C273 1.400 . S
C269 H253 0.939 . S
C269 C268 1.378 1_554 S
C269 C270 1.361 . S
C270 H254 0.942 . S
C270 C269 1.361 . S
C270 C271 1.369 . S
C271 C270 1.369 . S
C271 C272 1.404 1_554 S
C272 H255 0.940 . S
C272 C271 1.404 1_556 S
C272 C273 1.389 . S
C273 H256 0.939 . S
C273 C268 1.400 . S
C273 C272 1.389 . S
C274 P248 1.819 1_554 S
C274 C275 1.391 . S
C274 C279 1.391 . S
C275 H257 0.941 . S
C275 C274 1.391 . S
C275 C276 1.396 . S
C276 H260 0.939 . S
C276 C275 1.396 . S
C276 C277 1.397 . S
C277 C276 1.397 . S
C277 C278 1.385 . S
C278 H261 0.940 . S
C278 C277 1.385 . S
C278 C279 1.388 . S
C279 H258 0.939 . S
C279 C274 1.391 . S
C279 C278 1.388 . S
P280 O291 1.490 . S
P280 C294 1.812 . S
P280 C300 1.803 1_545 S
P280 C306 1.819 . S
H281 C295 0.941 . S
H282 C296 0.939 . S
H283 C298 0.940 . S
H284 C299 0.940 . S
H285 C301 0.939 . S
H286 C302 0.942 . S
H287 C304 0.940 . S
H288 C305 0.939 . S
H289 C307 0.941 . S
H290 C311 0.939 . S
O291 P280 1.490 . S
H292 C308 0.939 . S
H293 C310 0.940 . S
C294 P280 1.812 . S
C294 C295 1.389 . S
C294 C299 1.391 . S
C295 H281 0.941 . S
C295 C294 1.389 . S
C295 C296 1.397 . S
C296 H282 0.939 . S
C296 C295 1.397 . S
C296 C297 1.378 . S
C297 C296 1.378 . S
C297 C298 1.378 . S
C298 H283 0.940 . S
C298 C297 1.378 . S
C298 C299 1.396 . S
C299 H284 0.940 . S
C299 C294 1.391 . S
C299 C298 1.396 . S
C300 P280 1.803 1_565 S
C300 C301 1.378 . S
C300 C305 1.400 . S
C301 H285 0.939 . S
C301 C300 1.378 . S
C301 C302 1.361 . S
C302 H286 0.942 . S
C302 C301 1.361 . S
C302 C303 1.369 . S
C303 C302 1.369 . S
C303 C304 1.404 . S
C304 H287 0.940 . S
C304 C303 1.404 . S
C304 C305 1.389 . S
C305 H288 0.939 . S
C305 C300 1.400 . S
C305 C304 1.389 . S
C306 P280 1.819 . S
C306 C307 1.391 . S
C306 C311 1.391 . S
C307 H289 0.941 . S
C307 C306 1.391 . S
C307 C308 1.396 . S
C308 H292 0.939 . S
C308 C307 1.396 . S
C308 C309 1.397 . S
C309 C308 1.397 . S
C309 C310 1.385 . S
C310 H293 0.940 . S
C310 C309 1.385 . S
C310 C311 1.388 . S
C311 H290 0.939 . S
C311 C306 1.391 . S
C311 C310 1.388 . S
P312 O323 1.490 . S
P312 C326 1.812 . S
P312 C332 1.803 . S
P312 C338 1.819 1_554 S
H313 C327 0.941 . S
H314 C328 0.939 . S
H315 C330 0.940 . S
H316 C331 0.940 . S
H317 C333 0.939 . S
H318 C334 0.942 . S
H319 C336 0.940 . S
H320 C337 0.939 . S
H321 C339 0.941 . S
H322 C343 0.939 . S
O323 P312 1.490 . S
H324 C340 0.939 . S
H325 C342 0.940 . S
C326 P312 1.812 . S
C326 C327 1.389 . S
C326 C331 1.391 . S
C327 H313 0.941 . S
C327 C326 1.389 . S
C327 C328 1.397 . S
C328 H314 0.939 . S
C328 C327 1.397 . S
C328 C329 1.378 . S
C329 C328 1.378 . S
C329 C330 1.378 . S
C330 H315 0.940 . S
C330 C329 1.378 . S
C330 C331 1.396 . S
C331 H316 0.940 . S
C331 C326 1.391 . S
C331 C330 1.396 . S
C332 P312 1.803 . S
C332 C333 1.378 1_554 S
C332 C337 1.400 . S
C333 H317 0.939 . S
C333 C332 1.378 1_556 S
C333 C334 1.361 . S
C334 H318 0.942 . S
C334 C333 1.361 . S
C334 C335 1.369 1_556 S
C335 C334 1.369 1_554 S
C335 C336 1.404 . S
C336 H319 0.940 . S
C336 C335 1.404 . S
C336 C337 1.389 . S
C337 H320 0.939 . S
C337 C332 1.400 . S
C337 C336 1.389 . S
C338 P312 1.819 1_556 S
C338 C339 1.391 . S
C338 C343 1.391 . S
C339 H321 0.941 . S
C339 C338 1.391 . S
C339 C340 1.396 . S
C340 H324 0.939 . S
C340 C339 1.396 . S
C340 C341 1.397 . S
C341 C340 1.397 . S
C341 C342 1.385 . S
C342 H325 0.940 . S
C342 C341 1.385 . S
C342 C343 1.388 . S
C343 H322 0.939 . S
C343 C338 1.391 . S
C343 C342 1.388 . S
C344 C345 1.391 . S
C344 C346 1.394 . S
C344 H360 0.931 . S
C345 C344 1.391 . S
C345 C349 1.376 . S
C346 C344 1.394 . S
C346 C347 1.369 . S
C346 C350 1.531 . S
C347 C346 1.369 . S
C347 C348 1.410 . S
C347 C355 1.503 . S
C348 C347 1.410 . S
C348 C349 1.392 . S
C348 C351 1.511 . S
C349 C345 1.376 . S
C349 C348 1.392 . S
C349 H361 0.929 . S
C350 C346 1.531 . S
C350 H362 0.960 . S
C350 H363 0.962 . S
C350 H364 0.960 . S
C351 C348 1.511 . S
C351 H365 0.961 . S
C351 H366 0.961 . S
C351 H367 0.961 . S
C352 C353 1.370 . S
C352 C354 1.363 . S
C352 H368 0.931 . S
C353 C352 1.370 . S
C353 C357 1.408 . S
C354 C352 1.363 . S
C354 C355 1.370 . S
C354 C358 1.524 . S
C355 C347 1.503 . S
C355 C354 1.370 . S
C355 C356 1.403 . S
C356 C355 1.403 . S
C356 C357 1.404 . S
C356 C359 1.539 . S
C357 C353 1.408 . S
C357 C356 1.404 . S
C357 H369 0.930 . S
C358 C354 1.524 . S
C358 H370 0.956 . S
C358 H371 0.961 . S
C358 H372 0.961 . S
C359 C356 1.539 . S
C359 H373 0.958 . S
C359 H374 0.961 . S
C359 H375 0.960 . S
H360 C344 0.931 . S
H361 C349 0.929 . S
H362 C350 0.960 . S
H363 C350 0.962 . S
H364 C350 0.960 . S
H365 C351 0.961 . S
H366 C351 0.961 . S
H367 C351 0.961 . S
H368 C352 0.931 . S
H369 C357 0.930 . S
H370 C358 0.956 . S
H371 C358 0.961 . S
H372 C358 0.961 . S
H373 C359 0.958 . S
H374 C359 0.961 . S
H375 C359 0.960 . S
C376 C377 1.391 . S
C376 C378 1.394 . S
C376 H392 0.931 . S
C377 C376 1.391 . S
C377 C381 1.376 . S
C378 C376 1.394 . S
C378 C379 1.369 . S
C378 C382 1.531 . S
C379 C378 1.369 . S
C379 C380 1.410 . S
C379 C387 1.503 . S
C380 C379 1.410 . S
C380 C381 1.392 . S
C380 C383 1.511 . S
C381 C377 1.376 . S
C381 C380 1.392 . S
C381 H393 0.929 . S
C382 C378 1.531 . S
C382 H394 0.960 . S
C382 H395 0.962 . S
C382 H396 0.960 . S
C383 C380 1.511 . S
C383 H397 0.961 . S
C383 H398 0.961 . S
C383 H399 0.961 . S
C384 C385 1.370 . S
C384 C386 1.363 . S
C384 H400 0.931 . S
C385 C384 1.370 . S
C385 C389 1.408 . S
C386 C384 1.363 . S
C386 C387 1.370 . S
C386 C390 1.524 . S
C387 C379 1.503 . S
C387 C386 1.370 . S
C387 C388 1.403 . S
C388 C387 1.403 . S
C388 C389 1.404 . S
C388 C391 1.539 . S
C389 C385 1.408 . S
C389 C388 1.404 . S
C389 H401 0.930 . S
C390 C386 1.524 . S
C390 H402 0.956 . S
C390 H403 0.961 . S
C390 H404 0.961 . S
C391 C388 1.539 . S
C391 H405 0.958 . S
C391 H406 0.961 . S
C391 H407 0.960 . S
H392 C376 0.931 . S
H393 C381 0.929 . S
H394 C382 0.960 . S
H395 C382 0.962 . S
H396 C382 0.960 . S
H397 C383 0.961 . S
H398 C383 0.961 . S
H399 C383 0.961 . S
H400 C384 0.931 . S
H401 C389 0.930 . S
H402 C390 0.956 . S
H403 C390 0.961 . S
H404 C390 0.961 . S
H405 C391 0.958 . S
H406 C391 0.961 . S
H407 C391 0.960 . S
C408 C409 1.391 . S
C408 C410 1.394 . S
C408 H424 0.931 . S
C409 C408 1.391 . S
C409 C413 1.376 . S
C410 C408 1.394 . S
C410 C411 1.369 . S
C410 C414 1.531 . S
C411 C410 1.369 . S
C411 C412 1.410 . S
C411 C419 1.503 . S
C412 C411 1.410 . S
C412 C413 1.392 . S
C412 C415 1.511 . S
C413 C409 1.376 . S
C413 C412 1.392 . S
C413 H425 0.929 . S
C414 C410 1.531 . S
C414 H426 0.960 . S
C414 H427 0.962 . S
C414 H428 0.960 . S
C415 C412 1.511 . S
C415 H429 0.961 . S
C415 H430 0.961 . S
C415 H431 0.961 . S
C416 C417 1.370 . S
C416 C418 1.363 . S
C416 H432 0.931 . S
C417 C416 1.370 . S
C417 C421 1.408 . S
C418 C416 1.363 . S
C418 C419 1.370 . S
C418 C422 1.524 . S
C419 C411 1.503 . S
C419 C418 1.370 . S
C419 C420 1.403 . S
C420 C419 1.403 . S
C420 C421 1.404 . S
C420 C423 1.539 . S
C421 C417 1.408 . S
C421 C420 1.404 . S
C421 H433 0.930 . S
C422 C418 1.524 . S
C422 H434 0.956 . S
C422 H435 0.961 . S
C422 H436 0.961 . S
C423 C420 1.539 . S
C423 H437 0.958 . S
C423 H438 0.961 . S
C423 H439 0.960 . S
H424 C408 0.931 . S
H425 C413 0.929 . S
H426 C414 0.960 . S
H427 C414 0.962 . S
H428 C414 0.960 . S
H429 C415 0.961 . S
H430 C415 0.961 . S
H431 C415 0.961 . S
H432 C416 0.931 . S
H433 C421 0.930 . S
H434 C422 0.956 . S
H435 C422 0.961 . S
H436 C422 0.961 . S
H437 C423 0.958 . S
H438 C423 0.961 . S
H439 C423 0.960 . S
C440 C441 1.391 . S
C440 C442 1.394 . S
C440 H456 0.931 . S
C441 C440 1.391 . S
C441 C445 1.376 . S
C442 C440 1.394 . S
C442 C443 1.369 . S
C442 C446 1.531 . S
C443 C442 1.369 . S
C443 C444 1.410 . S
C443 C451 1.503 . S
C444 C443 1.410 . S
C444 C445 1.392 . S
C444 C447 1.511 . S
C445 C441 1.376 . S
C445 C444 1.392 . S
C445 H457 0.929 . S
C446 C442 1.531 . S
C446 H458 0.960 . S
C446 H459 0.962 . S
C446 H460 0.960 . S
C447 C444 1.511 . S
C447 H461 0.961 . S
C447 H462 0.961 . S
C447 H463 0.961 . S
C448 C449 1.370 . S
C448 C450 1.363 . S
C448 H464 0.931 . S
C449 C448 1.370 . S
C449 C453 1.408 . S
C450 C448 1.363 . S
C450 C451 1.370 . S
C450 C454 1.524 . S
C451 C443 1.503 . S
C451 C450 1.370 . S
C451 C452 1.403 . S
C452 C451 1.403 . S
C452 C453 1.404 . S
C452 C455 1.539 . S
C453 C449 1.408 . S
C453 C452 1.404 . S
C453 H465 0.930 . S
C454 C450 1.524 . S
C454 H466 0.956 . S
C454 H467 0.961 . S
C454 H468 0.961 . S
C455 C452 1.539 . S
C455 H469 0.958 . S
C455 H470 0.961 . S
C455 H471 0.960 . S
H456 C440 0.931 . S
H457 C445 0.929 . S
H458 C446 0.960 . S
H459 C446 0.962 . S
H460 C446 0.960 . S
H461 C447 0.961 . S
H462 C447 0.961 . S
H463 C447 0.961 . S
H464 C448 0.931 . S
H465 C453 0.930 . S
H466 C454 0.956 . S
H467 C454 0.961 . S
H468 C454 0.961 . S
H469 C455 0.958 . S
H470 C455 0.961 . S
H471 C455 0.960 . S
C472 C473 1.391 . S
C472 C474 1.394 . S
C472 H488 0.931 . S
C473 C472 1.391 . S
C473 C477 1.376 . S
C474 C472 1.394 . S
C474 C475 1.369 . S
C474 C478 1.531 . S
C475 C474 1.369 . S
C475 C476 1.410 . S
C475 C483 1.503 . S
C476 C475 1.410 . S
C476 C477 1.392 . S
C476 C479 1.511 . S
C477 C473 1.376 . S
C477 C476 1.392 . S
C477 H489 0.929 . S
C478 C474 1.531 . S
C478 H490 0.960 . S
C478 H491 0.962 . S
C478 H492 0.960 . S
C479 C476 1.511 . S
C479 H493 0.961 . S
C479 H494 0.961 . S
C479 H495 0.961 . S
C480 C481 1.370 . S
C480 C482 1.363 . S
C480 H496 0.931 . S
C481 C480 1.370 . S
C481 C485 1.408 . S
C482 C480 1.363 . S
C482 C483 1.370 . S
C482 C486 1.524 . S
C483 C475 1.503 . S
C483 C482 1.370 . S
C483 C484 1.403 . S
C484 C483 1.403 . S
C484 C485 1.404 . S
C484 C487 1.539 . S
C485 C481 1.408 . S
C485 C484 1.404 . S
C485 H497 0.930 . S
C486 C482 1.524 . S
C486 H498 0.956 . S
C486 H499 0.961 . S
C486 H500 0.961 . S
C487 C484 1.539 . S
C487 H501 0.958 . S
C487 H502 0.961 . S
C487 H503 0.960 . S
H488 C472 0.931 . S
H489 C477 0.929 . S
H490 C478 0.960 . S
H491 C478 0.962 . S
H492 C478 0.960 . S
H493 C479 0.961 . S
H494 C479 0.961 . S
H495 C479 0.961 . S
H496 C480 0.931 . S
H497 C485 0.930 . S
H498 C486 0.956 . S
H499 C486 0.961 . S
H500 C486 0.961 . S
H501 C487 0.958 . S
H502 C487 0.961 . S
H503 C487 0.960 . S
C504 C505 1.391 . S
C504 C506 1.394 . S
C504 H520 0.931 . S
C505 C504 1.391 . S
C505 C509 1.376 . S
C506 C504 1.394 . S
C506 C507 1.369 . S
C506 C510 1.531 . S
C507 C506 1.369 . S
C507 C508 1.410 . S
C507 C515 1.503 . S
C508 C507 1.410 . S
C508 C509 1.392 . S
C508 C511 1.511 . S
C509 C505 1.376 . S
C509 C508 1.392 . S
C509 H521 0.929 . S
C510 C506 1.531 . S
C510 H522 0.960 . S
C510 H523 0.962 . S
C510 H524 0.960 . S
C511 C508 1.511 . S
C511 H525 0.961 . S
C511 H526 0.961 . S
C511 H527 0.961 . S
C512 C513 1.370 . S
C512 C514 1.363 . S
C512 H528 0.931 . S
C513 C512 1.370 . S
C513 C517 1.408 . S
C514 C512 1.363 . S
C514 C515 1.370 . S
C514 C518 1.524 . S
C515 C507 1.503 . S
C515 C514 1.370 . S
C515 C516 1.403 . S
C516 C515 1.403 . S
C516 C517 1.404 . S
C516 C519 1.539 . S
C517 C513 1.408 . S
C517 C516 1.404 . S
C517 H529 0.930 . S
C518 C514 1.524 . S
C518 H530 0.956 . S
C518 H531 0.961 . S
C518 H532 0.961 . S
C519 C516 1.539 . S
C519 H533 0.958 . S
C519 H534 0.961 . S
C519 H535 0.960 . S
H520 C504 0.931 . S
H521 C509 0.929 . S
H522 C510 0.960 . S
H523 C510 0.962 . S
H524 C510 0.960 . S
H525 C511 0.961 . S
H526 C511 0.961 . S
H527 C511 0.961 . S
H528 C512 0.931 . S
H529 C517 0.930 . S
H530 C518 0.956 . S
H531 C518 0.961 . S
H532 C518 0.961 . S
H533 C519 0.958 . S
H534 C519 0.961 . S
H535 C519 0.960 . S
C536 C537 1.391 . S
C536 C538 1.394 . S
C536 H552 0.931 . S
C537 C536 1.391 . S
C537 C541 1.376 . S
C538 C536 1.394 . S
C538 C539 1.369 . S
C538 C542 1.531 . S
C539 C538 1.369 . S
C539 C540 1.410 . S
C539 C547 1.503 . S
C540 C539 1.410 . S
C540 C541 1.392 . S
C540 C543 1.511 . S
C541 C537 1.376 . S
C541 C540 1.392 . S
C541 H553 0.929 . S
C542 C538 1.531 . S
C542 H554 0.960 . S
C542 H555 0.962 . S
C542 H556 0.960 . S
C543 C540 1.511 . S
C543 H557 0.961 . S
C543 H558 0.961 . S
C543 H559 0.961 . S
C544 C545 1.370 . S
C544 C546 1.363 . S
C544 H560 0.931 . S
C545 C544 1.370 . S
C545 C549 1.408 . S
C546 C544 1.363 . S
C546 C547 1.370 . S
C546 C550 1.524 . S
C547 C539 1.503 . S
C547 C546 1.370 . S
C547 C548 1.403 . S
C548 C547 1.403 . S
C548 C549 1.404 . S
C548 C551 1.539 . S
C549 C545 1.408 . S
C549 C548 1.404 . S
C549 H561 0.930 . S
C550 C546 1.524 . S
C550 H562 0.956 . S
C550 H563 0.961 . S
C550 H564 0.961 . S
C551 C548 1.539 . S
C551 H565 0.958 . S
C551 H566 0.961 . S
C551 H567 0.960 . S
H552 C536 0.931 . S
H553 C541 0.929 . S
H554 C542 0.960 . S
H555 C542 0.962 . S
H556 C542 0.960 . S
H557 C543 0.961 . S
H558 C543 0.961 . S
H559 C543 0.961 . S
H560 C544 0.931 . S
H561 C549 0.930 . S
H562 C550 0.956 . S
H563 C550 0.961 . S
H564 C550 0.961 . S
H565 C551 0.958 . S
H566 C551 0.961 . S
H567 C551 0.960 . S
C568 C569 1.391 . S
C568 C570 1.394 . S
C568 H584 0.931 . S
C569 C568 1.391 . S
C569 C573 1.376 . S
C570 C568 1.394 . S
C570 C571 1.369 . S
C570 C574 1.531 . S
C571 C570 1.369 . S
C571 C572 1.410 . S
C571 C579 1.503 . S
C572 C571 1.410 . S
C572 C573 1.392 . S
C572 C575 1.511 . S
C573 C569 1.376 . S
C573 C572 1.392 . S
C573 H585 0.929 . S
C574 C570 1.531 . S
C574 H586 0.960 . S
C574 H587 0.962 . S
C574 H588 0.960 . S
C575 C572 1.511 . S
C575 H589 0.961 . S
C575 H590 0.961 . S
C575 H591 0.961 . S
C576 C577 1.370 . S
C576 C578 1.363 . S
C576 H592 0.931 . S
C577 C576 1.370 . S
C577 C581 1.408 . S
C578 C576 1.363 . S
C578 C579 1.370 . S
C578 C582 1.524 . S
C579 C571 1.503 . S
C579 C578 1.370 . S
C579 C580 1.403 . S
C580 C579 1.403 . S
C580 C581 1.404 . S
C580 C583 1.539 . S
C581 C577 1.408 . S
C581 C580 1.404 . S
C581 H593 0.930 . S
C582 C578 1.524 . S
C582 H594 0.956 . S
C582 H595 0.961 . S
C582 H596 0.961 . S
C583 C580 1.539 . S
C583 H597 0.958 . S
C583 H598 0.961 . S
C583 H599 0.960 . S
H584 C568 0.931 . S
H585 C573 0.929 . S
H586 C574 0.960 . S
H587 C574 0.962 . S
H588 C574 0.960 . S
H589 C575 0.961 . S
H590 C575 0.961 . S
H591 C575 0.961 . S
H592 C576 0.931 . S
H593 C581 0.930 . S
H594 C582 0.956 . S
H595 C582 0.961 . S
H596 C582 0.961 . S
H597 C583 0.958 . S
H598 C583 0.961 . S
H599 C583 0.960 . S
C600 C601 1.391 . S
C600 C602 1.394 . S
C600 H616 0.931 . S
C601 C600 1.391 . S
C601 C605 1.376 . S
C602 C600 1.394 . S
C602 C603 1.369 . S
C602 C606 1.531 . S
C603 C602 1.369 . S
C603 C604 1.410 . S
C603 C611 1.503 . S
C604 C603 1.410 . S
C604 C605 1.392 . S
C604 C607 1.511 . S
C605 C601 1.376 . S
C605 C604 1.392 . S
C605 H617 0.929 . S
C606 C602 1.531 . S
C606 H618 0.960 . S
C606 H619 0.962 . S
C606 H620 0.960 . S
C607 C604 1.511 . S
C607 H621 0.961 . S
C607 H622 0.961 . S
C607 H623 0.961 . S
C608 C609 1.370 . S
C608 C610 1.363 . S
C608 H624 0.931 . S
C609 C608 1.370 . S
C609 C613 1.408 . S
C610 C608 1.363 . S
C610 C611 1.370 . S
C610 C614 1.524 . S
C611 C603 1.503 . S
C611 C610 1.370 . S
C611 C612 1.403 . S
C612 C611 1.403 . S
C612 C613 1.404 . S
C612 C615 1.539 . S
C613 C609 1.408 . S
C613 C612 1.404 . S
C613 H625 0.930 . S
C614 C610 1.524 . S
C614 H626 0.956 . S
C614 H627 0.961 . S
C614 H628 0.961 . S
C615 C612 1.539 . S
C615 H629 0.958 . S
C615 H630 0.961 . S
C615 H631 0.960 . S
H616 C600 0.931 . S
H617 C605 0.929 . S
H618 C606 0.960 . S
H619 C606 0.962 . S
H620 C606 0.960 . S
H621 C607 0.961 . S
H622 C607 0.961 . S
H623 C607 0.961 . S
H624 C608 0.931 . S
H625 C613 0.930 . S
H626 C614 0.956 . S
H627 C614 0.961 . S
H628 C614 0.961 . S
H629 C615 0.958 . S
H630 C615 0.961 . S
H631 C615 0.960 . S
C632 C633 1.391 . S
C632 C634 1.394 . S
C632 H648 0.931 . S
C633 C632 1.391 . S
C633 C637 1.376 . S
C634 C632 1.394 . S
C634 C635 1.369 . S
C634 C638 1.531 . S
C635 C634 1.369 . S
C635 C636 1.410 . S
C635 C643 1.503 . S
C636 C635 1.410 . S
C636 C637 1.392 . S
C636 C639 1.511 . S
C637 C633 1.376 . S
C637 C636 1.392 . S
C637 H649 0.929 . S
C638 C634 1.531 . S
C638 H650 0.960 . S
C638 H651 0.962 . S
C638 H652 0.960 . S
C639 C636 1.511 . S
C639 H653 0.961 . S
C639 H654 0.961 . S
C639 H655 0.961 . S
C640 C641 1.370 . S
C640 C642 1.363 . S
C640 H656 0.931 . S
C641 C640 1.370 . S
C641 C645 1.408 . S
C642 C640 1.363 . S
C642 C643 1.370 . S
C642 C646 1.524 . S
C643 C635 1.503 . S
C643 C642 1.370 . S
C643 C644 1.403 . S
C644 C643 1.403 . S
C644 C645 1.404 . S
C644 C647 1.539 . S
C645 C641 1.408 . S
C645 C644 1.404 . S
C645 H657 0.930 . S
C646 C642 1.524 . S
C646 H658 0.956 . S
C646 H659 0.961 . S
C646 H660 0.961 . S
C647 C644 1.539 . S
C647 H661 0.958 . S
C647 H662 0.961 . S
C647 H663 0.960 . S
H648 C632 0.931 . S
H649 C637 0.929 . S
H650 C638 0.960 . S
H651 C638 0.962 . S
H652 C638 0.960 . S
H653 C639 0.961 . S
H654 C639 0.961 . S
H655 C639 0.961 . S
H656 C640 0.931 . S
H657 C645 0.930 . S
H658 C646 0.956 . S
H659 C646 0.961 . S
H660 C646 0.961 . S
H661 C647 0.958 . S
H662 C647 0.961 . S
H663 C647 0.960 . S
C664 C665 1.391 . S
C664 C666 1.394 . S
C664 H680 0.931 . S
C665 C664 1.391 . S
C665 C669 1.376 . S
C666 C664 1.394 . S
C666 C667 1.369 . S
C666 C670 1.531 . S
C667 C666 1.369 . S
C667 C668 1.410 . S
C667 C675 1.503 . S
C668 C667 1.410 . S
C668 C669 1.392 . S
C668 C671 1.511 . S
C669 C665 1.376 . S
C669 C668 1.392 . S
C669 H681 0.929 . S
C670 C666 1.531 . S
C670 H682 0.960 . S
C670 H683 0.962 . S
C670 H684 0.960 . S
C671 C668 1.511 . S
C671 H685 0.961 . S
C671 H686 0.961 . S
C671 H687 0.961 . S
C672 C673 1.370 . S
C672 C674 1.363 . S
C672 H688 0.931 . S
C673 C672 1.370 . S
C673 C677 1.408 . S
C674 C672 1.363 . S
C674 C675 1.370 . S
C674 C678 1.524 . S
C675 C667 1.503 . S
C675 C674 1.370 . S
C675 C676 1.403 . S
C676 C675 1.403 . S
C676 C677 1.404 . S
C676 C679 1.539 . S
C677 C673 1.408 . S
C677 C676 1.404 . S
C677 H689 0.930 . S
C678 C674 1.524 . S
C678 H690 0.956 . S
C678 H691 0.961 . S
C678 H692 0.961 . S
C679 C676 1.539 . S
C679 H693 0.958 . S
C679 H694 0.961 . S
C679 H695 0.960 . S
H680 C664 0.931 . S
H681 C669 0.929 . S
H682 C670 0.960 . S
H683 C670 0.962 . S
H684 C670 0.960 . S
H685 C671 0.961 . S
H686 C671 0.961 . S
H687 C671 0.961 . S
H688 C672 0.931 . S
H689 C677 0.930 . S
H690 C678 0.956 . S
H691 C678 0.961 . S
H692 C678 0.961 . S
H693 C679 0.958 . S
H694 C679 0.961 . S
H695 C679 0.960 . S
C696 C697 1.391 . S
C696 C698 1.394 . S
C696 H712 0.931 . S
C697 C696 1.391 . S
C697 C701 1.376 . S
C698 C696 1.394 . S
C698 C699 1.369 . S
C698 C702 1.531 . S
C699 C698 1.369 . S
C699 C700 1.410 . S
C699 C707 1.503 . S
C700 C699 1.410 . S
C700 C701 1.392 . S
C700 C703 1.511 . S
C701 C697 1.376 . S
C701 C700 1.392 . S
C701 H713 0.929 . S
C702 C698 1.531 . S
C702 H714 0.960 . S
C702 H715 0.962 . S
C702 H716 0.960 . S
C703 C700 1.511 . S
C703 H717 0.961 . S
C703 H718 0.961 . S
C703 H719 0.961 . S
C704 C705 1.370 . S
C704 C706 1.363 . S
C704 H720 0.931 . S
C705 C704 1.370 . S
C705 C709 1.408 . S
C706 C704 1.363 . S
C706 C707 1.370 . S
C706 C710 1.524 . S
C707 C699 1.503 . S
C707 C706 1.370 . S
C707 C708 1.403 . S
C708 C707 1.403 . S
C708 C709 1.404 . S
C708 C711 1.539 . S
C709 C705 1.408 . S
C709 C708 1.404 . S
C709 H721 0.930 . S
C710 C706 1.524 . S
C710 H722 0.956 . S
C710 H723 0.961 . S
C710 H724 0.961 . S
C711 C708 1.539 . S
C711 H725 0.958 . S
C711 H726 0.961 . S
C711 H727 0.960 . S
H712 C696 0.931 . S
H713 C701 0.929 . S
H714 C702 0.960 . S
H715 C702 0.962 . S
H716 C702 0.960 . S
H717 C703 0.961 . S
H718 C703 0.961 . S
H719 C703 0.961 . S
H720 C704 0.931 . S
H721 C709 0.930 . S
H722 C710 0.956 . S
H723 C710 0.961 . S
H724 C710 0.961 . S
H725 C711 0.958 . S
H726 C711 0.961 . S
H727 C711 0.960 . S
C728 C729 1.391 . S
C728 C730 1.394 . S
C728 H744 0.931 . S
C729 C728 1.391 . S
C729 C733 1.376 . S
C730 C728 1.394 . S
C730 C731 1.369 . S
C730 C734 1.531 . S
C731 C730 1.369 . S
C731 C732 1.410 . S
C731 C739 1.503 . S
C732 C731 1.410 . S
C732 C733 1.392 . S
C732 C735 1.511 . S
C733 C729 1.376 . S
C733 C732 1.392 . S
C733 H745 0.929 . S
C734 C730 1.531 . S
C734 H746 0.960 . S
C734 H747 0.962 . S
C734 H748 0.960 . S
C735 C732 1.511 . S
C735 H749 0.961 . S
C735 H750 0.961 . S
C735 H751 0.961 . S
C736 C737 1.370 . S
C736 C738 1.363 . S
C736 H752 0.931 . S
C737 C736 1.370 . S
C737 C741 1.408 . S
C738 C736 1.363 . S
C738 C739 1.370 . S
C738 C742 1.524 . S
C739 C731 1.503 . S
C739 C738 1.370 . S
C739 C740 1.403 . S
C740 C739 1.403 . S
C740 C741 1.404 . S
C740 C743 1.539 . S
C741 C737 1.408 . S
C741 C740 1.404 . S
C741 H753 0.930 . S
C742 C738 1.524 . S
C742 H754 0.956 . S
C742 H755 0.961 . S
C742 H756 0.961 . S
C743 C740 1.539 . S
C743 H757 0.958 . S
C743 H758 0.961 . S
C743 H759 0.960 . S
H744 C728 0.931 . S
H745 C733 0.929 . S
H746 C734 0.960 . S
H747 C734 0.962 . S
H748 C734 0.960 . S
H749 C735 0.961 . S
H750 C735 0.961 . S
H751 C735 0.961 . S
H752 C736 0.931 . S
H753 C741 0.930 . S
H754 C742 0.956 . S
H755 C742 0.961 . S
H756 C742 0.961 . S
H757 C743 0.958 . S
H758 C743 0.961 . S
H759 C743 0.960 . S
C760 C761 1.391 . S
C760 C762 1.394 . S
C760 H776 0.931 . S
C761 C760 1.391 . S
C761 C765 1.376 . S
C762 C760 1.394 . S
C762 C763 1.369 . S
C762 C766 1.531 . S
C763 C762 1.369 . S
C763 C764 1.410 . S
C763 C771 1.503 . S
C764 C763 1.410 . S
C764 C765 1.392 . S
C764 C767 1.511 . S
C765 C761 1.376 . S
C765 C764 1.392 . S
C765 H777 0.929 . S
C766 C762 1.531 . S
C766 H778 0.960 . S
C766 H779 0.962 . S
C766 H780 0.960 . S
C767 C764 1.511 . S
C767 H781 0.961 . S
C767 H782 0.961 . S
C767 H783 0.961 . S
C768 C769 1.370 . S
C768 C770 1.363 . S
C768 H784 0.931 . S
C769 C768 1.370 . S
C769 C773 1.408 . S
C770 C768 1.363 . S
C770 C771 1.370 . S
C770 C774 1.524 . S
C771 C763 1.503 . S
C771 C770 1.370 . S
C771 C772 1.403 . S
C772 C771 1.403 . S
C772 C773 1.404 . S
C772 C775 1.539 . S
C773 C769 1.408 . S
C773 C772 1.404 . S
C773 H785 0.930 . S
C774 C770 1.524 . S
C774 H786 0.956 . S
C774 H787 0.961 . S
C774 H788 0.961 . S
C775 C772 1.539 . S
C775 H789 0.958 . S
C775 H790 0.961 . S
C775 H791 0.960 . S
H776 C760 0.931 . S
H777 C765 0.929 . S
H778 C766 0.960 . S
H779 C766 0.962 . S
H780 C766 0.960 . S
H781 C767 0.961 . S
H782 C767 0.961 . S
H783 C767 0.961 . S
H784 C768 0.931 . S
H785 C773 0.930 . S
H786 C774 0.956 . S
H787 C774 0.961 . S
H788 C774 0.961 . S
H789 C775 0.958 . S
H790 C775 0.961 . S
H791 C775 0.960 . S
C792 C793 1.391 . S
C792 C794 1.394 . S
C792 H808 0.931 . S
C793 C792 1.391 . S
C793 C797 1.376 . S
C794 C792 1.394 . S
C794 C795 1.369 . S
C794 C798 1.531 . S
C795 C794 1.369 . S
C795 C796 1.410 . S
C795 C803 1.503 . S
C796 C795 1.410 . S
C796 C797 1.392 . S
C796 C799 1.511 . S
C797 C793 1.376 . S
C797 C796 1.392 . S
C797 H809 0.929 . S
C798 C794 1.531 . S
C798 H810 0.960 . S
C798 H811 0.962 . S
C798 H812 0.960 . S
C799 C796 1.511 . S
C799 H813 0.961 . S
C799 H814 0.961 . S
C799 H815 0.961 . S
C800 C801 1.370 . S
C800 C802 1.363 . S
C800 H816 0.931 . S
C801 C800 1.370 . S
C801 C805 1.408 . S
C802 C800 1.363 . S
C802 C803 1.370 . S
C802 C806 1.524 . S
C803 C795 1.503 . S
C803 C802 1.370 . S
C803 C804 1.403 . S
C804 C803 1.403 . S
C804 C805 1.404 . S
C804 C807 1.539 . S
C805 C801 1.408 . S
C805 C804 1.404 . S
C805 H817 0.930 . S
C806 C802 1.524 . S
C806 H818 0.956 . S
C806 H819 0.961 . S
C806 H820 0.961 . S
C807 C804 1.539 . S
C807 H821 0.958 . S
C807 H822 0.961 . S
C807 H823 0.960 . S
H808 C792 0.931 . S
H809 C797 0.929 . S
H810 C798 0.960 . S
H811 C798 0.962 . S
H812 C798 0.960 . S
H813 C799 0.961 . S
H814 C799 0.961 . S
H815 C799 0.961 . S
H816 C800 0.931 . S
H817 C805 0.930 . S
H818 C806 0.956 . S
H819 C806 0.961 . S
H820 C806 0.961 . S
H821 C807 0.958 . S
H822 C807 0.961 . S
H823 C807 0.960 . S
C824 C825 1.391 . S
C824 C826 1.394 . S
C824 H840 0.931 . S
C825 C824 1.391 . S
C825 C829 1.376 . S
C826 C824 1.394 . S
C826 C827 1.369 . S
C826 C830 1.531 . S
C827 C826 1.369 . S
C827 C828 1.410 . S
C827 C835 1.503 . S
C828 C827 1.410 . S
C828 C829 1.392 . S
C828 C831 1.511 . S
C829 C825 1.376 . S
C829 C828 1.392 . S
C829 H841 0.929 . S
C830 C826 1.531 . S
C830 H842 0.960 . S
C830 H843 0.962 . S
C830 H844 0.960 . S
C831 C828 1.511 . S
C831 H845 0.961 . S
C831 H846 0.961 . S
C831 H847 0.961 . S
C832 C833 1.370 . S
C832 C834 1.363 . S
C832 H848 0.931 . S
C833 C832 1.370 . S
C833 C837 1.408 . S
C834 C832 1.363 . S
C834 C835 1.370 . S
C834 C838 1.524 . S
C835 C827 1.503 . S
C835 C834 1.370 . S
C835 C836 1.403 . S
C836 C835 1.403 . S
C836 C837 1.404 . S
C836 C839 1.539 . S
C837 C833 1.408 . S
C837 C836 1.404 . S
C837 H849 0.930 . S
C838 C834 1.524 . S
C838 H850 0.956 . S
C838 H851 0.961 . S
C838 H852 0.961 . S
C839 C836 1.539 . S
C839 H853 0.958 . S
C839 H854 0.961 . S
C839 H855 0.960 . S
H840 C824 0.931 . S
H841 C829 0.929 . S
H842 C830 0.960 . S
H843 C830 0.962 . S
H844 C830 0.960 . S
H845 C831 0.961 . S
H846 C831 0.961 . S
H847 C831 0.961 . S
H848 C832 0.931 . S
H849 C837 0.930 . S
H850 C838 0.956 . S
H851 C838 0.961 . S
H852 C838 0.961 . S
H853 C839 0.958 . S
H854 C839 0.961 . S
H855 C839 0.960 . S
C856 C857 1.391 . S
C856 C858 1.394 . S
C856 H872 0.931 . S
C857 C856 1.391 . S
C857 C861 1.376 1_556 S
C858 C856 1.394 . S
C858 C859 1.369 . S
C858 C862 1.531 . S
C859 C858 1.369 . S
C859 C860 1.410 1_556 S
C859 C867 1.503 . S
C860 C859 1.410 1_554 S
C860 C861 1.392 . S
C860 C863 1.511 . S
C861 C857 1.376 1_554 S
C861 C860 1.392 . S
C861 H873 0.929 . S
C862 C858 1.531 . S
C862 H874 0.960 . S
C862 H875 0.962 . S
C862 H876 0.960 . S
C863 C860 1.511 . S
C863 H877 0.961 . S
C863 H878 0.961 . S
C863 H879 0.961 . S
C864 C865 1.364 1_554 S
C864 C866 1.363 . S
C864 H880 0.931 . S
C865 C864 1.364 1_556 S
C865 C869 1.416 . S
C866 C864 1.363 . S
C866 C867 1.370 1_554 S
C866 C870 1.524 . S
C867 C859 1.503 . S
C867 C866 1.370 1_556 S
C867 C868 1.403 . S
C868 C867 1.403 . S
C868 C869 1.404 . S
C868 C871 1.539 . S
C869 C865 1.416 . S
C869 C868 1.404 . S
C869 H881 0.930 . S
C870 C866 1.524 . S
C870 H882 0.956 . S
C870 H883 0.961 . S
C870 H884 0.961 . S
C871 C868 1.539 . S
C871 H885 0.958 . S
C871 H886 0.961 . S
C871 H887 0.960 . S
H872 C856 0.931 . S
H873 C861 0.929 . S
H874 C862 0.960 . S
H875 C862 0.962 . S
H876 C862 0.960 . S
H877 C863 0.961 . S
H878 C863 0.961 . S
H879 C863 0.961 . S
H880 C864 0.931 . S
H881 C869 0.930 . S
H882 C870 0.956 . S
H883 C870 0.961 . S
H884 C870 0.961 . S
H885 C871 0.958 . S
H886 C871 0.961 . S
H887 C871 0.960 . S
C888 C889 1.391 . S
C888 C890 1.394 . S
C888 H904 0.931 . S
C889 C888 1.391 . S
C889 C893 1.376 . S
C890 C888 1.394 . S
C890 C891 1.369 . S
C890 C894 1.531 . S
C891 C890 1.369 . S
C891 C892 1.410 . S
C891 C899 1.503 . S
C892 C891 1.410 . S
C892 C893 1.392 . S
C892 C895 1.511 . S
C893 C889 1.376 . S
C893 C892 1.392 . S
C893 H905 0.929 . S
C894 C890 1.531 . S
C894 H906 0.960 . S
C894 H907 0.962 . S
C894 H908 0.960 . S
C895 C892 1.511 . S
C895 H909 0.961 . S
C895 H910 0.961 . S
C895 H911 0.961 . S
C896 C897 1.370 . S
C896 C898 1.363 . S
C896 H912 0.931 . S
C897 C896 1.370 . S
C897 C901 1.408 . S
C898 C896 1.363 . S
C898 C899 1.370 . S
C898 C902 1.524 . S
C899 C891 1.503 . S
C899 C898 1.370 . S
C899 C900 1.403 . S
C900 C899 1.403 . S
C900 C901 1.404 . S
C900 C903 1.539 . S
C901 C897 1.408 . S
C901 C900 1.404 . S
C901 H913 0.930 . S
C902 C898 1.524 . S
C902 H914 0.956 . S
C902 H915 0.961 . S
C902 H916 0.961 . S
C903 C900 1.539 . S
C903 H917 0.958 . S
C903 H918 0.961 . S
C903 H919 0.960 . S
H904 C888 0.931 . S
H905 C893 0.929 . S
H906 C894 0.960 . S
H907 C894 0.962 . S
H908 C894 0.960 . S
H909 C895 0.961 . S
H910 C895 0.961 . S
H911 C895 0.961 . S
H912 C896 0.931 . S
H913 C901 0.930 . S
H914 C902 0.956 . S
H915 C902 0.961 . S
H916 C902 0.961 . S
H917 C903 0.958 . S
H918 C903 0.961 . S
H919 C903 0.960 . S
C920 C921 1.383 1_554 S
C920 C922 1.394 . S
C920 H936 0.931 . S
C921 C920 1.383 1_556 S
C921 C925 1.387 . S
C922 C920 1.394 . S
C922 C923 1.369 1_554 S
C922 C926 1.531 . S
C923 C922 1.369 1_556 S
C923 C924 1.410 . S
C923 C931 1.503 . S
C924 C923 1.410 . S
C924 C925 1.392 . S
C924 C927 1.511 . S
C925 C921 1.387 . S
C925 C924 1.392 . S
C925 H937 0.929 . S
C926 C922 1.531 . S
C926 H938 0.960 . S
C926 H939 0.962 . S
C926 H940 0.960 . S
C927 C924 1.511 . S
C927 H941 0.961 . S
C927 H942 0.961 . S
C927 H943 0.961 . S
C928 C929 1.370 . S
C928 C930 1.363 . S
C928 H944 0.931 . S
C929 C928 1.370 . S
C929 C933 1.408 1_554 S
C930 C928 1.363 . S
C930 C931 1.370 1_554 S
C930 C934 1.524 . S
C931 C923 1.503 . S
C931 C930 1.370 1_556 S
C931 C932 1.403 . S
C932 C931 1.403 . S
C932 C933 1.404 . S
C932 C935 1.539 . S
C933 C929 1.408 1_556 S
C933 C932 1.404 . S
C933 H945 0.930 . S
C934 C930 1.524 . S
C934 H946 0.956 . S
C934 H947 0.961 . S
C934 H948 0.961 . S
C935 C932 1.539 . S
C935 H949 0.958 . S
C935 H950 0.961 . S
C935 H951 0.960 . S
H936 C920 0.931 . S
H937 C925 0.929 . S
H938 C926 0.960 . S
H939 C926 0.962 . S
H940 C926 0.960 . S
H941 C927 0.961 . S
H942 C927 0.961 . S
H943 C927 0.961 . S
H944 C928 0.931 . S
H945 C933 0.930 . S
H946 C934 0.956 . S
H947 C934 0.961 . S
H948 C934 0.961 . S
H949 C935 0.958 . S
H950 C935 0.961 . S
H951 C935 0.960 . S
C952 C953 1.391 . S
C952 C954 1.394 . S
C952 H968 0.931 . S
C953 C952 1.391 . S
C953 C957 1.376 . S
C954 C952 1.394 . S
C954 C955 1.369 . S
C954 C958 1.531 . S
C955 C954 1.369 . S
C955 C956 1.410 . S
C955 C963 1.503 . S
C956 C955 1.410 . S
C956 C957 1.392 . S
C956 C959 1.511 . S
C957 C953 1.376 . S
C957 C956 1.392 . S
C957 H969 0.929 . S
C958 C954 1.531 . S
C958 H970 0.960 . S
C958 H971 0.962 . S
C958 H972 0.960 . S
C959 C956 1.511 . S
C959 H973 0.961 . S
C959 H974 0.961 . S
C959 H975 0.961 . S
C960 C961 1.370 . S
C960 C962 1.363 . S
C960 H976 0.931 . S
C961 C960 1.370 . S
C961 C965 1.408 . S
C962 C960 1.363 . S
C962 C963 1.370 . S
C962 C966 1.524 . S
C963 C955 1.503 . S
C963 C962 1.370 . S
C963 C964 1.403 . S
C964 C963 1.403 . S
C964 C965 1.404 . S
C964 C967 1.539 . S
C965 C961 1.408 . S
C965 C964 1.404 . S
C965 H977 0.930 . S
C966 C962 1.524 . S
C966 H978 0.956 . S
C966 H979 0.961 . S
C966 H980 0.961 . S
C967 C964 1.539 . S
C967 H981 0.958 . S
C967 H982 0.961 . S
C967 H983 0.960 . S
H968 C952 0.931 . S
H969 C957 0.929 . S
H970 C958 0.960 . S
H971 C958 0.962 . S
H972 C958 0.960 . S
H973 C959 0.961 . S
H974 C959 0.961 . S
H975 C959 0.961 . S
H976 C960 0.931 . S
H977 C965 0.930 . S
H978 C966 0.956 . S
H979 C966 0.961 . S
H980 C966 0.961 . S
H981 C967 0.958 . S
H982 C967 0.961 . S
H983 C967 0.960 . S
C984 C985 1.391 . S
C984 C986 1.394 . S
C984 H1000 0.931 . S
C985 C984 1.391 . S
C985 C989 1.376 . S
C986 C984 1.394 . S
C986 C987 1.369 . S
C986 C990 1.531 . S
C987 C986 1.369 . S
C987 C988 1.410 . S
C987 C995 1.503 . S
C988 C987 1.410 . S
C988 C989 1.392 . S
C988 C991 1.511 . S
C989 C985 1.376 . S
C989 C988 1.392 . S
C989 H1001 0.929 . S
C990 C986 1.531 . S
C990 H1002 0.960 . S
C990 H1003 0.962 . S
C990 H1004 0.960 . S
C991 C988 1.511 . S
C991 H1005 0.961 . S
C991 H1006 0.961 . S
C991 H1007 0.961 . S
C992 C993 1.370 . S
C992 C994 1.363 . S
C992 H1008 0.931 . S
C993 C992 1.370 . S
C993 C997 1.408 . S
C994 C992 1.363 . S
C994 C995 1.370 . S
C994 C998 1.524 . S
C995 C987 1.503 . S
C995 C994 1.370 . S
C995 C996 1.403 . S
C996 C995 1.403 . S
C996 C997 1.404 . S
C996 C999 1.539 . S
C997 C993 1.408 . S
C997 C996 1.404 . S
C997 H1009 0.930 . S
C998 C994 1.524 . S
C998 H1010 0.956 . S
C998 H1011 0.961 . S
C998 H1012 0.961 . S
C999 C996 1.539 . S
C999 H1013 0.958 . S
C999 H1014 0.961 . S
C999 H1015 0.960 . S
H1000 C984 0.931 . S
H1001 C989 0.929 . S
H1002 C990 0.960 . S
H1003 C990 0.962 . S
H1004 C990 0.960 . S
H1005 C991 0.961 . S
H1006 C991 0.961 . S
H1007 C991 0.961 . S
H1008 C992 0.931 . S
H1009 C997 0.930 . S
H1010 C998 0.956 . S
H1011 C998 0.961 . S
H1012 C998 0.961 . S
H1013 C999 0.958 . S
H1014 C999 0.961 . S
H1015 C999 0.960 . S
C1016 C1017 1.391 . S
C1016 C1018 1.394 . S
C1016 H1032 0.931 . S
C1017 C1016 1.391 . S
C1017 C1021 1.376 1_554 S
C1018 C1016 1.394 . S
C1018 C1019 1.369 . S
C1018 C1022 1.531 . S
C1019 C1018 1.369 . S
C1019 C1020 1.410 1_554 S
C1019 C1027 1.503 . S
C1020 C1019 1.410 1_556 S
C1020 C1021 1.392 . S
C1020 C1023 1.511 . S
C1021 C1017 1.376 1_556 S
C1021 C1020 1.392 . S
C1021 H1033 0.929 . S
C1022 C1018 1.531 . S
C1022 H1034 0.960 . S
C1022 H1035 0.962 . S
C1022 H1036 0.960 . S
C1023 C1020 1.511 . S
C1023 H1037 0.961 . S
C1023 H1038 0.961 . S
C1023 H1039 0.961 . S
C1024 C1025 1.370 . S
C1024 C1026 1.363 . S
C1024 H1040 0.931 . S
C1025 C1024 1.370 . S
C1025 C1029 1.408 1_554 S
C1026 C1024 1.363 . S
C1026 C1027 1.370 . S
C1026 C1030 1.524 . S
C1027 C1019 1.503 . S
C1027 C1026 1.370 . S
C1027 C1028 1.403 1_554 S
C1028 C1027 1.403 1_556 S
C1028 C1029 1.404 . S
C1028 C1031 1.539 . S
C1029 C1025 1.408 1_556 S
C1029 C1028 1.404 . S
C1029 H1041 0.930 . S
C1030 C1026 1.524 . S
C1030 H1042 0.956 . S
C1030 H1043 0.961 1_554 S
C1030 H1044 0.961 . S
C1031 C1028 1.539 . S
C1031 H1045 0.958 1_556 S
C1031 H1046 0.961 . S
C1031 H1047 0.960 . S
H1032 C1016 0.931 . S
H1033 C1021 0.929 . S
H1034 C1022 0.960 . S
H1035 C1022 0.962 . S
H1036 C1022 0.960 . S
H1037 C1023 0.961 . S
H1038 C1023 0.961 . S
H1039 C1023 0.961 . S
H1040 C1024 0.931 . S
H1041 C1029 0.930 . S
H1042 C1030 0.956 . S
H1043 C1030 0.961 1_556 S
H1044 C1030 0.961 . S
H1045 C1031 0.958 1_554 S
H1046 C1031 0.961 . S
H1047 C1031 0.960 . S
C1048 C1049 1.391 . S
C1048 C1050 1.394 . S
C1048 H1064 0.931 . S
C1049 C1048 1.391 . S
C1049 C1053 1.376 . S
C1050 C1048 1.394 . S
C1050 C1051 1.369 . S
C1050 C1054 1.531 . S
C1051 C1050 1.369 . S
C1051 C1052 1.410 . S
C1051 C1059 1.503 . S
C1052 C1051 1.410 . S
C1052 C1053 1.392 . S
C1052 C1055 1.511 . S
C1053 C1049 1.376 . S
C1053 C1052 1.392 . S
C1053 H1065 0.929 . S
C1054 C1050 1.531 . S
C1054 H1066 0.960 . S
C1054 H1067 0.962 . S
C1054 H1068 0.960 . S
C1055 C1052 1.511 . S
C1055 H1069 0.961 . S
C1055 H1070 0.961 . S
C1055 H1071 0.961 . S
C1056 C1057 1.370 . S
C1056 C1058 1.363 . S
C1056 H1072 0.931 . S
C1057 C1056 1.370 . S
C1057 C1061 1.408 . S
C1058 C1056 1.363 . S
C1058 C1059 1.370 . S
C1058 C1062 1.524 . S
C1059 C1051 1.503 . S
C1059 C1058 1.370 . S
C1059 C1060 1.403 . S
C1060 C1059 1.403 . S
C1060 C1061 1.404 . S
C1060 C1063 1.539 . S
C1061 C1057 1.408 . S
C1061 C1060 1.404 . S
C1061 H1073 0.930 . S
C1062 C1058 1.524 . S
C1062 H1074 0.956 . S
C1062 H1075 0.961 . S
C1062 H1076 0.961 . S
C1063 C1060 1.539 . S
C1063 H1077 0.958 . S
C1063 H1078 0.961 . S
C1063 H1079 0.960 . S
H1064 C1048 0.931 . S
H1065 C1053 0.929 . S
H1066 C1054 0.960 . S
H1067 C1054 0.962 . S
H1068 C1054 0.960 . S
H1069 C1055 0.961 . S
H1070 C1055 0.961 . S
H1071 C1055 0.961 . S
H1072 C1056 0.931 . S
H1073 C1061 0.930 . S
H1074 C1062 0.956 . S
H1075 C1062 0.961 . S
H1076 C1062 0.961 . S
H1077 C1063 0.958 . S
H1078 C1063 0.961 . S
H1079 C1063 0.960 . S
C1080 C1081 1.391 . S
C1080 C1082 1.394 . S
C1080 H1096 0.931 . S
C1081 C1080 1.391 . S
C1081 C1085 1.376 . S
C1082 C1080 1.394 . S
C1082 C1083 1.369 . S
C1082 C1086 1.531 . S
C1083 C1082 1.369 . S
C1083 C1084 1.410 . S
C1083 C1091 1.503 . S
C1084 C1083 1.410 . S
C1084 C1085 1.392 . S
C1084 C1087 1.511 . S
C1085 C1081 1.376 . S
C1085 C1084 1.392 . S
C1085 H1097 0.929 . S
C1086 C1082 1.531 . S
C1086 H1098 0.960 . S
C1086 H1099 0.962 1_554 S
C1086 H1100 0.960 . S
C1087 C1084 1.511 . S
C1087 H1101 0.961 1_554 S
C1087 H1102 0.961 1_554 S
C1087 H1103 0.961 . S
C1088 C1089 1.370 1_556 S
C1088 C1090 1.363 . S
C1088 H1104 0.931 . S
C1089 C1088 1.370 1_554 S
C1089 C1093 1.408 . S
C1090 C1088 1.363 . S
C1090 C1091 1.370 1_556 S
C1090 C1094 1.524 . S
C1091 C1083 1.503 . S
C1091 C1090 1.370 1_554 S
C1091 C1092 1.403 . S
C1092 C1091 1.403 . S
C1092 C1093 1.404 . S
C1092 C1095 1.539 . S
C1093 C1089 1.408 . S
C1093 C1092 1.404 . S
C1093 H1105 0.930 . S
C1094 C1090 1.524 . S
C1094 H1106 0.956 . S
C1094 H1107 0.961 . S
C1094 H1108 0.961 . S
C1095 C1092 1.539 . S
C1095 H1109 0.958 . S
C1095 H1110 0.961 . S
C1095 H1111 0.960 . S
H1096 C1080 0.931 . S
H1097 C1085 0.929 . S
H1098 C1086 0.960 . S
H1099 C1086 0.962 1_556 S
H1100 C1086 0.960 . S
H1101 C1087 0.961 1_556 S
H1102 C1087 0.961 1_556 S
H1103 C1087 0.961 . S
H1104 C1088 0.931 . S
H1105 C1093 0.930 . S
H1106 C1094 0.956 . S
H1107 C1094 0.961 . S
H1108 C1094 0.961 . S
H1109 C1095 0.958 . S
H1110 C1095 0.961 . S
H1111 C1095 0.960 . S
C345 C5 1.459 . S
C353 C201 1.459 . S
C377 C31 1.459 . S
C385 C117 1.424 . S
C417 C149 1.416 . S
C409 C53 1.468 . S
C441 C71 1.440 . S
C449 C169 1.460 . S
C481 C277 1.397 . S
C473 C75 1.459 . S
C513 C297 1.464 . S
C505 C9 1.437 . S
C545 C329 1.452 . S
C537 C27 1.417 . S
C577 C245 1.414 . S
C569 C49 1.469 . S
C601 C51 1.437 . S
C609 C137 1.398 . S
C633 C72 1.469 . S
C641 C181 1.463 . S
C665 C6 1.447 . S
C673 C213 1.469 . S
C705 C105 1.418 . S
C697 C29 1.456 . S
C729 C28 1.454 . S
C737 C341 1.462 . S
C769 C233 1.424 . S
C761 C50 1.459 . S
C801 C265 1.397 . S
C793 C73 1.440 . S
C825 C7 1.430 . S
C833 C309 1.461 . S
C865 C111 1.452 1_556 S
C857 C4 1.497 1_556 S
C897 C143 1.455 . S
C889 C30 1.502 . S
C921 C52 1.481 1_556 S
C929 C175 1.495 . S
C953 C70 1.501 . S
C961 C207 1.491 . S
C993 C239 1.428 . S
C985 C74 1.477 . S
C1017 C8 1.502 . S
C1025 C271 1.454 . S
C1049 C26 1.477 . S
C1057 C303 1.500 . S
C1081 C48 1.490 . S
C1089 C335 1.493 . S
