# Generated by pormake.
# Topology zzz, (3,6)-cn, num edge types: 1
# Building blocks:
#     Node 0, Type 0, BuildingBlock: ESEHIV_clean_linker_0, # of connection points: 3
#     Node 1, Type 0, BuildingBlock: ESEHIV_clean_linker_0, # of connection points: 3
#     Node 2, Type 0, BuildingBlock: ESEHIV_clean_linker_0, # of connection points: 3
#     Node 3, Type 0, BuildingBlock: ESEHIV_clean_linker_0, # of connection points: 3
#     Node 4, Type 0, BuildingBlock: ESEHIV_clean_linker_0, # of connection points: 3
#     Node 5, Type 0, BuildingBlock: ESEHIV_clean_linker_0, # of connection points: 3
#     Node 6, Type 0, BuildingBlock: ESEHIV_clean_linker_0, # of connection points: 3
#     Node 7, Type 0, BuildingBlock: ESEHIV_clean_linker_0, # of connection points: 3
#     Node 8, Type 1, BuildingBlock: CIFDUS_clean_sbu_1, # of connection points: 6
#     Node 9, Type 1, BuildingBlock: CIFDUS_clean_sbu_1, # of connection points: 6
#     Node 10, Type 1, BuildingBlock: CIFDUS_clean_sbu_1, # of connection points: 6
#     Node 11, Type 1, BuildingBlock: CIFDUS_clean_sbu_1, # of connection points: 6
#     Edge 12, Type (0, 1), BuildingBlock: UVAHIK_clean_linker_0, # of connection points: 2
#     Edge 13, Type (0, 1), BuildingBlock: UVAHIK_clean_linker_0, # of connection points: 2
#     Edge 14, Type (0, 1), BuildingBlock: UVAHIK_clean_linker_0, # of connection points: 2
#     Edge 15, Type (0, 1), BuildingBlock: UVAHIK_clean_linker_0, # of connection points: 2
#     Edge 16, Type (0, 1), BuildingBlock: UVAHIK_clean_linker_0, # of connection points: 2
#     Edge 17, Type (0, 1), BuildingBlock: UVAHIK_clean_linker_0, # of connection points: 2
#     Edge 18, Type (0, 1), BuildingBlock: UVAHIK_clean_linker_0, # of connection points: 2
#     Edge 19, Type (0, 1), BuildingBlock: UVAHIK_clean_linker_0, # of connection points: 2
#     Edge 20, Type (0, 1), BuildingBlock: UVAHIK_clean_linker_0, # of connection points: 2
#     Edge 21, Type (0, 1), BuildingBlock: UVAHIK_clean_linker_0, # of connection points: 2
#     Edge 22, Type (0, 1), BuildingBlock: UVAHIK_clean_linker_0, # of connection points: 2
#     Edge 23, Type (0, 1), BuildingBlock: UVAHIK_clean_linker_0, # of connection points: 2
#     Edge 24, Type (0, 1), BuildingBlock: UVAHIK_clean_linker_0, # of connection points: 2
#     Edge 25, Type (0, 1), BuildingBlock: UVAHIK_clean_linker_0, # of connection points: 2
#     Edge 26, Type (0, 1), BuildingBlock: UVAHIK_clean_linker_0, # of connection points: 2
#     Edge 27, Type (0, 1), BuildingBlock: UVAHIK_clean_linker_0, # of connection points: 2
#     Edge 28, Type (0, 1), BuildingBlock: UVAHIK_clean_linker_0, # of connection points: 2
#     Edge 29, Type (0, 1), BuildingBlock: UVAHIK_clean_linker_0, # of connection points: 2
#     Edge 30, Type (0, 1), BuildingBlock: UVAHIK_clean_linker_0, # of connection points: 2
#     Edge 31, Type (0, 1), BuildingBlock: UVAHIK_clean_linker_0, # of connection points: 2
#     Edge 32, Type (0, 1), BuildingBlock: UVAHIK_clean_linker_0, # of connection points: 2
#     Edge 33, Type (0, 1), BuildingBlock: UVAHIK_clean_linker_0, # of connection points: 2
#     Edge 34, Type (0, 1), BuildingBlock: UVAHIK_clean_linker_0, # of connection points: 2
#     Edge 35, Type (0, 1), BuildingBlock: UVAHIK_clean_linker_0, # of connection points: 2
# Relax obj value: 0.308
# Max RMSD: 0.221
# Mean RMSD: 0.206
data_MOF--net-zzz--node1-CIFDUS_clean_sbu_1--node2-ESEHIV_clean_linker_0--edge1-UVAHIK_clean_linker_0
_symmetry_space_group_name_H-M    P1
_symmetry_Int_Tables_number       1
_symmetry_cell_setting            triclinic
loop_
_symmetry_equiv_pos_as_xyz
'x, y, z'
_cell_length_a     54.929422
_cell_length_b     58.514781
_cell_length_c     21.216599
_cell_angle_alpha  89.96709
_cell_angle_beta   89.94416
_cell_angle_gamma 88.644336
loop_
_atom_site_label
_atom_site_type_symbol
_atom_site_fract_x
_atom_site_fract_y
_atom_site_fract_z
_atom_type_partial_charge
H0 H 0.80919 0.61638 0.17716 0.0
H1 H 0.74541 0.61857 0.06039 0.0
H2 H 0.74577 0.58011 0.2334 0.0
C3 C 0.79009 0.61288 0.17014 0.0
C4 C 0.77834 0.5992 0.21448 0.0
C5 C 0.77877 0.61907 0.11317 0.0
C6 C 0.7543 0.6138 0.10427 0.0
C7 C 0.74228 0.59964 0.14687 0.0
C8 C 0.75452 0.59188 0.20166 0.0
H9 H 0.99772 0.79757 0.1857 0.0
H10 H 0.99918 0.73627 0.07603 0.0
H11 H 0.99102 0.73237 0.27849 0.0
C12 C 0.99697 0.77905 0.18373 0.0
C13 C 0.99413 0.76654 0.23927 0.0
C14 C 0.99873 0.76813 0.12555 0.0
C15 C 0.99785 0.74448 0.12181 0.0
C16 C 0.99523 0.73132 0.17647 0.0
C17 C 0.99331 0.74235 0.23598 0.0
H18 H 0.70356 0.89126 0.17567 0.0
H19 H 0.76819 0.89012 0.06222 0.0
H20 H 0.76879 0.92091 0.24658 0.0
C21 C 0.72297 0.89384 0.17108 0.0
C22 C 0.73503 0.90504 0.21987 0.0
C23 C 0.73452 0.8891 0.11344 0.0
C24 C 0.7593 0.89348 0.10706 0.0
C25 C 0.77192 0.90482 0.15476 0.0
C26 C 0.75956 0.91112 0.21089 0.0
H27 H 0.4925 0.70882 0.18047 0.0
H28 H 0.50709 0.77305 0.2706 0.0
H29 H 0.4913 0.77033 0.0712 0.0
C30 C 0.49399 0.72728 0.17826 0.0
C31 C 0.49097 0.73842 0.12055 0.0
C32 C 0.4998 0.73944 0.23264 0.0
C33 C 0.50233 0.76341 0.22902 0.0
C34 C 0.49875 0.77469 0.17052 0.0
C35 C 0.49327 0.76195 0.11664 0.0
H36 H 0.20311 0.39044 0.26774 0.0
H37 H 0.26682 0.38928 0.38397 0.0
H38 H 0.26943 0.41833 0.19755 0.0
C39 C 0.22254 0.39269 0.27286 0.0
C40 C 0.23521 0.40305 0.22355 0.0
C41 C 0.2335 0.38847 0.33144 0.0
C42 C 0.25833 0.39235 0.33849 0.0
C43 C 0.27145 0.40319 0.29082 0.0
C44 C 0.25973 0.40902 0.23344 0.0
H45 H 0.99718 0.20878 0.28608 0.0
H46 H 1.00168 0.27232 0.3833 0.0
H47 H 0.01874 0.26907 0.18471 0.0
C48 C 1.00009 0.22706 0.28418 0.0
C49 C 0.00792 0.23711 0.22789 0.0
C50 C 0.9983 0.23965 0.33978 0.0
C51 C 1.00243 0.26291 0.3392 0.0
C52 C 0.00923 0.27386 0.28346 0.0
C53 C 0.01223 0.26096 0.22719 0.0
H54 H 0.30897 0.11633 0.27329 0.0
H55 H 0.24373 0.11932 0.38392 0.0
H56 H 0.24275 0.09023 0.19748 0.0
C57 C 0.28939 0.11463 0.27666 0.0
C58 C 0.2771 0.10442 0.22658 0.0
C59 C 0.27767 0.11927 0.3341 0.0
C60 C 0.25264 0.1161 0.33901 0.0
C61 C 0.23976 0.10574 0.29013 0.0
C62 C 0.2522 0.09936 0.23411 0.0
H63 H 0.5172 0.29807 0.27479 0.0
H64 H 0.50444 0.23458 0.1782 0.0
H65 H 0.50989 0.23666 0.3814 0.0
C66 C 0.51488 0.27969 0.27551 0.0
C67 C 0.5142 0.26844 0.3334 0.0
C68 C 0.51131 0.26791 0.21899 0.0
C69 C 0.50732 0.24405 0.22127 0.0
C70 C 0.50738 0.23264 0.28034 0.0
C71 C 0.51053 0.24512 0.33588 0.0
O72 O 0.00679 0.03448 0.77651 0.0
Mn73 Mn 1.00237 0.00533 0.71926 0.0
O74 O 0.97076 0.05366 0.76898 0.0
Mn75 Mn 0.95442 0.0325 0.7201 0.0
O76 O 0.99816 0.97637 0.66277 0.0
O77 O 0.03885 0.00564 0.69227 0.0
Mn78 Mn 0.04805 0.97971 0.72974 0.0
O79 O 0.00606 0.98377 0.79731 0.0
O80 O 0.03173 0.95593 0.68955 0.0
O81 O 0.99746 0.02617 0.64121 0.0
O82 O 0.95813 0.03559 0.63428 0.0
O83 O 0.07583 0.98925 0.69579 0.0
O84 O 0.0449 0.98336 0.81522 0.0
C85 C 0.94453 0.001 0.76143 0.0
C86 C 0.99264 0.05183 0.78924 0.0
C87 C 0.01143 0.95797 0.6604 0.0
C88 C 0.06188 0.00581 0.67528 0.0
C89 C 0.02394 0.97806 0.8325 0.0
C90 C 0.97945 0.0351 0.61118 0.0
O91 O 0.96636 0.00533 0.74164 0.0
O92 O 0.92853 0.01727 0.75246 0.0
O93 O 0.52769 0.9917 0.79658 0.0
Mn94 Mn 0.50545 0.00288 0.72343 0.0
O95 O 0.55374 0.01914 0.82095 0.0
Mn96 Mn 0.5515 0.03195 0.74144 0.0
O97 O 0.48343 0.01406 0.64966 0.0
O98 O 0.49021 0.97185 0.72588 0.0
Mn99 Mn 0.45979 0.97421 0.7007 0.0
O100 O 0.47833 0.01468 0.78659 0.0
O101 O 0.46035 0.98526 0.61934 0.0
O102 O 0.53231 0.9911 0.65942 0.0
O103 O 0.56448 0.01375 0.67695 0.0
O104 O 0.465 0.94396 0.72304 0.0
O105 O 0.44538 0.99445 0.75863 0.0
C106 C 0.52378 0.05518 0.70747 0.0
C107 C 0.54476 -0.00038 0.83081 0.0
C108 C 0.4681 0.00535 0.61162 0.0
C109 C 0.48611 0.95084 0.74094 0.0
C110 C 0.45549 0.01004 0.79123 0.0
C111 C 0.55419 -0.00248 0.64741 0.0
O112 O 0.52048 0.03399 0.72198 0.0
O113 O 0.54497 0.06241 0.72353 0.0
O114 O 0.5042 0.5213 0.79924 0.0
Mn115 Mn 0.50735 0.50159 0.71834 0.0
O116 O 0.46505 0.53071 0.81246 0.0
Mn117 Mn 0.45949 0.52889 0.72724 0.0
O118 O 0.51098 0.48225 0.63666 0.0
O119 O 0.54378 0.50104 0.73589 0.0
Mn120 Mn 0.5553 0.47414 0.71081 0.0
O121 O 0.50398 0.47174 0.77293 0.0
O122 O 0.5503 0.47286 0.62533 0.0
O123 O 0.51063 0.53143 0.66401 0.0
O124 O 0.47487 0.55064 0.67783 0.0
O125 O 0.58168 0.48891 0.74217 0.0
O126 O 0.53955 0.45227 0.7593 0.0
C127 C 0.44845 0.49832 0.68352 0.0
C128 C 0.48683 0.53001 0.83219 0.0
C129 C 0.5288 0.47425 0.60372 0.0
C130 C 0.56585 0.50505 0.75422 0.0
C131 C 0.51813 0.45418 0.78267 0.0
C132 C 0.49626 0.54882 0.6543 0.0
O133 O 0.47073 0.50199 0.70116 0.0
O134 O 0.43278 0.51443 0.69712 0.0
O135 O 0.0283 0.48893 0.79672 0.0
Mn136 Mn 1.00301 0.50113 0.72987 0.0
O137 O 0.06137 0.51082 0.78265 0.0
Mn138 Mn 0.04889 0.53097 0.7215 0.0
O139 O 0.9777 0.51322 0.6623 0.0
O140 O 0.98845 0.4698 0.72386 0.0
Mn141 Mn 0.95684 0.47175 0.73805 0.0
O142 O 0.97909 0.51152 0.79881 0.0
O143 O 0.94561 0.4898 0.67129 0.0
O144 O 0.02716 0.49125 0.65992 0.0
O145 O 0.05206 0.5201 0.64 0.0
O146 O 0.96403 0.44128 0.72173 0.0
O147 O 0.95146 0.48489 0.81666 0.0
C148 C 0.01984 0.55328 0.75491 0.0
C149 C 0.05039 0.49437 0.80947 0.0
C150 C 0.95639 0.50657 0.64549 0.0
C151 C 0.9856 0.44852 0.70933 0.0
C152 C 0.96065 0.50418 0.82852 0.0
C153 C 0.04403 0.5004 0.62746 0.0
O154 O 0.01745 0.5323 0.73736 0.0
O155 O 0.04133 0.56093 0.74394 0.0
C156 C 0.19752 0.11379 0.32996 0.0
C157 C 0.21486 0.09808 0.30532 0.0
C158 C 0.17722 0.10618 0.36335 0.0
C159 C 0.16173 0.05764 0.46303 0.0
H160 H 0.09505 0.08103 0.45743 0.0
C161 C 0.08704 0.00875 0.57989 0.0
C162 C 0.07183 0.02 0.62387 0.0
C163 C 0.10159 0.02095 0.53891 0.0
C164 C 0.11368 0.07463 0.46005 0.0
H165 H 0.22386 0.06217 0.29343 0.0
H166 H 0.1883 0.0488 0.3508 0.0
H167 H 0.12574 0.09657 0.38532 0.0
H168 H 0.05869 0.0531 0.65635 0.0
H169 H 0.08422 0.07494 0.5823 0.0
H170 H 0.14998 0.0357 0.53702 0.0
C171 C 0.19043 0.06703 0.34465 0.0
C172 C 0.1312 0.0834 0.41863 0.0
C173 C 0.21058 0.07463 0.3108 0.0
C174 C 0.07018 0.04401 0.62278 0.0
C175 C 0.08486 0.05644 0.58074 0.0
C176 C 0.14439 0.049 0.50418 0.0
C177 C 0.17404 0.0827 0.37347 0.0
C178 C 0.15529 0.07452 0.41861 0.0
C179 C 0.10144 0.04489 0.54025 0.0
C180 C 0.12002 0.05691 0.50215 0.0
H181 H 0.20062 0.13198 0.3272 0.0
H182 H 0.165 0.11869 0.38495 0.0
H183 H 0.18026 0.05096 0.46586 0.0
H184 H 0.08858 0.99024 0.57909 0.0
H185 H 0.11371 0.01153 0.50743 0.0
C186 C 0.52451 0.19396 0.30227 0.0
C187 C 0.50398 0.20784 0.28864 0.0
C188 C 0.52218 0.17373 0.33684 0.0
C189 C 0.48139 0.15015 0.45781 0.0
H190 H 0.52536 0.09757 0.44648 0.0
C191 C 0.50364 0.09105 0.66978 0.0
C192 C 0.51005 0.06804 0.65889 0.0
C193 C 0.49803 0.10575 0.61943 0.0
C194 C 0.51259 0.11188 0.45001 0.0
H195 H 0.46487 0.21096 0.29776 0.0
H196 H 0.46052 0.17513 0.35567 0.0
H197 H 0.52505 0.1261 0.363 0.0
H198 H 0.51578 0.04234 0.58677 0.0
H199 H 0.50494 0.06762 0.4989 0.0
H200 H 0.469 0.13598 0.54495 0.0
C201 C 0.47851 0.17995 0.34047 0.0
C202 C 0.51265 0.12846 0.4023 0.0
C203 C 0.48088 0.2002 0.30593 0.0
C204 C 0.51 0.0598 0.59674 0.0
C205 C 0.50428 0.07445 0.5463 0.0
C206 C 0.48129 0.13354 0.50545 0.0
C207 C 0.49923 0.16697 0.35887 0.0
C208 C 0.49733 0.14802 0.40594 0.0
C209 C 0.49907 0.09784 0.55673 0.0
C210 C 0.49717 0.11433 0.50281 0.0
H211 H 0.54259 0.19989 0.29153 0.0
H212 H 0.53861 0.16442 0.35053 0.0
H213 H 0.46957 0.1651 0.46298 0.0
H214 H 0.50451 0.09803 0.717 0.0
H215 H 0.49454 0.12366 0.62958 0.0
C216 C 0.29853 0.43476 0.32185 0.0
C217 C 0.29578 0.4115 0.30833 0.0
C218 C 0.3185 0.44204 0.35692 0.0
C219 C 0.36456 0.41969 0.47186 0.0
H220 H 0.39163 0.47965 0.44927 0.0
C221 C 0.4233 0.46469 0.66076 0.0
C222 C 0.4408 0.48016 0.64037 0.0
C223 C 0.40871 0.45335 0.61711 0.0
C224 C 0.38465 0.46267 0.45583 0.0
H225 H 0.31202 0.3777 0.319 0.0
H226 H 0.34764 0.39043 0.37707 0.0
H227 H 0.3611 0.46645 0.37616 0.0
H228 H 0.45684 0.49588 0.55858 0.0
H229 H 0.43256 0.4752 0.4821 0.0
H230 H 0.38845 0.41587 0.55126 0.0
C231 C 0.33415 0.40308 0.36209 0.0
C232 C 0.36675 0.45522 0.41426 0.0
C233 C 0.31403 0.39581 0.32764 0.0
C234 C 0.44414 0.48337 0.57549 0.0
C235 C 0.42979 0.47188 0.53177 0.0
C236 C 0.3826 0.42711 0.51335 0.0
C237 C 0.33631 0.42622 0.37897 0.0
C238 C 0.3563 0.43368 0.42175 0.0
C239 C 0.41113 0.45749 0.55199 0.0
C240 C 0.39287 0.44876 0.50605 0.0
H241 H 0.28428 0.44708 0.30944 0.0
H242 H 0.31919 0.45992 0.36968 0.0
H243 H 0.35671 0.40314 0.48007 0.0
H244 H 0.4196 0.46272 0.71063 0.0
H245 H 0.39439 0.44267 0.63477 0.0
C246 C 0.0382 0.3032 0.31667 0.0
C247 C 0.01544 0.29819 0.29058 0.0
C248 C 0.04115 0.32301 0.35274 0.0
C249 C 0.01077 0.37794 0.4038 0.0
H250 H 0.04231 0.36438 0.56336 0.0
C251 C 0.00648 0.44385 0.60546 0.0
C252 C 1.00124 0.43508 0.66546 0.0
C253 C 0.01439 0.42931 0.55661 0.0
C254 C 0.03342 0.36854 0.51915 0.0
H255 H 0.9784 0.31064 0.27851 0.0
H256 H 0.98359 0.34553 0.33932 0.0
H257 H 0.04373 0.33614 0.47911 0.0
H258 H 0.99999 0.40418 0.7211 0.0
H259 H 0.01343 0.37876 0.63644 0.0
H260 H 0.99923 0.40974 0.44484 0.0
C261 C 0.99931 0.33433 0.33193 0.0
C262 C 0.03452 0.3524 0.4703 0.0
C263 C 0.99635 0.31445 0.29618 0.0
C264 C 1.00476 0.41154 0.676 0.0
C265 C 0.01243 0.39695 0.62713 0.0
C266 C 0.00962 0.39405 0.45265 0.0
C267 C 0.0214 0.3383 0.36338 0.0
C268 C 0.02281 0.35669 0.41227 0.0
C269 C 0.01657 0.40549 0.56603 0.0
C270 C 0.02051 0.38944 0.51158 0.0
H271 H 0.05299 0.29063 0.3148 0.0
H272 H 0.05853 0.32564 0.37538 0.0
H273 H 1.00171 0.38195 0.35971 0.0
H274 H 1.00284 0.46171 0.59492 0.0
H275 H 0.01774 0.43666 0.51066 0.0
C276 C 0.81479 0.89731 0.11938 0.0
C277 C 0.7965 0.91302 0.13873 0.0
C278 C 0.83517 0.90467 0.08591 0.0
C279 C 0.84957 0.94943 0.97353 0.0
H280 H 0.91673 0.92805 0.98846 0.0
C281 C 0.91638 0.96948 0.77812 0.0
C282 C 0.93733 0.98074 0.79769 0.0
C283 C 0.90251 0.95724 0.82116 0.0
C284 C 0.89804 0.93413 0.98375 0.0
H285 H 0.78564 0.94877 0.14058 0.0
H286 H 0.82125 0.96174 0.08232 0.0
H287 H 0.88646 0.91635 0.06698 0.0
H288 H 0.96104 0.98692 0.87676 0.0
H289 H 0.93708 0.96494 0.95234 0.0
H290 H 0.86076 0.96707 0.89065 0.0
C291 C 0.81992 0.94372 0.09324 0.0
C292 C 0.88072 0.92741 0.02856 0.0
C293 C 0.79971 0.93638 0.12742 0.0
C294 C 0.94542 0.97776 0.86001 0.0
C295 C 0.93148 0.96543 0.90342 0.0
C296 C 0.86668 0.95585 0.92855 0.0
C297 C 0.83743 0.92787 0.07012 0.0
C298 C 0.85631 0.93516 0.02416 0.0
C299 C 0.90912 0.95615 0.88511 0.0
C300 C 0.89115 0.94831 0.93288 0.0
H301 H 0.81247 0.87915 0.12652 0.0
H302 H 0.84823 0.89202 0.06854 0.0
H303 H 0.83087 0.9554 0.96805 0.0
H304 H 0.9095 0.97187 0.73065 0.0
H305 H 0.88566 0.94993 0.80518 0.0
C306 C 0.52534 0.80735 0.14775 0.0
C307 C 0.50197 0.79944 0.16102 0.0
C308 C 0.52822 0.82766 0.11385 0.0
C309 C 0.52557 0.85568 0.99259 0.0
H310 H 0.48541 0.91084 0.00497 0.0
C311 C 0.50318 0.9139 0.7798 0.0
C312 C 0.49944 0.93746 0.78927 0.0
C313 C 0.5085 0.89935 0.83055 0.0
C314 C 0.4971 0.89574 0.00118 0.0
H315 H 0.46339 0.80705 0.15281 0.0
H316 H 0.46833 0.84287 0.09546 0.0
H317 H 0.48462 0.88257 0.08968 0.0
H318 H 0.49815 0.96426 0.85949 0.0
H319 H 0.50858 0.93906 0.94803 0.0
H320 H 0.53756 0.86843 0.90343 0.0
C321 C 0.48447 0.83356 0.11132 0.0
C322 C 0.49645 0.87944 0.04958 0.0
C323 C 0.4816 0.81315 0.14471 0.0
C324 C 0.50197 0.94633 0.85034 0.0
C325 C 0.5074 0.93178 0.90125 0.0
C326 C 0.5261 0.87188 0.94404 0.0
C327 C 0.50778 0.84046 0.09283 0.0
C328 C 0.51045 0.85908 0.04549 0.0
C329 C 0.50992 0.90799 0.89232 0.0
C330 C 0.51159 0.89198 0.94717 0.0
H331 H 0.54126 0.79678 0.15839 0.0
H332 H 0.54642 0.83266 0.1009 0.0
H333 H 0.53629 0.84002 0.9874 0.0
H334 H 0.5004 0.90652 0.73359 0.0
H335 H 0.50986 0.88114 0.82179 0.0
C336 C 0.71749 0.56779 0.10565 0.0
C337 C 0.71865 0.5905 0.12641 0.0
C338 C 0.6975 0.56057 0.07049 0.0
C339 C 0.64864 0.58384 0.96655 0.0
H340 H 0.62332 0.52278 0.98063 0.0
C341 C 0.56807 0.52256 0.86002 0.0
C342 C 0.57316 0.52391 0.79533 0.0
C343 C 0.58257 0.5339 0.90381 0.0
C344 C 0.62996 0.54001 0.97663 0.0
H345 H 0.69975 0.62333 0.1282 0.0
H346 H 0.6643 0.61057 0.0693 0.0
H347 H 0.65502 0.53489 0.05288 0.0
H348 H 0.59679 0.53864 0.72546 0.0
H349 H 0.62162 0.55909 0.80151 0.0
H350 H 0.62375 0.5887 0.88941 0.0
C351 C 0.67895 0.59837 0.07904 0.0
C352 C 0.64836 0.54686 0.01759 0.0
C353 C 0.69902 0.60561 0.11373 0.0
C354 C 0.59194 0.53802 0.77494 0.0
C355 C 0.60631 0.54953 0.81859 0.0
C356 C 0.63035 0.57689 0.92519 0.0
C357 C 0.67821 0.57592 0.05548 0.0
C358 C 0.658 0.56886 0.01312 0.0
C359 C 0.60248 0.54674 0.88365 0.0
C360 C 0.62079 0.55489 0.92979 0.0
H361 H 0.73277 0.55604 0.11299 0.0
H362 H 0.69778 0.54327 0.05237 0.0
H363 H 0.65586 0.60078 0.96096 0.0
H364 H 0.55422 0.5112 0.87705 0.0
H365 H 0.57905 0.5316 0.95362 0.0
C366 C 0.97097 0.6971 0.15301 0.0
C367 C 0.99372 0.70632 0.16675 0.0
C368 C 0.96939 0.67675 0.11849 0.0
C369 C 1.00467 0.62678 0.05359 0.0
H370 H 0.96037 0.63336 0.91207 0.0
C371 C 1.00047 0.55726 0.86078 0.0
C372 C 1.00382 0.5659 0.79962 0.0
C373 C 0.99404 0.57199 0.91068 0.0
C374 C 0.9727 0.63115 0.95153 0.0
H375 H 0.03265 0.70101 0.15751 0.0
H376 H 0.03003 0.66514 0.09912 0.0
H377 H 0.96062 0.66262 0.99408 0.0
H378 H 1.00196 0.59643 0.74232 0.0
H379 H 0.98999 0.62197 0.8284 0.0
H380 H 0.01732 0.59568 0.00974 0.0
C381 C 0.01334 0.67344 0.11532 0.0
C382 C 0.97272 0.64784 0.99892 0.0
C383 C 0.01489 0.69387 0.14947 0.0
C384 C 0.99883 0.5892 0.78857 0.0
C385 C 0.99215 0.60387 0.83815 0.0
C386 C 1.00445 0.60994 0.0065 0.0
C387 C 0.99055 0.66516 0.09691 0.0
C388 C 0.98896 0.64608 0.05016 0.0
C389 C 0.99078 0.59565 0.90037 0.0
C390 C 0.98874 0.61208 0.95427 0.0
H391 H 0.95439 0.70669 0.16405 0.0
H392 H 0.95155 0.67074 0.10584 0.0
H393 H 0.01738 0.62483 0.09231 0.0
H394 H 0.00507 0.53957 0.87129 0.0
H395 H 0.99291 0.56506 0.95791 0.0
C396 C 0.97717 0.21558 0.41736 0.0
C397 C 0.998 0.2272 0.39936 0.0
C398 C 0.97926 0.19738 0.45942 0.0
C399 C 0.02021 0.15167 0.46682 0.0
H400 H 0.97586 0.12817 0.59183 0.0
C401 C 0.00911 0.05695 0.54815 0.0
C402 C 0.98474 0.05152 0.56071 0.0
C403 C 0.01473 0.07883 0.52759 0.0
C404 C 0.98835 0.13458 0.55684 0.0
H405 H 0.03667 0.23099 0.41433 0.0
H406 H 0.04051 0.19846 0.48632 0.0
H407 H 0.97922 0.16946 0.57861 0.0
H408 H 0.94706 0.06255 0.54712 0.0
H409 H 0.95692 0.10045 0.51001 0.0
H410 H 0.02818 0.11674 0.44234 0.0
C411 C 0.02261 0.20369 0.46945 0.0
C412 C 0.9905 0.15808 0.55012 0.0
C413 C 0.0204 0.22222 0.42858 0.0
C414 C 0.96604 0.06649 0.54003 0.0
C415 C 0.97165 0.08827 0.51948 0.0
C416 C 0.01797 0.12813 0.47338 0.0
C417 C 1.00231 0.1904 0.48203 0.0
C418 C 0.00567 0.16673 0.5033 0.0
C419 C 0.99595 0.09509 0.51834 0.0
C420 C 1.00115 0.11954 0.51637 0.0
H421 H 0.95986 0.21916 0.39452 0.0
H422 H 0.96341 0.18717 0.46821 0.0
H423 H 0.03178 0.15808 0.42971 0.0
H424 H 0.02389 0.04539 0.56149 0.0
H425 H 0.03364 0.08365 0.52525 0.0
C426 C 0.3148 0.1321 0.39023 0.0
C427 C 0.29279 0.12035 0.39159 0.0
C428 C 0.33426 0.12455 0.42747 0.0
C429 C 0.36395 0.07808 0.43684 0.0
H430 H 0.38935 0.07737 0.60706 0.0
C431 C 0.4364 0.0128 0.52915 0.0
C432 C 0.45324 0.02117 0.57274 0.0
C433 C 0.41761 0.02706 0.50653 0.0
C434 C 0.38257 0.07761 0.55913 0.0
H435 H 0.27242 0.09451 0.44141 0.0
H436 H 0.30629 0.0819 0.50716 0.0
H437 H 0.35364 0.10158 0.58185 0.0
H438 H 0.46369 0.05126 0.62519 0.0
H439 H 0.43269 0.0763 0.58162 0.0
H440 H 0.39248 0.05401 0.41374 0.0
C441 C 0.30854 0.09657 0.47665 0.0
C442 C 0.3622 0.09134 0.54512 0.0
C443 C 0.28913 0.10394 0.43906 0.0
C444 C 0.45195 0.0444 0.58946 0.0
C445 C 0.43358 0.05866 0.56609 0.0
C446 C 0.3842 0.06427 0.45082 0.0
C447 C 0.33157 0.10569 0.46729 0.0
C448 C 0.35306 0.09179 0.48374 0.0
C449 C 0.41557 0.04988 0.52696 0.0
C450 C 0.39387 0.06413 0.5119 0.0
H451 H 0.31793 0.14501 0.35472 0.0
H452 H 0.35204 0.13174 0.42003 0.0
H453 H 0.35668 0.07803 0.38936 0.0
H454 H 0.43673 0.9949 0.51603 0.0
H455 H 0.40388 0.01986 0.47632 0.0
C456 C 0.49293 0.28924 0.41839 0.0
C457 C 0.51498 0.28206 0.3908 0.0
C458 C 0.49206 0.30898 0.45496 0.0
C459 C 0.52886 0.35587 0.51785 0.0
H460 H 0.48409 0.39434 0.42065 0.0
C461 C 0.54284 0.44947 0.51555 0.0
C462 C 0.52347 0.46013 0.54842 0.0
C463 C 0.53941 0.42845 0.48673 0.0
C464 C 0.49661 0.38372 0.44794 0.0
H465 H 0.55374 0.28728 0.38539 0.0
H466 H 0.55245 0.32162 0.45004 0.0
H467 H 0.48172 0.35279 0.41354 0.0
H468 H 0.4847 0.45964 0.56579 0.0
H469 H 0.47848 0.42364 0.5133 0.0
H470 H 0.54417 0.38685 0.55078 0.0
C471 C 0.53583 0.31227 0.44386 0.0
C472 C 0.495 0.36005 0.44499 0.0
C473 C 0.53664 0.29268 0.40686 0.0
C474 C 0.49986 0.45191 0.54092 0.0
C475 C 0.49635 0.43107 0.51134 0.0
C476 C 0.53054 0.3795 0.52049 0.0
C477 C 0.51327 0.32148 0.46388 0.0
C478 C 0.51148 0.34595 0.47889 0.0
C479 C 0.51653 0.41837 0.48949 0.0
C480 C 0.51484 0.39352 0.48427 0.0
H481 H 0.47606 0.28116 0.40587 0.0
H482 H 0.47454 0.31571 0.47069 0.0
H483 H 0.54166 0.34532 0.5445 0.0
H484 H 0.56119 0.45572 0.51919 0.0
H485 H 0.5551 0.419 0.46854 0.0
C486 C 0.19542 0.37551 0.38342 0.0
C487 C 0.21759 0.38693 0.38757 0.0
C488 C 0.1756 0.38287 0.41976 0.0
C489 C 0.14048 0.42342 0.43682 0.0
H490 H 0.13114 0.43818 0.61337 0.0
C491 C 0.07444 0.49347 0.5413 0.0
C492 C 0.05945 0.48504 0.58921 0.0
C493 C 0.09279 0.47942 0.51537 0.0
C494 C 0.13363 0.43409 0.56393 0.0
H495 H 0.23774 0.4117 0.44194 0.0
H496 H 0.2035 0.42362 0.50681 0.0
H497 H 0.16571 0.4135 0.5816 0.0
H498 H 0.05209 0.45554 0.64799 0.0
H499 H 0.08332 0.43113 0.6015 0.0
H500 H 0.10889 0.44466 0.41892 0.0
C501 C 0.20122 0.40961 0.47411 0.0
C502 C 0.1532 0.41998 0.54604 0.0
C503 C 0.22092 0.40257 0.43707 0.0
C504 C 0.06255 0.46226 0.6092 0.0
C505 C 0.08078 0.44838 0.58367 0.0
C506 C 0.12116 0.43784 0.4546 0.0
C507 C 0.1781 0.40109 0.46192 0.0
C508 C 0.15653 0.41433 0.48247 0.0
C509 C 0.09644 0.45705 0.53808 0.0
C510 C 0.11752 0.44304 0.51828 0.0
H511 H 0.19255 0.36298 0.34677 0.0
H512 H 0.15787 0.37583 0.41075 0.0
H513 H 0.14323 0.41976 0.38722 0.0
H514 H 0.07266 0.51111 0.52608 0.0
H515 H 0.10488 0.48634 0.48019 0.0
C516 C 0.98159 0.78769 0.03145 0.0
C517 C 1.00177 0.78195 0.06902 0.0
C518 C 0.98316 0.8053 0.98737 0.0
C519 C 0.02697 0.84629 0.91845 0.0
H520 H 0.97263 0.88927 0.93646 0.0
C521 C 0.03588 0.93761 0.83207 0.0
C522 C 0.0223 0.95535 0.86068 0.0
C523 C 0.03139 0.91505 0.8461 0.0
C524 C 0.98814 0.87764 0.93187 0.0
H525 H 0.03962 0.78822 0.08836 0.0
H526 H 0.04251 0.8191 0.01293 0.0
H527 H 0.96877 0.85042 0.97414 0.0
H528 H 0.99401 0.96366 0.92823 0.0
H529 H 0.98817 0.92389 0.95987 0.0
H530 H 0.04754 0.87371 0.88424 0.0
C531 C 0.02556 0.81008 0.01558 0.0
C532 C 0.98568 0.8551 0.95188 0.0
C533 C 0.02397 0.7925 0.05918 0.0
C534 C 1.00484 0.95018 0.9062 0.0
C535 C 1.00121 0.92737 0.92308 0.0
C536 C 0.02978 0.86892 0.90098 0.0
C537 C 0.00488 0.81737 0.98116 0.0
C538 C 0.00537 0.83939 0.9471 0.0
C539 C 0.01423 0.90947 0.8923 0.0
C540 C 0.01055 0.88507 0.90835 0.0
H541 H 0.96429 0.77963 0.0391 0.0
H542 H 0.96707 0.81028 0.96081 0.0
H543 H 0.0423 0.83449 0.91274 0.0
H544 H 0.04917 0.94105 0.79574 0.0
H545 H 0.04111 0.9021 0.81906 0.0
C546 C 0.72177 0.90121 0.00603 0.0
C547 C 0.71909 0.88603 0.057 0.0
C548 C 0.70182 0.9069 0.96814 0.0
C549 C 0.6505 0.91318 0.8997 0.0
H550 H 0.61374 0.94463 0.03168 0.0
C551 C 0.5605 0.96021 0.84911 0.0
C552 C 0.55927 0.98318 0.86855 0.0
C553 C 0.57855 0.94543 0.87207 0.0
C554 C 0.62377 0.93587 0.99454 0.0
H555 H 0.69526 0.86142 0.09973 0.0
H556 H 0.66015 0.87199 0.03456 0.0
H557 H 0.64888 0.92021 0.0593 0.0
H558 H 0.5755 0.00846 0.92904 0.0
H559 H 0.60726 0.98234 0.96985 0.0
H560 H 0.62556 0.92911 0.83478 0.0
C561 C 0.67755 0.87957 0.02459 0.0
C562 C 0.64361 0.92177 0.01023 0.0
C563 C 0.6976 0.87357 0.06179 0.0
C564 C 0.57578 0.99076 0.91408 0.0
C565 C 0.59395 0.97587 0.93715 0.0
C566 C 0.63035 0.927 0.884 0.0
C567 C 0.67917 0.89748 0.98102 0.0
C568 C 0.65703 0.91033 0.96297 0.0
C569 C 0.59591 0.95334 0.91448 0.0
C570 C 0.6169 0.93848 0.93138 0.0
H571 H 0.73808 0.91107 0.00068 0.0
H572 H 0.70335 0.92075 0.93452 0.0
H573 H 0.66103 0.90484 0.86272 0.0
H574 H 0.54886 0.95401 0.81211 0.0
H575 H 0.5796 0.92805 0.85443 0.0
C576 C 0.50823 0.71797 0.02895 0.0
C577 C 0.48765 0.72457 0.06418 0.0
C578 C 0.50785 0.69812 0.99276 0.0
C579 C 0.48183 0.64443 0.02173 0.0
H580 H 0.51112 0.62418 0.86466 0.0
C581 C 0.47432 0.5543 0.92256 0.0
C582 C 0.49285 0.54613 0.88238 0.0
C583 C 0.47619 0.57566 0.95067 0.0
C584 C 0.50335 0.62963 0.90929 0.0
H585 H 0.4498 0.71811 0.08362 0.0
H586 H 0.44888 0.68357 0.01905 0.0
H587 H 0.50611 0.66515 0.88565 0.0
H588 H 0.52907 0.55249 0.84641 0.0
H589 H 0.53282 0.58915 0.89818 0.0
H590 H 0.47948 0.60919 0.04637 0.0
C591 C 0.46533 0.69343 0.01994 0.0
C592 C 0.50016 0.65299 0.92064 0.0
C593 C 0.46577 0.71315 0.05641 0.0
C594 C 0.51465 0.55811 0.87792 0.0
C595 C 0.51658 0.57941 0.90632 0.0
C596 C 0.48522 0.62119 0.01074 0.0
C597 C 0.48688 0.68489 0.99209 0.0
C598 C 0.48905 0.66049 0.9766 0.0
C599 C 0.49671 0.58896 0.93939 0.0
C600 C 0.49578 0.61355 0.95424 0.0
H601 H 0.5253 0.72662 0.03511 0.0
H602 H 0.52467 0.69181 0.97159 0.0
H603 H 0.47395 0.64988 0.06624 0.0
H604 H 0.45735 0.54536 0.92682 0.0
H605 H 0.46058 0.58257 0.97612 0.0
C606 C 0.81584 0.63655 0.06588 0.0
C607 C 0.79434 0.6243 0.05805 0.0
C608 C 0.8356 0.63249 0.02564 0.0
C609 C 0.8568 0.59633 0.88996 0.0
H610 H 0.9068 0.57704 0.00918 0.0
C611 C 0.93989 0.54146 0.81823 0.0
C612 C 0.94476 0.52202 0.85554 0.0
C613 C 0.92328 0.55814 0.83795 0.0
C614 C 0.89296 0.58234 0.97551 0.0
H615 H 0.77513 0.60182 0.99445 0.0
H616 H 0.80903 0.59504 0.92515 0.0
H617 H 0.87453 0.60351 0.04277 0.0
H618 H 0.93626 0.50455 0.94233 0.0
H619 H 0.90719 0.53452 0.97857 0.0
H620 H 0.87461 0.57398 0.82388 0.0
C621 C 0.81108 0.60744 0.96252 0.0
C622 C 0.87475 0.59787 0.99416 0.0
C623 C 0.79142 0.61144 0.00266 0.0
C624 C 0.9329 0.51957 0.91345 0.0
C625 C 0.91644 0.53664 0.93392 0.0
C626 C 0.87503 0.58079 0.87134 0.0
C627 C 0.83393 0.6163 0.97699 0.0
C628 C 0.85608 0.60457 0.95212 0.0
C629 C 0.9113 0.55587 0.89569 0.0
C630 C 0.8929 0.57328 0.91448 0.0
H631 H 0.81835 0.64717 0.10706 0.0
H632 H 0.85285 0.64018 0.0365 0.0
H633 H 0.84269 0.60116 0.85653 0.0
H634 H 0.94843 0.54345 0.7725 0.0
H635 H 0.91971 0.57279 0.80779 0.0
C636 C 0.02729 0.20113 0.18585 0.0
C637 C 0.01354 0.22134 0.17411 0.0
C638 C 0.02863 0.18351 0.14151 0.0
C639 C 0.01929 0.1688 0.97373 0.0
H640 H 0.00847 0.10794 0.03926 0.0
C641 C 0.99316 0.09347 0.81391 0.0
C642 C 1.00134 0.07112 0.82829 0.0
C643 C 0.9982 0.11177 0.85376 0.0
C644 C 0.01198 0.12471 0.02013 0.0
H645 H 0.99161 0.23928 0.10455 0.0
H646 H 0.99452 0.20856 0.02547 0.0
H647 H 0.01012 0.1403 0.11144 0.0
H648 H 0.02184 0.05056 0.89545 0.0
H649 H 0.03066 0.08268 0.96601 0.0
H650 H 0.02103 0.15324 0.88239 0.0
C651 C 1.00407 0.20638 0.06977 0.0
C652 C 0.01283 0.14335 0.06159 0.0
C653 C 1.0025 0.22407 0.1148 0.0
C654 C 0.01545 0.06761 0.88285 0.0
C655 C 0.02025 0.086 0.92351 0.0
C656 C 0.01856 0.15014 0.93228 0.0
C657 C 0.01655 0.18558 0.08344 0.0
C658 C 0.01628 0.1657 0.03894 0.0
C659 C 0.0114 0.10832 0.90984 0.0
C660 C 0.01458 0.12784 0.95472 0.0
H661 H 0.03622 0.19853 0.2309 0.0
H662 H 0.03882 0.16802 0.15328 0.0
H663 H 0.02237 0.18566 0.9547 0.0
H664 H 0.98229 0.09678 0.77215 0.0
H665 H 0.99081 0.12852 0.8417 0.0
C666 C 0.30892 0.11105 0.14404 0.0
C667 C 0.29209 0.09633 0.17196 0.0
C668 C 0.32684 0.10263 0.10256 0.0
C669 C 0.34411 0.05187 0.00429 0.0
H670 H 0.40821 0.07828 0.00789 0.0
C671 C 0.41462 0.02685 0.81685 0.0
C672 C 0.43913 0.02344 0.83417 0.0
C673 C 0.39785 0.03704 0.85813 0.0
C674 C 0.3905 0.07056 0.00661 0.0
H675 H 0.28082 0.06123 0.17748 0.0
H676 H 0.31196 0.04642 0.10511 0.0
H677 H 0.37641 0.09277 0.07901 0.0
H678 H 0.46548 0.02911 0.908 0.0
H679 H 0.43584 0.04663 0.98166 0.0
H680 H 0.35822 0.02915 0.93387 0.0
C681 C 0.31113 0.06462 0.11428 0.0
C682 C 0.37208 0.07909 0.04687 0.0
C683 C 0.29308 0.0731 0.15556 0.0
C684 C 0.44671 0.03148 0.89329 0.0
C685 C 0.42969 0.04152 0.9354 0.0
C686 C 0.36247 0.04328 0.96455 0.0
C687 C 0.32857 0.07919 0.08796 0.0
C688 C 0.3485 0.06998 0.04593 0.0
C689 C 0.40485 0.0439 0.91883 0.0
C690 C 0.38587 0.05266 0.9643 0.0
H691 H 0.30873 0.12904 0.15616 0.0
H692 H 0.3395 0.11454 0.08247 0.0
H693 H 0.32627 0.04445 0.00145 0.0
H694 H 0.40822 0.02132 0.77115 0.0
H695 H 0.37919 0.03929 0.84243 0.0
C696 C 0.48924 0.28531 0.12602 0.0
C697 C 0.51091 0.28189 0.16024 0.0
C698 C 0.48688 0.30347 0.08269 0.0
C699 C 0.5124 0.36058 0.05132 0.0
H700 H 0.48215 0.35573 0.88711 0.0
C701 C 0.50058 0.43902 0.88391 0.0
C702 C 0.50998 0.43508 0.82312 0.0
C703 C 0.49687 0.42062 0.92536 0.0
C704 C 0.49054 0.35739 0.93301 0.0
H705 H 0.54739 0.2942 0.17393 0.0
H706 H 0.54353 0.32536 0.09792 0.0
H707 H 0.48426 0.32232 0.95671 0.0
H708 H 0.52168 0.40888 0.75706 0.0
H709 H 0.5144 0.3769 0.82803 0.0
H710 H 0.51902 0.39552 0.02733 0.0
C711 C 0.52818 0.31435 0.10491 0.0
C712 C 0.49165 0.33826 0.97302 0.0
C713 C 0.53056 0.29623 0.14769 0.0
C714 C 0.51436 0.41241 0.80358 0.0
C715 C 0.51011 0.39408 0.84424 0.0
C716 C 0.51101 0.37976 0.01169 0.0
C717 C 0.50608 0.31869 0.07317 0.0
C718 C 0.50312 0.33943 0.03214 0.0
C719 C 0.50192 0.39791 0.90624 0.0
C720 C 0.50053 0.37832 0.95143 0.0
H721 H 0.47361 0.27495 0.13587 0.0
H722 H 0.46958 0.30632 0.05919 0.0
H723 H 0.52098 0.36227 0.09697 0.0
H724 H 0.4973 0.45633 0.90047 0.0
H725 H 0.49045 0.42417 0.97272 0.0
C726 C 0.21957 0.43307 0.14751 0.0
C727 C 0.22074 0.41013 0.16698 0.0
C728 C 0.2012 0.44078 0.10604 0.0
C729 C 0.15168 0.42061 0.99818 0.0
H730 H 0.1244 0.48118 0.02998 0.0
C731 C 0.0822 0.46442 0.82938 0.0
C732 C 0.06503 0.48022 0.85361 0.0
C733 C 0.09975 0.45415 0.86871 0.0
C734 C 0.13148 0.46408 0.0209 0.0
H735 H 0.2045 0.37703 0.15501 0.0
H736 H 0.17246 0.39035 0.08442 0.0
H737 H 0.1586 0.4671 0.09253 0.0
H738 H 0.05226 0.49743 0.93788 0.0
H739 H 0.08246 0.47901 0.00756 0.0
H740 H 0.12394 0.41726 0.92825 0.0
C741 C 0.1857 0.40253 0.10002 0.0
C742 C 0.15155 0.45613 0.05612 0.0
C743 C 0.20414 0.39483 0.14077 0.0
C744 C 0.06511 0.48501 0.91837 0.0
C745 C 0.08268 0.47469 0.95795 0.0
C746 C 0.13147 0.42848 0.96339 0.0
C747 C 0.18346 0.42577 0.08333 0.0
C748 C 0.16215 0.43435 0.04499 0.0
C749 C 0.10067 0.45952 0.9334 0.0
C750 C 0.12117 0.45043 0.97371 0.0
H751 H 0.23187 0.44534 0.16731 0.0
H752 H 0.20054 0.45869 0.0932 0.0
H753 H 0.15925 0.40381 0.98758 0.0
H754 H 0.08273 0.46081 0.77929 0.0
H755 H 0.11334 0.44288 0.84751 0.0
C756 C 0.01271 0.78423 0.33463 0.0
C757 C 0.99192 0.78009 0.29834 0.0
C758 C 0.01299 0.8026 0.37728 0.0
C759 C 0.9811 0.85884 0.40853 0.0
H760 H 0.01955 0.85685 0.56126 0.0
C761 C 0.9993 0.9408 0.55675 0.0
C762 C 1.00386 0.9383 0.62153 0.0
C763 C 0.99625 0.92148 0.51836 0.0
C764 C 0.00833 0.85779 0.51941 0.0
H765 H 0.9551 0.79184 0.27856 0.0
H766 H 0.95504 0.82309 0.3547 0.0
H767 H 0.01674 0.82284 0.49692 0.0
H768 H 0.00757 0.91388 0.6976 0.0
H769 H 1.00055 0.88046 0.63237 0.0
H770 H 0.972 0.89358 0.43212 0.0
C771 C 0.97133 0.81246 0.35006 0.0
C772 C 0.00708 0.83819 0.48164 0.0
C773 C 0.97112 0.79417 0.30741 0.0
C774 C 1.00414 0.91627 0.64769 0.0
C775 C 1.00047 0.89705 0.60984 0.0
C776 C 0.98213 0.8784 0.44671 0.0
C777 C 0.9925 0.81741 0.38446 0.0
C778 C 0.99346 0.83834 0.42552 0.0
C779 C 0.99722 0.89919 0.54412 0.0
C780 C 0.99576 0.87825 0.50299 0.0
H781 H 0.0293 0.77424 0.32681 0.0
H782 H 0.02978 0.8059 0.40196 0.0
H783 H 0.97078 0.85994 0.36514 0.0
H784 H 0.99938 0.95759 0.53522 0.0
H785 H 0.99409 0.92407 0.46816 0.0
C786 C 0.71794 0.93613 0.28985 0.0
C787 C 0.72005 0.91282 0.27478 0.0
C788 C 0.69967 0.9441 0.3312 0.0
C789 C 0.63947 0.92786 0.39805 0.0
H790 H 0.6507 0.97913 0.50875 0.0
C791 C 0.56933 0.96257 0.58717 0.0
C792 C 0.56881 0.98637 0.59659 0.0
C793 C 0.58655 0.9524 0.5459 0.0
C794 C 0.64709 0.96495 0.47761 0.0
H795 H 0.70529 0.87947 0.29321 0.0
H796 H 0.67404 0.89317 0.36679 0.0
H797 H 0.68388 0.96386 0.44471 0.0
H798 H 0.58443 0.01823 0.56642 0.0
H799 H 0.61357 0.0008 0.49395 0.0
H800 H 0.60253 0.92903 0.43177 0.0
C801 C 0.68604 0.90546 0.34572 0.0
C802 C 0.66622 0.95617 0.44071 0.0
C803 C 0.70421 0.89754 0.30426 0.0
C804 C 0.58465 -0.00019 0.56106 0.0
C805 C 0.60152 0.98977 0.51976 0.0
C806 C 0.62025 0.93665 0.4353 0.0
C807 C 0.68313 0.92893 0.35881 0.0
C808 C 0.66272 0.93764 0.39988 0.0
C809 C 0.60338 0.9659 0.51319 0.0
C810 C 0.62375 0.95554 0.475 0.0
H811 H 0.72943 0.94839 0.26673 0.0
H812 H 0.69789 0.96233 0.33929 0.0
H813 H 0.63591 0.91374 0.3667 0.0
H814 H 0.55739 0.95178 0.61408 0.0
H815 H 0.5874 0.93395 0.54188 0.0
C816 C 0.52595 0.71412 0.30016 0.0
C817 C 0.50363 0.72583 0.29087 0.0
C818 C 0.52784 0.69585 0.3429 0.0
C819 C 0.49518 0.66718 0.47484 0.0
H820 H 0.53453 0.61429 0.42533 0.0
C821 C 0.50454 0.5901 0.64129 0.0
C822 C 0.50429 0.56813 0.61504 0.0
C823 C 0.50758 0.60932 0.6031 0.0
C824 C 0.52333 0.62882 0.43982 0.0
H825 H 0.46574 0.72748 0.31823 0.0
H826 H 0.46888 0.69595 0.39338 0.0
H827 H 0.53312 0.64815 0.35811 0.0
H828 H 0.50742 0.54882 0.52843 0.0
H829 H 0.51206 0.58247 0.46081 0.0
H830 H 0.48445 0.6477 0.55481 0.0
C831 C 0.48521 0.70109 0.36911 0.0
C832 C 0.52278 0.64845 0.40158 0.0
C833 C 0.48338 0.71936 0.32644 0.0
C834 C 0.50797 0.5656 0.54989 0.0
C835 C 0.51059 0.58494 0.51124 0.0
C836 C 0.49562 0.64759 0.51275 0.0
C837 C 0.50734 0.6887 0.37697 0.0
C838 C 0.50866 0.66794 0.41854 0.0
C839 C 0.50978 0.60717 0.53718 0.0
C840 C 0.50976 0.62809 0.49612 0.0
H841 H 0.54162 0.71826 0.27163 0.0
H842 H 0.54525 0.68698 0.34801 0.0
H843 H 0.48425 0.68181 0.48999 0.0
H844 H 0.50168 0.59247 0.69144 0.0
H845 H 0.5076 0.62595 0.62537 0.0
C846 C 0.80573 0.60576 0.3066 0.0
C847 C 0.79309 0.59039 0.2684 0.0
C848 C 0.82402 0.59794 0.34776 0.0
C849 C 0.86779 0.54952 0.36732 0.0
H850 H 0.87731 0.57423 0.5348 0.0
C851 C 0.92969 0.50524 0.55109 0.0
C852 C 0.94295 0.51837 0.59386 0.0
C853 C 0.91368 0.51563 0.50813 0.0
C854 C 0.87519 0.56742 0.48773 0.0
H855 H 0.78936 0.55474 0.24435 0.0
H856 H 0.82107 0.5409 0.317 0.0
H857 H 0.84343 0.58851 0.47011 0.0
H858 H 0.95029 0.55282 0.62423 0.0
H859 H 0.92202 0.57124 0.54875 0.0
H860 H 0.8994 0.52837 0.38484 0.0
C861 C 0.81693 0.55907 0.31492 0.0
C862 C 0.85566 0.57553 0.45071 0.0
C863 C 0.79845 0.56691 0.27411 0.0
C864 C 0.9405 0.54231 0.59127 0.0
C865 C 0.92411 0.55279 0.54858 0.0
C866 C 0.88731 0.54147 0.40418 0.0
C867 C 0.83034 0.57454 0.35122 0.0
C868 C 0.85146 0.56641 0.39039 0.0
C869 C 0.9102 0.53951 0.50711 0.0
C870 C 0.89106 0.55001 0.46533 0.0
H871 H 0.8022 0.624 0.30238 0.0
H872 H 0.83401 0.61036 0.37454 0.0
H873 H 0.86556 0.54253 0.32048 0.0
H874 H 0.93116 0.48674 0.55213 0.0
H875 H 0.90318 0.50479 0.47763 0.0
loop_
_geom_bond_atom_site_label_1
_geom_bond_atom_site_label_2
_geom_bond_distance
_geom_bond_site_symmetry_2
_ccdc_geom_bond_type
H0 C3 0.931 . S
H1 C6 0.919 1_556 S
H2 C8 0.930 . S
C3 H0 0.931 . S
C3 C4 1.413 . S
C3 C5 1.360 . S
C4 C3 1.413 . S
C4 C8 1.429 . S
C5 C3 1.360 . S
C5 C6 1.372 . S
C6 H1 0.919 1_554 S
C6 C5 1.372 . S
C6 C7 1.404 . S
C7 C6 1.404 . S
C7 C8 1.391 . S
C8 H2 0.930 . S
C8 C4 1.429 . S
C8 C7 1.391 . S
H9 C12 0.931 . S
H10 C15 0.928 . S
H11 C17 0.930 . S
C12 H9 0.931 . S
C12 C13 1.413 . S
C12 C14 1.360 . S
C13 C12 1.413 . S
C13 C17 1.429 1_655 S
C14 C12 1.360 . S
C14 C15 1.373 . S
C15 H10 0.928 . S
C15 C14 1.373 . S
C15 C16 1.404 . S
C16 C15 1.404 . S
C16 C17 1.390 1_655 S
C17 H11 0.930 . S
C17 C13 1.429 1_455 S
C17 C16 1.390 1_455 S
H18 C21 0.931 . S
H19 C24 0.928 . S
H20 C26 0.930 . S
C21 H18 0.931 . S
C21 C22 1.413 . S
C21 C23 1.360 . S
C22 C21 1.413 . S
C22 C26 1.429 . S
C23 C21 1.360 . S
C23 C24 1.372 . S
C24 H19 0.928 . S
C24 C23 1.372 . S
C24 C25 1.404 . S
C25 C24 1.404 . S
C25 C26 1.391 . S
C26 H20 0.930 . S
C26 C22 1.429 . S
C26 C25 1.391 . S
H27 C30 0.931 . S
H28 C33 0.928 . S
H29 C35 0.930 . S
C30 H27 0.931 . S
C30 C31 1.413 . S
C30 C32 1.360 . S
C31 C30 1.413 . S
C31 C35 1.429 . S
C32 C30 1.360 . S
C32 C33 1.372 . S
C33 H28 0.928 . S
C33 C32 1.372 . S
C33 C34 1.404 . S
C34 C33 1.404 . S
C34 C35 1.391 . S
C35 H29 0.930 . S
C35 C31 1.429 . S
C35 C34 1.391 . S
H36 C39 0.931 . S
H37 C42 0.928 . S
H38 C44 0.930 . S
C39 H36 0.931 . S
C39 C40 1.413 . S
C39 C41 1.360 . S
C40 C39 1.413 . S
C40 C44 1.429 . S
C41 C39 1.360 . S
C41 C42 1.372 . S
C42 H37 0.928 . S
C42 C41 1.372 . S
C42 C43 1.404 . S
C43 C42 1.404 . S
C43 C44 1.391 . S
C44 H38 0.930 . S
C44 C40 1.429 . S
C44 C43 1.391 . S
H45 C48 0.930 . S
H46 C51 0.928 . S
H47 C53 0.929 . S
C48 H45 0.930 . S
C48 C49 1.413 . S
C48 C50 1.360 . S
C49 C48 1.413 . S
C49 C53 1.429 1_655 S
C50 C48 1.360 . S
C50 C51 1.372 . S
C51 H46 0.928 . S
C51 C50 1.372 . S
C51 C52 1.404 . S
C52 C51 1.404 . S
C52 C53 1.391 1_655 S
C53 H47 0.929 . S
C53 C49 1.429 1_455 S
C53 C52 1.391 1_455 S
H54 C57 0.931 . S
H55 C60 0.928 . S
H56 C62 0.930 . S
C57 H54 0.931 . S
C57 C58 1.413 . S
C57 C59 1.360 . S
C58 C57 1.413 . S
C58 C62 1.429 . S
C59 C57 1.360 . S
C59 C60 1.372 . S
C60 H55 0.928 . S
C60 C59 1.372 . S
C60 C61 1.404 . S
C61 C60 1.404 . S
C61 C62 1.391 . S
C62 H56 0.930 . S
C62 C58 1.429 . S
C62 C61 1.391 . S
H63 C66 0.931 . S
H64 C69 0.928 . S
H65 C71 0.930 . S
C66 H63 0.931 . S
C66 C67 1.413 . S
C66 C68 1.360 . S
C67 C66 1.413 . S
C67 C71 1.429 . S
C68 C66 1.360 . S
C68 C69 1.372 . S
C69 H64 0.928 . S
C69 C68 1.372 . S
C69 C70 1.404 . S
C70 C69 1.404 . S
C70 C71 1.391 . S
C71 H65 0.930 . S
C71 C67 1.429 . S
C71 C70 1.391 . S
O72 Mn73 2.163 1_455 S
O72 C86 1.244 . S
Mn73 O72 2.163 1_655 S
Mn73 O76 2.160 1_545 S
Mn73 O77 2.221 1_655 S
Mn73 O79 2.163 1_645 S
Mn73 O81 2.160 . S
Mn73 O91 2.221 . S
O74 Mn75 2.087 . S
O74 C86 1.256 1_655 S
Mn75 O74 2.087 . S
Mn75 O82 2.089 . S
Mn75 O91 2.290 . S
Mn75 O92 2.251 . S
O76 Mn73 2.160 1_565 S
O76 C87 1.239 . S
O77 Mn73 2.221 1_455 S
O77 Mn78 2.290 1_545 S
O77 C88 1.278 . S
Mn78 O77 2.290 1_565 S
Mn78 O80 2.089 . S
Mn78 O83 2.251 . S
Mn78 O84 2.087 . S
O79 Mn73 2.163 1_465 S
O79 C89 1.244 . S
O80 Mn78 2.089 . S
O80 C87 1.256 1_455 S
O81 Mn73 2.160 . S
O81 C90 1.239 . S
O82 Mn75 2.089 . S
O82 C90 1.256 . S
O83 Mn78 2.251 . S
O83 C88 1.241 1_565 S
O84 Mn78 2.087 . S
O84 C89 1.256 . S
C85 O91 1.278 . S
C85 O92 1.241 . S
C86 O72 1.244 . S
C86 O74 1.256 1_455 S
C87 O76 1.239 . S
C87 O80 1.256 1_655 S
C88 O77 1.278 . S
C88 O83 1.241 1_545 S
C89 O79 1.244 . S
C89 O84 1.256 . S
C90 O81 1.239 . S
C90 O82 1.256 . S
O91 Mn73 2.221 . S
O91 Mn75 2.290 . S
O91 C85 1.278 . S
O92 Mn75 2.251 . S
O92 C85 1.241 . S
O93 Mn94 2.163 1_565 S
O93 C107 1.244 1_565 S
Mn94 O93 2.163 1_545 S
Mn94 O97 2.160 . S
Mn94 O98 2.221 1_545 S
Mn94 O100 2.163 . S
Mn94 O102 2.160 1_545 S
Mn94 O112 2.221 . S
O95 Mn96 2.087 . S
O95 C107 1.256 . S
Mn96 O95 2.087 . S
Mn96 O103 2.111 . S
Mn96 O112 2.290 . S
Mn96 O113 2.251 . S
O97 Mn94 2.160 . S
O97 C108 1.239 . S
O98 Mn94 2.221 1_565 S
O98 Mn99 2.290 . S
O98 C109 1.278 . S
Mn99 O98 2.290 . S
Mn99 O101 2.089 1_565 S
Mn99 O104 2.251 . S
Mn99 O105 2.087 1_565 S
O100 Mn94 2.163 . S
O100 C110 1.244 . S
O101 Mn99 2.089 1_545 S
O101 C108 1.256 . S
O102 Mn94 2.160 1_565 S
O102 C111 1.239 . S
O103 Mn96 2.111 . S
O103 C111 1.241 1_545 S
O104 Mn99 2.251 . S
O104 C109 1.241 . S
O105 Mn99 2.087 1_545 S
O105 C110 1.256 . S
C106 O112 1.278 . S
C106 O113 1.241 . S
C107 O93 1.244 1_545 S
C107 O95 1.256 . S
C108 O97 1.239 . S
C108 O101 1.256 . S
C109 O98 1.278 . S
C109 O104 1.241 . S
C110 O100 1.244 . S
C110 O105 1.256 . S
C111 O102 1.239 . S
C111 O103 1.241 1_565 S
O112 Mn94 2.221 . S
O112 Mn96 2.290 . S
O112 C106 1.278 . S
O113 Mn96 2.251 . S
O113 C106 1.241 . S
O114 Mn115 2.163 . S
O114 C128 1.244 . S
Mn115 O114 2.163 . S
Mn115 O118 2.160 . S
Mn115 O119 2.221 . S
Mn115 O121 2.163 . S
Mn115 O123 2.160 . S
Mn115 O133 2.221 . S
O116 Mn117 2.087 . S
O116 C128 1.256 . S
Mn117 O116 2.087 . S
Mn117 O124 2.089 . S
Mn117 O133 2.290 . S
Mn117 O134 2.251 . S
O118 Mn115 2.160 . S
O118 C129 1.239 . S
O119 Mn115 2.221 . S
O119 Mn120 2.290 . S
O119 C130 1.278 . S
Mn120 O119 2.290 . S
Mn120 O122 2.089 . S
Mn120 O125 2.251 . S
Mn120 O126 2.087 . S
O121 Mn115 2.163 . S
O121 C131 1.244 . S
O122 Mn120 2.089 . S
O122 C129 1.256 . S
O123 Mn115 2.160 . S
O123 C132 1.239 . S
O124 Mn117 2.089 . S
O124 C132 1.256 . S
O125 Mn120 2.251 . S
O125 C130 1.241 . S
O126 Mn120 2.087 . S
O126 C131 1.256 . S
C127 O133 1.278 . S
C127 O134 1.241 . S
C128 O114 1.244 . S
C128 O116 1.256 . S
C129 O118 1.239 . S
C129 O122 1.256 . S
C130 O119 1.278 . S
C130 O125 1.241 . S
C131 O121 1.244 . S
C131 O126 1.256 . S
C132 O123 1.239 . S
C132 O124 1.256 . S
O133 Mn115 2.221 . S
O133 Mn117 2.290 . S
O133 C127 1.278 . S
O134 Mn117 2.251 . S
O134 C127 1.241 . S
O135 Mn136 2.163 . S
O135 C149 1.244 . S
Mn136 O135 2.163 . S
Mn136 O139 2.160 1_455 S
Mn136 O140 2.221 1_455 S
Mn136 O142 2.163 1_455 S
Mn136 O144 2.160 . S
Mn136 O154 2.221 . S
O137 Mn138 2.087 . S
O137 C149 1.256 . S
Mn138 O137 2.087 . S
Mn138 O145 2.089 . S
Mn138 O154 2.290 . S
Mn138 O155 2.251 . S
O139 Mn136 2.160 1_655 S
O139 C150 1.239 . S
O140 Mn136 2.221 1_655 S
O140 Mn141 2.290 . S
O140 C151 1.278 . S
Mn141 O140 2.290 . S
Mn141 O143 2.089 . S
Mn141 O146 2.251 . S
Mn141 O147 2.087 . S
O142 Mn136 2.163 1_655 S
O142 C152 1.244 . S
O143 Mn141 2.089 . S
O143 C150 1.256 . S
O144 Mn136 2.160 . S
O144 C153 1.239 . S
O145 Mn138 2.089 . S
O145 C153 1.256 . S
O146 Mn141 2.251 . S
O146 C151 1.241 . S
O147 Mn141 2.087 . S
O147 C152 1.256 . S
C148 O154 1.278 . S
C148 O155 1.241 . S
C149 O135 1.244 . S
C149 O137 1.256 . S
C150 O139 1.239 . S
C150 O143 1.256 . S
C151 O140 1.278 . S
C151 O146 1.241 . S
C152 O142 1.244 . S
C152 O147 1.256 . S
C153 O144 1.239 . S
C153 O145 1.256 . S
O154 Mn136 2.221 . S
O154 Mn138 2.290 . S
O154 C148 1.278 . S
O155 Mn138 2.251 . S
O155 C148 1.241 . S
C156 C157 1.349 . S
C156 C158 1.327 . S
C156 H181 0.950 . S
C157 C156 1.349 . S
C157 C173 1.349 . S
C158 C156 1.327 . S
C158 C177 1.429 . S
C158 H182 0.950 . S
C159 C176 1.574 . S
C159 C178 1.368 . S
C159 H183 0.949 . S
H160 C164 0.949 . S
C161 C162 1.349 . S
C161 C163 1.327 . S
C161 H184 0.950 1_545 S
C162 C161 1.349 . S
C162 C174 1.349 . S
C163 C161 1.327 . S
C163 C179 1.429 . S
C163 H185 0.950 . S
C164 H160 0.949 . S
C164 C172 1.574 . S
C164 C180 1.368 . S
H165 C173 0.950 . S
H166 C171 0.950 . S
H167 C172 0.949 . S
H168 C174 0.950 . S
H169 C175 0.950 . S
H170 C176 0.949 . S
C171 H166 0.950 . S
C171 C173 1.327 . S
C171 C177 1.429 . S
C172 C164 1.574 . S
C172 H167 0.949 . S
C172 C178 1.368 . S
C173 C157 1.349 . S
C173 H165 0.950 . S
C173 C171 1.327 . S
C174 C162 1.349 . S
C174 H168 0.950 . S
C174 C175 1.327 . S
C175 H169 0.950 . S
C175 C174 1.327 . S
C175 C179 1.429 . S
C176 C159 1.574 . S
C176 H170 0.949 . S
C176 C180 1.368 . S
C177 C158 1.429 . S
C177 C171 1.429 . S
C177 C178 1.523 . S
C178 C159 1.368 . S
C178 C172 1.368 . S
C178 C177 1.523 . S
C179 C163 1.429 . S
C179 C175 1.429 . S
C179 C180 1.523 . S
C180 C164 1.368 . S
C180 C176 1.368 . S
C180 C179 1.523 . S
H181 C156 0.950 . S
H182 C158 0.950 . S
H183 C159 0.949 . S
H184 C161 0.950 1_565 S
H185 C163 0.950 . S
C186 C187 1.349 . S
C186 C188 1.327 . S
C186 H211 0.950 . S
C187 C186 1.349 . S
C187 C203 1.349 . S
C188 C186 1.327 . S
C188 C207 1.429 . S
C188 H212 0.950 . S
C189 C206 1.574 . S
C189 C208 1.368 . S
C189 H213 0.949 . S
H190 C194 0.949 . S
C191 C192 1.349 . S
C191 C193 1.327 . S
C191 H214 0.950 . S
C192 C191 1.349 . S
C192 C204 1.349 . S
C193 C191 1.327 . S
C193 C209 1.429 . S
C193 H215 0.950 . S
C194 H190 0.949 . S
C194 C202 1.574 . S
C194 C210 1.368 . S
H195 C203 0.950 . S
H196 C201 0.950 . S
H197 C202 0.949 . S
H198 C204 0.950 . S
H199 C205 0.950 . S
H200 C206 0.949 . S
C201 H196 0.950 . S
C201 C203 1.327 . S
C201 C207 1.429 . S
C202 C194 1.574 . S
C202 H197 0.949 . S
C202 C208 1.368 . S
C203 C187 1.349 . S
C203 H195 0.950 . S
C203 C201 1.327 . S
C204 C192 1.349 . S
C204 H198 0.950 . S
C204 C205 1.327 . S
C205 H199 0.950 . S
C205 C204 1.327 . S
C205 C209 1.429 . S
C206 C189 1.574 . S
C206 H200 0.949 . S
C206 C210 1.368 . S
C207 C188 1.429 . S
C207 C201 1.429 . S
C207 C208 1.523 . S
C208 C189 1.368 . S
C208 C202 1.368 . S
C208 C207 1.523 . S
C209 C193 1.429 . S
C209 C205 1.429 . S
C209 C210 1.523 . S
C210 C194 1.368 . S
C210 C206 1.368 . S
C210 C209 1.523 . S
H211 C186 0.950 . S
H212 C188 0.950 . S
H213 C189 0.949 . S
H214 C191 0.950 . S
H215 C193 0.950 . S
C216 C217 1.349 . S
C216 C218 1.327 . S
C216 H241 0.950 . S
C217 C216 1.349 . S
C217 C233 1.349 . S
C218 C216 1.327 . S
C218 C237 1.429 . S
C218 H242 0.950 . S
C219 C236 1.574 . S
C219 C238 1.368 . S
C219 H243 0.949 . S
H220 C224 0.949 . S
C221 C222 1.349 . S
C221 C223 1.327 . S
C221 H244 0.950 . S
C222 C221 1.349 . S
C222 C234 1.349 . S
C223 C221 1.327 . S
C223 C239 1.429 . S
C223 H245 0.950 . S
C224 H220 0.949 . S
C224 C232 1.574 . S
C224 C240 1.368 . S
H225 C233 0.950 . S
H226 C231 0.950 . S
H227 C232 0.949 . S
H228 C234 0.950 . S
H229 C235 0.950 . S
H230 C236 0.949 . S
C231 H226 0.950 . S
C231 C233 1.327 . S
C231 C237 1.429 . S
C232 C224 1.574 . S
C232 H227 0.949 . S
C232 C238 1.368 . S
C233 C217 1.349 . S
C233 H225 0.950 . S
C233 C231 1.327 . S
C234 C222 1.349 . S
C234 H228 0.950 . S
C234 C235 1.327 . S
C235 H229 0.950 . S
C235 C234 1.327 . S
C235 C239 1.429 . S
C236 C219 1.574 . S
C236 H230 0.949 . S
C236 C240 1.368 . S
C237 C218 1.429 . S
C237 C231 1.429 . S
C237 C238 1.523 . S
C238 C219 1.368 . S
C238 C232 1.368 . S
C238 C237 1.523 . S
C239 C223 1.429 . S
C239 C235 1.429 . S
C239 C240 1.523 . S
C240 C224 1.368 . S
C240 C236 1.368 . S
C240 C239 1.523 . S
H241 C216 0.950 . S
H242 C218 0.950 . S
H243 C219 0.949 . S
H244 C221 0.950 . S
H245 C223 0.950 . S
C246 C247 1.347 1_455 S
C246 C248 1.327 . S
C246 H271 0.950 . S
C247 C246 1.347 1_655 S
C247 C263 1.351 . S
C248 C246 1.327 . S
C248 C267 1.429 1_455 S
C248 H272 0.950 . S
C249 C266 1.574 . S
C249 C268 1.368 . S
C249 H273 0.949 . S
H250 C254 0.944 1_455 S
C251 C252 1.349 . S
C251 C253 1.327 . S
C251 H274 0.950 . S
C252 C251 1.349 . S
C252 C264 1.349 . S
C253 C251 1.327 . S
C253 C269 1.429 . S
C253 H275 0.950 . S
C254 H250 0.944 1_655 S
C254 C262 1.574 1_655 S
C254 C270 1.373 . S
H255 C263 0.950 . S
H256 C261 0.950 . S
H257 C262 0.949 . S
H258 C264 0.950 . S
H259 C265 0.950 . S
H260 C266 0.949 . S
C261 H256 0.950 . S
C261 C263 1.327 . S
C261 C267 1.429 . S
C262 C254 1.574 1_455 S
C262 H257 0.949 . S
C262 C268 1.368 1_455 S
C263 C247 1.351 . S
C263 H255 0.950 . S
C263 C261 1.327 . S
C264 C252 1.349 . S
C264 H258 0.950 . S
C264 C265 1.327 . S
C265 H259 0.950 . S
C265 C264 1.327 . S
C265 C269 1.429 . S
C266 C249 1.574 . S
C266 H260 0.949 . S
C266 C270 1.368 . S
C267 C248 1.429 1_655 S
C267 C261 1.429 . S
C267 C268 1.523 . S
C268 C249 1.368 . S
C268 C262 1.368 1_655 S
C268 C267 1.523 . S
C269 C253 1.429 . S
C269 C265 1.429 . S
C269 C270 1.523 . S
C270 C254 1.373 . S
C270 C266 1.368 . S
C270 C269 1.523 . S
H271 C246 0.950 . S
H272 C248 0.950 . S
H273 C249 0.949 . S
H274 C251 0.950 . S
H275 C253 0.950 . S
C276 C277 1.349 . S
C276 C278 1.327 . S
C276 H301 0.950 . S
C277 C276 1.349 . S
C277 C293 1.349 . S
C278 C276 1.327 . S
C278 C297 1.431 . S
C278 H302 0.950 . S
C279 C296 1.574 . S
C279 C298 1.368 . S
C279 H303 0.949 . S
H280 C284 0.949 . S
C281 C282 1.349 . S
C281 C283 1.327 . S
C281 H304 0.950 1_565 S
C282 C281 1.349 . S
C282 C294 1.349 . S
C283 C281 1.327 . S
C283 C299 1.429 . S
C283 H305 0.950 . S
C284 H280 0.949 . S
C284 C292 1.574 . S
C284 C300 1.368 . S
H285 C293 0.950 . S
H286 C291 0.950 . S
H287 C292 0.949 1_554 S
H288 C294 0.950 . S
H289 C295 0.950 . S
H290 C296 0.949 . S
C291 H286 0.950 . S
C291 C293 1.327 1_556 S
C291 C297 1.428 1_556 S
C292 C284 1.574 . S
C292 H287 0.949 1_556 S
C292 C298 1.368 . S
C293 C277 1.349 . S
C293 H285 0.950 . S
C293 C291 1.327 1_554 S
C294 C282 1.349 . S
C294 H288 0.950 . S
C294 C295 1.327 . S
C295 H289 0.950 . S
C295 C294 1.327 . S
C295 C299 1.429 . S
C296 C279 1.574 . S
C296 H290 0.949 . S
C296 C300 1.368 . S
C297 C278 1.431 . S
C297 C291 1.428 1_554 S
C297 C298 1.521 1_554 S
C298 C279 1.368 . S
C298 C292 1.368 . S
C298 C297 1.521 1_556 S
C299 C283 1.429 . S
C299 C295 1.429 . S
C299 C300 1.523 . S
C300 C284 1.368 . S
C300 C296 1.368 . S
C300 C299 1.523 . S
H301 C276 0.950 . S
H302 C278 0.950 . S
H303 C279 0.949 . S
H304 C281 0.950 1_545 S
H305 C283 0.950 . S
C306 C307 1.349 . S
C306 C308 1.327 . S
C306 H331 0.950 . S
C307 C306 1.349 . S
C307 C323 1.349 . S
C308 C306 1.327 . S
C308 C327 1.429 . S
C308 H332 0.950 . S
C309 C326 1.574 . S
C309 C328 1.368 . S
C309 H333 0.949 . S
H310 C314 0.949 . S
C311 C312 1.349 . S
C311 C313 1.327 . S
C311 H334 0.950 . S
C312 C311 1.349 . S
C312 C324 1.349 . S
C313 C311 1.327 . S
C313 C329 1.429 . S
C313 H335 0.950 . S
C314 H310 0.949 . S
C314 C322 1.574 1_556 S
C314 C330 1.368 . S
H315 C323 0.950 . S
H316 C321 0.950 . S
H317 C322 0.949 . S
H318 C324 0.950 . S
H319 C325 0.950 . S
H320 C326 0.949 . S
C321 H316 0.950 . S
C321 C323 1.327 1_556 S
C321 C327 1.429 1_556 S
C322 C314 1.574 1_554 S
C322 H317 0.949 . S
C322 C328 1.368 1_554 S
C323 C307 1.349 . S
C323 H315 0.950 . S
C323 C321 1.327 1_554 S
C324 C312 1.349 . S
C324 H318 0.950 . S
C324 C325 1.327 . S
C325 H319 0.950 . S
C325 C324 1.327 . S
C325 C329 1.429 . S
C326 C309 1.574 . S
C326 H320 0.949 . S
C326 C330 1.368 . S
C327 C308 1.429 . S
C327 C321 1.429 1_554 S
C327 C328 1.523 1_554 S
C328 C309 1.368 . S
C328 C322 1.368 1_556 S
C328 C327 1.523 1_556 S
C329 C313 1.429 . S
C329 C325 1.429 . S
C329 C330 1.523 . S
C330 C314 1.368 . S
C330 C326 1.368 . S
C330 C329 1.523 . S
H331 C306 0.950 . S
H332 C308 0.950 . S
H333 C309 0.949 . S
H334 C311 0.950 . S
H335 C313 0.950 . S
C336 C337 1.349 . S
C336 C338 1.327 . S
C336 H361 0.950 . S
C337 C336 1.349 . S
C337 C353 1.349 . S
C338 C336 1.327 . S
C338 C357 1.429 1_554 S
C338 H362 0.950 1_554 S
C339 C356 1.574 . S
C339 C358 1.368 . S
C339 H363 0.949 . S
H340 C344 0.949 . S
C341 C342 1.349 . S
C341 C343 1.327 . S
C341 H364 0.950 . S
C342 C341 1.349 . S
C342 C354 1.349 . S
C343 C341 1.327 . S
C343 C359 1.429 . S
C343 H365 0.950 . S
C344 H340 0.949 . S
C344 C352 1.574 . S
C344 C360 1.368 . S
H345 C353 0.950 . S
H346 C351 0.950 . S
H347 C352 0.949 . S
H348 C354 0.950 . S
H349 C355 0.950 . S
H350 C356 0.949 . S
C351 H346 0.950 . S
C351 C353 1.327 . S
C351 C357 1.429 1_554 S
C352 C344 1.574 . S
C352 H347 0.949 . S
C352 C358 1.368 . S
C353 C337 1.349 . S
C353 H345 0.950 . S
C353 C351 1.327 . S
C354 C342 1.349 . S
C354 H348 0.950 . S
C354 C355 1.327 . S
C355 H349 0.950 . S
C355 C354 1.327 . S
C355 C359 1.429 . S
C356 C339 1.574 . S
C356 H350 0.949 . S
C356 C360 1.368 . S
C357 C338 1.429 1_556 S
C357 C351 1.429 1_556 S
C357 C358 1.523 . S
C358 C339 1.368 . S
C358 C352 1.368 . S
C358 C357 1.523 . S
C359 C343 1.429 . S
C359 C355 1.429 . S
C359 C360 1.523 . S
C360 C344 1.368 . S
C360 C356 1.368 . S
C360 C359 1.523 . S
H361 C336 0.950 . S
H362 C338 0.950 1_556 S
H363 C339 0.949 . S
H364 C341 0.950 . S
H365 C343 0.950 . S
C366 C367 1.346 1_655 S
C366 C368 1.327 . S
C366 H391 0.950 . S
C367 C366 1.346 1_455 S
C367 C383 1.352 . S
C368 C366 1.327 . S
C368 C387 1.429 1_655 S
C368 H392 0.950 1_554 S
C369 C386 1.574 . S
C369 C388 1.368 . S
C369 H393 0.949 1_556 S
H370 C374 0.949 . S
C371 C372 1.349 . S
C371 C373 1.327 . S
C371 H394 0.950 . S
C372 C371 1.349 . S
C372 C384 1.349 1_455 S
C373 C371 1.327 . S
C373 C389 1.429 . S
C373 H395 0.950 . S
C374 H370 0.949 . S
C374 C382 1.574 . S
C374 C390 1.368 1_655 S
H375 C383 0.950 . S
H376 C381 0.950 . S
H377 C382 0.949 . S
H378 C384 0.950 . S
H379 C385 0.950 . S
H380 C386 0.949 . S
C381 H376 0.950 . S
C381 C383 1.327 . S
C381 C387 1.429 . S
C382 C374 1.574 . S
C382 H377 0.949 . S
C382 C388 1.368 1_655 S
C383 C367 1.352 . S
C383 H375 0.950 . S
C383 C381 1.327 . S
C384 C372 1.349 1_655 S
C384 H378 0.950 . S
C384 C385 1.327 . S
C385 H379 0.950 . S
C385 C384 1.327 . S
C385 C389 1.429 1_655 S
C386 C369 1.574 . S
C386 H380 0.949 . S
C386 C390 1.368 . S
C387 C368 1.429 1_455 S
C387 C381 1.429 . S
C387 C388 1.523 1_554 S
C388 C369 1.368 . S
C388 C382 1.368 1_455 S
C388 C387 1.523 1_556 S
C389 C373 1.429 . S
C389 C385 1.429 1_455 S
C389 C390 1.523 . S
C390 C374 1.368 1_455 S
C390 C386 1.368 . S
C390 C389 1.523 . S
H391 C366 0.950 . S
H392 C368 0.950 1_556 S
H393 C369 0.949 1_554 S
H394 C371 0.950 . S
H395 C373 0.950 . S
C396 C397 1.349 1_655 S
C396 C398 1.327 . S
C396 H421 0.950 . S
C397 C396 1.349 1_455 S
C397 C413 1.349 . S
C398 C396 1.327 . S
C398 C417 1.429 . S
C398 H422 0.950 . S
C399 C416 1.574 . S
C399 C418 1.368 1_455 S
C399 H423 0.949 . S
H400 C404 0.949 . S
C401 C402 1.349 . S
C401 C403 1.327 . S
C401 H424 0.950 1_655 S
C402 C401 1.349 . S
C402 C414 1.349 . S
C403 C401 1.327 . S
C403 C419 1.429 . S
C403 H425 0.950 1_655 S
C404 H400 0.949 . S
C404 C412 1.574 . S
C404 C420 1.368 . S
H405 C413 0.950 . S
H406 C411 0.950 . S
H407 C412 0.949 . S
H408 C414 0.950 . S
H409 C415 0.950 . S
H410 C416 0.949 . S
C411 H406 0.950 . S
C411 C413 1.327 . S
C411 C417 1.429 1_455 S
C412 C404 1.574 . S
C412 H407 0.949 . S
C412 C418 1.368 . S
C413 C397 1.349 . S
C413 H405 0.950 . S
C413 C411 1.327 . S
C414 C402 1.349 . S
C414 H408 0.950 . S
C414 C415 1.327 . S
C415 H409 0.950 . S
C415 C414 1.327 . S
C415 C419 1.429 . S
C416 C399 1.574 . S
C416 H410 0.949 . S
C416 C420 1.368 1_455 S
C417 C398 1.429 . S
C417 C411 1.429 1_655 S
C417 C418 1.523 . S
C418 C399 1.368 1_655 S
C418 C412 1.368 . S
C418 C417 1.523 . S
C419 C403 1.429 . S
C419 C415 1.429 . S
C419 C420 1.523 . S
C420 C404 1.368 . S
C420 C416 1.368 1_655 S
C420 C419 1.523 . S
H421 C396 0.950 . S
H422 C398 0.950 . S
H423 C399 0.949 . S
H424 C401 0.950 1_455 S
H425 C403 0.950 1_455 S
C426 C427 1.349 . S
C426 C428 1.327 . S
C426 H451 0.950 . S
C427 C426 1.349 . S
C427 C443 1.349 . S
C428 C426 1.327 . S
C428 C447 1.429 . S
C428 H452 0.950 . S
C429 C446 1.574 . S
C429 C448 1.368 . S
C429 H453 0.949 . S
H430 C434 0.949 . S
C431 C432 1.349 . S
C431 C433 1.327 . S
C431 H454 0.950 1_545 S
C432 C431 1.349 . S
C432 C444 1.349 . S
C433 C431 1.327 . S
C433 C449 1.429 . S
C433 H455 0.950 . S
C434 H430 0.949 . S
C434 C442 1.574 . S
C434 C450 1.368 . S
H435 C443 0.950 . S
H436 C441 0.950 . S
H437 C442 0.949 . S
H438 C444 0.950 . S
H439 C445 0.950 . S
H440 C446 0.949 . S
C441 H436 0.950 . S
C441 C443 1.327 . S
C441 C447 1.429 . S
C442 C434 1.574 . S
C442 H437 0.949 . S
C442 C448 1.368 . S
C443 C427 1.349 . S
C443 H435 0.950 . S
C443 C441 1.327 . S
C444 C432 1.349 . S
C444 H438 0.950 . S
C444 C445 1.327 . S
C445 H439 0.950 . S
C445 C444 1.327 . S
C445 C449 1.429 . S
C446 C429 1.574 . S
C446 H440 0.949 . S
C446 C450 1.368 . S
C447 C428 1.429 . S
C447 C441 1.429 . S
C447 C448 1.523 . S
C448 C429 1.368 . S
C448 C442 1.368 . S
C448 C447 1.523 . S
C449 C433 1.429 . S
C449 C445 1.429 . S
C449 C450 1.523 . S
C450 C434 1.368 . S
C450 C446 1.368 . S
C450 C449 1.523 . S
H451 C426 0.950 . S
H452 C428 0.950 . S
H453 C429 0.949 . S
H454 C431 0.950 1_565 S
H455 C433 0.950 . S
C456 C457 1.349 . S
C456 C458 1.327 . S
C456 H481 0.950 . S
C457 C456 1.349 . S
C457 C473 1.349 . S
C458 C456 1.327 . S
C458 C477 1.429 . S
C458 H482 0.950 . S
C459 C476 1.574 . S
C459 C478 1.368 . S
C459 H483 0.949 . S
H460 C464 0.949 . S
C461 C462 1.349 . S
C461 C463 1.327 . S
C461 H484 0.950 . S
C462 C461 1.349 . S
C462 C474 1.349 . S
C463 C461 1.327 . S
C463 C479 1.429 . S
C463 H485 0.950 . S
C464 H460 0.949 . S
C464 C472 1.574 . S
C464 C480 1.368 . S
H465 C473 0.950 . S
H466 C471 0.950 . S
H467 C472 0.949 . S
H468 C474 0.950 . S
H469 C475 0.950 . S
H470 C476 0.949 . S
C471 H466 0.950 . S
C471 C473 1.327 . S
C471 C477 1.429 . S
C472 C464 1.574 . S
C472 H467 0.949 . S
C472 C478 1.368 . S
C473 C457 1.349 . S
C473 H465 0.950 . S
C473 C471 1.327 . S
C474 C462 1.349 . S
C474 H468 0.950 . S
C474 C475 1.327 . S
C475 H469 0.950 . S
C475 C474 1.327 . S
C475 C479 1.429 . S
C476 C459 1.574 . S
C476 H470 0.949 . S
C476 C480 1.368 . S
C477 C458 1.429 . S
C477 C471 1.429 . S
C477 C478 1.523 . S
C478 C459 1.368 . S
C478 C472 1.368 . S
C478 C477 1.523 . S
C479 C463 1.429 . S
C479 C475 1.429 . S
C479 C480 1.523 . S
C480 C464 1.368 . S
C480 C476 1.368 . S
C480 C479 1.523 . S
H481 C456 0.950 . S
H482 C458 0.950 . S
H483 C459 0.949 . S
H484 C461 0.950 . S
H485 C463 0.950 . S
C486 C487 1.349 . S
C486 C488 1.327 . S
C486 H511 0.950 . S
C487 C486 1.349 . S
C487 C503 1.349 . S
C488 C486 1.327 . S
C488 C507 1.429 . S
C488 H512 0.950 . S
C489 C506 1.574 . S
C489 C508 1.368 . S
C489 H513 0.949 . S
H490 C494 0.949 . S
C491 C492 1.349 . S
C491 C493 1.327 . S
C491 H514 0.950 . S
C492 C491 1.349 . S
C492 C504 1.349 . S
C493 C491 1.327 . S
C493 C509 1.429 . S
C493 H515 0.950 . S
C494 H490 0.949 . S
C494 C502 1.574 . S
C494 C510 1.368 . S
H495 C503 0.950 . S
H496 C501 0.950 . S
H497 C502 0.949 . S
H498 C504 0.950 . S
H499 C505 0.950 . S
H500 C506 0.949 . S
C501 H496 0.950 . S
C501 C503 1.327 . S
C501 C507 1.429 . S
C502 C494 1.574 . S
C502 H497 0.949 . S
C502 C508 1.368 . S
C503 C487 1.349 . S
C503 H495 0.950 . S
C503 C501 1.327 . S
C504 C492 1.349 . S
C504 H498 0.950 . S
C504 C505 1.327 . S
C505 H499 0.950 . S
C505 C504 1.327 . S
C505 C509 1.429 . S
C506 C489 1.574 . S
C506 H500 0.949 . S
C506 C510 1.368 . S
C507 C488 1.429 . S
C507 C501 1.429 . S
C507 C508 1.523 . S
C508 C489 1.368 . S
C508 C502 1.368 . S
C508 C507 1.523 . S
C509 C493 1.429 . S
C509 C505 1.429 . S
C509 C510 1.523 . S
C510 C494 1.368 . S
C510 C506 1.368 . S
C510 C509 1.523 . S
H511 C486 0.950 . S
H512 C488 0.950 . S
H513 C489 0.949 . S
H514 C491 0.950 . S
H515 C493 0.950 . S
C516 C517 1.363 . S
C516 C518 1.327 . S
C516 H541 0.950 . S
C517 C516 1.363 . S
C517 C533 1.332 1_655 S
C518 C516 1.327 . S
C518 C537 1.433 1_655 S
C518 H542 0.950 . S
C519 C536 1.574 . S
C519 C538 1.368 . S
C519 H543 0.949 . S
H520 C524 0.949 . S
C521 C522 1.349 . S
C521 C523 1.327 . S
C521 H544 0.950 . S
C522 C521 1.349 . S
C522 C534 1.349 . S
C523 C521 1.327 . S
C523 C539 1.429 . S
C523 H545 0.950 . S
C524 H520 0.949 . S
C524 C532 1.574 . S
C524 C540 1.368 1_655 S
H525 C533 0.950 1_556 S
H526 C531 0.950 . S
H527 C532 0.949 1_554 S
H528 C534 0.950 1_655 S
H529 C535 0.950 1_655 S
H530 C536 0.949 . S
C531 H526 0.950 . S
C531 C533 1.327 1_556 S
C531 C537 1.427 1_556 S
C532 C524 1.574 . S
C532 H527 0.949 1_556 S
C532 C538 1.368 1_655 S
C533 C517 1.332 1_455 S
C533 H525 0.950 1_554 S
C533 C531 1.327 1_554 S
C534 C522 1.349 . S
C534 H528 0.950 1_455 S
C534 C535 1.327 . S
C535 H529 0.950 1_455 S
C535 C534 1.327 . S
C535 C539 1.429 . S
C536 C519 1.574 . S
C536 H530 0.949 . S
C536 C540 1.368 . S
C537 C518 1.433 1_455 S
C537 C531 1.427 1_554 S
C537 C538 1.521 1_554 S
C538 C519 1.368 . S
C538 C532 1.368 1_455 S
C538 C537 1.521 1_556 S
C539 C523 1.429 . S
C539 C535 1.429 . S
C539 C540 1.523 . S
C540 C524 1.368 1_455 S
C540 C536 1.368 . S
C540 C539 1.523 . S
H541 C516 0.950 . S
H542 C518 0.950 . S
H543 C519 0.949 . S
H544 C521 0.950 . S
H545 C523 0.950 . S
C546 C547 1.349 . S
C546 C548 1.327 . S
C546 H571 0.950 . S
C547 C546 1.349 . S
C547 C563 1.349 . S
C548 C546 1.327 . S
C548 C567 1.429 1_554 S
C548 H572 0.950 . S
C549 C566 1.574 . S
C549 C568 1.368 . S
C549 H573 0.949 . S
H550 C554 0.949 . S
C551 C552 1.303 1_565 S
C551 C553 1.327 . S
C551 H574 0.950 . S
C552 C551 1.303 1_545 S
C552 C564 1.373 . S
C553 C551 1.327 . S
C553 C569 1.429 . S
C553 H575 0.950 . S
C554 H550 0.949 . S
C554 C562 1.574 . S
C554 C570 1.368 . S
H555 C563 0.950 1_556 S
H556 C561 0.950 . S
H557 C562 0.949 1_554 S
H558 C564 0.950 . S
H559 C565 0.968 . S
H560 C566 0.949 . S
C561 H556 0.950 . S
C561 C563 1.327 1_556 S
C561 C567 1.429 . S
C562 C554 1.574 . S
C562 H557 0.949 1_556 S
C562 C568 1.368 . S
C563 C547 1.349 . S
C563 H555 0.950 1_554 S
C563 C561 1.327 1_554 S
C564 C552 1.373 . S
C564 H558 0.950 . S
C564 C565 1.344 . S
C565 H559 0.968 . S
C565 C564 1.344 . S
C565 C569 1.395 1_545 S
C566 C549 1.574 . S
C566 H560 0.949 . S
C566 C570 1.368 . S
C567 C548 1.429 1_556 S
C567 C561 1.429 . S
C567 C568 1.523 . S
C568 C549 1.368 . S
C568 C562 1.368 . S
C568 C567 1.523 . S
C569 C553 1.429 . S
C569 C565 1.395 1_565 S
C569 C570 1.523 . S
C570 C554 1.368 . S
C570 C566 1.368 . S
C570 C569 1.523 . S
H571 C546 0.950 . S
H572 C548 0.950 . S
H573 C549 0.949 . S
H574 C551 0.950 . S
H575 C553 0.950 . S
C576 C577 1.349 . S
C576 C578 1.327 1_554 S
C576 H601 0.950 1_554 S
C577 C576 1.349 . S
C577 C593 1.349 . S
C578 C576 1.327 1_556 S
C578 C597 1.429 1_556 S
C578 H602 0.950 . S
C579 C596 1.574 . S
C579 C598 1.368 . S
C579 H603 0.949 1_556 S
H580 C584 0.949 . S
C581 C582 1.349 . S
C581 C583 1.327 . S
C581 H604 0.950 . S
C582 C581 1.349 . S
C582 C594 1.349 . S
C583 C581 1.327 . S
C583 C599 1.429 . S
C583 H605 0.950 . S
C584 H580 0.949 . S
C584 C592 1.574 . S
C584 C600 1.368 . S
H585 C593 0.950 . S
H586 C591 0.950 . S
H587 C592 0.949 . S
H588 C594 0.950 . S
H589 C595 0.950 . S
H590 C596 0.949 . S
C591 H586 0.950 . S
C591 C593 1.327 . S
C591 C597 1.429 . S
C592 C584 1.574 . S
C592 H587 0.949 . S
C592 C598 1.368 . S
C593 C577 1.349 . S
C593 H585 0.950 . S
C593 C591 1.327 . S
C594 C582 1.349 . S
C594 H588 0.950 . S
C594 C595 1.327 . S
C595 H589 0.950 . S
C595 C594 1.327 . S
C595 C599 1.429 . S
C596 C579 1.574 . S
C596 H590 0.949 . S
C596 C600 1.368 . S
C597 C578 1.429 1_554 S
C597 C591 1.429 . S
C597 C598 1.523 1_554 S
C598 C579 1.368 . S
C598 C592 1.368 . S
C598 C597 1.523 1_556 S
C599 C583 1.429 . S
C599 C595 1.429 . S
C599 C600 1.523 . S
C600 C584 1.368 . S
C600 C596 1.368 . S
C600 C599 1.523 . S
H601 C576 0.950 1_556 S
H602 C578 0.950 . S
H603 C579 0.949 1_554 S
H604 C581 0.950 . S
H605 C583 0.950 . S
C606 C607 1.349 . S
C606 C608 1.327 . S
C606 H631 0.950 . S
C607 C606 1.349 . S
C607 C623 1.349 1_554 S
C608 C606 1.327 . S
C608 C627 1.429 1_554 S
C608 H632 0.950 . S
C609 C626 1.574 . S
C609 C628 1.368 . S
C609 H633 0.949 . S
H610 C614 0.949 . S
C611 C612 1.349 . S
C611 C613 1.327 . S
C611 H634 0.950 . S
C612 C611 1.349 . S
C612 C624 1.349 . S
C613 C611 1.327 . S
C613 C629 1.429 . S
C613 H635 0.950 . S
C614 H610 0.949 . S
C614 C622 1.574 . S
C614 C630 1.368 . S
H615 C623 0.950 . S
H616 C621 0.950 . S
H617 C622 0.949 1_554 S
H618 C624 0.950 . S
H619 C625 0.950 . S
H620 C626 0.949 . S
C621 H616 0.950 . S
C621 C623 1.327 . S
C621 C627 1.429 . S
C622 C614 1.574 . S
C622 H617 0.949 1_556 S
C622 C628 1.368 . S
C623 C607 1.349 1_556 S
C623 H615 0.950 . S
C623 C621 1.327 . S
C624 C612 1.349 . S
C624 H618 0.950 . S
C624 C625 1.327 . S
C625 H619 0.950 . S
C625 C624 1.327 . S
C625 C629 1.429 . S
C626 C609 1.574 . S
C626 H620 0.949 . S
C626 C630 1.368 . S
C627 C608 1.429 1_556 S
C627 C621 1.429 . S
C627 C628 1.523 . S
C628 C609 1.368 . S
C628 C622 1.368 . S
C628 C627 1.523 . S
C629 C613 1.429 . S
C629 C625 1.429 . S
C629 C630 1.523 . S
C630 C614 1.368 . S
C630 C626 1.368 . S
C630 C629 1.523 . S
H631 C606 0.950 . S
H632 C608 0.950 . S
H633 C609 0.949 . S
H634 C611 0.950 . S
H635 C613 0.950 . S
C636 C637 1.345 1_655 S
C636 C638 1.327 . S
C636 H661 0.950 . S
C637 C636 1.345 1_455 S
C637 C653 1.355 . S
C638 C636 1.327 . S
C638 C657 1.429 1_655 S
C638 H662 0.950 . S
C639 C656 1.574 1_554 S
C639 C658 1.368 . S
C639 H663 0.949 1_554 S
H640 C644 0.949 . S
C641 C642 1.349 . S
C641 C643 1.327 . S
C641 H664 0.950 . S
C642 C641 1.349 . S
C642 C654 1.349 . S
C643 C641 1.327 . S
C643 C659 1.429 . S
C643 H665 0.950 . S
C644 H640 0.949 . S
C644 C652 1.575 . S
C644 C660 1.368 1_554 S
H645 C653 0.950 . S
H646 C651 0.950 . S
H647 C652 0.944 1_655 S
H648 C654 0.950 . S
H649 C655 0.950 1_554 S
H650 C656 0.949 . S
C651 H646 0.950 . S
C651 C653 1.327 . S
C651 C657 1.429 . S
C652 C644 1.575 . S
C652 H647 0.944 1_455 S
C652 C658 1.374 . S
C653 C637 1.355 . S
C653 H645 0.950 . S
C653 C651 1.327 . S
C654 C642 1.349 . S
C654 H648 0.950 . S
C654 C655 1.327 . S
C655 H649 0.950 1_556 S
C655 C654 1.327 . S
C655 C659 1.429 . S
C656 C639 1.574 1_556 S
C656 H650 0.949 . S
C656 C660 1.368 . S
C657 C638 1.429 1_455 S
C657 C651 1.429 . S
C657 C658 1.523 . S
C658 C639 1.368 . S
C658 C652 1.374 . S
C658 C657 1.523 . S
C659 C643 1.429 . S
C659 C655 1.429 . S
C659 C660 1.523 . S
C660 C644 1.368 1_556 S
C660 C656 1.368 . S
C660 C659 1.523 . S
H661 C636 0.950 . S
H662 C638 0.950 . S
H663 C639 0.949 1_556 S
H664 C641 0.950 . S
H665 C643 0.950 . S
C666 C667 1.349 . S
C666 C668 1.327 . S
C666 H691 0.950 . S
C667 C666 1.349 . S
C667 C683 1.349 . S
C668 C666 1.327 . S
C668 C687 1.429 . S
C668 H692 0.950 . S
C669 C686 1.574 1_554 S
C669 C688 1.368 . S
C669 H693 0.949 . S
H670 C674 0.949 . S
C671 C672 1.349 . S
C671 C673 1.327 . S
C671 H694 0.950 . S
C672 C671 1.349 . S
C672 C684 1.349 . S
C673 C671 1.327 . S
C673 C689 1.429 . S
C673 H695 0.950 . S
C674 H670 0.949 . S
C674 C682 1.574 . S
C674 C690 1.368 1_554 S
H675 C683 0.950 . S
H676 C681 0.950 . S
H677 C682 0.949 . S
H678 C684 0.950 . S
H679 C685 0.950 . S
H680 C686 0.949 . S
C681 H676 0.950 . S
C681 C683 1.327 . S
C681 C687 1.429 . S
C682 C674 1.574 . S
C682 H677 0.949 . S
C682 C688 1.368 . S
C683 C667 1.349 . S
C683 H675 0.950 . S
C683 C681 1.327 . S
C684 C672 1.349 . S
C684 H678 0.950 . S
C684 C685 1.327 . S
C685 H679 0.950 . S
C685 C684 1.327 . S
C685 C689 1.429 . S
C686 C669 1.574 1_556 S
C686 H680 0.949 . S
C686 C690 1.368 . S
C687 C668 1.429 . S
C687 C681 1.429 . S
C687 C688 1.523 . S
C688 C669 1.368 . S
C688 C682 1.368 . S
C688 C687 1.523 . S
C689 C673 1.429 . S
C689 C685 1.429 . S
C689 C690 1.523 . S
C690 C674 1.368 1_556 S
C690 C686 1.368 . S
C690 C689 1.523 . S
H691 C666 0.950 . S
H692 C668 0.950 . S
H693 C669 0.949 . S
H694 C671 0.950 . S
H695 C673 0.950 . S
C696 C697 1.349 . S
C696 C698 1.327 . S
C696 H721 0.950 . S
C697 C696 1.349 . S
C697 C713 1.349 . S
C698 C696 1.327 . S
C698 C717 1.429 . S
C698 H722 0.950 . S
C699 C716 1.574 . S
C699 C718 1.368 . S
C699 H723 0.949 . S
H700 C704 0.949 . S
C701 C702 1.349 . S
C701 C703 1.327 . S
C701 H724 0.950 . S
C702 C701 1.349 . S
C702 C714 1.349 . S
C703 C701 1.327 . S
C703 C719 1.429 . S
C703 H725 0.950 . S
C704 H700 0.949 . S
C704 C712 1.574 1_556 S
C704 C720 1.368 . S
H705 C713 0.950 . S
H706 C711 0.950 . S
H707 C712 0.949 . S
H708 C714 0.950 . S
H709 C715 0.950 . S
H710 C716 0.949 . S
C711 H706 0.950 . S
C711 C713 1.327 . S
C711 C717 1.429 . S
C712 C704 1.574 1_554 S
C712 H707 0.949 . S
C712 C718 1.368 . S
C713 C697 1.349 . S
C713 H705 0.950 . S
C713 C711 1.327 . S
C714 C702 1.349 . S
C714 H708 0.950 . S
C714 C715 1.327 . S
C715 H709 0.950 . S
C715 C714 1.327 . S
C715 C719 1.429 . S
C716 C699 1.574 . S
C716 H710 0.949 . S
C716 C720 1.368 1_554 S
C717 C698 1.429 . S
C717 C711 1.429 . S
C717 C718 1.523 . S
C718 C699 1.368 . S
C718 C712 1.368 . S
C718 C717 1.523 . S
C719 C703 1.429 . S
C719 C715 1.429 . S
C719 C720 1.523 . S
C720 C704 1.368 . S
C720 C716 1.368 1_556 S
C720 C719 1.523 . S
H721 C696 0.950 . S
H722 C698 0.950 . S
H723 C699 0.949 . S
H724 C701 0.950 . S
H725 C703 0.950 . S
C726 C727 1.349 . S
C726 C728 1.327 . S
C726 H751 0.950 . S
C727 C726 1.349 . S
C727 C743 1.349 . S
C728 C726 1.327 . S
C728 C747 1.429 . S
C728 H752 0.950 . S
C729 C746 1.574 1_554 S
C729 C748 1.368 . S
C729 H753 0.949 . S
H730 C734 0.949 . S
C731 C732 1.349 . S
C731 C733 1.327 . S
C731 H754 0.950 . S
C732 C731 1.349 . S
C732 C744 1.349 . S
C733 C731 1.327 . S
C733 C749 1.429 . S
C733 H755 0.950 . S
C734 H730 0.949 . S
C734 C742 1.574 . S
C734 C750 1.365 1_554 S
H735 C743 0.950 . S
H736 C741 0.950 . S
H737 C742 0.949 . S
H738 C744 0.950 . S
H739 C745 0.950 . S
H740 C746 0.949 . S
C741 H736 0.950 . S
C741 C743 1.327 . S
C741 C747 1.429 . S
C742 C734 1.574 . S
C742 H737 0.949 . S
C742 C748 1.368 . S
C743 C727 1.349 . S
C743 H735 0.950 . S
C743 C741 1.327 . S
C744 C732 1.349 . S
C744 H738 0.950 . S
C744 C745 1.327 . S
C745 H739 0.950 . S
C745 C744 1.327 . S
C745 C749 1.429 . S
C746 C729 1.574 1_556 S
C746 H740 0.949 . S
C746 C750 1.369 . S
C747 C728 1.429 . S
C747 C741 1.429 . S
C747 C748 1.523 . S
C748 C729 1.368 . S
C748 C742 1.368 . S
C748 C747 1.523 . S
C749 C733 1.429 . S
C749 C745 1.429 . S
C749 C750 1.526 . S
C750 C734 1.365 1_556 S
C750 C746 1.369 . S
C750 C749 1.526 . S
H751 C726 0.950 . S
H752 C728 0.950 . S
H753 C729 0.949 . S
H754 C731 0.950 . S
H755 C733 0.950 . S
C756 C757 1.343 1_455 S
C756 C758 1.327 . S
C756 H781 0.950 . S
C757 C756 1.343 1_655 S
C757 C773 1.356 . S
C758 C756 1.327 . S
C758 C777 1.429 1_455 S
C758 H782 0.950 . S
C759 C776 1.574 . S
C759 C778 1.368 . S
C759 H783 0.949 . S
H760 C764 0.952 . S
C761 C762 1.349 . S
C761 C763 1.327 . S
C761 H784 0.950 . S
C762 C761 1.349 . S
C762 C774 1.349 . S
C763 C761 1.327 . S
C763 C779 1.429 . S
C763 H785 0.950 . S
C764 H760 0.952 . S
C764 C772 1.574 . S
C764 C780 1.365 1_455 S
H765 C773 0.950 . S
H766 C771 0.950 . S
H767 C772 0.949 . S
H768 C774 0.949 1_455 S
H769 C775 0.950 1_455 S
H770 C776 0.949 . S
C771 H766 0.950 . S
C771 C773 1.327 . S
C771 C777 1.429 . S
C772 C764 1.574 . S
C772 H767 0.949 . S
C772 C778 1.368 1_455 S
C773 C757 1.356 . S
C773 H765 0.950 . S
C773 C771 1.327 . S
C774 C762 1.349 . S
C774 H768 0.949 1_655 S
C774 C775 1.327 . S
C775 H769 0.950 1_655 S
C775 C774 1.327 . S
C775 C779 1.429 . S
C776 C759 1.574 . S
C776 H770 0.949 . S
C776 C780 1.368 . S
C777 C758 1.429 1_655 S
C777 C771 1.429 . S
C777 C778 1.523 . S
C778 C759 1.368 . S
C778 C772 1.368 1_655 S
C778 C777 1.523 . S
C779 C763 1.429 . S
C779 C775 1.429 . S
C779 C780 1.523 . S
C780 C764 1.365 1_655 S
C780 C776 1.368 . S
C780 C779 1.523 . S
H781 C756 0.950 . S
H782 C758 0.950 . S
H783 C759 0.949 . S
H784 C761 0.950 . S
H785 C763 0.950 . S
C786 C787 1.349 . S
C786 C788 1.327 . S
C786 H811 0.950 . S
C787 C786 1.349 . S
C787 C803 1.349 . S
C788 C786 1.327 . S
C788 C807 1.429 . S
C788 H812 0.950 . S
C789 C806 1.574 . S
C789 C808 1.368 . S
C789 H813 0.949 . S
H790 C794 0.949 . S
C791 C792 1.349 . S
C791 C793 1.327 . S
C791 H814 0.950 . S
C792 C791 1.349 . S
C792 C804 1.349 . S
C793 C791 1.327 . S
C793 C809 1.429 . S
C793 H815 0.950 . S
C794 H790 0.949 . S
C794 C802 1.574 . S
C794 C810 1.368 . S
H795 C803 0.950 . S
H796 C801 0.950 . S
H797 C802 0.949 . S
H798 C804 0.950 1_545 S
H799 C805 0.950 . S
H800 C806 0.949 . S
C801 H796 0.950 . S
C801 C803 1.327 . S
C801 C807 1.429 . S
C802 C794 1.574 . S
C802 H797 0.949 . S
C802 C808 1.368 . S
C803 C787 1.349 . S
C803 H795 0.950 . S
C803 C801 1.327 . S
C804 C792 1.349 . S
C804 H798 0.950 1_565 S
C804 C805 1.327 . S
C805 H799 0.950 . S
C805 C804 1.327 . S
C805 C809 1.429 . S
C806 C789 1.574 . S
C806 H800 0.949 . S
C806 C810 1.368 . S
C807 C788 1.429 . S
C807 C801 1.429 . S
C807 C808 1.523 . S
C808 C789 1.368 . S
C808 C802 1.368 . S
C808 C807 1.523 . S
C809 C793 1.429 . S
C809 C805 1.429 . S
C809 C810 1.523 . S
C810 C794 1.368 . S
C810 C806 1.368 . S
C810 C809 1.523 . S
H811 C786 0.950 . S
H812 C788 0.950 . S
H813 C789 0.949 . S
H814 C791 0.950 . S
H815 C793 0.950 . S
C816 C817 1.349 . S
C816 C818 1.327 . S
C816 H841 0.950 . S
C817 C816 1.349 . S
C817 C833 1.349 . S
C818 C816 1.327 . S
C818 C837 1.429 . S
C818 H842 0.950 . S
C819 C836 1.574 . S
C819 C838 1.368 . S
C819 H843 0.949 . S
H820 C824 0.949 . S
C821 C822 1.349 . S
C821 C823 1.327 . S
C821 H844 0.950 . S
C822 C821 1.349 . S
C822 C834 1.349 . S
C823 C821 1.327 . S
C823 C839 1.429 . S
C823 H845 0.950 . S
C824 H820 0.949 . S
C824 C832 1.574 . S
C824 C840 1.368 . S
H825 C833 0.950 . S
H826 C831 0.950 . S
H827 C832 0.949 . S
H828 C834 0.950 . S
H829 C835 0.950 . S
H830 C836 0.949 . S
C831 H826 0.950 . S
C831 C833 1.327 . S
C831 C837 1.429 . S
C832 C824 1.574 . S
C832 H827 0.949 . S
C832 C838 1.368 . S
C833 C817 1.349 . S
C833 H825 0.950 . S
C833 C831 1.327 . S
C834 C822 1.349 . S
C834 H828 0.950 . S
C834 C835 1.327 . S
C835 H829 0.950 . S
C835 C834 1.327 . S
C835 C839 1.429 . S
C836 C819 1.574 . S
C836 H830 0.949 . S
C836 C840 1.368 . S
C837 C818 1.429 . S
C837 C831 1.429 . S
C837 C838 1.523 . S
C838 C819 1.368 . S
C838 C832 1.368 . S
C838 C837 1.523 . S
C839 C823 1.429 . S
C839 C835 1.429 . S
C839 C840 1.523 . S
C840 C824 1.368 . S
C840 C836 1.368 . S
C840 C839 1.523 . S
H841 C816 0.950 . S
H842 C818 0.950 . S
H843 C819 0.949 . S
H844 C821 0.950 . S
H845 C823 0.950 . S
C846 C847 1.349 . S
C846 C848 1.327 . S
C846 H871 0.950 . S
C847 C846 1.349 . S
C847 C863 1.349 . S
C848 C846 1.327 . S
C848 C867 1.429 . S
C848 H872 0.950 . S
C849 C866 1.574 . S
C849 C868 1.368 . S
C849 H873 0.949 . S
H850 C854 0.949 . S
C851 C852 1.349 . S
C851 C853 1.327 . S
C851 H874 0.950 . S
C852 C851 1.349 . S
C852 C864 1.349 . S
C853 C851 1.327 . S
C853 C869 1.429 . S
C853 H875 0.950 . S
C854 H850 0.949 . S
C854 C862 1.574 . S
C854 C870 1.368 . S
H855 C863 0.950 . S
H856 C861 0.950 . S
H857 C862 0.949 . S
H858 C864 0.950 . S
H859 C865 0.950 . S
H860 C866 0.949 . S
C861 H856 0.950 . S
C861 C863 1.327 . S
C861 C867 1.429 . S
C862 C854 1.574 . S
C862 H857 0.949 . S
C862 C868 1.368 . S
C863 C847 1.349 . S
C863 H855 0.950 . S
C863 C861 1.327 . S
C864 C852 1.349 . S
C864 H858 0.950 . S
C864 C865 1.327 . S
C865 H859 0.950 . S
C865 C864 1.327 . S
C865 C869 1.429 . S
C866 C849 1.574 . S
C866 H860 0.949 . S
C866 C870 1.368 . S
C867 C848 1.429 . S
C867 C861 1.429 . S
C867 C868 1.523 . S
C868 C849 1.368 . S
C868 C862 1.368 . S
C868 C867 1.523 . S
C869 C853 1.429 . S
C869 C865 1.429 . S
C869 C870 1.523 . S
C870 C854 1.368 . S
C870 C866 1.368 . S
C870 C869 1.523 . S
H871 C846 0.950 . S
H872 C848 0.950 . S
H873 C849 0.949 . S
H874 C851 0.950 . S
H875 C853 0.950 . S
C157 C61 1.642 . S
C162 C88 1.511 . S
C192 C106 1.244 . S
C187 C70 1.408 . S
C222 C127 1.496 . S
C217 C43 1.633 . S
C252 C151 1.266 . S
C247 C52 1.419 . S
C282 C85 1.428 1_565 S
C277 C25 1.561 . S
C307 C34 1.309 . S
C312 C109 1.159 . S
C337 C7 1.548 . S
C342 C130 1.412 . S
C367 C16 1.320 1_455 S
C372 C148 1.183 . S
C402 C90 0.316 . S
C397 C50 0.229 1_455 S
C432 C108 0.338 . S
C427 C59 0.426 . S
C462 C129 0.319 . S
C457 C67 0.215 . S
C487 C41 0.431 . S
C492 C153 0.333 . S
C517 C14 0.236 . S
C522 C89 0.267 . S
C552 C107 0.357 . S
C547 C23 0.413 . S
C582 C128 0.281 . S
C577 C31 0.248 . S
C607 C5 0.409 . S
C612 C152 0.312 . S
C637 C49 1.510 1_455 S
C642 C86 1.478 . S
C667 C58 1.690 . S
C672 C110 1.665 . S
C702 C131 1.452 . S
C697 C68 1.484 . S
C732 C149 1.689 . S
C727 C40 1.712 . S
C757 C13 1.364 . S
C762 C87 1.341 . S
C792 C111 1.521 . S
C787 C22 1.546 . S
C822 C132 1.311 . S
C817 C32 1.339 . S
C847 C4 1.568 . S
C852 C150 1.544 . S
