# Generated by pormake.
# Topology anh, (6,3)-cn, num edge types: 1
# Building blocks:
#     Node 0, Type 0, BuildingBlock: MIFKUJ_clean_sbu_0, # of connection points: 6
#     Node 1, Type 0, BuildingBlock: MIFKUJ_clean_sbu_0, # of connection points: 6
#     Node 2, Type 0, BuildingBlock: MIFKUJ_clean_sbu_0, # of connection points: 6
#     Node 3, Type 1, BuildingBlock: VETTIZ_charged_linker_0, # of connection points: 3
#     Node 4, Type 1, BuildingBlock: VETTIZ_charged_linker_0, # of connection points: 3
#     Node 5, Type 1, BuildingBlock: VETTIZ_charged_linker_0, # of connection points: 3
#     Node 6, Type 1, BuildingBlock: VETTIZ_charged_linker_0, # of connection points: 3
#     Node 7, Type 1, BuildingBlock: VETTIZ_charged_linker_0, # of connection points: 3
#     Node 8, Type 1, BuildingBlock: VETTIZ_charged_linker_0, # of connection points: 3
#     Edge 9, Type (0, 1), BuildingBlock: TEMPAE_clean_linker_10, # of connection points: 2
#     Edge 10, Type (0, 1), BuildingBlock: TEMPAE_clean_linker_10, # of connection points: 2
#     Edge 11, Type (0, 1), BuildingBlock: TEMPAE_clean_linker_10, # of connection points: 2
#     Edge 12, Type (0, 1), BuildingBlock: TEMPAE_clean_linker_10, # of connection points: 2
#     Edge 13, Type (0, 1), BuildingBlock: TEMPAE_clean_linker_10, # of connection points: 2
#     Edge 14, Type (0, 1), BuildingBlock: TEMPAE_clean_linker_10, # of connection points: 2
#     Edge 15, Type (0, 1), BuildingBlock: TEMPAE_clean_linker_10, # of connection points: 2
#     Edge 16, Type (0, 1), BuildingBlock: TEMPAE_clean_linker_10, # of connection points: 2
#     Edge 17, Type (0, 1), BuildingBlock: TEMPAE_clean_linker_10, # of connection points: 2
#     Edge 18, Type (0, 1), BuildingBlock: TEMPAE_clean_linker_10, # of connection points: 2
#     Edge 19, Type (0, 1), BuildingBlock: TEMPAE_clean_linker_10, # of connection points: 2
#     Edge 20, Type (0, 1), BuildingBlock: TEMPAE_clean_linker_10, # of connection points: 2
#     Edge 21, Type (0, 1), BuildingBlock: TEMPAE_clean_linker_10, # of connection points: 2
#     Edge 22, Type (0, 1), BuildingBlock: TEMPAE_clean_linker_10, # of connection points: 2
#     Edge 23, Type (0, 1), BuildingBlock: TEMPAE_clean_linker_10, # of connection points: 2
#     Edge 24, Type (0, 1), BuildingBlock: TEMPAE_clean_linker_10, # of connection points: 2
#     Edge 25, Type (0, 1), BuildingBlock: TEMPAE_clean_linker_10, # of connection points: 2
#     Edge 26, Type (0, 1), BuildingBlock: TEMPAE_clean_linker_10, # of connection points: 2
# Relax obj value: 0.139
# Max RMSD: 0.186
# Mean RMSD: 0.147
data_MOF--net-anh--node1-MIFKUJ_clean_sbu_0--node2-VETTIZ_charged_linker_0--edge1-TEMPAE_clean_linker_10
_symmetry_space_group_name_H-M    P1
_symmetry_Int_Tables_number       1
_symmetry_cell_setting            triclinic
loop_
_symmetry_equiv_pos_as_xyz
'x, y, z'
_cell_length_a     37.247025
_cell_length_b     37.265359
_cell_length_c     64.555848
_cell_angle_alpha  93.667496
_cell_angle_beta   90.800849
_cell_angle_gamma 120.30686
loop_
_atom_site_label
_atom_site_type_symbol
_atom_site_fract_x
_atom_site_fract_y
_atom_site_fract_z
_atom_type_partial_charge
Zn0 Zn 0.04608 0.5728 0.16753 0.0
Zn1 Zn 0.93231 0.48573 0.16304 0.0
C2 C 0.10934 0.55535 0.17349 0.0
O3 O 0.11139 0.57786 0.19048 0.0
C4 C 0.86586 0.49508 0.14724 0.0
O5 O 0.86506 0.46801 0.13289 0.0
O6 O 0.08834 0.63388 0.1691 0.0
O7 O 0.00262 0.5645 0.14595 0.0
O8 O 0.96572 0.49736 0.13744 0.0
C9 C 0.10378 0.64816 0.15199 0.0
O10 O 0.09021 0.62306 0.13489 0.0
O11 O 0.08032 0.54577 0.15974 0.0
C12 C 0.90174 0.39684 0.16559 0.0
O13 O 0.93985 0.40854 0.17228 0.0
O14 O 0.8929 0.4242 0.16101 0.0
O15 O 0.96097 0.50201 0.19175 0.0
O16 O 0.02554 0.55636 0.19575 0.0
O17 O 0.89418 0.50979 0.16179 0.0
C18 C 0.98984 0.53402 0.13239 0.0
C19 C 0.99316 0.52747 0.20318 0.0
Zn20 Zn 0.53632 0.05751 0.5017 0.0
Zn21 Zn 0.52395 0.95795 0.50241 0.0
C22 C 0.62058 0.11578 0.51274 0.0
O23 O 0.60108 0.12028 0.52861 0.0
C24 C 0.44364 0.88395 0.49248 0.0
O25 O 0.46457 0.88029 0.47708 0.0
O26 O 0.52734 0.10591 0.49933 0.0
O27 O 0.5011 0.01728 0.47786 0.0
O28 O 0.53321 0.98147 0.47431 0.0
C29 C 0.53765 0.12273 0.4822 0.0
O30 O 0.5498 0.10567 0.46756 0.0
O31 O 0.59938 0.08644 0.49862 0.0
C32 C 0.5429 0.89742 0.51492 0.0
O33 O 0.51932 0.89671 0.53003 0.0
O34 O 0.55053 0.92257 0.50102 0.0
O35 O 0.54748 0.99509 0.52934 0.0
O36 O 0.52179 0.03742 0.53003 0.0
O37 O 0.46188 0.91625 0.50529 0.0
C38 C 0.5126 0.99639 0.46648 0.0
C39 C 0.53652 0.01826 0.53935 0.0
Zn40 Zn 0.57541 0.49972 0.82578 0.0
Zn41 Zn 0.48214 0.52908 0.82282 0.0
C42 C 0.55134 0.4217 0.84414 0.0
O43 O 0.54929 0.44203 0.86104 0.0
C44 C 0.49873 0.6095 0.81786 0.0
O45 O 0.47299 0.58722 0.80191 0.0
O46 O 0.63598 0.53315 0.82031 0.0
O47 O 0.5419 0.50624 0.80245 0.0
O48 O 0.49316 0.51996 0.79313 0.0
C49 C 0.65095 0.52029 0.80607 0.0
O50 O 0.62601 0.48527 0.79488 0.0
O51 O 0.56052 0.43953 0.82724 0.0
C52 C 0.41014 0.52092 0.84041 0.0
O53 O 0.43909 0.55016 0.85341 0.0
O54 O 0.42086 0.50453 0.82575 0.0
O55 O 0.50619 0.50193 0.83903 0.0
O56 O 0.5666 0.52138 0.85359 0.0
O57 O 0.5099 0.59129 0.83023 0.0
C58 C 0.52054 0.51048 0.78823 0.0
C59 C 0.53181 0.5196 0.85453 0.0
C60 C 0.61902 0.10603 0.18922 0.0
C61 C 0.65556 0.13266 0.20162 0.0
C62 C 0.65667 0.12709 0.22294 0.0
C63 C 0.58441 0.07253 0.21985 0.0
C64 C 0.58373 0.07624 0.1987 0.0
C65 C 0.54143 0.04631 0.18831 0.0
H66 H 0.33756 0.90573 0.19906 0.0
C67 C 0.54209 0.04187 0.22532 0.0
C68 C 0.51654 0.02634 0.20698 0.0
H69 H 0.40113 0.93845 0.14191 0.0
H70 H 0.4659 0.98792 0.16138 0.0
H71 H 0.40362 0.89394 0.22054 0.0
H72 H 0.38594 0.99967 0.22455 0.0
H73 H 0.398 0.9927 0.24987 0.0
H74 H 0.35168 0.95182 0.23573 0.0
H75 H 0.36342 0.89464 0.23523 0.0
H76 H 0.41519 0.91445 0.24655 0.0
C77 C 0.54541 0.01436 0.17338 0.0
C78 C 0.52526 0.07167 0.17748 0.0
C79 C 0.51296 0.01628 0.30107 0.0
C80 C 0.47632 0.99268 0.31146 0.0
C81 C 0.43801 0.97022 0.29978 0.0
C82 C 0.43633 0.9711 0.27812 0.0
C83 C 0.47335 0.9947 0.26799 0.0
C84 C 0.51071 0.01705 0.2795 0.0
C85 C 0.5467 0.04165 0.26631 0.0
C86 C 0.52494 0.02945 0.24485 0.0
C87 C 0.48212 0.00191 0.24592 0.0
C88 C 0.57784 0.02589 0.26854 0.0
C89 C 0.56502 0.08868 0.27304 0.0
C90 C 0.36524 0.92453 0.19076 0.0
C91 C 0.36446 0.91937 0.16905 0.0
C92 C 0.40125 0.94274 0.15867 0.0
C93 C 0.43866 0.97099 0.16999 0.0
C94 C 0.43919 0.97495 0.19185 0.0
C95 C 0.40281 0.95169 0.20182 0.0
C96 C 0.40964 0.95612 0.22502 0.0
C97 C 0.45616 0.98594 0.22744 0.0
C98 C 0.4733 0.99756 0.20803 0.0
C99 C 0.39715 0.91267 0.23241 0.0
C100 C 0.38492 0.97583 0.23446 0.0
H101 H 0.62414 0.09523 0.24847 0.0
H102 H 0.61745 0.10951 0.17276 0.0
H103 H 0.52946 0.09832 0.18815 0.0
H104 H 0.49175 0.05318 0.1729 0.0
H105 H 0.54254 0.08447 0.16337 0.0
H106 H 0.57168 0.01031 0.17855 0.0
H107 H 0.55108 0.02453 0.15736 0.0
H108 H 0.51764 0.98274 0.17295 0.0
H109 H 0.54301 0.03361 0.30947 0.0
H110 H 0.40921 0.9523 0.30741 0.0
H111 H 0.40626 0.95337 0.27012 0.0
H112 H 0.56104 0.99157 0.26968 0.0
H113 H 0.59869 0.04086 0.28275 0.0
H114 H 0.59703 0.03098 0.25493 0.0
H115 H 0.5409 0.09481 0.27952 0.0
H116 H 0.57646 0.10856 0.2599 0.0
H117 H 0.5906 0.09995 0.2852 0.0
H118 H 0.68477 0.14663 0.23267 0.0
C119 C 0.6214 0.09723 0.23209 0.0
C120 C 0.62212 0.65162 0.51591 0.0
C121 C 0.62761 0.68697 0.52807 0.0
C122 C 0.63343 0.68908 0.54982 0.0
C123 C 0.62472 0.62019 0.54729 0.0
C124 C 0.62138 0.61883 0.52587 0.0
C125 C 0.61623 0.57882 0.51566 0.0
H126 H 0.59847 0.39065 0.52746 0.0
C127 C 0.61968 0.58036 0.55299 0.0
C128 C 0.61554 0.5561 0.53456 0.0
H129 H 0.59902 0.4431 0.46972 0.0
H130 H 0.60634 0.50519 0.48882 0.0
H131 H 0.66985 0.47516 0.55389 0.0
H132 H 0.53642 0.41098 0.54691 0.0
H133 H 0.54856 0.4346 0.57235 0.0
H134 H 0.56259 0.39592 0.56485 0.0
H135 H 0.63597 0.42522 0.56335 0.0
H136 H 0.65055 0.473 0.57883 0.0
C137 C 0.65469 0.58986 0.50279 0.0
C138 C 0.57425 0.55574 0.50274 0.0
C139 C 0.60177 0.54698 0.62851 0.0
C140 C 0.59284 0.51107 0.63841 0.0
C141 C 0.59157 0.47717 0.62671 0.0
C142 C 0.59813 0.47864 0.60539 0.0
C143 C 0.60569 0.51424 0.59558 0.0
C144 C 0.60786 0.5478 0.60716 0.0
C145 C 0.61545 0.58269 0.59407 0.0
C146 C 0.61621 0.56394 0.57258 0.0
C147 C 0.61058 0.52402 0.57361 0.0
C148 C 0.65826 0.62138 0.60127 0.0
C149 C 0.57802 0.58982 0.5959 0.0
C150 C 0.60095 0.41592 0.51897 0.0
C151 C 0.59925 0.41285 0.49722 0.0
C152 C 0.6009 0.4454 0.48655 0.0
C153 C 0.60515 0.48122 0.49766 0.0
C154 C 0.607 0.48388 0.51958 0.0
C155 C 0.6044 0.45119 0.52976 0.0
C156 C 0.6037 0.45736 0.55288 0.0
C157 C 0.60829 0.50013 0.55514 0.0
C158 C 0.61037 0.51578 0.53566 0.0
C159 C 0.64178 0.45748 0.56293 0.0
C160 C 0.56086 0.42296 0.55977 0.0
H161 H 0.63577 0.65924 0.57607 0.0
H162 H 0.61798 0.6494 0.49915 0.0
H163 H 0.54975 0.55845 0.51115 0.0
H164 H 0.5621 0.52194 0.49994 0.0
H165 H 0.57707 0.56912 0.48755 0.0
H166 H 0.68358 0.61513 0.51125 0.0
H167 H 0.65172 0.60091 0.48763 0.0
H168 H 0.66018 0.56356 0.49996 0.0
H169 H 0.60261 0.57341 0.63705 0.0
H170 H 0.58532 0.4494 0.63407 0.0
H171 H 0.59656 0.45176 0.59735 0.0
H172 H 0.67885 0.61245 0.60934 0.0
H173 H 0.65456 0.64337 0.61223 0.0
H174 H 0.6761 0.63822 0.58805 0.0
H175 H 0.54817 0.55947 0.59482 0.0
H176 H 0.57526 0.60719 0.58339 0.0
H177 H 0.57994 0.60675 0.61106 0.0
H178 H 0.63728 0.71574 0.55953 0.0
C179 C 0.63209 0.65601 0.55945 0.0
C180 C 0.12277 0.52735 0.8524 0.0
C181 C 0.14603 0.51377 0.86335 0.0
C182 C 0.14362 0.51231 0.88506 0.0
C183 C 0.09659 0.53909 0.88482 0.0
C184 C 0.098 0.53955 0.86345 0.0
C185 C 0.07015 0.55375 0.85445 0.0
H186 H 0.92294 0.60619 0.87074 0.0
C187 C 0.06924 0.55483 0.89175 0.0
C188 C 0.05347 0.56346 0.87408 0.0
H189 H 0.9622 0.57984 0.81198 0.0
H190 H 0.01773 0.57579 0.82984 0.0
H191 H 0.92449 0.53706 0.89328 0.0
H192 H 0.01757 0.66686 0.89276 0.0
H193 H 0.02078 0.65277 0.91786 0.0
H194 H 0.97329 0.64967 0.90842 0.0
H195 H 0.9187 0.57849 0.90537 0.0
H196 H 0.94422 0.5563 0.91899 0.0
C197 C 0.0354 0.51683 0.84036 0.0
C198 C 0.09727 0.59342 0.84311 0.0
C199 C 0.04662 0.56577 0.96863 0.0
C200 C 0.02345 0.57969 0.98002 0.0
C201 C 0.0023 0.59611 0.96939 0.0
C202 C 0.0033 0.59755 0.94776 0.0
C203 C 0.02558 0.5823 0.93656 0.0
C204 C 0.04745 0.56761 0.94707 0.0
C205 C 0.07043 0.55386 0.93276 0.0
C206 C 0.05825 0.56216 0.91185 0.0
C207 C 0.03165 0.57834 0.91415 0.0
C208 C 0.0532 0.50665 0.9346 0.0
C209 C 0.1177 0.58224 0.93844 0.0
C210 C 0.94418 0.60045 0.86177 0.0
C211 C 0.93831 0.59289 0.84009 0.0
C212 C 0.96639 0.58573 0.82875 0.0
C213 C 0.99807 0.58281 0.83916 0.0
C214 C 1.00124 0.58684 0.86105 0.0
C215 C 0.97543 0.59695 0.87193 0.0
C216 C 0.98196 0.59864 0.89506 0.0
C217 C 0.01458 0.5859 0.89632 0.0
C218 C 0.02577 0.57897 0.87639 0.0
C219 C 0.9403 0.56622 0.90382 0.0
C220 C 0.99902 0.64418 0.90416 0.0
H221 H 0.11914 0.52356 0.91236 0.0
H222 H 0.12397 0.52855 0.83569 0.0
H223 H 0.12677 0.61475 0.8524 0.0
H224 H 0.08204 0.61186 0.84087 0.0
H225 H 0.10556 0.58539 0.82773 0.0
H226 H 0.02799 0.48633 0.84598 0.0
H227 H 0.04496 0.51724 0.82412 0.0
H228 H 0.0055 0.51632 0.84036 0.0
H229 H 0.06299 0.55264 0.9762 0.0
H230 H 0.98486 0.60781 0.97782 0.0
H231 H 0.98618 0.60992 0.94055 0.0
H232 H 0.01962 0.49036 0.93796 0.0
H233 H 0.07008 0.50157 0.94734 0.0
H234 H 0.05442 0.49018 0.92001 0.0
H235 H 0.12544 0.61457 0.94355 0.0
H236 H 0.13724 0.58586 0.92513 0.0
H237 H 0.12775 0.5704 0.95135 0.0
H238 H 0.16182 0.50262 0.89384 0.0
C239 C 0.11915 0.52495 0.89583 0.0
C240 C 0.92423 0.39867 0.48787 0.0
C241 C 0.8877 0.36546 0.47746 0.0
C242 C 0.88265 0.36394 0.45577 0.0
C243 C 0.94808 0.42865 0.45489 0.0
C244 C 0.95407 0.43028 0.4762 0.0
C245 C 0.99451 0.46919 0.4841 0.0
H246 H 0.15954 0.65645 0.46004 0.0
C247 C 0.98268 0.46652 0.44717 0.0
C248 C 0.01026 0.49112 0.46415 0.0
H249 H 0.1408 0.60649 0.51996 0.0
H250 H 0.07675 0.544 0.50592 0.0
H251 H 0.14147 0.57526 0.43541 0.0
H252 H 0.06668 0.63058 0.44873 0.0
H253 H 0.05216 0.60855 0.42301 0.0
H254 H 0.10536 0.64894 0.42969 0.0
H255 H 0.14642 0.61842 0.4223 0.0
H256 H 0.11075 0.56516 0.4126 0.0
C257 C 0.02397 0.45554 0.49305 0.0
C258 C 0.98456 0.49505 0.50011 0.0
C259 C 0.98199 0.487 0.36999 0.0
C260 C 0.00754 0.52055 0.35835 0.0
C261 C 0.04089 0.55703 0.3685 0.0
C262 C 0.04907 0.55996 0.38993 0.0
C263 C 0.02347 0.52612 0.40144 0.0
C264 C 0.9903 0.49067 0.3915 0.0
C265 C 0.96527 0.45885 0.40643 0.0
C266 C 0.98979 0.48058 0.42689 0.0
C267 C 0.02384 0.51965 0.42378 0.0
C268 C 0.96683 0.4188 0.4002 0.0
C269 C 0.9208 0.45282 0.40603 0.0
C270 C 0.14142 0.63249 0.47034 0.0
C271 C 0.15476 0.63685 0.49119 0.0
C272 C 0.13092 0.60402 0.50381 0.0
C273 C 0.09387 0.56785 0.49564 0.0
C274 C 0.08104 0.56424 0.47456 0.0
C275 C 0.10534 0.59641 0.46242 0.0
C276 C 0.08975 0.58756 0.44019 0.0
C277 C 0.05174 0.54478 0.44067 0.0
C278 C 0.0458 0.53079 0.46082 0.0
C279 C 0.12371 0.58677 0.42678 0.0
C280 C 0.07807 0.62062 0.43493 0.0
H281 H 0.90637 0.3917 0.42802 0.0
H282 H 0.92885 0.40041 0.50458 0.0
H283 H 0.9591 0.49925 0.49378 0.0
H284 H 0.01146 0.52656 0.50408 0.0
H285 H 0.97432 0.47915 0.51468 0.0
H286 H 0.02368 0.43059 0.48249 0.0
H287 H 0.01415 0.44309 0.50845 0.0
H288 H 0.05666 0.48114 0.49469 0.0
H289 H 0.95576 0.45883 0.36256 0.0
H290 H 0.06108 0.58313 0.35975 0.0
H291 H 0.07516 0.58849 0.39664 0.0
H292 H 0.99843 0.42681 0.39538 0.0
H293 H 0.94434 0.40016 0.38694 0.0
H294 H 0.96075 0.39879 0.41314 0.0
H295 H 0.92036 0.48014 0.4003 0.0
H296 H 0.90844 0.45013 0.42171 0.0
H297 H 0.89864 0.42497 0.39571 0.0
H298 H 0.85508 0.33853 0.44749 0.0
C299 C 0.91252 0.39502 0.44448 0.0
C300 C 0.55861 0.92989 0.82424 0.0
C301 C 0.56519 0.89974 0.81347 0.0
C302 C 0.57136 0.90167 0.79202 0.0
C303 C 0.56304 0.96185 0.79197 0.0
C304 C 0.55824 0.9611 0.81318 0.0
C305 C 0.55346 0.99704 0.82185 0.0
H306 H 0.53107 0.16234 0.8019 0.0
C307 C 0.55976 0.99684 0.78479 0.0
C308 C 0.55455 0.01811 0.80219 0.0
H309 H 0.53933 0.1227 0.86222 0.0
H310 H 0.54704 0.06621 0.8459 0.0
H311 H 0.6053 0.1591 0.78552 0.0
H312 H 0.47434 0.07002 0.77759 0.0
H313 H 0.49549 0.07324 0.75314 0.0
H314 H 0.49906 0.11914 0.76625 0.0
H315 H 0.57257 0.16391 0.76663 0.0
H316 H 0.59815 0.1346 0.76048 0.0
C317 C 0.59118 0.02545 0.83712 0.0
C318 C 0.51094 0.97912 0.83184 0.0
C319 C 0.55886 0.01414 0.70732 0.0
C320 C 0.55632 0.04366 0.69587 0.0
C321 C 0.55387 0.07651 0.70643 0.0
C322 C 0.55312 0.07951 0.72812 0.0
C323 C 0.55517 0.04949 0.73942 0.0
C324 C 0.55861 0.01789 0.72903 0.0
C325 C 0.56213 0.98985 0.74364 0.0
C326 C 0.55947 0.00945 0.76452 0.0
C327 C 0.55492 0.04395 0.76188 0.0
C328 C 0.60518 0.99327 0.7413 0.0
C329 C 0.52424 0.94533 0.73871 0.0
C330 C 0.53392 0.14106 0.81157 0.0
C331 C 0.53378 0.1461 0.83321 0.0
C332 C 0.53893 0.11884 0.84543 0.0
C333 C 0.54354 0.08634 0.83594 0.0
C334 C 0.54384 0.08187 0.81409 0.0
C335 C 0.53943 0.10941 0.80242 0.0
C336 C 0.54298 0.10238 0.77965 0.0
C337 C 0.54982 0.06569 0.77932 0.0
C338 C 0.54988 0.05321 0.79945 0.0
C339 C 0.58147 0.14197 0.77252 0.0
C340 C 0.50102 0.09082 0.76839 0.0
H341 H 0.57464 0.93158 0.76492 0.0
H342 H 0.55406 0.92921 0.84077 0.0
H343 H 0.48596 0.95368 0.82129 0.0
H344 H 0.50142 0.00251 0.83485 0.0
H345 H 0.51152 0.96598 0.84673 0.0
H346 H 0.61997 0.02676 0.83163 0.0
H347 H 0.58596 0.01366 0.85282 0.0
H348 H 0.59852 0.05817 0.83843 0.0
H349 H 0.56137 0.98892 0.69954 0.0
H350 H 0.55172 0.09946 0.69783 0.0
H351 H 0.55066 0.10494 0.73521 0.0
H352 H 0.62809 0.02315 0.73507 0.0
H353 H 0.6027 0.96755 0.73054 0.0
H354 H 0.6198 0.99346 0.7564 0.0
H355 H 0.49534 0.94653 0.73586 0.0
H356 H 0.51756 0.92513 0.75158 0.0
H357 H 0.5288 0.9298 0.72455 0.0
H358 H 0.57592 0.87849 0.78338 0.0
C359 C 0.57029 0.93239 0.78126 0.0
C360 C 0.58979 0.53202 0.13496 0.0
C361 C 0.62486 0.53572 0.12496 0.0
C362 C 0.62605 0.53732 0.10327 0.0
C363 C 0.55902 0.53273 0.1016 0.0
C364 C 0.55733 0.53109 0.12293 0.0
C365 C 0.51809 0.52909 0.13052 0.0
H366 H 0.34281 0.53657 0.1061 0.0
C367 C 0.5215 0.53199 0.09345 0.0
C368 C 0.49721 0.53028 0.11024 0.0
H369 H 0.38338 0.52452 0.16686 0.0
H370 H 0.44275 0.52332 0.15212 0.0
H371 H 0.43068 0.60194 0.09112 0.0
H372 H 0.35804 0.46808 0.083 0.0
H373 H 0.38107 0.48465 0.05933 0.0
H374 H 0.34558 0.50067 0.06889 0.0
H375 H 0.38484 0.57452 0.07402 0.0
H376 H 0.43554 0.58759 0.06533 0.0
C377 C 0.53088 0.56798 0.14561 0.0
C378 C 0.492 0.48739 0.14041 0.0
C379 C 0.50188 0.53409 0.01566 0.0
C380 C 0.47139 0.53527 0.00314 0.0
C381 C 0.43843 0.53701 0.01263 0.0
C382 C 0.43549 0.53675 0.03427 0.0
C383 C 0.46601 0.53502 0.04658 0.0
C384 C 0.49865 0.53412 0.0372 0.0
C385 C 0.52894 0.5337 0.05264 0.0
C386 C 0.50851 0.53332 0.07288 0.0
C387 C 0.47174 0.53398 0.06923 0.0
C388 C 0.57159 0.57441 0.05147 0.0
C389 C 0.5298 0.49284 0.04778 0.0
C390 C 0.36463 0.53395 0.11627 0.0
C391 C 0.35896 0.53131 0.13763 0.0
C392 C 0.38739 0.52683 0.15031 0.0
C393 C 0.42182 0.52632 0.14175 0.0
C394 C 0.42746 0.52986 0.12028 0.0
C395 C 0.39851 0.53289 0.10798 0.0
C396 C 0.40761 0.53452 0.08544 0.0
C397 C 0.44734 0.53292 0.08607 0.0
C398 C 0.45944 0.53054 0.10649 0.0
C399 C 0.41481 0.57659 0.07841 0.0
C400 C 0.37124 0.49523 0.07337 0.0
H401 H 0.59658 0.53687 0.07516 0.0
H402 H 0.5881 0.53061 0.15165 0.0
H403 H 0.49227 0.4615 0.13095 0.0
H404 H 0.45889 0.47814 0.14113 0.0
H405 H 0.50473 0.48897 0.15632 0.0
H406 H 0.55578 0.59646 0.1391 0.0
H407 H 0.54305 0.56502 0.16083 0.0
H408 H 0.50507 0.57383 0.14834 0.0
H409 H 0.52803 0.53356 0.00883 0.0
H410 H 0.41457 0.53788 0.00325 0.0
H411 H 0.40949 0.5378 0.04055 0.0
H412 H 0.56794 0.59953 0.04512 0.0
H413 H 0.59257 0.56911 0.04132 0.0
H414 H 0.58755 0.58802 0.06697 0.0
H415 H 0.49796 0.46629 0.04331 0.0
H416 H 0.54038 0.48317 0.06128 0.0
H417 H 0.54988 0.49578 0.03468 0.0
H418 H 0.65234 0.53943 0.09523 0.0
C419 C 0.59348 0.53571 0.0916 0.0
C420 C 0.17571 0.55946 0.18511 0.0
C421 C 0.1429 0.54548 0.16999 0.0
C422 C 0.21014 0.55458 0.18152 0.0
C423 C 0.21186 0.53492 0.16239 0.0
C424 C 0.17799 0.51896 0.14743 0.0
C425 C 0.14396 0.52456 0.15137 0.0
C426 C 0.2456 0.57232 0.19783 0.0
C427 C 0.17846 0.49741 0.12692 0.0
C428 C 0.31795 0.5671 0.1416 0.0
C429 C 0.32344 0.53384 0.14614 0.0
C430 C 0.28217 0.56807 0.14714 0.0
C431 C 0.2507 0.53465 0.15728 0.0
C432 C 0.25652 0.5014 0.16238 0.0
C433 C 0.29305 0.50152 0.15686 0.0
C434 C 0.27773 0.60457 0.14178 0.0
C435 C 0.22363 0.46514 0.17309 0.0
H436 H 0.17522 0.5755 0.19961 0.0
H437 H 0.11873 0.51349 0.13965 0.0
H438 H 0.25392 0.54855 0.20126 0.0
H439 H 0.27357 0.5989 0.19189 0.0
H440 H 0.23797 0.5835 0.21256 0.0
H441 H 0.14822 0.48329 0.11782 0.0
H442 H 0.2032 0.52022 0.11752 0.0
H443 H 0.18581 0.47261 0.12951 0.0
H444 H 0.34156 0.59217 0.13336 0.0
H445 H 0.2971 0.47559 0.16016 0.0
H446 H 0.27235 0.61923 0.15599 0.0
H447 H 0.25031 0.59357 0.13084 0.0
H448 H 0.3057 0.62872 0.13455 0.0
H449 H 0.21602 0.4765 0.18773 0.0
H450 H 0.23359 0.44263 0.17675 0.0
H451 H 0.1946 0.44848 0.16298 0.0
C452 C 0.68724 0.17911 0.52652 0.0
C453 C 0.66456 0.1487 0.51009 0.0
C454 C 0.72635 0.21414 0.52369 0.0
C455 C 0.74344 0.21921 0.50391 0.0
C456 C 0.7217 0.18761 0.48753 0.0
C457 C 0.68259 0.15273 0.49081 0.0
C458 C 0.74836 0.2468 0.54162 0.0
C459 C 0.73878 0.19166 0.4662 0.0
C460 C 0.81376 0.32833 0.48696 0.0
C461 C 0.85322 0.3323 0.48837 0.0
C462 C 0.77814 0.29238 0.49266 0.0
C463 C 0.78189 0.25918 0.49982 0.0
C464 C 0.82203 0.26385 0.5022 0.0
C465 C 0.85728 0.30042 0.49642 0.0
C466 C 0.73621 0.28918 0.49008 0.0
C467 C 0.82747 0.22939 0.50984 0.0
H468 H 0.6738 0.17628 0.54154 0.0
H469 H 0.66538 0.12958 0.47801 0.0
H470 H 0.78138 0.25507 0.54348 0.0
H471 H 0.74822 0.27562 0.53839 0.0
H472 H 0.7333 0.23623 0.55651 0.0
H473 H 0.72012 0.16293 0.45567 0.0
H474 H 0.73891 0.21808 0.45912 0.0
H475 H 0.77146 0.19861 0.46735 0.0
H476 H 0.81058 0.35279 0.48047 0.0
H477 H 0.88765 0.3031 0.49713 0.0
H478 H 0.71994 0.28138 0.50481 0.0
H479 H 0.71641 0.26366 0.47807 0.0
H480 H 0.73887 0.31856 0.48539 0.0
H481 H 0.81109 0.21876 0.52438 0.0
H482 H 0.8608 0.23931 0.51275 0.0
H483 H 0.81337 0.20222 0.49808 0.0
C484 C 0.53168 0.67696 0.84057 0.0
C485 C 0.5126 0.6544 0.82147 0.0
C486 C 0.54317 0.71922 0.84407 0.0
C487 C 0.53572 0.73926 0.82803 0.0
C488 C 0.51676 0.71658 0.80871 0.0
C489 C 0.50533 0.67453 0.80573 0.0
C490 C 0.56299 0.7423 0.8649 0.0
C491 C 0.5086 0.73676 0.79107 0.0
C492 C 0.52655 0.83592 0.83266 0.0
C493 C 0.56309 0.86417 0.82356 0.0
C494 C 0.51885 0.79591 0.83635 0.0
C495 C 0.54845 0.78421 0.83077 0.0
C496 C 0.58734 0.81438 0.82382 0.0
C497 C 0.59416 0.85403 0.82027 0.0
C498 C 0.47723 0.76488 0.84409 0.0
C499 C 0.61997 0.80352 0.81785 0.0
H500 H 0.5371 0.66148 0.85286 0.0
H501 H 0.49074 0.6574 0.79091 0.0
H502 H 0.59399 0.76987 0.86286 0.0
H503 H 0.54362 0.75402 0.87214 0.0
H504 H 0.56681 0.72231 0.87572 0.0
H505 H 0.49357 0.71472 0.77704 0.0
H506 H 0.48814 0.74899 0.79606 0.0
H507 H 0.53831 0.76358 0.78671 0.0
H508 H 0.50246 0.8437 0.83517 0.0
H509 H 0.62262 0.87609 0.81341 0.0
H510 H 0.4808 0.74551 0.85537 0.0
H511 H 0.45678 0.74362 0.83078 0.0
H512 H 0.46152 0.78056 0.85157 0.0
H513 H 0.62323 0.78443 0.8294 0.0
H514 H 0.65083 0.83184 0.81644 0.0
H515 H 0.61031 0.78477 0.80262 0.0
C516 C 0.80399 0.4923 0.12992 0.0
C517 C 0.83214 0.50535 0.14722 0.0
C518 C 0.77061 0.49972 0.12979 0.0
C519 C 0.76486 0.5205 0.14746 0.0
C520 C 0.79314 0.53381 0.16501 0.0
C521 C 0.82658 0.52626 0.16465 0.0
C522 C 0.74152 0.48536 0.11063 0.0
C523 C 0.78792 0.5558 0.18417 0.0
C524 C 0.70107 0.56914 0.13301 0.0
C525 C 0.66057 0.53712 0.13624 0.0
C526 C 0.73583 0.56572 0.13825 0.0
C527 C 0.72996 0.52931 0.14692 0.0
C528 C 0.68942 0.49867 0.15202 0.0
C529 C 0.65507 0.50293 0.14659 0.0
C530 C 0.77836 0.59931 0.13264 0.0
C531 C 0.68184 0.45965 0.16154 0.0
H532 H 0.80799 0.47617 0.11638 0.0
H533 H 0.84799 0.53616 0.17816 0.0
H534 H 0.70916 0.46354 0.11471 0.0
H535 H 0.74178 0.51247 0.10428 0.0
H536 H 0.75015 0.46945 0.09823 0.0
H537 H 0.8123 0.56381 0.19661 0.0
H538 H 0.78915 0.58489 0.18015 0.0
H539 H 0.75693 0.53573 0.19036 0.0
H540 H 0.7053 0.59568 0.12506 0.0
H541 H 0.62377 0.47803 0.14898 0.0
H542 H 0.78807 0.58767 0.11882 0.0
H543 H 0.80187 0.60732 0.1455 0.0
H544 H 0.77857 0.62812 0.12895 0.0
H545 H 0.68445 0.43855 0.14952 0.0
H546 H 0.6504 0.44267 0.16781 0.0
H547 H 0.70558 0.46723 0.17422 0.0
C548 C 0.37947 0.81716 0.47956 0.0
C549 C 0.40042 0.84952 0.49534 0.0
C550 C 0.33927 0.7835 0.48197 0.0
C551 C 0.31927 0.78162 0.50072 0.0
C552 C 0.34027 0.81403 0.5168 0.0
C553 C 0.38048 0.84769 0.51388 0.0
C554 C 0.31803 0.75002 0.46428 0.0
C555 C 0.32027 0.81311 0.53708 0.0
C556 C 0.20152 0.71432 0.49363 0.0
C557 C 0.19453 0.67525 0.49865 0.0
C558 C 0.24156 0.74985 0.49557 0.0
C559 C 0.27572 0.7465 0.50283 0.0
C560 C 0.2683 0.7079 0.50957 0.0
C561 C 0.22776 0.67268 0.50738 0.0
C562 C 0.24769 0.79016 0.48824 0.0
C563 C 0.30364 0.70301 0.51767 0.0
H564 H 0.39446 0.81816 0.46517 0.0
H565 H 0.39648 0.8723 0.52625 0.0
H566 H 0.30966 0.71917 0.46964 0.0
H567 H 0.28868 0.74827 0.45898 0.0
H568 H 0.33792 0.75579 0.4508 0.0
H569 H 0.34109 0.83996 0.54828 0.0
H570 H 0.29107 0.81354 0.5342 0.0
H571 H 0.31175 0.78377 0.54429 0.0
H572 H 0.17586 0.71657 0.48703 0.0
H573 H 0.22267 0.64258 0.51117 0.0
H574 H 0.26408 0.79643 0.47352 0.0
H575 H 0.26737 0.81669 0.49979 0.0
H576 H 0.21764 0.78908 0.48544 0.0
H577 H 0.32263 0.70299 0.50459 0.0
H578 H 0.29223 0.67346 0.52525 0.0
H579 H 0.32439 0.72956 0.529 0.0
C580 C 0.55544 0.36083 0.82836 0.0
C581 C 0.54559 0.37948 0.84516 0.0
C582 C 0.55189 0.32168 0.82944 0.0
C583 C 0.53775 0.30039 0.84768 0.0
C584 C 0.52737 0.31882 0.86462 0.0
C585 C 0.53158 0.35824 0.8632 0.0
C586 C 0.56349 0.30318 0.81104 0.0
C587 C 0.51179 0.29689 0.88422 0.0
C588 C 0.49568 0.18459 0.83711 0.0
C589 C 0.53073 0.18174 0.84232 0.0
C590 C 0.49638 0.22252 0.84034 0.0
C591 C 0.53333 0.25852 0.84863 0.0
C592 C 0.56774 0.255 0.85536 0.0
C593 C 0.56596 0.21645 0.85217 0.0
C594 C 0.45878 0.22471 0.83327 0.0
C595 C 0.60772 0.29261 0.86424 0.0
H596 H 0.56651 0.37708 0.81442 0.0
H597 H 0.52384 0.37239 0.87625 0.0
H598 H 0.58829 0.29681 0.81591 0.0
H599 H 0.53615 0.27298 0.80503 0.0
H600 H 0.5747 0.32407 0.79818 0.0
H601 H 0.50499 0.31542 0.896 0.0
H602 H 0.48301 0.26629 0.88049 0.0
H603 H 0.53529 0.29061 0.89115 0.0
H604 H 0.46858 0.15768 0.82933 0.0
H605 H 0.59324 0.21426 0.85588 0.0
H606 H 0.4654 0.24107 0.81881 0.0
H607 H 0.45167 0.24276 0.84516 0.0
H608 H 0.43079 0.19323 0.83009 0.0
H609 H 0.62373 0.31309 0.85166 0.0
H610 H 0.62919 0.28375 0.87134 0.0
H611 H 0.60124 0.3111 0.87616 0.0
C612 C 0.5505 0.84092 0.52931 0.0
C613 C 0.5589 0.86821 0.51373 0.0
C614 C 0.56467 0.81248 0.52837 0.0
C615 C 0.58783 0.81123 0.5114 0.0
C616 C 0.59642 0.83862 0.49557 0.0
C617 C 0.58186 0.86687 0.49693 0.0
C618 C 0.55491 0.78382 0.54561 0.0
C619 C 0.62095 0.83807 0.47726 0.0
C620 C 0.65101 0.76206 0.52546 0.0
C621 C 0.62331 0.72009 0.51889 0.0
C622 C 0.64154 0.79299 0.5215 0.0
C623 C 0.60342 0.78152 0.51075 0.0
C624 C 0.57736 0.73985 0.5023 0.0
C625 C 0.58767 0.70953 0.50646 0.0
C626 C 0.67048 0.83714 0.53054 0.0
C627 C 0.53665 0.72646 0.49056 0.0
H628 H 0.53276 0.84169 0.54233 0.0
H629 H 0.58837 0.88779 0.48478 0.0
H630 H 0.53736 0.75082 0.53911 0.0
H631 H 0.58425 0.78917 0.55327 0.0
H632 H 0.53624 0.78852 0.55761 0.0
H633 H 0.62463 0.86113 0.46615 0.0
H634 H 0.65232 0.84498 0.48276 0.0
H635 H 0.60523 0.80656 0.46888 0.0
H636 H 0.6789 0.7703 0.53484 0.0
H637 H 0.56613 0.67707 0.50141 0.0
H638 H 0.65669 0.84378 0.54435 0.0
H639 H 0.67464 0.85981 0.51914 0.0
H640 H 0.70155 0.84227 0.53544 0.0
H641 H 0.51359 0.72497 0.50169 0.0
H642 H 0.52377 0.69526 0.48201 0.0
H643 H 0.54056 0.74937 0.47935 0.0
C644 C 0.71351 0.52319 0.79073 0.0
C645 C 0.69654 0.54073 0.80444 0.0
C646 C 0.75619 0.53687 0.79211 0.0
C647 C 0.78222 0.56866 0.80757 0.0
C648 C 0.76603 0.58952 0.81983 0.0
C649 C 0.72329 0.57528 0.81812 0.0
C650 C 0.77242 0.51434 0.77848 0.0
C651 C 0.79287 0.62394 0.83633 0.0
C652 C 0.86157 0.55496 0.83745 0.0
C653 C 0.8991 0.58562 0.83016 0.0
C654 C 0.82344 0.54841 0.82964 0.0
C655 C 0.82279 0.57339 0.81417 0.0
C656 C 0.8606 0.60355 0.80618 0.0
C657 C 0.89859 0.60923 0.81426 0.0
C658 C 0.78388 0.51548 0.83844 0.0
C659 C 0.86101 0.63069 0.78971 0.0
H660 H 0.69316 0.49703 0.77979 0.0
H661 H 0.71056 0.58961 0.82847 0.0
H662 H 0.80378 0.53643 0.77328 0.0
H663 H 0.77529 0.49148 0.78752 0.0
H664 H 0.75118 0.4972 0.7646 0.0
H665 H 0.77776 0.64171 0.84186 0.0
H666 H 0.79867 0.61018 0.84982 0.0
H667 H 0.82352 0.64591 0.83038 0.0
H668 H 0.86218 0.53631 0.84953 0.0
H669 H 0.9278 0.63287 0.80865 0.0
H670 H 0.76228 0.49317 0.82573 0.0
H671 H 0.76785 0.53034 0.84637 0.0
H672 H 0.78989 0.49767 0.84978 0.0
H673 H 0.83723 0.6117 0.77701 0.0
H674 H 0.89198 0.648 0.78299 0.0
H675 H 0.85306 0.65366 0.79664 0.0
C676 C 0.16342 0.71272 0.16967 0.0
C677 C 0.13913 0.69111 0.15148 0.0
C678 C 0.19933 0.75196 0.16912 0.0
C679 C 0.21073 0.77036 0.14996 0.0
C680 C 0.18547 0.74937 0.13167 0.0
C681 C 0.15012 0.70972 0.1326 0.0
C682 C 0.22575 0.77315 0.18896 0.0
C683 C 0.19618 0.76845 0.11109 0.0
C684 C 0.28889 0.88534 0.15943 0.0
C685 C 0.32632 0.88526 0.15814 0.0
C686 C 0.25059 0.84857 0.15474 0.0
C687 C 0.25003 0.81088 0.14928 0.0
C688 C 0.28796 0.81148 0.14636 0.0
C689 C 0.3258 0.84892 0.15068 0.0
C690 C 0.21085 0.84942 0.15747 0.0
C691 C 0.28874 0.77191 0.14078 0.0
H692 H 0.15517 0.69834 0.18426 0.0
H693 H 0.13121 0.69317 0.11851 0.0
H694 H 0.25754 0.77825 0.18713 0.0
H695 H 0.22888 0.80419 0.19234 0.0
H696 H 0.21247 0.75463 0.20254 0.0
H697 H 0.1715 0.74966 0.09869 0.0
H698 H 0.20101 0.80044 0.11268 0.0
H699 H 0.22577 0.77113 0.10612 0.0
H700 H 0.28954 0.91357 0.16535 0.0
H701 H 0.35489 0.84894 0.15002 0.0
H702 H 0.19756 0.8364 0.17233 0.0
H703 H 0.18734 0.82989 0.14475 0.0
H704 H 0.2163 0.88165 0.15782 0.0
H705 H 0.27984 0.75281 0.15434 0.0
H706 H 0.32009 0.77841 0.1364 0.0
H707 H 0.26589 0.753 0.12774 0.0
C708 C 0.53273 0.18419 0.49606 0.0
C709 C 0.54133 0.16364 0.47968 0.0
C710 C 0.54104 0.22509 0.49484 0.0
C711 C 0.55832 0.24592 0.47678 0.0
C712 C 0.56507 0.22463 0.45976 0.0
C713 C 0.55653 0.1837 0.46141 0.0
C714 C 0.53318 0.24671 0.51333 0.0
C715 C 0.58321 0.24568 0.44022 0.0
C716 C 0.55543 0.3459 0.47581 0.0
C717 C 0.59352 0.37418 0.48635 0.0
C718 C 0.5446 0.30424 0.47094 0.0
C719 C 0.57267 0.29106 0.47678 0.0
C720 C 0.6128 0.32068 0.48557 0.0
C721 C 0.62263 0.36193 0.49036 0.0
C722 C 0.50177 0.27369 0.46131 0.0
C723 C 0.64394 0.3081 0.49171 0.0
H724 H 0.5208 0.16886 0.51017 0.0
H725 H 0.56307 0.16797 0.44861 0.0
H726 H 0.56325 0.27293 0.5202 0.0
H727 H 0.51404 0.26007 0.50837 0.0
H728 H 0.51703 0.2253 0.52558 0.0
H729 H 0.58065 0.22312 0.42734 0.0
H730 H 0.5674 0.26229 0.43503 0.0
H731 H 0.61663 0.26929 0.44344 0.0
H732 H 0.53285 0.35547 0.47291 0.0
H733 H 0.65206 0.38401 0.49856 0.0
H734 H 0.48165 0.25472 0.47348 0.0
H735 H 0.50316 0.25196 0.44922 0.0
H736 H 0.48694 0.28979 0.45426 0.0
H737 H 0.6332 0.2894 0.50538 0.0
H738 H 0.67535 0.33557 0.49581 0.0
H739 H 0.64656 0.28834 0.47892 0.0
C740 C 0.35498 0.52689 0.85877 0.0
C741 C 0.36663 0.51116 0.84151 0.0
C742 C 0.31523 0.52198 0.85929 0.0
C743 C 0.28637 0.50075 0.84212 0.0
C744 C 0.29738 0.48352 0.82492 0.0
C745 C 0.3375 0.4889 0.82482 0.0
C746 C 0.30455 0.54056 0.87803 0.0
C747 C 0.26731 0.46061 0.80641 0.0
C748 C 0.178 0.46943 0.8576 0.0
C749 C 0.17582 0.50452 0.85293 0.0
C750 C 0.21236 0.46567 0.85233 0.0
C751 C 0.24524 0.49794 0.84231 0.0
C752 C 0.24117 0.53131 0.83572 0.0
C753 C 0.20631 0.53416 0.84109 0.0
C754 C 0.21522 0.42925 0.85931 0.0
C755 C 0.27547 0.56619 0.82486 0.0
H756 H 0.37726 0.54382 0.87177 0.0
H757 H 0.34642 0.47676 0.8114 0.0
H758 H 0.29761 0.56461 0.87326 0.0
H759 H 0.27624 0.51608 0.88484 0.0
H760 H 0.33022 0.55519 0.89028 0.0
H761 H 0.27932 0.44592 0.79515 0.0
H762 H 0.23692 0.43609 0.81153 0.0
H763 H 0.26147 0.48269 0.7983 0.0
H764 H 0.154 0.44619 0.86651 0.0
H765 H 0.20465 0.56135 0.83751 0.0
H766 H 0.23697 0.43976 0.87323 0.0
H767 H 0.22769 0.41702 0.84702 0.0
H768 H 0.18447 0.40349 0.8634 0.0
H769 H 0.30177 0.58633 0.83626 0.0
H770 H 0.26478 0.58586 0.81782 0.0
H771 H 0.28751 0.55363 0.81251 0.0
C772 C 0.82851 0.34057 0.15639 0.0
C773 C 0.86787 0.35294 0.16554 0.0
C774 C 0.79417 0.30119 0.15897 0.0
C775 C 0.79931 0.27361 0.17107 0.0
C776 C 0.83956 0.28462 0.17896 0.0
C777 C 0.87349 0.32424 0.17606 0.0
C778 C 0.75184 0.29054 0.15016 0.0
C779 C 0.84626 0.25593 0.19188 0.0
C780 C 0.70979 0.20773 0.204 0.0
C781 C 0.69163 0.16833 0.19307 0.0
C782 C 0.74476 0.24205 0.19691 0.0
C783 C 0.76206 0.23692 0.17836 0.0
C784 C 0.74354 0.19737 0.16701 0.0
C785 C 0.70827 0.1634 0.17449 0.0
C786 C 0.7632 0.28382 0.20935 0.0
C787 C 0.76122 0.19093 0.14716 0.0
H788 H 0.82407 0.36236 0.14792 0.0
H789 H 0.90388 0.33347 0.18302 0.0
H790 H 0.73476 0.25817 0.14277 0.0
H791 H 0.73313 0.29248 0.16294 0.0
H792 H 0.75409 0.31216 0.1385 0.0
H793 H 0.87979 0.26613 0.19416 0.0
H794 H 0.83356 0.25542 0.20738 0.0
H795 H 0.82944 0.22355 0.1845 0.0
H796 H 0.69642 0.21176 0.21815 0.0
H797 H 0.69423 0.13289 0.16606 0.0
H798 H 0.763 0.30719 0.1996 0.0
H799 H 0.79611 0.29513 0.21425 0.0
H800 H 0.74591 0.2824 0.22345 0.0
H801 H 0.7627 0.21279 0.13586 0.0
H802 H 0.74245 0.15853 0.13987 0.0
H803 H 0.79354 0.19792 0.15041 0.0
C804 C 0.01021 0.58154 0.10376 0.0
C805 C 0.99699 0.54171 0.11024 0.0
C806 C 0.01601 0.58923 0.08276 0.0
C807 C 0.00851 0.55629 0.0679 0.0
C808 C 0.9958 0.51617 0.07436 0.0
C809 C 0.98998 0.50929 0.09548 0.0
C810 C 0.02935 0.63237 0.07643 0.0
C811 C 0.98803 0.48044 0.05894 0.0
C812 C 0.98199 0.56251 0.01183 0.0
C813 C 0.02022 0.57565 0.00275 0.0
C814 C 0.97792 0.55661 0.03309 0.0
C815 C 0.01279 0.56354 0.0455 0.0
C816 C 0.05156 0.57714 0.03652 0.0
C817 C 0.05488 0.58329 0.01527 0.0
C818 C 0.93615 0.54244 0.0422 0.0
C819 C 0.08939 0.58475 0.0493 0.0
H820 H 0.01534 0.60668 0.11507 0.0
H821 H 0.97999 0.47852 0.10044 0.0
H822 H 0.05805 0.64431 0.06766 0.0
H823 H 0.00477 0.63105 0.06595 0.0
H824 H 0.03535 0.6549 0.09001 0.0
H825 H 0.97978 0.45158 0.06659 0.0
H826 H 0.96229 0.47363 0.0476 0.0
H827 H 0.01614 0.48913 0.05002 0.0
H828 H 0.95491 0.55589 0.00223 0.0
H829 H 0.08468 0.59407 0.00844 0.0
H830 H 0.93935 0.56472 0.05535 0.0
H831 H 0.92455 0.51165 0.04846 0.0
H832 H 0.91248 0.53976 0.03056 0.0
H833 H 0.09667 0.60868 0.06234 0.0
H834 H 0.11727 0.59531 0.03994 0.0
H835 H 0.08289 0.55569 0.05623 0.0
C836 C 0.526 0.98016 0.43022 0.0
C837 C 0.50378 0.99164 0.44378 0.0
C838 C 0.51977 0.97839 0.40861 0.0
C839 C 0.49017 0.98767 0.40046 0.0
C840 C 0.46661 0.99783 0.41407 0.0
C841 C 0.47393 1.00001 0.43558 0.0
C842 C 0.54584 0.96796 0.39453 0.0
C843 C 0.43431 0.00729 0.40592 0.0
C844 C 0.50568 0.02777 0.34697 0.0
C845 C 0.47837 0.99155 0.33438 0.0
C846 C 0.50979 0.02687 0.3685 0.0
C847 C 0.48546 0.98897 0.37771 0.0
C848 C 0.45704 0.9525 0.36522 0.0
C849 C 0.45402 0.95416 0.34365 0.0
C850 C 0.54054 0.06639 0.38134 0.0
C851 C 0.4302 0.91169 0.3746 0.0
H852 H 0.54916 0.97375 0.43647 0.0
H853 H 0.45638 0.00855 0.44599 0.0
H854 H 0.52549 0.94135 0.38315 0.0
H855 H 0.56562 0.99499 0.38554 0.0
H856 H 0.56632 0.95991 0.40331 0.0
H857 H 0.4166 0.01171 0.41854 0.0
H858 H 0.44967 0.03608 0.39758 0.0
H859 H 0.41203 0.98161 0.39459 0.0
H860 H 0.52396 0.05698 0.33999 0.0
H861 H 0.43319 0.92594 0.33401 0.0
H862 H 0.56373 0.06145 0.38969 0.0
H863 H 0.52418 0.07465 0.39326 0.0
H864 H 0.55739 0.09319 0.37172 0.0
H865 H 0.45018 0.90141 0.38201 0.0
H866 H 0.40839 0.88663 0.36285 0.0
H867 H 0.41185 0.9158 0.38695 0.0
C868 C 0.55482 0.49089 0.76026 0.0
C869 C 0.52909 0.50676 0.76611 0.0
C870 C 0.56533 0.48963 0.73955 0.0
C871 C 0.54939 0.50431 0.7243 0.0
C872 C 0.52245 0.51931 0.72997 0.0
C873 C 0.51262 0.52036 0.75082 0.0
C874 C 0.59403 0.47326 0.73407 0.0
C875 C 0.50471 0.53509 0.71411 0.0
C876 C 0.6073 0.5423 0.6752 0.0
C877 C 0.58316 0.50841 0.66065 0.0
C878 C 0.59707 0.54105 0.69606 0.0
C879 C 0.56175 0.5051 0.70248 0.0
C880 C 0.53765 0.47051 0.68794 0.0
C881 C 0.5487 0.47256 0.66718 0.0
C882 C 0.62368 0.57845 0.71117 0.0
C883 C 0.49966 0.43174 0.6942 0.0
H884 H 0.5669 0.47957 0.7719 0.0
H885 H 0.49263 0.53262 0.75518 0.0
H886 H 0.57884 0.4472 0.72174 0.0
H887 H 0.62279 0.49819 0.72779 0.0
H888 H 0.60293 0.46208 0.74769 0.0
H889 H 0.48301 0.54428 0.72091 0.0
H890 H 0.53037 0.56251 0.70735 0.0
H891 H 0.48784 0.51071 0.70116 0.0
H892 H 0.63422 0.56987 0.67023 0.0
H893 H 0.52963 0.4465 0.65591 0.0
H894 H 0.63527 0.56898 0.72447 0.0
H895 H 0.60471 0.59145 0.71754 0.0
H896 H 0.65081 0.60345 0.70382 0.0
H897 H 0.50806 0.41916 0.70736 0.0
H898 H 0.48523 0.40695 0.68119 0.0
H899 H 0.47611 0.43958 0.69961 0.0
C900 C 0.51982 0.0388 0.5739 0.0
C901 C 0.54107 0.02294 0.56232 0.0
C902 C 0.52291 0.04233 0.59569 0.0
C903 C 0.54841 0.03034 0.60612 0.0
C904 C 0.57048 0.01496 0.59454 0.0
C905 C 0.56628 0.01111 0.57276 0.0
C906 C 0.49843 0.05831 0.60755 0.0
C907 C 0.59849 0.00252 0.60515 0.0
C908 C 0.58279 0.07394 0.66218 0.0
C909 C 0.55539 0.03986 0.67294 0.0
C910 C 0.58146 0.07102 0.64038 0.0
C911 C 0.55146 0.03338 0.62919 0.0
C912 C 0.52377 0.99884 0.64002 0.0
C913 C 0.52635 0.0024 0.66182 0.0
C914 C 0.61199 0.10822 0.62935 0.0
C915 C 0.4909 0.95844 0.62861 0.0
H916 H 0.50013 0.04781 0.56594 0.0
H917 H 0.583 0.99907 0.56391 0.0
H918 H 0.47695 0.03445 0.6177 0.0
H919 H 0.51984 0.08657 0.61779 0.0
H920 H 0.4799 0.06615 0.59709 0.0
H921 H 0.61454 0.99241 0.59387 0.0
H922 H 0.62234 0.02911 0.61555 0.0
H923 H 0.58 0.97662 0.615 0.0
H924 H 0.60544 0.10279 0.67085 0.0
H925 H 0.50495 0.9762 0.67021 0.0
H926 H 0.59497 0.11916 0.6198 0.0
H927 H 0.62964 0.09921 0.61861 0.0
H928 H 0.63447 0.13456 0.64035 0.0
H929 H 0.46984 0.96423 0.61887 0.0
H930 H 0.4719 0.93452 0.63937 0.0
H931 H 0.50569 0.9457 0.61802 0.0
C932 C 0.47724 0.5104 0.87906 0.0
C933 C 0.51928 0.53094 0.87433 0.0
C934 C 0.46546 0.51438 0.89925 0.0
C935 C 0.4966 0.53906 0.91506 0.0
C936 C 0.53883 0.56217 0.91 0.0
C937 C 0.54968 0.55771 0.88968 0.0
C938 C 0.42005 0.48949 0.90391 0.0
C939 C 0.57294 0.58921 0.92637 0.0
C940 C 0.47041 0.56333 0.96897 0.0
C941 C 0.47421 0.53439 0.98027 0.0
C942 C 0.47642 0.56461 0.94753 0.0
C943 C 0.48613 0.53609 0.93725 0.0
C944 C 0.48831 0.50577 0.94849 0.0
C945 C 0.48247 0.50541 0.96987 0.0
C946 C 0.47384 0.59732 0.93603 0.0
C947 C 0.49796 0.47436 0.93805 0.0
H948 H 0.45367 0.48913 0.86733 0.0
H949 H 0.58222 0.5737 0.88605 0.0
H950 H 0.41436 0.46156 0.91175 0.0
H951 H 0.41127 0.50802 0.91456 0.0
H952 H 0.39944 0.47889 0.88952 0.0
H953 H 0.60322 0.60921 0.91946 0.0
H954 H 0.5645 0.60946 0.93587 0.0
H955 H 0.57697 0.5691 0.937 0.0
H956 H 0.46417 0.58586 0.97704 0.0
H957 H 0.48474 0.48259 0.97854 0.0
H958 H 0.45287 0.58276 0.92185 0.0
H959 H 0.50512 0.61989 0.93091 0.0
H960 H 0.46241 0.6147 0.94582 0.0
H961 H 0.47574 0.45705 0.92454 0.0
H962 H 0.49637 0.45152 0.94879 0.0
H963 H 0.52968 0.49075 0.9321 0.0
C964 C 0.95518 0.50122 0.23553 0.0
C965 C 0.9929 0.52353 0.22584 0.0
C966 C 0.95462 0.49825 0.2571 0.0
C967 C 0.9927 0.51749 0.26915 0.0
C968 C 0.03088 0.53924 0.25939 0.0
C969 C 0.0305 0.54228 0.23787 0.0
C970 C 0.91332 0.47528 0.26704 0.0
C971 C 0.07215 0.55962 0.2717 0.0
C972 C 0.99788 0.54969 0.32646 0.0
C973 C 1.0001 0.51776 0.33562 0.0
C974 C 0.99388 0.54914 0.30481 0.0
C975 C 0.99282 0.51621 0.29208 0.0
C976 C 0.99412 0.48337 0.3013 0.0
C977 C 0.99741 0.48438 0.32303 0.0
C978 C 0.99185 0.58433 0.29556 0.0
C979 C 0.99365 0.44806 0.2882 0.0
H980 H 0.926 0.48674 0.22632 0.0
H981 H 0.05978 0.55919 0.23046 0.0
H982 H 0.91205 0.45019 0.27592 0.0
H983 H 0.90986 0.49705 0.27825 0.0
H984 H 0.88653 0.4612 0.25541 0.0
H985 H 0.09906 0.57362 0.26162 0.0
H986 H 0.07452 0.58449 0.28303 0.0
H987 H 0.07439 0.53637 0.28071 0.0
H988 H 0.99957 0.57528 0.33627 0.0
H989 H 0.99946 0.45987 0.33018 0.0
H990 H 0.96435 0.57167 0.28449 0.0
H991 H 0.01992 0.60247 0.28669 0.0
H992 H 0.99001 0.6059 0.30762 0.0
H993 H 0.96636 0.43315 0.27692 0.0
H994 H 0.99265 0.42386 0.29777 0.0
H995 H 0.02197 0.46049 0.2791 0.0
loop_
_geom_bond_atom_site_label_1
_geom_bond_atom_site_label_2
_geom_bond_distance
_geom_bond_site_symmetry_2
_ccdc_geom_bond_type
Zn0 O6 1.969 . S
Zn0 O7 1.965 . S
Zn0 O11 2.024 . S
Zn0 O16 1.969 . S
Zn1 O8 1.969 . S
Zn1 O14 1.969 . S
Zn1 O15 1.965 . S
Zn1 O17 2.024 . S
C2 O3 1.229 . S
C2 O11 1.058 . S
O3 C2 1.229 . S
C4 O5 1.229 . S
C4 O17 1.058 . S
O5 C4 1.229 . S
O6 Zn0 1.969 . S
O6 C9 1.267 . S
O7 Zn0 1.965 . S
O7 C18 1.260 1_455 S
O8 Zn1 1.969 . S
O8 C18 1.258 . S
C9 O6 1.267 . S
C9 O10 1.228 . S
O10 C9 1.228 . S
O11 Zn0 2.024 . S
O11 C2 1.058 . S
C12 O13 1.228 . S
C12 O14 1.267 . S
O13 C12 1.228 . S
O14 Zn1 1.969 . S
O14 C12 1.267 . S
O15 Zn1 1.965 . S
O15 C19 1.260 1_655 S
O16 Zn0 1.969 . S
O16 C19 1.258 . S
O17 Zn1 2.024 . S
O17 C4 1.058 . S
C18 O7 1.260 1_655 S
C18 O8 1.258 . S
C19 O15 1.260 1_455 S
C19 O16 1.258 . S
Zn20 O26 1.969 . S
Zn20 O27 1.965 . S
Zn20 O31 2.024 . S
Zn20 O36 1.969 . S
Zn21 O28 1.969 . S
Zn21 O34 1.969 . S
Zn21 O35 1.965 . S
Zn21 O37 2.024 . S
C22 O23 1.229 . S
C22 O31 1.058 . S
O23 C22 1.229 . S
C24 O25 1.229 . S
C24 O37 1.058 . S
O25 C24 1.229 . S
O26 Zn20 1.969 . S
O26 C29 1.267 . S
O27 Zn20 1.965 . S
O27 C38 1.260 . S
O28 Zn21 1.969 . S
O28 C38 1.258 1_565 S
C29 O26 1.267 . S
C29 O30 1.228 . S
O30 C29 1.228 . S
O31 Zn20 2.024 . S
O31 C22 1.058 . S
C32 O33 1.228 . S
C32 O34 1.267 . S
O33 C32 1.228 . S
O34 Zn21 1.969 . S
O34 C32 1.267 . S
O35 Zn21 1.965 . S
O35 C39 1.260 1_565 S
O36 Zn20 1.969 . S
O36 C39 1.258 . S
O37 Zn21 2.024 . S
O37 C24 1.058 . S
C38 O27 1.260 . S
C38 O28 1.258 1_545 S
C39 O35 1.260 1_545 S
C39 O36 1.258 . S
Zn40 O46 1.969 . S
Zn40 O47 1.965 . S
Zn40 O51 2.024 . S
Zn40 O56 1.969 . S
Zn41 O48 1.969 . S
Zn41 O54 1.969 . S
Zn41 O55 1.965 . S
Zn41 O57 2.024 . S
C42 O43 1.229 . S
C42 O51 1.058 . S
O43 C42 1.229 . S
C44 O45 1.229 . S
C44 O57 1.058 . S
O45 C44 1.229 . S
O46 Zn40 1.969 . S
O46 C49 1.267 . S
O47 Zn40 1.965 . S
O47 C58 1.260 . S
O48 Zn41 1.969 . S
O48 C58 1.258 . S
C49 O46 1.267 . S
C49 O50 1.228 . S
O50 C49 1.228 . S
O51 Zn40 2.024 . S
O51 C42 1.058 . S
C52 O53 1.228 . S
C52 O54 1.267 . S
O53 C52 1.228 . S
O54 Zn41 1.969 . S
O54 C52 1.267 . S
O55 Zn41 1.965 . S
O55 C59 1.260 . S
O56 Zn40 1.969 . S
O56 C59 1.258 . S
O57 Zn41 2.024 . S
O57 C44 1.058 . S
C58 O47 1.260 . S
C58 O48 1.258 . S
C59 O55 1.260 . S
C59 O56 1.258 . S
C60 C61 1.391 . S
C60 C64 1.391 . S
C60 H102 0.948 . S
C61 C60 1.391 . S
C61 C62 1.391 . S
C62 C61 1.391 . S
C62 H118 0.947 . S
C62 C119 1.392 . S
C63 C64 1.391 . S
C63 C67 1.397 . S
C63 C119 1.419 . S
C64 C60 1.391 . S
C64 C63 1.391 . S
C64 C65 1.399 . S
C65 C64 1.399 . S
C65 C68 1.396 . S
C65 C77 1.453 . S
C65 C78 1.684 . S
H66 C90 0.948 . S
C67 C63 1.397 . S
C67 C68 1.394 . S
C67 C86 1.723 . S
C68 C65 1.396 . S
C68 C67 1.394 . S
C68 C98 1.733 . S
H69 C92 0.947 . S
H70 C93 0.948 . S
H71 C99 0.982 . S
H72 C100 0.979 . S
H73 C100 0.980 . S
H74 C100 0.983 . S
H75 C99 0.979 . S
H76 C99 0.977 . S
C77 C65 1.453 . S
C77 H106 0.982 . S
C77 H107 0.979 . S
C77 H108 0.977 . S
C78 C65 1.684 . S
C78 H103 0.979 . S
C78 H104 0.980 . S
C78 H105 0.983 . S
C79 C80 1.391 . S
C79 C84 1.391 . S
C79 H109 0.948 . S
C80 C79 1.391 . S
C80 C81 1.391 1_545 S
C81 C80 1.391 1_565 S
C81 C82 1.392 . S
C81 H110 0.947 . S
C82 C81 1.392 . S
C82 C83 1.419 1_565 S
C82 H111 0.948 . S
C83 C82 1.419 1_545 S
C83 C84 1.391 . S
C83 C87 1.397 . S
C84 C79 1.391 . S
C84 C83 1.391 . S
C84 C85 1.399 . S
C85 C84 1.399 . S
C85 C86 1.396 . S
C85 C88 1.453 . S
C85 C89 1.684 . S
C86 C67 1.723 . S
C86 C85 1.396 . S
C86 C87 1.394 . S
C87 C83 1.397 . S
C87 C86 1.394 . S
C87 C97 1.723 1_545 S
C88 C85 1.453 . S
C88 H112 0.982 . S
C88 H113 0.979 . S
C88 H114 0.977 . S
C89 C85 1.684 . S
C89 H115 0.979 . S
C89 H116 0.980 . S
C89 H117 0.983 . S
C90 H66 0.948 . S
C90 C91 1.391 . S
C90 C95 1.391 . S
C91 C90 1.391 . S
C91 C92 1.391 . S
C92 H69 0.947 . S
C92 C91 1.391 . S
C92 C93 1.392 . S
C93 H70 0.948 . S
C93 C92 1.392 . S
C93 C94 1.419 . S
C94 C93 1.419 . S
C94 C95 1.391 . S
C94 C98 1.391 1_565 S
C95 C90 1.391 . S
C95 C94 1.391 . S
C95 C96 1.399 . S
C96 C95 1.399 . S
C96 C97 1.396 . S
C96 C99 1.453 . S
C96 C100 1.684 . S
C97 C87 1.723 1_565 S
C97 C96 1.396 . S
C97 C98 1.388 1_565 S
C98 C68 1.733 . S
C98 C94 1.391 1_545 S
C98 C97 1.388 1_545 S
C99 H71 0.982 . S
C99 H75 0.979 . S
C99 H76 0.977 . S
C99 C96 1.453 . S
C100 H72 0.979 . S
C100 H73 0.980 . S
C100 H74 0.983 . S
C100 C96 1.684 . S
H101 C119 0.948 . S
H102 C60 0.948 . S
H103 C78 0.979 . S
H104 C78 0.980 . S
H105 C78 0.983 . S
H106 C77 0.982 . S
H107 C77 0.979 . S
H108 C77 0.977 . S
H109 C79 0.948 . S
H110 C81 0.947 . S
H111 C82 0.948 . S
H112 C88 0.982 . S
H113 C88 0.979 . S
H114 C88 0.977 . S
H115 C89 0.979 . S
H116 C89 0.980 . S
H117 C89 0.983 . S
H118 C62 0.947 . S
C119 C62 1.392 . S
C119 C63 1.419 . S
C119 H101 0.948 . S
C120 C121 1.391 . S
C120 C124 1.391 . S
C120 H162 0.948 . S
C121 C120 1.391 . S
C121 C122 1.391 . S
C122 C121 1.391 . S
C122 H178 0.947 . S
C122 C179 1.392 . S
C123 C124 1.391 . S
C123 C127 1.397 . S
C123 C179 1.419 . S
C124 C120 1.391 . S
C124 C123 1.391 . S
C124 C125 1.399 . S
C125 C124 1.399 . S
C125 C128 1.396 . S
C125 C137 1.453 . S
C125 C138 1.684 . S
H126 C150 0.948 . S
C127 C123 1.397 . S
C127 C128 1.394 . S
C127 C146 1.723 . S
C128 C125 1.396 . S
C128 C127 1.394 . S
C128 C158 1.723 . S
H129 C152 0.947 . S
H130 C153 0.948 . S
H131 C159 0.982 . S
H132 C160 0.979 . S
H133 C160 0.980 . S
H134 C160 0.983 . S
H135 C159 0.979 . S
H136 C159 0.977 . S
C137 C125 1.453 . S
C137 H166 0.982 . S
C137 H167 0.979 . S
C137 H168 0.977 . S
C138 C125 1.684 . S
C138 H163 0.979 . S
C138 H164 0.980 . S
C138 H165 0.983 . S
C139 C140 1.391 . S
C139 C144 1.391 . S
C139 H169 0.948 . S
C140 C139 1.391 . S
C140 C141 1.391 . S
C141 C140 1.391 . S
C141 C142 1.392 . S
C141 H170 0.947 . S
C142 C141 1.392 . S
C142 C143 1.419 . S
C142 H171 0.948 . S
C143 C142 1.419 . S
C143 C144 1.391 . S
C143 C147 1.397 . S
C144 C139 1.391 . S
C144 C143 1.391 . S
C144 C145 1.399 . S
C145 C144 1.399 . S
C145 C146 1.396 . S
C145 C148 1.453 . S
C145 C149 1.684 . S
C146 C127 1.723 . S
C146 C145 1.396 . S
C146 C147 1.394 . S
C147 C143 1.397 . S
C147 C146 1.394 . S
C147 C157 1.723 . S
C148 C145 1.453 . S
C148 H172 0.982 . S
C148 H173 0.979 . S
C148 H174 0.977 . S
C149 C145 1.684 . S
C149 H175 0.979 . S
C149 H176 0.980 . S
C149 H177 0.983 . S
C150 H126 0.948 . S
C150 C151 1.391 . S
C150 C155 1.391 . S
C151 C150 1.391 . S
C151 C152 1.391 . S
C152 H129 0.947 . S
C152 C151 1.391 . S
C152 C153 1.392 . S
C153 H130 0.948 . S
C153 C152 1.392 . S
C153 C154 1.419 . S
C154 C153 1.419 . S
C154 C155 1.391 . S
C154 C158 1.397 . S
C155 C150 1.391 . S
C155 C154 1.391 . S
C155 C156 1.399 . S
C156 C155 1.399 . S
C156 C157 1.396 . S
C156 C159 1.453 . S
C156 C160 1.684 . S
C157 C147 1.723 . S
C157 C156 1.396 . S
C157 C158 1.394 . S
C158 C128 1.723 . S
C158 C154 1.397 . S
C158 C157 1.394 . S
C159 H131 0.982 . S
C159 H135 0.979 . S
C159 H136 0.977 . S
C159 C156 1.453 . S
C160 H132 0.979 . S
C160 H133 0.980 . S
C160 H134 0.983 . S
C160 C156 1.684 . S
H161 C179 0.948 . S
H162 C120 0.948 . S
H163 C138 0.979 . S
H164 C138 0.980 . S
H165 C138 0.983 . S
H166 C137 0.982 . S
H167 C137 0.979 . S
H168 C137 0.977 . S
H169 C139 0.948 . S
H170 C141 0.947 . S
H171 C142 0.948 . S
H172 C148 0.982 . S
H173 C148 0.979 . S
H174 C148 0.977 . S
H175 C149 0.979 . S
H176 C149 0.980 . S
H177 C149 0.983 . S
H178 C122 0.947 . S
C179 C122 1.392 . S
C179 C123 1.419 . S
C179 H161 0.948 . S
C180 C181 1.391 . S
C180 C184 1.391 . S
C180 H222 0.948 . S
C181 C180 1.391 . S
C181 C182 1.391 . S
C182 C181 1.391 . S
C182 H238 0.947 . S
C182 C239 1.392 . S
C183 C184 1.391 . S
C183 C187 1.397 . S
C183 C239 1.419 . S
C184 C180 1.391 . S
C184 C183 1.391 . S
C184 C185 1.399 . S
C185 C184 1.399 . S
C185 C188 1.396 . S
C185 C197 1.453 . S
C185 C198 1.684 . S
H186 C210 0.948 . S
C187 C183 1.397 . S
C187 C188 1.394 . S
C187 C206 1.723 . S
C188 C185 1.396 . S
C188 C187 1.394 . S
C188 C218 1.723 . S
H189 C212 0.947 . S
H190 C213 0.948 . S
H191 C219 0.982 . S
H192 C220 0.979 . S
H193 C220 0.980 . S
H194 C220 0.983 . S
H195 C219 0.979 . S
H196 C219 0.977 . S
C197 C185 1.453 . S
C197 H226 0.982 . S
C197 H227 0.979 . S
C197 H228 0.977 . S
C198 C185 1.684 . S
C198 H223 0.979 . S
C198 H224 0.980 . S
C198 H225 0.983 . S
C199 C200 1.391 . S
C199 C204 1.391 . S
C199 H229 0.948 . S
C200 C199 1.391 . S
C200 C201 1.391 1_455 S
C201 C200 1.391 1_655 S
C201 C202 1.392 . S
C201 H230 0.947 . S
C202 C201 1.392 . S
C202 C203 1.419 1_655 S
C202 H231 0.948 . S
C203 C202 1.419 1_455 S
C203 C204 1.391 . S
C203 C207 1.397 . S
C204 C199 1.391 . S
C204 C203 1.391 . S
C204 C205 1.399 . S
C205 C204 1.399 . S
C205 C206 1.396 . S
C205 C208 1.453 . S
C205 C209 1.684 . S
C206 C187 1.723 . S
C206 C205 1.396 . S
C206 C207 1.394 . S
C207 C203 1.397 . S
C207 C206 1.394 . S
C207 C217 1.723 1_455 S
C208 C205 1.453 . S
C208 H232 0.982 . S
C208 H233 0.979 . S
C208 H234 0.977 . S
C209 C205 1.684 . S
C209 H235 0.979 . S
C209 H236 0.980 . S
C209 H237 0.983 . S
C210 H186 0.948 . S
C210 C211 1.391 . S
C210 C215 1.391 . S
C211 C210 1.391 . S
C211 C212 1.391 . S
C212 H189 0.947 . S
C212 C211 1.391 . S
C212 C213 1.392 . S
C213 H190 0.948 . S
C213 C212 1.392 . S
C213 C214 1.419 . S
C214 C213 1.419 . S
C214 C215 1.391 . S
C214 C218 1.397 1_655 S
C215 C210 1.391 . S
C215 C214 1.391 . S
C215 C216 1.399 . S
C216 C215 1.399 . S
C216 C217 1.396 . S
C216 C219 1.453 . S
C216 C220 1.684 . S
C217 C207 1.723 1_655 S
C217 C216 1.396 . S
C217 C218 1.394 1_655 S
C218 C188 1.723 . S
C218 C214 1.397 1_455 S
C218 C217 1.394 1_455 S
C219 H191 0.982 . S
C219 H195 0.979 . S
C219 H196 0.977 . S
C219 C216 1.453 . S
C220 H192 0.979 . S
C220 H193 0.980 . S
C220 H194 0.983 . S
C220 C216 1.684 . S
H221 C239 0.948 . S
H222 C180 0.948 . S
H223 C198 0.979 . S
H224 C198 0.980 . S
H225 C198 0.983 . S
H226 C197 0.982 . S
H227 C197 0.979 . S
H228 C197 0.977 . S
H229 C199 0.948 . S
H230 C201 0.947 . S
H231 C202 0.948 . S
H232 C208 0.982 . S
H233 C208 0.979 . S
H234 C208 0.977 . S
H235 C209 0.979 . S
H236 C209 0.980 . S
H237 C209 0.983 . S
H238 C182 0.947 . S
C239 C182 1.392 . S
C239 C183 1.419 . S
C239 H221 0.948 . S
C240 C241 1.391 . S
C240 C244 1.391 . S
C240 H282 0.948 . S
C241 C240 1.391 . S
C241 C242 1.391 . S
C242 C241 1.391 . S
C242 H298 0.947 . S
C242 C299 1.392 . S
C243 C244 1.391 . S
C243 C247 1.397 . S
C243 C299 1.419 . S
C244 C240 1.391 . S
C244 C243 1.391 . S
C244 C245 1.399 . S
C245 C244 1.399 . S
C245 C248 1.396 1_655 S
C245 C257 1.453 1_655 S
C245 C258 1.684 . S
H246 C270 0.948 . S
C247 C243 1.397 . S
C247 C248 1.394 1_655 S
C247 C266 1.723 . S
C248 C245 1.396 1_455 S
C248 C247 1.394 1_455 S
C248 C278 1.723 . S
H249 C272 0.947 . S
H250 C273 0.948 . S
H251 C279 0.982 . S
H252 C280 0.979 . S
H253 C280 0.980 . S
H254 C280 0.983 . S
H255 C279 0.979 . S
H256 C279 0.977 . S
C257 C245 1.453 1_455 S
C257 H286 0.982 . S
C257 H287 0.979 . S
C257 H288 0.977 . S
C258 C245 1.684 . S
C258 H283 0.979 . S
C258 H284 0.980 1_655 S
C258 H285 0.983 . S
C259 C260 1.391 1_655 S
C259 C264 1.391 . S
C259 H289 0.948 . S
C260 C259 1.391 1_455 S
C260 C261 1.391 . S
C261 C260 1.391 . S
C261 C262 1.392 . S
C261 H290 0.947 . S
C262 C261 1.392 . S
C262 C263 1.419 . S
C262 H291 0.948 . S
C263 C262 1.419 . S
C263 C264 1.391 1_455 S
C263 C267 1.397 . S
C264 C259 1.391 . S
C264 C263 1.391 1_655 S
C264 C265 1.399 . S
C265 C264 1.399 . S
C265 C266 1.396 . S
C265 C268 1.453 . S
C265 C269 1.684 . S
C266 C247 1.723 . S
C266 C265 1.396 . S
C266 C267 1.394 1_655 S
C267 C263 1.397 . S
C267 C266 1.394 1_455 S
C267 C277 1.723 . S
C268 C265 1.453 . S
C268 H292 0.982 . S
C268 H293 0.979 . S
C268 H294 0.977 . S
C269 C265 1.684 . S
C269 H295 0.979 . S
C269 H296 0.980 . S
C269 H297 0.983 . S
C270 H246 0.948 . S
C270 C271 1.391 . S
C270 C275 1.391 . S
C271 C270 1.391 . S
C271 C272 1.391 . S
C272 H249 0.947 . S
C272 C271 1.391 . S
C272 C273 1.392 . S
C273 H250 0.948 . S
C273 C272 1.392 . S
C273 C274 1.419 . S
C274 C273 1.419 . S
C274 C275 1.391 . S
C274 C278 1.397 . S
C275 C270 1.391 . S
C275 C274 1.391 . S
C275 C276 1.399 . S
C276 C275 1.399 . S
C276 C277 1.396 . S
C276 C279 1.453 . S
C276 C280 1.684 . S
C277 C267 1.723 . S
C277 C276 1.396 . S
C277 C278 1.394 . S
C278 C248 1.723 . S
C278 C274 1.397 . S
C278 C277 1.394 . S
C279 H251 0.982 . S
C279 H255 0.979 . S
C279 H256 0.977 . S
C279 C276 1.453 . S
C280 H252 0.979 . S
C280 H253 0.980 . S
C280 H254 0.983 . S
C280 C276 1.684 . S
H281 C299 0.948 . S
H282 C240 0.948 . S
H283 C258 0.979 . S
H284 C258 0.980 1_455 S
H285 C258 0.983 . S
H286 C257 0.982 . S
H287 C257 0.979 . S
H288 C257 0.977 . S
H289 C259 0.948 . S
H290 C261 0.947 . S
H291 C262 0.948 . S
H292 C268 0.982 . S
H293 C268 0.979 . S
H294 C268 0.977 . S
H295 C269 0.979 . S
H296 C269 0.980 . S
H297 C269 0.983 . S
H298 C242 0.947 . S
C299 C242 1.392 . S
C299 C243 1.419 . S
C299 H281 0.948 . S
C300 C301 1.391 . S
C300 C304 1.391 . S
C300 H342 0.948 . S
C301 C300 1.391 . S
C301 C302 1.391 . S
C302 C301 1.391 . S
C302 H358 0.947 . S
C302 C359 1.392 . S
C303 C304 1.391 . S
C303 C307 1.397 . S
C303 C359 1.419 . S
C304 C300 1.391 . S
C304 C303 1.391 . S
C304 C305 1.399 . S
C305 C304 1.399 . S
C305 C308 1.396 1_565 S
C305 C317 1.453 1_565 S
C305 C318 1.684 . S
H306 C330 0.948 . S
C307 C303 1.397 . S
C307 C308 1.394 1_565 S
C307 C326 1.723 . S
C308 C305 1.396 1_545 S
C308 C307 1.394 1_545 S
C308 C338 1.723 . S
H309 C332 0.947 . S
H310 C333 0.948 . S
H311 C339 0.982 . S
H312 C340 0.979 . S
H313 C340 0.980 . S
H314 C340 0.983 . S
H315 C339 0.979 . S
H316 C339 0.977 . S
C317 C305 1.453 1_545 S
C317 H346 0.982 . S
C317 H347 0.979 . S
C317 H348 0.977 . S
C318 C305 1.684 . S
C318 H343 0.979 . S
C318 H344 0.980 1_565 S
C318 H345 0.983 . S
C319 C320 1.391 1_565 S
C319 C324 1.391 . S
C319 H349 0.948 . S
C320 C319 1.391 1_545 S
C320 C321 1.391 . S
C321 C320 1.391 . S
C321 C322 1.392 . S
C321 H350 0.947 . S
C322 C321 1.392 . S
C322 C323 1.419 . S
C322 H351 0.948 . S
C323 C322 1.419 . S
C323 C324 1.391 1_545 S
C323 C327 1.397 . S
C324 C319 1.391 . S
C324 C323 1.391 1_565 S
C324 C325 1.399 . S
C325 C324 1.399 . S
C325 C326 1.396 . S
C325 C328 1.453 . S
C325 C329 1.684 . S
C326 C307 1.723 . S
C326 C325 1.396 . S
C326 C327 1.394 1_565 S
C327 C323 1.397 . S
C327 C326 1.394 1_545 S
C327 C337 1.723 . S
C328 C325 1.453 . S
C328 H352 0.982 . S
C328 H353 0.979 . S
C328 H354 0.977 . S
C329 C325 1.684 . S
C329 H355 0.979 . S
C329 H356 0.980 . S
C329 H357 0.983 . S
C330 H306 0.948 . S
C330 C331 1.391 . S
C330 C335 1.391 . S
C331 C330 1.391 . S
C331 C332 1.391 . S
C332 H309 0.947 . S
C332 C331 1.391 . S
C332 C333 1.392 . S
C333 H310 0.948 . S
C333 C332 1.392 . S
C333 C334 1.419 . S
C334 C333 1.419 . S
C334 C335 1.391 . S
C334 C338 1.397 . S
C335 C330 1.391 . S
C335 C334 1.391 . S
C335 C336 1.399 . S
C336 C335 1.399 . S
C336 C337 1.396 . S
C336 C339 1.453 . S
C336 C340 1.684 . S
C337 C327 1.723 . S
C337 C336 1.396 . S
C337 C338 1.394 . S
C338 C308 1.723 . S
C338 C334 1.397 . S
C338 C337 1.394 . S
C339 H311 0.982 . S
C339 H315 0.979 . S
C339 H316 0.977 . S
C339 C336 1.453 . S
C340 H312 0.979 . S
C340 H313 0.980 . S
C340 H314 0.983 . S
C340 C336 1.684 . S
H341 C359 0.948 . S
H342 C300 0.948 . S
H343 C318 0.979 . S
H344 C318 0.980 1_545 S
H345 C318 0.983 . S
H346 C317 0.982 . S
H347 C317 0.979 . S
H348 C317 0.977 . S
H349 C319 0.948 . S
H350 C321 0.947 . S
H351 C322 0.948 . S
H352 C328 0.982 . S
H353 C328 0.979 . S
H354 C328 0.977 . S
H355 C329 0.979 . S
H356 C329 0.980 . S
H357 C329 0.983 . S
H358 C302 0.947 . S
C359 C302 1.392 . S
C359 C303 1.419 . S
C359 H341 0.948 . S
C360 C361 1.391 . S
C360 C364 1.391 . S
C360 H402 0.948 . S
C361 C360 1.391 . S
C361 C362 1.391 . S
C362 C361 1.391 . S
C362 H418 0.947 . S
C362 C419 1.392 . S
C363 C364 1.391 . S
C363 C367 1.397 . S
C363 C419 1.419 . S
C364 C360 1.391 . S
C364 C363 1.391 . S
C364 C365 1.399 . S
C365 C364 1.399 . S
C365 C368 1.396 . S
C365 C377 1.453 . S
C365 C378 1.684 . S
H366 C390 0.948 . S
C367 C363 1.397 . S
C367 C368 1.394 . S
C367 C386 1.723 . S
C368 C365 1.396 . S
C368 C367 1.394 . S
C368 C398 1.723 . S
H369 C392 0.947 . S
H370 C393 0.948 . S
H371 C399 0.982 . S
H372 C400 0.979 . S
H373 C400 0.980 . S
H374 C400 0.983 . S
H375 C399 0.979 . S
H376 C399 0.977 . S
C377 C365 1.453 . S
C377 H406 0.982 . S
C377 H407 0.979 . S
C377 H408 0.977 . S
C378 C365 1.684 . S
C378 H403 0.979 . S
C378 H404 0.980 . S
C378 H405 0.983 . S
C379 C380 1.391 . S
C379 C384 1.391 . S
C379 H409 0.948 . S
C380 C379 1.391 . S
C380 C381 1.391 . S
C381 C380 1.391 . S
C381 C382 1.392 . S
C381 H410 0.947 . S
C382 C381 1.392 . S
C382 C383 1.419 . S
C382 H411 0.948 . S
C383 C382 1.419 . S
C383 C384 1.391 . S
C383 C387 1.397 . S
C384 C379 1.391 . S
C384 C383 1.391 . S
C384 C385 1.399 . S
C385 C384 1.399 . S
C385 C386 1.396 . S
C385 C388 1.453 . S
C385 C389 1.684 . S
C386 C367 1.723 . S
C386 C385 1.396 . S
C386 C387 1.394 . S
C387 C383 1.397 . S
C387 C386 1.394 . S
C387 C397 1.723 . S
C388 C385 1.453 . S
C388 H412 0.982 . S
C388 H413 0.979 . S
C388 H414 0.977 . S
C389 C385 1.684 . S
C389 H415 0.979 . S
C389 H416 0.980 . S
C389 H417 0.983 . S
C390 H366 0.948 . S
C390 C391 1.391 . S
C390 C395 1.391 . S
C391 C390 1.391 . S
C391 C392 1.391 . S
C392 H369 0.947 . S
C392 C391 1.391 . S
C392 C393 1.392 . S
C393 H370 0.948 . S
C393 C392 1.392 . S
C393 C394 1.419 . S
C394 C393 1.419 . S
C394 C395 1.391 . S
C394 C398 1.397 . S
C395 C390 1.391 . S
C395 C394 1.391 . S
C395 C396 1.399 . S
C396 C395 1.399 . S
C396 C397 1.396 . S
C396 C399 1.453 . S
C396 C400 1.684 . S
C397 C387 1.723 . S
C397 C396 1.396 . S
C397 C398 1.394 . S
C398 C368 1.723 . S
C398 C394 1.397 . S
C398 C397 1.394 . S
C399 H371 0.982 . S
C399 H375 0.979 . S
C399 H376 0.977 . S
C399 C396 1.453 . S
C400 H372 0.979 . S
C400 H373 0.980 . S
C400 H374 0.983 . S
C400 C396 1.684 . S
H401 C419 0.948 . S
H402 C360 0.948 . S
H403 C378 0.979 . S
H404 C378 0.980 . S
H405 C378 0.983 . S
H406 C377 0.982 . S
H407 C377 0.979 . S
H408 C377 0.977 . S
H409 C379 0.948 . S
H410 C381 0.947 . S
H411 C382 0.948 . S
H412 C388 0.982 . S
H413 C388 0.979 . S
H414 C388 0.977 . S
H415 C389 0.979 . S
H416 C389 0.980 . S
H417 C389 0.983 . S
H418 C362 0.947 . S
C419 C362 1.392 . S
C419 C363 1.419 . S
C419 H401 0.948 . S
C420 C421 1.391 . S
C420 C422 1.394 . S
C420 H436 0.931 . S
C421 C420 1.391 . S
C421 C425 1.376 . S
C422 C420 1.394 . S
C422 C423 1.369 . S
C422 C426 1.531 . S
C423 C422 1.369 . S
C423 C424 1.410 . S
C423 C431 1.503 . S
C424 C423 1.410 . S
C424 C425 1.392 . S
C424 C427 1.511 . S
C425 C421 1.376 . S
C425 C424 1.392 . S
C425 H437 0.929 . S
C426 C422 1.531 . S
C426 H438 0.960 . S
C426 H439 0.962 . S
C426 H440 0.960 . S
C427 C424 1.511 . S
C427 H441 0.961 . S
C427 H442 0.961 . S
C427 H443 0.961 . S
C428 C429 1.370 . S
C428 C430 1.363 . S
C428 H444 0.931 . S
C429 C428 1.370 . S
C429 C433 1.408 . S
C430 C428 1.363 . S
C430 C431 1.370 . S
C430 C434 1.524 . S
C431 C423 1.503 . S
C431 C430 1.370 . S
C431 C432 1.403 . S
C432 C431 1.403 . S
C432 C433 1.404 . S
C432 C435 1.539 . S
C433 C429 1.408 . S
C433 C432 1.404 . S
C433 H445 0.930 . S
C434 C430 1.524 . S
C434 H446 0.956 . S
C434 H447 0.961 . S
C434 H448 0.961 . S
C435 C432 1.539 . S
C435 H449 0.958 . S
C435 H450 0.961 . S
C435 H451 0.960 . S
H436 C420 0.931 . S
H437 C425 0.929 . S
H438 C426 0.960 . S
H439 C426 0.962 . S
H440 C426 0.960 . S
H441 C427 0.961 . S
H442 C427 0.961 . S
H443 C427 0.961 . S
H444 C428 0.931 . S
H445 C433 0.930 . S
H446 C434 0.956 . S
H447 C434 0.961 . S
H448 C434 0.961 . S
H449 C435 0.958 . S
H450 C435 0.961 . S
H451 C435 0.960 . S
C452 C453 1.391 . S
C452 C454 1.394 . S
C452 H468 0.931 . S
C453 C452 1.391 . S
C453 C457 1.376 . S
C454 C452 1.394 . S
C454 C455 1.369 . S
C454 C458 1.531 . S
C455 C454 1.369 . S
C455 C456 1.410 . S
C455 C463 1.503 . S
C456 C455 1.410 . S
C456 C457 1.392 . S
C456 C459 1.511 . S
C457 C453 1.376 . S
C457 C456 1.392 . S
C457 H469 0.929 . S
C458 C454 1.531 . S
C458 H470 0.960 . S
C458 H471 0.962 . S
C458 H472 0.960 . S
C459 C456 1.511 . S
C459 H473 0.961 . S
C459 H474 0.961 . S
C459 H475 0.961 . S
C460 C461 1.370 . S
C460 C462 1.363 . S
C460 H476 0.931 . S
C461 C460 1.370 . S
C461 C465 1.408 . S
C462 C460 1.363 . S
C462 C463 1.370 . S
C462 C466 1.524 . S
C463 C455 1.503 . S
C463 C462 1.370 . S
C463 C464 1.403 . S
C464 C463 1.403 . S
C464 C465 1.404 . S
C464 C467 1.539 . S
C465 C461 1.408 . S
C465 C464 1.404 . S
C465 H477 0.930 . S
C466 C462 1.524 . S
C466 H478 0.956 . S
C466 H479 0.961 . S
C466 H480 0.961 . S
C467 C464 1.539 . S
C467 H481 0.958 . S
C467 H482 0.961 . S
C467 H483 0.960 . S
H468 C452 0.931 . S
H469 C457 0.929 . S
H470 C458 0.960 . S
H471 C458 0.962 . S
H472 C458 0.960 . S
H473 C459 0.961 . S
H474 C459 0.961 . S
H475 C459 0.961 . S
H476 C460 0.931 . S
H477 C465 0.930 . S
H478 C466 0.956 . S
H479 C466 0.961 . S
H480 C466 0.961 . S
H481 C467 0.958 . S
H482 C467 0.961 . S
H483 C467 0.960 . S
C484 C485 1.391 . S
C484 C486 1.394 . S
C484 H500 0.931 . S
C485 C484 1.391 . S
C485 C489 1.376 . S
C486 C484 1.394 . S
C486 C487 1.369 . S
C486 C490 1.531 . S
C487 C486 1.369 . S
C487 C488 1.410 . S
C487 C495 1.503 . S
C488 C487 1.410 . S
C488 C489 1.392 . S
C488 C491 1.511 . S
C489 C485 1.376 . S
C489 C488 1.392 . S
C489 H501 0.929 . S
C490 C486 1.531 . S
C490 H502 0.960 . S
C490 H503 0.962 . S
C490 H504 0.960 . S
C491 C488 1.511 . S
C491 H505 0.961 . S
C491 H506 0.961 . S
C491 H507 0.961 . S
C492 C493 1.370 . S
C492 C494 1.363 . S
C492 H508 0.931 . S
C493 C492 1.370 . S
C493 C497 1.408 . S
C494 C492 1.363 . S
C494 C495 1.370 . S
C494 C498 1.524 . S
C495 C487 1.503 . S
C495 C494 1.370 . S
C495 C496 1.403 . S
C496 C495 1.403 . S
C496 C497 1.404 . S
C496 C499 1.539 . S
C497 C493 1.408 . S
C497 C496 1.404 . S
C497 H509 0.930 . S
C498 C494 1.524 . S
C498 H510 0.956 . S
C498 H511 0.961 . S
C498 H512 0.961 . S
C499 C496 1.539 . S
C499 H513 0.958 . S
C499 H514 0.961 . S
C499 H515 0.960 . S
H500 C484 0.931 . S
H501 C489 0.929 . S
H502 C490 0.960 . S
H503 C490 0.962 . S
H504 C490 0.960 . S
H505 C491 0.961 . S
H506 C491 0.961 . S
H507 C491 0.961 . S
H508 C492 0.931 . S
H509 C497 0.930 . S
H510 C498 0.956 . S
H511 C498 0.961 . S
H512 C498 0.961 . S
H513 C499 0.958 . S
H514 C499 0.961 . S
H515 C499 0.960 . S
C516 C517 1.391 . S
C516 C518 1.394 . S
C516 H532 0.931 . S
C517 C516 1.391 . S
C517 C521 1.376 . S
C518 C516 1.394 . S
C518 C519 1.369 . S
C518 C522 1.531 . S
C519 C518 1.369 . S
C519 C520 1.410 . S
C519 C527 1.503 . S
C520 C519 1.410 . S
C520 C521 1.392 . S
C520 C523 1.511 . S
C521 C517 1.376 . S
C521 C520 1.392 . S
C521 H533 0.929 . S
C522 C518 1.531 . S
C522 H534 0.960 . S
C522 H535 0.962 . S
C522 H536 0.960 . S
C523 C520 1.511 . S
C523 H537 0.961 . S
C523 H538 0.961 . S
C523 H539 0.961 . S
C524 C525 1.370 . S
C524 C526 1.363 . S
C524 H540 0.931 . S
C525 C524 1.370 . S
C525 C529 1.408 . S
C526 C524 1.363 . S
C526 C527 1.370 . S
C526 C530 1.524 . S
C527 C519 1.503 . S
C527 C526 1.370 . S
C527 C528 1.403 . S
C528 C527 1.403 . S
C528 C529 1.404 . S
C528 C531 1.539 . S
C529 C525 1.408 . S
C529 C528 1.404 . S
C529 H541 0.930 . S
C530 C526 1.524 . S
C530 H542 0.956 . S
C530 H543 0.961 . S
C530 H544 0.961 . S
C531 C528 1.539 . S
C531 H545 0.958 . S
C531 H546 0.961 . S
C531 H547 0.960 . S
H532 C516 0.931 . S
H533 C521 0.929 . S
H534 C522 0.960 . S
H535 C522 0.962 . S
H536 C522 0.960 . S
H537 C523 0.961 . S
H538 C523 0.961 . S
H539 C523 0.961 . S
H540 C524 0.931 . S
H541 C529 0.930 . S
H542 C530 0.956 . S
H543 C530 0.961 . S
H544 C530 0.961 . S
H545 C531 0.958 . S
H546 C531 0.961 . S
H547 C531 0.960 . S
C548 C549 1.391 . S
C548 C550 1.394 . S
C548 H564 0.931 . S
C549 C548 1.391 . S
C549 C553 1.376 . S
C550 C548 1.394 . S
C550 C551 1.369 . S
C550 C554 1.531 . S
C551 C550 1.369 . S
C551 C552 1.410 . S
C551 C559 1.503 . S
C552 C551 1.410 . S
C552 C553 1.392 . S
C552 C555 1.511 . S
C553 C549 1.376 . S
C553 C552 1.392 . S
C553 H565 0.929 . S
C554 C550 1.531 . S
C554 H566 0.960 . S
C554 H567 0.962 . S
C554 H568 0.960 . S
C555 C552 1.511 . S
C555 H569 0.961 . S
C555 H570 0.961 . S
C555 H571 0.961 . S
C556 C557 1.370 . S
C556 C558 1.363 . S
C556 H572 0.931 . S
C557 C556 1.370 . S
C557 C561 1.408 . S
C558 C556 1.363 . S
C558 C559 1.370 . S
C558 C562 1.524 . S
C559 C551 1.503 . S
C559 C558 1.370 . S
C559 C560 1.403 . S
C560 C559 1.403 . S
C560 C561 1.404 . S
C560 C563 1.539 . S
C561 C557 1.408 . S
C561 C560 1.404 . S
C561 H573 0.930 . S
C562 C558 1.524 . S
C562 H574 0.956 . S
C562 H575 0.961 . S
C562 H576 0.961 . S
C563 C560 1.539 . S
C563 H577 0.958 . S
C563 H578 0.961 . S
C563 H579 0.960 . S
H564 C548 0.931 . S
H565 C553 0.929 . S
H566 C554 0.960 . S
H567 C554 0.962 . S
H568 C554 0.960 . S
H569 C555 0.961 . S
H570 C555 0.961 . S
H571 C555 0.961 . S
H572 C556 0.931 . S
H573 C561 0.930 . S
H574 C562 0.956 . S
H575 C562 0.961 . S
H576 C562 0.961 . S
H577 C563 0.958 . S
H578 C563 0.961 . S
H579 C563 0.960 . S
C580 C581 1.391 . S
C580 C582 1.394 . S
C580 H596 0.931 . S
C581 C580 1.391 . S
C581 C585 1.376 . S
C582 C580 1.394 . S
C582 C583 1.369 . S
C582 C586 1.531 . S
C583 C582 1.369 . S
C583 C584 1.410 . S
C583 C591 1.503 . S
C584 C583 1.410 . S
C584 C585 1.392 . S
C584 C587 1.511 . S
C585 C581 1.376 . S
C585 C584 1.392 . S
C585 H597 0.929 . S
C586 C582 1.531 . S
C586 H598 0.960 . S
C586 H599 0.962 . S
C586 H600 0.960 . S
C587 C584 1.511 . S
C587 H601 0.961 . S
C587 H602 0.961 . S
C587 H603 0.961 . S
C588 C589 1.370 . S
C588 C590 1.363 . S
C588 H604 0.931 . S
C589 C588 1.370 . S
C589 C593 1.408 . S
C590 C588 1.363 . S
C590 C591 1.370 . S
C590 C594 1.524 . S
C591 C583 1.503 . S
C591 C590 1.370 . S
C591 C592 1.403 . S
C592 C591 1.403 . S
C592 C593 1.404 . S
C592 C595 1.539 . S
C593 C589 1.408 . S
C593 C592 1.404 . S
C593 H605 0.930 . S
C594 C590 1.524 . S
C594 H606 0.956 . S
C594 H607 0.961 . S
C594 H608 0.961 . S
C595 C592 1.539 . S
C595 H609 0.958 . S
C595 H610 0.961 . S
C595 H611 0.960 . S
H596 C580 0.931 . S
H597 C585 0.929 . S
H598 C586 0.960 . S
H599 C586 0.962 . S
H600 C586 0.960 . S
H601 C587 0.961 . S
H602 C587 0.961 . S
H603 C587 0.961 . S
H604 C588 0.931 . S
H605 C593 0.930 . S
H606 C594 0.956 . S
H607 C594 0.961 . S
H608 C594 0.961 . S
H609 C595 0.958 . S
H610 C595 0.961 . S
H611 C595 0.960 . S
C612 C613 1.391 . S
C612 C614 1.394 . S
C612 H628 0.931 . S
C613 C612 1.391 . S
C613 C617 1.376 . S
C614 C612 1.394 . S
C614 C615 1.369 . S
C614 C618 1.531 . S
C615 C614 1.369 . S
C615 C616 1.410 . S
C615 C623 1.503 . S
C616 C615 1.410 . S
C616 C617 1.392 . S
C616 C619 1.511 . S
C617 C613 1.376 . S
C617 C616 1.392 . S
C617 H629 0.929 . S
C618 C614 1.531 . S
C618 H630 0.960 . S
C618 H631 0.962 . S
C618 H632 0.960 . S
C619 C616 1.511 . S
C619 H633 0.961 . S
C619 H634 0.961 . S
C619 H635 0.961 . S
C620 C621 1.370 . S
C620 C622 1.363 . S
C620 H636 0.931 . S
C621 C620 1.370 . S
C621 C625 1.408 . S
C622 C620 1.363 . S
C622 C623 1.370 . S
C622 C626 1.524 . S
C623 C615 1.503 . S
C623 C622 1.370 . S
C623 C624 1.403 . S
C624 C623 1.403 . S
C624 C625 1.404 . S
C624 C627 1.539 . S
C625 C621 1.408 . S
C625 C624 1.404 . S
C625 H637 0.930 . S
C626 C622 1.524 . S
C626 H638 0.956 . S
C626 H639 0.961 . S
C626 H640 0.961 . S
C627 C624 1.539 . S
C627 H641 0.958 . S
C627 H642 0.961 . S
C627 H643 0.960 . S
H628 C612 0.931 . S
H629 C617 0.929 . S
H630 C618 0.960 . S
H631 C618 0.962 . S
H632 C618 0.960 . S
H633 C619 0.961 . S
H634 C619 0.961 . S
H635 C619 0.961 . S
H636 C620 0.931 . S
H637 C625 0.930 . S
H638 C626 0.956 . S
H639 C626 0.961 . S
H640 C626 0.961 . S
H641 C627 0.958 . S
H642 C627 0.961 . S
H643 C627 0.960 . S
C644 C645 1.391 . S
C644 C646 1.394 . S
C644 H660 0.931 . S
C645 C644 1.391 . S
C645 C649 1.376 . S
C646 C644 1.394 . S
C646 C647 1.369 . S
C646 C650 1.531 . S
C647 C646 1.369 . S
C647 C648 1.410 . S
C647 C655 1.503 . S
C648 C647 1.410 . S
C648 C649 1.392 . S
C648 C651 1.511 . S
C649 C645 1.376 . S
C649 C648 1.392 . S
C649 H661 0.929 . S
C650 C646 1.531 . S
C650 H662 0.960 . S
C650 H663 0.962 . S
C650 H664 0.960 . S
C651 C648 1.511 . S
C651 H665 0.961 . S
C651 H666 0.961 . S
C651 H667 0.961 . S
C652 C653 1.370 . S
C652 C654 1.363 . S
C652 H668 0.931 . S
C653 C652 1.370 . S
C653 C657 1.408 . S
C654 C652 1.363 . S
C654 C655 1.370 . S
C654 C658 1.524 . S
C655 C647 1.503 . S
C655 C654 1.370 . S
C655 C656 1.403 . S
C656 C655 1.403 . S
C656 C657 1.404 . S
C656 C659 1.539 . S
C657 C653 1.408 . S
C657 C656 1.404 . S
C657 H669 0.930 . S
C658 C654 1.524 . S
C658 H670 0.956 . S
C658 H671 0.961 . S
C658 H672 0.961 . S
C659 C656 1.539 . S
C659 H673 0.958 . S
C659 H674 0.961 . S
C659 H675 0.960 . S
H660 C644 0.931 . S
H661 C649 0.929 . S
H662 C650 0.960 . S
H663 C650 0.962 . S
H664 C650 0.960 . S
H665 C651 0.961 . S
H666 C651 0.961 . S
H667 C651 0.961 . S
H668 C652 0.931 . S
H669 C657 0.930 . S
H670 C658 0.956 . S
H671 C658 0.961 . S
H672 C658 0.961 . S
H673 C659 0.958 . S
H674 C659 0.961 . S
H675 C659 0.960 . S
C676 C677 1.391 . S
C676 C678 1.394 . S
C676 H692 0.931 . S
C677 C676 1.391 . S
C677 C681 1.376 . S
C678 C676 1.394 . S
C678 C679 1.369 . S
C678 C682 1.531 . S
C679 C678 1.369 . S
C679 C680 1.410 . S
C679 C687 1.503 . S
C680 C679 1.410 . S
C680 C681 1.392 . S
C680 C683 1.511 . S
C681 C677 1.376 . S
C681 C680 1.392 . S
C681 H693 0.929 . S
C682 C678 1.531 . S
C682 H694 0.960 . S
C682 H695 0.962 . S
C682 H696 0.960 . S
C683 C680 1.511 . S
C683 H697 0.961 . S
C683 H698 0.961 . S
C683 H699 0.961 . S
C684 C685 1.370 . S
C684 C686 1.363 . S
C684 H700 0.931 . S
C685 C684 1.370 . S
C685 C689 1.408 . S
C686 C684 1.363 . S
C686 C687 1.370 . S
C686 C690 1.524 . S
C687 C679 1.503 . S
C687 C686 1.370 . S
C687 C688 1.403 . S
C688 C687 1.403 . S
C688 C689 1.404 . S
C688 C691 1.539 . S
C689 C685 1.408 . S
C689 C688 1.404 . S
C689 H701 0.930 . S
C690 C686 1.524 . S
C690 H702 0.956 . S
C690 H703 0.961 . S
C690 H704 0.961 . S
C691 C688 1.539 . S
C691 H705 0.958 . S
C691 H706 0.961 . S
C691 H707 0.960 . S
H692 C676 0.931 . S
H693 C681 0.929 . S
H694 C682 0.960 . S
H695 C682 0.962 . S
H696 C682 0.960 . S
H697 C683 0.961 . S
H698 C683 0.961 . S
H699 C683 0.961 . S
H700 C684 0.931 . S
H701 C689 0.930 . S
H702 C690 0.956 . S
H703 C690 0.961 . S
H704 C690 0.961 . S
H705 C691 0.958 . S
H706 C691 0.961 . S
H707 C691 0.960 . S
C708 C709 1.391 . S
C708 C710 1.394 . S
C708 H724 0.931 . S
C709 C708 1.391 . S
C709 C713 1.376 . S
C710 C708 1.394 . S
C710 C711 1.369 . S
C710 C714 1.531 . S
C711 C710 1.369 . S
C711 C712 1.410 . S
C711 C719 1.503 . S
C712 C711 1.410 . S
C712 C713 1.392 . S
C712 C715 1.511 . S
C713 C709 1.376 . S
C713 C712 1.392 . S
C713 H725 0.929 . S
C714 C710 1.531 . S
C714 H726 0.960 . S
C714 H727 0.962 . S
C714 H728 0.960 . S
C715 C712 1.511 . S
C715 H729 0.961 . S
C715 H730 0.961 . S
C715 H731 0.961 . S
C716 C717 1.370 . S
C716 C718 1.363 . S
C716 H732 0.931 . S
C717 C716 1.370 . S
C717 C721 1.408 . S
C718 C716 1.363 . S
C718 C719 1.370 . S
C718 C722 1.524 . S
C719 C711 1.503 . S
C719 C718 1.370 . S
C719 C720 1.403 . S
C720 C719 1.403 . S
C720 C721 1.404 . S
C720 C723 1.539 . S
C721 C717 1.408 . S
C721 C720 1.404 . S
C721 H733 0.930 . S
C722 C718 1.524 . S
C722 H734 0.956 . S
C722 H735 0.961 . S
C722 H736 0.961 . S
C723 C720 1.539 . S
C723 H737 0.958 . S
C723 H738 0.961 . S
C723 H739 0.960 . S
H724 C708 0.931 . S
H725 C713 0.929 . S
H726 C714 0.960 . S
H727 C714 0.962 . S
H728 C714 0.960 . S
H729 C715 0.961 . S
H730 C715 0.961 . S
H731 C715 0.961 . S
H732 C716 0.931 . S
H733 C721 0.930 . S
H734 C722 0.956 . S
H735 C722 0.961 . S
H736 C722 0.961 . S
H737 C723 0.958 . S
H738 C723 0.961 . S
H739 C723 0.960 . S
C740 C741 1.391 . S
C740 C742 1.394 . S
C740 H756 0.931 . S
C741 C740 1.391 . S
C741 C745 1.376 . S
C742 C740 1.394 . S
C742 C743 1.369 . S
C742 C746 1.531 . S
C743 C742 1.369 . S
C743 C744 1.410 . S
C743 C751 1.503 . S
C744 C743 1.410 . S
C744 C745 1.392 . S
C744 C747 1.511 . S
C745 C741 1.376 . S
C745 C744 1.392 . S
C745 H757 0.929 . S
C746 C742 1.531 . S
C746 H758 0.960 . S
C746 H759 0.962 . S
C746 H760 0.960 . S
C747 C744 1.511 . S
C747 H761 0.961 . S
C747 H762 0.961 . S
C747 H763 0.961 . S
C748 C749 1.370 . S
C748 C750 1.363 . S
C748 H764 0.931 . S
C749 C748 1.370 . S
C749 C753 1.408 . S
C750 C748 1.363 . S
C750 C751 1.370 . S
C750 C754 1.524 . S
C751 C743 1.503 . S
C751 C750 1.370 . S
C751 C752 1.403 . S
C752 C751 1.403 . S
C752 C753 1.404 . S
C752 C755 1.539 . S
C753 C749 1.408 . S
C753 C752 1.404 . S
C753 H765 0.930 . S
C754 C750 1.524 . S
C754 H766 0.956 . S
C754 H767 0.961 . S
C754 H768 0.961 . S
C755 C752 1.539 . S
C755 H769 0.958 . S
C755 H770 0.961 . S
C755 H771 0.960 . S
H756 C740 0.931 . S
H757 C745 0.929 . S
H758 C746 0.960 . S
H759 C746 0.962 . S
H760 C746 0.960 . S
H761 C747 0.961 . S
H762 C747 0.961 . S
H763 C747 0.961 . S
H764 C748 0.931 . S
H765 C753 0.930 . S
H766 C754 0.956 . S
H767 C754 0.961 . S
H768 C754 0.961 . S
H769 C755 0.958 . S
H770 C755 0.961 . S
H771 C755 0.960 . S
C772 C773 1.391 . S
C772 C774 1.394 . S
C772 H788 0.931 . S
C773 C772 1.391 . S
C773 C777 1.376 . S
C774 C772 1.394 . S
C774 C775 1.369 . S
C774 C778 1.531 . S
C775 C774 1.369 . S
C775 C776 1.410 . S
C775 C783 1.503 . S
C776 C775 1.410 . S
C776 C777 1.392 . S
C776 C779 1.511 . S
C777 C773 1.376 . S
C777 C776 1.392 . S
C777 H789 0.929 . S
C778 C774 1.531 . S
C778 H790 0.960 . S
C778 H791 0.962 . S
C778 H792 0.960 . S
C779 C776 1.511 . S
C779 H793 0.961 . S
C779 H794 0.961 . S
C779 H795 0.961 . S
C780 C781 1.370 . S
C780 C782 1.363 . S
C780 H796 0.931 . S
C781 C780 1.370 . S
C781 C785 1.408 . S
C782 C780 1.363 . S
C782 C783 1.370 . S
C782 C786 1.524 . S
C783 C775 1.503 . S
C783 C782 1.370 . S
C783 C784 1.403 . S
C784 C783 1.403 . S
C784 C785 1.404 . S
C784 C787 1.539 . S
C785 C781 1.408 . S
C785 C784 1.404 . S
C785 H797 0.930 . S
C786 C782 1.524 . S
C786 H798 0.956 . S
C786 H799 0.961 . S
C786 H800 0.961 . S
C787 C784 1.539 . S
C787 H801 0.958 . S
C787 H802 0.961 . S
C787 H803 0.960 . S
H788 C772 0.931 . S
H789 C777 0.929 . S
H790 C778 0.960 . S
H791 C778 0.962 . S
H792 C778 0.960 . S
H793 C779 0.961 . S
H794 C779 0.961 . S
H795 C779 0.961 . S
H796 C780 0.931 . S
H797 C785 0.930 . S
H798 C786 0.956 . S
H799 C786 0.961 . S
H800 C786 0.961 . S
H801 C787 0.958 . S
H802 C787 0.961 . S
H803 C787 0.960 . S
C804 C805 1.391 1_655 S
C804 C806 1.394 1_655 S
C804 H820 0.931 . S
C805 C804 1.391 1_455 S
C805 C809 1.376 . S
C806 C804 1.394 1_455 S
C806 C807 1.369 . S
C806 C810 1.531 1_455 S
C807 C806 1.369 . S
C807 C808 1.410 . S
C807 C815 1.503 . S
C808 C807 1.410 . S
C808 C809 1.392 . S
C808 C811 1.511 . S
C809 C805 1.376 . S
C809 C808 1.392 . S
C809 H821 0.929 . S
C810 C806 1.531 1_655 S
C810 H822 0.960 1_655 S
C810 H823 0.962 . S
C810 H824 0.960 . S
C811 C808 1.511 . S
C811 H825 0.961 . S
C811 H826 0.961 . S
C811 H827 0.961 . S
C812 C813 1.370 1_655 S
C812 C814 1.363 . S
C812 H828 0.931 . S
C813 C812 1.370 1_455 S
C813 C817 1.408 . S
C814 C812 1.363 . S
C814 C815 1.370 1_655 S
C814 C818 1.524 . S
C815 C807 1.503 . S
C815 C814 1.370 1_455 S
C815 C816 1.403 . S
C816 C815 1.403 . S
C816 C817 1.404 . S
C816 C819 1.539 . S
C817 C813 1.408 . S
C817 C816 1.404 . S
C817 H829 0.930 . S
C818 C814 1.524 . S
C818 H830 0.956 . S
C818 H831 0.961 . S
C818 H832 0.961 . S
C819 C816 1.539 . S
C819 H833 0.958 . S
C819 H834 0.961 . S
C819 H835 0.960 . S
H820 C804 0.931 . S
H821 C809 0.929 . S
H822 C810 0.960 1_455 S
H823 C810 0.962 . S
H824 C810 0.960 . S
H825 C811 0.961 . S
H826 C811 0.961 . S
H827 C811 0.961 . S
H828 C812 0.931 . S
H829 C817 0.930 . S
H830 C818 0.956 . S
H831 C818 0.961 . S
H832 C818 0.961 . S
H833 C819 0.958 . S
H834 C819 0.961 . S
H835 C819 0.960 . S
C836 C837 1.391 . S
C836 C838 1.394 . S
C836 H852 0.926 1_545 S
C837 C836 1.391 . S
C837 C841 1.376 . S
C838 C836 1.394 . S
C838 C839 1.369 . S
C838 C842 1.531 1_545 S
C839 C838 1.369 . S
C839 C840 1.410 . S
C839 C847 1.503 . S
C840 C839 1.410 . S
C840 C841 1.392 . S
C840 C843 1.511 . S
C841 C837 1.376 . S
C841 C840 1.392 . S
C841 H853 0.929 . S
C842 C838 1.531 1_565 S
C842 H854 0.960 . S
C842 H855 0.962 1_565 S
C842 H856 0.960 . S
C843 C840 1.511 . S
C843 H857 0.961 . S
C843 H858 0.961 . S
C843 H859 0.961 . S
C844 C845 1.370 . S
C844 C846 1.363 . S
C844 H860 0.931 . S
C845 C844 1.370 . S
C845 C849 1.408 1_545 S
C846 C844 1.363 . S
C846 C847 1.370 . S
C846 C850 1.524 . S
C847 C839 1.503 . S
C847 C846 1.370 . S
C847 C848 1.403 1_545 S
C848 C847 1.403 1_565 S
C848 C849 1.404 . S
C848 C851 1.539 . S
C849 C845 1.408 1_565 S
C849 C848 1.404 . S
C849 H861 0.930 . S
C850 C846 1.524 . S
C850 H862 0.956 . S
C850 H863 0.961 . S
C850 H864 0.961 . S
C851 C848 1.539 . S
C851 H865 0.958 . S
C851 H866 0.961 . S
C851 H867 0.960 . S
H852 C836 0.926 1_565 S
H853 C841 0.929 . S
H854 C842 0.960 . S
H855 C842 0.962 1_545 S
H856 C842 0.960 . S
H857 C843 0.961 . S
H858 C843 0.961 . S
H859 C843 0.961 . S
H860 C844 0.931 . S
H861 C849 0.930 . S
H862 C850 0.956 . S
H863 C850 0.961 . S
H864 C850 0.961 . S
H865 C851 0.958 . S
H866 C851 0.961 . S
H867 C851 0.960 . S
C868 C869 1.391 . S
C868 C870 1.394 . S
C868 H884 0.931 . S
C869 C868 1.391 . S
C869 C873 1.376 . S
C870 C868 1.394 . S
C870 C871 1.369 . S
C870 C874 1.531 . S
C871 C870 1.369 . S
C871 C872 1.410 . S
C871 C879 1.503 . S
C872 C871 1.410 . S
C872 C873 1.392 . S
C872 C875 1.511 . S
C873 C869 1.376 . S
C873 C872 1.392 . S
C873 H885 0.929 . S
C874 C870 1.531 . S
C874 H886 0.960 . S
C874 H887 0.962 . S
C874 H888 0.960 . S
C875 C872 1.511 . S
C875 H889 0.961 . S
C875 H890 0.961 . S
C875 H891 0.961 . S
C876 C877 1.370 . S
C876 C878 1.363 . S
C876 H892 0.931 . S
C877 C876 1.370 . S
C877 C881 1.408 . S
C878 C876 1.363 . S
C878 C879 1.370 . S
C878 C882 1.524 . S
C879 C871 1.503 . S
C879 C878 1.370 . S
C879 C880 1.403 . S
C880 C879 1.403 . S
C880 C881 1.404 . S
C880 C883 1.539 . S
C881 C877 1.408 . S
C881 C880 1.404 . S
C881 H893 0.930 . S
C882 C878 1.524 . S
C882 H894 0.956 . S
C882 H895 0.961 . S
C882 H896 0.961 . S
C883 C880 1.539 . S
C883 H897 0.958 . S
C883 H898 0.961 . S
C883 H899 0.960 . S
H884 C868 0.931 . S
H885 C873 0.929 . S
H886 C874 0.960 . S
H887 C874 0.962 . S
H888 C874 0.960 . S
H889 C875 0.961 . S
H890 C875 0.961 . S
H891 C875 0.961 . S
H892 C876 0.931 . S
H893 C881 0.930 . S
H894 C882 0.956 . S
H895 C882 0.961 . S
H896 C882 0.961 . S
H897 C883 0.958 . S
H898 C883 0.961 . S
H899 C883 0.960 . S
C900 C901 1.391 . S
C900 C902 1.394 . S
C900 H916 0.931 . S
C901 C900 1.391 . S
C901 C905 1.376 1_545 S
C902 C900 1.394 . S
C902 C903 1.369 . S
C902 C906 1.531 . S
C903 C902 1.369 . S
C903 C904 1.410 1_545 S
C903 C911 1.503 . S
C904 C903 1.410 1_565 S
C904 C905 1.392 . S
C904 C907 1.511 . S
C905 C901 1.376 1_565 S
C905 C904 1.392 . S
C905 H917 0.929 . S
C906 C902 1.531 . S
C906 H918 0.960 . S
C906 H919 0.962 . S
C906 H920 0.960 . S
C907 C904 1.511 . S
C907 H921 0.961 . S
C907 H922 0.961 . S
C907 H923 0.961 . S
C908 C909 1.370 . S
C908 C910 1.363 . S
C908 H924 0.931 . S
C909 C908 1.370 . S
C909 C913 1.408 1_545 S
C910 C908 1.363 . S
C910 C911 1.370 . S
C910 C914 1.524 . S
C911 C903 1.503 . S
C911 C910 1.370 . S
C911 C912 1.403 1_545 S
C912 C911 1.403 1_565 S
C912 C913 1.404 . S
C912 C915 1.539 . S
C913 C909 1.408 1_565 S
C913 C912 1.404 . S
C913 H925 0.930 . S
C914 C910 1.524 . S
C914 H926 0.956 . S
C914 H927 0.961 . S
C914 H928 0.961 . S
C915 C912 1.539 . S
C915 H929 0.958 . S
C915 H930 0.961 . S
C915 H931 0.960 . S
H916 C900 0.931 . S
H917 C905 0.929 . S
H918 C906 0.960 . S
H919 C906 0.962 . S
H920 C906 0.960 . S
H921 C907 0.961 . S
H922 C907 0.961 . S
H923 C907 0.961 . S
H924 C908 0.931 . S
H925 C913 0.930 . S
H926 C914 0.956 . S
H927 C914 0.961 . S
H928 C914 0.961 . S
H929 C915 0.958 . S
H930 C915 0.961 . S
H931 C915 0.960 . S
C932 C933 1.391 . S
C932 C934 1.394 . S
C932 H948 0.931 . S
C933 C932 1.391 . S
C933 C937 1.376 . S
C934 C932 1.394 . S
C934 C935 1.369 . S
C934 C938 1.531 . S
C935 C934 1.369 . S
C935 C936 1.410 . S
C935 C943 1.503 . S
C936 C935 1.410 . S
C936 C937 1.392 . S
C936 C939 1.511 . S
C937 C933 1.376 . S
C937 C936 1.392 . S
C937 H949 0.929 . S
C938 C934 1.531 . S
C938 H950 0.960 . S
C938 H951 0.962 . S
C938 H952 0.960 . S
C939 C936 1.511 . S
C939 H953 0.961 . S
C939 H954 0.961 . S
C939 H955 0.961 . S
C940 C941 1.370 . S
C940 C942 1.363 . S
C940 H956 0.931 . S
C941 C940 1.370 . S
C941 C945 1.408 . S
C942 C940 1.363 . S
C942 C943 1.370 . S
C942 C946 1.524 . S
C943 C935 1.503 . S
C943 C942 1.370 . S
C943 C944 1.403 . S
C944 C943 1.403 . S
C944 C945 1.404 . S
C944 C947 1.539 . S
C945 C941 1.408 . S
C945 C944 1.404 . S
C945 H957 0.930 . S
C946 C942 1.524 . S
C946 H958 0.956 . S
C946 H959 0.961 . S
C946 H960 0.961 . S
C947 C944 1.539 . S
C947 H961 0.958 . S
C947 H962 0.961 . S
C947 H963 0.960 . S
H948 C932 0.931 . S
H949 C937 0.929 . S
H950 C938 0.960 . S
H951 C938 0.962 . S
H952 C938 0.960 . S
H953 C939 0.961 . S
H954 C939 0.961 . S
H955 C939 0.961 . S
H956 C940 0.931 . S
H957 C945 0.930 . S
H958 C946 0.956 . S
H959 C946 0.961 . S
H960 C946 0.961 . S
H961 C947 0.958 . S
H962 C947 0.961 . S
H963 C947 0.960 . S
C964 C965 1.391 . S
C964 C966 1.394 . S
C964 H980 0.931 . S
C965 C964 1.391 . S
C965 C969 1.376 1_655 S
C966 C964 1.394 . S
C966 C967 1.369 . S
C966 C970 1.531 . S
C967 C966 1.369 . S
C967 C968 1.410 1_655 S
C967 C975 1.503 1_655 S
C968 C967 1.410 1_455 S
C968 C969 1.392 . S
C968 C971 1.511 . S
C969 C965 1.376 1_455 S
C969 C968 1.392 . S
C969 H981 0.929 . S
C970 C966 1.531 . S
C970 H982 0.960 . S
C970 H983 0.962 . S
C970 H984 0.960 . S
C971 C968 1.511 . S
C971 H985 0.961 . S
C971 H986 0.961 . S
C971 H987 0.961 . S
C972 C973 1.370 . S
C972 C974 1.363 . S
C972 H988 0.931 . S
C973 C972 1.370 . S
C973 C977 1.408 1_455 S
C974 C972 1.363 . S
C974 C975 1.370 . S
C974 C978 1.524 . S
C975 C967 1.503 1_455 S
C975 C974 1.370 . S
C975 C976 1.402 1_455 S
C976 C975 1.402 1_655 S
C976 C977 1.404 . S
C976 C979 1.539 . S
C977 C973 1.408 1_655 S
C977 C976 1.404 . S
C977 H989 0.930 . S
C978 C974 1.524 . S
C978 H990 0.956 . S
C978 H991 0.961 . S
C978 H992 0.961 . S
C979 C976 1.539 . S
C979 H993 0.958 . S
C979 H994 0.961 . S
C979 H995 0.960 . S
H980 C964 0.931 . S
H981 C969 0.929 . S
H982 C970 0.960 . S
H983 C970 0.962 . S
H984 C970 0.960 . S
H985 C971 0.961 . S
H986 C971 0.961 . S
H987 C971 0.961 . S
H988 C972 0.931 . S
H989 C977 0.930 . S
H990 C978 0.956 . S
H991 C978 0.961 . S
H992 C978 0.961 . S
H993 C979 0.958 . S
H994 C979 0.961 . S
H995 C979 0.960 . S
C421 C2 1.374 . S
C429 C391 1.447 . S
C453 C22 1.358 . S
C461 C241 1.375 . S
C485 C44 1.417 . S
C493 C301 1.385 . S
C517 C4 1.550 . S
C525 C361 1.557 . S
C557 C271 1.687 . S
C549 C24 1.558 . S
C589 C331 1.617 . S
C581 C42 1.469 . S
C613 C32 1.318 . S
C621 C121 1.271 . S
C645 C49 1.300 . S
C653 C211 1.311 . S
C677 C9 1.256 . S
C685 C91 1.300 . S
C717 C151 1.287 . S
C709 C29 1.219 . S
C749 C181 1.266 . S
C741 C52 1.239 . S
C773 C12 1.293 . S
C781 C61 1.257 . S
C813 C200 1.419 1_554 S
C805 C18 1.433 1_455 S
C837 C38 1.404 . S
C845 C80 1.408 . S
C869 C58 1.425 . S
C877 C140 1.402 . S
C909 C320 1.483 . S
C901 C39 1.501 . S
C941 C380 1.478 1_556 S
C933 C59 1.442 . S
C965 C19 1.466 1_655 S
C973 C260 1.476 . S
