# Generated by pormake.
# Topology anh, (6,3)-cn, num edge types: 1
# Building blocks:
#     Node 0, Type 0, BuildingBlock: INOVEN_clean_sbu_0, # of connection points: 6
#     Node 1, Type 0, BuildingBlock: INOVEN_clean_sbu_0, # of connection points: 6
#     Node 2, Type 0, BuildingBlock: INOVEN_clean_sbu_0, # of connection points: 6
#     Node 3, Type 1, BuildingBlock: BETDAH_clean_linker_0, # of connection points: 3
#     Node 4, Type 1, BuildingBlock: BETDAH_clean_linker_0, # of connection points: 3
#     Node 5, Type 1, BuildingBlock: BETDAH_clean_linker_0, # of connection points: 3
#     Node 6, Type 1, BuildingBlock: BETDAH_clean_linker_0, # of connection points: 3
#     Node 7, Type 1, BuildingBlock: BETDAH_clean_linker_0, # of connection points: 3
#     Node 8, Type 1, BuildingBlock: BETDAH_clean_linker_0, # of connection points: 3
#     Edge 9, Type (0, 1), BuildingBlock: MIFKUJ_clean_linker_0, # of connection points: 2
#     Edge 10, Type (0, 1), BuildingBlock: MIFKUJ_clean_linker_0, # of connection points: 2
#     Edge 11, Type (0, 1), BuildingBlock: MIFKUJ_clean_linker_0, # of connection points: 2
#     Edge 12, Type (0, 1), BuildingBlock: MIFKUJ_clean_linker_0, # of connection points: 2
#     Edge 13, Type (0, 1), BuildingBlock: MIFKUJ_clean_linker_0, # of connection points: 2
#     Edge 14, Type (0, 1), BuildingBlock: MIFKUJ_clean_linker_0, # of connection points: 2
#     Edge 15, Type (0, 1), BuildingBlock: MIFKUJ_clean_linker_0, # of connection points: 2
#     Edge 16, Type (0, 1), BuildingBlock: MIFKUJ_clean_linker_0, # of connection points: 2
#     Edge 17, Type (0, 1), BuildingBlock: MIFKUJ_clean_linker_0, # of connection points: 2
#     Edge 18, Type (0, 1), BuildingBlock: MIFKUJ_clean_linker_0, # of connection points: 2
#     Edge 19, Type (0, 1), BuildingBlock: MIFKUJ_clean_linker_0, # of connection points: 2
#     Edge 20, Type (0, 1), BuildingBlock: MIFKUJ_clean_linker_0, # of connection points: 2
#     Edge 21, Type (0, 1), BuildingBlock: MIFKUJ_clean_linker_0, # of connection points: 2
#     Edge 22, Type (0, 1), BuildingBlock: MIFKUJ_clean_linker_0, # of connection points: 2
#     Edge 23, Type (0, 1), BuildingBlock: MIFKUJ_clean_linker_0, # of connection points: 2
#     Edge 24, Type (0, 1), BuildingBlock: MIFKUJ_clean_linker_0, # of connection points: 2
#     Edge 25, Type (0, 1), BuildingBlock: MIFKUJ_clean_linker_0, # of connection points: 2
#     Edge 26, Type (0, 1), BuildingBlock: MIFKUJ_clean_linker_0, # of connection points: 2
# Relax obj value: 0.114
# Max RMSD: 0.169
# Mean RMSD: 0.104
data_MOF--net-anh--node1-INOVEN_clean_sbu_0--node2-BETDAH_clean_linker_0--edge1-MIFKUJ_clean_linker_0
_symmetry_space_group_name_H-M    P1
_symmetry_Int_Tables_number       1
_symmetry_cell_setting            triclinic
loop_
_symmetry_equiv_pos_as_xyz
'x, y, z'
_cell_length_a     40.877501
_cell_length_b     47.26921
_cell_length_c     64.10678
_cell_angle_alpha  95.038864
_cell_angle_beta   91.436323
_cell_angle_gamma 128.07361
loop_
_atom_site_label
_atom_site_type_symbol
_atom_site_fract_x
_atom_site_fract_y
_atom_site_fract_z
_atom_type_partial_charge
Gd0 Gd 0.1016 0.55014 0.1473 0.0
Gd1 Gd 0.05598 0.58037 0.16838 0.0
C2 C 0.15308 0.63733 0.16242 0.0
C3 C 0.1326 0.53225 0.11963 0.0
C4 C 0.17063 0.53587 0.11795 0.0
C5 C 0.19876 0.54773 0.13575 0.0
C6 C 0.1775 0.52511 0.0986 0.0
C7 C 0.23839 0.53477 0.11522 0.0
C8 C 0.21117 0.5246 0.09722 0.0
C9 C 0.23241 0.54714 0.1344 0.0
C10 C 0.11126 0.55778 0.19005 0.0
C11 C 1.00575 0.49292 0.15738 0.0
C12 C 1.01381 0.59144 0.19203 0.0
C13 C 0.9769 0.56722 0.20312 0.0
C14 C 0.96478 0.53314 0.20652 0.0
C15 C 0.95022 0.57569 0.20746 0.0
C16 C 0.89695 0.51415 0.21496 0.0
C17 C 0.9105 0.54936 0.21345 0.0
C18 C 0.92512 0.50679 0.21239 0.0
C19 C 0.06156 0.58017 0.12642 0.0
O20 O 0.15017 0.61154 0.15008 0.0
O21 O 0.12231 0.63082 0.17318 0.0
O22 O 0.10779 0.51085 0.13303 0.0
O23 O 0.13701 0.56228 0.12033 0.0
O24 O 0.12794 0.5468 0.17831 0.0
O25 O 0.0931 0.56476 0.17812 0.0
O26 O 1.00863 0.51987 0.16794 0.0
O27 O 1.03566 0.49823 0.14628 0.0
O28 O 1.00681 0.58492 0.17144 0.0
O29 O 0.04838 0.59764 0.19908 0.0
O30 O 0.06267 0.60468 0.13823 0.0
O31 O 0.05496 0.55637 0.13715 0.0
H32 H 0.19391 0.55631 0.1508 0.0
H33 H 0.15598 0.51588 0.08473 0.0
H34 H 0.21459 0.51448 0.08229 0.0
H35 H 0.2531 0.55545 0.14847 0.0
H36 H 0.98466 0.52587 0.20325 0.0
H37 H 0.95895 0.60179 0.20484 0.0
H38 H 0.88917 0.5556 0.21507 0.0
H39 H 0.91539 0.47987 0.21342 0.0
Gd40 Gd 0.64235 0.068 0.48628 0.0
Gd41 Gd 0.58667 0.08752 0.47633 0.0
C42 C 0.54251 0.0045 0.47424 0.0
C43 C 0.67694 0.04179 0.50091 0.0
C44 C 0.66525 0.00701 0.50601 0.0
C45 C 0.69252 0.99899 0.50222 0.0
C46 C 0.62753 0.98167 0.51436 0.0
C47 C 0.64507 0.94098 0.51534 0.0
C48 C 0.61759 0.94891 0.51904 0.0
C49 C 0.68251 0.96625 0.50677 0.0
C50 C 0.63739 0.078 0.4459 0.0
C51 C 0.68827 0.15162 0.48566 0.0
C52 C 0.55302 0.11533 0.46318 0.0
C53 C 0.55721 0.14807 0.47032 0.0
C54 C 0.56242 0.16002 0.49188 0.0
C55 C 0.55642 0.16787 0.45553 0.0
C56 C 0.56475 0.21058 0.48376 0.0
C57 C 0.56031 0.19894 0.46217 0.0
C58 C 0.5659 0.19082 0.49852 0.0
C59 C 0.59316 0.07939 0.51707 0.0
O60 O 0.57651 0.01512 0.48578 0.0
O61 O 0.54183 0.02799 0.46492 0.0
O62 O 0.67317 0.04406 0.48095 0.0
O63 O 0.66501 0.05717 0.51291 0.0
O64 O 0.67139 0.08805 0.45624 0.0
O65 O 0.60711 0.06155 0.45693 0.0
O66 O 0.65158 0.14145 0.478 0.0
O67 O 0.69228 0.12827 0.49256 0.0
O68 O 0.53569 0.09013 0.47562 0.0
O69 O 0.58549 0.12075 0.45541 0.0
O70 O 0.5594 0.07029 0.50713 0.0
O71 O 0.62264 0.09482 0.50556 0.0
H72 H 0.72172 0.01814 0.49574 0.0
H73 H 0.60587 0.9872 0.51729 0.0
H74 H 0.58834 0.92966 0.52543 0.0
H75 H 0.70433 0.96089 0.50386 0.0
H76 H 0.56376 0.14554 0.50363 0.0
H77 H 0.55267 0.15922 0.43883 0.0
H78 H 0.55914 0.21351 0.45043 0.0
H79 H 0.56998 0.19943 0.51524 0.0
Gd80 Gd 0.61728 0.58532 0.85142 0.0
Gd81 Gd 0.55834 0.50448 0.85003 0.0
C82 C 0.51507 0.54354 0.85238 0.0
C83 C 0.65573 0.651 0.84314 0.0
C84 C 0.64614 0.67448 0.83666 0.0
C85 C 0.67657 0.7121 0.84126 0.0
C86 C 0.60806 0.66013 0.82521 0.0
C87 C 0.63195 0.72121 0.82229 0.0
C88 C 0.60098 0.68333 0.81812 0.0
C89 C 0.66958 0.73524 0.83419 0.0
C90 C 0.60596 0.56095 0.88898 0.0
C91 C 0.66184 0.54751 0.85174 0.0
C92 C 0.52198 0.43798 0.856 0.0
C93 C 0.53085 0.41245 0.85095 0.0
C94 C 0.50202 0.37622 0.8544 0.0
C95 C 0.56762 0.42385 0.84212 0.0
C96 C 0.54636 0.36273 0.83984 0.0
C97 C 0.57549 0.39938 0.83681 0.0
C98 C 0.5096 0.35153 0.84885 0.0
C99 C 0.56895 0.52766 0.81204 0.0
O100 O 0.55236 0.57256 0.8481 0.0
O101 O 0.51054 0.5141 0.85627 0.0
O102 O 0.64844 0.64216 0.86221 0.0
O103 O 0.64503 0.62406 0.82914 0.0
O104 O 0.64209 0.58851 0.88422 0.0
O105 O 0.57802 0.54889 0.87415 0.0
O106 O 0.62334 0.51725 0.85318 0.0
O107 O 0.66754 0.57793 0.84946 0.0
O108 O 0.51173 0.44694 0.83981 0.0
O109 O 0.54829 0.46579 0.87024 0.0
O110 O 0.53384 0.49955 0.81707 0.0
O111 O 0.59739 0.54074 0.82684 0.0
H112 H 0.70607 0.72365 0.85012 0.0
H113 H 0.58414 0.63108 0.82146 0.0
H114 H 0.57174 0.67163 0.80894 0.0
H115 H 0.69373 0.76421 0.8381 0.0
H116 H 0.47334 0.36687 0.86109 0.0
H117 H 0.59012 0.4516 0.83914 0.0
H118 H 0.60446 0.40926 0.83028 0.0
H119 H 0.48615 0.3235 0.85117 0.0
H120 H 0.51457 1.00382 0.22746 0.0
H121 H 0.62096 0.1092 0.21487 0.0
H122 H 0.53204 0.02856 0.16389 0.0
C123 C 0.5326 0.02284 0.2164 0.0
C124 C 0.51882 0.01192 0.19487 0.0
C125 C 0.56957 0.05766 0.22381 0.0
C126 C 0.59243 0.08234 0.20932 0.0
C127 C 0.57885 0.07187 0.18762 0.0
C128 C 0.54235 0.03659 0.18058 0.0
N129 N 0.60092 0.09571 0.17235 0.0
C130 C 0.6379 0.1312 0.17648 0.0
H131 H 0.59614 0.51371 0.59551 0.0
H132 H 0.61915 0.61369 0.58712 0.0
H133 H 0.61881 0.55043 0.53453 0.0
C134 C 0.6021 0.53313 0.58521 0.0
C135 C 0.60675 0.52789 0.56391 0.0
C136 C 0.60659 0.56395 0.59366 0.0
C137 C 0.61556 0.58987 0.58061 0.0
C138 C 0.61985 0.58477 0.55918 0.0
C139 C 0.61576 0.55409 0.55109 0.0
N140 N 0.62884 0.60991 0.5452 0.0
C141 C 0.62479 0.63701 0.54883 0.0
H142 H 1.01937 0.55798 0.90284 0.0
H143 H 0.12293 0.55649 0.89618 0.0
H144 H 0.04875 0.54246 0.84095 0.0
C145 C 1.0387 0.55574 0.89267 0.0
C146 C 1.02904 0.54996 0.87083 0.0
C147 C 0.07225 0.55824 0.90181 0.0
C148 C 0.09729 0.55459 0.88895 0.0
C149 C 0.08983 0.54915 0.86689 0.0
C150 C 0.05527 0.54688 0.85789 0.0
N151 N 0.11595 0.54587 0.85352 0.0
C152 C 0.1515 0.54756 0.85882 0.0
H153 H 0.17793 0.63512 0.40929 0.0
H154 H 0.07159 0.53142 0.42366 0.0
H155 H 0.15191 0.61923 0.47362 0.0
C156 C 0.15872 0.61778 0.42082 0.0
C157 C 0.16908 0.63179 0.44222 0.0
C158 C 0.12385 0.58171 0.41404 0.0
C159 C 0.09863 0.5592 0.42892 0.0
C160 C 0.109 0.57263 0.45055 0.0
C161 C 0.14427 0.60883 0.45701 0.0
N162 N 0.08489 0.5509 0.46629 0.0
C163 C 0.05004 0.51434 0.46278 0.0
H164 H 0.60388 0.10794 0.73495 0.0
H165 H 0.60782 0.02158 0.74536 0.0
H166 H 0.602 0.08123 0.79775 0.0
C167 C 0.60487 0.09215 0.74585 0.0
C168 C 0.60257 0.09834 0.76743 0.0
C169 C 0.60711 0.0648 0.73795 0.0
C170 C 0.60652 0.04288 0.7516 0.0
C171 C 0.60448 0.04885 0.77327 0.0
C172 C 0.60286 0.07662 0.78099 0.0
N173 N 0.6039 0.02767 0.7879 0.0
C174 C 0.60414 0.99856 0.78293 0.0
H175 H 0.56896 0.38507 0.07793 0.0
H176 H 0.44685 0.35358 0.06277 0.0
H177 H 0.47543 0.33333 0.12165 0.0
C178 C 0.53767 0.3726 0.08217 0.0
C179 C 0.5262 0.35949 0.10176 0.0
C180 C 0.50931 0.37061 0.06806 0.0
C181 C 0.46865 0.35436 0.07329 0.0
C182 C 0.45649 0.34045 0.09249 0.0
C183 C 0.48494 0.34256 0.10647 0.0
N184 N 0.41699 0.32729 0.09885 0.0
C185 C 0.40327 0.34767 0.09775 0.0
H186 H 0.2915 0.55025 0.08489 0.0
H187 H 0.33436 0.5305 0.08085 0.0
H188 H 0.29781 0.4847 0.13919 0.0
H189 H 0.25539 0.50449 0.14338 0.0
H190 H 0.37776 0.51352 0.13467 0.0
H191 H 0.24382 0.43385 0.09149 0.0
H192 H 0.19151 0.42096 0.06389 0.0
H193 H 0.28093 0.45751 0.01849 0.0
H194 H 0.33394 0.47108 0.04593 0.0
H195 H 0.3675 0.35943 0.12807 0.0
H196 H 0.35304 0.40275 0.12974 0.0
H197 H 0.4029 0.43422 0.0701 0.0
H198 H 0.41715 0.39052 0.06842 0.0
H199 H 0.32938 0.42288 0.07178 0.0
H200 H 0.45901 0.49103 0.1141 0.0
H201 H 0.51055 0.50317 0.14186 0.0
H202 H 0.43005 0.48827 0.18892 0.0
H203 H 0.37771 0.47549 0.16142 0.0
C204 C 0.29318 0.53646 0.097 0.0
C205 C 0.26979 0.52861 0.11435 0.0
C206 C 0.31769 0.52525 0.09469 0.0
C207 C 0.31867 0.50558 0.10954 0.0
C208 C 0.29755 0.49986 0.12755 0.0
C209 C 0.27333 0.51126 0.12994 0.0
C210 C 0.33785 0.48762 0.10552 0.0
C211 C 0.36723 0.49369 0.12094 0.0
C212 C 0.32494 0.4625 0.0873 0.0
C213 C 0.29292 0.45384 0.07078 0.0
C214 C 0.25236 0.43931 0.07564 0.0
C215 C 0.2226 0.43188 0.06004 0.0
C216 C 0.23293 0.43851 0.03946 0.0
C217 C 0.273 0.45246 0.03444 0.0
C218 C 0.30291 0.46002 0.05001 0.0
C219 C 0.37511 0.37554 0.11532 0.0
C220 C 0.39297 0.37177 0.09805 0.0
C221 C 0.36726 0.40044 0.11635 0.0
C222 C 0.37749 0.42206 0.10018 0.0
C223 C 0.39499 0.4179 0.08276 0.0
C224 C 0.40294 0.39298 0.08176 0.0
C225 C 0.36828 0.4479 0.10128 0.0
C226 C 0.34074 0.4433 0.08529 0.0
C227 C 0.38285 0.4743 0.119 0.0
C228 C 0.4143 0.48208 0.13565 0.0
C229 C 0.45214 0.49007 0.13035 0.0
C230 C 0.48153 0.49711 0.14605 0.0
C231 C 0.47355 0.49644 0.16714 0.0
C232 C 0.43619 0.48878 0.17258 0.0
C233 C 0.40667 0.48169 0.15694 0.0
H234 H 0.49635 0.5019 0.17927 0.0
H235 H 0.20985 0.43275 0.0274 0.0
H236 H 0.77077 0.18183 0.4946 0.0
H237 H 0.8324 0.24316 0.49044 0.0
H238 H 0.75303 0.26928 0.47105 0.0
H239 H 0.69136 0.20794 0.4748 0.0
H240 H 0.81182 0.29238 0.44541 0.0
H241 H 0.80978 0.30234 0.52037 0.0
H242 H 0.8078 0.28524 0.55583 0.0
H243 H 0.92299 0.3022 0.55002 0.0
H244 H 0.92537 0.31895 0.51439 0.0
H245 H 0.96903 0.48486 0.45385 0.0
H246 H 0.90762 0.42259 0.45719 0.0
H247 H 0.98856 0.39724 0.47503 0.0
H248 H 0.04986 0.45968 0.47192 0.0
H249 H 0.92941 0.37347 0.5012 0.0
H250 H 0.93163 0.36467 0.4262 0.0
H251 H 0.93313 0.38199 0.39085 0.0
H252 H 0.817 0.36325 0.39694 0.0
H253 H 0.81509 0.34629 0.43246 0.0
C254 C 0.76638 0.20072 0.48969 0.0
C255 C 0.72597 0.18983 0.4851 0.0
C256 C 0.80174 0.23589 0.48733 0.0
C257 C 0.79755 0.26111 0.48054 0.0
C258 C 0.75723 0.25041 0.47625 0.0
C259 C 0.7219 0.21527 0.47851 0.0
C260 C 0.835 0.29827 0.47734 0.0
C261 C 0.83726 0.31027 0.45773 0.0
C262 C 0.86879 0.32147 0.49318 0.0
C263 C 0.86753 0.31155 0.51463 0.0
C264 C 0.83452 0.30216 0.52659 0.0
C265 C 0.83336 0.29258 0.54673 0.0
C266 C 0.86519 0.29254 0.55515 0.0
C267 C 0.89832 0.30219 0.54347 0.0
C268 C 0.89962 0.31176 0.5233 0.0
C269 C 0.97351 0.46572 0.45814 0.0
C270 C 1.0139 0.47668 0.46241 0.0
C271 C 0.93848 0.43016 0.46005 0.0
C272 C 0.94331 0.40497 0.46622 0.0
C273 C 0.98392 0.41605 0.47024 0.0
C274 C 1.0189 0.45159 0.46832 0.0
C275 C 0.9062 0.36758 0.46929 0.0
C276 C 0.904 0.35555 0.48887 0.0
C277 C 0.87239 0.34441 0.45345 0.0
C278 C 0.87344 0.35455 0.43208 0.0
C279 C 0.90658 0.36452 0.42008 0.0
C280 C 0.90747 0.37423 0.39999 0.0
C281 C 0.87523 0.37381 0.39168 0.0
C282 C 0.84198 0.36361 0.40341 0.0
C283 C 0.84096 0.35392 0.42351 0.0
H284 H 0.87598 0.38133 0.37613 0.0
H285 H 0.86423 0.28511 0.57075 0.0
H286 H 0.68878 0.78342 0.80545 0.0
H287 H 0.68104 0.82763 0.79513 0.0
H288 H 0.55315 0.76006 0.80979 0.0
H289 H 0.56082 0.71572 0.82052 0.0
H290 H 0.56426 0.79173 0.77269 0.0
H291 H 0.62413 0.82883 0.84466 0.0
H292 H 0.67461 0.84385 0.87406 0.0
H293 H 0.77503 0.93008 0.84361 0.0
H294 H 0.72518 0.9152 0.81385 0.0
H295 H 0.5389 0.92908 0.78543 0.0
H296 H 0.54127 0.87883 0.7878 0.0
H297 H 0.67277 0.94968 0.77957 0.0
H298 H 0.67033 1.00002 0.77752 0.0
H299 H 0.65907 0.91525 0.81259 0.0
H300 H 0.5994 0.87988 0.74106 0.0
H301 H 0.54932 0.86467 0.71138 0.0
H302 H 0.44912 0.77574 0.74043 0.0
H303 H 0.49853 0.79073 0.77045 0.0
C304 C 0.65901 0.77795 0.80658 0.0
C305 C 0.62568 0.74632 0.81421 0.0
C306 C 0.65458 0.80317 0.80055 0.0
C307 C 0.61674 0.79742 0.802 0.0
C308 C 0.58267 0.76507 0.8086 0.0
C309 C 0.58711 0.73975 0.8147 0.0
C310 C 0.61375 0.82617 0.7977 0.0
C311 C 0.58459 0.81864 0.78156 0.0
C312 C 0.64094 0.86149 0.80898 0.0
C313 C 0.67096 0.87067 0.82693 0.0
C314 C 0.65701 0.85081 0.84415 0.0
C315 C 0.68551 0.85933 0.86089 0.0
C316 C 0.72802 0.88784 0.86068 0.0
C317 C 0.7421 0.90796 0.84374 0.0
C318 C 0.71374 0.89952 0.82694 0.0
C319 C 0.56801 0.93355 0.78368 0.0
C320 C 0.60437 0.96804 0.78113 0.0
C321 C 0.56937 0.90488 0.78499 0.0
C322 C 0.60715 0.91034 0.78372 0.0
C323 C 0.64326 0.94477 0.78055 0.0
C324 C 0.64186 0.97342 0.77927 0.0
C325 C 0.60975 0.88108 0.78741 0.0
C326 C 0.6388 0.88846 0.80358 0.0
C327 C 0.58246 0.84572 0.77612 0.0
C328 C 0.55263 0.83667 0.75811 0.0
C329 C 0.56663 0.85728 0.74122 0.0
C330 C 0.53837 0.84866 0.72431 0.0
C331 C 0.49605 0.81932 0.72405 0.0
C332 C 0.48191 0.79849 0.74067 0.0
C333 C 0.51004 0.80702 0.75763 0.0
H334 H 0.47422 0.81268 0.71094 0.0
H335 H 0.75003 0.8944 0.87366 0.0
H336 H 0.85147 0.45267 0.18745 0.0
H337 H 0.77648 0.41317 0.17872 0.0
H338 H 0.76435 0.46697 0.23238 0.0
H339 H 0.84053 0.50834 0.24048 0.0
H340 H 0.70338 0.36812 0.18925 0.0
H341 H 0.69928 0.48333 0.21839 0.0
H342 H 0.74726 0.54938 0.22982 0.0
H343 H 0.8362 0.56133 0.18939 0.0
H344 H 0.78852 0.49546 0.1776 0.0
H345 H 0.51621 0.31794 0.1326 0.0
H346 H 0.56782 0.33396 0.16115 0.0
H347 H 0.66083 0.43231 0.13548 0.0
H348 H 0.60901 0.41864 0.10851 0.0
H349 H 0.66845 0.44835 0.17432 0.0
H350 H 0.65067 0.34966 0.13016 0.0
H351 H 0.61129 0.28691 0.11262 0.0
H352 H 0.57895 0.24701 0.17241 0.0
H353 H 0.61777 0.30955 0.19026 0.0
C354 C 0.83278 0.45528 0.19788 0.0
C355 C 0.85178 0.48398 0.2144 0.0
C356 C 0.78969 0.43252 0.19289 0.0
C357 C 0.76478 0.43782 0.20448 0.0
C358 C 0.78312 0.46311 0.22284 0.0
C359 C 0.82654 0.48664 0.22752 0.0
C360 C 0.72256 0.42227 0.19476 0.0
C361 C 0.69533 0.3855 0.18625 0.0
C362 C 0.7121 0.44492 0.19062 0.0
C363 C 0.74065 0.48454 0.19738 0.0
C364 C 0.72905 0.50013 0.21194 0.0
C365 C 0.75617 0.53749 0.21847 0.0
C366 C 0.79482 0.55951 0.2104 0.0
C367 C 0.80632 0.54425 0.19567 0.0
C368 C 0.77926 0.50693 0.18905 0.0
C369 C 0.54752 0.34322 0.13316 0.0
C370 C 0.55819 0.36685 0.11803 0.0
C371 C 0.57718 0.3521 0.1494 0.0
C372 C 0.61839 0.38429 0.15048 0.0
C373 C 0.62922 0.4074 0.13514 0.0
C374 C 0.59952 0.39909 0.11934 0.0
C375 C 0.65081 0.39484 0.16748 0.0
C376 C 0.67571 0.43057 0.17771 0.0
C377 C 0.6602 0.3717 0.17223 0.0
C378 C 0.63654 0.33416 0.16149 0.0
C379 C 0.63482 0.32746 0.13953 0.0
C380 C 0.61268 0.29195 0.12954 0.0
C381 C 0.59248 0.26298 0.14139 0.0
C382 C 0.59449 0.26947 0.16325 0.0
C383 C 0.61654 0.30492 0.17331 0.0
H384 H 0.57539 0.23551 0.13363 0.0
H385 H 0.81581 0.58841 0.21551 0.0
H386 H 0.46879 0.97172 0.44982 0.0
H387 H 0.40586 0.90863 0.44694 0.0
H388 H 0.46667 0.88656 0.491 0.0
H389 H 0.53013 0.94952 0.49362 0.0
H390 H 0.42411 0.83266 0.45996 0.0
H391 H 0.39302 0.89663 0.50571 0.0
H392 H 0.38651 0.94398 0.51723 0.0
H393 H 0.29646 0.90588 0.46429 0.0
H394 H 0.30288 0.85861 0.45227 0.0
H395 H 0.23276 0.65998 0.47342 0.0
H396 H 0.29618 0.72331 0.48165 0.0
H397 H 0.25174 0.75389 0.43365 0.0
H398 H 0.1885 0.69095 0.42548 0.0
H399 H 0.28648 0.80299 0.46981 0.0
H400 H 0.32171 0.74109 0.42344 0.0
H401 H 0.32829 0.69354 0.41272 0.0
H402 H 0.41075 0.72775 0.46855 0.0
H403 H 0.40416 0.7752 0.47975 0.0
C404 C 0.46889 0.95349 0.45889 0.0
C405 C 0.50457 0.96584 0.47202 0.0
C406 C 0.43271 0.91738 0.45732 0.0
C407 C 0.43111 0.89283 0.46903 0.0
C408 C 0.46697 0.90492 0.48186 0.0
C409 C 0.50327 0.94102 0.48336 0.0
C410 C 0.39213 0.85457 0.46777 0.0
C411 C 0.39416 0.82624 0.46248 0.0
C412 C 0.35279 0.84595 0.47078 0.0
C413 C 0.34872 0.87427 0.47799 0.0
C414 C 0.37206 0.89851 0.49644 0.0
C415 C 0.36835 0.92531 0.50307 0.0
C416 C 0.34116 0.92799 0.49147 0.0
C417 C 0.31755 0.9038 0.47324 0.0
C418 C 0.32118 0.87697 0.46652 0.0
C419 C 0.23633 0.68034 0.46485 0.0
C420 C 0.2058 0.67046 0.44871 0.0
C421 C 0.27267 0.71644 0.46946 0.0
C422 C 0.27894 0.74332 0.45811 0.0
C423 C 0.24769 0.73367 0.44258 0.0
C424 C 0.21167 0.69765 0.43785 0.0
C425 C 0.31852 0.78129 0.46178 0.0
C426 C 0.31655 0.80952 0.4675 0.0
C427 C 0.35792 0.7898 0.45932 0.0
C428 C 0.36205 0.76141 0.45255 0.0
C429 C 0.34096 0.73827 0.43352 0.0
C430 C 0.34474 0.71137 0.42734 0.0
C431 C 0.36982 0.70755 0.43998 0.0
C432 C 0.39127 0.7307 0.45879 0.0
C433 C 0.38753 0.7576 0.46506 0.0
H434 H 0.37272 0.68672 0.43516 0.0
H435 H 0.33833 0.94875 0.49664 0.0
H436 H 0.58261 0.36011 0.80501 0.0
H437 H 0.59436 0.31673 0.79376 0.0
H438 H 0.53663 0.26037 0.8471 0.0
H439 H 0.52698 0.30506 0.85921 0.0
H440 H 0.60199 0.26375 0.84163 0.0
H441 H 0.48454 0.22847 0.79632 0.0
H442 H 0.44479 0.2364 0.7713 0.0
H443 H 0.53436 0.26623 0.72669 0.0
H444 H 0.57499 0.25896 0.75157 0.0
H445 H 0.55759 0.09654 0.79926 0.0
H446 H 0.55126 0.14289 0.81237 0.0
H447 H 0.63092 0.21034 0.7669 0.0
H448 H 0.63924 0.16501 0.75428 0.0
H449 H 0.5546 0.20084 0.76839 0.0
H450 H 0.67095 0.23437 0.81476 0.0
H451 H 0.70757 0.22366 0.84003 0.0
H452 H 0.61516 0.19328 0.88298 0.0
H453 H 0.57762 0.2033 0.85781 0.0
C454 C 0.57296 0.33889 0.8146 0.0
C455 C 0.55374 0.3362 0.83305 0.0
C456 C 0.5792 0.31371 0.80795 0.0
C457 C 0.56569 0.28479 0.81934 0.0
C458 C 0.5471 0.28229 0.83795 0.0
C459 C 0.5412 0.3077 0.84474 0.0
C460 C 0.57094 0.25719 0.81182 0.0
C461 C 0.59108 0.24967 0.82569 0.0
C462 C 0.55738 0.23912 0.79091 0.0
C463 C 0.53303 0.24352 0.7759 0.0
C464 C 0.49594 0.237 0.78124 0.0
C465 C 0.47322 0.24133 0.76707 0.0
C466 C 0.4871 0.25191 0.74744 0.0
C467 C 0.52368 0.25809 0.74192 0.0
C468 C 0.54655 0.25384 0.75604 0.0
C469 C 0.57452 0.12147 0.79226 0.0
C470 C 0.59905 0.12686 0.77567 0.0
C471 C 0.57058 0.14785 0.79971 0.0
C472 C 0.59069 0.18005 0.79063 0.0
C473 C 0.61501 0.18558 0.77406 0.0
C474 C 0.61948 0.15946 0.76679 0.0
C475 C 0.58563 0.20762 0.79818 0.0
C476 C 0.56547 0.21502 0.78431 0.0
C477 C 0.59867 0.22519 0.81913 0.0
C478 C 0.62123 0.21922 0.8343 0.0
C479 C 0.65821 0.22508 0.82951 0.0
C480 C 0.67918 0.2192 0.84383 0.0
C481 C 0.66364 0.20769 0.86307 0.0
C482 C 0.62713 0.20213 0.86805 0.0
C483 C 0.60601 0.20794 0.85377 0.0
H484 H 0.67993 0.20317 0.87414 0.0
H485 H 0.46946 0.25523 0.73649 0.0
H486 H 0.6222 0.91227 0.55242 0.0
H487 H 0.61102 0.85755 0.56143 0.0
H488 H 0.63463 0.83784 0.49873 0.0
H489 H 0.64625 0.89255 0.48977 0.0
H490 H 0.56426 0.7748 0.51401 0.0
H491 H 0.71005 0.87628 0.53575 0.0
H492 H 0.76684 0.93572 0.55559 0.0
H493 H 0.71882 0.89464 0.61371 0.0
H494 H 0.66134 0.83507 0.59415 0.0
H495 H 0.62263 0.66366 0.51438 0.0
H496 H 0.61791 0.71241 0.51208 0.0
H497 H 0.61379 0.72307 0.57936 0.0
H498 H 0.61924 0.67423 0.58162 0.0
H499 H 0.66586 0.78831 0.5665 0.0
H500 H 0.52586 0.68474 0.54588 0.0
H501 H 0.46767 0.62514 0.52679 0.0
H502 H 0.50102 0.66875 0.46807 0.0
H503 H 0.55983 0.72851 0.48677 0.0
C504 C 0.6245 0.89596 0.54054 0.0
C505 C 0.63521 0.90661 0.52043 0.0
C506 C 0.6183 0.86487 0.54571 0.0
C507 C 0.62217 0.84376 0.53076 0.0
C508 C 0.63147 0.85374 0.51048 0.0
C509 C 0.63829 0.88504 0.50542 0.0
C510 C 0.61829 0.81204 0.53631 0.0
C511 C 0.58652 0.77768 0.52541 0.0
C512 C 0.64647 0.81569 0.55174 0.0
C513 C 0.68113 0.85139 0.56348 0.0
C514 C 0.71139 0.88003 0.55274 0.0
C515 C 0.74374 0.91372 0.56394 0.0
C516 C 0.74636 0.91899 0.5859 0.0
C517 C 0.7167 0.89054 0.5967 0.0
C518 C 0.68424 0.85681 0.58557 0.0
C519 C 0.62051 0.67635 0.52864 0.0
C520 C 0.6211 0.66538 0.54814 0.0
C521 C 0.61757 0.70403 0.52732 0.0
C522 C 0.61475 0.72106 0.5455 0.0
C523 C 0.61565 0.71019 0.56511 0.0
C524 C 0.61868 0.68236 0.56642 0.0
C525 C 0.61239 0.75098 0.54378 0.0
C526 C 0.64301 0.78509 0.55537 0.0
C527 C 0.58283 0.74701 0.52912 0.0
C528 C 0.54748 0.71109 0.51774 0.0
C529 C 0.521 0.68157 0.52888 0.0
C530 C 0.48786 0.64776 0.51813 0.0
C531 C 0.48069 0.64315 0.49623 0.0
C532 C 0.50662 0.67236 0.48503 0.0
C533 C 0.53984 0.70623 0.49571 0.0
H534 H 0.45501 0.61695 0.48793 0.0
H535 H 0.77143 0.94509 0.59454 0.0
H536 H 0.74564 0.60288 0.84705 0.0
H537 H 0.80549 0.60274 0.84869 0.0
H538 H 0.72504 0.49133 0.86018 0.0
H539 H 0.66515 0.49163 0.8589 0.0
H540 H 0.79443 0.52166 0.88336 0.0
H541 H 0.77131 0.5244 0.81018 0.0
H542 H 0.76246 0.54757 0.7793 0.0
H543 H 0.88462 0.64948 0.79591 0.0
H544 H 0.89399 0.62706 0.82706 0.0
H545 H 0.94516 0.49203 0.86993 0.0
H546 H 0.88434 0.4905 0.86521 0.0
H547 H 0.96464 0.60129 0.85252 0.0
H548 H 1.02544 0.60227 0.8567 0.0
H549 H 0.89526 0.57125 0.82965 0.0
H550 H 0.91863 0.56929 0.90276 0.0
H551 H 0.92809 0.54683 0.93383 0.0
H552 H 0.80603 0.44456 0.91781 0.0
H553 H 0.79609 0.46624 0.88646 0.0
C554 C 0.7403 0.57814 0.84986 0.0
C555 C 0.69945 0.5472 0.85265 0.0
C556 C 0.77507 0.57798 0.85067 0.0
C557 C 0.77104 0.5468 0.8542 0.0
C558 C 0.73027 0.51601 0.85732 0.0
C559 C 0.69544 0.51614 0.85647 0.0
C560 C 0.8088 0.54639 0.85489 0.0
C561 C 0.81589 0.53209 0.87132 0.0
C562 C 0.83867 0.56065 0.83977 0.0
C563 C 0.83317 0.57418 0.82106 0.0
C564 C 0.79617 0.55184 0.80733 0.0
C565 C 0.79107 0.56482 0.78977 0.0
C566 C 0.82291 0.60001 0.78568 0.0
C567 C 0.85996 0.62225 0.79912 0.0
C568 C 0.86519 0.60941 0.81672 0.0
C569 C 0.94991 0.51582 0.86549 0.0
C570 C 0.99085 0.54688 0.86307 0.0
C571 C 0.91475 0.51523 0.86318 0.0
C572 C 0.91862 0.54605 0.8589 0.0
C573 C 0.95948 0.57682 0.85582 0.0
C574 C 0.9947 0.57731 0.85803 0.0
C575 C 0.88082 0.54642 0.85809 0.0
C576 C 0.87376 0.56076 0.84166 0.0
C577 C 0.85104 0.53232 0.87327 0.0
C578 C 0.8568 0.51927 0.89215 0.0
C579 C 0.89392 0.54193 0.90579 0.0
C580 C 0.89936 0.52935 0.92346 0.0
C581 C 0.86772 0.49426 0.92776 0.0
C582 C 0.83054 0.47171 0.91444 0.0
C583 C 0.82498 0.48414 0.89672 0.0
H584 H 0.87199 0.48457 0.94145 0.0
H585 H 0.8189 0.61001 0.77208 0.0
H586 H 0.17127 0.69708 0.18645 0.0
H587 H 0.23364 0.75991 0.18809 0.0
H588 H 0.28568 0.72787 0.14327 0.0
H589 H 0.22323 0.66443 0.14167 0.0
H590 H 0.34408 0.77697 0.17482 0.0
H591 H 0.24567 0.76877 0.12799 0.0
H592 H 0.17814 0.75331 0.11572 0.0
H593 H 0.19217 0.82525 0.16753 0.0
H594 H 0.25953 0.84074 0.18031 0.0
H595 H 0.50782 0.96287 0.1633 0.0
H596 H 0.44614 0.89909 0.15399 0.0
H597 H 0.38159 0.91253 0.20105 0.0
H598 H 0.44293 0.9761 0.21034 0.0
H599 H 0.33082 0.87228 0.16386 0.0
H600 H 0.42647 0.87557 0.21199 0.0
H601 H 0.49411 0.89085 0.22384 0.0
H602 H 0.48525 0.82791 0.16821 0.0
H603 H 0.41778 0.8127 0.15588 0.0
C604 C 0.19587 0.70318 0.1769 0.0
C605 C 0.19195 0.6755 0.16383 0.0
C606 C 0.23155 0.7393 0.1778 0.0
C607 C 0.26415 0.74881 0.16554 0.0
C608 C 0.26086 0.72124 0.1528 0.0
C609 C 0.22507 0.68496 0.15189 0.0
C610 C 0.30158 0.78756 0.16627 0.0
C611 C 0.34123 0.79771 0.17202 0.0
C612 C 0.29797 0.8148 0.16287 0.0
C613 C 0.25753 0.8057 0.1552 0.0
C614 C 0.23422 0.78109 0.13686 0.0
C615 C 0.19599 0.77236 0.1298 0.0
C616 C 0.18083 0.78824 0.14086 0.0
C617 C 0.20393 0.81295 0.15898 0.0
C618 C 0.24217 0.82175 0.16613 0.0
C619 C 0.48022 0.95231 0.17141 0.0
C620 C 0.48026 0.97441 0.18762 0.0
C621 C 0.44512 0.91584 0.16618 0.0
C622 C 0.40937 0.90092 0.17697 0.0
C623 C 0.40881 0.92338 0.19255 0.0
C624 C 0.44394 0.95965 0.19791 0.0
C625 C 0.37305 0.86165 0.17276 0.0
C626 C 0.33364 0.85144 0.16638 0.0
C627 C 0.37692 0.83437 0.17546 0.0
C628 C 0.41735 0.84337 0.18289 0.0
C629 C 0.43912 0.86525 0.2022 0.0
C630 C 0.4774 0.87386 0.20902 0.0
C631 C 0.49403 0.86046 0.19675 0.0
C632 C 0.47236 0.83834 0.17767 0.0
C633 C 0.4341 0.82971 0.17076 0.0
H634 H 0.52366 0.86713 0.20206 0.0
H635 H 0.15122 0.78144 0.13536 0.0
H636 H 0.61247 0.27668 0.4693 0.0
H637 H 0.61917 0.33067 0.48198 0.0
H638 H 0.53161 0.27211 0.52723 0.0
H639 H 0.52452 0.21801 0.51451 0.0
H640 H 0.51608 0.31245 0.5064 0.0
H641 H 0.63268 0.32983 0.5432 0.0
H642 H 0.69584 0.33398 0.5458 0.0
H643 H 0.7573 0.42273 0.50921 0.0
H644 H 0.69424 0.41876 0.50613 0.0
H645 H 0.5512 0.45803 0.57298 0.0
H646 H 0.54453 0.40489 0.55879 0.0
H647 H 0.64398 0.46986 0.51996 0.0
H648 H 0.65239 0.52358 0.53491 0.0
H649 H 0.65367 0.42644 0.53636 0.0
H650 H 0.53919 0.41077 0.49966 0.0
H651 H 0.47617 0.40669 0.4958 0.0
H652 H 0.41087 0.31535 0.53036 0.0
H653 H 0.47371 0.31919 0.53468 0.0
C654 C 0.5944 0.27525 0.48183 0.0
C655 C 0.56811 0.24314 0.49097 0.0
C656 C 0.59845 0.30616 0.48915 0.0
C657 C 0.57614 0.30549 0.50567 0.0
C658 C 0.54919 0.27325 0.5145 0.0
C659 C 0.5454 0.24246 0.50732 0.0
C660 C 0.58123 0.33849 0.51397 0.0
C661 C 0.54605 0.33728 0.51317 0.0
C662 C 0.62055 0.37114 0.52228 0.0
C663 C 0.65859 0.37375 0.52425 0.0
C664 C 0.65954 0.35004 0.53556 0.0
C665 C 0.69535 0.35239 0.53715 0.0
C666 C 0.73052 0.37853 0.52763 0.0
C667 C 0.73001 0.40245 0.51655 0.0
C668 C 0.69426 0.40018 0.51489 0.0
C669 C 0.57203 0.4612 0.5616 0.0
C670 C 0.60228 0.49523 0.55507 0.0
C671 C 0.5678 0.43061 0.55328 0.0
C672 C 0.59327 0.43315 0.53801 0.0
C673 C 0.62377 0.46711 0.53162 0.0
C674 C 0.62825 0.49778 0.54005 0.0
C675 C 0.58842 0.4005 0.52889 0.0
C676 C 0.62366 0.40173 0.52953 0.0
C677 C 0.54918 0.36794 0.52026 0.0
C678 C 0.5113 0.36549 0.51766 0.0
C679 C 0.51149 0.38998 0.50658 0.0
C680 C 0.47579 0.38768 0.50428 0.0
C681 C 0.43958 0.36083 0.51288 0.0
C682 C 0.43896 0.33616 0.52374 0.0
C683 C 0.4746 0.33837 0.52609 0.0
H684 H 0.41196 0.35909 0.51109 0.0
H685 H 0.75821 0.38031 0.52887 0.0
H686 H 0.51503 0.60279 0.85482 0.0
H687 H 0.4568 0.60474 0.85725 0.0
H688 H 0.37101 0.48834 0.85365 0.0
H689 H 0.4298 0.48672 0.85258 0.0
H690 H 0.33838 0.50685 0.87665 0.0
H691 H 0.41281 0.64298 0.84555 0.0
H692 H 0.46661 0.68199 0.82233 0.0
H693 H 0.44355 0.58855 0.7874 0.0
H694 H 0.38939 0.54898 0.81029 0.0
H695 H 0.19699 0.54908 0.89275 0.0
H696 H 0.25762 0.54959 0.89237 0.0
H697 H 0.252 0.54713 0.82499 0.0
H698 H 0.19215 0.54741 0.82554 0.0
H699 H 0.32935 0.58717 0.83662 0.0
H700 H 0.21967 0.46988 0.85466 0.0
H701 H 0.16342 0.42569 0.87515 0.0
H702 H 0.25054 0.47267 0.93052 0.0
H703 H 0.30723 0.51741 0.9104 0.0
C704 C 0.48383 0.57744 0.8545 0.0
C705 C 0.47808 0.54455 0.85337 0.0
C706 C 0.4498 0.5785 0.85567 0.0
C707 C 0.40776 0.54661 0.85508 0.0
C708 C 0.40219 0.51376 0.85412 0.0
C709 C 0.43635 0.51277 0.85339 0.0
C710 C 0.37014 0.54731 0.85563 0.0
C711 C 0.33696 0.52469 0.86785 0.0
C712 C 0.36608 0.56978 0.84412 0.0
C713 C 0.39732 0.5931 0.82974 0.0
C714 C 0.41902 0.63076 0.83281 0.0
C715 C 0.44965 0.65296 0.81975 0.0
C716 C 0.45859 0.63777 0.80345 0.0
C717 C 0.43669 0.60029 0.80007 0.0
C718 C 0.40603 0.57796 0.81308 0.0
C719 C 0.20859 0.54865 0.87782 0.0
C720 C 0.18889 0.54812 0.85917 0.0
C721 C 0.24357 0.54866 0.87753 0.0
C722 C 0.26044 0.54784 0.85856 0.0
C723 C 0.24081 0.54779 0.84001 0.0
C724 C 0.20597 0.54781 0.84031 0.0
C725 C 0.29796 0.54707 0.85787 0.0
C726 C 0.33098 0.56955 0.84553 0.0
C727 C 0.3015 0.52398 0.86894 0.0
C728 C 0.26756 0.49721 0.88108 0.0
C729 C 0.22675 0.47093 0.87124 0.0
C730 C 0.19481 0.44577 0.88278 0.0
C731 C 0.20338 0.44644 0.90414 0.0
C732 C 0.24394 0.47222 0.91399 0.0
C733 C 0.27599 0.49747 0.90252 0.0
H734 H 0.17861 0.42693 0.91305 0.0
H735 H 0.48245 0.65503 0.79342 0.0
H736 H 0.99372 0.42911 0.14787 0.0
H737 H 0.93171 0.36787 0.15191 0.0
H738 H 0.86864 0.41038 0.17314 0.0
H739 H 0.93082 0.47159 0.16976 0.0
H740 H 0.85355 0.36361 0.19696 0.0
H741 H 0.84605 0.36221 0.12236 0.0
H742 H 0.87112 0.36987 0.08714 0.0
H743 H 0.88801 0.28962 0.09259 0.0
H744 H 0.86354 0.28182 0.12798 0.0
H745 H 0.64703 0.1929 0.18479 0.0
H746 H 0.71021 0.25488 0.18247 0.0
H747 H 0.77751 0.21393 0.16735 0.0
H748 H 0.71414 0.15198 0.16946 0.0
H749 H 0.79003 0.25975 0.1406 0.0
H750 H 0.79452 0.26136 0.216 0.0
H751 H 0.7667 0.25421 0.2505 0.0
H752 H 0.75167 0.33493 0.24229 0.0
H753 H 0.77887 0.34221 0.2076 0.0
C754 C 0.96653 0.42538 0.15323 0.0
C755 C 0.96735 0.45534 0.15847 0.0
C756 C 0.93095 0.39027 0.15549 0.0
C757 C 0.89506 0.38422 0.16262 0.0
C758 C 0.8958 0.41415 0.16768 0.0
C759 C 0.93147 0.44924 0.16567 0.0
C760 C 0.85708 0.34693 0.16526 0.0
C761 C 0.8394 0.34105 0.1845 0.0
C762 C 0.83871 0.31714 0.1492 0.0
C763 C 0.85337 0.32171 0.12791 0.0
C764 C 0.85541 0.3464 0.11611 0.0
C765 C 0.86946 0.35073 0.09611 0.0
C766 C 0.88126 0.33032 0.08766 0.0
C767 C 0.87892 0.30545 0.09917 0.0
C768 C 0.86493 0.30104 0.1192 0.0
C769 C 0.6756 0.19737 0.18134 0.0
C770 C 0.67615 0.16801 0.17753 0.0
C771 C 0.71166 0.23273 0.18001 0.0
C772 C 0.74886 0.23923 0.17488 0.0
C773 C 0.74931 0.20969 0.17135 0.0
C774 C 0.71326 0.17439 0.17269 0.0
C775 C 0.78675 0.27649 0.1723 0.0
C776 C 0.80431 0.28236 0.15305 0.0
C777 C 0.8046 0.30635 0.18823 0.0
C778 C 0.78835 0.30206 0.20911 0.0
C779 C 0.78497 0.27737 0.22148 0.0
C780 C 0.76937 0.27334 0.24108 0.0
C781 C 0.75732 0.29404 0.24856 0.0
C782 C 0.76095 0.31888 0.23647 0.0
C783 C 0.77649 0.32299 0.21684 0.0
H784 H 0.74526 0.29087 0.26374 0.0
H785 H 0.89213 0.33371 0.07217 0.0
H786 H 0.07785 0.63043 0.10125 0.0
H787 H 0.08475 0.6287 0.06334 0.0
H788 H 0.06407 0.52739 0.06241 0.0
H789 H 0.05673 0.52882 0.10021 0.0
H790 H 0.1286 0.57463 0.03911 0.0
H791 H 0.98632 0.52648 0.04529 0.0
H792 H 0.93008 0.52664 0.05814 0.0
H793 H 0.97798 0.62323 0.03033 0.0
H794 H 1.0349 0.62393 0.01755 0.0
H795 H 0.07961 0.51875 0.92756 0.0
H796 H 0.08322 0.52458 0.96612 0.0
H797 H 0.08664 0.6178 0.96706 0.0
H798 H 0.08176 0.61128 0.92862 0.0
H799 H 1.03179 0.57452 0.99083 0.0
H800 H 0.17358 0.6226 0.98386 0.0
H801 H 0.23017 0.62289 0.97108 0.0
H802 H 0.18475 0.52799 0.00024 0.0
H803 H 0.1275 0.52683 0.01295 0.0
C804 C 0.07485 0.60784 0.09295 0.0
C805 C 0.06677 0.57978 0.10367 0.0
C806 C 0.07878 0.60686 0.07131 0.0
C807 C 0.0747 0.57779 0.06 0.0
C808 C 0.06744 0.55011 0.0708 0.0
C809 C 0.0632 0.55095 0.09239 0.0
C810 C 0.07676 0.5757 0.03683 0.0
C811 C 0.10721 0.57425 0.02849 0.0
C812 C 0.04934 0.57586 0.02302 0.0
C813 C 1.01512 0.57547 0.03066 0.0
C814 C 0.98507 0.54793 0.04207 0.0
C815 C 0.95304 0.54783 0.04931 0.0
C816 C 0.95053 0.57499 0.04511 0.0
C817 C 0.98 0.60225 0.0336 0.0
C818 C 1.01214 0.6025 0.02635 0.0
C819 C 0.08191 0.54084 0.93608 0.0
C820 C 0.0803 0.5645 0.92514 0.0
C821 C 0.08402 0.54422 0.95813 0.0
C822 C 0.08538 0.57177 0.96963 0.0
C823 C 0.08537 0.5962 0.95863 0.0
C824 C 0.08272 0.59254 0.93667 0.0
C825 C 0.08411 0.57395 0.99293 0.0
C826 C 0.05351 0.57517 0.00135 0.0
C827 C 0.11155 0.57374 0.00676 0.0
C828 C 0.14599 0.57442 -0.00083 0.0
C829 C 0.17545 0.60162 0.9874 0.0
C830 C 0.20768 0.60197 0.9802 0.0
C831 C 0.21098 0.57541 0.9848 0.0
C832 C 0.18211 0.54851 -0.00334 0.0
C833 C 0.14979 0.54801 0.00388 0.0
H834 H 0.23596 0.57573 0.97921 0.0
H835 H 0.92569 0.57486 0.05072 0.0
H836 H 0.70131 0.11987 0.42234 0.0
H837 H 0.69688 0.12695 0.38529 0.0
H838 H 0.56225 0.05348 0.38227 0.0
H839 H 0.5667 0.04747 0.41958 0.0
H840 H 0.66888 0.08135 0.35222 0.0
H841 H 0.5188 0.07045 0.34513 0.0
H842 H 0.48342 0.08755 0.36717 0.0
H843 H 0.60005 0.17194 0.40355 0.0
H844 H 0.63628 0.15582 0.3815 0.0
H845 H 0.57059 0.01583 0.25006 0.0
H846 H 0.58872 0.02878 0.28796 0.0
H847 H 0.62109 0.13454 0.28751 0.0
H848 H 0.60118 0.12104 0.24934 0.0
H849 H 0.57632 0.10333 0.31955 0.0
H850 H 0.6975 0.12596 0.29443 0.0
H851 H 0.73838 0.11443 0.27303 0.0
H852 H 0.69099 0.01907 0.30212 0.0
H853 H 0.64933 0.02972 0.32348 0.0
C854 C 0.67079 0.1055 0.41379 0.0
C855 C 0.63433 0.08304 0.42376 0.0
C856 C 0.66828 0.10951 0.39261 0.0
C857 C 0.62926 0.091 0.38095 0.0
C858 C 0.59276 0.06867 0.39098 0.0
C859 C 0.59528 0.06502 0.41226 0.0
C860 C 0.62677 0.09349 0.35805 0.0
C861 C 0.64882 0.08639 0.34514 0.0
C862 C 0.60155 0.10108 0.34877 0.0
C863 C 0.58019 0.11169 0.36173 0.0
C864 C 0.53696 0.09283 0.35772 0.0
C865 C 0.51675 0.10233 0.37024 0.0
C866 C 0.53946 0.13075 0.38678 0.0
C867 C 0.58248 0.14987 0.39077 0.0
C868 C 0.60287 0.14055 0.37826 0.0
C869 C 0.58138 0.04183 0.25798 0.0
C870 C 0.58413 0.06731 0.24667 0.0
C871 C 0.59217 0.04935 0.27966 0.0
C872 C 0.60669 0.08279 0.2906 0.0
C873 C 0.61003 0.10858 0.27939 0.0
C874 C 0.59903 0.10098 0.25757 0.0
C875 C 0.61733 0.08997 0.31379 0.0
C876 C 0.5968 0.09881 0.32673 0.0
C877 C 0.64489 0.08501 0.3232 0.0
C878 C 0.6701 0.07855 0.31048 0.0
C879 C 0.69559 0.1024 0.29617 0.0
C880 C 0.71893 0.09604 0.28406 0.0
C881 C 0.71724 0.06601 0.28619 0.0
C882 C 0.69227 0.04232 0.30048 0.0
C883 C 0.66883 0.04854 0.31262 0.0
H884 H 0.73533 0.06112 0.27679 0.0
H885 H 0.52373 0.13799 0.39649 0.0
H886 H 0.64203 0.5816 0.7969 0.0
H887 H 0.65196 0.59563 0.76046 0.0
H888 H 0.52106 0.50904 0.74214 0.0
H889 H 0.51073 0.49558 0.7784 0.0
H890 H 0.57785 0.50761 0.71739 0.0
H891 H 0.55144 0.58974 0.74548 0.0
H892 H 0.56596 0.63964 0.77066 0.0
H893 H 0.68929 0.71191 0.75133 0.0
H894 H 0.67572 0.66222 0.72625 0.0
H895 H 0.53929 0.51857 0.61439 0.0
H896 H 0.53589 0.5205 0.65246 0.0
H897 H 0.66219 0.62061 0.66219 0.0
H898 H 0.66497 0.61934 0.62385 0.0
H899 H 0.61596 0.61994 0.69224 0.0
H900 H 0.64436 0.5413 0.66395 0.0
H901 H 0.63373 0.4925 0.6394 0.0
H902 H 0.51304 0.41521 0.66026 0.0
H903 H 0.52261 0.46369 0.68468 0.0
C904 C 0.61533 0.56599 0.78514 0.0
C905 C 0.57559 0.53759 0.79047 0.0
C906 C 0.62105 0.57397 0.76437 0.0
C907 C 0.58719 0.55336 0.74867 0.0
C908 C 0.54755 0.52522 0.75405 0.0
C909 C 0.54173 0.51759 0.77476 0.0
C910 C 0.59294 0.55966 0.72637 0.0
C911 C 0.58582 0.53202 0.71185 0.0
C912 C 0.60485 0.59211 0.71936 0.0
C913 C 0.61273 0.62214 0.73415 0.0
C914 C 0.58179 0.61619 0.74672 0.0
C915 C 0.58983 0.64445 0.76096 0.0
C916 C 0.62858 0.67891 0.76265 0.0
C917 C 0.65931 0.68519 0.75004 0.0
C918 C 0.65145 0.65699 0.73579 0.0
C919 C 0.56593 0.54138 0.62467 0.0
C920 C 0.60247 0.56866 0.61631 0.0
C921 C 0.56408 0.54243 0.6464 0.0
C922 C 0.59917 0.57023 0.66021 0.0
C923 C 0.63483 0.59882 0.65185 0.0
C924 C 0.63642 0.59808 0.63 0.0
C925 C 0.59957 0.5673 0.68312 0.0
C926 C 0.60817 0.59559 0.69777 0.0
C927 C 0.58966 0.53562 0.69041 0.0
C928 C 0.58408 0.5062 0.67604 0.0
C929 C 0.61545 0.51393 0.66322 0.0
C930 C 0.60961 0.48633 0.64933 0.0
C931 C 0.5727 0.45079 0.64825 0.0
C932 C 0.5416 0.44276 0.66111 0.0
C933 C 0.54722 0.47029 0.67499 0.0
H934 H 0.56823 0.42946 0.63747 0.0
H935 H 0.63475 0.70076 0.77367 0.0
H936 H 0.66387 0.10659 0.54272 0.0
H937 H 0.66828 0.09943 0.57989 0.0
H938 H 0.53401 0.0324 0.57805 0.0
H939 H 0.52966 0.04018 0.54119 0.0
H940 H 0.56679 0.07973 0.61123 0.0
H941 H 0.585 0.99406 0.58245 0.0
H942 H 0.61485 0.97112 0.56075 0.0
H943 H 0.73678 0.05515 0.5926 0.0
H944 H 0.70733 0.0782 0.61488 0.0
H945 H 0.54315 0.01393 0.70867 0.0
H946 H 0.54344 0.01171 0.67023 0.0
H947 H 0.67527 0.1017 0.67774 0.0
H948 H 0.67477 0.10428 0.71621 0.0
H949 H 0.64517 0.04221 0.64212 0.0
H950 H 0.6193 0.12389 0.67264 0.0
H951 H 0.58208 0.13843 0.69508 0.0
H952 H 0.46609 0.05369 0.6583 0.0
H953 H 0.50256 0.03818 0.6359 0.0
C954 C 0.63536 0.09015 0.55026 0.0
C955 C 0.59646 0.07409 0.53915 0.0
C956 C 0.63785 0.08588 0.57146 0.0
C957 C 0.60143 0.06516 0.5818 0.0
C958 C 0.56256 0.04863 0.5705 0.0
C959 C 0.56011 0.05308 0.54942 0.0
C960 C 0.60372 0.06222 0.60463 0.0
C961 C 0.58354 0.07108 0.61785 0.0
C962 C 0.62598 0.05143 0.61348 0.0
C963 C 0.64407 0.03806 0.60013 0.0
C964 C 0.61823 0.00779 0.58473 0.0
C965 C 0.63507 0.99472 0.57234 0.0
C966 C 0.6778 0.01188 0.57508 0.0
C967 C 0.70371 0.04195 0.59042 0.0
C968 C 0.68692 0.0549 0.60303 0.0
C969 C 0.5723 0.03253 0.70202 0.0
C970 C 0.60898 0.05912 0.71517 0.0
C971 C 0.57247 0.03132 0.68015 0.0
C972 C 0.60939 0.0566 0.67121 0.0
C973 C 0.6466 0.08183 0.68436 0.0
C974 C 0.64629 0.08333 0.70624 0.0
C975 C 0.60802 0.05945 0.64842 0.0
C976 C 0.62852 0.05083 0.63534 0.0
C977 C 0.58535 0.06979 0.63957 0.0
C978 C 0.56359 0.07966 0.65273 0.0
C979 C 0.58582 0.10818 0.66944 0.0
C980 C 0.56486 0.11662 0.68214 0.0
C981 C 0.52173 0.09695 0.67814 0.0
C982 C 0.49949 0.06888 0.66139 0.0
C983 C 0.52028 0.06026 0.64869 0.0
H984 H 0.50556 0.10351 0.68799 0.0
H985 H 0.69076 1.00176 0.56539 0.0
H986 H 0.66364 0.56858 0.91667 0.0
H987 H 0.64982 0.53585 0.94718 0.0
H988 H 0.51803 0.48124 0.93458 0.0
H989 H 0.53152 0.51323 0.90397 0.0
H990 H 0.55111 0.5102 0.97798 0.0
H991 H 0.54762 0.43541 0.91974 0.0
H992 H 0.57711 0.42456 0.88991 0.0
H993 H 0.68144 0.45555 0.93128 0.0
H994 H 0.65276 0.46688 0.9614 0.0
H995 H 0.47246 0.34213 0.02769 0.0
H996 H 0.49258 0.37426 -0.00346 0.0
H997 H 0.59638 0.47215 0.03435 0.0
H998 H 0.57697 0.44007 0.06537 0.0
H999 H 0.57746 0.42073 0.97812 0.0
H1000 H 0.5815 0.53429 0.0208 0.0
H1001 H 0.55076 0.54419 0.05045 0.0
H1002 H 0.44097 0.43272 0.03864 0.0
H1003 H 0.47086 0.42234 0.00885 0.0
C1004 C 0.63183 0.5498 0.92056 0.0
C1005 C 0.59862 0.54339 0.90806 0.0
C1006 C 0.62397 0.53109 0.93789 0.0
C1007 C 0.58291 0.50616 0.94304 0.0
C1008 C 0.54991 0.50045 0.93086 0.0
C1009 C 0.55765 0.51866 0.91339 0.0
C1010 C 0.57395 0.48528 0.96086 0.0
C1011 C 0.55703 0.49077 0.97804 0.0
C1012 C 0.58135 0.45972 0.9608 0.0
C1013 C 0.59826 0.45234 0.94279 0.0
C1014 C 0.577 0.44015 0.92246 0.0
C1015 C 0.59353 0.43388 0.9055 0.0
C1016 C 0.6312 0.43953 0.90866 0.0
C1017 C 0.6523 0.45125 0.92884 0.0
C1018 C 0.63589 0.45754 0.94588 0.0
C1019 C 0.49992 0.37034 0.02921 0.0
C1020 C 0.52326 0.38867 0.04884 0.0
C1021 C 0.51148 0.38855 0.01146 0.0
C1022 C 0.54594 0.42547 0.01324 0.0
C1023 C 0.56982 0.44359 0.03271 0.0
C1024 C 0.55875 0.42526 0.05036 0.0
C1025 C 0.55491 0.44589 0.99521 0.0
C1026 C 0.57185 0.44037 0.97807 0.0
C1027 C 0.54729 0.47128 0.99519 0.0
C1028 C 0.52863 0.47748 0.01277 0.0
C1029 C 0.55075 0.51196 0.02452 0.0
C1030 C 0.53349 0.51764 0.04136 0.0
C1031 C 0.49402 0.48905 0.04651 0.0
C1032 C 0.47164 0.45479 0.03475 0.0
C1033 C 0.48876 0.44898 0.01791 0.0
H1034 H 0.48073 0.49348 0.05957 0.0
H1035 H 0.64396 0.43472 0.89549 0.0
H1036 H 0.05192 0.54998 0.21268 0.0
H1037 H 1.04636 0.54653 0.25035 0.0
H1038 H 0.16173 0.56147 0.25679 0.0
H1039 H 0.16583 0.56313 0.21872 0.0
H1040 H 0.10949 0.51262 0.27958 0.0
H1041 H 0.15366 0.63203 0.27151 0.0
H1042 H 0.14798 0.67493 0.25594 0.0
H1043 H 1.02724 0.6236 0.27806 0.0
H1044 H 1.03204 0.58015 0.29358 0.0
H1045 H 0.17554 0.58329 0.38759 0.0
H1046 H 0.16491 0.5709 0.34915 0.0
H1047 H 1.04117 0.53973 0.35041 0.0
H1048 H 0.05176 0.55199 0.3891 0.0
H1049 H 0.08967 0.59163 0.32377 0.0
H1050 H 0.04985 0.47638 0.33524 0.0
H1051 H 0.05628 0.43379 0.35057 0.0
H1052 H 0.17025 0.47817 0.32227 0.0
H1053 H 0.16485 0.52142 0.30701 0.0
C1054 C 0.07622 0.55301 0.22223 0.0
C1055 C 0.1096 0.55756 0.21296 0.0
C1056 C 0.07311 0.55099 0.24376 0.0
C1057 C 0.10413 0.55456 0.25661 0.0
C1058 C 0.13745 0.55878 0.24727 0.0
C1059 C 0.13997 0.55997 0.22558 0.0
C1060 C 0.10187 0.55387 0.27973 0.0
C1061 C 0.10565 0.53022 0.28926 0.0
C1062 C 0.09547 0.57595 0.29235 0.0
C1063 C 0.09308 0.60269 0.28356 0.0
C1064 C 0.12586 0.62985 0.273 0.0
C1065 C 0.12279 0.65425 0.26418 0.0
C1066 C 0.08723 0.65194 0.26597 0.0
C1067 C 0.05476 0.62534 0.27668 0.0
C1068 C 0.05766 0.60086 0.28552 0.0
C1069 C 0.14577 0.57308 0.37965 0.0
C1070 C 0.11442 0.56851 0.39122 0.0
C1071 C 0.13969 0.56595 0.35773 0.0
C1072 C 0.10222 0.55432 0.34692 0.0
C1073 C 0.07027 0.54862 0.35847 0.0
C1074 C 0.07619 0.55535 0.38051 0.0
C1075 C 0.09812 0.55092 0.32359 0.0
C1076 C 0.09317 0.57383 0.31404 0.0
C1077 C 0.10374 0.52838 0.31099 0.0
C1078 C 0.10709 0.50235 0.32011 0.0
C1079 C 0.07647 0.47728 0.33242 0.0
C1080 C 0.0799 0.45297 0.34108 0.0
C1081 C 0.1137 0.45332 0.33743 0.0
C1082 C 0.1441 0.47794 0.32509 0.0
C1083 C 0.14084 0.50233 0.31641 0.0
H1084 H 0.11629 0.43447 0.34414 0.0
H1085 H 0.08487 0.6708 0.25909 0.0
loop_
_geom_bond_atom_site_label_1
_geom_bond_atom_site_label_2
_geom_bond_distance
_geom_bond_site_symmetry_2
_ccdc_geom_bond_type
Gd0 C3 2.818 . S
Gd0 O20 2.377 . S
Gd0 O22 2.448 . S
Gd0 O23 2.506 . S
Gd0 O24 2.435 . S
Gd0 O25 2.717 . S
Gd0 O27 2.395 1_455 S
Gd0 O31 2.327 . S
Gd1 C12 2.818 1_455 S
Gd1 O21 2.395 . S
Gd1 O25 2.327 . S
Gd1 O26 2.377 1_455 S
Gd1 O28 2.448 1_455 S
Gd1 O29 2.506 1_455 S
Gd1 O30 2.435 . S
Gd1 O31 2.717 . S
C2 O20 1.240 . S
C2 O21 1.240 . S
C3 Gd0 2.818 . S
C3 C4 1.510 . S
C3 O22 1.249 . S
C3 O23 1.252 . S
C4 C3 1.510 . S
C4 C5 1.404 . S
C4 C6 1.352 . S
C5 C4 1.404 . S
C5 C9 1.389 . S
C5 H32 0.930 . S
C6 C4 1.352 . S
C6 C8 1.374 . S
C6 H33 0.931 . S
C7 C8 1.359 . S
C7 C9 1.364 . S
C8 C6 1.374 . S
C8 C7 1.359 . S
C8 H34 0.931 . S
C9 C5 1.389 . S
C9 C7 1.364 . S
C9 H35 0.931 . S
C10 O24 1.256 . S
C10 O25 1.257 . S
C11 O26 1.240 . S
C11 O27 1.240 . S
C12 Gd1 2.818 1_655 S
C12 C13 1.510 . S
C12 O28 1.249 . S
C12 O29 1.252 . S
C13 C12 1.510 . S
C13 C14 1.404 . S
C13 C15 1.352 . S
C14 C13 1.404 . S
C14 C18 1.389 . S
C14 H36 0.930 . S
C15 C13 1.352 . S
C15 C17 1.374 . S
C15 H37 0.931 . S
C16 C17 1.359 . S
C16 C18 1.364 . S
C17 C15 1.374 . S
C17 C16 1.359 . S
C17 H38 0.931 . S
C18 C14 1.389 . S
C18 C16 1.364 . S
C18 H39 0.931 . S
C19 O30 1.256 . S
C19 O31 1.257 . S
O20 Gd0 2.377 . S
O20 C2 1.240 . S
O21 Gd1 2.395 . S
O21 C2 1.240 . S
O22 Gd0 2.448 . S
O22 C3 1.249 . S
O23 Gd0 2.506 . S
O23 C3 1.252 . S
O24 Gd0 2.435 . S
O24 C10 1.256 . S
O25 Gd0 2.717 . S
O25 Gd1 2.327 . S
O25 C10 1.257 . S
O26 Gd1 2.377 1_655 S
O26 C11 1.240 . S
O27 Gd0 2.395 1_655 S
O27 C11 1.240 . S
O28 Gd1 2.448 1_655 S
O28 C12 1.249 . S
O29 Gd1 2.506 1_655 S
O29 C12 1.252 . S
O30 Gd1 2.435 . S
O30 C19 1.256 . S
O31 Gd0 2.327 . S
O31 Gd1 2.717 . S
O31 C19 1.257 . S
H32 C5 0.930 . S
H33 C6 0.931 . S
H34 C8 0.931 . S
H35 C9 0.931 . S
H36 C14 0.930 . S
H37 C15 0.931 . S
H38 C17 0.931 . S
H39 C18 0.931 . S
Gd40 C43 2.818 1_545 S
Gd40 O60 2.377 1_545 S
Gd40 O62 2.448 1_545 S
Gd40 O63 2.506 1_545 S
Gd40 O64 2.435 . S
Gd40 O65 2.717 . S
Gd40 O67 2.395 . S
Gd40 O71 2.327 . S
Gd41 C52 2.818 . S
Gd41 O61 2.395 1_545 S
Gd41 O65 2.327 . S
Gd41 O66 2.377 . S
Gd41 O68 2.448 . S
Gd41 O69 2.506 . S
Gd41 O70 2.435 . S
Gd41 O71 2.717 . S
C42 O60 1.240 . S
C42 O61 1.240 . S
C43 Gd40 2.818 1_565 S
C43 C44 1.510 . S
C43 O62 1.249 . S
C43 O63 1.252 . S
C44 C43 1.510 . S
C44 C45 1.404 . S
C44 C46 1.352 . S
C45 C44 1.404 . S
C45 C49 1.389 . S
C45 H72 0.930 . S
C46 C44 1.352 . S
C46 C48 1.374 . S
C46 H73 0.931 . S
C47 C48 1.359 . S
C47 C49 1.364 . S
C48 C46 1.374 . S
C48 C47 1.359 . S
C48 H74 0.931 . S
C49 C45 1.389 . S
C49 C47 1.364 . S
C49 H75 0.931 . S
C50 O64 1.256 . S
C50 O65 1.257 . S
C51 O66 1.240 . S
C51 O67 1.240 . S
C52 Gd41 2.818 . S
C52 C53 1.510 . S
C52 O68 1.249 . S
C52 O69 1.252 . S
C53 C52 1.510 . S
C53 C54 1.404 . S
C53 C55 1.352 . S
C54 C53 1.404 . S
C54 C58 1.389 . S
C54 H76 0.930 . S
C55 C53 1.352 . S
C55 C57 1.374 . S
C55 H77 0.931 . S
C56 C57 1.359 . S
C56 C58 1.364 . S
C57 C55 1.374 . S
C57 C56 1.359 . S
C57 H78 0.931 . S
C58 C54 1.389 . S
C58 C56 1.364 . S
C58 H79 0.931 . S
C59 O70 1.256 . S
C59 O71 1.257 . S
O60 Gd40 2.377 1_565 S
O60 C42 1.240 . S
O61 Gd41 2.395 1_565 S
O61 C42 1.240 . S
O62 Gd40 2.448 1_565 S
O62 C43 1.249 . S
O63 Gd40 2.506 1_565 S
O63 C43 1.252 . S
O64 Gd40 2.435 . S
O64 C50 1.256 . S
O65 Gd40 2.717 . S
O65 Gd41 2.327 . S
O65 C50 1.257 . S
O66 Gd41 2.377 . S
O66 C51 1.240 . S
O67 Gd40 2.395 . S
O67 C51 1.240 . S
O68 Gd41 2.448 . S
O68 C52 1.249 . S
O69 Gd41 2.506 . S
O69 C52 1.252 . S
O70 Gd41 2.435 . S
O70 C59 1.256 . S
O71 Gd40 2.327 . S
O71 Gd41 2.717 . S
O71 C59 1.257 . S
H72 C45 0.930 . S
H73 C46 0.931 . S
H74 C48 0.931 . S
H75 C49 0.931 . S
H76 C54 0.930 . S
H77 C55 0.931 . S
H78 C57 0.931 . S
H79 C58 0.931 . S
Gd80 C83 2.818 . S
Gd80 O100 2.377 . S
Gd80 O102 2.448 . S
Gd80 O103 2.506 . S
Gd80 O104 2.435 . S
Gd80 O105 2.717 . S
Gd80 O107 2.395 . S
Gd80 O111 2.327 . S
Gd81 C92 2.818 . S
Gd81 O101 2.395 . S
Gd81 O105 2.327 . S
Gd81 O106 2.377 . S
Gd81 O108 2.448 . S
Gd81 O109 2.506 . S
Gd81 O110 2.435 . S
Gd81 O111 2.717 . S
C82 O100 1.240 . S
C82 O101 1.240 . S
C83 Gd80 2.818 . S
C83 C84 1.510 . S
C83 O102 1.249 . S
C83 O103 1.252 . S
C84 C83 1.510 . S
C84 C85 1.404 . S
C84 C86 1.352 . S
C85 C84 1.404 . S
C85 C89 1.389 . S
C85 H112 0.930 . S
C86 C84 1.352 . S
C86 C88 1.374 . S
C86 H113 0.931 . S
C87 C88 1.359 . S
C87 C89 1.364 . S
C88 C86 1.374 . S
C88 C87 1.359 . S
C88 H114 0.931 . S
C89 C85 1.389 . S
C89 C87 1.364 . S
C89 H115 0.931 . S
C90 O104 1.256 . S
C90 O105 1.257 . S
C91 O106 1.240 . S
C91 O107 1.240 . S
C92 Gd81 2.818 . S
C92 C93 1.510 . S
C92 O108 1.249 . S
C92 O109 1.252 . S
C93 C92 1.510 . S
C93 C94 1.404 . S
C93 C95 1.352 . S
C94 C93 1.404 . S
C94 C98 1.389 . S
C94 H116 0.930 . S
C95 C93 1.352 . S
C95 C97 1.374 . S
C95 H117 0.931 . S
C96 C97 1.359 . S
C96 C98 1.364 . S
C97 C95 1.374 . S
C97 C96 1.359 . S
C97 H118 0.931 . S
C98 C94 1.389 . S
C98 C96 1.364 . S
C98 H119 0.931 . S
C99 O110 1.256 . S
C99 O111 1.257 . S
O100 Gd80 2.377 . S
O100 C82 1.240 . S
O101 Gd81 2.395 . S
O101 C82 1.240 . S
O102 Gd80 2.448 . S
O102 C83 1.249 . S
O103 Gd80 2.506 . S
O103 C83 1.252 . S
O104 Gd80 2.435 . S
O104 C90 1.256 . S
O105 Gd80 2.717 . S
O105 Gd81 2.327 . S
O105 C90 1.257 . S
O106 Gd81 2.377 . S
O106 C91 1.240 . S
O107 Gd80 2.395 . S
O107 C91 1.240 . S
O108 Gd81 2.448 . S
O108 C92 1.249 . S
O109 Gd81 2.506 . S
O109 C92 1.252 . S
O110 Gd81 2.435 . S
O110 C99 1.256 . S
O111 Gd80 2.327 . S
O111 Gd81 2.717 . S
O111 C99 1.257 . S
H112 C85 0.930 . S
H113 C86 0.931 . S
H114 C88 0.931 . S
H115 C89 0.931 . S
H116 C94 0.930 . S
H117 C95 0.931 . S
H118 C97 0.931 . S
H119 C98 0.931 . S
H120 C123 0.928 1_565 S
H121 C126 0.929 . S
H122 C128 0.930 . S
C123 H120 0.928 1_545 S
C123 C124 1.398 . S
C123 C125 1.396 . S
C124 C123 1.398 . S
C124 C128 1.407 . S
C125 C123 1.396 . S
C125 C126 1.394 . S
C126 H121 0.929 . S
C126 C125 1.394 . S
C126 C127 1.382 . S
C127 C126 1.382 . S
C127 C128 1.392 . S
C127 N129 1.420 . S
C128 H122 0.930 . S
C128 C124 1.407 . S
C128 C127 1.392 . S
N129 C127 1.420 . S
N129 C130 1.244 . S
C130 N129 1.244 . S
H131 C134 0.929 . S
H132 C137 0.929 . S
H133 C139 0.930 . S
C134 H131 0.929 . S
C134 C135 1.398 . S
C134 C136 1.396 . S
C135 C134 1.398 . S
C135 C139 1.407 . S
C136 C134 1.396 . S
C136 C137 1.394 . S
C137 H132 0.929 . S
C137 C136 1.394 . S
C137 C138 1.382 . S
C138 C137 1.382 . S
C138 C139 1.392 . S
C138 N140 1.420 . S
C139 H133 0.930 . S
C139 C135 1.407 . S
C139 C138 1.392 . S
N140 C138 1.420 . S
N140 C141 1.244 . S
C141 N140 1.244 . S
H142 C145 0.929 . S
H143 C148 0.929 . S
H144 C150 0.930 . S
C145 H142 0.929 . S
C145 C146 1.398 . S
C145 C147 1.396 . S
C146 C145 1.398 . S
C146 C150 1.407 . S
C147 C145 1.396 . S
C147 C148 1.394 . S
C148 H143 0.929 . S
C148 C147 1.394 . S
C148 C149 1.382 . S
C149 C148 1.382 . S
C149 C150 1.392 . S
C149 N151 1.420 . S
C150 H144 0.930 . S
C150 C146 1.407 . S
C150 C149 1.392 . S
N151 C149 1.420 . S
N151 C152 1.244 . S
C152 N151 1.244 . S
H153 C156 0.929 . S
H154 C159 0.929 . S
H155 C161 0.930 . S
C156 H153 0.929 . S
C156 C157 1.398 . S
C156 C158 1.396 . S
C157 C156 1.398 . S
C157 C161 1.407 . S
C158 C156 1.396 . S
C158 C159 1.394 1_455 S
C159 H154 0.929 . S
C159 C158 1.394 1_655 S
C159 C160 1.382 . S
C160 C159 1.382 . S
C160 C161 1.392 1_655 S
C160 N162 1.420 . S
C161 H155 0.930 . S
C161 C157 1.407 . S
C161 C160 1.392 1_455 S
N162 C160 1.420 . S
N162 C163 1.244 . S
C163 N162 1.244 . S
H164 C167 0.929 . S
H165 C170 0.931 . S
H166 C172 0.930 . S
C167 H164 0.929 . S
C167 C168 1.398 . S
C167 C169 1.396 . S
C168 C167 1.398 . S
C168 C172 1.407 . S
C169 C167 1.396 . S
C169 C170 1.394 . S
C170 H165 0.931 . S
C170 C169 1.394 . S
C170 C171 1.382 . S
C171 C170 1.382 . S
C171 C172 1.392 . S
C171 N173 1.420 . S
C172 H166 0.930 . S
C172 C168 1.407 . S
C172 C171 1.392 . S
N173 C171 1.420 . S
N173 C174 1.244 1_545 S
C174 N173 1.244 1_565 S
H175 C178 0.929 . S
H176 C181 0.929 . S
H177 C183 0.930 . S
C178 H175 0.929 . S
C178 C179 1.398 . S
C178 C180 1.396 . S
C179 C178 1.398 . S
C179 C183 1.407 . S
C180 C178 1.396 . S
C180 C181 1.394 . S
C181 H176 0.929 . S
C181 C180 1.394 . S
C181 C182 1.382 . S
C182 C181 1.382 . S
C182 C183 1.392 . S
C182 N184 1.420 . S
C183 H177 0.930 . S
C183 C179 1.407 . S
C183 C182 1.392 . S
N184 C182 1.420 . S
N184 C185 1.244 . S
C185 N184 1.244 . S
H186 C204 0.951 . S
H187 C206 0.951 . S
H188 C208 0.950 . S
H189 C209 0.950 . S
H190 C211 0.950 . S
H191 C214 0.950 . S
H192 C215 0.950 . S
H193 C217 0.950 . S
H194 C218 0.950 . S
H195 C219 0.951 . S
H196 C221 0.951 . S
H197 C223 0.950 . S
H198 C224 0.950 . S
H199 C226 0.950 . S
H200 C229 0.950 . S
H201 C230 0.950 . S
H202 C232 0.950 . S
H203 C233 0.950 . S
C204 H186 0.951 . S
C204 C205 1.366 . S
C204 C206 1.388 . S
C205 C204 1.366 . S
C205 C209 1.385 . S
C206 H187 0.951 . S
C206 C204 1.388 . S
C206 C207 1.366 . S
C207 C206 1.366 . S
C207 C208 1.414 . S
C207 C210 1.499 . S
C208 H188 0.950 . S
C208 C207 1.414 . S
C208 C209 1.374 . S
C209 H189 0.950 . S
C209 C205 1.385 . S
C209 C208 1.374 . S
C210 C207 1.499 . S
C210 C211 1.373 . S
C210 C212 1.389 . S
C211 H190 0.950 . S
C211 C210 1.373 . S
C211 C227 1.377 . S
C212 C210 1.389 . S
C212 C213 1.524 . S
C212 C226 1.377 . S
C213 C212 1.524 . S
C213 C214 1.397 . S
C213 C218 1.363 . S
C214 H191 0.950 . S
C214 C213 1.397 . S
C214 C215 1.334 . S
C215 H192 0.950 . S
C215 C214 1.334 . S
C215 C216 1.287 . S
C216 C215 1.287 . S
C216 C217 1.524 . S
C216 H235 0.913 . S
C217 H193 0.950 . S
C217 C216 1.524 . S
C217 C218 1.415 . S
C218 H194 0.950 . S
C218 C213 1.363 . S
C218 C217 1.415 . S
C219 H195 0.951 . S
C219 C220 1.366 . S
C219 C221 1.388 . S
C220 C219 1.366 . S
C220 C224 1.385 . S
C221 H196 0.951 . S
C221 C219 1.388 . S
C221 C222 1.366 . S
C222 C221 1.366 . S
C222 C223 1.414 . S
C222 C225 1.499 . S
C223 H197 0.950 . S
C223 C222 1.414 . S
C223 C224 1.374 . S
C224 H198 0.950 . S
C224 C220 1.385 . S
C224 C223 1.374 . S
C225 C222 1.499 . S
C225 C226 1.373 . S
C225 C227 1.389 . S
C226 H199 0.950 . S
C226 C212 1.377 . S
C226 C225 1.373 . S
C227 C211 1.377 . S
C227 C225 1.389 . S
C227 C228 1.524 . S
C228 C227 1.524 . S
C228 C229 1.397 . S
C228 C233 1.363 . S
C229 H200 0.950 . S
C229 C228 1.397 . S
C229 C230 1.334 . S
C230 H201 0.950 . S
C230 C229 1.334 . S
C230 C231 1.287 . S
C231 C230 1.287 . S
C231 C232 1.524 . S
C231 H234 0.999 . S
C232 H202 0.950 . S
C232 C231 1.524 . S
C232 C233 1.415 . S
C233 H203 0.950 . S
C233 C228 1.363 . S
C233 C232 1.415 . S
H234 C231 0.999 . S
H235 C216 0.913 . S
H236 C254 0.951 . S
H237 C256 0.951 . S
H238 C258 0.950 . S
H239 C259 0.950 . S
H240 C261 0.950 . S
H241 C264 0.950 . S
H242 C265 0.950 . S
H243 C267 0.950 . S
H244 C268 0.950 . S
H245 C269 0.951 . S
H246 C271 0.951 . S
H247 C273 0.950 . S
H248 C274 0.950 . S
H249 C276 0.950 . S
H250 C279 0.950 . S
H251 C280 0.950 . S
H252 C282 0.950 . S
H253 C283 0.950 . S
C254 H236 0.951 . S
C254 C255 1.366 . S
C254 C256 1.388 . S
C255 C254 1.366 . S
C255 C259 1.385 . S
C256 H237 0.951 . S
C256 C254 1.388 . S
C256 C257 1.366 . S
C257 C256 1.366 . S
C257 C258 1.414 . S
C257 C260 1.499 . S
C258 H238 0.950 . S
C258 C257 1.414 . S
C258 C259 1.374 . S
C259 H239 0.950 . S
C259 C255 1.385 . S
C259 C258 1.374 . S
C260 C257 1.499 . S
C260 C261 1.373 . S
C260 C262 1.389 . S
C261 H240 0.950 . S
C261 C260 1.373 . S
C261 C277 1.377 . S
C262 C260 1.389 . S
C262 C263 1.524 . S
C262 C276 1.377 . S
C263 C262 1.524 . S
C263 C264 1.397 . S
C263 C268 1.363 . S
C264 H241 0.950 . S
C264 C263 1.397 . S
C264 C265 1.334 . S
C265 H242 0.950 . S
C265 C264 1.334 . S
C265 C266 1.287 . S
C266 C265 1.287 . S
C266 C267 1.524 . S
C266 H285 0.913 . S
C267 H243 0.950 . S
C267 C266 1.524 . S
C267 C268 1.415 . S
C268 H244 0.950 . S
C268 C263 1.363 . S
C268 C267 1.415 . S
C269 H245 0.951 . S
C269 C270 1.366 . S
C269 C271 1.388 . S
C270 C269 1.366 . S
C270 C274 1.385 . S
C271 H246 0.951 . S
C271 C269 1.388 . S
C271 C272 1.366 . S
C272 C271 1.366 . S
C272 C273 1.414 . S
C272 C275 1.499 . S
C273 H247 0.950 . S
C273 C272 1.414 . S
C273 C274 1.374 . S
C274 H248 0.950 . S
C274 C270 1.385 . S
C274 C273 1.374 . S
C275 C272 1.499 . S
C275 C276 1.373 . S
C275 C277 1.389 . S
C276 H249 0.950 . S
C276 C262 1.377 . S
C276 C275 1.373 . S
C277 C261 1.377 . S
C277 C275 1.389 . S
C277 C278 1.524 . S
C278 C277 1.524 . S
C278 C279 1.397 . S
C278 C283 1.363 . S
C279 H250 0.950 . S
C279 C278 1.397 . S
C279 C280 1.334 . S
C280 H251 0.950 . S
C280 C279 1.334 . S
C280 C281 1.287 . S
C281 C280 1.287 . S
C281 C282 1.524 . S
C281 H284 0.999 . S
C282 H252 0.950 . S
C282 C281 1.524 . S
C282 C283 1.415 . S
C283 H253 0.950 . S
C283 C278 1.363 . S
C283 C282 1.415 . S
H284 C281 0.999 . S
H285 C266 0.913 . S
H286 C304 0.951 . S
H287 C306 0.951 . S
H288 C308 0.950 . S
H289 C309 0.950 . S
H290 C311 0.950 . S
H291 C314 0.950 . S
H292 C315 0.950 . S
H293 C317 0.950 . S
H294 C318 0.950 . S
H295 C319 0.951 . S
H296 C321 0.951 . S
H297 C323 0.950 . S
H298 C324 0.950 . S
H299 C326 0.950 . S
H300 C329 0.950 . S
H301 C330 0.950 . S
H302 C332 0.950 . S
H303 C333 0.950 . S
C304 H286 0.951 . S
C304 C305 1.366 . S
C304 C306 1.388 . S
C305 C304 1.366 . S
C305 C309 1.385 . S
C306 H287 0.951 . S
C306 C304 1.388 . S
C306 C307 1.366 . S
C307 C306 1.366 . S
C307 C308 1.414 . S
C307 C310 1.499 . S
C308 H288 0.950 . S
C308 C307 1.414 . S
C308 C309 1.374 . S
C309 H289 0.950 . S
C309 C305 1.385 . S
C309 C308 1.374 . S
C310 C307 1.499 . S
C310 C311 1.373 . S
C310 C312 1.389 . S
C311 H290 0.950 . S
C311 C310 1.373 . S
C311 C327 1.377 . S
C312 C310 1.389 . S
C312 C313 1.524 . S
C312 C326 1.377 . S
C313 C312 1.524 . S
C313 C314 1.397 . S
C313 C318 1.363 . S
C314 H291 0.950 . S
C314 C313 1.397 . S
C314 C315 1.334 . S
C315 H292 0.950 . S
C315 C314 1.334 . S
C315 C316 1.287 . S
C316 C315 1.287 . S
C316 C317 1.524 . S
C316 H335 0.913 . S
C317 H293 0.950 . S
C317 C316 1.524 . S
C317 C318 1.415 . S
C318 H294 0.950 . S
C318 C313 1.363 . S
C318 C317 1.415 . S
C319 H295 0.951 . S
C319 C320 1.366 . S
C319 C321 1.388 . S
C320 C319 1.366 . S
C320 C324 1.385 . S
C321 H296 0.951 . S
C321 C319 1.388 . S
C321 C322 1.366 . S
C322 C321 1.366 . S
C322 C323 1.414 . S
C322 C325 1.499 . S
C323 H297 0.950 . S
C323 C322 1.414 . S
C323 C324 1.374 . S
C324 H298 0.950 . S
C324 C320 1.385 . S
C324 C323 1.374 . S
C325 C322 1.499 . S
C325 C326 1.373 . S
C325 C327 1.389 . S
C326 H299 0.950 . S
C326 C312 1.377 . S
C326 C325 1.373 . S
C327 C311 1.377 . S
C327 C325 1.389 . S
C327 C328 1.524 . S
C328 C327 1.524 . S
C328 C329 1.397 . S
C328 C333 1.363 . S
C329 H300 0.950 . S
C329 C328 1.397 . S
C329 C330 1.334 . S
C330 H301 0.950 . S
C330 C329 1.334 . S
C330 C331 1.287 . S
C331 C330 1.287 . S
C331 C332 1.524 . S
C331 H334 0.999 . S
C332 H302 0.950 . S
C332 C331 1.524 . S
C332 C333 1.415 . S
C333 H303 0.950 . S
C333 C328 1.363 . S
C333 C332 1.415 . S
H334 C331 0.999 . S
H335 C316 0.913 . S
H336 C354 0.951 . S
H337 C356 0.951 . S
H338 C358 0.950 . S
H339 C359 0.950 . S
H340 C361 0.950 . S
H341 C364 0.950 . S
H342 C365 0.950 . S
H343 C367 0.950 . S
H344 C368 0.950 . S
H345 C369 0.951 . S
H346 C371 0.951 . S
H347 C373 0.950 . S
H348 C374 0.950 . S
H349 C376 0.950 . S
H350 C379 0.950 . S
H351 C380 0.950 . S
H352 C382 0.950 . S
H353 C383 0.950 . S
C354 H336 0.951 . S
C354 C355 1.366 . S
C354 C356 1.388 . S
C355 C354 1.366 . S
C355 C359 1.385 . S
C356 H337 0.951 . S
C356 C354 1.388 . S
C356 C357 1.366 . S
C357 C356 1.366 . S
C357 C358 1.414 . S
C357 C360 1.499 . S
C358 H338 0.950 . S
C358 C357 1.414 . S
C358 C359 1.374 . S
C359 H339 0.950 . S
C359 C355 1.385 . S
C359 C358 1.374 . S
C360 C357 1.499 . S
C360 C361 1.373 . S
C360 C362 1.389 . S
C361 H340 0.950 . S
C361 C360 1.373 . S
C361 C377 1.377 . S
C362 C360 1.389 . S
C362 C363 1.524 . S
C362 C376 1.377 . S
C363 C362 1.524 . S
C363 C364 1.397 . S
C363 C368 1.363 . S
C364 H341 0.950 . S
C364 C363 1.397 . S
C364 C365 1.334 . S
C365 H342 0.950 . S
C365 C364 1.334 . S
C365 C366 1.287 . S
C366 C365 1.287 . S
C366 C367 1.524 . S
C366 H385 0.913 . S
C367 H343 0.950 . S
C367 C366 1.524 . S
C367 C368 1.415 . S
C368 H344 0.950 . S
C368 C363 1.363 . S
C368 C367 1.415 . S
C369 H345 0.951 . S
C369 C370 1.366 . S
C369 C371 1.388 . S
C370 C369 1.366 . S
C370 C374 1.385 . S
C371 H346 0.951 . S
C371 C369 1.388 . S
C371 C372 1.366 . S
C372 C371 1.366 . S
C372 C373 1.414 . S
C372 C375 1.499 . S
C373 H347 0.950 . S
C373 C372 1.414 . S
C373 C374 1.374 . S
C374 H348 0.950 . S
C374 C370 1.385 . S
C374 C373 1.374 . S
C375 C372 1.499 . S
C375 C376 1.373 . S
C375 C377 1.389 . S
C376 H349 0.950 . S
C376 C362 1.377 . S
C376 C375 1.373 . S
C377 C361 1.377 . S
C377 C375 1.389 . S
C377 C378 1.524 . S
C378 C377 1.524 . S
C378 C379 1.397 . S
C378 C383 1.363 . S
C379 H350 0.950 . S
C379 C378 1.397 . S
C379 C380 1.334 . S
C380 H351 0.950 . S
C380 C379 1.334 . S
C380 C381 1.287 . S
C381 C380 1.287 . S
C381 C382 1.524 . S
C381 H384 0.999 . S
C382 H352 0.950 . S
C382 C381 1.524 . S
C382 C383 1.415 . S
C383 H353 0.950 . S
C383 C378 1.363 . S
C383 C382 1.415 . S
H384 C381 0.999 . S
H385 C366 0.913 . S
H386 C404 0.951 . S
H387 C406 0.951 . S
H388 C408 0.950 . S
H389 C409 0.950 . S
H390 C411 0.950 . S
H391 C414 0.950 . S
H392 C415 0.950 . S
H393 C417 0.950 . S
H394 C418 0.950 . S
H395 C419 0.951 . S
H396 C421 0.951 . S
H397 C423 0.950 . S
H398 C424 0.950 . S
H399 C426 0.950 . S
H400 C429 0.950 . S
H401 C430 0.950 . S
H402 C432 0.950 . S
H403 C433 0.950 . S
C404 H386 0.951 . S
C404 C405 1.366 . S
C404 C406 1.388 . S
C405 C404 1.366 . S
C405 C409 1.385 . S
C406 H387 0.951 . S
C406 C404 1.388 . S
C406 C407 1.366 . S
C407 C406 1.366 . S
C407 C408 1.414 . S
C407 C410 1.499 . S
C408 H388 0.950 . S
C408 C407 1.414 . S
C408 C409 1.374 . S
C409 H389 0.950 . S
C409 C405 1.385 . S
C409 C408 1.374 . S
C410 C407 1.499 . S
C410 C411 1.373 . S
C410 C412 1.389 . S
C411 H390 0.950 . S
C411 C410 1.373 . S
C411 C427 1.377 . S
C412 C410 1.389 . S
C412 C413 1.524 . S
C412 C426 1.377 . S
C413 C412 1.524 . S
C413 C414 1.397 . S
C413 C418 1.363 . S
C414 H391 0.950 . S
C414 C413 1.397 . S
C414 C415 1.334 . S
C415 H392 0.950 . S
C415 C414 1.334 . S
C415 C416 1.287 . S
C416 C415 1.287 . S
C416 C417 1.524 . S
C416 H435 0.913 . S
C417 H393 0.950 . S
C417 C416 1.524 . S
C417 C418 1.415 . S
C418 H394 0.950 . S
C418 C413 1.363 . S
C418 C417 1.415 . S
C419 H395 0.951 . S
C419 C420 1.366 . S
C419 C421 1.388 . S
C420 C419 1.366 . S
C420 C424 1.385 . S
C421 H396 0.951 . S
C421 C419 1.388 . S
C421 C422 1.366 . S
C422 C421 1.366 . S
C422 C423 1.414 . S
C422 C425 1.499 . S
C423 H397 0.950 . S
C423 C422 1.414 . S
C423 C424 1.374 . S
C424 H398 0.950 . S
C424 C420 1.385 . S
C424 C423 1.374 . S
C425 C422 1.499 . S
C425 C426 1.373 . S
C425 C427 1.389 . S
C426 H399 0.950 . S
C426 C412 1.377 . S
C426 C425 1.373 . S
C427 C411 1.377 . S
C427 C425 1.389 . S
C427 C428 1.524 . S
C428 C427 1.524 . S
C428 C429 1.397 . S
C428 C433 1.363 . S
C429 H400 0.950 . S
C429 C428 1.397 . S
C429 C430 1.334 . S
C430 H401 0.950 . S
C430 C429 1.334 . S
C430 C431 1.287 . S
C431 C430 1.287 . S
C431 C432 1.524 . S
C431 H434 0.999 . S
C432 H402 0.950 . S
C432 C431 1.524 . S
C432 C433 1.415 . S
C433 H403 0.950 . S
C433 C428 1.363 . S
C433 C432 1.415 . S
H434 C431 0.999 . S
H435 C416 0.913 . S
H436 C454 0.951 . S
H437 C456 0.951 . S
H438 C458 0.950 . S
H439 C459 0.950 . S
H440 C461 0.950 . S
H441 C464 0.950 . S
H442 C465 0.950 . S
H443 C467 0.950 . S
H444 C468 0.950 . S
H445 C469 0.951 . S
H446 C471 0.951 . S
H447 C473 0.950 . S
H448 C474 0.950 . S
H449 C476 0.950 . S
H450 C479 0.950 . S
H451 C480 0.950 . S
H452 C482 0.950 . S
H453 C483 0.950 . S
C454 H436 0.951 . S
C454 C455 1.366 . S
C454 C456 1.388 . S
C455 C454 1.366 . S
C455 C459 1.385 . S
C456 H437 0.951 . S
C456 C454 1.388 . S
C456 C457 1.366 . S
C457 C456 1.366 . S
C457 C458 1.414 . S
C457 C460 1.499 . S
C458 H438 0.950 . S
C458 C457 1.414 . S
C458 C459 1.374 . S
C459 H439 0.950 . S
C459 C455 1.385 . S
C459 C458 1.374 . S
C460 C457 1.499 . S
C460 C461 1.373 . S
C460 C462 1.389 . S
C461 H440 0.950 . S
C461 C460 1.373 . S
C461 C477 1.377 . S
C462 C460 1.389 . S
C462 C463 1.524 . S
C462 C476 1.377 . S
C463 C462 1.524 . S
C463 C464 1.397 . S
C463 C468 1.363 . S
C464 H441 0.950 . S
C464 C463 1.397 . S
C464 C465 1.334 . S
C465 H442 0.950 . S
C465 C464 1.334 . S
C465 C466 1.287 . S
C466 C465 1.287 . S
C466 C467 1.524 . S
C466 H485 0.913 . S
C467 H443 0.950 . S
C467 C466 1.524 . S
C467 C468 1.415 . S
C468 H444 0.950 . S
C468 C463 1.363 . S
C468 C467 1.415 . S
C469 H445 0.951 . S
C469 C470 1.366 . S
C469 C471 1.388 . S
C470 C469 1.366 . S
C470 C474 1.385 . S
C471 H446 0.951 . S
C471 C469 1.388 . S
C471 C472 1.366 . S
C472 C471 1.366 . S
C472 C473 1.414 . S
C472 C475 1.499 . S
C473 H447 0.950 . S
C473 C472 1.414 . S
C473 C474 1.374 . S
C474 H448 0.950 . S
C474 C470 1.385 . S
C474 C473 1.374 . S
C475 C472 1.499 . S
C475 C476 1.373 . S
C475 C477 1.389 . S
C476 H449 0.950 . S
C476 C462 1.377 . S
C476 C475 1.373 . S
C477 C461 1.377 . S
C477 C475 1.389 . S
C477 C478 1.524 . S
C478 C477 1.524 . S
C478 C479 1.397 . S
C478 C483 1.363 . S
C479 H450 0.950 . S
C479 C478 1.397 . S
C479 C480 1.334 . S
C480 H451 0.950 . S
C480 C479 1.334 . S
C480 C481 1.287 . S
C481 C480 1.287 . S
C481 C482 1.524 . S
C481 H484 0.999 . S
C482 H452 0.950 . S
C482 C481 1.524 . S
C482 C483 1.415 . S
C483 H453 0.950 . S
C483 C478 1.363 . S
C483 C482 1.415 . S
H484 C481 0.999 . S
H485 C466 0.913 . S
H486 C504 0.951 . S
H487 C506 0.951 . S
H488 C508 0.950 . S
H489 C509 0.950 . S
H490 C511 0.950 . S
H491 C514 0.950 . S
H492 C515 0.950 . S
H493 C517 0.950 . S
H494 C518 0.950 . S
H495 C519 0.951 . S
H496 C521 0.951 . S
H497 C523 0.950 . S
H498 C524 0.950 . S
H499 C526 0.950 . S
H500 C529 0.950 . S
H501 C530 0.950 . S
H502 C532 0.950 . S
H503 C533 0.950 . S
C504 H486 0.951 . S
C504 C505 1.366 . S
C504 C506 1.388 . S
C505 C504 1.366 . S
C505 C509 1.385 . S
C506 H487 0.951 . S
C506 C504 1.388 . S
C506 C507 1.366 . S
C507 C506 1.366 . S
C507 C508 1.414 . S
C507 C510 1.499 . S
C508 H488 0.950 . S
C508 C507 1.414 . S
C508 C509 1.374 . S
C509 H489 0.950 . S
C509 C505 1.385 . S
C509 C508 1.374 . S
C510 C507 1.499 . S
C510 C511 1.373 . S
C510 C512 1.389 . S
C511 H490 0.950 . S
C511 C510 1.373 . S
C511 C527 1.377 . S
C512 C510 1.389 . S
C512 C513 1.524 . S
C512 C526 1.377 . S
C513 C512 1.524 . S
C513 C514 1.397 . S
C513 C518 1.363 . S
C514 H491 0.950 . S
C514 C513 1.397 . S
C514 C515 1.334 . S
C515 H492 0.950 . S
C515 C514 1.334 . S
C515 C516 1.287 . S
C516 C515 1.287 . S
C516 C517 1.524 . S
C516 H535 0.913 . S
C517 H493 0.950 . S
C517 C516 1.524 . S
C517 C518 1.415 . S
C518 H494 0.950 . S
C518 C513 1.363 . S
C518 C517 1.415 . S
C519 H495 0.951 . S
C519 C520 1.366 . S
C519 C521 1.388 . S
C520 C519 1.366 . S
C520 C524 1.385 . S
C521 H496 0.951 . S
C521 C519 1.388 . S
C521 C522 1.366 . S
C522 C521 1.366 . S
C522 C523 1.414 . S
C522 C525 1.499 . S
C523 H497 0.950 . S
C523 C522 1.414 . S
C523 C524 1.374 . S
C524 H498 0.950 . S
C524 C520 1.385 . S
C524 C523 1.374 . S
C525 C522 1.499 . S
C525 C526 1.373 . S
C525 C527 1.389 . S
C526 H499 0.950 . S
C526 C512 1.377 . S
C526 C525 1.373 . S
C527 C511 1.377 . S
C527 C525 1.389 . S
C527 C528 1.524 . S
C528 C527 1.524 . S
C528 C529 1.397 . S
C528 C533 1.363 . S
C529 H500 0.950 . S
C529 C528 1.397 . S
C529 C530 1.334 . S
C530 H501 0.950 . S
C530 C529 1.334 . S
C530 C531 1.287 . S
C531 C530 1.287 . S
C531 C532 1.524 . S
C531 H534 0.999 . S
C532 H502 0.950 . S
C532 C531 1.524 . S
C532 C533 1.415 . S
C533 H503 0.950 . S
C533 C528 1.363 . S
C533 C532 1.415 . S
H534 C531 0.999 . S
H535 C516 0.913 . S
H536 C554 0.951 . S
H537 C556 0.951 . S
H538 C558 0.950 . S
H539 C559 0.950 . S
H540 C561 0.950 . S
H541 C564 0.950 . S
H542 C565 0.950 . S
H543 C567 0.950 . S
H544 C568 0.950 . S
H545 C569 0.951 . S
H546 C571 0.951 . S
H547 C573 0.950 . S
H548 C574 0.950 . S
H549 C576 0.950 . S
H550 C579 0.950 . S
H551 C580 0.950 . S
H552 C582 0.950 . S
H553 C583 0.950 . S
C554 H536 0.951 . S
C554 C555 1.366 . S
C554 C556 1.388 . S
C555 C554 1.366 . S
C555 C559 1.385 . S
C556 H537 0.951 . S
C556 C554 1.388 . S
C556 C557 1.366 . S
C557 C556 1.366 . S
C557 C558 1.414 . S
C557 C560 1.499 . S
C558 H538 0.950 . S
C558 C557 1.414 . S
C558 C559 1.374 . S
C559 H539 0.950 . S
C559 C555 1.385 . S
C559 C558 1.374 . S
C560 C557 1.499 . S
C560 C561 1.373 . S
C560 C562 1.389 . S
C561 H540 0.950 . S
C561 C560 1.373 . S
C561 C577 1.377 . S
C562 C560 1.389 . S
C562 C563 1.524 . S
C562 C576 1.377 . S
C563 C562 1.524 . S
C563 C564 1.397 . S
C563 C568 1.363 . S
C564 H541 0.950 . S
C564 C563 1.397 . S
C564 C565 1.334 . S
C565 H542 0.950 . S
C565 C564 1.334 . S
C565 C566 1.287 . S
C566 C565 1.287 . S
C566 C567 1.524 . S
C566 H585 0.913 . S
C567 H543 0.950 . S
C567 C566 1.524 . S
C567 C568 1.415 . S
C568 H544 0.950 . S
C568 C563 1.363 . S
C568 C567 1.415 . S
C569 H545 0.951 . S
C569 C570 1.366 . S
C569 C571 1.388 . S
C570 C569 1.366 . S
C570 C574 1.385 . S
C571 H546 0.951 . S
C571 C569 1.388 . S
C571 C572 1.366 . S
C572 C571 1.366 . S
C572 C573 1.414 . S
C572 C575 1.499 . S
C573 H547 0.950 . S
C573 C572 1.414 . S
C573 C574 1.374 . S
C574 H548 0.950 . S
C574 C570 1.385 . S
C574 C573 1.374 . S
C575 C572 1.499 . S
C575 C576 1.373 . S
C575 C577 1.389 . S
C576 H549 0.950 . S
C576 C562 1.377 . S
C576 C575 1.373 . S
C577 C561 1.377 . S
C577 C575 1.389 . S
C577 C578 1.524 . S
C578 C577 1.524 . S
C578 C579 1.397 . S
C578 C583 1.363 . S
C579 H550 0.950 . S
C579 C578 1.397 . S
C579 C580 1.334 . S
C580 H551 0.950 . S
C580 C579 1.334 . S
C580 C581 1.287 . S
C581 C580 1.287 . S
C581 C582 1.524 . S
C581 H584 0.999 . S
C582 H552 0.950 . S
C582 C581 1.524 . S
C582 C583 1.415 . S
C583 H553 0.950 . S
C583 C578 1.363 . S
C583 C582 1.415 . S
H584 C581 0.999 . S
H585 C566 0.913 . S
H586 C604 0.951 . S
H587 C606 0.951 . S
H588 C608 0.950 . S
H589 C609 0.950 . S
H590 C611 0.950 . S
H591 C614 0.950 . S
H592 C615 0.950 . S
H593 C617 0.950 . S
H594 C618 0.950 . S
H595 C619 0.951 . S
H596 C621 0.951 . S
H597 C623 0.950 . S
H598 C624 0.950 . S
H599 C626 0.950 . S
H600 C629 0.950 . S
H601 C630 0.950 . S
H602 C632 0.950 . S
H603 C633 0.950 . S
C604 H586 0.951 . S
C604 C605 1.366 . S
C604 C606 1.388 . S
C605 C604 1.366 . S
C605 C609 1.385 . S
C606 H587 0.951 . S
C606 C604 1.388 . S
C606 C607 1.366 . S
C607 C606 1.366 . S
C607 C608 1.414 . S
C607 C610 1.499 . S
C608 H588 0.950 . S
C608 C607 1.414 . S
C608 C609 1.374 . S
C609 H589 0.950 . S
C609 C605 1.385 . S
C609 C608 1.374 . S
C610 C607 1.499 . S
C610 C611 1.373 . S
C610 C612 1.389 . S
C611 H590 0.950 . S
C611 C610 1.373 . S
C611 C627 1.377 . S
C612 C610 1.389 . S
C612 C613 1.524 . S
C612 C626 1.377 . S
C613 C612 1.524 . S
C613 C614 1.397 . S
C613 C618 1.363 . S
C614 H591 0.950 . S
C614 C613 1.397 . S
C614 C615 1.334 . S
C615 H592 0.950 . S
C615 C614 1.334 . S
C615 C616 1.287 . S
C616 C615 1.287 . S
C616 C617 1.524 . S
C616 H635 0.913 . S
C617 H593 0.950 . S
C617 C616 1.524 . S
C617 C618 1.415 . S
C618 H594 0.950 . S
C618 C613 1.363 . S
C618 C617 1.415 . S
C619 H595 0.951 . S
C619 C620 1.366 . S
C619 C621 1.388 . S
C620 C619 1.366 . S
C620 C624 1.385 . S
C621 H596 0.951 . S
C621 C619 1.388 . S
C621 C622 1.366 . S
C622 C621 1.366 . S
C622 C623 1.414 . S
C622 C625 1.499 . S
C623 H597 0.950 . S
C623 C622 1.414 . S
C623 C624 1.374 . S
C624 H598 0.950 . S
C624 C620 1.385 . S
C624 C623 1.374 . S
C625 C622 1.499 . S
C625 C626 1.373 . S
C625 C627 1.389 . S
C626 H599 0.950 . S
C626 C612 1.377 . S
C626 C625 1.373 . S
C627 C611 1.377 . S
C627 C625 1.389 . S
C627 C628 1.524 . S
C628 C627 1.524 . S
C628 C629 1.397 . S
C628 C633 1.363 . S
C629 H600 0.950 . S
C629 C628 1.397 . S
C629 C630 1.334 . S
C630 H601 0.950 . S
C630 C629 1.334 . S
C630 C631 1.287 . S
C631 C630 1.287 . S
C631 C632 1.524 . S
C631 H634 0.999 . S
C632 H602 0.950 . S
C632 C631 1.524 . S
C632 C633 1.415 . S
C633 H603 0.950 . S
C633 C628 1.363 . S
C633 C632 1.415 . S
H634 C631 0.999 . S
H635 C616 0.913 . S
H636 C654 0.951 . S
H637 C656 0.951 . S
H638 C658 0.950 . S
H639 C659 0.950 . S
H640 C661 0.950 . S
H641 C664 0.950 . S
H642 C665 0.950 . S
H643 C667 0.950 . S
H644 C668 0.950 . S
H645 C669 0.951 . S
H646 C671 0.951 . S
H647 C673 0.950 . S
H648 C674 0.950 . S
H649 C676 0.950 . S
H650 C679 0.950 . S
H651 C680 0.950 . S
H652 C682 0.950 . S
H653 C683 0.950 . S
C654 H636 0.951 . S
C654 C655 1.366 . S
C654 C656 1.388 . S
C655 C654 1.366 . S
C655 C659 1.385 . S
C656 H637 0.951 . S
C656 C654 1.388 . S
C656 C657 1.366 . S
C657 C656 1.366 . S
C657 C658 1.414 . S
C657 C660 1.499 . S
C658 H638 0.950 . S
C658 C657 1.414 . S
C658 C659 1.374 . S
C659 H639 0.950 . S
C659 C655 1.385 . S
C659 C658 1.374 . S
C660 C657 1.499 . S
C660 C661 1.373 . S
C660 C662 1.389 . S
C661 H640 0.950 . S
C661 C660 1.373 . S
C661 C677 1.377 . S
C662 C660 1.389 . S
C662 C663 1.524 . S
C662 C676 1.377 . S
C663 C662 1.524 . S
C663 C664 1.397 . S
C663 C668 1.363 . S
C664 H641 0.950 . S
C664 C663 1.397 . S
C664 C665 1.334 . S
C665 H642 0.950 . S
C665 C664 1.334 . S
C665 C666 1.287 . S
C666 C665 1.287 . S
C666 C667 1.524 . S
C666 H685 0.913 . S
C667 H643 0.950 . S
C667 C666 1.524 . S
C667 C668 1.415 . S
C668 H644 0.950 . S
C668 C663 1.363 . S
C668 C667 1.415 . S
C669 H645 0.951 . S
C669 C670 1.366 . S
C669 C671 1.388 . S
C670 C669 1.366 . S
C670 C674 1.385 . S
C671 H646 0.951 . S
C671 C669 1.388 . S
C671 C672 1.366 . S
C672 C671 1.366 . S
C672 C673 1.414 . S
C672 C675 1.499 . S
C673 H647 0.950 . S
C673 C672 1.414 . S
C673 C674 1.374 . S
C674 H648 0.950 . S
C674 C670 1.385 . S
C674 C673 1.374 . S
C675 C672 1.499 . S
C675 C676 1.373 . S
C675 C677 1.389 . S
C676 H649 0.950 . S
C676 C662 1.377 . S
C676 C675 1.373 . S
C677 C661 1.377 . S
C677 C675 1.389 . S
C677 C678 1.524 . S
C678 C677 1.524 . S
C678 C679 1.397 . S
C678 C683 1.363 . S
C679 H650 0.950 . S
C679 C678 1.397 . S
C679 C680 1.334 . S
C680 H651 0.950 . S
C680 C679 1.334 . S
C680 C681 1.287 . S
C681 C680 1.287 . S
C681 C682 1.524 . S
C681 H684 0.999 . S
C682 H652 0.950 . S
C682 C681 1.524 . S
C682 C683 1.415 . S
C683 H653 0.950 . S
C683 C678 1.363 . S
C683 C682 1.415 . S
H684 C681 0.999 . S
H685 C666 0.913 . S
H686 C704 0.951 . S
H687 C706 0.951 . S
H688 C708 0.950 . S
H689 C709 0.950 . S
H690 C711 0.950 . S
H691 C714 0.950 . S
H692 C715 0.950 . S
H693 C717 0.950 . S
H694 C718 0.950 . S
H695 C719 0.951 . S
H696 C721 0.951 . S
H697 C723 0.950 . S
H698 C724 0.950 . S
H699 C726 0.950 . S
H700 C729 0.950 . S
H701 C730 0.950 . S
H702 C732 0.950 . S
H703 C733 0.950 . S
C704 H686 0.951 . S
C704 C705 1.366 . S
C704 C706 1.388 . S
C705 C704 1.366 . S
C705 C709 1.385 . S
C706 H687 0.951 . S
C706 C704 1.388 . S
C706 C707 1.366 . S
C707 C706 1.366 . S
C707 C708 1.414 . S
C707 C710 1.499 . S
C708 H688 0.950 . S
C708 C707 1.414 . S
C708 C709 1.374 . S
C709 H689 0.950 . S
C709 C705 1.385 . S
C709 C708 1.374 . S
C710 C707 1.499 . S
C710 C711 1.373 . S
C710 C712 1.389 . S
C711 H690 0.950 . S
C711 C710 1.373 . S
C711 C727 1.377 . S
C712 C710 1.389 . S
C712 C713 1.524 . S
C712 C726 1.377 . S
C713 C712 1.524 . S
C713 C714 1.397 . S
C713 C718 1.363 . S
C714 H691 0.950 . S
C714 C713 1.397 . S
C714 C715 1.334 . S
C715 H692 0.950 . S
C715 C714 1.334 . S
C715 C716 1.287 . S
C716 C715 1.287 . S
C716 C717 1.524 . S
C716 H735 0.913 . S
C717 H693 0.950 . S
C717 C716 1.524 . S
C717 C718 1.415 . S
C718 H694 0.950 . S
C718 C713 1.363 . S
C718 C717 1.415 . S
C719 H695 0.951 . S
C719 C720 1.366 . S
C719 C721 1.388 . S
C720 C719 1.366 . S
C720 C724 1.385 . S
C721 H696 0.951 . S
C721 C719 1.388 . S
C721 C722 1.366 . S
C722 C721 1.366 . S
C722 C723 1.414 . S
C722 C725 1.499 . S
C723 H697 0.950 . S
C723 C722 1.414 . S
C723 C724 1.374 . S
C724 H698 0.950 . S
C724 C720 1.385 . S
C724 C723 1.374 . S
C725 C722 1.499 . S
C725 C726 1.373 . S
C725 C727 1.389 . S
C726 H699 0.950 . S
C726 C712 1.377 . S
C726 C725 1.373 . S
C727 C711 1.377 . S
C727 C725 1.389 . S
C727 C728 1.524 . S
C728 C727 1.524 . S
C728 C729 1.397 . S
C728 C733 1.363 . S
C729 H700 0.950 . S
C729 C728 1.397 . S
C729 C730 1.334 . S
C730 H701 0.950 . S
C730 C729 1.334 . S
C730 C731 1.287 . S
C731 C730 1.287 . S
C731 C732 1.524 . S
C731 H734 0.999 . S
C732 H702 0.950 . S
C732 C731 1.524 . S
C732 C733 1.415 . S
C733 H703 0.950 . S
C733 C728 1.363 . S
C733 C732 1.415 . S
H734 C731 0.999 . S
H735 C716 0.913 . S
H736 C754 0.951 . S
H737 C756 0.951 . S
H738 C758 0.950 . S
H739 C759 0.950 . S
H740 C761 0.950 . S
H741 C764 0.950 . S
H742 C765 0.950 . S
H743 C767 0.950 . S
H744 C768 0.950 . S
H745 C769 0.951 . S
H746 C771 0.951 . S
H747 C773 0.950 . S
H748 C774 0.950 . S
H749 C776 0.950 . S
H750 C779 0.950 . S
H751 C780 0.950 . S
H752 C782 0.950 . S
H753 C783 0.950 . S
C754 H736 0.951 . S
C754 C755 1.366 . S
C754 C756 1.388 . S
C755 C754 1.366 . S
C755 C759 1.385 . S
C756 H737 0.951 . S
C756 C754 1.388 . S
C756 C757 1.366 . S
C757 C756 1.366 . S
C757 C758 1.414 . S
C757 C760 1.499 . S
C758 H738 0.950 . S
C758 C757 1.414 . S
C758 C759 1.374 . S
C759 H739 0.950 . S
C759 C755 1.385 . S
C759 C758 1.374 . S
C760 C757 1.499 . S
C760 C761 1.373 . S
C760 C762 1.389 . S
C761 H740 0.950 . S
C761 C760 1.373 . S
C761 C777 1.377 . S
C762 C760 1.389 . S
C762 C763 1.524 . S
C762 C776 1.377 . S
C763 C762 1.524 . S
C763 C764 1.397 . S
C763 C768 1.363 . S
C764 H741 0.950 . S
C764 C763 1.397 . S
C764 C765 1.334 . S
C765 H742 0.950 . S
C765 C764 1.334 . S
C765 C766 1.287 . S
C766 C765 1.287 . S
C766 C767 1.524 . S
C766 H785 0.913 . S
C767 H743 0.950 . S
C767 C766 1.524 . S
C767 C768 1.415 . S
C768 H744 0.950 . S
C768 C763 1.363 . S
C768 C767 1.415 . S
C769 H745 0.951 . S
C769 C770 1.366 . S
C769 C771 1.388 . S
C770 C769 1.366 . S
C770 C774 1.385 . S
C771 H746 0.951 . S
C771 C769 1.388 . S
C771 C772 1.366 . S
C772 C771 1.366 . S
C772 C773 1.414 . S
C772 C775 1.499 . S
C773 H747 0.950 . S
C773 C772 1.414 . S
C773 C774 1.374 . S
C774 H748 0.950 . S
C774 C770 1.385 . S
C774 C773 1.374 . S
C775 C772 1.499 . S
C775 C776 1.373 . S
C775 C777 1.389 . S
C776 H749 0.950 . S
C776 C762 1.377 . S
C776 C775 1.373 . S
C777 C761 1.377 . S
C777 C775 1.389 . S
C777 C778 1.524 . S
C778 C777 1.524 . S
C778 C779 1.397 . S
C778 C783 1.363 . S
C779 H750 0.950 . S
C779 C778 1.397 . S
C779 C780 1.334 . S
C780 H751 0.950 . S
C780 C779 1.334 . S
C780 C781 1.287 . S
C781 C780 1.287 . S
C781 C782 1.524 . S
C781 H784 0.999 . S
C782 H752 0.950 . S
C782 C781 1.524 . S
C782 C783 1.415 . S
C783 H753 0.950 . S
C783 C778 1.363 . S
C783 C782 1.415 . S
H784 C781 0.999 . S
H785 C766 0.913 . S
H786 C804 0.951 . S
H787 C806 0.951 . S
H788 C808 0.950 . S
H789 C809 0.950 . S
H790 C811 0.950 . S
H791 C814 0.950 . S
H792 C815 0.950 . S
H793 C817 0.950 . S
H794 C818 0.950 . S
H795 C819 0.951 . S
H796 C821 0.951 . S
H797 C823 0.950 . S
H798 C824 0.950 . S
H799 C826 0.950 1_556 S
H800 C829 0.950 . S
H801 C830 0.950 . S
H802 C832 0.941 1_554 S
H803 C833 0.950 . S
C804 H786 0.951 . S
C804 C805 1.366 . S
C804 C806 1.388 . S
C805 C804 1.366 . S
C805 C809 1.385 . S
C806 H787 0.951 . S
C806 C804 1.388 . S
C806 C807 1.366 . S
C807 C806 1.366 . S
C807 C808 1.414 . S
C807 C810 1.499 . S
C808 H788 0.950 . S
C808 C807 1.414 . S
C808 C809 1.374 . S
C809 H789 0.950 . S
C809 C805 1.385 . S
C809 C808 1.374 . S
C810 C807 1.499 . S
C810 C811 1.373 . S
C810 C812 1.389 . S
C811 H790 0.950 . S
C811 C810 1.373 . S
C811 C827 1.377 . S
C812 C810 1.389 . S
C812 C813 1.524 . S
C812 C826 1.377 . S
C813 C812 1.524 . S
C813 C814 1.397 1_455 S
C813 C818 1.363 . S
C814 H791 0.950 . S
C814 C813 1.397 1_655 S
C814 C815 1.334 . S
C815 H792 0.950 . S
C815 C814 1.334 . S
C815 C816 1.287 . S
C816 C815 1.287 . S
C816 C817 1.524 1_655 S
C816 H835 0.913 . S
C817 H793 0.950 . S
C817 C816 1.524 1_455 S
C817 C818 1.415 . S
C818 H794 0.950 . S
C818 C813 1.363 . S
C818 C817 1.415 . S
C819 H795 0.951 . S
C819 C820 1.366 . S
C819 C821 1.388 . S
C820 C819 1.366 . S
C820 C824 1.385 . S
C821 H796 0.951 . S
C821 C819 1.388 . S
C821 C822 1.366 . S
C822 C821 1.366 . S
C822 C823 1.414 . S
C822 C825 1.499 . S
C823 H797 0.950 . S
C823 C822 1.414 . S
C823 C824 1.374 . S
C824 H798 0.950 . S
C824 C820 1.385 . S
C824 C823 1.374 . S
C825 C822 1.499 . S
C825 C826 1.373 1_556 S
C825 C827 1.389 1_556 S
C826 H799 0.950 1_554 S
C826 C812 1.377 . S
C826 C825 1.373 1_554 S
C827 C811 1.377 . S
C827 C825 1.389 1_554 S
C827 C828 1.524 . S
C828 C827 1.524 . S
C828 C829 1.397 1_554 S
C828 C833 1.363 . S
C829 H800 0.950 . S
C829 C828 1.397 1_556 S
C829 C830 1.334 . S
C830 H801 0.950 . S
C830 C829 1.334 . S
C830 C831 1.287 . S
C831 C830 1.287 . S
C831 C832 1.545 . S
C831 H834 0.999 . S
C832 H802 0.941 1_556 S
C832 C831 1.545 . S
C832 C833 1.405 1_556 S
C833 H803 0.950 . S
C833 C828 1.363 . S
C833 C832 1.405 1_554 S
H834 C831 0.999 . S
H835 C816 0.913 . S
H836 C854 0.951 . S
H837 C856 0.951 . S
H838 C858 0.950 1_565 S
H839 C859 0.950 1_565 S
H840 C861 0.950 . S
H841 C864 0.950 . S
H842 C865 0.950 . S
H843 C867 0.950 . S
H844 C868 0.950 . S
H845 C869 0.951 1_565 S
H846 C871 0.951 1_565 S
H847 C873 0.950 . S
H848 C874 0.950 . S
H849 C876 0.950 . S
H850 C879 0.950 . S
H851 C880 0.950 . S
H852 C882 0.950 . S
H853 C883 0.950 . S
C854 H836 0.951 . S
C854 C855 1.366 . S
C854 C856 1.388 . S
C855 C854 1.366 . S
C855 C859 1.385 . S
C856 H837 0.951 . S
C856 C854 1.388 . S
C856 C857 1.366 . S
C857 C856 1.366 . S
C857 C858 1.414 . S
C857 C860 1.499 . S
C858 H838 0.950 1_545 S
C858 C857 1.414 . S
C858 C859 1.374 . S
C859 H839 0.950 1_545 S
C859 C855 1.385 . S
C859 C858 1.374 . S
C860 C857 1.499 . S
C860 C861 1.373 . S
C860 C862 1.389 . S
C861 H840 0.950 . S
C861 C860 1.373 . S
C861 C877 1.377 . S
C862 C860 1.389 . S
C862 C863 1.524 . S
C862 C876 1.377 . S
C863 C862 1.524 . S
C863 C864 1.397 . S
C863 C868 1.363 . S
C864 H841 0.950 . S
C864 C863 1.397 . S
C864 C865 1.334 . S
C865 H842 0.950 . S
C865 C864 1.334 . S
C865 C866 1.287 . S
C866 C865 1.287 . S
C866 C867 1.524 . S
C866 H885 0.913 . S
C867 H843 0.950 . S
C867 C866 1.524 . S
C867 C868 1.415 . S
C868 H844 0.950 . S
C868 C863 1.363 . S
C868 C867 1.415 . S
C869 H845 0.951 1_545 S
C869 C870 1.366 . S
C869 C871 1.388 . S
C870 C869 1.366 . S
C870 C874 1.385 . S
C871 H846 0.951 1_545 S
C871 C869 1.388 . S
C871 C872 1.366 . S
C872 C871 1.366 . S
C872 C873 1.414 . S
C872 C875 1.499 . S
C873 H847 0.950 . S
C873 C872 1.414 . S
C873 C874 1.374 . S
C874 H848 0.950 . S
C874 C870 1.385 . S
C874 C873 1.374 . S
C875 C872 1.499 . S
C875 C876 1.373 . S
C875 C877 1.389 . S
C876 H849 0.950 . S
C876 C862 1.377 . S
C876 C875 1.373 . S
C877 C861 1.377 . S
C877 C875 1.389 . S
C877 C878 1.524 . S
C878 C877 1.524 . S
C878 C879 1.397 . S
C878 C883 1.363 1_545 S
C879 H850 0.950 . S
C879 C878 1.397 . S
C879 C880 1.334 . S
C880 H851 0.950 . S
C880 C879 1.334 . S
C880 C881 1.287 1_545 S
C881 C880 1.287 1_565 S
C881 C882 1.524 . S
C881 H884 0.999 . S
C882 H852 0.950 . S
C882 C881 1.524 . S
C882 C883 1.415 . S
C883 H853 0.950 . S
C883 C878 1.363 1_565 S
C883 C882 1.415 . S
H884 C881 0.999 . S
H885 C866 0.913 . S
H886 C904 0.951 . S
H887 C906 0.951 . S
H888 C908 0.950 . S
H889 C909 0.950 . S
H890 C911 0.950 . S
H891 C914 0.950 . S
H892 C915 0.950 . S
H893 C917 0.950 . S
H894 C918 0.950 . S
H895 C919 0.951 . S
H896 C921 0.951 . S
H897 C923 0.950 . S
H898 C924 0.950 . S
H899 C926 0.950 . S
H900 C929 0.950 . S
H901 C930 0.950 . S
H902 C932 0.950 . S
H903 C933 0.950 . S
C904 H886 0.951 . S
C904 C905 1.366 . S
C904 C906 1.388 . S
C905 C904 1.366 . S
C905 C909 1.385 . S
C906 H887 0.951 . S
C906 C904 1.388 . S
C906 C907 1.366 . S
C907 C906 1.366 . S
C907 C908 1.414 . S
C907 C910 1.499 . S
C908 H888 0.950 . S
C908 C907 1.414 . S
C908 C909 1.374 . S
C909 H889 0.950 . S
C909 C905 1.385 . S
C909 C908 1.374 . S
C910 C907 1.499 . S
C910 C911 1.373 . S
C910 C912 1.389 . S
C911 H890 0.950 . S
C911 C910 1.373 . S
C911 C927 1.377 . S
C912 C910 1.389 . S
C912 C913 1.524 . S
C912 C926 1.377 . S
C913 C912 1.524 . S
C913 C914 1.397 . S
C913 C918 1.363 . S
C914 H891 0.950 . S
C914 C913 1.397 . S
C914 C915 1.334 . S
C915 H892 0.950 . S
C915 C914 1.334 . S
C915 C916 1.287 . S
C916 C915 1.287 . S
C916 C917 1.524 . S
C916 H935 0.913 . S
C917 H893 0.950 . S
C917 C916 1.524 . S
C917 C918 1.415 . S
C918 H894 0.950 . S
C918 C913 1.363 . S
C918 C917 1.415 . S
C919 H895 0.951 . S
C919 C920 1.366 . S
C919 C921 1.388 . S
C920 C919 1.366 . S
C920 C924 1.385 . S
C921 H896 0.951 . S
C921 C919 1.388 . S
C921 C922 1.366 . S
C922 C921 1.366 . S
C922 C923 1.414 . S
C922 C925 1.499 . S
C923 H897 0.950 . S
C923 C922 1.414 . S
C923 C924 1.374 . S
C924 H898 0.950 . S
C924 C920 1.385 . S
C924 C923 1.374 . S
C925 C922 1.499 . S
C925 C926 1.373 . S
C925 C927 1.389 . S
C926 H899 0.950 . S
C926 C912 1.377 . S
C926 C925 1.373 . S
C927 C911 1.377 . S
C927 C925 1.389 . S
C927 C928 1.524 . S
C928 C927 1.524 . S
C928 C929 1.397 . S
C928 C933 1.363 . S
C929 H900 0.950 . S
C929 C928 1.397 . S
C929 C930 1.334 . S
C930 H901 0.950 . S
C930 C929 1.334 . S
C930 C931 1.287 . S
C931 C930 1.287 . S
C931 C932 1.524 . S
C931 H934 0.999 . S
C932 H902 0.950 . S
C932 C931 1.524 . S
C932 C933 1.415 . S
C933 H903 0.950 . S
C933 C928 1.363 . S
C933 C932 1.415 . S
H934 C931 0.999 . S
H935 C916 0.913 . S
H936 C954 0.951 . S
H937 C956 0.951 . S
H938 C958 0.950 1_565 S
H939 C959 0.950 1_565 S
H940 C961 0.950 . S
H941 C964 0.950 1_565 S
H942 C965 0.950 1_565 S
H943 C967 0.950 . S
H944 C968 0.950 . S
H945 C969 0.951 1_565 S
H946 C971 0.951 1_565 S
H947 C973 0.950 . S
H948 C974 0.950 . S
H949 C976 0.950 . S
H950 C979 0.950 . S
H951 C980 0.950 . S
H952 C982 0.950 . S
H953 C983 0.969 . S
C954 H936 0.951 . S
C954 C955 1.366 . S
C954 C956 1.388 . S
C955 C954 1.366 . S
C955 C959 1.385 . S
C956 H937 0.951 . S
C956 C954 1.388 . S
C956 C957 1.366 . S
C957 C956 1.366 . S
C957 C958 1.414 . S
C957 C960 1.499 . S
C958 H938 0.950 1_545 S
C958 C957 1.414 . S
C958 C959 1.374 . S
C959 H939 0.950 1_545 S
C959 C955 1.385 . S
C959 C958 1.374 . S
C960 C957 1.499 . S
C960 C961 1.373 . S
C960 C962 1.389 . S
C961 H940 0.950 . S
C961 C960 1.373 . S
C961 C977 1.377 . S
C962 C960 1.389 . S
C962 C963 1.524 . S
C962 C976 1.377 . S
C963 C962 1.524 . S
C963 C964 1.397 . S
C963 C968 1.363 . S
C964 H941 0.950 1_545 S
C964 C963 1.397 . S
C964 C965 1.334 . S
C965 H942 0.950 1_545 S
C965 C964 1.334 . S
C965 C966 1.287 . S
C966 C965 1.287 . S
C966 C967 1.524 . S
C966 H985 0.913 . S
C967 H943 0.950 . S
C967 C966 1.524 . S
C967 C968 1.415 . S
C968 H944 0.950 . S
C968 C963 1.363 . S
C968 C967 1.415 . S
C969 H945 0.951 1_545 S
C969 C970 1.366 . S
C969 C971 1.388 . S
C970 C969 1.366 . S
C970 C974 1.385 . S
C971 H946 0.951 1_545 S
C971 C969 1.388 . S
C971 C972 1.366 . S
C972 C971 1.366 . S
C972 C973 1.414 . S
C972 C975 1.499 . S
C973 H947 0.950 . S
C973 C972 1.414 . S
C973 C974 1.374 . S
C974 H948 0.950 . S
C974 C970 1.385 . S
C974 C973 1.374 . S
C975 C972 1.499 . S
C975 C976 1.373 . S
C975 C977 1.389 . S
C976 H949 0.950 . S
C976 C962 1.377 . S
C976 C975 1.373 . S
C977 C961 1.377 . S
C977 C975 1.389 . S
C977 C978 1.524 . S
C978 C977 1.524 . S
C978 C979 1.397 . S
C978 C983 1.359 1_545 S
C979 H950 0.950 . S
C979 C978 1.397 . S
C979 C980 1.334 . S
C980 H951 0.950 . S
C980 C979 1.334 . S
C980 C981 1.287 . S
C981 C980 1.287 . S
C981 C982 1.524 1_545 S
C981 H984 0.999 . S
C982 H952 0.950 . S
C982 C981 1.524 1_565 S
C982 C983 1.401 . S
C983 H953 0.969 . S
C983 C978 1.359 1_565 S
C983 C982 1.401 . S
H984 C981 0.999 . S
H985 C966 0.913 . S
H986 C1004 0.951 . S
H987 C1006 0.951 . S
H988 C1008 0.950 . S
H989 C1009 0.950 . S
H990 C1011 0.950 . S
H991 C1014 0.950 . S
H992 C1015 0.950 . S
H993 C1017 0.950 . S
H994 C1018 0.950 . S
H995 C1019 0.951 . S
H996 C1021 0.951 . S
H997 C1023 0.950 . S
H998 C1024 0.950 . S
H999 C1026 0.950 1_554 S
H1000 C1029 0.950 . S
H1001 C1030 0.950 . S
H1002 C1032 0.950 1_556 S
H1003 C1033 0.950 . S
C1004 H986 0.951 . S
C1004 C1005 1.366 . S
C1004 C1006 1.388 . S
C1005 C1004 1.366 . S
C1005 C1009 1.385 . S
C1006 H987 0.951 . S
C1006 C1004 1.388 . S
C1006 C1007 1.366 . S
C1007 C1006 1.366 . S
C1007 C1008 1.414 . S
C1007 C1010 1.499 . S
C1008 H988 0.950 . S
C1008 C1007 1.414 . S
C1008 C1009 1.374 . S
C1009 H989 0.950 . S
C1009 C1005 1.385 . S
C1009 C1008 1.374 . S
C1010 C1007 1.499 . S
C1010 C1011 1.373 . S
C1010 C1012 1.389 . S
C1011 H990 0.950 . S
C1011 C1010 1.373 . S
C1011 C1027 1.377 . S
C1012 C1010 1.389 . S
C1012 C1013 1.524 . S
C1012 C1026 1.377 . S
C1013 C1012 1.524 . S
C1013 C1014 1.397 . S
C1013 C1018 1.363 . S
C1014 H991 0.950 . S
C1014 C1013 1.397 . S
C1014 C1015 1.334 . S
C1015 H992 0.950 . S
C1015 C1014 1.334 . S
C1015 C1016 1.287 . S
C1016 C1015 1.287 . S
C1016 C1017 1.524 . S
C1016 H1035 0.913 . S
C1017 H993 0.950 . S
C1017 C1016 1.524 . S
C1017 C1018 1.415 . S
C1018 H994 0.950 . S
C1018 C1013 1.363 . S
C1018 C1017 1.415 . S
C1019 H995 0.951 . S
C1019 C1020 1.366 . S
C1019 C1021 1.388 . S
C1020 C1019 1.366 . S
C1020 C1024 1.385 . S
C1021 H996 0.951 . S
C1021 C1019 1.388 . S
C1021 C1022 1.366 . S
C1022 C1021 1.366 . S
C1022 C1023 1.414 . S
C1022 C1025 1.499 . S
C1023 H997 0.950 . S
C1023 C1022 1.414 . S
C1023 C1024 1.374 . S
C1024 H998 0.950 . S
C1024 C1020 1.385 . S
C1024 C1023 1.374 . S
C1025 C1022 1.499 . S
C1025 C1026 1.373 1_554 S
C1025 C1027 1.389 1_554 S
C1026 H999 0.950 1_556 S
C1026 C1012 1.377 . S
C1026 C1025 1.373 1_556 S
C1027 C1011 1.377 . S
C1027 C1025 1.389 1_556 S
C1027 C1028 1.524 1_556 S
C1028 C1027 1.524 1_554 S
C1028 C1029 1.397 . S
C1028 C1033 1.363 1_554 S
C1029 H1000 0.950 . S
C1029 C1028 1.397 . S
C1029 C1030 1.334 . S
C1030 H1001 0.950 . S
C1030 C1029 1.334 . S
C1030 C1031 1.287 . S
C1031 C1030 1.287 . S
C1031 C1032 1.524 . S
C1031 H1034 0.999 . S
C1032 H1002 0.950 1_554 S
C1032 C1031 1.524 . S
C1032 C1033 1.415 1_554 S
C1033 H1003 0.950 . S
C1033 C1028 1.363 1_556 S
C1033 C1032 1.415 1_556 S
H1034 C1031 0.999 . S
H1035 C1016 0.913 . S
H1036 C1054 0.951 1_655 S
H1037 C1056 0.951 1_655 S
H1038 C1058 0.950 . S
H1039 C1059 0.950 . S
H1040 C1061 0.950 . S
H1041 C1064 0.950 . S
H1042 C1065 0.950 . S
H1043 C1067 0.950 1_655 S
H1044 C1068 0.939 1_655 S
H1045 C1069 0.951 . S
H1046 C1071 0.951 . S
H1047 C1073 0.950 . S
H1048 C1074 0.950 . S
H1049 C1076 0.950 . S
H1050 C1079 0.950 . S
H1051 C1080 0.950 . S
H1052 C1082 0.950 . S
H1053 C1083 0.950 . S
C1054 H1036 0.951 1_455 S
C1054 C1055 1.366 . S
C1054 C1056 1.388 . S
C1055 C1054 1.366 . S
C1055 C1059 1.385 . S
C1056 H1037 0.951 1_455 S
C1056 C1054 1.388 . S
C1056 C1057 1.366 . S
C1057 C1056 1.366 . S
C1057 C1058 1.414 . S
C1057 C1060 1.499 . S
C1058 H1038 0.950 . S
C1058 C1057 1.414 . S
C1058 C1059 1.374 . S
C1059 H1039 0.950 . S
C1059 C1055 1.385 . S
C1059 C1058 1.374 . S
C1060 C1057 1.499 . S
C1060 C1061 1.373 . S
C1060 C1062 1.389 . S
C1061 H1040 0.950 . S
C1061 C1060 1.373 . S
C1061 C1077 1.377 . S
C1062 C1060 1.389 . S
C1062 C1063 1.524 . S
C1062 C1076 1.377 . S
C1063 C1062 1.524 . S
C1063 C1064 1.397 . S
C1063 C1068 1.386 . S
C1064 H1041 0.950 . S
C1064 C1063 1.397 . S
C1064 C1065 1.334 . S
C1065 H1042 0.950 . S
C1065 C1064 1.334 . S
C1065 C1066 1.287 . S
C1066 C1065 1.287 . S
C1066 C1067 1.524 . S
C1066 H1085 0.913 . S
C1067 H1043 0.950 1_455 S
C1067 C1066 1.524 . S
C1067 C1068 1.403 . S
C1068 H1044 0.939 1_455 S
C1068 C1063 1.386 . S
C1068 C1067 1.403 . S
C1069 H1045 0.951 . S
C1069 C1070 1.366 . S
C1069 C1071 1.388 . S
C1070 C1069 1.366 . S
C1070 C1074 1.385 1_455 S
C1071 H1046 0.951 . S
C1071 C1069 1.388 . S
C1071 C1072 1.366 . S
C1072 C1071 1.366 . S
C1072 C1073 1.414 1_455 S
C1072 C1075 1.499 . S
C1073 H1047 0.950 . S
C1073 C1072 1.414 1_655 S
C1073 C1074 1.374 . S
C1074 H1048 0.950 . S
C1074 C1070 1.385 1_655 S
C1074 C1073 1.374 . S
C1075 C1072 1.499 . S
C1075 C1076 1.373 . S
C1075 C1077 1.389 . S
C1076 H1049 0.950 . S
C1076 C1062 1.377 . S
C1076 C1075 1.373 . S
C1077 C1061 1.377 . S
C1077 C1075 1.389 . S
C1077 C1078 1.524 . S
C1078 C1077 1.524 . S
C1078 C1079 1.397 1_455 S
C1078 C1083 1.363 . S
C1079 H1050 0.950 . S
C1079 C1078 1.397 1_655 S
C1079 C1080 1.334 . S
C1080 H1051 0.950 . S
C1080 C1079 1.334 . S
C1080 C1081 1.287 1_655 S
C1081 C1080 1.287 1_455 S
C1081 C1082 1.524 . S
C1081 H1084 0.999 . S
C1082 H1052 0.950 . S
C1082 C1081 1.524 . S
C1082 C1083 1.415 . S
C1083 H1053 0.950 . S
C1083 C1078 1.363 . S
C1083 C1082 1.415 . S
H1084 C1081 0.999 . S
H1085 C1066 0.913 . S
C205 C7 0.623 . S
C220 C185 0.619 . S
C255 C51 1.917 . S
C270 C163 1.870 . S
C305 C87 1.221 . S
C320 C174 1.217 . S
C355 C16 0.229 . S
C370 C179 0.185 . S
C420 C157 1.826 . S
C405 C42 1.858 . S
C470 C168 1.134 . S
C455 C96 1.145 . S
C505 C47 1.260 . S
C520 C141 1.253 . S
C555 C91 3.006 . S
C570 C146 2.961 1_655 S
C605 C2 1.877 . S
C620 C124 1.852 1_565 S
C670 C135 1.119 . S
C655 C56 1.126 . S
C720 C152 2.947 . S
C705 C82 2.991 . S
C755 C11 1.917 . S
C770 C130 1.877 . S
C820 C147 1.710 . S
C805 C19 1.677 . S
C855 C50 1.425 . S
C870 C125 1.478 . S
C905 C99 1.517 . S
C920 C136 1.546 . S
C970 C169 1.526 . S
C955 C59 1.514 . S
C1020 C180 1.309 . S
C1005 C90 1.281 . S
C1055 C10 1.403 . S
C1070 C158 1.442 . S
