# Generated by pormake.
# Topology wbl, (4,4)-cn, num edge types: 1
# Building blocks:
#     Node 0, Type 0, BuildingBlock: MUDLON_clean_linker_0, # of connection points: 4
#     Node 1, Type 0, BuildingBlock: MUDLON_clean_linker_0, # of connection points: 4
#     Node 2, Type 0, BuildingBlock: MUDLON_clean_linker_0, # of connection points: 4
#     Node 3, Type 0, BuildingBlock: MUDLON_clean_linker_0, # of connection points: 4
#     Node 4, Type 0, BuildingBlock: MUDLON_clean_linker_0, # of connection points: 4
#     Node 5, Type 0, BuildingBlock: MUDLON_clean_linker_0, # of connection points: 4
#     Node 6, Type 0, BuildingBlock: MUDLON_clean_linker_0, # of connection points: 4
#     Node 7, Type 0, BuildingBlock: MUDLON_clean_linker_0, # of connection points: 4
#     Node 8, Type 1, BuildingBlock: TATPOV_clean_sbu_0, # of connection points: 4
#     Node 9, Type 1, BuildingBlock: TATPOV_clean_sbu_0, # of connection points: 4
#     Node 10, Type 1, BuildingBlock: TATPOV_clean_sbu_0, # of connection points: 4
#     Node 11, Type 1, BuildingBlock: TATPOV_clean_sbu_0, # of connection points: 4
#     Node 12, Type 1, BuildingBlock: TATPOV_clean_sbu_0, # of connection points: 4
#     Node 13, Type 1, BuildingBlock: TATPOV_clean_sbu_0, # of connection points: 4
#     Node 14, Type 1, BuildingBlock: TATPOV_clean_sbu_0, # of connection points: 4
#     Node 15, Type 1, BuildingBlock: TATPOV_clean_sbu_0, # of connection points: 4
#     Edge 16, Type (0, 1), BuildingBlock: UVAHIK_clean_linker_0, # of connection points: 2
#     Edge 17, Type (0, 1), BuildingBlock: UVAHIK_clean_linker_0, # of connection points: 2
#     Edge 18, Type (0, 1), BuildingBlock: UVAHIK_clean_linker_0, # of connection points: 2
#     Edge 19, Type (0, 1), BuildingBlock: UVAHIK_clean_linker_0, # of connection points: 2
#     Edge 20, Type (0, 1), BuildingBlock: UVAHIK_clean_linker_0, # of connection points: 2
#     Edge 21, Type (0, 1), BuildingBlock: UVAHIK_clean_linker_0, # of connection points: 2
#     Edge 22, Type (0, 1), BuildingBlock: UVAHIK_clean_linker_0, # of connection points: 2
#     Edge 23, Type (0, 1), BuildingBlock: UVAHIK_clean_linker_0, # of connection points: 2
#     Edge 24, Type (0, 1), BuildingBlock: UVAHIK_clean_linker_0, # of connection points: 2
#     Edge 25, Type (0, 1), BuildingBlock: UVAHIK_clean_linker_0, # of connection points: 2
#     Edge 26, Type (0, 1), BuildingBlock: UVAHIK_clean_linker_0, # of connection points: 2
#     Edge 27, Type (0, 1), BuildingBlock: UVAHIK_clean_linker_0, # of connection points: 2
#     Edge 28, Type (0, 1), BuildingBlock: UVAHIK_clean_linker_0, # of connection points: 2
#     Edge 29, Type (0, 1), BuildingBlock: UVAHIK_clean_linker_0, # of connection points: 2
#     Edge 30, Type (0, 1), BuildingBlock: UVAHIK_clean_linker_0, # of connection points: 2
#     Edge 31, Type (0, 1), BuildingBlock: UVAHIK_clean_linker_0, # of connection points: 2
#     Edge 32, Type (0, 1), BuildingBlock: UVAHIK_clean_linker_0, # of connection points: 2
#     Edge 33, Type (0, 1), BuildingBlock: UVAHIK_clean_linker_0, # of connection points: 2
#     Edge 34, Type (0, 1), BuildingBlock: UVAHIK_clean_linker_0, # of connection points: 2
#     Edge 35, Type (0, 1), BuildingBlock: UVAHIK_clean_linker_0, # of connection points: 2
#     Edge 36, Type (0, 1), BuildingBlock: UVAHIK_clean_linker_0, # of connection points: 2
#     Edge 37, Type (0, 1), BuildingBlock: UVAHIK_clean_linker_0, # of connection points: 2
#     Edge 38, Type (0, 1), BuildingBlock: UVAHIK_clean_linker_0, # of connection points: 2
#     Edge 39, Type (0, 1), BuildingBlock: UVAHIK_clean_linker_0, # of connection points: 2
#     Edge 40, Type (0, 1), BuildingBlock: UVAHIK_clean_linker_0, # of connection points: 2
#     Edge 41, Type (0, 1), BuildingBlock: UVAHIK_clean_linker_0, # of connection points: 2
#     Edge 42, Type (0, 1), BuildingBlock: UVAHIK_clean_linker_0, # of connection points: 2
#     Edge 43, Type (0, 1), BuildingBlock: UVAHIK_clean_linker_0, # of connection points: 2
#     Edge 44, Type (0, 1), BuildingBlock: UVAHIK_clean_linker_0, # of connection points: 2
#     Edge 45, Type (0, 1), BuildingBlock: UVAHIK_clean_linker_0, # of connection points: 2
#     Edge 46, Type (0, 1), BuildingBlock: UVAHIK_clean_linker_0, # of connection points: 2
#     Edge 47, Type (0, 1), BuildingBlock: UVAHIK_clean_linker_0, # of connection points: 2
# Relax obj value: 0.127
# Max RMSD: 0.125
# Mean RMSD: 0.116
data_MOF--net-wbl--node1-TATPOV_clean_sbu_0--node2-MUDLON_clean_linker_0--edge1-UVAHIK_clean_linker_0
_symmetry_space_group_name_H-M    P1
_symmetry_Int_Tables_number       1
_symmetry_cell_setting            triclinic
loop_
_symmetry_equiv_pos_as_xyz
'x, y, z'
_cell_length_a     64.932519
_cell_length_b     64.91913
_cell_length_c     91.488413
_cell_angle_alpha  91.340347
_cell_angle_beta   91.310974
_cell_angle_gamma 89.993766
loop_
_atom_site_label
_atom_site_type_symbol
_atom_site_fract_x
_atom_site_fract_y
_atom_site_fract_z
_atom_type_partial_charge
H0 H 0.1559 0.99216 0.32818 0.0
N1 N 0.11735 0.99174 0.31784 0.0
H2 H 0.16947 0.97607 0.35041 0.0
H3 H 0.09491 0.97097 0.33796 0.0
H4 H 0.10826 0.95504 0.36003 0.0
H5 H 0.10544 0.95136 0.31433 0.0
H6 H 0.11445 0.92844 0.29412 0.0
H7 H 0.13151 0.00271 0.29218 0.0
H8 H 0.1391 0.98022 0.27122 0.0
H9 H 0.11956 0.03236 0.31912 0.0
H10 H 0.07633 0.98206 0.31752 0.0
H11 H 0.09132 0.05691 0.32097 0.0
H12 H 0.0479 0.00627 0.32078 0.0
H13 H 0.00139 0.132 0.34042 0.0
H14 H 0.98703 0.1417 0.36411 0.0
H15 H 0.97606 0.07748 0.37263 0.0
H16 H 0.99055 0.06794 0.34888 0.0
H17 H 0.96654 0.07392 0.32823 0.0
H18 H 0.93668 0.08097 0.31283 0.0
H19 H 0.97334 0.122 0.28734 0.0
H20 H 0.0028 0.11613 0.30384 0.0
H21 H 0.04139 0.09593 0.33932 0.0
H22 H 0.06832 0.07013 0.33719 0.0
H23 H 0.02703 0.0314 0.31087 0.0
N24 N 0.00337 0.0946 0.32822 0.0
H25 H -0.00031 0.05645 0.31417 0.0
C26 C 0.12443 0.98303 0.33142 0.0
C27 C 0.14544 0.98423 0.33519 0.0
C28 C 0.15315 0.97495 0.34781 0.0
C29 C 0.1399 0.96434 0.35697 0.0
C30 C 0.11878 0.96338 0.3533 0.0
C31 C 0.11112 0.97253 0.34063 0.0
C32 C 0.11855 0.97865 0.30496 0.0
C33 C 0.11269 0.95781 0.30495 0.0
C34 C 0.11763 0.94471 0.2932 0.0
C35 C 0.128 0.95231 0.28108 0.0
C36 C 0.1318 0.97363 0.28055 0.0
C37 C 0.12731 0.98658 0.29245 0.0
C38 C 0.10006 0.00552 0.31852 0.0
C39 C 0.10389 0.02668 0.31938 0.0
C40 C 0.08769 0.04064 0.32062 0.0
C41 C 0.0672 0.03367 0.3214 0.0
C42 C 0.06338 0.01232 0.32018 0.0
C43 C 0.07965 0.99838 0.31854 0.0
C44 C 0.99697 0.09937 0.34291 0.0
C45 C 0.9962 0.12004 0.34754 0.0
C46 C 0.98805 0.12551 0.36106 0.0
C47 C 0.98037 0.11033 0.37019 0.0
C48 C 0.98169 0.0895 0.36574 0.0
C49 C 0.99004 0.08403 0.35224 0.0
C50 C 0.98676 0.09513 0.31748 0.0
C51 C 0.9682 0.08444 0.31936 0.0
C52 C 0.95111 0.08828 0.31031 0.0
C53 C 0.95232 0.10245 0.29894 0.0
C54 C 0.97154 0.11155 0.29628 0.0
C55 C 0.9885 0.10807 0.30557 0.0
C56 C 0.01852 0.0784 0.32688 0.0
C57 C 0.0381 0.08175 0.33323 0.0
C58 C 0.05359 0.06704 0.33181 0.0
C59 C 0.05011 0.04872 0.32359 0.0
C60 C 0.03033 0.04518 0.31739 0.0
C61 C 0.01462 0.05973 0.31916 0.0
H62 H 0.9813 0.42486 0.58659 0.0
N63 N 0.96969 0.4517 0.56666 0.0
H64 H 0.96361 0.41639 0.60899 0.0
H65 H 0.93532 0.47065 0.57695 0.0
H66 H 0.917 0.46189 0.59911 0.0
H67 H 0.93965 0.47055 0.55037 0.0
H68 H 0.91962 0.45475 0.5302 0.0
H69 H 0.97662 0.41571 0.5536 0.0
H70 H 0.95617 0.3993 0.53395 0.0
H71 H 0.01016 0.44881 0.56911 0.0
H72 H 0.9609 0.49255 0.56378 0.0
H73 H 0.03514 0.4768 0.57054 0.0
H74 H 0.98579 0.52075 0.56411 0.0
H75 H 0.09333 0.5475 0.60484 0.0
H76 H 0.09568 0.56436 0.62909 0.0
H77 H 0.0561 0.61318 0.61374 0.0
H78 H 0.05397 0.59643 0.58967 0.0
H79 H 0.05462 0.58988 0.56404 0.0
H80 H 0.07098 0.61651 0.54976 0.0
H81 H 0.13049 0.5891 0.55887 0.0
H82 H 0.11402 0.56344 0.57382 0.0
H83 H 0.07903 0.52753 0.56489 0.0
H84 H 0.05272 0.50188 0.55837 0.0
H85 H 0.00718 0.53947 0.5802 0.0
N86 N 0.0748 0.5617 0.5809 0.0
H87 H 0.03312 0.56557 0.58555 0.0
C88 C 0.95955 0.44821 0.58015 0.0
C89 C 0.96738 0.4331 0.58939 0.0
C90 C 0.95715 0.4282 0.60209 0.0
C91 C 0.93872 0.43827 0.60576 0.0
C92 C 0.9312 0.45392 0.59666 0.0
C93 C 0.94157 0.45888 0.58395 0.0
C94 C 0.95965 0.44422 0.55345 0.0
C95 C 0.94374 0.45526 0.54655 0.0
C96 C 0.93217 0.4461 0.53506 0.0
C97 C 0.9361 0.42565 0.53046 0.0
C98 C 0.95283 0.41516 0.53694 0.0
C99 C 0.96447 0.42442 0.54828 0.0
C100 C 0.98384 0.46859 0.56617 0.0
C101 C 0.00486 0.46451 0.56788 0.0
C102 C 0.0191 0.48058 0.56855 0.0
C103 C 0.0126 0.50117 0.56731 0.0
C104 C 0.99141 0.50516 0.56526 0.0
C105 C 0.97711 0.48901 0.56486 0.0
C106 C 0.07371 0.57072 0.59541 0.0
C107 C 0.08492 0.56166 0.60683 0.0
C108 C 0.08615 0.57126 0.62066 0.0
C109 C 0.07619 0.59018 0.62326 0.0
C110 C 0.06418 0.59877 0.61199 0.0
C111 C 0.06294 0.58916 0.5982 0.0
C112 C 0.08326 0.575 0.57021 0.0
C113 C 0.07116 0.5896 0.56285 0.0
C114 C 0.08055 0.6047 0.55459 0.0
C115 C 0.10213 0.60523 0.55341 0.0
C116 C 0.11392 0.58956 0.5599 0.0
C117 C 0.10456 0.57473 0.5683 0.0
C118 C 0.05829 0.54821 0.576 0.0
C119 C 0.06326 0.53033 0.56801 0.0
C120 C 0.04821 0.5156 0.56444 0.0
C121 C 0.02784 0.51826 0.56908 0.0
C122 C 0.02263 0.53681 0.57638 0.0
C123 C 0.03764 0.55176 0.57964 0.0
H124 H 0.62212 0.47444 0.83596 0.0
N125 N 0.58664 0.47292 0.82097 0.0
H126 H 0.63142 0.45608 0.85826 0.0
H127 H 0.56194 0.44641 0.83554 0.0
H128 H 0.57083 0.42847 0.85791 0.0
H129 H 0.57825 0.43285 0.81258 0.0
H130 H 0.59055 0.41529 0.79077 0.0
H131 H 0.60312 0.49016 0.79797 0.0
H132 H 0.61397 0.47312 0.77537 0.0
H133 H 0.58931 0.51314 0.82561 0.0
H134 H 0.54575 0.4642 0.8168 0.0
H135 H 0.5613 0.53802 0.8268 0.0
H136 H 0.51726 0.48859 0.81928 0.0
H137 H 0.46993 0.61593 0.83756 0.0
H138 H 0.45087 0.62636 0.85929 0.0
H139 H 0.4396 0.5624 0.86839 0.0
H140 H 0.45882 0.5521 0.84663 0.0
H141 H 0.4368 0.55893 0.82395 0.0
H142 H 0.409 0.56823 0.80736 0.0
H143 H 0.45077 0.60733 0.78429 0.0
H144 H 0.478 0.59945 0.80215 0.0
H145 H 0.50924 0.57639 0.842 0.0
H146 H 0.53544 0.5497 0.84146 0.0
H147 H 0.49921 0.51557 0.80884 0.0
N148 N 0.47431 0.57814 0.82646 0.0
H149 H 0.47232 0.54136 0.81039 0.0
C150 C 0.59139 0.46192 0.83412 0.0
C151 C 0.6109 0.46441 0.84075 0.0
C152 C 0.61611 0.45401 0.8535 0.0
C153 C 0.60183 0.44085 0.85989 0.0
C154 C 0.58225 0.43833 0.85319 0.0
C155 C 0.57707 0.44876 0.84044 0.0
C156 C 0.59046 0.46275 0.80715 0.0
C157 C 0.58601 0.44178 0.80454 0.0
C158 C 0.59283 0.43177 0.79185 0.0
C159 C 0.60371 0.44264 0.78132 0.0
C160 C 0.60632 0.46405 0.78341 0.0
C161 C 0.59997 0.47389 0.79626 0.0
C162 C 0.56955 0.48692 0.82144 0.0
C163 C 0.57357 0.5078 0.82418 0.0
C164 C 0.55747 0.52192 0.82502 0.0
C165 C 0.53684 0.51536 0.82347 0.0
C166 C 0.53288 0.4943 0.82049 0.0
C167 C 0.54912 0.48024 0.81929 0.0
C168 C 0.46578 0.58335 0.8405 0.0
C169 C 0.4637 0.6042 0.84443 0.0
C170 C 0.45269 0.61009 0.85674 0.0
C171 C 0.44356 0.59518 0.86541 0.0
C172 C 0.44655 0.5742 0.86193 0.0
C173 C 0.45752 0.56831 0.84952 0.0
C174 C 0.45927 0.57923 0.81463 0.0
C175 C 0.44 0.56948 0.81531 0.0
C176 C 0.42409 0.57462 0.80557 0.0
C177 C 0.42728 0.5891 0.7946 0.0
C178 C 0.44736 0.59684 0.79293 0.0
C179 C 0.46309 0.59216 0.80299 0.0
C180 C 0.48874 0.56115 0.82629 0.0
C181 C 0.5068 0.56297 0.83492 0.0
C182 C 0.52193 0.54777 0.83442 0.0
C183 C 0.51975 0.53056 0.82487 0.0
C184 C 0.50144 0.52846 0.81642 0.0
C185 C 0.486 0.54346 0.81722 0.0
H186 H 0.50182 0.90373 0.10929 0.0
N187 N 0.49525 0.93196 0.08939 0.0
H188 H 0.48585 0.90136 0.13306 0.0
H189 H 0.47231 0.96225 0.10254 0.0
H190 H 0.45647 0.96032 0.12652 0.0
H191 H 0.45613 0.94354 0.08149 0.0
H192 H 0.43172 0.92329 0.06643 0.0
H193 H 0.50297 0.89761 0.07431 0.0
H194 H 0.47851 0.87694 0.05948 0.0
H195 H 0.53584 0.93365 0.09081 0.0
H196 H 0.48239 0.96765 0.07649 0.0
H197 H 0.5582 0.9603 0.08149 0.0
H198 H 0.50461 0.99412 0.06662 0.0
H199 H 0.62235 0.02627 0.07899 0.0
H200 H 0.63347 0.04303 0.10223 0.0
H201 H 0.58864 0.09116 0.09529 0.0
H202 H 0.57755 0.07445 0.07245 0.0
H203 H 0.5684 0.06885 0.04854 0.0
H204 H 0.57989 0.09551 0.0323 0.0
H205 H 0.6359 0.06109 0.02481 0.0
H206 H 0.62513 0.03581 0.04241 0.0
H207 H 0.59516 -0.00067 0.05351 0.0
H208 H 0.56942 0.97328 0.05885 0.0
H209 H 0.52836 0.02128 0.07398 0.0
N210 N 0.5936 0.03912 0.06012 0.0
H211 H 0.55381 0.04718 0.06788 0.0
C212 C 0.48828 0.93307 0.1042 0.0
C213 C 0.4923 0.91633 0.11317 0.0
C214 C 0.48319 0.91507 0.12677 0.0
C215 C 0.4698 0.93064 0.13172 0.0
C216 C 0.4665 0.94795 0.12296 0.0
C217 C 0.47565 0.94916 0.1093 0.0
C218 C 0.48139 0.92197 0.07901 0.0
C219 C 0.46129 0.92928 0.07645 0.0
C220 C 0.44728 0.9176 0.06792 0.0
C221 C 0.45313 0.89843 0.06185 0.0
C222 C 0.47357 0.89173 0.06384 0.0
C223 C 0.48754 0.90343 0.07235 0.0
C224 C 0.50757 0.94859 0.0843 0.0
C225 C 0.52898 0.94689 0.0856 0.0
C226 C 0.54169 0.96202 0.0801 0.0
C227 C 0.53321 0.9792 0.07304 0.0
C228 C 0.51164 0.9811 0.07199 0.0
C229 C 0.49889 0.96593 0.0776 0.0
C230 C 0.59938 0.04915 0.07383 0.0
C231 C 0.61494 0.0404 0.08255 0.0
C232 C 0.62117 0.04991 0.0958 0.0
C233 C 0.61199 0.06846 0.10046 0.0
C234 C 0.59617 0.07703 0.09184 0.0
C235 C 0.58982 0.06742 0.07871 0.0
C236 C 0.59646 0.05093 0.04722 0.0
C237 C 0.58311 0.06703 0.04336 0.0
C238 C 0.58962 0.08215 0.03382 0.0
C239 C 0.60929 0.08097 0.02764 0.0
C240 C 0.6211 0.06308 0.02987 0.0
C241 C 0.61488 0.04842 0.03976 0.0
C242 C 0.57655 0.02507 0.06048 0.0
C243 C 0.58035 0.00419 0.05758 0.0
C244 C 0.56573 0.98936 0.06083 0.0
C245 C 0.54705 0.99516 0.06725 0.0
C246 C 0.5426 0.01626 0.0691 0.0
C247 C 0.5572 0.03113 0.06566 0.0
H248 H 0.10968 0.55193 0.93314 0.0
N249 N 0.0751 0.5539 0.94784 0.0
H250 H 0.11947 0.57276 0.91251 0.0
H251 H 0.05105 0.58273 0.9347 0.0
H252 H 0.06086 0.60429 0.91424 0.0
H253 H 0.05339 0.58431 0.96169 0.0
H254 H 0.064 0.60302 0.98396 0.0
H255 H 0.10684 0.54539 0.96527 0.0
H256 H 0.11881 0.56511 0.98669 0.0
H257 H 0.08059 0.51714 0.9355 0.0
H258 H 0.03462 0.55551 0.95566 0.0
H259 H 0.0553 0.48968 0.93173 0.0
H260 H 0.0096 0.52772 0.95303 0.0
H261 H 0.97299 0.4002 0.92581 0.0
H262 H 0.95812 0.38665 0.90271 0.0
H263 H 0.94527 0.44876 0.88924 0.0
H264 H 0.96029 0.46212 0.91211 0.0
H265 H 0.93417 0.45465 0.93222 0.0
H266 H 0.90505 0.44687 0.94726 0.0
H267 H 0.94583 0.41577 0.97765 0.0
H268 H 0.97469 0.42226 0.96171 0.0
H269 H 0.01329 0.43657 0.94062 0.0
H270 H 0.0378 0.4648 0.94411 0.0
H271 H 0.98847 0.50855 0.93699 0.0
N272 N 0.97318 0.43897 0.9355 0.0
H273 H 0.96396 0.48013 0.93468 0.0
C274 C 0.07979 0.56591 0.93539 0.0
C275 C 0.09897 0.56328 0.92897 0.0
C276 C 0.10455 0.57532 0.9173 0.0
C277 C 0.09105 0.5904 0.91184 0.0
C278 C 0.07158 0.59277 0.91815 0.0
C279 C 0.06598 0.58059 0.92986 0.0
C280 C 0.07926 0.56325 0.96198 0.0
C281 C 0.06719 0.57946 0.96749 0.0
C282 C 0.07353 0.59042 0.98013 0.0
C283 C 0.0925 0.58594 0.98717 0.0
C284 C 0.10395 0.56897 0.98192 0.0
C285 C 0.09727 0.5577 0.96954 0.0
C286 C 0.05965 0.53818 0.94606 0.0
C287 C 0.06506 0.51948 0.93929 0.0
C288 C 0.05059 0.50376 0.93728 0.0
C289 C 0.03038 0.50626 0.94226 0.0
C290 C 0.02491 0.52522 0.94891 0.0
C291 C 0.03935 0.54113 0.95063 0.0
C292 C 0.96781 0.43209 0.92079 0.0
C293 C 0.96744 0.41086 0.91769 0.0
C294 C 0.95878 0.40318 0.90457 0.0
C295 C 0.9503 0.41665 0.89424 0.0
C296 C 0.9518 0.438 0.89693 0.0
C297 C 0.96043 0.44568 0.91009 0.0
C298 C 0.95654 0.4384 0.94563 0.0
C299 C 0.9369 0.44625 0.94214 0.0
C300 C 0.9202 0.44197 0.95092 0.0
C301 C 0.92289 0.43024 0.96358 0.0
C302 C 0.94298 0.4242 0.96774 0.0
C303 C 0.95957 0.42808 0.95875 0.0
C304 C 0.98698 0.45621 0.93716 0.0
C305 C 0.00787 0.45229 0.93984 0.0
C306 C 0.02185 0.46849 0.94169 0.0
C307 C 0.01525 0.48907 0.94064 0.0
C308 C 0.99415 0.49297 0.93803 0.0
C309 C 0.98011 0.4767 0.93648 0.0
H310 H 0.52723 0.39809 0.18198 0.0
N311 N 0.5353 0.42361 0.2044 0.0
H312 H 0.54577 0.395 0.15899 0.0
H313 H 0.56744 0.44762 0.19644 0.0
H314 H 0.58636 0.44441 0.17359 0.0
H315 H 0.56381 0.44399 0.22203 0.0
H316 H 0.58605 0.42847 0.24044 0.0
H317 H 0.53206 0.38624 0.21495 0.0
H318 H 0.5549 0.37017 0.23285 0.0
H319 H 0.49575 0.41793 0.19848 0.0
H320 H 0.5398 0.46438 0.21226 0.0
H321 H 0.46895 0.44399 0.19685 0.0
H322 H 0.51286 0.49036 0.21211 0.0
H323 H 0.38661 0.52868 0.18369 0.0
H324 H 0.37449 0.53853 0.15929 0.0
H325 H 0.4375 0.54713 0.14658 0.0
H326 H 0.44941 0.53764 0.17085 0.0
H327 H 0.44222 0.56713 0.18898 0.0
H328 H 0.43656 0.59887 0.20285 0.0
H329 H 0.40392 0.56473 0.23515 0.0
H330 H 0.40828 0.53322 0.22043 0.0
H331 H 0.4201 0.49125 0.20291 0.0
H332 H 0.44674 0.46584 0.20816 0.0
H333 H 0.49333 0.51006 0.19677 0.0
N334 N 0.42496 0.52951 0.19431 0.0
H335 H 0.46658 0.53581 0.1931 0.0
C336 C 0.54611 0.42286 0.19089 0.0
C337 C 0.54002 0.40833 0.18012 0.0
C338 C 0.55053 0.40668 0.16702 0.0
C339 C 0.56749 0.41948 0.16455 0.0
C340 C 0.57343 0.43428 0.17529 0.0
C341 C 0.56268 0.43609 0.18834 0.0
C342 C 0.54612 0.41624 0.21712 0.0
C343 C 0.56122 0.42811 0.22466 0.0
C344 C 0.57416 0.41909 0.23513 0.0
C345 C 0.57251 0.39797 0.23806 0.0
C346 C 0.55653 0.38652 0.2311 0.0
C347 C 0.54348 0.39563 0.22078 0.0
C348 C 0.51961 0.43906 0.20578 0.0
C349 C 0.49941 0.4337 0.20166 0.0
C350 C 0.48409 0.44869 0.20084 0.0
C351 C 0.48854 0.46947 0.20442 0.0
C352 C 0.50879 0.47466 0.20902 0.0
C353 C 0.52425 0.45967 0.20945 0.0
C354 C 0.41884 0.53236 0.17921 0.0
C355 C 0.39778 0.53229 0.17552 0.0
C356 C 0.39091 0.53788 0.16158 0.0
C357 C 0.40505 0.54376 0.15104 0.0
C358 C 0.42622 0.54294 0.15453 0.0
C359 C 0.43307 0.53731 0.16846 0.0
C360 C 0.425 0.54788 0.20345 0.0
C361 C 0.43385 0.56643 0.19903 0.0
C362 C 0.43081 0.58463 0.20714 0.0
C363 C 0.41936 0.58456 0.22003 0.0
C364 C 0.41218 0.56557 0.22504 0.0
C365 C 0.41481 0.54749 0.21674 0.0
C366 C 0.44129 0.51511 0.19721 0.0
C367 C 0.43611 0.49536 0.20164 0.0
C368 C 0.45142 0.48083 0.20451 0.0
C369 C 0.47235 0.4856 0.20264 0.0
C370 C 0.4775 0.50571 0.19849 0.0
C371 C 0.46215 0.52042 0.19605 0.0
H372 H 0.39334 0.99148 0.44753 0.0
N373 N 0.43261 0.99067 0.4564 0.0
H374 H 0.37786 0.97507 0.42546 0.0
H375 H 0.45301 0.96875 0.43509 0.0
H376 H 0.43781 0.9526 0.41322 0.0
H377 H 0.4445 0.95028 0.4586 0.0
H378 H 0.4355 0.92756 0.47813 0.0
H379 H 0.42006 0.00215 0.48277 0.0
H380 H 0.41256 0.97982 0.5031 0.0
H381 H 0.43153 0.03122 0.45481 0.0
H382 H 0.47329 0.97973 0.4553 0.0
H383 H 0.46005 0.0545 0.4505 0.0
H384 H 0.50181 0.00249 0.4496 0.0
H385 H 0.5474 0.12453 0.42323 0.0
H386 H 0.56234 0.13139 0.39956 0.0
H387 H 0.57629 0.06661 0.39391 0.0
H388 H 0.56053 0.05987 0.41743 0.0
H389 H 0.58492 0.07125 0.43745 0.0
H390 H 0.61333 0.08055 0.45381 0.0
H391 H 0.57276 0.12018 0.47874 0.0
H392 H 0.54474 0.1121 0.46125 0.0
H393 H 0.50776 0.08935 0.42744 0.0
H394 H 0.48084 0.06445 0.43206 0.0
H395 H 0.52463 0.02821 0.4569 0.0
N396 N 0.5466 0.08903 0.43689 0.0
H397 H 0.55177 0.05224 0.45107 0.0
C398 C 0.42431 0.98164 0.44295 0.0
C399 C 0.4031 0.98315 0.43999 0.0
C400 C 0.39431 0.97371 0.42745 0.0
C401 C 0.40667 0.96265 0.41759 0.0
C402 C 0.42795 0.96132 0.42049 0.0
C403 C 0.43668 0.97061 0.43306 0.0
C404 C 0.43218 0.97783 0.46902 0.0
C405 C 0.43769 0.9569 0.4683 0.0
C406 C 0.43274 0.9439 0.47967 0.0
C407 C 0.42272 0.95167 0.49215 0.0
C408 C 0.41953 0.97309 0.49347 0.0
C409 C 0.424 0.98596 0.48194 0.0
C410 C 0.45023 0.00383 0.45508 0.0
C411 C 0.44693 0.02499 0.45388 0.0
C412 C 0.46326 0.03818 0.45118 0.0
C413 C 0.48329 0.0304 0.44925 0.0
C414 C 0.48669 0.00914 0.45101 0.0
C415 C 0.47034 0.99602 0.45412 0.0
C416 C 0.553 0.09182 0.42209 0.0
C417 C 0.55333 0.11181 0.41672 0.0
C418 C 0.56207 0.11568 0.40328 0.0
C419 C 0.57088 0.0996 0.39496 0.0
C420 C 0.5696 0.07933 0.40001 0.0
C421 C 0.56066 0.07545 0.41346 0.0
C422 C 0.56283 0.09164 0.44782 0.0
C423 C 0.58211 0.08204 0.44636 0.0
C424 C 0.59837 0.08714 0.45598 0.0
C425 C 0.59561 0.10146 0.46757 0.0
C426 C 0.57576 0.10965 0.46969 0.0
C427 C 0.55963 0.10492 0.45981 0.0
C428 C 0.53169 0.07296 0.43903 0.0
C429 C 0.51156 0.07585 0.43369 0.0
C430 C 0.49612 0.0617 0.43657 0.0
C431 C 0.50031 0.04448 0.44523 0.0
C432 C 0.52073 0.04119 0.45017 0.0
C433 C 0.53633 0.05513 0.44693 0.0
H434 H 0.07085 0.90919 0.68231 0.0
N435 N 0.07002 0.94426 0.6976 0.0
H436 H 0.08834 0.9021 0.65937 0.0
H437 H 0.09319 0.97164 0.68289 0.0
H438 H 0.11054 0.96491 0.65965 0.0
H439 H 0.10345 0.96485 0.70917 0.0
H440 H 0.12426 0.95478 0.73039 0.0
H441 H 0.06259 0.91377 0.71538 0.0
H442 H 0.08395 0.90249 0.73584 0.0
H443 H 0.03349 0.94137 0.68438 0.0
H444 H 0.0715 0.98284 0.71073 0.0
H445 H 0.00631 0.96713 0.68354 0.0
H446 H 0.04387 0.00812 0.71097 0.0
H447 H 0.92314 0.04208 0.67394 0.0
H448 H 0.91581 0.0563 0.64972 0.0
H449 H 0.97725 0.08154 0.64934 0.0
H450 H 0.98471 0.06694 0.67313 0.0
H451 H 0.97379 0.08645 0.69354 0.0
H452 H 0.95912 0.11506 0.7071 0.0
H453 H 0.91589 0.07351 0.72645 0.0
H454 H 0.92964 0.04516 0.71161 0.0
H455 H 0.95339 0.00763 0.69359 0.0
H456 H 0.98096 0.98262 0.69705 0.0
H457 H 0.02567 0.03212 0.69745 0.0
N458 N 0.95684 0.04778 0.69053 0.0
H459 H 0.99771 0.05701 0.69538 0.0
C460 C 0.08072 0.94085 0.68418 0.0
C461 C 0.07952 0.92137 0.67738 0.0
C462 C 0.08939 0.91744 0.66424 0.0
C463 C 0.10067 0.93301 0.65758 0.0
C464 C 0.10208 0.95256 0.66454 0.0
C465 C 0.09215 0.95647 0.67776 0.0
C466 C 0.08139 0.94007 0.71085 0.0
C467 C 0.09881 0.95162 0.71527 0.0
C468 C 0.11083 0.94565 0.72733 0.0
C469 C 0.106 0.92768 0.7349 0.0
C470 C 0.08807 0.91665 0.73063 0.0
C471 C 0.07587 0.92291 0.71881 0.0
C472 C 0.0544 0.95997 0.69771 0.0
C473 C 0.03581 0.95596 0.69017 0.0
C474 C 0.0202 0.97068 0.68986 0.0
C475 C 0.02264 0.98971 0.6974 0.0
C476 C 0.04142 0.99377 0.70493 0.0
C477 C 0.05726 0.97915 0.70494 0.0
C478 C 0.95431 0.05355 0.67547 0.0
C479 C 0.93516 0.05023 0.66844 0.0
C480 C 0.93103 0.0583 0.65465 0.0
C481 C 0.94597 0.07009 0.6478 0.0
C482 C 0.96548 0.07259 0.65449 0.0
C483 C 0.96972 0.06421 0.66814 0.0
C484 C 0.95229 0.06372 0.70117 0.0
C485 C 0.96128 0.08338 0.70075 0.0
C486 C 0.95294 0.09983 0.70874 0.0
C487 C 0.93583 0.09686 0.71765 0.0
C488 C 0.9285 0.07663 0.71929 0.0
C489 C 0.9365 0.06031 0.71099 0.0
C490 C 0.97352 0.03401 0.69386 0.0
C491 C 0.96916 0.013 0.69464 0.0
C492 C 0.98501 -0.00125 0.69643 0.0
C493 C 0.00571 0.0052 0.69712 0.0
C494 C 0.00998 0.02648 0.69697 0.0
C495 C 0.99399 0.04079 0.69555 0.0
Zn496 Zn 0.29294 0.71125 0.99131 0.0
Zn497 Zn 0.31155 0.68762 0.01176 0.0
O498 O 0.28079 0.68467 0.01602 0.0
O499 O 0.26555 0.70527 0.00033 0.0
O500 O 0.32525 0.67014 0.02703 0.0
O501 O 0.30959 0.73562 0.9988 0.0
O502 O 0.32385 0.71639 0.01577 0.0
C503 C 0.26451 0.69296 0.01083 0.0
C504 C 0.31681 0.6777 0.97912 0.0
O505 O 0.32082 0.67423 0.99253 0.0
O506 O 0.30484 0.69232 0.97568 0.0
C507 C 0.31926 0.65173 0.02873 0.0
O508 O 0.30412 0.64438 0.02038 0.0
C509 C 0.32183 0.73375 0.00966 0.0
Zn510 Zn 0.30526 0.80347 0.28351 0.0
Zn511 Zn 0.3289 0.82448 0.26464 0.0
O512 O 0.29926 0.82959 0.25715 0.0
O513 O 0.28002 0.81114 0.27145 0.0
O514 O 0.34694 0.83954 0.25071 0.0
O515 O 0.32074 0.77747 0.27834 0.0
O516 O 0.3393 0.79463 0.26286 0.0
C517 C 0.28163 0.82306 0.26077 0.0
C518 C 0.32902 0.83668 0.29721 0.0
O519 O 0.3355 0.83878 0.2843 0.0
O520 O 0.31589 0.82286 0.29979 0.0
C521 C 0.34115 0.85542 0.24384 0.0
O522 O 0.32247 0.86263 0.24568 0.0
C523 C 0.33477 0.77783 0.26896 0.0
Zn524 Zn 0.23776 0.80714 0.48784 0.0
Zn525 Zn 0.21658 0.82962 0.50797 0.0
O526 O 0.24697 0.83361 0.51421 0.0
O527 O 0.26432 0.81373 0.49903 0.0
O528 O 0.20088 0.84508 0.52356 0.0
O529 O 0.22133 0.78184 0.49265 0.0
O530 O 0.20495 0.80028 0.5092 0.0
C531 C 0.26401 0.82619 0.50989 0.0
C532 C 0.21446 0.8415 0.47589 0.0
O533 O 0.20884 0.84419 0.48904 0.0
O534 O 0.22681 0.82706 0.47263 0.0
C535 C 0.20774 0.86116 0.53023 0.0
O536 O 0.22574 0.8686 0.52673 0.0
C537 C 0.208 0.78313 0.50252 0.0
Zn538 Zn 0.2146 0.72418 0.74323 0.0
Zn539 Zn 0.19793 0.70817 0.76728 0.0
O540 O 0.19699 0.73953 0.77141 0.0
O541 O 0.21307 0.75237 0.75272 0.0
O542 O 0.18588 0.69639 0.78538 0.0
O543 O 0.24013 0.70719 0.74658 0.0
O544 O 0.22666 0.69484 0.76646 0.0
C545 C 0.2042 0.75492 0.7648 0.0
C546 C 0.17713 0.7012 0.73722 0.0
O547 O 0.17841 0.69788 0.75087 0.0
O548 O 0.19035 0.71248 0.7313 0.0
C549 C 0.16653 0.6959 0.78718 0.0
O550 O 0.15415 0.70337 0.77706 0.0
C551 C 0.24146 0.69578 0.75759 0.0
Zn552 Zn 0.81435 0.21915 0.5329 0.0
Zn553 Zn 0.83138 0.20108 0.5089 0.0
O554 O 0.83503 0.23215 0.50574 0.0
O555 O 0.81958 0.247 0.52441 0.0
O556 O 0.84548 0.18817 0.49162 0.0
O557 O 0.78786 0.2043 0.52727 0.0
O558 O 0.80175 0.19028 0.50763 0.0
C559 C 0.82918 0.24835 0.51258 0.0
C560 C 0.84845 0.19246 0.53971 0.0
O561 O 0.84785 0.1893 0.52594 0.0
O562 O 0.83619 0.2052 0.54559 0.0
C563 C 0.86428 0.19294 0.49005 0.0
O564 O 0.87302 0.20602 0.49946 0.0
C565 C 0.78637 0.19287 0.51588 0.0
Zn566 Zn 0.792 0.3054 0.76454 0.0
Zn567 Zn 0.81295 0.32699 0.74465 0.0
O568 O 0.78253 0.33372 0.74006 0.0
O569 O 0.76523 0.31481 0.75527 0.0
O570 O 0.8282 0.34146 0.72898 0.0
O571 O 0.80502 0.27896 0.75742 0.0
O572 O 0.82265 0.29702 0.74191 0.0
C573 C 0.76548 0.32747 0.74496 0.0
C574 C 0.82026 0.33658 0.777 0.0
O575 O 0.82406 0.34002 0.76369 0.0
O576 O 0.80717 0.32297 0.78016 0.0
C577 C 0.82767 0.36085 0.72736 0.0
O578 O 0.81673 0.37231 0.73631 0.0
C579 C 0.81833 0.27985 0.74757 0.0
Zn580 Zn 0.71679 0.31167 0.03646 0.0
Zn581 Zn 0.69338 0.3278 0.01456 0.0
O582 O 0.68788 0.29663 0.012 0.0
O583 O 0.70725 0.28342 0.0295 0.0
O584 O 0.67811 0.34114 0.99782 0.0
O585 O 0.74252 0.3237 0.02832 0.0
O586 O 0.72302 0.33763 0.01121 0.0
C587 C 0.69468 0.28104 0.0188 0.0
C588 C 0.68491 0.33972 0.04636 0.0
O589 O 0.68037 0.34062 0.03277 0.0
O590 O 0.69987 0.32871 0.0507 0.0
C591 C 0.66563 0.33228 0.98879 0.0
O592 O 0.66127 0.3127 0.99028 0.0
C593 C 0.74067 0.33487 0.01722 0.0
Zn594 Zn 0.73056 0.21038 0.23423 0.0
Zn595 Zn 0.71084 0.18956 0.25517 0.0
O596 O 0.70348 0.2201 0.25888 0.0
O597 O 0.72089 0.23742 0.24285 0.0
O598 O 0.69614 0.17592 0.27152 0.0
O599 O 0.7574 0.19815 0.2414 0.0
O600 O 0.74112 0.18118 0.25825 0.0
C601 C 0.70869 0.23718 0.25345 0.0
C602 C 0.69995 0.18104 0.223 0.0
O603 O 0.69783 0.17712 0.23645 0.0
O604 O 0.71254 0.19477 0.21925 0.0
C605 C 0.68816 0.15802 0.2708 0.0
O606 O 0.68967 0.14685 0.25871 0.0
C607 C 0.75773 0.18581 0.25193 0.0
C608 C 0.12801 0.91865 0.2666 0.0
C609 C 0.13725 0.9378 0.27017 0.0
C610 C 0.13886 0.90345 0.25888 0.0
C611 C 0.18651 0.89278 0.23819 0.0
H612 H 0.19185 0.84617 0.26367 0.0
C613 C 0.2626 0.85092 0.24783 0.0
C614 C 0.26271 0.83117 0.25374 0.0
C615 C 0.24397 0.86048 0.24415 0.0
C616 C 0.1903 0.85862 0.25606 0.0
H617 H 0.16473 0.95631 0.26728 0.0
H618 H 0.18312 0.93023 0.25359 0.0
H619 H 0.16365 0.87003 0.26685 0.0
H620 H 0.24374 0.80496 0.25884 0.0
H621 H 0.2113 0.82121 0.25178 0.0
H622 H 0.21365 0.88176 0.22773 0.0
C623 C 0.16751 0.92693 0.25676 0.0
C624 C 0.17403 0.87239 0.25793 0.0
C625 C 0.15684 0.94196 0.26464 0.0
C626 C 0.24405 0.82037 0.25455 0.0
C627 C 0.22546 0.82975 0.25058 0.0
C628 C 0.20268 0.87883 0.23617 0.0
C629 C 0.15901 0.90724 0.25434 0.0
C630 C 0.17254 0.89013 0.2495 0.0
C631 C 0.22507 0.85033 0.24607 0.0
C632 C 0.20538 0.86214 0.24558 0.0
H633 H 0.11275 0.91503 0.27033 0.0
H634 H 0.13188 0.88843 0.25704 0.0
H635 H 0.18556 0.90624 0.23142 0.0
H636 H 0.27676 0.85962 0.24708 0.0
H637 H 0.24443 0.87637 0.24084 0.0
C638 C 0.10401 0.63209 0.53396 0.0
C639 C 0.11253 0.62278 0.54645 0.0
C640 C 0.11368 0.64905 0.52788 0.0
C641 C 0.1312 0.69271 0.52433 0.0
H642 H 0.19058 0.69206 0.52051 0.0
C643 C 0.17995 0.76606 0.51629 0.0
C644 C 0.19602 0.76465 0.50627 0.0
C645 C 0.16889 0.7485 0.51993 0.0
C646 C 0.17397 0.69242 0.52138 0.0
H647 H 0.13767 0.62449 0.56252 0.0
H648 H 0.15463 0.65358 0.55175 0.0
H649 H 0.17298 0.66145 0.52883 0.0
H650 H 0.21285 0.74371 0.49206 0.0
H651 H 0.1936 0.71314 0.49847 0.0
H652 H 0.13228 0.72382 0.51701 0.0
C653 C 0.14064 0.6476 0.54654 0.0
C654 C 0.16392 0.67496 0.52625 0.0
C655 C 0.13093 0.63084 0.55267 0.0
C656 C 0.20062 0.74535 0.49986 0.0
C657 C 0.18965 0.7278 0.50357 0.0
C658 C 0.14129 0.71027 0.51956 0.0
C659 C 0.13213 0.65691 0.53411 0.0
C660 C 0.14247 0.67499 0.52792 0.0
C661 C 0.17375 0.72916 0.51369 0.0
C662 C 0.16281 0.71035 0.51814 0.0
H663 H 0.08995 0.6262 0.52882 0.0
H664 H 0.10686 0.65589 0.51823 0.0
H665 H 0.11466 0.69319 0.52561 0.0
H666 H 0.17598 0.7807 0.5214 0.0
H667 H 0.15685 0.74998 0.52789 0.0
C668 C 0.4095 0.61888 0.78257 0.0
C669 C 0.40936 0.598 0.78639 0.0
C670 C 0.39169 0.62835 0.77721 0.0
C671 C 0.33706 0.61872 0.76473 0.0
H672 H 0.3305 0.67499 0.7791 0.0
C673 C 0.26006 0.66552 0.76814 0.0
C674 C 0.26039 0.68366 0.76005 0.0
C675 C 0.27808 0.654 0.77018 0.0
C676 C 0.33221 0.6593 0.775 0.0
H677 H 0.39046 0.57036 0.78616 0.0
H678 H 0.35911 0.58723 0.77794 0.0
H679 H 0.36244 0.65679 0.78425 0.0
H680 H 0.27975 0.70407 0.74789 0.0
H681 H 0.31133 0.68433 0.75197 0.0
H682 H 0.30608 0.62129 0.75617 0.0
C683 C 0.37312 0.59625 0.77883 0.0
C684 C 0.35059 0.64888 0.77778 0.0
C685 C 0.39113 0.58661 0.78381 0.0
C686 C 0.27903 0.69013 0.75413 0.0
C687 C 0.29707 0.67889 0.75645 0.0
C688 C 0.31844 0.62907 0.76224 0.0
C689 C 0.37301 0.61743 0.77592 0.0
C690 C 0.35339 0.62848 0.77258 0.0
C691 C 0.2967 0.66075 0.76445 0.0
C692 C 0.316 0.64946 0.76729 0.0
H693 H 0.42301 0.62841 0.78442 0.0
H694 H 0.39247 0.6445 0.77459 0.0
H695 H 0.33866 0.60316 0.7604 0.0
H696 H 0.24587 0.66013 0.77274 0.0
H697 H 0.27757 0.64008 0.77646 0.0
C698 C 0.41821 0.8821 0.06097 0.0
C699 C 0.4376 0.88455 0.0547 0.0
C700 C 0.40443 0.86725 0.05539 0.0
C701 C 0.3927 0.83292 0.02351 0.0
H702 H 0.36709 0.79909 0.05242 0.0
C703 C 0.34809 0.75004 0.02681 0.0
C704 C 0.33408 0.75173 0.01496 0.0
C705 C 0.36 0.76696 0.03151 0.0
C706 C 0.3742 0.80833 0.04422 0.0
H707 H 0.4573 0.87409 0.03721 0.0
H708 H 0.43333 0.84791 0.02758 0.0
H709 H 0.389 0.82785 0.0604 0.0
H710 H 0.32147 0.7726 0.99886 0.0
H711 H 0.34211 0.80208 0.00713 0.0
H712 H 0.37827 0.81304 0.00734 0.0
C713 C 0.42876 0.85755 0.03677 0.0
C714 C 0.38654 0.82497 0.04878 0.0
C715 C 0.44256 0.87241 0.04236 0.0
C716 C 0.33214 0.77074 0.00799 0.0
C717 C 0.34406 0.78761 0.01267 0.0
C718 C 0.3803 0.81629 0.01895 0.0
C719 C 0.40974 0.85452 0.04344 0.0
C720 C 0.39599 0.8374 0.03848 0.0
C721 C 0.35817 0.78589 0.02444 0.0
C722 C 0.37102 0.80376 0.02926 0.0
H723 H 0.41398 0.89105 0.07058 0.0
H724 H 0.38976 0.86547 0.06062 0.0
H725 H 0.39967 0.84229 0.01533 0.0
H726 H 0.35 0.7356 0.0324 0.0
H727 H 0.3709 0.76511 0.04051 0.0
C728 C 0.09863 0.62187 0.99721 0.0
C729 C 0.10191 0.60051 0.9983 0.0
C730 C 0.11133 0.63587 0.0049 0.0
C731 C 0.15772 0.64037 0.03015 0.0
H732 H 0.17448 0.6788 0.0009 0.0
C733 C 0.24097 0.66825 0.02281 0.0
C734 C 0.24411 0.68735 0.0163 0.0
C735 C 0.221 0.66152 0.0256 0.0
C736 C 0.16983 0.66863 0.00944 0.0
H737 H 0.11911 0.57738 0.01026 0.0
H738 H 0.14228 0.60169 0.02265 0.0
H739 H 0.14278 0.66009 0.99731 0.0
H740 H 0.22918 0.71534 0.00913 0.0
H741 H 0.19447 0.70389 0.01436 0.0
H742 H 0.18584 0.64825 0.04176 0.0
C743 C 0.12977 0.6077 0.01598 0.0
C744 C 0.15146 0.65783 0.0074 0.0
C745 C 0.11667 0.59367 0.00861 0.0
C746 C 0.22716 0.70035 0.01386 0.0
C747 C 0.20729 0.69378 0.01685 0.0
C748 C 0.17629 0.65119 0.03217 0.0
C749 C 0.12803 0.62892 0.0135 0.0
C750 C 0.1454 0.6431 0.01748 0.0
C751 C 0.20389 0.6739 0.02207 0.0
C752 C 0.18279 0.66502 0.02161 0.0
H753 H 0.08742 0.62799 0.98954 0.0
H754 H 0.10904 0.65217 0.00316 0.0
H755 H 0.15341 0.62935 0.03825 0.0
H756 H 0.25379 0.65795 0.02487 0.0
H757 H 0.21894 0.64608 0.02955 0.0
C758 C 0.42607 0.62176 0.2274 0.0
C759 C 0.41321 0.6043 0.22735 0.0
C760 C 0.41905 0.64085 0.23268 0.0
C761 C 0.36988 0.668 0.23966 0.0
H762 H 0.40476 0.70863 0.25972 0.0
C763 C 0.33711 0.73944 0.26872 0.0
C764 C 0.34545 0.75849 0.26488 0.0
C765 C 0.34659 0.72106 0.26447 0.0
C766 C 0.39494 0.69742 0.25404 0.0
H767 H 0.38302 0.59332 0.23342 0.0
H768 H 0.37144 0.62596 0.24339 0.0
H769 H 0.41925 0.67524 0.25233 0.0
H770 H 0.37063 0.77322 0.25394 0.0
H771 H 0.38744 0.74085 0.24669 0.0
H772 H 0.34549 0.68995 0.24171 0.0
C773 C 0.3867 0.62516 0.23887 0.0
C774 C 0.4032 0.67835 0.24978 0.0
C775 C 0.39356 0.60623 0.2334 0.0
C776 C 0.36379 0.75877 0.25699 0.0
C777 C 0.37347 0.74031 0.25292 0.0
C778 C 0.36161 0.68687 0.24409 0.0
C779 C 0.39909 0.64285 0.2382 0.0
C780 C 0.3907 0.66333 0.24263 0.0
C781 C 0.36476 0.72132 0.25646 0.0
C782 C 0.374 0.70169 0.2514 0.0
H783 H 0.44144 0.62083 0.22309 0.0
H784 H 0.42902 0.65413 0.23197 0.0
H785 H 0.35991 0.65712 0.23379 0.0
H786 H 0.32301 0.73868 0.27479 0.0
H787 H 0.33968 0.70659 0.26742 0.0
C788 C 0.39366 0.94207 0.5083 0.0
C789 C 0.41305 0.93731 0.5025 0.0
C790 C 0.38243 0.92723 0.5155 0.0
C791 C 0.3735 0.87315 0.51166 0.0
H792 H 0.33533 0.88272 0.54306 0.0
C793 C 0.30201 0.82281 0.51432 0.0
C794 C 0.28369 0.83392 0.51634 0.0
C795 C 0.32106 0.83176 0.518 0.0
C796 C 0.34586 0.87976 0.53426 0.0
H797 H 0.4366 0.91361 0.50118 0.0
H798 H 0.41644 0.8874 0.5132 0.0
H799 H 0.36412 0.90637 0.5401 0.0
H800 H 0.27084 0.8625 0.52477 0.0
H801 H 0.30389 0.87846 0.53054 0.0
H802 H 0.35455 0.84777 0.5049 0.0
C803 C 0.41008 0.90273 0.51212 0.0
C804 C 0.36244 0.89323 0.53265 0.0
C805 C 0.42152 0.91772 0.50512 0.0
C806 C 0.2847 0.85355 0.52307 0.0
C807 C 0.30376 0.86266 0.52648 0.0
C808 C 0.35681 0.85989 0.51311 0.0
C809 C 0.39013 0.90716 0.5169 0.0
C810 C 0.37595 0.89047 0.521 0.0
C811 C 0.32224 0.85218 0.52347 0.0
C812 C 0.34226 0.86349 0.52406 0.0
H813 H 0.38633 0.95676 0.50639 0.0
H814 H 0.36698 0.93103 0.51889 0.0
H815 H 0.38352 0.87076 0.50246 0.0
H816 H 0.30167 0.80749 0.50936 0.0
H817 H 0.3349 0.82296 0.51593 0.0
C818 C 0.11369 0.90631 0.75705 0.0
C819 C 0.12073 0.91885 0.74584 0.0
C820 C 0.12738 0.89374 0.76477 0.0
C821 C 0.17596 0.86779 0.7567 0.0
H822 H 0.16633 0.84108 0.79339 0.0
C823 C 0.21469 0.79171 0.76686 0.0
C824 C 0.2008 0.77612 0.77035 0.0
C825 C 0.20956 0.81237 0.76912 0.0
C826 C 0.1693 0.84848 0.78316 0.0
H827 H 0.14831 0.92998 0.73552 0.0
H828 H 0.17208 0.9093 0.74963 0.0
H829 H 0.14883 0.87353 0.78801 0.0
H830 H 0.17151 0.76968 0.78014 0.0
H831 H 0.16208 0.80587 0.78355 0.0
H832 H 0.19556 0.84257 0.75147 0.0
C833 C 0.15582 0.90833 0.75191 0.0
C834 C 0.15926 0.86705 0.78006 0.0
C835 C 0.14211 0.9205 0.74393 0.0
C836 C 0.18247 0.78146 0.77733 0.0
C837 C 0.17713 0.80221 0.77935 0.0
C838 C 0.186 0.84943 0.75982 0.0
C839 C 0.14849 0.89378 0.76169 0.0
C840 C 0.16199 0.87658 0.76657 0.0
C841 C 0.19021 0.81787 0.77458 0.0
C842 C 0.18235 0.8392 0.77287 0.0
H843 H 0.09743 0.90521 0.75926 0.0
H844 H 0.1211 0.88289 0.77229 0.0
H845 H 0.17817 0.87425 0.74605 0.0
H846 H 0.22911 0.78796 0.7617 0.0
H847 H 0.22022 0.82406 0.76571 0.0
C848 C 0.60636 0.41283 0.76319 0.0
C849 C 0.61437 0.43136 0.76928 0.0
C850 C 0.61834 0.40033 0.75407 0.0
C851 C 0.66657 0.39753 0.7332 0.0
H852 H 0.67483 0.34588 0.75285 0.0
C853 C 0.74475 0.35721 0.73607 0.0
C854 C 0.74585 0.33638 0.73973 0.0
C855 C 0.72562 0.36677 0.73415 0.0
C856 C 0.6725 0.35985 0.7468 0.0
H857 H 0.64094 0.45181 0.76952 0.0
H858 H 0.66127 0.43047 0.75336 0.0
H859 H 0.6455 0.36713 0.75879 0.0
H860 H 0.72812 0.3086 0.74267 0.0
H861 H 0.69478 0.32487 0.73844 0.0
H862 H 0.6939 0.39051 0.72144 0.0
C863 C 0.64574 0.42559 0.75566 0.0
C864 C 0.65558 0.37209 0.75028 0.0
C865 C 0.63396 0.43788 0.76496 0.0
C866 C 0.72763 0.3248 0.74009 0.0
C867 C 0.70853 0.3342 0.73778 0.0
C868 C 0.68335 0.38509 0.7295 0.0
C869 C 0.6384 0.40632 0.75061 0.0
C870 C 0.65296 0.39144 0.744 0.0
C871 C 0.7072 0.35555 0.73555 0.0
C872 C 0.68709 0.36652 0.73678 0.0
H873 H 0.59115 0.40752 0.76593 0.0
H874 H 0.61229 0.38558 0.75022 0.0
H875 H 0.66476 0.41234 0.72811 0.0
H876 H 0.7586 0.36648 0.73577 0.0
H877 H 0.72539 0.38324 0.73259 0.0
C878 C 0.60687 0.11429 0.01376 0.0
C879 C 0.61881 0.0995 0.02117 0.0
C880 C 0.61539 0.13339 0.01031 0.0
C881 C 0.65553 0.16776 0.02512 0.0
H882 H 0.64743 0.19953 0.99009 0.0
C883 C 0.69868 0.24294 0.01949 0.0
C884 C 0.68725 0.26006 0.0149 0.0
C885 C 0.6907 0.2231 0.01769 0.0
C886 C 0.64968 0.19085 -4e-05 0.0
H887 H 0.64956 0.0931 0.0299 0.0
H888 H 0.66428 0.12561 0.02338 0.0
H889 H 0.63249 0.16482 0.99128 0.0
H890 H 0.65899 0.26975 0.00401 0.0
H891 H 0.64474 0.23489 0.00116 0.0
H892 H 0.67229 0.19352 0.034 0.0
C893 C 0.64825 0.12266 0.02052 0.0
C894 C 0.64116 0.17103 0.00063 0.0
C895 C 0.63979 0.10377 0.02405 0.0
C896 C 0.66813 0.25682 0.00768 0.0
C897 C 0.66 0.23687 0.00601 0.0
C898 C 0.66394 0.1874 0.02447 0.0
C899 C 0.63597 0.138 0.01419 0.0
C900 C 0.64429 0.15919 0.01317 0.0
C901 C 0.67096 0.21988 0.01144 0.0
C902 C 0.66141 0.1991 0.01184 0.0
H903 H 0.59077 0.11146 0.01112 0.0
H904 H 0.60558 0.14492 0.00537 0.0
H905 H 0.6577 0.1593 0.03511 0.0
H906 H 0.71363 0.24489 0.02485 0.0
H907 H 0.6998 0.21029 0.02161 0.0
C908 C 0.93109 0.13 0.28701 0.0
C909 C 0.93326 0.10932 0.29106 0.0
C910 C 0.91235 0.13731 0.2815 0.0
C911 C 0.86001 0.1212 0.26777 0.0
H912 H 0.84612 0.17666 0.28084 0.0
C913 C 0.77807 0.15775 0.26388 0.0
C914 C 0.77751 0.17659 0.2566 0.0
C915 C 0.79696 0.14872 0.26767 0.0
C916 C 0.84985 0.16117 0.27709 0.0
H917 H 0.91748 0.07983 0.29142 0.0
H918 H 0.88449 0.0929 0.2827 0.0
H919 H 0.87942 0.16222 0.28766 0.0
H920 H 0.79617 0.2009 0.24783 0.0
H921 H 0.82907 0.18541 0.25488 0.0
H922 H 0.82983 0.12016 0.25767 0.0
C923 C 0.89742 0.10341 0.28355 0.0
C924 C 0.86901 0.15292 0.28086 0.0
C925 C 0.91634 0.09597 0.28878 0.0
C926 C 0.79612 0.18636 0.2534 0.0
C927 C 0.81493 0.17755 0.25745 0.0
C928 C 0.84064 0.12937 0.26423 0.0
C929 C 0.89505 0.12433 0.28019 0.0
C930 C 0.87448 0.1329 0.27612 0.0
C931 C 0.8155 0.15862 0.26453 0.0
C932 C 0.83553 0.14949 0.26876 0.0
H933 H 0.94356 0.14092 0.28869 0.0
H934 H 0.91134 0.15337 0.27862 0.0
H935 H 0.86371 0.10584 0.26378 0.0
H936 H 0.76395 0.14983 0.2664 0.0
H937 H 0.79709 0.13414 0.2732 0.0
C938 C 0.92819 0.39821 0.51124 0.0
C939 C 0.92134 0.41419 0.52058 0.0
C940 C 0.91421 0.38402 0.50496 0.0
C941 C 0.86555 0.36184 0.51562 0.0
H942 H 0.87213 0.32706 0.48102 0.0
C943 C 0.82241 0.286 0.51116 0.0
C944 C 0.83457 0.26893 0.50735 0.0
C945 C 0.829 0.30591 0.50827 0.0
C946 C 0.87008 0.33666 0.49071 0.0
H947 H 0.89406 0.42915 0.52914 0.0
H948 H 0.86979 0.40506 0.51769 0.0
H949 H 0.89115 0.35957 0.4835 0.0
H950 H 0.86243 0.25907 0.49664 0.0
H951 H 0.87449 0.29393 0.49217 0.0
H952 H 0.84554 0.33875 0.5233 0.0
C953 C 0.88604 0.40305 0.51564 0.0
C954 C 0.88093 0.35529 0.49212 0.0
C955 C 0.90001 0.41706 0.52207 0.0
C956 C 0.85279 0.27201 0.49972 0.0
C957 C 0.85961 0.292 0.49708 0.0
C958 C 0.85483 0.34332 0.51425 0.0
C959 C 0.89307 0.38568 0.50777 0.0
C960 C 0.87914 0.36785 0.50476 0.0
C961 C 0.84815 0.30921 0.50184 0.0
C962 C 0.85729 0.33023 0.50196 0.0
H963 H 0.94447 0.39587 0.5095 0.0
H964 H 0.92019 0.37088 0.4989 0.0
H965 H 0.86412 0.3708 0.52568 0.0
H966 H 0.80809 0.28401 0.51681 0.0
H967 H 0.81949 0.31877 0.5117 0.0
C968 C 0.63107 0.09671 0.47887 0.0
C969 C 0.6137 0.10925 0.47639 0.0
C970 C 0.64925 0.10504 0.48495 0.0
C971 C 0.67498 0.15595 0.48995 0.0
H972 H 0.71571 0.12437 0.51153 0.0
C973 C 0.74815 0.19092 0.51754 0.0
C974 C 0.76659 0.18259 0.51225 0.0
C975 C 0.72935 0.18139 0.51411 0.0
C976 C 0.70441 0.13327 0.50548 0.0
H977 H 0.60168 0.14028 0.47948 0.0
H978 H 0.63255 0.15422 0.4911 0.0
H979 H 0.68227 0.10887 0.50513 0.0
H980 H 0.77993 0.15756 0.49953 0.0
H981 H 0.74686 0.14054 0.49385 0.0
H982 H 0.697 0.18053 0.49079 0.0
C983 C 0.63253 0.13815 0.48765 0.0
C984 C 0.68531 0.12442 0.50175 0.0
C985 C 0.61455 0.12997 0.48123 0.0
C986 C 0.76592 0.16436 0.50367 0.0
C987 C 0.74711 0.15457 0.50051 0.0
C988 C 0.69384 0.16488 0.49397 0.0
C989 C 0.6504 0.12604 0.48906 0.0
C990 C 0.67037 0.13561 0.49383 0.0
C991 C 0.72871 0.16315 0.50562 0.0
C992 C 0.70873 0.15358 0.50165 0.0
H993 H 0.6309 0.08054 0.4757 0.0
H994 H 0.66262 0.09515 0.48583 0.0
H995 H 0.66422 0.16492 0.48351 0.0
H996 H 0.74821 0.20498 0.52416 0.0
H997 H 0.71528 0.18823 0.51814 0.0
C998 C 0.90264 0.11422 0.72436 0.0
C999 C 0.92427 0.11491 0.72366 0.0
C1000 C 0.89139 0.13183 0.72798 0.0
C1001 C 0.89622 0.18617 0.74209 0.0
H1002 H 0.84406 0.19194 0.72103 0.0
C1003 C 0.85008 0.26256 0.73837 0.0
C1004 C 0.8299 0.2611 0.74349 0.0
C1005 C 0.8618 0.24479 0.73598 0.0
C1006 C 0.85858 0.19047 0.72699 0.0
H1007 H 0.95095 0.13472 0.72726 0.0
H1008 H 0.93128 0.16567 0.73262 0.0
H1009 H 0.86437 0.16078 0.71753 0.0
H1010 H 0.8059 0.23997 0.74964 0.0
H1011 H 0.82619 0.20886 0.74492 0.0
H1012 H 0.89054 0.21644 0.75103 0.0
C1013 C 0.923 0.15137 0.73064 0.0
C1014 C 0.87017 0.17254 0.72513 0.0
C1015 C 0.93432 0.1336 0.72733 0.0
C1016 C 0.82141 0.24154 0.7457 0.0
C1017 C 0.83297 0.22377 0.743 0.0
C1018 C 0.88478 0.2043 0.74371 0.0
C1019 C 0.90134 0.15082 0.73066 0.0
C1020 C 0.88907 0.17003 0.73276 0.0
C1021 C 0.85335 0.22529 0.73836 0.0
C1022 C 0.86582 0.20649 0.73625 0.0
H1023 H 0.89416 0.10031 0.72147 0.0
H1024 H 0.87478 0.13059 0.72832 0.0
H1025 H 0.91051 0.18475 0.74831 0.0
H1026 H 0.85705 0.27745 0.73668 0.0
H1027 H 0.87747 0.24625 0.73232 0.0
C1028 C 0.90493 0.40257 0.97717 0.0
C1029 C 0.90468 0.42249 0.97143 0.0
C1030 C 0.88722 0.39414 0.98295 0.0
C1031 C 0.83405 0.40651 0.99496 0.0
H1032 H 0.82584 0.34816 0.98669 0.0
C1033 C 0.75707 0.36275 0.00298 0.0
C1034 C 0.75904 0.34509 0.01151 0.0
C1035 C 0.77459 0.37289 0.9982 0.0
C1036 C 0.82799 0.36444 0.9891 0.0
H1037 H 0.8856 0.44954 0.96811 0.0
H1038 H 0.85443 0.43438 0.97743 0.0
H1039 H 0.85692 0.36491 0.97856 0.0
H1040 H 0.78081 0.32399 0.02149 0.0
H1041 H 0.81135 0.34141 0.01278 0.0
H1042 H 0.80457 0.4059 0.0051 0.0
C1043 C 0.86848 0.4254 0.9777 0.0
C1044 C 0.84587 0.37406 0.98457 0.0
C1045 C 0.88634 0.43401 0.97214 0.0
C1046 C 0.77881 0.33758 0.01496 0.0
C1047 C 0.79627 0.34749 0.00995 0.0
C1048 C 0.81596 0.39691 0.99928 0.0
C1049 C 0.86859 0.40517 0.98288 0.0
C1050 C 0.84929 0.39517 0.98759 0.0
C1051 C 0.79431 0.36529 0.00163 0.0
C1052 C 0.81292 0.37576 0.99651 0.0
H1053 H 0.91857 0.39302 0.97669 0.0
H1054 H 0.8881 0.37873 0.9872 0.0
H1055 H 0.83621 0.42271 0.99762 0.0
H1056 H 0.74201 0.36893 0.00023 0.0
H1057 H 0.77274 0.38655 0.99171 0.0
C1058 C 0.60967 0.39253 0.24504 0.0
C1059 C 0.58885 0.38723 0.24667 0.0
C1060 C 0.62532 0.38 0.25056 0.0
C1061 C 0.63678 0.33376 0.27287 0.0
H1062 H 0.67549 0.32238 0.24209 0.0
C1063 C 0.68009 0.25661 0.26546 0.0
C1064 C 0.69916 0.25667 0.2585 0.0
C1065 C 0.66938 0.27505 0.26783 0.0
C1066 C 0.66521 0.3256 0.25101 0.0
H1067 H 0.56829 0.3657 0.25679 0.0
H1068 H 0.59561 0.34338 0.2659 0.0
H1069 H 0.6517 0.35076 0.23974 0.0
H1070 H 0.72292 0.27617 0.24992 0.0
H1071 H 0.70458 0.30831 0.25446 0.0
H1072 H 0.64997 0.30788 0.28384 0.0
C1073 C 0.59984 0.35732 0.26044 0.0
C1074 C 0.65149 0.34197 0.24965 0.0
C1075 C 0.58415 0.36999 0.25503 0.0
C1076 C 0.70807 0.27561 0.25507 0.0
C1077 C 0.69752 0.29402 0.25762 0.0
C1078 C 0.6506 0.3173 0.27425 0.0
C1079 C 0.62058 0.36172 0.2577 0.0
C1080 C 0.63684 0.34604 0.26041 0.0
C1081 C 0.67765 0.29389 0.26343 0.0
C1082 C 0.66472 0.31281 0.26318 0.0
H1083 H 0.61399 0.4056 0.23864 0.0
H1084 H 0.64117 0.38406 0.24855 0.0
H1085 H 0.62579 0.33661 0.28142 0.0
H1086 H 0.67285 0.24224 0.26825 0.0
H1087 H 0.65408 0.27433 0.27225 0.0
C1088 C 0.16608 0.94166 0.36909 0.0
C1089 C 0.14814 0.95367 0.37002 0.0
C1090 C 0.1734 0.93087 0.38118 0.0
C1091 C 0.15657 0.91011 0.4163 0.0
H1092 H 0.21531 0.90404 0.42352 0.0
C1093 C 0.19099 0.86964 0.46714 0.0
C1094 C 0.20679 0.85536 0.46434 0.0
C1095 C 0.18382 0.88265 0.45616 0.0
C1096 C 0.19886 0.90552 0.42159 0.0
H1097 H 0.12411 0.96425 0.38443 0.0
H1098 H 0.13707 0.94569 0.40564 0.0
H1099 H 0.20299 0.92533 0.40354 0.0
H1100 H 0.22752 0.84368 0.44781 0.0
H1101 H 0.21506 0.86641 0.42874 0.0
H1102 H 0.15253 0.89032 0.43444 0.0
C1103 C 0.14525 0.94423 0.39548 0.0
C1104 C 0.19179 0.91767 0.41012 0.0
C1105 C 0.13785 0.95491 0.38335 0.0
C1106 C 0.21532 0.85447 0.45035 0.0
C1107 C 0.20829 0.86759 0.43944 0.0
C1108 C 0.16366 0.89807 0.42784 0.0
C1109 C 0.16304 0.93195 0.39451 0.0
C1110 C 0.17055 0.91992 0.40722 0.0
C1111 C 0.19245 0.88179 0.44222 0.0
C1112 C 0.18488 0.89546 0.43049 0.0
H1113 H 0.17416 0.94015 0.3589 0.0
H1114 H 0.18692 0.92128 0.37994 0.0
H1115 H 0.14012 0.91124 0.41427 0.0
H1116 H 0.18409 0.87072 0.4778 0.0
H1117 H 0.17168 0.89354 0.45863 0.0
C1118 C 0.08003 0.59187 0.65068 0.0
C1119 C 0.07984 0.60183 0.63721 0.0
C1120 C 0.08531 0.60273 0.66362 0.0
C1121 C 0.09442 0.65591 0.67897 0.0
H1122 H 0.13349 0.62844 0.70459 0.0
C1123 C 0.15655 0.69789 0.71387 0.0
C1124 C 0.16078 0.69114 0.7281 0.0
C1125 C 0.14228 0.68743 0.70479 0.0
C1126 C 0.1223 0.63621 0.6977 0.0
H1127 H 0.08483 0.63098 0.62674 0.0
H1128 H 0.09433 0.64975 0.64911 0.0
H1129 H 0.11617 0.60889 0.68488 0.0
H1130 H 0.15291 0.66852 0.74416 0.0
H1131 H 0.12822 0.64997 0.7281 0.0
H1132 H 0.10159 0.68351 0.69135 0.0
C1133 C 0.08988 0.63374 0.64985 0.0
C1134 C 0.1123 0.625 0.68642 0.0
C1135 C 0.08448 0.62295 0.63698 0.0
C1136 C 0.14999 0.67408 0.73323 0.0
C1137 C 0.13592 0.66342 0.72406 0.0
C1138 C 0.10459 0.66715 0.69015 0.0
C1139 C 0.09067 0.62372 0.66331 0.0
C1140 C 0.09869 0.63485 0.67665 0.0
C1141 C 0.13214 0.66987 0.7097 0.0
C1142 C 0.11901 0.6575 0.69938 0.0
H1143 H 0.07631 0.57565 0.65119 0.0
H1144 H 0.08549 0.59461 0.67383 0.0
H1145 H 0.08366 0.66388 0.67186 0.0
H1146 H 0.16453 0.71104 0.70963 0.0
H1147 H 0.13982 0.6926 0.69372 0.0
C1148 C 0.43123 0.59264 0.89118 0.0
C1149 C 0.42983 0.60166 0.87738 0.0
C1150 C 0.41838 0.5993 0.90244 0.0
C1151 C 0.38643 0.64404 0.91337 0.0
H1152 H 0.36239 0.60631 0.94046 0.0
C1153 C 0.32428 0.67081 0.95276 0.0
C1154 C 0.32736 0.66577 0.96751 0.0
C1155 C 0.33591 0.66131 0.94189 0.0
C1156 C 0.36912 0.61701 0.93301 0.0
H1157 H 0.41325 0.62392 0.86431 0.0
H1158 H 0.39075 0.63529 0.88375 0.0
H1159 H 0.38477 0.59298 0.92124 0.0
H1160 H 0.34434 0.64596 0.98229 0.0
H1161 H 0.36467 0.62932 0.96321 0.0
H1162 H 0.37072 0.66801 0.92499 0.0
C1163 C 0.40213 0.62356 0.8861 0.0
C1164 C 0.38197 0.60941 0.92205 0.0
C1165 C 0.41502 0.61703 0.87494 0.0
C1166 C 0.34164 0.65026 0.97104 0.0
C1167 C 0.35324 0.64067 0.96012 0.0
C1168 C 0.37353 0.65158 0.92422 0.0
C1169 C 0.40382 0.615 0.90005 0.0
C1170 C 0.39064 0.62285 0.91203 0.0
C1171 C 0.35083 0.64649 0.94549 0.0
C1172 C 0.36461 0.63815 0.93409 0.0
H1173 H 0.44254 0.58077 0.89335 0.0
H1174 H 0.42019 0.59249 0.91308 0.0
H1175 H 0.39324 0.65491 0.90608 0.0
H1176 H 0.31331 0.68257 0.94962 0.0
H1177 H 0.33348 0.66584 0.93066 0.0
C1178 C 0.46747 0.91826 0.15747 0.0
C1179 C 0.45816 0.9278 0.14535 0.0
C1180 C 0.45579 0.91283 0.16942 0.0
C1181 C 0.4065 0.92132 0.1879 0.0
H1182 H 0.41322 0.86446 0.19918 0.0
C1183 C 0.34785 0.88017 0.22387 0.0
C1184 C 0.35526 0.86546 0.2337 0.0
C1185 C 0.36107 0.88917 0.21398 0.0
C1186 C 0.41135 0.88049 0.1964 0.0
H1187 H 0.42935 0.93993 0.13667 0.0
H1188 H 0.40908 0.93078 0.15767 0.0
H1189 H 0.43545 0.87856 0.18088 0.0
H1190 H 0.3825 0.8491 0.24119 0.0
H1191 H 0.40565 0.86517 0.22428 0.0
H1192 H 0.38243 0.92329 0.20348 0.0
C1193 C 0.42545 0.92753 0.15788 0.0
C1194 C 0.4241 0.88855 0.18587 0.0
C1195 C 0.4371 0.93283 0.14586 0.0
C1196 C 0.37626 0.86024 0.23365 0.0
C1197 C 0.38952 0.86939 0.22388 0.0
C1198 C 0.39385 0.91331 0.19857 0.0
C1199 C 0.43456 0.91697 0.16959 0.0
C1200 C 0.42172 0.909 0.18143 0.0
C1201 C 0.38207 0.88381 0.2138 0.0
C1202 C 0.39601 0.89272 0.20288 0.0
H1203 H 0.48373 0.91454 0.15757 0.0
H1204 H 0.46329 0.90502 0.17842 0.0
H1205 H 0.40443 0.93718 0.18476 0.0
H1206 H 0.33173 0.88447 0.22359 0.0
H1207 H 0.35469 0.89996 0.20625 0.0
C1208 C 0.08376 0.60832 0.88814 0.0
C1209 C 0.09752 0.60353 0.89967 0.0
C1210 C 0.09045 0.61955 0.87626 0.0
C1211 C 0.13756 0.63085 0.85662 0.0
H1212 H 0.10602 0.67532 0.83956 0.0
C1213 C 0.17122 0.68084 0.81198 0.0
C1214 C 0.15806 0.68657 0.80037 0.0
C1215 C 0.16332 0.67156 0.82428 0.0
C1216 C 0.1149 0.66277 0.84408 0.0
H1217 H 0.12877 0.60784 0.90812 0.0
H1218 H 0.14042 0.62713 0.88737 0.0
H1219 H 0.09282 0.65764 0.86071 0.0
H1220 H 0.12625 0.6872 0.79262 0.0
H1221 H 0.11251 0.67059 0.81395 0.0
H1222 H 0.15945 0.63558 0.83996 0.0
C1223 C 0.12458 0.62189 0.88739 0.0
C1224 C 0.10734 0.65269 0.85621 0.0
C1225 C 0.1179 0.61081 0.89927 0.0
C1226 C 0.1368 0.68302 0.8014 0.0
C1227 C 0.1289 0.6736 0.81368 0.0
C1228 C 0.14503 0.64079 0.84447 0.0
C1229 C 0.11104 0.62612 0.87566 0.0
C1230 C 0.11869 0.63672 0.86266 0.0
C1231 C 0.14209 0.66763 0.82523 0.0
C1232 C 0.13388 0.65697 0.83809 0.0
H1233 H 0.06801 0.60283 0.88807 0.0
H1234 H 0.0797 0.62249 0.86733 0.0
H1235 H 0.14646 0.61833 0.86119 0.0
H1236 H 0.18766 0.68351 0.81159 0.0
H1237 H 0.17389 0.66755 0.83309 0.0
C1238 C 0.38099 0.54313 0.12909 0.0
C1239 C 0.3977 0.55215 0.13689 0.0
C1240 C 0.37328 0.55199 0.11629 0.0
C1241 C 0.38591 0.58986 0.08793 0.0
H1242 H 0.32655 0.5935 0.083 0.0
C1243 C 0.34614 0.64611 0.04834 0.0
C1244 C 0.32896 0.63885 0.04012 0.0
C1245 C 0.35506 0.6341 0.05927 0.0
C1246 C 0.34316 0.59238 0.08411 0.0
H1247 H 0.41941 0.57756 0.13736 0.0
H1248 H 0.40593 0.59306 0.11518 0.0
H1249 H 0.34129 0.57481 0.10352 0.0
H1250 H 0.30782 0.61319 0.03685 0.0
H1251 H 0.32339 0.59227 0.05596 0.0
H1252 H 0.3877 0.60788 0.06869 0.0
C1253 C 0.39902 0.5789 0.11873 0.0
C1254 C 0.35162 0.58162 0.09586 0.0
C1255 C 0.40676 0.57001 0.13147 0.0
C1256 C 0.32101 0.61926 0.043 0.0
C1257 C 0.32986 0.6073 0.05399 0.0
C1258 C 0.37743 0.60071 0.07623 0.0
C1259 C 0.38206 0.57013 0.11105 0.0
C1260 C 0.3731 0.5804 0.098 0.0
C1261 C 0.34694 0.61462 0.06228 0.0
C1262 C 0.35597 0.60224 0.07427 0.0
H1263 H 0.37383 0.52924 0.13291 0.0
H1264 H 0.36041 0.54464 0.11052 0.0
H1265 H 0.40251 0.58893 0.0891 0.0
H1266 H 0.35265 0.66113 0.04639 0.0
H1267 H 0.36806 0.64027 0.06558 0.0
C1268 C 0.3795 0.94 0.40579 0.0
C1269 C 0.39742 0.95189 0.40456 0.0
C1270 C 0.37157 0.92874 0.39373 0.0
C1271 C 0.38732 0.90616 0.35826 0.0
H1272 H 0.32846 0.89973 0.35152 0.0
C1273 C 0.35267 0.86461 0.30685 0.0
C1274 C 0.33667 0.85055 0.30921 0.0
C1275 C 0.35984 0.87772 0.31818 0.0
C1276 C 0.34494 0.90129 0.35334 0.0
H1277 H 0.42062 0.962 0.38965 0.0
H1278 H 0.40662 0.94261 0.36854 0.0
H1279 H 0.34116 0.92185 0.37169 0.0
H1280 H 0.31561 0.83933 0.32531 0.0
H1281 H 0.32816 0.86224 0.34505 0.0
H1282 H 0.39106 0.88563 0.33986 0.0
C1283 C 0.39895 0.94157 0.37889 0.0
C1284 C 0.35222 0.91392 0.3649 0.0
C1285 C 0.40695 0.95272 0.39096 0.0
C1286 C 0.32796 0.84997 0.32312 0.0
C1287 C 0.33504 0.86318 0.33441 0.0
C1288 C 0.38003 0.89362 0.34666 0.0
C1289 C 0.38132 0.92922 0.38017 0.0
C1290 C 0.3735 0.91641 0.36756 0.0
C1291 C 0.35107 0.87716 0.33207 0.0
C1292 C 0.35877 0.89095 0.34413 0.0
H1293 H 0.37198 0.93886 0.41618 0.0
H1294 H 0.35814 0.91917 0.39518 0.0
H1295 H 0.4038 0.90742 0.36014 0.0
H1296 H 0.3597 0.86548 0.29626 0.0
H1297 H 0.3721 0.88847 0.31602 0.0
C1298 C 0.13092 0.93572 0.64096 0.0
C1299 C 0.11088 0.92859 0.64346 0.0
C1300 C 0.14097 0.93011 0.62809 0.0
C1301 C 0.14098 0.88901 0.59986 0.0
H1302 H 0.17345 0.92695 0.57776 0.0
C1303 C 0.1759 0.8641 0.54508 0.0
C1304 C 0.196 0.87073 0.5423 0.0
C1305 C 0.16515 0.87239 0.55689 0.0
C1306 C 0.16462 0.91611 0.5839 0.0
H1307 H 0.08527 0.911 0.63399 0.0
H1308 H 0.10284 0.90111 0.61167 0.0
H1309 H 0.15548 0.93945 0.59943 0.0
H1310 H 0.22046 0.89153 0.54963 0.0
H1311 H 0.20188 0.90568 0.57043 0.0
H1312 H 0.15031 0.86559 0.58464 0.0
C1313 C 0.11093 0.91071 0.61977 0.0
C1314 C 0.15431 0.92329 0.59629 0.0
C1315 C 0.10088 0.91636 0.63257 0.0
C1316 C 0.20497 0.88612 0.55144 0.0
C1317 C 0.19427 0.89432 0.56333 0.0
C1318 C 0.15136 0.88182 0.58757 0.0
C1319 C 0.1312 0.91722 0.61749 0.0
C1320 C 0.14229 0.90982 0.60435 0.0
C1321 C 0.17429 0.8874 0.5663 0.0
C1322 C 0.16325 0.89527 0.57938 0.0
H1323 H 0.13911 0.94504 0.64917 0.0
H1324 H 0.15665 0.93527 0.62667 0.0
H1325 H 0.13217 0.87816 0.60601 0.0
H1326 H 0.16846 0.8524 0.53817 0.0
H1327 H 0.14965 0.86699 0.55865 0.0
C1328 C 0.61859 0.43983 0.88486 0.0
C1329 C 0.60736 0.4298 0.87347 0.0
C1330 C 0.62403 0.42939 0.89756 0.0
C1331 C 0.61083 0.38408 0.91919 0.0
H1332 H 0.66595 0.39175 0.93561 0.0
C1333 C 0.64484 0.33377 0.96537 0.0
C1334 C 0.65715 0.34375 0.97621 0.0
C1335 C 0.63788 0.3444 0.95308 0.0
C1336 C 0.65041 0.38963 0.93128 0.0
H1337 H 0.59315 0.40088 0.86645 0.0
H1338 H 0.60265 0.38265 0.88863 0.0
H1339 H 0.65558 0.41 0.9137 0.0
H1340 H 0.6713 0.37289 0.98284 0.0
H1341 H 0.65898 0.39141 0.96154 0.0
H1342 H 0.60572 0.36363 0.93679 0.0
C1343 C 0.607 0.39868 0.88782 0.0
C1344 C 0.64447 0.40009 0.91871 0.0
C1345 C 0.60156 0.40913 0.87511 0.0
C1346 C 0.66196 0.36468 0.97465 0.0
C1347 C 0.655 0.37528 0.96239 0.0
C1348 C 0.61678 0.3736 0.93179 0.0
C1349 C 0.61838 0.40867 0.89916 0.0
C1350 C 0.6246 0.39748 0.91253 0.0
C1351 C 0.64309 0.36521 0.95137 0.0
C1352 C 0.63663 0.3763 0.938 0.0
H1353 H 0.62298 0.45584 0.88405 0.0
H1354 H 0.6325 0.43762 0.90619 0.0
H1355 H 0.59533 0.38193 0.91479 0.0
H1356 H 0.64087 0.31765 0.96622 0.0
H1357 H 0.62887 0.33614 0.94473 0.0
C1358 C 0.62327 0.10048 0.11399 0.0
C1359 C 0.61919 0.07926 0.11405 0.0
C1360 C 0.63003 0.11086 0.12673 0.0
C1361 C 0.6542 0.10219 0.16311 0.0
H1362 H 0.63744 0.15888 0.17004 0.0
C1363 C 0.67899 0.1503 0.21478 0.0
C1364 C 0.68804 0.16933 0.21164 0.0
C1365 C 0.66864 0.1388 0.20378 0.0
C1366 C 0.64221 0.14305 0.16823 0.0
H1367 H 0.61874 0.05222 0.12747 0.0
H1368 H 0.63014 0.07043 0.14991 0.0
H1369 H 0.6227 0.13939 0.14923 0.0
H1370 H 0.69283 0.19149 0.19466 0.0
H1371 H 0.67448 0.17157 0.17556 0.0
H1372 H 0.67362 0.10598 0.18224 0.0
C1373 C 0.62852 0.07901 0.13994 0.0
C1374 C 0.63389 0.1319 0.15627 0.0
C1375 C 0.62196 0.06857 0.12712 0.0
C1376 C 0.68609 0.17686 0.19741 0.0
C1377 C 0.67549 0.16553 0.18649 0.0
C1378 C 0.66232 0.11329 0.17518 0.0
C1379 C 0.63265 0.10029 0.1399 0.0
C1380 C 0.64012 0.11148 0.15337 0.0
C1381 C 0.66686 0.14632 0.18954 0.0
C1382 C 0.6567 0.13394 0.17767 0.0
H1383 H 0.62156 0.10903 0.10401 0.0
H1384 H 0.63354 0.12712 0.12617 0.0
H1385 H 0.65954 0.0866 0.16114 0.0
H1386 H 0.68027 0.14409 0.22565 0.0
H1387 H 0.66204 0.12405 0.20639 0.0
C1388 C 0.95085 0.10778 0.38723 0.0
C1389 C 0.96993 0.11647 0.38387 0.0
C1390 C 0.93999 0.11502 0.39933 0.0
C1391 C 0.93559 0.16125 0.42332 0.0
H1392 H 0.90346 0.12533 0.44726 0.0
C1393 C 0.89664 0.19027 0.47584 0.0
C1394 C 0.87634 0.18372 0.47804 0.0
C1395 C 0.9082 0.18156 0.4646 0.0
C1396 C 0.91223 0.13556 0.44058 0.0
H1397 H 0.99311 0.13879 0.39094 0.0
H1398 H 0.97435 0.15122 0.41219 0.0
H1399 H 0.92403 0.11053 0.42761 0.0
H1400 H 0.85228 0.16278 0.47019 0.0
H1401 H 0.87253 0.14756 0.45051 0.0
H1402 H 0.92386 0.18625 0.4363 0.0
C1403 C 0.9675 0.13918 0.40528 0.0
C1404 C 0.92401 0.12709 0.42933 0.0
C1405 C 0.97829 0.13201 0.39315 0.0
C1406 C 0.86787 0.16819 0.46877 0.0
C1407 C 0.8795 0.15937 0.45756 0.0
C1408 C 0.92391 0.16968 0.43459 0.0
C1409 C 0.94804 0.13105 0.40836 0.0
C1410 C 0.93583 0.13985 0.42056 0.0
C1411 C 0.89977 0.16602 0.45534 0.0
C1412 C 0.91209 0.15694 0.44334 0.0
H1413 H 0.9439 0.09595 0.38018 0.0
H1414 H 0.92494 0.10857 0.40127 0.0
H1415 H 0.94415 0.17158 0.41659 0.0
H1416 H 0.90366 0.20217 0.4828 0.0
H1417 H 0.92386 0.18683 0.46326 0.0
C1418 C 0.92563 0.41087 0.62202 0.0
C1419 C 0.92715 0.43186 0.61874 0.0
C1420 C 0.91517 0.40464 0.6343 0.0
C1421 C 0.87572 0.42053 0.66043 0.0
H1422 H 0.90016 0.37743 0.68381 0.0
C1423 C 0.83913 0.39171 0.71359 0.0
C1424 C 0.83928 0.37027 0.71547 0.0
C1425 C 0.85017 0.40046 0.70233 0.0
C1426 C 0.89303 0.38935 0.67733 0.0
H1427 H 0.91862 0.46277 0.62581 0.0
H1428 H 0.90011 0.45179 0.6473 0.0
H1429 H 0.9187 0.39053 0.66314 0.0
H1430 H 0.85105 0.34122 0.70692 0.0
H1431 H 0.87001 0.35641 0.68727 0.0
H1432 H 0.84989 0.4191 0.67453 0.0
C1433 C 0.90703 0.4402 0.64026 0.0
C1434 C 0.90367 0.39687 0.66549 0.0
C1435 C 0.9176 0.44647 0.62795 0.0
C1436 C 0.85066 0.3578 0.70584 0.0
C1437 C 0.86167 0.36653 0.69461 0.0
C1438 C 0.86502 0.41295 0.67228 0.0
C1439 C 0.90586 0.41921 0.64363 0.0
C1440 C 0.89502 0.41232 0.65677 0.0
C1441 C 0.86162 0.38796 0.69273 0.0
C1442 C 0.87343 0.39705 0.68073 0.0
H1443 H 0.93235 0.39916 0.61498 0.0
H1444 H 0.91416 0.38832 0.63641 0.0
H1445 H 0.8686 0.43234 0.65385 0.0
H1446 H 0.83054 0.40176 0.72084 0.0
H1447 H 0.84996 0.41704 0.70125 0.0
C1448 C 0.59505 0.12184 0.38135 0.0
C1449 C 0.58239 0.10429 0.38156 0.0
C1450 C 0.60586 0.12657 0.36888 0.0
C1451 C 0.62685 0.1044 0.33508 0.0
H1452 H 0.62765 0.16145 0.32344 0.0
C1453 C 0.66557 0.13167 0.28217 0.0
C1454 C 0.67645 0.15039 0.28328 0.0
C1455 C 0.65373 0.12509 0.29378 0.0
C1456 C 0.62778 0.14548 0.32662 0.0
H1457 H 0.57143 0.07776 0.36879 0.0
H1458 H 0.59056 0.08601 0.34692 0.0
H1459 H 0.60744 0.15166 0.34424 0.0
H1460 H 0.68391 0.17656 0.29762 0.0
H1461 H 0.6636 0.16498 0.31785 0.0
H1462 H 0.64744 0.09831 0.31751 0.0
C1463 C 0.59207 0.09605 0.3565 0.0
C1464 C 0.61615 0.13987 0.33853 0.0
C1465 C 0.58112 0.09134 0.36902 0.0
C1466 C 0.67559 0.16215 0.29634 0.0
C1467 C 0.66382 0.15557 0.30792 0.0
C1468 C 0.63857 0.11004 0.32315 0.0
C1469 C 0.60441 0.11383 0.35628 0.0
C1470 C 0.61577 0.11933 0.34302 0.0
C1471 C 0.65254 0.1371 0.30673 0.0
C1472 C 0.63939 0.13071 0.31892 0.0
H1473 H 0.59685 0.13186 0.39093 0.0
H1474 H 0.6156 0.14013 0.36917 0.0
H1475 H 0.62696 0.08847 0.33836 0.0
H1476 H 0.6659 0.12225 0.27225 0.0
H1477 H 0.64512 0.11085 0.29248 0.0
C1478 C 0.93178 0.07144 0.62216 0.0
C1479 C 0.94049 0.08154 0.63452 0.0
C1480 C 0.92519 0.08273 0.6101 0.0
C1481 C 0.92647 0.13574 0.59454 0.0
H1482 H 0.87585 0.11736 0.57505 0.0
C1483 C 0.86829 0.18725 0.56311 0.0
C1484 C 0.86266 0.18032 0.54891 0.0
C1485 C 0.88068 0.17504 0.5721 0.0
C1486 C 0.89012 0.12253 0.58031 0.0
H1487 H 0.94924 0.11114 0.64411 0.0
H1488 H 0.93692 0.13096 0.62349 0.0
H1489 H 0.89207 0.0959 0.59347 0.0
H1490 H 0.86582 0.15538 0.5329 0.0
H1491 H 0.8869 0.13376 0.54888 0.0
H1492 H 0.92347 0.16307 0.5819 0.0
C1493 C 0.93584 0.11434 0.62269 0.0
C1494 C 0.89955 0.11019 0.59081 0.0
C1495 C 0.94281 0.10301 0.63458 0.0
C1496 C 0.86996 0.16114 0.54378 0.0
C1497 C 0.88195 0.14876 0.55289 0.0
C1498 C 0.91675 0.14828 0.58427 0.0
C1499 C 0.92672 0.1044 0.61033 0.0
C1500 C 0.91773 0.11672 0.59821 0.0
C1501 C 0.88725 0.15556 0.56714 0.0
C1502 C 0.89842 0.14182 0.57719 0.0
H1503 H 0.92997 0.05484 0.62189 0.0
H1504 H 0.91868 0.07445 0.60068 0.0
H1505 H 0.94069 0.14112 0.59971 0.0
H1506 H 0.86295 0.202 0.56731 0.0
H1507 H 0.88452 0.18049 0.58311 0.0
C1508 C 0.94001 0.41716 0.86757 0.0
C1509 C 0.93829 0.40845 0.88141 0.0
C1510 C 0.92774 0.40997 0.85575 0.0
C1511 C 0.89544 0.36543 0.8435 0.0
H1512 H 0.87058 0.40435 0.81684 0.0
C1513 C 0.83016 0.34156 0.80344 0.0
C1514 C 0.83226 0.34732 0.78884 0.0
C1515 C 0.84296 0.35006 0.81446 0.0
C1516 C 0.87755 0.39332 0.82414 0.0
H1517 H 0.92206 0.38572 0.89378 0.0
H1518 H 0.90065 0.37333 0.87331 0.0
H1519 H 0.89398 0.41678 0.83643 0.0
H1520 H 0.84887 0.36727 0.77447 0.0
H1521 H 0.87119 0.38219 0.7938 0.0
H1522 H 0.8788 0.34203 0.83138 0.0
C1523 C 0.91181 0.38533 0.87143 0.0
C1524 C 0.89101 0.4004 0.83532 0.0
C1525 C 0.9241 0.39242 0.88318 0.0
C1526 C 0.84689 0.36244 0.7856 0.0
C1527 C 0.85963 0.37105 0.79666 0.0
C1528 C 0.88192 0.3584 0.83242 0.0
C1529 C 0.91343 0.39401 0.85757 0.0
C1530 C 0.89997 0.38654 0.84521 0.0
C1531 C 0.85807 0.3646 0.81115 0.0
C1532 C 0.87269 0.37227 0.82271 0.0
H1533 H 0.95089 0.42947 0.86587 0.0
H1534 H 0.92955 0.41683 0.84518 0.0
H1535 H 0.9024 0.35428 0.85071 0.0
H1536 H 0.819 0.33004 0.80634 0.0
H1537 H 0.84119 0.34506 0.82557 0.0
C1538 C 0.60094 0.41455 0.15193 0.0
C1539 C 0.57943 0.41657 0.15107 0.0
C1540 C 0.61204 0.40959 0.13943 0.0
C1541 C 0.6047 0.38503 0.10281 0.0
H1542 H 0.66099 0.4031 0.09793 0.0
C1543 C 0.65337 0.35962 0.05334 0.0
C1544 C 0.67277 0.35149 0.05718 0.0
C1545 C 0.64167 0.3701 0.06378 0.0
C1546 C 0.64527 0.39796 0.09917 0.0
H1547 H 0.55274 0.41616 0.13642 0.0
H1548 H 0.57215 0.4081 0.11448 0.0
H1549 H 0.64091 0.41771 0.11788 0.0
H1550 H 0.69534 0.34847 0.07486 0.0
H1551 H 0.67501 0.36692 0.093 0.0
H1552 H 0.60916 0.36528 0.08407 0.0
C1553 C 0.58043 0.40971 0.12486 0.0
C1554 C 0.63378 0.40624 0.11062 0.0
C1555 C 0.56931 0.41443 0.13739 0.0
C1556 C 0.68042 0.35446 0.07157 0.0
C1557 C 0.66886 0.36517 0.08194 0.0
C1558 C 0.61611 0.37695 0.09127 0.0
C1559 C 0.60189 0.40678 0.12577 0.0
C1560 C 0.61347 0.39958 0.11276 0.0
C1561 C 0.6493 0.37291 0.07819 0.0
C1562 C 0.63662 0.38304 0.08951 0.0
H1563 H 0.60908 0.41591 0.16237 0.0
H1564 H 0.62848 0.40715 0.14062 0.0
H1565 H 0.58925 0.37925 0.10423 0.0
H1566 H 0.64706 0.35758 0.04234 0.0
H1567 H 0.62666 0.37601 0.06061 0.0
loop_
_geom_bond_atom_site_label_1
_geom_bond_atom_site_label_2
_geom_bond_distance
_geom_bond_site_symmetry_2
_ccdc_geom_bond_type
H0 C27 0.929 . S
N1 C26 1.433 . S
N1 C32 1.435 . S
N1 C38 1.423 . S
H2 C28 0.930 . S
H3 C31 0.931 . S
H4 C30 0.929 . S
H5 C33 0.930 . S
H6 C34 0.932 . S
H7 C37 0.929 . S
H8 C36 0.931 . S
H9 C39 0.935 . S
H10 C43 0.932 . S
H11 C40 0.931 . S
H12 C42 0.929 . S
H13 C45 0.929 . S
H14 C46 0.930 . S
H15 C48 0.929 . S
H16 C49 0.931 . S
H17 C51 0.930 . S
H18 C52 0.932 . S
H19 C54 0.931 . S
H20 C55 0.929 . S
H21 C57 0.929 . S
H22 C58 0.931 . S
H23 C60 0.929 . S
N24 C44 1.433 . S
N24 C50 1.435 . S
N24 C56 1.423 . S
H25 C61 0.932 . S
C26 N1 1.433 . S
C26 C27 1.363 . S
C26 C31 1.370 . S
C27 H0 0.929 . S
C27 C26 1.363 . S
C27 C28 1.385 . S
C28 H2 0.930 . S
C28 C27 1.385 . S
C28 C29 1.357 . S
C29 C28 1.357 . S
C29 C30 1.406 . S
C30 H4 0.929 . S
C30 C29 1.406 . S
C30 C31 1.391 . S
C31 H3 0.931 . S
C31 C26 1.370 . S
C31 C30 1.391 . S
C32 N1 1.435 . S
C32 C33 1.358 . S
C32 C37 1.371 . S
C33 H5 0.930 . S
C33 C32 1.358 . S
C33 C34 1.405 . S
C34 H6 0.932 . S
C34 C33 1.405 . S
C34 C35 1.383 . S
C35 C34 1.383 . S
C35 C36 1.393 . S
C36 H8 0.931 . S
C36 C35 1.393 . S
C36 C37 1.382 . S
C37 H7 0.929 . S
C37 C32 1.371 . S
C37 C36 1.382 . S
C38 N1 1.423 . S
C38 C39 1.328 1_565 S
C38 C43 1.388 . S
C39 H9 0.935 . S
C39 C38 1.328 1_545 S
C39 C40 1.406 . S
C40 H11 0.931 . S
C40 C39 1.406 . S
C40 C41 1.396 . S
C41 C40 1.396 . S
C41 C42 1.348 1_545 S
C41 C59 1.472 . S
C42 H12 0.929 . S
C42 C41 1.348 1_565 S
C42 C43 1.443 . S
C43 H10 0.932 . S
C43 C38 1.388 . S
C43 C42 1.443 . S
C44 N24 1.433 . S
C44 C45 1.363 . S
C44 C49 1.370 . S
C45 H13 0.929 . S
C45 C44 1.363 . S
C45 C46 1.385 . S
C46 H14 0.930 . S
C46 C45 1.385 . S
C46 C47 1.357 . S
C47 C46 1.357 . S
C47 C48 1.406 . S
C48 H15 0.929 . S
C48 C47 1.406 . S
C48 C49 1.391 . S
C49 H16 0.931 . S
C49 C44 1.370 . S
C49 C48 1.391 . S
C50 N24 1.435 . S
C50 C51 1.358 . S
C50 C55 1.371 . S
C51 H17 0.930 . S
C51 C50 1.358 . S
C51 C52 1.405 . S
C52 H18 0.932 . S
C52 C51 1.405 . S
C52 C53 1.383 . S
C53 C52 1.383 . S
C53 C54 1.393 . S
C54 H19 0.931 . S
C54 C53 1.393 . S
C54 C55 1.382 . S
C55 H20 0.929 . S
C55 C50 1.371 . S
C55 C54 1.382 . S
C56 N24 1.423 . S
C56 C57 1.362 1_655 S
C56 C61 1.388 . S
C57 H21 0.929 . S
C57 C56 1.362 1_455 S
C57 C58 1.376 . S
C58 H22 0.931 . S
C58 C57 1.376 . S
C58 C59 1.396 . S
C59 C41 1.472 . S
C59 C58 1.396 . S
C59 C60 1.348 . S
C60 H23 0.929 . S
C60 C59 1.348 . S
C60 C61 1.443 1_455 S
C61 H25 0.932 . S
C61 C56 1.388 . S
C61 C60 1.443 1_655 S
H62 C89 0.929 . S
N63 C88 1.433 . S
N63 C94 1.435 . S
N63 C100 1.423 . S
H64 C90 0.930 . S
H65 C93 0.931 . S
H66 C92 0.929 . S
H67 C95 0.930 . S
H68 C96 0.932 . S
H69 C99 0.929 . S
H70 C98 0.931 . S
H71 C101 0.932 . S
H72 C105 0.932 . S
H73 C102 0.931 . S
H74 C104 0.929 . S
H75 C107 0.929 . S
H76 C108 0.930 . S
H77 C110 0.929 . S
H78 C111 0.931 . S
H79 C113 0.930 . S
H80 C114 0.932 . S
H81 C116 0.931 . S
H82 C117 0.929 . S
H83 C119 0.929 . S
H84 C120 0.931 . S
H85 C122 0.929 . S
N86 C106 1.433 . S
N86 C112 1.435 . S
N86 C118 1.423 . S
H87 C123 0.932 . S
C88 N63 1.433 . S
C88 C89 1.363 . S
C88 C93 1.370 . S
C89 H62 0.929 . S
C89 C88 1.363 . S
C89 C90 1.385 . S
C90 H64 0.930 . S
C90 C89 1.385 . S
C90 C91 1.357 . S
C91 C90 1.357 . S
C91 C92 1.406 . S
C92 H66 0.929 . S
C92 C91 1.406 . S
C92 C93 1.391 . S
C93 H65 0.931 . S
C93 C88 1.370 . S
C93 C92 1.391 . S
C94 N63 1.435 . S
C94 C95 1.358 . S
C94 C99 1.371 . S
C95 H67 0.930 . S
C95 C94 1.358 . S
C95 C96 1.405 . S
C96 H68 0.932 . S
C96 C95 1.405 . S
C96 C97 1.383 . S
C97 C96 1.383 . S
C97 C98 1.393 . S
C98 H70 0.931 . S
C98 C97 1.393 . S
C98 C99 1.382 . S
C99 H69 0.929 . S
C99 C94 1.371 . S
C99 C98 1.382 . S
C100 N63 1.423 . S
C100 C101 1.332 1_655 S
C100 C105 1.388 . S
C101 H71 0.932 . S
C101 C100 1.332 1_455 S
C101 C102 1.405 . S
C102 H73 0.931 . S
C102 C101 1.405 . S
C102 C103 1.396 . S
C103 C102 1.396 . S
C103 C104 1.348 1_455 S
C103 C121 1.472 . S
C104 H74 0.929 . S
C104 C103 1.348 1_655 S
C104 C105 1.443 . S
C105 H72 0.932 . S
C105 C100 1.388 . S
C105 C104 1.443 . S
C106 N86 1.433 . S
C106 C107 1.363 . S
C106 C111 1.370 . S
C107 H75 0.929 . S
C107 C106 1.363 . S
C107 C108 1.385 . S
C108 H76 0.930 . S
C108 C107 1.385 . S
C108 C109 1.357 . S
C109 C108 1.357 . S
C109 C110 1.406 . S
C110 H77 0.929 . S
C110 C109 1.406 . S
C110 C111 1.391 . S
C111 H78 0.931 . S
C111 C106 1.370 . S
C111 C110 1.391 . S
C112 N86 1.435 . S
C112 C113 1.358 . S
C112 C117 1.371 . S
C113 H79 0.930 . S
C113 C112 1.358 . S
C113 C114 1.405 . S
C114 H80 0.932 . S
C114 C113 1.405 . S
C114 C115 1.383 . S
C115 C114 1.383 . S
C115 C116 1.393 . S
C116 H81 0.931 . S
C116 C115 1.393 . S
C116 C117 1.382 . S
C117 H82 0.929 . S
C117 C112 1.371 . S
C117 C116 1.382 . S
C118 N86 1.423 . S
C118 C119 1.362 . S
C118 C123 1.388 . S
C119 H83 0.929 . S
C119 C118 1.362 . S
C119 C120 1.376 . S
C120 H84 0.931 . S
C120 C119 1.376 . S
C120 C121 1.396 . S
C121 C103 1.472 . S
C121 C120 1.396 . S
C121 C122 1.348 . S
C122 H85 0.929 . S
C122 C121 1.348 . S
C122 C123 1.443 . S
C123 H87 0.932 . S
C123 C118 1.388 . S
C123 C122 1.443 . S
H124 C151 0.929 . S
N125 C150 1.433 . S
N125 C156 1.435 . S
N125 C162 1.423 . S
H126 C152 0.930 . S
H127 C155 0.931 . S
H128 C154 0.929 . S
H129 C157 0.930 . S
H130 C158 0.932 . S
H131 C161 0.929 . S
H132 C160 0.931 . S
H133 C163 0.929 . S
H134 C167 0.932 . S
H135 C164 0.931 . S
H136 C166 0.929 . S
H137 C169 0.929 . S
H138 C170 0.930 . S
H139 C172 0.929 . S
H140 C173 0.931 . S
H141 C175 0.930 . S
H142 C176 0.932 . S
H143 C178 0.931 . S
H144 C179 0.929 . S
H145 C181 0.929 . S
H146 C182 0.931 . S
H147 C184 0.929 . S
N148 C168 1.433 . S
N148 C174 1.435 . S
N148 C180 1.423 . S
H149 C185 0.932 . S
C150 N125 1.433 . S
C150 C151 1.363 . S
C150 C155 1.370 . S
C151 H124 0.929 . S
C151 C150 1.363 . S
C151 C152 1.385 . S
C152 H126 0.930 . S
C152 C151 1.385 . S
C152 C153 1.357 . S
C153 C152 1.357 . S
C153 C154 1.406 . S
C154 H128 0.929 . S
C154 C153 1.406 . S
C154 C155 1.391 . S
C155 H127 0.931 . S
C155 C150 1.370 . S
C155 C154 1.391 . S
C156 N125 1.435 . S
C156 C157 1.358 . S
C156 C161 1.371 . S
C157 H129 0.930 . S
C157 C156 1.358 . S
C157 C158 1.405 . S
C158 H130 0.932 . S
C158 C157 1.405 . S
C158 C159 1.383 . S
C159 C158 1.383 . S
C159 C160 1.393 . S
C160 H132 0.931 . S
C160 C159 1.393 . S
C160 C161 1.382 . S
C161 H131 0.929 . S
C161 C156 1.371 . S
C161 C160 1.382 . S
C162 N125 1.423 . S
C162 C163 1.362 . S
C162 C167 1.388 . S
C163 H133 0.929 . S
C163 C162 1.362 . S
C163 C164 1.376 . S
C164 H135 0.931 . S
C164 C163 1.376 . S
C164 C165 1.396 . S
C165 C164 1.396 . S
C165 C166 1.348 . S
C165 C183 1.472 . S
C166 H136 0.929 . S
C166 C165 1.348 . S
C166 C167 1.443 . S
C167 H134 0.932 . S
C167 C162 1.388 . S
C167 C166 1.443 . S
C168 N148 1.433 . S
C168 C169 1.363 . S
C168 C173 1.370 . S
C169 H137 0.929 . S
C169 C168 1.363 . S
C169 C170 1.385 . S
C170 H138 0.930 . S
C170 C169 1.385 . S
C170 C171 1.357 . S
C171 C170 1.357 . S
C171 C172 1.406 . S
C172 H139 0.929 . S
C172 C171 1.406 . S
C172 C173 1.391 . S
C173 H140 0.931 . S
C173 C168 1.370 . S
C173 C172 1.391 . S
C174 N148 1.435 . S
C174 C175 1.358 . S
C174 C179 1.371 . S
C175 H141 0.930 . S
C175 C174 1.358 . S
C175 C176 1.405 . S
C176 H142 0.932 . S
C176 C175 1.405 . S
C176 C177 1.383 . S
C177 C176 1.383 . S
C177 C178 1.393 . S
C178 H143 0.931 . S
C178 C177 1.393 . S
C178 C179 1.382 . S
C179 H144 0.929 . S
C179 C174 1.371 . S
C179 C178 1.382 . S
C180 N148 1.423 . S
C180 C181 1.362 . S
C180 C185 1.388 . S
C181 H145 0.929 . S
C181 C180 1.362 . S
C181 C182 1.376 . S
C182 H146 0.931 . S
C182 C181 1.376 . S
C182 C183 1.396 . S
C183 C165 1.472 . S
C183 C182 1.396 . S
C183 C184 1.348 . S
C184 H147 0.929 . S
C184 C183 1.348 . S
C184 C185 1.443 . S
C185 H149 0.932 . S
C185 C180 1.388 . S
C185 C184 1.443 . S
H186 C213 0.929 . S
N187 C212 1.433 . S
N187 C218 1.435 . S
N187 C224 1.423 . S
H188 C214 0.930 . S
H189 C217 0.931 . S
H190 C216 0.929 . S
H191 C219 0.930 . S
H192 C220 0.932 . S
H193 C223 0.929 . S
H194 C222 0.931 . S
H195 C225 0.929 . S
H196 C229 0.932 . S
H197 C226 0.931 . S
H198 C228 0.929 . S
H199 C231 0.929 . S
H200 C232 0.930 . S
H201 C234 0.929 . S
H202 C235 0.931 . S
H203 C237 0.930 . S
H204 C238 0.932 . S
H205 C240 0.931 . S
H206 C241 0.929 . S
H207 C243 0.929 . S
H208 C244 0.931 1_565 S
H209 C246 0.929 . S
N210 C230 1.433 . S
N210 C236 1.435 . S
N210 C242 1.423 . S
H211 C247 0.932 . S
C212 N187 1.433 . S
C212 C213 1.363 . S
C212 C217 1.370 . S
C213 H186 0.929 . S
C213 C212 1.363 . S
C213 C214 1.385 . S
C214 H188 0.930 . S
C214 C213 1.385 . S
C214 C215 1.357 . S
C215 C214 1.357 . S
C215 C216 1.406 . S
C216 H190 0.929 . S
C216 C215 1.406 . S
C216 C217 1.391 . S
C217 H189 0.931 . S
C217 C212 1.370 . S
C217 C216 1.391 . S
C218 N187 1.435 . S
C218 C219 1.358 . S
C218 C223 1.371 . S
C219 H191 0.930 . S
C219 C218 1.358 . S
C219 C220 1.405 . S
C220 H192 0.932 . S
C220 C219 1.405 . S
C220 C221 1.383 . S
C221 C220 1.383 . S
C221 C222 1.393 . S
C222 H194 0.931 . S
C222 C221 1.393 . S
C222 C223 1.382 . S
C223 H193 0.929 . S
C223 C218 1.371 . S
C223 C222 1.382 . S
C224 N187 1.423 . S
C224 C225 1.362 . S
C224 C229 1.388 . S
C225 H195 0.929 . S
C225 C224 1.362 . S
C225 C226 1.376 . S
C226 H197 0.931 . S
C226 C225 1.376 . S
C226 C227 1.396 . S
C227 C226 1.396 . S
C227 C228 1.348 . S
C227 C245 1.472 1_565 S
C228 H198 0.929 . S
C228 C227 1.348 . S
C228 C229 1.443 . S
C229 H196 0.932 . S
C229 C224 1.388 . S
C229 C228 1.443 . S
C230 N210 1.433 . S
C230 C231 1.363 . S
C230 C235 1.370 . S
C231 H199 0.929 . S
C231 C230 1.363 . S
C231 C232 1.385 . S
C232 H200 0.930 . S
C232 C231 1.385 . S
C232 C233 1.357 . S
C233 C232 1.357 . S
C233 C234 1.406 . S
C234 H201 0.929 . S
C234 C233 1.406 . S
C234 C235 1.391 . S
C235 H202 0.931 . S
C235 C230 1.370 . S
C235 C234 1.391 . S
C236 N210 1.435 . S
C236 C237 1.358 . S
C236 C241 1.371 . S
C237 H203 0.930 . S
C237 C236 1.358 . S
C237 C238 1.405 . S
C238 H204 0.932 . S
C238 C237 1.405 . S
C238 C239 1.383 . S
C239 C238 1.383 . S
C239 C240 1.393 . S
C240 H205 0.931 . S
C240 C239 1.393 . S
C240 C241 1.382 . S
C241 H206 0.929 . S
C241 C236 1.371 . S
C241 C240 1.382 . S
C242 N210 1.423 . S
C242 C243 1.362 . S
C242 C247 1.388 . S
C243 H207 0.929 . S
C243 C242 1.362 . S
C243 C244 1.376 . S
C244 H208 0.931 1_545 S
C244 C243 1.376 . S
C244 C245 1.396 . S
C245 C227 1.472 1_545 S
C245 C244 1.396 . S
C245 C246 1.348 . S
C246 H209 0.929 . S
C246 C245 1.348 . S
C246 C247 1.443 . S
C247 H211 0.932 . S
C247 C242 1.388 . S
C247 C246 1.443 . S
H248 C275 0.929 . S
N249 C274 1.433 . S
N249 C280 1.435 . S
N249 C286 1.423 . S
H250 C276 0.930 . S
H251 C279 0.931 . S
H252 C278 0.929 . S
H253 C281 0.930 . S
H254 C282 0.932 . S
H255 C285 0.929 . S
H256 C284 0.931 . S
H257 C287 0.929 . S
H258 C291 0.932 . S
H259 C288 0.931 . S
H260 C290 0.929 . S
H261 C293 0.929 . S
H262 C294 0.930 . S
H263 C296 0.929 . S
H264 C297 0.931 . S
H265 C299 0.930 . S
H266 C300 0.932 . S
H267 C302 0.931 . S
H268 C303 0.929 . S
H269 C305 0.929 . S
H270 C306 0.931 1_455 S
H271 C308 0.929 . S
N272 C292 1.433 . S
N272 C298 1.435 . S
N272 C304 1.423 . S
H273 C309 0.932 . S
C274 N249 1.433 . S
C274 C275 1.363 . S
C274 C279 1.370 . S
C275 H248 0.929 . S
C275 C274 1.363 . S
C275 C276 1.385 . S
C276 H250 0.930 . S
C276 C275 1.385 . S
C276 C277 1.357 . S
C277 C276 1.357 . S
C277 C278 1.406 . S
C278 H252 0.929 . S
C278 C277 1.406 . S
C278 C279 1.391 . S
C279 H251 0.931 . S
C279 C274 1.370 . S
C279 C278 1.391 . S
C280 N249 1.435 . S
C280 C281 1.358 . S
C280 C285 1.371 . S
C281 H253 0.930 . S
C281 C280 1.358 . S
C281 C282 1.405 . S
C282 H254 0.932 . S
C282 C281 1.405 . S
C282 C283 1.383 . S
C283 C282 1.383 . S
C283 C284 1.393 . S
C284 H256 0.931 . S
C284 C283 1.393 . S
C284 C285 1.382 . S
C285 H255 0.929 . S
C285 C280 1.371 . S
C285 C284 1.382 . S
C286 N249 1.423 . S
C286 C287 1.362 . S
C286 C291 1.388 . S
C287 H257 0.929 . S
C287 C286 1.362 . S
C287 C288 1.376 . S
C288 H259 0.931 . S
C288 C287 1.376 . S
C288 C289 1.396 . S
C289 C288 1.396 . S
C289 C290 1.348 . S
C289 C307 1.518 . S
C290 H260 0.929 . S
C290 C289 1.348 . S
C290 C291 1.443 . S
C291 H258 0.932 . S
C291 C286 1.388 . S
C291 C290 1.443 . S
C292 N272 1.433 . S
C292 C293 1.363 . S
C292 C297 1.370 . S
C293 H261 0.929 . S
C293 C292 1.363 . S
C293 C294 1.385 . S
C294 H262 0.930 . S
C294 C293 1.385 . S
C294 C295 1.357 . S
C295 C294 1.357 . S
C295 C296 1.406 . S
C296 H263 0.929 . S
C296 C295 1.406 . S
C296 C297 1.391 . S
C297 H264 0.931 . S
C297 C292 1.370 . S
C297 C296 1.391 . S
C298 N272 1.435 . S
C298 C299 1.358 . S
C298 C303 1.371 . S
C299 H265 0.930 . S
C299 C298 1.358 . S
C299 C300 1.405 . S
C300 H266 0.932 . S
C300 C299 1.405 . S
C300 C301 1.383 . S
C301 C300 1.383 . S
C301 C302 1.393 . S
C302 H267 0.931 . S
C302 C301 1.393 . S
C302 C303 1.382 . S
C303 H268 0.929 . S
C303 C298 1.371 . S
C303 C302 1.382 . S
C304 N272 1.423 . S
C304 C305 1.362 . S
C304 C309 1.388 . S
C305 H269 0.929 . S
C305 C304 1.362 . S
C305 C306 1.376 . S
C306 H270 0.931 1_655 S
C306 C305 1.376 . S
C306 C307 1.391 1_655 S
C307 C289 1.518 . S
C307 C306 1.391 1_455 S
C307 C308 1.306 1_455 S
C308 H271 0.929 . S
C308 C307 1.306 1_655 S
C308 C309 1.443 . S
C309 H273 0.932 . S
C309 C304 1.388 . S
C309 C308 1.443 . S
H310 C337 0.929 . S
N311 C336 1.433 . S
N311 C342 1.435 . S
N311 C348 1.423 . S
H312 C338 0.930 . S
H313 C341 0.931 . S
H314 C340 0.929 . S
H315 C343 0.930 . S
H316 C344 0.932 . S
H317 C347 0.929 . S
H318 C346 0.931 . S
H319 C349 0.929 . S
H320 C353 0.932 . S
H321 C350 0.931 . S
H322 C352 0.929 . S
H323 C355 0.929 . S
H324 C356 0.930 . S
H325 C358 0.929 . S
H326 C359 0.931 . S
H327 C361 0.930 . S
H328 C362 0.932 . S
H329 C364 0.931 . S
H330 C365 0.929 . S
H331 C367 0.929 . S
H332 C368 0.931 . S
H333 C370 0.929 . S
N334 C354 1.433 . S
N334 C360 1.435 . S
N334 C366 1.423 . S
H335 C371 0.932 . S
C336 N311 1.433 . S
C336 C337 1.363 . S
C336 C341 1.370 . S
C337 H310 0.929 . S
C337 C336 1.363 . S
C337 C338 1.385 . S
C338 H312 0.930 . S
C338 C337 1.385 . S
C338 C339 1.357 . S
C339 C338 1.357 . S
C339 C340 1.406 . S
C340 H314 0.929 . S
C340 C339 1.406 . S
C340 C341 1.391 . S
C341 H313 0.931 . S
C341 C336 1.370 . S
C341 C340 1.391 . S
C342 N311 1.435 . S
C342 C343 1.358 . S
C342 C347 1.371 . S
C343 H315 0.930 . S
C343 C342 1.358 . S
C343 C344 1.405 . S
C344 H316 0.932 . S
C344 C343 1.405 . S
C344 C345 1.383 . S
C345 C344 1.383 . S
C345 C346 1.393 . S
C346 H318 0.931 . S
C346 C345 1.393 . S
C346 C347 1.382 . S
C347 H317 0.929 . S
C347 C342 1.371 . S
C347 C346 1.382 . S
C348 N311 1.423 . S
C348 C349 1.362 . S
C348 C353 1.388 . S
C349 H319 0.929 . S
C349 C348 1.362 . S
C349 C350 1.376 . S
C350 H321 0.931 . S
C350 C349 1.376 . S
C350 C351 1.396 . S
C351 C350 1.396 . S
C351 C352 1.348 . S
C351 C369 1.472 . S
C352 H322 0.929 . S
C352 C351 1.348 . S
C352 C353 1.443 . S
C353 H320 0.932 . S
C353 C348 1.388 . S
C353 C352 1.443 . S
C354 N334 1.433 . S
C354 C355 1.363 . S
C354 C359 1.370 . S
C355 H323 0.929 . S
C355 C354 1.363 . S
C355 C356 1.385 . S
C356 H324 0.930 . S
C356 C355 1.385 . S
C356 C357 1.357 . S
C357 C356 1.357 . S
C357 C358 1.406 . S
C358 H325 0.929 . S
C358 C357 1.406 . S
C358 C359 1.391 . S
C359 H326 0.931 . S
C359 C354 1.370 . S
C359 C358 1.391 . S
C360 N334 1.435 . S
C360 C361 1.358 . S
C360 C365 1.371 . S
C361 H327 0.930 . S
C361 C360 1.358 . S
C361 C362 1.405 . S
C362 H328 0.932 . S
C362 C361 1.405 . S
C362 C363 1.383 . S
C363 C362 1.383 . S
C363 C364 1.393 . S
C364 H329 0.931 . S
C364 C363 1.393 . S
C364 C365 1.382 . S
C365 H330 0.929 . S
C365 C360 1.371 . S
C365 C364 1.382 . S
C366 N334 1.423 . S
C366 C367 1.362 . S
C366 C371 1.388 . S
C367 H331 0.929 . S
C367 C366 1.362 . S
C367 C368 1.376 . S
C368 H332 0.931 . S
C368 C367 1.376 . S
C368 C369 1.396 . S
C369 C351 1.472 . S
C369 C368 1.396 . S
C369 C370 1.348 . S
C370 H333 0.929 . S
C370 C369 1.348 . S
C370 C371 1.443 . S
C371 H335 0.932 . S
C371 C366 1.388 . S
C371 C370 1.443 . S
H372 C399 0.929 . S
N373 C398 1.433 . S
N373 C404 1.435 . S
N373 C410 1.423 . S
H374 C400 0.930 . S
H375 C403 0.931 . S
H376 C402 0.929 . S
H377 C405 0.930 . S
H378 C406 0.932 . S
H379 C409 0.929 . S
H380 C408 0.931 . S
H381 C411 0.935 . S
H382 C415 0.932 . S
H383 C412 0.931 . S
H384 C414 0.929 . S
H385 C417 0.929 . S
H386 C418 0.930 . S
H387 C420 0.929 . S
H388 C421 0.931 . S
H389 C423 0.930 . S
H390 C424 0.932 . S
H391 C426 0.931 . S
H392 C427 0.929 . S
H393 C429 0.929 . S
H394 C430 0.931 . S
H395 C432 0.929 . S
N396 C416 1.433 . S
N396 C422 1.435 . S
N396 C428 1.423 . S
H397 C433 0.932 . S
C398 N373 1.433 . S
C398 C399 1.363 . S
C398 C403 1.370 . S
C399 H372 0.929 . S
C399 C398 1.363 . S
C399 C400 1.385 . S
C400 H374 0.930 . S
C400 C399 1.385 . S
C400 C401 1.357 . S
C401 C400 1.357 . S
C401 C402 1.406 . S
C402 H376 0.929 . S
C402 C401 1.406 . S
C402 C403 1.391 . S
C403 H375 0.931 . S
C403 C398 1.370 . S
C403 C402 1.391 . S
C404 N373 1.435 . S
C404 C405 1.358 . S
C404 C409 1.371 . S
C405 H377 0.930 . S
C405 C404 1.358 . S
C405 C406 1.405 . S
C406 H378 0.932 . S
C406 C405 1.405 . S
C406 C407 1.383 . S
C407 C406 1.383 . S
C407 C408 1.393 . S
C408 H380 0.931 . S
C408 C407 1.393 . S
C408 C409 1.382 . S
C409 H379 0.929 . S
C409 C404 1.371 . S
C409 C408 1.382 . S
C410 N373 1.423 . S
C410 C411 1.326 1_565 S
C410 C415 1.388 . S
C411 H381 0.935 . S
C411 C410 1.326 1_545 S
C411 C412 1.409 . S
C412 H383 0.931 . S
C412 C411 1.409 . S
C412 C413 1.396 . S
C413 C412 1.396 . S
C413 C414 1.348 1_545 S
C413 C431 1.472 . S
C414 H384 0.929 . S
C414 C413 1.348 1_565 S
C414 C415 1.443 . S
C415 H382 0.932 . S
C415 C410 1.388 . S
C415 C414 1.443 . S
C416 N396 1.433 . S
C416 C417 1.363 . S
C416 C421 1.370 . S
C417 H385 0.929 . S
C417 C416 1.363 . S
C417 C418 1.385 . S
C418 H386 0.930 . S
C418 C417 1.385 . S
C418 C419 1.357 . S
C419 C418 1.357 . S
C419 C420 1.406 . S
C420 H387 0.929 . S
C420 C419 1.406 . S
C420 C421 1.391 . S
C421 H388 0.931 . S
C421 C416 1.370 . S
C421 C420 1.391 . S
C422 N396 1.435 . S
C422 C423 1.358 . S
C422 C427 1.371 . S
C423 H389 0.930 . S
C423 C422 1.358 . S
C423 C424 1.405 . S
C424 H390 0.932 . S
C424 C423 1.405 . S
C424 C425 1.383 . S
C425 C424 1.383 . S
C425 C426 1.393 . S
C426 H391 0.931 . S
C426 C425 1.393 . S
C426 C427 1.382 . S
C427 H392 0.929 . S
C427 C422 1.371 . S
C427 C426 1.382 . S
C428 N396 1.423 . S
C428 C429 1.362 . S
C428 C433 1.388 . S
C429 H393 0.929 . S
C429 C428 1.362 . S
C429 C430 1.376 . S
C430 H394 0.931 . S
C430 C429 1.376 . S
C430 C431 1.396 . S
C431 C413 1.472 . S
C431 C430 1.396 . S
C431 C432 1.348 . S
C432 H395 0.929 . S
C432 C431 1.348 . S
C432 C433 1.443 . S
C433 H397 0.932 . S
C433 C428 1.388 . S
C433 C432 1.443 . S
H434 C461 0.929 . S
N435 C460 1.433 . S
N435 C466 1.435 . S
N435 C472 1.423 . S
H436 C462 0.930 . S
H437 C465 0.931 . S
H438 C464 0.929 . S
H439 C467 0.930 . S
H440 C468 0.932 . S
H441 C471 0.929 . S
H442 C470 0.931 . S
H443 C473 0.929 . S
H444 C477 0.932 . S
H445 C474 0.931 . S
H446 C476 0.929 . S
H447 C479 0.929 . S
H448 C480 0.930 . S
H449 C482 0.929 . S
H450 C483 0.931 . S
H451 C485 0.930 . S
H452 C486 0.932 . S
H453 C488 0.931 . S
H454 C489 0.929 . S
H455 C491 0.929 . S
H456 C492 0.931 . S
H457 C494 0.929 . S
N458 C478 1.433 . S
N458 C484 1.435 . S
N458 C490 1.423 . S
H459 C495 0.932 . S
C460 N435 1.433 . S
C460 C461 1.363 . S
C460 C465 1.370 . S
C461 H434 0.929 . S
C461 C460 1.363 . S
C461 C462 1.385 . S
C462 H436 0.930 . S
C462 C461 1.385 . S
C462 C463 1.357 . S
C463 C462 1.357 . S
C463 C464 1.406 . S
C464 H438 0.929 . S
C464 C463 1.406 . S
C464 C465 1.391 . S
C465 H437 0.931 . S
C465 C460 1.370 . S
C465 C464 1.391 . S
C466 N435 1.435 . S
C466 C467 1.358 . S
C466 C471 1.371 . S
C467 H439 0.930 . S
C467 C466 1.358 . S
C467 C468 1.405 . S
C468 H440 0.932 . S
C468 C467 1.405 . S
C468 C469 1.383 . S
C469 C468 1.383 . S
C469 C470 1.393 . S
C470 H442 0.931 . S
C470 C469 1.393 . S
C470 C471 1.382 . S
C471 H441 0.929 . S
C471 C466 1.371 . S
C471 C470 1.382 . S
C472 N435 1.423 . S
C472 C473 1.362 . S
C472 C477 1.388 . S
C473 H443 0.929 . S
C473 C472 1.362 . S
C473 C474 1.376 . S
C474 H445 0.931 . S
C474 C473 1.376 . S
C474 C475 1.396 1_565 S
C475 C474 1.396 1_545 S
C475 C476 1.348 . S
C475 C493 1.472 . S
C476 H446 0.929 . S
C476 C475 1.348 . S
C476 C477 1.443 1_545 S
C477 H444 0.932 . S
C477 C472 1.388 . S
C477 C476 1.443 1_565 S
C478 N458 1.433 . S
C478 C479 1.363 . S
C478 C483 1.370 . S
C479 H447 0.929 . S
C479 C478 1.363 . S
C479 C480 1.385 . S
C480 H448 0.930 . S
C480 C479 1.385 . S
C480 C481 1.357 . S
C481 C480 1.357 . S
C481 C482 1.406 . S
C482 H449 0.929 . S
C482 C481 1.406 . S
C482 C483 1.391 . S
C483 H450 0.931 . S
C483 C478 1.370 . S
C483 C482 1.391 . S
C484 N458 1.435 . S
C484 C485 1.358 . S
C484 C489 1.371 . S
C485 H451 0.930 . S
C485 C484 1.358 . S
C485 C486 1.405 . S
C486 H452 0.932 . S
C486 C485 1.405 . S
C486 C487 1.383 . S
C487 C486 1.383 . S
C487 C488 1.393 . S
C488 H453 0.931 . S
C488 C487 1.393 . S
C488 C489 1.382 . S
C489 H454 0.929 . S
C489 C484 1.371 . S
C489 C488 1.382 . S
C490 N458 1.423 . S
C490 C491 1.362 . S
C490 C495 1.388 . S
C491 H455 0.929 . S
C491 C490 1.362 . S
C491 C492 1.376 . S
C492 H456 0.931 . S
C492 C491 1.376 . S
C492 C493 1.396 1_655 S
C493 C475 1.472 . S
C493 C492 1.396 1_455 S
C493 C494 1.348 . S
C494 H457 0.929 . S
C494 C493 1.348 . S
C494 C495 1.443 1_455 S
C495 H459 0.932 . S
C495 C490 1.388 . S
C495 C494 1.443 1_655 S
Zn496 O499 2.031 . S
Zn496 O501 2.049 1_556 S
Zn496 O506 2.067 . S
Zn497 O498 1.962 . S
Zn497 O500 1.986 . S
Zn497 O502 1.996 . S
Zn497 O505 1.943 . S
O498 Zn497 1.962 . S
O498 C503 1.254 . S
O499 Zn496 2.031 . S
O499 C503 1.269 1_556 S
O500 Zn497 1.986 . S
O500 C507 1.262 . S
O501 Zn496 2.049 1_554 S
O501 C509 1.260 . S
O502 Zn497 1.996 . S
O502 C509 1.257 . S
C503 O498 1.254 . S
C503 O499 1.269 1_554 S
C504 O505 1.249 1_556 S
C504 O506 1.270 . S
O505 Zn497 1.943 . S
O505 C504 1.249 1_554 S
O506 Zn496 2.067 . S
O506 C504 1.270 . S
C507 O500 1.262 . S
C507 O508 1.232 . S
O508 C507 1.232 . S
C509 O501 1.260 . S
C509 O502 1.257 . S
Zn510 O513 2.031 . S
Zn510 O515 2.049 . S
Zn510 O520 2.067 . S
Zn511 O512 1.962 . S
Zn511 O514 1.986 . S
Zn511 O516 1.996 . S
Zn511 O519 1.943 . S
O512 Zn511 1.962 . S
O512 C517 1.254 . S
O513 Zn510 2.031 . S
O513 C517 1.269 . S
O514 Zn511 1.986 . S
O514 C521 1.262 . S
O515 Zn510 2.049 . S
O515 C523 1.260 . S
O516 Zn511 1.996 . S
O516 C523 1.257 . S
C517 O512 1.254 . S
C517 O513 1.269 . S
C518 O519 1.249 . S
C518 O520 1.270 . S
O519 Zn511 1.943 . S
O519 C518 1.249 . S
O520 Zn510 2.067 . S
O520 C518 1.270 . S
C521 O514 1.262 . S
C521 O522 1.232 . S
O522 C521 1.232 . S
C523 O515 1.260 . S
C523 O516 1.257 . S
Zn524 O527 2.031 . S
Zn524 O529 2.049 . S
Zn524 O534 2.067 . S
Zn525 O526 1.962 . S
Zn525 O528 1.986 . S
Zn525 O530 1.996 . S
Zn525 O533 1.943 . S
O526 Zn525 1.962 . S
O526 C531 1.254 . S
O527 Zn524 2.031 . S
O527 C531 1.269 . S
O528 Zn525 1.986 . S
O528 C535 1.262 . S
O529 Zn524 2.049 . S
O529 C537 1.260 . S
O530 Zn525 1.996 . S
O530 C537 1.257 . S
C531 O526 1.254 . S
C531 O527 1.269 . S
C532 O533 1.249 . S
C532 O534 1.270 . S
O533 Zn525 1.943 . S
O533 C532 1.249 . S
O534 Zn524 2.067 . S
O534 C532 1.270 . S
C535 O528 1.262 . S
C535 O536 1.232 . S
O536 C535 1.232 . S
C537 O529 1.260 . S
C537 O530 1.257 . S
Zn538 O541 2.031 . S
Zn538 O543 2.049 . S
Zn538 O548 2.067 . S
Zn539 O540 1.962 . S
Zn539 O542 1.986 . S
Zn539 O544 1.996 . S
Zn539 O547 1.943 . S
O540 Zn539 1.962 . S
O540 C545 1.254 . S
O541 Zn538 2.031 . S
O541 C545 1.269 . S
O542 Zn539 1.986 . S
O542 C549 1.262 . S
O543 Zn538 2.049 . S
O543 C551 1.260 . S
O544 Zn539 1.996 . S
O544 C551 1.257 . S
C545 O540 1.254 . S
C545 O541 1.269 . S
C546 O547 1.249 . S
C546 O548 1.270 . S
O547 Zn539 1.943 . S
O547 C546 1.249 . S
O548 Zn538 2.067 . S
O548 C546 1.270 . S
C549 O542 1.262 . S
C549 O550 1.232 . S
O550 C549 1.232 . S
C551 O543 1.260 . S
C551 O544 1.257 . S
Zn552 O555 2.031 . S
Zn552 O557 2.049 . S
Zn552 O562 2.067 . S
Zn553 O554 1.962 . S
Zn553 O556 1.986 . S
Zn553 O558 1.996 . S
Zn553 O561 1.943 . S
O554 Zn553 1.962 . S
O554 C559 1.254 . S
O555 Zn552 2.031 . S
O555 C559 1.269 . S
O556 Zn553 1.986 . S
O556 C563 1.262 . S
O557 Zn552 2.049 . S
O557 C565 1.260 . S
O558 Zn553 1.996 . S
O558 C565 1.257 . S
C559 O554 1.254 . S
C559 O555 1.269 . S
C560 O561 1.249 . S
C560 O562 1.270 . S
O561 Zn553 1.943 . S
O561 C560 1.249 . S
O562 Zn552 2.067 . S
O562 C560 1.270 . S
C563 O556 1.262 . S
C563 O564 1.232 . S
O564 C563 1.232 . S
C565 O557 1.260 . S
C565 O558 1.257 . S
Zn566 O569 2.031 . S
Zn566 O571 2.049 . S
Zn566 O576 2.067 . S
Zn567 O568 1.962 . S
Zn567 O570 1.986 . S
Zn567 O572 1.996 . S
Zn567 O575 1.943 . S
O568 Zn567 1.962 . S
O568 C573 1.254 . S
O569 Zn566 2.031 . S
O569 C573 1.269 . S
O570 Zn567 1.986 . S
O570 C577 1.262 . S
O571 Zn566 2.049 . S
O571 C579 1.260 . S
O572 Zn567 1.996 . S
O572 C579 1.257 . S
C573 O568 1.254 . S
C573 O569 1.269 . S
C574 O575 1.249 . S
C574 O576 1.270 . S
O575 Zn567 1.943 . S
O575 C574 1.249 . S
O576 Zn566 2.067 . S
O576 C574 1.270 . S
C577 O570 1.262 . S
C577 O578 1.232 . S
O578 C577 1.232 . S
C579 O571 1.260 . S
C579 O572 1.257 . S
Zn580 O583 2.031 . S
Zn580 O585 2.049 . S
Zn580 O590 2.067 . S
Zn581 O582 1.962 . S
Zn581 O584 1.986 . S
Zn581 O586 1.996 . S
Zn581 O589 1.943 1_556 S
O582 Zn581 1.962 . S
O582 C587 1.254 1_556 S
O583 Zn580 2.031 . S
O583 C587 1.269 . S
O584 Zn581 1.986 . S
O584 C591 1.262 . S
O585 Zn580 2.049 . S
O585 C593 1.260 . S
O586 Zn581 1.996 . S
O586 C593 1.257 1_556 S
C587 O582 1.254 1_554 S
C587 O583 1.269 . S
C588 O589 1.249 . S
C588 O590 1.270 . S
O589 Zn581 1.943 1_554 S
O589 C588 1.249 . S
O590 Zn580 2.067 . S
O590 C588 1.270 . S
C591 O584 1.262 . S
C591 O592 1.232 . S
O592 C591 1.232 . S
C593 O585 1.260 . S
C593 O586 1.257 1_554 S
Zn594 O597 2.031 . S
Zn594 O599 2.049 . S
Zn594 O604 2.067 . S
Zn595 O596 1.962 . S
Zn595 O598 1.986 . S
Zn595 O600 1.996 . S
Zn595 O603 1.943 . S
O596 Zn595 1.962 . S
O596 C601 1.254 . S
O597 Zn594 2.031 . S
O597 C601 1.269 . S
O598 Zn595 1.986 . S
O598 C605 1.262 . S
O599 Zn594 2.049 . S
O599 C607 1.260 . S
O600 Zn595 1.996 . S
O600 C607 1.257 . S
C601 O596 1.254 . S
C601 O597 1.269 . S
C602 O603 1.249 . S
C602 O604 1.270 . S
O603 Zn595 1.943 . S
O603 C602 1.249 . S
O604 Zn594 2.067 . S
O604 C602 1.270 . S
C605 O598 1.262 . S
C605 O606 1.232 . S
O606 C605 1.232 . S
C607 O599 1.260 . S
C607 O600 1.257 . S
C608 C609 1.349 . S
C608 C610 1.327 . S
C608 H633 0.950 . S
C609 C608 1.349 . S
C609 C625 1.349 . S
C610 C608 1.327 . S
C610 C629 1.429 . S
C610 H634 0.950 . S
C611 C628 1.574 . S
C611 C630 1.368 . S
C611 H635 0.949 . S
H612 C616 0.949 . S
C613 C614 1.349 . S
C613 C615 1.327 . S
C613 H636 0.950 . S
C614 C613 1.349 . S
C614 C626 1.349 . S
C615 C613 1.327 . S
C615 C631 1.429 . S
C615 H637 0.950 . S
C616 H612 0.949 . S
C616 C624 1.574 . S
C616 C632 1.368 . S
H617 C625 0.950 . S
H618 C623 0.950 . S
H619 C624 0.949 . S
H620 C626 0.950 . S
H621 C627 0.950 . S
H622 C628 0.949 . S
C623 H618 0.950 . S
C623 C625 1.327 . S
C623 C629 1.429 . S
C624 C616 1.574 . S
C624 H619 0.949 . S
C624 C630 1.368 . S
C625 C609 1.349 . S
C625 H617 0.950 . S
C625 C623 1.327 . S
C626 C614 1.349 . S
C626 H620 0.950 . S
C626 C627 1.327 . S
C627 H621 0.950 . S
C627 C626 1.327 . S
C627 C631 1.429 . S
C628 C611 1.574 . S
C628 H622 0.949 . S
C628 C632 1.368 . S
C629 C610 1.429 . S
C629 C623 1.429 . S
C629 C630 1.523 . S
C630 C611 1.368 . S
C630 C624 1.368 . S
C630 C629 1.523 . S
C631 C615 1.429 . S
C631 C627 1.429 . S
C631 C632 1.523 . S
C632 C616 1.368 . S
C632 C628 1.368 . S
C632 C631 1.523 . S
H633 C608 0.950 . S
H634 C610 0.950 . S
H635 C611 0.949 . S
H636 C613 0.950 . S
H637 C615 0.950 . S
C638 C639 1.349 . S
C638 C640 1.327 . S
C638 H663 0.950 . S
C639 C638 1.349 . S
C639 C655 1.349 . S
C640 C638 1.327 . S
C640 C659 1.429 . S
C640 H664 0.950 . S
C641 C658 1.574 . S
C641 C660 1.368 . S
C641 H665 0.949 . S
H642 C646 0.949 . S
C643 C644 1.349 . S
C643 C645 1.327 . S
C643 H666 0.950 . S
C644 C643 1.349 . S
C644 C656 1.349 . S
C645 C643 1.327 . S
C645 C661 1.429 . S
C645 H667 0.950 . S
C646 H642 0.949 . S
C646 C654 1.574 . S
C646 C662 1.368 . S
H647 C655 0.950 . S
H648 C653 0.950 . S
H649 C654 0.949 . S
H650 C656 0.950 . S
H651 C657 0.950 . S
H652 C658 0.949 . S
C653 H648 0.950 . S
C653 C655 1.327 . S
C653 C659 1.429 . S
C654 C646 1.574 . S
C654 H649 0.949 . S
C654 C660 1.368 . S
C655 C639 1.349 . S
C655 H647 0.950 . S
C655 C653 1.327 . S
C656 C644 1.349 . S
C656 H650 0.950 . S
C656 C657 1.327 . S
C657 H651 0.950 . S
C657 C656 1.327 . S
C657 C661 1.429 . S
C658 C641 1.574 . S
C658 H652 0.949 . S
C658 C662 1.368 . S
C659 C640 1.429 . S
C659 C653 1.429 . S
C659 C660 1.523 . S
C660 C641 1.368 . S
C660 C654 1.368 . S
C660 C659 1.523 . S
C661 C645 1.429 . S
C661 C657 1.429 . S
C661 C662 1.523 . S
C662 C646 1.368 . S
C662 C658 1.368 . S
C662 C661 1.523 . S
H663 C638 0.950 . S
H664 C640 0.950 . S
H665 C641 0.949 . S
H666 C643 0.950 . S
H667 C645 0.950 . S
C668 C669 1.349 . S
C668 C670 1.327 . S
C668 H693 0.950 . S
C669 C668 1.349 . S
C669 C685 1.349 . S
C670 C668 1.327 . S
C670 C689 1.429 . S
C670 H694 0.950 . S
C671 C688 1.574 . S
C671 C690 1.368 . S
C671 H695 0.949 . S
H672 C676 0.949 . S
C673 C674 1.349 . S
C673 C675 1.327 . S
C673 H696 0.950 . S
C674 C673 1.349 . S
C674 C686 1.349 . S
C675 C673 1.327 . S
C675 C691 1.429 . S
C675 H697 0.950 . S
C676 H672 0.949 . S
C676 C684 1.574 . S
C676 C692 1.368 . S
H677 C685 0.950 . S
H678 C683 0.950 . S
H679 C684 0.949 . S
H680 C686 0.950 . S
H681 C687 0.950 . S
H682 C688 0.949 . S
C683 H678 0.950 . S
C683 C685 1.327 . S
C683 C689 1.429 . S
C684 C676 1.574 . S
C684 H679 0.949 . S
C684 C690 1.368 . S
C685 C669 1.349 . S
C685 H677 0.950 . S
C685 C683 1.327 . S
C686 C674 1.349 . S
C686 H680 0.950 . S
C686 C687 1.327 . S
C687 H681 0.950 . S
C687 C686 1.327 . S
C687 C691 1.429 . S
C688 C671 1.574 . S
C688 H682 0.949 . S
C688 C692 1.368 . S
C689 C670 1.429 . S
C689 C683 1.429 . S
C689 C690 1.523 . S
C690 C671 1.368 . S
C690 C684 1.368 . S
C690 C689 1.523 . S
C691 C675 1.429 . S
C691 C687 1.429 . S
C691 C692 1.523 . S
C692 C676 1.368 . S
C692 C688 1.368 . S
C692 C691 1.523 . S
H693 C668 0.950 . S
H694 C670 0.950 . S
H695 C671 0.949 . S
H696 C673 0.950 . S
H697 C675 0.950 . S
C698 C699 1.349 . S
C698 C700 1.327 . S
C698 H723 0.950 . S
C699 C698 1.349 . S
C699 C715 1.349 . S
C700 C698 1.327 . S
C700 C719 1.429 . S
C700 H724 0.950 . S
C701 C718 1.574 . S
C701 C720 1.368 . S
C701 H725 0.949 . S
H702 C706 0.949 . S
C703 C704 1.349 . S
C703 C705 1.327 . S
C703 H726 0.950 . S
C704 C703 1.349 . S
C704 C716 1.349 . S
C705 C703 1.327 . S
C705 C721 1.429 . S
C705 H727 0.950 . S
C706 H702 0.949 . S
C706 C714 1.574 . S
C706 C722 1.368 . S
H707 C715 0.950 . S
H708 C713 0.950 . S
H709 C714 0.949 . S
H710 C716 0.950 . S
H711 C717 0.950 . S
H712 C718 0.949 . S
C713 H708 0.950 . S
C713 C715 1.327 . S
C713 C719 1.429 . S
C714 C706 1.574 . S
C714 H709 0.949 . S
C714 C720 1.368 . S
C715 C699 1.349 . S
C715 H707 0.950 . S
C715 C713 1.327 . S
C716 C704 1.349 . S
C716 H710 0.950 . S
C716 C717 1.327 . S
C717 H711 0.950 . S
C717 C716 1.327 . S
C717 C721 1.429 . S
C718 C701 1.574 . S
C718 H712 0.949 . S
C718 C722 1.368 . S
C719 C700 1.429 . S
C719 C713 1.429 . S
C719 C720 1.523 . S
C720 C701 1.368 . S
C720 C714 1.368 . S
C720 C719 1.523 . S
C721 C705 1.429 . S
C721 C717 1.429 . S
C721 C722 1.523 . S
C722 C706 1.368 . S
C722 C718 1.368 . S
C722 C721 1.523 . S
H723 C698 0.950 . S
H724 C700 0.950 . S
H725 C701 0.949 . S
H726 C703 0.950 . S
H727 C705 0.950 . S
C728 C729 1.349 . S
C728 C730 1.327 . S
C728 H753 0.950 . S
C729 C728 1.349 . S
C729 C745 1.349 1_556 S
C730 C728 1.327 . S
C730 C749 1.435 . S
C730 H754 0.950 . S
C731 C748 1.574 . S
C731 C750 1.368 . S
C731 H755 0.949 . S
H732 C736 0.949 . S
C733 C734 1.349 . S
C733 C735 1.327 . S
C733 H756 0.950 . S
C734 C733 1.349 . S
C734 C746 1.349 1_554 S
C735 C733 1.327 . S
C735 C751 1.429 . S
C735 H757 0.950 . S
C736 H732 0.949 . S
C736 C744 1.574 . S
C736 C752 1.368 1_556 S
H737 C745 0.950 . S
H738 C743 0.950 . S
H739 C744 0.949 . S
H740 C746 0.950 . S
H741 C747 0.950 . S
H742 C748 0.949 . S
C743 H738 0.950 . S
C743 C745 1.327 . S
C743 C749 1.423 1_554 S
C744 C736 1.574 . S
C744 H739 0.949 . S
C744 C750 1.368 1_556 S
C745 C729 1.349 1_554 S
C745 H737 0.950 . S
C745 C743 1.327 . S
C746 C734 1.349 1_556 S
C746 H740 0.950 . S
C746 C747 1.327 . S
C747 H741 0.950 . S
C747 C746 1.327 . S
C747 C751 1.429 1_556 S
C748 C731 1.574 . S
C748 H742 0.949 . S
C748 C752 1.368 . S
C749 C730 1.435 . S
C749 C743 1.423 1_556 S
C749 C750 1.522 1_556 S
C750 C731 1.368 . S
C750 C744 1.368 1_554 S
C750 C749 1.522 1_554 S
C751 C735 1.429 . S
C751 C747 1.429 1_554 S
C751 C752 1.523 . S
C752 C736 1.368 1_554 S
C752 C748 1.368 . S
C752 C751 1.523 . S
H753 C728 0.950 . S
H754 C730 0.950 . S
H755 C731 0.949 . S
H756 C733 0.950 . S
H757 C735 0.950 . S
C758 C759 1.349 . S
C758 C760 1.327 . S
C758 H783 0.950 . S
C759 C758 1.349 . S
C759 C775 1.349 . S
C760 C758 1.327 . S
C760 C779 1.429 . S
C760 H784 0.950 . S
C761 C778 1.574 . S
C761 C780 1.368 . S
C761 H785 0.949 . S
H762 C766 0.949 . S
C763 C764 1.349 . S
C763 C765 1.327 . S
C763 H786 0.950 . S
C764 C763 1.349 . S
C764 C776 1.349 . S
C765 C763 1.327 . S
C765 C781 1.429 . S
C765 H787 0.950 . S
C766 H762 0.949 . S
C766 C774 1.574 . S
C766 C782 1.368 . S
H767 C775 0.950 . S
H768 C773 0.950 . S
H769 C774 0.949 . S
H770 C776 0.950 . S
H771 C777 0.950 . S
H772 C778 0.949 . S
C773 H768 0.950 . S
C773 C775 1.327 . S
C773 C779 1.429 . S
C774 C766 1.574 . S
C774 H769 0.949 . S
C774 C780 1.368 . S
C775 C759 1.349 . S
C775 H767 0.950 . S
C775 C773 1.327 . S
C776 C764 1.349 . S
C776 H770 0.950 . S
C776 C777 1.327 . S
C777 H771 0.950 . S
C777 C776 1.327 . S
C777 C781 1.429 . S
C778 C761 1.574 . S
C778 H772 0.949 . S
C778 C782 1.368 . S
C779 C760 1.429 . S
C779 C773 1.429 . S
C779 C780 1.523 . S
C780 C761 1.368 . S
C780 C774 1.368 . S
C780 C779 1.523 . S
C781 C765 1.429 . S
C781 C777 1.429 . S
C781 C782 1.523 . S
C782 C766 1.368 . S
C782 C778 1.368 . S
C782 C781 1.523 . S
H783 C758 0.950 . S
H784 C760 0.950 . S
H785 C761 0.949 . S
H786 C763 0.950 . S
H787 C765 0.950 . S
C788 C789 1.349 . S
C788 C790 1.327 . S
C788 H813 0.950 . S
C789 C788 1.349 . S
C789 C805 1.349 . S
C790 C788 1.327 . S
C790 C809 1.429 . S
C790 H814 0.950 . S
C791 C808 1.574 . S
C791 C810 1.368 . S
C791 H815 0.949 . S
H792 C796 0.949 . S
C793 C794 1.349 . S
C793 C795 1.327 . S
C793 H816 0.950 . S
C794 C793 1.349 . S
C794 C806 1.349 . S
C795 C793 1.327 . S
C795 C811 1.429 . S
C795 H817 0.950 . S
C796 H792 0.949 . S
C796 C804 1.574 . S
C796 C812 1.368 . S
H797 C805 0.950 . S
H798 C803 0.950 . S
H799 C804 0.949 . S
H800 C806 0.950 . S
H801 C807 0.950 . S
H802 C808 0.949 . S
C803 H798 0.950 . S
C803 C805 1.327 . S
C803 C809 1.429 . S
C804 C796 1.574 . S
C804 H799 0.949 . S
C804 C810 1.368 . S
C805 C789 1.349 . S
C805 H797 0.950 . S
C805 C803 1.327 . S
C806 C794 1.349 . S
C806 H800 0.950 . S
C806 C807 1.327 . S
C807 H801 0.950 . S
C807 C806 1.327 . S
C807 C811 1.429 . S
C808 C791 1.574 . S
C808 H802 0.949 . S
C808 C812 1.368 . S
C809 C790 1.429 . S
C809 C803 1.429 . S
C809 C810 1.523 . S
C810 C791 1.368 . S
C810 C804 1.368 . S
C810 C809 1.523 . S
C811 C795 1.429 . S
C811 C807 1.429 . S
C811 C812 1.523 . S
C812 C796 1.368 . S
C812 C808 1.368 . S
C812 C811 1.523 . S
H813 C788 0.950 . S
H814 C790 0.950 . S
H815 C791 0.949 . S
H816 C793 0.950 . S
H817 C795 0.950 . S
C818 C819 1.349 . S
C818 C820 1.327 . S
C818 H843 0.950 . S
C819 C818 1.349 . S
C819 C835 1.349 . S
C820 C818 1.327 . S
C820 C839 1.429 . S
C820 H844 0.950 . S
C821 C838 1.574 . S
C821 C840 1.368 . S
C821 H845 0.949 . S
H822 C826 0.949 . S
C823 C824 1.349 . S
C823 C825 1.327 . S
C823 H846 0.950 . S
C824 C823 1.349 . S
C824 C836 1.349 . S
C825 C823 1.327 . S
C825 C841 1.429 . S
C825 H847 0.950 . S
C826 H822 0.949 . S
C826 C834 1.574 . S
C826 C842 1.368 . S
H827 C835 0.950 . S
H828 C833 0.950 . S
H829 C834 0.949 . S
H830 C836 0.950 . S
H831 C837 0.950 . S
H832 C838 0.949 . S
C833 H828 0.950 . S
C833 C835 1.327 . S
C833 C839 1.429 . S
C834 C826 1.574 . S
C834 H829 0.949 . S
C834 C840 1.368 . S
C835 C819 1.349 . S
C835 H827 0.950 . S
C835 C833 1.327 . S
C836 C824 1.349 . S
C836 H830 0.950 . S
C836 C837 1.327 . S
C837 H831 0.950 . S
C837 C836 1.327 . S
C837 C841 1.429 . S
C838 C821 1.574 . S
C838 H832 0.949 . S
C838 C842 1.368 . S
C839 C820 1.429 . S
C839 C833 1.429 . S
C839 C840 1.523 . S
C840 C821 1.368 . S
C840 C834 1.368 . S
C840 C839 1.523 . S
C841 C825 1.429 . S
C841 C837 1.429 . S
C841 C842 1.523 . S
C842 C826 1.368 . S
C842 C838 1.368 . S
C842 C841 1.523 . S
H843 C818 0.950 . S
H844 C820 0.950 . S
H845 C821 0.949 . S
H846 C823 0.950 . S
H847 C825 0.950 . S
C848 C849 1.349 . S
C848 C850 1.327 . S
C848 H873 0.950 . S
C849 C848 1.349 . S
C849 C865 1.349 . S
C850 C848 1.327 . S
C850 C869 1.429 . S
C850 H874 0.950 . S
C851 C868 1.574 . S
C851 C870 1.368 . S
C851 H875 0.949 . S
H852 C856 0.949 . S
C853 C854 1.349 . S
C853 C855 1.327 . S
C853 H876 0.950 . S
C854 C853 1.349 . S
C854 C866 1.349 . S
C855 C853 1.327 . S
C855 C871 1.429 . S
C855 H877 0.950 . S
C856 H852 0.949 . S
C856 C864 1.574 . S
C856 C872 1.368 . S
H857 C865 0.950 . S
H858 C863 0.950 . S
H859 C864 0.949 . S
H860 C866 0.950 . S
H861 C867 0.950 . S
H862 C868 0.949 . S
C863 H858 0.950 . S
C863 C865 1.327 . S
C863 C869 1.429 . S
C864 C856 1.574 . S
C864 H859 0.949 . S
C864 C870 1.368 . S
C865 C849 1.349 . S
C865 H857 0.950 . S
C865 C863 1.327 . S
C866 C854 1.349 . S
C866 H860 0.950 . S
C866 C867 1.327 . S
C867 H861 0.950 . S
C867 C866 1.327 . S
C867 C871 1.429 . S
C868 C851 1.574 . S
C868 H862 0.949 . S
C868 C872 1.368 . S
C869 C850 1.429 . S
C869 C863 1.429 . S
C869 C870 1.523 . S
C870 C851 1.368 . S
C870 C864 1.368 . S
C870 C869 1.523 . S
C871 C855 1.429 . S
C871 C867 1.429 . S
C871 C872 1.523 . S
C872 C856 1.368 . S
C872 C868 1.368 . S
C872 C871 1.523 . S
H873 C848 0.950 . S
H874 C850 0.950 . S
H875 C851 0.949 . S
H876 C853 0.950 . S
H877 C855 0.950 . S
C878 C879 1.349 . S
C878 C880 1.327 . S
C878 H903 0.950 . S
C879 C878 1.349 . S
C879 C895 1.349 . S
C880 C878 1.327 . S
C880 C899 1.429 . S
C880 H904 0.950 . S
C881 C898 1.574 . S
C881 C900 1.368 . S
C881 H905 0.949 . S
H882 C886 0.949 1_556 S
C883 C884 1.349 . S
C883 C885 1.327 . S
C883 H906 0.950 . S
C884 C883 1.349 . S
C884 C896 1.352 1_554 S
C885 C883 1.327 . S
C885 C901 1.429 . S
C885 H907 0.950 . S
C886 H882 0.949 1_554 S
C886 C894 1.574 . S
C886 C902 1.368 . S
H887 C895 0.950 . S
H888 C893 0.950 . S
H889 C894 0.987 . S
H890 C896 0.945 . S
H891 C897 0.950 1_556 S
H892 C898 0.949 . S
C893 H888 0.950 . S
C893 C895 1.327 . S
C893 C899 1.429 . S
C894 C886 1.574 . S
C894 H889 0.987 . S
C894 C900 1.368 . S
C895 C879 1.349 . S
C895 H887 0.950 . S
C895 C893 1.327 . S
C896 C884 1.352 1_556 S
C896 H890 0.945 . S
C896 C897 1.328 1_556 S
C897 H891 0.950 1_554 S
C897 C896 1.328 1_554 S
C897 C901 1.429 . S
C898 C881 1.574 . S
C898 H892 0.949 . S
C898 C902 1.368 . S
C899 C880 1.429 . S
C899 C893 1.429 . S
C899 C900 1.523 . S
C900 C881 1.368 . S
C900 C894 1.368 . S
C900 C899 1.523 . S
C901 C885 1.429 . S
C901 C897 1.429 . S
C901 C902 1.523 . S
C902 C886 1.368 . S
C902 C898 1.368 . S
C902 C901 1.523 . S
H903 C878 0.950 . S
H904 C880 0.950 . S
H905 C881 0.949 . S
H906 C883 0.950 . S
H907 C885 0.950 . S
C908 C909 1.349 . S
C908 C910 1.327 . S
C908 H933 0.950 . S
C909 C908 1.349 . S
C909 C925 1.349 . S
C910 C908 1.327 . S
C910 C929 1.429 . S
C910 H934 0.950 . S
C911 C928 1.574 . S
C911 C930 1.368 . S
C911 H935 0.949 . S
H912 C916 0.949 . S
C913 C914 1.349 . S
C913 C915 1.327 . S
C913 H936 0.950 . S
C914 C913 1.349 . S
C914 C926 1.349 . S
C915 C913 1.327 . S
C915 C931 1.429 . S
C915 H937 0.950 . S
C916 H912 0.949 . S
C916 C924 1.574 . S
C916 C932 1.368 . S
H917 C925 0.950 . S
H918 C923 0.950 . S
H919 C924 0.949 . S
H920 C926 0.950 . S
H921 C927 0.950 . S
H922 C928 0.949 . S
C923 H918 0.950 . S
C923 C925 1.327 . S
C923 C929 1.429 . S
C924 C916 1.574 . S
C924 H919 0.949 . S
C924 C930 1.368 . S
C925 C909 1.349 . S
C925 H917 0.950 . S
C925 C923 1.327 . S
C926 C914 1.349 . S
C926 H920 0.950 . S
C926 C927 1.327 . S
C927 H921 0.950 . S
C927 C926 1.327 . S
C927 C931 1.429 . S
C928 C911 1.574 . S
C928 H922 0.949 . S
C928 C932 1.368 . S
C929 C910 1.429 . S
C929 C923 1.429 . S
C929 C930 1.523 . S
C930 C911 1.368 . S
C930 C924 1.368 . S
C930 C929 1.523 . S
C931 C915 1.429 . S
C931 C927 1.429 . S
C931 C932 1.523 . S
C932 C916 1.368 . S
C932 C928 1.368 . S
C932 C931 1.523 . S
H933 C908 0.950 . S
H934 C910 0.950 . S
H935 C911 0.949 . S
H936 C913 0.950 . S
H937 C915 0.950 . S
C938 C939 1.349 . S
C938 C940 1.327 . S
C938 H963 0.950 . S
C939 C938 1.349 . S
C939 C955 1.349 . S
C940 C938 1.327 . S
C940 C959 1.429 . S
C940 H964 0.950 . S
C941 C958 1.574 . S
C941 C960 1.368 . S
C941 H965 0.949 . S
H942 C946 0.949 . S
C943 C944 1.349 . S
C943 C945 1.327 . S
C943 H966 0.950 . S
C944 C943 1.349 . S
C944 C956 1.349 . S
C945 C943 1.327 . S
C945 C961 1.429 . S
C945 H967 0.950 . S
C946 H942 0.949 . S
C946 C954 1.574 . S
C946 C962 1.368 . S
H947 C955 0.950 . S
H948 C953 0.950 . S
H949 C954 0.949 . S
H950 C956 0.950 . S
H951 C957 0.950 . S
H952 C958 0.949 . S
C953 H948 0.950 . S
C953 C955 1.327 . S
C953 C959 1.429 . S
C954 C946 1.574 . S
C954 H949 0.949 . S
C954 C960 1.368 . S
C955 C939 1.349 . S
C955 H947 0.950 . S
C955 C953 1.327 . S
C956 C944 1.349 . S
C956 H950 0.950 . S
C956 C957 1.327 . S
C957 H951 0.950 . S
C957 C956 1.327 . S
C957 C961 1.429 . S
C958 C941 1.574 . S
C958 H952 0.949 . S
C958 C962 1.368 . S
C959 C940 1.429 . S
C959 C953 1.429 . S
C959 C960 1.523 . S
C960 C941 1.368 . S
C960 C954 1.368 . S
C960 C959 1.523 . S
C961 C945 1.429 . S
C961 C957 1.429 . S
C961 C962 1.523 . S
C962 C946 1.368 . S
C962 C958 1.368 . S
C962 C961 1.523 . S
H963 C938 0.950 . S
H964 C940 0.950 . S
H965 C941 0.949 . S
H966 C943 0.950 . S
H967 C945 0.950 . S
C968 C969 1.349 . S
C968 C970 1.327 . S
C968 H993 0.950 . S
C969 C968 1.349 . S
C969 C985 1.349 . S
C970 C968 1.327 . S
C970 C989 1.429 . S
C970 H994 0.950 . S
C971 C988 1.574 . S
C971 C990 1.368 . S
C971 H995 0.949 . S
H972 C976 0.949 . S
C973 C974 1.349 . S
C973 C975 1.327 . S
C973 H996 0.950 . S
C974 C973 1.349 . S
C974 C986 1.349 . S
C975 C973 1.327 . S
C975 C991 1.429 . S
C975 H997 0.950 . S
C976 H972 0.949 . S
C976 C984 1.574 . S
C976 C992 1.368 . S
H977 C985 0.950 . S
H978 C983 0.950 . S
H979 C984 0.949 . S
H980 C986 0.950 . S
H981 C987 0.950 . S
H982 C988 0.949 . S
C983 H978 0.950 . S
C983 C985 1.327 . S
C983 C989 1.429 . S
C984 C976 1.574 . S
C984 H979 0.949 . S
C984 C990 1.368 . S
C985 C969 1.349 . S
C985 H977 0.950 . S
C985 C983 1.327 . S
C986 C974 1.349 . S
C986 H980 0.950 . S
C986 C987 1.327 . S
C987 H981 0.950 . S
C987 C986 1.327 . S
C987 C991 1.429 . S
C988 C971 1.574 . S
C988 H982 0.949 . S
C988 C992 1.368 . S
C989 C970 1.429 . S
C989 C983 1.429 . S
C989 C990 1.523 . S
C990 C971 1.368 . S
C990 C984 1.368 . S
C990 C989 1.523 . S
C991 C975 1.429 . S
C991 C987 1.429 . S
C991 C992 1.523 . S
C992 C976 1.368 . S
C992 C988 1.368 . S
C992 C991 1.523 . S
H993 C968 0.950 . S
H994 C970 0.950 . S
H995 C971 0.949 . S
H996 C973 0.950 . S
H997 C975 0.950 . S
C998 C999 1.349 . S
C998 C1000 1.327 . S
C998 H1023 0.950 . S
C999 C998 1.349 . S
C999 C1015 1.349 . S
C1000 C998 1.327 . S
C1000 C1019 1.429 . S
C1000 H1024 0.950 . S
C1001 C1018 1.574 . S
C1001 C1020 1.368 . S
C1001 H1025 0.949 . S
H1002 C1006 0.949 . S
C1003 C1004 1.349 . S
C1003 C1005 1.327 . S
C1003 H1026 0.950 . S
C1004 C1003 1.349 . S
C1004 C1016 1.349 . S
C1005 C1003 1.327 . S
C1005 C1021 1.429 . S
C1005 H1027 0.950 . S
C1006 H1002 0.949 . S
C1006 C1014 1.574 . S
C1006 C1022 1.368 . S
H1007 C1015 0.950 . S
H1008 C1013 0.950 . S
H1009 C1014 0.949 . S
H1010 C1016 0.950 . S
H1011 C1017 0.950 . S
H1012 C1018 0.949 . S
C1013 H1008 0.950 . S
C1013 C1015 1.327 . S
C1013 C1019 1.429 . S
C1014 C1006 1.574 . S
C1014 H1009 0.949 . S
C1014 C1020 1.368 . S
C1015 C999 1.349 . S
C1015 H1007 0.950 . S
C1015 C1013 1.327 . S
C1016 C1004 1.349 . S
C1016 H1010 0.950 . S
C1016 C1017 1.327 . S
C1017 H1011 0.950 . S
C1017 C1016 1.327 . S
C1017 C1021 1.429 . S
C1018 C1001 1.574 . S
C1018 H1012 0.949 . S
C1018 C1022 1.368 . S
C1019 C1000 1.429 . S
C1019 C1013 1.429 . S
C1019 C1020 1.523 . S
C1020 C1001 1.368 . S
C1020 C1014 1.368 . S
C1020 C1019 1.523 . S
C1021 C1005 1.429 . S
C1021 C1017 1.429 . S
C1021 C1022 1.523 . S
C1022 C1006 1.368 . S
C1022 C1018 1.368 . S
C1022 C1021 1.523 . S
H1023 C998 0.950 . S
H1024 C1000 0.950 . S
H1025 C1001 0.949 . S
H1026 C1003 0.950 . S
H1027 C1005 0.950 . S
C1028 C1029 1.349 . S
C1028 C1030 1.327 . S
C1028 H1053 0.950 . S
C1029 C1028 1.349 . S
C1029 C1045 1.349 . S
C1030 C1028 1.327 . S
C1030 C1049 1.429 . S
C1030 H1054 0.950 . S
C1031 C1048 1.574 . S
C1031 C1050 1.368 1_554 S
C1031 H1055 0.949 . S
H1032 C1036 0.949 . S
C1033 C1034 1.349 1_554 S
C1033 C1035 1.327 . S
C1033 H1056 0.950 . S
C1034 C1033 1.349 1_556 S
C1034 C1046 1.349 . S
C1035 C1033 1.327 . S
C1035 C1051 1.429 1_554 S
C1035 H1057 0.950 . S
C1036 H1032 0.949 . S
C1036 C1044 1.574 . S
C1036 C1052 1.368 . S
H1037 C1045 0.950 1_554 S
H1038 C1043 0.950 1_554 S
H1039 C1044 0.949 . S
H1040 C1046 0.950 . S
H1041 C1047 0.950 . S
H1042 C1048 0.949 . S
C1043 H1038 0.950 1_556 S
C1043 C1045 1.327 . S
C1043 C1049 1.429 . S
C1044 C1036 1.574 . S
C1044 H1039 0.949 . S
C1044 C1050 1.368 . S
C1045 C1029 1.349 . S
C1045 H1037 0.950 1_556 S
C1045 C1043 1.327 . S
C1046 C1034 1.349 . S
C1046 H1040 0.950 . S
C1046 C1047 1.327 . S
C1047 H1041 0.950 . S
C1047 C1046 1.327 . S
C1047 C1051 1.429 . S
C1048 C1031 1.574 . S
C1048 H1042 0.949 . S
C1048 C1052 1.368 1_554 S
C1049 C1030 1.429 . S
C1049 C1043 1.429 . S
C1049 C1050 1.523 . S
C1050 C1031 1.368 1_556 S
C1050 C1044 1.368 . S
C1050 C1049 1.523 . S
C1051 C1035 1.429 1_556 S
C1051 C1047 1.429 . S
C1051 C1052 1.523 . S
C1052 C1036 1.368 . S
C1052 C1048 1.368 1_556 S
C1052 C1051 1.523 . S
H1053 C1028 0.950 . S
H1054 C1030 0.950 . S
H1055 C1031 0.949 . S
H1056 C1033 0.950 . S
H1057 C1035 0.950 . S
C1058 C1059 1.349 . S
C1058 C1060 1.327 . S
C1058 H1083 0.950 . S
C1059 C1058 1.349 . S
C1059 C1075 1.349 . S
C1060 C1058 1.327 . S
C1060 C1079 1.429 . S
C1060 H1084 0.950 . S
C1061 C1078 1.574 . S
C1061 C1080 1.368 . S
C1061 H1085 0.949 . S
H1062 C1066 0.949 . S
C1063 C1064 1.349 . S
C1063 C1065 1.327 . S
C1063 H1086 0.950 . S
C1064 C1063 1.349 . S
C1064 C1076 1.349 . S
C1065 C1063 1.327 . S
C1065 C1081 1.429 . S
C1065 H1087 0.950 . S
C1066 H1062 0.949 . S
C1066 C1074 1.574 . S
C1066 C1082 1.368 . S
H1067 C1075 0.950 . S
H1068 C1073 0.950 . S
H1069 C1074 0.949 . S
H1070 C1076 0.950 . S
H1071 C1077 0.950 . S
H1072 C1078 0.949 . S
C1073 H1068 0.950 . S
C1073 C1075 1.327 . S
C1073 C1079 1.429 . S
C1074 C1066 1.574 . S
C1074 H1069 0.949 . S
C1074 C1080 1.368 . S
C1075 C1059 1.349 . S
C1075 H1067 0.950 . S
C1075 C1073 1.327 . S
C1076 C1064 1.349 . S
C1076 H1070 0.950 . S
C1076 C1077 1.327 . S
C1077 H1071 0.950 . S
C1077 C1076 1.327 . S
C1077 C1081 1.429 . S
C1078 C1061 1.574 . S
C1078 H1072 0.949 . S
C1078 C1082 1.368 . S
C1079 C1060 1.429 . S
C1079 C1073 1.429 . S
C1079 C1080 1.523 . S
C1080 C1061 1.368 . S
C1080 C1074 1.368 . S
C1080 C1079 1.523 . S
C1081 C1065 1.429 . S
C1081 C1077 1.429 . S
C1081 C1082 1.523 . S
C1082 C1066 1.368 . S
C1082 C1078 1.368 . S
C1082 C1081 1.523 . S
H1083 C1058 0.950 . S
H1084 C1060 0.950 . S
H1085 C1061 0.949 . S
H1086 C1063 0.950 . S
H1087 C1065 0.950 . S
C1088 C1089 1.349 . S
C1088 C1090 1.327 . S
C1088 H1113 0.950 . S
C1089 C1088 1.349 . S
C1089 C1105 1.349 . S
C1090 C1088 1.327 . S
C1090 C1109 1.429 . S
C1090 H1114 0.950 . S
C1091 C1108 1.574 . S
C1091 C1110 1.368 . S
C1091 H1115 0.949 . S
H1092 C1096 0.949 . S
C1093 C1094 1.349 . S
C1093 C1095 1.327 . S
C1093 H1116 0.950 . S
C1094 C1093 1.349 . S
C1094 C1106 1.349 . S
C1095 C1093 1.327 . S
C1095 C1111 1.429 . S
C1095 H1117 0.950 . S
C1096 H1092 0.949 . S
C1096 C1104 1.574 . S
C1096 C1112 1.368 . S
H1097 C1105 0.950 . S
H1098 C1103 0.950 . S
H1099 C1104 0.949 . S
H1100 C1106 0.950 . S
H1101 C1107 0.950 . S
H1102 C1108 0.949 . S
C1103 H1098 0.950 . S
C1103 C1105 1.327 . S
C1103 C1109 1.429 . S
C1104 C1096 1.574 . S
C1104 H1099 0.949 . S
C1104 C1110 1.368 . S
C1105 C1089 1.349 . S
C1105 H1097 0.950 . S
C1105 C1103 1.327 . S
C1106 C1094 1.349 . S
C1106 H1100 0.950 . S
C1106 C1107 1.327 . S
C1107 H1101 0.950 . S
C1107 C1106 1.327 . S
C1107 C1111 1.429 . S
C1108 C1091 1.574 . S
C1108 H1102 0.949 . S
C1108 C1112 1.368 . S
C1109 C1090 1.429 . S
C1109 C1103 1.429 . S
C1109 C1110 1.523 . S
C1110 C1091 1.368 . S
C1110 C1104 1.368 . S
C1110 C1109 1.523 . S
C1111 C1095 1.429 . S
C1111 C1107 1.429 . S
C1111 C1112 1.523 . S
C1112 C1096 1.368 . S
C1112 C1108 1.368 . S
C1112 C1111 1.523 . S
H1113 C1088 0.950 . S
H1114 C1090 0.950 . S
H1115 C1091 0.949 . S
H1116 C1093 0.950 . S
H1117 C1095 0.950 . S
C1118 C1119 1.349 . S
C1118 C1120 1.327 . S
C1118 H1143 0.950 . S
C1119 C1118 1.349 . S
C1119 C1135 1.349 . S
C1120 C1118 1.327 . S
C1120 C1139 1.429 . S
C1120 H1144 0.950 . S
C1121 C1138 1.574 . S
C1121 C1140 1.368 . S
C1121 H1145 0.949 . S
H1122 C1126 0.949 . S
C1123 C1124 1.349 . S
C1123 C1125 1.327 . S
C1123 H1146 0.950 . S
C1124 C1123 1.349 . S
C1124 C1136 1.349 . S
C1125 C1123 1.327 . S
C1125 C1141 1.429 . S
C1125 H1147 0.950 . S
C1126 H1122 0.949 . S
C1126 C1134 1.574 . S
C1126 C1142 1.368 . S
H1127 C1135 0.950 . S
H1128 C1133 0.950 . S
H1129 C1134 0.949 . S
H1130 C1136 0.950 . S
H1131 C1137 0.950 . S
H1132 C1138 0.949 . S
C1133 H1128 0.950 . S
C1133 C1135 1.327 . S
C1133 C1139 1.429 . S
C1134 C1126 1.574 . S
C1134 H1129 0.949 . S
C1134 C1140 1.368 . S
C1135 C1119 1.349 . S
C1135 H1127 0.950 . S
C1135 C1133 1.327 . S
C1136 C1124 1.349 . S
C1136 H1130 0.950 . S
C1136 C1137 1.327 . S
C1137 H1131 0.950 . S
C1137 C1136 1.327 . S
C1137 C1141 1.429 . S
C1138 C1121 1.574 . S
C1138 H1132 0.949 . S
C1138 C1142 1.368 . S
C1139 C1120 1.429 . S
C1139 C1133 1.429 . S
C1139 C1140 1.523 . S
C1140 C1121 1.368 . S
C1140 C1134 1.368 . S
C1140 C1139 1.523 . S
C1141 C1125 1.429 . S
C1141 C1137 1.429 . S
C1141 C1142 1.523 . S
C1142 C1126 1.368 . S
C1142 C1138 1.368 . S
C1142 C1141 1.523 . S
H1143 C1118 0.950 . S
H1144 C1120 0.950 . S
H1145 C1121 0.949 . S
H1146 C1123 0.950 . S
H1147 C1125 0.950 . S
C1148 C1149 1.349 . S
C1148 C1150 1.327 . S
C1148 H1173 0.950 . S
C1149 C1148 1.349 . S
C1149 C1165 1.349 . S
C1150 C1148 1.327 . S
C1150 C1169 1.429 . S
C1150 H1174 0.950 . S
C1151 C1168 1.574 . S
C1151 C1170 1.368 . S
C1151 H1175 0.949 . S
H1152 C1156 0.949 . S
C1153 C1154 1.349 . S
C1153 C1155 1.327 . S
C1153 H1176 0.950 . S
C1154 C1153 1.349 . S
C1154 C1166 1.349 . S
C1155 C1153 1.327 . S
C1155 C1171 1.429 . S
C1155 H1177 0.950 . S
C1156 H1152 0.949 . S
C1156 C1164 1.574 . S
C1156 C1172 1.368 . S
H1157 C1165 0.950 . S
H1158 C1163 0.950 . S
H1159 C1164 0.949 . S
H1160 C1166 0.950 . S
H1161 C1167 0.950 . S
H1162 C1168 0.949 . S
C1163 H1158 0.950 . S
C1163 C1165 1.327 . S
C1163 C1169 1.429 . S
C1164 C1156 1.574 . S
C1164 H1159 0.949 . S
C1164 C1170 1.368 . S
C1165 C1149 1.349 . S
C1165 H1157 0.950 . S
C1165 C1163 1.327 . S
C1166 C1154 1.349 . S
C1166 H1160 0.950 . S
C1166 C1167 1.327 . S
C1167 H1161 0.950 . S
C1167 C1166 1.327 . S
C1167 C1171 1.429 . S
C1168 C1151 1.574 . S
C1168 H1162 0.949 . S
C1168 C1172 1.368 . S
C1169 C1150 1.429 . S
C1169 C1163 1.429 . S
C1169 C1170 1.523 . S
C1170 C1151 1.368 . S
C1170 C1164 1.368 . S
C1170 C1169 1.523 . S
C1171 C1155 1.429 . S
C1171 C1167 1.429 . S
C1171 C1172 1.523 . S
C1172 C1156 1.368 . S
C1172 C1168 1.368 . S
C1172 C1171 1.523 . S
H1173 C1148 0.950 . S
H1174 C1150 0.950 . S
H1175 C1151 0.949 . S
H1176 C1153 0.950 . S
H1177 C1155 0.950 . S
C1178 C1179 1.349 . S
C1178 C1180 1.327 . S
C1178 H1203 0.950 . S
C1179 C1178 1.349 . S
C1179 C1195 1.349 . S
C1180 C1178 1.327 . S
C1180 C1199 1.429 . S
C1180 H1204 0.950 . S
C1181 C1198 1.574 . S
C1181 C1200 1.368 . S
C1181 H1205 0.949 . S
H1182 C1186 0.949 . S
C1183 C1184 1.349 . S
C1183 C1185 1.327 . S
C1183 H1206 0.950 . S
C1184 C1183 1.349 . S
C1184 C1196 1.349 . S
C1185 C1183 1.327 . S
C1185 C1201 1.429 . S
C1185 H1207 0.950 . S
C1186 H1182 0.949 . S
C1186 C1194 1.574 . S
C1186 C1202 1.368 . S
H1187 C1195 0.950 . S
H1188 C1193 0.950 . S
H1189 C1194 0.949 . S
H1190 C1196 0.950 . S
H1191 C1197 0.950 . S
H1192 C1198 0.949 . S
C1193 H1188 0.950 . S
C1193 C1195 1.327 . S
C1193 C1199 1.429 . S
C1194 C1186 1.574 . S
C1194 H1189 0.949 . S
C1194 C1200 1.368 . S
C1195 C1179 1.349 . S
C1195 H1187 0.950 . S
C1195 C1193 1.327 . S
C1196 C1184 1.349 . S
C1196 H1190 0.950 . S
C1196 C1197 1.327 . S
C1197 H1191 0.950 . S
C1197 C1196 1.327 . S
C1197 C1201 1.429 . S
C1198 C1181 1.574 . S
C1198 H1192 0.949 . S
C1198 C1202 1.368 . S
C1199 C1180 1.429 . S
C1199 C1193 1.429 . S
C1199 C1200 1.523 . S
C1200 C1181 1.368 . S
C1200 C1194 1.368 . S
C1200 C1199 1.523 . S
C1201 C1185 1.429 . S
C1201 C1197 1.429 . S
C1201 C1202 1.523 . S
C1202 C1186 1.368 . S
C1202 C1198 1.368 . S
C1202 C1201 1.523 . S
H1203 C1178 0.950 . S
H1204 C1180 0.950 . S
H1205 C1181 0.949 . S
H1206 C1183 0.950 . S
H1207 C1185 0.950 . S
C1208 C1209 1.349 . S
C1208 C1210 1.327 . S
C1208 H1233 0.950 . S
C1209 C1208 1.349 . S
C1209 C1225 1.349 . S
C1210 C1208 1.327 . S
C1210 C1229 1.429 . S
C1210 H1234 0.950 . S
C1211 C1228 1.574 . S
C1211 C1230 1.368 . S
C1211 H1235 0.949 . S
H1212 C1216 0.949 . S
C1213 C1214 1.349 . S
C1213 C1215 1.327 . S
C1213 H1236 0.950 . S
C1214 C1213 1.349 . S
C1214 C1226 1.349 . S
C1215 C1213 1.327 . S
C1215 C1231 1.429 . S
C1215 H1237 0.950 . S
C1216 H1212 0.949 . S
C1216 C1224 1.574 . S
C1216 C1232 1.368 . S
H1217 C1225 0.950 . S
H1218 C1223 0.950 . S
H1219 C1224 0.949 . S
H1220 C1226 0.950 . S
H1221 C1227 0.950 . S
H1222 C1228 0.949 . S
C1223 H1218 0.950 . S
C1223 C1225 1.327 . S
C1223 C1229 1.429 . S
C1224 C1216 1.574 . S
C1224 H1219 0.949 . S
C1224 C1230 1.368 . S
C1225 C1209 1.349 . S
C1225 H1217 0.950 . S
C1225 C1223 1.327 . S
C1226 C1214 1.349 . S
C1226 H1220 0.950 . S
C1226 C1227 1.327 . S
C1227 H1221 0.950 . S
C1227 C1226 1.327 . S
C1227 C1231 1.429 . S
C1228 C1211 1.574 . S
C1228 H1222 0.949 . S
C1228 C1232 1.368 . S
C1229 C1210 1.429 . S
C1229 C1223 1.429 . S
C1229 C1230 1.523 . S
C1230 C1211 1.368 . S
C1230 C1224 1.368 . S
C1230 C1229 1.523 . S
C1231 C1215 1.429 . S
C1231 C1227 1.429 . S
C1231 C1232 1.523 . S
C1232 C1216 1.368 . S
C1232 C1228 1.368 . S
C1232 C1231 1.523 . S
H1233 C1208 0.950 . S
H1234 C1210 0.950 . S
H1235 C1211 0.949 . S
H1236 C1213 0.950 . S
H1237 C1215 0.950 . S
C1238 C1239 1.349 . S
C1238 C1240 1.327 . S
C1238 H1263 0.950 . S
C1239 C1238 1.349 . S
C1239 C1255 1.349 . S
C1240 C1238 1.327 . S
C1240 C1259 1.429 . S
C1240 H1264 0.950 . S
C1241 C1258 1.574 . S
C1241 C1260 1.368 . S
C1241 H1265 0.949 . S
H1242 C1246 0.949 . S
C1243 C1244 1.349 . S
C1243 C1245 1.327 . S
C1243 H1266 0.950 . S
C1244 C1243 1.349 . S
C1244 C1256 1.349 . S
C1245 C1243 1.327 . S
C1245 C1261 1.429 . S
C1245 H1267 0.950 . S
C1246 H1242 0.949 . S
C1246 C1254 1.574 . S
C1246 C1262 1.368 . S
H1247 C1255 0.950 . S
H1248 C1253 0.950 . S
H1249 C1254 0.949 . S
H1250 C1256 0.950 . S
H1251 C1257 0.950 . S
H1252 C1258 0.949 . S
C1253 H1248 0.950 . S
C1253 C1255 1.327 . S
C1253 C1259 1.429 . S
C1254 C1246 1.574 . S
C1254 H1249 0.949 . S
C1254 C1260 1.368 . S
C1255 C1239 1.349 . S
C1255 H1247 0.950 . S
C1255 C1253 1.327 . S
C1256 C1244 1.349 . S
C1256 H1250 0.950 . S
C1256 C1257 1.327 . S
C1257 H1251 0.950 . S
C1257 C1256 1.327 . S
C1257 C1261 1.429 . S
C1258 C1241 1.574 . S
C1258 H1252 0.949 . S
C1258 C1262 1.368 . S
C1259 C1240 1.429 . S
C1259 C1253 1.429 . S
C1259 C1260 1.523 . S
C1260 C1241 1.368 . S
C1260 C1254 1.368 . S
C1260 C1259 1.523 . S
C1261 C1245 1.429 . S
C1261 C1257 1.429 . S
C1261 C1262 1.523 . S
C1262 C1246 1.368 . S
C1262 C1258 1.368 . S
C1262 C1261 1.523 . S
H1263 C1238 0.950 . S
H1264 C1240 0.950 . S
H1265 C1241 0.949 . S
H1266 C1243 0.950 . S
H1267 C1245 0.950 . S
C1268 C1269 1.349 . S
C1268 C1270 1.327 . S
C1268 H1293 0.950 . S
C1269 C1268 1.349 . S
C1269 C1285 1.349 . S
C1270 C1268 1.327 . S
C1270 C1289 1.429 . S
C1270 H1294 0.950 . S
C1271 C1288 1.574 . S
C1271 C1290 1.368 . S
C1271 H1295 0.949 . S
H1272 C1276 0.949 . S
C1273 C1274 1.349 . S
C1273 C1275 1.327 . S
C1273 H1296 0.950 . S
C1274 C1273 1.349 . S
C1274 C1286 1.349 . S
C1275 C1273 1.327 . S
C1275 C1291 1.429 . S
C1275 H1297 0.950 . S
C1276 H1272 0.949 . S
C1276 C1284 1.574 . S
C1276 C1292 1.368 . S
H1277 C1285 0.950 . S
H1278 C1283 0.950 . S
H1279 C1284 0.949 . S
H1280 C1286 0.950 . S
H1281 C1287 0.950 . S
H1282 C1288 0.949 . S
C1283 H1278 0.950 . S
C1283 C1285 1.327 . S
C1283 C1289 1.429 . S
C1284 C1276 1.574 . S
C1284 H1279 0.949 . S
C1284 C1290 1.368 . S
C1285 C1269 1.349 . S
C1285 H1277 0.950 . S
C1285 C1283 1.327 . S
C1286 C1274 1.349 . S
C1286 H1280 0.950 . S
C1286 C1287 1.327 . S
C1287 H1281 0.950 . S
C1287 C1286 1.327 . S
C1287 C1291 1.429 . S
C1288 C1271 1.574 . S
C1288 H1282 0.949 . S
C1288 C1292 1.368 . S
C1289 C1270 1.429 . S
C1289 C1283 1.429 . S
C1289 C1290 1.523 . S
C1290 C1271 1.368 . S
C1290 C1284 1.368 . S
C1290 C1289 1.523 . S
C1291 C1275 1.429 . S
C1291 C1287 1.429 . S
C1291 C1292 1.523 . S
C1292 C1276 1.368 . S
C1292 C1288 1.368 . S
C1292 C1291 1.523 . S
H1293 C1268 0.950 . S
H1294 C1270 0.950 . S
H1295 C1271 0.949 . S
H1296 C1273 0.950 . S
H1297 C1275 0.950 . S
C1298 C1299 1.349 . S
C1298 C1300 1.327 . S
C1298 H1323 0.950 . S
C1299 C1298 1.349 . S
C1299 C1315 1.349 . S
C1300 C1298 1.327 . S
C1300 C1319 1.429 . S
C1300 H1324 0.950 . S
C1301 C1318 1.574 . S
C1301 C1320 1.368 . S
C1301 H1325 0.949 . S
H1302 C1306 0.949 . S
C1303 C1304 1.349 . S
C1303 C1305 1.327 . S
C1303 H1326 0.950 . S
C1304 C1303 1.349 . S
C1304 C1316 1.349 . S
C1305 C1303 1.327 . S
C1305 C1321 1.429 . S
C1305 H1327 0.950 . S
C1306 H1302 0.949 . S
C1306 C1314 1.574 . S
C1306 C1322 1.368 . S
H1307 C1315 0.950 . S
H1308 C1313 0.950 . S
H1309 C1314 0.949 . S
H1310 C1316 0.950 . S
H1311 C1317 0.950 . S
H1312 C1318 0.949 . S
C1313 H1308 0.950 . S
C1313 C1315 1.327 . S
C1313 C1319 1.429 . S
C1314 C1306 1.574 . S
C1314 H1309 0.949 . S
C1314 C1320 1.368 . S
C1315 C1299 1.349 . S
C1315 H1307 0.950 . S
C1315 C1313 1.327 . S
C1316 C1304 1.349 . S
C1316 H1310 0.950 . S
C1316 C1317 1.327 . S
C1317 H1311 0.950 . S
C1317 C1316 1.327 . S
C1317 C1321 1.429 . S
C1318 C1301 1.574 . S
C1318 H1312 0.949 . S
C1318 C1322 1.368 . S
C1319 C1300 1.429 . S
C1319 C1313 1.429 . S
C1319 C1320 1.523 . S
C1320 C1301 1.368 . S
C1320 C1314 1.368 . S
C1320 C1319 1.523 . S
C1321 C1305 1.429 . S
C1321 C1317 1.429 . S
C1321 C1322 1.523 . S
C1322 C1306 1.368 . S
C1322 C1318 1.368 . S
C1322 C1321 1.523 . S
H1323 C1298 0.950 . S
H1324 C1300 0.950 . S
H1325 C1301 0.949 . S
H1326 C1303 0.950 . S
H1327 C1305 0.950 . S
C1328 C1329 1.349 . S
C1328 C1330 1.327 . S
C1328 H1353 0.950 . S
C1329 C1328 1.349 . S
C1329 C1345 1.349 . S
C1330 C1328 1.327 . S
C1330 C1349 1.429 . S
C1330 H1354 0.950 . S
C1331 C1348 1.574 . S
C1331 C1350 1.368 . S
C1331 H1355 0.949 . S
H1332 C1336 0.949 . S
C1333 C1334 1.349 . S
C1333 C1335 1.327 . S
C1333 H1356 0.950 . S
C1334 C1333 1.349 . S
C1334 C1346 1.349 . S
C1335 C1333 1.327 . S
C1335 C1351 1.429 . S
C1335 H1357 0.950 . S
C1336 H1332 0.949 . S
C1336 C1344 1.574 . S
C1336 C1352 1.368 . S
H1337 C1345 0.950 . S
H1338 C1343 0.950 . S
H1339 C1344 0.949 . S
H1340 C1346 0.950 . S
H1341 C1347 0.950 . S
H1342 C1348 0.949 . S
C1343 H1338 0.950 . S
C1343 C1345 1.327 . S
C1343 C1349 1.429 . S
C1344 C1336 1.574 . S
C1344 H1339 0.949 . S
C1344 C1350 1.368 . S
C1345 C1329 1.349 . S
C1345 H1337 0.950 . S
C1345 C1343 1.327 . S
C1346 C1334 1.349 . S
C1346 H1340 0.950 . S
C1346 C1347 1.327 . S
C1347 H1341 0.950 . S
C1347 C1346 1.327 . S
C1347 C1351 1.429 . S
C1348 C1331 1.574 . S
C1348 H1342 0.949 . S
C1348 C1352 1.368 . S
C1349 C1330 1.429 . S
C1349 C1343 1.429 . S
C1349 C1350 1.523 . S
C1350 C1331 1.368 . S
C1350 C1344 1.368 . S
C1350 C1349 1.523 . S
C1351 C1335 1.429 . S
C1351 C1347 1.429 . S
C1351 C1352 1.523 . S
C1352 C1336 1.368 . S
C1352 C1348 1.368 . S
C1352 C1351 1.523 . S
H1353 C1328 0.950 . S
H1354 C1330 0.950 . S
H1355 C1331 0.949 . S
H1356 C1333 0.950 . S
H1357 C1335 0.950 . S
C1358 C1359 1.349 . S
C1358 C1360 1.327 . S
C1358 H1383 0.950 . S
C1359 C1358 1.349 . S
C1359 C1375 1.349 . S
C1360 C1358 1.327 . S
C1360 C1379 1.429 . S
C1360 H1384 0.950 . S
C1361 C1378 1.574 . S
C1361 C1380 1.368 . S
C1361 H1385 0.949 . S
H1362 C1366 0.949 . S
C1363 C1364 1.349 . S
C1363 C1365 1.327 . S
C1363 H1386 0.950 . S
C1364 C1363 1.349 . S
C1364 C1376 1.349 . S
C1365 C1363 1.327 . S
C1365 C1381 1.429 . S
C1365 H1387 0.950 . S
C1366 H1362 0.949 . S
C1366 C1374 1.574 . S
C1366 C1382 1.368 . S
H1367 C1375 0.950 . S
H1368 C1373 0.950 . S
H1369 C1374 0.949 . S
H1370 C1376 0.950 . S
H1371 C1377 0.950 . S
H1372 C1378 0.949 . S
C1373 H1368 0.950 . S
C1373 C1375 1.327 . S
C1373 C1379 1.429 . S
C1374 C1366 1.574 . S
C1374 H1369 0.949 . S
C1374 C1380 1.368 . S
C1375 C1359 1.349 . S
C1375 H1367 0.950 . S
C1375 C1373 1.327 . S
C1376 C1364 1.349 . S
C1376 H1370 0.950 . S
C1376 C1377 1.327 . S
C1377 H1371 0.950 . S
C1377 C1376 1.327 . S
C1377 C1381 1.429 . S
C1378 C1361 1.574 . S
C1378 H1372 0.949 . S
C1378 C1382 1.368 . S
C1379 C1360 1.429 . S
C1379 C1373 1.429 . S
C1379 C1380 1.523 . S
C1380 C1361 1.368 . S
C1380 C1374 1.368 . S
C1380 C1379 1.523 . S
C1381 C1365 1.429 . S
C1381 C1377 1.429 . S
C1381 C1382 1.523 . S
C1382 C1366 1.368 . S
C1382 C1378 1.368 . S
C1382 C1381 1.523 . S
H1383 C1358 0.950 . S
H1384 C1360 0.950 . S
H1385 C1361 0.949 . S
H1386 C1363 0.950 . S
H1387 C1365 0.950 . S
C1388 C1389 1.349 . S
C1388 C1390 1.327 . S
C1388 H1413 0.950 . S
C1389 C1388 1.349 . S
C1389 C1405 1.349 . S
C1390 C1388 1.327 . S
C1390 C1409 1.429 . S
C1390 H1414 0.950 . S
C1391 C1408 1.574 . S
C1391 C1410 1.368 . S
C1391 H1415 0.949 . S
H1392 C1396 0.949 . S
C1393 C1394 1.349 . S
C1393 C1395 1.327 . S
C1393 H1416 0.950 . S
C1394 C1393 1.349 . S
C1394 C1406 1.349 . S
C1395 C1393 1.327 . S
C1395 C1411 1.429 . S
C1395 H1417 0.950 . S
C1396 H1392 0.949 . S
C1396 C1404 1.574 . S
C1396 C1412 1.368 . S
H1397 C1405 0.950 . S
H1398 C1403 0.950 . S
H1399 C1404 0.949 . S
H1400 C1406 0.950 . S
H1401 C1407 0.950 . S
H1402 C1408 0.949 . S
C1403 H1398 0.950 . S
C1403 C1405 1.327 . S
C1403 C1409 1.429 . S
C1404 C1396 1.574 . S
C1404 H1399 0.949 . S
C1404 C1410 1.368 . S
C1405 C1389 1.349 . S
C1405 H1397 0.950 . S
C1405 C1403 1.327 . S
C1406 C1394 1.349 . S
C1406 H1400 0.950 . S
C1406 C1407 1.327 . S
C1407 H1401 0.950 . S
C1407 C1406 1.327 . S
C1407 C1411 1.429 . S
C1408 C1391 1.574 . S
C1408 H1402 0.949 . S
C1408 C1412 1.368 . S
C1409 C1390 1.429 . S
C1409 C1403 1.429 . S
C1409 C1410 1.523 . S
C1410 C1391 1.368 . S
C1410 C1404 1.368 . S
C1410 C1409 1.523 . S
C1411 C1395 1.429 . S
C1411 C1407 1.429 . S
C1411 C1412 1.523 . S
C1412 C1396 1.368 . S
C1412 C1408 1.368 . S
C1412 C1411 1.523 . S
H1413 C1388 0.950 . S
H1414 C1390 0.950 . S
H1415 C1391 0.949 . S
H1416 C1393 0.950 . S
H1417 C1395 0.950 . S
C1418 C1419 1.349 . S
C1418 C1420 1.327 . S
C1418 H1443 0.950 . S
C1419 C1418 1.349 . S
C1419 C1435 1.349 . S
C1420 C1418 1.327 . S
C1420 C1439 1.429 . S
C1420 H1444 0.950 . S
C1421 C1438 1.574 . S
C1421 C1440 1.368 . S
C1421 H1445 0.949 . S
H1422 C1426 0.949 . S
C1423 C1424 1.349 . S
C1423 C1425 1.327 . S
C1423 H1446 0.950 . S
C1424 C1423 1.349 . S
C1424 C1436 1.349 . S
C1425 C1423 1.327 . S
C1425 C1441 1.429 . S
C1425 H1447 0.950 . S
C1426 H1422 0.949 . S
C1426 C1434 1.574 . S
C1426 C1442 1.368 . S
H1427 C1435 0.950 . S
H1428 C1433 0.950 . S
H1429 C1434 0.949 . S
H1430 C1436 0.950 . S
H1431 C1437 0.950 . S
H1432 C1438 0.949 . S
C1433 H1428 0.950 . S
C1433 C1435 1.327 . S
C1433 C1439 1.429 . S
C1434 C1426 1.574 . S
C1434 H1429 0.949 . S
C1434 C1440 1.368 . S
C1435 C1419 1.349 . S
C1435 H1427 0.950 . S
C1435 C1433 1.327 . S
C1436 C1424 1.349 . S
C1436 H1430 0.950 . S
C1436 C1437 1.327 . S
C1437 H1431 0.950 . S
C1437 C1436 1.327 . S
C1437 C1441 1.429 . S
C1438 C1421 1.574 . S
C1438 H1432 0.949 . S
C1438 C1442 1.368 . S
C1439 C1420 1.429 . S
C1439 C1433 1.429 . S
C1439 C1440 1.523 . S
C1440 C1421 1.368 . S
C1440 C1434 1.368 . S
C1440 C1439 1.523 . S
C1441 C1425 1.429 . S
C1441 C1437 1.429 . S
C1441 C1442 1.523 . S
C1442 C1426 1.368 . S
C1442 C1438 1.368 . S
C1442 C1441 1.523 . S
H1443 C1418 0.950 . S
H1444 C1420 0.950 . S
H1445 C1421 0.949 . S
H1446 C1423 0.950 . S
H1447 C1425 0.950 . S
C1448 C1449 1.349 . S
C1448 C1450 1.327 . S
C1448 H1473 0.950 . S
C1449 C1448 1.349 . S
C1449 C1465 1.349 . S
C1450 C1448 1.327 . S
C1450 C1469 1.429 . S
C1450 H1474 0.950 . S
C1451 C1468 1.574 . S
C1451 C1470 1.368 . S
C1451 H1475 0.949 . S
H1452 C1456 0.949 . S
C1453 C1454 1.349 . S
C1453 C1455 1.327 . S
C1453 H1476 0.950 . S
C1454 C1453 1.349 . S
C1454 C1466 1.349 . S
C1455 C1453 1.327 . S
C1455 C1471 1.429 . S
C1455 H1477 0.950 . S
C1456 H1452 0.949 . S
C1456 C1464 1.574 . S
C1456 C1472 1.368 . S
H1457 C1465 0.950 . S
H1458 C1463 0.950 . S
H1459 C1464 0.949 . S
H1460 C1466 0.950 . S
H1461 C1467 0.950 . S
H1462 C1468 0.949 . S
C1463 H1458 0.950 . S
C1463 C1465 1.327 . S
C1463 C1469 1.429 . S
C1464 C1456 1.574 . S
C1464 H1459 0.949 . S
C1464 C1470 1.368 . S
C1465 C1449 1.349 . S
C1465 H1457 0.950 . S
C1465 C1463 1.327 . S
C1466 C1454 1.349 . S
C1466 H1460 0.950 . S
C1466 C1467 1.327 . S
C1467 H1461 0.950 . S
C1467 C1466 1.327 . S
C1467 C1471 1.429 . S
C1468 C1451 1.574 . S
C1468 H1462 0.949 . S
C1468 C1472 1.368 . S
C1469 C1450 1.429 . S
C1469 C1463 1.429 . S
C1469 C1470 1.523 . S
C1470 C1451 1.368 . S
C1470 C1464 1.368 . S
C1470 C1469 1.523 . S
C1471 C1455 1.429 . S
C1471 C1467 1.429 . S
C1471 C1472 1.523 . S
C1472 C1456 1.368 . S
C1472 C1468 1.368 . S
C1472 C1471 1.523 . S
H1473 C1448 0.950 . S
H1474 C1450 0.950 . S
H1475 C1451 0.949 . S
H1476 C1453 0.950 . S
H1477 C1455 0.950 . S
C1478 C1479 1.349 . S
C1478 C1480 1.327 . S
C1478 H1503 0.950 . S
C1479 C1478 1.349 . S
C1479 C1495 1.349 . S
C1480 C1478 1.327 . S
C1480 C1499 1.429 . S
C1480 H1504 0.950 . S
C1481 C1498 1.574 . S
C1481 C1500 1.368 . S
C1481 H1505 0.949 . S
H1482 C1486 0.949 . S
C1483 C1484 1.349 . S
C1483 C1485 1.327 . S
C1483 H1506 0.950 . S
C1484 C1483 1.349 . S
C1484 C1496 1.349 . S
C1485 C1483 1.327 . S
C1485 C1501 1.429 . S
C1485 H1507 0.950 . S
C1486 H1482 0.949 . S
C1486 C1494 1.574 . S
C1486 C1502 1.368 . S
H1487 C1495 0.950 . S
H1488 C1493 0.950 . S
H1489 C1494 0.949 . S
H1490 C1496 0.950 . S
H1491 C1497 0.950 . S
H1492 C1498 0.949 . S
C1493 H1488 0.950 . S
C1493 C1495 1.327 . S
C1493 C1499 1.429 . S
C1494 C1486 1.574 . S
C1494 H1489 0.949 . S
C1494 C1500 1.368 . S
C1495 C1479 1.349 . S
C1495 H1487 0.950 . S
C1495 C1493 1.327 . S
C1496 C1484 1.349 . S
C1496 H1490 0.950 . S
C1496 C1497 1.327 . S
C1497 H1491 0.950 . S
C1497 C1496 1.327 . S
C1497 C1501 1.429 . S
C1498 C1481 1.574 . S
C1498 H1492 0.949 . S
C1498 C1502 1.368 . S
C1499 C1480 1.429 . S
C1499 C1493 1.429 . S
C1499 C1500 1.523 . S
C1500 C1481 1.368 . S
C1500 C1494 1.368 . S
C1500 C1499 1.523 . S
C1501 C1485 1.429 . S
C1501 C1497 1.429 . S
C1501 C1502 1.523 . S
C1502 C1486 1.368 . S
C1502 C1498 1.368 . S
C1502 C1501 1.523 . S
H1503 C1478 0.950 . S
H1504 C1480 0.950 . S
H1505 C1481 0.949 . S
H1506 C1483 0.950 . S
H1507 C1485 0.950 . S
C1508 C1509 1.349 . S
C1508 C1510 1.327 . S
C1508 H1533 0.950 . S
C1509 C1508 1.349 . S
C1509 C1525 1.349 . S
C1510 C1508 1.327 . S
C1510 C1529 1.429 . S
C1510 H1534 0.950 . S
C1511 C1528 1.574 . S
C1511 C1530 1.368 . S
C1511 H1535 0.949 . S
H1512 C1516 0.949 . S
C1513 C1514 1.349 . S
C1513 C1515 1.327 . S
C1513 H1536 0.950 . S
C1514 C1513 1.349 . S
C1514 C1526 1.349 . S
C1515 C1513 1.327 . S
C1515 C1531 1.429 . S
C1515 H1537 0.950 . S
C1516 H1512 0.949 . S
C1516 C1524 1.574 . S
C1516 C1532 1.368 . S
H1517 C1525 0.950 . S
H1518 C1523 0.950 . S
H1519 C1524 0.949 . S
H1520 C1526 0.950 . S
H1521 C1527 0.950 . S
H1522 C1528 0.949 . S
C1523 H1518 0.950 . S
C1523 C1525 1.327 . S
C1523 C1529 1.429 . S
C1524 C1516 1.574 . S
C1524 H1519 0.949 . S
C1524 C1530 1.368 . S
C1525 C1509 1.349 . S
C1525 H1517 0.950 . S
C1525 C1523 1.327 . S
C1526 C1514 1.349 . S
C1526 H1520 0.950 . S
C1526 C1527 1.327 . S
C1527 H1521 0.950 . S
C1527 C1526 1.327 . S
C1527 C1531 1.429 . S
C1528 C1511 1.574 . S
C1528 H1522 0.949 . S
C1528 C1532 1.368 . S
C1529 C1510 1.429 . S
C1529 C1523 1.429 . S
C1529 C1530 1.523 . S
C1530 C1511 1.368 . S
C1530 C1524 1.368 . S
C1530 C1529 1.523 . S
C1531 C1515 1.429 . S
C1531 C1527 1.429 . S
C1531 C1532 1.523 . S
C1532 C1516 1.368 . S
C1532 C1528 1.368 . S
C1532 C1531 1.523 . S
H1533 C1508 0.950 . S
H1534 C1510 0.950 . S
H1535 C1511 0.949 . S
H1536 C1513 0.950 . S
H1537 C1515 0.950 . S
C1538 C1539 1.349 . S
C1538 C1540 1.327 . S
C1538 H1563 0.950 . S
C1539 C1538 1.349 . S
C1539 C1555 1.349 . S
C1540 C1538 1.327 . S
C1540 C1559 1.429 . S
C1540 H1564 0.950 . S
C1541 C1558 1.574 . S
C1541 C1560 1.368 . S
C1541 H1565 0.949 . S
H1542 C1546 0.949 . S
C1543 C1544 1.349 . S
C1543 C1545 1.327 . S
C1543 H1566 0.950 . S
C1544 C1543 1.349 . S
C1544 C1556 1.349 . S
C1545 C1543 1.327 . S
C1545 C1561 1.429 . S
C1545 H1567 0.950 . S
C1546 H1542 0.949 . S
C1546 C1554 1.574 . S
C1546 C1562 1.368 . S
H1547 C1555 0.950 . S
H1548 C1553 0.950 . S
H1549 C1554 0.949 . S
H1550 C1556 0.950 . S
H1551 C1557 0.950 . S
H1552 C1558 0.949 . S
C1553 H1548 0.950 . S
C1553 C1555 1.327 . S
C1553 C1559 1.429 . S
C1554 C1546 1.574 . S
C1554 H1549 0.949 . S
C1554 C1560 1.368 . S
C1555 C1539 1.349 . S
C1555 H1547 0.950 . S
C1555 C1553 1.327 . S
C1556 C1544 1.349 . S
C1556 H1550 0.950 . S
C1556 C1557 1.327 . S
C1557 H1551 0.950 . S
C1557 C1556 1.327 . S
C1557 C1561 1.429 . S
C1558 C1541 1.574 . S
C1558 H1552 0.949 . S
C1558 C1562 1.368 . S
C1559 C1540 1.429 . S
C1559 C1553 1.429 . S
C1559 C1560 1.523 . S
C1560 C1541 1.368 . S
C1560 C1554 1.368 . S
C1560 C1559 1.523 . S
C1561 C1545 1.429 . S
C1561 C1557 1.429 . S
C1561 C1562 1.523 . S
C1562 C1546 1.368 . S
C1562 C1558 1.368 . S
C1562 C1561 1.523 . S
H1563 C1538 0.950 . S
H1564 C1540 0.950 . S
H1565 C1541 0.949 . S
H1566 C1543 0.950 . S
H1567 C1545 0.950 . S
C614 C517 1.328 . S
C609 C35 1.218 . S
C644 C537 1.278 . S
C639 C115 1.217 . S
C674 C551 1.312 . S
C669 C177 1.250 . S
C699 C221 1.316 . S
C704 C509 1.397 . S
C729 C283 1.388 . S
C734 C503 1.547 . S
C759 C363 1.354 . S
C764 C523 1.433 . S
C794 C531 1.369 . S
C789 C407 1.257 . S
C824 C545 1.493 . S
C819 C469 1.349 . S
C849 C159 1.349 . S
C854 C573 1.493 . S
C884 C587 1.370 . S
C879 C239 1.265 . S
C909 C53 1.354 . S
C914 C607 1.433 . S
C944 C559 1.546 . S
C939 C97 1.387 . S
C969 C425 1.324 . S
C974 C565 1.397 . S
C999 C487 1.250 . S
C1004 C579 1.312 . S
C1034 C593 1.277 1_556 S
C1029 C301 1.217 . S
C1059 C345 1.218 . S
C1064 C601 1.327 . S
C1094 C532 1.873 . S
C1089 C29 1.857 . S
C1124 C546 1.866 . S
C1119 C109 1.807 . S
C1149 C171 1.728 . S
C1154 C504 1.786 . S
C1179 C215 1.557 . S
C1184 C521 1.593 . S
C1209 C277 1.493 . S
C1214 C549 1.522 . S
C1244 C507 1.499 . S
C1239 C357 1.444 . S
C1274 C518 1.775 . S
C1269 C401 1.759 . S
C1304 C535 1.597 . S
C1299 C463 1.568 . S
C1334 C591 1.596 . S
C1329 C153 1.568 . S
C1364 C602 1.775 . S
C1359 C233 1.733 . S
C1389 C47 1.444 . S
C1394 C563 1.499 . S
C1424 C577 1.522 . S
C1419 C91 1.492 . S
C1454 C605 1.593 . S
C1449 C419 1.531 . S
C1479 C481 1.729 . S
C1484 C560 1.787 . S
C1514 C574 1.866 . S
C1509 C295 1.807 . S
C1544 C588 1.873 . S
C1539 C339 1.857 . S
