# Generated by pormake.
# Topology anh, (6,3)-cn, num edge types: 1
# Building blocks:
#     Node 0, Type 0, BuildingBlock: INOVEN_clean_sbu_0, # of connection points: 6
#     Node 1, Type 0, BuildingBlock: INOVEN_clean_sbu_0, # of connection points: 6
#     Node 2, Type 0, BuildingBlock: INOVEN_clean_sbu_0, # of connection points: 6
#     Node 3, Type 1, BuildingBlock: ESEHIV_clean_linker_0, # of connection points: 3
#     Node 4, Type 1, BuildingBlock: ESEHIV_clean_linker_0, # of connection points: 3
#     Node 5, Type 1, BuildingBlock: ESEHIV_clean_linker_0, # of connection points: 3
#     Node 6, Type 1, BuildingBlock: ESEHIV_clean_linker_0, # of connection points: 3
#     Node 7, Type 1, BuildingBlock: ESEHIV_clean_linker_0, # of connection points: 3
#     Node 8, Type 1, BuildingBlock: ESEHIV_clean_linker_0, # of connection points: 3
#     Edge 9, Type (0, 1), BuildingBlock: TEMPAE_clean_linker_10, # of connection points: 2
#     Edge 10, Type (0, 1), BuildingBlock: TEMPAE_clean_linker_10, # of connection points: 2
#     Edge 11, Type (0, 1), BuildingBlock: TEMPAE_clean_linker_10, # of connection points: 2
#     Edge 12, Type (0, 1), BuildingBlock: TEMPAE_clean_linker_10, # of connection points: 2
#     Edge 13, Type (0, 1), BuildingBlock: TEMPAE_clean_linker_10, # of connection points: 2
#     Edge 14, Type (0, 1), BuildingBlock: TEMPAE_clean_linker_10, # of connection points: 2
#     Edge 15, Type (0, 1), BuildingBlock: TEMPAE_clean_linker_10, # of connection points: 2
#     Edge 16, Type (0, 1), BuildingBlock: TEMPAE_clean_linker_10, # of connection points: 2
#     Edge 17, Type (0, 1), BuildingBlock: TEMPAE_clean_linker_10, # of connection points: 2
#     Edge 18, Type (0, 1), BuildingBlock: TEMPAE_clean_linker_10, # of connection points: 2
#     Edge 19, Type (0, 1), BuildingBlock: TEMPAE_clean_linker_10, # of connection points: 2
#     Edge 20, Type (0, 1), BuildingBlock: TEMPAE_clean_linker_10, # of connection points: 2
#     Edge 21, Type (0, 1), BuildingBlock: TEMPAE_clean_linker_10, # of connection points: 2
#     Edge 22, Type (0, 1), BuildingBlock: TEMPAE_clean_linker_10, # of connection points: 2
#     Edge 23, Type (0, 1), BuildingBlock: TEMPAE_clean_linker_10, # of connection points: 2
#     Edge 24, Type (0, 1), BuildingBlock: TEMPAE_clean_linker_10, # of connection points: 2
#     Edge 25, Type (0, 1), BuildingBlock: TEMPAE_clean_linker_10, # of connection points: 2
#     Edge 26, Type (0, 1), BuildingBlock: TEMPAE_clean_linker_10, # of connection points: 2
# Relax obj value: 0.210
# Max RMSD: 0.229
# Mean RMSD: 0.166
data_MOF--net-anh--node1-INOVEN_clean_sbu_0--node2-ESEHIV_clean_linker_0--edge1-TEMPAE_clean_linker_10
_symmetry_space_group_name_H-M    P1
_symmetry_Int_Tables_number       1
_symmetry_cell_setting            triclinic
loop_
_symmetry_equiv_pos_as_xyz
'x, y, z'
_cell_length_a     30.957102
_cell_length_b     35.726271
_cell_length_c     52.43042
_cell_angle_alpha  92.722505
_cell_angle_beta   89.657153
_cell_angle_gamma 130.55571
loop_
_atom_site_label
_atom_site_type_symbol
_atom_site_fract_x
_atom_site_fract_y
_atom_site_fract_z
_atom_type_partial_charge
Gd0 Gd 0.13837 0.55155 0.14201 0.0
Gd1 Gd 0.06981 0.5794 0.15739 0.0
C2 C 0.20145 0.66914 0.15195 0.0
C3 C 0.20383 0.53925 0.12055 0.0
C4 C 0.20625 0.4997 0.11774 0.0
C5 C 0.15694 0.44989 0.11854 0.0
C6 C 0.2591 0.51221 0.1148 0.0
C7 C 0.21356 0.4253 0.11251 0.0
C8 C 0.26281 0.4754 0.1123 0.0
C9 C 0.16057 0.41287 0.11589 0.0
C10 C 0.12102 0.54884 0.19245 0.0
C11 C 1.00666 0.46072 0.14939 0.0
C12 C 0.99746 0.58133 0.18053 0.0
C13 C 0.93541 0.54279 0.18264 0.0
C14 C 0.90036 0.55389 0.17811 0.0
C15 C 0.9104 0.4936 0.18615 0.0
C16 C 0.81683 0.46654 0.17712 0.0
C17 C 0.85164 0.45575 0.18318 0.0
C18 C 0.84143 0.51606 0.1755 0.0
C19 C 0.08482 0.57973 0.10641 0.0
O20 O 0.2007 0.63579 0.13901 0.0
O21 O 0.15591 0.65516 0.16415 0.0
O22 O 0.16182 0.5318 0.10836 0.0
O23 O 0.21345 0.55897 0.1437 0.0
O24 O 0.12168 0.51727 0.17964 0.0
O25 O 0.13268 0.58179 0.1783 0.0
O26 O 1.0033 0.49501 0.15599 0.0
O27 O 0.05506 0.47292 0.14191 0.0
O28 O 1.01489 0.59729 0.15764 0.0
O29 O 1.02841 0.57389 0.19214 0.0
O30 O 0.08455 0.61176 0.11906 0.0
O31 O 0.07435 0.54784 0.1211 0.0
H32 H 0.11576 0.43967 0.12109 0.0
H33 H 0.29758 0.55053 0.1145 0.0
H34 H 0.30441 0.48623 0.11032 0.0
H35 H 0.12194 0.37463 0.11607 0.0
H36 H 0.91875 0.5915 0.17532 0.0
H37 H 0.93627 0.48395 0.19009 0.0
H38 H 0.83363 0.41789 0.18462 0.0
H39 H 0.81552 0.52529 0.17055 0.0
Gd40 Gd 0.64138 0.04971 0.47125 0.0
Gd41 Gd 0.572 0.07804 0.465 0.0
C42 C 0.50368 0.96308 0.46305 0.0
C43 C 0.68741 0.01318 0.48444 0.0
C44 C 0.67202 0.96702 0.49232 0.0
C45 C 0.71556 0.96613 0.49766 0.0
C46 C 0.61507 0.92371 0.49376 0.0
C47 C 0.64573 0.87868 0.50543 0.0
C48 C 0.60199 0.87983 0.50036 0.0
C49 C 0.70263 0.92246 0.50417 0.0
C50 C 0.63344 0.06706 0.42266 0.0
C51 C 0.71196 0.16591 0.46973 0.0
C52 C 0.53003 0.11837 0.45297 0.0
C53 C 0.53981 0.16258 0.46317 0.0
C54 C 0.55565 0.17859 0.48901 0.0
C55 C 0.53401 0.18944 0.44709 0.0
C56 C 0.55769 0.2468 0.4828 0.0
C57 C 0.5431 0.23137 0.4568 0.0
C58 C 0.56415 0.22009 0.49876 0.0
C59 C 0.58198 0.06345 0.51412 0.0
O60 O 0.55022 0.97665 0.47471 0.0
O61 O 0.5048 0.99689 0.45287 0.0
O62 O 0.67398 0.01302 0.46086 0.0
O63 O 0.67825 0.03621 0.50061 0.0
O64 O 0.67946 0.08031 0.43337 0.0
O65 O 0.59278 0.0436 0.43777 0.0
O66 O 0.66185 0.15345 0.46517 0.0
O67 O 0.71559 0.13202 0.4746 0.0
O68 O 0.50544 0.08209 0.46825 0.0
O69 O 0.57245 0.12639 0.44112 0.0
O70 O 0.5365 0.05176 0.50384 0.0
O71 O 0.62162 0.08527 0.49845 0.0
H72 H 0.75975 0.99926 0.49666 0.0
H73 H 0.58088 0.92372 0.48958 0.0
H74 H 0.55776 0.84669 0.50106 0.0
H75 H 0.7373 0.9231 0.50843 0.0
H76 H 0.56127 0.15888 0.50171 0.0
H77 H 0.5222 0.17785 0.42707 0.0
H78 H 0.53767 0.25118 0.4441 0.0
H79 H 0.5762 0.23155 0.51878 0.0
Gd80 Gd 0.59964 0.57951 0.85147 0.0
Gd81 Gd 0.51782 0.47106 0.84349 0.0
C82 C 0.45618 0.52145 0.84976 0.0
C83 C 0.65614 0.67214 0.84379 0.0
C84 C 0.64571 0.70568 0.83737 0.0
C85 C 0.69161 0.75663 0.83774 0.0
C86 C 0.59168 0.68756 0.82919 0.0
C87 C 0.63033 0.77101 0.82087 0.0
C88 C 0.584 0.7199 0.82114 0.0
C89 C 0.68408 0.78892 0.82959 0.0
C90 C 0.56643 0.53087 0.89447 0.0
C91 C 0.66169 0.52957 0.84978 0.0
C92 C 0.46446 0.37762 0.84559 0.0
C93 C 0.47644 0.34448 0.83858 0.0
C94 C 0.43286 0.29702 0.82762 0.0
C95 C 0.53105 0.35989 0.84198 0.0
C96 C 0.49855 0.28127 0.8228 0.0
C97 C 0.54203 0.32876 0.83414 0.0
C98 C 0.44366 0.26574 0.8199 0.0
C99 C 0.54901 0.51858 0.80007 0.0
O100 O 0.51112 0.56359 0.84899 0.0
O101 O 0.44782 0.47929 0.84972 0.0
O102 O 0.6426 0.65454 0.86652 0.0
O103 O 0.64267 0.63912 0.82583 0.0
O104 O 0.61843 0.57133 0.89148 0.0
O105 O 0.53511 0.52027 0.8754 0.0
O106 O 0.60666 0.4875 0.84684 0.0
O107 O 0.67052 0.57191 0.85153 0.0
O108 O 0.45792 0.39615 0.82661 0.0
O109 O 0.49414 0.40986 0.86485 0.0
O110 O 0.49757 0.47913 0.80424 0.0
O111 O 0.58195 0.52991 0.81868 0.0
H112 H 0.7337 0.77145 0.84389 0.0
H113 H 0.55568 0.64836 0.82846 0.0
H114 H 0.54212 0.70466 0.81436 0.0
H115 H 0.72056 0.82802 0.83002 0.0
H116 H 0.39034 0.28417 0.82489 0.0
H117 H 0.56544 0.39616 0.8505 0.0
H118 H 0.58497 0.34241 0.83647 0.0
H119 H 0.40879 0.22924 0.81171 0.0
H120 H 0.53343 0.99353 0.22619 0.0
H121 H 0.68397 0.14539 0.22985 0.0
H122 H 0.60675 0.06799 0.15628 0.0
C123 C 0.56631 0.02637 0.21636 0.0
C124 C 0.56517 0.02433 0.18951 0.0
C125 C 0.60846 0.06975 0.23087 0.0
C126 C 0.65026 0.11266 0.21835 0.0
C127 C 0.65046 0.11375 0.19145 0.0
C128 C 0.60736 0.06866 0.17694 0.0
H129 H 0.60701 0.62328 0.6119 0.0
H130 H 0.61346 0.50645 0.60521 0.0
H131 H 0.60685 0.56648 0.53774 0.0
C132 C 0.60928 0.59872 0.6003 0.0
C133 C 0.60868 0.60012 0.57356 0.0
C134 C 0.61103 0.56517 0.6121 0.0
C135 C 0.61168 0.53236 0.59654 0.0
C136 C 0.6089 0.53185 0.56975 0.0
C137 C 0.60745 0.56588 0.55838 0.0
H138 H 1.00433 0.5462 0.90945 0.0
H139 H 0.13857 0.54174 0.91054 0.0
H140 H 0.05309 0.51713 0.83818 0.0
C141 C 1.02941 0.5402 0.89855 0.0
C142 C 1.01883 0.53017 0.87196 0.0
C143 C 0.07083 0.54323 0.91209 0.0
C144 C 0.1072 0.53852 0.8991 0.0
C145 C 0.10449 0.52904 0.87243 0.0
C146 C 0.05872 0.52526 0.85861 0.0
H147 H 1.02778 0.48114 0.38681 0.0
H148 H 0.18027 0.63186 0.38914 0.0
H149 H 0.10369 0.56224 0.4598 0.0
C150 C 0.05977 0.51496 0.39808 0.0
C151 C 0.05741 0.51593 0.42501 0.0
C152 C 0.10347 0.55638 0.38515 0.0
C153 C 0.14724 0.5996 0.39929 0.0
C154 C 0.14936 0.60248 0.42614 0.0
C155 C 0.10342 0.56041 0.43912 0.0
H156 H 0.58241 0.0945 0.7104 0.0
H157 H 0.60809 0.98974 0.70705 0.0
H158 H 0.57699 0.03079 0.77904 0.0
C159 C 0.58669 0.07072 0.71987 0.0
C160 C 0.58075 0.06747 0.74647 0.0
C161 C 0.59614 0.04267 0.70531 0.0
C162 C 0.59899 0.01033 0.71791 0.0
C163 C 0.5916 1.00514 0.74449 0.0
C164 C 0.58258 0.03412 0.75862 0.0
H165 H 0.34586 0.28648 0.04068 0.0
H166 H 0.507 0.32178 0.04321 0.0
H167 H 0.40041 0.26258 0.10842 0.0
C168 C 0.37526 0.28459 0.05031 0.0
C169 C 0.36512 0.26894 0.07537 0.0
C170 C 0.42663 0.30431 0.0388 0.0
C171 C 0.46656 0.30509 0.05183 0.0
C172 C 0.458 0.2909 0.07718 0.0
C173 C 0.40628 0.27126 0.08851 0.0
C174 C 0.18836 0.34574 0.12407 0.0
C175 C 0.21825 0.38667 0.10888 0.0
C176 C 0.19706 0.3117 0.12207 0.0
C177 C 0.23725 0.3195 0.10482 0.0
C178 C 0.26543 0.35952 0.08862 0.0
C179 C 0.25511 0.3922 0.09071 0.0
C180 C 0.16517 0.26901 0.13927 0.0
C181 C 0.30854 0.36928 0.06978 0.0
C182 C 0.33601 0.29465 0.1116 0.0
C183 C 0.32028 0.26428 0.08942 0.0
C184 C 0.30375 0.30758 0.11946 0.0
C185 C 0.25483 0.28954 0.10475 0.0
C186 C 0.23358 0.25221 0.08519 0.0
C187 C 0.26691 0.24014 0.07757 0.0
C188 C 0.32703 0.34643 0.14097 0.0
C189 C 0.17982 0.23011 0.07002 0.0
H190 H 0.15971 0.34122 0.13815 0.0
H191 H 0.27701 0.42295 0.07842 0.0
H192 H 0.15716 0.23623 0.13018 0.0
H193 H 0.19077 0.28006 0.15716 0.0
H194 H 0.12384 0.25847 0.14454 0.0
H195 H 0.32594 0.40162 0.05839 0.0
H196 H 0.34453 0.37618 0.0801 0.0
H197 H 0.28887 0.33658 0.05639 0.0
H198 H 0.377 0.31326 0.12102 0.0
H199 H 0.25398 0.21568 0.06077 0.0
H200 H 0.29233 0.33775 0.15305 0.0
H201 H 0.34807 0.38265 0.13284 0.0
H202 H 0.3588 0.34997 0.15323 0.0
H203 H 0.1474 0.22496 0.08248 0.0
H204 H 0.16173 0.19404 0.06035 0.0
H205 H 0.18948 0.2555 0.05515 0.0
C206 C 0.76754 0.25797 0.47685 0.0
C207 C 0.76524 0.21896 0.46789 0.0
C208 C 0.81632 0.30797 0.47383 0.0
C209 C 0.86351 0.31988 0.46034 0.0
C210 C 0.86132 0.28044 0.45137 0.0
C211 C 0.81307 0.23092 0.4557 0.0
C212 C 0.81682 0.34807 0.48478 0.0
C213 C 0.90886 0.29034 0.436 0.0
C214 C 0.95288 0.43879 0.42389 0.0
C215 C 1.00646 0.46918 0.43691 0.0
C216 C 0.90693 0.3909 0.43127 0.0
C217 C 0.91222 0.3726 0.45335 0.0
C218 C 0.96448 0.40433 0.46789 0.0
C219 C 1.01101 0.45167 0.45936 0.0
C220 C 0.85324 0.35903 0.41462 0.0
C221 C 0.97175 0.38787 0.49223 0.0
H222 H 0.73107 0.24938 0.48638 0.0
H223 H 0.81167 0.20123 0.4484 0.0
H224 H 0.8582 0.37792 0.4948 0.0
H225 H 0.81144 0.36468 0.46914 0.0
H226 H 0.78211 0.33373 0.49837 0.0
H227 H 0.90154 0.25608 0.43071 0.0
H228 H 0.91306 0.30805 0.41824 0.0
H229 H 0.94986 0.31634 0.44696 0.0
H230 H 0.94706 0.45191 0.40715 0.0
H231 H 0.05142 0.47418 0.46988 0.0
H232 H 0.81663 0.34889 0.42565 0.0
H233 H 0.84376 0.32422 0.40824 0.0
H234 H 0.85652 0.37774 0.39746 0.0
H235 H 0.93436 0.37152 0.50435 0.0
H236 H 1.0108 0.41883 0.50336 0.0
H237 H 0.97458 0.35892 0.48762 0.0
C238 C 0.66417 0.84291 0.79497 0.0
C239 C 0.62325 0.80538 0.81079 0.0
C240 C 0.65808 0.87521 0.78501 0.0
C241 C 0.60993 0.87027 0.79099 0.0
C242 C 0.56858 0.83267 0.80706 0.0
C243 C 0.57561 0.80065 0.81667 0.0
C244 C 0.70295 0.91432 0.76776 0.0
C245 C 0.51682 0.82622 0.81408 0.0
C246 C 0.62147 0.98193 0.78118 0.0
C247 C 0.59379 0.96961 0.75722 0.0
C248 C 0.62594 0.9496 0.79264 0.0
C249 C 0.60244 0.90376 0.77988 0.0
C250 C 0.57352 0.89071 0.75596 0.0
C251 C 0.56937 0.92354 0.74502 0.0
C252 C 0.65694 0.96499 0.8182 0.0
C253 C 0.54774 0.84231 0.74163 0.0
H254 H 0.70068 0.8465 0.78994 0.0
H255 H 0.54401 0.77218 0.82905 0.0
H256 H 0.68355 0.90865 0.74869 0.0
H257 H 0.72086 0.95139 0.77571 0.0
H258 H 0.73831 0.91391 0.76526 0.0
H259 H 0.48907 0.79585 0.82712 0.0
H260 H 0.53009 0.86094 0.82347 0.0
H261 H 0.49152 0.81822 0.79657 0.0
H262 H 0.64102 0.01748 0.79073 0.0
H263 H 0.54688 0.91302 0.72678 0.0
H264 H 0.69551 0.96911 0.81612 0.0
H265 H 0.62953 0.93608 0.83195 0.0
H266 H 0.67 1.00044 0.82634 0.0
H267 H 0.58156 0.84069 0.73705 0.0
H268 H 0.52538 0.83701 0.72355 0.0
H269 H 0.51708 0.81112 0.75375 0.0
C270 C 0.74315 0.39169 0.14955 0.0
C271 C 0.75666 0.42655 0.16893 0.0
C272 C 0.68929 0.36046 0.13731 0.0
C273 C 0.64817 0.36417 0.14479 0.0
C274 C 0.65982 0.39587 0.16601 0.0
C275 C 0.71429 0.42712 0.17773 0.0
C276 C 0.67847 0.32749 0.11456 0.0
C277 C 0.6167 0.40029 0.17477 0.0
C278 C 0.55976 0.35442 0.09132 0.0
C279 C 0.50714 0.3069 0.09343 0.0
C280 C 0.60579 0.37291 0.10777 0.0
C281 C 0.59903 0.34352 0.12724 0.0
C282 C 0.54629 0.29539 0.12954 0.0
C283 C 0.50081 0.27754 0.11253 0.0
C284 C 0.66149 0.42442 0.10453 0.0
C285 C 0.53767 0.26333 0.15022 0.0
H286 H 0.77611 0.39167 0.14254 0.0
H287 H 0.72465 0.45377 0.19289 0.0
H288 H 0.63614 0.29021 0.1155 0.0
H289 H 0.67858 0.3432 0.09677 0.0
H290 H 0.71125 0.32376 0.11318 0.0
H291 H 0.62778 0.41877 0.19417 0.0
H292 H 0.61501 0.42238 0.1613 0.0
H293 H 0.57359 0.36344 0.17488 0.0
H294 H 0.56466 0.37813 0.07726 0.0
H295 H 0.46015 0.2409 0.11433 0.0
H296 H 0.69635 0.42346 0.10189 0.0
H297 H 0.67238 0.44825 0.12196 0.0
H298 H 0.66002 0.44176 0.0879 0.0
H299 H 0.57063 0.25971 0.14945 0.0
H300 H 0.49502 0.22587 0.14861 0.0
H301 H 0.54241 0.28091 0.16922 0.0
C302 C 0.44234 0.8752 0.47729 0.0
C303 C 0.45027 0.90937 0.46104 0.0
C304 C 0.39271 0.82459 0.4754 0.0
C305 C 0.34978 0.80667 0.45637 0.0
C306 C 0.35749 0.84111 0.44001 0.0
C307 C 0.4069 0.8917 0.44272 0.0
C308 C 0.3865 0.79012 0.4937 0.0
C309 C 0.31415 0.82426 0.41903 0.0
C310 C 0.25546 0.67207 0.42966 0.0
C311 C 0.20129 0.65059 0.43891 0.0
C312 C 0.30374 0.72184 0.43571 0.0
C313 C 0.29922 0.75175 0.45215 0.0
C314 C 0.24562 0.72941 0.46314 0.0
C315 C 0.19735 0.67943 0.45626 0.0
C316 C 0.35901 0.74317 0.42315 0.0
C317 C 0.23863 0.75896 0.48134 0.0
H318 H 0.47494 0.88808 0.49171 0.0
H319 H 0.41219 0.91732 0.42996 0.0
H320 H 0.34494 0.76913 0.50307 0.0
H321 H 0.3871 0.76286 0.4831 0.0
H322 H 0.42103 0.81007 0.50869 0.0
H323 H 0.32547 0.85538 0.40818 0.0
H324 H 0.31048 0.79737 0.40552 0.0
H325 H 0.27171 0.8051 0.42719 0.0
H326 H 0.25944 0.65036 0.41635 0.0
H327 H 0.15604 0.66382 0.46342 0.0
H328 H 0.3939 0.7608 0.43775 0.0
H329 H 0.37062 0.77224 0.41041 0.0
H330 H 0.35639 0.71478 0.41165 0.0
H331 H 0.27357 0.77973 0.49611 0.0
H332 H 0.19725 0.73519 0.49095 0.0
H333 H 0.24098 0.78634 0.47073 0.0
C334 C 0.48494 0.21923 0.79068 0.0
C335 C 0.51053 0.24851 0.81356 0.0
C336 C 0.49638 0.18891 0.78143 0.0
C337 C 0.53473 0.18781 0.79522 0.0
C338 C 0.56046 0.21693 0.81841 0.0
C339 C 0.54802 0.24678 0.8273 0.0
C340 C 0.46809 0.15867 0.75659 0.0
C341 C 0.60167 0.217 0.83369 0.0
C342 C 0.52888 0.07905 0.77879 0.0
C343 C 0.5721 0.09905 0.76106 0.0
C344 C 0.51713 0.10777 0.79059 0.0
C345 C 0.54959 0.15779 0.78468 0.0
C346 C 0.59466 0.17859 0.76755 0.0
C347 C 0.60525 0.14905 0.75597 0.0
C348 C 0.46865 0.08408 0.80869 0.0
C349 C 0.6308 0.23178 0.76085 0.0
H350 H 0.45671 0.22073 0.77961 0.0
H351 H 0.56751 0.2686 0.84516 0.0
H352 H 0.50082 0.17089 0.74223 0.0
H353 H 0.44514 0.1192 0.75943 0.0
H354 H 0.43746 0.1619 0.74872 0.0
H355 H 0.61696 0.24063 0.85166 0.0
H356 H 0.5812 0.17887 0.83854 0.0
H357 H 0.63899 0.23054 0.8221 0.0
H358 H 0.50283 0.04043 0.78271 0.0
H359 H 0.63928 0.16501 0.74258 0.0
H360 H 0.43475 0.08275 0.8004 0.0
H361 H 0.4834 0.10643 0.82705 0.0
H362 H 0.44997 0.04594 0.81264 0.0
H363 H 0.60406 0.2374 0.75086 0.0
H364 H 0.66622 0.24314 0.74836 0.0
H365 H 0.64896 0.25642 0.77848 0.0
C366 C 0.59111 0.80202 0.53006 0.0
C367 C 0.6328 0.83244 0.51234 0.0
C368 C 0.58254 0.76092 0.53852 0.0
C369 C 0.61644 0.75003 0.52902 0.0
C370 C 0.65674 0.77929 0.51026 0.0
C371 C 0.66438 0.82007 0.50215 0.0
C372 C 0.53904 0.73054 0.55849 0.0
C373 C 0.6935 0.76878 0.49952 0.0
C374 C 0.64718 0.68693 0.57214 0.0
C375 C 0.61035 0.63812 0.56177 0.0
C376 C 0.64916 0.72342 0.56173 0.0
C377 C 0.61356 0.711 0.54032 0.0
C378 C 0.57641 0.66187 0.52963 0.0
C379 C 0.5753 0.62598 0.54047 0.0
C380 C 0.68969 0.77543 0.57361 0.0
C381 C 0.5378 0.64724 0.50681 0.0
H382 H 0.56674 0.81146 0.53811 0.0
H383 H 0.69586 0.84284 0.48806 0.0
H384 H 0.51084 0.6907 0.55254 0.0
H385 H 0.56101 0.73596 0.57671 0.0
H386 H 0.51238 0.74078 0.56207 0.0
H387 H 0.71941 0.79245 0.48358 0.0
H388 H 0.72267 0.77526 0.51481 0.0
H389 H 0.66678 0.72955 0.49253 0.0
H390 H 0.67506 0.69677 0.58833 0.0
H391 H 0.54638 0.58824 0.5325 0.0
H392 H 0.66583 0.78747 0.57974 0.0
H393 H 0.72037 0.80111 0.55929 0.0
H394 H 0.71395 0.77886 0.59042 0.0
H395 H 0.50923 0.65508 0.51136 0.0
H396 H 0.51135 0.60751 0.50079 0.0
H397 H 0.56345 0.66947 0.49048 0.0
C398 C 0.70853 0.4865 0.84464 0.0
C399 C 0.71412 0.52897 0.85103 0.0
C400 C 0.75517 0.48534 0.8455 0.0
C401 C 0.81318 0.52744 0.85373 0.0
C402 C 0.8189 0.57038 0.86046 0.0
C403 C 0.77169 0.57074 0.8587 0.0
C404 C 0.74048 0.43729 0.83699 0.0
C405 C 0.87577 0.61758 0.87007 0.0
C406 C 0.91295 0.497 0.87721 0.0
C407 C 0.96384 0.52415 0.86267 0.0
C408 C 0.86662 0.498 0.87471 0.0
C409 C 0.86535 0.526 0.85624 0.0
C410 C 0.91569 0.55253 0.84073 0.0
C411 C 0.9627 0.552 0.84428 0.0
C412 C 0.81908 0.46892 0.89316 0.0
C413 C 0.92161 0.58303 0.81993 0.0
H414 H 0.66666 0.45294 0.83839 0.0
H415 H 0.78043 0.60484 0.86393 0.0
H416 H 0.77845 0.44175 0.83209 0.0
H417 H 0.71814 0.41134 0.85251 0.0
H418 H 0.71069 0.42003 0.82009 0.0
H419 H 0.87051 0.63892 0.8838 0.0
H420 H 0.90191 0.61077 0.87951 0.0
H421 H 0.89923 0.64078 0.85368 0.0
H422 H 0.90972 0.47507 0.89193 0.0
H423 H 0.99978 0.57511 0.83272 0.0
H424 H 0.78735 0.43018 0.88538 0.0
H425 H 0.79739 0.48399 0.89649 0.0
H426 H 0.83518 0.46829 0.91187 0.0
H427 H 0.8802 0.57181 0.81383 0.0
H428 H 0.94133 0.58019 0.80303 0.0
H429 H 0.95042 0.62237 0.82696 0.0
C430 C 0.29916 0.74116 0.13636 0.0
C431 C 0.25498 0.72281 0.15349 0.0
C432 C 0.35039 0.79108 0.1383 0.0
C433 C 0.35899 0.8239 0.15824 0.0
C434 C 0.31422 0.80566 0.17539 0.0
C435 C 0.263 0.75592 0.17267 0.0
C436 C 0.39583 0.8085 0.11917 0.0
C437 C 0.32111 0.83837 0.19726 0.0
C438 C 0.50963 0.93277 0.18449 0.0
C439 C 0.51884 0.97438 0.17626 0.0
C440 C 0.4591 0.88417 0.17812 0.0
C441 C 0.41599 0.87584 0.16254 0.0
C442 C 0.42659 0.91751 0.15263 0.0
C443 C 0.4775 0.96612 0.15972 0.0
C444 C 0.45053 0.84176 0.18947 0.0
C445 C 0.38292 0.91088 0.13546 0.0
H446 H 0.29376 0.71641 0.12132 0.0
H447 H 0.22968 0.74258 0.18615 0.0
H448 H 0.4099 0.8428 0.11093 0.0
H449 H 0.43353 0.81741 0.12886 0.0
H450 H 0.38087 0.7803 0.10338 0.0
H451 H 0.28204 0.81943 0.20852 0.0
H452 H 0.35679 0.85032 0.21023 0.0
H453 H 0.33196 0.87212 0.18995 0.0
H454 H 0.54106 0.93843 0.19728 0.0
H455 H 0.48343 0.99763 0.15343 0.0
H456 H 0.43921 0.81383 0.17423 0.0
H457 H 0.41465 0.82333 0.2027 0.0
H458 H 0.48901 0.85397 0.20018 0.0
H459 H 0.36742 0.88175 0.12017 0.0
H460 H 0.40019 0.94559 0.12651 0.0
H461 H 0.34574 0.89875 0.14674 0.0
C462 C 0.53971 0.28708 0.51631 0.0
C463 C 0.56549 0.29019 0.4935 0.0
C464 C 0.54755 0.32788 0.52712 0.0
C465 C 0.58256 0.37317 0.51499 0.0
C466 C 0.60838 0.37647 0.49183 0.0
C467 C 0.59923 0.3348 0.48126 0.0
C468 C 0.51864 0.3226 0.55167 0.0
C469 C 0.64649 0.42422 0.47849 0.0
C470 C 0.56342 0.4654 0.53461 0.0
C471 C 0.60586 0.49457 0.55386 0.0
C472 C 0.55635 0.42662 0.52122 0.0
C473 C 0.59302 0.41718 0.52705 0.0
C474 C 0.63748 0.44792 0.54571 0.0
C475 C 0.64315 0.48604 0.55899 0.0
C476 C 0.50815 0.39446 0.50163 0.0
C477 C 0.67798 0.43956 0.55224 0.0
H478 H 0.513 0.25247 0.52564 0.0
H479 H 0.61957 0.33742 0.46373 0.0
H480 H 0.55107 0.34808 0.56695 0.0
H481 H 0.49209 0.33293 0.54905 0.0
H482 H 0.49122 0.28441 0.5582 0.0
H483 H 0.66224 0.42039 0.46031 0.0
H484 H 0.62328 0.4373 0.47432 0.0
H485 H 0.68361 0.45313 0.49119 0.0
H486 H 0.53425 0.47166 0.53074 0.0
H487 H 0.67643 0.50892 0.57365 0.0
H488 H 0.47676 0.35657 0.50834 0.0
H489 H 0.52423 0.39168 0.4833 0.0
H490 H 0.48594 0.40873 0.49804 0.0
H491 H 0.65445 0.40363 0.5611 0.0
H492 H 0.71294 0.46905 0.56569 0.0
H493 H 0.69684 0.43784 0.53464 0.0
C494 C 0.3448 0.47909 0.84695 0.0
C495 C 0.40362 0.52188 0.8511 0.0
C496 C 0.29718 0.47898 0.84778 0.0
C497 C 0.3039 0.52263 0.85396 0.0
C498 C 0.36341 0.56597 0.85842 0.0
C499 C 0.41031 0.56516 0.85655 0.0
C500 C 0.23881 0.43031 0.84142 0.0
C501 C 0.37936 0.61496 0.86566 0.0
C502 C 0.19181 0.54764 0.84409 0.0
C503 C 0.15032 0.52234 0.86346 0.0
C504 C 0.23898 0.54723 0.84039 0.0
C505 C 0.25039 0.52237 0.8567 0.0
C506 C 0.20853 0.49693 0.87613 0.0
C507 C 0.16109 0.4965 0.87868 0.0
C508 C 0.27709 0.57477 0.81848 0.0
C509 C 0.21353 0.47015 0.89563 0.0
H510 H 0.33517 0.44438 0.84249 0.0
H511 H 0.4534 0.59965 0.85993 0.0
H512 H 0.22371 0.40705 0.85807 0.0
H513 H 0.20744 0.43447 0.83636 0.0
H514 H 0.24059 0.41022 0.82519 0.0
H515 H 0.41709 0.63746 0.87898 0.0
H516 H 0.39105 0.63572 0.8482 0.0
H517 H 0.34409 0.61082 0.87473 0.0
H518 H 0.1887 0.56937 0.83179 0.0
H519 H 0.13216 0.47595 0.89394 0.0
H520 H 0.30086 0.56251 0.81264 0.0
H521 H 0.30799 0.61475 0.8242 0.0
H522 H 0.25185 0.57004 0.80171 0.0
H523 H 0.18473 0.4303 0.88967 0.0
H524 H 0.19977 0.4736 0.91457 0.0
H525 H 0.25749 0.48406 0.89792 0.0
C526 C 0.9562 0.3754 0.1648 0.0
C527 C 0.95452 0.4074 0.15119 0.0
C528 C 0.90606 0.32654 0.16896 0.0
C529 C 0.85274 0.30794 0.15836 0.0
C530 C 0.85166 0.33953 0.14346 0.0
C531 C 0.90187 0.38896 0.1407 0.0
C532 C 0.90981 0.29557 0.18577 0.0
C533 C 0.79716 0.32127 0.13059 0.0
C534 C 0.72755 0.16664 0.15866 0.0
C535 C 0.6973 0.16277 0.17999 0.0
C536 C 0.77688 0.21333 0.15082 0.0
C537 C 0.79776 0.25762 0.16489 0.0
C538 C 0.76608 0.25386 0.18578 0.0
C539 C 0.71627 0.20719 0.19261 0.0
C540 C 0.80739 0.21513 0.12777 0.0
C541 C 0.78583 0.29924 0.20164 0.0
H542 H 0.99645 0.38939 0.17326 0.0
H543 H 0.89999 0.41325 0.13013 0.0
H544 H 0.88408 0.28666 0.20291 0.0
H545 H 0.89185 0.26011 0.17545 0.0
H546 H 0.95426 0.3146 0.19212 0.0
H547 H 0.80483 0.34736 0.11666 0.0
H548 H 0.77531 0.28478 0.12045 0.0
H549 H 0.76797 0.31638 0.14516 0.0
H550 H 0.71393 0.13317 0.14858 0.0
H551 H 0.69281 0.2055 0.2086 0.0
H552 H 0.8485 0.22586 0.13394 0.0
H553 H 0.81703 0.24339 0.11492 0.0
H554 H 0.78205 0.17892 0.11681 0.0
H555 H 0.83016 0.32018 0.2089 0.0
H556 H 0.75848 0.29005 0.21819 0.0
H557 H 0.78575 0.32398 0.1897 0.0
C558 C 0.08861 0.6088 0.06315 0.0
C559 C 0.08564 0.57562 0.07804 0.0
C560 C 0.08748 0.60452 0.03626 0.0
C561 C 0.08412 0.56652 0.02383 0.0
C562 C 0.08212 0.53343 0.03883 0.0
C563 C 0.08237 0.53809 0.06569 0.0
C564 C 0.08893 0.64021 0.02113 0.0
C565 C 0.07924 0.49279 0.02649 0.0
C566 C 1.02508 0.52424 0.95504 0.0
C567 C 0.07473 0.5498 0.9408 0.0
C568 C 1.02758 0.52958 0.9819 0.0
C569 C 0.08104 0.5606 -0.00482 0.0
C570 C 0.13135 0.58615 0.98104 0.0
C571 C 0.12764 0.58077 0.95413 0.0
C572 C 0.97282 0.50193 -0.00391 0.0
C573 C 0.18923 0.61923 -0.00563 0.0
H574 H 0.09102 0.63784 0.07252 0.0
H575 H 0.07967 0.51209 0.07702 0.0
H576 H 0.12565 0.65985 0.00837 0.0
H577 H 0.04983 0.6197 0.00879 0.0
H578 H 0.0921 0.66798 0.0336 0.0
H579 H 0.08092 0.47174 0.04078 0.0
H580 H 1.03925 0.46678 0.01481 0.0
H581 H 0.11504 0.50851 0.01342 0.0
H582 H 0.98388 0.49944 0.94516 0.0
H583 H 0.16638 0.60125 0.9435 0.0
H584 H 0.9727 0.52825 0.00813 0.0
H585 H 0.96936 0.4765 0.00905 0.0
H586 H 0.93473 0.48012 0.98297 0.0
H587 H 0.19563 0.64971 0.00558 0.0
H588 H 0.22423 0.6354 0.98075 0.0
H589 H 0.19207 0.59806 0.00804 0.0
C590 C 0.57482 0.04853 0.38349 0.0
C591 C 0.62771 0.07018 0.39502 0.0
C592 C 0.56918 0.04919 0.35693 0.0
C593 C 0.61758 0.07201 0.34164 0.0
C594 C 0.67125 0.09495 0.35337 0.0
C595 C 0.67564 0.09382 0.37988 0.0
C596 C 0.51131 0.02458 0.34516 0.0
C597 C 0.72392 0.1197 0.33782 0.0
C598 C 0.60011 0.03115 0.27145 0.0
C599 C 0.60927 0.06986 0.25931 0.0
C600 C 0.6014 0.03088 0.2982 0.0
C601 C 0.61211 0.07027 0.31327 0.0
C602 C 0.62061 0.10914 0.30116 0.0
C603 C 0.61923 0.10853 0.27433 0.0
C604 C 0.59253 0.98892 0.31033 0.0
C605 C 0.6319 0.15167 0.31655 0.0
H606 H 0.53772 0.03039 0.39517 0.0
H607 H 0.71671 0.11088 0.38873 0.0
H608 H 0.5133 0.05082 0.33356 0.0
H609 H 0.49762 0.99299 0.3321 0.0
H610 H 0.4786 0.01084 0.35979 0.0
H611 H 0.76278 0.13737 0.34996 0.0
H612 H 0.71855 0.09211 0.32419 0.0
H613 H 0.73036 0.14824 0.3264 0.0
H614 H 0.59304 1.00144 0.25999 0.0
H615 H 0.62561 0.13822 0.26508 0.0
H616 H 0.55751 0.9716 0.32398 0.0
H617 H 0.63157 1.00327 0.32135 0.0
H618 H 0.58223 0.96004 0.29597 0.0
H619 H 0.5975 0.13765 0.33023 0.0
H620 H 0.635 0.17781 0.30429 0.0
H621 H 0.67226 0.17218 0.32794 0.0
C622 C 0.61895 0.55118 0.76528 0.0
C623 C 0.56741 0.53634 0.77422 0.0
C624 C 0.63193 0.56019 0.73936 0.0
C625 C 0.59309 0.55555 0.72234 0.0
C626 C 0.54275 0.5437 0.73178 0.0
C627 C 0.53012 0.53346 0.75753 0.0
C628 C 0.68537 0.57163 0.72994 0.0
C629 C 0.50101 0.53981 0.71447 0.0
C630 C 0.63731 0.60666 0.65636 0.0
C631 C 0.61017 0.56341 0.64055 0.0
C632 C 0.63303 0.60492 0.68304 0.0
C633 C 0.60232 0.55903 0.69434 0.0
C634 C 0.577 0.51557 0.67867 0.0
C635 C 0.58046 0.51816 0.65203 0.0
C636 C 0.65968 0.65193 0.69907 0.0
C637 C 0.54473 0.46596 0.68999 0.0
H638 H 0.64754 0.55297 0.7782 0.0
H639 H 0.49038 0.52221 0.76457 0.0
H640 H 0.67373 0.54015 0.71742 0.0
H641 H 0.70954 0.60448 0.71831 0.0
H642 H 0.71354 0.57835 0.74589 0.0
H643 H 0.46734 0.53573 0.72531 0.0
H644 H 0.52346 0.57299 0.70315 0.0
H645 H 0.48032 0.50736 0.70077 0.0
H646 H 0.66153 0.64203 0.64789 0.0
H647 H 0.55839 0.48431 0.64021 0.0
H648 H 0.68855 0.65729 0.71413 0.0
H649 H 0.62596 0.64927 0.70886 0.0
H650 H 0.68413 0.68493 0.68748 0.0
H651 H 0.57082 0.46813 0.7054 0.0
H652 H 0.53253 0.43662 0.67547 0.0
H653 H 0.50546 0.45503 0.69867 0.0
C654 C 0.54474 0.04686 0.55813 0.0
C655 C 0.58855 0.06077 0.54182 0.0
C656 C 0.54947 0.04443 0.5845 0.0
C657 C 0.59875 0.05505 0.59489 0.0
C658 C 0.64287 0.0684 0.57846 0.0
C659 C 0.63758 0.07177 0.55215 0.0
C660 C 0.50187 0.03103 0.60129 0.0
C661 C 0.69552 0.07897 0.58867 0.0
C662 C 0.62809 0.09201 0.66604 0.0
C663 C 0.6017 0.04666 0.67691 0.0
C664 C 0.62888 0.09555 0.63943 0.0
C665 C 0.60398 0.05298 0.62304 0.0
C666 C 0.57994 0.00764 0.63376 0.0
C667 C 0.57854 1.00489 0.66049 0.0
C668 C 0.65432 0.14451 0.62889 0.0
C669 C 0.55385 0.96154 0.61699 0.0
H670 H 0.50676 0.03844 0.55031 0.0
H671 H 0.67166 0.08275 0.53968 0.0
H672 H 0.48406 0.99713 0.61121 0.0
H673 H 0.51857 0.06101 0.61621 0.0
H674 H 0.46685 0.02468 0.59029 0.0
H675 H 0.72465 0.08651 0.57326 0.0
H676 H 0.71889 0.11133 0.60257 0.0
H677 H 0.6834 0.04711 0.59902 0.0
H678 H 0.64756 0.12491 0.67838 0.0
H679 H 0.55754 0.9695 0.66845 0.0
H680 H 0.62061 0.14137 0.61876 0.0
H681 H 0.68679 0.15489 0.61475 0.0
H682 H 0.67439 0.17464 0.64408 0.0
H683 H 0.51441 0.94935 0.60736 0.0
H684 H 0.54304 0.9308 0.62805 0.0
H685 H 0.58344 0.96915 0.60184 0.0
C686 C 0.58438 0.50939 0.93556 0.0
C687 C 0.54679 0.49824 0.91579 0.0
C688 C 0.56559 0.47719 0.95536 0.0
C689 C 0.50818 0.43271 0.95507 0.0
C690 C 0.47028 0.42131 0.93503 0.0
C691 C 0.48988 0.45453 0.91584 0.0
C692 C 0.60693 0.49092 0.9767 0.0
C693 C 0.40894 0.37406 0.93387 0.0
C694 C 0.46858 0.32921 -0.00458 0.0
C695 C 0.44424 0.33447 0.01635 0.0
C696 C 0.4894 0.3608 0.97517 0.0
C697 C 0.48678 0.399 0.97628 0.0
C698 C 0.46242 0.40448 -0.00255 0.0
C699 C 0.44121 0.372 0.01714 0.0
C700 C 0.51422 0.3534 0.95265 0.0
C701 C 0.45948 0.4451 -0.0005 0.0
H702 H 0.62838 0.5432 0.93554 0.0
H703 H 0.46058 0.44592 0.90063 0.0
H704 H 0.59136 0.49363 -0.00477 0.0
H705 H 0.60988 0.46174 0.97797 0.0
H706 H 0.6502 0.52661 0.974 0.0
H707 H 0.38585 0.36957 0.91625 0.0
H708 H 0.40669 0.34184 0.93461 0.0
H709 H 0.38663 0.37353 0.95067 0.0
H710 H 0.47131 0.30043 -0.00505 0.0
H711 H 0.42372 0.37693 0.03364 0.0
H712 H 0.55924 0.38706 0.95066 0.0
H713 H 0.49088 0.34731 0.93477 0.0
H714 H 0.51231 0.32151 0.95453 0.0
H715 H 0.50286 0.48156 -0.00125 0.0
H716 H 0.43994 0.44469 0.01745 0.0
H717 H 0.43423 0.44135 0.98309 0.0
C718 C 0.12273 0.58844 0.23366 0.0
C719 C 0.11466 0.54919 0.22043 0.0
C720 C 0.11877 0.58961 0.26038 0.0
C721 C 0.10645 0.55059 0.27414 0.0
C722 C 0.09712 0.51041 0.26075 0.0
C723 C 0.10135 0.51022 0.23407 0.0
C724 C 0.12884 0.63304 0.27394 0.0
C725 C 0.08368 0.468 0.27464 0.0
C726 C 0.1546 0.57551 0.34403 0.0
C727 C 0.10389 0.55458 0.35666 0.0
C728 C 0.15605 0.57485 0.31725 0.0
C729 C 0.10553 0.5526 0.30262 0.0
C730 C 0.05415 0.53134 0.31521 0.0
C731 C 0.05394 0.53256 0.34207 0.0
C732 C 0.21166 0.59767 0.30459 0.0
C733 C 0.99942 0.50732 0.30031 0.0
H734 H 0.13293 0.6186 0.22315 0.0
H735 H 0.09471 0.47962 0.22389 0.0
H736 H 0.09212 0.62003 0.28585 0.0
H737 H 0.16685 0.65312 0.28697 0.0
H738 H 0.13549 0.65926 0.26041 0.0
H739 H 0.07544 0.43867 0.26134 0.0
H740 H 0.11974 0.48168 0.28783 0.0
H741 H 0.04579 0.45145 0.28641 0.0
H742 H 0.19322 0.59199 0.35513 0.0
H743 H 1.01473 0.51681 0.35167 0.0
H744 H 0.2225 0.62667 0.29201 0.0
H745 H 0.20752 0.56922 0.29235 0.0
H746 H 0.24736 0.61438 0.31868 0.0
H747 H 1.00472 0.53427 0.28789 0.0
H748 H 0.96321 0.49294 0.31295 0.0
H749 H 0.98861 0.47633 0.28763 0.0
loop_
_geom_bond_atom_site_label_1
_geom_bond_atom_site_label_2
_geom_bond_distance
_geom_bond_site_symmetry_2
_ccdc_geom_bond_type
Gd0 C3 2.818 . S
Gd0 O20 2.377 . S
Gd0 O22 2.448 . S
Gd0 O23 2.506 . S
Gd0 O24 2.435 . S
Gd0 O25 2.717 . S
Gd0 O27 2.395 1_455 S
Gd0 O31 2.327 . S
Gd1 C12 2.818 . S
Gd1 O21 2.395 1_655 S
Gd1 O25 2.327 1_655 S
Gd1 O26 2.377 . S
Gd1 O28 2.448 . S
Gd1 O29 2.506 . S
Gd1 O30 2.435 1_655 S
Gd1 O31 2.717 1_655 S
C2 O20 1.240 . S
C2 O21 1.240 . S
C3 Gd0 2.818 . S
C3 C4 1.510 . S
C3 O22 1.249 . S
C3 O23 1.252 . S
C4 C3 1.510 . S
C4 C5 1.404 . S
C4 C6 1.352 . S
C5 C4 1.404 . S
C5 C9 1.389 . S
C5 H32 0.930 . S
C6 C4 1.352 . S
C6 C8 1.374 . S
C6 H33 0.931 . S
C7 C8 1.359 . S
C7 C9 1.364 . S
C8 C6 1.374 . S
C8 C7 1.359 . S
C8 H34 0.931 . S
C9 C5 1.389 . S
C9 C7 1.364 . S
C9 H35 0.931 . S
C10 O24 1.256 . S
C10 O25 1.257 . S
C11 O26 1.240 . S
C11 O27 1.240 . S
C12 Gd1 2.818 . S
C12 C13 1.510 . S
C12 O28 1.249 . S
C12 O29 1.252 . S
C13 C12 1.510 . S
C13 C14 1.404 . S
C13 C15 1.352 . S
C14 C13 1.404 . S
C14 C18 1.389 . S
C14 H36 0.930 . S
C15 C13 1.352 . S
C15 C17 1.374 . S
C15 H37 0.931 . S
C16 C17 1.359 . S
C16 C18 1.364 . S
C17 C15 1.374 . S
C17 C16 1.359 . S
C17 H38 0.931 . S
C18 C14 1.389 . S
C18 C16 1.364 . S
C18 H39 0.931 . S
C19 O30 1.256 . S
C19 O31 1.257 . S
O20 Gd0 2.377 . S
O20 C2 1.240 . S
O21 Gd1 2.395 1_455 S
O21 C2 1.240 . S
O22 Gd0 2.448 . S
O22 C3 1.249 . S
O23 Gd0 2.506 . S
O23 C3 1.252 . S
O24 Gd0 2.435 . S
O24 C10 1.256 . S
O25 Gd0 2.717 . S
O25 Gd1 2.327 1_455 S
O25 C10 1.257 . S
O26 Gd1 2.377 . S
O26 C11 1.240 . S
O27 Gd0 2.395 1_655 S
O27 C11 1.240 . S
O28 Gd1 2.448 . S
O28 C12 1.249 . S
O29 Gd1 2.506 . S
O29 C12 1.252 . S
O30 Gd1 2.435 1_455 S
O30 C19 1.256 . S
O31 Gd0 2.327 . S
O31 Gd1 2.717 1_455 S
O31 C19 1.257 . S
H32 C5 0.930 . S
H33 C6 0.931 . S
H34 C8 0.931 . S
H35 C9 0.931 . S
H36 C14 0.930 . S
H37 C15 0.931 . S
H38 C17 0.931 . S
H39 C18 0.931 . S
Gd40 C43 2.818 . S
Gd40 O60 2.377 . S
Gd40 O62 2.448 . S
Gd40 O63 2.506 . S
Gd40 O64 2.435 . S
Gd40 O65 2.717 1_565 S
Gd40 O67 2.395 1_565 S
Gd40 O71 2.311 1_565 S
Gd41 C52 2.818 . S
Gd41 O61 2.395 1_545 S
Gd41 O65 2.327 . S
Gd41 O66 2.377 . S
Gd41 O68 2.448 . S
Gd41 O69 2.506 . S
Gd41 O70 2.435 . S
Gd41 O71 2.743 . S
C42 O60 1.240 . S
C42 O61 1.240 . S
C43 Gd40 2.818 . S
C43 C44 1.510 . S
C43 O62 1.249 . S
C43 O63 1.252 . S
C44 C43 1.510 . S
C44 C45 1.404 . S
C44 C46 1.352 . S
C45 C44 1.404 . S
C45 C49 1.389 . S
C45 H72 0.930 . S
C46 C44 1.352 . S
C46 C48 1.374 . S
C46 H73 0.931 . S
C47 C48 1.359 . S
C47 C49 1.364 . S
C48 C46 1.374 . S
C48 C47 1.359 . S
C48 H74 0.931 . S
C49 C45 1.389 . S
C49 C47 1.364 . S
C49 H75 0.931 . S
C50 O64 1.256 1_545 S
C50 O65 1.257 . S
C51 O66 1.240 . S
C51 O67 1.240 . S
C52 Gd41 2.818 . S
C52 C53 1.510 . S
C52 O68 1.249 . S
C52 O69 1.252 . S
C53 C52 1.510 . S
C53 C54 1.404 . S
C53 C55 1.352 . S
C54 C53 1.404 . S
C54 C58 1.389 . S
C54 H76 0.930 . S
C55 C53 1.352 . S
C55 C57 1.374 . S
C55 H77 0.931 . S
C56 C57 1.359 . S
C56 C58 1.364 . S
C57 C55 1.374 . S
C57 C56 1.359 . S
C57 H78 0.931 . S
C58 C54 1.389 . S
C58 C56 1.364 . S
C58 H79 0.931 . S
C59 O70 1.256 . S
C59 O71 1.272 . S
O60 Gd40 2.377 . S
O60 C42 1.240 . S
O61 Gd41 2.395 1_565 S
O61 C42 1.240 . S
O62 Gd40 2.448 . S
O62 C43 1.249 . S
O63 Gd40 2.506 . S
O63 C43 1.252 . S
O64 Gd40 2.435 . S
O64 C50 1.256 1_565 S
O65 Gd40 2.717 1_545 S
O65 Gd41 2.327 . S
O65 C50 1.257 . S
O66 Gd41 2.377 . S
O66 C51 1.240 . S
O67 Gd40 2.395 1_545 S
O67 C51 1.240 . S
O68 Gd41 2.448 . S
O68 C52 1.249 . S
O69 Gd41 2.506 . S
O69 C52 1.252 . S
O70 Gd41 2.435 . S
O70 C59 1.256 . S
O71 Gd40 2.311 1_545 S
O71 Gd41 2.743 . S
O71 C59 1.272 . S
H72 C45 0.930 . S
H73 C46 0.931 . S
H74 C48 0.931 . S
H75 C49 0.931 . S
H76 C54 0.930 . S
H77 C55 0.931 . S
H78 C57 0.931 . S
H79 C58 0.931 . S
Gd80 C83 2.818 . S
Gd80 O100 2.377 . S
Gd80 O102 2.448 . S
Gd80 O103 2.506 . S
Gd80 O104 2.435 . S
Gd80 O105 2.717 . S
Gd80 O107 2.395 . S
Gd80 O111 2.327 . S
Gd81 C92 2.818 . S
Gd81 O101 2.395 . S
Gd81 O105 2.327 . S
Gd81 O106 2.377 . S
Gd81 O108 2.448 . S
Gd81 O109 2.506 . S
Gd81 O110 2.435 . S
Gd81 O111 2.717 . S
C82 O100 1.240 . S
C82 O101 1.240 . S
C83 Gd80 2.818 . S
C83 C84 1.510 . S
C83 O102 1.249 . S
C83 O103 1.252 . S
C84 C83 1.510 . S
C84 C85 1.404 . S
C84 C86 1.352 . S
C85 C84 1.404 . S
C85 C89 1.389 . S
C85 H112 0.930 . S
C86 C84 1.352 . S
C86 C88 1.374 . S
C86 H113 0.931 . S
C87 C88 1.359 . S
C87 C89 1.364 . S
C88 C86 1.374 . S
C88 C87 1.359 . S
C88 H114 0.931 . S
C89 C85 1.389 . S
C89 C87 1.364 . S
C89 H115 0.931 . S
C90 O104 1.256 . S
C90 O105 1.257 . S
C91 O106 1.240 . S
C91 O107 1.240 . S
C92 Gd81 2.818 . S
C92 C93 1.510 . S
C92 O108 1.249 . S
C92 O109 1.252 . S
C93 C92 1.510 . S
C93 C94 1.404 . S
C93 C95 1.352 . S
C94 C93 1.404 . S
C94 C98 1.389 . S
C94 H116 0.930 . S
C95 C93 1.352 . S
C95 C97 1.374 . S
C95 H117 0.931 . S
C96 C97 1.359 . S
C96 C98 1.364 . S
C97 C95 1.374 . S
C97 C96 1.359 . S
C97 H118 0.931 . S
C98 C94 1.389 . S
C98 C96 1.364 . S
C98 H119 0.931 . S
C99 O110 1.256 . S
C99 O111 1.257 . S
O100 Gd80 2.377 . S
O100 C82 1.240 . S
O101 Gd81 2.395 . S
O101 C82 1.240 . S
O102 Gd80 2.448 . S
O102 C83 1.249 . S
O103 Gd80 2.506 . S
O103 C83 1.252 . S
O104 Gd80 2.435 . S
O104 C90 1.256 . S
O105 Gd80 2.717 . S
O105 Gd81 2.327 . S
O105 C90 1.257 . S
O106 Gd81 2.377 . S
O106 C91 1.240 . S
O107 Gd80 2.395 . S
O107 C91 1.240 . S
O108 Gd81 2.448 . S
O108 C92 1.249 . S
O109 Gd81 2.506 . S
O109 C92 1.252 . S
O110 Gd81 2.435 . S
O110 C99 1.256 . S
O111 Gd80 2.327 . S
O111 Gd81 2.717 . S
O111 C99 1.257 . S
H112 C85 0.930 . S
H113 C86 0.931 . S
H114 C88 0.931 . S
H115 C89 0.931 . S
H116 C94 0.930 . S
H117 C95 0.931 . S
H118 C97 0.931 . S
H119 C98 0.931 . S
H120 C123 0.931 . S
H121 C126 0.928 . S
H122 C128 0.930 . S
C123 H120 0.931 . S
C123 C124 1.413 . S
C123 C125 1.360 1_565 S
C124 C123 1.413 . S
C124 C128 1.429 1_565 S
C125 C123 1.360 1_545 S
C125 C126 1.372 . S
C126 H121 0.928 . S
C126 C125 1.372 . S
C126 C127 1.404 . S
C127 C126 1.404 . S
C127 C128 1.391 . S
C128 H122 0.930 . S
C128 C124 1.429 1_545 S
C128 C127 1.391 . S
H129 C132 0.931 . S
H130 C135 0.928 . S
H131 C137 0.930 . S
C132 H129 0.931 . S
C132 C133 1.413 . S
C132 C134 1.360 . S
C133 C132 1.413 . S
C133 C137 1.429 . S
C134 C132 1.360 . S
C134 C135 1.372 . S
C135 H130 0.928 . S
C135 C134 1.372 . S
C135 C136 1.404 . S
C136 C135 1.404 . S
C136 C137 1.391 . S
C137 H131 0.930 . S
C137 C133 1.429 . S
C137 C136 1.391 . S
H138 C141 0.931 . S
H139 C144 0.928 . S
H140 C146 0.930 . S
C141 H138 0.931 . S
C141 C142 1.413 . S
C141 C143 1.360 . S
C142 C141 1.413 . S
C142 C146 1.429 . S
C143 C141 1.360 . S
C143 C144 1.372 . S
C144 H139 0.928 . S
C144 C143 1.372 . S
C144 C145 1.404 . S
C145 C144 1.404 . S
C145 C146 1.391 . S
C146 H140 0.930 . S
C146 C142 1.429 . S
C146 C145 1.391 . S
H147 C150 0.931 . S
H148 C153 0.928 . S
H149 C155 0.930 . S
C150 H147 0.931 . S
C150 C151 1.413 . S
C150 C152 1.361 1_655 S
C151 C150 1.413 . S
C151 C155 1.429 1_655 S
C152 C150 1.361 1_455 S
C152 C153 1.371 . S
C153 H148 0.928 . S
C153 C152 1.371 . S
C153 C154 1.404 . S
C154 C153 1.404 . S
C154 C155 1.391 . S
C155 H149 0.930 . S
C155 C151 1.429 1_455 S
C155 C154 1.391 . S
H156 C159 0.931 . S
H157 C162 0.928 . S
H158 C164 0.930 . S
C159 H156 0.931 . S
C159 C160 1.413 . S
C159 C161 1.360 1_545 S
C160 C159 1.413 . S
C160 C164 1.429 . S
C161 C159 1.360 1_565 S
C161 C162 1.372 . S
C162 H157 0.928 . S
C162 C161 1.372 . S
C162 C163 1.404 . S
C163 C162 1.404 . S
C163 C164 1.391 1_565 S
C164 H158 0.930 . S
C164 C160 1.429 . S
C164 C163 1.391 1_545 S
H165 C168 0.931 . S
H166 C171 0.928 . S
H167 C173 0.930 . S
C168 H165 0.931 . S
C168 C169 1.413 . S
C168 C170 1.360 . S
C169 C168 1.413 . S
C169 C173 1.429 . S
C170 C168 1.360 . S
C170 C171 1.372 . S
C171 H166 0.928 . S
C171 C170 1.372 . S
C171 C172 1.404 . S
C172 C171 1.404 . S
C172 C173 1.391 . S
C173 H167 0.930 . S
C173 C169 1.429 . S
C173 C172 1.391 . S
C174 C175 1.391 . S
C174 C176 1.394 . S
C174 H190 0.931 . S
C175 C174 1.391 . S
C175 C179 1.376 . S
C176 C174 1.394 . S
C176 C177 1.369 . S
C176 C180 1.531 . S
C177 C176 1.369 . S
C177 C178 1.410 . S
C177 C185 1.503 . S
C178 C177 1.410 . S
C178 C179 1.392 . S
C178 C181 1.511 . S
C179 C175 1.376 . S
C179 C178 1.392 . S
C179 H191 0.929 . S
C180 C176 1.531 . S
C180 H192 0.960 . S
C180 H193 0.962 . S
C180 H194 0.960 . S
C181 C178 1.511 . S
C181 H195 0.961 . S
C181 H196 0.961 . S
C181 H197 0.961 . S
C182 C183 1.370 . S
C182 C184 1.363 . S
C182 H198 0.931 . S
C183 C182 1.370 . S
C183 C187 1.408 . S
C184 C182 1.363 . S
C184 C185 1.370 . S
C184 C188 1.524 . S
C185 C177 1.503 . S
C185 C184 1.370 . S
C185 C186 1.403 . S
C186 C185 1.403 . S
C186 C187 1.404 . S
C186 C189 1.539 . S
C187 C183 1.408 . S
C187 C186 1.404 . S
C187 H199 0.930 . S
C188 C184 1.524 . S
C188 H200 0.956 . S
C188 H201 0.961 . S
C188 H202 0.961 . S
C189 C186 1.539 . S
C189 H203 0.958 . S
C189 H204 0.961 . S
C189 H205 0.960 . S
H190 C174 0.931 . S
H191 C179 0.929 . S
H192 C180 0.960 . S
H193 C180 0.962 . S
H194 C180 0.960 . S
H195 C181 0.961 . S
H196 C181 0.961 . S
H197 C181 0.961 . S
H198 C182 0.931 . S
H199 C187 0.930 . S
H200 C188 0.956 . S
H201 C188 0.961 . S
H202 C188 0.961 . S
H203 C189 0.958 . S
H204 C189 0.961 . S
H205 C189 0.960 . S
C206 C207 1.391 . S
C206 C208 1.394 . S
C206 H222 0.931 . S
C207 C206 1.391 . S
C207 C211 1.376 . S
C208 C206 1.394 . S
C208 C209 1.369 . S
C208 C212 1.531 . S
C209 C208 1.369 . S
C209 C210 1.410 . S
C209 C217 1.503 . S
C210 C209 1.410 . S
C210 C211 1.392 . S
C210 C213 1.511 . S
C211 C207 1.376 . S
C211 C210 1.392 . S
C211 H223 0.929 . S
C212 C208 1.531 . S
C212 H224 0.960 . S
C212 H225 0.962 . S
C212 H226 0.960 . S
C213 C210 1.511 . S
C213 H227 0.961 . S
C213 H228 0.961 . S
C213 H229 0.961 . S
C214 C215 1.370 . S
C214 C216 1.363 . S
C214 H230 0.931 . S
C215 C214 1.370 . S
C215 C219 1.408 . S
C216 C214 1.363 . S
C216 C217 1.370 . S
C216 C220 1.524 . S
C217 C209 1.503 . S
C217 C216 1.370 . S
C217 C218 1.403 . S
C218 C217 1.403 . S
C218 C219 1.404 . S
C218 C221 1.539 . S
C219 C215 1.408 . S
C219 C218 1.404 . S
C219 H231 0.930 . S
C220 C216 1.524 . S
C220 H232 0.956 . S
C220 H233 0.961 . S
C220 H234 0.961 . S
C221 C218 1.539 . S
C221 H235 0.958 . S
C221 H236 0.961 . S
C221 H237 0.960 . S
H222 C206 0.931 . S
H223 C211 0.929 . S
H224 C212 0.960 . S
H225 C212 0.962 . S
H226 C212 0.960 . S
H227 C213 0.961 . S
H228 C213 0.961 . S
H229 C213 0.961 . S
H230 C214 0.931 . S
H231 C219 0.930 . S
H232 C220 0.956 . S
H233 C220 0.961 . S
H234 C220 0.961 . S
H235 C221 0.958 . S
H236 C221 0.961 . S
H237 C221 0.960 . S
C238 C239 1.391 . S
C238 C240 1.394 . S
C238 H254 0.931 . S
C239 C238 1.391 . S
C239 C243 1.376 . S
C240 C238 1.394 . S
C240 C241 1.369 . S
C240 C244 1.531 . S
C241 C240 1.369 . S
C241 C242 1.410 . S
C241 C249 1.503 . S
C242 C241 1.410 . S
C242 C243 1.392 . S
C242 C245 1.511 . S
C243 C239 1.376 . S
C243 C242 1.392 . S
C243 H255 0.929 . S
C244 C240 1.531 . S
C244 H256 0.960 . S
C244 H257 0.962 . S
C244 H258 0.960 . S
C245 C242 1.511 . S
C245 H259 0.961 . S
C245 H260 0.961 . S
C245 H261 0.961 . S
C246 C247 1.370 . S
C246 C248 1.363 . S
C246 H262 0.931 . S
C247 C246 1.370 . S
C247 C251 1.408 . S
C248 C246 1.363 . S
C248 C249 1.370 . S
C248 C252 1.524 . S
C249 C241 1.503 . S
C249 C248 1.370 . S
C249 C250 1.403 . S
C250 C249 1.403 . S
C250 C251 1.404 . S
C250 C253 1.539 . S
C251 C247 1.408 . S
C251 C250 1.404 . S
C251 H263 0.930 . S
C252 C248 1.524 . S
C252 H264 0.956 . S
C252 H265 0.961 . S
C252 H266 0.961 . S
C253 C250 1.539 . S
C253 H267 0.958 . S
C253 H268 0.961 . S
C253 H269 0.960 . S
H254 C238 0.931 . S
H255 C243 0.929 . S
H256 C244 0.960 . S
H257 C244 0.962 . S
H258 C244 0.960 . S
H259 C245 0.961 . S
H260 C245 0.961 . S
H261 C245 0.961 . S
H262 C246 0.931 . S
H263 C251 0.930 . S
H264 C252 0.956 . S
H265 C252 0.961 . S
H266 C252 0.961 . S
H267 C253 0.958 . S
H268 C253 0.961 . S
H269 C253 0.960 . S
C270 C271 1.391 . S
C270 C272 1.394 . S
C270 H286 0.931 . S
C271 C270 1.391 . S
C271 C275 1.376 . S
C272 C270 1.394 . S
C272 C273 1.369 . S
C272 C276 1.531 . S
C273 C272 1.369 . S
C273 C274 1.410 . S
C273 C281 1.503 . S
C274 C273 1.410 . S
C274 C275 1.392 . S
C274 C277 1.511 . S
C275 C271 1.376 . S
C275 C274 1.392 . S
C275 H287 0.929 . S
C276 C272 1.531 . S
C276 H288 0.960 . S
C276 H289 0.962 . S
C276 H290 0.960 . S
C277 C274 1.511 . S
C277 H291 0.961 . S
C277 H292 0.961 . S
C277 H293 0.961 . S
C278 C279 1.370 . S
C278 C280 1.363 . S
C278 H294 0.931 . S
C279 C278 1.370 . S
C279 C283 1.408 . S
C280 C278 1.363 . S
C280 C281 1.370 . S
C280 C284 1.524 . S
C281 C273 1.503 . S
C281 C280 1.370 . S
C281 C282 1.403 . S
C282 C281 1.403 . S
C282 C283 1.404 . S
C282 C285 1.539 . S
C283 C279 1.408 . S
C283 C282 1.404 . S
C283 H295 0.930 . S
C284 C280 1.524 . S
C284 H296 0.956 . S
C284 H297 0.961 . S
C284 H298 0.961 . S
C285 C282 1.539 . S
C285 H299 0.958 . S
C285 H300 0.961 . S
C285 H301 0.960 . S
H286 C270 0.931 . S
H287 C275 0.929 . S
H288 C276 0.960 . S
H289 C276 0.962 . S
H290 C276 0.960 . S
H291 C277 0.961 . S
H292 C277 0.961 . S
H293 C277 0.961 . S
H294 C278 0.931 . S
H295 C283 0.930 . S
H296 C284 0.956 . S
H297 C284 0.961 . S
H298 C284 0.961 . S
H299 C285 0.958 . S
H300 C285 0.961 . S
H301 C285 0.960 . S
C302 C303 1.391 . S
C302 C304 1.394 . S
C302 H318 0.931 . S
C303 C302 1.391 . S
C303 C307 1.376 . S
C304 C302 1.394 . S
C304 C305 1.369 . S
C304 C308 1.531 . S
C305 C304 1.369 . S
C305 C306 1.410 . S
C305 C313 1.503 . S
C306 C305 1.410 . S
C306 C307 1.392 . S
C306 C309 1.511 . S
C307 C303 1.376 . S
C307 C306 1.392 . S
C307 H319 0.929 . S
C308 C304 1.531 . S
C308 H320 0.960 . S
C308 H321 0.962 . S
C308 H322 0.960 . S
C309 C306 1.511 . S
C309 H323 0.961 . S
C309 H324 0.961 . S
C309 H325 0.961 . S
C310 C311 1.370 . S
C310 C312 1.363 . S
C310 H326 0.931 . S
C311 C310 1.370 . S
C311 C315 1.408 . S
C312 C310 1.363 . S
C312 C313 1.370 . S
C312 C316 1.524 . S
C313 C305 1.503 . S
C313 C312 1.370 . S
C313 C314 1.403 . S
C314 C313 1.403 . S
C314 C315 1.404 . S
C314 C317 1.539 . S
C315 C311 1.408 . S
C315 C314 1.404 . S
C315 H327 0.930 . S
C316 C312 1.524 . S
C316 H328 0.956 . S
C316 H329 0.961 . S
C316 H330 0.961 . S
C317 C314 1.539 . S
C317 H331 0.958 . S
C317 H332 0.961 . S
C317 H333 0.960 . S
H318 C302 0.931 . S
H319 C307 0.929 . S
H320 C308 0.960 . S
H321 C308 0.962 . S
H322 C308 0.960 . S
H323 C309 0.961 . S
H324 C309 0.961 . S
H325 C309 0.961 . S
H326 C310 0.931 . S
H327 C315 0.930 . S
H328 C316 0.956 . S
H329 C316 0.961 . S
H330 C316 0.961 . S
H331 C317 0.958 . S
H332 C317 0.961 . S
H333 C317 0.960 . S
C334 C335 1.391 . S
C334 C336 1.394 . S
C334 H350 0.931 . S
C335 C334 1.391 . S
C335 C339 1.376 . S
C336 C334 1.394 . S
C336 C337 1.369 . S
C336 C340 1.531 . S
C337 C336 1.369 . S
C337 C338 1.410 . S
C337 C345 1.503 . S
C338 C337 1.410 . S
C338 C339 1.392 . S
C338 C341 1.511 . S
C339 C335 1.376 . S
C339 C338 1.392 . S
C339 H351 0.929 . S
C340 C336 1.531 . S
C340 H352 0.960 . S
C340 H353 0.962 . S
C340 H354 0.960 . S
C341 C338 1.511 . S
C341 H355 0.961 . S
C341 H356 0.961 . S
C341 H357 0.961 . S
C342 C343 1.370 . S
C342 C344 1.363 . S
C342 H358 0.931 . S
C343 C342 1.370 . S
C343 C347 1.408 . S
C344 C342 1.363 . S
C344 C345 1.370 . S
C344 C348 1.524 . S
C345 C337 1.503 . S
C345 C344 1.370 . S
C345 C346 1.403 . S
C346 C345 1.403 . S
C346 C347 1.404 . S
C346 C349 1.539 . S
C347 C343 1.408 . S
C347 C346 1.404 . S
C347 H359 0.930 . S
C348 C344 1.524 . S
C348 H360 0.956 . S
C348 H361 0.961 . S
C348 H362 0.961 . S
C349 C346 1.539 . S
C349 H363 0.958 . S
C349 H364 0.961 . S
C349 H365 0.960 . S
H350 C334 0.931 . S
H351 C339 0.929 . S
H352 C340 0.960 . S
H353 C340 0.962 . S
H354 C340 0.960 . S
H355 C341 0.961 . S
H356 C341 0.961 . S
H357 C341 0.961 . S
H358 C342 0.931 . S
H359 C347 0.930 . S
H360 C348 0.956 . S
H361 C348 0.961 . S
H362 C348 0.961 . S
H363 C349 0.958 . S
H364 C349 0.961 . S
H365 C349 0.960 . S
C366 C367 1.391 . S
C366 C368 1.394 . S
C366 H382 0.931 . S
C367 C366 1.391 . S
C367 C371 1.376 . S
C368 C366 1.394 . S
C368 C369 1.369 . S
C368 C372 1.531 . S
C369 C368 1.369 . S
C369 C370 1.410 . S
C369 C377 1.503 . S
C370 C369 1.410 . S
C370 C371 1.392 . S
C370 C373 1.511 . S
C371 C367 1.376 . S
C371 C370 1.392 . S
C371 H383 0.929 . S
C372 C368 1.531 . S
C372 H384 0.960 . S
C372 H385 0.962 . S
C372 H386 0.960 . S
C373 C370 1.511 . S
C373 H387 0.961 . S
C373 H388 0.961 . S
C373 H389 0.961 . S
C374 C375 1.370 . S
C374 C376 1.363 . S
C374 H390 0.931 . S
C375 C374 1.370 . S
C375 C379 1.408 . S
C376 C374 1.363 . S
C376 C377 1.370 . S
C376 C380 1.524 . S
C377 C369 1.503 . S
C377 C376 1.370 . S
C377 C378 1.403 . S
C378 C377 1.403 . S
C378 C379 1.404 . S
C378 C381 1.539 . S
C379 C375 1.408 . S
C379 C378 1.404 . S
C379 H391 0.930 . S
C380 C376 1.524 . S
C380 H392 0.956 . S
C380 H393 0.961 . S
C380 H394 0.961 . S
C381 C378 1.539 . S
C381 H395 0.958 . S
C381 H396 0.961 . S
C381 H397 0.960 . S
H382 C366 0.931 . S
H383 C371 0.929 . S
H384 C372 0.960 . S
H385 C372 0.962 . S
H386 C372 0.960 . S
H387 C373 0.961 . S
H388 C373 0.961 . S
H389 C373 0.961 . S
H390 C374 0.931 . S
H391 C379 0.930 . S
H392 C380 0.956 . S
H393 C380 0.961 . S
H394 C380 0.961 . S
H395 C381 0.958 . S
H396 C381 0.961 . S
H397 C381 0.960 . S
C398 C399 1.391 . S
C398 C400 1.394 . S
C398 H414 0.931 . S
C399 C398 1.391 . S
C399 C403 1.376 . S
C400 C398 1.394 . S
C400 C401 1.369 . S
C400 C404 1.531 . S
C401 C400 1.369 . S
C401 C402 1.410 . S
C401 C409 1.503 . S
C402 C401 1.410 . S
C402 C403 1.392 . S
C402 C405 1.511 . S
C403 C399 1.376 . S
C403 C402 1.392 . S
C403 H415 0.929 . S
C404 C400 1.531 . S
C404 H416 0.960 . S
C404 H417 0.962 . S
C404 H418 0.960 . S
C405 C402 1.511 . S
C405 H419 0.961 . S
C405 H420 0.961 . S
C405 H421 0.961 . S
C406 C407 1.370 . S
C406 C408 1.363 . S
C406 H422 0.931 . S
C407 C406 1.370 . S
C407 C411 1.408 . S
C408 C406 1.363 . S
C408 C409 1.370 . S
C408 C412 1.524 . S
C409 C401 1.503 . S
C409 C408 1.370 . S
C409 C410 1.403 . S
C410 C409 1.403 . S
C410 C411 1.404 . S
C410 C413 1.539 . S
C411 C407 1.408 . S
C411 C410 1.404 . S
C411 H423 0.930 . S
C412 C408 1.524 . S
C412 H424 0.956 . S
C412 H425 0.961 . S
C412 H426 0.961 . S
C413 C410 1.539 . S
C413 H427 0.958 . S
C413 H428 0.961 . S
C413 H429 0.960 . S
H414 C398 0.931 . S
H415 C403 0.929 . S
H416 C404 0.960 . S
H417 C404 0.962 . S
H418 C404 0.960 . S
H419 C405 0.961 . S
H420 C405 0.961 . S
H421 C405 0.961 . S
H422 C406 0.931 . S
H423 C411 0.930 . S
H424 C412 0.956 . S
H425 C412 0.961 . S
H426 C412 0.961 . S
H427 C413 0.958 . S
H428 C413 0.961 . S
H429 C413 0.960 . S
C430 C431 1.391 . S
C430 C432 1.394 . S
C430 H446 0.931 . S
C431 C430 1.391 . S
C431 C435 1.376 . S
C432 C430 1.394 . S
C432 C433 1.369 . S
C432 C436 1.531 . S
C433 C432 1.369 . S
C433 C434 1.410 . S
C433 C441 1.503 . S
C434 C433 1.410 . S
C434 C435 1.392 . S
C434 C437 1.511 . S
C435 C431 1.376 . S
C435 C434 1.392 . S
C435 H447 0.929 . S
C436 C432 1.531 . S
C436 H448 0.960 . S
C436 H449 0.962 . S
C436 H450 0.960 . S
C437 C434 1.511 . S
C437 H451 0.961 . S
C437 H452 0.961 . S
C437 H453 0.961 . S
C438 C439 1.370 . S
C438 C440 1.363 . S
C438 H454 0.931 . S
C439 C438 1.370 . S
C439 C443 1.408 . S
C440 C438 1.363 . S
C440 C441 1.370 . S
C440 C444 1.524 . S
C441 C433 1.503 . S
C441 C440 1.370 . S
C441 C442 1.403 . S
C442 C441 1.403 . S
C442 C443 1.404 . S
C442 C445 1.539 . S
C443 C439 1.408 . S
C443 C442 1.404 . S
C443 H455 0.930 . S
C444 C440 1.524 . S
C444 H456 0.956 . S
C444 H457 0.961 . S
C444 H458 0.961 . S
C445 C442 1.539 . S
C445 H459 0.958 . S
C445 H460 0.961 . S
C445 H461 0.960 . S
H446 C430 0.931 . S
H447 C435 0.929 . S
H448 C436 0.960 . S
H449 C436 0.962 . S
H450 C436 0.960 . S
H451 C437 0.961 . S
H452 C437 0.961 . S
H453 C437 0.961 . S
H454 C438 0.931 . S
H455 C443 0.930 . S
H456 C444 0.956 . S
H457 C444 0.961 . S
H458 C444 0.961 . S
H459 C445 0.958 . S
H460 C445 0.961 . S
H461 C445 0.960 . S
C462 C463 1.391 . S
C462 C464 1.394 . S
C462 H478 0.931 . S
C463 C462 1.391 . S
C463 C467 1.376 . S
C464 C462 1.394 . S
C464 C465 1.369 . S
C464 C468 1.531 . S
C465 C464 1.369 . S
C465 C466 1.410 . S
C465 C473 1.503 . S
C466 C465 1.410 . S
C466 C467 1.392 . S
C466 C469 1.511 . S
C467 C463 1.376 . S
C467 C466 1.392 . S
C467 H479 0.929 . S
C468 C464 1.531 . S
C468 H480 0.960 . S
C468 H481 0.962 . S
C468 H482 0.960 . S
C469 C466 1.511 . S
C469 H483 0.961 . S
C469 H484 0.961 . S
C469 H485 0.961 . S
C470 C471 1.370 . S
C470 C472 1.363 . S
C470 H486 0.931 . S
C471 C470 1.370 . S
C471 C475 1.408 . S
C472 C470 1.363 . S
C472 C473 1.370 . S
C472 C476 1.524 . S
C473 C465 1.503 . S
C473 C472 1.370 . S
C473 C474 1.403 . S
C474 C473 1.403 . S
C474 C475 1.404 . S
C474 C477 1.539 . S
C475 C471 1.408 . S
C475 C474 1.404 . S
C475 H487 0.930 . S
C476 C472 1.524 . S
C476 H488 0.956 . S
C476 H489 0.961 . S
C476 H490 0.961 . S
C477 C474 1.539 . S
C477 H491 0.958 . S
C477 H492 0.961 . S
C477 H493 0.960 . S
H478 C462 0.931 . S
H479 C467 0.929 . S
H480 C468 0.960 . S
H481 C468 0.962 . S
H482 C468 0.960 . S
H483 C469 0.961 . S
H484 C469 0.961 . S
H485 C469 0.961 . S
H486 C470 0.931 . S
H487 C475 0.930 . S
H488 C476 0.956 . S
H489 C476 0.961 . S
H490 C476 0.961 . S
H491 C477 0.958 . S
H492 C477 0.961 . S
H493 C477 0.960 . S
C494 C495 1.391 . S
C494 C496 1.394 . S
C494 H510 0.931 . S
C495 C494 1.391 . S
C495 C499 1.376 . S
C496 C494 1.394 . S
C496 C497 1.369 . S
C496 C500 1.531 . S
C497 C496 1.369 . S
C497 C498 1.410 . S
C497 C505 1.503 . S
C498 C497 1.410 . S
C498 C499 1.392 . S
C498 C501 1.511 . S
C499 C495 1.376 . S
C499 C498 1.392 . S
C499 H511 0.929 . S
C500 C496 1.531 . S
C500 H512 0.960 . S
C500 H513 0.962 . S
C500 H514 0.960 . S
C501 C498 1.511 . S
C501 H515 0.961 . S
C501 H516 0.961 . S
C501 H517 0.961 . S
C502 C503 1.370 . S
C502 C504 1.363 . S
C502 H518 0.931 . S
C503 C502 1.370 . S
C503 C507 1.408 . S
C504 C502 1.363 . S
C504 C505 1.370 . S
C504 C508 1.524 . S
C505 C497 1.503 . S
C505 C504 1.370 . S
C505 C506 1.403 . S
C506 C505 1.403 . S
C506 C507 1.404 . S
C506 C509 1.539 . S
C507 C503 1.408 . S
C507 C506 1.404 . S
C507 H519 0.930 . S
C508 C504 1.524 . S
C508 H520 0.956 . S
C508 H521 0.961 . S
C508 H522 0.961 . S
C509 C506 1.539 . S
C509 H523 0.958 . S
C509 H524 0.961 . S
C509 H525 0.960 . S
H510 C494 0.931 . S
H511 C499 0.929 . S
H512 C500 0.960 . S
H513 C500 0.962 . S
H514 C500 0.960 . S
H515 C501 0.961 . S
H516 C501 0.961 . S
H517 C501 0.961 . S
H518 C502 0.931 . S
H519 C507 0.930 . S
H520 C508 0.956 . S
H521 C508 0.961 . S
H522 C508 0.961 . S
H523 C509 0.958 . S
H524 C509 0.961 . S
H525 C509 0.960 . S
C526 C527 1.391 . S
C526 C528 1.394 . S
C526 H542 0.931 . S
C527 C526 1.391 . S
C527 C531 1.376 . S
C528 C526 1.394 . S
C528 C529 1.369 . S
C528 C532 1.531 . S
C529 C528 1.369 . S
C529 C530 1.410 . S
C529 C537 1.503 . S
C530 C529 1.410 . S
C530 C531 1.392 . S
C530 C533 1.511 . S
C531 C527 1.376 . S
C531 C530 1.392 . S
C531 H543 0.929 . S
C532 C528 1.531 . S
C532 H544 0.960 . S
C532 H545 0.962 . S
C532 H546 0.960 . S
C533 C530 1.511 . S
C533 H547 0.961 . S
C533 H548 0.961 . S
C533 H549 0.961 . S
C534 C535 1.370 . S
C534 C536 1.363 . S
C534 H550 0.931 . S
C535 C534 1.370 . S
C535 C539 1.408 . S
C536 C534 1.363 . S
C536 C537 1.370 . S
C536 C540 1.524 . S
C537 C529 1.503 . S
C537 C536 1.370 . S
C537 C538 1.403 . S
C538 C537 1.403 . S
C538 C539 1.404 . S
C538 C541 1.539 . S
C539 C535 1.408 . S
C539 C538 1.404 . S
C539 H551 0.930 . S
C540 C536 1.524 . S
C540 H552 0.956 . S
C540 H553 0.961 . S
C540 H554 0.961 . S
C541 C538 1.539 . S
C541 H555 0.958 . S
C541 H556 0.961 . S
C541 H557 0.960 . S
H542 C526 0.931 . S
H543 C531 0.929 . S
H544 C532 0.960 . S
H545 C532 0.962 . S
H546 C532 0.960 . S
H547 C533 0.961 . S
H548 C533 0.961 . S
H549 C533 0.961 . S
H550 C534 0.931 . S
H551 C539 0.930 . S
H552 C540 0.956 . S
H553 C540 0.961 . S
H554 C540 0.961 . S
H555 C541 0.958 . S
H556 C541 0.961 . S
H557 C541 0.960 . S
C558 C559 1.391 . S
C558 C560 1.394 . S
C558 H574 0.931 . S
C559 C558 1.391 . S
C559 C563 1.376 . S
C560 C558 1.394 . S
C560 C561 1.369 . S
C560 C564 1.531 . S
C561 C560 1.369 . S
C561 C562 1.410 . S
C561 C569 1.503 . S
C562 C561 1.410 . S
C562 C563 1.392 . S
C562 C565 1.511 1_455 S
C563 C559 1.376 . S
C563 C562 1.392 . S
C563 H575 0.929 1_455 S
C564 C560 1.531 . S
C564 H576 0.960 . S
C564 H577 0.962 . S
C564 H578 0.960 . S
C565 C562 1.511 1_655 S
C565 H579 0.961 . S
C565 H580 0.961 . S
C565 H581 0.961 1_655 S
C566 C567 1.370 . S
C566 C568 1.363 . S
C566 H582 0.931 . S
C567 C566 1.370 . S
C567 C571 1.408 . S
C568 C566 1.363 . S
C568 C569 1.370 1_556 S
C568 C572 1.524 1_456 S
C569 C561 1.503 . S
C569 C568 1.370 1_554 S
C569 C570 1.403 1_554 S
C570 C569 1.403 1_556 S
C570 C571 1.404 . S
C570 C573 1.539 1_556 S
C571 C567 1.408 . S
C571 C570 1.404 . S
C571 H583 0.930 . S
C572 C568 1.524 1_654 S
C572 H584 0.957 1_655 S
C572 H585 0.961 . S
C572 H586 0.961 1_554 S
C573 C570 1.539 1_554 S
C573 H587 0.958 . S
C573 H588 0.961 1_554 S
C573 H589 0.960 . S
H574 C558 0.931 . S
H575 C563 0.929 1_655 S
H576 C564 0.960 . S
H577 C564 0.962 . S
H578 C564 0.960 . S
H579 C565 0.961 . S
H580 C565 0.961 . S
H581 C565 0.961 1_455 S
H582 C566 0.931 . S
H583 C571 0.930 . S
H584 C572 0.957 1_455 S
H585 C572 0.961 . S
H586 C572 0.961 1_556 S
H587 C573 0.958 . S
H588 C573 0.961 1_556 S
H589 C573 0.960 . S
C590 C591 1.391 . S
C590 C592 1.394 . S
C590 H606 0.931 . S
C591 C590 1.391 . S
C591 C595 1.376 . S
C592 C590 1.394 . S
C592 C593 1.369 . S
C592 C596 1.531 . S
C593 C592 1.369 . S
C593 C594 1.410 . S
C593 C601 1.503 . S
C594 C593 1.410 . S
C594 C595 1.392 . S
C594 C597 1.511 . S
C595 C591 1.376 . S
C595 C594 1.392 . S
C595 H607 0.929 . S
C596 C592 1.531 . S
C596 H608 0.960 . S
C596 H609 0.962 . S
C596 H610 0.960 . S
C597 C594 1.511 . S
C597 H611 0.961 1_545 S
C597 H612 0.961 1_545 S
C597 H613 0.961 . S
C598 C599 1.370 1_565 S
C598 C600 1.363 . S
C598 H614 0.931 . S
C599 C598 1.370 1_545 S
C599 C603 1.408 . S
C600 C598 1.363 . S
C600 C601 1.370 1_565 S
C600 C604 1.524 . S
C601 C593 1.503 . S
C601 C600 1.370 1_545 S
C601 C602 1.403 . S
C602 C601 1.403 . S
C602 C603 1.404 . S
C602 C605 1.539 . S
C603 C599 1.408 . S
C603 C602 1.404 . S
C603 H615 0.930 . S
C604 C600 1.524 . S
C604 H616 0.956 . S
C604 H617 0.961 . S
C604 H618 0.961 . S
C605 C602 1.539 . S
C605 H619 0.958 . S
C605 H620 0.961 . S
C605 H621 0.960 . S
H606 C590 0.931 . S
H607 C595 0.929 . S
H608 C596 0.960 . S
H609 C596 0.962 . S
H610 C596 0.960 . S
H611 C597 0.961 1_565 S
H612 C597 0.961 1_565 S
H613 C597 0.961 . S
H614 C598 0.931 . S
H615 C603 0.930 . S
H616 C604 0.956 . S
H617 C604 0.961 . S
H618 C604 0.961 . S
H619 C605 0.958 . S
H620 C605 0.961 . S
H621 C605 0.960 . S
C622 C623 1.391 . S
C622 C624 1.394 . S
C622 H638 0.931 . S
C623 C622 1.391 . S
C623 C627 1.376 . S
C624 C622 1.394 . S
C624 C625 1.369 . S
C624 C628 1.531 . S
C625 C624 1.369 . S
C625 C626 1.410 . S
C625 C633 1.503 . S
C626 C625 1.410 . S
C626 C627 1.392 . S
C626 C629 1.511 . S
C627 C623 1.376 . S
C627 C626 1.392 . S
C627 H639 0.929 . S
C628 C624 1.531 . S
C628 H640 0.960 . S
C628 H641 0.962 . S
C628 H642 0.960 . S
C629 C626 1.511 . S
C629 H643 0.961 . S
C629 H644 0.961 . S
C629 H645 0.961 . S
C630 C631 1.370 . S
C630 C632 1.363 . S
C630 H646 0.931 . S
C631 C630 1.370 . S
C631 C635 1.408 . S
C632 C630 1.363 . S
C632 C633 1.370 . S
C632 C636 1.524 . S
C633 C625 1.503 . S
C633 C632 1.370 . S
C633 C634 1.403 . S
C634 C633 1.403 . S
C634 C635 1.404 . S
C634 C637 1.539 . S
C635 C631 1.408 . S
C635 C634 1.404 . S
C635 H647 0.930 . S
C636 C632 1.524 . S
C636 H648 0.956 . S
C636 H649 0.961 . S
C636 H650 0.961 . S
C637 C634 1.539 . S
C637 H651 0.958 . S
C637 H652 0.961 . S
C637 H653 0.960 . S
H638 C622 0.931 . S
H639 C627 0.929 . S
H640 C628 0.960 . S
H641 C628 0.962 . S
H642 C628 0.960 . S
H643 C629 0.961 . S
H644 C629 0.961 . S
H645 C629 0.961 . S
H646 C630 0.931 . S
H647 C635 0.930 . S
H648 C636 0.956 . S
H649 C636 0.961 . S
H650 C636 0.961 . S
H651 C637 0.958 . S
H652 C637 0.961 . S
H653 C637 0.960 . S
C654 C655 1.391 1_565 S
C654 C656 1.394 . S
C654 H670 0.931 . S
C655 C654 1.391 1_545 S
C655 C659 1.376 . S
C656 C654 1.394 . S
C656 C657 1.369 . S
C656 C660 1.531 . S
C657 C656 1.369 . S
C657 C658 1.410 1_565 S
C657 C665 1.503 . S
C658 C657 1.410 1_545 S
C658 C659 1.392 . S
C658 C661 1.511 . S
C659 C655 1.376 . S
C659 C658 1.392 . S
C659 H671 0.929 . S
C660 C656 1.531 . S
C660 H672 0.960 . S
C660 H673 0.962 . S
C660 H674 0.960 . S
C661 C658 1.511 . S
C661 H675 0.961 . S
C661 H676 0.961 . S
C661 H677 0.961 . S
C662 C663 1.370 1_545 S
C662 C664 1.363 . S
C662 H678 0.931 . S
C663 C662 1.370 1_565 S
C663 C667 1.408 . S
C664 C662 1.363 . S
C664 C665 1.370 1_545 S
C664 C668 1.524 . S
C665 C657 1.503 . S
C665 C664 1.370 1_565 S
C665 C666 1.403 . S
C666 C665 1.403 . S
C666 C667 1.404 . S
C666 C669 1.539 . S
C667 C663 1.408 . S
C667 C666 1.404 . S
C667 H679 0.930 . S
C668 C664 1.524 . S
C668 H680 0.956 . S
C668 H681 0.961 . S
C668 H682 0.961 . S
C669 C666 1.539 . S
C669 H683 0.958 . S
C669 H684 0.961 . S
C669 H685 0.960 . S
H670 C654 0.931 . S
H671 C659 0.929 . S
H672 C660 0.960 . S
H673 C660 0.962 . S
H674 C660 0.960 . S
H675 C661 0.961 . S
H676 C661 0.961 . S
H677 C661 0.961 . S
H678 C662 0.931 . S
H679 C667 0.930 . S
H680 C668 0.956 . S
H681 C668 0.961 . S
H682 C668 0.961 . S
H683 C669 0.958 . S
H684 C669 0.961 . S
H685 C669 0.960 . S
C686 C687 1.391 . S
C686 C688 1.394 . S
C686 H702 0.931 . S
C687 C686 1.391 . S
C687 C691 1.376 . S
C688 C686 1.394 . S
C688 C689 1.369 . S
C688 C692 1.531 . S
C689 C688 1.369 . S
C689 C690 1.410 . S
C689 C697 1.503 . S
C690 C689 1.410 . S
C690 C691 1.392 . S
C690 C693 1.511 . S
C691 C687 1.376 . S
C691 C690 1.392 . S
C691 H703 0.929 . S
C692 C688 1.531 . S
C692 H704 0.960 . S
C692 H705 0.962 . S
C692 H706 0.960 . S
C693 C690 1.511 . S
C693 H707 0.961 . S
C693 H708 0.961 . S
C693 H709 0.961 . S
C694 C695 1.370 . S
C694 C696 1.363 1_554 S
C694 H710 0.931 . S
C695 C694 1.370 . S
C695 C699 1.408 . S
C696 C694 1.363 1_556 S
C696 C697 1.370 . S
C696 C700 1.524 . S
C697 C689 1.503 . S
C697 C696 1.370 . S
C697 C698 1.403 1_556 S
C698 C697 1.403 1_554 S
C698 C699 1.404 . S
C698 C701 1.539 1_554 S
C699 C695 1.408 . S
C699 C698 1.404 . S
C699 H711 0.930 . S
C700 C696 1.524 . S
C700 H712 0.956 . S
C700 H713 0.961 . S
C700 H714 0.961 . S
C701 C698 1.539 1_556 S
C701 H715 0.959 . S
C701 H716 0.961 1_556 S
C701 H717 0.960 . S
H702 C686 0.931 . S
H703 C691 0.929 . S
H704 C692 0.960 . S
H705 C692 0.962 . S
H706 C692 0.960 . S
H707 C693 0.961 . S
H708 C693 0.961 . S
H709 C693 0.961 . S
H710 C694 0.931 . S
H711 C699 0.930 . S
H712 C700 0.956 . S
H713 C700 0.961 . S
H714 C700 0.961 . S
H715 C701 0.959 . S
H716 C701 0.961 1_554 S
H717 C701 0.960 . S
C718 C719 1.391 . S
C718 C720 1.394 . S
C718 H734 0.931 . S
C719 C718 1.391 . S
C719 C723 1.376 1_455 S
C720 C718 1.394 . S
C720 C721 1.369 . S
C720 C724 1.531 . S
C721 C720 1.369 . S
C721 C722 1.410 1_455 S
C721 C729 1.503 . S
C722 C721 1.410 1_655 S
C722 C723 1.392 . S
C722 C725 1.511 . S
C723 C719 1.376 1_655 S
C723 C722 1.392 . S
C723 H735 0.929 . S
C724 C720 1.531 . S
C724 H736 0.960 . S
C724 H737 0.962 . S
C724 H738 0.960 . S
C725 C722 1.511 . S
C725 H739 0.961 . S
C725 H740 0.961 . S
C725 H741 0.961 . S
C726 C727 1.371 . S
C726 C728 1.363 . S
C726 H742 0.931 . S
C727 C726 1.371 . S
C727 C731 1.407 . S
C728 C726 1.363 . S
C728 C729 1.370 . S
C728 C732 1.524 . S
C729 C721 1.503 . S
C729 C728 1.370 . S
C729 C730 1.403 . S
C730 C729 1.403 . S
C730 C731 1.404 . S
C730 C733 1.539 . S
C731 C727 1.407 . S
C731 C730 1.404 . S
C731 H743 0.930 . S
C732 C728 1.524 . S
C732 H744 0.956 . S
C732 H745 0.961 1_455 S
C732 H746 0.961 1_455 S
C733 C730 1.539 . S
C733 H747 0.958 . S
C733 H748 0.961 1_455 S
C733 H749 0.960 1_455 S
H734 C718 0.931 . S
H735 C723 0.929 . S
H736 C724 0.960 . S
H737 C724 0.962 . S
H738 C724 0.960 . S
H739 C725 0.961 . S
H740 C725 0.961 . S
H741 C725 0.961 . S
H742 C726 0.931 . S
H743 C731 0.930 . S
H744 C732 0.956 . S
H745 C732 0.961 1_655 S
H746 C732 0.961 1_655 S
H747 C733 0.958 . S
H748 C733 0.961 1_655 S
H749 C733 0.960 1_655 S
C175 C7 0.721 . S
C183 C169 0.770 . S
C207 C51 1.806 . S
C215 C151 1.795 . S
C239 C87 1.279 . S
C247 C163 1.367 . S
C271 C16 0.690 . S
C279 C172 0.543 . S
C311 C154 1.836 . S
C303 C42 1.842 . S
C343 C160 1.408 . S
C335 C96 1.375 . S
C367 C47 1.283 . S
C375 C133 1.299 . S
C399 C91 2.984 . S
C407 C142 2.958 1_655 S
C431 C2 1.889 . S
C439 C124 1.905 . S
C471 C136 1.403 . S
C463 C56 1.332 . S
C503 C145 2.877 . S
C495 C82 2.875 . S
C527 C11 1.803 . S
C535 C127 1.778 . S
C567 C143 1.789 . S
C559 C19 1.743 . S
C591 C50 1.323 . S
C599 C125 1.368 . S
C623 C99 1.426 . S
C631 C134 1.511 . S
C663 C161 1.481 . S
C655 C59 1.460 . S
C695 C170 1.069 . S
C687 C90 1.030 . S
C719 C10 1.340 . S
C727 C152 1.353 . S
