# Generated by pormake.
# Topology csq, (4,8)-cn, num edge types: 1
# Building blocks:
#     Node 0, Type 0, BuildingBlock: AZAVOO_clean_linker_0, # of connection points: 4
#     Node 1, Type 0, BuildingBlock: AZAVOO_clean_linker_0, # of connection points: 4
#     Node 2, Type 0, BuildingBlock: AZAVOO_clean_linker_0, # of connection points: 4
#     Node 3, Type 0, BuildingBlock: AZAVOO_clean_linker_0, # of connection points: 4
#     Node 4, Type 0, BuildingBlock: AZAVOO_clean_linker_0, # of connection points: 4
#     Node 5, Type 0, BuildingBlock: AZAVOO_clean_linker_0, # of connection points: 4
#     Node 6, Type 1, BuildingBlock: TAGTUT_clean_sbu_3, # of connection points: 8
#     Node 7, Type 1, BuildingBlock: TAGTUT_clean_sbu_3, # of connection points: 8
#     Node 8, Type 1, BuildingBlock: TAGTUT_clean_sbu_3, # of connection points: 8
#     Edge 9, Type (0, 1), BuildingBlock: XUDNAN_clean_linker_2, # of connection points: 2
#     Edge 10, Type (0, 1), BuildingBlock: XUDNAN_clean_linker_2, # of connection points: 2
#     Edge 11, Type (0, 1), BuildingBlock: XUDNAN_clean_linker_2, # of connection points: 2
#     Edge 12, Type (0, 1), BuildingBlock: XUDNAN_clean_linker_2, # of connection points: 2
#     Edge 13, Type (0, 1), BuildingBlock: XUDNAN_clean_linker_2, # of connection points: 2
#     Edge 14, Type (0, 1), BuildingBlock: XUDNAN_clean_linker_2, # of connection points: 2
#     Edge 15, Type (0, 1), BuildingBlock: XUDNAN_clean_linker_2, # of connection points: 2
#     Edge 16, Type (0, 1), BuildingBlock: XUDNAN_clean_linker_2, # of connection points: 2
#     Edge 17, Type (0, 1), BuildingBlock: XUDNAN_clean_linker_2, # of connection points: 2
#     Edge 18, Type (0, 1), BuildingBlock: XUDNAN_clean_linker_2, # of connection points: 2
#     Edge 19, Type (0, 1), BuildingBlock: XUDNAN_clean_linker_2, # of connection points: 2
#     Edge 20, Type (0, 1), BuildingBlock: XUDNAN_clean_linker_2, # of connection points: 2
#     Edge 21, Type (0, 1), BuildingBlock: XUDNAN_clean_linker_2, # of connection points: 2
#     Edge 22, Type (0, 1), BuildingBlock: XUDNAN_clean_linker_2, # of connection points: 2
#     Edge 23, Type (0, 1), BuildingBlock: XUDNAN_clean_linker_2, # of connection points: 2
#     Edge 24, Type (0, 1), BuildingBlock: XUDNAN_clean_linker_2, # of connection points: 2
#     Edge 25, Type (0, 1), BuildingBlock: XUDNAN_clean_linker_2, # of connection points: 2
#     Edge 26, Type (0, 1), BuildingBlock: XUDNAN_clean_linker_2, # of connection points: 2
#     Edge 27, Type (0, 1), BuildingBlock: XUDNAN_clean_linker_2, # of connection points: 2
#     Edge 28, Type (0, 1), BuildingBlock: XUDNAN_clean_linker_2, # of connection points: 2
#     Edge 29, Type (0, 1), BuildingBlock: XUDNAN_clean_linker_2, # of connection points: 2
#     Edge 30, Type (0, 1), BuildingBlock: XUDNAN_clean_linker_2, # of connection points: 2
#     Edge 31, Type (0, 1), BuildingBlock: XUDNAN_clean_linker_2, # of connection points: 2
#     Edge 32, Type (0, 1), BuildingBlock: XUDNAN_clean_linker_2, # of connection points: 2
# Relax obj value: 0.136
# Max RMSD: 0.242
# Mean RMSD: 0.202
data_MOF--net-csq--node1-TAGTUT_clean_sbu_3--node2-AZAVOO_clean_linker_0--edge1-XUDNAN_clean_linker_2
_symmetry_space_group_name_H-M    P1
_symmetry_Int_Tables_number       1
_symmetry_cell_setting            triclinic
loop_
_symmetry_equiv_pos_as_xyz
'x, y, z'
_cell_length_a     57.459023
_cell_length_b     56.728366
_cell_length_c     23.159186
_cell_angle_alpha  92.427899
_cell_angle_beta   92.404326
_cell_angle_gamma 119.94384
loop_
_atom_site_label
_atom_site_type_symbol
_atom_site_fract_x
_atom_site_fract_y
_atom_site_fract_z
_atom_type_partial_charge
H0 H 0.13939 0.38297 0.47646 0.0
H1 H 0.39794 0.4709 0.15981 0.0
H2 H 0.15422 0.40744 0.18241 0.0
H3 H 0.12174 0.41791 0.2249 0.0
H4 H 0.18022 0.504 0.22936 0.0
H5 H 0.21206 0.49329 0.18624 0.0
H6 H 0.18875 0.38704 0.25837 0.0
H7 H 0.1655 0.37711 0.34807 0.0
H8 H 0.19743 0.46345 0.38781 0.0
H9 H 0.22082 0.47307 0.29843 0.0
H10 H 0.24766 0.38976 0.20856 0.0
H11 H 0.28256 0.38669 0.26682 0.0
H12 H 0.29978 0.45937 0.3703 0.0
H13 H 0.26603 0.46329 0.31011 0.0
H14 H 0.26545 0.40753 0.09147 0.0
H15 H 0.30906 0.41052 0.08119 0.0
H16 H 0.34725 0.48323 0.19829 0.0
H17 H 0.3036 0.48028 0.20728 0.0
H18 H 0.24201 0.42386 0.00512 0.0
H19 H 0.27935 0.43974 0.9424 0.0
H20 H 0.3211 0.51652 0.0466 0.0
H21 H 0.28296 0.50112 0.10559 0.0
H22 H 0.19305 0.40553 0.03713 0.0
H23 H 0.16158 0.39902 0.9555 0.0
H24 H 0.17556 0.48043 0.99435 0.0
H25 H 0.2076 0.48702 0.07559 0.0
O26 O 0.14922 0.38736 0.44188 0.0
O27 O 0.16655 0.43199 0.46076 0.0
O28 O 0.35983 0.43174 0.10322 0.0
O29 O 0.38049 0.4694 0.16256 0.0
C30 C 0.20735 0.44385 0.16938 0.0
C31 C 0.2188 0.43648 0.21557 0.0
C32 C 0.2419 0.43441 0.20765 0.0
C33 C 0.25492 0.44206 0.15562 0.0
C34 C 0.24342 0.44926 0.10958 0.0
C35 C 0.2187 0.44835 0.11512 0.0
C36 C 0.18537 0.44962 0.18061 0.0
C37 C 0.15956 0.42854 0.19072 0.0
C38 C 0.14121 0.43459 0.21571 0.0
C39 C 0.14843 0.46182 0.23113 0.0
C40 C 0.17375 0.48285 0.21741 0.0
C41 C 0.192 0.47678 0.19249 0.0
C42 C 0.20636 0.43073 0.27193 0.0
C43 C 0.19089 0.40376 0.28685 0.0
C44 C 0.17755 0.39816 0.33795 0.0
C45 C 0.17949 0.41948 0.37499 0.0
C46 C 0.19544 0.44655 0.36023 0.0
C47 C 0.20882 0.4521 0.30924 0.0
C48 C 0.25451 0.42687 0.25489 0.0
C49 C 0.25822 0.40439 0.24526 0.0
C50 C 0.27816 0.40272 0.27815 0.0
C51 C 0.29376 0.42294 0.32229 0.0
C52 C 0.28778 0.44353 0.33645 0.0
C53 C 0.26836 0.44563 0.30254 0.0
C54 C 0.28141 0.4437 0.15003 0.0
C55 C 0.2833 0.42415 0.11462 0.0
C56 C 0.3082 0.42587 0.10896 0.0
C57 C 0.33165 0.44712 0.13897 0.0
C58 C 0.32962 0.46664 0.17452 0.0
C59 C 0.30471 0.46496 0.17991 0.0
C60 C 0.25973 0.46137 0.05976 0.0
C61 C 0.25856 0.44464 0.01216 0.0
C62 C 0.28032 0.45359 0.97728 0.0
C63 C 0.3038 0.47917 0.99033 0.0
C64 C 0.30353 0.4968 0.03458 0.0
C65 C 0.28157 0.48807 0.06846 0.0
C66 C 0.20237 0.44664 0.0625 0.0
C67 C 0.18973 0.42217 0.02728 0.0
C68 C 0.17182 0.41849 0.98066 0.0
C69 C 0.16603 0.43914 0.96892 0.0
C70 C 0.17948 0.46407 0.00302 0.0
C71 C 0.19769 0.46786 0.04937 0.0
C72 C 0.16477 0.41344 0.42851 0.0
C73 C 0.35811 0.44888 0.13363 0.0
H74 H 0.8435 0.23904 0.4495 0.0
H75 H 0.6255 0.05322 0.9767 0.0
H76 H 0.79681 0.28518 0.14337 0.0
H77 H 0.83185 0.3219 0.20836 0.0
H78 H 0.87838 0.28122 0.20563 0.0
H79 H 0.84369 0.24499 0.13793 0.0
H80 H 0.78504 0.24469 0.24269 0.0
H81 H 0.80749 0.24759 0.33699 0.0
H82 H 0.82734 0.18781 0.27098 0.0
H83 H 0.80522 0.18548 0.1765 0.0
H84 H 0.73378 0.18834 0.22464 0.0
H85 H 0.70245 0.14694 0.26975 0.0
H86 H 0.71638 0.0982 0.14291 0.0
H87 H 0.74883 0.13988 0.09959 0.0
H88 H 0.6957 0.17774 0.11101 0.0
H89 H 0.65299 0.135 0.09109 0.0
H90 H 0.69028 0.10719 0.9681 0.0
H91 H 0.73289 0.15004 0.98853 0.0
H92 H 0.71544 0.22445 0.02461 0.0
H93 H 0.68084 0.20674 0.9436 0.0
H94 H 0.72819 0.18147 0.84707 0.0
H95 H 0.76271 0.19905 0.92824 0.0
H96 H 0.77621 0.28173 0.0438 0.0
H97 H 0.79796 0.3168 0.97417 0.0
H98 H 0.83734 0.27451 0.9081 0.0
H99 H 0.81648 0.24023 0.97897 0.0
O100 O 0.83452 0.23738 0.412 0.0
O101 O 0.84346 0.20592 0.37659 0.0
O102 O 0.62317 0.08668 0.04446 0.0
O103 O 0.64183 0.07074 0.98354 0.0
C104 C 0.79345 0.23724 0.11068 0.0
C105 C 0.78127 0.21438 0.14461 0.0
C106 C 0.75699 0.19101 0.12362 0.0
C107 C 0.74408 0.19092 0.07037 0.0
C108 C 0.75612 0.21366 0.03668 0.0
C109 C 0.78113 0.23657 0.05597 0.0
C110 C 0.81774 0.26248 0.13557 0.0
C111 C 0.81516 0.28485 0.1542 0.0
C112 C 0.83504 0.30564 0.19193 0.0
C113 C 0.85755 0.3041 0.2124 0.0
C114 C 0.86104 0.28266 0.19071 0.0
C115 C 0.84142 0.26217 0.15177 0.0
C116 C 0.79368 0.21502 0.20271 0.0
C117 C 0.79427 0.23227 0.24869 0.0
C118 C 0.80708 0.23385 0.30252 0.0
C119 C 0.81928 0.21799 0.31149 0.0
C120 C 0.81819 0.20035 0.2655 0.0
C121 C 0.8055 0.19889 0.21159 0.0
C122 C 0.7435 0.16708 0.1588 0.0
C123 C 0.73095 0.16887 0.20808 0.0
C124 C 0.71295 0.14524 0.23343 0.0
C125 C 0.70692 0.11952 0.20919 0.0
C126 C 0.72065 0.11785 0.16195 0.0
C127 C 0.7392 0.14156 0.13752 0.0
C128 C 0.71733 0.16696 0.05113 0.0
C129 C 0.69444 0.16258 0.07899 0.0
C130 C 0.67013 0.13809 0.06778 0.0
C131 C 0.66831 0.11754 0.02846 0.0
C132 C 0.69104 0.1225 0.99889 0.0
C133 C 0.71534 0.14706 0.01004 0.0
C134 C 0.74152 0.21304 0.98204 0.0
C135 C 0.71904 0.21649 0.98473 0.0
C136 C 0.69932 0.20637 0.93867 0.0
C137 C 0.70215 0.19301 0.88951 0.0
C138 C 0.72597 0.19216 0.88442 0.0
C139 C 0.74566 0.20223 0.93054 0.0
C140 C 0.79513 0.25872 0.01688 0.0
C141 C 0.78996 0.2804 0.01506 0.0
C142 C 0.80225 0.30028 0.97534 0.0
C143 C 0.81919 0.29818 0.93601 0.0
C144 C 0.82429 0.27645 0.93802 0.0
C145 C 0.81251 0.257 0.97846 0.0
C146 C 0.83314 0.21997 0.36854 0.0
C147 C 0.64304 0.09079 0.01941 0.0
H148 H 0.58775 0.87424 0.76881 0.0
H149 H 0.51947 0.59823 0.98517 0.0
H150 H 0.57796 0.83839 0.08063 0.0
H151 H 0.58004 0.87643 0.03228 0.0
H152 H 0.49374 0.83006 0.99321 0.0
H153 H 0.49243 0.79139 0.0382 0.0
H154 H 0.59018 0.81964 0.97638 0.0
H155 H 0.59779 0.84631 0.89156 0.0
H156 H 0.51268 0.79948 0.83932 0.0
H157 H 0.50533 0.7732 0.92478 0.0
H158 H 0.59406 0.76821 0.96843 0.0
H159 H 0.60422 0.75163 0.87862 0.0
H160 H 0.5194 0.70725 0.82349 0.0
H161 H 0.5095 0.72374 0.91331 0.0
H162 H 0.58386 0.73251 0.05344 0.0
H163 H 0.58528 0.69049 0.03417 0.0
H164 H 0.49831 0.64491 0.01071 0.0
H165 H 0.49725 0.68716 0.02957 0.0
H166 H 0.56833 0.73874 0.17282 0.0
H167 H 0.55716 0.70242 0.23845 0.0
H168 H 0.47262 0.6753 0.20595 0.0
H169 H 0.48406 0.71168 0.13998 0.0
H170 H 0.56634 0.78767 0.20616 0.0
H171 H 0.56013 0.80324 0.30135 0.0
H172 H 0.48317 0.79133 0.23558 0.0
H173 H 0.48915 0.77478 0.14123 0.0
O174 O 0.58427 0.86371 0.80245 0.0
O175 O 0.54311 0.83248 0.76669 0.0
O176 O 0.5641 0.6393 0.00819 0.0
O177 O 0.51947 0.61504 0.9942 0.0
C178 C 0.53652 0.78656 0.06099 0.0
C179 C 0.54272 0.77842 0.00802 0.0
C180 C 0.54472 0.75481 0.00321 0.0
C181 C 0.53979 0.73853 0.05046 0.0
C182 C 0.53344 0.74632 0.10367 0.0
C183 C 0.5323 0.77075 0.10944 0.0
C184 C 0.53509 0.812 0.06283 0.0
C185 C 0.5593 0.83697 0.06444 0.0
C186 C 0.56043 0.85873 0.03587 0.0
C187 C 0.53717 0.85615 0.00657 0.0
C188 C 0.51229 0.83249 0.01298 0.0
C189 C 0.5113 0.81055 0.04049 0.0
C190 C 0.5472 0.79468 0.95673 0.0
C191 C 0.57322 0.81529 0.94665 0.0
C192 C 0.57749 0.83049 0.8983 0.0
C193 C 0.55584 0.82495 0.85868 0.0
C194 C 0.52979 0.80414 0.86888 0.0
C195 C 0.52552 0.78915 0.9176 0.0
C196 C 0.55105 0.74662 0.94738 0.0
C197 C 0.57781 0.75519 0.93644 0.0
C198 C 0.58357 0.746 0.88515 0.0
C199 C 0.56261 0.72838 0.84409 0.0
C200 C 0.53597 0.72123 0.85389 0.0
C201 C 0.53023 0.73023 0.90538 0.0
C202 C 0.54046 0.71279 0.04298 0.0
C203 C 0.56516 0.71338 0.04446 0.0
C204 C 0.5659 0.68937 0.03337 0.0
C205 C 0.5419 0.66433 0.0207 0.0
C206 C 0.51716 0.66383 0.02019 0.0
C207 C 0.51647 0.68788 0.03117 0.0
C208 C 0.52703 0.72796 0.15187 0.0
C209 C 0.54745 0.72538 0.18106 0.0
C210 C 0.54101 0.7046 0.21854 0.0
C211 C 0.51396 0.68581 0.2272 0.0
C212 C 0.49361 0.68923 0.19975 0.0
C213 C 0.50011 0.71017 0.16257 0.0
C214 C 0.52829 0.78032 0.16667 0.0
C215 C 0.54807 0.78829 0.2125 0.0
C216 C 0.54454 0.79728 0.26677 0.0
C217 C 0.52115 0.79855 0.27619 0.0
C218 C 0.50124 0.79025 0.23015 0.0
C219 C 0.50477 0.78115 0.17592 0.0
C220 C 0.56056 0.84057 0.80652 0.0
C221 C 0.5426 0.63887 0.00745 0.0
H222 H 0.80731 0.6767 0.42071 0.0
H223 H 0.97538 0.60909 0.98826 0.0
H224 H 0.76527 0.55666 0.16344 0.0
H225 H 0.72881 0.55256 0.22031 0.0
H226 H 0.74102 0.62914 0.16293 0.0
H227 H 0.77731 0.63276 0.10473 0.0
H228 H 0.80538 0.59885 0.24417 0.0
H229 H 0.80312 0.625 0.32825 0.0
H230 H 0.84039 0.6981 0.23519 0.0
H231 H 0.84212 0.67156 0.15097 0.0
H232 H 0.85619 0.60832 0.23114 0.0
H233 H 0.89948 0.62144 0.28017 0.0
H234 H 0.9399 0.67477 0.1456 0.0
H235 H 0.89595 0.66311 0.09863 0.0
H236 H 0.86284 0.5705 0.12348 0.0
H237 H 0.90266 0.5666 0.10734 0.0
H238 H 0.92682 0.62821 0.98352 0.0
H239 H 0.88708 0.6321 0.00064 0.0
H240 H 0.8086 0.53377 0.03018 0.0
H241 H 0.82443 0.51165 0.96222 0.0
H242 H 0.86042 0.58456 0.86806 0.0
H243 H 0.84277 0.60536 0.93363 0.0
H244 H 0.75212 0.53818 0.0641 0.0
H245 H 0.71022 0.52126 0.00449 0.0
H246 H 0.75232 0.58378 0.88609 0.0
H247 H 0.79318 0.60234 0.94998 0.0
O248 O 0.80865 0.66681 0.38714 0.0
O249 O 0.82848 0.70394 0.33801 0.0
O250 O 0.94652 0.57916 0.06064 0.0
O251 O 0.95946 0.61019 0.9954 0.0
C252 C 0.79923 0.59959 0.10574 0.0
C253 C 0.82362 0.61716 0.13902 0.0
C254 C 0.84791 0.61934 0.12257 0.0
C255 C 0.84776 0.60358 0.07351 0.0
C256 C 0.82383 0.58755 0.03788 0.0
C257 C 0.79955 0.58573 0.05363 0.0
C258 C 0.77351 0.59463 0.12867 0.0
C259 C 0.75926 0.57192 0.16091 0.0
C260 C 0.73856 0.56973 0.19382 0.0
C261 C 0.73207 0.59055 0.19618 0.0
C262 C 0.74567 0.61283 0.16209 0.0
C263 C 0.76616 0.6148 0.12838 0.0
C264 C 0.82369 0.63329 0.19135 0.0
C265 C 0.81296 0.62049 0.24198 0.0
C266 C 0.81176 0.6355 0.28999 0.0
C267 C 0.82147 0.66363 0.28838 0.0
C268 C 0.83267 0.67646 0.23783 0.0
C269 C 0.83377 0.66139 0.18976 0.0
C270 C 0.87292 0.63454 0.16104 0.0
C271 C 0.87422 0.62422 0.21416 0.0
C272 C 0.89907 0.63165 0.24194 0.0
C273 C 0.92294 0.64893 0.21617 0.0
C274 C 0.92171 0.66146 0.16615 0.0
C275 C 0.8967 0.65477 0.13942 0.0
C276 C 0.87204 0.60145 0.06297 0.0
C277 C 0.87677 0.5831 0.09286 0.0
C278 C 0.8995 0.58091 0.08352 0.0
C279 C 0.91788 0.59703 0.04394 0.0
C280 C 0.91304 0.61544 0.01413 0.0
C281 C 0.89034 0.61767 0.0237 0.0
C282 C 0.82464 0.5712 0.98695 0.0
C283 C 0.81874 0.54435 0.99309 0.0
C284 C 0.82839 0.532 0.95483 0.0
C285 C 0.84455 0.54652 0.91037 0.0
C286 C 0.84803 0.57247 0.90124 0.0
C287 C 0.83788 0.58452 0.93878 0.0
C288 C 0.77538 0.57213 0.01262 0.0
C289 C 0.7521 0.54847 0.02585 0.0
C290 C 0.72825 0.5385 0.99088 0.0
C291 C 0.72756 0.55148 0.94083 0.0
C292 C 0.75167 0.57385 0.92536 0.0
C293 C 0.77522 0.58427 0.96134 0.0
C294 C 0.81982 0.67943 0.3392 0.0
C295 C 0.9421 0.59483 0.03398 0.0
H296 H 0.30871 0.86376 0.46041 0.0
H297 H 0.09184 0.60761 0.05346 0.0
H298 H 0.25977 0.85448 0.18151 0.0
H299 H 0.30379 0.88501 0.22844 0.0
H300 H 0.33733 0.84549 0.12442 0.0
H301 H 0.29226 0.81276 0.08352 0.0
H302 H 0.22553 0.81273 0.26861 0.0
H303 H 0.25462 0.83509 0.35736 0.0
H304 H 0.31299 0.81525 0.29407 0.0
H305 H 0.28358 0.79268 0.20607 0.0
H306 H 0.16633 0.74979 0.22518 0.0
H307 H 0.15149 0.72178 0.30752 0.0
H308 H 0.22543 0.71878 0.3144 0.0
H309 H 0.2382 0.74375 0.22779 0.0
H310 H 0.14495 0.74137 0.11598 0.0
H311 H 0.10524 0.69586 0.09773 0.0
H312 H 0.15713 0.6616 0.07775 0.0
H313 H 0.19664 0.70725 0.09606 0.0
H314 H 0.16044 0.76455 0.016 0.0
H315 H 0.13346 0.73353 0.93163 0.0
H316 H 0.19714 0.71588 0.90262 0.0
H317 H 0.2233 0.74577 0.98785 0.0
H318 H 0.22423 0.83772 0.03907 0.0
H319 H 0.24895 0.87075 0.96788 0.0
H320 H 0.28744 0.82474 0.92052 0.0
H321 H 0.26258 0.79179 0.99099 0.0
O322 O 0.297 0.85382 0.42621 0.0
O323 O 0.32678 0.84409 0.39035 0.0
O324 O 0.08138 0.64431 0.07361 0.0
O325 O 0.10718 0.62573 0.06207 0.0
C326 C 0.24589 0.8059 0.12483 0.0
C327 C 0.23643 0.7907 0.17412 0.0
C328 C 0.21218 0.76542 0.16917 0.0
C329 C 0.19758 0.75525 0.11465 0.0
C330 C 0.2072 0.77041 0.06537 0.0
C331 C 0.23116 0.79591 0.07063 0.0
C332 C 0.27269 0.83103 0.13027 0.0
C333 C 0.27682 0.85312 0.16729 0.0
C334 C 0.30232 0.87072 0.19411 0.0
C335 C 0.32431 0.86713 0.18229 0.0
C336 C 0.32075 0.84806 0.13692 0.0
C337 C 0.295 0.82972 0.112 0.0
C338 C 0.25253 0.80127 0.23081 0.0
C339 C 0.24441 0.81288 0.27447 0.0
C340 C 0.26115 0.82577 0.32492 0.0
C341 C 0.28626 0.82721 0.33253 0.0
C342 C 0.29387 0.81467 0.28947 0.0
C343 C 0.27709 0.80172 0.23922 0.0
C344 C 0.20329 0.74875 0.22018 0.0
C345 C 0.17903 0.74261 0.24396 0.0
C346 C 0.17088 0.72701 0.29203 0.0
C347 C 0.18725 0.71792 0.31854 0.0
C348 C 0.21187 0.72474 0.29498 0.0
C349 C 0.21948 0.73945 0.24575 0.0
C350 C 0.17358 0.72749 0.10758 0.0
C351 C 0.14765 0.72395 0.10814 0.0
C352 C 0.12503 0.69796 0.09754 0.0
C353 C 0.12801 0.67508 0.08617 0.0
C354 C 0.15411 0.67876 0.08634 0.0
C355 C 0.1767 0.70476 0.09699 0.0
C356 C 0.1939 0.75756 0.00754 0.0
C357 C 0.16879 0.75453 0.99036 0.0
C358 C 0.15343 0.73681 0.94255 0.0
C359 C 0.16334 0.72247 0.91079 0.0
C360 C 0.18925 0.72704 0.92587 0.0
C361 C 0.20429 0.74423 0.97427 0.0
C362 C 0.24149 0.81228 0.01987 0.0
C363 C 0.23734 0.83434 0.01192 0.0
C364 C 0.25145 0.85315 0.97144 0.0
C365 C 0.27018 0.85031 0.93918 0.0
C366 C 0.27318 0.8274 0.94511 0.0
C367 C 0.25884 0.80847 0.98493 0.0
C368 C 0.30461 0.84212 0.38472 0.0
C369 C 0.10407 0.6475 0.0737 0.0
H370 H 0.50882 0.31043 0.82129 0.0
H371 H 0.45762 0.06129 0.19603 0.0
H372 H 0.51191 0.29476 0.16402 0.0
H373 H 0.52119 0.33451 0.11351 0.0
H374 H 0.43682 0.2962 0.05401 0.0
H375 H 0.42856 0.25535 0.10113 0.0
H376 H 0.51776 0.27625 0.0518 0.0
H377 H 0.5218 0.2966 0.95906 0.0
H378 H 0.43803 0.23831 0.91059 0.0
H379 H 0.43425 0.21831 0.00387 0.0
H380 H 0.52807 0.23619 0.06674 0.0
H381 H 0.54626 0.22563 0.98224 0.0
H382 H 0.46731 0.15675 0.93082 0.0
H383 H 0.44917 0.16831 0.01428 0.0
H384 H 0.51781 0.19422 0.15531 0.0
H385 H 0.52102 0.15346 0.17077 0.0
H386 H 0.43412 0.10502 0.16363 0.0
H387 H 0.43123 0.14584 0.14737 0.0
H388 H 0.50606 0.21115 0.27069 0.0
H389 H 0.50021 0.17656 0.33722 0.0
H390 H 0.41391 0.13952 0.30912 0.0
H391 H 0.41997 0.17426 0.24248 0.0
H392 H 0.50265 0.25563 0.28501 0.0
H393 H 0.50253 0.28205 0.37077 0.0
H394 H 0.42514 0.27009 0.30866 0.0
H395 H 0.42498 0.24269 0.22345 0.0
O396 O 0.50661 0.3024 0.85816 0.0
O397 O 0.46355 0.27178 0.83493 0.0
O398 O 0.50145 0.10275 0.18606 0.0
O399 O 0.45694 0.0775 0.18752 0.0
C400 C 0.46797 0.24525 0.14082 0.0
C401 C 0.47309 0.23371 0.09113 0.0
C402 C 0.47659 0.21102 0.09515 0.0
C403 C 0.47239 0.198 0.14712 0.0
C404 C 0.46687 0.20911 0.19703 0.0
C405 C 0.46538 0.23323 0.19435 0.0
C406 C 0.46964 0.27207 0.13606 0.0
C407 C 0.49519 0.29546 0.14235 0.0
C408 C 0.50045 0.31833 0.11262 0.0
C409 C 0.47997 0.31869 0.07738 0.0
C410 C 0.45349 0.2965 0.0782 0.0
C411 C 0.44845 0.27329 0.10674 0.0
C412 C 0.47568 0.24593 0.03453 0.0
C413 C 0.5003 0.26798 0.02113 0.0
C414 C 0.50255 0.27953 0.96812 0.0
C415 C 0.48024 0.26907 0.92737 0.0
C416 C 0.4556 0.24686 0.94099 0.0
C417 C 0.45338 0.23538 0.99412 0.0
C418 C 0.48739 0.20293 0.04631 0.0
C419 C 0.51477 0.21886 0.03698 0.0
C420 C 0.5251 0.21283 0.98881 0.0
C421 C 0.5082 0.19056 0.94952 0.0
C422 C 0.48073 0.17447 0.9595 0.0
C423 C 0.47038 0.18069 0.00751 0.0
C424 C 0.4743 0.17291 0.15008 0.0
C425 C 0.49951 0.17469 0.15607 0.0
C426 C 0.50127 0.15142 0.16529 0.0
C427 C 0.4778 0.126 0.16881 0.0
C428 C 0.45257 0.12426 0.16134 0.0
C429 C 0.45085 0.14751 0.15183 0.0
C430 C 0.46343 0.19521 0.25168 0.0
C431 C 0.4859 0.1964 0.28117 0.0
C432 C 0.48252 0.17654 0.31905 0.0
C433 C 0.4566 0.15512 0.32772 0.0
C434 C 0.43413 0.15567 0.30279 0.0
C435 C 0.43753 0.17566 0.26521 0.0
C436 C 0.46381 0.24722 0.24812 0.0
C437 C 0.48535 0.25811 0.29057 0.0
C438 C 0.48532 0.27331 0.33934 0.0
C439 C 0.46387 0.2782 0.34624 0.0
C440 C 0.44177 0.26636 0.30478 0.0
C441 C 0.44177 0.25099 0.2559 0.0
C442 C 0.48283 0.28111 0.87072 0.0
C443 C 0.47955 0.10145 0.18117 0.0
C444 C 0.03931 0.48152 0.52501 0.0
C445 C 0.02415 0.43914 0.72707 0.0
C446 C 0.94793 0.43661 0.70839 0.0
Mg447 Mg 0.01994 0.52228 0.47807 0.0
Mg448 Mg 0.00696 0.55955 0.56857 0.0
O449 O 0.99748 0.524 0.54069 0.0
Mg450 Mg 0.00462 0.50239 0.59756 0.0
O451 O 0.0124 0.48031 0.65047 0.0
Mg452 Mg 0.99185 0.44366 0.60654 0.0
Mg453 Mg 0.00622 0.48279 0.72904 0.0
C454 C 0.96951 0.52579 0.66585 0.0
O455 O 0.03622 0.53979 0.65299 0.0
O456 O 0.00468 0.54644 0.42379 0.0
O457 O 0.02969 0.52743 0.74486 0.0
O458 O 0.05717 0.56309 0.50808 0.0
O459 O 0.99597 0.5707 0.49011 0.0
O460 O 0.05004 0.58597 0.57912 0.0
O461 O 0.97421 0.46342 0.54412 0.0
O462 O 0.98288 0.47995 0.45609 0.0
C463 C 0.96997 0.46019 0.48853 0.0
C464 C 0.99739 0.56394 0.43747 0.0
O465 O 0.97395 0.50594 0.65511 0.0
O466 O 0.0136 0.43031 0.67487 0.0
O467 O 0.98125 0.54819 0.64059 0.0
O468 O 0.9556 0.42928 0.6634 0.0
O469 O 0.02346 0.45885 0.7546 0.0
O470 O 0.96378 0.45852 0.73931 0.0
O471 O 0.03435 0.50063 0.53849 0.0
O472 O 0.0273 0.45878 0.54859 0.0
C473 C 0.06568 0.58343 0.54517 0.0
C474 C 0.04115 0.54539 0.70792 0.0
C475 C 0.48617 0.01644 0.4964 0.0
C476 C 0.56364 0.99691 0.43902 0.0
C477 C 0.52301 0.92862 0.5434 0.0
Mg478 Mg 0.4553 0.00347 0.61487 0.0
Mg479 Mg 0.48309 0.99797 0.7354 0.0
O480 O 0.47178 0.98463 0.65825 0.0
Mg481 Mg 0.49991 0.98953 0.60472 0.0
O482 O 0.52611 0.994 0.54681 0.0
Mg483 Mg 0.50048 0.96773 0.48282 0.0
Mg484 Mg 0.55556 0.99002 0.57101 0.0
C485 C 0.51305 0.96442 0.72095 0.0
O486 O 0.53472 0.0265 0.6556 0.0
O487 O 0.42294 0.98772 0.68379 0.0
O488 O 0.57073 0.02121 0.64357 0.0
O489 O 0.481 0.04522 0.66721 0.0
O490 O 0.44373 0.98408 0.76459 0.0
O491 O 0.50616 0.041 0.73719 0.0
O492 O 0.4669 0.95441 0.54665 0.0
O493 O 0.43347 0.96341 0.55846 0.0
C494 C 0.44299 0.94976 0.53324 0.0
C495 C 0.42268 0.98126 0.73651 0.0
O496 O 0.51091 0.96349 0.66507 0.0
O497 O 0.53799 0.98504 0.42703 0.0
O498 O 0.50526 0.97758 0.75354 0.0
O499 O 0.50851 0.93376 0.50875 0.0
O500 O 0.57415 0.00086 0.49095 0.0
O501 O 0.54219 0.94725 0.5769 0.0
O502 O 0.48873 0.01589 0.55151 0.0
O503 O 0.49116 0.0015 0.46181 0.0
C504 C 0.50009 0.05568 0.70724 0.0
C505 C 0.55961 0.03391 0.66603 0.0
C506 C 0.53084 0.56074 0.68881 0.0
C507 C 0.45819 0.48674 0.80913 0.0
C508 C 0.49801 0.44122 0.77259 0.0
Mg509 Mg 0.56069 0.55628 0.58142 0.0
Mg510 Mg 0.53149 0.50434 0.48472 0.0
O511 O 0.54266 0.51556 0.56297 0.0
Mg512 Mg 0.51583 0.50223 0.62492 0.0
O513 O 0.49191 0.49246 0.6915 0.0
Mg514 Mg 0.51941 0.50848 0.75946 0.0
Mg515 Mg 0.46359 0.45677 0.69874 0.0
C516 C 0.50502 0.44781 0.54722 0.0
O517 O 0.47782 0.48869 0.56464 0.0
O518 O 0.59184 0.56133 0.51488 0.0
O519 O 0.44681 0.45266 0.61035 0.0
O520 O 0.53629 0.5628 0.50877 0.0
O521 O 0.57107 0.52455 0.45115 0.0
O522 O 0.51043 0.52467 0.45294 0.0
O523 O 0.54988 0.51223 0.69155 0.0
O524 O 0.58382 0.54869 0.65639 0.0
C525 C 0.57468 0.53065 0.69381 0.0
C526 C 0.5918 0.54737 0.46955 0.0
O527 O 0.5067 0.45865 0.59841 0.0
O528 O 0.48389 0.50289 0.81428 0.0
O529 O 0.51145 0.46126 0.50147 0.0
O530 O 0.51246 0.46695 0.78345 0.0
O531 O 0.4464 0.46778 0.76827 0.0
O532 O 0.47799 0.43112 0.73486 0.0
O533 O 0.52698 0.54644 0.64183 0.0
O534 O 0.52762 0.5504 0.7377 0.0
C535 C 0.51846 0.54972 0.46704 0.0
C536 C 0.45416 0.46769 0.56701 0.0
H537 H 0.11884 0.43412 0.32041 0.0
H538 H 0.13904 0.5047 0.22263 0.0
H539 H 0.11409 0.51809 0.28812 0.0
H540 H 0.05067 0.41888 0.34712 0.0
H541 H 0.05244 0.40811 0.4185 0.0
H542 H 0.07139 0.40402 0.36285 0.0
H543 H 0.11508 0.43137 0.42993 0.0
H544 H 0.09644 0.43599 0.48551 0.0
H545 H 0.12469 0.46525 0.45895 0.0
H546 H 0.08877 0.52501 0.36812 0.0
H547 H 0.06196 0.52267 0.45053 0.0
H548 H 0.05686 0.4464 0.49233 0.0
C549 C 0.11752 0.45205 0.31173 0.0
C550 C 0.13095 0.46833 0.26619 0.0
C551 C 0.1292 0.49203 0.25755 0.0
C552 C 0.11501 0.49977 0.29444 0.0
C553 C 0.10248 0.48352 0.33954 0.0
C554 C 0.10331 0.45995 0.34778 0.0
C555 C 0.08827 0.44607 0.39952 0.0
C556 C 0.06426 0.41759 0.38086 0.0
C557 C 0.10726 0.4446 0.44623 0.0
C558 C 0.07896 0.46559 0.41936 0.0
C559 C 0.08746 0.48715 0.38449 0.0
C560 C 0.08175 0.50804 0.39532 0.0
C561 C 0.06653 0.50657 0.44238 0.0
C562 C 0.05696 0.48422 0.47771 0.0
C563 C 0.0636 0.46368 0.46602 0.0
H564 H 0.70111 0.10467 0.32004 0.0
H565 H 0.66238 0.0795 0.14635 0.0
H566 H 0.62197 0.04161 0.18456 0.0
H567 H 0.67202 0.03478 0.37194 0.0
H568 H 0.66896 0.04645 0.44331 0.0
H569 H 0.6957 0.06907 0.40069 0.0
H570 H 0.68002 0.10459 0.41192 0.0
H571 H 0.65319 0.08207 0.45409 0.0
H572 H 0.64568 0.09465 0.38989 0.0
H573 H 0.58356 0.01079 0.24471 0.0
H574 H 0.55198 0.988 0.32035 0.0
H575 H 0.61747 0.03283 0.45281 0.0
C576 C 0.68434 0.09071 0.29005 0.0
C577 C 0.68473 0.09468 0.23047 0.0
C578 C 0.66245 0.07636 0.19217 0.0
C579 C 0.63945 0.05491 0.21349 0.0
C580 C 0.63939 0.05191 0.27295 0.0
C581 C 0.66149 0.06907 0.31047 0.0
C582 C 0.65596 0.06268 0.37269 0.0
C583 C 0.67424 0.05264 0.39867 0.0
C584 C 0.65887 0.08746 0.40925 0.0
C585 C 0.62698 0.03995 0.3647 0.0
C586 C 0.61768 0.03383 0.307 0.0
C587 C 0.59078 0.015 0.28996 0.0
C588 C 0.57298 0.00225 0.33316 0.0
C589 C 0.58226 0.0084 0.39249 0.0
C590 C 0.60972 0.02721 0.40791 0.0
H591 H 0.53823 0.68436 0.33104 0.0
H592 H 0.47467 0.63266 0.19966 0.0
H593 H 0.46569 0.5921 0.25158 0.0
H594 H 0.56429 0.64077 0.34859 0.0
H595 H 0.5719 0.64828 0.42574 0.0
H596 H 0.57138 0.6733 0.38134 0.0
H597 H 0.53639 0.67572 0.4447 0.0
H598 H 0.53676 0.6506 0.48926 0.0
H599 H 0.50541 0.64491 0.45523 0.0
H600 H 0.46688 0.55655 0.31306 0.0
H601 H 0.47768 0.52971 0.37959 0.0
H602 H 0.53962 0.60501 0.47142 0.0
C603 C 0.52221 0.66454 0.31354 0.0
C604 C 0.50706 0.66176 0.2614 0.0
C605 C 0.48626 0.63541 0.24002 0.0
C606 C 0.48108 0.6122 0.2691 0.0
C607 C 0.49665 0.61564 0.31995 0.0
C608 C 0.51664 0.64121 0.34225 0.0
C609 C 0.53138 0.63933 0.39604 0.0
C610 C 0.56151 0.65111 0.38737 0.0
C611 C 0.52723 0.65348 0.44947 0.0
C612 C 0.51709 0.60869 0.39963 0.0
C613 C 0.49702 0.59531 0.35563 0.0
C614 C 0.48231 0.56685 0.34819 0.0
C615 C 0.48858 0.55176 0.38617 0.0
C616 C 0.50936 0.56514 0.43109 0.0
C617 C 0.52333 0.594 0.43819 0.0
H618 H 0.94717 0.6604 0.32448 0.0
H619 H 0.95097 0.63276 0.15008 0.0
H620 H 0.97767 0.61287 0.18755 0.0
H621 H 0.01549 0.66998 0.38746 0.0
H622 H 0.00053 0.65746 0.45448 0.0
H623 H 0.99025 0.6772 0.41251 0.0
H624 H 0.94076 0.63812 0.41224 0.0
H625 H 0.95074 0.61775 0.45179 0.0
H626 H 0.93168 0.60444 0.38278 0.0
H627 H 0.99232 0.58542 0.24559 0.0
H628 H -0.00056 0.55853 0.3187 0.0
H629 H 0.98473 0.60377 0.45426 0.0
C630 C 0.95522 0.65172 0.29418 0.0
C631 C 0.94739 0.64826 0.2347 0.0
C632 C 0.95731 0.63604 0.19582 0.0
C633 C 0.97232 0.62449 0.21682 0.0
C634 C 0.9776 0.62596 0.27656 0.0
C635 C 0.97007 0.64008 0.31461 0.0
C636 C 0.97422 0.63519 0.37679 0.0
C637 C 0.99646 0.66153 0.40974 0.0
C638 C 0.94778 0.62315 0.40761 0.0
C639 C 0.98328 0.61461 0.36764 0.0
C640 C 0.98569 0.60985 0.30987 0.0
C641 C 0.99127 0.58957 0.29115 0.0
C642 C 0.99494 0.57417 0.33282 0.0
C643 C 0.99259 0.57895 0.39223 0.0
C644 C 0.9868 0.59955 0.40932 0.0
H645 H 0.34676 0.91558 0.25045 0.0
H646 H 0.35643 0.84536 0.21183 0.0
H647 H 0.39089 0.86094 0.29259 0.0
H648 H 0.41502 0.96516 0.3116 0.0
H649 H 0.40131 0.97705 0.36688 0.0
H650 H 0.38313 0.96353 0.29729 0.0
H651 H 0.34184 0.92972 0.352 0.0
H652 H 0.36124 0.94266 0.42052 0.0
H653 H 0.34531 0.90682 0.39853 0.0
H654 H 0.42207 0.88237 0.38409 0.0
H655 H 0.44543 0.90701 0.47869 0.0
H656 H 0.40919 0.95793 0.46297 0.0
C657 C 0.35618 0.90347 0.25812 0.0
C658 C 0.34873 0.8793 0.22363 0.0
C659 C 0.36211 0.86447 0.23575 0.0
C660 C 0.38161 0.87296 0.2823 0.0
C661 C 0.38727 0.89604 0.31707 0.0
C662 C 0.3748 0.91097 0.3056 0.0
C663 C 0.38144 0.93269 0.3535 0.0
C664 C 0.39614 0.9613 0.3309 0.0
C665 C 0.35594 0.92765 0.38285 0.0
C666 C 0.39981 0.92783 0.3935 0.0
C667 C 0.40328 0.90686 0.37168 0.0
C668 C 0.41946 0.89881 0.40167 0.0
C669 C 0.43252 0.91276 0.45529 0.0
C670 C 0.42867 0.93393 0.47853 0.0
C671 C 0.4121 0.94142 0.447 0.0
H672 H 0.50743 0.32785 0.37516 0.0
H673 H 0.42544 0.27462 0.41865 0.0
H674 H 0.42937 0.31099 0.48875 0.0
H675 H 0.53551 0.36401 0.52061 0.0
H676 H 0.55627 0.39587 0.48922 0.0
H677 H 0.54822 0.36413 0.45071 0.0
H678 H 0.52897 0.37691 0.36174 0.0
H679 H 0.53694 0.40857 0.39981 0.0
H680 H 0.50291 0.38537 0.37093 0.0
H681 H 0.44142 0.35542 0.54703 0.0
H682 H 0.45881 0.40405 0.57977 0.0
H683 H 0.53182 0.42691 0.49377 0.0
C684 C 0.49059 0.32344 0.40091 0.0
C685 C 0.46632 0.29832 0.39242 0.0
C686 C 0.4443 0.29375 0.42499 0.0
C687 C 0.44644 0.31418 0.46511 0.0
C688 C 0.47071 0.33895 0.47189 0.0
C689 C 0.49234 0.34354 0.4404 0.0
C690 C 0.51503 0.37269 0.44961 0.0
C691 C 0.54025 0.37425 0.47932 0.0
C692 C 0.5213 0.38669 0.39213 0.0
C693 C 0.50255 0.38418 0.4897 0.0
C694 C 0.47725 0.36441 0.50346 0.0
C695 C 0.46136 0.37094 0.5372 0.0
C696 C 0.47135 0.39847 0.55579 0.0
C697 C 0.49661 0.41884 0.53931 0.0
C698 C 0.51254 0.41149 0.50724 0.0
H699 H 0.50629 0.84715 0.90412 0.0
H700 H 0.57292 0.9117 0.01372 0.0
H701 H 0.57838 0.94446 0.94182 0.0
H702 H 0.53013 0.87185 0.76285 0.0
H703 H 0.4969 0.86239 0.73323 0.0
H704 H 0.50095 0.84346 0.78955 0.0
H705 H 0.46931 0.85304 0.85132 0.0
H706 H 0.46577 0.8721 0.79487 0.0
H707 H 0.4775 0.88783 0.8674 0.0
H708 H 0.57551 0.97087 0.86111 0.0
H709 H 0.56012 0.99032 0.78521 0.0
H710 H 0.49348 0.90983 0.73089 0.0
C711 C 0.52191 0.86819 0.91369 0.0
C712 C 0.53932 0.87656 0.965 0.0
C713 C 0.55967 0.90438 0.97453 0.0
C714 C 0.56295 0.92325 0.93381 0.0
C715 C 0.54562 0.91418 0.88376 0.0
C716 C 0.52518 0.88742 0.87402 0.0
C717 C 0.50755 0.88358 0.81967 0.0
C718 C 0.50897 0.86413 0.77363 0.0
C719 C 0.47831 0.87356 0.8342 0.0
C720 C 0.52103 0.91248 0.80087 0.0
C721 C 0.54334 0.92966 0.83783 0.0
C722 C 0.55832 0.95757 0.83149 0.0
C723 C 0.5496 0.9684 0.78797 0.0
C724 C 0.52613 0.95142 0.75141 0.0
C725 C 0.51207 0.92302 0.75688 0.0
H726 H 0.71257 0.5837 0.88266 0.0
H727 H 0.68361 0.4995 0.921 0.0
H728 H 0.64014 0.48595 0.86832 0.0
H729 H 0.65078 0.58397 0.88937 0.0
H730 H 0.65638 0.60442 0.82839 0.0
H731 H 0.68463 0.60803 0.87279 0.0
H732 H 0.70415 0.59797 0.78216 0.0
H733 H 0.67613 0.59464 0.73741 0.0
H734 H 0.68347 0.56722 0.73632 0.0
H735 H 0.59969 0.48169 0.81263 0.0
H736 H 0.56713 0.48578 0.74731 0.0
H737 H 0.62441 0.57187 0.73705 0.0
C738 C 0.69739 0.5623 0.87949 0.0
C739 C 0.70168 0.54276 0.90665 0.0
C740 C 0.68078 0.51507 0.90195 0.0
C741 C 0.65601 0.5071 0.87183 0.0
C742 C 0.65259 0.52698 0.84592 0.0
C743 C 0.67285 0.5539 0.8486 0.0
C744 C 0.66466 0.57099 0.81406 0.0
C745 C 0.66408 0.59316 0.85353 0.0
C746 C 0.6832 0.58343 0.76455 0.0
C747 C 0.6366 0.54938 0.79117 0.0
C748 C 0.62984 0.52425 0.81102 0.0
C749 C 0.60482 0.50121 0.79651 0.0
C750 C 0.58643 0.5038 0.75964 0.0
C751 C 0.59336 0.52915 0.73697 0.0
C752 C 0.61868 0.55224 0.75346 0.0
H753 H 0.11313 0.67986 0.92289 0.0
H754 H 0.17503 0.71462 0.80113 0.0
H755 H 0.14882 0.67368 0.73346 0.0
H756 H 0.10144 0.6141 0.90481 0.0
H757 H 0.06552 0.59701 0.91027 0.0
H758 H 0.08671 0.63051 0.94551 0.0
H759 H 0.05936 0.64872 0.8913 0.0
H760 H 0.03758 0.61514 0.85649 0.0
H761 H 0.05444 0.64397 0.81335 0.0
H762 H 0.11897 0.62754 0.68491 0.0
H763 H 0.08584 0.5795 0.65529 0.0
H764 H 0.04273 0.57438 0.80782 0.0
C765 C 0.12063 0.6792 0.88106 0.0
C766 C 0.14583 0.70042 0.86654 0.0
C767 C 0.15562 0.69856 0.81252 0.0
C768 C 0.1409 0.67545 0.77398 0.0
C769 C 0.11652 0.65448 0.79035 0.0
C770 C 0.10628 0.6562 0.8423 0.0
C771 C 0.08061 0.62993 0.8513 0.0
C772 C 0.08378 0.61713 0.90621 0.0
C773 C 0.05657 0.63473 0.8532 0.0
C774 C 0.0784 0.61293 0.79697 0.0
C775 C 0.09922 0.62762 0.76225 0.0
C776 C 0.10226 0.61603 0.71106 0.0
C777 C 0.08327 0.58883 0.69439 0.0
C778 C 0.0614 0.57359 0.72842 0.0
C779 C 0.05914 0.5857 0.78077 0.0
H780 H 0.48535 0.17203 0.83927 0.0
H781 H 0.5557 0.19041 0.95074 0.0
H782 H 0.56932 0.16814 0.87733 0.0
H783 H 0.46587 0.10928 0.80806 0.0
H784 H 0.45398 0.10578 0.73313 0.0
H785 H 0.45549 0.13219 0.78081 0.0
H786 H 0.48564 0.16846 0.71214 0.0
H787 H 0.48415 0.14186 0.66384 0.0
H788 H 0.51629 0.17013 0.69138 0.0
H789 H 0.56729 0.13241 0.81301 0.0
H790 H 0.54957 0.08684 0.7643 0.0
H791 H 0.48079 0.09006 0.69035 0.0
C792 C 0.50414 0.1722 0.84703 0.0
C793 C 0.51941 0.18285 0.90058 0.0
C794 C 0.54386 0.18276 0.90965 0.0
C795 C 0.55182 0.17019 0.86795 0.0
C796 C 0.5353 0.15807 0.81717 0.0
C797 C 0.51214 0.15942 0.80594 0.0
C798 C 0.49501 0.14016 0.75461 0.0
C799 C 0.46592 0.12071 0.77017 0.0
C800 C 0.49531 0.15611 0.7024 0.0
C801 C 0.5103 0.12527 0.7438 0.0
C802 C 0.53417 0.1368 0.77845 0.0
C803 C 0.54921 0.1238 0.78415 0.0
C804 C 0.53892 0.09779 0.75654 0.0
C805 C 0.51388 0.08513 0.7235 0.0
C806 C 0.50027 0.09967 0.71436 0.0
H807 H 0.32147 0.44423 0.95437 0.0
H808 H 0.3447 0.53 0.96528 0.0
H809 H 0.38892 0.54156 0.93074 0.0
H810 H 0.38562 0.45191 0.99487 0.0
H811 H 0.38166 0.42529 0.94314 0.0
H812 H 0.35247 0.42386 0.97251 0.0
H813 H 0.33179 0.42065 0.8687 0.0
H814 H 0.36069 0.42161 0.83915 0.0
H815 H 0.35109 0.4462 0.81985 0.0
H816 H 0.43131 0.54381 0.89657 0.0
H817 H 0.46496 0.53584 0.84953 0.0
H818 H 0.4118 0.44854 0.85202 0.0
C819 C 0.33548 0.46545 0.94856 0.0
C820 C 0.32938 0.48616 0.96318 0.0
C821 C 0.34888 0.51369 0.95574 0.0
C822 C 0.37412 0.52051 0.93602 0.0
C823 C 0.37951 0.49958 0.92308 0.0
C824 C 0.36049 0.47258 0.92785 0.0
C825 C 0.37052 0.45374 0.90757 0.0
C826 C 0.37269 0.43776 0.95751 0.0
C827 C 0.35246 0.43442 0.85573 0.0
C828 C 0.39807 0.47436 0.88985 0.0
C829 C 0.4032 0.50075 0.9005 0.0
C830 C 0.42746 0.52323 0.88786 0.0
C831 C 0.44654 0.51854 0.86166 0.0
C832 C 0.44091 0.49161 0.84736 0.0
C833 C 0.41659 0.46934 0.86269 0.0
H834 H 0.8551 0.35296 0.95278 0.0
H835 H 0.81091 0.28739 0.81946 0.0
H836 H 0.83417 0.319 0.74411 0.0
H837 H 0.86045 0.4103 0.86676 0.0
H838 H 0.89436 0.43331 0.89654 0.0
H839 H 0.87072 0.40716 0.93931 0.0
H840 H 0.90375 0.389 0.95463 0.0
H841 H 0.92746 0.41509 0.91231 0.0
H842 H 0.91609 0.37974 0.89236 0.0
H843 H 0.8659 0.35534 0.68502 0.0
H844 H 0.90585 0.39296 0.6464 0.0
H845 H 0.93062 0.43544 0.8176 0.0
C846 C 0.8498 0.34564 0.90754 0.0
C847 C 0.83102 0.31797 0.89146 0.0
C848 C 0.82511 0.30864 0.83222 0.0
C849 C 0.83809 0.32646 0.78926 0.0
C850 C 0.85697 0.35355 0.80635 0.0
C851 C 0.86287 0.36316 0.86408 0.0
C852 C 0.88638 0.39219 0.87113 0.0
C853 C 0.87743 0.41191 0.89484 0.0
C854 C 0.9098 0.3941 0.90987 0.0
C855 C 0.89348 0.39695 0.80872 0.0
C856 C 0.87585 0.37461 0.77198 0.0
C857 C 0.87957 0.37315 0.71316 0.0
C858 C 0.90238 0.39463 0.69162 0.0
C859 C 0.92134 0.41723 0.72887 0.0
C860 C 0.91626 0.41873 0.78778 0.0
H861 H 0.85979 0.55477 0.79768 0.0
H862 H 0.86606 0.5159 0.95068 0.0
H863 H 0.89544 0.5028 0.90153 0.0
H864 H 0.86364 0.50866 0.68826 0.0
H865 H 0.88448 0.53603 0.64454 0.0
H866 H 0.86071 0.53886 0.68846 0.0
H867 H 0.89922 0.58434 0.73834 0.0
H868 H 0.9231 0.5816 0.69481 0.0
H869 H 0.92837 0.58514 0.7727 0.0
H870 H 0.92715 0.49669 0.83804 0.0
H871 H 0.95953 0.50002 0.76703 0.0
H872 H 0.93512 0.5457 0.65949 0.0
C873 C 0.8671 0.54336 0.82102 0.0
C874 C 0.86006 0.53614 0.87811 0.0
C875 C 0.87024 0.52105 0.9064 0.0
C876 C 0.88725 0.51368 0.87899 0.0
C877 C 0.89423 0.52171 0.82337 0.0
C878 C 0.88452 0.5363 0.7948 0.0
C879 C 0.89683 0.5445 0.73729 0.0
C880 C 0.87511 0.53121 0.68665 0.0
C881 C 0.91283 0.57574 0.73573 0.0
C882 C 0.91529 0.53263 0.7384 0.0
C883 C 0.91322 0.51917 0.78794 0.0
C884 C 0.92873 0.50697 0.79884 0.0
C885 C 0.94691 0.50874 0.75814 0.0
C886 C 0.94958 0.5228 0.7076 0.0
C887 C 0.9335 0.53482 0.69782 0.0
H888 H 0.32464 0.87586 0.94775 0.0
H889 H 0.25747 0.87492 0.85323 0.0
H890 H 0.28939 0.91144 0.79419 0.0
H891 H 0.37016 0.94925 0.9515 0.0
H892 H 0.39935 0.94568 0.94369 0.0
H893 H 0.37111 0.92048 0.97912 0.0
H894 H 0.3677 0.88238 0.90719 0.0
H895 H 0.39599 0.90742 0.87186 0.0
H896 H 0.36458 0.88524 0.83036 0.0
H897 H 0.32946 0.94561 0.74028 0.0
H898 H 0.37327 0.97471 0.6993 0.0
H899 H 0.41313 0.95406 0.83477 0.0
C900 C 0.31667 0.88337 0.91459 0.0
C901 C 0.2887 0.87249 0.90433 0.0
C902 C 0.27892 0.88306 0.86141 0.0
C903 C 0.29687 0.90375 0.82786 0.0
C904 C 0.32446 0.9139 0.83877 0.0
C905 C 0.33422 0.90416 0.88161 0.0
C906 C 0.36455 0.91791 0.88463 0.0
C907 C 0.37702 0.93431 0.94321 0.0
C908 C 0.37373 0.897 0.87277 0.0
C909 C 0.37045 0.93651 0.83583 0.0
C910 C 0.34719 0.93404 0.80973 0.0
C911 C 0.34781 0.94799 0.76103 0.0
C912 C 0.37278 0.96448 0.73806 0.0
C913 C 0.39675 0.96696 0.76406 0.0
C914 C 0.39538 0.95312 0.81425 0.0
H915 H 0.45309 0.31599 0.97174 0.0
H916 H 0.52234 0.37209 0.08828 0.0
H917 H 0.53704 0.40573 0.01541 0.0
H918 H 0.48198 0.33472 0.83552 0.0
H919 H 0.45287 0.33362 0.80032 0.0
H920 H 0.4489 0.31229 0.85891 0.0
H921 H 0.42415 0.33295 0.9142 0.0
H922 H 0.42795 0.35407 0.85537 0.0
H923 H 0.44026 0.36944 0.92798 0.0
H924 H 0.5456 0.43288 0.92947 0.0
H925 H 0.54204 0.45673 0.84659 0.0
H926 H 0.4639 0.38663 0.79089 0.0
C927 C 0.47114 0.3354 0.98297 0.0
C928 C 0.48684 0.34063 0.03609 0.0
C929 C 0.51037 0.36662 0.04751 0.0
C930 C 0.51892 0.38613 0.00631 0.0
C931 C 0.5034 0.3799 0.95421 0.0
C932 C 0.47952 0.3556 0.94316 0.0
C933 C 0.46519 0.3554 0.88624 0.0
C934 C 0.46205 0.33263 0.84269 0.0
C935 C 0.43777 0.35282 0.89658 0.0
C936 C 0.48493 0.38336 0.867 0.0
C937 C 0.50711 0.39676 0.90638 0.0
C938 C 0.52819 0.42275 0.89866 0.0
C939 C 0.52597 0.43608 0.85111 0.0
C940 C 0.50254 0.42374 0.81227 0.0
C941 C 0.48215 0.39659 0.81938 0.0
H942 H 0.12512 0.44967 0.9798 0.0
H943 H 0.15821 0.4162 0.85785 0.0
H944 H 0.1213 0.40659 0.78449 0.0
H945 H 0.0543 0.40208 0.93638 0.0
H946 H 0.04498 0.42789 0.94638 0.0
H947 H 0.0729 0.43024 0.98995 0.0
H948 H 0.10434 0.47863 0.95676 0.0
H949 H 0.07647 0.47656 0.91397 0.0
H950 H 0.1068 0.48355 0.88037 0.0
H951 H 0.08242 0.40417 0.72232 0.0
H952 H 0.04708 0.41154 0.67625 0.0
H953 H 0.03939 0.44499 0.84167 0.0
C954 C 0.12464 0.44038 0.93759 0.0
C955 C 0.14453 0.43383 0.92417 0.0
C956 C 0.14304 0.42129 0.86885 0.0
C957 C 0.12213 0.41568 0.82712 0.0
C958 C 0.10276 0.42238 0.84187 0.0
C959 C 0.10388 0.43443 0.89589 0.0
C960 C 0.08153 0.4409 0.90047 0.0
C961 C 0.06229 0.42428 0.94599 0.0
C962 C 0.09298 0.47173 0.91362 0.0
C963 C 0.06811 0.43148 0.83994 0.0
C964 C 0.08032 0.42052 0.80677 0.0
C965 C 0.07244 0.41234 0.74813 0.0
C966 C 0.05226 0.41645 0.72238 0.0
C967 C 0.04047 0.42881 0.75537 0.0
C968 C 0.04791 0.43538 0.81526 0.0
H969 H 0.66862 0.14037 0.90456 0.0
H970 H 0.68277 0.20359 0.78937 0.0
H971 H 0.64386 0.16979 0.72337 0.0
H972 H 0.65455 0.08895 0.80001 0.0
H973 H 0.6289 0.06201 0.83789 0.0
H974 H 0.65515 0.09219 0.87782 0.0
H975 H 0.61844 0.10062 0.92469 0.0
H976 H 0.59324 0.06934 0.8856 0.0
H977 H 0.59276 0.10058 0.87764 0.0
H978 H 0.60531 0.12822 0.66809 0.0
H979 H 0.57249 0.08206 0.62402 0.0
H980 H 0.58608 0.04596 0.77347 0.0
C981 C 0.66311 0.14705 0.86584 0.0
C982 C 0.67822 0.1743 0.8516 0.0
C983 C 0.67104 0.18268 0.80065 0.0
C984 C 0.64902 0.16369 0.76334 0.0
C985 C 0.63465 0.13668 0.7782 0.0
C986 C 0.64142 0.12843 0.82835 0.0
C987 C 0.62431 0.09798 0.83246 0.0
C988 C 0.64177 0.08449 0.83731 0.0
C989 C 0.6061 0.09173 0.8831 0.0
C990 C 0.60789 0.08998 0.77513 0.0
C991 C 0.61345 0.11268 0.74534 0.0
C992 C 0.60077 0.11038 0.69114 0.0
C993 C 0.58224 0.0842 0.66654 0.0
C994 C 0.57711 0.06084 0.69566 0.0
C995 C 0.58986 0.06368 0.75069 0.0
H996 H 0.5893 0.70116 0.85701 0.0
H997 H 0.54429 0.71908 0.72921 0.0
H998 H 0.54126 0.68251 0.66174 0.0
H999 H 0.62178 0.67291 0.7515 0.0
H1000 H 0.6166 0.64717 0.80061 0.0
H1001 H 0.62424 0.68062 0.82859 0.0
H1002 H 0.58129 0.65845 0.8853 0.0
H1003 H 0.57315 0.62518 0.85688 0.0
H1004 H 0.54908 0.63647 0.84641 0.0
H1005 H 0.53342 0.63774 0.61928 0.0
H1006 H 0.51985 0.58878 0.60888 0.0
H1007 H 0.5672 0.5989 0.76816 0.0
C1008 C 0.58033 0.6985 0.81342 0.0
C1009 C 0.56749 0.71312 0.79764 0.0
C1010 C 0.55459 0.70824 0.74151 0.0
C1011 C 0.55289 0.6876 0.70294 0.0
C1012 C 0.56418 0.67214 0.72139 0.0
C1013 C 0.57793 0.6776 0.77536 0.0
C1014 C 0.58296 0.65483 0.7907 0.0
C1015 C 0.61319 0.66446 0.79294 0.0
C1016 C 0.57087 0.64305 0.84811 0.0
C1017 C 0.56805 0.63476 0.73928 0.0
C1018 C 0.55831 0.64542 0.69846 0.0
C1019 C 0.54147 0.62941 0.65028 0.0
C1020 C 0.53376 0.60167 0.64478 0.0
C1021 C 0.54233 0.59033 0.68819 0.0
C1022 C 0.56037 0.60726 0.73461 0.0
H1023 H 0.48153 0.15102 0.42877 0.0
H1024 H 0.42542 0.10298 0.28245 0.0
H1025 H 0.4239 0.06165 0.31565 0.0
H1026 H 0.5193 0.11847 0.42742 0.0
H1027 H 0.52442 0.11896 0.50489 0.0
H1028 H 0.51898 0.14456 0.47408 0.0
H1029 H 0.47874 0.13169 0.53723 0.0
H1030 H 0.48417 0.1061 0.56848 0.0
H1031 H 0.45167 0.09678 0.53428 0.0
H1032 H 0.43334 0.02737 0.35484 0.0
H1033 H 0.45016 0.00042 0.40392 0.0
H1034 H 0.49787 0.06865 0.52997 0.0
C1035 C 0.46844 0.13164 0.4047 0.0
C1036 C 0.45324 0.13015 0.3535 0.0
C1037 C 0.43669 0.10453 0.32251 0.0
C1038 C 0.4358 0.08093 0.34086 0.0
C1039 C 0.45126 0.08312 0.39087 0.0
C1040 C 0.46694 0.10766 0.42308 0.0
C1041 C 0.48259 0.10436 0.47365 0.0
C1042 C 0.51313 0.12267 0.46973 0.0
C1043 C 0.47376 0.11007 0.53185 0.0
C1044 C 0.47392 0.07437 0.46343 0.0
C1045 C 0.45585 0.06263 0.41533 0.0
C1046 C 0.44687 0.03602 0.39352 0.0
C1047 C 0.45659 0.02093 0.42147 0.0
C1048 C 0.47486 0.03233 0.47112 0.0
C1049 C 0.48334 0.05927 0.49293 0.0
H1050 H 0.30679 0.42086 0.43556 0.0
H1051 H 0.3372 0.4319 0.26492 0.0
H1052 H 0.3822 0.44364 0.30806 0.0
H1053 H 0.36341 0.47467 0.51016 0.0
H1054 H 0.36159 0.45724 0.57458 0.0
H1055 H 0.33142 0.44767 0.52984 0.0
H1056 H 0.3211 0.39761 0.5188 0.0
H1057 H 0.35107 0.40694 0.56429 0.0
H1058 H 0.34627 0.39046 0.49301 0.0
H1059 H 0.42506 0.45978 0.37194 0.0
H1060 H 0.46096 0.47276 0.45059 0.0
H1061 H 0.40108 0.44782 0.57742 0.0
C1062 C 0.32283 0.42511 0.40744 0.0
C1063 C 0.31881 0.42536 0.34725 0.0
C1064 C 0.3401 0.43132 0.31124 0.0
C1065 C 0.36565 0.43812 0.33533 0.0
C1066 C 0.36923 0.43833 0.39524 0.0
C1067 C 0.34824 0.43136 0.43063 0.0
C1068 C 0.35738 0.43353 0.49364 0.0
C1069 C 0.35321 0.45453 0.5291 0.0
C1070 C 0.34311 0.40546 0.5189 0.0
C1071 C 0.3869 0.44346 0.48834 0.0
C1072 C 0.3935 0.44635 0.43141 0.0
C1073 C 0.42005 0.45706 0.41661 0.0
C1074 C 0.44028 0.46456 0.46134 0.0
C1075 C 0.43358 0.4609 0.5196 0.0
C1076 C 0.40661 0.45028 0.533 0.0
H1077 H 0.88284 0.35958 0.21717 0.0
H1078 H 0.8724 0.29204 0.31554 0.0
H1079 H 0.89899 0.32439 0.39969 0.0
H1080 H 0.95151 0.40684 0.27317 0.0
H1081 H 0.94666 0.43588 0.27321 0.0
H1082 H 0.92737 0.40718 0.22139 0.0
H1083 H 0.88327 0.40295 0.25665 0.0
H1084 H 0.90242 0.43138 0.30916 0.0
H1085 H 0.87702 0.39911 0.33227 0.0
H1086 H 0.925 0.36468 0.47491 0.0
H1087 H 0.95229 0.40957 0.53026 0.0
H1088 H 0.94577 0.4497 0.38008 0.0
C1089 C 0.8864 0.35169 0.25631 0.0
C1090 C 0.8758 0.32348 0.2601 0.0
C1091 C 0.88078 0.31373 0.3118 0.0
C1092 C 0.8956 0.33188 0.35984 0.0
C1093 C 0.90541 0.35964 0.35506 0.0
C1094 C 0.90132 0.36947 0.30423 0.0
C1095 C 0.9142 0.40013 0.30962 0.0
C1096 C 0.93625 0.41327 0.26683 0.0
C1097 C 0.89295 0.40889 0.30146 0.0
C1098 C 0.92606 0.40608 0.37152 0.0
C1099 C 0.92066 0.38256 0.39742 0.0
C1100 C 0.92949 0.38325 0.4549 0.0
C1101 C 0.94481 0.40878 0.48612 0.0
C1102 C 0.95128 0.43308 0.45933 0.0
C1103 C 0.94136 0.4315 0.40166 0.0
H1104 H 0.55979 0.84266 0.34426 0.0
H1105 H 0.47535 0.78034 0.33503 0.0
H1106 H 0.46913 0.80272 0.42191 0.0
H1107 H 0.56928 0.85406 0.5091 0.0
H1108 H 0.59151 0.89014 0.50468 0.0
H1109 H 0.59061 0.86616 0.44966 0.0
H1110 H 0.58029 0.8912 0.37021 0.0
H1111 H 0.5814 0.91521 0.42472 0.0
H1112 H 0.55182 0.89623 0.37556 0.0
H1113 H 0.46984 0.83652 0.4944 0.0
H1114 H 0.47746 0.87935 0.54453 0.0
H1115 H 0.56195 0.91829 0.51332 0.0
C1116 C 0.54024 0.83307 0.36187 0.0
C1117 C 0.51808 0.8097 0.33283 0.0
C1118 C 0.49259 0.79836 0.35618 0.0
C1119 C 0.48894 0.81075 0.40599 0.0
C1120 C 0.51106 0.83422 0.43265 0.0
C1121 C 0.53631 0.84511 0.41171 0.0
C1122 C 0.55595 0.87237 0.44339 0.0
C1123 C 0.57815 0.87056 0.47882 0.0
C1124 C 0.56804 0.89507 0.40095 0.0
C1125 C 0.53738 0.87601 0.48271 0.0
C1126 C 0.51167 0.85347 0.4768 0.0
C1127 C 0.49006 0.85383 0.50125 0.0
C1128 C 0.49454 0.87816 0.52993 0.0
C1129 C 0.52045 0.90163 0.53442 0.0
C1130 C 0.5423 0.90013 0.51298 0.0
H1131 H 0.68275 0.54735 0.21725 0.0
H1132 H 0.73882 0.63231 0.27133 0.0
H1133 H 0.70923 0.63053 0.34751 0.0
H1134 H 0.62158 0.54947 0.24133 0.0
H1135 H 0.60445 0.51573 0.26696 0.0
H1136 H 0.62964 0.52414 0.21553 0.0
H1137 H 0.65556 0.50916 0.2851 0.0
H1138 H 0.6306 0.50095 0.33697 0.0
H1139 H 0.66558 0.52454 0.3582 0.0
H1140 H 0.67469 0.61872 0.42121 0.0
H1141 H 0.636 0.5989 0.48203 0.0
H1142 H 0.60216 0.52171 0.37902 0.0
C1143 C 0.68868 0.56562 0.24489 0.0
C1144 C 0.71299 0.59003 0.23815 0.0
C1145 C 0.72005 0.61353 0.27506 0.0
C1146 C 0.70349 0.61265 0.31877 0.0
C1147 C 0.67986 0.58815 0.3248 0.0
C1148 C 0.6723 0.56515 0.28847 0.0
C1149 C 0.64592 0.54137 0.30418 0.0
C1150 C 0.62411 0.53214 0.25402 0.0
C1151 C 0.64966 0.51761 0.32219 0.0
C1152 C 0.63993 0.55453 0.35534 0.0
C1153 C 0.65982 0.58147 0.36672 0.0
C1154 C 0.65891 0.59768 0.41249 0.0
C1155 C 0.63688 0.58617 0.44699 0.0
C1156 C 0.61593 0.55873 0.43541 0.0
C1157 C 0.61772 0.54276 0.38906 0.0
H1158 H 0.15453 0.71736 0.40381 0.0
H1159 H 0.19805 0.67733 0.34573 0.0
H1160 H 0.17995 0.64572 0.42191 0.0
H1161 H 0.15375 0.70284 0.56229 0.0
H1162 H 0.11953 0.69566 0.56476 0.0
H1163 H 0.14182 0.7205 0.51779 0.0
H1164 H 0.10771 0.69429 0.42946 0.0
H1165 H 0.08534 0.66983 0.47627 0.0
H1166 H 0.0961 0.65854 0.41421 0.0
H1167 H 0.15096 0.61289 0.48811 0.0
H1168 H 0.10982 0.57896 0.53039 0.0
H1169 H 0.08247 0.63743 0.54424 0.0
C1170 C 0.16067 0.70226 0.40745 0.0
C1171 C 0.17818 0.70038 0.3686 0.0
C1172 C 0.18551 0.68014 0.37558 0.0
C1173 C 0.17524 0.66189 0.41899 0.0
C1174 C 0.15747 0.66385 0.45526 0.0
C1175 C 0.15008 0.68343 0.44978 0.0
C1176 C 0.12699 0.67808 0.48673 0.0
C1177 C 0.13608 0.70061 0.53581 0.0
C1178 C 0.10261 0.67498 0.44944 0.0
C1179 C 0.12129 0.65134 0.51047 0.0
C1180 C 0.13984 0.64409 0.49352 0.0
C1181 C 0.13676 0.61863 0.50306 0.0
C1182 C 0.11337 0.59949 0.52722 0.0
C1183 C 0.09336 0.60588 0.54129 0.0
C1184 C 0.09802 0.63253 0.5358 0.0
loop_
_geom_bond_atom_site_label_1
_geom_bond_atom_site_label_2
_geom_bond_distance
_geom_bond_site_symmetry_2
_ccdc_geom_bond_type
H0 O26 0.856 . S
H1 O29 0.854 . S
H2 C37 0.930 . S
H3 C38 0.930 . S
H4 C40 0.930 . S
H5 C41 0.930 . S
H6 C43 0.931 . S
H7 C44 0.930 . S
H8 C46 0.930 . S
H9 C47 0.929 . S
H10 C49 0.930 . S
H11 C50 0.931 . S
H12 C52 0.930 . S
H13 C53 0.929 . S
H14 C55 0.931 . S
H15 C56 0.930 . S
H16 C58 0.930 . S
H17 C59 0.932 . S
H18 C61 0.930 . S
H19 C62 0.929 1_556 S
H20 C64 0.931 . S
H21 C65 0.930 . S
H22 C67 0.929 . S
H23 C68 0.931 . S
H24 C70 0.930 . S
H25 C71 0.929 . S
O26 H0 0.856 . S
O26 C72 1.300 . S
O27 C72 1.209 . S
O28 C73 1.199 . S
O29 H1 0.854 . S
O29 C73 1.297 . S
C30 C31 1.404 . S
C30 C35 1.397 . S
C30 C36 1.492 . S
C31 C30 1.404 . S
C31 C32 1.396 . S
C31 C42 1.492 . S
C32 C31 1.396 . S
C32 C33 1.397 . S
C32 C48 1.509 . S
C33 C32 1.397 . S
C33 C34 1.412 . S
C33 C54 1.485 . S
C34 C33 1.412 . S
C34 C35 1.388 . S
C34 C60 1.490 . S
C35 C30 1.397 . S
C35 C34 1.388 . S
C35 C66 1.519 . S
C36 C30 1.492 . S
C36 C37 1.363 . S
C36 C41 1.390 . S
C37 H2 0.930 . S
C37 C36 1.363 . S
C37 C38 1.372 . S
C38 H3 0.930 . S
C38 C37 1.372 . S
C38 C39 1.383 . S
C39 C38 1.383 . S
C39 C40 1.395 . S
C40 H4 0.930 . S
C40 C39 1.395 . S
C40 C41 1.362 . S
C41 H5 0.930 . S
C41 C36 1.390 . S
C41 C40 1.362 . S
C42 C31 1.492 . S
C42 C43 1.377 . S
C42 C47 1.397 . S
C43 H6 0.931 . S
C43 C42 1.377 . S
C43 C44 1.376 . S
C44 H7 0.930 . S
C44 C43 1.376 . S
C44 C45 1.376 . S
C45 C44 1.376 . S
C45 C46 1.378 . S
C45 C72 1.486 . S
C46 H8 0.930 . S
C46 C45 1.378 . S
C46 C47 1.376 . S
C47 H9 0.929 . S
C47 C42 1.397 . S
C47 C46 1.376 . S
C48 C32 1.509 . S
C48 C49 1.391 . S
C48 C53 1.386 . S
C49 H10 0.930 . S
C49 C48 1.391 . S
C49 C50 1.375 . S
C50 H11 0.931 . S
C50 C49 1.375 . S
C50 C51 1.375 . S
C51 C50 1.375 . S
C51 C52 1.361 . S
C52 H12 0.930 . S
C52 C51 1.361 . S
C52 C53 1.399 . S
C53 H13 0.929 . S
C53 C48 1.386 . S
C53 C52 1.399 . S
C54 C33 1.485 . S
C54 C55 1.394 . S
C54 C59 1.360 . S
C55 H14 0.931 . S
C55 C54 1.394 . S
C55 C56 1.372 . S
C56 H15 0.930 . S
C56 C55 1.372 . S
C56 C57 1.397 . S
C57 C56 1.397 . S
C57 C58 1.390 . S
C57 C73 1.476 . S
C58 H16 0.930 . S
C58 C57 1.390 . S
C58 C59 1.366 . S
C59 H17 0.932 . S
C59 C54 1.360 . S
C59 C58 1.366 . S
C60 C34 1.490 . S
C60 C61 1.380 . S
C60 C65 1.386 . S
C61 H18 0.930 . S
C61 C60 1.380 . S
C61 C62 1.381 . S
C62 H19 0.929 1_554 S
C62 C61 1.381 . S
C62 C63 1.371 1_554 S
C63 C62 1.371 1_556 S
C63 C64 1.380 1_556 S
C64 H20 0.931 . S
C64 C63 1.380 1_554 S
C64 C65 1.387 . S
C65 H21 0.930 . S
C65 C60 1.386 . S
C65 C64 1.387 . S
C66 C35 1.519 . S
C66 C67 1.377 . S
C66 C71 1.361 . S
C67 H22 0.929 . S
C67 C66 1.377 . S
C67 C68 1.386 . S
C68 H23 0.931 . S
C68 C67 1.386 . S
C68 C69 1.363 . S
C69 C68 1.363 . S
C69 C70 1.385 . S
C70 H24 0.930 . S
C70 C69 1.385 . S
C70 C71 1.396 . S
C71 H25 0.929 . S
C71 C66 1.361 . S
C71 C70 1.396 . S
C72 O26 1.300 . S
C72 O27 1.209 . S
C72 C45 1.486 . S
C73 O28 1.199 . S
C73 O29 1.297 . S
C73 C57 1.476 . S
H74 O100 0.856 . S
H75 O103 0.854 . S
H76 C111 0.930 . S
H77 C112 0.930 . S
H78 C114 0.930 . S
H79 C115 0.930 . S
H80 C117 0.931 . S
H81 C118 0.930 . S
H82 C120 0.930 . S
H83 C121 0.929 . S
H84 C123 0.930 . S
H85 C124 0.931 . S
H86 C126 0.930 . S
H87 C127 0.929 . S
H88 C129 0.931 . S
H89 C130 0.930 . S
H90 C132 0.930 . S
H91 C133 0.932 . S
H92 C135 0.930 1_554 S
H93 C136 0.929 . S
H94 C138 0.931 . S
H95 C139 0.930 . S
H96 C141 0.929 . S
H97 C142 0.934 . S
H98 C144 0.930 . S
H99 C145 0.929 . S
O100 H74 0.856 . S
O100 C146 1.300 . S
O101 C146 1.209 . S
O102 C147 1.199 . S
O103 H75 0.854 . S
O103 C147 1.297 . S
C104 C105 1.404 . S
C104 C109 1.397 . S
C104 C110 1.492 . S
C105 C104 1.404 . S
C105 C106 1.396 . S
C105 C116 1.492 . S
C106 C105 1.396 . S
C106 C107 1.397 . S
C106 C122 1.509 . S
C107 C106 1.397 . S
C107 C108 1.412 . S
C107 C128 1.485 . S
C108 C107 1.412 . S
C108 C109 1.388 . S
C108 C134 1.490 . S
C109 C104 1.397 . S
C109 C108 1.388 . S
C109 C140 1.519 . S
C110 C104 1.492 . S
C110 C111 1.363 . S
C110 C115 1.390 . S
C111 H76 0.930 . S
C111 C110 1.363 . S
C111 C112 1.372 . S
C112 H77 0.930 . S
C112 C111 1.372 . S
C112 C113 1.383 . S
C113 C112 1.383 . S
C113 C114 1.395 . S
C114 H78 0.930 . S
C114 C113 1.395 . S
C114 C115 1.362 . S
C115 H79 0.930 . S
C115 C110 1.390 . S
C115 C114 1.362 . S
C116 C105 1.492 . S
C116 C117 1.377 . S
C116 C121 1.397 . S
C117 H80 0.931 . S
C117 C116 1.377 . S
C117 C118 1.376 . S
C118 H81 0.930 . S
C118 C117 1.376 . S
C118 C119 1.376 . S
C119 C118 1.376 . S
C119 C120 1.378 . S
C119 C146 1.486 . S
C120 H82 0.930 . S
C120 C119 1.378 . S
C120 C121 1.376 . S
C121 H83 0.929 . S
C121 C116 1.397 . S
C121 C120 1.376 . S
C122 C106 1.509 . S
C122 C123 1.391 . S
C122 C127 1.386 . S
C123 H84 0.930 . S
C123 C122 1.391 . S
C123 C124 1.375 . S
C124 H85 0.931 . S
C124 C123 1.375 . S
C124 C125 1.375 . S
C125 C124 1.375 . S
C125 C126 1.361 . S
C126 H86 0.930 . S
C126 C125 1.361 . S
C126 C127 1.399 . S
C127 H87 0.929 . S
C127 C122 1.386 . S
C127 C126 1.399 . S
C128 C107 1.485 . S
C128 C129 1.394 . S
C128 C133 1.360 . S
C129 H88 0.931 . S
C129 C128 1.394 . S
C129 C130 1.372 . S
C130 H89 0.930 . S
C130 C129 1.372 . S
C130 C131 1.397 . S
C131 C130 1.397 . S
C131 C132 1.390 . S
C131 C147 1.476 . S
C132 H90 0.930 . S
C132 C131 1.390 . S
C132 C133 1.366 . S
C133 H91 0.932 . S
C133 C128 1.360 . S
C133 C132 1.366 . S
C134 C108 1.490 . S
C134 C135 1.380 1_554 S
C134 C139 1.386 1_554 S
C135 H92 0.930 1_556 S
C135 C134 1.380 1_556 S
C135 C136 1.381 . S
C136 H93 0.929 . S
C136 C135 1.381 . S
C136 C137 1.371 . S
C137 C136 1.371 . S
C137 C138 1.380 . S
C138 H94 0.931 . S
C138 C137 1.380 . S
C138 C139 1.387 . S
C139 H95 0.930 . S
C139 C134 1.386 1_556 S
C139 C138 1.387 . S
C140 C109 1.519 . S
C140 C141 1.377 . S
C140 C145 1.361 . S
C141 H96 0.929 . S
C141 C140 1.377 . S
C141 C142 1.378 1_554 S
C142 H97 0.934 . S
C142 C141 1.378 1_556 S
C142 C143 1.369 . S
C143 C142 1.369 . S
C143 C144 1.385 . S
C144 H98 0.930 . S
C144 C143 1.385 . S
C144 C145 1.396 1_556 S
C145 H99 0.929 . S
C145 C140 1.361 . S
C145 C144 1.396 1_554 S
C146 O100 1.300 . S
C146 O101 1.209 . S
C146 C119 1.486 . S
C147 O102 1.199 . S
C147 O103 1.297 . S
C147 C131 1.476 . S
H148 O174 0.856 . S
H149 O177 0.854 . S
H150 C185 0.930 . S
H151 C186 0.930 . S
H152 C188 0.930 . S
H153 C189 0.930 . S
H154 C191 0.931 . S
H155 C192 0.930 . S
H156 C194 0.930 . S
H157 C195 0.929 . S
H158 C197 0.930 . S
H159 C198 0.931 . S
H160 C200 0.930 . S
H161 C201 0.929 . S
H162 C203 0.931 . S
H163 C204 0.930 . S
H164 C206 0.930 . S
H165 C207 0.932 1_556 S
H166 C209 0.930 . S
H167 C210 0.929 . S
H168 C212 0.931 . S
H169 C213 0.930 . S
H170 C215 0.929 . S
H171 C216 0.931 . S
H172 C218 0.930 . S
H173 C219 0.929 . S
O174 H148 0.856 . S
O174 C220 1.300 . S
O175 C220 1.209 . S
O176 C221 1.199 . S
O177 H149 0.854 . S
O177 C221 1.297 . S
C178 C179 1.404 . S
C178 C183 1.397 1_556 S
C178 C184 1.492 . S
C179 C178 1.404 . S
C179 C180 1.396 . S
C179 C190 1.492 . S
C180 C179 1.396 . S
C180 C181 1.397 1_556 S
C180 C196 1.509 . S
C181 C180 1.397 1_554 S
C181 C182 1.412 . S
C181 C202 1.485 . S
C182 C181 1.412 . S
C182 C183 1.388 . S
C182 C208 1.490 . S
C183 C178 1.397 1_554 S
C183 C182 1.388 . S
C183 C214 1.519 . S
C184 C178 1.492 . S
C184 C185 1.363 . S
C184 C189 1.390 . S
C185 H150 0.930 . S
C185 C184 1.363 . S
C185 C186 1.372 . S
C186 H151 0.930 . S
C186 C185 1.372 . S
C186 C187 1.383 . S
C187 C186 1.383 . S
C187 C188 1.395 . S
C188 H152 0.930 . S
C188 C187 1.395 . S
C188 C189 1.362 . S
C189 H153 0.930 . S
C189 C184 1.390 . S
C189 C188 1.362 . S
C190 C179 1.492 . S
C190 C191 1.377 . S
C190 C195 1.397 . S
C191 H154 0.931 . S
C191 C190 1.377 . S
C191 C192 1.376 . S
C192 H155 0.930 . S
C192 C191 1.376 . S
C192 C193 1.376 . S
C193 C192 1.376 . S
C193 C194 1.378 . S
C193 C220 1.486 . S
C194 H156 0.930 . S
C194 C193 1.378 . S
C194 C195 1.376 . S
C195 H157 0.929 . S
C195 C190 1.397 . S
C195 C194 1.376 . S
C196 C180 1.509 . S
C196 C197 1.391 . S
C196 C201 1.386 . S
C197 H158 0.930 . S
C197 C196 1.391 . S
C197 C198 1.375 . S
C198 H159 0.931 . S
C198 C197 1.375 . S
C198 C199 1.375 . S
C199 C198 1.375 . S
C199 C200 1.361 . S
C200 H160 0.930 . S
C200 C199 1.361 . S
C200 C201 1.399 . S
C201 H161 0.929 . S
C201 C196 1.386 . S
C201 C200 1.399 . S
C202 C181 1.485 . S
C202 C203 1.394 . S
C202 C207 1.360 . S
C203 H162 0.931 . S
C203 C202 1.394 . S
C203 C204 1.372 . S
C204 H163 0.930 . S
C204 C203 1.372 . S
C204 C205 1.397 . S
C205 C204 1.397 . S
C205 C206 1.390 . S
C205 C221 1.476 . S
C206 H164 0.930 . S
C206 C205 1.390 . S
C206 C207 1.366 . S
C207 H165 0.932 1_554 S
C207 C202 1.360 . S
C207 C206 1.366 . S
C208 C182 1.490 . S
C208 C209 1.380 . S
C208 C213 1.386 . S
C209 H166 0.930 . S
C209 C208 1.380 . S
C209 C210 1.381 . S
C210 H167 0.929 . S
C210 C209 1.381 . S
C210 C211 1.371 . S
C211 C210 1.371 . S
C211 C212 1.380 . S
C212 H168 0.931 . S
C212 C211 1.380 . S
C212 C213 1.387 . S
C213 H169 0.930 . S
C213 C208 1.386 . S
C213 C212 1.387 . S
C214 C183 1.519 . S
C214 C215 1.377 . S
C214 C219 1.361 . S
C215 H170 0.929 . S
C215 C214 1.377 . S
C215 C216 1.386 . S
C216 H171 0.931 . S
C216 C215 1.386 . S
C216 C217 1.363 . S
C217 C216 1.363 . S
C217 C218 1.385 . S
C218 H172 0.930 . S
C218 C217 1.385 . S
C218 C219 1.396 . S
C219 H173 0.929 . S
C219 C214 1.361 . S
C219 C218 1.396 . S
C220 O174 1.300 . S
C220 O175 1.209 . S
C220 C193 1.486 . S
C221 O176 1.199 . S
C221 O177 1.297 . S
C221 C205 1.476 . S
H222 O248 0.856 . S
H223 O251 0.854 . S
H224 C259 0.930 . S
H225 C260 0.930 . S
H226 C262 0.930 . S
H227 C263 0.930 . S
H228 C265 0.931 . S
H229 C266 0.930 . S
H230 C268 0.930 . S
H231 C269 0.929 . S
H232 C271 0.930 . S
H233 C272 0.931 . S
H234 C274 0.930 . S
H235 C275 0.929 . S
H236 C277 0.931 1_556 S
H237 C278 0.930 . S
H238 C280 0.930 . S
H239 C281 0.932 . S
H240 C283 0.930 . S
H241 C284 0.929 . S
H242 C286 0.931 . S
H243 C287 0.930 . S
H244 C289 0.929 . S
H245 C290 0.931 . S
H246 C292 0.930 . S
H247 C293 0.929 . S
O248 H222 0.856 . S
O248 C294 1.300 . S
O249 C294 1.209 . S
O250 C295 1.199 . S
O251 H223 0.854 . S
O251 C295 1.297 1_554 S
C252 C253 1.404 . S
C252 C257 1.397 . S
C252 C258 1.492 . S
C253 C252 1.404 . S
C253 C254 1.396 . S
C253 C264 1.492 . S
C254 C253 1.396 . S
C254 C255 1.397 . S
C254 C270 1.509 . S
C255 C254 1.397 . S
C255 C256 1.412 . S
C255 C276 1.485 . S
C256 C255 1.412 . S
C256 C257 1.388 . S
C256 C282 1.490 1_554 S
C257 C252 1.397 . S
C257 C256 1.388 . S
C257 C288 1.519 1_554 S
C258 C252 1.492 . S
C258 C259 1.363 . S
C258 C263 1.390 . S
C259 H224 0.930 . S
C259 C258 1.363 . S
C259 C260 1.372 . S
C260 H225 0.930 . S
C260 C259 1.372 . S
C260 C261 1.383 . S
C261 C260 1.383 . S
C261 C262 1.395 . S
C262 H226 0.930 . S
C262 C261 1.395 . S
C262 C263 1.362 . S
C263 H227 0.930 . S
C263 C258 1.390 . S
C263 C262 1.362 . S
C264 C253 1.492 . S
C264 C265 1.377 . S
C264 C269 1.397 . S
C265 H228 0.931 . S
C265 C264 1.377 . S
C265 C266 1.376 . S
C266 H229 0.930 . S
C266 C265 1.376 . S
C266 C267 1.376 . S
C267 C266 1.376 . S
C267 C268 1.378 . S
C267 C294 1.486 . S
C268 H230 0.930 . S
C268 C267 1.378 . S
C268 C269 1.376 . S
C269 H231 0.929 . S
C269 C264 1.397 . S
C269 C268 1.376 . S
C270 C254 1.509 . S
C270 C271 1.391 . S
C270 C275 1.386 . S
C271 H232 0.930 . S
C271 C270 1.391 . S
C271 C272 1.375 . S
C272 H233 0.931 . S
C272 C271 1.375 . S
C272 C273 1.375 . S
C273 C272 1.375 . S
C273 C274 1.361 . S
C274 H234 0.930 . S
C274 C273 1.361 . S
C274 C275 1.399 . S
C275 H235 0.929 . S
C275 C270 1.386 . S
C275 C274 1.399 . S
C276 C255 1.485 . S
C276 C277 1.394 . S
C276 C281 1.360 . S
C277 H236 0.931 1_554 S
C277 C276 1.394 . S
C277 C278 1.372 1_554 S
C278 H237 0.930 . S
C278 C277 1.372 1_556 S
C278 C279 1.397 1_556 S
C279 C278 1.397 1_554 S
C279 C280 1.390 . S
C279 C295 1.476 1_554 S
C280 H238 0.930 . S
C280 C279 1.390 . S
C280 C281 1.366 . S
C281 H239 0.932 . S
C281 C276 1.360 . S
C281 C280 1.366 . S
C282 C256 1.490 1_556 S
C282 C283 1.380 . S
C282 C287 1.386 . S
C283 H240 0.930 . S
C283 C282 1.380 . S
C283 C284 1.381 . S
C284 H241 0.929 . S
C284 C283 1.381 . S
C284 C285 1.371 . S
C285 C284 1.371 . S
C285 C286 1.380 . S
C286 H242 0.931 . S
C286 C285 1.380 . S
C286 C287 1.387 . S
C287 H243 0.930 . S
C287 C282 1.386 . S
C287 C286 1.387 . S
C288 C257 1.519 1_556 S
C288 C289 1.377 . S
C288 C293 1.361 . S
C289 H244 0.929 . S
C289 C288 1.377 . S
C289 C290 1.386 . S
C290 H245 0.931 . S
C290 C289 1.386 . S
C290 C291 1.363 . S
C291 C290 1.363 . S
C291 C292 1.385 . S
C292 H246 0.930 . S
C292 C291 1.385 . S
C292 C293 1.396 . S
C293 H247 0.929 . S
C293 C288 1.361 . S
C293 C292 1.396 . S
C294 O248 1.300 . S
C294 O249 1.209 . S
C294 C267 1.486 . S
C295 O250 1.199 . S
C295 O251 1.297 1_556 S
C295 C279 1.476 1_556 S
H296 O322 0.856 . S
H297 O325 0.854 . S
H298 C333 0.930 . S
H299 C334 0.930 . S
H300 C336 0.930 . S
H301 C337 0.930 . S
H302 C339 0.931 . S
H303 C340 0.930 . S
H304 C342 0.930 . S
H305 C343 0.929 . S
H306 C345 0.930 . S
H307 C346 0.931 . S
H308 C348 0.930 . S
H309 C349 0.929 . S
H310 C351 0.931 . S
H311 C352 0.930 . S
H312 C354 0.930 . S
H313 C355 0.932 . S
H314 C357 0.923 1_554 S
H315 C358 0.929 . S
H316 C360 0.931 . S
H317 C361 0.930 1_554 S
H318 C363 0.929 . S
H319 C364 0.931 . S
H320 C366 0.930 . S
H321 C367 0.929 . S
O322 H296 0.856 . S
O322 C368 1.300 . S
O323 C368 1.209 . S
O324 C369 1.199 . S
O325 H297 0.854 . S
O325 C369 1.297 . S
C326 C327 1.404 . S
C326 C331 1.397 . S
C326 C332 1.492 . S
C327 C326 1.404 . S
C327 C328 1.396 . S
C327 C338 1.492 . S
C328 C327 1.396 . S
C328 C329 1.397 . S
C328 C344 1.509 . S
C329 C328 1.397 . S
C329 C330 1.412 . S
C329 C350 1.485 . S
C330 C329 1.412 . S
C330 C331 1.388 . S
C330 C356 1.490 . S
C331 C326 1.397 . S
C331 C330 1.388 . S
C331 C362 1.519 . S
C332 C326 1.492 . S
C332 C333 1.363 . S
C332 C337 1.390 . S
C333 H298 0.930 . S
C333 C332 1.363 . S
C333 C334 1.372 . S
C334 H299 0.930 . S
C334 C333 1.372 . S
C334 C335 1.383 . S
C335 C334 1.383 . S
C335 C336 1.395 . S
C336 H300 0.930 . S
C336 C335 1.395 . S
C336 C337 1.362 . S
C337 H301 0.930 . S
C337 C332 1.390 . S
C337 C336 1.362 . S
C338 C327 1.492 . S
C338 C339 1.377 . S
C338 C343 1.397 . S
C339 H302 0.931 . S
C339 C338 1.377 . S
C339 C340 1.376 . S
C340 H303 0.930 . S
C340 C339 1.376 . S
C340 C341 1.376 . S
C341 C340 1.376 . S
C341 C342 1.378 . S
C341 C368 1.486 . S
C342 H304 0.930 . S
C342 C341 1.378 . S
C342 C343 1.376 . S
C343 H305 0.929 . S
C343 C338 1.397 . S
C343 C342 1.376 . S
C344 C328 1.509 . S
C344 C345 1.391 . S
C344 C349 1.386 . S
C345 H306 0.930 . S
C345 C344 1.391 . S
C345 C346 1.375 . S
C346 H307 0.931 . S
C346 C345 1.375 . S
C346 C347 1.375 . S
C347 C346 1.375 . S
C347 C348 1.361 . S
C348 H308 0.930 . S
C348 C347 1.361 . S
C348 C349 1.399 . S
C349 H309 0.929 . S
C349 C344 1.386 . S
C349 C348 1.399 . S
C350 C329 1.485 . S
C350 C351 1.394 . S
C350 C355 1.360 . S
C351 H310 0.931 . S
C351 C350 1.394 . S
C351 C352 1.372 . S
C352 H311 0.930 . S
C352 C351 1.372 . S
C352 C353 1.397 . S
C353 C352 1.397 . S
C353 C354 1.390 . S
C353 C369 1.476 . S
C354 H312 0.930 . S
C354 C353 1.390 . S
C354 C355 1.366 . S
C355 H313 0.932 . S
C355 C350 1.360 . S
C355 C354 1.366 . S
C356 C330 1.490 . S
C356 C357 1.372 1_554 S
C356 C361 1.386 1_554 S
C357 H314 0.923 1_556 S
C357 C356 1.372 1_556 S
C357 C358 1.396 . S
C358 H315 0.929 . S
C358 C357 1.396 . S
C358 C359 1.371 . S
C359 C358 1.371 . S
C359 C360 1.380 . S
C360 H316 0.931 . S
C360 C359 1.380 . S
C360 C361 1.387 . S
C361 H317 0.930 1_556 S
C361 C356 1.386 1_556 S
C361 C360 1.387 . S
C362 C331 1.519 . S
C362 C363 1.377 . S
C362 C367 1.361 . S
C363 H318 0.929 . S
C363 C362 1.377 . S
C363 C364 1.386 . S
C364 H319 0.931 . S
C364 C363 1.386 . S
C364 C365 1.363 1_554 S
C365 C364 1.363 1_556 S
C365 C366 1.385 . S
C366 H320 0.930 . S
C366 C365 1.385 . S
C366 C367 1.396 1_556 S
C367 H321 0.929 . S
C367 C362 1.361 . S
C367 C366 1.396 1_554 S
C368 O322 1.300 . S
C368 O323 1.209 . S
C368 C341 1.486 . S
C369 O324 1.199 . S
C369 O325 1.297 . S
C369 C353 1.476 . S
H370 O396 0.856 . S
H371 O399 0.854 . S
H372 C407 0.930 . S
H373 C408 0.930 . S
H374 C410 0.930 . S
H375 C411 0.930 . S
H376 C413 0.931 . S
H377 C414 0.930 . S
H378 C416 0.930 . S
H379 C417 0.929 1_554 S
H380 C419 0.930 . S
H381 C420 0.931 . S
H382 C422 0.930 . S
H383 C423 0.929 . S
H384 C425 0.931 . S
H385 C426 0.930 . S
H386 C428 0.930 . S
H387 C429 0.932 . S
H388 C431 0.930 . S
H389 C432 0.929 . S
H390 C434 0.931 . S
H391 C435 0.930 . S
H392 C437 0.929 . S
H393 C438 0.931 . S
H394 C440 0.930 . S
H395 C441 0.929 . S
O396 H370 0.856 . S
O396 C442 1.300 . S
O397 C442 1.209 . S
O398 C443 1.199 . S
O399 H371 0.854 . S
O399 C443 1.297 . S
C400 C401 1.404 . S
C400 C405 1.397 . S
C400 C406 1.492 . S
C401 C400 1.404 . S
C401 C402 1.396 . S
C401 C412 1.492 . S
C402 C401 1.396 . S
C402 C403 1.397 . S
C402 C418 1.509 . S
C403 C402 1.397 . S
C403 C404 1.412 . S
C403 C424 1.485 . S
C404 C403 1.412 . S
C404 C405 1.388 . S
C404 C430 1.490 . S
C405 C400 1.397 . S
C405 C404 1.388 . S
C405 C436 1.519 . S
C406 C400 1.492 . S
C406 C407 1.363 . S
C406 C411 1.390 . S
C407 H372 0.930 . S
C407 C406 1.363 . S
C407 C408 1.372 . S
C408 H373 0.930 . S
C408 C407 1.372 . S
C408 C409 1.383 . S
C409 C408 1.383 . S
C409 C410 1.395 . S
C410 H374 0.930 . S
C410 C409 1.395 . S
C410 C411 1.362 . S
C411 H375 0.930 . S
C411 C406 1.390 . S
C411 C410 1.362 . S
C412 C401 1.492 . S
C412 C413 1.377 1_554 S
C412 C417 1.397 1_554 S
C413 H376 0.931 . S
C413 C412 1.377 1_556 S
C413 C414 1.376 . S
C414 H377 0.930 . S
C414 C413 1.376 . S
C414 C415 1.376 . S
C415 C414 1.376 . S
C415 C416 1.378 . S
C415 C442 1.486 . S
C416 H378 0.930 . S
C416 C415 1.378 . S
C416 C417 1.376 . S
C417 H379 0.929 1_556 S
C417 C412 1.397 1_556 S
C417 C416 1.376 . S
C418 C402 1.509 . S
C418 C419 1.391 . S
C418 C423 1.386 . S
C419 H380 0.930 . S
C419 C418 1.391 . S
C419 C420 1.375 1_554 S
C420 H381 0.931 . S
C420 C419 1.375 1_556 S
C420 C421 1.375 . S
C421 C420 1.375 . S
C421 C422 1.361 . S
C422 H382 0.930 . S
C422 C421 1.361 . S
C422 C423 1.399 1_556 S
C423 H383 0.929 . S
C423 C418 1.386 . S
C423 C422 1.399 1_554 S
C424 C403 1.485 . S
C424 C425 1.394 . S
C424 C429 1.360 . S
C425 H384 0.931 . S
C425 C424 1.394 . S
C425 C426 1.372 . S
C426 H385 0.930 . S
C426 C425 1.372 . S
C426 C427 1.397 . S
C427 C426 1.397 . S
C427 C428 1.390 . S
C427 C443 1.476 . S
C428 H386 0.930 . S
C428 C427 1.390 . S
C428 C429 1.366 . S
C429 H387 0.932 . S
C429 C424 1.360 . S
C429 C428 1.366 . S
C430 C404 1.490 . S
C430 C431 1.380 . S
C430 C435 1.386 . S
C431 H388 0.930 . S
C431 C430 1.380 . S
C431 C432 1.381 . S
C432 H389 0.929 . S
C432 C431 1.381 . S
C432 C433 1.371 . S
C433 C432 1.371 . S
C433 C434 1.380 . S
C434 H390 0.931 . S
C434 C433 1.380 . S
C434 C435 1.387 . S
C435 H391 0.930 . S
C435 C430 1.386 . S
C435 C434 1.387 . S
C436 C405 1.519 . S
C436 C437 1.377 . S
C436 C441 1.361 . S
C437 H392 0.929 . S
C437 C436 1.377 . S
C437 C438 1.386 . S
C438 H393 0.931 . S
C438 C437 1.386 . S
C438 C439 1.363 . S
C439 C438 1.363 . S
C439 C440 1.385 . S
C440 H394 0.930 . S
C440 C439 1.385 . S
C440 C441 1.396 . S
C441 H395 0.929 . S
C441 C436 1.361 . S
C441 C440 1.396 . S
C442 O396 1.300 . S
C442 O397 1.209 . S
C442 C415 1.486 . S
C443 O398 1.199 . S
C443 O399 1.297 . S
C443 C427 1.476 . S
C444 O471 1.312 . S
C444 O472 1.208 . S
C445 O466 1.331 . S
C445 O469 1.244 . S
C446 O468 1.264 . S
C446 O470 1.273 . S
Mg447 O449 1.936 . S
Mg447 O456 2.081 1_455 S
Mg447 O458 2.023 . S
Mg447 O462 2.031 1_455 S
Mg447 O471 2.291 . S
Mg448 O449 1.963 . S
Mg448 O459 1.942 1_455 S
Mg448 O460 1.955 . S
Mg448 O467 1.986 1_455 S
O449 Mg447 1.936 . S
O449 Mg448 1.963 . S
O449 Mg450 1.915 . S
Mg450 O449 1.915 . S
Mg450 O451 1.915 . S
Mg450 O455 2.013 . S
Mg450 O461 2.114 1_455 S
Mg450 O465 2.013 1_455 S
Mg450 O471 2.114 . S
O451 Mg450 1.915 . S
O451 Mg452 1.936 . S
O451 Mg453 1.963 . S
Mg452 O451 1.936 . S
Mg452 O461 2.291 1_455 S
Mg452 O466 2.081 . S
Mg452 O468 2.023 1_455 S
Mg452 O472 2.031 . S
Mg453 O451 1.963 . S
Mg453 O457 1.986 . S
Mg453 O469 1.942 . S
Mg453 O470 1.955 1_455 S
C454 O465 1.191 . S
C454 O467 1.307 . S
O455 Mg450 2.013 . S
O455 C474 1.191 . S
O456 Mg447 2.081 1_655 S
O456 C464 1.331 . S
O457 Mg453 1.986 . S
O457 C474 1.307 . S
O458 Mg447 2.023 . S
O458 C473 1.264 . S
O459 Mg448 1.942 1_655 S
O459 C464 1.244 . S
O460 Mg448 1.955 . S
O460 C473 1.273 . S
O461 Mg450 2.114 1_655 S
O461 Mg452 2.291 1_655 S
O461 C463 1.312 . S
O462 Mg447 2.031 1_655 S
O462 C463 1.208 . S
C463 O461 1.312 . S
C463 O462 1.208 . S
C464 O456 1.331 . S
C464 O459 1.244 . S
O465 Mg450 2.013 1_655 S
O465 C454 1.191 . S
O466 C445 1.331 . S
O466 Mg452 2.081 . S
O467 Mg448 1.986 1_655 S
O467 C454 1.307 . S
O468 C446 1.264 . S
O468 Mg452 2.023 1_655 S
O469 C445 1.244 . S
O469 Mg453 1.942 . S
O470 C446 1.273 . S
O470 Mg453 1.955 1_655 S
O471 C444 1.312 . S
O471 Mg447 2.291 . S
O471 Mg450 2.114 . S
O472 C444 1.208 . S
O472 Mg452 2.031 . S
C473 O458 1.264 . S
C473 O460 1.273 . S
C474 O455 1.191 . S
C474 O457 1.307 . S
C475 O502 1.312 . S
C475 O503 1.208 . S
C476 O497 1.331 . S
C476 O500 1.244 . S
C477 O499 1.264 . S
C477 O501 1.273 . S
Mg478 O480 1.936 1_545 S
Mg478 O487 2.081 1_545 S
Mg478 O489 2.023 . S
Mg478 O493 2.031 1_545 S
Mg478 O502 2.291 . S
Mg479 O480 1.963 . S
Mg479 O490 1.942 . S
Mg479 O491 1.955 1_565 S
Mg479 O498 1.986 . S
O480 Mg478 1.936 1_565 S
O480 Mg479 1.963 . S
O480 Mg481 1.915 1_565 S
Mg481 O480 1.915 1_545 S
Mg481 O482 1.915 . S
Mg481 O486 2.013 . S
Mg481 O492 2.114 1_545 S
Mg481 O496 2.013 1_545 S
Mg481 O502 2.114 . S
O482 Mg481 1.915 . S
O482 Mg483 1.936 . S
O482 Mg484 1.963 . S
Mg483 O482 1.936 . S
Mg483 O492 2.291 1_545 S
Mg483 O497 2.081 . S
Mg483 O499 2.023 1_545 S
Mg483 O503 2.031 . S
Mg484 O482 1.963 . S
Mg484 O488 1.986 . S
Mg484 O500 1.942 . S
Mg484 O501 1.955 1_545 S
C485 O496 1.191 . S
C485 O498 1.307 . S
O486 Mg481 2.013 . S
O486 C505 1.191 . S
O487 Mg478 2.081 1_565 S
O487 C495 1.331 . S
O488 Mg484 1.986 . S
O488 C505 1.307 . S
O489 Mg478 2.023 . S
O489 C504 1.264 . S
O490 Mg479 1.942 . S
O490 C495 1.244 . S
O491 Mg479 1.955 1_545 S
O491 C504 1.273 . S
O492 Mg481 2.114 1_565 S
O492 Mg483 2.291 1_565 S
O492 C494 1.312 . S
O493 Mg478 2.031 1_565 S
O493 C494 1.208 . S
C494 O492 1.312 . S
C494 O493 1.208 . S
C495 O487 1.331 . S
C495 O490 1.244 . S
O496 Mg481 2.013 1_565 S
O496 C485 1.191 . S
O497 C476 1.331 . S
O497 Mg483 2.081 . S
O498 Mg479 1.986 . S
O498 C485 1.307 . S
O499 C477 1.264 . S
O499 Mg483 2.023 1_565 S
O500 C476 1.244 . S
O500 Mg484 1.942 . S
O501 C477 1.273 . S
O501 Mg484 1.955 1_565 S
O502 C475 1.312 . S
O502 Mg478 2.291 . S
O502 Mg481 2.114 . S
O503 C475 1.208 . S
O503 Mg483 2.031 . S
C504 O489 1.264 . S
C504 O491 1.273 . S
C505 O486 1.191 . S
C505 O488 1.307 . S
C506 O533 1.312 . S
C506 O534 1.208 . S
C507 O528 1.331 . S
C507 O531 1.244 . S
C508 O530 1.264 . S
C508 O532 1.273 . S
Mg509 O511 1.936 . S
Mg509 O518 2.081 . S
Mg509 O520 2.023 . S
Mg509 O524 2.031 . S
Mg509 O533 2.291 . S
Mg510 O511 1.963 . S
Mg510 O521 1.942 . S
Mg510 O522 1.955 . S
Mg510 O529 1.986 . S
O511 Mg509 1.936 . S
O511 Mg510 1.963 . S
O511 Mg512 1.915 . S
Mg512 O511 1.915 . S
Mg512 O513 1.915 . S
Mg512 O517 2.013 . S
Mg512 O523 2.114 . S
Mg512 O527 2.013 . S
Mg512 O533 2.114 . S
O513 Mg512 1.915 . S
O513 Mg514 1.936 . S
O513 Mg515 1.963 . S
Mg514 O513 1.936 . S
Mg514 O523 2.291 . S
Mg514 O528 2.081 . S
Mg514 O530 2.023 . S
Mg514 O534 2.031 . S
Mg515 O513 1.963 . S
Mg515 O519 1.986 . S
Mg515 O531 1.942 . S
Mg515 O532 1.955 . S
C516 O527 1.191 . S
C516 O529 1.307 . S
O517 Mg512 2.013 . S
O517 C536 1.191 . S
O518 Mg509 2.081 . S
O518 C526 1.331 . S
O519 Mg515 1.986 . S
O519 C536 1.307 . S
O520 Mg509 2.023 . S
O520 C535 1.264 . S
O521 Mg510 1.942 . S
O521 C526 1.244 . S
O522 Mg510 1.955 . S
O522 C535 1.273 . S
O523 Mg512 2.114 . S
O523 Mg514 2.291 . S
O523 C525 1.312 . S
O524 Mg509 2.031 . S
O524 C525 1.208 . S
C525 O523 1.312 . S
C525 O524 1.208 . S
C526 O518 1.331 . S
C526 O521 1.244 . S
O527 Mg512 2.013 . S
O527 C516 1.191 . S
O528 C507 1.331 . S
O528 Mg514 2.081 . S
O529 Mg510 1.986 . S
O529 C516 1.307 . S
O530 C508 1.264 . S
O530 Mg514 2.023 . S
O531 C507 1.244 . S
O531 Mg515 1.942 . S
O532 C508 1.273 . S
O532 Mg515 1.955 . S
O533 C506 1.312 . S
O533 Mg509 2.291 . S
O533 Mg512 2.114 . S
O534 C506 1.208 . S
O534 Mg514 2.031 . S
C535 O520 1.264 . S
C535 O522 1.273 . S
C536 O517 1.191 . S
C536 O519 1.307 . S
H537 C549 0.930 . S
H538 C551 0.930 . S
H539 C552 0.930 . S
H540 C556 0.959 . S
H541 C556 0.959 . S
H542 C556 0.961 . S
H543 C557 0.960 . S
H544 C557 0.961 . S
H545 C557 0.959 . S
H546 C560 0.929 . S
H547 C561 0.931 . S
H548 C563 0.930 . S
C549 H537 0.930 . S
C549 C550 1.399 . S
C549 C554 1.399 . S
C550 C549 1.399 . S
C550 C551 1.376 . S
C551 H538 0.930 . S
C551 C550 1.376 . S
C551 C552 1.388 . S
C552 H539 0.930 . S
C552 C551 1.388 . S
C552 C553 1.390 . S
C553 C552 1.390 . S
C553 C554 1.394 . S
C553 C559 1.465 . S
C554 C549 1.399 . S
C554 C553 1.394 . S
C554 C555 1.516 . S
C555 C554 1.516 . S
C555 C556 1.502 . S
C555 C557 1.561 . S
C555 C558 1.526 . S
C556 H540 0.959 . S
C556 H541 0.959 . S
C556 H542 0.961 . S
C556 C555 1.502 . S
C557 H543 0.960 . S
C557 H544 0.961 . S
C557 H545 0.959 . S
C557 C555 1.561 . S
C558 C555 1.526 . S
C558 C559 1.396 . S
C558 C563 1.390 . S
C559 C553 1.465 . S
C559 C558 1.396 . S
C559 C560 1.399 . S
C560 H546 0.929 . S
C560 C559 1.399 . S
C560 C561 1.385 . S
C561 H547 0.931 . S
C561 C560 1.385 . S
C561 C562 1.389 . S
C562 C561 1.389 . S
C562 C563 1.387 . S
C563 H548 0.930 . S
C563 C558 1.390 . S
C563 C562 1.387 . S
H564 C576 0.930 . S
H565 C578 0.930 . S
H566 C579 0.930 . S
H567 C583 0.959 . S
H568 C583 0.959 . S
H569 C583 0.961 . S
H570 C584 0.960 . S
H571 C584 0.961 . S
H572 C584 0.959 . S
H573 C587 0.929 . S
H574 C588 0.931 . S
H575 C590 0.930 . S
C576 H564 0.930 . S
C576 C577 1.399 . S
C576 C581 1.399 . S
C577 C576 1.399 . S
C577 C578 1.376 . S
C578 H565 0.930 . S
C578 C577 1.376 . S
C578 C579 1.388 . S
C579 H566 0.930 . S
C579 C578 1.388 . S
C579 C580 1.390 . S
C580 C579 1.390 . S
C580 C581 1.394 . S
C580 C586 1.465 . S
C581 C576 1.399 . S
C581 C580 1.394 . S
C581 C582 1.516 . S
C582 C581 1.516 . S
C582 C583 1.502 . S
C582 C584 1.561 . S
C582 C585 1.526 . S
C583 H567 0.959 . S
C583 H568 0.959 . S
C583 H569 0.961 . S
C583 C582 1.502 . S
C584 H570 0.960 . S
C584 H571 0.961 . S
C584 H572 0.959 . S
C584 C582 1.561 . S
C585 C582 1.526 . S
C585 C586 1.396 . S
C585 C590 1.390 . S
C586 C580 1.465 . S
C586 C585 1.396 . S
C586 C587 1.399 . S
C587 H573 0.929 . S
C587 C586 1.399 . S
C587 C588 1.385 . S
C588 H574 0.931 . S
C588 C587 1.385 . S
C588 C589 1.389 . S
C589 C588 1.389 . S
C589 C590 1.387 . S
C590 H575 0.930 . S
C590 C585 1.390 . S
C590 C589 1.387 . S
H591 C603 0.930 . S
H592 C605 0.930 . S
H593 C606 0.930 . S
H594 C610 0.959 . S
H595 C610 0.959 . S
H596 C610 0.961 . S
H597 C611 0.960 . S
H598 C611 0.961 . S
H599 C611 0.959 . S
H600 C614 0.929 . S
H601 C615 0.931 . S
H602 C617 0.930 . S
C603 H591 0.930 . S
C603 C604 1.399 . S
C603 C608 1.399 . S
C604 C603 1.399 . S
C604 C605 1.376 . S
C605 H592 0.930 . S
C605 C604 1.376 . S
C605 C606 1.388 . S
C606 H593 0.930 . S
C606 C605 1.388 . S
C606 C607 1.390 . S
C607 C606 1.390 . S
C607 C608 1.394 . S
C607 C613 1.465 . S
C608 C603 1.399 . S
C608 C607 1.394 . S
C608 C609 1.516 . S
C609 C608 1.516 . S
C609 C610 1.502 . S
C609 C611 1.561 . S
C609 C612 1.526 . S
C610 H594 0.959 . S
C610 H595 0.959 . S
C610 H596 0.961 . S
C610 C609 1.502 . S
C611 H597 0.960 . S
C611 H598 0.961 . S
C611 H599 0.959 . S
C611 C609 1.561 . S
C612 C609 1.526 . S
C612 C613 1.396 . S
C612 C617 1.390 . S
C613 C607 1.465 . S
C613 C612 1.396 . S
C613 C614 1.399 . S
C614 H600 0.929 . S
C614 C613 1.399 . S
C614 C615 1.385 . S
C615 H601 0.931 . S
C615 C614 1.385 . S
C615 C616 1.389 . S
C616 C615 1.389 . S
C616 C617 1.387 . S
C617 H602 0.930 . S
C617 C612 1.390 . S
C617 C616 1.387 . S
H618 C630 0.930 . S
H619 C632 0.930 . S
H620 C633 0.930 . S
H621 C637 0.959 . S
H622 C637 0.959 . S
H623 C637 0.961 . S
H624 C638 0.960 . S
H625 C638 0.961 . S
H626 C638 0.959 . S
H627 C641 0.929 . S
H628 C642 0.931 . S
H629 C644 0.930 . S
C630 H618 0.930 . S
C630 C631 1.399 . S
C630 C635 1.399 . S
C631 C630 1.399 . S
C631 C632 1.376 . S
C632 H619 0.930 . S
C632 C631 1.376 . S
C632 C633 1.388 . S
C633 H620 0.930 . S
C633 C632 1.388 . S
C633 C634 1.390 . S
C634 C633 1.390 . S
C634 C635 1.394 . S
C634 C640 1.465 . S
C635 C630 1.399 . S
C635 C634 1.394 . S
C635 C636 1.516 . S
C636 C635 1.516 . S
C636 C637 1.502 . S
C636 C638 1.561 . S
C636 C639 1.526 . S
C637 H621 0.959 . S
C637 H622 0.959 . S
C637 H623 0.961 . S
C637 C636 1.502 . S
C638 H624 0.960 . S
C638 H625 0.961 . S
C638 H626 0.959 . S
C638 C636 1.561 . S
C639 C636 1.526 . S
C639 C640 1.396 . S
C639 C644 1.390 . S
C640 C634 1.465 . S
C640 C639 1.396 . S
C640 C641 1.399 . S
C641 H627 0.929 . S
C641 C640 1.399 . S
C641 C642 1.385 . S
C642 H628 0.931 . S
C642 C641 1.385 . S
C642 C643 1.389 . S
C643 C642 1.389 . S
C643 C644 1.387 . S
C644 H629 0.930 . S
C644 C639 1.390 . S
C644 C643 1.387 . S
H645 C657 0.930 . S
H646 C659 0.930 . S
H647 C660 0.930 . S
H648 C664 0.959 . S
H649 C664 0.959 . S
H650 C664 0.961 . S
H651 C665 0.960 . S
H652 C665 0.961 . S
H653 C665 0.959 . S
H654 C668 0.929 . S
H655 C669 0.931 . S
H656 C671 0.930 . S
C657 H645 0.930 . S
C657 C658 1.399 . S
C657 C662 1.399 . S
C658 C657 1.399 . S
C658 C659 1.376 . S
C659 H646 0.930 . S
C659 C658 1.376 . S
C659 C660 1.388 . S
C660 H647 0.930 . S
C660 C659 1.388 . S
C660 C661 1.390 . S
C661 C660 1.390 . S
C661 C662 1.394 . S
C661 C667 1.465 . S
C662 C657 1.399 . S
C662 C661 1.394 . S
C662 C663 1.516 . S
C663 C662 1.516 . S
C663 C664 1.502 . S
C663 C665 1.561 . S
C663 C666 1.526 . S
C664 H648 0.959 . S
C664 H649 0.959 . S
C664 H650 0.961 . S
C664 C663 1.502 . S
C665 H651 0.960 . S
C665 H652 0.961 . S
C665 H653 0.959 . S
C665 C663 1.561 . S
C666 C663 1.526 . S
C666 C667 1.396 . S
C666 C671 1.390 . S
C667 C661 1.465 . S
C667 C666 1.396 . S
C667 C668 1.399 . S
C668 H654 0.929 . S
C668 C667 1.399 . S
C668 C669 1.385 . S
C669 H655 0.931 . S
C669 C668 1.385 . S
C669 C670 1.389 . S
C670 C669 1.389 . S
C670 C671 1.387 . S
C671 H656 0.930 . S
C671 C666 1.390 . S
C671 C670 1.387 . S
H672 C684 0.930 . S
H673 C686 0.930 . S
H674 C687 0.930 . S
H675 C691 0.959 . S
H676 C691 0.959 . S
H677 C691 0.961 . S
H678 C692 0.960 . S
H679 C692 0.961 . S
H680 C692 0.959 . S
H681 C695 0.929 . S
H682 C696 0.931 . S
H683 C698 0.930 . S
C684 H672 0.930 . S
C684 C685 1.399 . S
C684 C689 1.399 . S
C685 C684 1.399 . S
C685 C686 1.376 . S
C686 H673 0.930 . S
C686 C685 1.376 . S
C686 C687 1.388 . S
C687 H674 0.930 . S
C687 C686 1.388 . S
C687 C688 1.390 . S
C688 C687 1.390 . S
C688 C689 1.394 . S
C688 C694 1.465 . S
C689 C684 1.399 . S
C689 C688 1.394 . S
C689 C690 1.516 . S
C690 C689 1.516 . S
C690 C691 1.502 . S
C690 C692 1.561 . S
C690 C693 1.526 . S
C691 H675 0.959 . S
C691 H676 0.959 . S
C691 H677 0.961 . S
C691 C690 1.502 . S
C692 H678 0.960 . S
C692 H679 0.961 . S
C692 H680 0.959 . S
C692 C690 1.561 . S
C693 C690 1.526 . S
C693 C694 1.396 . S
C693 C698 1.390 . S
C694 C688 1.465 . S
C694 C693 1.396 . S
C694 C695 1.399 . S
C695 H681 0.929 . S
C695 C694 1.399 . S
C695 C696 1.385 . S
C696 H682 0.931 . S
C696 C695 1.385 . S
C696 C697 1.389 . S
C697 C696 1.389 . S
C697 C698 1.387 . S
C698 H683 0.930 . S
C698 C693 1.390 . S
C698 C697 1.387 . S
H699 C711 0.930 . S
H700 C713 0.930 . S
H701 C714 0.930 . S
H702 C718 0.959 . S
H703 C718 0.959 . S
H704 C718 0.961 . S
H705 C719 0.960 . S
H706 C719 0.961 . S
H707 C719 0.959 . S
H708 C722 0.929 . S
H709 C723 0.931 . S
H710 C725 0.930 . S
C711 H699 0.930 . S
C711 C712 1.399 . S
C711 C716 1.399 . S
C712 C711 1.399 . S
C712 C713 1.376 . S
C713 H700 0.930 . S
C713 C712 1.376 . S
C713 C714 1.388 . S
C714 H701 0.930 . S
C714 C713 1.388 . S
C714 C715 1.390 . S
C715 C714 1.390 . S
C715 C716 1.394 . S
C715 C721 1.465 . S
C716 C711 1.399 . S
C716 C715 1.394 . S
C716 C717 1.516 . S
C717 C716 1.516 . S
C717 C718 1.502 . S
C717 C719 1.561 . S
C717 C720 1.526 . S
C718 H702 0.959 . S
C718 H703 0.959 . S
C718 H704 0.961 . S
C718 C717 1.502 . S
C719 H705 0.960 . S
C719 H706 0.961 . S
C719 H707 0.959 . S
C719 C717 1.561 . S
C720 C717 1.526 . S
C720 C721 1.396 . S
C720 C725 1.390 . S
C721 C715 1.465 . S
C721 C720 1.396 . S
C721 C722 1.399 . S
C722 H708 0.929 . S
C722 C721 1.399 . S
C722 C723 1.385 . S
C723 H709 0.931 . S
C723 C722 1.385 . S
C723 C724 1.389 . S
C724 C723 1.389 . S
C724 C725 1.387 . S
C725 H710 0.930 . S
C725 C720 1.390 . S
C725 C724 1.387 . S
H726 C738 0.930 . S
H727 C740 0.930 . S
H728 C741 0.930 . S
H729 C745 0.959 . S
H730 C745 0.959 . S
H731 C745 0.961 . S
H732 C746 0.960 . S
H733 C746 0.961 . S
H734 C746 0.959 . S
H735 C749 0.929 . S
H736 C750 0.931 . S
H737 C752 0.930 . S
C738 H726 0.930 . S
C738 C739 1.399 . S
C738 C743 1.399 . S
C739 C738 1.399 . S
C739 C740 1.376 . S
C740 H727 0.930 . S
C740 C739 1.376 . S
C740 C741 1.388 . S
C741 H728 0.930 . S
C741 C740 1.388 . S
C741 C742 1.390 . S
C742 C741 1.390 . S
C742 C743 1.394 . S
C742 C748 1.465 . S
C743 C738 1.399 . S
C743 C742 1.394 . S
C743 C744 1.516 . S
C744 C743 1.516 . S
C744 C745 1.502 . S
C744 C746 1.561 . S
C744 C747 1.526 . S
C745 H729 0.959 . S
C745 H730 0.959 . S
C745 H731 0.961 . S
C745 C744 1.502 . S
C746 H732 0.960 . S
C746 H733 0.961 . S
C746 H734 0.959 . S
C746 C744 1.561 . S
C747 C744 1.526 . S
C747 C748 1.396 . S
C747 C752 1.390 . S
C748 C742 1.465 . S
C748 C747 1.396 . S
C748 C749 1.399 . S
C749 H735 0.929 . S
C749 C748 1.399 . S
C749 C750 1.385 . S
C750 H736 0.931 . S
C750 C749 1.385 . S
C750 C751 1.389 . S
C751 C750 1.389 . S
C751 C752 1.387 . S
C752 H737 0.930 . S
C752 C747 1.390 . S
C752 C751 1.387 . S
H753 C765 0.930 . S
H754 C767 0.930 . S
H755 C768 0.930 . S
H756 C772 0.959 . S
H757 C772 0.959 . S
H758 C772 0.961 . S
H759 C773 0.960 . S
H760 C773 0.961 . S
H761 C773 0.959 . S
H762 C776 0.929 . S
H763 C777 0.931 . S
H764 C779 0.930 . S
C765 H753 0.930 . S
C765 C766 1.399 . S
C765 C770 1.399 . S
C766 C765 1.399 . S
C766 C767 1.376 . S
C767 H754 0.930 . S
C767 C766 1.376 . S
C767 C768 1.388 . S
C768 H755 0.930 . S
C768 C767 1.388 . S
C768 C769 1.390 . S
C769 C768 1.390 . S
C769 C770 1.394 . S
C769 C775 1.465 . S
C770 C765 1.399 . S
C770 C769 1.394 . S
C770 C771 1.516 . S
C771 C770 1.516 . S
C771 C772 1.502 . S
C771 C773 1.561 . S
C771 C774 1.526 . S
C772 H756 0.959 . S
C772 H757 0.959 . S
C772 H758 0.961 . S
C772 C771 1.502 . S
C773 H759 0.960 . S
C773 H760 0.961 . S
C773 H761 0.959 . S
C773 C771 1.561 . S
C774 C771 1.526 . S
C774 C775 1.396 . S
C774 C779 1.390 . S
C775 C769 1.465 . S
C775 C774 1.396 . S
C775 C776 1.399 . S
C776 H762 0.929 . S
C776 C775 1.399 . S
C776 C777 1.385 . S
C777 H763 0.931 . S
C777 C776 1.385 . S
C777 C778 1.389 . S
C778 C777 1.389 . S
C778 C779 1.387 . S
C779 H764 0.930 . S
C779 C774 1.390 . S
C779 C778 1.387 . S
H780 C792 0.930 . S
H781 C794 0.930 . S
H782 C795 0.930 . S
H783 C799 0.959 . S
H784 C799 0.959 . S
H785 C799 0.961 . S
H786 C800 0.960 . S
H787 C800 0.961 . S
H788 C800 0.959 . S
H789 C803 0.929 . S
H790 C804 0.931 . S
H791 C806 0.930 . S
C792 H780 0.930 . S
C792 C793 1.399 . S
C792 C797 1.399 . S
C793 C792 1.399 . S
C793 C794 1.376 . S
C794 H781 0.930 . S
C794 C793 1.376 . S
C794 C795 1.388 . S
C795 H782 0.930 . S
C795 C794 1.388 . S
C795 C796 1.390 . S
C796 C795 1.390 . S
C796 C797 1.394 . S
C796 C802 1.465 . S
C797 C792 1.399 . S
C797 C796 1.394 . S
C797 C798 1.516 . S
C798 C797 1.516 . S
C798 C799 1.502 . S
C798 C800 1.561 . S
C798 C801 1.526 . S
C799 H783 0.959 . S
C799 H784 0.959 . S
C799 H785 0.961 . S
C799 C798 1.502 . S
C800 H786 0.960 . S
C800 H787 0.961 . S
C800 H788 0.959 . S
C800 C798 1.561 . S
C801 C798 1.526 . S
C801 C802 1.396 . S
C801 C806 1.390 . S
C802 C796 1.465 . S
C802 C801 1.396 . S
C802 C803 1.399 . S
C803 H789 0.929 . S
C803 C802 1.399 . S
C803 C804 1.385 . S
C804 H790 0.931 . S
C804 C803 1.385 . S
C804 C805 1.389 . S
C805 C804 1.389 . S
C805 C806 1.387 . S
C806 H791 0.930 . S
C806 C801 1.390 . S
C806 C805 1.387 . S
H807 C819 0.930 . S
H808 C821 0.930 . S
H809 C822 0.930 . S
H810 C826 0.959 . S
H811 C826 0.959 . S
H812 C826 0.961 . S
H813 C827 0.960 . S
H814 C827 0.961 . S
H815 C827 0.959 . S
H816 C830 0.929 . S
H817 C831 0.931 . S
H818 C833 0.930 . S
C819 H807 0.930 . S
C819 C820 1.399 . S
C819 C824 1.399 . S
C820 C819 1.399 . S
C820 C821 1.376 . S
C821 H808 0.930 . S
C821 C820 1.376 . S
C821 C822 1.388 . S
C822 H809 0.930 . S
C822 C821 1.388 . S
C822 C823 1.390 . S
C823 C822 1.390 . S
C823 C824 1.394 . S
C823 C829 1.465 . S
C824 C819 1.399 . S
C824 C823 1.394 . S
C824 C825 1.516 . S
C825 C824 1.516 . S
C825 C826 1.502 . S
C825 C827 1.561 . S
C825 C828 1.526 . S
C826 H810 0.959 . S
C826 H811 0.959 . S
C826 H812 0.961 . S
C826 C825 1.502 . S
C827 H813 0.960 . S
C827 H814 0.961 . S
C827 H815 0.959 . S
C827 C825 1.561 . S
C828 C825 1.526 . S
C828 C829 1.396 . S
C828 C833 1.390 . S
C829 C823 1.465 . S
C829 C828 1.396 . S
C829 C830 1.399 . S
C830 H816 0.929 . S
C830 C829 1.399 . S
C830 C831 1.385 . S
C831 H817 0.931 . S
C831 C830 1.385 . S
C831 C832 1.389 . S
C832 C831 1.389 . S
C832 C833 1.387 . S
C833 H818 0.930 . S
C833 C828 1.390 . S
C833 C832 1.387 . S
H834 C846 0.930 . S
H835 C848 0.930 . S
H836 C849 0.930 . S
H837 C853 0.959 . S
H838 C853 0.959 . S
H839 C853 0.961 . S
H840 C854 0.960 . S
H841 C854 0.961 . S
H842 C854 0.959 . S
H843 C857 0.929 . S
H844 C858 0.931 . S
H845 C860 0.930 . S
C846 H834 0.930 . S
C846 C847 1.399 . S
C846 C851 1.399 . S
C847 C846 1.399 . S
C847 C848 1.376 . S
C848 H835 0.930 . S
C848 C847 1.376 . S
C848 C849 1.388 . S
C849 H836 0.930 . S
C849 C848 1.388 . S
C849 C850 1.390 . S
C850 C849 1.390 . S
C850 C851 1.394 . S
C850 C856 1.465 . S
C851 C846 1.399 . S
C851 C850 1.394 . S
C851 C852 1.516 . S
C852 C851 1.516 . S
C852 C853 1.502 . S
C852 C854 1.561 . S
C852 C855 1.526 . S
C853 H837 0.959 . S
C853 H838 0.959 . S
C853 H839 0.961 . S
C853 C852 1.502 . S
C854 H840 0.960 . S
C854 H841 0.961 . S
C854 H842 0.959 . S
C854 C852 1.561 . S
C855 C852 1.526 . S
C855 C856 1.396 . S
C855 C860 1.390 . S
C856 C850 1.465 . S
C856 C855 1.396 . S
C856 C857 1.399 . S
C857 H843 0.929 . S
C857 C856 1.399 . S
C857 C858 1.385 . S
C858 H844 0.931 . S
C858 C857 1.385 . S
C858 C859 1.389 . S
C859 C858 1.389 . S
C859 C860 1.387 . S
C860 H845 0.930 . S
C860 C855 1.390 . S
C860 C859 1.387 . S
H861 C873 0.930 . S
H862 C875 0.930 . S
H863 C876 0.930 . S
H864 C880 0.959 . S
H865 C880 0.959 . S
H866 C880 0.961 . S
H867 C881 0.960 . S
H868 C881 0.961 . S
H869 C881 0.959 . S
H870 C884 0.929 . S
H871 C885 0.931 . S
H872 C887 0.930 . S
C873 H861 0.930 . S
C873 C874 1.399 . S
C873 C878 1.399 . S
C874 C873 1.399 . S
C874 C875 1.376 . S
C875 H862 0.930 . S
C875 C874 1.376 . S
C875 C876 1.388 . S
C876 H863 0.930 . S
C876 C875 1.388 . S
C876 C877 1.390 . S
C877 C876 1.390 . S
C877 C878 1.394 . S
C877 C883 1.465 . S
C878 C873 1.399 . S
C878 C877 1.394 . S
C878 C879 1.516 . S
C879 C878 1.516 . S
C879 C880 1.502 . S
C879 C881 1.561 . S
C879 C882 1.526 . S
C880 H864 0.959 . S
C880 H865 0.959 . S
C880 H866 0.961 . S
C880 C879 1.502 . S
C881 H867 0.960 . S
C881 H868 0.961 . S
C881 H869 0.959 . S
C881 C879 1.561 . S
C882 C879 1.526 . S
C882 C883 1.396 . S
C882 C887 1.390 . S
C883 C877 1.465 . S
C883 C882 1.396 . S
C883 C884 1.399 . S
C884 H870 0.929 . S
C884 C883 1.399 . S
C884 C885 1.385 . S
C885 H871 0.931 . S
C885 C884 1.385 . S
C885 C886 1.389 . S
C886 C885 1.389 . S
C886 C887 1.387 . S
C887 H872 0.930 . S
C887 C882 1.390 . S
C887 C886 1.387 . S
H888 C900 0.930 . S
H889 C902 0.930 . S
H890 C903 0.930 . S
H891 C907 0.959 . S
H892 C907 0.959 . S
H893 C907 0.961 . S
H894 C908 0.960 . S
H895 C908 0.961 . S
H896 C908 0.959 . S
H897 C911 0.929 . S
H898 C912 0.931 . S
H899 C914 0.930 . S
C900 H888 0.930 . S
C900 C901 1.399 . S
C900 C905 1.399 . S
C901 C900 1.399 . S
C901 C902 1.376 . S
C902 H889 0.930 . S
C902 C901 1.376 . S
C902 C903 1.388 . S
C903 H890 0.930 . S
C903 C902 1.388 . S
C903 C904 1.390 . S
C904 C903 1.390 . S
C904 C905 1.394 . S
C904 C910 1.465 . S
C905 C900 1.399 . S
C905 C904 1.394 . S
C905 C906 1.516 . S
C906 C905 1.516 . S
C906 C907 1.502 . S
C906 C908 1.561 . S
C906 C909 1.526 . S
C907 H891 0.959 . S
C907 H892 0.959 . S
C907 H893 0.961 . S
C907 C906 1.502 . S
C908 H894 0.960 . S
C908 H895 0.961 . S
C908 H896 0.959 . S
C908 C906 1.561 . S
C909 C906 1.526 . S
C909 C910 1.396 . S
C909 C914 1.390 . S
C910 C904 1.465 . S
C910 C909 1.396 . S
C910 C911 1.399 . S
C911 H897 0.929 . S
C911 C910 1.399 . S
C911 C912 1.385 . S
C912 H898 0.931 . S
C912 C911 1.385 . S
C912 C913 1.389 . S
C913 C912 1.389 . S
C913 C914 1.387 . S
C914 H899 0.930 . S
C914 C909 1.390 . S
C914 C913 1.387 . S
H915 C927 0.930 . S
H916 C929 0.930 . S
H917 C930 0.930 . S
H918 C934 0.959 . S
H919 C934 0.959 . S
H920 C934 0.961 . S
H921 C935 0.960 . S
H922 C935 0.961 . S
H923 C935 0.959 . S
H924 C938 0.929 . S
H925 C939 0.931 . S
H926 C941 0.930 . S
C927 H915 0.930 . S
C927 C928 1.399 1_556 S
C927 C932 1.399 . S
C928 C927 1.399 1_554 S
C928 C929 1.376 . S
C929 H916 0.930 . S
C929 C928 1.376 . S
C929 C930 1.388 1_554 S
C930 H917 0.930 . S
C930 C929 1.388 1_556 S
C930 C931 1.390 . S
C931 C930 1.390 . S
C931 C932 1.394 . S
C931 C937 1.465 . S
C932 C927 1.399 . S
C932 C931 1.394 . S
C932 C933 1.516 . S
C933 C932 1.516 . S
C933 C934 1.502 . S
C933 C935 1.561 . S
C933 C936 1.526 . S
C934 H918 0.959 . S
C934 H919 0.959 . S
C934 H920 0.961 . S
C934 C933 1.502 . S
C935 H921 0.960 . S
C935 H922 0.961 . S
C935 H923 0.959 . S
C935 C933 1.561 . S
C936 C933 1.526 . S
C936 C937 1.396 . S
C936 C941 1.390 . S
C937 C931 1.465 . S
C937 C936 1.396 . S
C937 C938 1.399 . S
C938 H924 0.929 . S
C938 C937 1.399 . S
C938 C939 1.385 . S
C939 H925 0.931 . S
C939 C938 1.385 . S
C939 C940 1.389 . S
C940 C939 1.389 . S
C940 C941 1.387 . S
C941 H926 0.930 . S
C941 C936 1.390 . S
C941 C940 1.387 . S
H942 C954 0.930 1_554 S
H943 C956 0.930 . S
H944 C957 0.930 . S
H945 C961 0.959 . S
H946 C961 0.959 . S
H947 C961 0.961 . S
H948 C962 0.960 . S
H949 C962 0.961 . S
H950 C962 0.959 . S
H951 C965 0.929 . S
H952 C966 0.931 . S
H953 C968 0.930 . S
C954 H942 0.930 1_556 S
C954 C955 1.399 . S
C954 C959 1.399 . S
C955 C954 1.399 . S
C955 C956 1.376 . S
C956 H943 0.930 . S
C956 C955 1.376 . S
C956 C957 1.388 . S
C957 H944 0.930 . S
C957 C956 1.388 . S
C957 C958 1.390 . S
C958 C957 1.390 . S
C958 C959 1.394 . S
C958 C964 1.465 . S
C959 C954 1.399 . S
C959 C958 1.394 . S
C959 C960 1.516 . S
C960 C959 1.516 . S
C960 C961 1.502 . S
C960 C962 1.561 . S
C960 C963 1.526 . S
C961 H945 0.959 . S
C961 H946 0.959 . S
C961 H947 0.961 . S
C961 C960 1.502 . S
C962 H948 0.960 . S
C962 H949 0.961 . S
C962 H950 0.959 . S
C962 C960 1.561 . S
C963 C960 1.526 . S
C963 C964 1.396 . S
C963 C968 1.390 . S
C964 C958 1.465 . S
C964 C963 1.396 . S
C964 C965 1.399 . S
C965 H951 0.929 . S
C965 C964 1.399 . S
C965 C966 1.385 . S
C966 H952 0.931 . S
C966 C965 1.385 . S
C966 C967 1.389 . S
C967 C966 1.389 . S
C967 C968 1.387 . S
C968 H953 0.930 . S
C968 C963 1.390 . S
C968 C967 1.387 . S
H969 C981 0.930 . S
H970 C983 0.930 . S
H971 C984 0.930 . S
H972 C988 0.959 . S
H973 C988 0.959 . S
H974 C988 0.961 . S
H975 C989 0.960 . S
H976 C989 0.961 . S
H977 C989 0.959 . S
H978 C992 0.929 . S
H979 C993 0.931 . S
H980 C995 0.930 . S
C981 H969 0.930 . S
C981 C982 1.399 . S
C981 C986 1.399 . S
C982 C981 1.399 . S
C982 C983 1.376 . S
C983 H970 0.930 . S
C983 C982 1.376 . S
C983 C984 1.388 . S
C984 H971 0.930 . S
C984 C983 1.388 . S
C984 C985 1.390 . S
C985 C984 1.390 . S
C985 C986 1.394 . S
C985 C991 1.465 . S
C986 C981 1.399 . S
C986 C985 1.394 . S
C986 C987 1.516 . S
C987 C986 1.516 . S
C987 C988 1.502 . S
C987 C989 1.561 . S
C987 C990 1.526 . S
C988 H972 0.959 . S
C988 H973 0.959 . S
C988 H974 0.961 . S
C988 C987 1.502 . S
C989 H975 0.960 . S
C989 H976 0.961 . S
C989 H977 0.959 . S
C989 C987 1.561 . S
C990 C987 1.526 . S
C990 C991 1.396 . S
C990 C995 1.390 . S
C991 C985 1.465 . S
C991 C990 1.396 . S
C991 C992 1.399 . S
C992 H978 0.929 . S
C992 C991 1.399 . S
C992 C993 1.385 . S
C993 H979 0.931 . S
C993 C992 1.385 . S
C993 C994 1.389 . S
C994 C993 1.389 . S
C994 C995 1.387 . S
C995 H980 0.930 . S
C995 C990 1.390 . S
C995 C994 1.387 . S
H996 C1008 0.930 . S
H997 C1010 0.930 . S
H998 C1011 0.930 . S
H999 C1015 0.959 . S
H1000 C1015 0.959 . S
H1001 C1015 0.961 . S
H1002 C1016 0.960 . S
H1003 C1016 0.961 . S
H1004 C1016 0.959 . S
H1005 C1019 0.929 . S
H1006 C1020 0.931 . S
H1007 C1022 0.930 . S
C1008 H996 0.930 . S
C1008 C1009 1.399 . S
C1008 C1013 1.399 . S
C1009 C1008 1.399 . S
C1009 C1010 1.376 . S
C1010 H997 0.930 . S
C1010 C1009 1.376 . S
C1010 C1011 1.388 . S
C1011 H998 0.930 . S
C1011 C1010 1.388 . S
C1011 C1012 1.390 . S
C1012 C1011 1.390 . S
C1012 C1013 1.394 . S
C1012 C1018 1.465 . S
C1013 C1008 1.399 . S
C1013 C1012 1.394 . S
C1013 C1014 1.516 . S
C1014 C1013 1.516 . S
C1014 C1015 1.502 . S
C1014 C1016 1.561 . S
C1014 C1017 1.526 . S
C1015 H999 0.959 . S
C1015 H1000 0.959 . S
C1015 H1001 0.961 . S
C1015 C1014 1.502 . S
C1016 H1002 0.960 . S
C1016 H1003 0.961 . S
C1016 H1004 0.959 . S
C1016 C1014 1.561 . S
C1017 C1014 1.526 . S
C1017 C1018 1.396 . S
C1017 C1022 1.390 . S
C1018 C1012 1.465 . S
C1018 C1017 1.396 . S
C1018 C1019 1.399 . S
C1019 H1005 0.929 . S
C1019 C1018 1.399 . S
C1019 C1020 1.385 . S
C1020 H1006 0.931 . S
C1020 C1019 1.385 . S
C1020 C1021 1.389 . S
C1021 C1020 1.389 . S
C1021 C1022 1.387 . S
C1022 H1007 0.930 . S
C1022 C1017 1.390 . S
C1022 C1021 1.387 . S
H1023 C1035 0.930 . S
H1024 C1037 0.930 . S
H1025 C1038 0.930 . S
H1026 C1042 0.959 . S
H1027 C1042 0.959 . S
H1028 C1042 0.961 . S
H1029 C1043 0.960 . S
H1030 C1043 0.961 . S
H1031 C1043 0.959 . S
H1032 C1046 0.929 . S
H1033 C1047 0.931 . S
H1034 C1049 0.930 . S
C1035 H1023 0.930 . S
C1035 C1036 1.399 . S
C1035 C1040 1.399 . S
C1036 C1035 1.399 . S
C1036 C1037 1.376 . S
C1037 H1024 0.930 . S
C1037 C1036 1.376 . S
C1037 C1038 1.388 . S
C1038 H1025 0.930 . S
C1038 C1037 1.388 . S
C1038 C1039 1.390 . S
C1039 C1038 1.390 . S
C1039 C1040 1.394 . S
C1039 C1045 1.465 . S
C1040 C1035 1.399 . S
C1040 C1039 1.394 . S
C1040 C1041 1.516 . S
C1041 C1040 1.516 . S
C1041 C1042 1.502 . S
C1041 C1043 1.561 . S
C1041 C1044 1.526 . S
C1042 H1026 0.959 . S
C1042 H1027 0.959 . S
C1042 H1028 0.961 . S
C1042 C1041 1.502 . S
C1043 H1029 0.960 . S
C1043 H1030 0.961 . S
C1043 H1031 0.959 . S
C1043 C1041 1.561 . S
C1044 C1041 1.526 . S
C1044 C1045 1.396 . S
C1044 C1049 1.390 . S
C1045 C1039 1.465 . S
C1045 C1044 1.396 . S
C1045 C1046 1.399 . S
C1046 H1032 0.929 . S
C1046 C1045 1.399 . S
C1046 C1047 1.385 . S
C1047 H1033 0.931 . S
C1047 C1046 1.385 . S
C1047 C1048 1.389 . S
C1048 C1047 1.389 . S
C1048 C1049 1.387 . S
C1049 H1034 0.930 . S
C1049 C1044 1.390 . S
C1049 C1048 1.387 . S
H1050 C1062 0.930 . S
H1051 C1064 0.930 . S
H1052 C1065 0.930 . S
H1053 C1069 0.959 . S
H1054 C1069 0.959 . S
H1055 C1069 0.961 . S
H1056 C1070 0.960 . S
H1057 C1070 0.961 . S
H1058 C1070 0.959 . S
H1059 C1073 0.929 . S
H1060 C1074 0.931 . S
H1061 C1076 0.930 . S
C1062 H1050 0.930 . S
C1062 C1063 1.399 . S
C1062 C1067 1.399 . S
C1063 C1062 1.399 . S
C1063 C1064 1.376 . S
C1064 H1051 0.930 . S
C1064 C1063 1.376 . S
C1064 C1065 1.388 . S
C1065 H1052 0.930 . S
C1065 C1064 1.388 . S
C1065 C1066 1.390 . S
C1066 C1065 1.390 . S
C1066 C1067 1.394 . S
C1066 C1072 1.465 . S
C1067 C1062 1.399 . S
C1067 C1066 1.394 . S
C1067 C1068 1.516 . S
C1068 C1067 1.516 . S
C1068 C1069 1.502 . S
C1068 C1070 1.561 . S
C1068 C1071 1.526 . S
C1069 H1053 0.959 . S
C1069 H1054 0.959 . S
C1069 H1055 0.961 . S
C1069 C1068 1.502 . S
C1070 H1056 0.960 . S
C1070 H1057 0.961 . S
C1070 H1058 0.959 . S
C1070 C1068 1.561 . S
C1071 C1068 1.526 . S
C1071 C1072 1.396 . S
C1071 C1076 1.390 . S
C1072 C1066 1.465 . S
C1072 C1071 1.396 . S
C1072 C1073 1.399 . S
C1073 H1059 0.929 . S
C1073 C1072 1.399 . S
C1073 C1074 1.385 . S
C1074 H1060 0.931 . S
C1074 C1073 1.385 . S
C1074 C1075 1.389 . S
C1075 C1074 1.389 . S
C1075 C1076 1.387 . S
C1076 H1061 0.930 . S
C1076 C1071 1.390 . S
C1076 C1075 1.387 . S
H1077 C1089 0.930 . S
H1078 C1091 0.930 . S
H1079 C1092 0.930 . S
H1080 C1096 0.959 . S
H1081 C1096 0.959 . S
H1082 C1096 0.961 . S
H1083 C1097 0.960 . S
H1084 C1097 0.961 . S
H1085 C1097 0.959 . S
H1086 C1100 0.929 . S
H1087 C1101 0.931 . S
H1088 C1103 0.930 . S
C1089 H1077 0.930 . S
C1089 C1090 1.399 . S
C1089 C1094 1.399 . S
C1090 C1089 1.399 . S
C1090 C1091 1.376 . S
C1091 H1078 0.930 . S
C1091 C1090 1.376 . S
C1091 C1092 1.388 . S
C1092 H1079 0.930 . S
C1092 C1091 1.388 . S
C1092 C1093 1.390 . S
C1093 C1092 1.390 . S
C1093 C1094 1.394 . S
C1093 C1099 1.465 . S
C1094 C1089 1.399 . S
C1094 C1093 1.394 . S
C1094 C1095 1.516 . S
C1095 C1094 1.516 . S
C1095 C1096 1.502 . S
C1095 C1097 1.561 . S
C1095 C1098 1.526 . S
C1096 H1080 0.959 . S
C1096 H1081 0.959 . S
C1096 H1082 0.961 . S
C1096 C1095 1.502 . S
C1097 H1083 0.960 . S
C1097 H1084 0.961 . S
C1097 H1085 0.959 . S
C1097 C1095 1.561 . S
C1098 C1095 1.526 . S
C1098 C1099 1.396 . S
C1098 C1103 1.390 . S
C1099 C1093 1.465 . S
C1099 C1098 1.396 . S
C1099 C1100 1.399 . S
C1100 H1086 0.929 . S
C1100 C1099 1.399 . S
C1100 C1101 1.385 . S
C1101 H1087 0.931 . S
C1101 C1100 1.385 . S
C1101 C1102 1.389 . S
C1102 C1101 1.389 . S
C1102 C1103 1.387 . S
C1103 H1088 0.930 . S
C1103 C1098 1.390 . S
C1103 C1102 1.387 . S
H1104 C1116 0.930 . S
H1105 C1118 0.930 . S
H1106 C1119 0.930 . S
H1107 C1123 0.959 . S
H1108 C1123 0.959 . S
H1109 C1123 0.961 . S
H1110 C1124 0.960 . S
H1111 C1124 0.961 . S
H1112 C1124 0.959 . S
H1113 C1127 0.929 . S
H1114 C1128 0.931 . S
H1115 C1130 0.930 . S
C1116 H1104 0.930 . S
C1116 C1117 1.399 . S
C1116 C1121 1.399 . S
C1117 C1116 1.399 . S
C1117 C1118 1.376 . S
C1118 H1105 0.930 . S
C1118 C1117 1.376 . S
C1118 C1119 1.388 . S
C1119 H1106 0.930 . S
C1119 C1118 1.388 . S
C1119 C1120 1.390 . S
C1120 C1119 1.390 . S
C1120 C1121 1.394 . S
C1120 C1126 1.465 . S
C1121 C1116 1.399 . S
C1121 C1120 1.394 . S
C1121 C1122 1.516 . S
C1122 C1121 1.516 . S
C1122 C1123 1.502 . S
C1122 C1124 1.561 . S
C1122 C1125 1.526 . S
C1123 H1107 0.959 . S
C1123 H1108 0.959 . S
C1123 H1109 0.961 . S
C1123 C1122 1.502 . S
C1124 H1110 0.960 . S
C1124 H1111 0.961 . S
C1124 H1112 0.959 . S
C1124 C1122 1.561 . S
C1125 C1122 1.526 . S
C1125 C1126 1.396 . S
C1125 C1130 1.390 . S
C1126 C1120 1.465 . S
C1126 C1125 1.396 . S
C1126 C1127 1.399 . S
C1127 H1113 0.929 . S
C1127 C1126 1.399 . S
C1127 C1128 1.385 . S
C1128 H1114 0.931 . S
C1128 C1127 1.385 . S
C1128 C1129 1.389 . S
C1129 C1128 1.389 . S
C1129 C1130 1.387 . S
C1130 H1115 0.930 . S
C1130 C1125 1.390 . S
C1130 C1129 1.387 . S
H1131 C1143 0.930 . S
H1132 C1145 0.930 . S
H1133 C1146 0.930 . S
H1134 C1150 0.959 . S
H1135 C1150 0.959 . S
H1136 C1150 0.961 . S
H1137 C1151 0.960 . S
H1138 C1151 0.961 . S
H1139 C1151 0.959 . S
H1140 C1154 0.929 . S
H1141 C1155 0.931 . S
H1142 C1157 0.930 . S
C1143 H1131 0.930 . S
C1143 C1144 1.399 . S
C1143 C1148 1.399 . S
C1144 C1143 1.399 . S
C1144 C1145 1.376 . S
C1145 H1132 0.930 . S
C1145 C1144 1.376 . S
C1145 C1146 1.388 . S
C1146 H1133 0.930 . S
C1146 C1145 1.388 . S
C1146 C1147 1.390 . S
C1147 C1146 1.390 . S
C1147 C1148 1.394 . S
C1147 C1153 1.465 . S
C1148 C1143 1.399 . S
C1148 C1147 1.394 . S
C1148 C1149 1.516 . S
C1149 C1148 1.516 . S
C1149 C1150 1.502 . S
C1149 C1151 1.561 . S
C1149 C1152 1.526 . S
C1150 H1134 0.959 . S
C1150 H1135 0.959 . S
C1150 H1136 0.961 . S
C1150 C1149 1.502 . S
C1151 H1137 0.960 . S
C1151 H1138 0.961 . S
C1151 H1139 0.959 . S
C1151 C1149 1.561 . S
C1152 C1149 1.526 . S
C1152 C1153 1.396 . S
C1152 C1157 1.390 . S
C1153 C1147 1.465 . S
C1153 C1152 1.396 . S
C1153 C1154 1.399 . S
C1154 H1140 0.929 . S
C1154 C1153 1.399 . S
C1154 C1155 1.385 . S
C1155 H1141 0.931 . S
C1155 C1154 1.385 . S
C1155 C1156 1.389 . S
C1156 C1155 1.389 . S
C1156 C1157 1.387 . S
C1157 H1142 0.930 . S
C1157 C1152 1.390 . S
C1157 C1156 1.387 . S
H1158 C1170 0.930 . S
H1159 C1172 0.930 . S
H1160 C1173 0.930 . S
H1161 C1177 0.959 . S
H1162 C1177 0.959 . S
H1163 C1177 0.961 . S
H1164 C1178 0.960 . S
H1165 C1178 0.961 . S
H1166 C1178 0.959 . S
H1167 C1181 0.929 . S
H1168 C1182 0.931 . S
H1169 C1184 0.930 . S
C1170 H1158 0.930 . S
C1170 C1171 1.399 . S
C1170 C1175 1.399 . S
C1171 C1170 1.399 . S
C1171 C1172 1.376 . S
C1172 H1159 0.930 . S
C1172 C1171 1.376 . S
C1172 C1173 1.388 . S
C1173 H1160 0.930 . S
C1173 C1172 1.388 . S
C1173 C1174 1.390 . S
C1174 C1173 1.390 . S
C1174 C1175 1.394 . S
C1174 C1180 1.465 . S
C1175 C1170 1.399 . S
C1175 C1174 1.394 . S
C1175 C1176 1.516 . S
C1176 C1175 1.516 . S
C1176 C1177 1.502 . S
C1176 C1178 1.561 . S
C1176 C1179 1.526 . S
C1177 H1161 0.959 . S
C1177 H1162 0.959 . S
C1177 H1163 0.961 . S
C1177 C1176 1.502 . S
C1178 H1164 0.960 . S
C1178 H1165 0.961 . S
C1178 H1166 0.959 . S
C1178 C1176 1.561 . S
C1179 C1176 1.526 . S
C1179 C1180 1.396 . S
C1179 C1184 1.390 . S
C1180 C1174 1.465 . S
C1180 C1179 1.396 . S
C1180 C1181 1.399 . S
C1181 H1167 0.929 . S
C1181 C1180 1.399 . S
C1181 C1182 1.385 . S
C1182 H1168 0.931 . S
C1182 C1181 1.385 . S
C1182 C1183 1.389 . S
C1183 C1182 1.389 . S
C1183 C1184 1.387 . S
C1184 H1169 0.930 . S
C1184 C1179 1.390 . S
C1184 C1183 1.387 . S
C550 C39 1.794 . S
C562 C444 1.672 . S
C577 C125 0.901 . S
C589 C476 0.803 . S
C616 C535 2.272 . S
C604 C211 2.109 . S
C643 C464 0.709 . S
C631 C273 0.862 . S
C658 C335 1.813 . S
C670 C494 1.844 . S
C697 C516 1.631 . S
C685 C439 1.663 . S
C724 C485 1.681 . S
C712 C187 1.738 . S
C739 C291 1.700 . S
C751 C525 1.713 . S
C778 C474 2.093 . S
C766 C359 1.878 . S
C793 C421 0.799 . S
C805 C504 0.755 . S
C820 C63 2.057 . S
C832 C507 2.209 . S
C859 C446 1.998 . S
C847 C143 2.039 . S
C886 C454 2.028 . S
C874 C285 1.851 . S
C913 C495 1.890 . S
C901 C365 1.910 . S
C940 C508 2.095 . S
C928 C409 2.088 . S
C967 C445 1.826 . S
C955 C69 1.878 1_556 S
C994 C505 1.809 . S
C982 C137 1.800 . S
C1009 C199 0.441 . S
C1021 C506 0.546 . S
C1048 C475 1.988 . S
C1036 C433 1.842 . S
C1075 C536 0.540 . S
C1063 C51 0.318 . S
C1102 C463 1.633 . S
C1090 C113 1.739 . S
C1129 C477 1.922 . S
C1117 C217 1.947 . S
C1144 C261 1.980 . S
C1156 C526 2.050 . S
C1171 C347 0.744 . S
C1183 C473 0.683 . S
