# Generated by pormake.
# Topology anh, (6,3)-cn, num edge types: 1
# Building blocks:
#     Node 0, Type 0, BuildingBlock: NUHQIS_clean_sbu_0, # of connection points: 6
#     Node 1, Type 0, BuildingBlock: NUHQIS_clean_sbu_0, # of connection points: 6
#     Node 2, Type 0, BuildingBlock: NUHQIS_clean_sbu_0, # of connection points: 6
#     Node 3, Type 1, BuildingBlock: ESEHIV_clean_linker_0, # of connection points: 3
#     Node 4, Type 1, BuildingBlock: ESEHIV_clean_linker_0, # of connection points: 3
#     Node 5, Type 1, BuildingBlock: ESEHIV_clean_linker_0, # of connection points: 3
#     Node 6, Type 1, BuildingBlock: ESEHIV_clean_linker_0, # of connection points: 3
#     Node 7, Type 1, BuildingBlock: ESEHIV_clean_linker_0, # of connection points: 3
#     Node 8, Type 1, BuildingBlock: ESEHIV_clean_linker_0, # of connection points: 3
#     Edge 9, Type (0, 1), BuildingBlock: MIFKUJ_clean_linker_0, # of connection points: 2
#     Edge 10, Type (0, 1), BuildingBlock: MIFKUJ_clean_linker_0, # of connection points: 2
#     Edge 11, Type (0, 1), BuildingBlock: MIFKUJ_clean_linker_0, # of connection points: 2
#     Edge 12, Type (0, 1), BuildingBlock: MIFKUJ_clean_linker_0, # of connection points: 2
#     Edge 13, Type (0, 1), BuildingBlock: MIFKUJ_clean_linker_0, # of connection points: 2
#     Edge 14, Type (0, 1), BuildingBlock: MIFKUJ_clean_linker_0, # of connection points: 2
#     Edge 15, Type (0, 1), BuildingBlock: MIFKUJ_clean_linker_0, # of connection points: 2
#     Edge 16, Type (0, 1), BuildingBlock: MIFKUJ_clean_linker_0, # of connection points: 2
#     Edge 17, Type (0, 1), BuildingBlock: MIFKUJ_clean_linker_0, # of connection points: 2
#     Edge 18, Type (0, 1), BuildingBlock: MIFKUJ_clean_linker_0, # of connection points: 2
#     Edge 19, Type (0, 1), BuildingBlock: MIFKUJ_clean_linker_0, # of connection points: 2
#     Edge 20, Type (0, 1), BuildingBlock: MIFKUJ_clean_linker_0, # of connection points: 2
#     Edge 21, Type (0, 1), BuildingBlock: MIFKUJ_clean_linker_0, # of connection points: 2
#     Edge 22, Type (0, 1), BuildingBlock: MIFKUJ_clean_linker_0, # of connection points: 2
#     Edge 23, Type (0, 1), BuildingBlock: MIFKUJ_clean_linker_0, # of connection points: 2
#     Edge 24, Type (0, 1), BuildingBlock: MIFKUJ_clean_linker_0, # of connection points: 2
#     Edge 25, Type (0, 1), BuildingBlock: MIFKUJ_clean_linker_0, # of connection points: 2
#     Edge 26, Type (0, 1), BuildingBlock: MIFKUJ_clean_linker_0, # of connection points: 2
# Relax obj value: 0.235
# Max RMSD: 0.188
# Mean RMSD: 0.154
data_MOF--net-anh--node1-NUHQIS_clean_sbu_0--node2-ESEHIV_clean_linker_0--edge1-MIFKUJ_clean_linker_0
_symmetry_space_group_name_H-M    P1
_symmetry_Int_Tables_number       1
_symmetry_cell_setting            triclinic
loop_
_symmetry_equiv_pos_as_xyz
'x, y, z'
_cell_length_a     36.880643
_cell_length_b     36.851313
_cell_length_c     67.619101
_cell_angle_alpha  90.050997
_cell_angle_beta   92.37817
_cell_angle_gamma 119.83528
loop_
_atom_site_label
_atom_site_type_symbol
_atom_site_fract_x
_atom_site_fract_y
_atom_site_fract_z
_atom_type_partial_charge
Tb0 Tb 0.15601 0.59464 0.16495 0.0
Eu1 Eu 0.10952 0.64892 0.16036 0.0
C2 C 0.12402 0.61842 0.2013 0.0
C3 C 1.05643 0.54579 0.16265 0.0
C4 C 0.23813 0.5644 0.17198 0.0
C5 C 0.28966 0.54487 0.18193 0.0
C6 C 0.24882 0.53752 0.18188 0.0
C7 C 0.26881 0.5995 0.16253 0.0
C8 C 0.30979 0.60679 0.16246 0.0
C9 C 0.32044 0.57929 0.17204 0.0
C10 C 0.19514 0.556 0.17241 0.0
O11 O 0.16185 0.60931 0.13347 0.0
O12 O 0.11653 0.63497 0.12878 0.0
O13 O 0.1773 0.6974 0.15581 0.0
O14 O 0.20626 0.66076 0.17029 0.0
C15 C 0.14072 0.62165 0.1218 0.0
O16 O 1.06003 0.6595 0.14795 0.0
O17 O 0.10068 0.69905 0.17216 0.0
O18 O 0.1317 0.65216 0.19196 0.0
O19 O 0.12213 0.58691 0.1916 0.0
O20 O 1.09073 0.54509 0.15845 0.0
O21 O 1.058 0.58177 0.16638 0.0
C22 C 0.21007 0.69628 0.16365 0.0
O23 O 0.18913 0.57823 0.18542 0.0
O24 O 0.17591 0.5534 0.15539 0.0
C25 C 1.02824 0.67123 0.17435 0.0
C26 C 0.94925 0.62086 0.18983 0.0
C27 C 0.95485 0.65032 0.17525 0.0
C28 C 0.99405 0.67503 0.16741 0.0
C29 C 1.02379 0.64573 0.19059 0.0
C30 C 0.98462 0.62083 0.19831 0.0
C31 C 1.06498 0.68546 0.16231 0.0
H32 H 0.29671 0.5226 0.18903 0.0
H33 H 0.22541 0.5105 0.18937 0.0
H34 H 0.26095 0.62088 0.15507 0.0
H35 H 0.33296 0.63342 0.15469 0.0
H36 H 0.92826 0.65123 0.16842 0.0
H37 H 0.99679 0.69429 0.15483 0.0
H38 H 1.04976 0.64214 0.19617 0.0
H39 H 0.98139 0.59882 0.20967 0.0
Tb40 Tb 0.67577 0.12056 0.49615 0.0
Eu41 Eu 0.57552 0.06802 0.48797 0.0
C42 C 0.61595 0.08723 0.53075 0.0
C43 C 0.62949 1.0199 0.49344 0.0
C44 C 0.77416 0.20671 0.51443 0.0
C45 C 0.83651 0.27422 0.52005 0.0
C46 C 0.81765 0.23187 0.51451 0.0
C47 C 0.75006 0.22326 0.52149 0.0
C48 C 0.76858 0.26564 0.52646 0.0
C49 C 0.81189 0.29227 0.52485 0.0
C50 C 0.75287 0.1653 0.50466 0.0
O51 O 0.66547 0.10318 0.46444 0.0
O52 O 0.60192 0.09908 0.45953 0.0
O53 O 0.58815 0.13366 0.49592 0.0
O54 O 0.65935 0.17045 0.49292 0.0
C55 C 0.63617 0.10295 0.45249 0.0
O56 O 0.52003 1.02417 0.47022 0.0
O57 O 0.51346 1.04973 0.49791 0.0
O58 O 0.59019 1.05655 0.51884 0.0
O59 O 0.64695 0.12087 0.52362 0.0
O60 O 0.66183 1.05542 0.50023 0.0
O61 O 0.59602 1.01917 0.48527 0.0
C62 C 0.62357 0.16956 0.4955 0.0
O63 O 0.7274 0.13473 0.51552 0.0
O64 O 0.73563 0.16422 0.48727 0.0
C65 C 0.46905 0.97856 0.4912 0.0
C66 C 0.42065 0.89621 0.50388 0.0
C67 C 0.40139 0.91737 0.49505 0.0
C68 C 0.4255 0.95831 0.48871 0.0
C69 C 0.48836 0.95806 0.50053 0.0
C70 C 0.46435 0.91707 0.50674 0.0
C71 C 0.49488 1.02087 0.48403 0.0
H72 H 0.87016 0.29314 0.51949 0.0
H73 H 0.83677 0.21935 0.50939 0.0
H74 H 0.71642 0.20398 0.5219 0.0
H75 H 0.74816 0.27767 0.53006 0.0
H76 H 0.36777 0.90174 0.49235 0.0
H77 H 0.41024 0.97383 0.48159 0.0
H78 H 0.52208 0.97359 0.50274 0.0
H79 H 0.47991 0.90152 0.51352 0.0
Tb80 Tb 0.66177 0.6456 0.82886 0.0
Eu81 Eu 0.6107 0.54559 0.82288 0.0
C82 C 0.64495 0.58642 0.86431 0.0
C83 C 0.71432 0.59715 0.82652 0.0
C84 C 0.67188 0.74267 0.84471 0.0
C85 C 0.65924 0.80109 0.8449 0.0
C86 C 0.68605 0.78515 0.84197 0.0
C87 C 0.63227 0.71724 0.85217 0.0
C88 C 0.60509 0.7327 0.8545 0.0
C89 C 0.61732 0.77429 0.84978 0.0
C90 C 0.69365 0.72257 0.83632 0.0
O91 O 0.66734 0.63384 0.79758 0.0
O92 O 0.6065 0.57156 0.79346 0.0
O93 O 0.56352 0.56313 0.83394 0.0
O94 O 0.59598 0.6308 0.82421 0.0
C95 C 0.63739 0.60476 0.78596 0.0
O96 O 0.59488 0.48698 0.80764 0.0
O97 O 0.56094 0.48665 0.83326 0.0
O98 O 0.64532 0.55966 0.85195 0.0
O99 O 0.63981 0.61701 0.85759 0.0
O100 O 0.71408 0.63244 0.82979 0.0
O101 O 0.67922 0.56145 0.82254 0.0
C102 C 0.56238 0.59768 0.8304 0.0
O103 O 0.69892 0.69724 0.84798 0.0
O104 O 0.67862 0.70555 0.81882 0.0
C105 C 0.57699 0.43283 0.83087 0.0
C106 C 0.59199 0.37399 0.85079 0.0
C107 C 0.62018 0.40102 0.83709 0.0
C108 C 0.61289 0.43027 0.82732 0.0
C109 C 0.54923 0.40652 0.84479 0.0
C110 C 0.55677 0.37761 0.85476 0.0
C111 C 0.56939 0.46442 0.82124 0.0
H112 H 0.67064 0.83382 0.84205 0.0
H113 H 0.71673 0.80532 0.8364 0.0
H114 H 0.62095 0.68436 0.85462 0.0
H115 H 0.57346 0.71076 0.85835 0.0
H116 H 0.64714 0.39862 0.83326 0.0
H117 H 0.63523 0.45052 0.81686 0.0
H118 H 0.52161 0.40835 0.84795 0.0
H119 H 0.53457 0.35756 0.8653 0.0
H120 H 0.58834 1.05968 0.23497 0.0
H121 H 0.70257 0.17832 0.23572 0.0
H122 H 0.63792 0.11995 0.18008 0.0
C123 C 0.61249 0.08548 0.22714 0.0
C124 C 0.60884 0.0849 0.20632 0.0
C125 C 0.64584 0.11889 0.23799 0.0
C126 C 0.67629 0.15277 0.22759 0.0
C127 C 0.67422 0.15405 0.20678 0.0
C128 C 0.64005 0.1197 0.19609 0.0
H129 H 0.63635 0.65861 0.56908 0.0
H130 H 0.63315 0.54053 0.56918 0.0
H131 H 0.62838 0.59616 0.51366 0.0
C132 C 0.63441 0.63226 0.56096 0.0
C133 C 0.63246 0.63211 0.54011 0.0
C134 C 0.6345 0.59953 0.57158 0.0
C135 C 0.63305 0.56585 0.56106 0.0
C136 C 0.63065 0.56373 0.54022 0.0
C137 C 0.6298 0.59699 0.52969 0.0
H138 H 1.08717 0.59853 0.90602 0.0
H139 H 0.2018 0.59611 0.90487 0.0
H140 H 0.14267 0.60526 0.85005 0.0
C141 C 0.11184 0.5995 0.89751 0.0
C142 C 0.11022 0.60303 0.87672 0.0
C143 C 0.14482 0.59781 0.90778 0.0
C144 C 0.17658 0.59794 0.89697 0.0
C145 C 0.17638 0.60004 0.87616 0.0
C146 C 0.14302 0.603 0.86601 0.0
H147 H 0.97373 0.61367 0.4042 0.0
H148 H 0.10189 0.64175 0.40891 0.0
H149 H 1.03752 0.63468 0.46137 0.0
C150 C 1.00191 0.62199 0.41321 0.0
C151 C 1.00175 0.62499 0.43392 0.0
C152 C 1.03838 0.62898 0.4042 0.0
C153 C 1.07412 0.63743 0.41592 0.0
C154 C 1.07382 0.63924 0.43659 0.0
C155 C 1.03808 0.63433 0.44538 0.0
H156 H 0.54023 0.07858 0.74464 0.0
H157 H 0.46028 0.94937 0.72628 0.0
H158 H 0.46719 0.98833 0.78695 0.0
C159 C 0.51748 1.04657 0.74788 0.0
C160 C 0.50522 1.0366 0.76734 0.0
C161 C 0.50073 1.01555 0.73275 0.0
C162 C 0.47165 0.97407 0.73752 0.0
C163 C 0.45918 0.96388 0.75707 0.0
C164 C 0.47518 0.9958 0.77168 0.0
H165 H 0.5238 0.43382 0.06379 0.0
H166 H 0.61462 0.39448 0.05719 0.0
H167 H 0.57161 0.40055 0.11477 0.0
C168 C 0.54307 0.42171 0.07008 0.0
C169 C 0.54411 0.41661 0.09051 0.0
C170 C 0.56965 0.41548 0.05804 0.0
C171 C 0.59387 0.39902 0.06642 0.0
C172 C 0.59449 0.39255 0.087 0.0
C173 C 0.56896 0.40124 0.09878 0.0
H174 H 0.36109 0.59208 0.138 0.0
H175 H 0.41524 0.57445 0.13194 0.0
H176 H 0.42551 0.55391 0.19416 0.0
H177 H 0.37124 0.57185 0.20045 0.0
H178 H 0.50581 0.58743 0.16476 0.0
H179 H 0.36566 0.47415 0.18073 0.0
H180 H 0.28893 0.44344 0.17851 0.0
H181 H 0.28964 0.44067 0.11504 0.0
H182 H 0.36652 0.47216 0.11692 0.0
H183 H 0.4972 0.38252 0.12287 0.0
H184 H 0.47171 0.41657 0.1453 0.0
H185 H 0.5271 0.52727 0.11006 0.0
H186 H 0.55291 0.49392 0.08795 0.0
H187 H 0.41766 0.44434 0.13544 0.0
H188 H 0.56197 0.61356 0.13923 0.0
H189 H 0.63893 0.64737 0.14071 0.0
H190 H 0.63178 0.53691 0.16551 0.0
H191 H 0.55481 0.50264 0.1645 0.0
C192 C 0.3763 0.58591 0.15055 0.0
C193 C 0.36152 0.58251 0.16964 0.0
C194 C 0.40725 0.57588 0.14705 0.0
C195 C 0.42377 0.56254 0.1626 0.0
C196 C 0.41302 0.56429 0.18205 0.0
C197 C 0.38184 0.57414 0.18556 0.0
C198 C 0.44326 0.53749 0.15772 0.0
C199 C 0.48686 0.55598 0.15857 0.0
C200 C 0.41805 0.49619 0.15012 0.0
C201 C 0.37175 0.4757 0.14897 0.0
C202 C 0.34943 0.46716 0.16631 0.0
C203 C 0.30594 0.44964 0.16512 0.0
C204 C 0.28443 0.44017 0.14665 0.0
C205 C 0.30635 0.44804 0.12934 0.0
C206 C 0.34986 0.46569 0.13046 0.0
C207 C 0.50383 0.4141 0.12 0.0
C208 C 0.52633 0.43537 0.10354 0.0
C209 C 0.48953 0.43352 0.13282 0.0
C210 C 0.49822 0.47462 0.12948 0.0
C211 C 0.5208 0.49583 0.1131 0.0
C212 C 0.53482 0.47646 0.10028 0.0
C213 C 0.48069 0.49447 0.14191 0.0
C214 C 0.43706 0.47514 0.14228 0.0
C215 C 0.50608 0.53476 0.15078 0.0
C216 C 0.55249 0.55543 0.15169 0.0
C217 C 0.57678 0.59655 0.14513 0.0
C218 C 0.62044 0.61579 0.14586 0.0
C219 C 0.64023 0.59428 0.15316 0.0
C220 C 0.61641 0.5535 0.1598 0.0
C221 C 0.57275 0.53413 0.15913 0.0
H222 H 0.67403 0.60921 0.1537 0.0
H223 H 0.25077 0.42667 0.14575 0.0
H224 H 0.78641 0.34028 0.54542 0.0
H225 H 0.80523 0.41287 0.5389 0.0
H226 H 0.89789 0.42257 0.49923 0.0
H227 H 0.87734 0.35016 0.50404 0.0
H228 H 0.92449 0.49322 0.52478 0.0
H229 H 0.80819 0.39378 0.48197 0.0
H230 H 0.73687 0.34127 0.47021 0.0
H231 H 0.69023 0.41949 0.49118 0.0
H232 H 0.7607 0.47118 0.50427 0.0
H233 H 0.92848 0.55316 0.42657 0.0
H234 H 0.87968 0.5146 0.45177 0.0
H235 H 0.9382 0.62364 0.49072 0.0
H236 H 0.9877 0.66255 0.46536 0.0
H237 H 0.82627 0.51027 0.47862 0.0
H238 H 0.96331 0.60036 0.52915 0.0
H239 H 1.04004 0.64727 0.53037 0.0
H240 H 1.05042 0.57747 0.48219 0.0
H241 H 0.97371 0.53069 0.48053 0.0
C242 C 0.81072 0.35775 0.53526 0.0
C243 C 0.82967 0.33858 0.52503 0.0
C244 C 0.82163 0.39932 0.53176 0.0
C245 C 0.85263 0.42272 0.51853 0.0
C246 C 0.87395 0.40494 0.5096 0.0
C247 C 0.86232 0.36331 0.51259 0.0
C248 C 0.86143 0.46453 0.51228 0.0
C249 C 0.90255 0.4976 0.5153 0.0
C250 C 0.83284 0.46998 0.49975 0.0
C251 C 0.78965 0.43586 0.49467 0.0
C252 C 0.78251 0.39904 0.48485 0.0
C253 C 0.74218 0.36948 0.47781 0.0
C254 C 0.7089 0.37685 0.48008 0.0
C255 C 0.71575 0.41337 0.48975 0.0
C256 C 0.75583 0.44265 0.49714 0.0
C257 C 0.92948 0.56976 0.44 0.0
C258 C 0.96256 0.61036 0.44429 0.0
C259 C 0.90156 0.54759 0.45451 0.0
C260 C 0.90638 0.56589 0.47338 0.0
C261 C 0.93467 0.60872 0.47641 0.0
C262 C 0.96276 0.63093 0.46188 0.0
C263 C 0.88973 0.53772 0.49028 0.0
C264 C 0.84723 0.50726 0.48938 0.0
C265 C 0.91735 0.53365 0.50409 0.0
C266 C 0.96306 0.5624 0.50466 0.0
C267 C 0.98206 0.59526 0.51879 0.0
C268 C 1.02546 0.62181 0.51953 0.0
C269 C 1.05008 0.61538 0.50635 0.0
C270 C 1.03133 0.58242 0.49238 0.0
C271 C 0.98792 0.55606 0.49146 0.0
H272 H 1.08366 0.63589 0.50698 0.0
H273 H 0.67788 0.35437 0.47423 0.0
H274 H 0.54267 0.74635 0.86863 0.0
H275 H 0.48476 0.75737 0.85821 0.0
H276 H 0.56075 0.8437 0.81452 0.0
H277 H 0.61734 0.8308 0.8234 0.0
H278 H 0.50869 0.86499 0.84365 0.0
H279 H 0.5142 0.76845 0.79512 0.0
H280 H 0.50753 0.70205 0.78346 0.0
H281 H 0.38129 0.63536 0.8022 0.0
H282 H 0.38746 0.70151 0.81425 0.0
H283 H 0.47444 0.90187 0.74618 0.0
H284 H 0.46497 0.84486 0.76719 0.0
H285 H 0.38827 0.87018 0.80488 0.0
H286 H 0.39697 0.92724 0.78353 0.0
H287 H 0.41199 0.7751 0.7887 0.0
H288 H 0.4332 0.89257 0.84606 0.0
H289 H 0.45465 0.96728 0.85079 0.0
H290 H 0.5447 1.00031 0.80613 0.0
H291 H 0.52332 0.92579 0.80102 0.0
C292 C 0.54715 0.76744 0.85667 0.0
C293 C 0.58502 0.78715 0.84675 0.0
C294 C 0.51386 0.77368 0.8508 0.0
C295 C 0.51829 0.80045 0.83529 0.0
C296 C 0.55677 0.82253 0.82642 0.0
C297 C 0.58949 0.81551 0.83182 0.0
C298 C 0.48358 0.80627 0.8277 0.0
C299 C 0.48606 0.84449 0.83226 0.0
C300 C 0.45487 0.77982 0.81253 0.0
C301 C 0.45194 0.7398 0.80638 0.0
C302 C 0.48547 0.73957 0.79734 0.0
C303 C 0.4816 0.70202 0.79041 0.0
C304 C 0.44408 0.66452 0.79215 0.0
C305 C 0.4104 0.66444 0.80093 0.0
C306 C 0.41414 0.70196 0.80788 0.0
C307 C 0.45337 0.89382 0.75818 0.0
C308 C 0.4376 0.91993 0.7636 0.0
C309 C 0.44802 0.86108 0.77028 0.0
C310 C 0.42699 0.85421 0.78791 0.0
C311 C 0.40516 0.87549 0.79148 0.0
C312 C 0.41027 0.90814 0.77929 0.0
C313 C 0.43822 0.83445 0.80425 0.0
C314 C 0.43171 0.79393 0.80127 0.0
C315 C 0.46457 0.85939 0.82042 0.0
C316 C 0.47654 0.90386 0.82311 0.0
C317 C 0.45744 0.91585 0.83723 0.0
C318 C 0.46955 0.9581 0.83995 0.0
C319 C 0.50101 0.98852 0.82876 0.0
C320 C 0.52037 0.97675 0.81479 0.0
C321 C 0.50813 0.93455 0.81191 0.0
H322 H 0.51041 1.0212 0.83092 0.0
H323 H 0.44115 0.63563 0.78657 0.0
H324 H 0.92772 0.53874 0.19034 0.0
H325 H 0.8597 0.48105 0.17935 0.0
H326 H 0.80598 0.5609 0.18367 0.0
H327 H 0.87473 0.61988 0.19375 0.0
H328 H 0.77942 0.43317 0.18213 0.0
H329 H 0.762 0.56189 0.14174 0.0
H330 H 0.80582 0.63524 0.13194 0.0
H331 H 0.91276 0.61821 0.13068 0.0
H332 H 0.86958 0.54489 0.14052 0.0
H333 H 0.59183 0.35299 0.12207 0.0
H334 H 0.65208 0.37438 0.1447 0.0
H335 H 0.7341 0.43435 0.09696 0.0
H336 H 0.67461 0.41895 0.07512 0.0
H337 H 0.74864 0.48951 0.12112 0.0
H338 H 0.73866 0.35733 0.12957 0.0
H339 H 0.70341 0.28123 0.13456 0.0
H340 H 0.66656 0.2983 0.19166 0.0
H341 H 0.70136 0.37454 0.18696 0.0
C342 C 0.90125 0.54386 0.18976 0.0
C343 C 0.90692 0.58435 0.19209 0.0
C344 C 0.86226 0.51058 0.18355 0.0
C345 C 0.82842 0.51717 0.17991 0.0
C346 C 0.8322 0.55555 0.18583 0.0
C347 C 0.87147 0.58925 0.19159 0.0
C348 C 0.79419 0.48861 0.16572 0.0
C349 C 0.77222 0.44527 0.16883 0.0
C350 C 0.78658 0.50407 0.14782 0.0
C351 C 0.8127 0.54818 0.14205 0.0
C352 C 0.79487 0.57389 0.13937 0.0
C353 C 0.8196 0.61544 0.13384 0.0
C354 C 0.86208 0.63142 0.13076 0.0
C355 C 0.87989 0.60584 0.13313 0.0
C356 C 0.85536 0.56437 0.13876 0.0
C357 C 0.6227 0.37044 0.11628 0.0
C358 C 0.62805 0.38674 0.09708 0.0
C359 C 0.65736 0.3819 0.12924 0.0
C360 C 0.69791 0.40747 0.12277 0.0
C361 C 0.70307 0.41586 0.1025 0.0
C362 C 0.66856 0.40642 0.08983 0.0
C363 C 0.73299 0.43338 0.13729 0.0
C364 C 0.75532 0.47667 0.13429 0.0
C365 C 0.74221 0.41729 0.15462 0.0
C366 C 0.72225 0.37163 0.15781 0.0
C367 C 0.72286 0.34485 0.14315 0.0
C368 C 0.70299 0.3017 0.14594 0.0
C369 C 0.68249 0.28493 0.16335 0.0
C370 C 0.68224 0.31134 0.17812 0.0
C371 C 0.70221 0.35455 0.17545 0.0
H372 H 0.66699 0.25149 0.16544 0.0
H373 H 0.88117 0.66358 0.12649 0.0
H374 H 0.34705 0.85788 0.52244 0.0
H375 H 0.29613 0.78371 0.52075 0.0
H376 H 0.38573 0.75854 0.49377 0.0
H377 H 0.43633 0.8334 0.49469 0.0
H378 H 0.32396 0.73628 0.46989 0.0
H379 H 0.32995 0.70044 0.53501 0.0
H380 H 0.33799 0.70666 0.5714 0.0
H381 H 0.22422 0.7113 0.57374 0.0
H382 H 0.21576 0.70589 0.53738 0.0
H383 H 0.11877 0.59917 0.43244 0.0
H384 H 0.18096 0.61074 0.45228 0.0
H385 H 0.17111 0.70097 0.48904 0.0
H386 H 0.10928 0.68954 0.4694 0.0
H387 H 0.20106 0.65631 0.5106 0.0
H388 H 0.22645 0.73142 0.44674 0.0
H389 H 0.22007 0.73062 0.41023 0.0
H390 H 0.27763 0.6543 0.40693 0.0
H391 H 0.28387 0.65432 0.44346 0.0
C392 C 0.35629 0.83637 0.51672 0.0
C393 C 0.39513 0.85135 0.50826 0.0
C394 C 0.32739 0.79371 0.51607 0.0
C395 C 0.33698 0.76526 0.50709 0.0
C396 C 0.37764 0.77983 0.50079 0.0
C397 C 0.40652 0.82264 0.50131 0.0
C398 C 0.30197 0.72446 0.4996 0.0
C399 C 0.29775 0.7175 0.479 0.0
C400 C 0.26767 0.69952 0.51134 0.0
C401 C 0.27212 0.70249 0.53334 0.0
C402 C 0.30667 0.70292 0.54325 0.0
C403 C 0.31132 0.70634 0.5639 0.0
C404 C 0.28159 0.70929 0.57488 0.0
C405 C 0.24715 0.70884 0.56522 0.0
C406 C 0.24234 0.70546 0.54457 0.0
C407 C 0.12987 0.6213 0.44484 0.0
C408 C 0.10987 0.64421 0.44914 0.0
C409 C 0.16492 0.62737 0.4563 0.0
C410 C 0.18066 0.6568 0.47206 0.0
C411 C 0.15923 0.6778 0.47706 0.0
C412 C 0.12418 0.67161 0.46569 0.0
C413 C 0.223 0.67187 0.48115 0.0
C414 C 0.2283 0.67345 0.50187 0.0
C415 C 0.25853 0.69212 0.4696 0.0
C416 C 0.25515 0.69244 0.44773 0.0
C417 C 0.23756 0.71435 0.43819 0.0
C418 C 0.23396 0.71402 0.41752 0.0
C419 C 0.24832 0.69231 0.40626 0.0
C420 C 0.26642 0.67099 0.41567 0.0
C421 C 0.26996 0.67111 0.43634 0.0
H422 H 0.24551 0.69209 0.39026 0.0
H423 H 0.28527 0.71197 0.59087 0.0
H424 H 0.52984 0.29407 0.85678 0.0
H425 H 0.53757 0.233 0.85911 0.0
H426 H 0.6719 0.31131 0.86397 0.0
H427 H 0.66435 0.37351 0.86227 0.0
H428 H 0.64683 0.2681 0.83033 0.0
H429 H 0.62461 0.22968 0.89618 0.0
H430 H 0.59507 0.21902 0.92908 0.0
H431 H 0.47481 0.12662 0.90427 0.0
H432 H 0.5033 0.13712 0.87115 0.0
H433 H 0.58853 0.08023 0.7771 0.0
H434 H 0.62374 0.13121 0.80451 0.0
H435 H 0.50426 0.11309 0.8214 0.0
H436 H 0.46911 1.06088 0.79462 0.0
H437 H 0.5529 0.12499 0.85354 0.0
H438 H 0.56998 0.19219 0.78888 0.0
H439 H 0.59517 0.20696 0.75497 0.0
H440 H 0.72069 0.24897 0.77761 0.0
H441 H 0.69605 0.23396 0.81164 0.0
C442 C 0.56105 0.29877 0.85944 0.0
C443 C 0.59655 0.33877 0.85866 0.0
C444 C 0.56546 0.26348 0.8609 0.0
C445 C 0.60538 0.26747 0.86149 0.0
C446 C 0.6408 0.30753 0.86342 0.0
C447 C 0.6364 0.343 0.86214 0.0
C448 C 0.609 0.23167 0.85408 0.0
C449 C 0.62773 0.23685 0.83587 0.0
C450 C 0.58392 0.19091 0.86118 0.0
C451 C 0.56628 0.18414 0.88111 0.0
C452 C 0.59181 0.20721 0.89769 0.0
C453 C 0.57523 0.20118 0.9164 0.0
C454 C 0.53311 0.17212 0.91877 0.0
C455 C 0.50747 0.14902 0.90242 0.0
C456 C 0.52388 0.15492 0.88367 0.0
C457 C 0.57 0.08729 0.78675 0.0
C458 C 0.52636 0.06765 0.78361 0.0
C459 C 0.59001 0.11603 0.80245 0.0
C460 C 0.5667 0.12633 0.81486 0.0
C461 C 0.5229 0.10551 0.81208 0.0
C462 C 0.50286 0.07618 0.79666 0.0
C463 C 0.58747 0.16198 0.82923 0.0
C464 C 0.57368 0.1564 0.84863 0.0
C465 C 0.61643 0.20264 0.82312 0.0
C466 C 0.63113 0.21135 0.8027 0.0
C467 C 0.60289 0.20428 0.78658 0.0
C468 C 0.61706 0.21273 0.76736 0.0
C469 C 0.65948 0.22873 0.76413 0.0
C470 C 0.68782 0.23642 0.78012 0.0
C471 C 0.67378 0.22793 0.79937 0.0
H472 H 0.6704 0.23529 0.74924 0.0
H473 H 0.52033 0.16752 0.93327 0.0
H474 H 0.56833 0.93921 0.48201 0.0
H475 H 0.56824 0.87338 0.48716 0.0
H476 H 0.69057 0.94107 0.51654 0.0
H477 H 0.69122 1.007 0.51098 0.0
H478 H 0.69025 0.88321 0.49545 0.0
H479 H 0.59265 0.881 0.54029 0.0
H480 H 0.53046 0.88252 0.5512 0.0
H481 H 0.45073 0.7717 0.51604 0.0
H482 H 0.51244 0.77039 0.50433 0.0
H483 H 0.6926 0.71414 0.54601 0.0
H484 H 0.69123 0.77702 0.53577 0.0
H485 H 0.57443 0.70067 0.50284 0.0
H486 H 0.57569 0.63712 0.51334 0.0
H487 H 0.56996 0.76073 0.52396 0.0
H488 H 0.66932 0.76362 0.47965 0.0
H489 H 0.73235 0.76185 0.47029 0.0
H490 H 0.80948 0.87119 0.50686 0.0
H491 H 0.74685 0.8733 0.51665 0.0
C492 C 0.59547 0.94032 0.4895 0.0
C493 C 0.62988 0.97913 0.496 0.0
C494 C 0.59519 0.90223 0.49261 0.0
C495 C 0.62913 0.90127 0.50259 0.0
C496 C 0.66376 0.94012 0.50882 0.0
C497 C 0.66413 0.97822 0.50564 0.0
C498 C 0.62885 0.86031 0.50647 0.0
C499 C 0.66395 0.85675 0.5019 0.0
C500 C 0.59447 0.82462 0.51451 0.0
C501 C 0.55729 0.82594 0.52121 0.0
C502 C 0.5619 0.85731 0.53464 0.0
C503 C 0.52669 0.85814 0.54097 0.0
C504 C 0.48665 0.82736 0.53424 0.0
C505 C 0.48174 0.79572 0.52114 0.0
C506 C 0.51684 0.79499 0.5146 0.0
C507 C 0.66698 0.71059 0.53621 0.0
C508 C 0.63457 0.67015 0.53032 0.0
C509 C 0.66619 0.74688 0.53033 0.0
C510 C 0.63288 0.74444 0.5183 0.0
C511 C 0.6007 0.70404 0.51206 0.0
C512 C 0.60166 0.6675 0.51787 0.0
C513 C 0.63133 0.78388 0.51298 0.0
C514 C 0.59601 0.78716 0.51735 0.0
C515 C 0.66561 0.81948 0.50493 0.0
C516 C 0.70334 0.8184 0.499 0.0
C517 C 0.69969 0.78711 0.4858 0.0
C518 C 0.73536 0.78608 0.4804 0.0
C519 C 0.77489 0.81634 0.48801 0.0
C520 C 0.77885 0.84776 0.50099 0.0
C521 C 0.74328 0.84892 0.50645 0.0
H522 H 0.80247 0.81548 0.48381 0.0
H523 H 0.45942 0.82795 0.53922 0.0
H524 H 0.72907 0.53543 0.84098 0.0
H525 H 0.79584 0.53738 0.847 0.0
H526 H 0.86015 0.66019 0.82201 0.0
H527 H 0.79359 0.6595 0.81774 0.0
H528 H 0.90885 0.66525 0.84721 0.0
H529 H 0.84981 0.48665 0.84955 0.0
H530 H 0.79363 0.42086 0.83402 0.0
H531 H 0.78413 0.48845 0.78426 0.0
H532 H 0.84054 0.55456 0.79938 0.0
H533 H 1.07293 0.6457 0.89141 0.0
H534 H 1.00812 0.64248 0.88086 0.0
H535 H 0.99912 0.56973 0.82904 0.0
H536 H 1.06288 0.569 0.84094 0.0
H537 H 0.92528 0.54091 0.83794 0.0
H538 H 1.02567 0.68327 0.83066 0.0
H539 H 1.08528 0.75319 0.83951 0.0
H540 H 1.01807 0.76487 0.88718 0.0
H541 H 0.95825 0.69479 0.87876 0.0
C542 C 0.75743 0.56279 0.83663 0.0
C543 C 0.75544 0.59719 0.8287 0.0
C544 C 0.79608 0.5638 0.83992 0.0
C545 C 0.83436 0.59855 0.83462 0.0
C546 C 0.83203 0.63275 0.82646 0.0
C547 C 0.79353 0.63231 0.82383 0.0
C548 C 0.87657 0.60015 0.83819 0.0
C549 C 0.91198 0.63782 0.84504 0.0
C550 C 0.88263 0.56526 0.83502 0.0
C551 C 0.84912 0.52559 0.8257 0.0
C552 C 0.83586 0.48743 0.83525 0.0
C553 C 0.80394 0.4501 0.82653 0.0
C554 C 0.78523 0.45049 0.8082 0.0
C555 C 0.79853 0.4882 0.79849 0.0
C556 C 0.83045 0.52562 0.80713 0.0
C557 C 1.05733 0.62842 0.87782 0.0
C558 C 1.07372 0.60687 0.86739 0.0
C559 C 1.02001 0.62739 0.87147 0.0
C560 C 0.99789 0.60664 0.85374 0.0
C561 C 1.01481 0.58616 0.84279 0.0
C562 C 1.05198 0.58623 0.84949 0.0
C563 C 0.95708 0.60579 0.84725 0.0
C564 C 0.92201 0.56831 0.83994 0.0
C565 C 0.95176 0.64141 0.84904 0.0
C566 C 0.9876 0.68362 0.85416 0.0
C567 C 1.0237 0.70065 0.8431 0.0
C568 C 1.05752 0.74032 0.84803 0.0
C569 C 1.0555 0.76342 0.86392 0.0
C570 C 1.0196 0.74693 0.87488 0.0
C571 C 0.98571 0.70726 0.87002 0.0
H572 H 1.08172 0.79412 0.86772 0.0
H573 H 0.76049 0.42157 0.80149 0.0
H574 H 0.22931 0.7776 0.15568 0.0
H575 H 0.2961 0.84264 0.16083 0.0
H576 H 0.35404 0.77256 0.1822 0.0
H577 H 0.28693 0.70743 0.17753 0.0
H578 H 0.3833 0.83857 0.20459 0.0
H579 H 0.36971 0.82182 0.1338 0.0
H580 H 0.33502 0.8118 0.10067 0.0
H581 H 0.3319 0.92579 0.10873 0.0
H582 H 0.36612 0.93623 0.14202 0.0
H583 H 0.59311 1.00413 0.20602 0.0
H584 H 0.52791 0.93997 0.19661 0.0
H585 H 0.47269 1.01357 0.17681 0.0
H586 H 0.5389 0.07812 0.18571 0.0
H587 H 0.44167 0.94659 0.15339 0.0
H588 H 0.45542 0.96348 0.22402 0.0
H589 H 0.49044 0.97386 0.25709 0.0
H590 H 0.49265 0.85931 0.24941 0.0
H591 H 0.45825 0.84859 0.21615 0.0
C592 C 0.25622 0.77576 0.16136 0.0
C593 C 0.25204 0.73653 0.16605 0.0
C594 C 0.2949 0.81338 0.16424 0.0
C595 C 0.33131 0.81344 0.17169 0.0
C596 C 0.3271 0.77423 0.17642 0.0
C597 C 0.28836 0.7366 0.17365 0.0
C598 C 0.3732 0.854 0.17495 0.0
C599 C 0.39612 0.86171 0.19318 0.0
C600 C 0.39044 0.88565 0.16052 0.0
C601 C 0.37012 0.87959 0.14048 0.0
C602 C 0.36138 0.84461 0.12856 0.0
C603 C 0.34184 0.83887 0.10974 0.0
C604 C 0.33116 0.86808 0.10262 0.0
C605 C 0.34013 0.90316 0.11428 0.0
C606 C 0.35964 0.90902 0.13311 0.0
C607 C 0.56749 1.00677 0.19915 0.0
C608 C 0.57191 1.0467 0.19637 0.0
C609 C 0.52964 0.96977 0.19402 0.0
C610 C 0.49406 0.97099 0.18638 0.0
C611 C 0.49903 1.01098 0.18272 0.0
C612 C 0.53724 1.04818 0.18769 0.0
C613 C 0.45184 0.93089 0.18296 0.0
C614 C 0.42884 0.92335 0.16475 0.0
C615 C 0.43443 0.89936 0.19742 0.0
C616 C 0.4546 0.90544 0.21752 0.0
C617 C 0.46358 0.94063 0.22934 0.0
C618 C 0.48332 0.94657 0.24812 0.0
C619 C 0.49385 0.91731 0.25533 0.0
C620 C 0.48454 0.88198 0.24379 0.0
C621 C 0.4649 0.87594 0.22498 0.0
H622 H 0.50914 0.92198 0.26987 0.0
H623 H 0.31602 0.86358 0.08805 0.0
H624 H 0.69083 0.24926 0.50254 0.0
H625 H 0.69081 0.31431 0.50953 0.0
H626 H 0.55634 0.24913 0.50196 0.0
H627 H 0.55617 0.1834 0.49575 0.0
H628 H 0.58647 0.32237 0.48414 0.0
H629 H 0.61181 0.28189 0.54801 0.0
H630 H 0.64759 0.26193 0.57368 0.0
H631 H 0.76015 0.37994 0.56859 0.0
H632 H 0.72565 0.39995 0.54223 0.0
H633 H 0.56344 0.49198 0.5237 0.0
H634 H 0.56048 0.42571 0.5151 0.0
H635 H 0.69349 0.48328 0.52778 0.0
H636 H 0.69589 0.54888 0.53697 0.0
H637 H 0.6617 0.41229 0.54322 0.0
H638 H 0.64124 0.45143 0.47826 0.0
H639 H 0.60871 0.47313 0.45171 0.0
H640 H 0.49105 0.36086 0.45822 0.0
H641 H 0.52279 0.33872 0.485 0.0
C642 C 0.66113 0.24848 0.50244 0.0
C643 C 0.62351 0.21036 0.49867 0.0
C644 C 0.66112 0.28612 0.50643 0.0
C645 C 0.62353 0.28751 0.50639 0.0
C646 C 0.58596 0.24964 0.50214 0.0
C647 C 0.5859 0.21174 0.49859 0.0
C648 C 0.62338 0.32811 0.51068 0.0
C649 C 0.60239 0.34155 0.49727 0.0
C650 C 0.64506 0.35457 0.52746 0.0
C651 C 0.66621 0.34225 0.54298 0.0
C652 C 0.64438 0.30336 0.55214 0.0
C653 C 0.66447 0.29201 0.56679 0.0
C654 C 0.7062 0.31956 0.57267 0.0
C655 C 0.72792 0.35853 0.56391 0.0
C656 C 0.70817 0.36982 0.54905 0.0
C657 C 0.59225 0.49085 0.52405 0.0
C658 C 0.63013 0.52644 0.5305 0.0
C659 C 0.59059 0.45262 0.51919 0.0
C660 C 0.62682 0.4486 0.52052 0.0
C661 C 0.66482 0.48464 0.52656 0.0
C662 C 0.66636 0.52264 0.53156 0.0
C663 C 0.62515 0.40691 0.51658 0.0
C664 C 0.64566 0.39312 0.5301 0.0
C665 C 0.6035 0.38041 0.49978 0.0
C666 C 0.58425 0.39367 0.48379 0.0
C667 C 0.60834 0.43154 0.47415 0.0
C668 C 0.59007 0.44388 0.45903 0.0
C669 C 0.54781 0.41845 0.45333 0.0
C670 C 0.52376 0.38056 0.46269 0.0
C671 C 0.54188 0.36809 0.47783 0.0
H672 H 0.53372 0.42806 0.44162 0.0
H673 H 0.72167 0.3108 0.58407 0.0
H674 H 0.48725 0.53589 0.84408 0.0
H675 H 0.42345 0.53807 0.84982 0.0
H676 H 0.48214 0.66546 0.8305 0.0
H677 H 0.54629 0.66334 0.82472 0.0
H678 H 0.43627 0.66204 0.85806 0.0
H679 H 0.40165 0.57036 0.80152 0.0
H680 H 0.39397 0.5103 0.78194 0.0
H681 H 0.31073 0.42582 0.82401 0.0
H682 H 0.31836 0.48554 0.84395 0.0
H683 H 0.23914 0.66021 0.85373 0.0
H684 H 0.30365 0.66211 0.84375 0.0
H685 H 0.26034 0.53966 0.86758 0.0
H686 H 0.1963 0.5378 0.87738 0.0
H687 H 0.2984 0.54356 0.83512 0.0
H688 H 0.33615 0.63381 0.89272 0.0
H689 H 0.34223 0.69312 0.91244 0.0
H690 H 0.41755 0.77856 0.86851 0.0
H691 H 0.41134 0.71967 0.8485 0.0
C692 C 0.48671 0.56438 0.84081 0.0
C693 C 0.52251 0.59924 0.83366 0.0
C694 C 0.44963 0.56554 0.844 0.0
C695 C 0.44632 0.60145 0.83997 0.0
C696 C 0.48256 0.63679 0.83338 0.0
C697 C 0.51969 0.63558 0.83009 0.0
C698 C 0.40554 0.60206 0.84275 0.0
C699 C 0.40634 0.63622 0.85272 0.0
C700 C 0.36546 0.56851 0.83622 0.0
C701 C 0.36091 0.53252 0.8243 0.0
C702 C 0.38193 0.53904 0.80665 0.0
C703 C 0.37755 0.50503 0.79548 0.0
C704 C 0.35194 0.46426 0.80175 0.0
C705 C 0.3306 0.45743 0.81918 0.0
C706 C 0.33492 0.49136 0.83041 0.0
C707 C 0.24287 0.63324 0.85636 0.0
C708 C 0.2118 0.59856 0.86614 0.0
C709 C 0.2803 0.63456 0.85091 0.0
C710 C 0.288 0.60126 0.85508 0.0
C711 C 0.25601 0.56597 0.86407 0.0
C712 C 0.21897 0.56481 0.86962 0.0
C713 C 0.32919 0.60303 0.85066 0.0
C714 C 0.32843 0.56937 0.84037 0.0
C715 C 0.36915 0.63688 0.85693 0.0
C716 C 0.37301 0.67232 0.869 0.0
C717 C 0.35377 0.66523 0.88722 0.0
C718 C 0.35725 0.69877 0.89847 0.0
C719 C 0.38017 0.73959 0.89172 0.0
C720 C 0.39971 0.74694 0.87372 0.0
C721 C 0.3962 0.71348 0.86242 0.0
H722 H 0.38286 0.76552 0.90045 0.0
H723 H 0.34858 0.43795 0.79308 0.0
H724 H 0.97738 0.53337 0.16884 0.0
H725 H 0.91262 0.46767 0.17399 0.0
H726 H 0.97745 0.39886 0.16712 0.0
H727 H 1.04229 0.46439 0.16154 0.0
H728 H 0.90166 0.35532 0.14949 0.0
H729 H 0.95087 0.42434 0.2135 0.0
H730 H 0.97341 0.48282 0.23756 0.0
H731 H 0.85348 0.4749 0.23012 0.0
H732 H 0.83046 0.4169 0.20573 0.0
H733 H 0.74314 0.16173 0.18846 0.0
H734 H 0.80627 0.22618 0.17981 0.0
H735 H 0.74886 0.29827 0.19641 0.0
H736 H 0.68665 0.23385 0.20583 0.0
H737 H 0.82123 0.34099 0.20871 0.0
H738 H 0.77182 0.27789 0.14425 0.0
H739 H 0.74705 0.2224 0.11835 0.0
H740 H 0.86296 0.22157 0.12486 0.0
H741 H 0.88821 0.27676 0.15095 0.0
C742 C 0.97806 0.50435 0.16839 0.0
C743 C 1.01577 0.50488 0.16485 0.0
C744 C 0.9407 0.46649 0.17149 0.0
C745 C 0.93942 0.42757 0.17146 0.0
C746 C 0.97684 0.42794 0.1674 0.0
C747 C 1.01426 0.46579 0.1642 0.0
C748 C 0.89953 0.38691 0.17579 0.0
C749 C 0.88448 0.35219 0.16261 0.0
C750 C 0.87553 0.38227 0.19254 0.0
C751 C 0.8891 0.41655 0.20758 0.0
C752 C 0.92938 0.43523 0.21689 0.0
C753 C 0.94225 0.4683 0.2306 0.0
C754 C 0.91493 0.48264 0.23533 0.0
C755 C 0.87461 0.46377 0.22645 0.0
C756 C 0.86164 0.43079 0.21268 0.0
C757 C 0.74345 0.1912 0.18965 0.0
C758 C 0.70886 0.19207 0.19723 0.0
C759 C 0.77992 0.22851 0.1847 0.0
C760 C 0.78309 0.26825 0.18686 0.0
C761 C 0.74811 0.26878 0.1943 0.0
C762 C 0.71195 0.23158 0.19948 0.0
C763 C 0.82295 0.3091 0.18233 0.0
C764 C 0.83814 0.34394 0.19552 0.0
C765 C 0.84666 0.31414 0.1654 0.0
C766 C 0.83171 0.28115 0.14967 0.0
C767 C 0.7919 0.26569 0.14022 0.0
C768 C 0.7778 0.23432 0.12551 0.0
C769 C 0.80338 0.21838 0.12 0.0
C770 C 0.84317 0.23389 0.12916 0.0
C771 C 0.85741 0.26525 0.1439 0.0
H772 H 0.7924 0.19408 0.10861 0.0
H773 H 0.92498 0.50828 0.24592 0.0
H774 H 0.10855 0.65157 0.09296 0.0
H775 H 0.11096 0.6464 0.05706 0.0
H776 H 0.18196 0.58292 0.06474 0.0
H777 H 0.17956 0.58777 0.10073 0.0
H778 H 0.17353 0.67613 0.0321 0.0
H779 H 0.15291 0.51018 0.02644 0.0
H780 H 0.1206 0.44417 0.04462 0.0
H781 H 1.03294 0.4752 0.06834 0.0
H782 H 1.06434 0.54107 0.05011 0.0
H783 H 0.21271 0.64185 0.93372 0.0
H784 H 0.21408 0.64433 0.96994 0.0
H785 H 1.08172 0.55589 0.96845 0.0
H786 H 1.08039 0.55228 0.93229 0.0
H787 H 0.11998 0.53835 0.998 0.0
H788 H 0.11952 0.66139 0.97517 0.0
H789 H 0.14501 0.7265 0.95656 0.0
H790 H 0.26315 0.78006 0.98939 0.0
H791 H 0.23854 0.71501 0.00801 0.0
C792 C 0.12481 0.63657 0.08708 0.0
C793 C 0.14376 0.61999 0.09988 0.0
C794 C 0.12627 0.63376 0.06648 0.0
C795 C 0.14632 0.61396 0.05807 0.0
C796 C 0.16584 0.59792 0.07078 0.0
C797 C 0.16459 0.6009 0.09142 0.0
C798 C 0.14635 0.60979 0.03605 0.0
C799 C 0.16202 0.64599 0.02469 0.0
C800 C 0.13069 0.57048 0.0262 0.0
C801 C 0.11133 0.53077 0.03709 0.0
C802 C 0.12667 0.50284 0.0355 0.0
C803 C 0.10852 0.46546 0.04581 0.0
C804 C 1.07484 0.45557 0.05769 0.0
C805 C 1.05914 0.48297 0.05921 0.0
C806 C 1.07715 0.52036 0.04891 0.0
C807 C 0.184 0.62239 0.94108 0.0
C808 C 0.14637 0.5971 0.92998 0.0
C809 C 0.18474 0.62415 0.96184 0.0
C810 C 0.14787 0.60079 0.97204 0.0
C811 C 0.11059 0.57439 0.96102 0.0
C812 C 0.10981 0.57264 0.94028 0.0
C813 C 0.14776 0.60476 0.99408 0.0
C814 C 0.13194 0.56853 0.00544 0.0
C815 C 0.16257 0.64397 0.00391 0.0
C816 C 0.17733 0.6832 0.99284 0.0
C817 C 0.15104 0.68695 0.97832 0.0
C818 C 0.16531 0.72385 0.96779 0.0
C819 C 0.20572 0.75735 0.97176 0.0
C820 C 0.23189 0.75406 0.98631 0.0
C821 C 0.21778 0.71719 0.99687 0.0
H822 H 0.21671 0.7859 0.96359 0.0
H823 H 1.06086 0.42663 0.06567 0.0
H824 H 0.57518 0.08674 0.42395 0.0
H825 H 0.5804 0.08982 0.38819 0.0
H826 H 0.71169 0.12887 0.39518 0.0
H827 H 0.70624 0.1244 0.43126 0.0
H828 H 0.61803 0.14808 0.36432 0.0
H829 H 0.7434 0.09949 0.35425 0.0
H830 H 0.76879 1.05579 0.37047 0.0
H831 H 0.64887 0.98035 0.39506 0.0
H832 H 0.62263 1.02325 0.37879 0.0
H833 H 0.67413 0.18523 0.26473 0.0
H834 H 0.67761 0.18396 0.30078 0.0
H835 H 0.62493 1.05002 0.29815 0.0
H836 H 0.62415 1.05134 0.26209 0.0
H837 H 0.68029 0.07862 0.32679 0.0
H838 H 0.56562 0.09951 0.3081 0.0
H839 H 0.53022 0.13372 0.29142 0.0
H840 H 0.61135 0.24813 0.3239 0.0
H841 H 0.6476 0.21473 0.3406 0.0
C842 C 0.60528 0.09595 0.41797 0.0
C843 C 0.64032 0.10528 0.4306 0.0
C844 C 0.60823 0.09782 0.3974 0.0
C845 C 0.64635 0.10935 0.38875 0.0
C846 C 0.68164 0.11914 0.40133 0.0
C847 C 0.67858 0.11677 0.42201 0.0
C848 C 0.64866 0.11131 0.36665 0.0
C849 C 0.63185 0.13298 0.35619 0.0
C850 C 0.66589 0.09107 0.35576 0.0
C851 C 0.68126 0.06491 0.3655 0.0
C852 C 0.72244 0.07352 0.36308 0.0
C853 C 0.73697 1.04889 0.37228 0.0
C854 C 0.71051 1.01542 0.38385 0.0
C855 C 0.66939 1.00639 0.38617 0.0
C856 C 0.6547 1.03088 0.37698 0.0
C857 C 0.66395 0.1555 0.27172 0.0
C858 C 0.64858 0.11835 0.26024 0.0
C859 C 0.66543 0.15475 0.29247 0.0
C860 C 0.65078 0.11678 0.30238 0.0
C861 C 0.63627 0.07978 0.291 0.0
C862 C 0.63531 0.08055 0.27025 0.0
C863 C 0.64969 0.11541 0.32453 0.0
C864 C 0.66678 0.09396 0.33497 0.0
C865 C 0.63139 0.1346 0.33539 0.0
C866 C 0.60958 0.15475 0.32545 0.0
C867 C 0.57609 0.13205 0.31159 0.0
C868 C 0.55585 0.15128 0.30215 0.0
C869 C 0.56861 0.1931 0.30656 0.0
C870 C 0.60155 0.21575 0.32048 0.0
C871 C 0.62193 0.19669 0.32994 0.0
H872 H 0.5529 0.20794 0.29924 0.0
H873 H 0.72183 0.99641 0.39097 0.0
H874 H 0.57784 0.55277 0.75823 0.0
H875 H 0.58092 0.55485 0.72231 0.0
H876 H 0.70329 0.66489 0.72747 0.0
H877 H 0.70018 0.66344 0.76368 0.0
H878 H 0.65783 0.67249 0.69754 0.0
H879 H 0.69169 0.56818 0.71747 0.0
H880 H 0.68209 0.50529 0.73472 0.0
H881 H 0.56603 0.43019 0.70148 0.0
H882 H 0.57464 0.49276 0.68422 0.0
H883 H 0.68194 0.5801 0.59715 0.0
H884 H 0.68606 0.58389 0.6334 0.0
H885 H 0.59528 0.62529 0.63248 0.0
H886 H 0.59132 0.62188 0.59629 0.0
H887 H 0.63267 0.54504 0.66055 0.0
H888 H 0.61259 0.68995 0.67172 0.0
H889 H 0.62815 0.75481 0.65454 0.0
H890 H 0.72864 0.75272 0.62567 0.0
H891 H 0.71407 0.68821 0.64288 0.0
C892 C 0.60548 0.5776 0.75182 0.0
C893 C 0.63894 0.6078 0.76397 0.0
C894 C 0.60723 0.57861 0.73119 0.0
C895 C 0.64264 0.60957 0.72208 0.0
C896 C 0.67567 0.64054 0.7341 0.0
C897 C 0.67389 0.63964 0.75484 0.0
C898 C 0.64511 0.60903 0.70006 0.0
C899 C 0.65236 0.64462 0.68947 0.0
C900 C 0.63881 0.573 0.68942 0.0
C901 C 0.63366 0.53523 0.69967 0.0
C902 C 0.66398 0.5383 0.71393 0.0
C903 C 0.65874 0.50271 0.7237 0.0
C904 C 0.62343 0.46379 0.71923 0.0
C905 C 0.59335 0.46037 0.70494 0.0
C906 C 0.59841 0.49588 0.69514 0.0
C907 C 0.66267 0.5898 0.60466 0.0
C908 C 0.63647 0.60091 0.59374 0.0
C909 C 0.66513 0.59206 0.62543 0.0
C910 C 0.64147 0.60548 0.6358 0.0
C911 C 0.61466 0.61579 0.62492 0.0
C912 C 0.61238 0.61378 0.60418 0.0
C913 C 0.64443 0.6082 0.65796 0.0
C914 C 0.63819 0.57296 0.66859 0.0
C915 C 0.65245 0.64482 0.66863 0.0
C916 C 0.66196 0.68403 0.65846 0.0
C917 C 0.63813 0.70345 0.66178 0.0
C918 C 0.64676 0.74013 0.65202 0.0
C919 C 0.67928 0.7578 0.63897 0.0
C920 C 0.70337 0.73892 0.63572 0.0
C921 C 0.69491 0.70228 0.64546 0.0
H922 H 0.68587 0.78617 0.63141 0.0
H923 H 0.61943 0.43626 0.72681 0.0
H924 H 0.66755 0.13821 0.56133 0.0
H925 H 0.65266 0.13255 0.59664 0.0
H926 H 0.53114 1.02498 0.58323 0.0
H927 H 0.54569 1.03 0.54823 0.0
H928 H 0.53064 0.0864 0.60863 0.0
H929 H 0.60455 1.00878 0.6009 0.0
H930 H 0.66504 1.00217 0.59167 0.0
H931 H 0.74467 0.10066 0.63338 0.0
H932 H 0.68469 0.10823 0.64266 0.0
H933 H 0.45465 0.98537 0.69773 0.0
H934 H 0.47887 1.0032 0.66422 0.0
H935 H 0.60355 0.08914 0.68787 0.0
H936 H 0.58025 0.06944 0.72137 0.0
H937 H 0.60878 1.04859 0.65806 0.0
H938 H 0.53701 0.12362 0.66851 0.0
H939 H 0.47916 0.13458 0.67783 0.0
H940 H 0.39936 1.04854 0.63156 0.0
H941 H 0.45656 1.03661 0.62213 0.0
C942 C 0.63771 0.11339 0.56595 0.0
C943 C 0.60788 0.08447 0.55204 0.0
C944 C 0.62929 0.1102 0.58607 0.0
C945 C 0.59082 0.07834 0.59244 0.0
C946 C 0.56093 1.04983 0.57855 0.0
C947 C 0.56946 1.05266 0.55857 0.0
C948 C 0.58134 0.07387 0.6136 0.0
C949 C 0.5475 0.07793 0.61947 0.0
C950 C 0.60437 0.06426 0.62775 0.0
C951 C 0.64027 1.05939 0.62231 0.0
C952 C 0.63503 1.02926 0.60798 0.0
C953 C 0.6692 1.02529 0.60277 0.0
C954 C 0.70871 1.05107 0.61189 0.0
C955 C 0.71408 0.08077 0.6263 0.0
C956 C 0.68 0.08489 0.63155 0.0
C957 C 0.48732 1.00769 0.69582 0.0
C958 C 0.51535 1.02623 0.71229 0.0
C959 C 0.50104 1.01831 0.67664 0.0
C960 C 0.54286 1.04823 0.67352 0.0
C961 C 0.57106 0.06627 0.6899 0.0
C962 C 0.55752 1.05529 0.70908 0.0
C963 C 0.55724 1.06014 0.65315 0.0
C964 C 0.59209 1.05759 0.64738 0.0
C965 C 0.53552 0.07184 0.63914 0.0
C966 C 0.501 0.07897 0.64472 0.0
C967 C 0.50703 0.10681 0.66041 0.0
C968 C 0.47437 0.11323 0.6657 0.0
C969 C 0.43559 0.0922 0.65532 0.0
C970 C 0.42941 0.06478 0.6396 0.0
C971 C 0.46196 1.05821 0.63426 0.0
H972 H 0.41034 0.09722 0.65944 0.0
H973 H 0.73513 1.04795 0.60783 0.0
H974 H 0.66611 0.53283 0.88146 0.0
H975 H 0.65522 0.50837 0.9152 0.0
H976 H 0.61217 0.5943 0.92939 0.0
H977 H 0.62255 0.61902 0.89514 0.0
H978 H 0.66894 0.58525 0.95949 0.0
H979 H 0.54087 0.50362 0.9202 0.0
H980 H 0.49803 0.46075 0.89124 0.0
H981 H 0.53638 0.37019 0.90361 0.0
H982 H 0.58009 0.41293 0.93242 0.0
H983 H 0.57437 0.48865 0.04664 0.0
H984 H 0.58831 0.51966 0.01434 0.0
H985 H 0.60121 0.41734 0.99171 0.0
H986 H 0.58405 0.38406 0.02401 0.0
H987 H 0.55925 0.43654 0.9657 0.0
H988 H 0.68741 0.51578 0.0041 0.0
H989 H 0.73276 0.55773 0.03269 0.0
H990 H 0.69856 0.65182 0.02179 0.0
H991 H 0.65251 0.61014 0.99328 0.0
C992 C 0.6547 0.54699 0.89173 0.0
C993 C 0.64452 0.57743 0.88557 0.0
C994 C 0.64858 0.53294 0.91102 0.0
C995 C 0.6323 0.54908 0.92458 0.0
C996 C 0.6246 0.58142 0.91898 0.0
C997 C 0.63057 0.5955 0.89949 0.0
C998 C 0.62109 0.52985 0.94412 0.0
C999 C 0.64449 0.553 0.96099 0.0
C1000 C 0.59017 0.48734 0.94578 0.0
C1001 C 0.56401 0.46165 0.92839 0.0
C1002 C 0.54051 0.47478 0.91663 0.0
C1003 C 0.51601 0.45047 0.90025 0.0
C1004 C 0.51448 0.41277 0.89559 0.0
C1005 C 0.53758 0.39939 0.90724 0.0
C1006 C 0.56221 0.42364 0.9236 0.0
C1007 C 0.57905 0.47192 0.03475 0.0
C1008 C 0.57735 0.43331 0.03791 0.0
C1009 C 0.58791 0.49029 0.01632 0.0
C1010 C 0.59667 0.47133 0.00071 0.0
C1011 C 0.59478 0.43266 0.00364 0.0
C1012 C 0.58522 0.41379 0.02211 0.0
C1013 C 0.60716 0.49183 0.98129 0.0
C1014 C 0.58364 0.46886 0.96435 0.0
C1015 C 0.63836 0.53439 0.97956 0.0
C1016 C 0.6662 0.55964 0.99665 0.0
C1017 C 0.68931 0.54527 0.00788 0.0
C1018 C 0.71519 0.56903 0.02406 0.0
C1019 C 0.71847 0.60737 0.02908 0.0
C1020 C 0.69595 0.62209 0.01789 0.0
C1021 C 0.66999 0.59843 0.00171 0.0
H1022 H 0.73852 0.62572 0.04161 0.0
H1023 H 0.49524 0.39385 0.88301 0.0
H1024 H 0.14331 0.68189 0.22759 0.0
H1025 H 0.12452 0.6764 0.26211 0.0
H1026 H 1.0617 0.54176 0.25675 0.0
H1027 H 1.0809 0.54697 0.22211 0.0
H1028 H 1.01516 0.57634 0.27521 0.0
H1029 H 0.14805 0.58291 0.28074 0.0
H1030 H 0.22247 0.61105 0.27414 0.0
H1031 H 0.25259 0.7291 0.30087 0.0
H1032 H 0.17821 0.70187 0.30735 0.0
H1033 H 0.99348 0.55932 0.38077 0.0
H1034 H 1.00352 0.55111 0.34573 0.0
H1035 H 0.09551 0.68259 0.34438 0.0
H1036 H 1.08679 0.6901 0.37954 0.0
H1037 H 0.12545 0.63988 0.32916 0.0
H1038 H 0.9928 0.63609 0.32163 0.0
H1039 H 0.91821 0.6098 0.32717 0.0
H1040 H 0.88715 0.48902 0.30353 0.0
H1041 H 0.96166 0.51441 0.29813 0.0
C1042 C 0.12569 0.65111 0.23378 0.0
C1043 C 0.11387 0.61487 0.22227 0.0
C1044 C 0.11501 0.64805 0.25346 0.0
C1045 C 1.092 0.60871 0.26191 0.0
C1046 C 1.07962 0.57236 0.25043 0.0
C1047 C 1.09085 0.57542 0.23076 0.0
C1048 C 1.08116 0.60612 0.2828 0.0
C1049 C 1.03907 0.58952 0.28714 0.0
C1050 C 0.11261 0.624 0.29813 0.0
C1051 C 0.15747 0.64042 0.29439 0.0
C1052 C 0.17048 0.61497 0.28507 0.0
C1053 C 0.21267 0.63075 0.28137 0.0
C1054 C 0.24222 0.67187 0.28705 0.0
C1055 C 0.22965 0.69726 0.29647 0.0
C1056 C 0.18748 0.68166 0.30018 0.0
C1057 C 1.01518 0.58646 0.37277 0.0
C1058 C 1.03926 0.62536 0.3826 0.0
C1059 C 1.02089 0.58183 0.3528 0.0
C1060 C 1.05014 0.6163 0.34237 0.0
C1061 C 1.07293 0.65552 0.35213 0.0
C1062 C 1.0678 0.65992 0.37212 0.0
C1063 C 1.05931 0.61142 0.3217 0.0
C1064 C 0.10127 0.6264 0.31737 0.0
C1065 C 1.02767 0.5923 0.3064 0.0
C1066 C 0.98289 0.57701 0.30973 0.0
C1067 C 0.97012 0.60381 0.3178 0.0
C1068 C 0.92785 0.58908 0.32088 0.0
C1069 C 0.89798 0.54772 0.31578 0.0
C1070 C 0.91032 0.52102 0.30753 0.0
C1071 C 0.95257 0.53556 0.30446 0.0
H1072 H 0.86526 0.53639 0.31817 0.0
H1073 H 0.27488 0.68402 0.28417 0.0
loop_
_geom_bond_atom_site_label_1
_geom_bond_atom_site_label_2
_geom_bond_distance
_geom_bond_site_symmetry_2
_ccdc_geom_bond_type
Tb0 C10 2.825 . S
Tb0 O11 2.347 . S
Tb0 O14 2.366 . S
Tb0 O19 2.418 . S
Tb0 O20 2.384 1_455 S
Tb0 O23 2.479 . S
Tb0 O24 2.471 . S
Eu1 O12 2.423 . S
Eu1 O13 2.384 1_655 S
Eu1 O16 2.479 . S
Eu1 O17 2.471 . S
Eu1 O18 2.347 1_655 S
Eu1 O21 2.366 . S
Eu1 C31 2.825 . S
C2 O18 1.259 . S
C2 O19 1.265 . S
C3 O20 1.255 . S
C3 O21 1.265 . S
C4 C6 1.380 . S
C4 C7 1.374 . S
C4 C10 1.507 . S
C5 C6 1.384 . S
C5 C9 1.387 . S
C5 H32 0.930 . S
C6 C4 1.380 . S
C6 C5 1.384 . S
C6 H33 0.931 . S
C7 C4 1.374 . S
C7 C8 1.390 . S
C7 H34 0.930 . S
C8 C7 1.390 . S
C8 C9 1.391 . S
C8 H35 0.930 . S
C9 C5 1.387 . S
C9 C8 1.391 . S
C10 Tb0 2.825 . S
C10 C4 1.507 . S
C10 O23 1.238 . S
C10 O24 1.247 . S
O11 Tb0 2.347 . S
O11 C15 1.259 . S
O12 Eu1 2.423 . S
O12 C15 1.244 1_655 S
O13 Eu1 2.384 1_455 S
O13 C22 1.255 . S
O14 Tb0 2.366 . S
O14 C22 1.265 . S
C15 O11 1.259 . S
C15 O12 1.244 1_455 S
O16 Eu1 2.479 . S
O16 C31 1.238 . S
O17 Eu1 2.471 . S
O17 C31 1.247 . S
O18 Eu1 2.347 1_455 S
O18 C2 1.259 . S
O19 Tb0 2.418 . S
O19 C2 1.265 . S
O20 Tb0 2.384 1_655 S
O20 C3 1.255 . S
O21 Eu1 2.366 . S
O21 C3 1.265 . S
C22 O13 1.255 . S
C22 O14 1.265 . S
O23 Tb0 2.479 . S
O23 C10 1.238 . S
O24 Tb0 2.471 . S
O24 C10 1.247 . S
C25 C28 1.380 . S
C25 C29 1.374 . S
C25 C31 1.507 . S
C26 C27 1.387 . S
C26 C30 1.391 . S
C27 C26 1.387 . S
C27 C28 1.384 . S
C27 H36 0.930 . S
C28 C25 1.380 . S
C28 C27 1.384 . S
C28 H37 0.931 . S
C29 C25 1.374 . S
C29 C30 1.390 . S
C29 H38 0.930 . S
C30 C26 1.391 . S
C30 C29 1.390 . S
C30 H39 0.930 . S
C31 Eu1 2.825 . S
C31 O16 1.238 . S
C31 O17 1.247 . S
C31 C25 1.507 . S
H32 C5 0.930 . S
H33 C6 0.931 . S
H34 C7 0.930 . S
H35 C8 0.930 . S
H36 C27 0.930 . S
H37 C28 0.931 . S
H38 C29 0.930 . S
H39 C30 0.930 . S
Tb40 C50 2.825 . S
Tb40 O51 2.347 . S
Tb40 O54 2.366 . S
Tb40 O59 2.418 . S
Tb40 O60 2.384 1_545 S
Tb40 O63 2.479 . S
Tb40 O64 2.471 . S
Eu41 O52 2.418 . S
Eu41 O53 2.384 . S
Eu41 O56 2.479 1_545 S
Eu41 O57 2.471 1_545 S
Eu41 O58 2.347 . S
Eu41 O61 2.366 1_545 S
Eu41 C71 2.825 1_545 S
C42 O58 1.259 . S
C42 O59 1.265 . S
C43 O60 1.255 . S
C43 O61 1.265 . S
C44 C46 1.380 . S
C44 C47 1.374 . S
C44 C50 1.507 . S
C45 C46 1.384 . S
C45 C49 1.387 . S
C45 H72 0.930 . S
C46 C44 1.380 . S
C46 C45 1.384 . S
C46 H73 0.931 . S
C47 C44 1.374 . S
C47 C48 1.390 . S
C47 H74 0.930 . S
C48 C47 1.390 . S
C48 C49 1.391 . S
C48 H75 0.930 . S
C49 C45 1.387 . S
C49 C48 1.391 . S
C50 Tb40 2.825 . S
C50 C44 1.507 . S
C50 O63 1.238 . S
C50 O64 1.247 . S
O51 Tb40 2.347 . S
O51 C55 1.259 . S
O52 Eu41 2.418 . S
O52 C55 1.265 . S
O53 Eu41 2.384 . S
O53 C62 1.255 . S
O54 Tb40 2.366 . S
O54 C62 1.265 . S
C55 O51 1.259 . S
C55 O52 1.265 . S
O56 Eu41 2.479 1_565 S
O56 C71 1.238 . S
O57 Eu41 2.471 1_565 S
O57 C71 1.247 . S
O58 Eu41 2.347 . S
O58 C42 1.259 . S
O59 Tb40 2.418 . S
O59 C42 1.265 . S
O60 Tb40 2.384 1_565 S
O60 C43 1.255 . S
O61 Eu41 2.366 1_565 S
O61 C43 1.265 . S
C62 O53 1.255 . S
C62 O54 1.265 . S
O63 Tb40 2.479 . S
O63 C50 1.238 . S
O64 Tb40 2.471 . S
O64 C50 1.247 . S
C65 C68 1.380 . S
C65 C69 1.374 . S
C65 C71 1.507 . S
C66 C67 1.387 . S
C66 C70 1.391 . S
C67 C66 1.387 . S
C67 C68 1.384 . S
C67 H76 0.930 . S
C68 C65 1.380 . S
C68 C67 1.384 . S
C68 H77 0.931 . S
C69 C65 1.374 . S
C69 C70 1.390 . S
C69 H78 0.930 . S
C70 C66 1.391 . S
C70 C69 1.390 . S
C70 H79 0.930 . S
C71 Eu41 2.825 1_565 S
C71 O56 1.238 . S
C71 O57 1.247 . S
C71 C65 1.507 . S
H72 C45 0.930 . S
H73 C46 0.931 . S
H74 C47 0.930 . S
H75 C48 0.930 . S
H76 C67 0.930 . S
H77 C68 0.931 . S
H78 C69 0.930 . S
H79 C70 0.930 . S
Tb80 C90 2.825 . S
Tb80 O91 2.347 . S
Tb80 O94 2.366 . S
Tb80 O99 2.418 . S
Tb80 O100 2.384 . S
Tb80 O103 2.479 . S
Tb80 O104 2.471 . S
Eu81 O92 2.418 . S
Eu81 O93 2.384 . S
Eu81 O96 2.479 . S
Eu81 O97 2.471 . S
Eu81 O98 2.347 . S
Eu81 O101 2.366 . S
Eu81 C111 2.825 . S
C82 O98 1.259 . S
C82 O99 1.265 . S
C83 O100 1.255 . S
C83 O101 1.265 . S
C84 C86 1.380 . S
C84 C87 1.374 . S
C84 C90 1.507 . S
C85 C86 1.384 . S
C85 C89 1.387 . S
C85 H112 0.930 . S
C86 C84 1.380 . S
C86 C85 1.384 . S
C86 H113 0.931 . S
C87 C84 1.374 . S
C87 C88 1.390 . S
C87 H114 0.930 . S
C88 C87 1.390 . S
C88 C89 1.391 . S
C88 H115 0.930 . S
C89 C85 1.387 . S
C89 C88 1.391 . S
C90 Tb80 2.825 . S
C90 C84 1.507 . S
C90 O103 1.238 . S
C90 O104 1.247 . S
O91 Tb80 2.347 . S
O91 C95 1.259 . S
O92 Eu81 2.418 . S
O92 C95 1.265 . S
O93 Eu81 2.384 . S
O93 C102 1.255 . S
O94 Tb80 2.366 . S
O94 C102 1.265 . S
C95 O91 1.259 . S
C95 O92 1.265 . S
O96 Eu81 2.479 . S
O96 C111 1.238 . S
O97 Eu81 2.471 . S
O97 C111 1.247 . S
O98 Eu81 2.347 . S
O98 C82 1.259 . S
O99 Tb80 2.418 . S
O99 C82 1.265 . S
O100 Tb80 2.384 . S
O100 C83 1.255 . S
O101 Eu81 2.366 . S
O101 C83 1.265 . S
C102 O93 1.255 . S
C102 O94 1.265 . S
O103 Tb80 2.479 . S
O103 C90 1.238 . S
O104 Tb80 2.471 . S
O104 C90 1.247 . S
C105 C108 1.380 . S
C105 C109 1.374 . S
C105 C111 1.507 . S
C106 C107 1.387 . S
C106 C110 1.391 . S
C107 C106 1.387 . S
C107 C108 1.384 . S
C107 H116 0.930 . S
C108 C105 1.380 . S
C108 C107 1.384 . S
C108 H117 0.931 . S
C109 C105 1.374 . S
C109 C110 1.390 . S
C109 H118 0.930 . S
C110 C106 1.391 . S
C110 C109 1.390 . S
C110 H119 0.930 . S
C111 Eu81 2.825 . S
C111 O96 1.238 . S
C111 O97 1.247 . S
C111 C105 1.507 . S
H112 C85 0.930 . S
H113 C86 0.931 . S
H114 C87 0.930 . S
H115 C88 0.930 . S
H116 C107 0.930 . S
H117 C108 0.931 . S
H118 C109 0.930 . S
H119 C110 0.930 . S
H120 C123 0.931 . S
H121 C126 0.928 . S
H122 C128 0.930 . S
C123 H120 0.931 . S
C123 C124 1.413 . S
C123 C125 1.360 1_565 S
C124 C123 1.413 . S
C124 C128 1.429 1_565 S
C125 C123 1.360 1_545 S
C125 C126 1.372 . S
C126 H121 0.928 . S
C126 C125 1.372 . S
C126 C127 1.404 . S
C127 C126 1.404 . S
C127 C128 1.391 . S
C128 H122 0.930 . S
C128 C124 1.429 1_545 S
C128 C127 1.391 . S
H129 C132 0.931 . S
H130 C135 0.928 . S
H131 C137 0.930 . S
C132 H129 0.931 . S
C132 C133 1.413 . S
C132 C134 1.360 . S
C133 C132 1.413 . S
C133 C137 1.429 . S
C134 C132 1.360 . S
C134 C135 1.372 . S
C135 H130 0.928 . S
C135 C134 1.372 . S
C135 C136 1.404 . S
C136 C135 1.404 . S
C136 C137 1.391 . S
C137 H131 0.930 . S
C137 C133 1.429 . S
C137 C136 1.391 . S
H138 C141 0.931 . S
H139 C144 0.928 . S
H140 C146 0.930 . S
C141 H138 0.931 . S
C141 C142 1.413 . S
C141 C143 1.360 1_655 S
C142 C141 1.413 . S
C142 C146 1.429 1_655 S
C143 C141 1.360 1_455 S
C143 C144 1.372 . S
C144 H139 0.928 . S
C144 C143 1.372 . S
C144 C145 1.404 . S
C145 C144 1.404 . S
C145 C146 1.391 . S
C146 H140 0.930 . S
C146 C142 1.429 1_455 S
C146 C145 1.391 . S
H147 C150 0.931 . S
H148 C153 0.928 . S
H149 C155 0.930 . S
C150 H147 0.931 . S
C150 C151 1.413 . S
C150 C152 1.360 1_655 S
C151 C150 1.413 . S
C151 C155 1.429 1_655 S
C152 C150 1.360 1_455 S
C152 C153 1.372 . S
C153 H148 0.928 . S
C153 C152 1.372 . S
C153 C154 1.404 . S
C154 C153 1.404 . S
C154 C155 1.391 . S
C155 H149 0.930 . S
C155 C151 1.429 1_455 S
C155 C154 1.391 . S
H156 C159 0.931 . S
H157 C162 0.928 . S
H158 C164 0.930 . S
C159 H156 0.931 . S
C159 C160 1.413 . S
C159 C161 1.384 . S
C160 C159 1.413 . S
C160 C164 1.403 1_545 S
C161 C159 1.384 . S
C161 C162 1.348 1_545 S
C162 H157 0.928 . S
C162 C161 1.348 1_565 S
C162 C163 1.404 . S
C163 C162 1.404 . S
C163 C164 1.416 . S
C164 H158 0.930 . S
C164 C160 1.403 1_565 S
C164 C163 1.416 . S
H165 C168 0.931 . S
H166 C171 0.928 . S
H167 C173 0.930 . S
C168 H165 0.931 . S
C168 C169 1.413 . S
C168 C170 1.360 . S
C169 C168 1.413 . S
C169 C173 1.429 . S
C170 C168 1.360 . S
C170 C171 1.372 . S
C171 H166 0.928 . S
C171 C170 1.372 . S
C171 C172 1.404 . S
C172 C171 1.404 . S
C172 C173 1.391 . S
C173 H167 0.930 . S
C173 C169 1.429 . S
C173 C172 1.391 . S
H174 C192 0.951 . S
H175 C194 0.951 . S
H176 C196 0.950 . S
H177 C197 0.950 . S
H178 C199 0.950 . S
H179 C202 0.950 . S
H180 C203 0.950 . S
H181 C205 0.950 . S
H182 C206 0.950 . S
H183 C207 0.951 . S
H184 C209 0.951 . S
H185 C211 0.950 . S
H186 C212 0.950 . S
H187 C214 0.950 . S
H188 C217 0.950 . S
H189 C218 0.950 . S
H190 C220 0.950 . S
H191 C221 0.950 . S
C192 H174 0.951 . S
C192 C193 1.366 . S
C192 C194 1.388 . S
C193 C192 1.366 . S
C193 C197 1.385 . S
C194 H175 0.951 . S
C194 C192 1.388 . S
C194 C195 1.366 . S
C195 C194 1.366 . S
C195 C196 1.414 . S
C195 C198 1.499 . S
C196 H176 0.950 . S
C196 C195 1.414 . S
C196 C197 1.374 . S
C197 H177 0.950 . S
C197 C193 1.385 . S
C197 C196 1.374 . S
C198 C195 1.499 . S
C198 C199 1.373 . S
C198 C200 1.389 . S
C199 H178 0.950 . S
C199 C198 1.373 . S
C199 C215 1.377 . S
C200 C198 1.389 . S
C200 C201 1.524 . S
C200 C214 1.377 . S
C201 C200 1.524 . S
C201 C202 1.397 . S
C201 C206 1.363 . S
C202 H179 0.950 . S
C202 C201 1.397 . S
C202 C203 1.334 . S
C203 H180 0.950 . S
C203 C202 1.334 . S
C203 C204 1.287 . S
C204 C203 1.287 . S
C204 C205 1.524 . S
C204 H223 0.913 . S
C205 H181 0.950 . S
C205 C204 1.524 . S
C205 C206 1.415 . S
C206 H182 0.950 . S
C206 C201 1.363 . S
C206 C205 1.415 . S
C207 H183 0.951 . S
C207 C208 1.366 . S
C207 C209 1.388 . S
C208 C207 1.366 . S
C208 C212 1.385 . S
C209 H184 0.951 . S
C209 C207 1.388 . S
C209 C210 1.366 . S
C210 C209 1.366 . S
C210 C211 1.414 . S
C210 C213 1.499 . S
C211 H185 0.950 . S
C211 C210 1.414 . S
C211 C212 1.374 . S
C212 H186 0.950 . S
C212 C208 1.385 . S
C212 C211 1.374 . S
C213 C210 1.499 . S
C213 C214 1.373 . S
C213 C215 1.389 . S
C214 H187 0.950 . S
C214 C200 1.377 . S
C214 C213 1.373 . S
C215 C199 1.377 . S
C215 C213 1.389 . S
C215 C216 1.524 . S
C216 C215 1.524 . S
C216 C217 1.397 . S
C216 C221 1.363 . S
C217 H188 0.950 . S
C217 C216 1.397 . S
C217 C218 1.334 . S
C218 H189 0.950 . S
C218 C217 1.334 . S
C218 C219 1.287 . S
C219 C218 1.287 . S
C219 C220 1.524 . S
C219 H222 0.999 . S
C220 H190 0.950 . S
C220 C219 1.524 . S
C220 C221 1.415 . S
C221 H191 0.950 . S
C221 C216 1.363 . S
C221 C220 1.415 . S
H222 C219 0.999 . S
H223 C204 0.913 . S
H224 C242 0.951 . S
H225 C244 0.951 . S
H226 C246 0.950 . S
H227 C247 0.950 . S
H228 C249 0.950 . S
H229 C252 0.950 . S
H230 C253 0.950 . S
H231 C255 0.950 . S
H232 C256 0.950 . S
H233 C257 0.951 . S
H234 C259 0.951 . S
H235 C261 0.950 . S
H236 C262 0.950 . S
H237 C264 0.950 . S
H238 C267 0.950 . S
H239 C268 0.950 . S
H240 C270 0.950 . S
H241 C271 0.950 . S
C242 H224 0.951 . S
C242 C243 1.366 . S
C242 C244 1.388 . S
C243 C242 1.366 . S
C243 C247 1.385 . S
C244 H225 0.951 . S
C244 C242 1.388 . S
C244 C245 1.366 . S
C245 C244 1.366 . S
C245 C246 1.414 . S
C245 C248 1.499 . S
C246 H226 0.950 . S
C246 C245 1.414 . S
C246 C247 1.374 . S
C247 H227 0.950 . S
C247 C243 1.385 . S
C247 C246 1.374 . S
C248 C245 1.499 . S
C248 C249 1.373 . S
C248 C250 1.389 . S
C249 H228 0.950 . S
C249 C248 1.373 . S
C249 C265 1.377 . S
C250 C248 1.389 . S
C250 C251 1.524 . S
C250 C264 1.377 . S
C251 C250 1.524 . S
C251 C252 1.397 . S
C251 C256 1.363 . S
C252 H229 0.950 . S
C252 C251 1.397 . S
C252 C253 1.334 . S
C253 H230 0.950 . S
C253 C252 1.334 . S
C253 C254 1.287 . S
C254 C253 1.287 . S
C254 C255 1.524 . S
C254 H273 0.913 . S
C255 H231 0.950 . S
C255 C254 1.524 . S
C255 C256 1.415 . S
C256 H232 0.950 . S
C256 C251 1.363 . S
C256 C255 1.415 . S
C257 H233 0.951 . S
C257 C258 1.366 . S
C257 C259 1.388 . S
C258 C257 1.366 . S
C258 C262 1.385 . S
C259 H234 0.951 . S
C259 C257 1.388 . S
C259 C260 1.366 . S
C260 C259 1.366 . S
C260 C261 1.414 . S
C260 C263 1.499 . S
C261 H235 0.950 . S
C261 C260 1.414 . S
C261 C262 1.374 . S
C262 H236 0.950 . S
C262 C258 1.385 . S
C262 C261 1.374 . S
C263 C260 1.499 . S
C263 C264 1.373 . S
C263 C265 1.389 . S
C264 H237 0.950 . S
C264 C250 1.377 . S
C264 C263 1.373 . S
C265 C249 1.377 . S
C265 C263 1.389 . S
C265 C266 1.524 . S
C266 C265 1.524 . S
C266 C267 1.397 . S
C266 C271 1.363 . S
C267 H238 0.950 . S
C267 C266 1.397 . S
C267 C268 1.334 . S
C268 H239 0.950 . S
C268 C267 1.334 . S
C268 C269 1.287 . S
C269 C268 1.287 . S
C269 C270 1.524 . S
C269 H272 0.999 1_655 S
C270 H240 0.950 . S
C270 C269 1.524 . S
C270 C271 1.415 . S
C271 H241 0.950 . S
C271 C266 1.363 . S
C271 C270 1.415 . S
H272 C269 0.999 1_455 S
H273 C254 0.913 . S
H274 C292 0.951 . S
H275 C294 0.951 . S
H276 C296 0.950 . S
H277 C297 0.950 . S
H278 C299 0.950 . S
H279 C302 0.950 . S
H280 C303 0.950 . S
H281 C305 0.950 . S
H282 C306 0.950 . S
H283 C307 0.951 . S
H284 C309 0.951 . S
H285 C311 0.950 . S
H286 C312 0.950 . S
H287 C314 0.950 . S
H288 C317 0.950 . S
H289 C318 0.950 . S
H290 C320 0.950 . S
H291 C321 0.950 . S
C292 H274 0.951 . S
C292 C293 1.366 . S
C292 C294 1.388 . S
C293 C292 1.366 . S
C293 C297 1.385 . S
C294 H275 0.951 . S
C294 C292 1.388 . S
C294 C295 1.366 . S
C295 C294 1.366 . S
C295 C296 1.414 . S
C295 C298 1.499 . S
C296 H276 0.950 . S
C296 C295 1.414 . S
C296 C297 1.374 . S
C297 H277 0.950 . S
C297 C293 1.385 . S
C297 C296 1.374 . S
C298 C295 1.499 . S
C298 C299 1.373 . S
C298 C300 1.389 . S
C299 H278 0.950 . S
C299 C298 1.373 . S
C299 C315 1.377 . S
C300 C298 1.389 . S
C300 C301 1.524 . S
C300 C314 1.377 . S
C301 C300 1.524 . S
C301 C302 1.397 . S
C301 C306 1.363 . S
C302 H279 0.950 . S
C302 C301 1.397 . S
C302 C303 1.334 . S
C303 H280 0.950 . S
C303 C302 1.334 . S
C303 C304 1.287 . S
C304 C303 1.287 . S
C304 C305 1.524 . S
C304 H323 0.913 . S
C305 H281 0.950 . S
C305 C304 1.524 . S
C305 C306 1.415 . S
C306 H282 0.950 . S
C306 C301 1.363 . S
C306 C305 1.415 . S
C307 H283 0.951 . S
C307 C308 1.366 . S
C307 C309 1.388 . S
C308 C307 1.366 . S
C308 C312 1.385 . S
C309 H284 0.951 . S
C309 C307 1.388 . S
C309 C310 1.366 . S
C310 C309 1.366 . S
C310 C311 1.414 . S
C310 C313 1.499 . S
C311 H285 0.950 . S
C311 C310 1.414 . S
C311 C312 1.374 . S
C312 H286 0.950 . S
C312 C308 1.385 . S
C312 C311 1.374 . S
C313 C310 1.499 . S
C313 C314 1.373 . S
C313 C315 1.389 . S
C314 H287 0.950 . S
C314 C300 1.377 . S
C314 C313 1.373 . S
C315 C299 1.377 . S
C315 C313 1.389 . S
C315 C316 1.524 . S
C316 C315 1.524 . S
C316 C317 1.397 . S
C316 C321 1.363 . S
C317 H288 0.950 . S
C317 C316 1.397 . S
C317 C318 1.334 . S
C318 H289 0.950 . S
C318 C317 1.334 . S
C318 C319 1.287 . S
C319 C318 1.287 . S
C319 C320 1.524 . S
C319 H322 0.999 1_565 S
C320 H290 0.950 . S
C320 C319 1.524 . S
C320 C321 1.415 . S
C321 H291 0.950 . S
C321 C316 1.363 . S
C321 C320 1.415 . S
H322 C319 0.999 1_545 S
H323 C304 0.913 . S
H324 C342 0.951 . S
H325 C344 0.951 . S
H326 C346 0.950 . S
H327 C347 0.950 . S
H328 C349 0.950 . S
H329 C352 0.950 . S
H330 C353 0.950 . S
H331 C355 0.950 . S
H332 C356 0.950 . S
H333 C357 0.951 . S
H334 C359 0.951 . S
H335 C361 0.950 . S
H336 C362 0.950 . S
H337 C364 0.950 . S
H338 C367 0.950 . S
H339 C368 0.950 . S
H340 C370 0.950 . S
H341 C371 0.950 . S
C342 H324 0.951 . S
C342 C343 1.366 . S
C342 C344 1.388 . S
C343 C342 1.366 . S
C343 C347 1.385 . S
C344 H325 0.951 . S
C344 C342 1.388 . S
C344 C345 1.366 . S
C345 C344 1.366 . S
C345 C346 1.414 . S
C345 C348 1.499 . S
C346 H326 0.950 . S
C346 C345 1.414 . S
C346 C347 1.374 . S
C347 H327 0.950 . S
C347 C343 1.385 . S
C347 C346 1.374 . S
C348 C345 1.499 . S
C348 C349 1.373 . S
C348 C350 1.389 . S
C349 H328 0.950 . S
C349 C348 1.373 . S
C349 C365 1.377 . S
C350 C348 1.389 . S
C350 C351 1.524 . S
C350 C364 1.377 . S
C351 C350 1.524 . S
C351 C352 1.397 . S
C351 C356 1.363 . S
C352 H329 0.950 . S
C352 C351 1.397 . S
C352 C353 1.334 . S
C353 H330 0.950 . S
C353 C352 1.334 . S
C353 C354 1.287 . S
C354 C353 1.287 . S
C354 C355 1.524 . S
C354 H373 0.913 . S
C355 H331 0.950 . S
C355 C354 1.524 . S
C355 C356 1.415 . S
C356 H332 0.950 . S
C356 C351 1.363 . S
C356 C355 1.415 . S
C357 H333 0.951 . S
C357 C358 1.366 . S
C357 C359 1.388 . S
C358 C357 1.366 . S
C358 C362 1.385 . S
C359 H334 0.951 . S
C359 C357 1.388 . S
C359 C360 1.366 . S
C360 C359 1.366 . S
C360 C361 1.414 . S
C360 C363 1.499 . S
C361 H335 0.950 . S
C361 C360 1.414 . S
C361 C362 1.374 . S
C362 H336 0.950 . S
C362 C358 1.385 . S
C362 C361 1.374 . S
C363 C360 1.499 . S
C363 C364 1.373 . S
C363 C365 1.389 . S
C364 H337 0.950 . S
C364 C350 1.377 . S
C364 C363 1.373 . S
C365 C349 1.377 . S
C365 C363 1.389 . S
C365 C366 1.524 . S
C366 C365 1.524 . S
C366 C367 1.397 . S
C366 C371 1.363 . S
C367 H338 0.950 . S
C367 C366 1.397 . S
C367 C368 1.334 . S
C368 H339 0.950 . S
C368 C367 1.334 . S
C368 C369 1.287 . S
C369 C368 1.287 . S
C369 C370 1.524 . S
C369 H372 0.999 . S
C370 H340 0.950 . S
C370 C369 1.524 . S
C370 C371 1.415 . S
C371 H341 0.950 . S
C371 C366 1.363 . S
C371 C370 1.415 . S
H372 C369 0.999 . S
H373 C354 0.913 . S
H374 C392 0.951 . S
H375 C394 0.951 . S
H376 C396 0.950 . S
H377 C397 0.950 . S
H378 C399 0.950 . S
H379 C402 0.950 . S
H380 C403 0.950 . S
H381 C405 0.950 . S
H382 C406 0.950 . S
H383 C407 0.951 . S
H384 C409 0.951 . S
H385 C411 0.950 . S
H386 C412 0.950 . S
H387 C414 0.950 . S
H388 C417 0.950 . S
H389 C418 0.950 . S
H390 C420 0.950 . S
H391 C421 0.950 . S
C392 H374 0.951 . S
C392 C393 1.366 . S
C392 C394 1.388 . S
C393 C392 1.366 . S
C393 C397 1.385 . S
C394 H375 0.951 . S
C394 C392 1.388 . S
C394 C395 1.366 . S
C395 C394 1.366 . S
C395 C396 1.414 . S
C395 C398 1.499 . S
C396 H376 0.950 . S
C396 C395 1.414 . S
C396 C397 1.374 . S
C397 H377 0.950 . S
C397 C393 1.385 . S
C397 C396 1.374 . S
C398 C395 1.499 . S
C398 C399 1.373 . S
C398 C400 1.389 . S
C399 H378 0.950 . S
C399 C398 1.373 . S
C399 C415 1.377 . S
C400 C398 1.389 . S
C400 C401 1.524 . S
C400 C414 1.377 . S
C401 C400 1.524 . S
C401 C402 1.397 . S
C401 C406 1.363 . S
C402 H379 0.950 . S
C402 C401 1.397 . S
C402 C403 1.334 . S
C403 H380 0.950 . S
C403 C402 1.334 . S
C403 C404 1.287 . S
C404 C403 1.287 . S
C404 C405 1.524 . S
C404 H423 0.913 . S
C405 H381 0.950 . S
C405 C404 1.524 . S
C405 C406 1.415 . S
C406 H382 0.950 . S
C406 C401 1.363 . S
C406 C405 1.415 . S
C407 H383 0.951 . S
C407 C408 1.366 . S
C407 C409 1.388 . S
C408 C407 1.366 . S
C408 C412 1.385 . S
C409 H384 0.951 . S
C409 C407 1.388 . S
C409 C410 1.366 . S
C410 C409 1.366 . S
C410 C411 1.414 . S
C410 C413 1.499 . S
C411 H385 0.950 . S
C411 C410 1.414 . S
C411 C412 1.374 . S
C412 H386 0.950 . S
C412 C408 1.385 . S
C412 C411 1.374 . S
C413 C410 1.499 . S
C413 C414 1.373 . S
C413 C415 1.389 . S
C414 H387 0.950 . S
C414 C400 1.377 . S
C414 C413 1.373 . S
C415 C399 1.377 . S
C415 C413 1.389 . S
C415 C416 1.524 . S
C416 C415 1.524 . S
C416 C417 1.397 . S
C416 C421 1.363 . S
C417 H388 0.950 . S
C417 C416 1.397 . S
C417 C418 1.334 . S
C418 H389 0.950 . S
C418 C417 1.334 . S
C418 C419 1.287 . S
C419 C418 1.287 . S
C419 C420 1.524 . S
C419 H422 0.999 . S
C420 H390 0.950 . S
C420 C419 1.524 . S
C420 C421 1.415 . S
C421 H391 0.950 . S
C421 C416 1.363 . S
C421 C420 1.415 . S
H422 C419 0.999 . S
H423 C404 0.913 . S
H424 C442 0.951 . S
H425 C444 0.951 . S
H426 C446 0.950 . S
H427 C447 0.950 . S
H428 C449 0.950 . S
H429 C452 0.950 . S
H430 C453 0.950 . S
H431 C455 0.950 . S
H432 C456 0.950 . S
H433 C457 0.951 . S
H434 C459 0.951 . S
H435 C461 0.950 . S
H436 C462 0.950 . S
H437 C464 0.950 . S
H438 C467 0.950 . S
H439 C468 0.950 . S
H440 C470 0.950 . S
H441 C471 0.950 . S
C442 H424 0.951 . S
C442 C443 1.366 . S
C442 C444 1.388 . S
C443 C442 1.366 . S
C443 C447 1.385 . S
C444 H425 0.951 . S
C444 C442 1.388 . S
C444 C445 1.366 . S
C445 C444 1.366 . S
C445 C446 1.414 . S
C445 C448 1.499 . S
C446 H426 0.950 . S
C446 C445 1.414 . S
C446 C447 1.374 . S
C447 H427 0.950 . S
C447 C443 1.385 . S
C447 C446 1.374 . S
C448 C445 1.499 . S
C448 C449 1.373 . S
C448 C450 1.389 . S
C449 H428 0.950 . S
C449 C448 1.373 . S
C449 C465 1.377 . S
C450 C448 1.389 . S
C450 C451 1.524 . S
C450 C464 1.377 . S
C451 C450 1.524 . S
C451 C452 1.397 . S
C451 C456 1.363 . S
C452 H429 0.950 . S
C452 C451 1.397 . S
C452 C453 1.334 . S
C453 H430 0.950 . S
C453 C452 1.334 . S
C453 C454 1.287 . S
C454 C453 1.287 . S
C454 C455 1.524 . S
C454 H473 0.913 . S
C455 H431 0.950 . S
C455 C454 1.524 . S
C455 C456 1.415 . S
C456 H432 0.950 . S
C456 C451 1.363 . S
C456 C455 1.415 . S
C457 H433 0.951 . S
C457 C458 1.366 . S
C457 C459 1.388 . S
C458 C457 1.366 . S
C458 C462 1.385 . S
C459 H434 0.951 . S
C459 C457 1.388 . S
C459 C460 1.366 . S
C460 C459 1.366 . S
C460 C461 1.414 . S
C460 C463 1.499 . S
C461 H435 0.950 . S
C461 C460 1.414 . S
C461 C462 1.374 . S
C462 H436 0.950 . S
C462 C458 1.385 . S
C462 C461 1.374 . S
C463 C460 1.499 . S
C463 C464 1.373 . S
C463 C465 1.389 . S
C464 H437 0.950 . S
C464 C450 1.377 . S
C464 C463 1.373 . S
C465 C449 1.377 . S
C465 C463 1.389 . S
C465 C466 1.524 . S
C466 C465 1.524 . S
C466 C467 1.397 . S
C466 C471 1.363 . S
C467 H438 0.950 . S
C467 C466 1.397 . S
C467 C468 1.334 . S
C468 H439 0.950 . S
C468 C467 1.334 . S
C468 C469 1.287 . S
C469 C468 1.287 . S
C469 C470 1.524 . S
C469 H472 0.999 . S
C470 H440 0.950 . S
C470 C469 1.524 . S
C470 C471 1.415 . S
C471 H441 0.950 . S
C471 C466 1.363 . S
C471 C470 1.415 . S
H472 C469 0.999 . S
H473 C454 0.913 . S
H474 C492 0.951 . S
H475 C494 0.951 . S
H476 C496 0.950 . S
H477 C497 0.950 . S
H478 C499 0.950 . S
H479 C502 0.950 . S
H480 C503 0.950 . S
H481 C505 0.950 . S
H482 C506 0.950 . S
H483 C507 0.951 . S
H484 C509 0.951 . S
H485 C511 0.950 . S
H486 C512 0.950 . S
H487 C514 0.950 . S
H488 C517 0.950 . S
H489 C518 0.950 . S
H490 C520 0.950 . S
H491 C521 0.950 . S
C492 H474 0.951 . S
C492 C493 1.366 . S
C492 C494 1.388 . S
C493 C492 1.366 . S
C493 C497 1.385 . S
C494 H475 0.951 . S
C494 C492 1.388 . S
C494 C495 1.366 . S
C495 C494 1.366 . S
C495 C496 1.414 . S
C495 C498 1.499 . S
C496 H476 0.950 . S
C496 C495 1.414 . S
C496 C497 1.374 . S
C497 H477 0.950 . S
C497 C493 1.385 . S
C497 C496 1.374 . S
C498 C495 1.499 . S
C498 C499 1.373 . S
C498 C500 1.389 . S
C499 H478 0.950 . S
C499 C498 1.373 . S
C499 C515 1.377 . S
C500 C498 1.389 . S
C500 C501 1.524 . S
C500 C514 1.377 . S
C501 C500 1.524 . S
C501 C502 1.397 . S
C501 C506 1.363 . S
C502 H479 0.950 . S
C502 C501 1.397 . S
C502 C503 1.334 . S
C503 H480 0.950 . S
C503 C502 1.334 . S
C503 C504 1.287 . S
C504 C503 1.287 . S
C504 C505 1.524 . S
C504 H523 0.913 . S
C505 H481 0.950 . S
C505 C504 1.524 . S
C505 C506 1.415 . S
C506 H482 0.950 . S
C506 C501 1.363 . S
C506 C505 1.415 . S
C507 H483 0.951 . S
C507 C508 1.366 . S
C507 C509 1.388 . S
C508 C507 1.366 . S
C508 C512 1.385 . S
C509 H484 0.951 . S
C509 C507 1.388 . S
C509 C510 1.366 . S
C510 C509 1.366 . S
C510 C511 1.414 . S
C510 C513 1.499 . S
C511 H485 0.950 . S
C511 C510 1.414 . S
C511 C512 1.374 . S
C512 H486 0.950 . S
C512 C508 1.385 . S
C512 C511 1.374 . S
C513 C510 1.499 . S
C513 C514 1.373 . S
C513 C515 1.389 . S
C514 H487 0.950 . S
C514 C500 1.377 . S
C514 C513 1.373 . S
C515 C499 1.377 . S
C515 C513 1.389 . S
C515 C516 1.524 . S
C516 C515 1.524 . S
C516 C517 1.397 . S
C516 C521 1.363 . S
C517 H488 0.950 . S
C517 C516 1.397 . S
C517 C518 1.334 . S
C518 H489 0.950 . S
C518 C517 1.334 . S
C518 C519 1.287 . S
C519 C518 1.287 . S
C519 C520 1.524 . S
C519 H522 0.999 . S
C520 H490 0.950 . S
C520 C519 1.524 . S
C520 C521 1.415 . S
C521 H491 0.950 . S
C521 C516 1.363 . S
C521 C520 1.415 . S
H522 C519 0.999 . S
H523 C504 0.913 . S
H524 C542 0.951 . S
H525 C544 0.951 . S
H526 C546 0.950 . S
H527 C547 0.950 . S
H528 C549 0.950 . S
H529 C552 0.950 . S
H530 C553 0.950 . S
H531 C555 0.950 . S
H532 C556 0.950 . S
H533 C557 0.951 . S
H534 C559 0.951 . S
H535 C561 0.950 . S
H536 C562 0.950 . S
H537 C564 0.950 . S
H538 C567 0.950 . S
H539 C568 0.950 . S
H540 C570 0.950 . S
H541 C571 0.950 . S
C542 H524 0.951 . S
C542 C543 1.366 . S
C542 C544 1.388 . S
C543 C542 1.366 . S
C543 C547 1.385 . S
C544 H525 0.951 . S
C544 C542 1.388 . S
C544 C545 1.366 . S
C545 C544 1.366 . S
C545 C546 1.414 . S
C545 C548 1.499 . S
C546 H526 0.950 . S
C546 C545 1.414 . S
C546 C547 1.374 . S
C547 H527 0.950 . S
C547 C543 1.385 . S
C547 C546 1.374 . S
C548 C545 1.499 . S
C548 C549 1.373 . S
C548 C550 1.389 . S
C549 H528 0.950 . S
C549 C548 1.373 . S
C549 C565 1.377 . S
C550 C548 1.389 . S
C550 C551 1.524 . S
C550 C564 1.377 . S
C551 C550 1.524 . S
C551 C552 1.397 . S
C551 C556 1.363 . S
C552 H529 0.950 . S
C552 C551 1.397 . S
C552 C553 1.334 . S
C553 H530 0.950 . S
C553 C552 1.334 . S
C553 C554 1.287 . S
C554 C553 1.287 . S
C554 C555 1.524 . S
C554 H573 0.913 . S
C555 H531 0.950 . S
C555 C554 1.524 . S
C555 C556 1.415 . S
C556 H532 0.950 . S
C556 C551 1.363 . S
C556 C555 1.415 . S
C557 H533 0.951 . S
C557 C558 1.366 . S
C557 C559 1.388 . S
C558 C557 1.366 . S
C558 C562 1.385 . S
C559 H534 0.951 . S
C559 C557 1.388 . S
C559 C560 1.366 . S
C560 C559 1.366 . S
C560 C561 1.414 . S
C560 C563 1.499 . S
C561 H535 0.950 . S
C561 C560 1.414 . S
C561 C562 1.374 . S
C562 H536 0.950 . S
C562 C558 1.385 . S
C562 C561 1.374 . S
C563 C560 1.499 . S
C563 C564 1.373 . S
C563 C565 1.389 . S
C564 H537 0.950 . S
C564 C550 1.377 . S
C564 C563 1.373 . S
C565 C549 1.377 . S
C565 C563 1.389 . S
C565 C566 1.524 . S
C566 C565 1.524 . S
C566 C567 1.397 . S
C566 C571 1.363 . S
C567 H538 0.950 . S
C567 C566 1.397 . S
C567 C568 1.334 . S
C568 H539 0.950 . S
C568 C567 1.334 . S
C568 C569 1.287 . S
C569 C568 1.287 . S
C569 C570 1.524 . S
C569 H572 0.999 . S
C570 H540 0.950 . S
C570 C569 1.524 . S
C570 C571 1.415 . S
C571 H541 0.950 . S
C571 C566 1.363 . S
C571 C570 1.415 . S
H572 C569 0.999 . S
H573 C554 0.913 . S
H574 C592 0.951 . S
H575 C594 0.951 . S
H576 C596 0.950 . S
H577 C597 0.950 . S
H578 C599 0.950 . S
H579 C602 0.950 . S
H580 C603 0.950 . S
H581 C605 0.950 . S
H582 C606 0.950 . S
H583 C607 0.951 . S
H584 C609 0.951 . S
H585 C611 0.950 . S
H586 C612 0.950 . S
H587 C614 0.950 . S
H588 C617 0.950 . S
H589 C618 0.950 . S
H590 C620 0.950 . S
H591 C621 0.950 . S
C592 H574 0.951 . S
C592 C593 1.366 . S
C592 C594 1.388 . S
C593 C592 1.366 . S
C593 C597 1.385 . S
C594 H575 0.951 . S
C594 C592 1.388 . S
C594 C595 1.366 . S
C595 C594 1.366 . S
C595 C596 1.414 . S
C595 C598 1.499 . S
C596 H576 0.950 . S
C596 C595 1.414 . S
C596 C597 1.374 . S
C597 H577 0.950 . S
C597 C593 1.385 . S
C597 C596 1.374 . S
C598 C595 1.499 . S
C598 C599 1.373 . S
C598 C600 1.389 . S
C599 H578 0.950 . S
C599 C598 1.373 . S
C599 C615 1.377 . S
C600 C598 1.389 . S
C600 C601 1.524 . S
C600 C614 1.377 . S
C601 C600 1.524 . S
C601 C602 1.397 . S
C601 C606 1.363 . S
C602 H579 0.950 . S
C602 C601 1.397 . S
C602 C603 1.334 . S
C603 H580 0.950 . S
C603 C602 1.334 . S
C603 C604 1.287 . S
C604 C603 1.287 . S
C604 C605 1.524 . S
C604 H623 0.913 . S
C605 H581 0.950 . S
C605 C604 1.524 . S
C605 C606 1.415 . S
C606 H582 0.950 . S
C606 C601 1.363 . S
C606 C605 1.415 . S
C607 H583 0.951 . S
C607 C608 1.366 . S
C607 C609 1.388 . S
C608 C607 1.366 . S
C608 C612 1.385 . S
C609 H584 0.951 . S
C609 C607 1.388 . S
C609 C610 1.366 . S
C610 C609 1.366 . S
C610 C611 1.414 . S
C610 C613 1.499 . S
C611 H585 0.950 . S
C611 C610 1.414 . S
C611 C612 1.374 . S
C612 H586 0.950 . S
C612 C608 1.385 . S
C612 C611 1.374 . S
C613 C610 1.499 . S
C613 C614 1.373 . S
C613 C615 1.389 . S
C614 H587 0.950 . S
C614 C600 1.377 . S
C614 C613 1.373 . S
C615 C599 1.377 . S
C615 C613 1.389 . S
C615 C616 1.524 . S
C616 C615 1.524 . S
C616 C617 1.397 . S
C616 C621 1.363 . S
C617 H588 0.950 . S
C617 C616 1.397 . S
C617 C618 1.334 . S
C618 H589 0.950 . S
C618 C617 1.334 . S
C618 C619 1.287 . S
C619 C618 1.287 . S
C619 C620 1.524 . S
C619 H622 0.999 . S
C620 H590 0.950 . S
C620 C619 1.524 . S
C620 C621 1.415 . S
C621 H591 0.950 . S
C621 C616 1.363 . S
C621 C620 1.415 . S
H622 C619 0.999 . S
H623 C604 0.913 . S
H624 C642 0.951 . S
H625 C644 0.951 . S
H626 C646 0.950 . S
H627 C647 0.950 . S
H628 C649 0.950 . S
H629 C652 0.950 . S
H630 C653 0.950 . S
H631 C655 0.950 . S
H632 C656 0.950 . S
H633 C657 0.951 . S
H634 C659 0.951 . S
H635 C661 0.950 . S
H636 C662 0.950 . S
H637 C664 0.950 . S
H638 C667 0.950 . S
H639 C668 0.950 . S
H640 C670 0.950 . S
H641 C671 0.950 . S
C642 H624 0.951 . S
C642 C643 1.366 . S
C642 C644 1.388 . S
C643 C642 1.366 . S
C643 C647 1.385 . S
C644 H625 0.951 . S
C644 C642 1.388 . S
C644 C645 1.366 . S
C645 C644 1.366 . S
C645 C646 1.414 . S
C645 C648 1.499 . S
C646 H626 0.950 . S
C646 C645 1.414 . S
C646 C647 1.374 . S
C647 H627 0.950 . S
C647 C643 1.385 . S
C647 C646 1.374 . S
C648 C645 1.499 . S
C648 C649 1.373 . S
C648 C650 1.389 . S
C649 H628 0.950 . S
C649 C648 1.373 . S
C649 C665 1.377 . S
C650 C648 1.389 . S
C650 C651 1.524 . S
C650 C664 1.377 . S
C651 C650 1.524 . S
C651 C652 1.397 . S
C651 C656 1.363 . S
C652 H629 0.950 . S
C652 C651 1.397 . S
C652 C653 1.334 . S
C653 H630 0.950 . S
C653 C652 1.334 . S
C653 C654 1.287 . S
C654 C653 1.287 . S
C654 C655 1.524 . S
C654 H673 0.913 . S
C655 H631 0.950 . S
C655 C654 1.524 . S
C655 C656 1.415 . S
C656 H632 0.950 . S
C656 C651 1.363 . S
C656 C655 1.415 . S
C657 H633 0.951 . S
C657 C658 1.366 . S
C657 C659 1.388 . S
C658 C657 1.366 . S
C658 C662 1.385 . S
C659 H634 0.951 . S
C659 C657 1.388 . S
C659 C660 1.366 . S
C660 C659 1.366 . S
C660 C661 1.414 . S
C660 C663 1.499 . S
C661 H635 0.950 . S
C661 C660 1.414 . S
C661 C662 1.374 . S
C662 H636 0.950 . S
C662 C658 1.385 . S
C662 C661 1.374 . S
C663 C660 1.499 . S
C663 C664 1.373 . S
C663 C665 1.389 . S
C664 H637 0.950 . S
C664 C650 1.377 . S
C664 C663 1.373 . S
C665 C649 1.377 . S
C665 C663 1.389 . S
C665 C666 1.524 . S
C666 C665 1.524 . S
C666 C667 1.397 . S
C666 C671 1.363 . S
C667 H638 0.950 . S
C667 C666 1.397 . S
C667 C668 1.334 . S
C668 H639 0.950 . S
C668 C667 1.334 . S
C668 C669 1.287 . S
C669 C668 1.287 . S
C669 C670 1.524 . S
C669 H672 0.999 . S
C670 H640 0.950 . S
C670 C669 1.524 . S
C670 C671 1.415 . S
C671 H641 0.950 . S
C671 C666 1.363 . S
C671 C670 1.415 . S
H672 C669 0.999 . S
H673 C654 0.913 . S
H674 C692 0.951 . S
H675 C694 0.951 . S
H676 C696 0.950 . S
H677 C697 0.950 . S
H678 C699 0.950 . S
H679 C702 0.950 . S
H680 C703 0.950 . S
H681 C705 0.950 . S
H682 C706 0.950 . S
H683 C707 0.951 . S
H684 C709 0.951 . S
H685 C711 0.950 . S
H686 C712 0.950 . S
H687 C714 0.950 . S
H688 C717 0.950 . S
H689 C718 0.950 . S
H690 C720 0.950 . S
H691 C721 0.950 . S
C692 H674 0.951 . S
C692 C693 1.366 . S
C692 C694 1.388 . S
C693 C692 1.366 . S
C693 C697 1.385 . S
C694 H675 0.951 . S
C694 C692 1.388 . S
C694 C695 1.366 . S
C695 C694 1.366 . S
C695 C696 1.414 . S
C695 C698 1.499 . S
C696 H676 0.950 . S
C696 C695 1.414 . S
C696 C697 1.374 . S
C697 H677 0.950 . S
C697 C693 1.385 . S
C697 C696 1.374 . S
C698 C695 1.499 . S
C698 C699 1.373 . S
C698 C700 1.389 . S
C699 H678 0.950 . S
C699 C698 1.373 . S
C699 C715 1.377 . S
C700 C698 1.389 . S
C700 C701 1.524 . S
C700 C714 1.377 . S
C701 C700 1.524 . S
C701 C702 1.397 . S
C701 C706 1.363 . S
C702 H679 0.950 . S
C702 C701 1.397 . S
C702 C703 1.334 . S
C703 H680 0.950 . S
C703 C702 1.334 . S
C703 C704 1.287 . S
C704 C703 1.287 . S
C704 C705 1.524 . S
C704 H723 0.913 . S
C705 H681 0.950 . S
C705 C704 1.524 . S
C705 C706 1.415 . S
C706 H682 0.950 . S
C706 C701 1.363 . S
C706 C705 1.415 . S
C707 H683 0.951 . S
C707 C708 1.366 . S
C707 C709 1.388 . S
C708 C707 1.366 . S
C708 C712 1.385 . S
C709 H684 0.951 . S
C709 C707 1.388 . S
C709 C710 1.366 . S
C710 C709 1.366 . S
C710 C711 1.414 . S
C710 C713 1.499 . S
C711 H685 0.950 . S
C711 C710 1.414 . S
C711 C712 1.374 . S
C712 H686 0.950 . S
C712 C708 1.385 . S
C712 C711 1.374 . S
C713 C710 1.499 . S
C713 C714 1.373 . S
C713 C715 1.389 . S
C714 H687 0.950 . S
C714 C700 1.377 . S
C714 C713 1.373 . S
C715 C699 1.377 . S
C715 C713 1.389 . S
C715 C716 1.524 . S
C716 C715 1.524 . S
C716 C717 1.397 . S
C716 C721 1.363 . S
C717 H688 0.950 . S
C717 C716 1.397 . S
C717 C718 1.334 . S
C718 H689 0.950 . S
C718 C717 1.334 . S
C718 C719 1.287 . S
C719 C718 1.287 . S
C719 C720 1.524 . S
C719 H722 0.999 . S
C720 H690 0.950 . S
C720 C719 1.524 . S
C720 C721 1.415 . S
C721 H691 0.950 . S
C721 C716 1.363 . S
C721 C720 1.415 . S
H722 C719 0.999 . S
H723 C704 0.913 . S
H724 C742 0.951 . S
H725 C744 0.951 . S
H726 C746 0.950 . S
H727 C747 0.950 . S
H728 C749 0.950 . S
H729 C752 0.950 . S
H730 C753 0.950 . S
H731 C755 0.950 . S
H732 C756 0.950 . S
H733 C757 0.951 . S
H734 C759 0.951 . S
H735 C761 0.950 . S
H736 C762 0.950 . S
H737 C764 0.950 . S
H738 C767 0.950 . S
H739 C768 0.950 . S
H740 C770 0.950 . S
H741 C771 0.950 . S
C742 H724 0.951 . S
C742 C743 1.366 . S
C742 C744 1.388 . S
C743 C742 1.366 . S
C743 C747 1.385 . S
C744 H725 0.951 . S
C744 C742 1.388 . S
C744 C745 1.366 . S
C745 C744 1.366 . S
C745 C746 1.414 . S
C745 C748 1.499 . S
C746 H726 0.950 . S
C746 C745 1.414 . S
C746 C747 1.374 . S
C747 H727 0.950 . S
C747 C743 1.385 . S
C747 C746 1.374 . S
C748 C745 1.499 . S
C748 C749 1.373 . S
C748 C750 1.389 . S
C749 H728 0.950 . S
C749 C748 1.373 . S
C749 C765 1.377 . S
C750 C748 1.389 . S
C750 C751 1.524 . S
C750 C764 1.377 . S
C751 C750 1.524 . S
C751 C752 1.397 . S
C751 C756 1.363 . S
C752 H729 0.950 . S
C752 C751 1.397 . S
C752 C753 1.334 . S
C753 H730 0.950 . S
C753 C752 1.334 . S
C753 C754 1.287 . S
C754 C753 1.287 . S
C754 C755 1.524 . S
C754 H773 0.913 . S
C755 H731 0.950 . S
C755 C754 1.524 . S
C755 C756 1.415 . S
C756 H732 0.950 . S
C756 C751 1.363 . S
C756 C755 1.415 . S
C757 H733 0.951 . S
C757 C758 1.366 . S
C757 C759 1.388 . S
C758 C757 1.366 . S
C758 C762 1.385 . S
C759 H734 0.951 . S
C759 C757 1.388 . S
C759 C760 1.366 . S
C760 C759 1.366 . S
C760 C761 1.414 . S
C760 C763 1.499 . S
C761 H735 0.950 . S
C761 C760 1.414 . S
C761 C762 1.374 . S
C762 H736 0.950 . S
C762 C758 1.385 . S
C762 C761 1.374 . S
C763 C760 1.499 . S
C763 C764 1.373 . S
C763 C765 1.389 . S
C764 H737 0.950 . S
C764 C750 1.377 . S
C764 C763 1.373 . S
C765 C749 1.377 . S
C765 C763 1.389 . S
C765 C766 1.524 . S
C766 C765 1.524 . S
C766 C767 1.397 . S
C766 C771 1.363 . S
C767 H738 0.950 . S
C767 C766 1.397 . S
C767 C768 1.334 . S
C768 H739 0.950 . S
C768 C767 1.334 . S
C768 C769 1.287 . S
C769 C768 1.287 . S
C769 C770 1.524 . S
C769 H772 0.999 . S
C770 H740 0.950 . S
C770 C769 1.524 . S
C770 C771 1.415 . S
C771 H741 0.950 . S
C771 C766 1.363 . S
C771 C770 1.415 . S
H772 C769 0.999 . S
H773 C754 0.913 . S
H774 C792 0.951 . S
H775 C794 0.951 . S
H776 C796 0.950 . S
H777 C797 0.950 . S
H778 C799 0.950 . S
H779 C802 0.950 . S
H780 C803 0.950 . S
H781 C805 0.950 . S
H782 C806 0.950 . S
H783 C807 0.951 . S
H784 C809 0.951 . S
H785 C811 0.950 . S
H786 C812 0.950 . S
H787 C814 0.950 1_655 S
H788 C817 0.950 1_655 S
H789 C818 0.950 . S
H790 C820 0.950 . S
H791 C821 0.950 . S
C792 H774 0.951 . S
C792 C793 1.366 1_655 S
C792 C794 1.388 . S
C793 C792 1.366 1_455 S
C793 C797 1.385 . S
C794 H775 0.951 . S
C794 C792 1.388 . S
C794 C795 1.366 1_655 S
C795 C794 1.366 1_455 S
C795 C796 1.414 . S
C795 C798 1.499 . S
C796 H776 0.950 . S
C796 C795 1.414 . S
C796 C797 1.374 . S
C797 H777 0.950 . S
C797 C793 1.385 . S
C797 C796 1.374 . S
C798 C795 1.499 . S
C798 C799 1.373 . S
C798 C800 1.389 . S
C799 H778 0.950 . S
C799 C798 1.373 . S
C799 C815 1.377 . S
C800 C798 1.389 . S
C800 C801 1.521 . S
C800 C814 1.377 . S
C801 C800 1.521 . S
C801 C802 1.408 . S
C801 C806 1.356 1_455 S
C802 H779 0.950 . S
C802 C801 1.408 . S
C802 C803 1.334 . S
C803 H780 0.950 . S
C803 C802 1.334 . S
C803 C804 1.287 1_455 S
C804 C803 1.287 1_655 S
C804 C805 1.524 . S
C804 H823 0.913 . S
C805 H781 0.950 . S
C805 C804 1.524 . S
C805 C806 1.415 . S
C806 H782 0.950 . S
C806 C801 1.356 1_655 S
C806 C805 1.415 . S
C807 H783 0.951 . S
C807 C808 1.366 . S
C807 C809 1.388 . S
C808 C807 1.366 . S
C808 C812 1.385 1_455 S
C809 H784 0.951 . S
C809 C807 1.388 . S
C809 C810 1.366 . S
C810 C809 1.366 . S
C810 C811 1.414 1_455 S
C810 C813 1.499 1_556 S
C811 H785 0.950 . S
C811 C810 1.414 1_655 S
C811 C812 1.374 . S
C812 H786 0.950 . S
C812 C808 1.385 1_655 S
C812 C811 1.374 . S
C813 C810 1.499 1_554 S
C813 C814 1.373 . S
C813 C815 1.389 . S
C814 H787 0.950 1_455 S
C814 C800 1.377 . S
C814 C813 1.373 . S
C815 C799 1.377 . S
C815 C813 1.389 . S
C815 C816 1.524 . S
C816 C815 1.524 . S
C816 C817 1.397 1_554 S
C816 C821 1.363 . S
C817 H788 0.950 1_455 S
C817 C816 1.397 1_556 S
C817 C818 1.334 . S
C818 H789 0.950 . S
C818 C817 1.334 . S
C818 C819 1.287 . S
C819 C818 1.287 . S
C819 C820 1.524 1_556 S
C819 H822 0.999 . S
C820 H790 0.950 . S
C820 C819 1.524 1_554 S
C820 C821 1.415 . S
C821 H791 0.950 . S
C821 C816 1.363 . S
C821 C820 1.415 . S
H822 C819 0.999 . S
H823 C804 0.913 . S
H824 C842 0.951 1_565 S
H825 C844 0.951 1_565 S
H826 C846 0.950 . S
H827 C847 0.950 . S
H828 C849 0.950 . S
H829 C852 0.950 . S
H830 C853 0.950 . S
H831 C855 0.950 . S
H832 C856 0.950 . S
H833 C857 0.951 . S
H834 C859 0.951 . S
H835 C861 0.950 . S
H836 C862 0.950 . S
H837 C864 0.950 . S
H838 C867 0.950 . S
H839 C868 0.950 . S
H840 C870 0.950 . S
H841 C871 0.950 . S
C842 H824 0.951 1_545 S
C842 C843 1.366 . S
C842 C844 1.388 . S
C843 C842 1.366 . S
C843 C847 1.385 . S
C844 H825 0.951 1_545 S
C844 C842 1.388 . S
C844 C845 1.366 . S
C845 C844 1.366 . S
C845 C846 1.414 . S
C845 C848 1.499 . S
C846 H826 0.950 . S
C846 C845 1.414 . S
C846 C847 1.374 . S
C847 H827 0.950 . S
C847 C843 1.385 . S
C847 C846 1.374 . S
C848 C845 1.499 . S
C848 C849 1.373 . S
C848 C850 1.389 1_545 S
C849 H828 0.950 . S
C849 C848 1.373 . S
C849 C865 1.377 . S
C850 C848 1.389 1_565 S
C850 C851 1.524 . S
C850 C864 1.377 . S
C851 C850 1.524 . S
C851 C852 1.397 . S
C851 C856 1.363 . S
C852 H829 0.950 . S
C852 C851 1.397 . S
C852 C853 1.334 . S
C853 H830 0.950 . S
C853 C852 1.334 . S
C853 C854 1.287 . S
C854 C853 1.287 . S
C854 C855 1.524 . S
C854 H873 0.913 . S
C855 H831 0.950 . S
C855 C854 1.524 . S
C855 C856 1.415 . S
C856 H832 0.950 . S
C856 C851 1.363 . S
C856 C855 1.415 . S
C857 H833 0.951 . S
C857 C858 1.366 . S
C857 C859 1.388 . S
C858 C857 1.366 . S
C858 C862 1.385 1_545 S
C859 H834 0.951 . S
C859 C857 1.388 . S
C859 C860 1.366 . S
C860 C859 1.366 . S
C860 C861 1.414 1_545 S
C860 C863 1.499 . S
C861 H835 0.950 . S
C861 C860 1.414 1_565 S
C861 C862 1.374 . S
C862 H836 0.950 . S
C862 C858 1.385 1_565 S
C862 C861 1.374 . S
C863 C860 1.499 . S
C863 C864 1.373 1_545 S
C863 C865 1.389 . S
C864 H837 0.950 . S
C864 C850 1.377 . S
C864 C863 1.373 1_565 S
C865 C849 1.377 . S
C865 C863 1.389 . S
C865 C866 1.524 . S
C866 C865 1.524 . S
C866 C867 1.397 . S
C866 C871 1.363 . S
C867 H838 0.950 . S
C867 C866 1.397 . S
C867 C868 1.334 . S
C868 H839 0.950 . S
C868 C867 1.334 . S
C868 C869 1.287 . S
C869 C868 1.287 . S
C869 C870 1.524 . S
C869 H872 0.999 . S
C870 H840 0.950 . S
C870 C869 1.524 . S
C870 C871 1.415 . S
C871 H841 0.950 . S
C871 C866 1.363 . S
C871 C870 1.415 . S
H872 C869 0.999 . S
H873 C854 0.913 . S
H874 C892 0.951 . S
H875 C894 0.951 . S
H876 C896 0.950 . S
H877 C897 0.950 . S
H878 C899 0.950 . S
H879 C902 0.950 . S
H880 C903 0.950 . S
H881 C905 0.950 . S
H882 C906 0.950 . S
H883 C907 0.951 . S
H884 C909 0.951 . S
H885 C911 0.950 . S
H886 C912 0.950 . S
H887 C914 0.950 . S
H888 C917 0.950 . S
H889 C918 0.950 . S
H890 C920 0.950 . S
H891 C921 0.950 . S
C892 H874 0.951 . S
C892 C893 1.366 . S
C892 C894 1.388 . S
C893 C892 1.366 . S
C893 C897 1.385 . S
C894 H875 0.951 . S
C894 C892 1.388 . S
C894 C895 1.366 . S
C895 C894 1.366 . S
C895 C896 1.414 . S
C895 C898 1.499 . S
C896 H876 0.950 . S
C896 C895 1.414 . S
C896 C897 1.374 . S
C897 H877 0.950 . S
C897 C893 1.385 . S
C897 C896 1.374 . S
C898 C895 1.499 . S
C898 C899 1.373 . S
C898 C900 1.389 . S
C899 H878 0.950 . S
C899 C898 1.373 . S
C899 C915 1.377 . S
C900 C898 1.389 . S
C900 C901 1.524 . S
C900 C914 1.377 . S
C901 C900 1.524 . S
C901 C902 1.397 . S
C901 C906 1.363 . S
C902 H879 0.950 . S
C902 C901 1.397 . S
C902 C903 1.334 . S
C903 H880 0.950 . S
C903 C902 1.334 . S
C903 C904 1.287 . S
C904 C903 1.287 . S
C904 C905 1.524 . S
C904 H923 0.913 . S
C905 H881 0.950 . S
C905 C904 1.524 . S
C905 C906 1.415 . S
C906 H882 0.950 . S
C906 C901 1.363 . S
C906 C905 1.415 . S
C907 H883 0.951 . S
C907 C908 1.366 . S
C907 C909 1.388 . S
C908 C907 1.366 . S
C908 C912 1.385 . S
C909 H884 0.951 . S
C909 C907 1.388 . S
C909 C910 1.366 . S
C910 C909 1.366 . S
C910 C911 1.414 . S
C910 C913 1.499 . S
C911 H885 0.950 . S
C911 C910 1.414 . S
C911 C912 1.374 . S
C912 H886 0.950 . S
C912 C908 1.385 . S
C912 C911 1.374 . S
C913 C910 1.499 . S
C913 C914 1.373 . S
C913 C915 1.389 . S
C914 H887 0.950 . S
C914 C900 1.377 . S
C914 C913 1.373 . S
C915 C899 1.377 . S
C915 C913 1.389 . S
C915 C916 1.524 . S
C916 C915 1.524 . S
C916 C917 1.397 . S
C916 C921 1.363 . S
C917 H888 0.950 . S
C917 C916 1.397 . S
C917 C918 1.334 . S
C918 H889 0.950 . S
C918 C917 1.334 . S
C918 C919 1.287 . S
C919 C918 1.287 . S
C919 C920 1.524 . S
C919 H922 0.999 . S
C920 H890 0.950 . S
C920 C919 1.524 . S
C920 C921 1.415 . S
C921 H891 0.950 . S
C921 C916 1.363 . S
C921 C920 1.415 . S
H922 C919 0.999 . S
H923 C904 0.913 . S
H924 C942 0.951 . S
H925 C944 0.951 . S
H926 C946 0.950 . S
H927 C947 0.950 . S
H928 C949 0.950 . S
H929 C952 0.950 . S
H930 C953 0.950 . S
H931 C955 0.950 . S
H932 C956 0.950 . S
H933 C957 0.951 . S
H934 C959 0.951 . S
H935 C961 0.950 . S
H936 C962 0.950 . S
H937 C964 0.950 . S
H938 C967 0.969 . S
H939 C968 0.950 . S
H940 C970 0.950 . S
H941 C971 0.950 . S
C942 H924 0.951 . S
C942 C943 1.366 . S
C942 C944 1.388 . S
C943 C942 1.366 . S
C943 C947 1.385 1_545 S
C944 H925 0.951 . S
C944 C942 1.388 . S
C944 C945 1.366 . S
C945 C944 1.366 . S
C945 C946 1.414 1_545 S
C945 C948 1.499 . S
C946 H926 0.950 . S
C946 C945 1.414 1_565 S
C946 C947 1.374 . S
C947 H927 0.950 . S
C947 C943 1.385 1_565 S
C947 C946 1.374 . S
C948 C945 1.499 . S
C948 C949 1.373 1_545 S
C948 C950 1.389 . S
C949 H928 0.950 . S
C949 C948 1.373 1_565 S
C949 C965 1.377 . S
C950 C948 1.389 . S
C950 C951 1.524 . S
C950 C964 1.377 . S
C951 C950 1.524 . S
C951 C952 1.397 . S
C951 C956 1.363 . S
C952 H929 0.950 . S
C952 C951 1.397 . S
C952 C953 1.334 . S
C953 H930 0.950 . S
C953 C952 1.334 . S
C953 C954 1.287 . S
C954 C953 1.287 . S
C954 C955 1.524 . S
C954 H973 0.913 . S
C955 H931 0.950 . S
C955 C954 1.524 . S
C955 C956 1.415 . S
C956 H932 0.950 . S
C956 C951 1.363 . S
C956 C955 1.415 . S
C957 H933 0.951 . S
C957 C958 1.366 1_565 S
C957 C959 1.388 . S
C958 C957 1.366 1_545 S
C958 C962 1.385 . S
C959 H934 0.951 . S
C959 C957 1.388 . S
C959 C960 1.366 1_565 S
C960 C959 1.366 1_545 S
C960 C961 1.414 . S
C960 C963 1.499 . S
C961 H935 0.950 . S
C961 C960 1.414 . S
C961 C962 1.374 . S
C962 H936 0.950 . S
C962 C958 1.385 . S
C962 C961 1.374 . S
C963 C960 1.499 . S
C963 C964 1.373 . S
C963 C965 1.389 1_545 S
C964 H937 0.950 . S
C964 C950 1.377 . S
C964 C963 1.373 . S
C965 C949 1.377 . S
C965 C963 1.389 1_565 S
C965 C966 1.524 . S
C966 C965 1.524 . S
C966 C967 1.397 . S
C966 C971 1.363 . S
C967 H938 0.969 . S
C967 C966 1.397 . S
C967 C968 1.334 . S
C968 H939 0.950 . S
C968 C967 1.334 . S
C968 C969 1.287 . S
C969 C968 1.287 . S
C969 C970 1.524 . S
C969 H972 0.999 . S
C970 H940 0.950 . S
C970 C969 1.524 . S
C970 C971 1.415 . S
C971 H941 0.950 . S
C971 C966 1.363 . S
C971 C970 1.415 . S
H972 C969 0.999 . S
H973 C954 0.913 . S
H974 C992 0.951 . S
H975 C994 0.951 . S
H976 C996 0.950 . S
H977 C997 0.950 . S
H978 C999 0.950 . S
H979 C1002 0.950 . S
H980 C1003 0.950 . S
H981 C1005 0.950 . S
H982 C1006 0.950 . S
H983 C1007 0.951 . S
H984 C1009 0.951 . S
H985 C1011 0.950 . S
H986 C1012 0.950 . S
H987 C1014 0.950 . S
H988 C1017 0.950 . S
H989 C1018 0.950 . S
H990 C1020 0.948 . S
H991 C1021 0.950 . S
C992 H974 0.951 . S
C992 C993 1.366 . S
C992 C994 1.388 . S
C993 C992 1.366 . S
C993 C997 1.385 . S
C994 H975 0.951 . S
C994 C992 1.388 . S
C994 C995 1.366 . S
C995 C994 1.366 . S
C995 C996 1.414 . S
C995 C998 1.499 . S
C996 H976 0.950 . S
C996 C995 1.414 . S
C996 C997 1.374 . S
C997 H977 0.950 . S
C997 C993 1.385 . S
C997 C996 1.374 . S
C998 C995 1.499 . S
C998 C999 1.373 . S
C998 C1000 1.389 . S
C999 H978 0.950 . S
C999 C998 1.373 . S
C999 C1015 1.377 . S
C1000 C998 1.389 . S
C1000 C1001 1.524 . S
C1000 C1014 1.377 . S
C1001 C1000 1.524 . S
C1001 C1002 1.397 . S
C1001 C1006 1.363 . S
C1002 H979 0.950 . S
C1002 C1001 1.397 . S
C1002 C1003 1.334 . S
C1003 H980 0.950 . S
C1003 C1002 1.334 . S
C1003 C1004 1.287 . S
C1004 C1003 1.287 . S
C1004 C1005 1.524 . S
C1004 H1023 0.913 . S
C1005 H981 0.950 . S
C1005 C1004 1.524 . S
C1005 C1006 1.415 . S
C1006 H982 0.950 . S
C1006 C1001 1.363 . S
C1006 C1005 1.415 . S
C1007 H983 0.951 . S
C1007 C1008 1.366 . S
C1007 C1009 1.388 . S
C1008 C1007 1.366 . S
C1008 C1012 1.385 . S
C1009 H984 0.951 . S
C1009 C1007 1.388 . S
C1009 C1010 1.366 . S
C1010 C1009 1.366 . S
C1010 C1011 1.414 . S
C1010 C1013 1.499 1_554 S
C1011 H985 0.950 . S
C1011 C1010 1.414 . S
C1011 C1012 1.374 . S
C1012 H986 0.950 . S
C1012 C1008 1.385 . S
C1012 C1011 1.374 . S
C1013 C1010 1.499 1_556 S
C1013 C1014 1.373 . S
C1013 C1015 1.389 . S
C1014 H987 0.950 . S
C1014 C1000 1.377 . S
C1014 C1013 1.373 . S
C1015 C999 1.377 . S
C1015 C1013 1.389 . S
C1015 C1016 1.524 . S
C1016 C1015 1.524 . S
C1016 C1017 1.397 1_556 S
C1016 C1021 1.363 . S
C1017 H988 0.950 . S
C1017 C1016 1.397 1_554 S
C1017 C1018 1.334 . S
C1018 H989 0.950 . S
C1018 C1017 1.334 . S
C1018 C1019 1.287 . S
C1019 C1018 1.287 . S
C1019 C1020 1.553 . S
C1019 H1022 0.999 . S
C1020 H990 0.948 . S
C1020 C1019 1.553 . S
C1020 C1021 1.394 1_554 S
C1021 H991 0.950 . S
C1021 C1016 1.363 . S
C1021 C1020 1.394 1_556 S
H1022 C1019 0.999 . S
H1023 C1004 0.913 . S
H1024 C1042 0.951 . S
H1025 C1044 0.951 . S
H1026 C1046 0.950 1_655 S
H1027 C1047 0.950 1_655 S
H1028 C1049 0.950 . S
H1029 C1052 0.950 . S
H1030 C1053 0.950 . S
H1031 C1055 0.950 . S
H1032 C1056 0.950 . S
H1033 C1057 0.951 . S
H1034 C1059 0.951 . S
H1035 C1061 0.950 . S
H1036 C1062 0.950 . S
H1037 C1064 0.950 . S
H1038 C1067 0.950 . S
H1039 C1068 0.950 . S
H1040 C1070 0.950 . S
H1041 C1071 0.950 . S
C1042 H1024 0.951 . S
C1042 C1043 1.366 . S
C1042 C1044 1.388 . S
C1043 C1042 1.366 . S
C1043 C1047 1.385 . S
C1044 H1025 0.951 . S
C1044 C1042 1.388 . S
C1044 C1045 1.366 . S
C1045 C1044 1.366 . S
C1045 C1046 1.414 . S
C1045 C1048 1.499 . S
C1046 H1026 0.950 1_455 S
C1046 C1045 1.414 . S
C1046 C1047 1.374 . S
C1047 H1027 0.950 1_455 S
C1047 C1043 1.385 . S
C1047 C1046 1.374 . S
C1048 C1045 1.499 . S
C1048 C1049 1.373 1_455 S
C1048 C1050 1.389 . S
C1049 H1028 0.950 . S
C1049 C1048 1.373 1_655 S
C1049 C1065 1.377 . S
C1050 C1048 1.389 . S
C1050 C1051 1.524 . S
C1050 C1064 1.377 . S
C1051 C1050 1.524 . S
C1051 C1052 1.397 . S
C1051 C1056 1.363 . S
C1052 H1029 0.950 . S
C1052 C1051 1.397 . S
C1052 C1053 1.334 . S
C1053 H1030 0.950 . S
C1053 C1052 1.334 . S
C1053 C1054 1.287 . S
C1054 C1053 1.287 . S
C1054 C1055 1.524 . S
C1054 H1073 0.913 . S
C1055 H1031 0.950 . S
C1055 C1054 1.524 . S
C1055 C1056 1.415 . S
C1056 H1032 0.950 . S
C1056 C1051 1.363 . S
C1056 C1055 1.415 . S
C1057 H1033 0.951 . S
C1057 C1058 1.366 1_655 S
C1057 C1059 1.388 . S
C1058 C1057 1.366 1_455 S
C1058 C1062 1.385 . S
C1059 H1034 0.951 . S
C1059 C1057 1.388 . S
C1059 C1060 1.366 1_655 S
C1060 C1059 1.366 1_455 S
C1060 C1061 1.414 . S
C1060 C1063 1.499 . S
C1061 H1035 0.950 . S
C1061 C1060 1.414 . S
C1061 C1062 1.374 . S
C1062 H1036 0.950 . S
C1062 C1058 1.385 . S
C1062 C1061 1.374 . S
C1063 C1060 1.499 . S
C1063 C1064 1.373 . S
C1063 C1065 1.389 1_455 S
C1064 H1037 0.950 . S
C1064 C1050 1.377 . S
C1064 C1063 1.373 . S
C1065 C1049 1.377 . S
C1065 C1063 1.389 1_655 S
C1065 C1066 1.524 . S
C1066 C1065 1.524 . S
C1066 C1067 1.397 . S
C1066 C1071 1.363 . S
C1067 H1038 0.950 . S
C1067 C1066 1.397 . S
C1067 C1068 1.334 . S
C1068 H1039 0.950 . S
C1068 C1067 1.334 . S
C1068 C1069 1.287 . S
C1069 C1068 1.287 . S
C1069 C1070 1.524 . S
C1069 H1072 0.999 . S
C1070 H1040 0.950 . S
C1070 C1069 1.524 . S
C1070 C1071 1.415 . S
C1071 H1041 0.950 . S
C1071 C1066 1.363 . S
C1071 C1070 1.415 . S
H1072 C1069 0.999 . S
H1073 C1054 0.913 . S
C193 C9 0.429 . S
C208 C169 0.362 . S
C243 C49 0.327 . S
C258 C151 0.251 . S
C293 C89 0.306 . S
C308 C163 0.247 . S
C343 C26 0.433 . S
C358 C172 0.283 . S
C408 C154 0.342 . S
C393 C66 0.468 . S
C458 C160 0.385 . S
C443 C106 0.501 . S
C493 C43 2.803 . S
C508 C133 2.789 . S
C543 C83 2.916 . S
C558 C142 2.893 . S
C593 C22 2.966 . S
C608 C124 2.938 . S
C658 C136 2.914 . S
C643 C62 2.948 . S
C708 C145 2.804 . S
C693 C102 2.828 . S
C743 C3 2.785 . S
C758 C127 2.769 . S
C808 C143 1.790 . S
C793 C15 1.730 . S
C843 C55 1.740 . S
C858 C125 1.789 . S
C893 C95 1.737 . S
C908 C134 1.785 . S
C958 C161 1.072 . S
C943 C42 1.055 . S
C1008 C170 1.076 . S
C993 C82 1.059 . S
C1043 C2 1.056 . S
C1058 C152 1.068 . S
