# Generated by pormake.
# Topology tbo, (3,4)-cn, num edge types: 1
# Building blocks:
#     Node 0, Type 0, BuildingBlock: WUSLED_clean_sbu_0, # of connection points: 3
#     Node 1, Type 0, BuildingBlock: WUSLED_clean_sbu_0, # of connection points: 3
#     Node 2, Type 0, BuildingBlock: WUSLED_clean_sbu_0, # of connection points: 3
#     Node 3, Type 0, BuildingBlock: WUSLED_clean_sbu_0, # of connection points: 3
#     Node 4, Type 0, BuildingBlock: WUSLED_clean_sbu_0, # of connection points: 3
#     Node 5, Type 0, BuildingBlock: WUSLED_clean_sbu_0, # of connection points: 3
#     Node 6, Type 0, BuildingBlock: WUSLED_clean_sbu_0, # of connection points: 3
#     Node 7, Type 0, BuildingBlock: WUSLED_clean_sbu_0, # of connection points: 3
#     Node 8, Type 0, BuildingBlock: WUSLED_clean_sbu_0, # of connection points: 3
#     Node 9, Type 0, BuildingBlock: WUSLED_clean_sbu_0, # of connection points: 3
#     Node 10, Type 0, BuildingBlock: WUSLED_clean_sbu_0, # of connection points: 3
#     Node 11, Type 0, BuildingBlock: WUSLED_clean_sbu_0, # of connection points: 3
#     Node 12, Type 0, BuildingBlock: WUSLED_clean_sbu_0, # of connection points: 3
#     Node 13, Type 0, BuildingBlock: WUSLED_clean_sbu_0, # of connection points: 3
#     Node 14, Type 0, BuildingBlock: WUSLED_clean_sbu_0, # of connection points: 3
#     Node 15, Type 0, BuildingBlock: WUSLED_clean_sbu_0, # of connection points: 3
#     Node 16, Type 0, BuildingBlock: WUSLED_clean_sbu_0, # of connection points: 3
#     Node 17, Type 0, BuildingBlock: WUSLED_clean_sbu_0, # of connection points: 3
#     Node 18, Type 0, BuildingBlock: WUSLED_clean_sbu_0, # of connection points: 3
#     Node 19, Type 0, BuildingBlock: WUSLED_clean_sbu_0, # of connection points: 3
#     Node 20, Type 0, BuildingBlock: WUSLED_clean_sbu_0, # of connection points: 3
#     Node 21, Type 0, BuildingBlock: WUSLED_clean_sbu_0, # of connection points: 3
#     Node 22, Type 0, BuildingBlock: WUSLED_clean_sbu_0, # of connection points: 3
#     Node 23, Type 0, BuildingBlock: WUSLED_clean_sbu_0, # of connection points: 3
#     Node 24, Type 0, BuildingBlock: WUSLED_clean_sbu_0, # of connection points: 3
#     Node 25, Type 0, BuildingBlock: WUSLED_clean_sbu_0, # of connection points: 3
#     Node 26, Type 0, BuildingBlock: WUSLED_clean_sbu_0, # of connection points: 3
#     Node 27, Type 0, BuildingBlock: WUSLED_clean_sbu_0, # of connection points: 3
#     Node 28, Type 0, BuildingBlock: WUSLED_clean_sbu_0, # of connection points: 3
#     Node 29, Type 0, BuildingBlock: WUSLED_clean_sbu_0, # of connection points: 3
#     Node 30, Type 0, BuildingBlock: WUSLED_clean_sbu_0, # of connection points: 3
#     Node 31, Type 0, BuildingBlock: WUSLED_clean_sbu_0, # of connection points: 3
#     Node 32, Type 1, BuildingBlock: AZAVOO_clean_linker_0, # of connection points: 4
#     Node 33, Type 1, BuildingBlock: AZAVOO_clean_linker_0, # of connection points: 4
#     Node 34, Type 1, BuildingBlock: AZAVOO_clean_linker_0, # of connection points: 4
#     Node 35, Type 1, BuildingBlock: AZAVOO_clean_linker_0, # of connection points: 4
#     Node 36, Type 1, BuildingBlock: AZAVOO_clean_linker_0, # of connection points: 4
#     Node 37, Type 1, BuildingBlock: AZAVOO_clean_linker_0, # of connection points: 4
#     Node 38, Type 1, BuildingBlock: AZAVOO_clean_linker_0, # of connection points: 4
#     Node 39, Type 1, BuildingBlock: AZAVOO_clean_linker_0, # of connection points: 4
#     Node 40, Type 1, BuildingBlock: AZAVOO_clean_linker_0, # of connection points: 4
#     Node 41, Type 1, BuildingBlock: AZAVOO_clean_linker_0, # of connection points: 4
#     Node 42, Type 1, BuildingBlock: AZAVOO_clean_linker_0, # of connection points: 4
#     Node 43, Type 1, BuildingBlock: AZAVOO_clean_linker_0, # of connection points: 4
#     Node 44, Type 1, BuildingBlock: AZAVOO_clean_linker_0, # of connection points: 4
#     Node 45, Type 1, BuildingBlock: AZAVOO_clean_linker_0, # of connection points: 4
#     Node 46, Type 1, BuildingBlock: AZAVOO_clean_linker_0, # of connection points: 4
#     Node 47, Type 1, BuildingBlock: AZAVOO_clean_linker_0, # of connection points: 4
#     Node 48, Type 1, BuildingBlock: AZAVOO_clean_linker_0, # of connection points: 4
#     Node 49, Type 1, BuildingBlock: AZAVOO_clean_linker_0, # of connection points: 4
#     Node 50, Type 1, BuildingBlock: AZAVOO_clean_linker_0, # of connection points: 4
#     Node 51, Type 1, BuildingBlock: AZAVOO_clean_linker_0, # of connection points: 4
#     Node 52, Type 1, BuildingBlock: AZAVOO_clean_linker_0, # of connection points: 4
#     Node 53, Type 1, BuildingBlock: AZAVOO_clean_linker_0, # of connection points: 4
#     Node 54, Type 1, BuildingBlock: AZAVOO_clean_linker_0, # of connection points: 4
#     Node 55, Type 1, BuildingBlock: AZAVOO_clean_linker_0, # of connection points: 4
#     Edge 56, Type (0, 1), None
#     Edge 57, Type (0, 1), None
#     Edge 58, Type (0, 1), None
#     Edge 59, Type (0, 1), None
#     Edge 60, Type (0, 1), None
#     Edge 61, Type (0, 1), None
#     Edge 62, Type (0, 1), None
#     Edge 63, Type (0, 1), None
#     Edge 64, Type (0, 1), None
#     Edge 65, Type (0, 1), None
#     Edge 66, Type (0, 1), None
#     Edge 67, Type (0, 1), None
#     Edge 68, Type (0, 1), None
#     Edge 69, Type (0, 1), None
#     Edge 70, Type (0, 1), None
#     Edge 71, Type (0, 1), None
#     Edge 72, Type (0, 1), None
#     Edge 73, Type (0, 1), None
#     Edge 74, Type (0, 1), None
#     Edge 75, Type (0, 1), None
#     Edge 76, Type (0, 1), None
#     Edge 77, Type (0, 1), None
#     Edge 78, Type (0, 1), None
#     Edge 79, Type (0, 1), None
#     Edge 80, Type (0, 1), None
#     Edge 81, Type (0, 1), None
#     Edge 82, Type (0, 1), None
#     Edge 83, Type (0, 1), None
#     Edge 84, Type (0, 1), None
#     Edge 85, Type (0, 1), None
#     Edge 86, Type (0, 1), None
#     Edge 87, Type (0, 1), None
#     Edge 88, Type (0, 1), None
#     Edge 89, Type (0, 1), None
#     Edge 90, Type (0, 1), None
#     Edge 91, Type (0, 1), None
#     Edge 92, Type (0, 1), None
#     Edge 93, Type (0, 1), None
#     Edge 94, Type (0, 1), None
#     Edge 95, Type (0, 1), None
#     Edge 96, Type (0, 1), None
#     Edge 97, Type (0, 1), None
#     Edge 98, Type (0, 1), None
#     Edge 99, Type (0, 1), None
#     Edge 100, Type (0, 1), None
#     Edge 101, Type (0, 1), None
#     Edge 102, Type (0, 1), None
#     Edge 103, Type (0, 1), None
#     Edge 104, Type (0, 1), None
#     Edge 105, Type (0, 1), None
#     Edge 106, Type (0, 1), None
#     Edge 107, Type (0, 1), None
#     Edge 108, Type (0, 1), None
#     Edge 109, Type (0, 1), None
#     Edge 110, Type (0, 1), None
#     Edge 111, Type (0, 1), None
#     Edge 112, Type (0, 1), None
#     Edge 113, Type (0, 1), None
#     Edge 114, Type (0, 1), None
#     Edge 115, Type (0, 1), None
#     Edge 116, Type (0, 1), None
#     Edge 117, Type (0, 1), None
#     Edge 118, Type (0, 1), None
#     Edge 119, Type (0, 1), None
#     Edge 120, Type (0, 1), None
#     Edge 121, Type (0, 1), None
#     Edge 122, Type (0, 1), None
#     Edge 123, Type (0, 1), None
#     Edge 124, Type (0, 1), None
#     Edge 125, Type (0, 1), None
#     Edge 126, Type (0, 1), None
#     Edge 127, Type (0, 1), None
#     Edge 128, Type (0, 1), None
#     Edge 129, Type (0, 1), None
#     Edge 130, Type (0, 1), None
#     Edge 131, Type (0, 1), None
#     Edge 132, Type (0, 1), None
#     Edge 133, Type (0, 1), None
#     Edge 134, Type (0, 1), None
#     Edge 135, Type (0, 1), None
#     Edge 136, Type (0, 1), None
#     Edge 137, Type (0, 1), None
#     Edge 138, Type (0, 1), None
#     Edge 139, Type (0, 1), None
#     Edge 140, Type (0, 1), None
#     Edge 141, Type (0, 1), None
#     Edge 142, Type (0, 1), None
#     Edge 143, Type (0, 1), None
#     Edge 144, Type (0, 1), None
#     Edge 145, Type (0, 1), None
#     Edge 146, Type (0, 1), None
#     Edge 147, Type (0, 1), None
#     Edge 148, Type (0, 1), None
#     Edge 149, Type (0, 1), None
#     Edge 150, Type (0, 1), None
#     Edge 151, Type (0, 1), None
# Relax obj value: 0.042
# Max RMSD: 0.266
# Mean RMSD: 0.091
data_MOF--net-tbo--node1-WUSLED_clean_sbu_0--node2-AZAVOO_clean_linker_0--edge1-none
_symmetry_space_group_name_H-M    P1
_symmetry_Int_Tables_number       1
_symmetry_cell_setting            triclinic
loop_
_symmetry_equiv_pos_as_xyz
'x, y, z'
_cell_length_a     64.535601
_cell_length_b     64.731246
_cell_length_c     64.763825
_cell_angle_alpha  89.503526
_cell_angle_beta   88.815357
_cell_angle_gamma 88.455828
loop_
_atom_site_label
_atom_site_type_symbol
_atom_site_fract_x
_atom_site_fract_y
_atom_site_fract_z
_atom_type_partial_charge
C0 C 0.2118 0.14595 0.24958 0.0
C1 C 0.23243 0.14044 0.24442 0.0
C2 C 0.23045 0.10987 0.26662 0.0
C3 C 0.2417 0.1226 0.25293 0.0
C4 C 0.20983 0.11565 0.27184 0.0
C5 C 0.20063 0.13352 0.26342 0.0
U6 U 0.2056 0.18631 0.20637 0.0
O7 O 0.19789 0.21955 0.20823 0.0
O8 O 0.17712 0.1989 0.19238 0.0
C9 C 0.17995 0.21762 0.19928 0.0
C10 C 0.20144 0.16421 0.24033 0.0
C11 C 0.16196 0.22727 0.21003 0.0
C12 C 0.14007 0.23186 0.24069 0.0
C13 C 0.15742 0.22267 0.23081 0.0
C14 C 0.13159 0.25019 0.20906 0.0
C15 C 0.12692 0.24572 0.22993 0.0
C16 C 0.14896 0.24105 0.19923 0.0
C17 C 0.24072 0.1864 0.15881 0.0
C18 C 0.23842 0.21458 0.13389 0.0
C19 C 0.25946 0.18399 0.12597 0.0
C20 C 0.25398 0.17544 0.14518 0.0
C21 C 0.25174 0.20368 0.12007 0.0
C22 C 0.23291 0.20599 0.15303 0.0
C23 C 0.23478 0.17724 0.17886 0.0
O24 O 0.21235 0.18107 0.23918 0.0
O25 O 0.19116 0.16072 0.22346 0.0
O26 O 0.21669 0.1684 0.1794 0.0
O27 O 0.23778 0.18887 0.19502 0.0
H28 H 0.2413 0.14982 0.23369 0.0
H29 H 0.25765 0.11875 0.24871 0.0
H30 H 0.20054 0.10605 0.28198 0.0
H31 H 0.18465 0.13748 0.26747 0.0
H32 H 0.13708 0.22825 0.25682 0.0
H33 H 0.16729 0.212 0.23936 0.0
H34 H 0.12164 0.26051 0.20021 0.0
H35 H 0.15218 0.24464 0.18313 0.0
H36 H 0.23243 0.22989 0.13003 0.0
H37 H 0.26951 0.17505 0.11563 0.0
H38 H 0.26003 0.16023 0.14936 0.0
H39 H 0.22259 0.21466 0.16336 0.0
C40 C 0.86798 0.2372 0.14055 0.0
C41 C 0.87549 0.25075 0.12535 0.0
C42 C 0.84456 0.24604 0.10504 0.0
C43 C 0.86394 0.25509 0.10772 0.0
C44 C 0.83739 0.23203 0.12013 0.0
C45 C 0.84903 0.22758 0.13765 0.0
U46 U 0.88045 0.20266 0.18608 0.0
O47 O 0.87663 0.17226 0.17184 0.0
O48 O 0.85049 0.18746 0.18843 0.0
C49 C 0.85761 0.17064 0.17917 0.0
C50 C 0.87974 0.23338 0.15949 0.0
C51 C 0.85307 0.15114 0.18983 0.0
C52 C 0.83846 0.11706 0.18894 0.0
C53 C 0.84427 0.13519 0.17882 0.0
C54 C 0.85085 0.13036 0.22117 0.0
C55 C 0.84129 0.1146 0.21031 0.0
C56 C 0.85672 0.1485 0.21099 0.0
C57 C 0.91721 0.21773 0.22889 0.0
C58 C 0.9455 0.22302 0.25218 0.0
C59 C 0.93079 0.25206 0.23311 0.0
C60 C 0.91685 0.23889 0.22394 0.0
C61 C 0.94535 0.24425 0.24729 0.0
C62 C 0.93153 0.20993 0.24309 0.0
C63 C 0.90298 0.20346 0.21932 0.0
O64 O 0.86851 0.2333 0.17666 0.0
O65 O 0.89362 0.21816 0.15854 0.0
O66 O 0.88339 0.20957 0.21903 0.0
O67 O 0.90961 0.19514 0.20188 0.0
H68 H 0.89019 0.25815 0.12723 0.0
H69 H 0.87014 0.26564 0.09625 0.0
H70 H 0.82247 0.22496 0.11877 0.0
H71 H 0.84303 0.21693 0.14915 0.0
H72 H 0.83146 0.10506 0.18008 0.0
H73 H 0.84152 0.13693 0.16243 0.0
H74 H 0.85309 0.12903 0.23766 0.0
H75 H 0.86362 0.16067 0.21971 0.0
H76 H 0.95678 0.21637 0.26264 0.0
H77 H 0.93018 0.26833 0.22907 0.0
H78 H 0.90588 0.24517 0.21295 0.0
H79 H 0.93208 0.19361 0.24699 0.0
C80 C 0.83074 0.85642 0.12663 0.0
C81 C 0.83879 0.83686 0.121 0.0
C82 C 0.81474 0.83563 0.09248 0.0
C83 C 0.83085 0.82654 0.10409 0.0
C84 C 0.8073 0.85557 0.09779 0.0
C85 C 0.8152 0.86583 0.11472 0.0
U86 U 0.86969 0.86401 0.16963 0.0
O87 O 0.87924 0.89247 0.18478 0.0
O88 O 0.86396 0.86826 0.20293 0.0
C89 C 0.87108 0.8871 0.20273 0.0
C90 C 0.83758 0.86678 0.14538 0.0
C91 C 0.85783 0.90299 0.21299 0.0
C92 C 0.82448 0.92072 0.21856 0.0
C93 C 0.83664 0.90527 0.20877 0.0
C94 C 0.85457 0.93169 0.23688 0.0
C95 C 0.83332 0.93419 0.2327 0.0
C96 C 0.86666 0.91624 0.22715 0.0
C97 C 0.92014 0.83102 0.17001 0.0
C98 C 0.94141 0.82368 0.19988 0.0
C99 C 0.95428 0.81464 0.16565 0.0
C100 C 0.93597 0.82272 0.15719 0.0
C101 C 0.95708 0.81466 0.18714 0.0
C102 C 0.92314 0.83183 0.19139 0.0
C103 C 0.90033 0.83778 0.16086 0.0
O104 O 0.83811 0.8552 0.16214 0.0
O105 O 0.85379 0.87851 0.14314 0.0
O106 O 0.89944 0.85678 0.15357 0.0
O107 O 0.88347 0.83265 0.17122 0.0
H108 H 0.85084 0.82935 0.13 0.0
H109 H 0.83682 0.81115 0.1006 0.0
H110 H 0.79516 0.86319 0.089 0.0
H111 H 0.80888 0.88097 0.11876 0.0
H112 H 0.80818 0.92213 0.21504 0.0
H113 H 0.82954 0.8952 0.19784 0.0
H114 H 0.86205 0.94203 0.24727 0.0
H115 H 0.88302 0.91478 0.23051 0.0
H116 H 0.94287 0.82367 0.21651 0.0
H117 H 0.96609 0.80802 0.15538 0.0
H118 H 0.93399 0.82205 0.14064 0.0
H119 H 0.91112 0.83823 0.20156 0.0
C120 C 0.1312 0.82899 0.17328 0.0
C121 C 0.11959 0.83916 0.18889 0.0
C122 C 0.09744 0.80936 0.19298 0.0
C123 C 0.10282 0.82947 0.19859 0.0
C124 C 0.10917 0.79932 0.17726 0.0
C125 C 0.12584 0.80906 0.16752 0.0
U126 U 0.17529 0.86725 0.17311 0.0
O127 O 0.20793 0.86305 0.16317 0.0
O128 O 0.1881 0.88636 0.14789 0.0
C129 C 0.2062 0.87652 0.14798 0.0
C130 C 0.14928 0.8386 0.16327 0.0
C131 C 0.21458 0.86945 0.12784 0.0
C132 C 0.21053 0.85312 0.09453 0.0
C133 C 0.20188 0.86076 0.11305 0.0
C134 C 0.24458 0.86293 0.10533 0.0
C135 C 0.23205 0.85388 0.09054 0.0
C136 C 0.23591 0.87066 0.12374 0.0
C137 C 0.18255 0.90164 0.21987 0.0
C138 C 0.20897 0.92767 0.22059 0.0
C139 C 0.18939 0.91944 0.25177 0.0
C140 C 0.17836 0.9049 0.24091 0.0
C141 C 0.20485 0.93102 0.24176 0.0
C142 C 0.19794 0.91307 0.20975 0.0
C143 C 0.17112 0.88592 0.20886 0.0
O144 O 0.14685 0.85812 0.15783 0.0
O145 O 0.16713 0.83448 0.17202 0.0
O146 O 0.18104 0.86809 0.20645 0.0
O147 O 0.16163 0.89234 0.19212 0.0
H148 H 0.12356 0.85455 0.19363 0.0
H149 H 0.09404 0.83777 0.21045 0.0
H150 H 0.10579 0.78371 0.17278 0.0
H151 H 0.13473 0.8009 0.15562 0.0
H152 H 0.20041 0.84635 0.08347 0.0
H153 H 0.18536 0.85959 0.11596 0.0
H154 H 0.26124 0.86335 0.10309 0.0
H155 H 0.24598 0.87717 0.13504 0.0
H156 H 0.22056 0.93647 0.21232 0.0
H157 H 0.18602 0.92136 0.2681 0.0
H158 H 0.16663 0.89609 0.24899 0.0
H159 H 0.20143 0.91068 0.19349 0.0
C160 C 0.1556 0.863 0.86159 0.0
C161 C 0.15244 0.87083 0.8416 0.0
C162 C 0.12003 0.85247 0.8398 0.0
C163 C 0.13477 0.86563 0.83078 0.0
C164 C 0.12314 0.84508 0.86003 0.0
C165 C 0.14077 0.85029 0.8708 0.0
U166 U 0.20632 0.89141 0.86721 0.0
O167 O 0.2201 0.90404 0.89514 0.0
O168 O 0.23676 0.87984 0.87742 0.0
C169 C 0.23601 0.89094 0.89433 0.0
C170 C 0.17447 0.86747 0.87288 0.0
C171 C 0.24046 0.87952 0.91358 0.0
C172 C 0.23684 0.84919 0.93569 0.0
C173 C 0.23124 0.86055 0.91806 0.0
C174 C 0.26031 0.87604 0.94492 0.0
C175 C 0.25173 0.85664 0.94915 0.0
C176 C 0.25474 0.88732 0.92729 0.0
C177 C 0.22253 0.93015 0.8248 0.0
C178 C 0.25686 0.94434 0.82026 0.0
C179 C 0.2283 0.95794 0.8001 0.0
C180 C 0.21503 0.94405 0.80987 0.0
C181 C 0.24944 0.95816 0.80502 0.0
C182 C 0.24351 0.93045 0.83008 0.0
C183 C 0.20827 0.91524 0.83422 0.0
O184 O 0.19197 0.86124 0.86394 0.0
O185 O 0.17525 0.88615 0.88058 0.0
O186 O 0.19895 0.92099 0.85155 0.0
O187 O 0.21491 0.89586 0.8345 0.0
H188 H 0.16377 0.8807 0.83427 0.0
H189 H 0.13293 0.87144 0.81517 0.0
H190 H 0.11194 0.83521 0.86755 0.0
H191 H 0.14293 0.8442 0.88627 0.0
H192 H 0.23007 0.83425 0.93834 0.0
H193 H 0.22009 0.8543 0.90767 0.0
H194 H 0.27154 0.88241 0.95513 0.0
H195 H 0.26191 0.90201 0.92416 0.0
H196 H 0.27306 0.94398 0.82433 0.0
H197 H 0.22195 0.96861 0.78877 0.0
H198 H 0.19886 0.9441 0.80567 0.0
H199 H 0.24958 0.91981 0.84161 0.0
C200 C 0.13907 0.16416 0.83448 0.0
C201 C 0.13418 0.18439 0.84094 0.0
C202 C 0.10167 0.18399 0.82237 0.0
C203 C 0.11563 0.19423 0.83494 0.0
C204 C 0.10643 0.16349 0.81651 0.0
C205 C 0.12495 0.15371 0.8225 0.0
U206 U 0.18976 0.15975 0.86449 0.0
O207 O 0.20619 0.13168 0.8759 0.0
O208 O 0.22139 0.15216 0.85341 0.0
C209 C 0.22225 0.13443 0.86347 0.0
C210 C 0.15904 0.15394 0.83936 0.0
C211 C 0.22954 0.11635 0.85135 0.0
C212 C 0.23474 0.09885 0.81848 0.0
C213 C 0.22575 0.11497 0.83013 0.0
C214 C 0.2505 0.08461 0.84927 0.0
C215 C 0.2476 0.08368 0.82782 0.0
C216 C 0.24161 0.10082 0.86088 0.0
C217 C 0.20175 0.19973 0.90574 0.0
C218 C 0.23586 0.20548 0.91961 0.0
C219 C 0.20524 0.22037 0.93656 0.0
C220 C 0.19281 0.2116 0.92173 0.0
C221 C 0.22696 0.21753 0.93567 0.0
C222 C 0.22337 0.19662 0.9048 0.0
C223 C 0.18825 0.19102 0.89012 0.0
O224 O 0.17565 0.16427 0.83414 0.0
O225 O 0.1602 0.14521 0.8577 0.0
O226 O 0.18048 0.17293 0.89468 0.0
O227 O 0.19486 0.19249 0.87084 0.0
H228 H 0.14491 0.19269 0.85024 0.0
H229 H 0.11255 0.21007 0.83957 0.0
H230 H 0.09591 0.15505 0.80712 0.0
H231 H 0.12841 0.13805 0.81747 0.0
H232 H 0.23237 0.09884 0.80197 0.0
H233 H 0.2164 0.12673 0.82242 0.0
H234 H 0.26006 0.07307 0.85703 0.0
H235 H 0.24463 0.10153 0.87726 0.0
H236 H 0.25251 0.20306 0.91834 0.0
H237 H 0.19777 0.22913 0.94892 0.0
H238 H 0.17615 0.21407 0.92277 0.0
H239 H 0.23059 0.18745 0.89258 0.0
C240 C 0.78901 0.14017 0.83659 0.0
C241 C 0.80174 0.13008 0.82179 0.0
C242 C 0.77559 0.10396 0.8173 0.0
C243 C 0.79509 0.11213 0.81223 0.0
C244 C 0.76293 0.11426 0.83213 0.0
C245 C 0.7696 0.13215 0.84166 0.0
U246 U 0.82627 0.18485 0.84328 0.0
O247 O 0.83801 0.19837 0.87161 0.0
O248 O 0.81933 0.21758 0.85052 0.0
C249 C 0.82879 0.21642 0.86829 0.0
C250 C 0.79562 0.15901 0.84695 0.0
C251 C 0.81786 0.22606 0.88613 0.0
C252 C 0.79882 0.2238 0.91886 0.0
C253 C 0.80719 0.21433 0.90105 0.0
C254 C 0.81103 0.25687 0.90665 0.0
C255 C 0.80101 0.24513 0.92205 0.0
C256 C 0.81937 0.24742 0.8889 0.0
C257 C 0.87432 0.19005 0.80837 0.0
C258 C 0.90317 0.21183 0.81644 0.0
C259 C 0.90166 0.19595 0.7828 0.0
C260 C 0.88294 0.1869 0.78859 0.0
C261 C 0.91219 0.20829 0.79675 0.0
C262 C 0.88439 0.20282 0.82218 0.0
C263 C 0.85519 0.17947 0.81455 0.0
O264 O 0.81278 0.15714 0.85747 0.0
O265 O 0.79451 0.17614 0.83593 0.0
O266 O 0.83775 0.18984 0.81137 0.0
O267 O 0.85557 0.17008 0.83262 0.0
H268 H 0.81681 0.13605 0.81768 0.0
H269 H 0.80532 0.10453 0.80103 0.0
H270 H 0.74769 0.1087 0.83616 0.0
H271 H 0.75952 0.13978 0.85298 0.0
H272 H 0.79136 0.21427 0.9305 0.0
H273 H 0.80583 0.19781 0.89922 0.0
H274 H 0.81272 0.27335 0.90846 0.0
H275 H 0.82749 0.25675 0.87754 0.0
H276 H 0.91092 0.22103 0.82767 0.0
H277 H 0.90794 0.19316 0.76741 0.0
H278 H 0.87532 0.1772 0.77767 0.0
H279 H 0.87793 0.20551 0.83753 0.0
C280 C 0.83407 0.93213 0.83491 0.0
C281 C 0.82165 0.94296 0.84947 0.0
C282 C 0.8079 0.96547 0.8222 0.0
C283 C 0.80867 0.9595 0.84317 0.0
C284 C 0.82047 0.9545 0.80778 0.0
C285 C 0.8334 0.93808 0.81409 0.0
U286 U 0.85055 0.88591 0.8698 0.0
O287 O 0.86178 0.85497 0.86006 0.0
O288 O 0.8819 0.87476 0.87775 0.0
C289 C 0.88035 0.85747 0.86744 0.0
C290 C 0.84764 0.91441 0.84073 0.0
C291 C 0.89797 0.85174 0.85355 0.0
C292 C 0.92569 0.86065 0.82924 0.0
C293 C 0.9082 0.86646 0.84129 0.0
C294 C 0.92245 0.82527 0.84106 0.0
C295 C 0.93324 0.84001 0.82925 0.0
C296 C 0.90505 0.83109 0.85308 0.0
C297 C 0.8191 0.8722 0.91906 0.0
C298 C 0.83011 0.84822 0.94615 0.0
C299 C 0.79405 0.85923 0.94422 0.0
C300 C 0.79876 0.8715 0.92696 0.0
C301 C 0.80964 0.8474 0.95409 0.0
C302 C 0.8348 0.86048 0.92878 0.0
C303 C 0.8234 0.88512 0.90064 0.0
O304 O 0.85875 0.91646 0.85736 0.0
O305 O 0.83947 0.89612 0.83935 0.0
O306 O 0.82039 0.8764 0.88274 0.0
O307 O 0.84035 0.89593 0.90086 0.0
H308 H 0.82187 0.93855 0.86564 0.0
H309 H 0.79923 0.96758 0.85469 0.0
H310 H 0.81991 0.95819 0.79146 0.0
H311 H 0.84275 0.92983 0.8026 0.0
H312 H 0.9337 0.87244 0.82048 0.0
H313 H 0.90293 0.88249 0.84134 0.0
H314 H 0.92757 0.8092 0.84118 0.0
H315 H 0.89729 0.81947 0.86231 0.0
H316 H 0.84254 0.83941 0.95336 0.0
H317 H 0.77804 0.85864 0.94949 0.0
H318 H 0.7864 0.88031 0.91962 0.0
H319 H 0.85062 0.86074 0.9229 0.0
C320 C 0.15112 0.63632 0.70286 0.0
C321 C 0.17236 0.63136 0.70099 0.0
C322 C 0.16667 0.59724 0.71619 0.0
C323 C 0.18006 0.61205 0.70763 0.0
C324 C 0.14529 0.60208 0.71734 0.0
C325 C 0.13762 0.62143 0.71075 0.0
U326 U 0.15229 0.68749 0.67211 0.0
O327 O 0.12605 0.7064 0.66026 0.0
O328 O 0.14704 0.71935 0.68273 0.0
C329 C 0.12976 0.72193 0.67248 0.0
C330 C 0.14285 0.65715 0.69759 0.0
C331 C 0.11182 0.73067 0.68433 0.0
C332 C 0.09322 0.73671 0.71689 0.0
C333 C 0.10908 0.72657 0.70553 0.0
C334 C 0.08198 0.75446 0.68585 0.0
C335 C 0.07968 0.75109 0.70727 0.0
C336 C 0.09791 0.74438 0.67453 0.0
C337 C 0.19529 0.69554 0.63076 0.0
C338 C 0.20124 0.72787 0.6124 0.0
C339 C 0.22122 0.69703 0.60306 0.0
C340 C 0.21065 0.68586 0.61835 0.0
C341 C 0.21669 0.7182 0.59984 0.0
C342 C 0.19064 0.71664 0.62773 0.0
C343 C 0.18447 0.68328 0.64674 0.0
O344 O 0.15437 0.6727 0.70269 0.0
O345 O 0.13485 0.65935 0.67918 0.0
O346 O 0.16578 0.6774 0.6422 0.0
O347 O 0.18578 0.68986 0.6658 0.0
H348 H 0.18309 0.6426 0.69494 0.0
H349 H 0.19665 0.60911 0.70684 0.0
H350 H 0.13449 0.59105 0.72364 0.0
H351 H 0.12114 0.62494 0.71224 0.0
H352 H 0.09217 0.73394 0.73338 0.0
H353 H 0.11959 0.71601 0.71345 0.0
H354 H 0.07172 0.76521 0.67788 0.0
H355 H 0.0997 0.74771 0.65817 0.0
H356 H 0.19743 0.74416 0.61047 0.0
H357 H 0.23267 0.68893 0.59346 0.0
H358 H 0.2144 0.66957 0.62042 0.0
H359 H 0.17883 0.72439 0.63719 0.0
C360 C 0.83474 0.72382 0.65373 0.0
C361 C 0.84647 0.7368 0.64084 0.0
C362 C 0.81665 0.74292 0.61881 0.0
C363 C 0.83751 0.74624 0.62352 0.0
C364 C 0.80479 0.7306 0.63231 0.0
C365 C 0.81377 0.72113 0.64956 0.0
U366 U 0.87443 0.7158 0.69698 0.0
O367 O 0.89228 0.68764 0.70529 0.0
O368 O 0.87013 0.70144 0.72768 0.0
C369 C 0.88253 0.6856 0.72318 0.0
C370 C 0.84425 0.71195 0.67079 0.0
C371 C 0.87395 0.66511 0.72742 0.0
C372 C 0.85332 0.63611 0.71734 0.0
C373 C 0.86153 0.6555 0.71299 0.0
C374 C 0.86978 0.63575 0.75062 0.0
C375 C 0.85727 0.626 0.73626 0.0
C376 C 0.87804 0.65509 0.74621 0.0
C377 C 0.91377 0.7574 0.70834 0.0
C378 C 0.94245 0.75231 0.7318 0.0
C379 C 0.93535 0.78615 0.71689 0.0
C380 C 0.91866 0.77827 0.70632 0.0
C381 C 0.94756 0.77326 0.72968 0.0
C382 C 0.92569 0.74445 0.72123 0.0
C383 C 0.89628 0.74947 0.69682 0.0
O384 O 0.86326 0.70478 0.66735 0.0
O385 O 0.84135 0.71954 0.68941 0.0
O386 O 0.87883 0.74764 0.70742 0.0
O387 O 0.90061 0.73359 0.68482 0.0
H388 H 0.86269 0.73916 0.64381 0.0
H389 H 0.84719 0.75542 0.61336 0.0
H390 H 0.78862 0.72796 0.62935 0.0
H391 H 0.80444 0.71125 0.65939 0.0
H392 H 0.84394 0.62901 0.70584 0.0
H393 H 0.85817 0.66303 0.69838 0.0
H394 H 0.87284 0.62865 0.76549 0.0
H395 H 0.8875 0.66233 0.75758 0.0
H396 H 0.95161 0.74189 0.74134 0.0
H397 H 0.93857 0.80242 0.71517 0.0
H398 H 0.90955 0.78852 0.69654 0.0
H399 H 0.9221 0.72826 0.72299 0.0
C400 C 0.82528 0.34363 0.63591 0.0
C401 C 0.83187 0.32327 0.63146 0.0
C402 C 0.80967 0.32309 0.60132 0.0
C403 C 0.82414 0.31309 0.6143 0.0
C404 C 0.80347 0.34363 0.60575 0.0
C405 C 0.81119 0.35375 0.62285 0.0
U406 U 0.861 0.34942 0.68241 0.0
O407 O 0.85316 0.35992 0.71391 0.0
O408 O 0.87494 0.3774 0.69457 0.0
C409 C 0.8645 0.37643 0.71217 0.0
C410 C 0.83245 0.3545 0.65427 0.0
C411 C 0.85485 0.39597 0.71953 0.0
C412 C 0.82699 0.42207 0.71978 0.0
C413 C 0.83575 0.40349 0.71219 0.0
C414 C 0.85639 0.42574 0.74198 0.0
C415 C 0.83719 0.4334 0.73485 0.0
C416 C 0.86508 0.40724 0.73441 0.0
C417 C 0.90408 0.30928 0.69376 0.0
C418 C 0.92224 0.30644 0.72629 0.0
C419 C 0.93516 0.28746 0.69643 0.0
C420 C 0.91889 0.29574 0.68476 0.0
C421 C 0.93695 0.2925 0.71742 0.0
C422 C 0.90598 0.31478 0.71455 0.0
C423 C 0.88672 0.31726 0.68126 0.0
O424 O 0.82912 0.34524 0.67213 0.0
O425 O 0.8509 0.36255 0.65264 0.0
O426 O 0.89007 0.33448 0.67099 0.0
O427 O 0.86825 0.31692 0.69019 0.0
H428 H 0.84277 0.31519 0.64137 0.0
H429 H 0.82914 0.29725 0.61148 0.0
H430 H 0.79267 0.35196 0.59594 0.0
H431 H 0.806 0.36949 0.62598 0.0
H432 H 0.81214 0.42744 0.71403 0.0
H433 H 0.82762 0.39498 0.70067 0.0
H434 H 0.86492 0.43421 0.75322 0.0
H435 H 0.87988 0.40172 0.74018 0.0
H436 H 0.92299 0.31054 0.74242 0.0
H437 H 0.94638 0.27711 0.68895 0.0
H438 H 0.91779 0.29144 0.6687 0.0
H439 H 0.89475 0.32532 0.72177 0.0
C440 C 0.11024 0.32579 0.69785 0.0
C441 C 0.09686 0.33857 0.70976 0.0
C442 C 0.07393 0.30968 0.7163 0.0
C443 C 0.07883 0.33058 0.71892 0.0
C444 C 0.0874 0.2971 0.70415 0.0
C445 C 0.1053 0.30509 0.69502 0.0
U446 U 0.15455 0.3646 0.69212 0.0
O447 O 0.18801 0.35769 0.68802 0.0
O448 O 0.17112 0.37493 0.66405 0.0
C449 C 0.18869 0.36578 0.66935 0.0
C450 C 0.1297 0.33333 0.68861 0.0
C451 C 0.19944 0.35317 0.65335 0.0
C452 C 0.19906 0.33112 0.62314 0.0
C453 C 0.18847 0.34168 0.63912 0.0
C454 C 0.23173 0.34272 0.63592 0.0
C455 C 0.22082 0.33178 0.62115 0.0
C456 C 0.22114 0.35332 0.65182 0.0
C457 C 0.15631 0.4137 0.72438 0.0
C458 C 0.1772 0.44353 0.71603 0.0
C459 C 0.16416 0.43845 0.75097 0.0
C460 C 0.15461 0.42039 0.74488 0.0
C461 C 0.17558 0.45031 0.73663 0.0
C462 C 0.16775 0.42537 0.70999 0.0
C463 C 0.14621 0.3945 0.71841 0.0
O464 O 0.12827 0.35019 0.67719 0.0
O465 O 0.14571 0.33305 0.70083 0.0
O466 O 0.15599 0.37721 0.72356 0.0
O467 O 0.13879 0.3942 0.69965 0.0
H468 H 0.10046 0.35461 0.71217 0.0
H469 H 0.06883 0.34071 0.72815 0.0
H470 H 0.08451 0.28083 0.70223 0.0
H471 H 0.11553 0.29495 0.686 0.0
H472 H 0.19011 0.3231 0.6119 0.0
H473 H 0.17171 0.34128 0.64004 0.0
H474 H 0.24848 0.34335 0.63503 0.0
H475 H 0.22989 0.362 0.66273 0.0
H476 H 0.18564 0.45231 0.70448 0.0
H477 H 0.16289 0.44287 0.76704 0.0
H478 H 0.14597 0.41155 0.75626 0.0
H479 H 0.16938 0.42047 0.69407 0.0
C480 C 0.11143 0.37896 0.3696 0.0
C481 C 0.10858 0.38189 0.34836 0.0
C482 C 0.07745 0.36151 0.35033 0.0
C483 C 0.09172 0.37321 0.33879 0.0
C484 C 0.07967 0.35981 0.37185 0.0
C485 C 0.09658 0.36844 0.38139 0.0
U486 U 0.16276 0.40675 0.36792 0.0
O487 O 0.18006 0.42035 0.39328 0.0
O488 O 0.19394 0.3949 0.37506 0.0
C489 C 0.19525 0.40647 0.39152 0.0
C490 C 0.13089 0.38465 0.37909 0.0
C491 C 0.20053 0.39502 0.41046 0.0
C492 C 0.19738 0.3644 0.43212 0.0
C493 C 0.1909 0.37636 0.41529 0.0
C494 C 0.22242 0.3902 0.44022 0.0
C495 C 0.21347 0.37099 0.44462 0.0
C496 C 0.21606 0.40205 0.42322 0.0
C497 C 0.17869 0.43899 0.32142 0.0
C498 C 0.21446 0.44876 0.31598 0.0
C499 C 0.1878 0.46246 0.29346 0.0
C500 C 0.17289 0.45141 0.30459 0.0
C501 C 0.20879 0.4612 0.29897 0.0
C502 C 0.19953 0.43781 0.32714 0.0
C503 C 0.16308 0.42692 0.33264 0.0
O504 O 0.14765 0.37688 0.36991 0.0
O505 O 0.13249 0.40418 0.38409 0.0
O506 O 0.15583 0.43508 0.34996 0.0
O507 O 0.16761 0.40707 0.33429 0.0
H508 H 0.11998 0.38994 0.33903 0.0
H509 H 0.09069 0.37452 0.32215 0.0
H510 H 0.06883 0.35102 0.38115 0.0
H511 H 0.09858 0.36608 0.39783 0.0
H512 H 0.19027 0.34963 0.43483 0.0
H513 H 0.17879 0.37071 0.40564 0.0
H514 H 0.23455 0.39597 0.44975 0.0
H515 H 0.22356 0.4165 0.41979 0.0
H516 H 0.23049 0.44723 0.32052 0.0
H517 H 0.18284 0.47215 0.28067 0.0
H518 H 0.15684 0.45251 0.30002 0.0
H519 H 0.20428 0.42825 0.34012 0.0
C520 C 0.16583 0.70587 0.28033 0.0
C521 C 0.15897 0.72494 0.28845 0.0
C522 C 0.12758 0.7239 0.26812 0.0
C523 C 0.14005 0.73392 0.28235 0.0
C524 C 0.13471 0.70485 0.25994 0.0
C525 C 0.15364 0.69598 0.26597 0.0
U526 U 0.20876 0.69576 0.31961 0.0
O527 O 0.22373 0.6663 0.32889 0.0
O528 O 0.2423 0.69054 0.31433 0.0
C529 C 0.2418 0.67126 0.32087 0.0
C530 C 0.1853 0.69569 0.28694 0.0
C531 C 0.25155 0.65556 0.30722 0.0
C532 C 0.2569 0.64011 0.27334 0.0
C533 C 0.24875 0.6561 0.28577 0.0
C534 C 0.27084 0.62303 0.30365 0.0
C535 C 0.26782 0.6232 0.28217 0.0
C536 C 0.26283 0.63906 0.316 0.0
C537 C 0.2066 0.72327 0.37187 0.0
C538 C 0.23385 0.72025 0.39721 0.0
C539 C 0.20172 0.73877 0.40569 0.0
C540 C 0.1943 0.73453 0.38609 0.0
C541 C 0.22165 0.73184 0.41147 0.0
C542 C 0.22638 0.71599 0.37756 0.0
C543 C 0.19846 0.71927 0.35126 0.0
O544 O 0.20134 0.70763 0.28862 0.0
O545 O 0.18343 0.68242 0.30229 0.0
O546 O 0.19113 0.70076 0.34866 0.0
O547 O 0.20985 0.72562 0.33549 0.0
H548 H 0.16815 0.7328 0.29963 0.0
H549 H 0.13517 0.74867 0.28883 0.0
H550 H 0.12539 0.69645 0.24931 0.0
H551 H 0.15862 0.68118 0.25963 0.0
H552 H 0.25439 0.64085 0.25687 0.0
H553 H 0.23995 0.66867 0.27869 0.0
H554 H 0.2787 0.61009 0.31113 0.0
H555 H 0.26497 0.63827 0.33254 0.0
H556 H 0.24933 0.71486 0.40104 0.0
H557 H 0.19177 0.74742 0.41637 0.0
H558 H 0.17894 0.74012 0.38201 0.0
H559 H 0.23607 0.70719 0.36677 0.0
C560 C 0.82881 0.61795 0.35195 0.0
C561 C 0.84004 0.6076 0.3362 0.0
C562 C 0.8103 0.58634 0.32957 0.0
C563 C 0.83088 0.59189 0.32513 0.0
C564 C 0.79921 0.59679 0.34545 0.0
C565 C 0.8084 0.61241 0.35653 0.0
U566 U 0.8701 0.65839 0.35724 0.0
O567 O 0.88551 0.66988 0.3847 0.0
O568 O 0.86683 0.69117 0.36567 0.0
C569 C 0.87728 0.68858 0.38273 0.0
C570 C 0.83785 0.63506 0.36316 0.0
C571 C 0.86724 0.69738 0.40136 0.0
C572 C 0.84235 0.69553 0.42995 0.0
C573 C 0.85229 0.68648 0.41273 0.0
C574 C 0.86222 0.72641 0.42458 0.0
C575 C 0.8471 0.71568 0.43602 0.0
C576 C 0.87219 0.71733 0.40744 0.0
C577 C 0.91297 0.66293 0.31647 0.0
C578 C 0.94053 0.68741 0.31997 0.0
C579 C 0.93533 0.67099 0.28706 0.0
C580 C 0.91884 0.66009 0.29573 0.0
C581 C 0.94626 0.68494 0.29901 0.0
C582 C 0.92398 0.67656 0.32859 0.0
C583 C 0.89468 0.65251 0.32493 0.0
O584 O 0.85595 0.63106 0.37149 0.0
O585 O 0.83687 0.65305 0.35363 0.0
O586 O 0.87733 0.66355 0.32431 0.0
O587 O 0.89721 0.6427 0.34261 0.0
H588 H 0.85582 0.61177 0.33238 0.0
H589 H 0.83994 0.58405 0.31316 0.0
H590 H 0.78323 0.59322 0.34905 0.0
H591 H 0.79946 0.62038 0.36852 0.0
H592 H 0.83095 0.68673 0.43852 0.0
H593 H 0.84822 0.67106 0.40819 0.0
H594 H 0.86602 0.74206 0.42853 0.0
H595 H 0.88358 0.72602 0.39873 0.0
H596 H 0.94876 0.69781 0.32969 0.0
H597 H 0.93908 0.66895 0.27081 0.0
H598 H 0.91038 0.64976 0.28612 0.0
H599 H 0.91958 0.67901 0.34464 0.0
C600 C 0.85353 0.42302 0.34556 0.0
C601 C 0.83193 0.42082 0.34602 0.0
C602 C 0.82702 0.455 0.33043 0.0
C603 C 0.81885 0.43656 0.33844 0.0
C604 C 0.84863 0.45744 0.33072 0.0
C605 C 0.86173 0.44157 0.33814 0.0
U606 U 0.86947 0.37859 0.38192 0.0
O607 O 0.87995 0.34687 0.3744 0.0
O608 O 0.90033 0.36714 0.39124 0.0
C609 C 0.89847 0.34934 0.38189 0.0
C610 C 0.86769 0.4058 0.35167 0.0
C611 C 0.9159 0.34271 0.36827 0.0
C612 C 0.94122 0.34938 0.34083 0.0
C613 C 0.92465 0.35618 0.35361 0.0
C614 C 0.94015 0.31555 0.35703 0.0
C615 C 0.94925 0.32899 0.34246 0.0
C616 C 0.92369 0.32237 0.36981 0.0
C617 C 0.83546 0.3681 0.43021 0.0
C618 C 0.8441 0.34437 0.4583 0.0
C619 C 0.80864 0.3567 0.45419 0.0
C620 C 0.81473 0.3684 0.43702 0.0
C621 C 0.8232 0.34446 0.46506 0.0
C622 C 0.85018 0.35608 0.44099 0.0
C623 C 0.84107 0.38005 0.41156 0.0
O624 O 0.87849 0.40856 0.36837 0.0
O625 O 0.86019 0.38717 0.35054 0.0
O626 O 0.83852 0.37065 0.39393 0.0
O627 O 0.85841 0.39023 0.41212 0.0
H628 H 0.82513 0.4067 0.35174 0.0
H629 H 0.80237 0.43389 0.33818 0.0
H630 H 0.85548 0.47151 0.32498 0.0
H631 H 0.87834 0.44365 0.33772 0.0
H632 H 0.94795 0.36021 0.32993 0.0
H633 H 0.91874 0.37193 0.35211 0.0
H634 H 0.94562 0.29965 0.35847 0.0
H635 H 0.91698 0.3117 0.3809 0.0
H636 H 0.85571 0.33514 0.46628 0.0
H637 H 0.79233 0.35672 0.4585 0.0
H638 H 0.80313 0.37744 0.4288 0.0
H639 H 0.86628 0.35556 0.43591 0.0
C640 C 0.6716 0.15583 0.72454 0.0
C641 C 0.69212 0.15144 0.71806 0.0
C642 C 0.69263 0.11973 0.73873 0.0
C643 C 0.70255 0.13358 0.72512 0.0
C644 C 0.67209 0.12438 0.74528 0.0
C645 C 0.66171 0.14225 0.73825 0.0
U646 U 0.66658 0.2015 0.68721 0.0
O647 O 0.65526 0.23343 0.69202 0.0
O648 O 0.63923 0.21352 0.6706 0.0
C649 C 0.63919 0.23137 0.68012 0.0
C650 C 0.66014 0.17413 0.71668 0.0
C651 C 0.61906 0.23882 0.68874 0.0
C652 C 0.59528 0.2445 0.71786 0.0
C653 C 0.61364 0.23566 0.7096 0.0
C654 C 0.58711 0.25902 0.68432 0.0
C655 C 0.58194 0.25658 0.70539 0.0
C656 C 0.6055 0.25023 0.6761 0.0
C657 C 0.71005 0.21058 0.64728 0.0
C658 C 0.71363 0.24223 0.62716 0.0
C659 C 0.73345 0.21138 0.61744 0.0
C660 C 0.72452 0.20067 0.63406 0.0
C661 C 0.72812 0.23231 0.61374 0.0
C662 C 0.70464 0.23145 0.64374 0.0
C663 C 0.70075 0.19887 0.66454 0.0
O664 O 0.66869 0.19201 0.71983 0.0
O665 O 0.65299 0.17239 0.69794 0.0
O666 O 0.6839 0.18893 0.66025 0.0
O667 O 0.69948 0.20843 0.68236 0.0
H668 H 0.69999 0.16176 0.70742 0.0
H669 H 0.7184 0.13061 0.7199 0.0
H670 H 0.66381 0.11392 0.75542 0.0
H671 H 0.64582 0.14533 0.7433 0.0
H672 H 0.592 0.24258 0.73422 0.0
H673 H 0.62388 0.22687 0.71964 0.0
H674 H 0.57713 0.26805 0.67424 0.0
H675 H 0.60939 0.25277 0.65993 0.0
H676 H 0.70927 0.25834 0.62488 0.0
H677 H 0.74418 0.2031 0.60721 0.0
H678 H 0.7288 0.18454 0.63649 0.0
H679 H 0.69344 0.23937 0.65377 0.0
C680 C 0.33436 0.21985 0.6283 0.0
C681 C 0.34433 0.23511 0.61655 0.0
C682 C 0.31272 0.24194 0.59725 0.0
C683 C 0.33363 0.24601 0.60113 0.0
C684 C 0.30282 0.22673 0.60925 0.0
C685 C 0.31355 0.2158 0.62457 0.0
U686 U 0.37561 0.2126 0.67017 0.0
O687 O 0.39491 0.18506 0.67744 0.0
O688 O 0.37273 0.19744 0.7006 0.0
C689 C 0.38578 0.18231 0.69555 0.0
C690 C 0.34526 0.20778 0.64435 0.0
C691 C 0.37834 0.16141 0.69987 0.0
C692 C 0.35794 0.13191 0.6908 0.0
C693 C 0.36561 0.15144 0.68598 0.0
C694 C 0.37574 0.13212 0.72337 0.0
C695 C 0.36276 0.12207 0.70965 0.0
C696 C 0.38345 0.15158 0.71849 0.0
C697 C 0.41216 0.25557 0.68379 0.0
C698 C 0.43938 0.25053 0.70891 0.0
C699 C 0.43216 0.28465 0.69471 0.0
C700 C 0.41651 0.27663 0.68275 0.0
C701 C 0.44382 0.27171 0.70796 0.0
C702 C 0.42367 0.24254 0.69695 0.0
C703 C 0.39533 0.24753 0.67141 0.0
O704 O 0.36465 0.2023 0.64013 0.0
O705 O 0.34228 0.21419 0.6634 0.0
O706 O 0.37788 0.24436 0.68161 0.0
O707 O 0.40063 0.23242 0.65876 0.0
H708 H 0.3604 0.23851 0.61921 0.0
H709 H 0.34183 0.25744 0.59208 0.0
H710 H 0.28666 0.22343 0.607 0.0
H711 H 0.30556 0.20415 0.63355 0.0
H712 H 0.34816 0.12457 0.6798 0.0
H713 H 0.36145 0.15884 0.67152 0.0
H714 H 0.37946 0.12525 0.73818 0.0
H715 H 0.39313 0.15913 0.72946 0.0
H716 H 0.44817 0.24007 0.71874 0.0
H717 H 0.43486 0.30107 0.69383 0.0
H718 H 0.40767 0.28694 0.67279 0.0
H719 H 0.42048 0.22621 0.69799 0.0
C720 C 0.32169 0.8342 0.63059 0.0
C721 C 0.3285 0.81371 0.62713 0.0
C722 C 0.30505 0.81122 0.59816 0.0
C723 C 0.32024 0.80231 0.61107 0.0
C724 C 0.29843 0.83182 0.60172 0.0
C725 C 0.30666 0.84314 0.61777 0.0
U726 U 0.36171 0.84387 0.67225 0.0
O727 O 0.37602 0.87285 0.68128 0.0
O728 O 0.3571 0.85574 0.7038 0.0
C729 C 0.36758 0.87252 0.69992 0.0
C730 C 0.33 0.84651 0.64743 0.0
C731 C 0.35798 0.89214 0.7071 0.0
C732 C 0.32965 0.91772 0.70796 0.0
C733 C 0.33822 0.89887 0.70084 0.0
C734 C 0.36054 0.9232 0.72758 0.0
C735 C 0.34072 0.93013 0.72146 0.0
C736 C 0.36904 0.90443 0.72049 0.0
C737 C 0.40714 0.80536 0.68 0.0
C738 C 0.42983 0.80543 0.70954 0.0
C739 C 0.43765 0.78258 0.68084 0.0
C740 C 0.42008 0.79024 0.67073 0.0
C741 C 0.44261 0.78985 0.70051 0.0
C742 C 0.41225 0.81313 0.69937 0.0
C743 C 0.38819 0.81242 0.66944 0.0
O744 O 0.32901 0.8381 0.66597 0.0
O745 O 0.34777 0.85529 0.64341 0.0
O746 O 0.38981 0.82932 0.65821 0.0
O747 O 0.37094 0.81199 0.68057 0.0
H748 H 0.34013 0.80653 0.63688 0.0
H749 H 0.32558 0.78646 0.60893 0.0
H750 H 0.2871 0.83935 0.59189 0.0
H751 H 0.3013 0.85897 0.62013 0.0
H752 H 0.31431 0.92249 0.70303 0.0
H753 H 0.32946 0.88957 0.69047 0.0
H754 H 0.36972 0.93249 0.73757 0.0
H755 H 0.38437 0.89953 0.7254 0.0
H756 H 0.43305 0.81125 0.72474 0.0
H757 H 0.4473 0.77085 0.67327 0.0
H758 H 0.41646 0.78417 0.65573 0.0
H759 H 0.40245 0.82487 0.70675 0.0
C760 C 0.6165 0.81459 0.66771 0.0
C761 C 0.60331 0.82776 0.67942 0.0
C762 C 0.58154 0.79878 0.68894 0.0
C763 C 0.58595 0.81995 0.68987 0.0
C764 C 0.59465 0.78577 0.67684 0.0
C765 C 0.61191 0.79362 0.66634 0.0
U766 U 0.65988 0.85348 0.66332 0.0
O767 O 0.69348 0.84828 0.65861 0.0
O768 O 0.67578 0.86662 0.63603 0.0
C769 C 0.6938 0.85802 0.64073 0.0
C770 C 0.63558 0.82218 0.65771 0.0
C771 C 0.70528 0.84734 0.62389 0.0
C772 C 0.70727 0.82304 0.59545 0.0
C773 C 0.69581 0.83302 0.61125 0.0
C774 C 0.73775 0.84154 0.6049 0.0
C775 C 0.72842 0.82717 0.59208 0.0
C776 C 0.72628 0.85152 0.6206 0.0
C777 C 0.66057 0.89876 0.70077 0.0
C778 C 0.68388 0.9275 0.69688 0.0
C779 C 0.66532 0.92218 0.7293 0.0
C780 C 0.65599 0.90491 0.72108 0.0
C781 C 0.6794 0.93373 0.71732 0.0
C782 C 0.67461 0.91014 0.68871 0.0
C783 C 0.65092 0.88023 0.69265 0.0
O784 O 0.63378 0.83976 0.64748 0.0
O785 O 0.65217 0.821 0.66913 0.0
O786 O 0.66118 0.86274 0.69589 0.0
O787 O 0.6436 0.88188 0.67389 0.0
H788 H 0.60664 0.84401 0.68076 0.0
H789 H 0.57615 0.83044 0.69891 0.0
H790 H 0.59205 0.76934 0.6761 0.0
H791 H 0.622 0.78319 0.65751 0.0
H792 H 0.69951 0.81224 0.58577 0.0
H793 H 0.67959 0.82956 0.6136 0.0
H794 H 0.75405 0.84484 0.60306 0.0
H795 H 0.73388 0.86245 0.63029 0.0
H796 H 0.69445 0.93612 0.68712 0.0
H797 H 0.66177 0.92623 0.74519 0.0
H798 H 0.64532 0.89621 0.73067 0.0
H799 H 0.67842 0.90557 0.673 0.0
C800 C 0.64363 0.8505 0.37099 0.0
C801 C 0.63974 0.85674 0.3506 0.0
C802 C 0.60969 0.83467 0.34998 0.0
C803 C 0.62287 0.8489 0.34017 0.0
C804 C 0.61341 0.82897 0.3706 0.0
C805 C 0.63022 0.8368 0.38098 0.0
U806 U 0.69129 0.88442 0.37715 0.0
O807 O 0.70338 0.89719 0.40586 0.0
O808 O 0.72246 0.87536 0.38741 0.0
C809 C 0.7203 0.88546 0.40489 0.0
C810 C 0.66195 0.85731 0.38192 0.0
C811 C 0.7251 0.87334 0.42366 0.0
C812 C 0.72556 0.84078 0.4427 0.0
C813 C 0.71944 0.8526 0.42559 0.0
C814 C 0.74216 0.87055 0.45672 0.0
C815 C 0.73731 0.8495 0.45834 0.0
C816 C 0.73615 0.88232 0.43951 0.0
C817 C 0.70526 0.92553 0.33638 0.0
C818 C 0.73845 0.94243 0.33385 0.0
C819 C 0.71036 0.95359 0.3118 0.0
C820 C 0.69766 0.93874 0.32088 0.0
C821 C 0.73099 0.95551 0.31799 0.0
C822 C 0.72568 0.92757 0.34296 0.0
C823 C 0.69184 0.90936 0.34492 0.0
O824 O 0.67994 0.85309 0.37282 0.0
O825 O 0.66067 0.87597 0.38977 0.0
O826 O 0.68181 0.91385 0.36225 0.0
O827 O 0.69985 0.89048 0.3447 0.0
H828 H 0.64997 0.86731 0.34265 0.0
H829 H 0.62055 0.85347 0.32424 0.0
H830 H 0.6034 0.8183 0.3787 0.0
H831 H 0.63295 0.8319 0.39676 0.0
H832 H 0.72182 0.82457 0.44321 0.0
H833 H 0.7108 0.84537 0.41357 0.0
H834 H 0.75094 0.87785 0.46857 0.0
H835 H 0.74051 0.89834 0.43838 0.0
H836 H 0.75429 0.94334 0.33889 0.0
H837 H 0.70395 0.96362 0.29993 0.0
H838 H 0.6819 0.93744 0.31566 0.0
H839 H 0.73183 0.91748 0.35493 0.0
C840 C 0.63463 0.19094 0.3119 0.0
C841 C 0.63218 0.21188 0.31718 0.0
C842 C 0.60164 0.21526 0.29558 0.0
C843 C 0.61584 0.22394 0.30907 0.0
C844 C 0.60429 0.19425 0.2904 0.0
C845 C 0.62062 0.18228 0.29844 0.0
U846 U 0.67679 0.17829 0.35161 0.0
O847 O 0.70812 0.16472 0.34709 0.0
O848 O 0.68514 0.14829 0.36602 0.0
C849 C 0.70375 0.14772 0.35737 0.0
C850 C 0.65146 0.17775 0.32034 0.0
C851 C 0.71038 0.12805 0.34759 0.0
C852 C 0.71891 0.10747 0.31718 0.0
C853 C 0.71074 0.12567 0.32606 0.0
C854 C 0.72571 0.09349 0.35125 0.0
C855 C 0.72681 0.09128 0.32967 0.0
C856 C 0.71759 0.11169 0.3601 0.0
C857 C 0.68655 0.2154 0.39597 0.0
C858 C 0.71756 0.2148 0.41675 0.0
C859 C 0.68765 0.2359 0.42715 0.0
C860 C 0.67699 0.22919 0.40997 0.0
C861 C 0.70818 0.22902 0.43064 0.0
C862 C 0.70683 0.20802 0.39959 0.0
C863 C 0.6753 0.20935 0.37747 0.0
O864 O 0.67021 0.18516 0.31902 0.0
O865 O 0.64741 0.16889 0.33826 0.0
O866 O 0.6636 0.19314 0.37962 0.0
O867 O 0.68606 0.20948 0.36001 0.0
H868 H 0.64283 0.21885 0.3276 0.0
H869 H 0.61437 0.24006 0.31332 0.0
H870 H 0.59345 0.18686 0.28048 0.0
H871 H 0.62218 0.16612 0.29429 0.0
H872 H 0.71984 0.10644 0.3005 0.0
H873 H 0.70526 0.13808 0.31608 0.0
H874 H 0.73151 0.08129 0.36131 0.0
H875 H 0.7174 0.1132 0.37675 0.0
H876 H 0.73338 0.2093 0.41883 0.0
H877 H 0.67977 0.24652 0.4377 0.0
H878 H 0.6613 0.23494 0.40752 0.0
H879 H 0.71447 0.19729 0.38898 0.0
C880 C 0.31294 0.12647 0.37677 0.0
C881 C 0.32682 0.11761 0.36218 0.0
C882 C 0.30227 0.09063 0.35508 0.0
C883 C 0.32157 0.09983 0.35148 0.0
C884 C 0.28844 0.09967 0.36974 0.0
C885 C 0.29375 0.11738 0.38047 0.0
U886 U 0.34526 0.17441 0.38181 0.0
O887 O 0.35857 0.18872 0.40907 0.0
O888 O 0.33631 0.20635 0.39023 0.0
C889 C 0.34752 0.20594 0.40694 0.0
C890 C 0.31808 0.14539 0.38789 0.0
C891 C 0.33727 0.21425 0.42578 0.0
C892 C 0.31399 0.21111 0.45564 0.0
C893 C 0.32381 0.20243 0.43809 0.0
C894 C 0.3311 0.24335 0.44875 0.0
C895 C 0.31747 0.23173 0.46116 0.0
C896 C 0.34088 0.23469 0.4313 0.0
C897 C 0.38702 0.1835 0.33942 0.0
C898 C 0.41376 0.20924 0.34029 0.0
C899 C 0.40881 0.18972 0.30911 0.0
C900 C 0.39268 0.17921 0.31889 0.0
C901 C 0.4197 0.20475 0.31972 0.0
C902 C 0.39754 0.19869 0.35007 0.0
C903 C 0.37025 0.17175 0.34932 0.0
O904 O 0.33633 0.14514 0.39656 0.0
O905 O 0.31377 0.16283 0.37815 0.0
O906 O 0.37444 0.16309 0.36724 0.0
O907 O 0.35166 0.18049 0.34881 0.0
H908 H 0.3417 0.12446 0.35903 0.0
H909 H 0.33269 0.09324 0.34048 0.0
H910 H 0.2733 0.09332 0.37265 0.0
H911 H 0.28276 0.12409 0.39155 0.0
H912 H 0.30362 0.2017 0.46484 0.0
H913 H 0.3208 0.1866 0.43403 0.0
H914 H 0.33378 0.25941 0.45213 0.0
H915 H 0.35111 0.24409 0.42192 0.0
H916 H 0.4219 0.22061 0.34896 0.0
H917 H 0.41266 0.18615 0.29316 0.0
H918 H 0.38463 0.16763 0.31039 0.0
H919 H 0.39332 0.20225 0.36595 0.0
C920 C 0.37195 0.92705 0.36581 0.0
C921 C 0.35753 0.93584 0.37993 0.0
C922 C 0.34262 0.95737 0.35255 0.0
C923 C 0.34305 0.95093 0.37339 0.0
C924 C 0.35732 0.9486 0.33859 0.0
C925 C 0.37183 0.93366 0.34517 0.0
U926 U 0.3865 0.88086 0.40018 0.0
O927 O 0.39948 0.85026 0.39162 0.0
O928 O 0.41668 0.87015 0.41211 0.0
C929 C 0.41683 0.85298 0.40138 0.0
C930 C 0.38645 0.9102 0.37192 0.0
C931 C 0.43598 0.84781 0.38947 0.0
C932 C 0.46426 0.8571 0.36601 0.0
C933 C 0.44662 0.86276 0.3779 0.0
C934 C 0.46081 0.82156 0.37725 0.0
C935 C 0.4715 0.83636 0.3654 0.0
C936 C 0.44331 0.82725 0.38916 0.0
C937 C 0.34694 0.86536 0.4428 0.0
C938 C 0.3518 0.83833 0.46874 0.0
C939 C 0.31741 0.85256 0.46235 0.0
C940 C 0.32565 0.86582 0.44739 0.0
C941 C 0.33032 0.83854 0.47318 0.0
C942 C 0.36005 0.85163 0.45363 0.0
C943 C 0.3547 0.87881 0.42607 0.0
O944 O 0.39525 0.91202 0.38994 0.0
O945 O 0.37999 0.89148 0.36856 0.0
O946 O 0.35493 0.87071 0.40754 0.0
O947 O 0.37133 0.88936 0.42981 0.0
H948 H 0.35725 0.93084 0.39594 0.0
H949 H 0.3321 0.9574 0.38462 0.0
H950 H 0.35722 0.95273 0.32235 0.0
H951 H 0.38268 0.9269 0.33399 0.0
H952 H 0.47212 0.86894 0.35719 0.0
H953 H 0.44116 0.87874 0.37785 0.0
H954 H 0.46552 0.80539 0.37682 0.0
H955 H 0.43521 0.81546 0.39786 0.0
H956 H 0.3622 0.82775 0.47676 0.0
H957 H 0.30076 0.8528 0.46484 0.0
H958 H 0.31527 0.87618 0.43905 0.0
H959 H 0.37656 0.85098 0.4502 0.0
C960 C 0.71664 0.6621 0.24487 0.0
C961 C 0.73556 0.65482 0.23625 0.0
C962 C 0.73144 0.62155 0.25377 0.0
C963 C 0.74292 0.63471 0.24069 0.0
C964 C 0.71251 0.62907 0.26234 0.0
C965 C 0.70524 0.64911 0.25795 0.0
U966 U 0.71235 0.71212 0.21211 0.0
O967 O 0.68409 0.72943 0.20319 0.0
O968 O 0.70692 0.74414 0.22249 0.0
C969 C 0.68839 0.7455 0.21443 0.0
C970 C 0.70814 0.68292 0.24024 0.0
C971 C 0.67139 0.75295 0.22818 0.0
C972 C 0.65172 0.75138 0.26058 0.0
C973 C 0.66878 0.745 0.24828 0.0
C974 C 0.63985 0.77382 0.23289 0.0
C975 C 0.63689 0.76572 0.25295 0.0
C976 C 0.65693 0.76751 0.22067 0.0
C977 C 0.74471 0.71958 0.16257 0.0
C978 C 0.7408 0.75006 0.14062 0.0
C979 C 0.76243 0.72106 0.12915 0.0
C980 C 0.75795 0.71055 0.14759 0.0
C981 C 0.75376 0.74088 0.1253 0.0
C982 C 0.73629 0.73949 0.15908 0.0
C983 C 0.73904 0.70759 0.18117 0.0
O984 O 0.72081 0.69835 0.24208 0.0
O985 O 0.69668 0.68444 0.22373 0.0
O986 O 0.72033 0.70007 0.18124 0.0
O987 O 0.74383 0.71566 0.19896 0.0
H988 H 0.74456 0.66462 0.22604 0.0
H989 H 0.75762 0.62952 0.23395 0.0
H990 H 0.70301 0.6193 0.2721 0.0
H991 H 0.69052 0.65442 0.26463 0.0
H992 H 0.65004 0.74493 0.27599 0.0
H993 H 0.67975 0.73362 0.25432 0.0
H994 H 0.62857 0.78451 0.22627 0.0
H995 H 0.65859 0.77368 0.20513 0.0
H996 H 0.73399 0.76536 0.13827 0.0
H997 H 0.77214 0.71331 0.11761 0.0
H998 H 0.76447 0.69513 0.14996 0.0
H999 H 0.72597 0.74669 0.17047 0.0
C1000 C 0.35954 0.69426 0.13174 0.0
C1001 C 0.35811 0.71567 0.13506 0.0
C1002 C 0.34424 0.7211 0.10067 0.0
C1003 C 0.35044 0.72895 0.11971 0.0
C1004 C 0.34638 0.6997 0.09721 0.0
C1005 C 0.35389 0.68642 0.11263 0.0
U1006 U 0.39287 0.68084 0.17821 0.0
O1007 O 0.38433 0.66608 0.20775 0.0
O1008 O 0.4078 0.65127 0.18737 0.0
C1009 C 0.39577 0.64942 0.2039 0.0
C1010 C 0.36631 0.67988 0.14816 0.0
C1011 C 0.38466 0.62994 0.20596 0.0
C1012 C 0.36136 0.60484 0.19214 0.0
C1013 C 0.37349 0.6223 0.18943 0.0
C1014 C 0.37167 0.60235 0.22786 0.0
C1015 C 0.36004 0.59483 0.2115 0.0
C1016 C 0.38387 0.61973 0.22508 0.0
C1017 C 0.43061 0.72165 0.19647 0.0
C1018 C 0.45618 0.71642 0.22318 0.0
C1019 C 0.44944 0.75072 0.20917 0.0
C1020 C 0.4347 0.74278 0.19614 0.0
C1021 C 0.46046 0.73765 0.22278 0.0
C1022 C 0.44134 0.70848 0.21012 0.0
C1023 C 0.41505 0.71388 0.18245 0.0
O1024 O 0.38541 0.67247 0.14632 0.0
O1025 O 0.36116 0.68537 0.16712 0.0
O1026 O 0.39629 0.71214 0.19043 0.0
O1027 O 0.42096 0.69815 0.17084 0.0
H1028 H 0.36253 0.7221 0.14967 0.0
H1029 H 0.34883 0.74529 0.12302 0.0
H1030 H 0.34216 0.69316 0.0826 0.0
H1031 H 0.35506 0.66997 0.10972 0.0
H1032 H 0.35281 0.59937 0.17916 0.0
H1033 H 0.37378 0.6301 0.17456 0.0
H1034 H 0.37076 0.59532 0.24307 0.0
H1035 H 0.39221 0.62555 0.23807 0.0
H1036 H 0.46449 0.70591 0.23337 0.0
H1037 H 0.45202 0.76718 0.20873 0.0
H1038 H 0.42644 0.75318 0.18579 0.0
H1039 H 0.43831 0.6921 0.21061 0.0
C1040 C 0.35197 0.36155 0.09324 0.0
C1041 C 0.35742 0.34043 0.09254 0.0
C1042 C 0.33572 0.33621 0.06251 0.0
C1043 C 0.34937 0.32786 0.0773 0.0
C1044 C 0.33089 0.35753 0.06292 0.0
C1045 C 0.33896 0.37006 0.07814 0.0
U1046 U 0.38629 0.37243 0.13948 0.0
O1047 O 0.37758 0.38496 0.16992 0.0
O1048 O 0.39908 0.40185 0.14968 0.0
C1049 C 0.38815 0.40186 0.16703 0.0
C1050 C 0.35863 0.37466 0.11025 0.0
C1051 C 0.37718 0.42138 0.17255 0.0
C1052 C 0.34568 0.44281 0.17497 0.0
C1053 C 0.35637 0.42519 0.16748 0.0
C1054 C 0.37673 0.4534 0.19191 0.0
C1055 C 0.35563 0.45689 0.18767 0.0
C1056 C 0.38737 0.43582 0.18443 0.0
C1057 C 0.42803 0.33282 0.15626 0.0
C1058 C 0.44224 0.33003 0.19072 0.0
C1059 C 0.45788 0.31014 0.1627 0.0
C1060 C 0.4434 0.31878 0.14911 0.0
C1061 C 0.45723 0.31532 0.18379 0.0
C1062 C 0.4278 0.33873 0.17708 0.0
C1063 C 0.41175 0.34019 0.1421 0.0
O1064 O 0.35468 0.36755 0.12895 0.0
O1065 O 0.37719 0.38241 0.10821 0.0
O1066 O 0.41596 0.35667 0.13094 0.0
O1067 O 0.39275 0.34056 0.14984 0.0
H1068 H 0.36739 0.33355 0.10412 0.0
H1069 H 0.35311 0.31145 0.07767 0.0
H1070 H 0.32053 0.36445 0.0517 0.0
H1071 H 0.3346 0.38634 0.07842 0.0
H1072 H 0.32938 0.44488 0.1716 0.0
H1073 H 0.34822 0.41423 0.15831 0.0
H1074 H 0.38491 0.46405 0.20142 0.0
H1075 H 0.40345 0.43318 0.18846 0.0
H1076 H 0.44107 0.3342 0.20687 0.0
H1077 H 0.46937 0.29911 0.15676 0.0
H1078 H 0.4439 0.31411 0.13308 0.0
H1079 H 0.41609 0.3496 0.18292 0.0
C1080 C 0.61631 0.32177 0.18083 0.0
C1081 C 0.60495 0.33351 0.1955 0.0
C1082 C 0.58454 0.30349 0.20496 0.0
C1083 C 0.58918 0.32447 0.20742 0.0
C1084 C 0.59622 0.2918 0.19039 0.0
C1085 C 0.61189 0.30087 0.17846 0.0
U1086 U 0.65745 0.36246 0.16998 0.0
O1087 O 0.6663 0.37788 0.14081 0.0
O1088 O 0.68919 0.35857 0.15723 0.0
C1089 C 0.68508 0.36947 0.14053 0.0
C1090 C 0.63279 0.33092 0.16787 0.0
C1091 C 0.69247 0.36029 0.12088 0.0
C1092 C 0.68756 0.3392 0.09052 0.0
C1093 C 0.67976 0.34811 0.10887 0.0
C1094 C 0.72073 0.35468 0.09603 0.0
C1095 C 0.70821 0.3423 0.08393 0.0
C1096 C 0.71292 0.36359 0.11426 0.0
C1097 C 0.66674 0.40484 0.20915 0.0
C1098 C 0.692 0.43153 0.203 0.0
C1099 C 0.67555 0.42799 0.23676 0.0
C1100 C 0.66419 0.41151 0.22958 0.0
C1101 C 0.6897 0.43817 0.2236 0.0
C1102 C 0.68066 0.41498 0.19585 0.0
C1103 C 0.65539 0.38682 0.20224 0.0
O1104 O 0.62845 0.34914 0.15967 0.0
O1105 O 0.65157 0.32945 0.17531 0.0
O1106 O 0.66623 0.36936 0.20177 0.0
O1107 O 0.64392 0.38973 0.18587 0.0
H1108 H 0.60818 0.34969 0.19764 0.0
H1109 H 0.58041 0.33402 0.21831 0.0
H1110 H 0.5934 0.27554 0.18832 0.0
H1111 H 0.6206 0.29151 0.16733 0.0
H1112 H 0.67749 0.32977 0.0816 0.0
H1113 H 0.66392 0.34532 0.11376 0.0
H1114 H 0.73683 0.35697 0.09182 0.0
H1115 H 0.723 0.37282 0.12339 0.0
H1116 H 0.70258 0.43912 0.19238 0.0
H1117 H 0.67362 0.43239 0.25279 0.0
H1118 H 0.65363 0.40376 0.2401 0.0
H1119 H 0.68287 0.40998 0.18001 0.0
C1120 C 0.6345 0.36573 0.85903 0.0
C1121 C 0.63299 0.37262 0.83849 0.0
C1122 C 0.59899 0.35738 0.83616 0.0
C1123 C 0.61535 0.36849 0.82713 0.0
C1124 C 0.60031 0.35127 0.85701 0.0
C1125 C 0.61792 0.35539 0.86831 0.0
U1126 U 0.68727 0.3899 0.8672 0.0
O1127 O 0.70166 0.399 0.89624 0.0
O1128 O 0.71664 0.37518 0.87667 0.0
C1129 C 0.71658 0.38487 0.89443 0.0
C1130 C 0.65356 0.36822 0.87071 0.0
C1131 C 0.72037 0.3718 0.91279 0.0
C1132 C 0.71795 0.33902 0.9313 0.0
C1133 C 0.71248 0.35182 0.91461 0.0
C1134 C 0.73839 0.36638 0.94499 0.0
C1135 C 0.73136 0.346 0.94646 0.0
C1136 C 0.733 0.37909 0.9283 0.0
C1137 C 0.70767 0.43022 0.82862 0.0
C1138 C 0.74304 0.44233 0.8278 0.0
C1139 C 0.71723 0.4586 0.80591 0.0
C1140 C 0.70235 0.44518 0.81378 0.0
C1141 C 0.73781 0.45729 0.81271 0.0
C1142 C 0.72809 0.42891 0.8357 0.0
C1143 C 0.69177 0.41601 0.83627 0.0
O1144 O 0.67073 0.36136 0.86155 0.0
O1145 O 0.65555 0.38617 0.87968 0.0
O1146 O 0.68254 0.42105 0.85387 0.0
O1147 O 0.69669 0.39622 0.83501 0.0
H1148 H 0.64567 0.38069 0.83109 0.0
H1149 H 0.61489 0.37326 0.81108 0.0
H1150 H 0.58785 0.34298 0.86451 0.0
H1151 H 0.61877 0.35008 0.88419 0.0
H1152 H 0.71234 0.3234 0.93189 0.0
H1153 H 0.70257 0.34592 0.90284 0.0
H1154 H 0.74839 0.37241 0.9566 0.0
H1155 H 0.73909 0.39451 0.92727 0.0
H1156 H 0.75875 0.44079 0.83328 0.0
H1157 H 0.71252 0.47017 0.79465 0.0
H1158 H 0.68664 0.44647 0.80822 0.0
H1159 H 0.73247 0.41744 0.8472 0.0
C1160 C 0.63218 0.65951 0.83691 0.0
C1161 C 0.62871 0.68069 0.84047 0.0
C1162 C 0.5992 0.68106 0.81753 0.0
C1163 C 0.61239 0.69138 0.83083 0.0
C1164 C 0.60242 0.65968 0.81456 0.0
C1165 C 0.61878 0.64904 0.82413 0.0
U1166 U 0.6754 0.65293 0.87635 0.0
O1167 O 0.68873 0.62424 0.88988 0.0
O1168 O 0.70835 0.64489 0.87143 0.0
C1169 C 0.70684 0.62683 0.88069 0.0
C1170 C 0.65019 0.6483 0.84553 0.0
C1171 C 0.71532 0.60915 0.8688 0.0
C1172 C 0.72247 0.59244 0.83588 0.0
C1173 C 0.71244 0.60801 0.84743 0.0
C1174 C 0.73737 0.57817 0.86711 0.0
C1175 C 0.73544 0.57757 0.8455 0.0
C1176 C 0.72745 0.59388 0.87863 0.0
C1177 C 0.6815 0.69251 0.91906 0.0
C1178 C 0.7138 0.69802 0.93664 0.0
C1179 C 0.68207 0.71525 0.94866 0.0
C1180 C 0.67115 0.70571 0.93311 0.0
C1181 C 0.70362 0.71186 0.95037 0.0
C1182 C 0.70283 0.6884 0.92115 0.0
C1183 C 0.67014 0.68417 0.90165 0.0
O1184 O 0.66791 0.65777 0.84374 0.0
O1185 O 0.64728 0.63959 0.86374 0.0
O1186 O 0.66148 0.66623 0.90484 0.0
O1187 O 0.67961 0.68557 0.88355 0.0
H1188 H 0.6389 0.68903 0.85033 0.0
H1189 H 0.61051 0.70785 0.83331 0.0
H1190 H 0.59236 0.65117 0.80474 0.0
H1191 H 0.62118 0.63267 0.82129 0.0
H1192 H 0.72085 0.59272 0.81927 0.0
H1193 H 0.70303 0.61961 0.83955 0.0
H1194 H 0.74698 0.56682 0.87506 0.0
H1195 H 0.72973 0.59443 0.89514 0.0
H1196 H 0.73038 0.69518 0.93735 0.0
H1197 H 0.67366 0.72548 0.95919 0.0
H1198 H 0.65467 0.70897 0.93179 0.0
H1199 H 0.7111 0.6782 0.91046 0.0
C1200 C 0.31811 0.65473 0.81424 0.0
C1201 C 0.31637 0.64697 0.79426 0.0
C1202 C 0.29309 0.62052 0.80705 0.0
C1203 C 0.30396 0.63009 0.79068 0.0
C1204 C 0.29456 0.62862 0.82706 0.0
C1205 C 0.30696 0.64561 0.83062 0.0
U1206 U 0.33455 0.7024 0.8439 0.0
O1207 O 0.32319 0.69449 0.87515 0.0
O1208 O 0.30454 0.71507 0.85533 0.0
C1209 C 0.30692 0.70704 0.87388 0.0
C1210 C 0.33196 0.67203 0.81759 0.0
C1211 C 0.304 0.72145 0.89118 0.0
C1212 C 0.28896 0.729 0.92499 0.0
C1213 C 0.29118 0.71601 0.90793 0.0
C1214 C 0.31221 0.75324 0.90861 0.0
C1215 C 0.29949 0.74776 0.9256 0.0
C1216 C 0.31448 0.74016 0.89155 0.0
C1217 C 0.38362 0.73053 0.82724 0.0
C1218 C 0.41773 0.74467 0.82172 0.0
C1219 C 0.40326 0.72298 0.79564 0.0
C1220 C 0.38537 0.72076 0.808 0.0
C1221 C 0.41969 0.73494 0.80239 0.0
C1222 C 0.39986 0.7425 0.83398 0.0
C1223 C 0.36529 0.72805 0.84078 0.0
O1224 O 0.32394 0.69061 0.81422 0.0
O1225 O 0.34317 0.67082 0.8343 0.0
O1226 O 0.36571 0.71154 0.85272 0.0
O1227 O 0.34723 0.73155 0.83221 0.0
H1228 H 0.32473 0.65392 0.78141 0.0
H1229 H 0.30282 0.62458 0.77501 0.0
H1230 H 0.28648 0.62157 0.84002 0.0
H1231 H 0.30803 0.65146 0.84618 0.0
H1232 H 0.27942 0.72401 0.93795 0.0
H1233 H 0.28314 0.70153 0.90797 0.0
H1234 H 0.32044 0.7676 0.90851 0.0
H1235 H 0.32457 0.74454 0.87876 0.0
H1236 H 0.43022 0.75359 0.82765 0.0
H1237 H 0.40421 0.71537 0.78081 0.0
H1238 H 0.37298 0.71136 0.8026 0.0
H1239 H 0.39882 0.75 0.84888 0.0
C1240 C 0.3009 0.40316 0.81263 0.0
C1241 C 0.29316 0.41711 0.8276 0.0
C1242 C 0.27403 0.43642 0.80128 0.0
C1243 C 0.27988 0.4336 0.82196 0.0
C1244 C 0.28112 0.42186 0.78656 0.0
C1245 C 0.29446 0.40547 0.79218 0.0
U1246 U 0.32389 0.35879 0.84608 0.0
O1247 O 0.33997 0.32999 0.836 0.0
O1248 O 0.35623 0.35244 0.85455 0.0
C1249 C 0.35766 0.33528 0.84385 0.0
C1250 C 0.3167 0.38698 0.81752 0.0
C1251 C 0.37623 0.33268 0.83037 0.0
C1252 C 0.40417 0.34683 0.80923 0.0
C1253 C 0.38538 0.34954 0.82025 0.0
C1254 C 0.40435 0.31028 0.81755 0.0
C1255 C 0.41411 0.32722 0.80815 0.0
C1256 C 0.38564 0.313 0.82857 0.0
C1257 C 0.2961 0.34072 0.8956 0.0
C1258 C 0.31183 0.31733 0.92076 0.0
C1259 C 0.27548 0.32728 0.92424 0.0
C1260 C 0.27712 0.33942 0.90635 0.0
C1261 C 0.29285 0.3162 0.9318 0.0
C1262 C 0.31343 0.32948 0.9028 0.0
C1263 C 0.2975 0.35403 0.87709 0.0
O1264 O 0.32813 0.39013 0.83372 0.0
O1265 O 0.31096 0.36774 0.81593 0.0
O1266 O 0.29587 0.34464 0.85931 0.0
O1267 O 0.31229 0.3676 0.87702 0.0
H1268 H 0.29782 0.41566 0.84353 0.0
H1269 H 0.27492 0.44461 0.83368 0.0
H1270 H 0.27668 0.42335 0.77057 0.0
H1271 H 0.30017 0.39486 0.78039 0.0
H1272 H 0.41133 0.36022 0.8023 0.0
H1273 H 0.37832 0.36487 0.82135 0.0
H1274 H 0.41138 0.29491 0.81672 0.0
H1275 H 0.37877 0.29978 0.83615 0.0
H1276 H 0.32555 0.30915 0.9262 0.0
H1277 H 0.26054 0.32648 0.93208 0.0
H1278 H 0.26354 0.34789 0.90094 0.0
H1279 H 0.32823 0.33026 0.89465 0.0
H1280 H 0.21518 0.13396 0.02343 0.0
H1281 H 0.31595 0.31066 0.14263 0.0
H1282 H 0.28055 0.21385 0.98286 0.0
H1283 H 0.26132 0.20022 0.95408 0.0
H1284 H 0.22227 0.25556 0.95395 0.0
H1285 H 0.24103 0.26859 0.98333 0.0
H1286 H 0.27853 0.19649 0.02915 0.0
H1287 H 0.25673 0.16619 0.028 0.0
H1288 H 0.20374 0.20588 0.0142 0.0
H1289 H 0.22566 0.23606 0.01567 0.0
H1290 H 0.29929 0.21819 0.06698 0.0
H1291 H 0.28969 0.20209 0.10005 0.0
H1292 H 0.22696 0.22619 0.09381 0.0
H1293 H 0.23697 0.24286 0.06123 0.0
H1294 H 0.32571 0.25214 0.05845 0.0
H1295 H 0.34062 0.26586 0.08979 0.0
H1296 H 0.28212 0.297 0.10455 0.0
H1297 H 0.26745 0.28321 0.07309 0.0
H1298 H 0.33306 0.27671 0.02297 0.0
H1299 H 0.3523 0.30361 0.04012 0.0
H1300 H 0.29474 0.33713 0.0529 0.0
H1301 H 0.27579 0.31023 0.03594 0.0
H1302 H 0.30663 0.25728 0.97196 0.0
H1303 H 0.31047 0.27796 0.94028 0.0
H1304 H 0.27111 0.32604 0.96733 0.0
H1305 H 0.26678 0.30495 0.99847 0.0
O1306 O 0.22352 0.14615 0.0238 0.0
O1307 O 0.19683 0.1672 0.01649 0.0
O1308 O 0.33986 0.28789 0.12237 0.0
O1309 O 0.31023 0.30447 0.1305 0.0
C1310 C 0.27126 0.24855 1.00512 0.0
C1311 C 0.26699 0.23679 0.02325 0.0
C1312 C 0.27491 0.24276 0.0424 0.0
C1313 C 0.28732 0.26026 0.04342 0.0
C1314 C 0.29122 0.27239 0.02554 0.0
C1315 C 0.28315 0.26663 1.00632 0.0
C1316 C 0.2622 0.24221 0.98524 0.0
C1317 C 0.26805 0.22316 0.97637 0.0
C1318 C 0.25705 0.21542 0.95987 0.0
C1319 C 0.24004 0.22666 0.95179 0.0
C1320 C 0.23499 0.24628 0.96003 0.0
C1321 C 0.24591 0.25393 0.97663 0.0
C1322 C 0.2537 0.21844 0.02238 0.0
C1323 C 0.2622 0.19859 0.02591 0.0
C1324 C 0.24972 0.18132 0.02521 0.0
C1325 C 0.22849 0.1836 0.02097 0.0
C1326 C 0.22003 0.20356 0.01747 0.0
C1327 C 0.23252 0.22082 0.01823 0.0
C1328 C 0.26884 0.23173 0.06175 0.0
C1329 C 0.28349 0.21995 0.0728 0.0
C1330 C 0.27792 0.21064 0.09161 0.0
C1331 C 0.25756 0.2129 0.09968 0.0
C1332 C 0.24285 0.22441 0.08827 0.0
C1333 C 0.24847 0.23378 0.06954 0.0
C1334 C 0.29554 0.26671 0.06356 0.0
C1335 C 0.31609 0.26173 0.06862 0.0
C1336 C 0.32458 0.26965 0.08648 0.0
C1337 C 0.31259 0.28264 0.09962 0.0
C1338 C 0.29179 0.28711 0.09474 0.0
C1339 C 0.28333 0.27917 0.07687 0.0
C1340 C 0.30303 0.2916 0.02798 0.0
C1341 C 0.32475 0.29038 0.02856 0.0
C1342 C 0.33567 0.30558 0.03869 0.0
C1343 C 0.32502 0.32237 0.04815 0.0
C1344 C 0.30346 0.32453 0.04567 0.0
C1345 C 0.29258 0.30925 0.03575 0.0
C1346 C 0.28661 0.27969 0.98763 0.0
C1347 C 0.29896 0.27234 0.97104 0.0
C1348 C 0.3012 0.28423 0.95299 0.0
C1349 C 0.29108 0.30369 0.9512 0.0
C1350 C 0.27892 0.31104 0.96802 0.0
C1351 C 0.27665 0.29913 0.98598 0.0
C1352 C 0.21526 0.16522 0.02026 0.0
C1353 C 0.32178 0.29174 0.11818 0.0
H1354 H 0.88789 0.20344 0.98885 0.0
H1355 H 0.74274 0.29137 0.15844 0.0
H1356 H 0.81237 0.28655 0.97886 0.0
H1357 H 0.82177 0.27302 0.94474 0.0
H1358 H 0.76503 0.23904 0.94458 0.0
H1359 H 0.7559 0.25255 0.97899 0.0
H1360 H 0.8339 0.27157 0.01813 0.0
H1361 H 0.86125 0.24686 1.00717 0.0
H1362 H 0.81474 0.20222 0.99397 0.0
H1363 H 0.78758 0.22701 1.00517 0.0
H1364 H 0.81651 0.2947 0.05955 0.0
H1365 H 0.83946 0.28436 0.08743 0.0
H1366 H 0.81952 0.22136 0.08236 0.0
H1367 H 0.79578 0.23221 0.05499 0.0
H1368 H 0.7798 0.32031 0.06598 0.0
H1369 H 0.77166 0.32841 0.10212 0.0
H1370 H 0.74907 0.26666 0.11145 0.0
H1371 H 0.75693 0.2589 0.07514 0.0
H1372 H 0.75756 0.33612 0.03097 0.0
H1373 H 0.73574 0.35694 0.05463 0.0
H1374 H 0.70193 0.30251 0.07197 0.0
H1375 H 0.72331 0.28212 0.04785 0.0
H1376 H 0.78422 0.31928 0.98717 0.0
H1377 H 0.77079 0.34241 0.96051 0.0
H1378 H 0.70989 0.31718 0.96949 0.0
H1379 H 0.72379 0.29347 0.99606 0.0
O1380 O 0.87685 0.21292 0.99326 0.0
O1381 O 0.85232 0.19052 0.98674 0.0
O1382 O 0.75743 0.32029 0.13831 0.0
O1383 O 0.74626 0.28852 0.14413 0.0
C1384 C 0.77969 0.27582 1.00349 0.0
C1385 C 0.7922 0.26617 0.0187 0.0
C1386 C 0.78926 0.2714 0.03966 0.0
C1387 C 0.77254 0.28463 0.04565 0.0
C1388 C 0.75965 0.29396 0.03055 0.0
C1389 C 0.76409 0.29059 1.00936 0.0
C1390 C 0.78345 0.27056 0.98139 0.0
C1391 C 0.80177 0.27653 0.97127 0.0
C1392 C 0.80709 0.26878 0.95174 0.0
C1393 C 0.79419 0.25485 0.94193 0.0
C1394 C 0.7754 0.24955 0.9518 0.0
C1395 C 0.77005 0.25742 0.97133 0.0
C1396 C 0.8088 0.25102 0.01251 0.0
C1397 C 0.82969 0.25639 0.01301 0.0
C1398 C 0.84526 0.24227 1.00668 0.0
C1399 C 0.84018 0.22256 0.99969 0.0
C1400 C 0.81919 0.21726 0.99927 0.0
C1401 C 0.80365 0.23137 1.00565 0.0
C1402 C 0.80438 0.26425 0.05536 0.0
C1403 C 0.81715 0.27865 0.06444 0.0
C1404 C 0.83043 0.27264 0.08025 0.0
C1405 C 0.83139 0.252 0.0872 0.0
C1406 C 0.81897 0.23744 0.07761 0.0
C1407 C 0.80553 0.24354 0.06185 0.0
C1408 C 0.76874 0.2891 0.06792 0.0
C1409 C 0.77304 0.30858 0.07585 0.0
C1410 C 0.76842 0.31315 0.0965 0.0
C1411 C 0.75962 0.2982 0.10966 0.0
C1412 C 0.75576 0.27854 0.10173 0.0
C1413 C 0.7603 0.27404 0.08103 0.0
C1414 C 0.74209 0.30759 0.03774 0.0
C1415 C 0.74473 0.32896 0.03906 0.0
C1416 C 0.73248 0.34073 0.05291 0.0
C1417 C 0.71744 0.33129 0.06566 0.0
C1418 C 0.7133 0.31035 0.06245 0.0
C1419 C 0.72546 0.29865 0.04853 0.0
C1420 C 0.75503 0.3046 0.99347 0.0
C1421 C 0.76797 0.31868 0.98337 0.0
C1422 C 0.7602 0.33206 0.96826 0.0
C1423 C 0.7392 0.3318 0.96294 0.0
C1424 C 0.72616 0.31768 0.97315 0.0
C1425 C 0.73402 0.30422 0.98837 0.0
C1426 C 0.85674 0.20765 0.99283 0.0
C1427 C 0.75442 0.30308 0.13154 0.0
H1428 H 0.67422 0.68225 0.07252 0.0
H1429 H 0.77829 0.77292 0.88196 0.0
H1430 H 0.72975 0.77569 0.06694 0.0
H1431 H 0.72552 0.76304 0.10237 0.0
H1432 H 0.78963 0.74185 0.10162 0.0
H1433 H 0.79345 0.75395 0.06584 0.0
H1434 H 0.70978 0.7539 0.03068 0.0
H1435 H 0.6893 0.72655 0.04667 0.0
H1436 H 0.74586 0.69313 0.06223 0.0
H1437 H 0.76614 0.72047 0.04597 0.0
H1438 H 0.71849 0.77207 0.98529 0.0
H1439 H 0.69815 0.75239 0.96136 0.0
H1440 H 0.73636 0.69798 0.9738 0.0
H1441 H 0.75715 0.71815 0.9972 0.0
H1442 H 0.74783 0.80656 0.97519 0.0
H1443 H 0.74937 0.81148 0.93769 0.0
H1444 H 0.78432 0.75382 0.93161 0.0
H1445 H 0.78296 0.74928 0.96916 0.0
H1446 H 0.76767 0.82918 1.01041 0.0
H1447 H 0.78157 0.8546 0.98599 0.0
H1448 H 0.82504 0.80826 0.96221 0.0
H1449 H 0.81156 0.7833 0.9872 0.0
H1450 H 0.75689 0.81331 0.05812 0.0
H1451 H 0.77348 0.83419 0.08391 0.0
H1452 H 0.83351 0.81022 0.0633 0.0
H1453 H 0.81657 0.78888 0.03779 0.0
O1454 O 0.68261 0.69277 0.06608 0.0
O1455 O 0.71214 0.67622 0.07374 0.0
O1456 O 0.75987 0.80113 0.90084 0.0
O1457 O 0.77754 0.77142 0.89685 0.0
C1458 C 0.76295 0.76913 0.04097 0.0
C1459 C 0.75183 0.75605 0.02801 0.0
C1460 C 0.75234 0.75917 1.00644 0.0
C1461 C 0.76468 0.77479 0.99769 0.0
C1462 C 0.77618 0.78773 1.01051 0.0
C1463 C 0.77495 0.78519 0.03226 0.0
C1464 C 0.76186 0.76561 0.06374 0.0
C1465 C 0.74299 0.76869 0.07459 0.0
C1466 C 0.74064 0.7615 0.0949 0.0
C1467 C 0.75717 0.75117 0.10483 0.0
C1468 C 0.77646 0.74936 0.09433 0.0
C1469 C 0.77877 0.7565 0.07396 0.0
C1470 C 0.73942 0.73912 0.03714 0.0
C1471 C 0.7177 0.74057 0.03741 0.0
C1472 C 0.70605 0.72497 0.04662 0.0
C1473 C 0.71594 0.70766 0.05576 0.0
C1474 C 0.73775 0.70624 0.05534 0.0
C1475 C 0.74936 0.72182 0.04607 0.0
C1476 C 0.73935 0.74658 0.9929 0.0
C1477 C 0.72243 0.75589 0.98286 0.0
C1478 C 0.71071 0.74454 0.96933 0.0
C1479 C 0.71556 0.72354 0.96564 0.0
C1480 C 0.73233 0.71415 0.97608 0.0
C1481 C 0.74413 0.72558 0.98957 0.0
C1482 C 0.76541 0.77764 0.97487 0.0
C1483 C 0.75592 0.79508 0.96573 0.0
C1484 C 0.75677 0.79781 0.94431 0.0
C1485 C 0.76699 0.78303 0.93165 0.0
C1486 C 0.77635 0.7655 0.9409 0.0
C1487 C 0.77557 0.76284 0.96233 0.0
C1488 C 0.78856 0.80436 1.0006 0.0
C1489 C 0.78077 0.82479 1.00052 0.0
C1490 C 0.78851 0.83919 0.98626 0.0
C1491 C 0.80413 0.83339 0.97174 0.0
C1492 C 0.81309 0.81337 0.97313 0.0
C1493 C 0.80544 0.79905 0.98748 0.0
C1494 C 0.78551 0.79955 0.0461 0.0
C1495 C 0.77365 0.81275 0.05902 0.0
C1496 C 0.7832 0.82476 0.07369 0.0
C1497 C 0.80487 0.8239 0.07574 0.0
C1498 C 0.81678 0.81108 0.06231 0.0
C1499 C 0.80717 0.79904 0.0476 0.0
C1500 C 0.70353 0.69123 0.06574 0.0
C1501 C 0.76787 0.78582 0.90887 0.0
H1502 H 0.39183 0.69802 0.9842 0.0
H1503 H 0.26605 0.7947 0.16239 0.0
H1504 H 0.32879 0.78569 0.97777 0.0
H1505 H 0.33041 0.76879 0.94412 0.0
H1506 H 0.26505 0.7563 0.94981 0.0
H1507 H 0.26388 0.77227 0.98383 0.0
H1508 H 0.34926 0.77065 0.01979 0.0
H1509 H 0.37236 0.74299 1.00662 0.0
H1510 H 0.31907 0.70858 0.98903 0.0
H1511 H 0.29613 0.73627 1.0025 0.0
H1512 H 0.33843 0.78383 0.06485 0.0
H1513 H 0.35525 0.76056 0.08984 0.0
H1514 H 0.31164 0.71335 0.07575 0.0
H1515 H 0.29543 0.73651 0.05049 0.0
H1516 H 0.30792 0.82241 0.07153 0.0
H1517 H 0.30264 0.82857 0.10853 0.0
H1518 H 0.26486 0.77447 0.11315 0.0
H1519 H 0.27003 0.7687 0.07606 0.0
H1520 H 0.28549 0.84595 0.04165 0.0
H1521 H 0.2648 0.8669 0.06623 0.0
H1522 H 0.22172 0.8172 0.07335 0.0
H1523 H 0.24211 0.79683 0.04843 0.0
H1524 H 0.30472 0.82867 0.98907 0.0
H1525 H 0.29162 0.85133 0.96179 0.0
H1526 H 0.22923 0.83223 0.97605 0.0
H1527 H 0.2427 0.80907 1.00318 0.0
O1528 O 0.38238 0.70868 0.98949 0.0
O1529 O 0.35449 0.69158 0.98075 0.0
O1530 O 0.28753 0.82057 0.14442 0.0
O1531 O 0.26844 0.7926 0.14774 0.0
C1532 C 0.29621 0.78545 1.00565 0.0
C1533 C 0.30722 0.77257 0.01969 0.0
C1534 C 0.30518 0.77598 0.04111 0.0
C1535 C 0.2919 0.79199 0.04856 0.0
C1536 C 0.28076 0.80482 0.03461 0.0
C1537 C 0.28351 0.80207 0.0131 0.0
C1538 C 0.29629 0.77996 0.98339 0.0
C1539 C 0.31476 0.77964 0.97155 0.0
C1540 C 0.31562 0.77003 0.95227 0.0
C1541 C 0.29793 0.76082 0.94441 0.0
C1542 C 0.27908 0.76276 0.95562 0.0
C1543 C 0.2783 0.77216 0.97495 0.0
C1544 C 0.32106 0.75547 0.01202 0.0
C1545 C 0.34262 0.75707 0.01318 0.0
C1546 C 0.35578 0.74127 1.0056 0.0
C1547 C 0.34757 0.72359 0.99672 0.0
C1548 C 0.3259 0.722 0.99575 0.0
C1549 C 0.31276 0.73779 1.0034 0.0
C1550 C 0.31578 0.7618 0.05587 0.0
C1551 C 0.33266 0.7684 0.06713 0.0
C1552 C 0.34214 0.75512 0.08146 0.0
C1553 C 0.33482 0.73504 0.08483 0.0
C1554 C 0.31795 0.72853 0.07332 0.0
C1555 C 0.30857 0.74177 0.05896 0.0
C1556 C 0.28933 0.79515 0.07117 0.0
C1557 C 0.29852 0.81192 0.08059 0.0
C1558 C 0.29548 0.81539 0.10171 0.0
C1559 C 0.2833 0.80201 0.1138 0.0
C1560 C 0.27431 0.78507 0.1043 0.0
C1561 C 0.27729 0.78169 0.08315 0.0
C1562 C 0.26526 0.81991 0.04323 0.0
C1563 C 0.27106 0.84004 0.04781 0.0
C1564 C 0.25939 0.85182 0.06213 0.0
C1565 C 0.2418 0.84359 0.07212 0.0
C1566 C 0.23504 0.82415 0.06593 0.0
C1567 C 0.24665 0.81247 0.05159 0.0
C1568 C 0.27467 0.81729 0.99818 0.0
C1569 C 0.28818 0.82957 0.98649 0.0
C1570 C 0.28063 0.84261 0.97095 0.0
C1571 C 0.25933 0.84369 0.96672 0.0
C1572 C 0.24573 0.83165 0.97879 0.0
C1573 C 0.25334 0.81858 0.99443 0.0
C1574 C 0.36161 0.70695 0.9885 0.0
C1575 C 0.27994 0.80569 0.13623 0.0
H1576 H 0.02611 0.20774 0.17319 0.0
H1577 H 0.16245 0.3193 0.32641 0.0
H1578 H 0.99647 0.29312 0.24021 0.0
H1579 H 0.96668 0.27493 0.22757 0.0
H1580 H 0.96023 0.24401 0.28671 0.0
H1581 H 0.99065 0.2617 0.29889 0.0
H1582 H 0.04125 0.28 0.22385 0.0
H1583 H 0.03682 0.25338 0.19781 0.0
H1584 H 0.01703 0.21089 0.24573 0.0
H1585 H 0.02184 0.23753 0.27163 0.0
H1586 H 0.08109 0.30128 0.24274 0.0
H1587 H 0.11201 0.28563 0.2261 0.0
H1588 H 0.09972 0.22778 0.25731 0.0
H1589 H 0.06929 0.24384 0.27443 0.0
H1590 H 0.07452 0.3349 0.27538 0.0
H1591 H 0.10803 0.34734 0.28623 0.0
H1592 H 0.11988 0.2893 0.31799 0.0
H1593 H 0.08616 0.27719 0.30728 0.0
H1594 H 0.03602 0.34841 0.29451 0.0
H1595 H 0.05293 0.37235 0.31755 0.0
H1596 H 0.06884 0.32124 0.35813 0.0
H1597 H 0.05187 0.29768 0.3352 0.0
H1598 H 0.98697 0.32538 0.28011 0.0
H1599 H 0.95727 0.33756 0.30138 0.0
H1600 H 0.98199 0.30391 0.35375 0.0
H1601 H 0.01099 0.29126 0.33221 0.0
O1602 O 0.02785 0.21802 0.18375 0.0
O1603 O 0.01758 0.19686 0.20896 0.0
O1604 O 0.14217 0.34439 0.3055 0.0
O1605 O 0.14927 0.31464 0.32163 0.0
C1606 C 0.01669 0.28557 0.27594 0.0
C1607 C 0.03432 0.27694 0.26537 0.0
C1608 C 0.05439 0.28331 0.27016 0.0
C1609 C 0.05686 0.29838 0.28541 0.0
C1610 C 0.03937 0.30646 0.29648 0.0
C1611 C 0.01925 0.29998 0.29193 0.0
C1612 C 0.99579 0.27864 0.27042 0.0
C1613 C 0.98828 0.28281 0.25059 0.0
C1614 C 0.97121 0.2724 0.24341 0.0
C1615 C 0.96123 0.25775 0.25602 0.0
C1616 C 0.96784 0.25486 0.27646 0.0
C1617 C 0.98502 0.26518 0.28358 0.0
C1618 C 0.03179 0.26071 0.24959 0.0
C1619 C 0.03604 0.2649 0.22868 0.0
C1620 C 0.03345 0.24969 0.21384 0.0
C1621 C 0.02653 0.23002 0.21968 0.0
C1622 C 0.02235 0.22588 0.2407 0.0
C1623 C 0.02503 0.24108 0.25552 0.0
C1624 C 0.07294 0.27368 0.25974 0.0
C1625 C 0.08516 0.28525 0.24601 0.0
C1626 C 0.10272 0.27623 0.23642 0.0
C1627 C 0.10835 0.25541 0.24033 0.0
C1628 C 0.09601 0.2439 0.25414 0.0
C1629 C 0.07851 0.25297 0.26378 0.0
C1630 C 0.07794 0.30517 0.29058 0.0
C1631 C 0.08443 0.32487 0.2846 0.0
C1632 C 0.10356 0.33194 0.29084 0.0
C1633 C 0.11662 0.31933 0.30304 0.0
C1634 C 0.1102 0.29942 0.30863 0.0
C1635 C 0.09101 0.29241 0.30246 0.0
C1636 C 0.04279 0.32136 0.31322 0.0
C1637 C 0.04233 0.34261 0.30888 0.0
C1638 C 0.05219 0.35619 0.32192 0.0
C1639 C 0.06247 0.34864 0.3395 0.0
C1640 C 0.06094 0.32762 0.34484 0.0
C1641 C 0.0512 0.31409 0.33177 0.0
C1642 C 1.00118 0.3075 0.30463 0.0
C1643 C 0.98586 0.32061 0.29616 0.0
C1644 C 0.969 0.32767 0.30839 0.0
C1645 C 0.96719 0.32173 0.32932 0.0
C1646 C 0.98266 0.30859 0.33766 0.0
C1647 C 0.99939 0.30149 0.32542 0.0
C1648 C 0.02369 0.21392 0.20388 0.0
C1649 C 0.13677 0.32694 0.31007 0.0
H1650 H 0.8841 0.99804 0.16536 0.0
H1651 H 0.78399 0.1625 0.3092 0.0
H1652 H 0.78834 0.99121 0.22763 0.0
H1653 H 0.8041 0.95922 0.21424 0.0
H1654 H 0.83468 0.94899 0.27235 0.0
H1655 H 0.81922 0.98146 0.28537 0.0
H1656 H 0.81009 0.02843 0.2105 0.0
H1657 H 0.83795 0.01755 0.18642 0.0
H1658 H 0.87572 0.99873 0.23803 0.0
H1659 H 0.84784 1.00992 0.26191 0.0
H1660 H 0.78937 0.06785 0.22406 0.0
H1661 H 0.80415 0.09663 0.20473 0.0
H1662 H 0.85941 0.09151 0.24127 0.0
H1663 H 0.84416 0.06276 0.26086 0.0
H1664 H 0.75957 0.07823 0.2572 0.0
H1665 H 0.75221 0.11436 0.26631 0.0
H1666 H 0.80614 0.1134 0.30489 0.0
H1667 H 0.81316 0.0772 0.29582 0.0
H1668 H 0.73811 0.04479 0.27602 0.0
H1669 H 0.71581 0.06897 0.29584 0.0
H1670 H 0.76326 0.07286 0.34165 0.0
H1671 H 0.78522 0.04866 0.32185 0.0
H1672 H 0.75506 0.99158 0.26008 0.0
H1673 H 0.73347 0.96565 0.27686 0.0
H1674 H 0.75959 0.98022 0.33574 0.0
H1675 H 0.78169 1.00566 0.31862 0.0
O1676 O 0.87336 1.00241 0.17513 0.0
O1677 O 0.89207 0.99287 0.20222 0.0
O1678 O 0.75882 0.14782 0.28551 0.0
O1679 O 0.78666 0.14829 0.30516 0.0
C1680 C 0.79825 0.01066 0.26285 0.0
C1681 C 0.80992 0.02603 0.25254 0.0
C1682 C 0.80561 0.04707 0.25638 0.0
C1683 C 0.79058 0.05288 0.2714 0.0
C1684 C 0.77922 0.03767 0.28222 0.0
C1685 C 0.78279 0.01646 0.27776 0.0
C1686 C 0.80263 0.98867 0.25747 0.0
C1687 C 0.79788 0.98169 0.23771 0.0
C1688 C 0.80697 0.96339 0.23006 0.0
C1689 C 0.82095 0.95165 0.24208 0.0
C1690 C 0.82432 0.95787 0.26252 0.0
C1691 C 0.81524 0.97624 0.27014 0.0
C1692 C 0.827 0.02 0.23791 0.0
C1693 C 0.82446 0.02212 0.21654 0.0
C1694 C 0.84037 0.01581 0.20285 0.0
C1695 C 0.85906 1.00725 0.2103 0.0
C1696 C 0.86154 1.00526 0.23177 0.0
C1697 C 0.84565 0.01163 0.24543 0.0
C1698 C 0.81574 0.06327 0.24377 0.0
C1699 C 0.80476 0.07282 0.22772 0.0
C1700 C 0.8133 0.08917 0.21663 0.0
C1701 C 0.833 0.09632 0.22141 0.0
C1702 C 0.84414 0.08644 0.23733 0.0
C1703 C 0.83556 0.06998 0.24842 0.0
C1704 C 0.7868 0.07513 0.27597 0.0
C1705 C 0.76978 0.08589 0.26758 0.0
C1706 C 0.76562 0.1065 0.27282 0.0
C1707 C 0.77855 0.11675 0.2864 0.0
C1708 C 0.79584 0.10597 0.29444 0.0
C1709 C 0.79993 0.08533 0.28925 0.0
C1710 C 0.76324 0.04486 0.29755 0.0
C1711 C 0.74321 0.05005 0.29086 0.0
C1712 C 0.73066 0.06418 0.30202 0.0
C1713 C 0.7379 0.07315 0.32014 0.0
C1714 C 0.75711 0.0662 0.32785 0.0
C1715 C 0.76966 0.05219 0.31663 0.0
C1716 C 0.76995 1.00053 0.2881 0.0
C1717 C 0.75623 0.98906 0.27658 0.0
C1718 C 0.74375 0.97438 0.28625 0.0
C1719 C 0.74466 0.9709 0.30771 0.0
C1720 C 0.7586 0.98234 0.31919 0.0
C1721 C 0.77112 0.99701 0.30946 0.0
C1722 C 0.87587 1.00039 0.19572 0.0
C1723 C 0.77402 0.13855 0.29226 0.0
H1724 H 0.06452 0.65815 0.34274 0.0
H1725 H 0.8879 0.74428 0.21411 0.0
H1726 H 0.06329 0.75387 0.28558 0.0
H1727 H 0.0989 0.74347 0.29351 0.0
H1728 H 0.10881 0.72377 0.23036 0.0
H1729 H 0.07278 0.73339 0.22288 0.0
H1730 H 0.02556 0.73018 0.30263 0.0
H1731 H 0.03953 0.70254 0.32479 0.0
H1732 H 0.06509 0.67136 0.27084 0.0
H1733 H 0.05083 0.69896 0.24887 0.0
H1734 H 0.98018 0.74687 0.28864 0.0
H1735 H 0.95404 0.72569 0.3057 0.0
H1736 H 0.97606 0.67284 0.27035 0.0
H1737 H 1.00165 0.69447 0.25279 0.0
H1738 H 0.97224 0.78078 0.25757 0.0
H1739 H 0.93516 0.78413 0.25058 0.0
H1740 H 0.93914 0.72733 0.21587 0.0
H1741 H 0.97627 0.72438 0.22268 0.0
H1742 H 1.00509 0.80484 0.23928 0.0
H1743 H 0.98027 0.82649 0.22002 0.0
H1744 H 0.97477 0.77759 0.1756 0.0
H1745 H 0.99972 0.75639 0.1947 0.0
H1746 H 0.05991 0.79089 0.25231 0.0
H1747 H 0.08675 0.81039 0.23423 0.0
H1748 H 0.06901 0.78367 0.17645 0.0
H1749 H 0.04289 0.76352 0.19487 0.0
O1750 O 0.05905 0.66885 0.33371 0.0
O1751 O 0.07194 0.65351 0.30548 0.0
O1752 O 0.9014 0.77269 0.23475 0.0
O1753 O 0.90252 0.74334 0.21713 0.0
C1754 C 0.04272 0.74684 0.25021 0.0
C1755 C 0.02895 0.73344 0.26072 0.0
C1756 C 1.00739 0.73569 0.25797 0.0
C1757 C 0.99959 0.75078 0.24413 0.0
C1758 C 0.01327 0.76384 0.23313 0.0
C1759 C 0.03489 0.76208 0.23632 0.0
C1760 C 0.06538 0.74427 0.2537 0.0
C1761 C 0.07328 0.74762 0.27338 0.0
C1762 C 0.0937 0.74173 0.27785 0.0
C1763 C 0.10673 0.73254 0.26264 0.0
C1764 C 0.0991 0.7304 0.24256 0.0
C1765 C 0.0786 0.73615 0.23816 0.0
C1766 C 0.03721 0.71656 0.27418 0.0
C1767 C 0.0341 0.71731 0.29565 0.0
C1768 C 0.04214 0.70153 0.30826 0.0
C1769 C 0.05345 0.68475 0.29959 0.0
C1770 C 0.05647 0.68406 0.27802 0.0
C1771 C 0.04837 0.69981 0.26545 0.0
C1772 C 0.99277 0.72222 0.26947 0.0
C1773 C 0.9794 0.73069 0.28468 0.0
C1774 C 0.96458 0.7185 0.29452 0.0
C1775 C 0.96291 0.69753 0.28941 0.0
C1776 C 0.97672 0.68898 0.27447 0.0
C1777 C 0.99148 0.70124 0.26456 0.0
C1778 C 0.97692 0.75241 0.24053 0.0
C1779 C 0.96506 0.76912 0.24841 0.0
C1780 C 0.9439 0.77097 0.24443 0.0
C1781 C 0.93419 0.756 0.23263 0.0
C1782 C 0.94612 0.73913 0.22498 0.0
C1783 C 0.96731 0.73738 0.22889 0.0
C1784 C 1.00427 0.77909 0.21833 0.0
C1785 C 0.9992 0.79923 0.22488 0.0
C1786 C 0.98475 0.81141 0.21404 0.0
C1787 C 0.97525 0.80366 0.19644 0.0
C1788 C 0.98184 0.78416 0.18896 0.0
C1789 C 0.99622 0.77202 0.19981 0.0
C1790 C 0.04942 0.77576 0.22494 0.0
C1791 C 0.06173 0.78939 0.23572 0.0
C1792 C 0.07699 0.80063 0.22531 0.0
C1793 C 0.08017 0.79857 0.20384 0.0
C1794 C 0.06726 0.78541 0.19301 0.0
C1795 C 0.05211 0.77407 0.20347 0.0
C1796 C 0.06206 0.66807 0.31302 0.0
C1797 C 0.91172 0.75792 0.22829 0.0
H1798 H 0.17727 0.03784 0.19278 0.0
H1799 H 0.27162 0.87318 0.33045 0.0
H1800 H 0.26752 0.04796 0.25717 0.0
H1801 H 0.25559 0.08214 0.24565 0.0
H1802 H 0.22594 0.09242 0.30531 0.0
H1803 H 0.23733 0.05771 0.31638 0.0
H1804 H 0.24812 1.00823 0.24069 0.0
H1805 H 0.22181 0.01849 0.21564 0.0
H1806 H 0.18244 0.04222 0.26532 0.0
H1807 H 0.20876 0.03163 0.29022 0.0
H1808 H 0.26542 0.96494 0.25722 0.0
H1809 H 0.24633 0.93912 0.23849 0.0
H1810 H 0.19008 0.95795 0.27141 0.0
H1811 H 0.20951 0.98314 0.29059 0.0
H1812 H 0.30037 0.96331 0.28964 0.0
H1813 H 0.30798 0.92672 0.29676 0.0
H1814 H 0.24818 0.92178 0.32755 0.0
H1815 H 0.24091 0.95844 0.32059 0.0
H1816 H 0.31789 1.00659 0.3057 0.0
H1817 H 0.34611 0.98793 0.32299 0.0
H1818 H 0.30156 0.96002 0.3647 0.0
H1819 H 0.27365 0.9796 0.34798 0.0
H1820 H 0.29827 0.05258 0.29443 0.0
H1821 H 0.31027 0.08184 0.31416 0.0
H1822 H 0.28067 0.05717 0.36921 0.0
H1823 H 0.26801 0.02849 0.34912 0.0
O1824 O 0.18744 0.03387 0.20295 0.0
O1825 O 0.16787 0.04599 0.22903 0.0
O1826 O 0.29966 0.89105 0.31157 0.0
O1827 O 0.26902 0.88767 0.32741 0.0
C1828 C 0.25735 0.02821 0.29287 0.0
C1829 C 0.24635 0.01296 0.28243 0.0
C1830 C 0.25045 0.99181 0.28644 0.0
C1831 C 0.26572 0.98585 0.30079 0.0
C1832 C 0.27662 1.00106 0.31154 0.0
C1833 C 0.27219 0.02233 0.30781 0.0
C1834 C 0.25321 0.05032 0.28757 0.0
C1835 C 0.25874 0.05775 0.26786 0.0
C1836 C 0.25197 0.07735 0.26134 0.0
C1837 C 0.23964 0.09003 0.27448 0.0
C1838 C 0.23509 0.08293 0.29466 0.0
C1839 C 0.24178 0.06322 0.30113 0.0
C1840 C 0.23033 0.01919 0.26724 0.0
C1841 C 0.23376 0.01557 0.24612 0.0
C1842 C 0.21873 0.02149 0.23185 0.0
C1843 C 0.20002 0.03119 0.23847 0.0
C1844 C 0.19667 0.0348 0.2597 0.0
C1845 C 0.21169 0.02881 0.27394 0.0
C1846 C 0.23888 0.97587 0.27532 0.0
C1847 C 0.24901 0.96333 0.26049 0.0
C1848 C 0.23802 0.94874 0.24966 0.0
C1849 C 0.21663 0.94647 0.25338 0.0
C1850 C 0.20657 0.95907 0.26832 0.0
C1851 C 0.2176 0.97357 0.27921 0.0
C1852 C 0.27013 0.96351 0.30466 0.0
C1853 C 0.28897 0.95429 0.29795 0.0
C1854 C 0.29325 0.93339 0.30202 0.0
C1855 C 0.27868 0.92132 0.31275 0.0
C1856 C 0.25974 0.93061 0.31927 0.0
C1857 C 0.25552 0.95153 0.31528 0.0
C1858 C 0.29367 0.99432 0.32542 0.0
C1859 C 0.31432 0.99706 0.31908 0.0
C1860 C 0.33041 0.98608 0.32878 0.0
C1861 C 0.32613 0.97201 0.34493 0.0
C1862 C 0.30554 0.9707 0.35238 0.0
C1863 C 0.2895 0.98187 0.34281 0.0
C1864 C 0.2821 0.03845 0.32027 0.0
C1865 C 0.29452 0.05343 0.31079 0.0
C1866 C 0.30147 0.0701 0.32215 0.0
C1867 C 0.29628 0.07205 0.3433 0.0
C1868 C 0.28462 0.05645 0.3529 0.0
C1869 C 0.27758 0.03987 0.34149 0.0
C1870 C 0.1841 0.03749 0.22328 0.0
C1871 C 0.28316 0.89912 0.31716 0.0
H1872 H 0.01717 0.8954 0.8949 0.0
H1873 H 0.16247 0.80467 0.73159 0.0
H1874 H 0.99737 0.80552 0.82561 0.0
H1875 H 0.9643 0.8141 0.84272 0.0
H1876 H 0.94703 0.85255 0.79061 0.0
H1877 H 0.98064 0.84408 0.7737 0.0
H1878 H 0.03656 0.82522 0.84086 0.0
H1879 H 0.03039 0.85072 0.86815 0.0
H1880 H 1.00659 0.89432 0.82293 0.0
H1881 H 0.01307 0.86876 0.79579 0.0
H1882 H 0.07454 0.80256 0.81895 0.0
H1883 H 0.10426 0.81383 0.83825 0.0
H1884 H 0.09484 0.87589 0.81442 0.0
H1885 H 0.06523 0.86425 0.79472 0.0
H1886 H 0.07617 0.77593 0.7813 0.0
H1887 H 0.11135 0.76764 0.76854 0.0
H1888 H 0.11586 0.82971 0.74389 0.0
H1889 H 0.08053 0.83767 0.75646 0.0
H1890 H 0.03673 0.76143 0.76519 0.0
H1891 H 0.05547 0.73891 0.74051 0.0
H1892 H 0.07 0.79232 0.70294 0.0
H1893 H 0.05087 0.81446 0.72736 0.0
H1894 H 0.98965 0.77888 0.78705 0.0
H1895 H 0.96023 0.76463 0.76916 0.0
H1896 H 0.97576 0.80102 0.71501 0.0
H1897 H 1.0046 0.8157 0.7333 0.0
O1898 O 0.01937 0.8855 0.88393 0.0
O1899 O 1.00697 0.90719 0.8601 0.0
O1900 O 0.14542 0.7758 0.74974 0.0
O1901 O 0.1486 0.80758 0.73694 0.0
C1902 C 0.01276 0.82075 0.78968 0.0
C1903 C 0.02948 0.82999 0.79964 0.0
C1904 C 0.0501 0.82514 0.79342 0.0
C1905 C 0.05404 0.81202 0.77646 0.0
C1906 C 0.0374 0.80348 0.76577 0.0
C1907 C 0.01669 0.80759 0.77254 0.0
C1908 C 0.9914 0.82408 0.79837 0.0
C1909 C 0.98632 0.81554 0.81773 0.0
C1910 C 0.96735 0.82044 0.82747 0.0
C1911 C 0.95292 0.83402 0.81806 0.0
C1912 C 0.95785 0.84219 0.79837 0.0
C1913 C 0.97692 0.83721 0.78859 0.0
C1914 C 0.02533 0.84519 0.81637 0.0
C1915 C 0.03007 0.8403 0.8369 0.0
C1916 C 0.02649 0.85489 0.85244 0.0
C1917 C 0.01803 0.87458 0.84772 0.0
C1918 C 0.01314 0.87932 0.82711 0.0
C1919 C 0.01678 0.86474 0.81159 0.0
C1920 C 0.06775 0.83258 0.80547 0.0
C1921 C 0.07889 0.8186 0.81792 0.0
C1922 C 0.09577 0.82511 0.82905 0.0
C1923 C 0.10187 0.8458 0.82798 0.0
C1924 C 0.09064 0.85982 0.81545 0.0
C1925 C 0.07367 0.85326 0.80432 0.0
C1926 C 0.0758 0.80734 0.76968 0.0
C1927 C 0.08479 0.78769 0.77313 0.0
C1928 C 0.10489 0.78302 0.76585 0.0
C1929 C 0.1164 0.79801 0.75514 0.0
C1930 C 0.10742 0.8178 0.75203 0.0
C1931 C 0.08728 0.82242 0.75925 0.0
C1932 C 0.04242 0.78959 0.74807 0.0
C1933 C 0.04319 0.76811 0.75115 0.0
C1934 C 0.05422 0.75532 0.7372 0.0
C1935 C 0.0646 0.76381 0.7199 0.0
C1936 C 0.06214 0.78516 0.71596 0.0
C1937 C 0.05111 0.79789 0.72989 0.0
C1938 C 0.99922 0.79841 0.76152 0.0
C1939 C 0.98661 0.78381 0.77135 0.0
C1940 C 0.96992 0.77556 0.76103 0.0
C1941 C 0.96555 0.7817 0.74063 0.0
C1942 C 0.97842 0.79617 0.7308 0.0
C1943 C 0.99504 0.80446 0.74115 0.0
C1944 C 0.01441 0.89012 0.86422 0.0
C1945 C 0.13767 0.79305 0.74716 0.0
H1946 H 0.39394 1.0095 0.64204 0.0
H1947 H 0.31144 0.16332 0.79851 0.0
H1948 H 0.30747 0.99407 0.71058 0.0
H1949 H 0.31865 0.95943 0.69944 0.0
H1950 H 0.34331 0.9471 0.76 0.0
H1951 H 0.33279 0.98204 0.77069 0.0
H1952 H 0.32439 0.03665 0.69541 0.0
H1953 H 0.35013 0.02787 0.6684 0.0
H1954 H 0.3894 0.99907 0.71432 0.0
H1955 H 0.36364 1.00816 0.74121 0.0
H1956 H 0.3068 0.07844 0.71612 0.0
H1957 H 0.32323 0.1096 0.703 0.0
H1958 H 0.38102 0.08913 0.73006 0.0
H1959 H 0.36412 0.05833 0.7438 0.0
H1960 H 0.27583 0.08015 0.75198 0.0
H1961 H 0.27073 0.11605 0.76297 0.0
H1962 H 0.33168 0.11408 0.78959 0.0
H1963 H 0.3364 0.07809 0.77882 0.0
H1964 H 0.25632 0.04292 0.76914 0.0
H1965 H 0.2345 0.06248 0.79395 0.0
H1966 H 0.28787 0.07037 0.83211 0.0
H1967 H 0.30921 0.05044 0.80757 0.0
H1968 H 0.27188 0.9945 0.74668 0.0
H1969 H 0.2502 0.96899 0.76403 0.0
H1970 H 0.28068 0.98044 0.82148 0.0
H1971 H 0.30283 1.00541 0.80375 0.0
O1972 O 0.38397 0.01282 0.65295 0.0
O1973 O 0.4035 0.99807 0.67715 0.0
O1974 O 0.28169 0.14924 0.78035 0.0
O1975 O 0.31304 0.14913 0.79399 0.0
C1976 C 0.31548 0.01272 0.74715 0.0
C1977 C 0.32656 0.02845 0.73663 0.0
C1978 C 0.32314 0.04937 0.74203 0.0
C1979 C 0.30931 0.05457 0.75843 0.0
C1980 C 0.2985 0.03898 0.76922 0.0
C1981 C 0.3013 0.01805 0.76342 0.0
C1982 C 0.31943 0.99068 0.74142 0.0
C1983 C 0.3151 0.98379 0.7215 0.0
C1984 C 0.32141 0.96392 0.71519 0.0
C1985 C 0.3321 0.95049 0.72874 0.0
C1986 C 0.33549 0.95715 0.74902 0.0
C1987 C 0.32926 0.97704 0.75526 0.0
C1988 C 0.34215 0.02302 0.72024 0.0
C1989 C 0.33859 0.02851 0.6996 0.0
C1990 C 0.3533 0.02343 0.6842 0.0
C1991 C 0.37182 0.01275 0.68919 0.0
C1992 C 0.3753 1.00728 0.70994 0.0
C1993 C 0.36061 0.01241 0.72532 0.0
C1994 C 0.33424 0.06616 0.73096 0.0
C1995 C 0.32311 0.08054 0.71889 0.0
C1996 C 0.33257 0.09831 0.71134 0.0
C1997 C 0.35344 0.10201 0.71561 0.0
C1998 C 0.36484 0.08696 0.72679 0.0
C1999 C 0.3553 0.06923 0.73444 0.0
C2000 C 0.30644 0.07654 0.76467 0.0
C2001 C 0.28801 0.0875 0.76025 0.0
C2002 C 0.28517 0.108 0.7665 0.0
C2003 C 0.30081 0.11793 0.77718 0.0
C2004 C 0.31933 0.1069 0.78142 0.0
C2005 C 0.3221 0.08637 0.77525 0.0
C2006 C 0.28433 0.04525 0.78658 0.0
C2007 C 0.26304 0.04819 0.78328 0.0
C2008 C 0.2507 0.05964 0.79733 0.0
C2009 C 0.25947 0.06831 0.8149 0.0
C2010 C 0.28048 0.06383 0.8189 0.0
C2011 C 0.29276 0.05239 0.80489 0.0
C2012 C 0.28887 1.0019 0.77395 0.0
C2013 C 0.274 0.99135 0.76296 0.0
C2014 C 0.2615 0.97691 0.77297 0.0
C2015 C 0.26353 0.97279 0.79423 0.0
C2016 C 0.27878 0.98311 0.80509 0.0
C2017 C 0.29134 0.99751 0.79503 0.0
C2018 C 0.38743 1.0074 0.67281 0.0
C2019 C 0.29786 0.1397 0.78389 0.0
H2020 H 0.98687 0.12922 0.85231 0.0
H2021 H 0.14864 0.27958 0.77635 0.0
H2022 H 0.97866 0.20129 0.76786 0.0
H2023 H 0.94389 0.18886 0.77516 0.0
H2024 H 0.92776 0.24631 0.80584 0.0
H2025 H 0.963 0.25834 0.79898 0.0
H2026 H 0.01746 0.18424 0.78707 0.0
H2027 H 1.00722 0.15657 0.81084 0.0
H2028 H 0.98035 0.20214 0.85265 0.0
H2029 H 0.99088 0.22967 0.82883 0.0
H2030 H 0.0567 0.20189 0.76953 0.0
H2031 H 0.08642 0.18266 0.78341 0.0
H2032 H 0.07446 0.2104 0.8431 0.0
H2033 H 0.04478 0.22995 0.82882 0.0
H2034 H 0.06185 0.23945 0.74172 0.0
H2035 H 0.09818 0.24821 0.73601 0.0
H2036 H 0.09949 0.2735 0.79755 0.0
H2037 H 0.06301 0.26502 0.80289 0.0
H2038 H 0.02438 0.25924 0.72328 0.0
H2039 H 0.04724 0.2808 0.70219 0.0
H2040 H 0.06006 0.3171 0.75592 0.0
H2041 H 0.03664 0.29595 0.77659 0.0
H2042 H 0.97921 0.23637 0.7366 0.0
H2043 H 0.95188 0.25251 0.71605 0.0
H2044 H 0.96003 0.31025 0.74756 0.0
H2045 H 0.98697 0.29362 0.76866 0.0
O2046 O 0.99091 0.14039 0.84321 0.0
O2047 O 0.97732 0.16444 0.86416 0.0
O2048 O 0.13257 0.26332 0.74646 0.0
O2049 O 0.13426 0.27595 0.77819 0.0
C2050 C 0.99542 0.23689 0.78071 0.0
C2051 C 0.01091 0.22572 0.79173 0.0
C2052 C 0.03197 0.23042 0.78877 0.0
C2053 C 0.03751 0.24704 0.77578 0.0
C2054 C 0.02208 0.25881 0.76531 0.0
C2055 C 1.00102 0.25333 0.76722 0.0
C2056 C 0.97342 0.23067 0.78298 0.0
C2057 C 0.96756 0.21127 0.776 0.0
C2058 C 0.9476 0.20425 0.78009 0.0
C2059 C 0.93297 0.21654 0.79117 0.0
C2060 C 0.9387 0.23631 0.79753 0.0
C2061 C 0.95875 0.24331 0.79345 0.0
C2062 C 1.00503 0.20894 0.80631 0.0
C2063 C 0.00952 0.18821 0.80146 0.0
C2064 C 1.00358 0.17244 0.81502 0.0
C2065 C 0.99297 0.17714 0.83366 0.0
C2066 C 0.98851 0.19798 0.83844 0.0
C2067 C 0.9945 0.21372 0.82488 0.0
C2068 C 0.04858 0.21726 0.79818 0.0
C2069 C 0.06035 0.20362 0.78567 0.0
C2070 C 0.07728 0.19258 0.79367 0.0
C2071 C 0.08284 0.19496 0.81439 0.0
C2072 C 0.07071 0.20836 0.82703 0.0
C2073 C 0.05367 0.21939 0.81899 0.0
C2074 C 0.0598 0.25176 0.77265 0.0
C2075 C 0.07 0.24696 0.75391 0.0
C2076 C 0.09076 0.25193 0.75071 0.0
C2077 C 0.10173 0.2616 0.76633 0.0
C2078 C 0.09149 0.26611 0.7852 0.0
C2079 C 0.07069 0.26124 0.78832 0.0
C2080 C 0.02891 0.27594 0.7515 0.0
C2081 C 0.03129 0.27249 0.73024 0.0
C2082 C 0.04469 0.28462 0.71831 0.0
C2083 C 0.05597 0.30034 0.72748 0.0
C2084 C 0.05168 0.30518 0.74829 0.0
C2085 C 0.03818 0.29314 0.76016 0.0
C2086 C 0.98505 0.26376 0.75422 0.0
C2087 C 0.97507 0.2525 0.73911 0.0
C2088 C 0.95955 0.26184 0.72723 0.0
C2089 C 0.95373 0.28275 0.73005 0.0
C2090 C 0.96393 0.29407 0.74511 0.0
C2091 C 0.97945 0.28466 0.75707 0.0
C2092 C 0.98657 0.16035 0.84798 0.0
C2093 C 0.12377 0.26697 0.76298 0.0
H2094 H 0.64425 0.04302 0.66202 0.0
H2095 H 0.74603 0.88609 0.80515 0.0
H2096 H 0.73229 0.05997 0.72535 0.0
H2097 H 0.71775 0.09378 0.71547 0.0
H2098 H 0.69132 0.10093 0.77696 0.0
H2099 H 0.70537 0.06669 0.78644 0.0
H2100 H 0.7168 0.01753 0.70955 0.0
H2101 H 0.68982 0.02614 0.68466 0.0
H2102 H 0.64994 0.04891 0.73439 0.0
H2103 H 0.67696 0.04 0.75914 0.0
H2104 H 0.73665 0.97473 0.72727 0.0
H2105 H 0.71966 0.94562 0.71158 0.0
H2106 H 0.66242 0.96304 0.74355 0.0
H2107 H 0.67988 0.99154 0.75986 0.0
H2108 H 0.77073 0.97494 0.75895 0.0
H2109 H 0.77978 0.93906 0.76786 0.0
H2110 H 0.72073 0.93362 0.80001 0.0
H2111 H 0.71207 0.96965 0.79132 0.0
H2112 H 0.78768 0.0157 0.77446 0.0
H2113 H 0.81427 0.99493 0.79206 0.0
H2114 H 0.76783 0.97335 0.83556 0.0
H2115 H 0.7416 0.99481 0.81836 0.0
H2116 H 0.76637 0.0631 0.75932 0.0
H2117 H 0.78044 0.09299 0.77654 0.0
H2118 H 0.75386 0.072 0.83458 0.0
H2119 H 0.73926 0.04257 0.81705 0.0
O2120 O 0.65468 0.0397 0.67212 0.0
O2121 O 0.63485 0.05135 0.69822 0.0
O2122 O 0.77312 0.90401 0.78492 0.0
O2123 O 0.74282 0.90031 0.80133 0.0
C2124 C 0.72567 0.03888 0.76132 0.0
C2125 C 0.71527 0.02295 0.75118 0.0
C2126 C 0.72038 1.00203 0.75542 0.0
C2127 C 0.73572 0.99699 0.76997 0.0
C2128 C 0.74604 0.01282 0.78038 0.0
C2129 C 0.74113 0.03385 0.77597 0.0
C2130 C 0.71983 0.06082 0.75659 0.0
C2131 C 0.72362 0.06899 0.73677 0.0
C2132 C 0.71535 0.08837 0.73118 0.0
C2133 C 0.70319 0.10006 0.74536 0.0
C2134 C 0.70029 0.09221 0.76554 0.0
C2135 C 0.70852 0.07276 0.77109 0.0
C2136 C 0.69884 0.02818 0.73612 0.0
C2137 C 0.7022 0.02432 0.71503 0.0
C2138 C 0.68678 0.02928 0.70085 0.0
C2139 C 0.66772 0.03823 0.70753 0.0
C2140 C 0.66443 0.04206 0.72872 0.0
C2141 C 0.67985 0.03703 0.74288 0.0
C2142 C 0.70954 0.98522 0.74477 0.0
C2143 C 0.72044 0.97224 0.73085 0.0
C2144 C 0.71063 0.9557 0.72177 0.0
C2145 C 0.68964 0.95189 0.72631 0.0
C2146 C 0.67867 0.96527 0.73993 0.0
C2147 C 0.68855 0.98171 0.74912 0.0
C2148 C 0.7408 0.9749 0.77458 0.0
C2149 C 0.7598 0.96597 0.76794 0.0
C2150 C 0.7649 0.94547 0.77303 0.0
C2151 C 0.75098 0.93347 0.78468 0.0
C2152 C 0.73182 0.94242 0.79104 0.0
C2153 C 0.7268 0.96296 0.78605 0.0
C2154 C 0.76266 1.00667 0.795 0.0
C2155 C 0.78345 1.00726 0.78837 0.0
C2156 C 0.79855 0.99505 0.79825 0.0
C2157 C 0.7931 0.98196 0.81489 0.0
C2158 C 0.77265 0.98318 0.82283 0.0
C2159 C 0.7576 0.99553 0.81305 0.0
C2160 C 0.7517 0.05065 0.78688 0.0
C2161 C 0.76372 0.06489 0.77579 0.0
C2162 C 0.77185 0.08192 0.7857 0.0
C2163 C 0.76819 0.08505 0.80697 0.0
C2164 C 0.75671 0.07032 0.81814 0.0
C2165 C 0.74854 0.05333 0.80819 0.0
C2166 C 0.65139 0.04352 0.69242 0.0
C2167 C 0.75638 0.91173 0.79026 0.0
H2168 H 0.15351 0.68209 0.50586 0.0
H2169 H 0.32534 0.79119 0.38748 0.0
H2170 H 0.21703 0.76354 0.54352 0.0
H2171 H 0.20014 0.74727 0.57337 0.0
H2172 H 0.25779 0.7153 0.58775 0.0
H2173 H 0.27435 0.7312 0.55739 0.0
H2174 H 0.20742 0.75312 0.4989 0.0
H2175 H 0.18034 0.72738 0.49976 0.0
H2176 H 0.22442 0.68176 0.52291 0.0
H2177 H 0.25142 0.7076 0.52173 0.0
H2178 H 0.23091 0.77797 0.46507 0.0
H2179 H 0.21716 0.76868 0.43166 0.0
H2180 H 0.24477 0.7074 0.43788 0.0
H2181 H 0.25899 0.71714 0.4712 0.0
H2182 H 0.26551 0.80682 0.4715 0.0
H2183 H 0.28068 0.81982 0.43915 0.0
H2184 H 0.31071 0.76016 0.42878 0.0
H2185 H 0.29575 0.74749 0.46139 0.0
H2186 H 0.2763 0.81734 0.51589 0.0
H2187 H 0.29772 0.84432 0.50071 0.0
H2188 H 0.34126 0.79753 0.47795 0.0
H2189 H 0.32027 0.77084 0.49407 0.0
H2190 H 0.25115 0.79417 0.55507 0.0
H2191 H 0.26481 0.81137 0.58515 0.0
H2192 H 0.32545 0.78412 0.57178 0.0
H2193 H 0.31139 0.76633 0.54218 0.0
O2194 O 0.16444 0.69204 0.50569 0.0
O2195 O 0.18763 0.66924 0.51784 0.0
O2196 O 0.30348 0.81686 0.4065 0.0
O2197 O 0.31889 0.78635 0.4002 0.0
C2198 C 0.25592 0.75551 0.52802 0.0
C2199 C 0.24787 0.74776 0.50945 0.0
C2200 C 0.25549 0.75478 0.49011 0.0
C2201 C 0.27172 0.76891 0.48926 0.0
C2202 C 0.28028 0.7763 0.50769 0.0
C2203 C 0.2722 0.76987 0.52716 0.0
C2204 C 0.24691 0.74849 0.54819 0.0
C2205 C 0.22609 0.75326 0.55332 0.0
C2206 C 0.21647 0.74398 0.57045 0.0
C2207 C 0.22751 0.72977 0.58291 0.0
C2208 C 0.2487 0.72586 0.5783 0.0
C2209 C 0.25829 0.73513 0.5611 0.0
C2210 C 0.23138 0.73219 0.51019 0.0
C2211 C 0.2112 0.73753 0.50407 0.0
C2212 C 0.19576 0.72281 0.50462 0.0
C2213 C 0.20021 0.7025 0.51138 0.0
C2214 C 0.22046 0.69725 0.51761 0.0
C2215 C 0.2359 0.71198 0.51698 0.0
C2216 C 0.24593 0.74824 0.47057 0.0
C2217 C 0.23389 0.7625 0.45926 0.0
C2218 C 0.22595 0.7571 0.44021 0.0
C2219 C 0.22982 0.73726 0.43205 0.0
C2220 C 0.24169 0.72288 0.44359 0.0
C2221 C 0.24966 0.72833 0.4627 0.0
C2222 C 0.27966 0.77628 0.46883 0.0
C2223 C 0.27535 0.79659 0.46219 0.0
C2224 C 0.28402 0.80396 0.44371 0.0
C2225 C 0.29699 0.79105 0.43141 0.0
C2226 C 0.30085 0.77053 0.4379 0.0
C2227 C 0.29226 0.76322 0.45646 0.0
C2228 C 0.29657 0.79211 0.50585 0.0
C2229 C 0.291 0.813 0.50856 0.0
C2230 C 0.3031 0.82837 0.49952 0.0
C2231 C 0.32087 0.82307 0.48748 0.0
C2232 C 0.3277 0.80225 0.48702 0.0
C2233 C 0.31572 0.78691 0.4963 0.0
C2234 C 0.28023 0.77893 0.5464 0.0
C2235 C 0.2673 0.79161 0.55885 0.0
C2236 C 0.27522 0.80164 0.57591 0.0
C2237 C 0.29632 0.79933 0.58084 0.0
C2238 C 0.30911 0.78615 0.56861 0.0
C2239 C 0.30113 0.77605 0.55159 0.0
C2240 C 0.18378 0.68687 0.51187 0.0
C2241 C 0.30658 0.79893 0.41197 0.0
H2242 H 0.86952 0.66306 0.55312 0.0
H2243 H 0.79509 0.80634 0.38184 0.0
H2244 H 0.78064 0.73386 0.55826 0.0
H2245 H 0.79145 0.72285 0.59261 0.0
H2246 H 0.82219 0.78076 0.60006 0.0
H2247 H 0.81164 0.79142 0.5653 0.0
H2248 H 0.80221 0.7144 0.51913 0.0
H2249 H 0.82712 0.68803 0.53127 0.0
H2250 H 0.86596 0.73609 0.55365 0.0
H2251 H 0.84106 0.76226 0.54122 0.0
H2252 H 0.78707 0.73213 0.47428 0.0
H2253 H 0.80582 0.71375 0.44654 0.0
H2254 H 0.86289 0.74078 0.46547 0.0
H2255 H 0.84378 0.75972 0.49265 0.0
H2256 H 0.75609 0.76826 0.47006 0.0
H2257 H 0.7523 0.77611 0.43328 0.0
H2258 H 0.81366 0.80143 0.43144 0.0
H2259 H 0.8171 0.79374 0.46831 0.0
H2260 H 0.73604 0.79181 0.50194 0.0
H2261 H 0.71883 0.81768 0.47978 0.0
H2262 H 0.77604 0.85076 0.4745 0.0
H2263 H 0.79275 0.82523 0.4969 0.0
H2264 H 0.74782 0.76865 0.55408 0.0
H2265 H 0.72666 0.78661 0.5804 0.0
H2266 H 0.75859 0.84307 0.56642 0.0
H2267 H 0.78027 0.82469 0.54073 0.0
O2268 O 0.85994 0.67372 0.54833 0.0
O2269 O 0.87928 0.69903 0.55962 0.0
O2270 O 0.76459 0.79018 0.39825 0.0
O2271 O 0.79617 0.80309 0.39639 0.0
C2272 C 0.79271 0.76791 0.53691 0.0
C2273 C 0.80459 0.75621 0.52227 0.0
C2274 C 0.8022 0.75994 0.50095 0.0
C2275 C 0.78883 0.77613 0.49427 0.0
C2276 C 0.77766 0.78849 0.50884 0.0
C2277 C 0.77898 0.78394 0.53019 0.0
C2278 C 0.79538 0.76341 0.55927 0.0
C2279 C 0.78927 0.74437 0.56752 0.0
C2280 C 0.79546 0.73813 0.5872 0.0
C2281 C 0.80785 0.75086 0.59908 0.0
C2282 C 0.81292 0.77047 0.59121 0.0
C2283 C 0.80669 0.7767 0.57147 0.0
C2284 C 0.81983 0.7402 0.52934 0.0
C2285 C 0.81616 0.71917 0.52657 0.0
C2286 C 0.83039 0.70416 0.53357 0.0
C2287 C 0.84852 0.70995 0.54346 0.0
C2288 C 0.85215 0.73109 0.54612 0.0
C2289 C 0.83795 0.74607 0.53907 0.0
C2290 C 0.81405 0.74729 0.48544 0.0
C2291 C 0.80365 0.73395 0.47249 0.0
C2292 C 0.81443 0.72335 0.45674 0.0
C2293 C 0.83589 0.72582 0.4537 0.0
C2294 C 0.84634 0.73876 0.46716 0.0
C2295 C 0.8355 0.74944 0.48283 0.0
C2296 C 0.78683 0.7805 0.47182 0.0
C2297 C 0.76865 0.77556 0.46168 0.0
C2298 C 0.76656 0.78002 0.44068 0.0
C2299 C 0.78269 0.78942 0.42942 0.0
C2300 C 0.80095 0.79421 0.43964 0.0
C2301 C 0.80298 0.78979 0.46068 0.0
C2302 C 0.7656 0.80672 0.50109 0.0
C2303 C 0.74453 0.80513 0.49667 0.0
C2304 C 0.73485 0.81976 0.48374 0.0
C2305 C 0.74611 0.83618 0.47508 0.0
C2306 C 0.76677 0.83851 0.48099 0.0
C2307 C 0.77639 0.82394 0.49387 0.0
C2308 C 0.7656 0.79534 0.54546 0.0
C2309 C 0.75023 0.78491 0.55672 0.0
C2310 C 0.73802 0.79526 0.57164 0.0
C2311 C 0.74087 0.81633 0.57559 0.0
C2312 C 0.75613 0.82679 0.56402 0.0
C2313 C 0.76841 0.81638 0.54917 0.0
C2314 C 0.86355 0.69398 0.55098 0.0
C2315 C 0.78052 0.79422 0.4071 0.0
H2316 H 0.65561 0.18961 0.53634 0.0
H2317 H 0.81054 0.28942 0.38645 0.0
H2318 H 0.7214 0.27463 0.55569 0.0
H2319 H 0.7082 0.25977 0.58797 0.0
H2320 H 0.76788 0.22968 0.59769 0.0
H2321 H 0.78067 0.24405 0.56486 0.0
H2322 H 0.70689 0.25985 0.51399 0.0
H2323 H 0.68061 0.23409 0.52131 0.0
H2324 H 0.72841 0.19142 0.54266 0.0
H2325 H 0.75456 0.21724 0.53501 0.0
H2326 H 0.72647 0.282 0.47439 0.0
H2327 H 0.70765 0.26858 0.4453 0.0
H2328 H 0.73532 0.20797 0.45608 0.0
H2329 H 0.75473 0.22184 0.4848 0.0
H2330 H 0.76 0.31196 0.47471 0.0
H2331 H 0.77114 0.32209 0.43982 0.0
H2332 H 0.80159 0.26226 0.43191 0.0
H2333 H 0.79067 0.25249 0.46699 0.0
H2334 H 0.77505 0.32698 0.51589 0.0
H2335 H 0.79362 0.3526 0.49527 0.0
H2336 H 0.83621 0.3046 0.47332 0.0
H2337 H 0.81811 0.27938 0.4947 0.0
H2338 H 0.7546 0.30719 0.55929 0.0
H2339 H 0.76944 0.32468 0.58857 0.0
H2340 H 0.82936 0.2966 0.57372 0.0
H2341 H 0.81414 0.27866 0.54468 0.0
O2342 O 0.66628 0.19954 0.53345 0.0
O2343 O 0.69142 0.17823 0.54437 0.0
O2344 O 0.79031 0.31645 0.40531 0.0
O2345 O 0.8057 0.28571 0.40021 0.0
C2346 C 0.75832 0.26581 0.53635 0.0
C2347 C 0.74852 0.25613 0.51972 0.0
C2348 C 0.75366 0.26155 0.49914 0.0
C2349 C 0.76923 0.27601 0.49515 0.0
C2350 C 0.77951 0.28536 0.51169 0.0
C2351 C 0.77379 0.28058 0.53239 0.0
C2352 C 0.75194 0.2603 0.55786 0.0
C2353 C 0.73173 0.26512 0.565 0.0
C2354 C 0.72424 0.25665 0.58351 0.0
C2355 C 0.73689 0.2433 0.59536 0.0
C2356 C 0.75758 0.23955 0.58875 0.0
C2357 C 0.76503 0.24796 0.57014 0.0
C2358 C 0.73261 0.24037 0.52391 0.0
C2359 C 0.71166 0.24488 0.52011 0.0
C2360 C 0.69668 0.23016 0.52438 0.0
C2361 C 0.70241 0.21069 0.53257 0.0
C2362 C 0.72347 0.20626 0.53635 0.0
C2363 C 0.73843 0.22097 0.53202 0.0
C2364 C 0.74203 0.25293 0.48168 0.0
C2365 C 0.72853 0.26584 0.47041 0.0
C2366 C 0.71763 0.25807 0.4539 0.0
C2367 C 0.71986 0.23713 0.44835 0.0
C2368 C 0.73339 0.2242 0.45976 0.0
C2369 C 0.74438 0.23205 0.47627 0.0
C2370 C 0.77469 0.28157 0.47341 0.0
C2371 C 0.76907 0.30108 0.4654 0.0
C2372 C 0.77544 0.30681 0.44546 0.0
C2373 C 0.78734 0.29301 0.4331 0.0
C2374 C 0.7925 0.27328 0.44103 0.0
C2375 C 0.78622 0.26761 0.46103 0.0
C2376 C 0.79506 0.30127 0.5066 0.0
C2377 C 0.78905 0.32222 0.50751 0.0
C2378 C 0.79947 0.33676 0.49537 0.0
C2379 C 0.81599 0.33054 0.48206 0.0
C2380 C 0.82356 0.30999 0.48328 0.0
C2381 C 0.81326 0.29551 0.4956 0.0
C2382 C 0.78324 0.29158 0.54984 0.0
C2383 C 0.77092 0.30476 0.56238 0.0
C2384 C 0.7795 0.31488 0.57903 0.0
C2385 C 0.80066 0.31214 0.58352 0.0
C2386 C 0.81299 0.29893 0.57087 0.0
C2387 C 0.80436 0.28879 0.55416 0.0
C2388 C 0.68645 0.19513 0.53718 0.0
C2389 C 0.79448 0.29917 0.41205 0.0
H2390 H 0.18382 0.41411 0.56088 0.0
H2391 H 0.25761 0.27266 0.38647 0.0
H2392 H 0.26692 0.33587 0.56532 0.0
H2393 H 0.25259 0.3481 0.59828 0.0
H2394 H 0.21383 0.29473 0.60226 0.0
H2395 H 0.22807 0.28284 0.56889 0.0
H2396 H 0.24922 0.35891 0.52735 0.0
H2397 H 0.22577 0.38666 0.53979 0.0
H2398 H 0.18031 0.3414 0.55703 0.0
H2399 H 0.20379 0.31385 0.54427 0.0
H2400 H 0.26749 0.34152 0.4823 0.0
H2401 H 0.25386 0.36505 0.45597 0.0
H2402 H 0.19168 0.34564 0.47107 0.0
H2403 H 0.20573 0.32124 0.4966 0.0
H2404 H 0.29413 0.30383 0.47639 0.0
H2405 H 0.29965 0.29692 0.43957 0.0
H2406 H 0.23618 0.27773 0.43566 0.0
H2407 H 0.231 0.28434 0.47258 0.0
H2408 H 0.3111 0.28143 0.51257 0.0
H2409 H 0.33193 0.25916 0.48935 0.0
H2410 H 0.2767 0.22742 0.47273 0.0
H2411 H 0.25622 0.2493 0.4964 0.0
H2412 H 0.29577 0.30231 0.5609 0.0
H2413 H 0.31503 0.28308 0.58719 0.0
H2414 H 0.28415 0.22738 0.57039 0.0
H2415 H 0.26427 0.24705 0.54471 0.0
O2416 O 0.1928 0.40293 0.55594 0.0
O2417 O 0.17007 0.379 0.56472 0.0
O2418 O 0.28846 0.28521 0.40399 0.0
O2419 O 0.25585 0.27554 0.40106 0.0
C2420 C 0.25272 0.30457 0.5424 0.0
C2421 C 0.2426 0.31753 0.5278 0.0
C2422 C 0.24636 0.31462 0.50651 0.0
C2423 C 0.25911 0.2979 0.4997 0.0
C2424 C 0.26888 0.2845 0.51419 0.0
C2425 C 0.26633 0.28831 0.53563 0.0
C2426 C 0.24858 0.30845 0.56472 0.0
C2427 C 0.25587 0.32646 0.57366 0.0
C2428 C 0.24758 0.33344 0.59251 0.0
C2429 C 0.23185 0.32253 0.60285 0.0
C2430 C 0.22568 0.30367 0.59455 0.0
C2431 C 0.23402 0.29667 0.57565 0.0
C2432 C 0.22819 0.33441 0.53493 0.0
C2433 C 0.23414 0.35506 0.53371 0.0
C2434 C 0.22074 0.37086 0.54088 0.0
C2435 C 0.20117 0.36625 0.54944 0.0
C2436 C 0.19526 0.34549 0.55055 0.0
C2437 C 0.20865 0.32973 0.5433 0.0
C2438 C 0.23762 0.32958 0.49125 0.0
C2439 C 0.25093 0.34233 0.47986 0.0
C2440 C 0.24305 0.35597 0.46499 0.0
C2441 C 0.22163 0.35733 0.46137 0.0
C2442 C 0.20828 0.34482 0.47321 0.0
C2443 C 0.21623 0.33098 0.48793 0.0
C2444 C 0.26223 0.29441 0.47716 0.0
C2445 C 0.28148 0.29804 0.46756 0.0
C2446 C 0.28456 0.29414 0.44652 0.0
C2447 C 0.26835 0.28673 0.43467 0.0
C2448 C 0.249 0.28339 0.44433 0.0
C2449 C 0.24597 0.2872 0.46539 0.0
C2450 C 0.28213 0.26704 0.50616 0.0
C2451 C 0.30368 0.26904 0.50463 0.0
C2452 C 0.31549 0.25652 0.49106 0.0
C2453 C 0.30593 0.2418 0.47876 0.0
C2454 C 0.28463 0.23851 0.48193 0.0
C2455 C 0.27288 0.25097 0.49555 0.0
C2456 C 0.27851 0.27613 0.55095 0.0
C2457 C 0.29311 0.28596 0.56297 0.0
C2458 C 0.30426 0.27488 0.57786 0.0
C2459 C 0.30117 0.25364 0.58098 0.0
C2460 C 0.28672 0.24377 0.56866 0.0
C2461 C 0.27547 0.25493 0.55382 0.0
C2462 C 0.18702 0.38304 0.55718 0.0
C2463 C 0.27158 0.28248 0.41233 0.0
H2464 H 0.89673 0.52049 0.66636 0.0
H2465 H 0.79736 0.65982 0.82813 0.0
H2466 H 0.80529 0.49836 0.72614 0.0
H2467 H 0.81722 0.46453 0.71331 0.0
H2468 H 0.83697 0.44756 0.77468 0.0
H2469 H 0.82571 0.48168 0.78714 0.0
H2470 H 0.82247 0.54202 0.71576 0.0
H2471 H 0.85048 0.53584 0.69034 0.0
H2472 H 0.8865 0.50411 0.73707 0.0
H2473 H 0.85847 0.5106 0.76239 0.0
H2474 H 0.80166 0.58155 0.73833 0.0
H2475 H 0.81814 0.61354 0.7276 0.0
H2476 H 0.87474 0.59264 0.7567 0.0
H2477 H 0.85776 0.56096 0.76801 0.0
H2478 H 0.76827 0.57968 0.77247 0.0
H2479 H 0.76098 0.61429 0.78617 0.0
H2480 H 0.82042 0.6125 0.81588 0.0
H2481 H 0.82733 0.57774 0.80237 0.0
H2482 H 0.74902 0.54008 0.7855 0.0
H2483 H 0.72503 0.55711 0.8102 0.0
H2484 H 0.77582 0.56554 0.85158 0.0
H2485 H 0.79929 0.5479 0.82722 0.0
H2486 H 0.76681 0.49618 0.75914 0.0
H2487 H 0.74291 0.47044 0.77263 0.0
H2488 H 0.76845 0.4767 0.83337 0.0
H2489 H 0.79284 0.50188 0.81951 0.0
O2490 O 0.88582 0.52273 0.67665 0.0
O2491 O 0.90361 0.50638 0.7012 0.0
O2492 O 0.76939 0.64623 0.80706 0.0
O2493 O 0.79989 0.64619 0.82243 0.0
C2494 C 0.81006 0.51407 0.76475 0.0
C2495 C 0.82155 0.53071 0.75637 0.0
C2496 C 0.81729 0.55112 0.7631 0.0
C2497 C 0.80229 0.55482 0.77887 0.0
C2498 C 0.7912 0.53826 0.78767 0.0
C2499 C 0.79469 0.51792 0.78032 0.0
C2500 C 0.81475 0.49259 0.75756 0.0
C2501 C 0.81204 0.48725 0.73683 0.0
C2502 C 0.81876 0.46785 0.72955 0.0
C2503 C 0.82826 0.45334 0.7429 0.0
C2504 C 0.8301 0.45847 0.76387 0.0
C2505 C 0.82345 0.47789 0.7711 0.0
C2506 C 0.83845 0.52675 0.74089 0.0
C2507 C 0.83645 0.53379 0.72047 0.0
C2508 C 0.85246 0.5302 0.70598 0.0
C2509 C 0.87074 0.51948 0.71167 0.0
C2510 C 0.87263 0.51241 0.73217 0.0
C2511 C 0.85664 0.51605 0.74665 0.0
C2512 C 0.8285 0.56893 0.75395 0.0
C2513 C 0.81772 0.58378 0.74212 0.0
C2514 C 0.82721 0.60203 0.73594 0.0
C2515 C 0.84777 0.60578 0.74138 0.0
C2516 C 0.8588 0.59043 0.75253 0.0
C2517 C 0.84923 0.57219 0.75879 0.0
C2518 C 0.79829 0.57621 0.78648 0.0
C2519 C 0.77967 0.5868 0.78195 0.0
C2520 C 0.77557 0.60657 0.78978 0.0
C2521 C 0.79012 0.61616 0.80215 0.0
C2522 C 0.80888 0.60556 0.80643 0.0
C2523 C 0.81291 0.58575 0.79868 0.0
C2524 C 0.77588 0.54287 0.80455 0.0
C2525 C 0.75472 0.54487 0.80028 0.0
C2526 C 0.74113 0.55487 0.8143 0.0
C2527 C 0.74854 0.56307 0.83274 0.0
C2528 C 0.76945 0.55934 0.83767 0.0
C2529 C 0.78296 0.54925 0.82374 0.0
C2530 C 0.78153 0.50099 0.78833 0.0
C2531 C 0.76746 0.49175 0.77529 0.0
C2532 C 0.75365 0.47721 0.78309 0.0
C2533 C 0.75356 0.47166 0.80417 0.0
C2534 C 0.76816 0.48048 0.81706 0.0
C2535 C 0.78203 0.49498 0.8092 0.0
C2536 C 0.88775 0.51575 0.69626 0.0
C2537 C 0.78577 0.63709 0.81064 0.0
H2538 H 0.33847 0.49788 0.85371 0.0
H2539 H 0.18118 0.66442 0.75545 0.0
H2540 H 0.26336 0.49294 0.75767 0.0
H2541 H 0.28007 0.45993 0.76653 0.0
H2542 H 0.2412 0.45613 0.82154 0.0
H2543 H 0.22473 0.48956 0.81254 0.0
H2544 H 0.28668 0.5179 0.78279 0.0
H2545 H 0.31288 0.5081 0.80814 0.0
H2546 H 0.26897 0.52278 0.85756 0.0
H2547 H 0.24291 0.5324 0.83202 0.0
H2548 H 0.28102 0.55933 0.77274 0.0
H2549 H 0.3028 0.58805 0.78161 0.0
H2550 H 0.2548 0.61118 0.82357 0.0
H2551 H 0.23339 0.58177 0.81511 0.0
H2552 H 0.24319 0.58103 0.74303 0.0
H2553 H 0.23317 0.6164 0.7329 0.0
H2554 H 0.18647 0.61786 0.78178 0.0
H2555 H 0.19674 0.58255 0.79176 0.0
H2556 H 0.21904 0.54724 0.72234 0.0
H2557 H 0.19912 0.57245 0.70199 0.0
H2558 H 0.15409 0.57806 0.7521 0.0
H2559 H 0.17381 0.55244 0.77194 0.0
H2560 H 0.23138 0.49478 0.73594 0.0
H2561 H 0.21347 0.46463 0.72362 0.0
H2562 H 0.16165 0.47939 0.76479 0.0
H2563 H 0.18029 0.50886 0.77777 0.0
O2564 O 0.32793 0.5019 0.84395 0.0
O2565 O 0.30472 0.50956 0.86876 0.0
O2566 O 0.21104 0.64969 0.73553 0.0
O2567 O 0.18596 0.6507 0.7596 0.0
C2568 C 0.23577 0.51531 0.78077 0.0
C2569 C 0.24676 0.5311 0.79038 0.0
C2570 C 0.24196 0.55203 0.78607 0.0
C2571 C 0.22547 0.55723 0.77294 0.0
C2572 C 0.21405 0.54153 0.7636 0.0
C2573 C 0.21928 0.52048 0.76736 0.0
C2574 C 0.24258 0.49347 0.78425 0.0
C2575 C 0.25797 0.48465 0.77127 0.0
C2576 C 0.26755 0.46577 0.77643 0.0
C2577 C 0.26201 0.45531 0.79478 0.0
C2578 C 0.24598 0.46385 0.8074 0.0
C2579 C 0.23637 0.4828 0.80217 0.0
C2580 C 0.26292 0.52574 0.80562 0.0
C2581 C 0.28277 0.51894 0.7991 0.0
C2582 C 0.2977 0.51339 0.81361 0.0
C2583 C 0.29301 0.51461 0.83488 0.0
C2584 C 0.27309 0.52163 0.84131 0.0
C2585 C 0.2582 0.52716 0.82678 0.0
C2586 C 0.25566 0.56846 0.79329 0.0
C2587 C 0.27537 0.5704 0.78413 0.0
C2588 C 0.28768 0.58698 0.78903 0.0
C2589 C 0.28045 0.60211 0.8031 0.0
C2590 C 0.26089 0.59976 0.81277 0.0
C2591 C 0.2486 0.58304 0.8079 0.0
C2592 C 0.22064 0.57929 0.76807 0.0
C2593 C 0.23098 0.58914 0.75166 0.0
C2594 C 0.22517 0.60929 0.74588 0.0
C2595 C 0.20892 0.61991 0.75646 0.0
C2596 C 0.19898 0.61011 0.77325 0.0
C2597 C 0.20485 0.58998 0.77904 0.0
C2598 C 0.19793 0.54803 0.74866 0.0
C2599 C 0.20424 0.553 0.7284 0.0
C2600 C 0.19305 0.56779 0.71698 0.0
C2601 C 0.17534 0.57782 0.72565 0.0
C2602 C 0.16763 0.57074 0.74487 0.0
C2603 C 0.1788 0.55587 0.75623 0.0
C2604 C 0.20727 0.50386 0.75795 0.0
C2605 C 0.21616 0.49148 0.74228 0.0
C2606 C 0.20577 0.47433 0.73512 0.0
C2607 C 0.18612 0.46936 0.74331 0.0
C2608 C 0.17692 0.48241 0.75842 0.0
C2609 C 0.18743 0.49943 0.76571 0.0
C2610 C 0.30884 0.50857 0.85027 0.0
C2611 C 0.20214 0.64101 0.74988 0.0
H2612 H 0.17385 0.57664 0.31075 0.0
H2613 H 0.29824 0.38439 0.24214 0.0
H2614 H 0.25466 0.57206 0.23469 0.0
H2615 H 0.24726 0.60563 0.25038 0.0
H2616 H 0.30336 0.59906 0.2855 0.0
H2617 H 0.30999 0.56495 0.27047 0.0
H2618 H 0.22729 0.53493 0.24913 0.0
H2619 H 0.20021 0.55114 0.27103 0.0
H2620 H 0.24598 0.56395 0.31673 0.0
H2621 H 0.27282 0.54739 0.29485 0.0
H2622 H 0.23753 0.48778 0.23794 0.0
H2623 H 0.21193 0.46736 0.25702 0.0
H2624 H 0.24168 0.48168 0.3142 0.0
H2625 H 0.26756 0.50129 0.2949 0.0
H2626 H 0.27396 0.47905 0.20697 0.0
H2627 H 0.27632 0.44167 0.20155 0.0
H2628 H 0.30022 0.4333 0.26305 0.0
H2629 H 0.29797 0.47073 0.26816 0.0
H2630 H 0.30277 0.50754 0.18982 0.0
H2631 H 0.32589 0.48308 0.17109 0.0
H2632 H 0.35773 0.46908 0.22778 0.0
H2633 H 0.3347 0.49346 0.24617 0.0
H2634 H 0.29573 0.56474 0.20565 0.0
H2635 H 0.32101 0.5908 0.1963 0.0
H2636 H 0.36603 0.55983 0.23518 0.0
H2637 H 0.34026 0.53441 0.24515 0.0
O2638 O 0.18476 0.5701 0.30244 0.0
O2639 O 0.20893 0.57651 0.32533 0.0
O2640 O 0.28492 0.40437 0.21233 0.0
O2641 O 0.29711 0.39922 0.24388 0.0
C2642 C 0.28353 0.5434 0.24714 0.0
C2643 C 0.2685 0.53076 0.25672 0.0
C2644 C 0.26932 0.50921 0.25375 0.0
C2645 C 0.28495 0.50025 0.24092 0.0
C2646 C 0.30026 0.51273 0.23155 0.0
C2647 C 0.29964 0.53437 0.23473 0.0
C2648 C 0.28274 0.56594 0.25159 0.0
C2649 C 0.26567 0.57816 0.24531 0.0
C2650 C 0.26149 0.59741 0.25432 0.0
C2651 C 0.27449 0.60493 0.26957 0.0
C2652 C 0.29272 0.59352 0.27422 0.0
C2653 C 0.29675 0.57415 0.26538 0.0
C2654 C 0.25201 0.54009 0.27036 0.0
C2655 C 0.23139 0.54114 0.26394 0.0
C2656 C 0.21598 0.55046 0.27645 0.0
C2657 C 0.22094 0.55891 0.29561 0.0
C2658 C 0.24163 0.55764 0.30206 0.0
C2659 C 0.257 0.54823 0.28958 0.0
C2660 C 0.25436 0.49599 0.26506 0.0
C2661 C 0.23859 0.48627 0.25456 0.0
C2662 C 0.22388 0.47481 0.26552 0.0
C2663 C 0.22468 0.47295 0.28718 0.0
C2664 C 0.24072 0.48255 0.29754 0.0
C2665 C 0.25545 0.49388 0.28657 0.0
C2666 C 0.28583 0.47753 0.23793 0.0
C2667 C 0.27971 0.46909 0.21923 0.0
C2668 C 0.28106 0.44775 0.21619 0.0
C2669 C 0.28848 0.43449 0.23187 0.0
C2670 C 0.29445 0.44305 0.25066 0.0
C2671 C 0.29313 0.46441 0.25365 0.0
C2672 C 0.31724 0.50247 0.21929 0.0
C2673 C 0.31524 0.49972 0.19797 0.0
C2674 C 0.32826 0.48553 0.18739 0.0
C2675 C 0.3436 0.47402 0.19796 0.0
C2676 C 0.3463 0.47784 0.21908 0.0
C2677 C 0.33321 0.49185 0.22963 0.0
C2678 C 0.31615 0.54763 0.22603 0.0
C2679 C 0.31119 0.56337 0.21182 0.0
C2680 C 0.32572 0.57822 0.20644 0.0
C2681 C 0.34557 0.57754 0.21511 0.0
C2682 C 0.35081 0.56103 0.22847 0.0
C2683 C 0.3362 0.54629 0.23396 0.0
C2684 C 0.20458 0.56904 0.30875 0.0
C2685 C 0.29002 0.41181 0.2287 0.0
H2686 H 0.66938 0.55808 0.17162 0.0
H2687 H 0.75034 0.3791 0.30297 0.0
H2688 H 0.75929 0.5576 0.23311 0.0
H2689 H 0.75034 0.59404 0.22686 0.0
H2690 H 0.72872 0.59971 0.29025 0.0
H2691 H 0.73685 0.56304 0.29602 0.0
H2692 H 0.73829 0.51813 0.21526 0.0
H2693 H 0.71226 0.53246 0.19179 0.0
H2694 H 0.67755 0.55771 0.24401 0.0
H2695 H 0.70358 0.54309 0.26731 0.0
H2696 H 0.75215 0.4719 0.23006 0.0
H2697 H 0.73067 0.44558 0.21505 0.0
H2698 H 0.67778 0.46904 0.25054 0.0
H2699 H 0.69965 0.49476 0.26605 0.0
H2700 H 0.78713 0.46535 0.26041 0.0
H2701 H 0.79076 0.42815 0.26703 0.0
H2702 H 0.73274 0.43005 0.3017 0.0
H2703 H 0.72947 0.46728 0.29519 0.0
H2704 H 0.81018 0.50056 0.27688 0.0
H2705 H 0.83479 0.4786 0.29579 0.0
H2706 H 0.78751 0.46729 0.34254 0.0
H2707 H 0.76286 0.48863 0.32298 0.0
H2708 H 0.79551 0.55373 0.26782 0.0
H2709 H 0.81368 0.57925 0.28786 0.0
H2710 H 0.78385 0.5567 0.34372 0.0
H2711 H 0.76511 0.53194 0.32343 0.0
O2712 O 0.67941 0.5524 0.18119 0.0
O2713 O 0.66215 0.56505 0.20855 0.0
O2714 O 0.77918 0.39369 0.28236 0.0
O2715 O 0.74931 0.3938 0.30012 0.0
C2716 C 0.75156 0.53484 0.26793 0.0
C2717 C 0.73886 0.52122 0.25711 0.0
C2718 C 0.74114 0.49963 0.26003 0.0
C2719 C 0.75612 0.49164 0.27376 0.0
C2720 C 0.76882 0.50514 0.28461 0.0
C2721 C 0.76647 0.52676 0.28185 0.0
C2722 C 0.74863 0.5576 0.26499 0.0
C2723 C 0.75278 0.56679 0.24568 0.0
C2724 C 0.74777 0.58767 0.24218 0.0
C2725 C 0.73863 0.59985 0.25799 0.0
C2726 C 0.73536 0.59074 0.27759 0.0
C2727 C 0.74022 0.56983 0.28102 0.0
C2728 C 0.72283 0.52962 0.24295 0.0
C2729 C 0.725 0.52667 0.22159 0.0
C2730 C 0.71013 0.53492 0.20823 0.0
C2731 C 0.69284 0.54627 0.21602 0.0
C2732 C 0.69069 0.54908 0.23749 0.0
C2733 C 0.70554 0.54078 0.25083 0.0
C2734 C 0.7275 0.48521 0.2492 0.0
C2735 C 0.73588 0.47142 0.23446 0.0
C2736 C 0.72353 0.45648 0.2258 0.0
C2737 C 0.70247 0.45508 0.23164 0.0
C2738 C 0.69399 0.46943 0.24592 0.0
C2739 C 0.70639 0.48429 0.25465 0.0
C2740 C 0.75807 0.46897 0.27737 0.0
C2741 C 0.77527 0.45769 0.26948 0.0
C2742 C 0.77727 0.43645 0.27325 0.0
C2743 C 0.76203 0.42612 0.28491 0.0
C2744 C 0.74475 0.43751 0.29267 0.0
C2745 C 0.74282 0.45876 0.28895 0.0
C2746 C 0.78476 0.49615 0.29855 0.0
C2747 C 0.80535 0.49378 0.2915 0.0
C2748 C 0.81939 0.48119 0.30237 0.0
C2749 C 0.8131 0.47087 0.32061 0.0
C2750 C 0.79279 0.47456 0.32834 0.0
C2751 C 0.77874 0.48699 0.31735 0.0
C2752 C 0.77898 0.54097 0.29415 0.0
C2753 C 0.79301 0.55427 0.2844 0.0
C2754 C 0.80348 0.56874 0.29591 0.0
C2755 C 0.80018 0.57012 0.31743 0.0
C2756 C 0.78652 0.55632 0.32716 0.0
C2757 C 0.77598 0.54197 0.31563 0.0
C2758 C 0.67717 0.55516 0.20177 0.0
C2759 C 0.7641 0.40357 0.289 0.0
H2760 H 0.48071 0.39208 0.88254 0.0
H2761 H 0.65428 0.32028 0.73661 0.0
H2762 H 0.48194 0.30139 0.80914 0.0
H2763 H 0.44664 0.30439 0.82311 0.0
H2764 H 0.42968 0.34449 0.77213 0.0
H2765 H 0.46548 0.34158 0.75836 0.0
H2766 H 0.51441 0.32586 0.82972 0.0
H2767 H 0.50204 0.34978 0.85663 0.0
H2768 H 0.48139 0.39296 0.80955 0.0
H2769 H 0.49401 0.36899 0.78283 0.0
H2770 H 0.55367 0.30789 0.81436 0.0
H2771 H 0.58128 0.31967 0.8362 0.0
H2772 H 0.57704 0.38006 0.80735 0.0
H2773 H 0.54934 0.36792 0.78529 0.0
H2774 H 0.56628 0.283 0.77587 0.0
H2775 H 0.60334 0.27837 0.76785 0.0
H2776 H 0.60413 0.3401 0.74177 0.0
H2777 H 0.56699 0.34436 0.74958 0.0
H2778 H 0.52998 0.26452 0.75572 0.0
H2779 H 0.55424 0.24308 0.73505 0.0
H2780 H 0.56892 0.29638 0.6974 0.0
H2781 H 0.54437 0.31745 0.71783 0.0
H2782 H 0.47975 0.27696 0.76945 0.0
H2783 H 0.45335 0.26182 0.74808 0.0
H2784 H 0.47178 0.30132 0.69713 0.0
H2785 H 0.49752 0.31691 0.71891 0.0
O2786 O 0.48548 0.38284 0.87169 0.0
O2787 O 0.47499 0.4044 0.84685 0.0
O2788 O 0.63832 0.28993 0.75323 0.0
O2789 O 0.63963 0.3217 0.74 0.0
C2790 C 0.49841 0.32079 0.77598 0.0
C2791 C 0.51276 0.33144 0.78794 0.0
C2792 C 0.53421 0.3288 0.78396 0.0
C2793 C 0.54132 0.31647 0.76733 0.0
C2794 C 0.52705 0.30643 0.75477 0.0
C2795 C 0.50551 0.30846 0.75914 0.0
C2796 C 0.47624 0.32119 0.78271 0.0
C2797 C 0.47053 0.31059 0.80082 0.0
C2798 C 0.45031 0.31227 0.80873 0.0
C2799 C 0.43526 0.32462 0.7987 0.0
C2800 C 0.44093 0.33496 0.78028 0.0
C2801 C 0.46128 0.33319 0.7723 0.0
C2802 C 0.50523 0.34578 0.80437 0.0
C2803 C 0.50733 0.34055 0.82528 0.0
C2804 C 0.50018 0.35421 0.8406 0.0
C2805 C 0.49076 0.37331 0.83524 0.0
C2806 C 0.48859 0.37841 0.81422 0.0
C2807 C 0.49577 0.36475 0.79893 0.0
C2808 C 0.54947 0.33708 0.79836 0.0
C2809 C 0.55851 0.32375 0.81297 0.0
C2810 C 0.57422 0.33055 0.82548 0.0
C2811 C 0.58133 0.35084 0.82358 0.0
C2812 C 0.57199 0.36432 0.8091 0.0
C2813 C 0.5561 0.35749 0.79661 0.0
C2814 C 0.56398 0.31395 0.76317 0.0
C2815 C 0.5745 0.29547 0.76838 0.0
C2816 C 0.59566 0.29289 0.76382 0.0
C2817 C 0.6067 0.30887 0.75413 0.0
C2818 C 0.59611 0.32748 0.7492 0.0
C2819 C 0.57492 0.32999 0.75369 0.0
C2820 C 0.53542 0.29254 0.73828 0.0
C2821 C 0.53772 0.2713 0.7424 0.0
C2822 C 0.55187 0.25917 0.73079 0.0
C2823 C 0.56386 0.26809 0.71483 0.0
C2824 C 0.55992 0.28894 0.70949 0.0
C2825 C 0.54579 0.30103 0.72109 0.0
C2826 C 0.49045 0.29818 0.74581 0.0
C2827 C 0.47804 0.28235 0.75368 0.0
C2828 C 0.46308 0.27359 0.74136 0.0
C2829 C 0.46032 0.2804 0.72087 0.0
C2830 C 0.47319 0.29594 0.71293 0.0
C2831 C 0.48806 0.30474 0.72529 0.0
C2832 C 0.48324 0.38783 0.85153 0.0
C2833 C 0.62915 0.30618 0.74914 0.0
H2834 H 0.48257 0.64308 0.85047 0.0
H2835 H 0.65897 0.75876 0.74875 0.0
H2836 H 0.47467 0.70656 0.76342 0.0
H2837 H 0.44036 0.70469 0.78 0.0
H2838 H 0.44337 0.7691 0.79655 0.0
H2839 H 0.47803 0.77048 0.78082 0.0
H2840 H 0.51643 0.68491 0.77736 0.0
H2841 H 0.50398 0.66209 0.80498 0.0
H2842 H 0.48626 0.7155 0.84162 0.0
H2843 H 0.49901 0.73814 0.81396 0.0
H2844 H 0.56131 0.69564 0.75846 0.0
H2845 H 0.58776 0.67606 0.77743 0.0
H2846 H 0.57336 0.71246 0.83178 0.0
H2847 H 0.54744 0.73247 0.81236 0.0
H2848 H 0.56574 0.72653 0.72269 0.0
H2849 H 0.60278 0.7295 0.71476 0.0
H2850 H 0.61021 0.76228 0.77193 0.0
H2851 H 0.57307 0.75948 0.7795 0.0
H2852 H 0.53218 0.74895 0.70273 0.0
H2853 H 0.55484 0.76805 0.67894 0.0
H2854 H 0.56992 0.80898 0.72852 0.0
H2855 H 0.54689 0.7902 0.75182 0.0
H2856 H 0.48247 0.73318 0.72247 0.0
H2857 H 0.45443 0.74905 0.70267 0.0
H2858 H 0.47096 0.80923 0.72447 0.0
H2859 H 0.49884 0.793 0.74474 0.0
O2860 O 0.48756 0.65239 0.83983 0.0
O2861 O 0.47871 0.68035 0.85805 0.0
O2862 O 0.63953 0.74086 0.72207 0.0
O2863 O 0.64426 0.75743 0.75148 0.0
C2864 C 0.50131 0.7387 0.765 0.0
C2865 C 0.51581 0.72691 0.77665 0.0
C2866 C 0.53721 0.72805 0.77202 0.0
C2867 C 0.54416 0.7414 0.75615 0.0
C2868 C 0.52974 0.75341 0.74461 0.0
C2869 C 0.50824 0.75156 0.74856 0.0
C2870 C 0.47896 0.73858 0.77113 0.0
C2871 C 0.46775 0.72032 0.77037 0.0
C2872 C 0.4481 0.71933 0.77978 0.0
C2873 C 0.43922 0.73667 0.78992 0.0
C2874 C 0.44994 0.75532 0.78932 0.0
C2875 C 0.46964 0.75624 0.78009 0.0
C2876 C 0.50859 0.71316 0.79367 0.0
C2877 C 0.50996 0.69163 0.79142 0.0
C2878 C 0.50279 0.67865 0.8072 0.0
C2879 C 0.49409 0.68697 0.8255 0.0
C2880 C 0.49285 0.70858 0.82772 0.0
C2881 C 0.5001 0.72155 0.81195 0.0
C2882 C 0.55249 0.71549 0.78401 0.0
C2883 C 0.56387 0.69935 0.77447 0.0
C2884 C 0.57886 0.68807 0.78541 0.0
C2885 C 0.58269 0.69264 0.80618 0.0
C2886 C 0.571 0.70868 0.81576 0.0
C2887 C 0.55606 0.72002 0.80476 0.0
C2888 C 0.56675 0.74288 0.75161 0.0
C2889 C 0.5754 0.73442 0.73343 0.0
C2890 C 0.59655 0.7361 0.72897 0.0
C2891 C 0.60947 0.74615 0.74272 0.0
C2892 C 0.60072 0.75446 0.76101 0.0
C2893 C 0.57953 0.75285 0.7654 0.0
C2894 C 0.53786 0.76823 0.72898 0.0
C2895 C 0.53971 0.76258 0.70817 0.0
C2896 C 0.55294 0.77332 0.6947 0.0
C2897 C 0.56453 0.78986 0.70188 0.0
C2898 C 0.56119 0.79647 0.72235 0.0
C2899 C 0.54795 0.78578 0.73573 0.0
C2900 C 0.49277 0.76192 0.73498 0.0
C2901 C 0.4802 0.74982 0.72279 0.0
C2902 C 0.46422 0.75896 0.7114 0.0
C2903 C 0.46042 0.78046 0.71192 0.0
C2904 C 0.47333 0.79262 0.72387 0.0
C2905 C 0.4894 0.78342 0.73528 0.0
C2906 C 0.48631 0.67312 0.84215 0.0
C2907 C 0.63196 0.74794 0.73806 0.0
H2908 H 0.57958 0.68759 0.20191 0.0
H2909 H 0.39682 0.81088 0.29642 0.0
H2910 H 0.57904 0.74757 0.29237 0.0
H2911 H 0.61343 0.74017 0.27741 0.0
H2912 H 0.61641 0.80344 0.25581 0.0
H2913 H 0.58154 0.81038 0.2701 0.0
H2914 H 0.53956 0.73003 0.27208 0.0
H2915 H 0.5541 0.70701 0.2454 0.0
H2916 H 0.57575 0.76003 0.21095 0.0
H2917 H 0.56088 0.78288 0.23761 0.0
H2918 H 0.49306 0.74337 0.28605 0.0
H2919 H 0.46786 0.72792 0.26339 0.0
H2920 H 0.48887 0.76703 0.21315 0.0
H2921 H 0.51337 0.78285 0.2361 0.0
H2922 H 0.48894 0.77221 0.32484 0.0
H2923 H 0.45167 0.77692 0.33154 0.0
H2924 H 0.44632 0.8124 0.27491 0.0
H2925 H 0.48368 0.80788 0.2686 0.0
H2926 H 0.52559 0.79082 0.34673 0.0
H2927 H 0.50219 0.80691 0.37247 0.0
H2928 H 0.48052 0.85049 0.32624 0.0
H2929 H 0.50459 0.83486 0.30099 0.0
H2930 H 0.57231 0.77771 0.33073 0.0
H2931 H 0.59904 0.79412 0.35058 0.0
H2932 H 0.58218 0.85321 0.32325 0.0
H2933 H 0.55556 0.83648 0.30316 0.0
O2934 O 0.57368 0.69701 0.21213 0.0
O2935 O 0.58446 0.72477 0.195 0.0
O2936 O 0.41527 0.79073 0.32328 0.0
O2937 O 0.41161 0.80877 0.29414 0.0
C2938 C 0.555 0.78221 0.28624 0.0
C2939 C 0.54109 0.77191 0.27347 0.0
C2940 C 0.51951 0.77452 0.27667 0.0
C2941 C 0.51176 0.78743 0.29266 0.0
C2942 C 0.52557 0.79812 0.30526 0.0
C2943 C 0.54725 0.7954 0.30214 0.0
C2944 C 0.57769 0.77945 0.28216 0.0
C2945 C 0.58735 0.75996 0.28486 0.0
C2946 C 0.60707 0.75578 0.27631 0.0
C2947 C 0.61761 0.77112 0.26507 0.0
C2948 C 0.60855 0.79114 0.26395 0.0
C2949 C 0.58874 0.79524 0.27237 0.0
C2950 C 0.54921 0.75809 0.25678 0.0
C2951 C 0.5473 0.73663 0.25867 0.0
C2952 C 0.55569 0.72353 0.24345 0.0
C2953 C 0.56614 0.73168 0.22607 0.0
C2954 C 0.56782 0.75324 0.22415 0.0
C2955 C 0.55936 0.76633 0.23935 0.0
C2956 C 0.50496 0.76429 0.26274 0.0
C2957 C 0.49217 0.74856 0.27014 0.0
C2958 C 0.47791 0.73965 0.25713 0.0
C2959 C 0.47626 0.7463 0.23646 0.0
C2960 C 0.48947 0.76178 0.22905 0.0
C2961 C 0.50361 0.77072 0.24208 0.0
C2962 C 0.48899 0.78975 0.29628 0.0
C2963 C 0.47968 0.78102 0.31393 0.0
C2964 C 0.45839 0.78371 0.3177 0.0
C2965 C 0.44601 0.79505 0.30375 0.0
C2966 C 0.45539 0.80359 0.28596 0.0
C2967 C 0.47671 0.80098 0.28228 0.0
C2968 C 0.51674 0.81158 0.32195 0.0
C2969 C 0.51644 0.8044 0.34243 0.0
C2970 C 0.50276 0.81341 0.35702 0.0
C2971 C 0.48903 0.8297 0.35134 0.0
C2972 C 0.49083 0.83806 0.33127 0.0
C2973 C 0.50464 0.82915 0.31677 0.0
C2974 C 0.56197 0.80591 0.31557 0.0
C2975 C 0.57424 0.79424 0.32921 0.0
C2976 C 0.58945 0.80367 0.34059 0.0
C2977 C 0.59276 0.825 0.33851 0.0
C2978 C 0.58016 0.83673 0.32506 0.0
C2979 C 0.56483 0.82726 0.31373 0.0
C2980 C 0.57532 0.71769 0.21009 0.0
C2981 C 0.42339 0.798 0.30772 0.0
H2982 H 0.52619 0.17859 0.37761 0.0
H2983 H 0.3716 0.26444 0.22441 0.0
H2984 H 0.54482 0.26041 0.30486 0.0
H2985 H 0.57729 0.24416 0.31621 0.0
H2986 H 0.5847 0.21423 0.257 0.0
H2987 H 0.55172 0.22987 0.24618 0.0
H2988 H 0.50139 0.24691 0.32294 0.0
H2989 H 0.50962 0.22207 0.35048 0.0
H2990 H 0.53383 0.17889 0.30484 0.0
H2991 H 0.52525 0.20375 0.27746 0.0
H2992 H 0.45794 0.26327 0.30383 0.0
H2993 H 0.42943 0.24578 0.32176 0.0
H2994 H 0.44978 0.18802 0.294 0.0
H2995 H 0.4777 0.20576 0.2757 0.0
H2996 H 0.4588 0.29523 0.26692 0.0
H2997 H 0.42288 0.30253 0.25719 0.0
H2998 H 0.41955 0.24089 0.23243 0.0
H2999 H 0.45557 0.23391 0.24203 0.0
H3000 H 0.49475 0.31116 0.24468 0.0
H3001 H 0.477 0.33091 0.2174 0.0
H3002 H 0.46793 0.27419 0.18443 0.0
H3003 H 0.4859 0.25485 0.21144 0.0
H3004 H 0.54602 0.29373 0.26599 0.0
H3005 H 0.57393 0.30971 0.24584 0.0
H3006 H 0.55662 0.27521 0.19229 0.0
H3007 H 0.5294 0.25873 0.2128 0.0
O3008 O 0.52306 0.18818 0.36648 0.0
O3009 O 0.53555 0.16666 0.34242 0.0
O3010 O 0.38832 0.29349 0.24138 0.0
O3011 O 0.38577 0.26194 0.22852 0.0
C3012 C 0.52381 0.25179 0.26995 0.0
C3013 C 0.50773 0.24224 0.28154 0.0
C3014 C 0.48675 0.24648 0.27689 0.0
C3015 C 0.48179 0.25998 0.26042 0.0
C3016 C 0.49773 0.26907 0.24836 0.0
C3017 C 0.5188 0.26524 0.25325 0.0
C3018 C 0.54579 0.24626 0.27473 0.0
C3019 C 0.55371 0.25072 0.29418 0.0
C3020 C 0.57233 0.24141 0.30063 0.0
C3021 C 0.58352 0.22757 0.28766 0.0
C3022 C 0.57628 0.22441 0.26758 0.0
C3023 C 0.55758 0.23361 0.26121 0.0
C3024 C 0.51283 0.22716 0.29824 0.0
C3025 C 0.50843 0.23206 0.31895 0.0
C3026 C 0.51318 0.21785 0.33463 0.0
C3027 C 0.52242 0.1985 0.32987 0.0
C3028 C 0.52676 0.19366 0.30906 0.0
C3029 C 0.52194 0.20784 0.29339 0.0
C3030 C 0.46991 0.23579 0.28848 0.0
C3031 C 0.4562 0.24684 0.30167 0.0
C3032 C 0.44001 0.23679 0.31199 0.0
C3033 C 0.43725 0.21548 0.30929 0.0
C3034 C 0.45123 0.20448 0.29622 0.0
C3035 C 0.46733 0.21454 0.28588 0.0
C3036 C 0.45974 0.26406 0.25518 0.0
C3037 C 0.45026 0.28334 0.2594 0.0
C3038 C 0.42975 0.28745 0.25384 0.0
C3039 C 0.41834 0.27228 0.24401 0.0
C3040 C 0.42789 0.25291 0.23997 0.0
C3041 C 0.44842 0.24885 0.24549 0.0
C3042 C 0.49175 0.2816 0.22995 0.0
C3043 C 0.48954 0.30317 0.23119 0.0
C3044 C 0.47914 0.31436 0.21574 0.0
C3045 C 0.47086 0.30414 0.19877 0.0
C3046 C 0.47428 0.28265 0.19707 0.0
C3047 C 0.4846 0.27153 0.2125 0.0
C3048 C 0.53556 0.27514 0.24086 0.0
C3049 C 0.54832 0.28961 0.24992 0.0
C3050 C 0.56416 0.29885 0.23831 0.0
C3051 C 0.56757 0.29381 0.21738 0.0
C3052 C 0.55468 0.27929 0.2084 0.0
C3053 C 0.53893 0.27001 0.22004 0.0
C3054 C 0.52744 0.18344 0.34656 0.0
C3055 C 0.39659 0.27662 0.23794 0.0
loop_
_geom_bond_atom_site_label_1
_geom_bond_atom_site_label_2
_geom_bond_distance
_geom_bond_site_symmetry_2
_ccdc_geom_bond_type
C0 C1 1.264 . S
C0 C5 1.479 . S
C0 C10 1.465 . S
C1 C0 1.264 . S
C1 C3 1.339 . S
C1 H28 0.931 . S
C2 C3 1.395 . S
C2 C4 1.320 . S
C3 C1 1.339 . S
C3 C2 1.395 . S
C3 H29 0.929 . S
C4 C2 1.320 . S
C4 C5 1.405 . S
C4 H30 0.930 . S
C5 C0 1.479 . S
C5 C4 1.405 . S
C5 H31 0.931 . S
U6 O7 2.454 . S
U6 O8 2.458 . S
U6 C9 2.984 . S
U6 C10 2.847 . S
U6 C23 2.882 . S
U6 O24 2.441 . S
U6 O25 2.420 . S
U6 O26 2.455 . S
U6 O27 2.449 . S
O7 U6 2.454 . S
O7 C9 1.353 . S
O8 U6 2.458 . S
O8 C9 1.286 . S
C9 U6 2.984 . S
C9 O7 1.353 . S
C9 O8 1.286 . S
C9 C11 1.363 . S
C10 C0 1.465 . S
C10 U6 2.847 . S
C10 O24 1.249 . S
C10 O25 1.202 . S
C11 C9 1.363 . S
C11 C13 1.408 . S
C11 C16 1.342 . S
C12 C13 1.310 . S
C12 C15 1.461 . S
C12 H32 0.932 . S
C13 C11 1.408 . S
C13 C12 1.310 . S
C13 H33 0.930 . S
C14 C15 1.474 . S
C14 C16 1.285 . S
C14 H34 0.929 . S
C15 C12 1.461 . S
C15 C14 1.474 . S
C16 C11 1.342 . S
C16 C14 1.285 . S
C16 H35 0.930 . S
C17 C20 1.424 . S
C17 C22 1.245 . S
C17 C23 1.428 . S
C18 C21 1.260 . S
C18 C22 1.477 . S
C18 H36 0.932 . S
C19 C20 1.384 . S
C19 C21 1.479 . S
C19 H37 0.929 . S
C20 C17 1.424 . S
C20 C19 1.384 . S
C20 H38 0.928 . S
C21 C18 1.260 . S
C21 C19 1.479 . S
C22 C17 1.245 . S
C22 C18 1.477 . S
C22 H39 0.932 . S
C23 U6 2.882 . S
C23 C17 1.428 . S
C23 O26 1.301 . S
C23 O27 1.282 . S
O24 U6 2.441 . S
O24 C10 1.249 . S
O25 U6 2.420 . S
O25 C10 1.202 . S
O26 U6 2.455 . S
O26 C23 1.301 . S
O27 U6 2.449 . S
O27 C23 1.282 . S
H28 C1 0.931 . S
H29 C3 0.929 . S
H30 C4 0.930 . S
H31 C5 0.931 . S
H32 C12 0.932 . S
H33 C13 0.930 . S
H34 C14 0.929 . S
H35 C16 0.930 . S
H36 C18 0.932 . S
H37 C19 0.929 . S
H38 C20 0.928 . S
H39 C22 0.932 . S
C40 C41 1.264 . S
C40 C45 1.479 . S
C40 C50 1.465 . S
C41 C40 1.264 . S
C41 C43 1.339 . S
C41 H68 0.931 . S
C42 C43 1.395 . S
C42 C44 1.320 . S
C43 C41 1.339 . S
C43 C42 1.395 . S
C43 H69 0.929 . S
C44 C42 1.320 . S
C44 C45 1.405 . S
C44 H70 0.930 . S
C45 C40 1.479 . S
C45 C44 1.405 . S
C45 H71 0.931 . S
U46 O47 2.454 . S
U46 O48 2.458 . S
U46 C49 2.984 . S
U46 C50 2.847 . S
U46 C63 2.882 . S
U46 O64 2.441 . S
U46 O65 2.420 . S
U46 O66 2.455 . S
U46 O67 2.449 . S
O47 U46 2.454 . S
O47 C49 1.353 . S
O48 U46 2.458 . S
O48 C49 1.286 . S
C49 U46 2.984 . S
C49 O47 1.353 . S
C49 O48 1.286 . S
C49 C51 1.363 . S
C50 C40 1.465 . S
C50 U46 2.847 . S
C50 O64 1.249 . S
C50 O65 1.202 . S
C51 C49 1.363 . S
C51 C53 1.408 . S
C51 C56 1.342 . S
C52 C53 1.310 . S
C52 C55 1.461 . S
C52 H72 0.932 . S
C53 C51 1.408 . S
C53 C52 1.310 . S
C53 H73 0.930 . S
C54 C55 1.474 . S
C54 C56 1.285 . S
C54 H74 0.929 . S
C55 C52 1.461 . S
C55 C54 1.474 . S
C56 C51 1.342 . S
C56 C54 1.285 . S
C56 H75 0.930 . S
C57 C60 1.424 . S
C57 C62 1.245 . S
C57 C63 1.428 . S
C58 C61 1.260 . S
C58 C62 1.477 . S
C58 H76 0.932 . S
C59 C60 1.384 . S
C59 C61 1.479 . S
C59 H77 0.929 . S
C60 C57 1.424 . S
C60 C59 1.384 . S
C60 H78 0.928 . S
C61 C58 1.260 . S
C61 C59 1.479 . S
C62 C57 1.245 . S
C62 C58 1.477 . S
C62 H79 0.932 . S
C63 U46 2.882 . S
C63 C57 1.428 . S
C63 O66 1.301 . S
C63 O67 1.282 . S
O64 U46 2.441 . S
O64 C50 1.249 . S
O65 U46 2.420 . S
O65 C50 1.202 . S
O66 U46 2.455 . S
O66 C63 1.301 . S
O67 U46 2.449 . S
O67 C63 1.282 . S
H68 C41 0.931 . S
H69 C43 0.929 . S
H70 C44 0.930 . S
H71 C45 0.931 . S
H72 C52 0.932 . S
H73 C53 0.930 . S
H74 C54 0.929 . S
H75 C56 0.930 . S
H76 C58 0.932 . S
H77 C59 0.929 . S
H78 C60 0.928 . S
H79 C62 0.932 . S
C80 C81 1.264 . S
C80 C85 1.479 . S
C80 C90 1.465 . S
C81 C80 1.264 . S
C81 C83 1.339 . S
C81 H108 0.931 . S
C82 C83 1.395 . S
C82 C84 1.320 . S
C83 C81 1.339 . S
C83 C82 1.395 . S
C83 H109 0.929 . S
C84 C82 1.320 . S
C84 C85 1.405 . S
C84 H110 0.930 . S
C85 C80 1.479 . S
C85 C84 1.405 . S
C85 H111 0.931 . S
U86 O87 2.454 . S
U86 O88 2.458 . S
U86 C89 2.984 . S
U86 C90 2.847 . S
U86 C103 2.882 . S
U86 O104 2.441 . S
U86 O105 2.420 . S
U86 O106 2.455 . S
U86 O107 2.449 . S
O87 U86 2.454 . S
O87 C89 1.353 . S
O88 U86 2.458 . S
O88 C89 1.286 . S
C89 U86 2.984 . S
C89 O87 1.353 . S
C89 O88 1.286 . S
C89 C91 1.363 . S
C90 C80 1.465 . S
C90 U86 2.847 . S
C90 O104 1.249 . S
C90 O105 1.202 . S
C91 C89 1.363 . S
C91 C93 1.408 . S
C91 C96 1.342 . S
C92 C93 1.310 . S
C92 C95 1.461 . S
C92 H112 0.932 . S
C93 C91 1.408 . S
C93 C92 1.310 . S
C93 H113 0.930 . S
C94 C95 1.474 . S
C94 C96 1.285 . S
C94 H114 0.929 . S
C95 C92 1.461 . S
C95 C94 1.474 . S
C96 C91 1.342 . S
C96 C94 1.285 . S
C96 H115 0.930 . S
C97 C100 1.424 . S
C97 C102 1.245 . S
C97 C103 1.428 . S
C98 C101 1.260 . S
C98 C102 1.477 . S
C98 H116 0.932 . S
C99 C100 1.384 . S
C99 C101 1.479 . S
C99 H117 0.929 . S
C100 C97 1.424 . S
C100 C99 1.384 . S
C100 H118 0.928 . S
C101 C98 1.260 . S
C101 C99 1.479 . S
C102 C97 1.245 . S
C102 C98 1.477 . S
C102 H119 0.932 . S
C103 U86 2.882 . S
C103 C97 1.428 . S
C103 O106 1.301 . S
C103 O107 1.282 . S
O104 U86 2.441 . S
O104 C90 1.249 . S
O105 U86 2.420 . S
O105 C90 1.202 . S
O106 U86 2.455 . S
O106 C103 1.301 . S
O107 U86 2.449 . S
O107 C103 1.282 . S
H108 C81 0.931 . S
H109 C83 0.929 . S
H110 C84 0.930 . S
H111 C85 0.931 . S
H112 C92 0.932 . S
H113 C93 0.930 . S
H114 C94 0.929 . S
H115 C96 0.930 . S
H116 C98 0.932 . S
H117 C99 0.929 . S
H118 C100 0.928 . S
H119 C102 0.932 . S
C120 C121 1.264 . S
C120 C125 1.479 . S
C120 C130 1.465 . S
C121 C120 1.264 . S
C121 C123 1.339 . S
C121 H148 0.931 . S
C122 C123 1.395 . S
C122 C124 1.320 . S
C123 C121 1.339 . S
C123 C122 1.395 . S
C123 H149 0.929 . S
C124 C122 1.320 . S
C124 C125 1.405 . S
C124 H150 0.930 . S
C125 C120 1.479 . S
C125 C124 1.405 . S
C125 H151 0.931 . S
U126 O127 2.454 . S
U126 O128 2.458 . S
U126 C129 2.984 . S
U126 C130 2.847 . S
U126 C143 2.882 . S
U126 O144 2.441 . S
U126 O145 2.420 . S
U126 O146 2.455 . S
U126 O147 2.449 . S
O127 U126 2.454 . S
O127 C129 1.353 . S
O128 U126 2.458 . S
O128 C129 1.286 . S
C129 U126 2.984 . S
C129 O127 1.353 . S
C129 O128 1.286 . S
C129 C131 1.363 . S
C130 C120 1.465 . S
C130 U126 2.847 . S
C130 O144 1.249 . S
C130 O145 1.202 . S
C131 C129 1.363 . S
C131 C133 1.408 . S
C131 C136 1.342 . S
C132 C133 1.310 . S
C132 C135 1.461 . S
C132 H152 0.932 . S
C133 C131 1.408 . S
C133 C132 1.310 . S
C133 H153 0.930 . S
C134 C135 1.474 . S
C134 C136 1.285 . S
C134 H154 0.929 . S
C135 C132 1.461 . S
C135 C134 1.474 . S
C136 C131 1.342 . S
C136 C134 1.285 . S
C136 H155 0.930 . S
C137 C140 1.424 . S
C137 C142 1.245 . S
C137 C143 1.428 . S
C138 C141 1.260 . S
C138 C142 1.477 . S
C138 H156 0.932 . S
C139 C140 1.384 . S
C139 C141 1.479 . S
C139 H157 0.929 . S
C140 C137 1.424 . S
C140 C139 1.384 . S
C140 H158 0.928 . S
C141 C138 1.260 . S
C141 C139 1.479 . S
C142 C137 1.245 . S
C142 C138 1.477 . S
C142 H159 0.932 . S
C143 U126 2.882 . S
C143 C137 1.428 . S
C143 O146 1.301 . S
C143 O147 1.282 . S
O144 U126 2.441 . S
O144 C130 1.249 . S
O145 U126 2.420 . S
O145 C130 1.202 . S
O146 U126 2.455 . S
O146 C143 1.301 . S
O147 U126 2.449 . S
O147 C143 1.282 . S
H148 C121 0.931 . S
H149 C123 0.929 . S
H150 C124 0.930 . S
H151 C125 0.931 . S
H152 C132 0.932 . S
H153 C133 0.930 . S
H154 C134 0.929 . S
H155 C136 0.930 . S
H156 C138 0.932 . S
H157 C139 0.929 . S
H158 C140 0.928 . S
H159 C142 0.932 . S
C160 C161 1.264 . S
C160 C165 1.479 . S
C160 C170 1.465 . S
C161 C160 1.264 . S
C161 C163 1.339 . S
C161 H188 0.931 . S
C162 C163 1.395 . S
C162 C164 1.320 . S
C163 C161 1.339 . S
C163 C162 1.395 . S
C163 H189 0.929 . S
C164 C162 1.320 . S
C164 C165 1.405 . S
C164 H190 0.930 . S
C165 C160 1.479 . S
C165 C164 1.405 . S
C165 H191 0.931 . S
U166 O167 2.454 . S
U166 O168 2.458 . S
U166 C169 2.984 . S
U166 C170 2.847 . S
U166 C183 2.882 . S
U166 O184 2.441 . S
U166 O185 2.420 . S
U166 O186 2.455 . S
U166 O187 2.449 . S
O167 U166 2.454 . S
O167 C169 1.353 . S
O168 U166 2.458 . S
O168 C169 1.286 . S
C169 U166 2.984 . S
C169 O167 1.353 . S
C169 O168 1.286 . S
C169 C171 1.363 . S
C170 C160 1.465 . S
C170 U166 2.847 . S
C170 O184 1.249 . S
C170 O185 1.202 . S
C171 C169 1.363 . S
C171 C173 1.408 . S
C171 C176 1.342 . S
C172 C173 1.310 . S
C172 C175 1.461 . S
C172 H192 0.932 . S
C173 C171 1.408 . S
C173 C172 1.310 . S
C173 H193 0.930 . S
C174 C175 1.474 . S
C174 C176 1.285 . S
C174 H194 0.929 . S
C175 C172 1.461 . S
C175 C174 1.474 . S
C176 C171 1.342 . S
C176 C174 1.285 . S
C176 H195 0.930 . S
C177 C180 1.424 . S
C177 C182 1.245 . S
C177 C183 1.428 . S
C178 C181 1.260 . S
C178 C182 1.477 . S
C178 H196 0.932 . S
C179 C180 1.384 . S
C179 C181 1.479 . S
C179 H197 0.929 . S
C180 C177 1.424 . S
C180 C179 1.384 . S
C180 H198 0.928 . S
C181 C178 1.260 . S
C181 C179 1.479 . S
C182 C177 1.245 . S
C182 C178 1.477 . S
C182 H199 0.932 . S
C183 U166 2.882 . S
C183 C177 1.428 . S
C183 O186 1.301 . S
C183 O187 1.282 . S
O184 U166 2.441 . S
O184 C170 1.249 . S
O185 U166 2.420 . S
O185 C170 1.202 . S
O186 U166 2.455 . S
O186 C183 1.301 . S
O187 U166 2.449 . S
O187 C183 1.282 . S
H188 C161 0.931 . S
H189 C163 0.929 . S
H190 C164 0.930 . S
H191 C165 0.931 . S
H192 C172 0.932 . S
H193 C173 0.930 . S
H194 C174 0.929 . S
H195 C176 0.930 . S
H196 C178 0.932 . S
H197 C179 0.929 . S
H198 C180 0.928 . S
H199 C182 0.932 . S
C200 C201 1.264 . S
C200 C205 1.479 . S
C200 C210 1.465 . S
C201 C200 1.264 . S
C201 C203 1.339 . S
C201 H228 0.931 . S
C202 C203 1.395 . S
C202 C204 1.320 . S
C203 C201 1.339 . S
C203 C202 1.395 . S
C203 H229 0.929 . S
C204 C202 1.320 . S
C204 C205 1.405 . S
C204 H230 0.930 . S
C205 C200 1.479 . S
C205 C204 1.405 . S
C205 H231 0.931 . S
U206 O207 2.454 . S
U206 O208 2.458 . S
U206 C209 2.984 . S
U206 C210 2.847 . S
U206 C223 2.882 . S
U206 O224 2.441 . S
U206 O225 2.420 . S
U206 O226 2.455 . S
U206 O227 2.449 . S
O207 U206 2.454 . S
O207 C209 1.353 . S
O208 U206 2.458 . S
O208 C209 1.286 . S
C209 U206 2.984 . S
C209 O207 1.353 . S
C209 O208 1.286 . S
C209 C211 1.363 . S
C210 C200 1.465 . S
C210 U206 2.847 . S
C210 O224 1.249 . S
C210 O225 1.202 . S
C211 C209 1.363 . S
C211 C213 1.408 . S
C211 C216 1.342 . S
C212 C213 1.310 . S
C212 C215 1.461 . S
C212 H232 0.932 . S
C213 C211 1.408 . S
C213 C212 1.310 . S
C213 H233 0.930 . S
C214 C215 1.474 . S
C214 C216 1.285 . S
C214 H234 0.929 . S
C215 C212 1.461 . S
C215 C214 1.474 . S
C216 C211 1.342 . S
C216 C214 1.285 . S
C216 H235 0.930 . S
C217 C220 1.424 . S
C217 C222 1.245 . S
C217 C223 1.428 . S
C218 C221 1.260 . S
C218 C222 1.477 . S
C218 H236 0.932 . S
C219 C220 1.384 . S
C219 C221 1.479 . S
C219 H237 0.929 . S
C220 C217 1.424 . S
C220 C219 1.384 . S
C220 H238 0.928 . S
C221 C218 1.260 . S
C221 C219 1.479 . S
C222 C217 1.245 . S
C222 C218 1.477 . S
C222 H239 0.932 . S
C223 U206 2.882 . S
C223 C217 1.428 . S
C223 O226 1.301 . S
C223 O227 1.282 . S
O224 U206 2.441 . S
O224 C210 1.249 . S
O225 U206 2.420 . S
O225 C210 1.202 . S
O226 U206 2.455 . S
O226 C223 1.301 . S
O227 U206 2.449 . S
O227 C223 1.282 . S
H228 C201 0.931 . S
H229 C203 0.929 . S
H230 C204 0.930 . S
H231 C205 0.931 . S
H232 C212 0.932 . S
H233 C213 0.930 . S
H234 C214 0.929 . S
H235 C216 0.930 . S
H236 C218 0.932 . S
H237 C219 0.929 . S
H238 C220 0.928 . S
H239 C222 0.932 . S
C240 C241 1.264 . S
C240 C245 1.479 . S
C240 C250 1.465 . S
C241 C240 1.264 . S
C241 C243 1.339 . S
C241 H268 0.931 . S
C242 C243 1.395 . S
C242 C244 1.320 . S
C243 C241 1.339 . S
C243 C242 1.395 . S
C243 H269 0.929 . S
C244 C242 1.320 . S
C244 C245 1.405 . S
C244 H270 0.930 . S
C245 C240 1.479 . S
C245 C244 1.405 . S
C245 H271 0.931 . S
U246 O247 2.454 . S
U246 O248 2.458 . S
U246 C249 2.984 . S
U246 C250 2.847 . S
U246 C263 2.882 . S
U246 O264 2.441 . S
U246 O265 2.420 . S
U246 O266 2.455 . S
U246 O267 2.449 . S
O247 U246 2.454 . S
O247 C249 1.353 . S
O248 U246 2.458 . S
O248 C249 1.286 . S
C249 U246 2.984 . S
C249 O247 1.353 . S
C249 O248 1.286 . S
C249 C251 1.363 . S
C250 C240 1.465 . S
C250 U246 2.847 . S
C250 O264 1.249 . S
C250 O265 1.202 . S
C251 C249 1.363 . S
C251 C253 1.408 . S
C251 C256 1.342 . S
C252 C253 1.310 . S
C252 C255 1.461 . S
C252 H272 0.932 . S
C253 C251 1.408 . S
C253 C252 1.310 . S
C253 H273 0.930 . S
C254 C255 1.474 . S
C254 C256 1.285 . S
C254 H274 0.929 . S
C255 C252 1.461 . S
C255 C254 1.474 . S
C256 C251 1.342 . S
C256 C254 1.285 . S
C256 H275 0.930 . S
C257 C260 1.424 . S
C257 C262 1.245 . S
C257 C263 1.428 . S
C258 C261 1.260 . S
C258 C262 1.477 . S
C258 H276 0.932 . S
C259 C260 1.384 . S
C259 C261 1.479 . S
C259 H277 0.929 . S
C260 C257 1.424 . S
C260 C259 1.384 . S
C260 H278 0.928 . S
C261 C258 1.260 . S
C261 C259 1.479 . S
C262 C257 1.245 . S
C262 C258 1.477 . S
C262 H279 0.932 . S
C263 U246 2.882 . S
C263 C257 1.428 . S
C263 O266 1.301 . S
C263 O267 1.282 . S
O264 U246 2.441 . S
O264 C250 1.249 . S
O265 U246 2.420 . S
O265 C250 1.202 . S
O266 U246 2.455 . S
O266 C263 1.301 . S
O267 U246 2.449 . S
O267 C263 1.282 . S
H268 C241 0.931 . S
H269 C243 0.929 . S
H270 C244 0.930 . S
H271 C245 0.931 . S
H272 C252 0.932 . S
H273 C253 0.930 . S
H274 C254 0.929 . S
H275 C256 0.930 . S
H276 C258 0.932 . S
H277 C259 0.929 . S
H278 C260 0.928 . S
H279 C262 0.932 . S
C280 C281 1.264 . S
C280 C285 1.479 . S
C280 C290 1.465 . S
C281 C280 1.264 . S
C281 C283 1.339 . S
C281 H308 0.931 . S
C282 C283 1.395 . S
C282 C284 1.320 . S
C283 C281 1.339 . S
C283 C282 1.395 . S
C283 H309 0.929 . S
C284 C282 1.320 . S
C284 C285 1.405 . S
C284 H310 0.930 . S
C285 C280 1.479 . S
C285 C284 1.405 . S
C285 H311 0.931 . S
U286 O287 2.454 . S
U286 O288 2.458 . S
U286 C289 2.984 . S
U286 C290 2.847 . S
U286 C303 2.882 . S
U286 O304 2.441 . S
U286 O305 2.420 . S
U286 O306 2.455 . S
U286 O307 2.449 . S
O287 U286 2.454 . S
O287 C289 1.353 . S
O288 U286 2.458 . S
O288 C289 1.286 . S
C289 U286 2.984 . S
C289 O287 1.353 . S
C289 O288 1.286 . S
C289 C291 1.363 . S
C290 C280 1.465 . S
C290 U286 2.847 . S
C290 O304 1.249 . S
C290 O305 1.202 . S
C291 C289 1.363 . S
C291 C293 1.408 . S
C291 C296 1.342 . S
C292 C293 1.310 . S
C292 C295 1.461 . S
C292 H312 0.932 . S
C293 C291 1.408 . S
C293 C292 1.310 . S
C293 H313 0.930 . S
C294 C295 1.474 . S
C294 C296 1.285 . S
C294 H314 0.929 . S
C295 C292 1.461 . S
C295 C294 1.474 . S
C296 C291 1.342 . S
C296 C294 1.285 . S
C296 H315 0.930 . S
C297 C300 1.424 . S
C297 C302 1.245 . S
C297 C303 1.428 . S
C298 C301 1.260 . S
C298 C302 1.477 . S
C298 H316 0.932 . S
C299 C300 1.384 . S
C299 C301 1.479 . S
C299 H317 0.929 . S
C300 C297 1.424 . S
C300 C299 1.384 . S
C300 H318 0.928 . S
C301 C298 1.260 . S
C301 C299 1.479 . S
C302 C297 1.245 . S
C302 C298 1.477 . S
C302 H319 0.932 . S
C303 U286 2.882 . S
C303 C297 1.428 . S
C303 O306 1.301 . S
C303 O307 1.282 . S
O304 U286 2.441 . S
O304 C290 1.249 . S
O305 U286 2.420 . S
O305 C290 1.202 . S
O306 U286 2.455 . S
O306 C303 1.301 . S
O307 U286 2.449 . S
O307 C303 1.282 . S
H308 C281 0.931 . S
H309 C283 0.929 . S
H310 C284 0.930 . S
H311 C285 0.931 . S
H312 C292 0.932 . S
H313 C293 0.930 . S
H314 C294 0.929 . S
H315 C296 0.930 . S
H316 C298 0.932 . S
H317 C299 0.929 . S
H318 C300 0.928 . S
H319 C302 0.932 . S
C320 C321 1.264 . S
C320 C325 1.479 . S
C320 C330 1.465 . S
C321 C320 1.264 . S
C321 C323 1.339 . S
C321 H348 0.931 . S
C322 C323 1.395 . S
C322 C324 1.320 . S
C323 C321 1.339 . S
C323 C322 1.395 . S
C323 H349 0.929 . S
C324 C322 1.320 . S
C324 C325 1.405 . S
C324 H350 0.930 . S
C325 C320 1.479 . S
C325 C324 1.405 . S
C325 H351 0.931 . S
U326 O327 2.454 . S
U326 O328 2.458 . S
U326 C329 2.984 . S
U326 C330 2.847 . S
U326 C343 2.882 . S
U326 O344 2.441 . S
U326 O345 2.420 . S
U326 O346 2.455 . S
U326 O347 2.449 . S
O327 U326 2.454 . S
O327 C329 1.353 . S
O328 U326 2.458 . S
O328 C329 1.286 . S
C329 U326 2.984 . S
C329 O327 1.353 . S
C329 O328 1.286 . S
C329 C331 1.363 . S
C330 C320 1.465 . S
C330 U326 2.847 . S
C330 O344 1.249 . S
C330 O345 1.202 . S
C331 C329 1.363 . S
C331 C333 1.408 . S
C331 C336 1.342 . S
C332 C333 1.310 . S
C332 C335 1.461 . S
C332 H352 0.932 . S
C333 C331 1.408 . S
C333 C332 1.310 . S
C333 H353 0.930 . S
C334 C335 1.474 . S
C334 C336 1.285 . S
C334 H354 0.929 . S
C335 C332 1.461 . S
C335 C334 1.474 . S
C336 C331 1.342 . S
C336 C334 1.285 . S
C336 H355 0.930 . S
C337 C340 1.424 . S
C337 C342 1.245 . S
C337 C343 1.428 . S
C338 C341 1.260 . S
C338 C342 1.477 . S
C338 H356 0.932 . S
C339 C340 1.384 . S
C339 C341 1.479 . S
C339 H357 0.929 . S
C340 C337 1.424 . S
C340 C339 1.384 . S
C340 H358 0.928 . S
C341 C338 1.260 . S
C341 C339 1.479 . S
C342 C337 1.245 . S
C342 C338 1.477 . S
C342 H359 0.932 . S
C343 U326 2.882 . S
C343 C337 1.428 . S
C343 O346 1.301 . S
C343 O347 1.282 . S
O344 U326 2.441 . S
O344 C330 1.249 . S
O345 U326 2.420 . S
O345 C330 1.202 . S
O346 U326 2.455 . S
O346 C343 1.301 . S
O347 U326 2.449 . S
O347 C343 1.282 . S
H348 C321 0.931 . S
H349 C323 0.929 . S
H350 C324 0.930 . S
H351 C325 0.931 . S
H352 C332 0.932 . S
H353 C333 0.930 . S
H354 C334 0.929 . S
H355 C336 0.930 . S
H356 C338 0.932 . S
H357 C339 0.929 . S
H358 C340 0.928 . S
H359 C342 0.932 . S
C360 C361 1.264 . S
C360 C365 1.479 . S
C360 C370 1.465 . S
C361 C360 1.264 . S
C361 C363 1.339 . S
C361 H388 0.931 . S
C362 C363 1.395 . S
C362 C364 1.320 . S
C363 C361 1.339 . S
C363 C362 1.395 . S
C363 H389 0.929 . S
C364 C362 1.320 . S
C364 C365 1.405 . S
C364 H390 0.930 . S
C365 C360 1.479 . S
C365 C364 1.405 . S
C365 H391 0.931 . S
U366 O367 2.454 . S
U366 O368 2.458 . S
U366 C369 2.984 . S
U366 C370 2.847 . S
U366 C383 2.882 . S
U366 O384 2.441 . S
U366 O385 2.420 . S
U366 O386 2.455 . S
U366 O387 2.449 . S
O367 U366 2.454 . S
O367 C369 1.353 . S
O368 U366 2.458 . S
O368 C369 1.286 . S
C369 U366 2.984 . S
C369 O367 1.353 . S
C369 O368 1.286 . S
C369 C371 1.363 . S
C370 C360 1.465 . S
C370 U366 2.847 . S
C370 O384 1.249 . S
C370 O385 1.202 . S
C371 C369 1.363 . S
C371 C373 1.408 . S
C371 C376 1.342 . S
C372 C373 1.310 . S
C372 C375 1.461 . S
C372 H392 0.932 . S
C373 C371 1.408 . S
C373 C372 1.310 . S
C373 H393 0.930 . S
C374 C375 1.474 . S
C374 C376 1.285 . S
C374 H394 0.929 . S
C375 C372 1.461 . S
C375 C374 1.474 . S
C376 C371 1.342 . S
C376 C374 1.285 . S
C376 H395 0.930 . S
C377 C380 1.424 . S
C377 C382 1.245 . S
C377 C383 1.428 . S
C378 C381 1.260 . S
C378 C382 1.477 . S
C378 H396 0.932 . S
C379 C380 1.384 . S
C379 C381 1.479 . S
C379 H397 0.929 . S
C380 C377 1.424 . S
C380 C379 1.384 . S
C380 H398 0.928 . S
C381 C378 1.260 . S
C381 C379 1.479 . S
C382 C377 1.245 . S
C382 C378 1.477 . S
C382 H399 0.932 . S
C383 U366 2.882 . S
C383 C377 1.428 . S
C383 O386 1.301 . S
C383 O387 1.282 . S
O384 U366 2.441 . S
O384 C370 1.249 . S
O385 U366 2.420 . S
O385 C370 1.202 . S
O386 U366 2.455 . S
O386 C383 1.301 . S
O387 U366 2.449 . S
O387 C383 1.282 . S
H388 C361 0.931 . S
H389 C363 0.929 . S
H390 C364 0.930 . S
H391 C365 0.931 . S
H392 C372 0.932 . S
H393 C373 0.930 . S
H394 C374 0.929 . S
H395 C376 0.930 . S
H396 C378 0.932 . S
H397 C379 0.929 . S
H398 C380 0.928 . S
H399 C382 0.932 . S
C400 C401 1.264 . S
C400 C405 1.479 . S
C400 C410 1.465 . S
C401 C400 1.264 . S
C401 C403 1.339 . S
C401 H428 0.931 . S
C402 C403 1.395 . S
C402 C404 1.320 . S
C403 C401 1.339 . S
C403 C402 1.395 . S
C403 H429 0.929 . S
C404 C402 1.320 . S
C404 C405 1.405 . S
C404 H430 0.930 . S
C405 C400 1.479 . S
C405 C404 1.405 . S
C405 H431 0.931 . S
U406 O407 2.454 . S
U406 O408 2.458 . S
U406 C409 2.984 . S
U406 C410 2.847 . S
U406 C423 2.882 . S
U406 O424 2.441 . S
U406 O425 2.420 . S
U406 O426 2.455 . S
U406 O427 2.449 . S
O407 U406 2.454 . S
O407 C409 1.353 . S
O408 U406 2.458 . S
O408 C409 1.286 . S
C409 U406 2.984 . S
C409 O407 1.353 . S
C409 O408 1.286 . S
C409 C411 1.363 . S
C410 C400 1.465 . S
C410 U406 2.847 . S
C410 O424 1.249 . S
C410 O425 1.202 . S
C411 C409 1.363 . S
C411 C413 1.408 . S
C411 C416 1.342 . S
C412 C413 1.310 . S
C412 C415 1.461 . S
C412 H432 0.932 . S
C413 C411 1.408 . S
C413 C412 1.310 . S
C413 H433 0.930 . S
C414 C415 1.474 . S
C414 C416 1.285 . S
C414 H434 0.929 . S
C415 C412 1.461 . S
C415 C414 1.474 . S
C416 C411 1.342 . S
C416 C414 1.285 . S
C416 H435 0.930 . S
C417 C420 1.424 . S
C417 C422 1.245 . S
C417 C423 1.428 . S
C418 C421 1.260 . S
C418 C422 1.477 . S
C418 H436 0.932 . S
C419 C420 1.384 . S
C419 C421 1.479 . S
C419 H437 0.929 . S
C420 C417 1.424 . S
C420 C419 1.384 . S
C420 H438 0.928 . S
C421 C418 1.260 . S
C421 C419 1.479 . S
C422 C417 1.245 . S
C422 C418 1.477 . S
C422 H439 0.932 . S
C423 U406 2.882 . S
C423 C417 1.428 . S
C423 O426 1.301 . S
C423 O427 1.282 . S
O424 U406 2.441 . S
O424 C410 1.249 . S
O425 U406 2.420 . S
O425 C410 1.202 . S
O426 U406 2.455 . S
O426 C423 1.301 . S
O427 U406 2.449 . S
O427 C423 1.282 . S
H428 C401 0.931 . S
H429 C403 0.929 . S
H430 C404 0.930 . S
H431 C405 0.931 . S
H432 C412 0.932 . S
H433 C413 0.930 . S
H434 C414 0.929 . S
H435 C416 0.930 . S
H436 C418 0.932 . S
H437 C419 0.929 . S
H438 C420 0.928 . S
H439 C422 0.932 . S
C440 C441 1.264 . S
C440 C445 1.479 . S
C440 C450 1.465 . S
C441 C440 1.264 . S
C441 C443 1.339 . S
C441 H468 0.931 . S
C442 C443 1.395 . S
C442 C444 1.320 . S
C443 C441 1.339 . S
C443 C442 1.395 . S
C443 H469 0.929 . S
C444 C442 1.320 . S
C444 C445 1.405 . S
C444 H470 0.930 . S
C445 C440 1.479 . S
C445 C444 1.405 . S
C445 H471 0.931 . S
U446 O447 2.454 . S
U446 O448 2.458 . S
U446 C449 2.984 . S
U446 C450 2.847 . S
U446 C463 2.882 . S
U446 O464 2.441 . S
U446 O465 2.420 . S
U446 O466 2.455 . S
U446 O467 2.449 . S
O447 U446 2.454 . S
O447 C449 1.353 . S
O448 U446 2.458 . S
O448 C449 1.286 . S
C449 U446 2.984 . S
C449 O447 1.353 . S
C449 O448 1.286 . S
C449 C451 1.363 . S
C450 C440 1.465 . S
C450 U446 2.847 . S
C450 O464 1.249 . S
C450 O465 1.202 . S
C451 C449 1.363 . S
C451 C453 1.408 . S
C451 C456 1.342 . S
C452 C453 1.310 . S
C452 C455 1.461 . S
C452 H472 0.932 . S
C453 C451 1.408 . S
C453 C452 1.310 . S
C453 H473 0.930 . S
C454 C455 1.474 . S
C454 C456 1.285 . S
C454 H474 0.929 . S
C455 C452 1.461 . S
C455 C454 1.474 . S
C456 C451 1.342 . S
C456 C454 1.285 . S
C456 H475 0.930 . S
C457 C460 1.424 . S
C457 C462 1.245 . S
C457 C463 1.428 . S
C458 C461 1.260 . S
C458 C462 1.477 . S
C458 H476 0.932 . S
C459 C460 1.384 . S
C459 C461 1.479 . S
C459 H477 0.929 . S
C460 C457 1.424 . S
C460 C459 1.384 . S
C460 H478 0.928 . S
C461 C458 1.260 . S
C461 C459 1.479 . S
C462 C457 1.245 . S
C462 C458 1.477 . S
C462 H479 0.932 . S
C463 U446 2.882 . S
C463 C457 1.428 . S
C463 O466 1.301 . S
C463 O467 1.282 . S
O464 U446 2.441 . S
O464 C450 1.249 . S
O465 U446 2.420 . S
O465 C450 1.202 . S
O466 U446 2.455 . S
O466 C463 1.301 . S
O467 U446 2.449 . S
O467 C463 1.282 . S
H468 C441 0.931 . S
H469 C443 0.929 . S
H470 C444 0.930 . S
H471 C445 0.931 . S
H472 C452 0.932 . S
H473 C453 0.930 . S
H474 C454 0.929 . S
H475 C456 0.930 . S
H476 C458 0.932 . S
H477 C459 0.929 . S
H478 C460 0.928 . S
H479 C462 0.932 . S
C480 C481 1.264 . S
C480 C485 1.479 . S
C480 C490 1.465 . S
C481 C480 1.264 . S
C481 C483 1.339 . S
C481 H508 0.931 . S
C482 C483 1.395 . S
C482 C484 1.320 . S
C483 C481 1.339 . S
C483 C482 1.395 . S
C483 H509 0.929 . S
C484 C482 1.320 . S
C484 C485 1.405 . S
C484 H510 0.930 . S
C485 C480 1.479 . S
C485 C484 1.405 . S
C485 H511 0.931 . S
U486 O487 2.454 . S
U486 O488 2.458 . S
U486 C489 2.984 . S
U486 C490 2.847 . S
U486 C503 2.882 . S
U486 O504 2.441 . S
U486 O505 2.420 . S
U486 O506 2.455 . S
U486 O507 2.449 . S
O487 U486 2.454 . S
O487 C489 1.353 . S
O488 U486 2.458 . S
O488 C489 1.286 . S
C489 U486 2.984 . S
C489 O487 1.353 . S
C489 O488 1.286 . S
C489 C491 1.363 . S
C490 C480 1.465 . S
C490 U486 2.847 . S
C490 O504 1.249 . S
C490 O505 1.202 . S
C491 C489 1.363 . S
C491 C493 1.408 . S
C491 C496 1.342 . S
C492 C493 1.310 . S
C492 C495 1.461 . S
C492 H512 0.932 . S
C493 C491 1.408 . S
C493 C492 1.310 . S
C493 H513 0.930 . S
C494 C495 1.474 . S
C494 C496 1.285 . S
C494 H514 0.929 . S
C495 C492 1.461 . S
C495 C494 1.474 . S
C496 C491 1.342 . S
C496 C494 1.285 . S
C496 H515 0.930 . S
C497 C500 1.424 . S
C497 C502 1.245 . S
C497 C503 1.428 . S
C498 C501 1.260 . S
C498 C502 1.477 . S
C498 H516 0.932 . S
C499 C500 1.384 . S
C499 C501 1.479 . S
C499 H517 0.929 . S
C500 C497 1.424 . S
C500 C499 1.384 . S
C500 H518 0.928 . S
C501 C498 1.260 . S
C501 C499 1.479 . S
C502 C497 1.245 . S
C502 C498 1.477 . S
C502 H519 0.932 . S
C503 U486 2.882 . S
C503 C497 1.428 . S
C503 O506 1.301 . S
C503 O507 1.282 . S
O504 U486 2.441 . S
O504 C490 1.249 . S
O505 U486 2.420 . S
O505 C490 1.202 . S
O506 U486 2.455 . S
O506 C503 1.301 . S
O507 U486 2.449 . S
O507 C503 1.282 . S
H508 C481 0.931 . S
H509 C483 0.929 . S
H510 C484 0.930 . S
H511 C485 0.931 . S
H512 C492 0.932 . S
H513 C493 0.930 . S
H514 C494 0.929 . S
H515 C496 0.930 . S
H516 C498 0.932 . S
H517 C499 0.929 . S
H518 C500 0.928 . S
H519 C502 0.932 . S
C520 C521 1.264 . S
C520 C525 1.479 . S
C520 C530 1.465 . S
C521 C520 1.264 . S
C521 C523 1.339 . S
C521 H548 0.931 . S
C522 C523 1.395 . S
C522 C524 1.320 . S
C523 C521 1.339 . S
C523 C522 1.395 . S
C523 H549 0.929 . S
C524 C522 1.320 . S
C524 C525 1.405 . S
C524 H550 0.930 . S
C525 C520 1.479 . S
C525 C524 1.405 . S
C525 H551 0.931 . S
U526 O527 2.454 . S
U526 O528 2.458 . S
U526 C529 2.984 . S
U526 C530 2.847 . S
U526 C543 2.882 . S
U526 O544 2.441 . S
U526 O545 2.420 . S
U526 O546 2.455 . S
U526 O547 2.449 . S
O527 U526 2.454 . S
O527 C529 1.353 . S
O528 U526 2.458 . S
O528 C529 1.286 . S
C529 U526 2.984 . S
C529 O527 1.353 . S
C529 O528 1.286 . S
C529 C531 1.363 . S
C530 C520 1.465 . S
C530 U526 2.847 . S
C530 O544 1.249 . S
C530 O545 1.202 . S
C531 C529 1.363 . S
C531 C533 1.408 . S
C531 C536 1.342 . S
C532 C533 1.310 . S
C532 C535 1.461 . S
C532 H552 0.932 . S
C533 C531 1.408 . S
C533 C532 1.310 . S
C533 H553 0.930 . S
C534 C535 1.474 . S
C534 C536 1.285 . S
C534 H554 0.929 . S
C535 C532 1.461 . S
C535 C534 1.474 . S
C536 C531 1.342 . S
C536 C534 1.285 . S
C536 H555 0.930 . S
C537 C540 1.424 . S
C537 C542 1.245 . S
C537 C543 1.428 . S
C538 C541 1.260 . S
C538 C542 1.477 . S
C538 H556 0.932 . S
C539 C540 1.384 . S
C539 C541 1.479 . S
C539 H557 0.929 . S
C540 C537 1.424 . S
C540 C539 1.384 . S
C540 H558 0.928 . S
C541 C538 1.260 . S
C541 C539 1.479 . S
C542 C537 1.245 . S
C542 C538 1.477 . S
C542 H559 0.932 . S
C543 U526 2.882 . S
C543 C537 1.428 . S
C543 O546 1.301 . S
C543 O547 1.282 . S
O544 U526 2.441 . S
O544 C530 1.249 . S
O545 U526 2.420 . S
O545 C530 1.202 . S
O546 U526 2.455 . S
O546 C543 1.301 . S
O547 U526 2.449 . S
O547 C543 1.282 . S
H548 C521 0.931 . S
H549 C523 0.929 . S
H550 C524 0.930 . S
H551 C525 0.931 . S
H552 C532 0.932 . S
H553 C533 0.930 . S
H554 C534 0.929 . S
H555 C536 0.930 . S
H556 C538 0.932 . S
H557 C539 0.929 . S
H558 C540 0.928 . S
H559 C542 0.932 . S
C560 C561 1.264 . S
C560 C565 1.479 . S
C560 C570 1.465 . S
C561 C560 1.264 . S
C561 C563 1.339 . S
C561 H588 0.931 . S
C562 C563 1.395 . S
C562 C564 1.320 . S
C563 C561 1.339 . S
C563 C562 1.395 . S
C563 H589 0.929 . S
C564 C562 1.320 . S
C564 C565 1.405 . S
C564 H590 0.930 . S
C565 C560 1.479 . S
C565 C564 1.405 . S
C565 H591 0.931 . S
U566 O567 2.454 . S
U566 O568 2.458 . S
U566 C569 2.984 . S
U566 C570 2.847 . S
U566 C583 2.882 . S
U566 O584 2.441 . S
U566 O585 2.420 . S
U566 O586 2.455 . S
U566 O587 2.449 . S
O567 U566 2.454 . S
O567 C569 1.353 . S
O568 U566 2.458 . S
O568 C569 1.286 . S
C569 U566 2.984 . S
C569 O567 1.353 . S
C569 O568 1.286 . S
C569 C571 1.363 . S
C570 C560 1.465 . S
C570 U566 2.847 . S
C570 O584 1.249 . S
C570 O585 1.202 . S
C571 C569 1.363 . S
C571 C573 1.408 . S
C571 C576 1.342 . S
C572 C573 1.310 . S
C572 C575 1.461 . S
C572 H592 0.932 . S
C573 C571 1.408 . S
C573 C572 1.310 . S
C573 H593 0.930 . S
C574 C575 1.474 . S
C574 C576 1.285 . S
C574 H594 0.929 . S
C575 C572 1.461 . S
C575 C574 1.474 . S
C576 C571 1.342 . S
C576 C574 1.285 . S
C576 H595 0.930 . S
C577 C580 1.424 . S
C577 C582 1.245 . S
C577 C583 1.428 . S
C578 C581 1.260 . S
C578 C582 1.477 . S
C578 H596 0.932 . S
C579 C580 1.384 . S
C579 C581 1.479 . S
C579 H597 0.929 . S
C580 C577 1.424 . S
C580 C579 1.384 . S
C580 H598 0.928 . S
C581 C578 1.260 . S
C581 C579 1.479 . S
C582 C577 1.245 . S
C582 C578 1.477 . S
C582 H599 0.932 . S
C583 U566 2.882 . S
C583 C577 1.428 . S
C583 O586 1.301 . S
C583 O587 1.282 . S
O584 U566 2.441 . S
O584 C570 1.249 . S
O585 U566 2.420 . S
O585 C570 1.202 . S
O586 U566 2.455 . S
O586 C583 1.301 . S
O587 U566 2.449 . S
O587 C583 1.282 . S
H588 C561 0.931 . S
H589 C563 0.929 . S
H590 C564 0.930 . S
H591 C565 0.931 . S
H592 C572 0.932 . S
H593 C573 0.930 . S
H594 C574 0.929 . S
H595 C576 0.930 . S
H596 C578 0.932 . S
H597 C579 0.929 . S
H598 C580 0.928 . S
H599 C582 0.932 . S
C600 C601 1.264 . S
C600 C605 1.479 . S
C600 C610 1.465 . S
C601 C600 1.264 . S
C601 C603 1.339 . S
C601 H628 0.931 . S
C602 C603 1.395 . S
C602 C604 1.320 . S
C603 C601 1.339 . S
C603 C602 1.395 . S
C603 H629 0.929 . S
C604 C602 1.320 . S
C604 C605 1.405 . S
C604 H630 0.930 . S
C605 C600 1.479 . S
C605 C604 1.405 . S
C605 H631 0.931 . S
U606 O607 2.454 . S
U606 O608 2.458 . S
U606 C609 2.984 . S
U606 C610 2.847 . S
U606 C623 2.882 . S
U606 O624 2.441 . S
U606 O625 2.420 . S
U606 O626 2.455 . S
U606 O627 2.449 . S
O607 U606 2.454 . S
O607 C609 1.353 . S
O608 U606 2.458 . S
O608 C609 1.286 . S
C609 U606 2.984 . S
C609 O607 1.353 . S
C609 O608 1.286 . S
C609 C611 1.363 . S
C610 C600 1.465 . S
C610 U606 2.847 . S
C610 O624 1.249 . S
C610 O625 1.202 . S
C611 C609 1.363 . S
C611 C613 1.408 . S
C611 C616 1.342 . S
C612 C613 1.310 . S
C612 C615 1.461 . S
C612 H632 0.932 . S
C613 C611 1.408 . S
C613 C612 1.310 . S
C613 H633 0.930 . S
C614 C615 1.474 . S
C614 C616 1.285 . S
C614 H634 0.929 . S
C615 C612 1.461 . S
C615 C614 1.474 . S
C616 C611 1.342 . S
C616 C614 1.285 . S
C616 H635 0.930 . S
C617 C620 1.424 . S
C617 C622 1.245 . S
C617 C623 1.428 . S
C618 C621 1.260 . S
C618 C622 1.477 . S
C618 H636 0.932 . S
C619 C620 1.384 . S
C619 C621 1.479 . S
C619 H637 0.929 . S
C620 C617 1.424 . S
C620 C619 1.384 . S
C620 H638 0.928 . S
C621 C618 1.260 . S
C621 C619 1.479 . S
C622 C617 1.245 . S
C622 C618 1.477 . S
C622 H639 0.932 . S
C623 U606 2.882 . S
C623 C617 1.428 . S
C623 O626 1.301 . S
C623 O627 1.282 . S
O624 U606 2.441 . S
O624 C610 1.249 . S
O625 U606 2.420 . S
O625 C610 1.202 . S
O626 U606 2.455 . S
O626 C623 1.301 . S
O627 U606 2.449 . S
O627 C623 1.282 . S
H628 C601 0.931 . S
H629 C603 0.929 . S
H630 C604 0.930 . S
H631 C605 0.931 . S
H632 C612 0.932 . S
H633 C613 0.930 . S
H634 C614 0.929 . S
H635 C616 0.930 . S
H636 C618 0.932 . S
H637 C619 0.929 . S
H638 C620 0.928 . S
H639 C622 0.932 . S
C640 C641 1.264 . S
C640 C645 1.479 . S
C640 C650 1.465 . S
C641 C640 1.264 . S
C641 C643 1.339 . S
C641 H668 0.931 . S
C642 C643 1.395 . S
C642 C644 1.320 . S
C643 C641 1.339 . S
C643 C642 1.395 . S
C643 H669 0.929 . S
C644 C642 1.320 . S
C644 C645 1.405 . S
C644 H670 0.930 . S
C645 C640 1.479 . S
C645 C644 1.405 . S
C645 H671 0.931 . S
U646 O647 2.454 . S
U646 O648 2.458 . S
U646 C649 2.984 . S
U646 C650 2.847 . S
U646 C663 2.882 . S
U646 O664 2.441 . S
U646 O665 2.420 . S
U646 O666 2.455 . S
U646 O667 2.449 . S
O647 U646 2.454 . S
O647 C649 1.353 . S
O648 U646 2.458 . S
O648 C649 1.286 . S
C649 U646 2.984 . S
C649 O647 1.353 . S
C649 O648 1.286 . S
C649 C651 1.363 . S
C650 C640 1.465 . S
C650 U646 2.847 . S
C650 O664 1.249 . S
C650 O665 1.202 . S
C651 C649 1.363 . S
C651 C653 1.408 . S
C651 C656 1.342 . S
C652 C653 1.310 . S
C652 C655 1.461 . S
C652 H672 0.932 . S
C653 C651 1.408 . S
C653 C652 1.310 . S
C653 H673 0.930 . S
C654 C655 1.474 . S
C654 C656 1.285 . S
C654 H674 0.929 . S
C655 C652 1.461 . S
C655 C654 1.474 . S
C656 C651 1.342 . S
C656 C654 1.285 . S
C656 H675 0.930 . S
C657 C660 1.424 . S
C657 C662 1.245 . S
C657 C663 1.428 . S
C658 C661 1.260 . S
C658 C662 1.477 . S
C658 H676 0.932 . S
C659 C660 1.384 . S
C659 C661 1.479 . S
C659 H677 0.929 . S
C660 C657 1.424 . S
C660 C659 1.384 . S
C660 H678 0.928 . S
C661 C658 1.260 . S
C661 C659 1.479 . S
C662 C657 1.245 . S
C662 C658 1.477 . S
C662 H679 0.932 . S
C663 U646 2.882 . S
C663 C657 1.428 . S
C663 O666 1.301 . S
C663 O667 1.282 . S
O664 U646 2.441 . S
O664 C650 1.249 . S
O665 U646 2.420 . S
O665 C650 1.202 . S
O666 U646 2.455 . S
O666 C663 1.301 . S
O667 U646 2.449 . S
O667 C663 1.282 . S
H668 C641 0.931 . S
H669 C643 0.929 . S
H670 C644 0.930 . S
H671 C645 0.931 . S
H672 C652 0.932 . S
H673 C653 0.930 . S
H674 C654 0.929 . S
H675 C656 0.930 . S
H676 C658 0.932 . S
H677 C659 0.929 . S
H678 C660 0.928 . S
H679 C662 0.932 . S
C680 C681 1.264 . S
C680 C685 1.479 . S
C680 C690 1.465 . S
C681 C680 1.264 . S
C681 C683 1.339 . S
C681 H708 0.931 . S
C682 C683 1.395 . S
C682 C684 1.320 . S
C683 C681 1.339 . S
C683 C682 1.395 . S
C683 H709 0.929 . S
C684 C682 1.320 . S
C684 C685 1.405 . S
C684 H710 0.930 . S
C685 C680 1.479 . S
C685 C684 1.405 . S
C685 H711 0.931 . S
U686 O687 2.454 . S
U686 O688 2.458 . S
U686 C689 2.984 . S
U686 C690 2.847 . S
U686 C703 2.882 . S
U686 O704 2.441 . S
U686 O705 2.420 . S
U686 O706 2.455 . S
U686 O707 2.449 . S
O687 U686 2.454 . S
O687 C689 1.353 . S
O688 U686 2.458 . S
O688 C689 1.286 . S
C689 U686 2.984 . S
C689 O687 1.353 . S
C689 O688 1.286 . S
C689 C691 1.363 . S
C690 C680 1.465 . S
C690 U686 2.847 . S
C690 O704 1.249 . S
C690 O705 1.202 . S
C691 C689 1.363 . S
C691 C693 1.408 . S
C691 C696 1.342 . S
C692 C693 1.310 . S
C692 C695 1.461 . S
C692 H712 0.932 . S
C693 C691 1.408 . S
C693 C692 1.310 . S
C693 H713 0.930 . S
C694 C695 1.474 . S
C694 C696 1.285 . S
C694 H714 0.929 . S
C695 C692 1.461 . S
C695 C694 1.474 . S
C696 C691 1.342 . S
C696 C694 1.285 . S
C696 H715 0.930 . S
C697 C700 1.424 . S
C697 C702 1.245 . S
C697 C703 1.428 . S
C698 C701 1.260 . S
C698 C702 1.477 . S
C698 H716 0.932 . S
C699 C700 1.384 . S
C699 C701 1.479 . S
C699 H717 0.929 . S
C700 C697 1.424 . S
C700 C699 1.384 . S
C700 H718 0.928 . S
C701 C698 1.260 . S
C701 C699 1.479 . S
C702 C697 1.245 . S
C702 C698 1.477 . S
C702 H719 0.932 . S
C703 U686 2.882 . S
C703 C697 1.428 . S
C703 O706 1.301 . S
C703 O707 1.282 . S
O704 U686 2.441 . S
O704 C690 1.249 . S
O705 U686 2.420 . S
O705 C690 1.202 . S
O706 U686 2.455 . S
O706 C703 1.301 . S
O707 U686 2.449 . S
O707 C703 1.282 . S
H708 C681 0.931 . S
H709 C683 0.929 . S
H710 C684 0.930 . S
H711 C685 0.931 . S
H712 C692 0.932 . S
H713 C693 0.930 . S
H714 C694 0.929 . S
H715 C696 0.930 . S
H716 C698 0.932 . S
H717 C699 0.929 . S
H718 C700 0.928 . S
H719 C702 0.932 . S
C720 C721 1.264 . S
C720 C725 1.479 . S
C720 C730 1.465 . S
C721 C720 1.264 . S
C721 C723 1.339 . S
C721 H748 0.931 . S
C722 C723 1.395 . S
C722 C724 1.320 . S
C723 C721 1.339 . S
C723 C722 1.395 . S
C723 H749 0.929 . S
C724 C722 1.320 . S
C724 C725 1.405 . S
C724 H750 0.930 . S
C725 C720 1.479 . S
C725 C724 1.405 . S
C725 H751 0.931 . S
U726 O727 2.454 . S
U726 O728 2.458 . S
U726 C729 2.984 . S
U726 C730 2.847 . S
U726 C743 2.882 . S
U726 O744 2.441 . S
U726 O745 2.420 . S
U726 O746 2.455 . S
U726 O747 2.449 . S
O727 U726 2.454 . S
O727 C729 1.353 . S
O728 U726 2.458 . S
O728 C729 1.286 . S
C729 U726 2.984 . S
C729 O727 1.353 . S
C729 O728 1.286 . S
C729 C731 1.363 . S
C730 C720 1.465 . S
C730 U726 2.847 . S
C730 O744 1.249 . S
C730 O745 1.202 . S
C731 C729 1.363 . S
C731 C733 1.408 . S
C731 C736 1.342 . S
C732 C733 1.310 . S
C732 C735 1.461 . S
C732 H752 0.932 . S
C733 C731 1.408 . S
C733 C732 1.310 . S
C733 H753 0.930 . S
C734 C735 1.474 . S
C734 C736 1.285 . S
C734 H754 0.929 . S
C735 C732 1.461 . S
C735 C734 1.474 . S
C736 C731 1.342 . S
C736 C734 1.285 . S
C736 H755 0.930 . S
C737 C740 1.424 . S
C737 C742 1.245 . S
C737 C743 1.428 . S
C738 C741 1.260 . S
C738 C742 1.477 . S
C738 H756 0.932 . S
C739 C740 1.384 . S
C739 C741 1.479 . S
C739 H757 0.929 . S
C740 C737 1.424 . S
C740 C739 1.384 . S
C740 H758 0.928 . S
C741 C738 1.260 . S
C741 C739 1.479 . S
C742 C737 1.245 . S
C742 C738 1.477 . S
C742 H759 0.932 . S
C743 U726 2.882 . S
C743 C737 1.428 . S
C743 O746 1.301 . S
C743 O747 1.282 . S
O744 U726 2.441 . S
O744 C730 1.249 . S
O745 U726 2.420 . S
O745 C730 1.202 . S
O746 U726 2.455 . S
O746 C743 1.301 . S
O747 U726 2.449 . S
O747 C743 1.282 . S
H748 C721 0.931 . S
H749 C723 0.929 . S
H750 C724 0.930 . S
H751 C725 0.931 . S
H752 C732 0.932 . S
H753 C733 0.930 . S
H754 C734 0.929 . S
H755 C736 0.930 . S
H756 C738 0.932 . S
H757 C739 0.929 . S
H758 C740 0.928 . S
H759 C742 0.932 . S
C760 C761 1.264 . S
C760 C765 1.479 . S
C760 C770 1.465 . S
C761 C760 1.264 . S
C761 C763 1.339 . S
C761 H788 0.931 . S
C762 C763 1.395 . S
C762 C764 1.320 . S
C763 C761 1.339 . S
C763 C762 1.395 . S
C763 H789 0.929 . S
C764 C762 1.320 . S
C764 C765 1.405 . S
C764 H790 0.930 . S
C765 C760 1.479 . S
C765 C764 1.405 . S
C765 H791 0.931 . S
U766 O767 2.454 . S
U766 O768 2.458 . S
U766 C769 2.984 . S
U766 C770 2.847 . S
U766 C783 2.882 . S
U766 O784 2.441 . S
U766 O785 2.420 . S
U766 O786 2.455 . S
U766 O787 2.449 . S
O767 U766 2.454 . S
O767 C769 1.353 . S
O768 U766 2.458 . S
O768 C769 1.286 . S
C769 U766 2.984 . S
C769 O767 1.353 . S
C769 O768 1.286 . S
C769 C771 1.363 . S
C770 C760 1.465 . S
C770 U766 2.847 . S
C770 O784 1.249 . S
C770 O785 1.202 . S
C771 C769 1.363 . S
C771 C773 1.408 . S
C771 C776 1.342 . S
C772 C773 1.310 . S
C772 C775 1.461 . S
C772 H792 0.932 . S
C773 C771 1.408 . S
C773 C772 1.310 . S
C773 H793 0.930 . S
C774 C775 1.474 . S
C774 C776 1.285 . S
C774 H794 0.929 . S
C775 C772 1.461 . S
C775 C774 1.474 . S
C776 C771 1.342 . S
C776 C774 1.285 . S
C776 H795 0.930 . S
C777 C780 1.424 . S
C777 C782 1.245 . S
C777 C783 1.428 . S
C778 C781 1.260 . S
C778 C782 1.477 . S
C778 H796 0.932 . S
C779 C780 1.384 . S
C779 C781 1.479 . S
C779 H797 0.929 . S
C780 C777 1.424 . S
C780 C779 1.384 . S
C780 H798 0.928 . S
C781 C778 1.260 . S
C781 C779 1.479 . S
C782 C777 1.245 . S
C782 C778 1.477 . S
C782 H799 0.932 . S
C783 U766 2.882 . S
C783 C777 1.428 . S
C783 O786 1.301 . S
C783 O787 1.282 . S
O784 U766 2.441 . S
O784 C770 1.249 . S
O785 U766 2.420 . S
O785 C770 1.202 . S
O786 U766 2.455 . S
O786 C783 1.301 . S
O787 U766 2.449 . S
O787 C783 1.282 . S
H788 C761 0.931 . S
H789 C763 0.929 . S
H790 C764 0.930 . S
H791 C765 0.931 . S
H792 C772 0.932 . S
H793 C773 0.930 . S
H794 C774 0.929 . S
H795 C776 0.930 . S
H796 C778 0.932 . S
H797 C779 0.929 . S
H798 C780 0.928 . S
H799 C782 0.932 . S
C800 C801 1.264 . S
C800 C805 1.479 . S
C800 C810 1.465 . S
C801 C800 1.264 . S
C801 C803 1.339 . S
C801 H828 0.931 . S
C802 C803 1.395 . S
C802 C804 1.320 . S
C803 C801 1.339 . S
C803 C802 1.395 . S
C803 H829 0.929 . S
C804 C802 1.320 . S
C804 C805 1.405 . S
C804 H830 0.930 . S
C805 C800 1.479 . S
C805 C804 1.405 . S
C805 H831 0.931 . S
U806 O807 2.454 . S
U806 O808 2.458 . S
U806 C809 2.984 . S
U806 C810 2.847 . S
U806 C823 2.882 . S
U806 O824 2.441 . S
U806 O825 2.420 . S
U806 O826 2.455 . S
U806 O827 2.449 . S
O807 U806 2.454 . S
O807 C809 1.353 . S
O808 U806 2.458 . S
O808 C809 1.286 . S
C809 U806 2.984 . S
C809 O807 1.353 . S
C809 O808 1.286 . S
C809 C811 1.363 . S
C810 C800 1.465 . S
C810 U806 2.847 . S
C810 O824 1.249 . S
C810 O825 1.202 . S
C811 C809 1.363 . S
C811 C813 1.408 . S
C811 C816 1.342 . S
C812 C813 1.310 . S
C812 C815 1.461 . S
C812 H832 0.932 . S
C813 C811 1.408 . S
C813 C812 1.310 . S
C813 H833 0.930 . S
C814 C815 1.474 . S
C814 C816 1.285 . S
C814 H834 0.929 . S
C815 C812 1.461 . S
C815 C814 1.474 . S
C816 C811 1.342 . S
C816 C814 1.285 . S
C816 H835 0.930 . S
C817 C820 1.424 . S
C817 C822 1.245 . S
C817 C823 1.428 . S
C818 C821 1.260 . S
C818 C822 1.477 . S
C818 H836 0.932 . S
C819 C820 1.384 . S
C819 C821 1.479 . S
C819 H837 0.929 . S
C820 C817 1.424 . S
C820 C819 1.384 . S
C820 H838 0.928 . S
C821 C818 1.260 . S
C821 C819 1.479 . S
C822 C817 1.245 . S
C822 C818 1.477 . S
C822 H839 0.932 . S
C823 U806 2.882 . S
C823 C817 1.428 . S
C823 O826 1.301 . S
C823 O827 1.282 . S
O824 U806 2.441 . S
O824 C810 1.249 . S
O825 U806 2.420 . S
O825 C810 1.202 . S
O826 U806 2.455 . S
O826 C823 1.301 . S
O827 U806 2.449 . S
O827 C823 1.282 . S
H828 C801 0.931 . S
H829 C803 0.929 . S
H830 C804 0.930 . S
H831 C805 0.931 . S
H832 C812 0.932 . S
H833 C813 0.930 . S
H834 C814 0.929 . S
H835 C816 0.930 . S
H836 C818 0.932 . S
H837 C819 0.929 . S
H838 C820 0.928 . S
H839 C822 0.932 . S
C840 C841 1.264 . S
C840 C845 1.479 . S
C840 C850 1.465 . S
C841 C840 1.264 . S
C841 C843 1.339 . S
C841 H868 0.931 . S
C842 C843 1.395 . S
C842 C844 1.320 . S
C843 C841 1.339 . S
C843 C842 1.395 . S
C843 H869 0.929 . S
C844 C842 1.320 . S
C844 C845 1.405 . S
C844 H870 0.930 . S
C845 C840 1.479 . S
C845 C844 1.405 . S
C845 H871 0.931 . S
U846 O847 2.454 . S
U846 O848 2.458 . S
U846 C849 2.984 . S
U846 C850 2.847 . S
U846 C863 2.882 . S
U846 O864 2.441 . S
U846 O865 2.420 . S
U846 O866 2.455 . S
U846 O867 2.449 . S
O847 U846 2.454 . S
O847 C849 1.353 . S
O848 U846 2.458 . S
O848 C849 1.286 . S
C849 U846 2.984 . S
C849 O847 1.353 . S
C849 O848 1.286 . S
C849 C851 1.363 . S
C850 C840 1.465 . S
C850 U846 2.847 . S
C850 O864 1.249 . S
C850 O865 1.202 . S
C851 C849 1.363 . S
C851 C853 1.408 . S
C851 C856 1.342 . S
C852 C853 1.310 . S
C852 C855 1.461 . S
C852 H872 0.932 . S
C853 C851 1.408 . S
C853 C852 1.310 . S
C853 H873 0.930 . S
C854 C855 1.474 . S
C854 C856 1.285 . S
C854 H874 0.929 . S
C855 C852 1.461 . S
C855 C854 1.474 . S
C856 C851 1.342 . S
C856 C854 1.285 . S
C856 H875 0.930 . S
C857 C860 1.424 . S
C857 C862 1.245 . S
C857 C863 1.428 . S
C858 C861 1.260 . S
C858 C862 1.477 . S
C858 H876 0.932 . S
C859 C860 1.384 . S
C859 C861 1.479 . S
C859 H877 0.929 . S
C860 C857 1.424 . S
C860 C859 1.384 . S
C860 H878 0.928 . S
C861 C858 1.260 . S
C861 C859 1.479 . S
C862 C857 1.245 . S
C862 C858 1.477 . S
C862 H879 0.932 . S
C863 U846 2.882 . S
C863 C857 1.428 . S
C863 O866 1.301 . S
C863 O867 1.282 . S
O864 U846 2.441 . S
O864 C850 1.249 . S
O865 U846 2.420 . S
O865 C850 1.202 . S
O866 U846 2.455 . S
O866 C863 1.301 . S
O867 U846 2.449 . S
O867 C863 1.282 . S
H868 C841 0.931 . S
H869 C843 0.929 . S
H870 C844 0.930 . S
H871 C845 0.931 . S
H872 C852 0.932 . S
H873 C853 0.930 . S
H874 C854 0.929 . S
H875 C856 0.930 . S
H876 C858 0.932 . S
H877 C859 0.929 . S
H878 C860 0.928 . S
H879 C862 0.932 . S
C880 C881 1.264 . S
C880 C885 1.479 . S
C880 C890 1.465 . S
C881 C880 1.264 . S
C881 C883 1.339 . S
C881 H908 0.931 . S
C882 C883 1.395 . S
C882 C884 1.320 . S
C883 C881 1.339 . S
C883 C882 1.395 . S
C883 H909 0.929 . S
C884 C882 1.320 . S
C884 C885 1.405 . S
C884 H910 0.930 . S
C885 C880 1.479 . S
C885 C884 1.405 . S
C885 H911 0.931 . S
U886 O887 2.454 . S
U886 O888 2.458 . S
U886 C889 2.984 . S
U886 C890 2.847 . S
U886 C903 2.882 . S
U886 O904 2.441 . S
U886 O905 2.420 . S
U886 O906 2.455 . S
U886 O907 2.449 . S
O887 U886 2.454 . S
O887 C889 1.353 . S
O888 U886 2.458 . S
O888 C889 1.286 . S
C889 U886 2.984 . S
C889 O887 1.353 . S
C889 O888 1.286 . S
C889 C891 1.363 . S
C890 C880 1.465 . S
C890 U886 2.847 . S
C890 O904 1.249 . S
C890 O905 1.202 . S
C891 C889 1.363 . S
C891 C893 1.408 . S
C891 C896 1.342 . S
C892 C893 1.310 . S
C892 C895 1.461 . S
C892 H912 0.932 . S
C893 C891 1.408 . S
C893 C892 1.310 . S
C893 H913 0.930 . S
C894 C895 1.474 . S
C894 C896 1.285 . S
C894 H914 0.929 . S
C895 C892 1.461 . S
C895 C894 1.474 . S
C896 C891 1.342 . S
C896 C894 1.285 . S
C896 H915 0.930 . S
C897 C900 1.424 . S
C897 C902 1.245 . S
C897 C903 1.428 . S
C898 C901 1.260 . S
C898 C902 1.477 . S
C898 H916 0.932 . S
C899 C900 1.384 . S
C899 C901 1.479 . S
C899 H917 0.929 . S
C900 C897 1.424 . S
C900 C899 1.384 . S
C900 H918 0.928 . S
C901 C898 1.260 . S
C901 C899 1.479 . S
C902 C897 1.245 . S
C902 C898 1.477 . S
C902 H919 0.932 . S
C903 U886 2.882 . S
C903 C897 1.428 . S
C903 O906 1.301 . S
C903 O907 1.282 . S
O904 U886 2.441 . S
O904 C890 1.249 . S
O905 U886 2.420 . S
O905 C890 1.202 . S
O906 U886 2.455 . S
O906 C903 1.301 . S
O907 U886 2.449 . S
O907 C903 1.282 . S
H908 C881 0.931 . S
H909 C883 0.929 . S
H910 C884 0.930 . S
H911 C885 0.931 . S
H912 C892 0.932 . S
H913 C893 0.930 . S
H914 C894 0.929 . S
H915 C896 0.930 . S
H916 C898 0.932 . S
H917 C899 0.929 . S
H918 C900 0.928 . S
H919 C902 0.932 . S
C920 C921 1.264 . S
C920 C925 1.479 . S
C920 C930 1.465 . S
C921 C920 1.264 . S
C921 C923 1.339 . S
C921 H948 0.931 . S
C922 C923 1.395 . S
C922 C924 1.320 . S
C923 C921 1.339 . S
C923 C922 1.395 . S
C923 H949 0.929 . S
C924 C922 1.320 . S
C924 C925 1.405 . S
C924 H950 0.930 . S
C925 C920 1.479 . S
C925 C924 1.405 . S
C925 H951 0.931 . S
U926 O927 2.454 . S
U926 O928 2.458 . S
U926 C929 2.984 . S
U926 C930 2.847 . S
U926 C943 2.882 . S
U926 O944 2.441 . S
U926 O945 2.420 . S
U926 O946 2.455 . S
U926 O947 2.449 . S
O927 U926 2.454 . S
O927 C929 1.353 . S
O928 U926 2.458 . S
O928 C929 1.286 . S
C929 U926 2.984 . S
C929 O927 1.353 . S
C929 O928 1.286 . S
C929 C931 1.363 . S
C930 C920 1.465 . S
C930 U926 2.847 . S
C930 O944 1.249 . S
C930 O945 1.202 . S
C931 C929 1.363 . S
C931 C933 1.408 . S
C931 C936 1.342 . S
C932 C933 1.310 . S
C932 C935 1.461 . S
C932 H952 0.932 . S
C933 C931 1.408 . S
C933 C932 1.310 . S
C933 H953 0.930 . S
C934 C935 1.474 . S
C934 C936 1.285 . S
C934 H954 0.929 . S
C935 C932 1.461 . S
C935 C934 1.474 . S
C936 C931 1.342 . S
C936 C934 1.285 . S
C936 H955 0.930 . S
C937 C940 1.424 . S
C937 C942 1.245 . S
C937 C943 1.428 . S
C938 C941 1.260 . S
C938 C942 1.477 . S
C938 H956 0.932 . S
C939 C940 1.384 . S
C939 C941 1.479 . S
C939 H957 0.929 . S
C940 C937 1.424 . S
C940 C939 1.384 . S
C940 H958 0.928 . S
C941 C938 1.260 . S
C941 C939 1.479 . S
C942 C937 1.245 . S
C942 C938 1.477 . S
C942 H959 0.932 . S
C943 U926 2.882 . S
C943 C937 1.428 . S
C943 O946 1.301 . S
C943 O947 1.282 . S
O944 U926 2.441 . S
O944 C930 1.249 . S
O945 U926 2.420 . S
O945 C930 1.202 . S
O946 U926 2.455 . S
O946 C943 1.301 . S
O947 U926 2.449 . S
O947 C943 1.282 . S
H948 C921 0.931 . S
H949 C923 0.929 . S
H950 C924 0.930 . S
H951 C925 0.931 . S
H952 C932 0.932 . S
H953 C933 0.930 . S
H954 C934 0.929 . S
H955 C936 0.930 . S
H956 C938 0.932 . S
H957 C939 0.929 . S
H958 C940 0.928 . S
H959 C942 0.932 . S
C960 C961 1.264 . S
C960 C965 1.479 . S
C960 C970 1.465 . S
C961 C960 1.264 . S
C961 C963 1.339 . S
C961 H988 0.931 . S
C962 C963 1.395 . S
C962 C964 1.320 . S
C963 C961 1.339 . S
C963 C962 1.395 . S
C963 H989 0.929 . S
C964 C962 1.320 . S
C964 C965 1.405 . S
C964 H990 0.930 . S
C965 C960 1.479 . S
C965 C964 1.405 . S
C965 H991 0.931 . S
U966 O967 2.454 . S
U966 O968 2.458 . S
U966 C969 2.984 . S
U966 C970 2.847 . S
U966 C983 2.882 . S
U966 O984 2.441 . S
U966 O985 2.420 . S
U966 O986 2.455 . S
U966 O987 2.449 . S
O967 U966 2.454 . S
O967 C969 1.353 . S
O968 U966 2.458 . S
O968 C969 1.286 . S
C969 U966 2.984 . S
C969 O967 1.353 . S
C969 O968 1.286 . S
C969 C971 1.363 . S
C970 C960 1.465 . S
C970 U966 2.847 . S
C970 O984 1.249 . S
C970 O985 1.202 . S
C971 C969 1.363 . S
C971 C973 1.408 . S
C971 C976 1.342 . S
C972 C973 1.310 . S
C972 C975 1.461 . S
C972 H992 0.932 . S
C973 C971 1.408 . S
C973 C972 1.310 . S
C973 H993 0.930 . S
C974 C975 1.474 . S
C974 C976 1.285 . S
C974 H994 0.929 . S
C975 C972 1.461 . S
C975 C974 1.474 . S
C976 C971 1.342 . S
C976 C974 1.285 . S
C976 H995 0.930 . S
C977 C980 1.424 . S
C977 C982 1.245 . S
C977 C983 1.428 . S
C978 C981 1.260 . S
C978 C982 1.477 . S
C978 H996 0.932 . S
C979 C980 1.384 . S
C979 C981 1.479 . S
C979 H997 0.929 . S
C980 C977 1.424 . S
C980 C979 1.384 . S
C980 H998 0.928 . S
C981 C978 1.260 . S
C981 C979 1.479 . S
C982 C977 1.245 . S
C982 C978 1.477 . S
C982 H999 0.932 . S
C983 U966 2.882 . S
C983 C977 1.428 . S
C983 O986 1.301 . S
C983 O987 1.282 . S
O984 U966 2.441 . S
O984 C970 1.249 . S
O985 U966 2.420 . S
O985 C970 1.202 . S
O986 U966 2.455 . S
O986 C983 1.301 . S
O987 U966 2.449 . S
O987 C983 1.282 . S
H988 C961 0.931 . S
H989 C963 0.929 . S
H990 C964 0.930 . S
H991 C965 0.931 . S
H992 C972 0.932 . S
H993 C973 0.930 . S
H994 C974 0.929 . S
H995 C976 0.930 . S
H996 C978 0.932 . S
H997 C979 0.929 . S
H998 C980 0.928 . S
H999 C982 0.932 . S
C1000 C1001 1.264 . S
C1000 C1005 1.479 . S
C1000 C1010 1.465 . S
C1001 C1000 1.264 . S
C1001 C1003 1.339 . S
C1001 H1028 0.931 . S
C1002 C1003 1.395 . S
C1002 C1004 1.320 . S
C1003 C1001 1.339 . S
C1003 C1002 1.395 . S
C1003 H1029 0.929 . S
C1004 C1002 1.320 . S
C1004 C1005 1.405 . S
C1004 H1030 0.930 . S
C1005 C1000 1.479 . S
C1005 C1004 1.405 . S
C1005 H1031 0.931 . S
U1006 O1007 2.454 . S
U1006 O1008 2.458 . S
U1006 C1009 2.984 . S
U1006 C1010 2.847 . S
U1006 C1023 2.882 . S
U1006 O1024 2.441 . S
U1006 O1025 2.420 . S
U1006 O1026 2.455 . S
U1006 O1027 2.449 . S
O1007 U1006 2.454 . S
O1007 C1009 1.353 . S
O1008 U1006 2.458 . S
O1008 C1009 1.286 . S
C1009 U1006 2.984 . S
C1009 O1007 1.353 . S
C1009 O1008 1.286 . S
C1009 C1011 1.363 . S
C1010 C1000 1.465 . S
C1010 U1006 2.847 . S
C1010 O1024 1.249 . S
C1010 O1025 1.202 . S
C1011 C1009 1.363 . S
C1011 C1013 1.408 . S
C1011 C1016 1.342 . S
C1012 C1013 1.310 . S
C1012 C1015 1.461 . S
C1012 H1032 0.932 . S
C1013 C1011 1.408 . S
C1013 C1012 1.310 . S
C1013 H1033 0.930 . S
C1014 C1015 1.474 . S
C1014 C1016 1.285 . S
C1014 H1034 0.929 . S
C1015 C1012 1.461 . S
C1015 C1014 1.474 . S
C1016 C1011 1.342 . S
C1016 C1014 1.285 . S
C1016 H1035 0.930 . S
C1017 C1020 1.424 . S
C1017 C1022 1.245 . S
C1017 C1023 1.428 . S
C1018 C1021 1.260 . S
C1018 C1022 1.477 . S
C1018 H1036 0.932 . S
C1019 C1020 1.384 . S
C1019 C1021 1.479 . S
C1019 H1037 0.929 . S
C1020 C1017 1.424 . S
C1020 C1019 1.384 . S
C1020 H1038 0.928 . S
C1021 C1018 1.260 . S
C1021 C1019 1.479 . S
C1022 C1017 1.245 . S
C1022 C1018 1.477 . S
C1022 H1039 0.932 . S
C1023 U1006 2.882 . S
C1023 C1017 1.428 . S
C1023 O1026 1.301 . S
C1023 O1027 1.282 . S
O1024 U1006 2.441 . S
O1024 C1010 1.249 . S
O1025 U1006 2.420 . S
O1025 C1010 1.202 . S
O1026 U1006 2.455 . S
O1026 C1023 1.301 . S
O1027 U1006 2.449 . S
O1027 C1023 1.282 . S
H1028 C1001 0.931 . S
H1029 C1003 0.929 . S
H1030 C1004 0.930 . S
H1031 C1005 0.931 . S
H1032 C1012 0.932 . S
H1033 C1013 0.930 . S
H1034 C1014 0.929 . S
H1035 C1016 0.930 . S
H1036 C1018 0.932 . S
H1037 C1019 0.929 . S
H1038 C1020 0.928 . S
H1039 C1022 0.932 . S
C1040 C1041 1.264 . S
C1040 C1045 1.479 . S
C1040 C1050 1.465 . S
C1041 C1040 1.264 . S
C1041 C1043 1.339 . S
C1041 H1068 0.931 . S
C1042 C1043 1.395 . S
C1042 C1044 1.320 . S
C1043 C1041 1.339 . S
C1043 C1042 1.395 . S
C1043 H1069 0.929 . S
C1044 C1042 1.320 . S
C1044 C1045 1.405 . S
C1044 H1070 0.930 . S
C1045 C1040 1.479 . S
C1045 C1044 1.405 . S
C1045 H1071 0.931 . S
U1046 O1047 2.454 . S
U1046 O1048 2.458 . S
U1046 C1049 2.984 . S
U1046 C1050 2.847 . S
U1046 C1063 2.882 . S
U1046 O1064 2.441 . S
U1046 O1065 2.420 . S
U1046 O1066 2.455 . S
U1046 O1067 2.449 . S
O1047 U1046 2.454 . S
O1047 C1049 1.353 . S
O1048 U1046 2.458 . S
O1048 C1049 1.286 . S
C1049 U1046 2.984 . S
C1049 O1047 1.353 . S
C1049 O1048 1.286 . S
C1049 C1051 1.363 . S
C1050 C1040 1.465 . S
C1050 U1046 2.847 . S
C1050 O1064 1.249 . S
C1050 O1065 1.202 . S
C1051 C1049 1.363 . S
C1051 C1053 1.408 . S
C1051 C1056 1.342 . S
C1052 C1053 1.310 . S
C1052 C1055 1.461 . S
C1052 H1072 0.932 . S
C1053 C1051 1.408 . S
C1053 C1052 1.310 . S
C1053 H1073 0.930 . S
C1054 C1055 1.474 . S
C1054 C1056 1.285 . S
C1054 H1074 0.929 . S
C1055 C1052 1.461 . S
C1055 C1054 1.474 . S
C1056 C1051 1.342 . S
C1056 C1054 1.285 . S
C1056 H1075 0.930 . S
C1057 C1060 1.424 . S
C1057 C1062 1.245 . S
C1057 C1063 1.428 . S
C1058 C1061 1.260 . S
C1058 C1062 1.477 . S
C1058 H1076 0.932 . S
C1059 C1060 1.384 . S
C1059 C1061 1.479 . S
C1059 H1077 0.929 . S
C1060 C1057 1.424 . S
C1060 C1059 1.384 . S
C1060 H1078 0.928 . S
C1061 C1058 1.260 . S
C1061 C1059 1.479 . S
C1062 C1057 1.245 . S
C1062 C1058 1.477 . S
C1062 H1079 0.932 . S
C1063 U1046 2.882 . S
C1063 C1057 1.428 . S
C1063 O1066 1.301 . S
C1063 O1067 1.282 . S
O1064 U1046 2.441 . S
O1064 C1050 1.249 . S
O1065 U1046 2.420 . S
O1065 C1050 1.202 . S
O1066 U1046 2.455 . S
O1066 C1063 1.301 . S
O1067 U1046 2.449 . S
O1067 C1063 1.282 . S
H1068 C1041 0.931 . S
H1069 C1043 0.929 . S
H1070 C1044 0.930 . S
H1071 C1045 0.931 . S
H1072 C1052 0.932 . S
H1073 C1053 0.930 . S
H1074 C1054 0.929 . S
H1075 C1056 0.930 . S
H1076 C1058 0.932 . S
H1077 C1059 0.929 . S
H1078 C1060 0.928 . S
H1079 C1062 0.932 . S
C1080 C1081 1.264 . S
C1080 C1085 1.479 . S
C1080 C1090 1.465 . S
C1081 C1080 1.264 . S
C1081 C1083 1.339 . S
C1081 H1108 0.931 . S
C1082 C1083 1.395 . S
C1082 C1084 1.320 . S
C1083 C1081 1.339 . S
C1083 C1082 1.395 . S
C1083 H1109 0.929 . S
C1084 C1082 1.320 . S
C1084 C1085 1.405 . S
C1084 H1110 0.930 . S
C1085 C1080 1.479 . S
C1085 C1084 1.405 . S
C1085 H1111 0.931 . S
U1086 O1087 2.454 . S
U1086 O1088 2.458 . S
U1086 C1089 2.984 . S
U1086 C1090 2.847 . S
U1086 C1103 2.882 . S
U1086 O1104 2.441 . S
U1086 O1105 2.420 . S
U1086 O1106 2.455 . S
U1086 O1107 2.449 . S
O1087 U1086 2.454 . S
O1087 C1089 1.353 . S
O1088 U1086 2.458 . S
O1088 C1089 1.286 . S
C1089 U1086 2.984 . S
C1089 O1087 1.353 . S
C1089 O1088 1.286 . S
C1089 C1091 1.363 . S
C1090 C1080 1.465 . S
C1090 U1086 2.847 . S
C1090 O1104 1.249 . S
C1090 O1105 1.202 . S
C1091 C1089 1.363 . S
C1091 C1093 1.408 . S
C1091 C1096 1.342 . S
C1092 C1093 1.310 . S
C1092 C1095 1.461 . S
C1092 H1112 0.932 . S
C1093 C1091 1.408 . S
C1093 C1092 1.310 . S
C1093 H1113 0.930 . S
C1094 C1095 1.474 . S
C1094 C1096 1.285 . S
C1094 H1114 0.929 . S
C1095 C1092 1.461 . S
C1095 C1094 1.474 . S
C1096 C1091 1.342 . S
C1096 C1094 1.285 . S
C1096 H1115 0.930 . S
C1097 C1100 1.424 . S
C1097 C1102 1.245 . S
C1097 C1103 1.428 . S
C1098 C1101 1.260 . S
C1098 C1102 1.477 . S
C1098 H1116 0.932 . S
C1099 C1100 1.384 . S
C1099 C1101 1.479 . S
C1099 H1117 0.929 . S
C1100 C1097 1.424 . S
C1100 C1099 1.384 . S
C1100 H1118 0.928 . S
C1101 C1098 1.260 . S
C1101 C1099 1.479 . S
C1102 C1097 1.245 . S
C1102 C1098 1.477 . S
C1102 H1119 0.932 . S
C1103 U1086 2.882 . S
C1103 C1097 1.428 . S
C1103 O1106 1.301 . S
C1103 O1107 1.282 . S
O1104 U1086 2.441 . S
O1104 C1090 1.249 . S
O1105 U1086 2.420 . S
O1105 C1090 1.202 . S
O1106 U1086 2.455 . S
O1106 C1103 1.301 . S
O1107 U1086 2.449 . S
O1107 C1103 1.282 . S
H1108 C1081 0.931 . S
H1109 C1083 0.929 . S
H1110 C1084 0.930 . S
H1111 C1085 0.931 . S
H1112 C1092 0.932 . S
H1113 C1093 0.930 . S
H1114 C1094 0.929 . S
H1115 C1096 0.930 . S
H1116 C1098 0.932 . S
H1117 C1099 0.929 . S
H1118 C1100 0.928 . S
H1119 C1102 0.932 . S
C1120 C1121 1.264 . S
C1120 C1125 1.479 . S
C1120 C1130 1.465 . S
C1121 C1120 1.264 . S
C1121 C1123 1.339 . S
C1121 H1148 0.931 . S
C1122 C1123 1.395 . S
C1122 C1124 1.320 . S
C1123 C1121 1.339 . S
C1123 C1122 1.395 . S
C1123 H1149 0.929 . S
C1124 C1122 1.320 . S
C1124 C1125 1.405 . S
C1124 H1150 0.930 . S
C1125 C1120 1.479 . S
C1125 C1124 1.405 . S
C1125 H1151 0.931 . S
U1126 O1127 2.454 . S
U1126 O1128 2.458 . S
U1126 C1129 2.984 . S
U1126 C1130 2.847 . S
U1126 C1143 2.882 . S
U1126 O1144 2.441 . S
U1126 O1145 2.420 . S
U1126 O1146 2.455 . S
U1126 O1147 2.449 . S
O1127 U1126 2.454 . S
O1127 C1129 1.353 . S
O1128 U1126 2.458 . S
O1128 C1129 1.286 . S
C1129 U1126 2.984 . S
C1129 O1127 1.353 . S
C1129 O1128 1.286 . S
C1129 C1131 1.363 . S
C1130 C1120 1.465 . S
C1130 U1126 2.847 . S
C1130 O1144 1.249 . S
C1130 O1145 1.202 . S
C1131 C1129 1.363 . S
C1131 C1133 1.408 . S
C1131 C1136 1.342 . S
C1132 C1133 1.310 . S
C1132 C1135 1.461 . S
C1132 H1152 0.932 . S
C1133 C1131 1.408 . S
C1133 C1132 1.310 . S
C1133 H1153 0.930 . S
C1134 C1135 1.474 . S
C1134 C1136 1.285 . S
C1134 H1154 0.929 . S
C1135 C1132 1.461 . S
C1135 C1134 1.474 . S
C1136 C1131 1.342 . S
C1136 C1134 1.285 . S
C1136 H1155 0.930 . S
C1137 C1140 1.424 . S
C1137 C1142 1.245 . S
C1137 C1143 1.428 . S
C1138 C1141 1.260 . S
C1138 C1142 1.477 . S
C1138 H1156 0.932 . S
C1139 C1140 1.384 . S
C1139 C1141 1.479 . S
C1139 H1157 0.929 . S
C1140 C1137 1.424 . S
C1140 C1139 1.384 . S
C1140 H1158 0.928 . S
C1141 C1138 1.260 . S
C1141 C1139 1.479 . S
C1142 C1137 1.245 . S
C1142 C1138 1.477 . S
C1142 H1159 0.932 . S
C1143 U1126 2.882 . S
C1143 C1137 1.428 . S
C1143 O1146 1.301 . S
C1143 O1147 1.282 . S
O1144 U1126 2.441 . S
O1144 C1130 1.249 . S
O1145 U1126 2.420 . S
O1145 C1130 1.202 . S
O1146 U1126 2.455 . S
O1146 C1143 1.301 . S
O1147 U1126 2.449 . S
O1147 C1143 1.282 . S
H1148 C1121 0.931 . S
H1149 C1123 0.929 . S
H1150 C1124 0.930 . S
H1151 C1125 0.931 . S
H1152 C1132 0.932 . S
H1153 C1133 0.930 . S
H1154 C1134 0.929 . S
H1155 C1136 0.930 . S
H1156 C1138 0.932 . S
H1157 C1139 0.929 . S
H1158 C1140 0.928 . S
H1159 C1142 0.932 . S
C1160 C1161 1.264 . S
C1160 C1165 1.479 . S
C1160 C1170 1.465 . S
C1161 C1160 1.264 . S
C1161 C1163 1.339 . S
C1161 H1188 0.931 . S
C1162 C1163 1.395 . S
C1162 C1164 1.320 . S
C1163 C1161 1.339 . S
C1163 C1162 1.395 . S
C1163 H1189 0.929 . S
C1164 C1162 1.320 . S
C1164 C1165 1.405 . S
C1164 H1190 0.930 . S
C1165 C1160 1.479 . S
C1165 C1164 1.405 . S
C1165 H1191 0.931 . S
U1166 O1167 2.454 . S
U1166 O1168 2.458 . S
U1166 C1169 2.984 . S
U1166 C1170 2.847 . S
U1166 C1183 2.882 . S
U1166 O1184 2.441 . S
U1166 O1185 2.420 . S
U1166 O1186 2.455 . S
U1166 O1187 2.449 . S
O1167 U1166 2.454 . S
O1167 C1169 1.353 . S
O1168 U1166 2.458 . S
O1168 C1169 1.286 . S
C1169 U1166 2.984 . S
C1169 O1167 1.353 . S
C1169 O1168 1.286 . S
C1169 C1171 1.363 . S
C1170 C1160 1.465 . S
C1170 U1166 2.847 . S
C1170 O1184 1.249 . S
C1170 O1185 1.202 . S
C1171 C1169 1.363 . S
C1171 C1173 1.408 . S
C1171 C1176 1.342 . S
C1172 C1173 1.310 . S
C1172 C1175 1.461 . S
C1172 H1192 0.932 . S
C1173 C1171 1.408 . S
C1173 C1172 1.310 . S
C1173 H1193 0.930 . S
C1174 C1175 1.474 . S
C1174 C1176 1.285 . S
C1174 H1194 0.929 . S
C1175 C1172 1.461 . S
C1175 C1174 1.474 . S
C1176 C1171 1.342 . S
C1176 C1174 1.285 . S
C1176 H1195 0.930 . S
C1177 C1180 1.424 . S
C1177 C1182 1.245 . S
C1177 C1183 1.428 . S
C1178 C1181 1.260 . S
C1178 C1182 1.477 . S
C1178 H1196 0.932 . S
C1179 C1180 1.384 . S
C1179 C1181 1.479 . S
C1179 H1197 0.929 . S
C1180 C1177 1.424 . S
C1180 C1179 1.384 . S
C1180 H1198 0.928 . S
C1181 C1178 1.260 . S
C1181 C1179 1.479 . S
C1182 C1177 1.245 . S
C1182 C1178 1.477 . S
C1182 H1199 0.932 . S
C1183 U1166 2.882 . S
C1183 C1177 1.428 . S
C1183 O1186 1.301 . S
C1183 O1187 1.282 . S
O1184 U1166 2.441 . S
O1184 C1170 1.249 . S
O1185 U1166 2.420 . S
O1185 C1170 1.202 . S
O1186 U1166 2.455 . S
O1186 C1183 1.301 . S
O1187 U1166 2.449 . S
O1187 C1183 1.282 . S
H1188 C1161 0.931 . S
H1189 C1163 0.929 . S
H1190 C1164 0.930 . S
H1191 C1165 0.931 . S
H1192 C1172 0.932 . S
H1193 C1173 0.930 . S
H1194 C1174 0.929 . S
H1195 C1176 0.930 . S
H1196 C1178 0.932 . S
H1197 C1179 0.929 . S
H1198 C1180 0.928 . S
H1199 C1182 0.932 . S
C1200 C1201 1.264 . S
C1200 C1205 1.479 . S
C1200 C1210 1.465 . S
C1201 C1200 1.264 . S
C1201 C1203 1.339 . S
C1201 H1228 0.931 . S
C1202 C1203 1.395 . S
C1202 C1204 1.320 . S
C1203 C1201 1.339 . S
C1203 C1202 1.395 . S
C1203 H1229 0.929 . S
C1204 C1202 1.320 . S
C1204 C1205 1.405 . S
C1204 H1230 0.930 . S
C1205 C1200 1.479 . S
C1205 C1204 1.405 . S
C1205 H1231 0.931 . S
U1206 O1207 2.454 . S
U1206 O1208 2.458 . S
U1206 C1209 2.984 . S
U1206 C1210 2.847 . S
U1206 C1223 2.882 . S
U1206 O1224 2.441 . S
U1206 O1225 2.420 . S
U1206 O1226 2.455 . S
U1206 O1227 2.449 . S
O1207 U1206 2.454 . S
O1207 C1209 1.353 . S
O1208 U1206 2.458 . S
O1208 C1209 1.286 . S
C1209 U1206 2.984 . S
C1209 O1207 1.353 . S
C1209 O1208 1.286 . S
C1209 C1211 1.363 . S
C1210 C1200 1.465 . S
C1210 U1206 2.847 . S
C1210 O1224 1.249 . S
C1210 O1225 1.202 . S
C1211 C1209 1.363 . S
C1211 C1213 1.408 . S
C1211 C1216 1.342 . S
C1212 C1213 1.310 . S
C1212 C1215 1.461 . S
C1212 H1232 0.932 . S
C1213 C1211 1.408 . S
C1213 C1212 1.310 . S
C1213 H1233 0.930 . S
C1214 C1215 1.474 . S
C1214 C1216 1.285 . S
C1214 H1234 0.929 . S
C1215 C1212 1.461 . S
C1215 C1214 1.474 . S
C1216 C1211 1.342 . S
C1216 C1214 1.285 . S
C1216 H1235 0.930 . S
C1217 C1220 1.424 . S
C1217 C1222 1.245 . S
C1217 C1223 1.428 . S
C1218 C1221 1.260 . S
C1218 C1222 1.477 . S
C1218 H1236 0.932 . S
C1219 C1220 1.384 . S
C1219 C1221 1.479 . S
C1219 H1237 0.929 . S
C1220 C1217 1.424 . S
C1220 C1219 1.384 . S
C1220 H1238 0.928 . S
C1221 C1218 1.260 . S
C1221 C1219 1.479 . S
C1222 C1217 1.245 . S
C1222 C1218 1.477 . S
C1222 H1239 0.932 . S
C1223 U1206 2.882 . S
C1223 C1217 1.428 . S
C1223 O1226 1.301 . S
C1223 O1227 1.282 . S
O1224 U1206 2.441 . S
O1224 C1210 1.249 . S
O1225 U1206 2.420 . S
O1225 C1210 1.202 . S
O1226 U1206 2.455 . S
O1226 C1223 1.301 . S
O1227 U1206 2.449 . S
O1227 C1223 1.282 . S
H1228 C1201 0.931 . S
H1229 C1203 0.929 . S
H1230 C1204 0.930 . S
H1231 C1205 0.931 . S
H1232 C1212 0.932 . S
H1233 C1213 0.930 . S
H1234 C1214 0.929 . S
H1235 C1216 0.930 . S
H1236 C1218 0.932 . S
H1237 C1219 0.929 . S
H1238 C1220 0.928 . S
H1239 C1222 0.932 . S
C1240 C1241 1.264 . S
C1240 C1245 1.479 . S
C1240 C1250 1.465 . S
C1241 C1240 1.264 . S
C1241 C1243 1.339 . S
C1241 H1268 0.931 . S
C1242 C1243 1.395 . S
C1242 C1244 1.320 . S
C1243 C1241 1.339 . S
C1243 C1242 1.395 . S
C1243 H1269 0.929 . S
C1244 C1242 1.320 . S
C1244 C1245 1.405 . S
C1244 H1270 0.930 . S
C1245 C1240 1.479 . S
C1245 C1244 1.405 . S
C1245 H1271 0.931 . S
U1246 O1247 2.454 . S
U1246 O1248 2.458 . S
U1246 C1249 2.984 . S
U1246 C1250 2.847 . S
U1246 C1263 2.882 . S
U1246 O1264 2.441 . S
U1246 O1265 2.420 . S
U1246 O1266 2.455 . S
U1246 O1267 2.449 . S
O1247 U1246 2.454 . S
O1247 C1249 1.353 . S
O1248 U1246 2.458 . S
O1248 C1249 1.286 . S
C1249 U1246 2.984 . S
C1249 O1247 1.353 . S
C1249 O1248 1.286 . S
C1249 C1251 1.363 . S
C1250 C1240 1.465 . S
C1250 U1246 2.847 . S
C1250 O1264 1.249 . S
C1250 O1265 1.202 . S
C1251 C1249 1.363 . S
C1251 C1253 1.408 . S
C1251 C1256 1.342 . S
C1252 C1253 1.310 . S
C1252 C1255 1.461 . S
C1252 H1272 0.932 . S
C1253 C1251 1.408 . S
C1253 C1252 1.310 . S
C1253 H1273 0.930 . S
C1254 C1255 1.474 . S
C1254 C1256 1.285 . S
C1254 H1274 0.929 . S
C1255 C1252 1.461 . S
C1255 C1254 1.474 . S
C1256 C1251 1.342 . S
C1256 C1254 1.285 . S
C1256 H1275 0.930 . S
C1257 C1260 1.424 . S
C1257 C1262 1.245 . S
C1257 C1263 1.428 . S
C1258 C1261 1.260 . S
C1258 C1262 1.477 . S
C1258 H1276 0.932 . S
C1259 C1260 1.384 . S
C1259 C1261 1.479 . S
C1259 H1277 0.929 . S
C1260 C1257 1.424 . S
C1260 C1259 1.384 . S
C1260 H1278 0.928 . S
C1261 C1258 1.260 . S
C1261 C1259 1.479 . S
C1262 C1257 1.245 . S
C1262 C1258 1.477 . S
C1262 H1279 0.932 . S
C1263 U1246 2.882 . S
C1263 C1257 1.428 . S
C1263 O1266 1.301 . S
C1263 O1267 1.282 . S
O1264 U1246 2.441 . S
O1264 C1250 1.249 . S
O1265 U1246 2.420 . S
O1265 C1250 1.202 . S
O1266 U1246 2.455 . S
O1266 C1263 1.301 . S
O1267 U1246 2.449 . S
O1267 C1263 1.282 . S
H1268 C1241 0.931 . S
H1269 C1243 0.929 . S
H1270 C1244 0.930 . S
H1271 C1245 0.931 . S
H1272 C1252 0.932 . S
H1273 C1253 0.930 . S
H1274 C1254 0.929 . S
H1275 C1256 0.930 . S
H1276 C1258 0.932 . S
H1277 C1259 0.929 . S
H1278 C1260 0.928 . S
H1279 C1262 0.932 . S
H1280 O1306 0.856 . S
H1281 O1309 0.854 . S
H1282 C1317 0.930 . S
H1283 C1318 0.930 . S
H1284 C1320 0.930 . S
H1285 C1321 0.930 . S
H1286 C1323 0.931 . S
H1287 C1324 0.930 . S
H1288 C1326 0.930 . S
H1289 C1327 0.929 . S
H1290 C1329 0.930 . S
H1291 C1330 0.931 . S
H1292 C1332 0.930 . S
H1293 C1333 0.929 . S
H1294 C1335 0.931 . S
H1295 C1336 0.930 . S
H1296 C1338 0.930 . S
H1297 C1339 0.932 . S
H1298 C1341 0.930 . S
H1299 C1342 0.929 . S
H1300 C1344 0.931 . S
H1301 C1345 0.930 . S
H1302 C1347 0.929 . S
H1303 C1348 0.931 . S
H1304 C1350 0.930 . S
H1305 C1351 0.929 . S
O1306 H1280 0.856 . S
O1306 C1352 1.300 . S
O1307 C1352 1.209 . S
O1308 C1353 1.199 . S
O1309 H1281 0.854 . S
O1309 C1353 1.297 . S
C1310 C1311 1.404 . S
C1310 C1315 1.397 . S
C1310 C1316 1.492 1_554 S
C1311 C1310 1.404 . S
C1311 C1312 1.396 . S
C1311 C1322 1.492 . S
C1312 C1311 1.396 . S
C1312 C1313 1.397 . S
C1312 C1328 1.509 . S
C1313 C1312 1.397 . S
C1313 C1314 1.412 . S
C1313 C1334 1.485 . S
C1314 C1313 1.412 . S
C1314 C1315 1.388 . S
C1314 C1340 1.490 . S
C1315 C1310 1.397 . S
C1315 C1314 1.388 . S
C1315 C1346 1.519 1_554 S
C1316 C1310 1.492 1_556 S
C1316 C1317 1.363 . S
C1316 C1321 1.390 . S
C1317 H1282 0.930 . S
C1317 C1316 1.363 . S
C1317 C1318 1.372 . S
C1318 H1283 0.930 . S
C1318 C1317 1.372 . S
C1318 C1319 1.383 . S
C1319 C1318 1.383 . S
C1319 C1320 1.395 . S
C1320 H1284 0.930 . S
C1320 C1319 1.395 . S
C1320 C1321 1.362 . S
C1321 H1285 0.930 . S
C1321 C1316 1.390 . S
C1321 C1320 1.362 . S
C1322 C1311 1.492 . S
C1322 C1323 1.377 . S
C1322 C1327 1.397 . S
C1323 H1286 0.931 . S
C1323 C1322 1.377 . S
C1323 C1324 1.376 . S
C1324 H1287 0.930 . S
C1324 C1323 1.376 . S
C1324 C1325 1.376 . S
C1325 C1324 1.376 . S
C1325 C1326 1.378 . S
C1325 C1352 1.486 . S
C1326 H1288 0.930 . S
C1326 C1325 1.378 . S
C1326 C1327 1.376 . S
C1327 H1289 0.929 . S
C1327 C1322 1.397 . S
C1327 C1326 1.376 . S
C1328 C1312 1.509 . S
C1328 C1329 1.391 . S
C1328 C1333 1.386 . S
C1329 H1290 0.930 . S
C1329 C1328 1.391 . S
C1329 C1330 1.375 . S
C1330 H1291 0.931 . S
C1330 C1329 1.375 . S
C1330 C1331 1.375 . S
C1331 C1330 1.375 . S
C1331 C1332 1.361 . S
C1332 H1292 0.930 . S
C1332 C1331 1.361 . S
C1332 C1333 1.399 . S
C1333 H1293 0.929 . S
C1333 C1328 1.386 . S
C1333 C1332 1.399 . S
C1334 C1313 1.485 . S
C1334 C1335 1.394 . S
C1334 C1339 1.360 . S
C1335 H1294 0.931 . S
C1335 C1334 1.394 . S
C1335 C1336 1.372 . S
C1336 H1295 0.930 . S
C1336 C1335 1.372 . S
C1336 C1337 1.397 . S
C1337 C1336 1.397 . S
C1337 C1338 1.390 . S
C1337 C1353 1.476 . S
C1338 H1296 0.930 . S
C1338 C1337 1.390 . S
C1338 C1339 1.366 . S
C1339 H1297 0.932 . S
C1339 C1334 1.360 . S
C1339 C1338 1.366 . S
C1340 C1314 1.490 . S
C1340 C1341 1.380 . S
C1340 C1345 1.386 . S
C1341 H1298 0.930 . S
C1341 C1340 1.380 . S
C1341 C1342 1.381 . S
C1342 H1299 0.929 . S
C1342 C1341 1.381 . S
C1342 C1343 1.371 . S
C1343 C1342 1.371 . S
C1343 C1344 1.380 . S
C1344 H1300 0.931 . S
C1344 C1343 1.380 . S
C1344 C1345 1.387 . S
C1345 H1301 0.930 . S
C1345 C1340 1.386 . S
C1345 C1344 1.387 . S
C1346 C1315 1.519 1_556 S
C1346 C1347 1.377 . S
C1346 C1351 1.361 . S
C1347 H1302 0.929 . S
C1347 C1346 1.377 . S
C1347 C1348 1.386 . S
C1348 H1303 0.931 . S
C1348 C1347 1.386 . S
C1348 C1349 1.363 . S
C1349 C1348 1.363 . S
C1349 C1350 1.385 . S
C1350 H1304 0.930 . S
C1350 C1349 1.385 . S
C1350 C1351 1.396 . S
C1351 H1305 0.929 . S
C1351 C1346 1.361 . S
C1351 C1350 1.396 . S
C1352 O1306 1.300 . S
C1352 O1307 1.209 . S
C1352 C1325 1.486 . S
C1353 O1308 1.199 . S
C1353 O1309 1.297 . S
C1353 C1337 1.476 . S
H1354 O1380 0.856 . S
H1355 O1383 0.854 . S
H1356 C1391 0.930 . S
H1357 C1392 0.930 . S
H1358 C1394 0.930 . S
H1359 C1395 0.930 . S
H1360 C1397 0.931 . S
H1361 C1398 0.930 . S
H1362 C1400 0.930 . S
H1363 C1401 0.929 . S
H1364 C1403 0.930 . S
H1365 C1404 0.931 . S
H1366 C1406 0.930 . S
H1367 C1407 0.929 . S
H1368 C1409 0.931 . S
H1369 C1410 0.930 . S
H1370 C1412 0.930 . S
H1371 C1413 0.932 . S
H1372 C1415 0.930 . S
H1373 C1416 0.929 . S
H1374 C1418 0.931 . S
H1375 C1419 0.930 . S
H1376 C1421 0.929 . S
H1377 C1422 0.931 . S
H1378 C1424 0.930 . S
H1379 C1425 0.929 1_554 S
O1380 H1354 0.856 . S
O1380 C1426 1.300 . S
O1381 C1426 1.209 . S
O1382 C1427 1.199 . S
O1383 H1355 0.854 . S
O1383 C1427 1.297 . S
C1384 C1385 1.416 . S
C1384 C1389 1.402 . S
C1384 C1390 1.475 1_554 S
C1385 C1384 1.416 . S
C1385 C1386 1.396 . S
C1385 C1396 1.492 . S
C1386 C1385 1.396 . S
C1386 C1387 1.397 . S
C1386 C1402 1.509 . S
C1387 C1386 1.397 . S
C1387 C1388 1.412 . S
C1387 C1408 1.485 . S
C1388 C1387 1.412 . S
C1388 C1389 1.388 . S
C1388 C1414 1.490 . S
C1389 C1384 1.402 . S
C1389 C1388 1.388 . S
C1389 C1420 1.519 1_554 S
C1390 C1384 1.475 1_556 S
C1390 C1391 1.363 . S
C1390 C1395 1.390 . S
C1391 H1356 0.930 . S
C1391 C1390 1.363 . S
C1391 C1392 1.372 . S
C1392 H1357 0.930 . S
C1392 C1391 1.372 . S
C1392 C1393 1.383 . S
C1393 C1392 1.383 . S
C1393 C1394 1.395 . S
C1394 H1358 0.930 . S
C1394 C1393 1.395 . S
C1394 C1395 1.362 . S
C1395 H1359 0.930 . S
C1395 C1390 1.390 . S
C1395 C1394 1.362 . S
C1396 C1385 1.492 . S
C1396 C1397 1.377 . S
C1396 C1401 1.397 1_554 S
C1397 H1360 0.931 . S
C1397 C1396 1.377 . S
C1397 C1398 1.376 . S
C1398 H1361 0.930 . S
C1398 C1397 1.376 . S
C1398 C1399 1.376 1_554 S
C1399 C1398 1.376 1_556 S
C1399 C1400 1.378 . S
C1399 C1426 1.486 . S
C1400 H1362 0.930 . S
C1400 C1399 1.378 . S
C1400 C1401 1.376 . S
C1401 H1363 0.929 . S
C1401 C1396 1.397 1_556 S
C1401 C1400 1.376 . S
C1402 C1386 1.509 . S
C1402 C1403 1.391 . S
C1402 C1407 1.386 . S
C1403 H1364 0.930 . S
C1403 C1402 1.391 . S
C1403 C1404 1.375 . S
C1404 H1365 0.931 . S
C1404 C1403 1.375 . S
C1404 C1405 1.375 . S
C1405 C1404 1.375 . S
C1405 C1406 1.361 . S
C1406 H1366 0.930 . S
C1406 C1405 1.361 . S
C1406 C1407 1.399 . S
C1407 H1367 0.929 . S
C1407 C1402 1.386 . S
C1407 C1406 1.399 . S
C1408 C1387 1.485 . S
C1408 C1409 1.394 . S
C1408 C1413 1.360 . S
C1409 H1368 0.931 . S
C1409 C1408 1.394 . S
C1409 C1410 1.372 . S
C1410 H1369 0.930 . S
C1410 C1409 1.372 . S
C1410 C1411 1.397 . S
C1411 C1410 1.397 . S
C1411 C1412 1.390 . S
C1411 C1427 1.476 . S
C1412 H1370 0.930 . S
C1412 C1411 1.390 . S
C1412 C1413 1.366 . S
C1413 H1371 0.932 . S
C1413 C1408 1.360 . S
C1413 C1412 1.366 . S
C1414 C1388 1.490 . S
C1414 C1415 1.380 . S
C1414 C1419 1.386 . S
C1415 H1372 0.930 . S
C1415 C1414 1.380 . S
C1415 C1416 1.381 . S
C1416 H1373 0.929 . S
C1416 C1415 1.381 . S
C1416 C1417 1.371 . S
C1417 C1416 1.371 . S
C1417 C1418 1.380 . S
C1418 H1374 0.931 . S
C1418 C1417 1.380 . S
C1418 C1419 1.387 . S
C1419 H1375 0.930 . S
C1419 C1414 1.386 . S
C1419 C1418 1.387 . S
C1420 C1389 1.519 1_556 S
C1420 C1421 1.377 . S
C1420 C1425 1.361 . S
C1421 H1376 0.929 . S
C1421 C1420 1.377 . S
C1421 C1422 1.386 . S
C1422 H1377 0.931 . S
C1422 C1421 1.386 . S
C1422 C1423 1.363 . S
C1423 C1422 1.363 . S
C1423 C1424 1.385 . S
C1424 H1378 0.930 . S
C1424 C1423 1.385 . S
C1424 C1425 1.396 . S
C1425 H1379 0.929 1_556 S
C1425 C1420 1.361 . S
C1425 C1424 1.396 . S
C1426 O1380 1.300 . S
C1426 O1381 1.209 . S
C1426 C1399 1.486 . S
C1427 O1382 1.199 . S
C1427 O1383 1.297 . S
C1427 C1411 1.476 . S
H1428 O1454 0.856 . S
H1429 O1457 0.854 . S
H1430 C1465 0.930 . S
H1431 C1466 0.930 . S
H1432 C1468 0.930 . S
H1433 C1469 0.930 . S
H1434 C1471 0.931 . S
H1435 C1472 0.930 . S
H1436 C1474 0.930 . S
H1437 C1475 0.929 . S
H1438 C1477 0.930 . S
H1439 C1478 0.931 . S
H1440 C1480 0.930 . S
H1441 C1481 0.929 . S
H1442 C1483 0.931 . S
H1443 C1484 0.930 . S
H1444 C1486 0.930 . S
H1445 C1487 0.932 . S
H1446 C1489 0.930 1_554 S
H1447 C1490 0.929 . S
H1448 C1492 0.931 . S
H1449 C1493 0.930 . S
H1450 C1495 0.929 . S
H1451 C1496 0.931 . S
H1452 C1498 0.930 . S
H1453 C1499 0.929 . S
O1454 H1428 0.856 . S
O1454 C1500 1.300 . S
O1455 C1500 1.209 . S
O1456 C1501 1.199 . S
O1457 H1429 0.854 . S
O1457 C1501 1.297 . S
C1458 C1459 1.404 . S
C1458 C1463 1.397 . S
C1458 C1464 1.492 . S
C1459 C1458 1.404 . S
C1459 C1460 1.396 1_554 S
C1459 C1470 1.492 . S
C1460 C1459 1.396 1_556 S
C1460 C1461 1.397 . S
C1460 C1476 1.509 . S
C1461 C1460 1.397 . S
C1461 C1462 1.412 . S
C1461 C1482 1.485 . S
C1462 C1461 1.412 . S
C1462 C1463 1.389 1_556 S
C1462 C1488 1.490 . S
C1463 C1458 1.397 . S
C1463 C1462 1.389 1_554 S
C1463 C1494 1.519 . S
C1464 C1458 1.492 . S
C1464 C1465 1.363 . S
C1464 C1469 1.390 . S
C1465 H1430 0.930 . S
C1465 C1464 1.363 . S
C1465 C1466 1.372 . S
C1466 H1431 0.930 . S
C1466 C1465 1.372 . S
C1466 C1467 1.383 . S
C1467 C1466 1.383 . S
C1467 C1468 1.395 . S
C1468 H1432 0.930 . S
C1468 C1467 1.395 . S
C1468 C1469 1.362 . S
C1469 H1433 0.930 . S
C1469 C1464 1.390 . S
C1469 C1468 1.362 . S
C1470 C1459 1.492 . S
C1470 C1471 1.377 . S
C1470 C1475 1.397 . S
C1471 H1434 0.931 . S
C1471 C1470 1.377 . S
C1471 C1472 1.376 . S
C1472 H1435 0.930 . S
C1472 C1471 1.376 . S
C1472 C1473 1.376 . S
C1473 C1472 1.376 . S
C1473 C1474 1.378 . S
C1473 C1500 1.486 . S
C1474 H1436 0.930 . S
C1474 C1473 1.378 . S
C1474 C1475 1.376 . S
C1475 H1437 0.929 . S
C1475 C1470 1.397 . S
C1475 C1474 1.376 . S
C1476 C1460 1.509 . S
C1476 C1477 1.391 . S
C1476 C1481 1.386 . S
C1477 H1438 0.930 . S
C1477 C1476 1.391 . S
C1477 C1478 1.375 . S
C1478 H1439 0.931 . S
C1478 C1477 1.375 . S
C1478 C1479 1.375 . S
C1479 C1478 1.375 . S
C1479 C1480 1.361 . S
C1480 H1440 0.930 . S
C1480 C1479 1.361 . S
C1480 C1481 1.399 . S
C1481 H1441 0.929 . S
C1481 C1476 1.386 . S
C1481 C1480 1.399 . S
C1482 C1461 1.485 . S
C1482 C1483 1.394 . S
C1482 C1487 1.360 . S
C1483 H1442 0.931 . S
C1483 C1482 1.394 . S
C1483 C1484 1.372 . S
C1484 H1443 0.930 . S
C1484 C1483 1.372 . S
C1484 C1485 1.397 . S
C1485 C1484 1.397 . S
C1485 C1486 1.390 . S
C1485 C1501 1.476 . S
C1486 H1444 0.930 . S
C1486 C1485 1.390 . S
C1486 C1487 1.366 . S
C1487 H1445 0.932 . S
C1487 C1482 1.360 . S
C1487 C1486 1.366 . S
C1488 C1462 1.490 . S
C1488 C1489 1.380 . S
C1488 C1493 1.386 . S
C1489 H1446 0.930 1_556 S
C1489 C1488 1.380 . S
C1489 C1490 1.381 . S
C1490 H1447 0.929 . S
C1490 C1489 1.381 . S
C1490 C1491 1.371 . S
C1491 C1490 1.371 . S
C1491 C1492 1.380 . S
C1492 H1448 0.931 . S
C1492 C1491 1.380 . S
C1492 C1493 1.387 . S
C1493 H1449 0.930 . S
C1493 C1488 1.386 . S
C1493 C1492 1.387 . S
C1494 C1463 1.519 . S
C1494 C1495 1.377 . S
C1494 C1499 1.361 . S
C1495 H1450 0.929 . S
C1495 C1494 1.377 . S
C1495 C1496 1.386 . S
C1496 H1451 0.931 . S
C1496 C1495 1.386 . S
C1496 C1497 1.363 . S
C1497 C1496 1.363 . S
C1497 C1498 1.385 . S
C1498 H1452 0.930 . S
C1498 C1497 1.385 . S
C1498 C1499 1.396 . S
C1499 H1453 0.929 . S
C1499 C1494 1.361 . S
C1499 C1498 1.396 . S
C1500 O1454 1.300 . S
C1500 O1455 1.209 . S
C1500 C1473 1.486 . S
C1501 O1456 1.199 . S
C1501 O1457 1.297 . S
C1501 C1485 1.476 . S
H1502 O1528 0.856 . S
H1503 O1531 0.854 . S
H1504 C1539 0.930 . S
H1505 C1540 0.930 . S
H1506 C1542 0.930 . S
H1507 C1543 0.930 . S
H1508 C1545 0.931 . S
H1509 C1546 0.930 . S
H1510 C1548 0.930 . S
H1511 C1549 0.929 . S
H1512 C1551 0.930 . S
H1513 C1552 0.931 . S
H1514 C1554 0.930 . S
H1515 C1555 0.929 . S
H1516 C1557 0.931 . S
H1517 C1558 0.930 . S
H1518 C1560 0.930 . S
H1519 C1561 0.932 . S
H1520 C1563 0.930 . S
H1521 C1564 0.929 . S
H1522 C1566 0.931 . S
H1523 C1567 0.930 . S
H1524 C1569 0.929 . S
H1525 C1570 0.931 . S
H1526 C1572 0.930 . S
H1527 C1573 0.948 . S
O1528 H1502 0.856 . S
O1528 C1574 1.300 . S
O1529 C1574 1.209 . S
O1530 C1575 1.199 . S
O1531 H1503 0.854 . S
O1531 C1575 1.297 . S
C1532 C1533 1.393 1_556 S
C1532 C1537 1.391 1_556 S
C1532 C1538 1.509 . S
C1533 C1532 1.393 1_554 S
C1533 C1534 1.396 . S
C1533 C1544 1.492 . S
C1534 C1533 1.396 . S
C1534 C1535 1.397 . S
C1534 C1550 1.509 . S
C1535 C1534 1.397 . S
C1535 C1536 1.412 . S
C1535 C1556 1.485 . S
C1536 C1535 1.412 . S
C1536 C1537 1.388 . S
C1536 C1562 1.490 . S
C1537 C1532 1.391 1_554 S
C1537 C1536 1.388 . S
C1537 C1568 1.519 1_554 S
C1538 C1532 1.509 . S
C1538 C1539 1.363 . S
C1538 C1543 1.390 . S
C1539 H1504 0.930 . S
C1539 C1538 1.363 . S
C1539 C1540 1.372 . S
C1540 H1505 0.930 . S
C1540 C1539 1.372 . S
C1540 C1541 1.383 . S
C1541 C1540 1.383 . S
C1541 C1542 1.395 . S
C1542 H1506 0.930 . S
C1542 C1541 1.395 . S
C1542 C1543 1.362 . S
C1543 H1507 0.930 . S
C1543 C1538 1.390 . S
C1543 C1542 1.362 . S
C1544 C1533 1.492 . S
C1544 C1545 1.377 . S
C1544 C1549 1.397 1_554 S
C1545 H1508 0.931 . S
C1545 C1544 1.377 . S
C1545 C1546 1.376 . S
C1546 H1509 0.930 . S
C1546 C1545 1.376 . S
C1546 C1547 1.376 1_554 S
C1547 C1546 1.376 1_556 S
C1547 C1548 1.378 . S
C1547 C1574 1.486 . S
C1548 H1510 0.930 . S
C1548 C1547 1.378 . S
C1548 C1549 1.376 . S
C1549 H1511 0.929 . S
C1549 C1544 1.397 1_556 S
C1549 C1548 1.376 . S
C1550 C1534 1.509 . S
C1550 C1551 1.391 . S
C1550 C1555 1.386 . S
C1551 H1512 0.930 . S
C1551 C1550 1.391 . S
C1551 C1552 1.375 . S
C1552 H1513 0.931 . S
C1552 C1551 1.375 . S
C1552 C1553 1.375 . S
C1553 C1552 1.375 . S
C1553 C1554 1.361 . S
C1554 H1514 0.930 . S
C1554 C1553 1.361 . S
C1554 C1555 1.399 . S
C1555 H1515 0.929 . S
C1555 C1550 1.386 . S
C1555 C1554 1.399 . S
C1556 C1535 1.485 . S
C1556 C1557 1.394 . S
C1556 C1561 1.360 . S
C1557 H1516 0.931 . S
C1557 C1556 1.394 . S
C1557 C1558 1.372 . S
C1558 H1517 0.930 . S
C1558 C1557 1.372 . S
C1558 C1559 1.397 . S
C1559 C1558 1.397 . S
C1559 C1560 1.390 . S
C1559 C1575 1.476 . S
C1560 H1518 0.930 . S
C1560 C1559 1.390 . S
C1560 C1561 1.366 . S
C1561 H1519 0.932 . S
C1561 C1556 1.360 . S
C1561 C1560 1.366 . S
C1562 C1536 1.490 . S
C1562 C1563 1.380 . S
C1562 C1567 1.386 . S
C1563 H1520 0.930 . S
C1563 C1562 1.380 . S
C1563 C1564 1.381 . S
C1564 H1521 0.929 . S
C1564 C1563 1.381 . S
C1564 C1565 1.371 . S
C1565 C1564 1.371 . S
C1565 C1566 1.380 . S
C1566 H1522 0.931 . S
C1566 C1565 1.380 . S
C1566 C1567 1.387 . S
C1567 H1523 0.930 . S
C1567 C1562 1.386 . S
C1567 C1566 1.387 . S
C1568 C1537 1.519 1_556 S
C1568 C1569 1.377 . S
C1568 C1573 1.361 . S
C1569 H1524 0.929 . S
C1569 C1568 1.377 . S
C1569 C1570 1.386 . S
C1570 H1525 0.931 . S
C1570 C1569 1.386 . S
C1570 C1571 1.363 . S
C1571 C1570 1.363 . S
C1571 C1572 1.385 . S
C1572 H1526 0.930 . S
C1572 C1571 1.385 . S
C1572 C1573 1.396 . S
C1573 H1527 0.948 . S
C1573 C1568 1.361 . S
C1573 C1572 1.396 . S
C1574 O1528 1.300 . S
C1574 O1529 1.209 . S
C1574 C1547 1.486 . S
C1575 O1530 1.199 . S
C1575 O1531 1.297 . S
C1575 C1559 1.476 . S
H1576 O1602 0.856 . S
H1577 O1605 0.854 . S
H1578 C1613 0.930 . S
H1579 C1614 0.930 . S
H1580 C1616 0.930 . S
H1581 C1617 0.930 . S
H1582 C1619 0.931 . S
H1583 C1620 0.930 . S
H1584 C1622 0.930 . S
H1585 C1623 0.929 . S
H1586 C1625 0.930 . S
H1587 C1626 0.931 . S
H1588 C1628 0.930 . S
H1589 C1629 0.929 . S
H1590 C1631 0.931 . S
H1591 C1632 0.930 . S
H1592 C1634 0.930 . S
H1593 C1635 0.932 . S
H1594 C1637 0.930 . S
H1595 C1638 0.929 . S
H1596 C1640 0.931 . S
H1597 C1641 0.930 . S
H1598 C1643 0.929 . S
H1599 C1644 0.931 . S
H1600 C1646 0.930 . S
H1601 C1647 0.929 1_455 S
O1602 H1576 0.856 . S
O1602 C1648 1.300 . S
O1603 C1648 1.209 . S
O1604 C1649 1.199 . S
O1605 H1577 0.854 . S
O1605 C1649 1.297 . S
C1606 C1607 1.404 . S
C1606 C1611 1.397 . S
C1606 C1612 1.492 1_455 S
C1607 C1606 1.404 . S
C1607 C1608 1.396 . S
C1607 C1618 1.492 . S
C1608 C1607 1.396 . S
C1608 C1609 1.397 . S
C1608 C1624 1.509 . S
C1609 C1608 1.397 . S
C1609 C1610 1.412 . S
C1609 C1630 1.485 . S
C1610 C1609 1.412 . S
C1610 C1611 1.388 . S
C1610 C1636 1.490 . S
C1611 C1606 1.397 . S
C1611 C1610 1.388 . S
C1611 C1642 1.552 . S
C1612 C1606 1.492 1_655 S
C1612 C1613 1.363 . S
C1612 C1617 1.390 . S
C1613 H1578 0.930 . S
C1613 C1612 1.363 . S
C1613 C1614 1.372 . S
C1614 H1579 0.930 . S
C1614 C1613 1.372 . S
C1614 C1615 1.383 . S
C1615 C1614 1.383 . S
C1615 C1616 1.395 . S
C1616 H1580 0.930 . S
C1616 C1615 1.395 . S
C1616 C1617 1.362 . S
C1617 H1581 0.930 . S
C1617 C1612 1.390 . S
C1617 C1616 1.362 . S
C1618 C1607 1.492 . S
C1618 C1619 1.377 . S
C1618 C1623 1.397 . S
C1619 H1582 0.931 . S
C1619 C1618 1.377 . S
C1619 C1620 1.376 . S
C1620 H1583 0.930 . S
C1620 C1619 1.376 . S
C1620 C1621 1.376 . S
C1621 C1620 1.376 . S
C1621 C1622 1.378 . S
C1621 C1648 1.486 . S
C1622 H1584 0.930 . S
C1622 C1621 1.378 . S
C1622 C1623 1.376 . S
C1623 H1585 0.929 . S
C1623 C1618 1.397 . S
C1623 C1622 1.376 . S
C1624 C1608 1.509 . S
C1624 C1625 1.391 . S
C1624 C1629 1.386 . S
C1625 H1586 0.930 . S
C1625 C1624 1.391 . S
C1625 C1626 1.375 . S
C1626 H1587 0.931 . S
C1626 C1625 1.375 . S
C1626 C1627 1.375 . S
C1627 C1626 1.375 . S
C1627 C1628 1.361 . S
C1628 H1588 0.930 . S
C1628 C1627 1.361 . S
C1628 C1629 1.399 . S
C1629 H1589 0.929 . S
C1629 C1624 1.386 . S
C1629 C1628 1.399 . S
C1630 C1609 1.485 . S
C1630 C1631 1.394 . S
C1630 C1635 1.360 . S
C1631 H1590 0.931 . S
C1631 C1630 1.394 . S
C1631 C1632 1.372 . S
C1632 H1591 0.930 . S
C1632 C1631 1.372 . S
C1632 C1633 1.397 . S
C1633 C1632 1.397 . S
C1633 C1634 1.390 . S
C1633 C1649 1.476 . S
C1634 H1592 0.930 . S
C1634 C1633 1.390 . S
C1634 C1635 1.366 . S
C1635 H1593 0.932 . S
C1635 C1630 1.360 . S
C1635 C1634 1.366 . S
C1636 C1610 1.490 . S
C1636 C1637 1.380 . S
C1636 C1641 1.386 . S
C1637 H1594 0.930 . S
C1637 C1636 1.380 . S
C1637 C1638 1.381 . S
C1638 H1595 0.929 . S
C1638 C1637 1.381 . S
C1638 C1639 1.371 . S
C1639 C1638 1.371 . S
C1639 C1640 1.380 . S
C1640 H1596 0.931 . S
C1640 C1639 1.380 . S
C1640 C1641 1.387 . S
C1641 H1597 0.930 . S
C1641 C1636 1.386 . S
C1641 C1640 1.387 . S
C1642 C1611 1.552 . S
C1642 C1643 1.350 1_455 S
C1642 C1647 1.356 1_455 S
C1643 H1598 0.929 . S
C1643 C1642 1.350 1_655 S
C1643 C1644 1.386 . S
C1644 H1599 0.931 . S
C1644 C1643 1.386 . S
C1644 C1645 1.363 . S
C1645 C1644 1.363 . S
C1645 C1646 1.385 . S
C1646 H1600 0.930 . S
C1646 C1645 1.385 . S
C1646 C1647 1.396 . S
C1647 H1601 0.929 1_655 S
C1647 C1642 1.356 1_655 S
C1647 C1646 1.396 . S
C1648 O1602 1.300 . S
C1648 O1603 1.209 . S
C1648 C1621 1.486 . S
C1649 O1604 1.199 . S
C1649 O1605 1.297 . S
C1649 C1633 1.476 . S
H1650 O1676 0.845 1_565 S
H1651 O1679 0.854 . S
H1652 C1687 0.930 . S
H1653 C1688 0.930 . S
H1654 C1690 0.930 . S
H1655 C1691 0.930 . S
H1656 C1693 0.931 . S
H1657 C1694 0.930 . S
H1658 C1696 0.930 . S
H1659 C1697 0.932 . S
H1660 C1699 0.930 . S
H1661 C1700 0.931 . S
H1662 C1702 0.930 . S
H1663 C1703 0.929 . S
H1664 C1705 0.931 . S
H1665 C1706 0.930 . S
H1666 C1708 0.930 . S
H1667 C1709 0.932 . S
H1668 C1711 0.930 . S
H1669 C1712 0.929 . S
H1670 C1714 0.931 . S
H1671 C1715 0.930 . S
H1672 C1717 0.929 . S
H1673 C1718 0.931 . S
H1674 C1720 0.930 . S
H1675 C1721 0.929 1_545 S
O1676 H1650 0.845 1_545 S
O1676 C1722 1.300 1_545 S
O1677 C1722 1.209 . S
O1678 C1723 1.199 . S
O1679 H1651 0.854 . S
O1679 C1723 1.297 . S
C1680 C1681 1.404 . S
C1680 C1685 1.397 . S
C1680 C1686 1.492 1_545 S
C1681 C1680 1.404 . S
C1681 C1682 1.396 . S
C1681 C1692 1.492 . S
C1682 C1681 1.396 . S
C1682 C1683 1.397 . S
C1682 C1698 1.509 . S
C1683 C1682 1.397 . S
C1683 C1684 1.412 . S
C1683 C1704 1.485 . S
C1684 C1683 1.412 . S
C1684 C1685 1.388 . S
C1684 C1710 1.490 . S
C1685 C1680 1.397 . S
C1685 C1684 1.388 . S
C1685 C1716 1.519 1_545 S
C1686 C1680 1.492 1_565 S
C1686 C1687 1.363 . S
C1686 C1691 1.390 . S
C1687 H1652 0.930 . S
C1687 C1686 1.363 . S
C1687 C1688 1.372 . S
C1688 H1653 0.930 . S
C1688 C1687 1.372 . S
C1688 C1689 1.383 . S
C1689 C1688 1.383 . S
C1689 C1690 1.395 . S
C1690 H1654 0.930 . S
C1690 C1689 1.395 . S
C1690 C1691 1.362 . S
C1691 H1655 0.930 . S
C1691 C1686 1.390 . S
C1691 C1690 1.362 . S
C1692 C1681 1.492 . S
C1692 C1693 1.377 . S
C1692 C1697 1.397 . S
C1693 H1656 0.931 . S
C1693 C1692 1.377 . S
C1693 C1694 1.376 . S
C1694 H1657 0.930 . S
C1694 C1693 1.376 . S
C1694 C1695 1.376 . S
C1695 C1694 1.376 . S
C1695 C1696 1.378 1_545 S
C1695 C1722 1.486 1_545 S
C1696 H1658 0.930 . S
C1696 C1695 1.378 1_565 S
C1696 C1697 1.376 1_565 S
C1697 H1659 0.932 . S
C1697 C1692 1.397 . S
C1697 C1696 1.376 1_545 S
C1698 C1682 1.509 . S
C1698 C1699 1.391 . S
C1698 C1703 1.386 . S
C1699 H1660 0.930 . S
C1699 C1698 1.391 . S
C1699 C1700 1.375 . S
C1700 H1661 0.931 . S
C1700 C1699 1.375 . S
C1700 C1701 1.375 . S
C1701 C1700 1.375 . S
C1701 C1702 1.361 . S
C1702 H1662 0.930 . S
C1702 C1701 1.361 . S
C1702 C1703 1.399 . S
C1703 H1663 0.929 . S
C1703 C1698 1.386 . S
C1703 C1702 1.399 . S
C1704 C1683 1.485 . S
C1704 C1705 1.394 . S
C1704 C1709 1.360 . S
C1705 H1664 0.931 . S
C1705 C1704 1.394 . S
C1705 C1706 1.372 . S
C1706 H1665 0.930 . S
C1706 C1705 1.372 . S
C1706 C1707 1.397 . S
C1707 C1706 1.397 . S
C1707 C1708 1.390 . S
C1707 C1723 1.476 . S
C1708 H1666 0.930 . S
C1708 C1707 1.390 . S
C1708 C1709 1.366 . S
C1709 H1667 0.932 . S
C1709 C1704 1.360 . S
C1709 C1708 1.366 . S
C1710 C1684 1.490 . S
C1710 C1711 1.380 . S
C1710 C1715 1.386 . S
C1711 H1668 0.930 . S
C1711 C1710 1.380 . S
C1711 C1712 1.381 . S
C1712 H1669 0.929 . S
C1712 C1711 1.381 . S
C1712 C1713 1.371 . S
C1713 C1712 1.371 . S
C1713 C1714 1.380 . S
C1714 H1670 0.931 . S
C1714 C1713 1.380 . S
C1714 C1715 1.387 . S
C1715 H1671 0.930 . S
C1715 C1710 1.386 . S
C1715 C1714 1.387 . S
C1716 C1685 1.519 1_565 S
C1716 C1717 1.377 . S
C1716 C1721 1.361 . S
C1717 H1672 0.929 . S
C1717 C1716 1.377 . S
C1717 C1718 1.386 . S
C1718 H1673 0.931 . S
C1718 C1717 1.386 . S
C1718 C1719 1.363 . S
C1719 C1718 1.363 . S
C1719 C1720 1.385 . S
C1720 H1674 0.930 . S
C1720 C1719 1.385 . S
C1720 C1721 1.396 . S
C1721 H1675 0.929 1_565 S
C1721 C1716 1.361 . S
C1721 C1720 1.396 . S
C1722 O1676 1.300 1_565 S
C1722 O1677 1.209 . S
C1722 C1695 1.486 1_565 S
C1723 O1678 1.199 . S
C1723 O1679 1.297 . S
C1723 C1707 1.476 . S
H1724 O1750 0.856 . S
H1725 O1753 0.854 . S
H1726 C1761 0.930 . S
H1727 C1762 0.930 . S
H1728 C1764 0.930 . S
H1729 C1765 0.930 . S
H1730 C1767 0.931 . S
H1731 C1768 0.930 . S
H1732 C1770 0.930 . S
H1733 C1771 0.929 . S
H1734 C1773 0.930 . S
H1735 C1774 0.931 . S
H1736 C1776 0.930 . S
H1737 C1777 0.929 . S
H1738 C1779 0.931 . S
H1739 C1780 0.930 . S
H1740 C1782 0.930 . S
H1741 C1783 0.932 . S
H1742 C1785 0.930 . S
H1743 C1786 0.929 . S
H1744 C1788 0.931 . S
H1745 C1789 0.930 . S
H1746 C1791 0.929 . S
H1747 C1792 0.931 . S
H1748 C1794 0.930 . S
H1749 C1795 0.929 . S
O1750 H1724 0.856 . S
O1750 C1796 1.300 . S
O1751 C1796 1.209 . S
O1752 C1797 1.199 . S
O1753 H1725 0.854 . S
O1753 C1797 1.297 . S
C1754 C1755 1.404 . S
C1754 C1759 1.397 . S
C1754 C1760 1.492 . S
C1755 C1754 1.404 . S
C1755 C1756 1.396 1_455 S
C1755 C1766 1.492 . S
C1756 C1755 1.396 1_655 S
C1756 C1757 1.397 . S
C1756 C1772 1.509 . S
C1757 C1756 1.397 . S
C1757 C1758 1.412 . S
C1757 C1778 1.485 . S
C1758 C1757 1.412 . S
C1758 C1759 1.388 1_655 S
C1758 C1784 1.490 . S
C1759 C1754 1.397 . S
C1759 C1758 1.388 1_455 S
C1759 C1790 1.519 . S
C1760 C1754 1.492 . S
C1760 C1761 1.363 . S
C1760 C1765 1.390 . S
C1761 H1726 0.930 . S
C1761 C1760 1.363 . S
C1761 C1762 1.372 . S
C1762 H1727 0.930 . S
C1762 C1761 1.372 . S
C1762 C1763 1.383 . S
C1763 C1762 1.383 . S
C1763 C1764 1.395 . S
C1764 H1728 0.930 . S
C1764 C1763 1.395 . S
C1764 C1765 1.362 . S
C1765 H1729 0.930 . S
C1765 C1760 1.390 . S
C1765 C1764 1.362 . S
C1766 C1755 1.492 . S
C1766 C1767 1.377 . S
C1766 C1771 1.397 . S
C1767 H1730 0.931 . S
C1767 C1766 1.377 . S
C1767 C1768 1.376 . S
C1768 H1731 0.930 . S
C1768 C1767 1.376 . S
C1768 C1769 1.376 . S
C1769 C1768 1.376 . S
C1769 C1770 1.378 . S
C1769 C1796 1.486 . S
C1770 H1732 0.930 . S
C1770 C1769 1.378 . S
C1770 C1771 1.376 . S
C1771 H1733 0.929 . S
C1771 C1766 1.397 . S
C1771 C1770 1.376 . S
C1772 C1756 1.509 . S
C1772 C1773 1.391 . S
C1772 C1777 1.386 . S
C1773 H1734 0.930 . S
C1773 C1772 1.391 . S
C1773 C1774 1.375 . S
C1774 H1735 0.931 . S
C1774 C1773 1.375 . S
C1774 C1775 1.375 . S
C1775 C1774 1.375 . S
C1775 C1776 1.361 . S
C1776 H1736 0.930 . S
C1776 C1775 1.361 . S
C1776 C1777 1.399 . S
C1777 H1737 0.929 . S
C1777 C1772 1.386 . S
C1777 C1776 1.399 . S
C1778 C1757 1.485 . S
C1778 C1779 1.394 . S
C1778 C1783 1.360 . S
C1779 H1738 0.931 . S
C1779 C1778 1.394 . S
C1779 C1780 1.372 . S
C1780 H1739 0.930 . S
C1780 C1779 1.372 . S
C1780 C1781 1.397 . S
C1781 C1780 1.397 . S
C1781 C1782 1.390 . S
C1781 C1797 1.476 . S
C1782 H1740 0.930 . S
C1782 C1781 1.390 . S
C1782 C1783 1.366 . S
C1783 H1741 0.932 . S
C1783 C1778 1.360 . S
C1783 C1782 1.366 . S
C1784 C1758 1.490 . S
C1784 C1785 1.380 . S
C1784 C1789 1.386 . S
C1785 H1742 0.930 . S
C1785 C1784 1.380 . S
C1785 C1786 1.381 . S
C1786 H1743 0.929 . S
C1786 C1785 1.381 . S
C1786 C1787 1.371 . S
C1787 C1786 1.371 . S
C1787 C1788 1.380 . S
C1788 H1744 0.931 . S
C1788 C1787 1.380 . S
C1788 C1789 1.387 . S
C1789 H1745 0.930 . S
C1789 C1784 1.386 . S
C1789 C1788 1.387 . S
C1790 C1759 1.519 . S
C1790 C1791 1.377 . S
C1790 C1795 1.361 . S
C1791 H1746 0.929 . S
C1791 C1790 1.377 . S
C1791 C1792 1.386 . S
C1792 H1747 0.931 . S
C1792 C1791 1.386 . S
C1792 C1793 1.363 . S
C1793 C1792 1.363 . S
C1793 C1794 1.385 . S
C1794 H1748 0.930 . S
C1794 C1793 1.385 . S
C1794 C1795 1.396 . S
C1795 H1749 0.929 . S
C1795 C1790 1.361 . S
C1795 C1794 1.396 . S
C1796 O1750 1.300 . S
C1796 O1751 1.209 . S
C1796 C1769 1.486 . S
C1797 O1752 1.199 . S
C1797 O1753 1.297 . S
C1797 C1781 1.476 . S
H1798 O1824 0.856 . S
H1799 O1827 0.854 . S
H1800 C1835 0.930 . S
H1801 C1836 0.930 . S
H1802 C1838 0.930 . S
H1803 C1839 0.930 . S
H1804 C1841 0.931 . S
H1805 C1842 0.930 . S
H1806 C1844 0.930 . S
H1807 C1845 0.929 . S
H1808 C1847 0.930 . S
H1809 C1848 0.931 . S
H1810 C1850 0.930 . S
H1811 C1851 0.929 . S
H1812 C1853 0.931 . S
H1813 C1854 0.930 . S
H1814 C1856 0.930 . S
H1815 C1857 0.932 . S
H1816 C1859 0.930 . S
H1817 C1860 0.929 . S
H1818 C1862 0.931 . S
H1819 C1863 0.930 . S
H1820 C1865 0.929 . S
H1821 C1866 0.931 . S
H1822 C1868 0.930 . S
H1823 C1869 0.929 . S
O1824 H1798 0.856 . S
O1824 C1870 1.300 . S
O1825 C1870 1.209 . S
O1826 C1871 1.199 . S
O1827 H1799 0.854 . S
O1827 C1871 1.297 . S
C1828 C1829 1.404 1_545 S
C1828 C1833 1.397 . S
C1828 C1834 1.492 . S
C1829 C1828 1.404 1_565 S
C1829 C1830 1.396 . S
C1829 C1840 1.492 1_565 S
C1830 C1829 1.396 . S
C1830 C1831 1.397 . S
C1830 C1846 1.509 . S
C1831 C1830 1.397 . S
C1831 C1832 1.412 . S
C1831 C1852 1.485 . S
C1832 C1831 1.412 . S
C1832 C1833 1.388 1_565 S
C1832 C1858 1.490 . S
C1833 C1828 1.397 . S
C1833 C1832 1.388 1_545 S
C1833 C1864 1.519 . S
C1834 C1828 1.492 . S
C1834 C1835 1.363 . S
C1834 C1839 1.390 . S
C1835 H1800 0.930 . S
C1835 C1834 1.363 . S
C1835 C1836 1.372 . S
C1836 H1801 0.930 . S
C1836 C1835 1.372 . S
C1836 C1837 1.383 . S
C1837 C1836 1.383 . S
C1837 C1838 1.395 . S
C1838 H1802 0.930 . S
C1838 C1837 1.395 . S
C1838 C1839 1.362 . S
C1839 H1803 0.930 . S
C1839 C1834 1.390 . S
C1839 C1838 1.362 . S
C1840 C1829 1.492 1_545 S
C1840 C1841 1.377 1_545 S
C1840 C1845 1.397 . S
C1841 H1804 0.931 . S
C1841 C1840 1.377 1_565 S
C1841 C1842 1.376 1_565 S
C1842 H1805 0.930 . S
C1842 C1841 1.376 1_545 S
C1842 C1843 1.376 . S
C1843 C1842 1.376 . S
C1843 C1844 1.378 . S
C1843 C1870 1.486 . S
C1844 H1806 0.930 . S
C1844 C1843 1.378 . S
C1844 C1845 1.376 . S
C1845 H1807 0.929 . S
C1845 C1840 1.397 . S
C1845 C1844 1.376 . S
C1846 C1830 1.509 . S
C1846 C1847 1.391 . S
C1846 C1851 1.386 . S
C1847 H1808 0.930 . S
C1847 C1846 1.391 . S
C1847 C1848 1.375 . S
C1848 H1809 0.931 . S
C1848 C1847 1.375 . S
C1848 C1849 1.375 . S
C1849 C1848 1.375 . S
C1849 C1850 1.361 . S
C1850 H1810 0.930 . S
C1850 C1849 1.361 . S
C1850 C1851 1.399 . S
C1851 H1811 0.929 . S
C1851 C1846 1.386 . S
C1851 C1850 1.399 . S
C1852 C1831 1.485 . S
C1852 C1853 1.394 . S
C1852 C1857 1.360 . S
C1853 H1812 0.931 . S
C1853 C1852 1.394 . S
C1853 C1854 1.372 . S
C1854 H1813 0.930 . S
C1854 C1853 1.372 . S
C1854 C1855 1.397 . S
C1855 C1854 1.397 . S
C1855 C1856 1.390 . S
C1855 C1871 1.476 . S
C1856 H1814 0.930 . S
C1856 C1855 1.390 . S
C1856 C1857 1.366 . S
C1857 H1815 0.932 . S
C1857 C1852 1.360 . S
C1857 C1856 1.366 . S
C1858 C1832 1.490 . S
C1858 C1859 1.380 . S
C1858 C1863 1.386 . S
C1859 H1816 0.930 . S
C1859 C1858 1.380 . S
C1859 C1860 1.381 . S
C1860 H1817 0.929 . S
C1860 C1859 1.381 . S
C1860 C1861 1.371 . S
C1861 C1860 1.371 . S
C1861 C1862 1.380 . S
C1862 H1818 0.931 . S
C1862 C1861 1.380 . S
C1862 C1863 1.387 . S
C1863 H1819 0.930 . S
C1863 C1858 1.386 . S
C1863 C1862 1.387 . S
C1864 C1833 1.519 . S
C1864 C1865 1.377 . S
C1864 C1869 1.361 . S
C1865 H1820 0.929 . S
C1865 C1864 1.377 . S
C1865 C1866 1.386 . S
C1866 H1821 0.931 . S
C1866 C1865 1.386 . S
C1866 C1867 1.363 . S
C1867 C1866 1.363 . S
C1867 C1868 1.385 . S
C1868 H1822 0.930 . S
C1868 C1867 1.385 . S
C1868 C1869 1.396 . S
C1869 H1823 0.929 . S
C1869 C1864 1.361 . S
C1869 C1868 1.396 . S
C1870 O1824 1.300 . S
C1870 O1825 1.209 . S
C1870 C1843 1.486 . S
C1871 O1826 1.199 . S
C1871 O1827 1.297 . S
C1871 C1855 1.476 . S
H1872 O1898 0.856 . S
H1873 O1901 0.854 . S
H1874 C1909 0.930 . S
H1875 C1910 0.930 . S
H1876 C1912 0.930 . S
H1877 C1913 0.930 . S
H1878 C1915 0.931 . S
H1879 C1916 0.930 . S
H1880 C1918 0.930 . S
H1881 C1919 0.929 . S
H1882 C1921 0.930 . S
H1883 C1922 0.931 . S
H1884 C1924 0.930 . S
H1885 C1925 0.929 . S
H1886 C1927 0.931 . S
H1887 C1928 0.930 . S
H1888 C1930 0.930 . S
H1889 C1931 0.932 . S
H1890 C1933 0.930 . S
H1891 C1934 0.929 . S
H1892 C1936 0.931 . S
H1893 C1937 0.930 . S
H1894 C1939 0.929 . S
H1895 C1940 0.931 . S
H1896 C1942 0.930 . S
H1897 C1943 0.929 1_455 S
O1898 H1872 0.856 . S
O1898 C1944 1.300 . S
O1899 C1944 1.209 . S
O1900 C1945 1.199 . S
O1901 H1873 0.854 . S
O1901 C1945 1.297 . S
C1902 C1903 1.404 . S
C1902 C1907 1.397 . S
C1902 C1908 1.492 1_455 S
C1903 C1902 1.404 . S
C1903 C1904 1.396 . S
C1903 C1914 1.492 . S
C1904 C1903 1.396 . S
C1904 C1905 1.397 . S
C1904 C1920 1.509 . S
C1905 C1904 1.397 . S
C1905 C1906 1.412 . S
C1905 C1926 1.485 . S
C1906 C1905 1.412 . S
C1906 C1907 1.388 . S
C1906 C1932 1.490 . S
C1907 C1902 1.397 . S
C1907 C1906 1.388 . S
C1907 C1938 1.497 1_455 S
C1908 C1902 1.492 1_655 S
C1908 C1909 1.363 . S
C1908 C1913 1.390 . S
C1909 H1874 0.930 . S
C1909 C1908 1.363 . S
C1909 C1910 1.372 . S
C1910 H1875 0.930 . S
C1910 C1909 1.372 . S
C1910 C1911 1.383 . S
C1911 C1910 1.383 . S
C1911 C1912 1.395 . S
C1912 H1876 0.930 . S
C1912 C1911 1.395 . S
C1912 C1913 1.362 . S
C1913 H1877 0.930 . S
C1913 C1908 1.390 . S
C1913 C1912 1.362 . S
C1914 C1903 1.492 . S
C1914 C1915 1.377 . S
C1914 C1919 1.397 . S
C1915 H1878 0.931 . S
C1915 C1914 1.377 . S
C1915 C1916 1.376 . S
C1916 H1879 0.930 . S
C1916 C1915 1.376 . S
C1916 C1917 1.376 . S
C1917 C1916 1.376 . S
C1917 C1918 1.378 . S
C1917 C1944 1.486 . S
C1918 H1880 0.930 . S
C1918 C1917 1.378 . S
C1918 C1919 1.376 . S
C1919 H1881 0.929 . S
C1919 C1914 1.397 . S
C1919 C1918 1.376 . S
C1920 C1904 1.509 . S
C1920 C1921 1.391 . S
C1920 C1925 1.386 . S
C1921 H1882 0.930 . S
C1921 C1920 1.391 . S
C1921 C1922 1.375 . S
C1922 H1883 0.931 . S
C1922 C1921 1.375 . S
C1922 C1923 1.375 . S
C1923 C1922 1.375 . S
C1923 C1924 1.361 . S
C1924 H1884 0.930 . S
C1924 C1923 1.361 . S
C1924 C1925 1.399 . S
C1925 H1885 0.929 . S
C1925 C1920 1.386 . S
C1925 C1924 1.399 . S
C1926 C1905 1.485 . S
C1926 C1927 1.394 . S
C1926 C1931 1.360 . S
C1927 H1886 0.931 . S
C1927 C1926 1.394 . S
C1927 C1928 1.372 . S
C1928 H1887 0.930 . S
C1928 C1927 1.372 . S
C1928 C1929 1.397 . S
C1929 C1928 1.397 . S
C1929 C1930 1.390 . S
C1929 C1945 1.476 . S
C1930 H1888 0.930 . S
C1930 C1929 1.390 . S
C1930 C1931 1.366 . S
C1931 H1889 0.932 . S
C1931 C1926 1.360 . S
C1931 C1930 1.366 . S
C1932 C1906 1.490 . S
C1932 C1933 1.380 . S
C1932 C1937 1.386 . S
C1933 H1890 0.930 . S
C1933 C1932 1.380 . S
C1933 C1934 1.381 . S
C1934 H1891 0.929 . S
C1934 C1933 1.381 . S
C1934 C1935 1.371 . S
C1935 C1934 1.371 . S
C1935 C1936 1.380 . S
C1936 H1892 0.931 . S
C1936 C1935 1.380 . S
C1936 C1937 1.387 . S
C1937 H1893 0.930 . S
C1937 C1932 1.386 . S
C1937 C1936 1.387 . S
C1938 C1907 1.497 1_655 S
C1938 C1939 1.395 . S
C1938 C1943 1.365 . S
C1939 H1894 0.929 . S
C1939 C1938 1.395 . S
C1939 C1940 1.386 . S
C1940 H1895 0.931 . S
C1940 C1939 1.386 . S
C1940 C1941 1.363 . S
C1941 C1940 1.363 . S
C1941 C1942 1.385 . S
C1942 H1896 0.930 . S
C1942 C1941 1.385 . S
C1942 C1943 1.396 . S
C1943 H1897 0.929 1_655 S
C1943 C1938 1.365 . S
C1943 C1942 1.396 . S
C1944 O1898 1.300 . S
C1944 O1899 1.209 . S
C1944 C1917 1.486 . S
C1945 O1900 1.199 . S
C1945 O1901 1.297 . S
C1945 C1929 1.476 . S
H1946 O1972 0.856 . S
H1947 O1975 0.854 . S
H1948 C1983 0.930 . S
H1949 C1984 0.930 . S
H1950 C1986 0.930 . S
H1951 C1987 0.930 . S
H1952 C1989 0.931 . S
H1953 C1990 0.930 . S
H1954 C1992 0.961 . S
H1955 C1993 0.929 . S
H1956 C1995 0.930 . S
H1957 C1996 0.931 . S
H1958 C1998 0.930 . S
H1959 C1999 0.929 . S
H1960 C2001 0.931 . S
H1961 C2002 0.930 . S
H1962 C2004 0.930 . S
H1963 C2005 0.932 . S
H1964 C2007 0.930 . S
H1965 C2008 0.929 . S
H1966 C2010 0.931 . S
H1967 C2011 0.930 . S
H1968 C2013 0.929 . S
H1969 C2014 0.931 . S
H1970 C2016 0.930 . S
H1971 C2017 0.929 1_545 S
O1972 H1946 0.856 . S
O1972 C2018 1.300 1_545 S
O1973 C2018 1.209 . S
O1974 C2019 1.199 . S
O1975 H1947 0.854 . S
O1975 C2019 1.297 . S
C1976 C1977 1.404 . S
C1976 C1981 1.397 . S
C1976 C1982 1.492 1_545 S
C1977 C1976 1.404 . S
C1977 C1978 1.396 . S
C1977 C1988 1.492 . S
C1978 C1977 1.396 . S
C1978 C1979 1.397 . S
C1978 C1994 1.509 . S
C1979 C1978 1.397 . S
C1979 C1980 1.412 . S
C1979 C2000 1.485 . S
C1980 C1979 1.412 . S
C1980 C1981 1.388 . S
C1980 C2006 1.490 . S
C1981 C1976 1.397 . S
C1981 C1980 1.388 . S
C1981 C2012 1.519 1_545 S
C1982 C1976 1.492 1_565 S
C1982 C1983 1.363 . S
C1982 C1987 1.390 . S
C1983 H1948 0.930 . S
C1983 C1982 1.363 . S
C1983 C1984 1.372 . S
C1984 H1949 0.930 . S
C1984 C1983 1.372 . S
C1984 C1985 1.383 . S
C1985 C1984 1.383 . S
C1985 C1986 1.395 . S
C1986 H1950 0.930 . S
C1986 C1985 1.395 . S
C1986 C1987 1.362 . S
C1987 H1951 0.930 . S
C1987 C1982 1.390 . S
C1987 C1986 1.362 . S
C1988 C1977 1.492 . S
C1988 C1989 1.377 . S
C1988 C1993 1.397 . S
C1989 H1952 0.931 . S
C1989 C1988 1.377 . S
C1989 C1990 1.376 . S
C1990 H1953 0.930 . S
C1990 C1989 1.376 . S
C1990 C1991 1.376 . S
C1991 C1990 1.376 . S
C1991 C1992 1.365 1_545 S
C1991 C2018 1.486 1_545 S
C1992 H1954 0.961 . S
C1992 C1991 1.365 1_565 S
C1992 C1993 1.361 1_565 S
C1993 H1955 0.929 . S
C1993 C1988 1.397 . S
C1993 C1992 1.361 1_545 S
C1994 C1978 1.509 . S
C1994 C1995 1.391 . S
C1994 C1999 1.386 . S
C1995 H1956 0.930 . S
C1995 C1994 1.391 . S
C1995 C1996 1.375 . S
C1996 H1957 0.931 . S
C1996 C1995 1.375 . S
C1996 C1997 1.375 . S
C1997 C1996 1.375 . S
C1997 C1998 1.361 . S
C1998 H1958 0.930 . S
C1998 C1997 1.361 . S
C1998 C1999 1.399 . S
C1999 H1959 0.929 . S
C1999 C1994 1.386 . S
C1999 C1998 1.399 . S
C2000 C1979 1.485 . S
C2000 C2001 1.394 . S
C2000 C2005 1.360 . S
C2001 H1960 0.931 . S
C2001 C2000 1.394 . S
C2001 C2002 1.372 . S
C2002 H1961 0.930 . S
C2002 C2001 1.372 . S
C2002 C2003 1.397 . S
C2003 C2002 1.397 . S
C2003 C2004 1.390 . S
C2003 C2019 1.476 . S
C2004 H1962 0.930 . S
C2004 C2003 1.390 . S
C2004 C2005 1.366 . S
C2005 H1963 0.932 . S
C2005 C2000 1.360 . S
C2005 C2004 1.366 . S
C2006 C1980 1.490 . S
C2006 C2007 1.380 . S
C2006 C2011 1.386 . S
C2007 H1964 0.930 . S
C2007 C2006 1.380 . S
C2007 C2008 1.381 . S
C2008 H1965 0.929 . S
C2008 C2007 1.381 . S
C2008 C2009 1.371 . S
C2009 C2008 1.371 . S
C2009 C2010 1.380 . S
C2010 H1966 0.931 . S
C2010 C2009 1.380 . S
C2010 C2011 1.387 . S
C2011 H1967 0.930 . S
C2011 C2006 1.386 . S
C2011 C2010 1.387 . S
C2012 C1981 1.519 1_565 S
C2012 C2013 1.377 . S
C2012 C2017 1.361 . S
C2013 H1968 0.929 . S
C2013 C2012 1.377 . S
C2013 C2014 1.386 . S
C2014 H1969 0.931 . S
C2014 C2013 1.386 . S
C2014 C2015 1.363 . S
C2015 C2014 1.363 . S
C2015 C2016 1.385 . S
C2016 H1970 0.930 . S
C2016 C2015 1.385 . S
C2016 C2017 1.396 . S
C2017 H1971 0.929 1_565 S
C2017 C2012 1.361 . S
C2017 C2016 1.396 . S
C2018 O1972 1.300 1_565 S
C2018 O1973 1.209 . S
C2018 C1991 1.486 1_565 S
C2019 O1974 1.199 . S
C2019 O1975 1.297 . S
C2019 C2003 1.476 . S
H2020 O2046 0.856 . S
H2021 O2049 0.854 . S
H2022 C2057 0.930 . S
H2023 C2058 0.930 . S
H2024 C2060 0.930 . S
H2025 C2061 0.930 . S
H2026 C2063 0.931 . S
H2027 C2064 0.930 . S
H2028 C2066 0.930 . S
H2029 C2067 0.929 . S
H2030 C2069 0.930 . S
H2031 C2070 0.931 . S
H2032 C2072 0.930 . S
H2033 C2073 0.929 . S
H2034 C2075 0.931 . S
H2035 C2076 0.930 . S
H2036 C2078 0.930 . S
H2037 C2079 0.932 . S
H2038 C2081 0.930 . S
H2039 C2082 0.929 . S
H2040 C2084 0.931 . S
H2041 C2085 0.930 . S
H2042 C2087 0.929 . S
H2043 C2088 0.931 . S
H2044 C2090 0.930 . S
H2045 C2091 0.929 . S
O2046 H2020 0.856 . S
O2046 C2092 1.300 . S
O2047 C2092 1.209 . S
O2048 C2093 1.199 . S
O2049 H2021 0.854 . S
O2049 C2093 1.297 . S
C2050 C2051 1.404 1_655 S
C2050 C2055 1.397 1_655 S
C2050 C2056 1.492 . S
C2051 C2050 1.404 1_455 S
C2051 C2052 1.396 . S
C2051 C2062 1.492 . S
C2052 C2051 1.396 . S
C2052 C2053 1.397 . S
C2052 C2068 1.509 . S
C2053 C2052 1.397 . S
C2053 C2054 1.412 . S
C2053 C2074 1.485 . S
C2054 C2053 1.412 . S
C2054 C2055 1.388 . S
C2054 C2080 1.490 . S
C2055 C2050 1.397 1_455 S
C2055 C2054 1.388 . S
C2055 C2086 1.519 1_455 S
C2056 C2050 1.492 . S
C2056 C2057 1.363 . S
C2056 C2061 1.390 . S
C2057 H2022 0.930 . S
C2057 C2056 1.363 . S
C2057 C2058 1.372 . S
C2058 H2023 0.930 . S
C2058 C2057 1.372 . S
C2058 C2059 1.383 . S
C2059 C2058 1.383 . S
C2059 C2060 1.395 . S
C2060 H2024 0.930 . S
C2060 C2059 1.395 . S
C2060 C2061 1.362 . S
C2061 H2025 0.930 . S
C2061 C2056 1.390 . S
C2061 C2060 1.362 . S
C2062 C2051 1.492 . S
C2062 C2063 1.377 . S
C2062 C2067 1.397 1_455 S
C2063 H2026 0.931 . S
C2063 C2062 1.377 . S
C2063 C2064 1.376 . S
C2064 H2027 0.930 . S
C2064 C2063 1.376 . S
C2064 C2065 1.376 1_455 S
C2065 C2064 1.376 1_655 S
C2065 C2066 1.378 . S
C2065 C2092 1.486 . S
C2066 H2028 0.930 . S
C2066 C2065 1.378 . S
C2066 C2067 1.376 . S
C2067 H2029 0.929 . S
C2067 C2062 1.397 1_655 S
C2067 C2066 1.376 . S
C2068 C2052 1.509 . S
C2068 C2069 1.391 . S
C2068 C2073 1.386 . S
C2069 H2030 0.930 . S
C2069 C2068 1.391 . S
C2069 C2070 1.375 . S
C2070 H2031 0.931 . S
C2070 C2069 1.375 . S
C2070 C2071 1.375 . S
C2071 C2070 1.375 . S
C2071 C2072 1.361 . S
C2072 H2032 0.930 . S
C2072 C2071 1.361 . S
C2072 C2073 1.399 . S
C2073 H2033 0.929 . S
C2073 C2068 1.386 . S
C2073 C2072 1.399 . S
C2074 C2053 1.485 . S
C2074 C2075 1.394 . S
C2074 C2079 1.360 . S
C2075 H2034 0.931 . S
C2075 C2074 1.394 . S
C2075 C2076 1.372 . S
C2076 H2035 0.930 . S
C2076 C2075 1.372 . S
C2076 C2077 1.397 . S
C2077 C2076 1.397 . S
C2077 C2078 1.390 . S
C2077 C2093 1.476 . S
C2078 H2036 0.930 . S
C2078 C2077 1.390 . S
C2078 C2079 1.366 . S
C2079 H2037 0.932 . S
C2079 C2074 1.360 . S
C2079 C2078 1.366 . S
C2080 C2054 1.490 . S
C2080 C2081 1.380 . S
C2080 C2085 1.386 . S
C2081 H2038 0.930 . S
C2081 C2080 1.380 . S
C2081 C2082 1.381 . S
C2082 H2039 0.929 . S
C2082 C2081 1.381 . S
C2082 C2083 1.371 . S
C2083 C2082 1.371 . S
C2083 C2084 1.380 . S
C2084 H2040 0.931 . S
C2084 C2083 1.380 . S
C2084 C2085 1.387 . S
C2085 H2041 0.930 . S
C2085 C2080 1.386 . S
C2085 C2084 1.387 . S
C2086 C2055 1.519 1_655 S
C2086 C2087 1.377 . S
C2086 C2091 1.361 . S
C2087 H2042 0.929 . S
C2087 C2086 1.377 . S
C2087 C2088 1.386 . S
C2088 H2043 0.931 . S
C2088 C2087 1.386 . S
C2088 C2089 1.363 . S
C2089 C2088 1.363 . S
C2089 C2090 1.385 . S
C2090 H2044 0.930 . S
C2090 C2089 1.385 . S
C2090 C2091 1.396 . S
C2091 H2045 0.929 . S
C2091 C2086 1.361 . S
C2091 C2090 1.396 . S
C2092 O2046 1.300 . S
C2092 O2047 1.209 . S
C2092 C2065 1.486 . S
C2093 O2048 1.199 . S
C2093 O2049 1.297 . S
C2093 C2077 1.476 . S
H2094 O2120 0.856 . S
H2095 O2123 0.854 . S
H2096 C2131 0.930 . S
H2097 C2132 0.930 . S
H2098 C2134 0.930 . S
H2099 C2135 0.930 . S
H2100 C2137 0.945 . S
H2101 C2138 0.930 . S
H2102 C2140 0.930 . S
H2103 C2141 0.929 . S
H2104 C2143 0.930 . S
H2105 C2144 0.931 . S
H2106 C2146 0.930 . S
H2107 C2147 0.929 . S
H2108 C2149 0.931 . S
H2109 C2150 0.930 . S
H2110 C2152 0.930 . S
H2111 C2153 0.932 . S
H2112 C2155 0.930 1_545 S
H2113 C2156 0.929 . S
H2114 C2158 0.931 . S
H2115 C2159 0.930 . S
H2116 C2161 0.929 . S
H2117 C2162 0.931 . S
H2118 C2164 0.930 . S
H2119 C2165 0.929 . S
O2120 H2094 0.856 . S
O2120 C2166 1.300 . S
O2121 C2166 1.209 . S
O2122 C2167 1.199 . S
O2123 H2095 0.854 . S
O2123 C2167 1.297 . S
C2124 C2125 1.404 . S
C2124 C2129 1.397 . S
C2124 C2130 1.492 . S
C2125 C2124 1.404 . S
C2125 C2126 1.396 1_545 S
C2125 C2136 1.492 . S
C2126 C2125 1.396 1_565 S
C2126 C2127 1.397 . S
C2126 C2142 1.509 . S
C2127 C2126 1.397 . S
C2127 C2128 1.412 . S
C2127 C2148 1.485 . S
C2128 C2127 1.412 . S
C2128 C2129 1.388 1_565 S
C2128 C2154 1.490 . S
C2129 C2124 1.397 . S
C2129 C2128 1.388 1_545 S
C2129 C2160 1.519 . S
C2130 C2124 1.492 . S
C2130 C2131 1.363 . S
C2130 C2135 1.390 . S
C2131 H2096 0.930 . S
C2131 C2130 1.363 . S
C2131 C2132 1.372 . S
C2132 H2097 0.930 . S
C2132 C2131 1.372 . S
C2132 C2133 1.383 . S
C2133 C2132 1.383 . S
C2133 C2134 1.395 . S
C2134 H2098 0.930 . S
C2134 C2133 1.395 . S
C2134 C2135 1.362 . S
C2135 H2099 0.930 . S
C2135 C2130 1.390 . S
C2135 C2134 1.362 . S
C2136 C2125 1.492 . S
C2136 C2137 1.377 . S
C2136 C2141 1.397 . S
C2137 H2100 0.945 . S
C2137 C2136 1.377 . S
C2137 C2138 1.376 . S
C2138 H2101 0.930 . S
C2138 C2137 1.376 . S
C2138 C2139 1.376 . S
C2139 C2138 1.376 . S
C2139 C2140 1.378 . S
C2139 C2166 1.486 . S
C2140 H2102 0.930 . S
C2140 C2139 1.378 . S
C2140 C2141 1.376 . S
C2141 H2103 0.929 . S
C2141 C2136 1.397 . S
C2141 C2140 1.376 . S
C2142 C2126 1.509 . S
C2142 C2143 1.391 . S
C2142 C2147 1.386 . S
C2143 H2104 0.930 . S
C2143 C2142 1.391 . S
C2143 C2144 1.375 . S
C2144 H2105 0.931 . S
C2144 C2143 1.375 . S
C2144 C2145 1.375 . S
C2145 C2144 1.375 . S
C2145 C2146 1.361 . S
C2146 H2106 0.930 . S
C2146 C2145 1.361 . S
C2146 C2147 1.399 . S
C2147 H2107 0.929 . S
C2147 C2142 1.386 . S
C2147 C2146 1.399 . S
C2148 C2127 1.485 . S
C2148 C2149 1.394 . S
C2148 C2153 1.360 . S
C2149 H2108 0.931 . S
C2149 C2148 1.394 . S
C2149 C2150 1.372 . S
C2150 H2109 0.930 . S
C2150 C2149 1.372 . S
C2150 C2151 1.397 . S
C2151 C2150 1.397 . S
C2151 C2152 1.390 . S
C2151 C2167 1.476 . S
C2152 H2110 0.930 . S
C2152 C2151 1.390 . S
C2152 C2153 1.366 . S
C2153 H2111 0.932 . S
C2153 C2148 1.360 . S
C2153 C2152 1.366 . S
C2154 C2128 1.490 . S
C2154 C2155 1.380 . S
C2154 C2159 1.386 . S
C2155 H2112 0.930 1_565 S
C2155 C2154 1.380 . S
C2155 C2156 1.381 . S
C2156 H2113 0.929 . S
C2156 C2155 1.381 . S
C2156 C2157 1.371 . S
C2157 C2156 1.371 . S
C2157 C2158 1.380 . S
C2158 H2114 0.931 . S
C2158 C2157 1.380 . S
C2158 C2159 1.387 . S
C2159 H2115 0.930 . S
C2159 C2154 1.386 . S
C2159 C2158 1.387 . S
C2160 C2129 1.519 . S
C2160 C2161 1.377 . S
C2160 C2165 1.361 . S
C2161 H2116 0.929 . S
C2161 C2160 1.377 . S
C2161 C2162 1.386 . S
C2162 H2117 0.931 . S
C2162 C2161 1.386 . S
C2162 C2163 1.363 . S
C2163 C2162 1.363 . S
C2163 C2164 1.385 . S
C2164 H2118 0.930 . S
C2164 C2163 1.385 . S
C2164 C2165 1.396 . S
C2165 H2119 0.929 . S
C2165 C2160 1.361 . S
C2165 C2164 1.396 . S
C2166 O2120 1.300 . S
C2166 O2121 1.209 . S
C2166 C2139 1.486 . S
C2167 O2122 1.199 . S
C2167 O2123 1.297 . S
C2167 C2151 1.476 . S
H2168 O2194 0.856 . S
H2169 O2197 0.854 . S
H2170 C2205 0.930 . S
H2171 C2206 0.930 . S
H2172 C2208 0.930 . S
H2173 C2209 0.930 . S
H2174 C2211 0.931 . S
H2175 C2212 0.930 . S
H2176 C2214 0.930 . S
H2177 C2215 0.929 . S
H2178 C2217 0.930 . S
H2179 C2218 0.931 . S
H2180 C2220 0.930 . S
H2181 C2221 0.929 . S
H2182 C2223 0.931 . S
H2183 C2224 0.930 . S
H2184 C2226 0.930 . S
H2185 C2227 0.932 . S
H2186 C2229 0.930 . S
H2187 C2230 0.929 . S
H2188 C2232 0.931 . S
H2189 C2233 0.930 . S
H2190 C2235 0.929 . S
H2191 C2236 0.931 . S
H2192 C2238 0.930 . S
H2193 C2239 0.929 . S
O2194 H2168 0.856 . S
O2194 C2240 1.300 . S
O2195 C2240 1.209 . S
O2196 C2241 1.199 . S
O2197 H2169 0.854 . S
O2197 C2241 1.297 . S
C2198 C2199 1.404 . S
C2198 C2203 1.397 . S
C2198 C2204 1.492 . S
C2199 C2198 1.404 . S
C2199 C2200 1.396 . S
C2199 C2210 1.492 . S
C2200 C2199 1.396 . S
C2200 C2201 1.397 . S
C2200 C2216 1.509 . S
C2201 C2200 1.397 . S
C2201 C2202 1.412 . S
C2201 C2222 1.485 . S
C2202 C2201 1.412 . S
C2202 C2203 1.388 . S
C2202 C2228 1.490 . S
C2203 C2198 1.397 . S
C2203 C2202 1.388 . S
C2203 C2234 1.519 . S
C2204 C2198 1.492 . S
C2204 C2205 1.363 . S
C2204 C2209 1.390 . S
C2205 H2170 0.930 . S
C2205 C2204 1.363 . S
C2205 C2206 1.372 . S
C2206 H2171 0.930 . S
C2206 C2205 1.372 . S
C2206 C2207 1.383 . S
C2207 C2206 1.383 . S
C2207 C2208 1.395 . S
C2208 H2172 0.930 . S
C2208 C2207 1.395 . S
C2208 C2209 1.362 . S
C2209 H2173 0.930 . S
C2209 C2204 1.390 . S
C2209 C2208 1.362 . S
C2210 C2199 1.492 . S
C2210 C2211 1.377 . S
C2210 C2215 1.397 . S
C2211 H2174 0.931 . S
C2211 C2210 1.377 . S
C2211 C2212 1.376 . S
C2212 H2175 0.930 . S
C2212 C2211 1.376 . S
C2212 C2213 1.376 . S
C2213 C2212 1.376 . S
C2213 C2214 1.378 . S
C2213 C2240 1.486 . S
C2214 H2176 0.930 . S
C2214 C2213 1.378 . S
C2214 C2215 1.376 . S
C2215 H2177 0.929 . S
C2215 C2210 1.397 . S
C2215 C2214 1.376 . S
C2216 C2200 1.509 . S
C2216 C2217 1.391 . S
C2216 C2221 1.386 . S
C2217 H2178 0.930 . S
C2217 C2216 1.391 . S
C2217 C2218 1.375 . S
C2218 H2179 0.931 . S
C2218 C2217 1.375 . S
C2218 C2219 1.375 . S
C2219 C2218 1.375 . S
C2219 C2220 1.361 . S
C2220 H2180 0.930 . S
C2220 C2219 1.361 . S
C2220 C2221 1.399 . S
C2221 H2181 0.929 . S
C2221 C2216 1.386 . S
C2221 C2220 1.399 . S
C2222 C2201 1.485 . S
C2222 C2223 1.394 . S
C2222 C2227 1.360 . S
C2223 H2182 0.931 . S
C2223 C2222 1.394 . S
C2223 C2224 1.372 . S
C2224 H2183 0.930 . S
C2224 C2223 1.372 . S
C2224 C2225 1.397 . S
C2225 C2224 1.397 . S
C2225 C2226 1.390 . S
C2225 C2241 1.476 . S
C2226 H2184 0.930 . S
C2226 C2225 1.390 . S
C2226 C2227 1.366 . S
C2227 H2185 0.932 . S
C2227 C2222 1.360 . S
C2227 C2226 1.366 . S
C2228 C2202 1.490 . S
C2228 C2229 1.380 . S
C2228 C2233 1.386 . S
C2229 H2186 0.930 . S
C2229 C2228 1.380 . S
C2229 C2230 1.381 . S
C2230 H2187 0.929 . S
C2230 C2229 1.381 . S
C2230 C2231 1.371 . S
C2231 C2230 1.371 . S
C2231 C2232 1.380 . S
C2232 H2188 0.931 . S
C2232 C2231 1.380 . S
C2232 C2233 1.387 . S
C2233 H2189 0.930 . S
C2233 C2228 1.386 . S
C2233 C2232 1.387 . S
C2234 C2203 1.519 . S
C2234 C2235 1.377 . S
C2234 C2239 1.361 . S
C2235 H2190 0.929 . S
C2235 C2234 1.377 . S
C2235 C2236 1.386 . S
C2236 H2191 0.931 . S
C2236 C2235 1.386 . S
C2236 C2237 1.363 . S
C2237 C2236 1.363 . S
C2237 C2238 1.385 . S
C2238 H2192 0.930 . S
C2238 C2237 1.385 . S
C2238 C2239 1.396 . S
C2239 H2193 0.929 . S
C2239 C2234 1.361 . S
C2239 C2238 1.396 . S
C2240 O2194 1.300 . S
C2240 O2195 1.209 . S
C2240 C2213 1.486 . S
C2241 O2196 1.199 . S
C2241 O2197 1.297 . S
C2241 C2225 1.476 . S
H2242 O2268 0.856 . S
H2243 O2271 0.854 . S
H2244 C2279 0.930 . S
H2245 C2280 0.930 . S
H2246 C2282 0.930 . S
H2247 C2283 0.930 . S
H2248 C2285 0.931 . S
H2249 C2286 0.930 . S
H2250 C2288 0.930 . S
H2251 C2289 0.929 . S
H2252 C2291 0.930 . S
H2253 C2292 0.931 . S
H2254 C2294 0.930 . S
H2255 C2295 0.929 . S
H2256 C2297 0.931 . S
H2257 C2298 0.930 . S
H2258 C2300 0.930 . S
H2259 C2301 0.932 . S
H2260 C2303 0.930 . S
H2261 C2304 0.929 . S
H2262 C2306 0.931 . S
H2263 C2307 0.930 . S
H2264 C2309 0.929 . S
H2265 C2310 0.931 . S
H2266 C2312 0.930 . S
H2267 C2313 0.929 . S
O2268 H2242 0.856 . S
O2268 C2314 1.300 . S
O2269 C2314 1.209 . S
O2270 C2315 1.199 . S
O2271 H2243 0.854 . S
O2271 C2315 1.297 . S
C2272 C2273 1.404 . S
C2272 C2277 1.397 . S
C2272 C2278 1.492 . S
C2273 C2272 1.404 . S
C2273 C2274 1.396 . S
C2273 C2284 1.492 . S
C2274 C2273 1.396 . S
C2274 C2275 1.397 . S
C2274 C2290 1.509 . S
C2275 C2274 1.397 . S
C2275 C2276 1.412 . S
C2275 C2296 1.485 . S
C2276 C2275 1.412 . S
C2276 C2277 1.388 . S
C2276 C2302 1.490 . S
C2277 C2272 1.397 . S
C2277 C2276 1.388 . S
C2277 C2308 1.519 . S
C2278 C2272 1.492 . S
C2278 C2279 1.363 . S
C2278 C2283 1.390 . S
C2279 H2244 0.930 . S
C2279 C2278 1.363 . S
C2279 C2280 1.372 . S
C2280 H2245 0.930 . S
C2280 C2279 1.372 . S
C2280 C2281 1.383 . S
C2281 C2280 1.383 . S
C2281 C2282 1.395 . S
C2282 H2246 0.930 . S
C2282 C2281 1.395 . S
C2282 C2283 1.362 . S
C2283 H2247 0.930 . S
C2283 C2278 1.390 . S
C2283 C2282 1.362 . S
C2284 C2273 1.492 . S
C2284 C2285 1.377 . S
C2284 C2289 1.397 . S
C2285 H2248 0.931 . S
C2285 C2284 1.377 . S
C2285 C2286 1.376 . S
C2286 H2249 0.930 . S
C2286 C2285 1.376 . S
C2286 C2287 1.376 . S
C2287 C2286 1.376 . S
C2287 C2288 1.378 . S
C2287 C2314 1.486 . S
C2288 H2250 0.930 . S
C2288 C2287 1.378 . S
C2288 C2289 1.376 . S
C2289 H2251 0.929 . S
C2289 C2284 1.397 . S
C2289 C2288 1.376 . S
C2290 C2274 1.509 . S
C2290 C2291 1.391 . S
C2290 C2295 1.386 . S
C2291 H2252 0.930 . S
C2291 C2290 1.391 . S
C2291 C2292 1.375 . S
C2292 H2253 0.931 . S
C2292 C2291 1.375 . S
C2292 C2293 1.375 . S
C2293 C2292 1.375 . S
C2293 C2294 1.361 . S
C2294 H2254 0.930 . S
C2294 C2293 1.361 . S
C2294 C2295 1.399 . S
C2295 H2255 0.929 . S
C2295 C2290 1.386 . S
C2295 C2294 1.399 . S
C2296 C2275 1.485 . S
C2296 C2297 1.394 . S
C2296 C2301 1.360 . S
C2297 H2256 0.931 . S
C2297 C2296 1.394 . S
C2297 C2298 1.372 . S
C2298 H2257 0.930 . S
C2298 C2297 1.372 . S
C2298 C2299 1.397 . S
C2299 C2298 1.397 . S
C2299 C2300 1.390 . S
C2299 C2315 1.476 . S
C2300 H2258 0.930 . S
C2300 C2299 1.390 . S
C2300 C2301 1.366 . S
C2301 H2259 0.932 . S
C2301 C2296 1.360 . S
C2301 C2300 1.366 . S
C2302 C2276 1.490 . S
C2302 C2303 1.380 . S
C2302 C2307 1.386 . S
C2303 H2260 0.930 . S
C2303 C2302 1.380 . S
C2303 C2304 1.381 . S
C2304 H2261 0.929 . S
C2304 C2303 1.381 . S
C2304 C2305 1.371 . S
C2305 C2304 1.371 . S
C2305 C2306 1.380 . S
C2306 H2262 0.931 . S
C2306 C2305 1.380 . S
C2306 C2307 1.387 . S
C2307 H2263 0.930 . S
C2307 C2302 1.386 . S
C2307 C2306 1.387 . S
C2308 C2277 1.519 . S
C2308 C2309 1.377 . S
C2308 C2313 1.361 . S
C2309 H2264 0.929 . S
C2309 C2308 1.377 . S
C2309 C2310 1.386 . S
C2310 H2265 0.931 . S
C2310 C2309 1.386 . S
C2310 C2311 1.363 . S
C2311 C2310 1.363 . S
C2311 C2312 1.385 . S
C2312 H2266 0.930 . S
C2312 C2311 1.385 . S
C2312 C2313 1.396 . S
C2313 H2267 0.929 . S
C2313 C2308 1.361 . S
C2313 C2312 1.396 . S
C2314 O2268 1.300 . S
C2314 O2269 1.209 . S
C2314 C2287 1.486 . S
C2315 O2270 1.199 . S
C2315 O2271 1.297 . S
C2315 C2299 1.476 . S
H2316 O2342 0.856 . S
H2317 O2345 0.854 . S
H2318 C2353 0.930 . S
H2319 C2354 0.930 . S
H2320 C2356 0.930 . S
H2321 C2357 0.930 . S
H2322 C2359 0.931 . S
H2323 C2360 0.930 . S
H2324 C2362 0.930 . S
H2325 C2363 0.929 . S
H2326 C2365 0.930 . S
H2327 C2366 0.931 . S
H2328 C2368 0.930 . S
H2329 C2369 0.929 . S
H2330 C2371 0.931 . S
H2331 C2372 0.930 . S
H2332 C2374 0.930 . S
H2333 C2375 0.932 . S
H2334 C2377 0.930 . S
H2335 C2378 0.929 . S
H2336 C2380 0.931 . S
H2337 C2381 0.930 . S
H2338 C2383 0.929 . S
H2339 C2384 0.931 . S
H2340 C2386 0.930 . S
H2341 C2387 0.929 . S
O2342 H2316 0.856 . S
O2342 C2388 1.300 . S
O2343 C2388 1.209 . S
O2344 C2389 1.199 . S
O2345 H2317 0.854 . S
O2345 C2389 1.297 . S
C2346 C2347 1.404 . S
C2346 C2351 1.397 . S
C2346 C2352 1.492 . S
C2347 C2346 1.404 . S
C2347 C2348 1.396 . S
C2347 C2358 1.492 . S
C2348 C2347 1.396 . S
C2348 C2349 1.397 . S
C2348 C2364 1.509 . S
C2349 C2348 1.397 . S
C2349 C2350 1.412 . S
C2349 C2370 1.485 . S
C2350 C2349 1.412 . S
C2350 C2351 1.388 . S
C2350 C2376 1.490 . S
C2351 C2346 1.397 . S
C2351 C2350 1.388 . S
C2351 C2382 1.519 . S
C2352 C2346 1.492 . S
C2352 C2353 1.363 . S
C2352 C2357 1.390 . S
C2353 H2318 0.930 . S
C2353 C2352 1.363 . S
C2353 C2354 1.372 . S
C2354 H2319 0.930 . S
C2354 C2353 1.372 . S
C2354 C2355 1.383 . S
C2355 C2354 1.383 . S
C2355 C2356 1.395 . S
C2356 H2320 0.930 . S
C2356 C2355 1.395 . S
C2356 C2357 1.362 . S
C2357 H2321 0.930 . S
C2357 C2352 1.390 . S
C2357 C2356 1.362 . S
C2358 C2347 1.492 . S
C2358 C2359 1.377 . S
C2358 C2363 1.397 . S
C2359 H2322 0.931 . S
C2359 C2358 1.377 . S
C2359 C2360 1.376 . S
C2360 H2323 0.930 . S
C2360 C2359 1.376 . S
C2360 C2361 1.376 . S
C2361 C2360 1.376 . S
C2361 C2362 1.378 . S
C2361 C2388 1.486 . S
C2362 H2324 0.930 . S
C2362 C2361 1.378 . S
C2362 C2363 1.376 . S
C2363 H2325 0.929 . S
C2363 C2358 1.397 . S
C2363 C2362 1.376 . S
C2364 C2348 1.509 . S
C2364 C2365 1.391 . S
C2364 C2369 1.386 . S
C2365 H2326 0.930 . S
C2365 C2364 1.391 . S
C2365 C2366 1.375 . S
C2366 H2327 0.931 . S
C2366 C2365 1.375 . S
C2366 C2367 1.375 . S
C2367 C2366 1.375 . S
C2367 C2368 1.361 . S
C2368 H2328 0.930 . S
C2368 C2367 1.361 . S
C2368 C2369 1.399 . S
C2369 H2329 0.929 . S
C2369 C2364 1.386 . S
C2369 C2368 1.399 . S
C2370 C2349 1.485 . S
C2370 C2371 1.394 . S
C2370 C2375 1.360 . S
C2371 H2330 0.931 . S
C2371 C2370 1.394 . S
C2371 C2372 1.372 . S
C2372 H2331 0.930 . S
C2372 C2371 1.372 . S
C2372 C2373 1.397 . S
C2373 C2372 1.397 . S
C2373 C2374 1.390 . S
C2373 C2389 1.476 . S
C2374 H2332 0.930 . S
C2374 C2373 1.390 . S
C2374 C2375 1.366 . S
C2375 H2333 0.932 . S
C2375 C2370 1.360 . S
C2375 C2374 1.366 . S
C2376 C2350 1.490 . S
C2376 C2377 1.380 . S
C2376 C2381 1.386 . S
C2377 H2334 0.930 . S
C2377 C2376 1.380 . S
C2377 C2378 1.381 . S
C2378 H2335 0.929 . S
C2378 C2377 1.381 . S
C2378 C2379 1.371 . S
C2379 C2378 1.371 . S
C2379 C2380 1.380 . S
C2380 H2336 0.931 . S
C2380 C2379 1.380 . S
C2380 C2381 1.387 . S
C2381 H2337 0.930 . S
C2381 C2376 1.386 . S
C2381 C2380 1.387 . S
C2382 C2351 1.519 . S
C2382 C2383 1.377 . S
C2382 C2387 1.361 . S
C2383 H2338 0.929 . S
C2383 C2382 1.377 . S
C2383 C2384 1.386 . S
C2384 H2339 0.931 . S
C2384 C2383 1.386 . S
C2384 C2385 1.363 . S
C2385 C2384 1.363 . S
C2385 C2386 1.385 . S
C2386 H2340 0.930 . S
C2386 C2385 1.385 . S
C2386 C2387 1.396 . S
C2387 H2341 0.929 . S
C2387 C2382 1.361 . S
C2387 C2386 1.396 . S
C2388 O2342 1.300 . S
C2388 O2343 1.209 . S
C2388 C2361 1.486 . S
C2389 O2344 1.199 . S
C2389 O2345 1.297 . S
C2389 C2373 1.476 . S
H2390 O2416 0.856 . S
H2391 O2419 0.854 . S
H2392 C2427 0.930 . S
H2393 C2428 0.930 . S
H2394 C2430 0.930 . S
H2395 C2431 0.930 . S
H2396 C2433 0.931 . S
H2397 C2434 0.930 . S
H2398 C2436 0.930 . S
H2399 C2437 0.929 . S
H2400 C2439 0.930 . S
H2401 C2440 0.931 . S
H2402 C2442 0.930 . S
H2403 C2443 0.929 . S
H2404 C2445 0.931 . S
H2405 C2446 0.930 . S
H2406 C2448 0.930 . S
H2407 C2449 0.932 . S
H2408 C2451 0.930 . S
H2409 C2452 0.929 . S
H2410 C2454 0.931 . S
H2411 C2455 0.930 . S
H2412 C2457 0.929 . S
H2413 C2458 0.931 . S
H2414 C2460 0.930 . S
H2415 C2461 0.929 . S
O2416 H2390 0.856 . S
O2416 C2462 1.300 . S
O2417 C2462 1.209 . S
O2418 C2463 1.199 . S
O2419 H2391 0.854 . S
O2419 C2463 1.297 . S
C2420 C2421 1.404 . S
C2420 C2425 1.397 . S
C2420 C2426 1.492 . S
C2421 C2420 1.404 . S
C2421 C2422 1.396 . S
C2421 C2432 1.492 . S
C2422 C2421 1.396 . S
C2422 C2423 1.397 . S
C2422 C2438 1.509 . S
C2423 C2422 1.397 . S
C2423 C2424 1.412 . S
C2423 C2444 1.485 . S
C2424 C2423 1.412 . S
C2424 C2425 1.388 . S
C2424 C2450 1.490 . S
C2425 C2420 1.397 . S
C2425 C2424 1.388 . S
C2425 C2456 1.519 . S
C2426 C2420 1.492 . S
C2426 C2427 1.363 . S
C2426 C2431 1.390 . S
C2427 H2392 0.930 . S
C2427 C2426 1.363 . S
C2427 C2428 1.372 . S
C2428 H2393 0.930 . S
C2428 C2427 1.372 . S
C2428 C2429 1.383 . S
C2429 C2428 1.383 . S
C2429 C2430 1.395 . S
C2430 H2394 0.930 . S
C2430 C2429 1.395 . S
C2430 C2431 1.362 . S
C2431 H2395 0.930 . S
C2431 C2426 1.390 . S
C2431 C2430 1.362 . S
C2432 C2421 1.492 . S
C2432 C2433 1.377 . S
C2432 C2437 1.397 . S
C2433 H2396 0.931 . S
C2433 C2432 1.377 . S
C2433 C2434 1.376 . S
C2434 H2397 0.930 . S
C2434 C2433 1.376 . S
C2434 C2435 1.376 . S
C2435 C2434 1.376 . S
C2435 C2436 1.378 . S
C2435 C2462 1.486 . S
C2436 H2398 0.930 . S
C2436 C2435 1.378 . S
C2436 C2437 1.376 . S
C2437 H2399 0.929 . S
C2437 C2432 1.397 . S
C2437 C2436 1.376 . S
C2438 C2422 1.509 . S
C2438 C2439 1.391 . S
C2438 C2443 1.386 . S
C2439 H2400 0.930 . S
C2439 C2438 1.391 . S
C2439 C2440 1.375 . S
C2440 H2401 0.931 . S
C2440 C2439 1.375 . S
C2440 C2441 1.375 . S
C2441 C2440 1.375 . S
C2441 C2442 1.361 . S
C2442 H2402 0.930 . S
C2442 C2441 1.361 . S
C2442 C2443 1.399 . S
C2443 H2403 0.929 . S
C2443 C2438 1.386 . S
C2443 C2442 1.399 . S
C2444 C2423 1.485 . S
C2444 C2445 1.394 . S
C2444 C2449 1.360 . S
C2445 H2404 0.931 . S
C2445 C2444 1.394 . S
C2445 C2446 1.372 . S
C2446 H2405 0.930 . S
C2446 C2445 1.372 . S
C2446 C2447 1.397 . S
C2447 C2446 1.397 . S
C2447 C2448 1.390 . S
C2447 C2463 1.476 . S
C2448 H2406 0.930 . S
C2448 C2447 1.390 . S
C2448 C2449 1.366 . S
C2449 H2407 0.932 . S
C2449 C2444 1.360 . S
C2449 C2448 1.366 . S
C2450 C2424 1.490 . S
C2450 C2451 1.380 . S
C2450 C2455 1.386 . S
C2451 H2408 0.930 . S
C2451 C2450 1.380 . S
C2451 C2452 1.381 . S
C2452 H2409 0.929 . S
C2452 C2451 1.381 . S
C2452 C2453 1.371 . S
C2453 C2452 1.371 . S
C2453 C2454 1.380 . S
C2454 H2410 0.931 . S
C2454 C2453 1.380 . S
C2454 C2455 1.387 . S
C2455 H2411 0.930 . S
C2455 C2450 1.386 . S
C2455 C2454 1.387 . S
C2456 C2425 1.519 . S
C2456 C2457 1.377 . S
C2456 C2461 1.361 . S
C2457 H2412 0.929 . S
C2457 C2456 1.377 . S
C2457 C2458 1.386 . S
C2458 H2413 0.931 . S
C2458 C2457 1.386 . S
C2458 C2459 1.363 . S
C2459 C2458 1.363 . S
C2459 C2460 1.385 . S
C2460 H2414 0.930 . S
C2460 C2459 1.385 . S
C2460 C2461 1.396 . S
C2461 H2415 0.929 . S
C2461 C2456 1.361 . S
C2461 C2460 1.396 . S
C2462 O2416 1.300 . S
C2462 O2417 1.209 . S
C2462 C2435 1.486 . S
C2463 O2418 1.199 . S
C2463 O2419 1.297 . S
C2463 C2447 1.476 . S
H2464 O2490 0.856 . S
H2465 O2493 0.854 . S
H2466 C2501 0.930 . S
H2467 C2502 0.930 . S
H2468 C2504 0.930 . S
H2469 C2505 0.930 . S
H2470 C2507 0.931 . S
H2471 C2508 0.930 . S
H2472 C2510 0.930 . S
H2473 C2511 0.929 . S
H2474 C2513 0.930 . S
H2475 C2514 0.931 . S
H2476 C2516 0.930 . S
H2477 C2517 0.929 . S
H2478 C2519 0.931 . S
H2479 C2520 0.930 . S
H2480 C2522 0.930 . S
H2481 C2523 0.932 . S
H2482 C2525 0.930 . S
H2483 C2526 0.929 . S
H2484 C2528 0.931 . S
H2485 C2529 0.930 . S
H2486 C2531 0.929 . S
H2487 C2532 0.931 . S
H2488 C2534 0.930 . S
H2489 C2535 0.929 . S
O2490 H2464 0.856 . S
O2490 C2536 1.300 . S
O2491 C2536 1.209 . S
O2492 C2537 1.199 . S
O2493 H2465 0.854 . S
O2493 C2537 1.297 . S
C2494 C2495 1.404 . S
C2494 C2499 1.397 . S
C2494 C2500 1.492 . S
C2495 C2494 1.404 . S
C2495 C2496 1.396 . S
C2495 C2506 1.492 . S
C2496 C2495 1.396 . S
C2496 C2497 1.397 . S
C2496 C2512 1.509 . S
C2497 C2496 1.397 . S
C2497 C2498 1.412 . S
C2497 C2518 1.485 . S
C2498 C2497 1.412 . S
C2498 C2499 1.388 . S
C2498 C2524 1.490 . S
C2499 C2494 1.397 . S
C2499 C2498 1.388 . S
C2499 C2530 1.519 . S
C2500 C2494 1.492 . S
C2500 C2501 1.363 . S
C2500 C2505 1.390 . S
C2501 H2466 0.930 . S
C2501 C2500 1.363 . S
C2501 C2502 1.372 . S
C2502 H2467 0.930 . S
C2502 C2501 1.372 . S
C2502 C2503 1.383 . S
C2503 C2502 1.383 . S
C2503 C2504 1.395 . S
C2504 H2468 0.930 . S
C2504 C2503 1.395 . S
C2504 C2505 1.362 . S
C2505 H2469 0.930 . S
C2505 C2500 1.390 . S
C2505 C2504 1.362 . S
C2506 C2495 1.492 . S
C2506 C2507 1.377 . S
C2506 C2511 1.397 . S
C2507 H2470 0.931 . S
C2507 C2506 1.377 . S
C2507 C2508 1.376 . S
C2508 H2471 0.930 . S
C2508 C2507 1.376 . S
C2508 C2509 1.376 . S
C2509 C2508 1.376 . S
C2509 C2510 1.378 . S
C2509 C2536 1.486 . S
C2510 H2472 0.930 . S
C2510 C2509 1.378 . S
C2510 C2511 1.376 . S
C2511 H2473 0.929 . S
C2511 C2506 1.397 . S
C2511 C2510 1.376 . S
C2512 C2496 1.509 . S
C2512 C2513 1.391 . S
C2512 C2517 1.386 . S
C2513 H2474 0.930 . S
C2513 C2512 1.391 . S
C2513 C2514 1.375 . S
C2514 H2475 0.931 . S
C2514 C2513 1.375 . S
C2514 C2515 1.375 . S
C2515 C2514 1.375 . S
C2515 C2516 1.361 . S
C2516 H2476 0.930 . S
C2516 C2515 1.361 . S
C2516 C2517 1.399 . S
C2517 H2477 0.929 . S
C2517 C2512 1.386 . S
C2517 C2516 1.399 . S
C2518 C2497 1.485 . S
C2518 C2519 1.394 . S
C2518 C2523 1.360 . S
C2519 H2478 0.931 . S
C2519 C2518 1.394 . S
C2519 C2520 1.372 . S
C2520 H2479 0.930 . S
C2520 C2519 1.372 . S
C2520 C2521 1.397 . S
C2521 C2520 1.397 . S
C2521 C2522 1.390 . S
C2521 C2537 1.476 . S
C2522 H2480 0.930 . S
C2522 C2521 1.390 . S
C2522 C2523 1.366 . S
C2523 H2481 0.932 . S
C2523 C2518 1.360 . S
C2523 C2522 1.366 . S
C2524 C2498 1.490 . S
C2524 C2525 1.380 . S
C2524 C2529 1.386 . S
C2525 H2482 0.930 . S
C2525 C2524 1.380 . S
C2525 C2526 1.381 . S
C2526 H2483 0.929 . S
C2526 C2525 1.381 . S
C2526 C2527 1.371 . S
C2527 C2526 1.371 . S
C2527 C2528 1.380 . S
C2528 H2484 0.931 . S
C2528 C2527 1.380 . S
C2528 C2529 1.387 . S
C2529 H2485 0.930 . S
C2529 C2524 1.386 . S
C2529 C2528 1.387 . S
C2530 C2499 1.519 . S
C2530 C2531 1.377 . S
C2530 C2535 1.361 . S
C2531 H2486 0.929 . S
C2531 C2530 1.377 . S
C2531 C2532 1.386 . S
C2532 H2487 0.931 . S
C2532 C2531 1.386 . S
C2532 C2533 1.363 . S
C2533 C2532 1.363 . S
C2533 C2534 1.385 . S
C2534 H2488 0.930 . S
C2534 C2533 1.385 . S
C2534 C2535 1.396 . S
C2535 H2489 0.929 . S
C2535 C2530 1.361 . S
C2535 C2534 1.396 . S
C2536 O2490 1.300 . S
C2536 O2491 1.209 . S
C2536 C2509 1.486 . S
C2537 O2492 1.199 . S
C2537 O2493 1.297 . S
C2537 C2521 1.476 . S
H2538 O2564 0.856 . S
H2539 O2567 0.854 . S
H2540 C2575 0.930 . S
H2541 C2576 0.930 . S
H2542 C2578 0.930 . S
H2543 C2579 0.930 . S
H2544 C2581 0.931 . S
H2545 C2582 0.930 . S
H2546 C2584 0.930 . S
H2547 C2585 0.929 . S
H2548 C2587 0.930 . S
H2549 C2588 0.931 . S
H2550 C2590 0.930 . S
H2551 C2591 0.929 . S
H2552 C2593 0.931 . S
H2553 C2594 0.930 . S
H2554 C2596 0.930 . S
H2555 C2597 0.932 . S
H2556 C2599 0.930 . S
H2557 C2600 0.929 . S
H2558 C2602 0.931 . S
H2559 C2603 0.930 . S
H2560 C2605 0.929 . S
H2561 C2606 0.931 . S
H2562 C2608 0.930 . S
H2563 C2609 0.929 . S
O2564 H2538 0.856 . S
O2564 C2610 1.300 . S
O2565 C2610 1.209 . S
O2566 C2611 1.199 . S
O2567 H2539 0.854 . S
O2567 C2611 1.297 . S
C2568 C2569 1.404 . S
C2568 C2573 1.397 . S
C2568 C2574 1.492 . S
C2569 C2568 1.404 . S
C2569 C2570 1.396 . S
C2569 C2580 1.492 . S
C2570 C2569 1.396 . S
C2570 C2571 1.397 . S
C2570 C2586 1.509 . S
C2571 C2570 1.397 . S
C2571 C2572 1.412 . S
C2571 C2592 1.485 . S
C2572 C2571 1.412 . S
C2572 C2573 1.388 . S
C2572 C2598 1.490 . S
C2573 C2568 1.397 . S
C2573 C2572 1.388 . S
C2573 C2604 1.519 . S
C2574 C2568 1.492 . S
C2574 C2575 1.363 . S
C2574 C2579 1.390 . S
C2575 H2540 0.930 . S
C2575 C2574 1.363 . S
C2575 C2576 1.372 . S
C2576 H2541 0.930 . S
C2576 C2575 1.372 . S
C2576 C2577 1.383 . S
C2577 C2576 1.383 . S
C2577 C2578 1.395 . S
C2578 H2542 0.930 . S
C2578 C2577 1.395 . S
C2578 C2579 1.362 . S
C2579 H2543 0.930 . S
C2579 C2574 1.390 . S
C2579 C2578 1.362 . S
C2580 C2569 1.492 . S
C2580 C2581 1.377 . S
C2580 C2585 1.397 . S
C2581 H2544 0.931 . S
C2581 C2580 1.377 . S
C2581 C2582 1.376 . S
C2582 H2545 0.930 . S
C2582 C2581 1.376 . S
C2582 C2583 1.376 . S
C2583 C2582 1.376 . S
C2583 C2584 1.378 . S
C2583 C2610 1.486 . S
C2584 H2546 0.930 . S
C2584 C2583 1.378 . S
C2584 C2585 1.376 . S
C2585 H2547 0.929 . S
C2585 C2580 1.397 . S
C2585 C2584 1.376 . S
C2586 C2570 1.509 . S
C2586 C2587 1.391 . S
C2586 C2591 1.386 . S
C2587 H2548 0.930 . S
C2587 C2586 1.391 . S
C2587 C2588 1.375 . S
C2588 H2549 0.931 . S
C2588 C2587 1.375 . S
C2588 C2589 1.375 . S
C2589 C2588 1.375 . S
C2589 C2590 1.361 . S
C2590 H2550 0.930 . S
C2590 C2589 1.361 . S
C2590 C2591 1.399 . S
C2591 H2551 0.929 . S
C2591 C2586 1.386 . S
C2591 C2590 1.399 . S
C2592 C2571 1.485 . S
C2592 C2593 1.394 . S
C2592 C2597 1.360 . S
C2593 H2552 0.931 . S
C2593 C2592 1.394 . S
C2593 C2594 1.372 . S
C2594 H2553 0.930 . S
C2594 C2593 1.372 . S
C2594 C2595 1.397 . S
C2595 C2594 1.397 . S
C2595 C2596 1.390 . S
C2595 C2611 1.476 . S
C2596 H2554 0.930 . S
C2596 C2595 1.390 . S
C2596 C2597 1.366 . S
C2597 H2555 0.932 . S
C2597 C2592 1.360 . S
C2597 C2596 1.366 . S
C2598 C2572 1.490 . S
C2598 C2599 1.380 . S
C2598 C2603 1.386 . S
C2599 H2556 0.930 . S
C2599 C2598 1.380 . S
C2599 C2600 1.381 . S
C2600 H2557 0.929 . S
C2600 C2599 1.381 . S
C2600 C2601 1.371 . S
C2601 C2600 1.371 . S
C2601 C2602 1.380 . S
C2602 H2558 0.931 . S
C2602 C2601 1.380 . S
C2602 C2603 1.387 . S
C2603 H2559 0.930 . S
C2603 C2598 1.386 . S
C2603 C2602 1.387 . S
C2604 C2573 1.519 . S
C2604 C2605 1.377 . S
C2604 C2609 1.361 . S
C2605 H2560 0.929 . S
C2605 C2604 1.377 . S
C2605 C2606 1.386 . S
C2606 H2561 0.931 . S
C2606 C2605 1.386 . S
C2606 C2607 1.363 . S
C2607 C2606 1.363 . S
C2607 C2608 1.385 . S
C2608 H2562 0.930 . S
C2608 C2607 1.385 . S
C2608 C2609 1.396 . S
C2609 H2563 0.929 . S
C2609 C2604 1.361 . S
C2609 C2608 1.396 . S
C2610 O2564 1.300 . S
C2610 O2565 1.209 . S
C2610 C2583 1.486 . S
C2611 O2566 1.199 . S
C2611 O2567 1.297 . S
C2611 C2595 1.476 . S
H2612 O2638 0.856 . S
H2613 O2641 0.854 . S
H2614 C2649 0.930 . S
H2615 C2650 0.930 . S
H2616 C2652 0.930 . S
H2617 C2653 0.930 . S
H2618 C2655 0.931 . S
H2619 C2656 0.930 . S
H2620 C2658 0.930 . S
H2621 C2659 0.929 . S
H2622 C2661 0.930 . S
H2623 C2662 0.931 . S
H2624 C2664 0.930 . S
H2625 C2665 0.929 . S
H2626 C2667 0.931 . S
H2627 C2668 0.930 . S
H2628 C2670 0.930 . S
H2629 C2671 0.932 . S
H2630 C2673 0.930 . S
H2631 C2674 0.929 . S
H2632 C2676 0.931 . S
H2633 C2677 0.930 . S
H2634 C2679 0.929 . S
H2635 C2680 0.931 . S
H2636 C2682 0.930 . S
H2637 C2683 0.929 . S
O2638 H2612 0.856 . S
O2638 C2684 1.300 . S
O2639 C2684 1.209 . S
O2640 C2685 1.199 . S
O2641 H2613 0.854 . S
O2641 C2685 1.297 . S
C2642 C2643 1.404 . S
C2642 C2647 1.397 . S
C2642 C2648 1.492 . S
C2643 C2642 1.404 . S
C2643 C2644 1.396 . S
C2643 C2654 1.492 . S
C2644 C2643 1.396 . S
C2644 C2645 1.397 . S
C2644 C2660 1.509 . S
C2645 C2644 1.397 . S
C2645 C2646 1.412 . S
C2645 C2666 1.485 . S
C2646 C2645 1.412 . S
C2646 C2647 1.388 . S
C2646 C2672 1.490 . S
C2647 C2642 1.397 . S
C2647 C2646 1.388 . S
C2647 C2678 1.519 . S
C2648 C2642 1.492 . S
C2648 C2649 1.363 . S
C2648 C2653 1.390 . S
C2649 H2614 0.930 . S
C2649 C2648 1.363 . S
C2649 C2650 1.372 . S
C2650 H2615 0.930 . S
C2650 C2649 1.372 . S
C2650 C2651 1.383 . S
C2651 C2650 1.383 . S
C2651 C2652 1.395 . S
C2652 H2616 0.930 . S
C2652 C2651 1.395 . S
C2652 C2653 1.362 . S
C2653 H2617 0.930 . S
C2653 C2648 1.390 . S
C2653 C2652 1.362 . S
C2654 C2643 1.492 . S
C2654 C2655 1.377 . S
C2654 C2659 1.397 . S
C2655 H2618 0.931 . S
C2655 C2654 1.377 . S
C2655 C2656 1.376 . S
C2656 H2619 0.930 . S
C2656 C2655 1.376 . S
C2656 C2657 1.376 . S
C2657 C2656 1.376 . S
C2657 C2658 1.378 . S
C2657 C2684 1.486 . S
C2658 H2620 0.930 . S
C2658 C2657 1.378 . S
C2658 C2659 1.376 . S
C2659 H2621 0.929 . S
C2659 C2654 1.397 . S
C2659 C2658 1.376 . S
C2660 C2644 1.509 . S
C2660 C2661 1.391 . S
C2660 C2665 1.386 . S
C2661 H2622 0.930 . S
C2661 C2660 1.391 . S
C2661 C2662 1.375 . S
C2662 H2623 0.931 . S
C2662 C2661 1.375 . S
C2662 C2663 1.375 . S
C2663 C2662 1.375 . S
C2663 C2664 1.361 . S
C2664 H2624 0.930 . S
C2664 C2663 1.361 . S
C2664 C2665 1.399 . S
C2665 H2625 0.929 . S
C2665 C2660 1.386 . S
C2665 C2664 1.399 . S
C2666 C2645 1.485 . S
C2666 C2667 1.394 . S
C2666 C2671 1.360 . S
C2667 H2626 0.931 . S
C2667 C2666 1.394 . S
C2667 C2668 1.372 . S
C2668 H2627 0.930 . S
C2668 C2667 1.372 . S
C2668 C2669 1.397 . S
C2669 C2668 1.397 . S
C2669 C2670 1.390 . S
C2669 C2685 1.476 . S
C2670 H2628 0.930 . S
C2670 C2669 1.390 . S
C2670 C2671 1.366 . S
C2671 H2629 0.932 . S
C2671 C2666 1.360 . S
C2671 C2670 1.366 . S
C2672 C2646 1.490 . S
C2672 C2673 1.380 . S
C2672 C2677 1.386 . S
C2673 H2630 0.930 . S
C2673 C2672 1.380 . S
C2673 C2674 1.381 . S
C2674 H2631 0.929 . S
C2674 C2673 1.381 . S
C2674 C2675 1.371 . S
C2675 C2674 1.371 . S
C2675 C2676 1.380 . S
C2676 H2632 0.931 . S
C2676 C2675 1.380 . S
C2676 C2677 1.387 . S
C2677 H2633 0.930 . S
C2677 C2672 1.386 . S
C2677 C2676 1.387 . S
C2678 C2647 1.519 . S
C2678 C2679 1.377 . S
C2678 C2683 1.361 . S
C2679 H2634 0.929 . S
C2679 C2678 1.377 . S
C2679 C2680 1.386 . S
C2680 H2635 0.931 . S
C2680 C2679 1.386 . S
C2680 C2681 1.363 . S
C2681 C2680 1.363 . S
C2681 C2682 1.385 . S
C2682 H2636 0.930 . S
C2682 C2681 1.385 . S
C2682 C2683 1.396 . S
C2683 H2637 0.929 . S
C2683 C2678 1.361 . S
C2683 C2682 1.396 . S
C2684 O2638 1.300 . S
C2684 O2639 1.209 . S
C2684 C2657 1.486 . S
C2685 O2640 1.199 . S
C2685 O2641 1.297 . S
C2685 C2669 1.476 . S
H2686 O2712 0.856 . S
H2687 O2715 0.854 . S
H2688 C2723 0.930 . S
H2689 C2724 0.930 . S
H2690 C2726 0.930 . S
H2691 C2727 0.930 . S
H2692 C2729 0.931 . S
H2693 C2730 0.930 . S
H2694 C2732 0.930 . S
H2695 C2733 0.929 . S
H2696 C2735 0.930 . S
H2697 C2736 0.931 . S
H2698 C2738 0.930 . S
H2699 C2739 0.929 . S
H2700 C2741 0.931 . S
H2701 C2742 0.930 . S
H2702 C2744 0.930 . S
H2703 C2745 0.932 . S
H2704 C2747 0.930 . S
H2705 C2748 0.929 . S
H2706 C2750 0.931 . S
H2707 C2751 0.930 . S
H2708 C2753 0.929 . S
H2709 C2754 0.931 . S
H2710 C2756 0.930 . S
H2711 C2757 0.929 . S
O2712 H2686 0.856 . S
O2712 C2758 1.300 . S
O2713 C2758 1.209 . S
O2714 C2759 1.199 . S
O2715 H2687 0.854 . S
O2715 C2759 1.297 . S
C2716 C2717 1.404 . S
C2716 C2721 1.397 . S
C2716 C2722 1.492 . S
C2717 C2716 1.404 . S
C2717 C2718 1.396 . S
C2717 C2728 1.492 . S
C2718 C2717 1.396 . S
C2718 C2719 1.397 . S
C2718 C2734 1.509 . S
C2719 C2718 1.397 . S
C2719 C2720 1.412 . S
C2719 C2740 1.485 . S
C2720 C2719 1.412 . S
C2720 C2721 1.388 . S
C2720 C2746 1.490 . S
C2721 C2716 1.397 . S
C2721 C2720 1.388 . S
C2721 C2752 1.519 . S
C2722 C2716 1.492 . S
C2722 C2723 1.363 . S
C2722 C2727 1.390 . S
C2723 H2688 0.930 . S
C2723 C2722 1.363 . S
C2723 C2724 1.372 . S
C2724 H2689 0.930 . S
C2724 C2723 1.372 . S
C2724 C2725 1.383 . S
C2725 C2724 1.383 . S
C2725 C2726 1.395 . S
C2726 H2690 0.930 . S
C2726 C2725 1.395 . S
C2726 C2727 1.362 . S
C2727 H2691 0.930 . S
C2727 C2722 1.390 . S
C2727 C2726 1.362 . S
C2728 C2717 1.492 . S
C2728 C2729 1.377 . S
C2728 C2733 1.397 . S
C2729 H2692 0.931 . S
C2729 C2728 1.377 . S
C2729 C2730 1.376 . S
C2730 H2693 0.930 . S
C2730 C2729 1.376 . S
C2730 C2731 1.376 . S
C2731 C2730 1.376 . S
C2731 C2732 1.378 . S
C2731 C2758 1.486 . S
C2732 H2694 0.930 . S
C2732 C2731 1.378 . S
C2732 C2733 1.376 . S
C2733 H2695 0.929 . S
C2733 C2728 1.397 . S
C2733 C2732 1.376 . S
C2734 C2718 1.509 . S
C2734 C2735 1.391 . S
C2734 C2739 1.386 . S
C2735 H2696 0.930 . S
C2735 C2734 1.391 . S
C2735 C2736 1.375 . S
C2736 H2697 0.931 . S
C2736 C2735 1.375 . S
C2736 C2737 1.375 . S
C2737 C2736 1.375 . S
C2737 C2738 1.361 . S
C2738 H2698 0.930 . S
C2738 C2737 1.361 . S
C2738 C2739 1.399 . S
C2739 H2699 0.929 . S
C2739 C2734 1.386 . S
C2739 C2738 1.399 . S
C2740 C2719 1.485 . S
C2740 C2741 1.394 . S
C2740 C2745 1.360 . S
C2741 H2700 0.931 . S
C2741 C2740 1.394 . S
C2741 C2742 1.372 . S
C2742 H2701 0.930 . S
C2742 C2741 1.372 . S
C2742 C2743 1.397 . S
C2743 C2742 1.397 . S
C2743 C2744 1.390 . S
C2743 C2759 1.476 . S
C2744 H2702 0.930 . S
C2744 C2743 1.390 . S
C2744 C2745 1.366 . S
C2745 H2703 0.932 . S
C2745 C2740 1.360 . S
C2745 C2744 1.366 . S
C2746 C2720 1.490 . S
C2746 C2747 1.380 . S
C2746 C2751 1.386 . S
C2747 H2704 0.930 . S
C2747 C2746 1.380 . S
C2747 C2748 1.381 . S
C2748 H2705 0.929 . S
C2748 C2747 1.381 . S
C2748 C2749 1.371 . S
C2749 C2748 1.371 . S
C2749 C2750 1.380 . S
C2750 H2706 0.931 . S
C2750 C2749 1.380 . S
C2750 C2751 1.387 . S
C2751 H2707 0.930 . S
C2751 C2746 1.386 . S
C2751 C2750 1.387 . S
C2752 C2721 1.519 . S
C2752 C2753 1.377 . S
C2752 C2757 1.361 . S
C2753 H2708 0.929 . S
C2753 C2752 1.377 . S
C2753 C2754 1.386 . S
C2754 H2709 0.931 . S
C2754 C2753 1.386 . S
C2754 C2755 1.363 . S
C2755 C2754 1.363 . S
C2755 C2756 1.385 . S
C2756 H2710 0.930 . S
C2756 C2755 1.385 . S
C2756 C2757 1.396 . S
C2757 H2711 0.929 . S
C2757 C2752 1.361 . S
C2757 C2756 1.396 . S
C2758 O2712 1.300 . S
C2758 O2713 1.209 . S
C2758 C2731 1.486 . S
C2759 O2714 1.199 . S
C2759 O2715 1.297 . S
C2759 C2743 1.476 . S
H2760 O2786 0.856 . S
H2761 O2789 0.854 . S
H2762 C2797 0.930 . S
H2763 C2798 0.930 . S
H2764 C2800 0.930 . S
H2765 C2801 0.930 . S
H2766 C2803 0.931 . S
H2767 C2804 0.930 . S
H2768 C2806 0.930 . S
H2769 C2807 0.929 . S
H2770 C2809 0.930 . S
H2771 C2810 0.931 . S
H2772 C2812 0.930 . S
H2773 C2813 0.929 . S
H2774 C2815 0.931 . S
H2775 C2816 0.930 . S
H2776 C2818 0.930 . S
H2777 C2819 0.932 . S
H2778 C2821 0.930 . S
H2779 C2822 0.929 . S
H2780 C2824 0.931 . S
H2781 C2825 0.930 . S
H2782 C2827 0.929 . S
H2783 C2828 0.931 . S
H2784 C2830 0.930 . S
H2785 C2831 0.929 . S
O2786 H2760 0.856 . S
O2786 C2832 1.300 . S
O2787 C2832 1.209 . S
O2788 C2833 1.199 . S
O2789 H2761 0.854 . S
O2789 C2833 1.297 . S
C2790 C2791 1.404 . S
C2790 C2795 1.397 . S
C2790 C2796 1.492 . S
C2791 C2790 1.404 . S
C2791 C2792 1.396 . S
C2791 C2802 1.492 . S
C2792 C2791 1.396 . S
C2792 C2793 1.397 . S
C2792 C2808 1.509 . S
C2793 C2792 1.397 . S
C2793 C2794 1.412 . S
C2793 C2814 1.485 . S
C2794 C2793 1.412 . S
C2794 C2795 1.388 . S
C2794 C2820 1.490 . S
C2795 C2790 1.397 . S
C2795 C2794 1.388 . S
C2795 C2826 1.519 . S
C2796 C2790 1.492 . S
C2796 C2797 1.363 . S
C2796 C2801 1.390 . S
C2797 H2762 0.930 . S
C2797 C2796 1.363 . S
C2797 C2798 1.372 . S
C2798 H2763 0.930 . S
C2798 C2797 1.372 . S
C2798 C2799 1.383 . S
C2799 C2798 1.383 . S
C2799 C2800 1.395 . S
C2800 H2764 0.930 . S
C2800 C2799 1.395 . S
C2800 C2801 1.362 . S
C2801 H2765 0.930 . S
C2801 C2796 1.390 . S
C2801 C2800 1.362 . S
C2802 C2791 1.492 . S
C2802 C2803 1.377 . S
C2802 C2807 1.397 . S
C2803 H2766 0.931 . S
C2803 C2802 1.377 . S
C2803 C2804 1.376 . S
C2804 H2767 0.930 . S
C2804 C2803 1.376 . S
C2804 C2805 1.376 . S
C2805 C2804 1.376 . S
C2805 C2806 1.378 . S
C2805 C2832 1.486 . S
C2806 H2768 0.930 . S
C2806 C2805 1.378 . S
C2806 C2807 1.376 . S
C2807 H2769 0.929 . S
C2807 C2802 1.397 . S
C2807 C2806 1.376 . S
C2808 C2792 1.509 . S
C2808 C2809 1.391 . S
C2808 C2813 1.386 . S
C2809 H2770 0.930 . S
C2809 C2808 1.391 . S
C2809 C2810 1.375 . S
C2810 H2771 0.931 . S
C2810 C2809 1.375 . S
C2810 C2811 1.375 . S
C2811 C2810 1.375 . S
C2811 C2812 1.361 . S
C2812 H2772 0.930 . S
C2812 C2811 1.361 . S
C2812 C2813 1.399 . S
C2813 H2773 0.929 . S
C2813 C2808 1.386 . S
C2813 C2812 1.399 . S
C2814 C2793 1.485 . S
C2814 C2815 1.394 . S
C2814 C2819 1.360 . S
C2815 H2774 0.931 . S
C2815 C2814 1.394 . S
C2815 C2816 1.372 . S
C2816 H2775 0.930 . S
C2816 C2815 1.372 . S
C2816 C2817 1.397 . S
C2817 C2816 1.397 . S
C2817 C2818 1.390 . S
C2817 C2833 1.476 . S
C2818 H2776 0.930 . S
C2818 C2817 1.390 . S
C2818 C2819 1.366 . S
C2819 H2777 0.932 . S
C2819 C2814 1.360 . S
C2819 C2818 1.366 . S
C2820 C2794 1.490 . S
C2820 C2821 1.380 . S
C2820 C2825 1.386 . S
C2821 H2778 0.930 . S
C2821 C2820 1.380 . S
C2821 C2822 1.381 . S
C2822 H2779 0.929 . S
C2822 C2821 1.381 . S
C2822 C2823 1.371 . S
C2823 C2822 1.371 . S
C2823 C2824 1.380 . S
C2824 H2780 0.931 . S
C2824 C2823 1.380 . S
C2824 C2825 1.387 . S
C2825 H2781 0.930 . S
C2825 C2820 1.386 . S
C2825 C2824 1.387 . S
C2826 C2795 1.519 . S
C2826 C2827 1.377 . S
C2826 C2831 1.361 . S
C2827 H2782 0.929 . S
C2827 C2826 1.377 . S
C2827 C2828 1.386 . S
C2828 H2783 0.931 . S
C2828 C2827 1.386 . S
C2828 C2829 1.363 . S
C2829 C2828 1.363 . S
C2829 C2830 1.385 . S
C2830 H2784 0.930 . S
C2830 C2829 1.385 . S
C2830 C2831 1.396 . S
C2831 H2785 0.929 . S
C2831 C2826 1.361 . S
C2831 C2830 1.396 . S
C2832 O2786 1.300 . S
C2832 O2787 1.209 . S
C2832 C2805 1.486 . S
C2833 O2788 1.199 . S
C2833 O2789 1.297 . S
C2833 C2817 1.476 . S
H2834 O2860 0.856 . S
H2835 O2863 0.854 . S
H2836 C2871 0.930 . S
H2837 C2872 0.930 . S
H2838 C2874 0.930 . S
H2839 C2875 0.930 . S
H2840 C2877 0.931 . S
H2841 C2878 0.930 . S
H2842 C2880 0.930 . S
H2843 C2881 0.929 . S
H2844 C2883 0.930 . S
H2845 C2884 0.931 . S
H2846 C2886 0.930 . S
H2847 C2887 0.929 . S
H2848 C2889 0.931 . S
H2849 C2890 0.930 . S
H2850 C2892 0.930 . S
H2851 C2893 0.932 . S
H2852 C2895 0.930 . S
H2853 C2896 0.929 . S
H2854 C2898 0.931 . S
H2855 C2899 0.930 . S
H2856 C2901 0.929 . S
H2857 C2902 0.931 . S
H2858 C2904 0.930 . S
H2859 C2905 0.929 . S
O2860 H2834 0.856 . S
O2860 C2906 1.300 . S
O2861 C2906 1.209 . S
O2862 C2907 1.199 . S
O2863 H2835 0.854 . S
O2863 C2907 1.297 . S
C2864 C2865 1.404 . S
C2864 C2869 1.397 . S
C2864 C2870 1.492 . S
C2865 C2864 1.404 . S
C2865 C2866 1.396 . S
C2865 C2876 1.492 . S
C2866 C2865 1.396 . S
C2866 C2867 1.397 . S
C2866 C2882 1.509 . S
C2867 C2866 1.397 . S
C2867 C2868 1.412 . S
C2867 C2888 1.485 . S
C2868 C2867 1.412 . S
C2868 C2869 1.388 . S
C2868 C2894 1.490 . S
C2869 C2864 1.397 . S
C2869 C2868 1.388 . S
C2869 C2900 1.519 . S
C2870 C2864 1.492 . S
C2870 C2871 1.363 . S
C2870 C2875 1.390 . S
C2871 H2836 0.930 . S
C2871 C2870 1.363 . S
C2871 C2872 1.372 . S
C2872 H2837 0.930 . S
C2872 C2871 1.372 . S
C2872 C2873 1.383 . S
C2873 C2872 1.383 . S
C2873 C2874 1.395 . S
C2874 H2838 0.930 . S
C2874 C2873 1.395 . S
C2874 C2875 1.362 . S
C2875 H2839 0.930 . S
C2875 C2870 1.390 . S
C2875 C2874 1.362 . S
C2876 C2865 1.492 . S
C2876 C2877 1.377 . S
C2876 C2881 1.397 . S
C2877 H2840 0.931 . S
C2877 C2876 1.377 . S
C2877 C2878 1.376 . S
C2878 H2841 0.930 . S
C2878 C2877 1.376 . S
C2878 C2879 1.376 . S
C2879 C2878 1.376 . S
C2879 C2880 1.378 . S
C2879 C2906 1.486 . S
C2880 H2842 0.930 . S
C2880 C2879 1.378 . S
C2880 C2881 1.376 . S
C2881 H2843 0.929 . S
C2881 C2876 1.397 . S
C2881 C2880 1.376 . S
C2882 C2866 1.509 . S
C2882 C2883 1.391 . S
C2882 C2887 1.386 . S
C2883 H2844 0.930 . S
C2883 C2882 1.391 . S
C2883 C2884 1.375 . S
C2884 H2845 0.931 . S
C2884 C2883 1.375 . S
C2884 C2885 1.375 . S
C2885 C2884 1.375 . S
C2885 C2886 1.361 . S
C2886 H2846 0.930 . S
C2886 C2885 1.361 . S
C2886 C2887 1.399 . S
C2887 H2847 0.929 . S
C2887 C2882 1.386 . S
C2887 C2886 1.399 . S
C2888 C2867 1.485 . S
C2888 C2889 1.394 . S
C2888 C2893 1.360 . S
C2889 H2848 0.931 . S
C2889 C2888 1.394 . S
C2889 C2890 1.372 . S
C2890 H2849 0.930 . S
C2890 C2889 1.372 . S
C2890 C2891 1.397 . S
C2891 C2890 1.397 . S
C2891 C2892 1.390 . S
C2891 C2907 1.476 . S
C2892 H2850 0.930 . S
C2892 C2891 1.390 . S
C2892 C2893 1.366 . S
C2893 H2851 0.932 . S
C2893 C2888 1.360 . S
C2893 C2892 1.366 . S
C2894 C2868 1.490 . S
C2894 C2895 1.380 . S
C2894 C2899 1.386 . S
C2895 H2852 0.930 . S
C2895 C2894 1.380 . S
C2895 C2896 1.381 . S
C2896 H2853 0.929 . S
C2896 C2895 1.381 . S
C2896 C2897 1.371 . S
C2897 C2896 1.371 . S
C2897 C2898 1.380 . S
C2898 H2854 0.931 . S
C2898 C2897 1.380 . S
C2898 C2899 1.387 . S
C2899 H2855 0.930 . S
C2899 C2894 1.386 . S
C2899 C2898 1.387 . S
C2900 C2869 1.519 . S
C2900 C2901 1.377 . S
C2900 C2905 1.361 . S
C2901 H2856 0.929 . S
C2901 C2900 1.377 . S
C2901 C2902 1.386 . S
C2902 H2857 0.931 . S
C2902 C2901 1.386 . S
C2902 C2903 1.363 . S
C2903 C2902 1.363 . S
C2903 C2904 1.385 . S
C2904 H2858 0.930 . S
C2904 C2903 1.385 . S
C2904 C2905 1.396 . S
C2905 H2859 0.929 . S
C2905 C2900 1.361 . S
C2905 C2904 1.396 . S
C2906 O2860 1.300 . S
C2906 O2861 1.209 . S
C2906 C2879 1.486 . S
C2907 O2862 1.199 . S
C2907 O2863 1.297 . S
C2907 C2891 1.476 . S
H2908 O2934 0.856 . S
H2909 O2937 0.854 . S
H2910 C2945 0.930 . S
H2911 C2946 0.930 . S
H2912 C2948 0.930 . S
H2913 C2949 0.930 . S
H2914 C2951 0.931 . S
H2915 C2952 0.930 . S
H2916 C2954 0.930 . S
H2917 C2955 0.929 . S
H2918 C2957 0.930 . S
H2919 C2958 0.931 . S
H2920 C2960 0.930 . S
H2921 C2961 0.929 . S
H2922 C2963 0.931 . S
H2923 C2964 0.930 . S
H2924 C2966 0.930 . S
H2925 C2967 0.932 . S
H2926 C2969 0.930 . S
H2927 C2970 0.929 . S
H2928 C2972 0.931 . S
H2929 C2973 0.930 . S
H2930 C2975 0.929 . S
H2931 C2976 0.931 . S
H2932 C2978 0.930 . S
H2933 C2979 0.929 . S
O2934 H2908 0.856 . S
O2934 C2980 1.300 . S
O2935 C2980 1.209 . S
O2936 C2981 1.199 . S
O2937 H2909 0.854 . S
O2937 C2981 1.297 . S
C2938 C2939 1.404 . S
C2938 C2943 1.397 . S
C2938 C2944 1.492 . S
C2939 C2938 1.404 . S
C2939 C2940 1.396 . S
C2939 C2950 1.492 . S
C2940 C2939 1.396 . S
C2940 C2941 1.397 . S
C2940 C2956 1.509 . S
C2941 C2940 1.397 . S
C2941 C2942 1.412 . S
C2941 C2962 1.485 . S
C2942 C2941 1.412 . S
C2942 C2943 1.388 . S
C2942 C2968 1.490 . S
C2943 C2938 1.397 . S
C2943 C2942 1.388 . S
C2943 C2974 1.519 . S
C2944 C2938 1.492 . S
C2944 C2945 1.363 . S
C2944 C2949 1.390 . S
C2945 H2910 0.930 . S
C2945 C2944 1.363 . S
C2945 C2946 1.372 . S
C2946 H2911 0.930 . S
C2946 C2945 1.372 . S
C2946 C2947 1.383 . S
C2947 C2946 1.383 . S
C2947 C2948 1.395 . S
C2948 H2912 0.930 . S
C2948 C2947 1.395 . S
C2948 C2949 1.362 . S
C2949 H2913 0.930 . S
C2949 C2944 1.390 . S
C2949 C2948 1.362 . S
C2950 C2939 1.492 . S
C2950 C2951 1.377 . S
C2950 C2955 1.397 . S
C2951 H2914 0.931 . S
C2951 C2950 1.377 . S
C2951 C2952 1.376 . S
C2952 H2915 0.930 . S
C2952 C2951 1.376 . S
C2952 C2953 1.376 . S
C2953 C2952 1.376 . S
C2953 C2954 1.378 . S
C2953 C2980 1.486 . S
C2954 H2916 0.930 . S
C2954 C2953 1.378 . S
C2954 C2955 1.376 . S
C2955 H2917 0.929 . S
C2955 C2950 1.397 . S
C2955 C2954 1.376 . S
C2956 C2940 1.509 . S
C2956 C2957 1.391 . S
C2956 C2961 1.386 . S
C2957 H2918 0.930 . S
C2957 C2956 1.391 . S
C2957 C2958 1.375 . S
C2958 H2919 0.931 . S
C2958 C2957 1.375 . S
C2958 C2959 1.375 . S
C2959 C2958 1.375 . S
C2959 C2960 1.361 . S
C2960 H2920 0.930 . S
C2960 C2959 1.361 . S
C2960 C2961 1.399 . S
C2961 H2921 0.929 . S
C2961 C2956 1.386 . S
C2961 C2960 1.399 . S
C2962 C2941 1.485 . S
C2962 C2963 1.394 . S
C2962 C2967 1.360 . S
C2963 H2922 0.931 . S
C2963 C2962 1.394 . S
C2963 C2964 1.372 . S
C2964 H2923 0.930 . S
C2964 C2963 1.372 . S
C2964 C2965 1.397 . S
C2965 C2964 1.397 . S
C2965 C2966 1.390 . S
C2965 C2981 1.476 . S
C2966 H2924 0.930 . S
C2966 C2965 1.390 . S
C2966 C2967 1.366 . S
C2967 H2925 0.932 . S
C2967 C2962 1.360 . S
C2967 C2966 1.366 . S
C2968 C2942 1.490 . S
C2968 C2969 1.380 . S
C2968 C2973 1.386 . S
C2969 H2926 0.930 . S
C2969 C2968 1.380 . S
C2969 C2970 1.381 . S
C2970 H2927 0.929 . S
C2970 C2969 1.381 . S
C2970 C2971 1.371 . S
C2971 C2970 1.371 . S
C2971 C2972 1.380 . S
C2972 H2928 0.931 . S
C2972 C2971 1.380 . S
C2972 C2973 1.387 . S
C2973 H2929 0.930 . S
C2973 C2968 1.386 . S
C2973 C2972 1.387 . S
C2974 C2943 1.519 . S
C2974 C2975 1.377 . S
C2974 C2979 1.361 . S
C2975 H2930 0.929 . S
C2975 C2974 1.377 . S
C2975 C2976 1.386 . S
C2976 H2931 0.931 . S
C2976 C2975 1.386 . S
C2976 C2977 1.363 . S
C2977 C2976 1.363 . S
C2977 C2978 1.385 . S
C2978 H2932 0.930 . S
C2978 C2977 1.385 . S
C2978 C2979 1.396 . S
C2979 H2933 0.929 . S
C2979 C2974 1.361 . S
C2979 C2978 1.396 . S
C2980 O2934 1.300 . S
C2980 O2935 1.209 . S
C2980 C2953 1.486 . S
C2981 O2936 1.199 . S
C2981 O2937 1.297 . S
C2981 C2965 1.476 . S
H2982 O3008 0.856 . S
H2983 O3011 0.854 . S
H2984 C3019 0.930 . S
H2985 C3020 0.930 . S
H2986 C3022 0.930 . S
H2987 C3023 0.930 . S
H2988 C3025 0.931 . S
H2989 C3026 0.930 . S
H2990 C3028 0.930 . S
H2991 C3029 0.929 . S
H2992 C3031 0.930 . S
H2993 C3032 0.931 . S
H2994 C3034 0.930 . S
H2995 C3035 0.929 . S
H2996 C3037 0.931 . S
H2997 C3038 0.930 . S
H2998 C3040 0.930 . S
H2999 C3041 0.932 . S
H3000 C3043 0.930 . S
H3001 C3044 0.929 . S
H3002 C3046 0.931 . S
H3003 C3047 0.930 . S
H3004 C3049 0.929 . S
H3005 C3050 0.931 . S
H3006 C3052 0.930 . S
H3007 C3053 0.929 . S
O3008 H2982 0.856 . S
O3008 C3054 1.300 . S
O3009 C3054 1.209 . S
O3010 C3055 1.199 . S
O3011 H2983 0.854 . S
O3011 C3055 1.297 . S
C3012 C3013 1.404 . S
C3012 C3017 1.397 . S
C3012 C3018 1.492 . S
C3013 C3012 1.404 . S
C3013 C3014 1.396 . S
C3013 C3024 1.492 . S
C3014 C3013 1.396 . S
C3014 C3015 1.397 . S
C3014 C3030 1.509 . S
C3015 C3014 1.397 . S
C3015 C3016 1.412 . S
C3015 C3036 1.485 . S
C3016 C3015 1.412 . S
C3016 C3017 1.388 . S
C3016 C3042 1.490 . S
C3017 C3012 1.397 . S
C3017 C3016 1.388 . S
C3017 C3048 1.519 . S
C3018 C3012 1.492 . S
C3018 C3019 1.363 . S
C3018 C3023 1.390 . S
C3019 H2984 0.930 . S
C3019 C3018 1.363 . S
C3019 C3020 1.372 . S
C3020 H2985 0.930 . S
C3020 C3019 1.372 . S
C3020 C3021 1.383 . S
C3021 C3020 1.383 . S
C3021 C3022 1.395 . S
C3022 H2986 0.930 . S
C3022 C3021 1.395 . S
C3022 C3023 1.362 . S
C3023 H2987 0.930 . S
C3023 C3018 1.390 . S
C3023 C3022 1.362 . S
C3024 C3013 1.492 . S
C3024 C3025 1.377 . S
C3024 C3029 1.397 . S
C3025 H2988 0.931 . S
C3025 C3024 1.377 . S
C3025 C3026 1.376 . S
C3026 H2989 0.930 . S
C3026 C3025 1.376 . S
C3026 C3027 1.376 . S
C3027 C3026 1.376 . S
C3027 C3028 1.378 . S
C3027 C3054 1.486 . S
C3028 H2990 0.930 . S
C3028 C3027 1.378 . S
C3028 C3029 1.376 . S
C3029 H2991 0.929 . S
C3029 C3024 1.397 . S
C3029 C3028 1.376 . S
C3030 C3014 1.509 . S
C3030 C3031 1.391 . S
C3030 C3035 1.386 . S
C3031 H2992 0.930 . S
C3031 C3030 1.391 . S
C3031 C3032 1.375 . S
C3032 H2993 0.931 . S
C3032 C3031 1.375 . S
C3032 C3033 1.375 . S
C3033 C3032 1.375 . S
C3033 C3034 1.361 . S
C3034 H2994 0.930 . S
C3034 C3033 1.361 . S
C3034 C3035 1.399 . S
C3035 H2995 0.929 . S
C3035 C3030 1.386 . S
C3035 C3034 1.399 . S
C3036 C3015 1.485 . S
C3036 C3037 1.394 . S
C3036 C3041 1.360 . S
C3037 H2996 0.931 . S
C3037 C3036 1.394 . S
C3037 C3038 1.372 . S
C3038 H2997 0.930 . S
C3038 C3037 1.372 . S
C3038 C3039 1.397 . S
C3039 C3038 1.397 . S
C3039 C3040 1.390 . S
C3039 C3055 1.476 . S
C3040 H2998 0.930 . S
C3040 C3039 1.390 . S
C3040 C3041 1.366 . S
C3041 H2999 0.932 . S
C3041 C3036 1.360 . S
C3041 C3040 1.366 . S
C3042 C3016 1.490 . S
C3042 C3043 1.380 . S
C3042 C3047 1.386 . S
C3043 H3000 0.930 . S
C3043 C3042 1.380 . S
C3043 C3044 1.381 . S
C3044 H3001 0.929 . S
C3044 C3043 1.381 . S
C3044 C3045 1.371 . S
C3045 C3044 1.371 . S
C3045 C3046 1.380 . S
C3046 H3002 0.931 . S
C3046 C3045 1.380 . S
C3046 C3047 1.387 . S
C3047 H3003 0.930 . S
C3047 C3042 1.386 . S
C3047 C3046 1.387 . S
C3048 C3017 1.519 . S
C3048 C3049 1.377 . S
C3048 C3053 1.361 . S
C3049 H3004 0.929 . S
C3049 C3048 1.377 . S
C3049 C3050 1.386 . S
C3050 H3005 0.931 . S
C3050 C3049 1.386 . S
C3050 C3051 1.363 . S
C3051 C3050 1.363 . S
C3051 C3052 1.385 . S
C3052 H3006 0.930 . S
C3052 C3051 1.385 . S
C3052 C3053 1.396 . S
C3053 H3007 0.929 . S
C3053 C3048 1.361 . S
C3053 C3052 1.396 . S
C3054 O3008 1.300 . S
C3054 O3009 1.209 . S
C3054 C3027 1.486 . S
C3055 O3010 1.199 . S
C3055 O3011 1.297 . S
C3055 C3039 1.476 . S
C1331 C21 1.406 . S
C1405 C42 2.136 . S
C82 C1497 2.002 . S
C1565 C135 2.926 . S
C175 C1571 1.945 . S
C221 C1319 3.665 . S
C255 C1393 2.388 . S
C1491 C301 2.538 . S
C1627 C15 1.198 . S
C55 C1701 0.849 . S
C101 C1787 1.837 . S
C1849 C141 3.120 . S
C162 C1923 2.113 . S
C2009 C215 2.468 . S
C261 C2059 1.805 . S
C2157 C282 2.188 . S
C2 C1837 1.020 . S
C181 C2015 2.540 . S
C2071 C202 2.171 . S
C242 C2163 2.501 . S
C1911 C295 2.999 . S
C1689 C95 3.044 . S
C122 C1793 2.851 . S
C1615 C61 2.540 . S
C2207 C341 4.092 . S
C362 C2281 1.950 . S
C402 C2385 2.540 . S
C2429 C455 2.992 . S
C495 C2441 2.659 . S
C541 C2219 2.920 . S
C575 C2293 3.037 . S
C621 C2379 1.954 . S
C1935 C335 3.011 . S
C375 C2515 2.410 . S
C2089 C421 2.290 . S
C461 C2607 2.237 . S
C482 C1639 1.967 . S
C2651 C535 1.507 . S
C581 C1775 2.467 . S
C2749 C602 2.565 . S
C322 C2601 2.767 . S
C2663 C501 3.682 . S
C522 C1763 1.895 . S
C2755 C562 3.124 . S
C615 C1645 3.378 . S
C415 C2503 2.352 . S
C442 C2083 2.206 . S
C381 C1941 1.788 . S
C661 C2355 2.174 . S
C2459 C682 3.057 . S
C722 C2237 2.416 . S
C775 C2311 3.570 . S
C815 C2305 2.373 . S
C861 C2367 1.783 . S
C2453 C895 2.665 . S
C941 C2231 2.510 . S
C2823 C655 1.451 . S
C695 C1997 1.857 . S
C2903 C741 1.956 . S
C781 C2145 2.448 . S
C802 C2977 2.532 . S
C855 C1713 1.538 . S
C3033 C901 2.409 . S
C922 C1861 3.328 . S
C2133 C642 1.910 . S
C1719 C821 3.422 . S
C842 C3021 2.709 . S
C882 C1867 2.240 . S
C2971 C935 3.237 . S
C1985 C735 1.987 . S
C2897 C762 2.579 . S
C2829 C701 2.583 . S
C981 C1467 2.590 . S
C1002 C1553 2.057 . S
C1343 C1042 2.619 . S
C1417 C1095 2.509 . S
C1423 C1135 2.686 . S
C1479 C1181 2.992 . S
C1541 C1215 1.901 . S
C1261 C1349 2.449 . S
C975 C2947 2.042 . S
C2681 C1015 2.589 . S
C3045 C1061 3.444 . S
C2737 C1101 2.108 . S
C1122 C2811 2.019 . S
C2527 C1175 2.751 . S
C2873 C1221 1.955 . S
C1242 C2577 1.912 . S
C2725 C962 2.586 . S
C2533 C1141 3.393 . S
C2885 C1162 3.261 . S
C1202 C2589 2.226 . S
C1255 C2799 1.885 . S
C1055 C2675 3.178 . S
C1082 C3051 3.321 . S
C2959 C1021 2.703 . S
