# Generated by pormake.
# Topology ssb, (4,4)-cn, num edge types: 1
# Building blocks:
#     Node 0, Type 0, BuildingBlock: NAWXER_clean_linker_0, # of connection points: 4
#     Node 1, Type 0, BuildingBlock: NAWXER_clean_linker_0, # of connection points: 4
#     Node 2, Type 0, BuildingBlock: NAWXER_clean_linker_0, # of connection points: 4
#     Node 3, Type 0, BuildingBlock: NAWXER_clean_linker_0, # of connection points: 4
#     Node 4, Type 0, BuildingBlock: NAWXER_clean_linker_0, # of connection points: 4
#     Node 5, Type 0, BuildingBlock: NAWXER_clean_linker_0, # of connection points: 4
#     Node 6, Type 0, BuildingBlock: NAWXER_clean_linker_0, # of connection points: 4
#     Node 7, Type 0, BuildingBlock: NAWXER_clean_linker_0, # of connection points: 4
#     Node 8, Type 1, BuildingBlock: NAWXER_clean_sbu_0, # of connection points: 4
#     Node 9, Type 1, BuildingBlock: NAWXER_clean_sbu_0, # of connection points: 4
#     Node 10, Type 1, BuildingBlock: NAWXER_clean_sbu_0, # of connection points: 4
#     Node 11, Type 1, BuildingBlock: NAWXER_clean_sbu_0, # of connection points: 4
#     Node 12, Type 1, BuildingBlock: NAWXER_clean_sbu_0, # of connection points: 4
#     Node 13, Type 1, BuildingBlock: NAWXER_clean_sbu_0, # of connection points: 4
#     Node 14, Type 1, BuildingBlock: NAWXER_clean_sbu_0, # of connection points: 4
#     Node 15, Type 1, BuildingBlock: NAWXER_clean_sbu_0, # of connection points: 4
#     Edge 16, Type (0, 1), BuildingBlock: CIFDUS_clean_linker_0, # of connection points: 2
#     Edge 17, Type (0, 1), BuildingBlock: CIFDUS_clean_linker_0, # of connection points: 2
#     Edge 18, Type (0, 1), BuildingBlock: CIFDUS_clean_linker_0, # of connection points: 2
#     Edge 19, Type (0, 1), BuildingBlock: CIFDUS_clean_linker_0, # of connection points: 2
#     Edge 20, Type (0, 1), BuildingBlock: CIFDUS_clean_linker_0, # of connection points: 2
#     Edge 21, Type (0, 1), BuildingBlock: CIFDUS_clean_linker_0, # of connection points: 2
#     Edge 22, Type (0, 1), BuildingBlock: CIFDUS_clean_linker_0, # of connection points: 2
#     Edge 23, Type (0, 1), BuildingBlock: CIFDUS_clean_linker_0, # of connection points: 2
#     Edge 24, Type (0, 1), BuildingBlock: CIFDUS_clean_linker_0, # of connection points: 2
#     Edge 25, Type (0, 1), BuildingBlock: CIFDUS_clean_linker_0, # of connection points: 2
#     Edge 26, Type (0, 1), BuildingBlock: CIFDUS_clean_linker_0, # of connection points: 2
#     Edge 27, Type (0, 1), BuildingBlock: CIFDUS_clean_linker_0, # of connection points: 2
#     Edge 28, Type (0, 1), BuildingBlock: CIFDUS_clean_linker_0, # of connection points: 2
#     Edge 29, Type (0, 1), BuildingBlock: CIFDUS_clean_linker_0, # of connection points: 2
#     Edge 30, Type (0, 1), BuildingBlock: CIFDUS_clean_linker_0, # of connection points: 2
#     Edge 31, Type (0, 1), BuildingBlock: CIFDUS_clean_linker_0, # of connection points: 2
#     Edge 32, Type (0, 1), BuildingBlock: CIFDUS_clean_linker_0, # of connection points: 2
#     Edge 33, Type (0, 1), BuildingBlock: CIFDUS_clean_linker_0, # of connection points: 2
#     Edge 34, Type (0, 1), BuildingBlock: CIFDUS_clean_linker_0, # of connection points: 2
#     Edge 35, Type (0, 1), BuildingBlock: CIFDUS_clean_linker_0, # of connection points: 2
#     Edge 36, Type (0, 1), BuildingBlock: CIFDUS_clean_linker_0, # of connection points: 2
#     Edge 37, Type (0, 1), BuildingBlock: CIFDUS_clean_linker_0, # of connection points: 2
#     Edge 38, Type (0, 1), BuildingBlock: CIFDUS_clean_linker_0, # of connection points: 2
#     Edge 39, Type (0, 1), BuildingBlock: CIFDUS_clean_linker_0, # of connection points: 2
#     Edge 40, Type (0, 1), BuildingBlock: CIFDUS_clean_linker_0, # of connection points: 2
#     Edge 41, Type (0, 1), BuildingBlock: CIFDUS_clean_linker_0, # of connection points: 2
#     Edge 42, Type (0, 1), BuildingBlock: CIFDUS_clean_linker_0, # of connection points: 2
#     Edge 43, Type (0, 1), BuildingBlock: CIFDUS_clean_linker_0, # of connection points: 2
#     Edge 44, Type (0, 1), BuildingBlock: CIFDUS_clean_linker_0, # of connection points: 2
#     Edge 45, Type (0, 1), BuildingBlock: CIFDUS_clean_linker_0, # of connection points: 2
#     Edge 46, Type (0, 1), BuildingBlock: CIFDUS_clean_linker_0, # of connection points: 2
#     Edge 47, Type (0, 1), BuildingBlock: CIFDUS_clean_linker_0, # of connection points: 2
# Relax obj value: 0.000
# Max RMSD: 0.001
# Mean RMSD: 0.001
data_MOF--net-ssb--node1-NAWXER_clean_sbu_0--node2-NAWXER_clean_linker_0--edge1-CIFDUS_clean_linker_0
_symmetry_space_group_name_H-M    P1
_symmetry_Int_Tables_number       1
_symmetry_cell_setting            triclinic
loop_
_symmetry_equiv_pos_as_xyz
'x, y, z'
_cell_length_a     48.193131
_cell_length_b     48.270855
_cell_length_c     42.139021
_cell_angle_alpha  89.921548
_cell_angle_beta   90.012515
_cell_angle_gamma 89.986676
loop_
_atom_site_label
_atom_site_type_symbol
_atom_site_fract_x
_atom_site_fract_y
_atom_site_fract_z
_atom_type_partial_charge
C0 C 0.31607 0.23058 0.14456 0.0
C1 C 0.34317 0.22584 0.15571 0.0
C2 C 0.29466 0.23697 0.16574 0.0
C3 C 0.29997 0.23883 0.19846 0.0
C4 C 0.34822 0.22697 0.18856 0.0
C5 C 0.32677 0.23317 0.20973 0.0
C6 C 0.27754 0.24575 0.22113 0.0
C7 C 0.29155 0.32208 0.16122 0.0
C8 C 0.26781 0.33246 0.14578 0.0
C9 C 0.28918 0.3015 0.18456 0.0
C10 C 0.26308 0.29031 0.1924 0.0
C11 C 0.24169 0.32184 0.15457 0.0
C12 C 0.2394 0.30103 0.17742 0.0
C13 C 0.2597 0.26882 0.21745 0.0
C14 C 0.18913 0.26607 0.33558 0.0
C15 C 0.16238 0.26532 0.32233 0.0
C16 C 0.21253 0.26294 0.31621 0.0
C17 C 0.20943 0.25926 0.28333 0.0
C18 C 0.15944 0.26263 0.28932 0.0
C19 C 0.18279 0.25998 0.26996 0.0
C20 C 0.23361 0.25398 0.26264 0.0
C21 C 0.22088 0.17869 0.32449 0.0
C22 C 0.24463 0.16979 0.3411 0.0
C23 C 0.223 0.19833 0.30011 0.0
C24 C 0.24879 0.21026 0.29245 0.0
C25 C 0.27054 0.18095 0.33233 0.0
C26 C 0.27254 0.20097 0.30849 0.0
C27 C 0.25181 0.23128 0.26681 0.0
H28 H 0.31155 0.23002 0.11939 0.0
H29 H 0.27398 0.24058 0.15655 0.0
H30 H 0.3688 0.22307 0.19789 0.0
H31 H 0.33124 0.23408 0.23491 0.0
H32 H 0.31201 0.3297 0.1552 0.0
H33 H 0.30776 0.29458 0.19662 0.0
H34 H 0.2228 0.32982 0.14407 0.0
H35 H 0.21895 0.29327 0.1834 0.0
H36 H 0.19186 0.26797 0.361 0.0
H37 H 0.23296 0.2628 0.32691 0.0
H38 H 0.13901 0.26209 0.27859 0.0
H39 H 0.18 0.25739 0.24462 0.0
H40 H 0.20054 0.1707 0.3304 0.0
H41 H 0.20444 0.20395 0.28718 0.0
H42 H 0.28949 0.17407 0.34366 0.0
H43 H 0.2928 0.20928 0.30263 0.0
N44 N 0.2731 0.22818 0.24589 0.0
N45 N 0.23824 0.27173 0.23816 0.0
C46 C 0.66345 0.29798 0.19834 0.0
C47 C 0.65386 0.27587 0.17964 0.0
C48 C 0.68499 0.29398 0.22002 0.0
C49 C 0.6979 0.26798 0.22289 0.0
C50 C 0.6658 0.24948 0.18394 0.0
C51 C 0.68761 0.24561 0.20532 0.0
C52 C 0.72223 0.26407 0.24391 0.0
C53 C 0.75071 0.31827 0.16462 0.0
C54 C 0.74954 0.34627 0.1734 0.0
C55 C 0.74962 0.29757 0.18771 0.0
C56 C 0.74777 0.30456 0.21995 0.0
C57 C 0.74782 0.35332 0.20566 0.0
C58 C 0.74734 0.33255 0.22888 0.0
C59 C 0.74497 0.28246 0.24394 0.0
C60 C 0.82597 0.22545 0.33326 0.0
C61 C 0.83581 0.24891 0.34957 0.0
C62 C 0.80397 0.2277 0.31173 0.0
C63 C 0.79058 0.25326 0.30686 0.0
C64 C 0.82332 0.27473 0.34318 0.0
C65 C 0.80094 0.27681 0.32228 0.0
C66 C 0.76645 0.25618 0.28512 0.0
C67 C 0.74085 0.19186 0.35746 0.0
C68 C 0.74219 0.16537 0.34383 0.0
C69 C 0.74113 0.21544 0.33816 0.0
C70 C 0.74235 0.21272 0.30503 0.0
C71 C 0.74294 0.16269 0.3107 0.0
C72 C 0.7426 0.18623 0.29141 0.0
C73 C 0.74397 0.2373 0.28437 0.0
H74 H 0.65479 0.31856 0.19574 0.0
H75 H 0.69177 0.31135 0.23426 0.0
H76 H 0.65841 0.23178 0.17063 0.0
H77 H 0.69688 0.22524 0.20756 0.0
H78 H 0.75216 0.31245 0.13985 0.0
H79 H 0.75004 0.27605 0.18043 0.0
H80 H 0.74717 0.37485 0.21284 0.0
H81 H 0.74585 0.33826 0.25367 0.0
H82 H 0.83495 0.2052 0.33735 0.0
H83 H 0.79756 0.20939 0.29893 0.0
H84 H 0.83083 0.2935 0.35426 0.0
H85 H 0.79151 0.29692 0.31842 0.0
H86 H 0.74034 0.19428 0.38301 0.0
H87 H 0.74072 0.23577 0.34901 0.0
H88 H 0.7439 0.14239 0.29981 0.0
H89 H 0.74344 0.1838 0.26587 0.0
N90 N 0.72276 0.24192 0.26379 0.0
N91 N 0.76607 0.27809 0.26474 0.0
C92 C 0.69501 0.76193 0.15894 0.0
C93 C 0.66881 0.7685 0.17149 0.0
C94 C 0.718 0.75879 0.17895 0.0
C95 C 0.71506 0.76123 0.21205 0.0
C96 C 0.66605 0.77191 0.20442 0.0
C97 C 0.6889 0.76824 0.22446 0.0
C98 C 0.73911 0.75818 0.234 0.0
C99 C 0.73624 0.67623 0.18229 0.0
C100 C 0.7598 0.67111 0.16343 0.0
C101 C 0.73598 0.69814 0.2039 0.0
C102 C 0.75923 0.7154 0.20696 0.0
C103 C 0.78311 0.68838 0.16676 0.0
C104 C 0.78287 0.71019 0.1885 0.0
C105 C 0.7599 0.73761 0.23095 0.0
C106 C 0.81985 0.74304 0.35508 0.0
C107 C 0.84742 0.73926 0.34509 0.0
C108 C 0.79895 0.74881 0.33303 0.0
C109 C 0.8052 0.75089 0.30055 0.0
C110 C 0.85361 0.74124 0.31256 0.0
C111 C 0.83264 0.74673 0.29048 0.0
C112 C 0.78293 0.75522 0.27684 0.0
C113 C 0.78725 0.83734 0.32788 0.0
C114 C 0.76324 0.84391 0.34531 0.0
C115 C 0.78745 0.81465 0.30726 0.0
C116 C 0.76364 0.79817 0.30371 0.0
C117 C 0.73975 0.82679 0.34229 0.0
C118 C 0.73987 0.80437 0.32145 0.0
C119 C 0.76252 0.77601 0.27962 0.0
H120 H 0.69779 0.75963 0.13357 0.0
H121 H 0.73807 0.75475 0.16839 0.0
H122 H 0.64607 0.77688 0.21473 0.0
H123 H 0.68602 0.77065 0.24981 0.0
H124 H 0.71815 0.663 0.18079 0.0
H125 H 0.71782 0.7013 0.21859 0.0
H126 H 0.80145 0.68523 0.15238 0.0
H127 H 0.80113 0.72313 0.19078 0.0
H128 H 0.8145 0.7418 0.38001 0.0
H129 H 0.77781 0.75117 0.34133 0.0
H130 H 0.87462 0.73818 0.30415 0.0
H131 H 0.83786 0.74782 0.2655 0.0
H132 H 0.80557 0.85025 0.32927 0.0
H133 H 0.80585 0.8106 0.29327 0.0
H134 H 0.72109 0.83084 0.35583 0.0
H135 H 0.72128 0.79191 0.31902 0.0
N136 N 0.74136 0.77654 0.25831 0.0
N137 N 0.78095 0.73701 0.25242 0.0
C138 C 0.32661 0.71561 0.18111 0.0
C139 C 0.33717 0.73965 0.16647 0.0
C140 C 0.30647 0.71753 0.20496 0.0
C141 C 0.29561 0.74344 0.21384 0.0
C142 C 0.32741 0.76559 0.17692 0.0
C143 C 0.30681 0.76743 0.20008 0.0
C144 C 0.27328 0.74623 0.23795 0.0
C145 C 0.23976 0.68966 0.16188 0.0
C146 C 0.23207 0.66326 0.17297 0.0
C147 C 0.24497 0.71123 0.18321 0.0
C148 C 0.24339 0.7066 0.21609 0.0
C149 C 0.22917 0.65903 0.20579 0.0
C150 C 0.23477 0.68049 0.22711 0.0
C151 C 0.24952 0.72892 0.23927 0.0
C152 C 0.17429 0.78569 0.33193 0.0
C153 C 0.1647 0.76258 0.34908 0.0
C154 C 0.19689 0.78316 0.31124 0.0
C155 C 0.21042 0.75755 0.3076 0.0
C156 C 0.1787 0.73716 0.34573 0.0
C157 C 0.20112 0.73463 0.32502 0.0
C158 C 0.23323 0.75391 0.28448 0.0
C159 C 0.26129 0.80984 0.36137 0.0
C160 C 0.26705 0.83693 0.3511 0.0
C161 C 0.25924 0.7882 0.33956 0.0
C162 C 0.26218 0.79333 0.3069 0.0
C163 C 0.27206 0.84172 0.31871 0.0
C164 C 0.26964 0.82006 0.29677 0.0
C165 C 0.25691 0.77112 0.28334 0.0
H166 H 0.33351 0.69523 0.1739 0.0
H167 H 0.29922 0.69868 0.21617 0.0
H168 H 0.33566 0.78468 0.16728 0.0
H169 H 0.29938 0.78773 0.20699 0.0
H170 H 0.24172 0.69362 0.13667 0.0
H171 H 0.25047 0.73145 0.17399 0.0
H172 H 0.22337 0.63889 0.21501 0.0
H173 H 0.23293 0.67652 0.25234 0.0
H174 H 0.1638 0.80547 0.3337 0.0
H175 H 0.20338 0.80103 0.29755 0.0
H176 H 0.17221 0.71906 0.35901 0.0
H177 H 0.21125 0.7147 0.32258 0.0
H178 H 0.25779 0.80552 0.38629 0.0
H179 H 0.25461 0.76757 0.34818 0.0
H180 H 0.2765 0.86244 0.31019 0.0
H181 H 0.27246 0.82444 0.27175 0.0
N182 N 0.27585 0.76675 0.25996 0.0
N183 N 0.23064 0.7334 0.26265 0.0
C184 C 0.17419 0.76121 0.68345 0.0
C185 C 0.17267 0.73623 0.66627 0.0
C186 C 0.19641 0.76645 0.70392 0.0
C187 C 0.21822 0.7473 0.70696 0.0
C188 C 0.19408 0.71667 0.67025 0.0
C189 C 0.21655 0.72216 0.69033 0.0
C190 C 0.24197 0.7525 0.72869 0.0
C191 C 0.24455 0.82246 0.65747 0.0
C192 C 0.24442 0.84925 0.67041 0.0
C193 C 0.24798 0.79931 0.67712 0.0
C194 C 0.2504 0.80249 0.71021 0.0
C195 C 0.24705 0.85247 0.70337 0.0
C196 C 0.24991 0.82933 0.72306 0.0
C197 C 0.2556 0.77844 0.73149 0.0
C198 C 0.34776 0.75282 0.82489 0.0
C199 C 0.34585 0.77607 0.84492 0.0
C200 C 0.32776 0.74798 0.80153 0.0
C201 C 0.30507 0.76599 0.79798 0.0
C202 C 0.32358 0.79456 0.84062 0.0
C203 C 0.30349 0.78962 0.81728 0.0
C204 C 0.28307 0.76049 0.77411 0.0
C205 C 0.27739 0.691 0.84509 0.0
C206 C 0.28476 0.66504 0.83254 0.0
C207 C 0.27287 0.71363 0.82506 0.0
C208 C 0.27571 0.71077 0.79208 0.0
C209 C 0.28785 0.66227 0.79953 0.0
C210 C 0.28308 0.6849 0.77945 0.0
C211 C 0.27004 0.73445 0.77071 0.0
H212 H 0.15839 0.77698 0.6809 0.0
H213 H 0.19647 0.78555 0.71736 0.0
H214 H 0.19344 0.69695 0.65807 0.0
H215 H 0.23276 0.70674 0.69273 0.0
H216 H 0.2431 0.81952 0.63204 0.0
H217 H 0.24939 0.77902 0.66632 0.0
H218 H 0.2471 0.87294 0.71388 0.0
H219 H 0.25203 0.83246 0.7484 0.0
H220 H 0.36445 0.73798 0.82763 0.0
H221 H 0.32996 0.73001 0.78637 0.0
H222 H 0.32168 0.81288 0.85524 0.0
H223 H 0.28639 0.80403 0.81472 0.0
H224 H 0.27492 0.69374 0.87044 0.0
H225 H 0.26677 0.73328 0.83531 0.0
H226 H 0.29318 0.64242 0.78922 0.0
H227 H 0.28517 0.68223 0.75403 0.0
N228 N 0.25005 0.73149 0.7482 0.0
N229 N 0.27534 0.78139 0.75436 0.0
C230 C 0.32776 0.28905 0.83284 0.0
C231 C 0.33826 0.2648 0.84702 0.0
C232 C 0.30724 0.28749 0.80941 0.0
C233 C 0.29614 0.26172 0.8004 0.0
C234 C 0.32805 0.23901 0.83668 0.0
C235 C 0.3072 0.23752 0.81379 0.0
C236 C 0.27371 0.25942 0.77639 0.0
C237 C 0.2425 0.31043 0.85653 0.0
C238 C 0.23716 0.33813 0.84826 0.0
C239 C 0.24543 0.29023 0.83307 0.0
C240 C 0.24385 0.29748 0.80081 0.0
C241 C 0.23345 0.34499 0.81612 0.0
C242 C 0.23676 0.32479 0.79257 0.0
C243 C 0.25003 0.27682 0.77572 0.0
C244 C 0.17613 0.22457 0.67843 0.0
C245 C 0.16767 0.24818 0.66138 0.0
C246 C 0.19814 0.22616 0.70001 0.0
C247 C 0.21216 0.25134 0.70478 0.0
C248 C 0.18215 0.2732 0.66589 0.0
C249 C 0.20397 0.27479 0.68758 0.0
C250 C 0.23427 0.25387 0.7289 0.0
C251 C 0.26875 0.19876 0.65196 0.0
C252 C 0.27207 0.17122 0.66219 0.0
C253 C 0.26388 0.21992 0.67394 0.0
C254 C 0.26246 0.2139 0.70653 0.0
C255 C 0.27094 0.16534 0.69483 0.0
C256 C 0.26649 0.18654 0.71681 0.0
C257 C 0.25743 0.23602 0.73012 0.0
H258 H 0.33506 0.30928 0.84009 0.0
H259 H 0.29994 0.30648 0.79854 0.0
H260 H 0.33621 0.21981 0.84616 0.0
H261 H 0.29948 0.21735 0.8068 0.0
H262 H 0.24504 0.30453 0.88117 0.0
H263 H 0.24981 0.2691 0.84013 0.0
H264 H 0.22936 0.3662 0.80912 0.0
H265 H 0.23496 0.33077 0.76786 0.0
H266 H 0.1652 0.2051 0.67586 0.0
H267 H 0.20371 0.20791 0.71357 0.0
H268 H 0.17654 0.29166 0.65275 0.0
H269 H 0.2145 0.29441 0.69093 0.0
H270 H 0.2694 0.20383 0.62692 0.0
H271 H 0.26128 0.24097 0.66553 0.0
H272 H 0.27364 0.14432 0.70335 0.0
H273 H 0.26572 0.18151 0.74186 0.0
N274 N 0.27621 0.23947 0.7538 0.0
N275 N 0.23146 0.27362 0.7517 0.0
C276 C 0.84471 0.24358 0.67453 0.0
C277 C 0.84876 0.26973 0.66037 0.0
C278 C 0.82444 0.23976 0.69786 0.0
C279 C 0.80706 0.26175 0.70688 0.0
C280 C 0.83169 0.29184 0.66996 0.0
C281 C 0.81109 0.28786 0.69283 0.0
C282 C 0.78582 0.25856 0.73218 0.0
C283 C 0.76005 0.19705 0.65762 0.0
C284 C 0.76513 0.16959 0.66705 0.0
C285 C 0.76129 0.21851 0.67973 0.0
C286 C 0.7674 0.2128 0.71163 0.0
C287 C 0.77138 0.16392 0.69896 0.0
C288 C 0.77215 0.18537 0.72119 0.0
C289 C 0.7681 0.23535 0.73513 0.0
C290 C 0.68131 0.27691 0.82443 0.0
C291 C 0.67615 0.25352 0.8435 0.0
C292 C 0.70419 0.27773 0.80417 0.0
C293 C 0.72264 0.25527 0.80257 0.0
C294 C 0.6942 0.23069 0.84125 0.0
C295 C 0.71716 0.23152 0.82083 0.0
C296 C 0.74638 0.25592 0.7802 0.0
C297 C 0.76833 0.32144 0.85285 0.0
C298 C 0.76635 0.34844 0.84057 0.0
C299 C 0.76704 0.29859 0.83252 0.0
C300 C 0.76414 0.30253 0.79966 0.0
C301 C 0.76334 0.35228 0.80774 0.0
C302 C 0.76259 0.32951 0.78742 0.0
C303 C 0.76446 0.27885 0.77759 0.0
H304 H 0.85716 0.22593 0.66763 0.0
H305 H 0.82276 0.21967 0.70911 0.0
H306 H 0.83447 0.31241 0.66021 0.0
H307 H 0.7983 0.30533 0.69965 0.0
H308 H 0.75521 0.20188 0.63312 0.0
H309 H 0.75723 0.23955 0.67202 0.0
H310 H 0.77509 0.14285 0.70678 0.0
H311 H 0.7767 0.18061 0.74578 0.0
H312 H 0.66745 0.29456 0.82486 0.0
H313 H 0.70719 0.29583 0.78936 0.0
H314 H 0.69089 0.2124 0.85567 0.0
H315 H 0.73083 0.21374 0.81956 0.0
H316 H 0.77052 0.31806 0.87814 0.0
H317 H 0.76874 0.27791 0.84235 0.0
H318 H 0.76187 0.37294 0.79779 0.0
H319 H 0.76058 0.33296 0.7621 0.0
N320 N 0.78324 0.27934 0.75363 0.0
N321 N 0.74909 0.23488 0.759 0.0
C322 C 0.8102 0.76121 0.6525 0.0
C323 C 0.83632 0.75496 0.6655 0.0
C324 C 0.78616 0.75852 0.67094 0.0
C325 C 0.78799 0.75043 0.70296 0.0
C326 C 0.83801 0.74622 0.69722 0.0
C327 C 0.81412 0.74401 0.71575 0.0
C328 C 0.76312 0.74801 0.72352 0.0
C329 C 0.76691 0.83624 0.68867 0.0
C330 C 0.74215 0.84638 0.6751 0.0
C331 C 0.7671 0.81152 0.70597 0.0
C332 C 0.74287 0.79553 0.70872 0.0
C333 C 0.7176 0.83108 0.67969 0.0
C334 C 0.71804 0.8059 0.69602 0.0
C335 C 0.74246 0.76885 0.72625 0.0
C336 C 0.68623 0.73948 0.84634 0.0
C337 C 0.65788 0.73877 0.8388 0.0
C338 C 0.70608 0.7404 0.82229 0.0
C339 C 0.69786 0.74095 0.79035 0.0
C340 C 0.64963 0.73924 0.80683 0.0
C341 C 0.66954 0.74072 0.78272 0.0
C342 C 0.71907 0.7416 0.76517 0.0
C343 C 0.71104 0.65718 0.80451 0.0
C344 C 0.73446 0.64826 0.82161 0.0
C345 C 0.71283 0.67975 0.78384 0.0
C346 C 0.73786 0.69441 0.78045 0.0
C347 C 0.75997 0.66177 0.81635 0.0
C348 C 0.76163 0.68464 0.79604 0.0
C349 C 0.73907 0.72049 0.76183 0.0
H350 H 0.80835 0.76752 0.62791 0.0
H351 H 0.76619 0.76279 0.66021 0.0
H352 H 0.8579 0.74124 0.70778 0.0
H353 H 0.8161 0.73753 0.74028 0.0
H354 H 0.78637 0.84709 0.68568 0.0
H355 H 0.78629 0.80489 0.71694 0.0
H356 H 0.69787 0.83846 0.67081 0.0
H357 H 0.69885 0.79442 0.69859 0.0
H358 H 0.693 0.73918 0.87086 0.0
H359 H 0.72787 0.74077 0.82859 0.0
H360 H 0.62782 0.73899 0.80059 0.0
H361 H 0.6629 0.74121 0.75816 0.0
H362 H 0.69105 0.64738 0.80782 0.0
H363 H 0.6944 0.68618 0.77111 0.0
H364 H 0.77866 0.65498 0.82832 0.0
H365 H 0.78129 0.69527 0.79338 0.0
N366 N 0.76055 0.72468 0.7415 0.0
N367 N 0.72128 0.76473 0.74706 0.0
C368 C 0.97597 0.2667 0.53925 0.0
C369 C 0.04295 0.27445 0.45254 0.0
O370 O 0.98438 0.28906 0.52643 0.0
Zn371 Zn 0.00867 0.2718 0.49563 0.0
O372 O 0.98445 0.24321 0.52885 0.0
Zn373 Zn 0.01125 0.22739 0.49227 0.0
O374 O 0.03884 0.20737 0.51718 0.0
O375 O 0.03888 0.25256 0.52542 0.0
O376 O 0.03672 0.24941 0.45965 0.0
O377 O 0.0316 0.29429 0.46753 0.0
O378 O 0.97885 0.25311 0.46522 0.0
O379 O 0.98568 0.20786 0.46425 0.0
C380 C 0.04852 0.22841 0.53163 0.0
C381 C 0.97201 0.22901 0.45525 0.0
C382 C 0.77459 0.04064 0.5496 0.0
C383 C 0.77566 0.96908 0.46819 0.0
O384 O 0.7957 0.02875 0.53772 0.0
Zn385 Zn 0.77565 0.00473 0.50919 0.0
O386 O 0.75019 0.03352 0.5406 0.0
Zn387 Zn 0.7316 0.00494 0.50795 0.0
O388 O 0.71063 0.98013 0.53466 0.0
O389 O 0.75593 0.97656 0.54147 0.0
O390 O 0.75107 0.97687 0.47561 0.0
O391 O 0.7964 0.97994 0.48203 0.0
O392 O 0.7571 0.03367 0.47626 0.0
O393 O 0.71157 0.02962 0.48047 0.0
C394 C 0.73119 0.96906 0.54862 0.0
C395 C 0.73258 0.04116 0.46794 0.0
C396 C 0.9659 0.78044 0.55108 0.0
C397 C 0.04362 0.78358 0.47592 0.0
O398 O 0.97731 0.80223 0.54011 0.0
Zn399 Zn 0.00534 0.78371 0.51425 0.0
O400 O 0.97488 0.75661 0.54252 0.0
Zn401 Zn 0.00533 0.73903 0.51207 0.0
O402 O 0.02927 0.71835 0.54087 0.0
O403 O 0.03073 0.76359 0.54888 0.0
O404 O 0.03495 0.75919 0.48263 0.0
O405 O 0.03279 0.80448 0.48957 0.0
O406 O 0.98053 0.76598 0.47745 0.0
O407 O 0.98202 0.72028 0.48095 0.0
C408 C 0.03839 0.73902 0.55636 0.0
C409 C 0.97317 0.74209 0.46727 0.0
C410 C 0.26494 0.0419 0.54488 0.0
C411 C 0.27238 0.97082 0.46232 0.0
O412 O 0.28728 0.03322 0.5322 0.0
Zn413 Zn 0.26997 0.00766 0.50262 0.0
O414 O 0.24143 0.0328 0.53512 0.0
Zn415 Zn 0.22557 0.00462 0.50009 0.0
O416 O 0.20566 0.9782 0.52627 0.0
O417 O 0.25105 0.97795 0.53414 0.0
O418 O 0.24743 0.97695 0.46998 0.0
O419 O 0.29241 0.98415 0.47471 0.0
O420 O 0.25091 0.03602 0.47071 0.0
O421 O 0.20577 0.02852 0.47026 0.0
C422 C 0.22679 0.9686 0.54073 0.0
C423 C 0.22667 0.04206 0.46035 0.0
C424 C 0.46413 0.72058 0.04669 0.0
C425 C 0.5366 0.72107 0.9656 0.0
O426 O 0.4732 0.74487 0.04026 0.0
Zn427 Zn 0.50396 0.76374 0.01138 0.0
O428 O 0.4749 0.6996 0.03331 0.0
Zn429 Zn 0.50107 0.71955 0.00642 0.0
O430 O 0.53231 0.73345 0.03862 0.0
O431 O 0.53046 0.77901 0.04189 0.0
O432 O 0.52356 0.69986 0.97569 0.0
O433 O 0.53109 0.74508 0.97701 0.0
O434 O 0.48141 0.78783 0.98461 0.0
O435 O 0.4755 0.74319 0.97477 0.0
C436 C 0.54164 0.7562 0.05005 0.0
C437 C 0.46988 0.7686 0.96875 0.0
C438 C 0.24174 0.54142 0.04482 0.0
C439 C 0.23099 0.46863 0.96422 0.0
O440 O 0.26443 0.53351 0.03188 0.0
Zn441 Zn 0.27908 0.50448 0.99784 0.0
O442 O 0.21908 0.52951 0.03736 0.0
Zn443 Zn 0.23458 0.50474 0.005 0.0
O444 O 0.25688 0.47487 0.03219 0.0
O445 O 0.30189 0.47956 0.02358 0.0
O446 O 0.21126 0.48083 0.97867 0.0
O447 O 0.25615 0.47586 0.96954 0.0
O448 O 0.29515 0.52929 0.96592 0.0
O449 O 0.2498 0.53378 0.97122 0.0
C450 C 0.28192 0.46718 0.03735 0.0
C451 C 0.27264 0.54147 0.95841 0.0
C452 C 0.54246 0.23533 0.95454 0.0
C453 C 0.47349 0.23318 0.0402 0.0
O454 O 0.53576 0.25922 0.96534 0.0
Zn455 Zn 0.50808 0.27732 0.99892 0.0
O456 O 0.52986 0.2139 0.96471 0.0
Zn457 Zn 0.50651 0.23275 0.99593 0.0
O458 O 0.47678 0.25386 0.96772 0.0
O459 O 0.48278 0.29899 0.97267 0.0
O460 O 0.48239 0.21226 0.02492 0.0
O461 O 0.48159 0.25756 0.03256 0.0
O462 O 0.53392 0.29543 0.02734 0.0
O463 O 0.53734 0.24964 0.0271 0.0
C464 C 0.46966 0.27868 0.96074 0.0
C465 C 0.54567 0.27333 0.03696 0.0
C466 C 0.78102 0.54118 0.04879 0.0
C467 C 0.78408 0.46828 0.96845 0.0
O468 O 0.80275 0.52887 0.03898 0.0
Zn469 Zn 0.78412 0.50428 0.0093 0.0
O470 O 0.75719 0.53383 0.03829 0.0
Zn471 Zn 0.73937 0.50491 0.00608 0.0
O472 O 0.71796 0.48085 0.03417 0.0
O473 O 0.76325 0.47641 0.04012 0.0
O474 O 0.75957 0.47646 0.97547 0.0
O475 O 0.80493 0.47884 0.98248 0.0
O476 O 0.76707 0.53332 0.97624 0.0
O477 O 0.72133 0.52922 0.97558 0.0
C478 C 0.73854 0.46922 0.04763 0.0
C479 C 0.74335 0.54085 0.96553 0.0
H480 H 0.14705 0.30304 0.36732 0.0
H481 H 0.12225 0.2263 0.3234 0.0
H482 H 0.08219 0.22326 0.3587 0.0
H483 H 0.05555 0.24109 0.4035 0.0
H484 H 0.07849 0.3186 0.4469 0.0
H485 H 0.11769 0.323 0.41006 0.0
C486 C 0.13272 0.28578 0.36552 0.0
C487 C 0.13754 0.26485 0.34297 0.0
C488 C 0.10945 0.28437 0.38566 0.0
C489 C 0.11881 0.24268 0.34051 0.0
C490 C 0.09598 0.2409 0.36071 0.0
C491 C 0.06899 0.25908 0.40474 0.0
C492 C 0.06431 0.27938 0.428 0.0
C493 C 0.09127 0.26146 0.38354 0.0
C494 C 0.08165 0.30275 0.42909 0.0
C495 C 0.10415 0.30516 0.40819 0.0
H496 H 0.7037 0.14664 0.38544 0.0
H497 H 0.78463 0.1288 0.34719 0.0
H498 H 0.78872 0.08829 0.38196 0.0
H499 H 0.76968 0.05878 0.4241 0.0
H500 H 0.68761 0.07496 0.46051 0.0
H501 H 0.68332 0.11513 0.42539 0.0
C502 C 0.72213 0.13375 0.38482 0.0
C503 C 0.74393 0.14056 0.36415 0.0
C504 C 0.72406 0.11026 0.4044 0.0
C505 C 0.76766 0.12375 0.36305 0.0
C506 C 0.76999 0.10069 0.38289 0.0
C507 C 0.75082 0.07104 0.42425 0.0
C508 C 0.72907 0.06405 0.44499 0.0
C509 C 0.74839 0.09385 0.40378 0.0
C510 C 0.70461 0.0799 0.44467 0.0
C511 C 0.7022 0.10293 0.42472 0.0
H512 H 0.8976 0.76426 0.34862 0.0
H513 H 0.84704 0.70241 0.39452 0.0
H514 H 0.88297 0.69541 0.43487 0.0
H515 H 0.9278 0.70914 0.45899 0.0
H516 H 0.97633 0.7733 0.41441 0.0
H517 H 0.94261 0.77671 0.37133 0.0
C518 C 0.89463 0.74897 0.3672 0.0
C519 C 0.86973 0.7339 0.36862 0.0
C520 C 0.91512 0.74542 0.39053 0.0
C521 C 0.86596 0.71446 0.39313 0.0
C522 C 0.88653 0.71037 0.41611 0.0
C523 C 0.93113 0.72343 0.43947 0.0
C524 C 0.95448 0.74084 0.43964 0.0
C525 C 0.91107 0.726 0.41531 0.0
C526 C 0.95844 0.7597 0.41465 0.0
C527 C 0.93915 0.76173 0.3901 0.0
H528 H 0.30474 0.87848 0.36178 0.0
H529 H 0.22462 0.84779 0.39096 0.0
H530 H 0.21952 0.88639 0.42772 0.0
H531 H 0.23719 0.92884 0.45107 0.0
H532 H 0.31794 0.95972 0.42476 0.0
H533 H 0.32358 0.92101 0.38746 0.0
C534 C 0.28624 0.88036 0.37626 0.0
C535 C 0.26509 0.86032 0.37377 0.0
C536 C 0.28357 0.90256 0.39777 0.0
C537 C 0.24127 0.86279 0.39274 0.0
C538 C 0.23828 0.88491 0.41365 0.0
C539 C 0.25605 0.92723 0.43713 0.0
C540 C 0.277 0.9473 0.4404 0.0
C541 C 0.25922 0.9049 0.41627 0.0
C542 C 0.30149 0.94456 0.4226 0.0
C543 C 0.30467 0.92247 0.40125 0.0
H544 H 0.11832 0.75163 0.6729 0.0
H545 H 0.17374 0.70873 0.60912 0.0
H546 H 0.13587 0.7021 0.57157 0.0
H547 H 0.08784 0.71222 0.55441 0.0
H548 H 0.03454 0.75994 0.61551 0.0
H549 H 0.07064 0.76115 0.65633 0.0
C550 C 0.12231 0.74103 0.65071 0.0
C551 C 0.1491 0.73089 0.64401 0.0
C552 C 0.10067 0.73814 0.62862 0.0
C553 C 0.15339 0.71652 0.61534 0.0
C554 C 0.13174 0.71288 0.59362 0.0
C555 C 0.08406 0.72231 0.57699 0.0
C556 C 0.05858 0.73566 0.5823 0.0
C557 C 0.10539 0.72398 0.59976 0.0
C558 C 0.05399 0.74934 0.61119 0.0
C559 C 0.07465 0.75015 0.6344 0.0
H560 H 0.24336 0.12321 0.65891 0.0
H561 H 0.309 0.16872 0.61301 0.0
H562 H 0.31438 0.13156 0.57387 0.0
H563 H 0.29902 0.08664 0.55155 0.0
H564 H 0.23097 0.04333 0.59577 0.0
H565 H 0.22817 0.07876 0.63695 0.0
C566 C 0.25902 0.12482 0.6405 0.0
C567 C 0.27584 0.14854 0.63886 0.0
C568 C 0.26158 0.1037 0.61782 0.0
C569 C 0.29573 0.15066 0.6146 0.0
C570 C 0.29887 0.1294 0.59232 0.0
C571 C 0.28388 0.08488 0.57048 0.0
C572 C 0.26533 0.0624 0.57082 0.0
C573 C 0.28176 0.10587 0.59355 0.0
C574 C 0.24543 0.06051 0.59507 0.0
C575 C 0.24379 0.08076 0.61858 0.0
H576 H 0.89999 0.24564 0.65788 0.0
H577 H 0.84748 0.3036 0.6078 0.0
H578 H 0.8835 0.31026 0.56792 0.0
H579 H 0.9291 0.29754 0.54531 0.0
H580 H 0.97881 0.23572 0.59247 0.0
H581 H 0.94464 0.2324 0.63516 0.0
C582 C 0.89614 0.25947 0.63807 0.0
C583 C 0.87086 0.274 0.63603 0.0
C584 C 0.91655 0.26253 0.6146 0.0
C585 C 0.8668 0.29238 0.61045 0.0
C586 C 0.88735 0.29609 0.58741 0.0
C587 C 0.9325 0.28369 0.56522 0.0
C588 C 0.95641 0.26707 0.56605 0.0
C589 C 0.91223 0.28111 0.58908 0.0
C590 C 0.9605 0.24874 0.59151 0.0
C591 C 0.94097 0.24679 0.61584 0.0
H592 H 0.70856 0.85963 0.6247 0.0
H593 H 0.7753 0.89255 0.68204 0.0
H594 H 0.7776 0.9332 0.64808 0.0
H595 H 0.76179 0.95887 0.601 0.0
H596 H 0.69185 0.92865 0.54748 0.0
H597 H 0.68894 0.88792 0.58204 0.0
C598 C 0.72321 0.87586 0.6305 0.0
C599 C 0.74203 0.87244 0.65587 0.0
C600 C 0.72375 0.89984 0.61163 0.0
C601 C 0.76111 0.89385 0.6622 0.0
C602 C 0.76227 0.9174 0.64296 0.0
C603 C 0.74575 0.94346 0.59718 0.0
C604 C 0.72719 0.94651 0.57171 0.0
C605 C 0.74393 0.92043 0.6174 0.0
C606 C 0.70627 0.9267 0.56708 0.0
C607 C 0.70474 0.90337 0.58668 0.0
H608 H 0.85523 0.7982 0.62962 0.0
H609 H 0.87443 0.71439 0.65765 0.0
H610 H 0.91666 0.71547 0.62572 0.0
H611 H 0.94753 0.73962 0.58931 0.0
H612 H 0.93002 0.82388 0.56153 0.0
H613 H 0.88788 0.82345 0.59424 0.0
C614 C 0.8687 0.78022 0.62856 0.0
C615 C 0.86176 0.7562 0.64581 0.0
C616 C 0.89324 0.78114 0.61043 0.0
C617 C 0.87946 0.73311 0.64466 0.0
C618 C 0.90356 0.73372 0.6264 0.0
C619 C 0.93458 0.75798 0.59042 0.0
C620 C 0.9418 0.78169 0.57283 0.0
C621 C 0.91059 0.75755 0.60917 0.0
C622 C 0.92496 0.80539 0.57491 0.0
C623 C 0.90079 0.80508 0.59346 0.0
H624 H 0.20607 0.86202 0.62507 0.0
H625 H 0.28122 0.89158 0.66902 0.0
H626 H 0.28183 0.93157 0.63343 0.0
H627 H 0.26202 0.95723 0.58878 0.0
H628 H 0.18577 0.92947 0.54574 0.0
H629 H 0.18431 0.88984 0.58219 0.0
C630 C 0.22247 0.87732 0.62678 0.0
C631 C 0.24364 0.8739 0.64946 0.0
C632 C 0.22245 0.90054 0.60651 0.0
C633 C 0.26467 0.89392 0.65181 0.0
C634 C 0.26507 0.91671 0.63143 0.0
C635 C 0.24499 0.94258 0.58746 0.0
C636 C 0.22415 0.94613 0.56446 0.0
C637 C 0.2442 0.92011 0.60857 0.0
C638 C 0.20202 0.92721 0.56331 0.0
C639 C 0.20127 0.90448 0.58402 0.0
H640 H 0.15244 0.20693 0.6201 0.0
H641 H 0.12734 0.28727 0.65491 0.0
H642 H 0.08825 0.28758 0.61846 0.0
H643 H 0.06193 0.26605 0.57603 0.0
H644 H 0.08504 0.18526 0.54125 0.0
H645 H 0.12384 0.18382 0.579 0.0
C646 C 0.13824 0.22435 0.61994 0.0
C647 C 0.14318 0.24726 0.63991 0.0
C648 C 0.11544 0.2243 0.59904 0.0
C649 C 0.12456 0.2697 0.63927 0.0
C650 C 0.10203 0.26982 0.6186 0.0
C651 C 0.0754 0.24805 0.57664 0.0
C652 C 0.0708 0.22592 0.55563 0.0
C653 C 0.09747 0.24742 0.5982 0.0
C654 C 0.08818 0.20259 0.55716 0.0
C655 C 0.11041 0.20182 0.57864 0.0
H656 H 0.80345 0.12987 0.65424 0.0
H657 H 0.72196 0.15869 0.62781 0.0
H658 H 0.71765 0.121 0.58946 0.0
H659 H 0.73691 0.08005 0.56364 0.0
H660 H 0.81929 0.05198 0.58766 0.0
H661 H 0.8235 0.08924 0.62682 0.0
C662 C 0.78478 0.12773 0.64008 0.0
C663 C 0.763 0.14684 0.64377 0.0
C664 C 0.78264 0.10626 0.61774 0.0
C665 C 0.739 0.14423 0.62515 0.0
C666 C 0.73651 0.12268 0.60334 0.0
C667 C 0.75577 0.08199 0.57752 0.0
C668 C 0.77768 0.06318 0.57298 0.0
C669 C 0.75817 0.1036 0.59948 0.0
C670 C 0.80214 0.06623 0.59076 0.0
C671 C 0.80453 0.08747 0.61316 0.0
H672 H 0.88105 0.21393 0.34902 0.0
H673 H 0.84213 0.27849 0.40445 0.0
H674 H 0.88063 0.27767 0.44154 0.0
H675 H 0.92586 0.25988 0.4577 0.0
H676 H 0.9636 0.19276 0.406 0.0
H677 H 0.92451 0.19269 0.36852 0.0
C678 C 0.88064 0.22752 0.36945 0.0
C679 C 0.85876 0.24671 0.37328 0.0
C680 C 0.90259 0.2264 0.39148 0.0
C681 C 0.85898 0.26419 0.40001 0.0
C682 C 0.8809 0.26355 0.42156 0.0
C683 C 0.92546 0.24513 0.43828 0.0
C684 C 0.94762 0.22657 0.43428 0.0
C685 C 0.90292 0.24503 0.4173 0.0
C686 C 0.94669 0.20724 0.40946 0.0
C687 C 0.92445 0.20732 0.388 0.0
H688 H 0.80417 0.86522 0.3833 0.0
H689 H 0.71987 0.8797 0.35253 0.0
H690 H 0.71679 0.91988 0.38709 0.0
H691 H 0.73728 0.9502 0.42688 0.0
H692 H 0.82197 0.93751 0.45681 0.0
H693 H 0.82587 0.89778 0.42098 0.0
C694 C 0.78524 0.87734 0.38384 0.0
C695 C 0.76215 0.86907 0.36564 0.0
C696 C 0.78369 0.90083 0.40346 0.0
C697 C 0.73773 0.88503 0.36687 0.0
C698 C 0.736 0.90821 0.38642 0.0
C699 C 0.75667 0.93884 0.42551 0.0
C700 C 0.77923 0.94667 0.44465 0.0
C701 C 0.75873 0.91612 0.40502 0.0
C702 C 0.80429 0.93192 0.44229 0.0
C703 C 0.80648 0.90913 0.42193 0.0
H704 H 0.14918 0.80432 0.38974 0.0
H705 H 0.12307 0.72483 0.35341 0.0
H706 H 0.08309 0.72523 0.38851 0.0
H707 H 0.05659 0.74675 0.43071 0.0
H708 H 0.08068 0.82655 0.4674 0.0
H709 H 0.12008 0.82777 0.43037 0.0
C710 C 0.13456 0.78726 0.38928 0.0
C711 C 0.13949 0.76431 0.36935 0.0
C712 C 0.11127 0.78768 0.4095 0.0
C713 C 0.12029 0.74239 0.36908 0.0
C714 C 0.09726 0.74266 0.38898 0.0
C715 C 0.0704 0.7645 0.43064 0.0
C716 C 0.06595 0.78637 0.45203 0.0
C717 C 0.0928 0.76496 0.40956 0.0
C718 C 0.08371 0.80943 0.45118 0.0
C719 C 0.10628 0.81005 0.43012 0.0
H720 H 0.20889 0.12545 0.34663 0.0
H721 H 0.27571 0.16732 0.39545 0.0
H722 H 0.27567 0.13174 0.43622 0.0
H723 H 0.25807 0.08798 0.4573 0.0
H724 H 0.18893 0.04755 0.41194 0.0
H725 H 0.18792 0.08385 0.37104 0.0
C726 C 0.22314 0.12717 0.36641 0.0
C727 C 0.24271 0.14894 0.3673 0.0
C728 C 0.22256 0.10691 0.39051 0.0
C729 C 0.26104 0.15045 0.39328 0.0
C730 C 0.26088 0.13021 0.41691 0.0
C731 C 0.24267 0.08719 0.43852 0.0
C732 C 0.22381 0.06502 0.43734 0.0
C733 C 0.24203 0.10818 0.41552 0.0
C734 C 0.20366 0.06446 0.41328 0.0
C735 C 0.20319 0.08512 0.38986 0.0
H736 H 0.617 0.70101 0.8492 0.0
H737 H 0.65265 0.77638 0.88582 0.0
H738 H 0.61846 0.77713 0.92863 0.0
H739 H 0.57835 0.75685 0.95506 0.0
H740 H 0.54321 0.68038 0.92072 0.0
H741 H 0.57751 0.67927 0.87769 0.0
C742 C 0.61709 0.71755 0.8666 0.0
C743 C 0.63705 0.73872 0.86445 0.0
C744 C 0.59766 0.71755 0.89149 0.0
C745 C 0.63742 0.75991 0.88719 0.0
C746 C 0.61791 0.76034 0.91158 0.0
C747 C 0.57816 0.73989 0.93818 0.0
C748 C 0.55816 0.71884 0.94084 0.0
C749 C 0.59794 0.73933 0.91388 0.0
C750 C 0.55846 0.6968 0.91913 0.0
C751 C 0.57796 0.69624 0.89449 0.0
H752 H 0.24901 0.649 0.87811 0.0
H753 H 0.32639 0.6262 0.83412 0.0
H754 H 0.33024 0.58597 0.86958 0.0
H755 H 0.3111 0.55717 0.91345 0.0
H756 H 0.2326 0.58048 0.9551 0.0
H757 H 0.22988 0.62058 0.9205 0.0
C758 C 0.26685 0.63536 0.87648 0.0
C759 C 0.28749 0.64066 0.8538 0.0
C760 C 0.26872 0.61229 0.89657 0.0
C761 C 0.3102 0.62247 0.85144 0.0
C762 C 0.31243 0.59955 0.87175 0.0
C763 C 0.29349 0.57109 0.91492 0.0
C764 C 0.27209 0.56571 0.93681 0.0
C765 C 0.29176 0.59421 0.89446 0.0
C766 C 0.24929 0.58389 0.93832 0.0
C767 C 0.24769 0.60696 0.91859 0.0
H768 H 0.38174 0.30136 0.85306 0.0
H769 H 0.34277 0.23139 0.89915 0.0
H770 H 0.37963 0.2302 0.93842 0.0
H771 H 0.4239 0.24733 0.95837 0.0
H772 H 0.46185 0.31913 0.91577 0.0
H773 H 0.42388 0.32185 0.87693 0.0
C774 C 0.38098 0.28614 0.87197 0.0
C775 C 0.3597 0.26606 0.8725 0.0
C776 C 0.40201 0.28593 0.89515 0.0
C777 C 0.35929 0.2465 0.89731 0.0
C778 C 0.38025 0.24594 0.92005 0.0
C779 C 0.42375 0.2637 0.94067 0.0
C780 C 0.44569 0.2828 0.93954 0.0
C781 C 0.4019 0.26522 0.91887 0.0
C782 C 0.4451 0.30421 0.91698 0.0
C783 C 0.42351 0.30564 0.89474 0.0
H784 H 0.80581 0.36246 0.88386 0.0
H785 H 0.72748 0.38864 0.84445 0.0
H786 H 0.72692 0.42882 0.87962 0.0
H787 H 0.74786 0.45559 0.92228 0.0
H788 H 0.82685 0.43109 0.96145 0.0
H789 H 0.82835 0.39131 0.92524 0.0
C790 C 0.78868 0.37703 0.88315 0.0
C791 C 0.7666 0.37267 0.86189 0.0
C792 C 0.78873 0.40034 0.90313 0.0
C793 C 0.74465 0.39172 0.86067 0.0
C794 C 0.74433 0.41463 0.88074 0.0
C795 C 0.76551 0.44162 0.92284 0.0
C796 C 0.78711 0.44608 0.94465 0.0
C797 C 0.76616 0.41903 0.90212 0.0
C798 C 0.81001 0.42809 0.94478 0.0
C799 C 0.81076 0.40528 0.92425 0.0
H800 H 0.65099 0.25292 0.12097 0.0
H801 H 0.60767 0.30924 0.18317 0.0
H802 H 0.57181 0.31603 0.14293 0.0
H803 H 0.55117 0.30365 0.09101 0.0
H804 H 0.59281 0.24394 0.03177 0.0
H805 H 0.63078 0.24063 0.06994 0.0
C806 C 0.63356 0.26644 0.12599 0.0
C807 C 0.63201 0.28035 0.15522 0.0
C808 C 0.61268 0.26968 0.10316 0.0
C809 C 0.60959 0.2984 0.1608 0.0
C810 C 0.58896 0.30221 0.13785 0.0
C811 C 0.56882 0.29029 0.08641 0.0
C812 C 0.56944 0.27416 0.05873 0.0
C813 C 0.59014 0.28774 0.10904 0.0
C814 C 0.59204 0.25651 0.05305 0.0
C815 C 0.61368 0.25456 0.07484 0.0
H816 H 0.80234 0.63548 0.14991 0.0
H817 H 0.71758 0.65468 0.12474 0.0
H818 H 0.71691 0.61602 0.08771 0.0
H819 H 0.74001 0.57711 0.06255 0.0
H820 H 0.82525 0.5581 0.08534 0.0
H821 H 0.82626 0.59684 0.12295 0.0
C822 C 0.78383 0.6314 0.13607 0.0
C823 C 0.75996 0.64789 0.14033 0.0
C824 C 0.78367 0.60928 0.11442 0.0
C825 C 0.73605 0.64205 0.12245 0.0
C826 C 0.7357 0.62006 0.10108 0.0
C827 C 0.75887 0.58129 0.07578 0.0
C828 C 0.78247 0.56459 0.07133 0.0
C829 C 0.75932 0.60352 0.09701 0.0
C830 C 0.80678 0.57061 0.08838 0.0
C831 C 0.80734 0.59272 0.10988 0.0
H832 H 0.37904 0.70137 0.15816 0.0
H833 H 0.34214 0.77386 0.11488 0.0
H834 H 0.37797 0.77402 0.07446 0.0
H835 H 0.42064 0.75487 0.05219 0.0
H836 H 0.45562 0.68013 0.09137 0.0
H837 H 0.41909 0.67905 0.13203 0.0
C838 C 0.37843 0.71695 0.13964 0.0
C839 C 0.35808 0.738 0.14034 0.0
C840 C 0.39871 0.71647 0.1156 0.0
C841 C 0.35798 0.75799 0.11594 0.0
C842 C 0.37834 0.75796 0.09247 0.0
C843 C 0.42014 0.73825 0.06955 0.0
C844 C 0.44084 0.71779 0.06915 0.0
C845 C 0.39899 0.73758 0.09234 0.0
C846 C 0.4398 0.69608 0.09132 0.0
C847 C 0.41903 0.69557 0.1146 0.0
H848 H 0.30392 0.37669 0.14252 0.0
H849 H 0.23658 0.33734 0.09195 0.0
H850 H 0.23586 0.37513 0.05388 0.0
H851 H 0.25225 0.42048 0.03646 0.0
H852 H 0.3215 0.4591 0.08347 0.0
H853 H 0.32413 0.42004 0.12095 0.0
C854 C 0.28941 0.37606 0.12289 0.0
C855 C 0.26983 0.35435 0.12079 0.0
C856 C 0.28946 0.39772 0.10041 0.0
C857 C 0.25123 0.35412 0.09502 0.0
C858 C 0.25094 0.37564 0.07296 0.0
C859 C 0.26807 0.42021 0.05479 0.0
C860 C 0.28644 0.44264 0.0576 0.0
C861 C 0.26955 0.39775 0.0758 0.0
C862 C 0.30717 0.44196 0.08097 0.0
C863 C 0.30853 0.41973 0.10243 0.0
H864 H 0.39406 0.24955 0.15655 0.0
H865 H 0.34403 0.1917 0.10372 0.0
H866 H 0.38131 0.18633 0.06468 0.0
H867 H 0.42725 0.20062 0.04372 0.0
H868 H 0.47535 0.26068 0.09566 0.0
H869 H 0.44014 0.26214 0.13723 0.0
C870 C 0.39149 0.2354 0.1368 0.0
C871 C 0.36634 0.22105 0.13306 0.0
C872 C 0.41277 0.23276 0.11429 0.0
C873 C 0.36313 0.20319 0.10697 0.0
C874 C 0.38447 0.20002 0.08471 0.0
C875 C 0.43016 0.21353 0.0645 0.0
C876 C 0.45384 0.2304 0.06683 0.0
C877 C 0.40928 0.21502 0.08787 0.0
C878 C 0.45723 0.24751 0.09347 0.0
C879 C 0.43709 0.24843 0.11717 0.0
H880 H 0.71063 0.385 0.15853 0.0
H881 H 0.79199 0.35537 0.13304 0.0
H882 H 0.79544 0.3907 0.09159 0.0
H883 H 0.77564 0.42989 0.06308 0.0
H884 H 0.69337 0.45892 0.08582 0.0
H885 H 0.68966 0.42368 0.12771 0.0
C886 C 0.72907 0.3865 0.14387 0.0
C887 C 0.75118 0.36795 0.14878 0.0
C888 C 0.73063 0.40652 0.11963 0.0
C889 C 0.77485 0.36958 0.12955 0.0
C890 C 0.77679 0.38971 0.10592 0.0
C891 C 0.75685 0.42857 0.0772 0.0
C892 C 0.7349 0.44713 0.0716 0.0
C893 C 0.75485 0.40826 0.10081 0.0
C894 C 0.71054 0.44483 0.0897 0.0
C895 C 0.70849 0.42479 0.11371 0.0
H896 H 0.65137 0.73203 0.12714 0.0
H897 H 0.63107 0.8108 0.16909 0.0
H898 H 0.59014 0.81467 0.13477 0.0
H899 H 0.55975 0.79513 0.09286 0.0
H900 H 0.57958 0.71497 0.05361 0.0
H901 H 0.6209 0.71224 0.0866 0.0
C902 C 0.63807 0.75013 0.12855 0.0
C903 C 0.64427 0.77117 0.15039 0.0
C904 C 0.61438 0.75192 0.10925 0.0
C905 C 0.62663 0.7943 0.15244 0.0
C906 C 0.60328 0.79653 0.1328 0.0
C907 C 0.57316 0.77713 0.09157 0.0
C908 C 0.56649 0.7553 0.07081 0.0
C909 C 0.59686 0.7754 0.11114 0.0
C910 C 0.58402 0.732 0.06954 0.0
C911 C 0.60777 0.73042 0.08833 0.0
H912 H 0.26684 0.64818 0.12588 0.0
H913 H 0.18957 0.62551 0.17026 0.0
H914 H 0.1849 0.58603 0.13404 0.0
H915 H 0.20357 0.55738 0.08994 0.0
H916 H 0.28212 0.58012 0.04804 0.0
H917 H 0.28535 0.62003 0.0828 0.0
C918 C 0.24882 0.63477 0.12738 0.0
C919 C 0.2285 0.63985 0.1505 0.0
C920 C 0.24655 0.61197 0.10693 0.0
C921 C 0.20553 0.62196 0.15264 0.0
C922 C 0.20285 0.59943 0.13192 0.0
C923 C 0.2213 0.57113 0.08844 0.0
C924 C 0.24259 0.5656 0.06647 0.0
C925 C 0.22333 0.59411 0.10901 0.0
C926 C 0.26553 0.58361 0.0649 0.0
C927 C 0.26741 0.60658 0.08472 0.0
H928 H 0.40175 0.76776 0.84221 0.0
H929 H 0.33674 0.79423 0.90572 0.0
H930 H 0.37024 0.79794 0.94902 0.0
H931 H 0.41745 0.78933 0.97023 0.0
H932 H 0.48114 0.75944 0.9073 0.0
H933 H 0.44889 0.76134 0.86249 0.0
C934 C 0.39485 0.77429 0.86552 0.0
C935 C 0.36666 0.78047 0.87064 0.0
C936 C 0.41409 0.77577 0.8905 0.0
C937 C 0.3583 0.78953 0.90092 0.0
C938 C 0.37744 0.79149 0.92581 0.0
C939 C 0.42428 0.78393 0.9465 0.0
C940 C 0.45158 0.77467 0.94173 0.0
C941 C 0.40531 0.78419 0.92105 0.0
C942 C 0.46022 0.76697 0.91121 0.0
C943 C 0.44177 0.76787 0.8857 0.0
H944 H 0.19938 0.37937 0.86011 0.0
H945 H 0.27796 0.34615 0.89119 0.0
H946 H 0.28237 0.38315 0.93018 0.0
H947 H 0.26499 0.42559 0.95415 0.0
H948 H 0.18576 0.45887 0.92581 0.0
H949 H 0.18028 0.4211 0.88718 0.0
C950 C 0.21736 0.38029 0.87556 0.0
C951 C 0.23834 0.36008 0.87282 0.0
C952 C 0.21963 0.40157 0.8983 0.0
C953 C 0.26145 0.3613 0.89308 0.0
C954 C 0.26405 0.38251 0.91526 0.0
C955 C 0.24648 0.42461 0.93952 0.0
C956 C 0.22597 0.44515 0.94245 0.0
C957 C 0.24343 0.40284 0.91787 0.0
C958 C 0.20184 0.44329 0.92388 0.0
C959 C 0.1988 0.42178 0.90176 0.0
H960 H 0.63989 0.21113 0.8571 0.0
H961 H 0.65892 0.29603 0.88093 0.0
H962 H 0.619 0.29778 0.91611 0.0
H963 H 0.57891 0.27577 0.94007 0.0
H964 H 0.55965 0.19045 0.91903 0.0
H965 H 0.59961 0.18825 0.88298 0.0
C966 C 0.63543 0.22991 0.87023 0.0
C967 C 0.65229 0.25354 0.86599 0.0
C968 C 0.61239 0.23075 0.89083 0.0
C969 C 0.64605 0.27774 0.88311 0.0
C970 C 0.62328 0.27874 0.90342 0.0
C971 C 0.58323 0.25664 0.92752 0.0
C972 C 0.5661 0.23337 0.93207 0.0
C973 C 0.60625 0.25547 0.90729 0.0
C974 C 0.57241 0.20871 0.91588 0.0
C975 C 0.59528 0.20746 0.8953 0.0
H976 H 0.76068 0.64508 0.87861 0.0
H977 H 0.70242 0.60101 0.81943 0.0
H978 H 0.69783 0.56513 0.86002 0.0
H979 H 0.71188 0.5452 0.91187 0.0
H980 H 0.77335 0.58774 0.96795 0.0
H981 H 0.77537 0.62509 0.92895 0.0
C982 C 0.7473 0.62744 0.87422 0.0
C983 C 0.73206 0.62583 0.84581 0.0
C984 C 0.74526 0.60657 0.89725 0.0
C985 C 0.71423 0.60307 0.84116 0.0
C986 C 0.71167 0.58242 0.86432 0.0
C987 C 0.72542 0.56285 0.91556 0.0
C988 C 0.74234 0.56392 0.94268 0.0
C989 C 0.72717 0.58388 0.89245 0.0
C990 C 0.76018 0.58657 0.94714 0.0
C991 C 0.76138 0.60788 0.92486 0.0
loop_
_geom_bond_atom_site_label_1
_geom_bond_atom_site_label_2
_geom_bond_distance
_geom_bond_site_symmetry_2
_ccdc_geom_bond_type
C0 C1 1.384 . S
C0 C2 1.384 . S
C0 H28 0.931 . S
C1 C0 1.384 . S
C1 C4 1.382 . S
C2 C0 1.384 . S
C2 C3 1.381 . S
C2 H29 0.930 . S
C3 C2 1.381 . S
C3 C5 1.381 . S
C3 C6 1.487 . S
C4 C1 1.382 . S
C4 C5 1.387 . S
C4 H30 0.930 . S
C5 C3 1.381 . S
C5 C4 1.387 . S
C5 H31 0.931 . S
C6 C3 1.487 . S
C6 C13 1.399 . S
C6 N44 1.343 . S
C7 C8 1.384 . S
C7 C9 1.384 . S
C7 H32 0.931 . S
C8 C7 1.384 . S
C8 C11 1.382 . S
C9 C7 1.384 . S
C9 C10 1.381 . S
C9 H33 0.930 . S
C10 C9 1.381 . S
C10 C12 1.381 . S
C10 C13 1.487 . S
C11 C8 1.382 . S
C11 C12 1.387 . S
C11 H34 0.930 . S
C12 C10 1.381 . S
C12 C11 1.387 . S
C12 H35 0.931 . S
C13 C6 1.399 . S
C13 C10 1.487 . S
C13 N45 1.343 . S
C14 C15 1.384 . S
C14 C16 1.384 . S
C14 H36 0.931 . S
C15 C14 1.384 . S
C15 C18 1.382 . S
C16 C14 1.384 . S
C16 C17 1.381 . S
C16 H37 0.930 . S
C17 C16 1.381 . S
C17 C19 1.381 . S
C17 C20 1.487 . S
C18 C15 1.382 . S
C18 C19 1.387 . S
C18 H38 0.930 . S
C19 C17 1.381 . S
C19 C18 1.387 . S
C19 H39 0.931 . S
C20 C17 1.487 . S
C20 C27 1.399 . S
C20 N45 1.343 . S
C21 C22 1.384 . S
C21 C23 1.384 . S
C21 H40 0.931 . S
C22 C21 1.384 . S
C22 C25 1.382 . S
C23 C21 1.384 . S
C23 C24 1.381 . S
C23 H41 0.930 . S
C24 C23 1.381 . S
C24 C26 1.381 . S
C24 C27 1.487 . S
C25 C22 1.382 . S
C25 C26 1.387 . S
C25 H42 0.930 . S
C26 C24 1.381 . S
C26 C25 1.387 . S
C26 H43 0.931 . S
C27 C20 1.399 . S
C27 C24 1.487 . S
C27 N44 1.343 . S
H28 C0 0.931 . S
H29 C2 0.930 . S
H30 C4 0.930 . S
H31 C5 0.931 . S
H32 C7 0.931 . S
H33 C9 0.930 . S
H34 C11 0.930 . S
H35 C12 0.931 . S
H36 C14 0.931 . S
H37 C16 0.930 . S
H38 C18 0.930 . S
H39 C19 0.931 . S
H40 C21 0.931 . S
H41 C23 0.930 . S
H42 C25 0.930 . S
H43 C26 0.931 . S
N44 C6 1.343 . S
N44 C27 1.343 . S
N45 C13 1.343 . S
N45 C20 1.343 . S
C46 C47 1.384 . S
C46 C48 1.384 . S
C46 H74 0.931 . S
C47 C46 1.384 . S
C47 C50 1.382 . S
C48 C46 1.384 . S
C48 C49 1.381 . S
C48 H75 0.930 . S
C49 C48 1.381 . S
C49 C51 1.381 . S
C49 C52 1.487 . S
C50 C47 1.382 . S
C50 C51 1.387 . S
C50 H76 0.930 . S
C51 C49 1.381 . S
C51 C50 1.387 . S
C51 H77 0.931 . S
C52 C49 1.487 . S
C52 C59 1.399 . S
C52 N90 1.343 . S
C53 C54 1.384 . S
C53 C55 1.384 . S
C53 H78 0.931 . S
C54 C53 1.384 . S
C54 C57 1.382 . S
C55 C53 1.384 . S
C55 C56 1.381 . S
C55 H79 0.930 . S
C56 C55 1.381 . S
C56 C58 1.381 . S
C56 C59 1.487 . S
C57 C54 1.382 . S
C57 C58 1.387 . S
C57 H80 0.930 . S
C58 C56 1.381 . S
C58 C57 1.387 . S
C58 H81 0.931 . S
C59 C52 1.399 . S
C59 C56 1.487 . S
C59 N91 1.343 . S
C60 C61 1.384 . S
C60 C62 1.384 . S
C60 H82 0.931 . S
C61 C60 1.384 . S
C61 C64 1.382 . S
C62 C60 1.384 . S
C62 C63 1.381 . S
C62 H83 0.930 . S
C63 C62 1.381 . S
C63 C65 1.381 . S
C63 C66 1.487 . S
C64 C61 1.382 . S
C64 C65 1.387 . S
C64 H84 0.930 . S
C65 C63 1.381 . S
C65 C64 1.387 . S
C65 H85 0.931 . S
C66 C63 1.487 . S
C66 C73 1.399 . S
C66 N91 1.343 . S
C67 C68 1.384 . S
C67 C69 1.384 . S
C67 H86 0.931 . S
C68 C67 1.384 . S
C68 C71 1.382 . S
C69 C67 1.384 . S
C69 C70 1.381 . S
C69 H87 0.930 . S
C70 C69 1.381 . S
C70 C72 1.381 . S
C70 C73 1.487 . S
C71 C68 1.382 . S
C71 C72 1.387 . S
C71 H88 0.930 . S
C72 C70 1.381 . S
C72 C71 1.387 . S
C72 H89 0.931 . S
C73 C66 1.399 . S
C73 C70 1.487 . S
C73 N90 1.343 . S
H74 C46 0.931 . S
H75 C48 0.930 . S
H76 C50 0.930 . S
H77 C51 0.931 . S
H78 C53 0.931 . S
H79 C55 0.930 . S
H80 C57 0.930 . S
H81 C58 0.931 . S
H82 C60 0.931 . S
H83 C62 0.930 . S
H84 C64 0.930 . S
H85 C65 0.931 . S
H86 C67 0.931 . S
H87 C69 0.930 . S
H88 C71 0.930 . S
H89 C72 0.931 . S
N90 C52 1.343 . S
N90 C73 1.343 . S
N91 C59 1.343 . S
N91 C66 1.343 . S
C92 C93 1.384 . S
C92 C94 1.384 . S
C92 H120 0.931 . S
C93 C92 1.384 . S
C93 C96 1.382 . S
C94 C92 1.384 . S
C94 C95 1.381 . S
C94 H121 0.930 . S
C95 C94 1.381 . S
C95 C97 1.381 . S
C95 C98 1.487 . S
C96 C93 1.382 . S
C96 C97 1.387 . S
C96 H122 0.930 . S
C97 C95 1.381 . S
C97 C96 1.387 . S
C97 H123 0.931 . S
C98 C95 1.487 . S
C98 C105 1.399 . S
C98 N136 1.343 . S
C99 C100 1.384 . S
C99 C101 1.384 . S
C99 H124 0.931 . S
C100 C99 1.384 . S
C100 C103 1.382 . S
C101 C99 1.384 . S
C101 C102 1.381 . S
C101 H125 0.930 . S
C102 C101 1.381 . S
C102 C104 1.381 . S
C102 C105 1.487 . S
C103 C100 1.382 . S
C103 C104 1.387 . S
C103 H126 0.930 . S
C104 C102 1.381 . S
C104 C103 1.387 . S
C104 H127 0.931 . S
C105 C98 1.399 . S
C105 C102 1.487 . S
C105 N137 1.343 . S
C106 C107 1.384 . S
C106 C108 1.384 . S
C106 H128 0.931 . S
C107 C106 1.384 . S
C107 C110 1.382 . S
C108 C106 1.384 . S
C108 C109 1.381 . S
C108 H129 0.930 . S
C109 C108 1.381 . S
C109 C111 1.381 . S
C109 C112 1.487 . S
C110 C107 1.382 . S
C110 C111 1.387 . S
C110 H130 0.930 . S
C111 C109 1.381 . S
C111 C110 1.387 . S
C111 H131 0.931 . S
C112 C109 1.487 . S
C112 C119 1.399 . S
C112 N137 1.343 . S
C113 C114 1.384 . S
C113 C115 1.384 . S
C113 H132 0.931 . S
C114 C113 1.384 . S
C114 C117 1.382 . S
C115 C113 1.384 . S
C115 C116 1.381 . S
C115 H133 0.930 . S
C116 C115 1.381 . S
C116 C118 1.381 . S
C116 C119 1.487 . S
C117 C114 1.382 . S
C117 C118 1.387 . S
C117 H134 0.930 . S
C118 C116 1.381 . S
C118 C117 1.387 . S
C118 H135 0.931 . S
C119 C112 1.399 . S
C119 C116 1.487 . S
C119 N136 1.343 . S
H120 C92 0.931 . S
H121 C94 0.930 . S
H122 C96 0.930 . S
H123 C97 0.931 . S
H124 C99 0.931 . S
H125 C101 0.930 . S
H126 C103 0.930 . S
H127 C104 0.931 . S
H128 C106 0.931 . S
H129 C108 0.930 . S
H130 C110 0.930 . S
H131 C111 0.931 . S
H132 C113 0.931 . S
H133 C115 0.930 . S
H134 C117 0.930 . S
H135 C118 0.931 . S
N136 C98 1.343 . S
N136 C119 1.343 . S
N137 C105 1.343 . S
N137 C112 1.343 . S
C138 C139 1.384 . S
C138 C140 1.384 . S
C138 H166 0.931 . S
C139 C138 1.384 . S
C139 C142 1.382 . S
C140 C138 1.384 . S
C140 C141 1.381 . S
C140 H167 0.930 . S
C141 C140 1.381 . S
C141 C143 1.381 . S
C141 C144 1.487 . S
C142 C139 1.382 . S
C142 C143 1.387 . S
C142 H168 0.930 . S
C143 C141 1.381 . S
C143 C142 1.387 . S
C143 H169 0.931 . S
C144 C141 1.487 . S
C144 C151 1.399 . S
C144 N182 1.343 . S
C145 C146 1.384 . S
C145 C147 1.384 . S
C145 H170 0.931 . S
C146 C145 1.384 . S
C146 C149 1.382 . S
C147 C145 1.384 . S
C147 C148 1.381 . S
C147 H171 0.930 . S
C148 C147 1.381 . S
C148 C150 1.381 . S
C148 C151 1.487 . S
C149 C146 1.382 . S
C149 C150 1.387 . S
C149 H172 0.930 . S
C150 C148 1.381 . S
C150 C149 1.387 . S
C150 H173 0.931 . S
C151 C144 1.399 . S
C151 C148 1.487 . S
C151 N183 1.343 . S
C152 C153 1.384 . S
C152 C154 1.384 . S
C152 H174 0.931 . S
C153 C152 1.384 . S
C153 C156 1.382 . S
C154 C152 1.384 . S
C154 C155 1.381 . S
C154 H175 0.930 . S
C155 C154 1.381 . S
C155 C157 1.381 . S
C155 C158 1.487 . S
C156 C153 1.382 . S
C156 C157 1.387 . S
C156 H176 0.930 . S
C157 C155 1.381 . S
C157 C156 1.387 . S
C157 H177 0.931 . S
C158 C155 1.487 . S
C158 C165 1.399 . S
C158 N183 1.343 . S
C159 C160 1.384 . S
C159 C161 1.384 . S
C159 H178 0.931 . S
C160 C159 1.384 . S
C160 C163 1.382 . S
C161 C159 1.384 . S
C161 C162 1.381 . S
C161 H179 0.930 . S
C162 C161 1.381 . S
C162 C164 1.381 . S
C162 C165 1.487 . S
C163 C160 1.382 . S
C163 C164 1.387 . S
C163 H180 0.930 . S
C164 C162 1.381 . S
C164 C163 1.387 . S
C164 H181 0.931 . S
C165 C158 1.399 . S
C165 C162 1.487 . S
C165 N182 1.343 . S
H166 C138 0.931 . S
H167 C140 0.930 . S
H168 C142 0.930 . S
H169 C143 0.931 . S
H170 C145 0.931 . S
H171 C147 0.930 . S
H172 C149 0.930 . S
H173 C150 0.931 . S
H174 C152 0.931 . S
H175 C154 0.930 . S
H176 C156 0.930 . S
H177 C157 0.931 . S
H178 C159 0.931 . S
H179 C161 0.930 . S
H180 C163 0.930 . S
H181 C164 0.931 . S
N182 C144 1.343 . S
N182 C165 1.343 . S
N183 C151 1.343 . S
N183 C158 1.343 . S
C184 C185 1.384 . S
C184 C186 1.384 . S
C184 H212 0.931 . S
C185 C184 1.384 . S
C185 C188 1.382 . S
C186 C184 1.384 . S
C186 C187 1.381 . S
C186 H213 0.930 . S
C187 C186 1.381 . S
C187 C189 1.381 . S
C187 C190 1.487 . S
C188 C185 1.382 . S
C188 C189 1.387 . S
C188 H214 0.930 . S
C189 C187 1.381 . S
C189 C188 1.387 . S
C189 H215 0.931 . S
C190 C187 1.487 . S
C190 C197 1.399 . S
C190 N228 1.343 . S
C191 C192 1.384 . S
C191 C193 1.384 . S
C191 H216 0.931 . S
C192 C191 1.384 . S
C192 C195 1.382 . S
C193 C191 1.384 . S
C193 C194 1.381 . S
C193 H217 0.930 . S
C194 C193 1.381 . S
C194 C196 1.381 . S
C194 C197 1.487 . S
C195 C192 1.382 . S
C195 C196 1.387 . S
C195 H218 0.930 . S
C196 C194 1.381 . S
C196 C195 1.387 . S
C196 H219 0.931 . S
C197 C190 1.399 . S
C197 C194 1.487 . S
C197 N229 1.343 . S
C198 C199 1.384 . S
C198 C200 1.384 . S
C198 H220 0.931 . S
C199 C198 1.384 . S
C199 C202 1.382 . S
C200 C198 1.384 . S
C200 C201 1.381 . S
C200 H221 0.930 . S
C201 C200 1.381 . S
C201 C203 1.381 . S
C201 C204 1.487 . S
C202 C199 1.382 . S
C202 C203 1.387 . S
C202 H222 0.930 . S
C203 C201 1.381 . S
C203 C202 1.387 . S
C203 H223 0.931 . S
C204 C201 1.487 . S
C204 C211 1.399 . S
C204 N229 1.343 . S
C205 C206 1.384 . S
C205 C207 1.384 . S
C205 H224 0.931 . S
C206 C205 1.384 . S
C206 C209 1.382 . S
C207 C205 1.384 . S
C207 C208 1.381 . S
C207 H225 0.930 . S
C208 C207 1.381 . S
C208 C210 1.381 . S
C208 C211 1.487 . S
C209 C206 1.382 . S
C209 C210 1.387 . S
C209 H226 0.930 . S
C210 C208 1.381 . S
C210 C209 1.387 . S
C210 H227 0.931 . S
C211 C204 1.399 . S
C211 C208 1.487 . S
C211 N228 1.343 . S
H212 C184 0.931 . S
H213 C186 0.930 . S
H214 C188 0.930 . S
H215 C189 0.931 . S
H216 C191 0.931 . S
H217 C193 0.930 . S
H218 C195 0.930 . S
H219 C196 0.931 . S
H220 C198 0.931 . S
H221 C200 0.930 . S
H222 C202 0.930 . S
H223 C203 0.931 . S
H224 C205 0.931 . S
H225 C207 0.930 . S
H226 C209 0.930 . S
H227 C210 0.931 . S
N228 C190 1.343 . S
N228 C211 1.343 . S
N229 C197 1.343 . S
N229 C204 1.343 . S
C230 C231 1.384 . S
C230 C232 1.384 . S
C230 H258 0.931 . S
C231 C230 1.384 . S
C231 C234 1.382 . S
C232 C230 1.384 . S
C232 C233 1.381 . S
C232 H259 0.930 . S
C233 C232 1.381 . S
C233 C235 1.381 . S
C233 C236 1.487 . S
C234 C231 1.382 . S
C234 C235 1.387 . S
C234 H260 0.930 . S
C235 C233 1.381 . S
C235 C234 1.387 . S
C235 H261 0.931 . S
C236 C233 1.487 . S
C236 C243 1.399 . S
C236 N274 1.343 . S
C237 C238 1.384 . S
C237 C239 1.384 . S
C237 H262 0.931 . S
C238 C237 1.384 . S
C238 C241 1.382 . S
C239 C237 1.384 . S
C239 C240 1.381 . S
C239 H263 0.930 . S
C240 C239 1.381 . S
C240 C242 1.381 . S
C240 C243 1.487 . S
C241 C238 1.382 . S
C241 C242 1.387 . S
C241 H264 0.930 . S
C242 C240 1.381 . S
C242 C241 1.387 . S
C242 H265 0.931 . S
C243 C236 1.399 . S
C243 C240 1.487 . S
C243 N275 1.343 . S
C244 C245 1.384 . S
C244 C246 1.384 . S
C244 H266 0.931 . S
C245 C244 1.384 . S
C245 C248 1.382 . S
C246 C244 1.384 . S
C246 C247 1.381 . S
C246 H267 0.930 . S
C247 C246 1.381 . S
C247 C249 1.381 . S
C247 C250 1.487 . S
C248 C245 1.382 . S
C248 C249 1.387 . S
C248 H268 0.930 . S
C249 C247 1.381 . S
C249 C248 1.387 . S
C249 H269 0.931 . S
C250 C247 1.487 . S
C250 C257 1.399 . S
C250 N275 1.343 . S
C251 C252 1.384 . S
C251 C253 1.384 . S
C251 H270 0.931 . S
C252 C251 1.384 . S
C252 C255 1.382 . S
C253 C251 1.384 . S
C253 C254 1.381 . S
C253 H271 0.930 . S
C254 C253 1.381 . S
C254 C256 1.381 . S
C254 C257 1.487 . S
C255 C252 1.382 . S
C255 C256 1.387 . S
C255 H272 0.930 . S
C256 C254 1.381 . S
C256 C255 1.387 . S
C256 H273 0.931 . S
C257 C250 1.399 . S
C257 C254 1.487 . S
C257 N274 1.343 . S
H258 C230 0.931 . S
H259 C232 0.930 . S
H260 C234 0.930 . S
H261 C235 0.931 . S
H262 C237 0.931 . S
H263 C239 0.930 . S
H264 C241 0.930 . S
H265 C242 0.931 . S
H266 C244 0.931 . S
H267 C246 0.930 . S
H268 C248 0.930 . S
H269 C249 0.931 . S
H270 C251 0.931 . S
H271 C253 0.930 . S
H272 C255 0.930 . S
H273 C256 0.931 . S
N274 C236 1.343 . S
N274 C257 1.343 . S
N275 C243 1.343 . S
N275 C250 1.343 . S
C276 C277 1.384 . S
C276 C278 1.384 . S
C276 H304 0.931 . S
C277 C276 1.384 . S
C277 C280 1.382 . S
C278 C276 1.384 . S
C278 C279 1.381 . S
C278 H305 0.930 . S
C279 C278 1.381 . S
C279 C281 1.381 . S
C279 C282 1.487 . S
C280 C277 1.382 . S
C280 C281 1.387 . S
C280 H306 0.930 . S
C281 C279 1.381 . S
C281 C280 1.387 . S
C281 H307 0.931 . S
C282 C279 1.487 . S
C282 C289 1.399 . S
C282 N320 1.343 . S
C283 C284 1.384 . S
C283 C285 1.384 . S
C283 H308 0.931 . S
C284 C283 1.384 . S
C284 C287 1.382 . S
C285 C283 1.384 . S
C285 C286 1.381 . S
C285 H309 0.930 . S
C286 C285 1.381 . S
C286 C288 1.381 . S
C286 C289 1.487 . S
C287 C284 1.382 . S
C287 C288 1.387 . S
C287 H310 0.930 . S
C288 C286 1.381 . S
C288 C287 1.387 . S
C288 H311 0.931 . S
C289 C282 1.399 . S
C289 C286 1.487 . S
C289 N321 1.343 . S
C290 C291 1.384 . S
C290 C292 1.384 . S
C290 H312 0.931 . S
C291 C290 1.384 . S
C291 C294 1.382 . S
C292 C290 1.384 . S
C292 C293 1.381 . S
C292 H313 0.930 . S
C293 C292 1.381 . S
C293 C295 1.381 . S
C293 C296 1.487 . S
C294 C291 1.382 . S
C294 C295 1.387 . S
C294 H314 0.930 . S
C295 C293 1.381 . S
C295 C294 1.387 . S
C295 H315 0.931 . S
C296 C293 1.487 . S
C296 C303 1.399 . S
C296 N321 1.343 . S
C297 C298 1.384 . S
C297 C299 1.384 . S
C297 H316 0.931 . S
C298 C297 1.384 . S
C298 C301 1.382 . S
C299 C297 1.384 . S
C299 C300 1.381 . S
C299 H317 0.930 . S
C300 C299 1.381 . S
C300 C302 1.381 . S
C300 C303 1.487 . S
C301 C298 1.382 . S
C301 C302 1.387 . S
C301 H318 0.930 . S
C302 C300 1.381 . S
C302 C301 1.387 . S
C302 H319 0.931 . S
C303 C296 1.399 . S
C303 C300 1.487 . S
C303 N320 1.343 . S
H304 C276 0.931 . S
H305 C278 0.930 . S
H306 C280 0.930 . S
H307 C281 0.931 . S
H308 C283 0.931 . S
H309 C285 0.930 . S
H310 C287 0.930 . S
H311 C288 0.931 . S
H312 C290 0.931 . S
H313 C292 0.930 . S
H314 C294 0.930 . S
H315 C295 0.931 . S
H316 C297 0.931 . S
H317 C299 0.930 . S
H318 C301 0.930 . S
H319 C302 0.931 . S
N320 C282 1.343 . S
N320 C303 1.343 . S
N321 C289 1.343 . S
N321 C296 1.343 . S
C322 C323 1.384 . S
C322 C324 1.384 . S
C322 H350 0.931 . S
C323 C322 1.384 . S
C323 C326 1.382 . S
C324 C322 1.384 . S
C324 C325 1.381 . S
C324 H351 0.930 . S
C325 C324 1.381 . S
C325 C327 1.381 . S
C325 C328 1.487 . S
C326 C323 1.382 . S
C326 C327 1.387 . S
C326 H352 0.930 . S
C327 C325 1.381 . S
C327 C326 1.387 . S
C327 H353 0.931 . S
C328 C325 1.487 . S
C328 C335 1.399 . S
C328 N366 1.343 . S
C329 C330 1.384 . S
C329 C331 1.384 . S
C329 H354 0.931 . S
C330 C329 1.384 . S
C330 C333 1.382 . S
C331 C329 1.384 . S
C331 C332 1.381 . S
C331 H355 0.930 . S
C332 C331 1.381 . S
C332 C334 1.381 . S
C332 C335 1.487 . S
C333 C330 1.382 . S
C333 C334 1.387 . S
C333 H356 0.930 . S
C334 C332 1.381 . S
C334 C333 1.387 . S
C334 H357 0.931 . S
C335 C328 1.399 . S
C335 C332 1.487 . S
C335 N367 1.343 . S
C336 C337 1.384 . S
C336 C338 1.384 . S
C336 H358 0.931 . S
C337 C336 1.384 . S
C337 C340 1.382 . S
C338 C336 1.384 . S
C338 C339 1.381 . S
C338 H359 0.930 . S
C339 C338 1.381 . S
C339 C341 1.381 . S
C339 C342 1.487 . S
C340 C337 1.382 . S
C340 C341 1.387 . S
C340 H360 0.930 . S
C341 C339 1.381 . S
C341 C340 1.387 . S
C341 H361 0.931 . S
C342 C339 1.487 . S
C342 C349 1.399 . S
C342 N367 1.343 . S
C343 C344 1.384 . S
C343 C345 1.384 . S
C343 H362 0.931 . S
C344 C343 1.384 . S
C344 C347 1.382 . S
C345 C343 1.384 . S
C345 C346 1.381 . S
C345 H363 0.930 . S
C346 C345 1.381 . S
C346 C348 1.381 . S
C346 C349 1.487 . S
C347 C344 1.382 . S
C347 C348 1.387 . S
C347 H364 0.930 . S
C348 C346 1.381 . S
C348 C347 1.387 . S
C348 H365 0.931 . S
C349 C342 1.399 . S
C349 C346 1.487 . S
C349 N366 1.343 . S
H350 C322 0.931 . S
H351 C324 0.930 . S
H352 C326 0.930 . S
H353 C327 0.931 . S
H354 C329 0.931 . S
H355 C331 0.930 . S
H356 C333 0.930 . S
H357 C334 0.931 . S
H358 C336 0.931 . S
H359 C338 0.930 . S
H360 C340 0.930 . S
H361 C341 0.931 . S
H362 C343 0.931 . S
H363 C345 0.930 . S
H364 C347 0.930 . S
H365 C348 0.931 . S
N366 C328 1.343 . S
N366 C349 1.343 . S
N367 C335 1.343 . S
N367 C342 1.343 . S
C368 O370 1.247 . S
C368 O372 1.258 . S
C369 O376 1.247 . S
C369 O377 1.258 . S
O370 C368 1.247 . S
O370 Zn371 2.029 . S
Zn371 O370 2.029 . S
Zn371 O375 2.035 1_655 S
Zn371 O377 2.035 1_655 S
Zn371 O378 2.029 . S
O372 C368 1.258 . S
O372 Zn373 2.028 1_655 S
Zn373 O372 2.028 1_455 S
Zn373 O374 2.035 . S
Zn373 O376 2.035 . S
Zn373 O379 2.028 1_455 S
O374 Zn373 2.035 . S
O374 C380 1.247 . S
O375 Zn371 2.035 1_455 S
O375 C380 1.258 . S
O376 C369 1.247 . S
O376 Zn373 2.035 . S
O377 C369 1.258 . S
O377 Zn371 2.035 1_455 S
O378 Zn371 2.029 . S
O378 C381 1.247 . S
O379 Zn373 2.028 1_655 S
O379 C381 1.258 . S
C380 O374 1.247 . S
C380 O375 1.258 . S
C381 O378 1.247 . S
C381 O379 1.258 . S
C382 O384 1.247 . S
C382 O386 1.258 . S
C383 O390 1.247 . S
C383 O391 1.258 . S
O384 C382 1.247 . S
O384 Zn385 2.035 . S
Zn385 O384 2.035 . S
Zn385 O389 2.028 1_545 S
Zn385 O391 2.028 1_545 S
Zn385 O392 2.035 . S
O386 C382 1.258 . S
O386 Zn387 2.035 1_545 S
Zn387 O386 2.035 1_565 S
Zn387 O388 2.028 . S
Zn387 O390 2.028 . S
Zn387 O393 2.035 1_565 S
O388 Zn387 2.028 . S
O388 C394 1.247 . S
O389 Zn385 2.028 1_565 S
O389 C394 1.258 . S
O390 C383 1.247 . S
O390 Zn387 2.028 . S
O391 C383 1.258 . S
O391 Zn385 2.028 1_565 S
O392 Zn385 2.035 . S
O392 C395 1.247 . S
O393 Zn387 2.035 1_545 S
O393 C395 1.258 . S
C394 O388 1.247 . S
C394 O389 1.258 . S
C395 O392 1.247 . S
C395 O393 1.258 . S
C396 O398 1.247 . S
C396 O400 1.258 . S
C397 O404 1.247 . S
C397 O405 1.258 . S
O398 C396 1.247 . S
O398 Zn399 2.029 . S
Zn399 O398 2.029 . S
Zn399 O403 2.035 1_655 S
Zn399 O405 2.035 1_655 S
Zn399 O406 2.029 . S
O400 C396 1.258 . S
O400 Zn401 2.028 1_655 S
Zn401 O400 2.028 1_455 S
Zn401 O402 2.035 . S
Zn401 O404 2.035 . S
Zn401 O407 2.028 1_455 S
O402 Zn401 2.035 . S
O402 C408 1.247 . S
O403 Zn399 2.035 1_455 S
O403 C408 1.258 . S
O404 C397 1.247 . S
O404 Zn401 2.035 . S
O405 C397 1.258 . S
O405 Zn399 2.035 1_455 S
O406 Zn399 2.029 . S
O406 C409 1.247 . S
O407 Zn401 2.028 1_655 S
O407 C409 1.258 . S
C408 O402 1.247 . S
C408 O403 1.258 . S
C409 O406 1.247 . S
C409 O407 1.258 . S
C410 O412 1.247 . S
C410 O414 1.258 . S
C411 O418 1.247 . S
C411 O419 1.258 . S
O412 C410 1.247 . S
O412 Zn413 2.035 . S
Zn413 O412 2.035 . S
Zn413 O417 2.028 1_545 S
Zn413 O419 2.028 1_545 S
Zn413 O420 2.035 . S
O414 C410 1.258 . S
O414 Zn415 2.035 1_545 S
Zn415 O414 2.035 1_565 S
Zn415 O416 2.028 . S
Zn415 O418 2.028 . S
Zn415 O421 2.035 1_565 S
O416 Zn415 2.028 . S
O416 C422 1.247 . S
O417 Zn413 2.028 1_565 S
O417 C422 1.258 . S
O418 C411 1.247 . S
O418 Zn415 2.028 . S
O419 C411 1.258 . S
O419 Zn413 2.028 1_565 S
O420 Zn413 2.035 . S
O420 C423 1.247 . S
O421 Zn415 2.035 1_545 S
O421 C423 1.258 . S
C422 O416 1.247 . S
C422 O417 1.258 . S
C423 O420 1.247 . S
C423 O421 1.258 . S
C424 O426 1.247 . S
C424 O428 1.258 . S
C425 O432 1.247 . S
C425 O433 1.258 . S
O426 C424 1.247 . S
O426 Zn427 2.028 . S
Zn427 O426 2.028 . S
Zn427 O431 2.035 . S
Zn427 O433 2.035 1_554 S
Zn427 O434 2.028 1_554 S
O428 C424 1.258 . S
O428 Zn429 2.035 . S
Zn429 O428 2.035 . S
Zn429 O430 2.028 . S
Zn429 O432 2.028 1_554 S
Zn429 O435 2.035 1_554 S
O430 Zn429 2.028 . S
O430 C436 1.247 . S
O431 Zn427 2.035 . S
O431 C436 1.258 . S
O432 C425 1.247 . S
O432 Zn429 2.028 1_556 S
O433 C425 1.258 . S
O433 Zn427 2.035 1_556 S
O434 Zn427 2.028 1_556 S
O434 C437 1.247 . S
O435 Zn429 2.035 1_556 S
O435 C437 1.258 . S
C436 O430 1.247 . S
C436 O431 1.258 . S
C437 O434 1.247 . S
C437 O435 1.258 . S
C438 O440 1.247 . S
C438 O442 1.258 . S
C439 O446 1.247 . S
C439 O447 1.258 . S
O440 C438 1.247 . S
O440 Zn441 2.028 . S
Zn441 O440 2.028 . S
Zn441 O445 2.035 . S
Zn441 O447 2.035 1_554 S
Zn441 O448 2.028 1_554 S
O442 C438 1.258 . S
O442 Zn443 2.035 . S
Zn443 O442 2.035 . S
Zn443 O444 2.028 . S
Zn443 O446 2.028 1_554 S
Zn443 O449 2.035 1_554 S
O444 Zn443 2.028 . S
O444 C450 1.247 . S
O445 Zn441 2.035 . S
O445 C450 1.258 . S
O446 C439 1.247 . S
O446 Zn443 2.028 1_556 S
O447 C439 1.258 . S
O447 Zn441 2.035 1_556 S
O448 Zn441 2.028 1_556 S
O448 C451 1.247 . S
O449 Zn443 2.035 1_556 S
O449 C451 1.258 . S
C450 O444 1.247 . S
C450 O445 1.258 . S
C451 O448 1.247 . S
C451 O449 1.258 . S
C452 O454 1.247 . S
C452 O456 1.258 . S
C453 O460 1.247 . S
C453 O461 1.258 . S
O454 C452 1.247 . S
O454 Zn455 2.028 1_556 S
Zn455 O454 2.028 1_554 S
Zn455 O459 2.035 1_554 S
Zn455 O461 2.035 . S
Zn455 O462 2.028 . S
O456 C452 1.258 . S
O456 Zn457 2.035 1_556 S
Zn457 O456 2.035 1_554 S
Zn457 O458 2.028 1_554 S
Zn457 O460 2.028 . S
Zn457 O463 2.035 . S
O458 Zn457 2.028 1_556 S
O458 C464 1.247 . S
O459 Zn455 2.035 1_556 S
O459 C464 1.258 . S
O460 C453 1.247 . S
O460 Zn457 2.028 . S
O461 C453 1.258 . S
O461 Zn455 2.035 . S
O462 Zn455 2.028 . S
O462 C465 1.247 . S
O463 Zn457 2.035 . S
O463 C465 1.258 . S
C464 O458 1.247 . S
C464 O459 1.258 . S
C465 O462 1.247 . S
C465 O463 1.258 . S
C466 O468 1.247 . S
C466 O470 1.258 . S
C467 O474 1.247 . S
C467 O475 1.258 . S
O468 C466 1.247 . S
O468 Zn469 2.028 . S
Zn469 O468 2.028 . S
Zn469 O473 2.035 . S
Zn469 O475 2.035 1_554 S
Zn469 O476 2.028 1_554 S
O470 C466 1.258 . S
O470 Zn471 2.035 . S
Zn471 O470 2.035 . S
Zn471 O472 2.028 . S
Zn471 O474 2.028 1_554 S
Zn471 O477 2.035 1_554 S
O472 Zn471 2.028 . S
O472 C478 1.247 . S
O473 Zn469 2.035 . S
O473 C478 1.258 . S
O474 C467 1.247 . S
O474 Zn471 2.028 1_556 S
O475 C467 1.258 . S
O475 Zn469 2.035 1_556 S
O476 Zn469 2.028 1_556 S
O476 C479 1.247 . S
O477 Zn471 2.035 1_556 S
O477 C479 1.258 . S
C478 O472 1.247 . S
C478 O473 1.258 . S
C479 O476 1.247 . S
C479 O477 1.258 . S
H480 C486 0.930 . S
H481 C489 0.930 . S
H482 C490 0.930 . S
H483 C491 0.930 . S
H484 C494 0.930 . S
H485 C495 0.930 . S
C486 H480 0.930 . S
C486 C487 1.355 . S
C486 C488 1.415 . S
C487 C486 1.355 . S
C487 C489 1.419 . S
C488 C486 1.415 . S
C488 C493 1.425 . S
C488 C495 1.409 . S
C489 H481 0.930 . S
C489 C487 1.419 . S
C489 C490 1.362 . S
C490 H482 0.930 . S
C490 C489 1.362 . S
C490 C493 1.409 . S
C491 H483 0.930 . S
C491 C492 1.355 . S
C491 C493 1.415 . S
C492 C491 1.355 . S
C492 C494 1.419 . S
C493 C488 1.425 . S
C493 C490 1.409 . S
C493 C491 1.415 . S
C494 H484 0.930 . S
C494 C492 1.419 . S
C494 C495 1.362 . S
C495 H485 0.930 . S
C495 C488 1.409 . S
C495 C494 1.362 . S
H496 C502 0.930 . S
H497 C505 0.930 . S
H498 C506 0.930 . S
H499 C507 0.930 . S
H500 C510 0.930 . S
H501 C511 0.930 . S
C502 H496 0.930 . S
C502 C503 1.355 . S
C502 C504 1.415 . S
C503 C502 1.355 . S
C503 C505 1.419 . S
C504 C502 1.415 . S
C504 C509 1.425 . S
C504 C511 1.409 . S
C505 H497 0.930 . S
C505 C503 1.419 . S
C505 C506 1.362 . S
C506 H498 0.930 . S
C506 C505 1.362 . S
C506 C509 1.409 . S
C507 H499 0.930 . S
C507 C508 1.355 . S
C507 C509 1.415 . S
C508 C507 1.355 . S
C508 C510 1.419 . S
C509 C504 1.425 . S
C509 C506 1.409 . S
C509 C507 1.415 . S
C510 H500 0.930 . S
C510 C508 1.419 . S
C510 C511 1.362 . S
C511 H501 0.930 . S
C511 C504 1.409 . S
C511 C510 1.362 . S
H512 C518 0.930 . S
H513 C521 0.930 . S
H514 C522 0.930 . S
H515 C523 0.930 . S
H516 C526 0.930 . S
H517 C527 0.930 . S
C518 H512 0.930 . S
C518 C519 1.355 . S
C518 C520 1.415 . S
C519 C518 1.355 . S
C519 C521 1.419 . S
C520 C518 1.415 . S
C520 C525 1.425 . S
C520 C527 1.409 . S
C521 H513 0.930 . S
C521 C519 1.419 . S
C521 C522 1.362 . S
C522 H514 0.930 . S
C522 C521 1.362 . S
C522 C525 1.409 . S
C523 H515 0.930 . S
C523 C524 1.355 . S
C523 C525 1.415 . S
C524 C523 1.355 . S
C524 C526 1.419 . S
C525 C520 1.425 . S
C525 C522 1.409 . S
C525 C523 1.415 . S
C526 H516 0.930 . S
C526 C524 1.419 . S
C526 C527 1.362 . S
C527 H517 0.930 . S
C527 C520 1.409 . S
C527 C526 1.362 . S
H528 C534 0.930 . S
H529 C537 0.930 . S
H530 C538 0.930 . S
H531 C539 0.930 . S
H532 C542 0.930 . S
H533 C543 0.930 . S
C534 H528 0.930 . S
C534 C535 1.355 . S
C534 C536 1.415 . S
C535 C534 1.355 . S
C535 C537 1.419 . S
C536 C534 1.415 . S
C536 C541 1.425 . S
C536 C543 1.409 . S
C537 H529 0.930 . S
C537 C535 1.419 . S
C537 C538 1.362 . S
C538 H530 0.930 . S
C538 C537 1.362 . S
C538 C541 1.409 . S
C539 H531 0.930 . S
C539 C540 1.355 . S
C539 C541 1.415 . S
C540 C539 1.355 . S
C540 C542 1.419 . S
C541 C536 1.425 . S
C541 C538 1.409 . S
C541 C539 1.415 . S
C542 H532 0.930 . S
C542 C540 1.419 . S
C542 C543 1.362 . S
C543 H533 0.930 . S
C543 C536 1.409 . S
C543 C542 1.362 . S
H544 C550 0.930 . S
H545 C553 0.930 . S
H546 C554 0.930 . S
H547 C555 0.930 . S
H548 C558 0.930 . S
H549 C559 0.930 . S
C550 H544 0.930 . S
C550 C551 1.355 . S
C550 C552 1.415 . S
C551 C550 1.355 . S
C551 C553 1.419 . S
C552 C550 1.415 . S
C552 C557 1.425 . S
C552 C559 1.409 . S
C553 H545 0.930 . S
C553 C551 1.419 . S
C553 C554 1.362 . S
C554 H546 0.930 . S
C554 C553 1.362 . S
C554 C557 1.409 . S
C555 H547 0.930 . S
C555 C556 1.355 . S
C555 C557 1.415 . S
C556 C555 1.355 . S
C556 C558 1.419 . S
C557 C552 1.425 . S
C557 C554 1.409 . S
C557 C555 1.415 . S
C558 H548 0.930 . S
C558 C556 1.419 . S
C558 C559 1.362 . S
C559 H549 0.930 . S
C559 C552 1.409 . S
C559 C558 1.362 . S
H560 C566 0.930 . S
H561 C569 0.930 . S
H562 C570 0.930 . S
H563 C571 0.930 . S
H564 C574 0.930 . S
H565 C575 0.930 . S
C566 H560 0.930 . S
C566 C567 1.355 . S
C566 C568 1.415 . S
C567 C566 1.355 . S
C567 C569 1.419 . S
C568 C566 1.415 . S
C568 C573 1.425 . S
C568 C575 1.409 . S
C569 H561 0.930 . S
C569 C567 1.419 . S
C569 C570 1.362 . S
C570 H562 0.930 . S
C570 C569 1.362 . S
C570 C573 1.409 . S
C571 H563 0.930 . S
C571 C572 1.355 . S
C571 C573 1.415 . S
C572 C571 1.355 . S
C572 C574 1.419 . S
C573 C568 1.425 . S
C573 C570 1.409 . S
C573 C571 1.415 . S
C574 H564 0.930 . S
C574 C572 1.419 . S
C574 C575 1.362 . S
C575 H565 0.930 . S
C575 C568 1.409 . S
C575 C574 1.362 . S
H576 C582 0.930 . S
H577 C585 0.930 . S
H578 C586 0.930 . S
H579 C587 0.930 . S
H580 C590 0.930 . S
H581 C591 0.930 . S
C582 H576 0.930 . S
C582 C583 1.355 . S
C582 C584 1.415 . S
C583 C582 1.355 . S
C583 C585 1.419 . S
C584 C582 1.415 . S
C584 C589 1.425 . S
C584 C591 1.409 . S
C585 H577 0.930 . S
C585 C583 1.419 . S
C585 C586 1.362 . S
C586 H578 0.930 . S
C586 C585 1.362 . S
C586 C589 1.409 . S
C587 H579 0.930 . S
C587 C588 1.355 . S
C587 C589 1.415 . S
C588 C587 1.355 . S
C588 C590 1.419 . S
C589 C584 1.425 . S
C589 C586 1.409 . S
C589 C587 1.415 . S
C590 H580 0.930 . S
C590 C588 1.419 . S
C590 C591 1.362 . S
C591 H581 0.930 . S
C591 C584 1.409 . S
C591 C590 1.362 . S
H592 C598 0.930 . S
H593 C601 0.930 . S
H594 C602 0.930 . S
H595 C603 0.930 . S
H596 C606 0.930 . S
H597 C607 0.930 . S
C598 H592 0.930 . S
C598 C599 1.355 . S
C598 C600 1.415 . S
C599 C598 1.355 . S
C599 C601 1.419 . S
C600 C598 1.415 . S
C600 C605 1.425 . S
C600 C607 1.409 . S
C601 H593 0.930 . S
C601 C599 1.419 . S
C601 C602 1.362 . S
C602 H594 0.930 . S
C602 C601 1.362 . S
C602 C605 1.409 . S
C603 H595 0.930 . S
C603 C604 1.355 . S
C603 C605 1.415 . S
C604 C603 1.355 . S
C604 C606 1.419 . S
C605 C600 1.425 . S
C605 C602 1.409 . S
C605 C603 1.415 . S
C606 H596 0.930 . S
C606 C604 1.419 . S
C606 C607 1.362 . S
C607 H597 0.930 . S
C607 C600 1.409 . S
C607 C606 1.362 . S
H608 C614 0.930 . S
H609 C617 0.930 . S
H610 C618 0.930 . S
H611 C619 0.930 . S
H612 C622 0.930 . S
H613 C623 0.930 . S
C614 H608 0.930 . S
C614 C615 1.355 . S
C614 C616 1.415 . S
C615 C614 1.355 . S
C615 C617 1.419 . S
C616 C614 1.415 . S
C616 C621 1.425 . S
C616 C623 1.409 . S
C617 H609 0.930 . S
C617 C615 1.419 . S
C617 C618 1.362 . S
C618 H610 0.930 . S
C618 C617 1.362 . S
C618 C621 1.409 . S
C619 H611 0.930 . S
C619 C620 1.355 . S
C619 C621 1.415 . S
C620 C619 1.355 . S
C620 C622 1.419 . S
C621 C616 1.425 . S
C621 C618 1.409 . S
C621 C619 1.415 . S
C622 H612 0.930 . S
C622 C620 1.419 . S
C622 C623 1.362 . S
C623 H613 0.930 . S
C623 C616 1.409 . S
C623 C622 1.362 . S
H624 C630 0.930 . S
H625 C633 0.930 . S
H626 C634 0.930 . S
H627 C635 0.930 . S
H628 C638 0.930 . S
H629 C639 0.930 . S
C630 H624 0.930 . S
C630 C631 1.355 . S
C630 C632 1.415 . S
C631 C630 1.355 . S
C631 C633 1.419 . S
C632 C630 1.415 . S
C632 C637 1.425 . S
C632 C639 1.409 . S
C633 H625 0.930 . S
C633 C631 1.419 . S
C633 C634 1.362 . S
C634 H626 0.930 . S
C634 C633 1.362 . S
C634 C637 1.409 . S
C635 H627 0.930 . S
C635 C636 1.355 . S
C635 C637 1.415 . S
C636 C635 1.355 . S
C636 C638 1.419 . S
C637 C632 1.425 . S
C637 C634 1.409 . S
C637 C635 1.415 . S
C638 H628 0.930 . S
C638 C636 1.419 . S
C638 C639 1.362 . S
C639 H629 0.930 . S
C639 C632 1.409 . S
C639 C638 1.362 . S
H640 C646 0.930 . S
H641 C649 0.930 . S
H642 C650 0.930 . S
H643 C651 0.930 . S
H644 C654 0.930 . S
H645 C655 0.930 . S
C646 H640 0.930 . S
C646 C647 1.355 . S
C646 C648 1.415 . S
C647 C646 1.355 . S
C647 C649 1.419 . S
C648 C646 1.415 . S
C648 C653 1.425 . S
C648 C655 1.409 . S
C649 H641 0.930 . S
C649 C647 1.419 . S
C649 C650 1.362 . S
C650 H642 0.930 . S
C650 C649 1.362 . S
C650 C653 1.409 . S
C651 H643 0.930 . S
C651 C652 1.355 . S
C651 C653 1.415 . S
C652 C651 1.355 . S
C652 C654 1.419 . S
C653 C648 1.425 . S
C653 C650 1.409 . S
C653 C651 1.415 . S
C654 H644 0.930 . S
C654 C652 1.419 . S
C654 C655 1.362 . S
C655 H645 0.930 . S
C655 C648 1.409 . S
C655 C654 1.362 . S
H656 C662 0.930 . S
H657 C665 0.930 . S
H658 C666 0.930 . S
H659 C667 0.930 . S
H660 C670 0.930 . S
H661 C671 0.930 . S
C662 H656 0.930 . S
C662 C663 1.355 . S
C662 C664 1.415 . S
C663 C662 1.355 . S
C663 C665 1.419 . S
C664 C662 1.415 . S
C664 C669 1.425 . S
C664 C671 1.409 . S
C665 H657 0.930 . S
C665 C663 1.419 . S
C665 C666 1.362 . S
C666 H658 0.930 . S
C666 C665 1.362 . S
C666 C669 1.409 . S
C667 H659 0.930 . S
C667 C668 1.355 . S
C667 C669 1.415 . S
C668 C667 1.355 . S
C668 C670 1.419 . S
C669 C664 1.425 . S
C669 C666 1.409 . S
C669 C667 1.415 . S
C670 H660 0.930 . S
C670 C668 1.419 . S
C670 C671 1.362 . S
C671 H661 0.930 . S
C671 C664 1.409 . S
C671 C670 1.362 . S
H672 C678 0.930 . S
H673 C681 0.930 . S
H674 C682 0.930 . S
H675 C683 0.930 . S
H676 C686 0.930 . S
H677 C687 0.930 . S
C678 H672 0.930 . S
C678 C679 1.355 . S
C678 C680 1.415 . S
C679 C678 1.355 . S
C679 C681 1.419 . S
C680 C678 1.415 . S
C680 C685 1.425 . S
C680 C687 1.409 . S
C681 H673 0.930 . S
C681 C679 1.419 . S
C681 C682 1.362 . S
C682 H674 0.930 . S
C682 C681 1.362 . S
C682 C685 1.409 . S
C683 H675 0.930 . S
C683 C684 1.355 . S
C683 C685 1.415 . S
C684 C683 1.355 . S
C684 C686 1.419 . S
C685 C680 1.425 . S
C685 C682 1.409 . S
C685 C683 1.415 . S
C686 H676 0.930 . S
C686 C684 1.419 . S
C686 C687 1.362 . S
C687 H677 0.930 . S
C687 C680 1.409 . S
C687 C686 1.362 . S
H688 C694 0.930 . S
H689 C697 0.930 . S
H690 C698 0.930 . S
H691 C699 0.930 . S
H692 C702 0.930 . S
H693 C703 0.930 . S
C694 H688 0.930 . S
C694 C695 1.355 . S
C694 C696 1.415 . S
C695 C694 1.355 . S
C695 C697 1.419 . S
C696 C694 1.415 . S
C696 C701 1.425 . S
C696 C703 1.409 . S
C697 H689 0.930 . S
C697 C695 1.419 . S
C697 C698 1.362 . S
C698 H690 0.930 . S
C698 C697 1.362 . S
C698 C701 1.409 . S
C699 H691 0.930 . S
C699 C700 1.355 . S
C699 C701 1.415 . S
C700 C699 1.355 . S
C700 C702 1.419 . S
C701 C696 1.425 . S
C701 C698 1.409 . S
C701 C699 1.415 . S
C702 H692 0.930 . S
C702 C700 1.419 . S
C702 C703 1.362 . S
C703 H693 0.930 . S
C703 C696 1.409 . S
C703 C702 1.362 . S
H704 C710 0.930 . S
H705 C713 0.930 . S
H706 C714 0.930 . S
H707 C715 0.930 . S
H708 C718 0.930 . S
H709 C719 0.930 . S
C710 H704 0.930 . S
C710 C711 1.355 . S
C710 C712 1.415 . S
C711 C710 1.355 . S
C711 C713 1.419 . S
C712 C710 1.415 . S
C712 C717 1.425 . S
C712 C719 1.409 . S
C713 H705 0.930 . S
C713 C711 1.419 . S
C713 C714 1.362 . S
C714 H706 0.930 . S
C714 C713 1.362 . S
C714 C717 1.409 . S
C715 H707 0.930 . S
C715 C716 1.355 . S
C715 C717 1.415 . S
C716 C715 1.355 . S
C716 C718 1.419 . S
C717 C712 1.425 . S
C717 C714 1.409 . S
C717 C715 1.415 . S
C718 H708 0.930 . S
C718 C716 1.419 . S
C718 C719 1.362 . S
C719 H709 0.930 . S
C719 C712 1.409 . S
C719 C718 1.362 . S
H720 C726 0.930 . S
H721 C729 0.930 . S
H722 C730 0.930 . S
H723 C731 0.930 . S
H724 C734 0.930 . S
H725 C735 0.930 . S
C726 H720 0.930 . S
C726 C727 1.355 . S
C726 C728 1.415 . S
C727 C726 1.355 . S
C727 C729 1.419 . S
C728 C726 1.415 . S
C728 C733 1.425 . S
C728 C735 1.409 . S
C729 H721 0.930 . S
C729 C727 1.419 . S
C729 C730 1.362 . S
C730 H722 0.930 . S
C730 C729 1.362 . S
C730 C733 1.409 . S
C731 H723 0.930 . S
C731 C732 1.355 . S
C731 C733 1.415 . S
C732 C731 1.355 . S
C732 C734 1.419 . S
C733 C728 1.425 . S
C733 C730 1.409 . S
C733 C731 1.415 . S
C734 H724 0.930 . S
C734 C732 1.419 . S
C734 C735 1.362 . S
C735 H725 0.930 . S
C735 C728 1.409 . S
C735 C734 1.362 . S
H736 C742 0.930 . S
H737 C745 0.930 . S
H738 C746 0.930 . S
H739 C747 0.930 . S
H740 C750 0.930 . S
H741 C751 0.930 . S
C742 H736 0.930 . S
C742 C743 1.355 . S
C742 C744 1.415 . S
C743 C742 1.355 . S
C743 C745 1.419 . S
C744 C742 1.415 . S
C744 C749 1.425 . S
C744 C751 1.409 . S
C745 H737 0.930 . S
C745 C743 1.419 . S
C745 C746 1.362 . S
C746 H738 0.930 . S
C746 C745 1.362 . S
C746 C749 1.409 . S
C747 H739 0.930 . S
C747 C748 1.355 . S
C747 C749 1.415 . S
C748 C747 1.355 . S
C748 C750 1.419 . S
C749 C744 1.425 . S
C749 C746 1.409 . S
C749 C747 1.415 . S
C750 H740 0.930 . S
C750 C748 1.419 . S
C750 C751 1.362 . S
C751 H741 0.930 . S
C751 C744 1.409 . S
C751 C750 1.362 . S
H752 C758 0.930 . S
H753 C761 0.930 . S
H754 C762 0.930 . S
H755 C763 0.930 . S
H756 C766 0.930 . S
H757 C767 0.930 . S
C758 H752 0.930 . S
C758 C759 1.355 . S
C758 C760 1.415 . S
C759 C758 1.355 . S
C759 C761 1.419 . S
C760 C758 1.415 . S
C760 C765 1.425 . S
C760 C767 1.409 . S
C761 H753 0.930 . S
C761 C759 1.419 . S
C761 C762 1.362 . S
C762 H754 0.930 . S
C762 C761 1.362 . S
C762 C765 1.409 . S
C763 H755 0.930 . S
C763 C764 1.355 . S
C763 C765 1.415 . S
C764 C763 1.355 . S
C764 C766 1.419 . S
C765 C760 1.425 . S
C765 C762 1.409 . S
C765 C763 1.415 . S
C766 H756 0.930 . S
C766 C764 1.419 . S
C766 C767 1.362 . S
C767 H757 0.930 . S
C767 C760 1.409 . S
C767 C766 1.362 . S
H768 C774 0.930 . S
H769 C777 0.930 . S
H770 C778 0.930 . S
H771 C779 0.930 . S
H772 C782 0.930 . S
H773 C783 0.930 . S
C774 H768 0.930 . S
C774 C775 1.355 . S
C774 C776 1.415 . S
C775 C774 1.355 . S
C775 C777 1.419 . S
C776 C774 1.415 . S
C776 C781 1.425 . S
C776 C783 1.409 . S
C777 H769 0.930 . S
C777 C775 1.419 . S
C777 C778 1.362 . S
C778 H770 0.930 . S
C778 C777 1.362 . S
C778 C781 1.409 . S
C779 H771 0.930 . S
C779 C780 1.355 . S
C779 C781 1.415 . S
C780 C779 1.355 . S
C780 C782 1.419 . S
C781 C776 1.425 . S
C781 C778 1.409 . S
C781 C779 1.415 . S
C782 H772 0.930 . S
C782 C780 1.419 . S
C782 C783 1.362 . S
C783 H773 0.930 . S
C783 C776 1.409 . S
C783 C782 1.362 . S
H784 C790 0.930 . S
H785 C793 0.930 . S
H786 C794 0.930 . S
H787 C795 0.930 . S
H788 C798 0.930 . S
H789 C799 0.930 . S
C790 H784 0.930 . S
C790 C791 1.355 . S
C790 C792 1.415 . S
C791 C790 1.355 . S
C791 C793 1.419 . S
C792 C790 1.415 . S
C792 C797 1.425 . S
C792 C799 1.409 . S
C793 H785 0.930 . S
C793 C791 1.419 . S
C793 C794 1.362 . S
C794 H786 0.930 . S
C794 C793 1.362 . S
C794 C797 1.409 . S
C795 H787 0.930 . S
C795 C796 1.355 . S
C795 C797 1.415 . S
C796 C795 1.355 . S
C796 C798 1.419 . S
C797 C792 1.425 . S
C797 C794 1.409 . S
C797 C795 1.415 . S
C798 H788 0.930 . S
C798 C796 1.419 . S
C798 C799 1.362 . S
C799 H789 0.930 . S
C799 C792 1.409 . S
C799 C798 1.362 . S
H800 C806 0.930 . S
H801 C809 0.930 . S
H802 C810 0.930 . S
H803 C811 0.930 . S
H804 C814 0.930 . S
H805 C815 0.930 . S
C806 H800 0.930 . S
C806 C807 1.355 . S
C806 C808 1.415 . S
C807 C806 1.355 . S
C807 C809 1.419 . S
C808 C806 1.415 . S
C808 C813 1.425 . S
C808 C815 1.409 . S
C809 H801 0.930 . S
C809 C807 1.419 . S
C809 C810 1.362 . S
C810 H802 0.930 . S
C810 C809 1.362 . S
C810 C813 1.409 . S
C811 H803 0.930 . S
C811 C812 1.355 . S
C811 C813 1.415 . S
C812 C811 1.355 . S
C812 C814 1.419 . S
C813 C808 1.425 . S
C813 C810 1.409 . S
C813 C811 1.415 . S
C814 H804 0.930 . S
C814 C812 1.419 . S
C814 C815 1.362 . S
C815 H805 0.930 . S
C815 C808 1.409 . S
C815 C814 1.362 . S
H816 C822 0.930 . S
H817 C825 0.930 . S
H818 C826 0.930 . S
H819 C827 0.930 . S
H820 C830 0.930 . S
H821 C831 0.930 . S
C822 H816 0.930 . S
C822 C823 1.355 . S
C822 C824 1.415 . S
C823 C822 1.355 . S
C823 C825 1.419 . S
C824 C822 1.415 . S
C824 C829 1.425 . S
C824 C831 1.409 . S
C825 H817 0.930 . S
C825 C823 1.419 . S
C825 C826 1.362 . S
C826 H818 0.930 . S
C826 C825 1.362 . S
C826 C829 1.409 . S
C827 H819 0.930 . S
C827 C828 1.355 . S
C827 C829 1.415 . S
C828 C827 1.355 . S
C828 C830 1.419 . S
C829 C824 1.425 . S
C829 C826 1.409 . S
C829 C827 1.415 . S
C830 H820 0.930 . S
C830 C828 1.419 . S
C830 C831 1.362 . S
C831 H821 0.930 . S
C831 C824 1.409 . S
C831 C830 1.362 . S
H832 C838 0.930 . S
H833 C841 0.930 . S
H834 C842 0.930 . S
H835 C843 0.930 . S
H836 C846 0.930 . S
H837 C847 0.930 . S
C838 H832 0.930 . S
C838 C839 1.355 . S
C838 C840 1.415 . S
C839 C838 1.355 . S
C839 C841 1.419 . S
C840 C838 1.415 . S
C840 C845 1.425 . S
C840 C847 1.409 . S
C841 H833 0.930 . S
C841 C839 1.419 . S
C841 C842 1.362 . S
C842 H834 0.930 . S
C842 C841 1.362 . S
C842 C845 1.409 . S
C843 H835 0.930 . S
C843 C844 1.355 . S
C843 C845 1.415 . S
C844 C843 1.355 . S
C844 C846 1.419 . S
C845 C840 1.425 . S
C845 C842 1.409 . S
C845 C843 1.415 . S
C846 H836 0.930 . S
C846 C844 1.419 . S
C846 C847 1.362 . S
C847 H837 0.930 . S
C847 C840 1.409 . S
C847 C846 1.362 . S
H848 C854 0.930 . S
H849 C857 0.930 . S
H850 C858 0.930 . S
H851 C859 0.930 . S
H852 C862 0.930 . S
H853 C863 0.930 . S
C854 H848 0.930 . S
C854 C855 1.355 . S
C854 C856 1.415 . S
C855 C854 1.355 . S
C855 C857 1.419 . S
C856 C854 1.415 . S
C856 C861 1.425 . S
C856 C863 1.409 . S
C857 H849 0.930 . S
C857 C855 1.419 . S
C857 C858 1.362 . S
C858 H850 0.930 . S
C858 C857 1.362 . S
C858 C861 1.409 . S
C859 H851 0.930 . S
C859 C860 1.355 . S
C859 C861 1.415 . S
C860 C859 1.355 . S
C860 C862 1.419 . S
C861 C856 1.425 . S
C861 C858 1.409 . S
C861 C859 1.415 . S
C862 H852 0.930 . S
C862 C860 1.419 . S
C862 C863 1.362 . S
C863 H853 0.930 . S
C863 C856 1.409 . S
C863 C862 1.362 . S
H864 C870 0.930 . S
H865 C873 0.930 . S
H866 C874 0.930 . S
H867 C875 0.930 . S
H868 C878 0.930 . S
H869 C879 0.930 . S
C870 H864 0.930 . S
C870 C871 1.355 . S
C870 C872 1.415 . S
C871 C870 1.355 . S
C871 C873 1.419 . S
C872 C870 1.415 . S
C872 C877 1.425 . S
C872 C879 1.409 . S
C873 H865 0.930 . S
C873 C871 1.419 . S
C873 C874 1.362 . S
C874 H866 0.930 . S
C874 C873 1.362 . S
C874 C877 1.409 . S
C875 H867 0.930 . S
C875 C876 1.355 . S
C875 C877 1.415 . S
C876 C875 1.355 . S
C876 C878 1.419 . S
C877 C872 1.425 . S
C877 C874 1.409 . S
C877 C875 1.415 . S
C878 H868 0.930 . S
C878 C876 1.419 . S
C878 C879 1.362 . S
C879 H869 0.930 . S
C879 C872 1.409 . S
C879 C878 1.362 . S
H880 C886 0.930 . S
H881 C889 0.930 . S
H882 C890 0.930 . S
H883 C891 0.930 . S
H884 C894 0.930 . S
H885 C895 0.930 . S
C886 H880 0.930 . S
C886 C887 1.355 . S
C886 C888 1.415 . S
C887 C886 1.355 . S
C887 C889 1.419 . S
C888 C886 1.415 . S
C888 C893 1.425 . S
C888 C895 1.409 . S
C889 H881 0.930 . S
C889 C887 1.419 . S
C889 C890 1.362 . S
C890 H882 0.930 . S
C890 C889 1.362 . S
C890 C893 1.409 . S
C891 H883 0.930 . S
C891 C892 1.355 . S
C891 C893 1.415 . S
C892 C891 1.355 . S
C892 C894 1.419 . S
C893 C888 1.425 . S
C893 C890 1.409 . S
C893 C891 1.415 . S
C894 H884 0.930 . S
C894 C892 1.419 . S
C894 C895 1.362 . S
C895 H885 0.930 . S
C895 C888 1.409 . S
C895 C894 1.362 . S
H896 C902 0.930 . S
H897 C905 0.930 . S
H898 C906 0.930 . S
H899 C907 0.930 . S
H900 C910 0.930 . S
H901 C911 0.930 . S
C902 H896 0.930 . S
C902 C903 1.355 . S
C902 C904 1.415 . S
C903 C902 1.355 . S
C903 C905 1.419 . S
C904 C902 1.415 . S
C904 C909 1.425 . S
C904 C911 1.409 . S
C905 H897 0.930 . S
C905 C903 1.419 . S
C905 C906 1.362 . S
C906 H898 0.930 . S
C906 C905 1.362 . S
C906 C909 1.409 . S
C907 H899 0.930 . S
C907 C908 1.355 . S
C907 C909 1.415 . S
C908 C907 1.355 . S
C908 C910 1.419 . S
C909 C904 1.425 . S
C909 C906 1.409 . S
C909 C907 1.415 . S
C910 H900 0.930 . S
C910 C908 1.419 . S
C910 C911 1.362 . S
C911 H901 0.930 . S
C911 C904 1.409 . S
C911 C910 1.362 . S
H912 C918 0.930 . S
H913 C921 0.930 . S
H914 C922 0.930 . S
H915 C923 0.930 . S
H916 C926 0.930 . S
H917 C927 0.930 . S
C918 H912 0.930 . S
C918 C919 1.355 . S
C918 C920 1.415 . S
C919 C918 1.355 . S
C919 C921 1.419 . S
C920 C918 1.415 . S
C920 C925 1.425 . S
C920 C927 1.409 . S
C921 H913 0.930 . S
C921 C919 1.419 . S
C921 C922 1.362 . S
C922 H914 0.930 . S
C922 C921 1.362 . S
C922 C925 1.409 . S
C923 H915 0.930 . S
C923 C924 1.355 . S
C923 C925 1.415 . S
C924 C923 1.355 . S
C924 C926 1.419 . S
C925 C920 1.425 . S
C925 C922 1.409 . S
C925 C923 1.415 . S
C926 H916 0.930 . S
C926 C924 1.419 . S
C926 C927 1.362 . S
C927 H917 0.930 . S
C927 C920 1.409 . S
C927 C926 1.362 . S
H928 C934 0.930 . S
H929 C937 0.930 . S
H930 C938 0.930 . S
H931 C939 0.930 . S
H932 C942 0.930 . S
H933 C943 0.930 . S
C934 H928 0.930 . S
C934 C935 1.355 . S
C934 C936 1.415 . S
C935 C934 1.355 . S
C935 C937 1.419 . S
C936 C934 1.415 . S
C936 C941 1.425 . S
C936 C943 1.409 . S
C937 H929 0.930 . S
C937 C935 1.419 . S
C937 C938 1.362 . S
C938 H930 0.930 . S
C938 C937 1.362 . S
C938 C941 1.409 . S
C939 H931 0.930 . S
C939 C940 1.355 . S
C939 C941 1.415 . S
C940 C939 1.355 . S
C940 C942 1.419 . S
C941 C936 1.425 . S
C941 C938 1.409 . S
C941 C939 1.415 . S
C942 H932 0.930 . S
C942 C940 1.419 . S
C942 C943 1.362 . S
C943 H933 0.930 . S
C943 C936 1.409 . S
C943 C942 1.362 . S
H944 C950 0.930 . S
H945 C953 0.930 . S
H946 C954 0.930 . S
H947 C955 0.930 . S
H948 C958 0.930 . S
H949 C959 0.930 . S
C950 H944 0.930 . S
C950 C951 1.355 . S
C950 C952 1.415 . S
C951 C950 1.355 . S
C951 C953 1.419 . S
C952 C950 1.415 . S
C952 C957 1.425 . S
C952 C959 1.409 . S
C953 H945 0.930 . S
C953 C951 1.419 . S
C953 C954 1.362 . S
C954 H946 0.930 . S
C954 C953 1.362 . S
C954 C957 1.409 . S
C955 H947 0.930 . S
C955 C956 1.355 . S
C955 C957 1.415 . S
C956 C955 1.355 . S
C956 C958 1.419 . S
C957 C952 1.425 . S
C957 C954 1.409 . S
C957 C955 1.415 . S
C958 H948 0.930 . S
C958 C956 1.419 . S
C958 C959 1.362 . S
C959 H949 0.930 . S
C959 C952 1.409 . S
C959 C958 1.362 . S
H960 C966 0.930 . S
H961 C969 0.930 . S
H962 C970 0.930 . S
H963 C971 0.930 . S
H964 C974 0.930 . S
H965 C975 0.930 . S
C966 H960 0.930 . S
C966 C967 1.355 . S
C966 C968 1.415 . S
C967 C966 1.355 . S
C967 C969 1.419 . S
C968 C966 1.415 . S
C968 C973 1.425 . S
C968 C975 1.409 . S
C969 H961 0.930 . S
C969 C967 1.419 . S
C969 C970 1.362 . S
C970 H962 0.930 . S
C970 C969 1.362 . S
C970 C973 1.409 . S
C971 H963 0.930 . S
C971 C972 1.355 . S
C971 C973 1.415 . S
C972 C971 1.355 . S
C972 C974 1.419 . S
C973 C968 1.425 . S
C973 C970 1.409 . S
C973 C971 1.415 . S
C974 H964 0.930 . S
C974 C972 1.419 . S
C974 C975 1.362 . S
C975 H965 0.930 . S
C975 C968 1.409 . S
C975 C974 1.362 . S
H976 C982 0.930 . S
H977 C985 0.930 . S
H978 C986 0.930 . S
H979 C987 0.930 . S
H980 C990 0.930 . S
H981 C991 0.930 . S
C982 H976 0.930 . S
C982 C983 1.355 . S
C982 C984 1.415 . S
C983 C982 1.355 . S
C983 C985 1.419 . S
C984 C982 1.415 . S
C984 C989 1.425 . S
C984 C991 1.409 . S
C985 H977 0.930 . S
C985 C983 1.419 . S
C985 C986 1.362 . S
C986 H978 0.930 . S
C986 C985 1.362 . S
C986 C989 1.409 . S
C987 H979 0.930 . S
C987 C988 1.355 . S
C987 C989 1.415 . S
C988 C987 1.355 . S
C988 C990 1.419 . S
C989 C984 1.425 . S
C989 C986 1.409 . S
C989 C987 1.415 . S
C990 H980 0.930 . S
C990 C988 1.419 . S
C990 C991 1.362 . S
C991 H981 0.930 . S
C991 C984 1.409 . S
C991 C990 1.362 . S
C492 C369 1.515 . S
C487 C15 1.509 . S
C508 C395 1.515 . S
C503 C68 1.508 . S
C524 C409 1.495 . S
C519 C107 1.513 . S
C540 C411 1.504 . S
C535 C160 1.509 . S
C551 C185 1.508 . S
C556 C408 1.497 . S
C572 C410 1.497 . S
C567 C252 1.512 . S
C588 C368 1.497 . S
C583 C277 1.505 . S
C604 C394 1.516 . S
C599 C330 1.515 . S
C620 C396 1.501 . S
C615 C323 1.514 . S
C636 C422 1.499 . S
C631 C192 1.513 . S
C652 C380 1.507 . S
C647 C245 1.513 . S
C668 C382 1.501 . S
C663 C284 1.509 . S
C684 C381 1.502 . S
C679 C61 1.505 . S
C700 C383 1.506 . S
C695 C114 1.514 . S
C716 C397 1.501 . S
C711 C153 1.509 . S
C732 C423 1.496 . S
C727 C22 1.505 . S
C748 C425 1.496 . S
C743 C337 1.514 . S
C759 C206 1.508 . S
C764 C451 1.519 . S
C775 C231 1.505 . S
C780 C464 1.500 . S
C791 C298 1.508 . S
C796 C467 1.516 . S
C807 C47 1.514 . S
C812 C465 1.513 . S
C823 C100 1.505 . S
C828 C466 1.499 . S
C839 C139 1.504 . S
C844 C424 1.494 . S
C860 C450 1.498 . S
C855 C8 1.505 . S
C876 C453 1.503 . S
C871 C1 1.507 . S
C887 C54 1.511 . S
C892 C478 1.494 . S
C903 C93 1.511 . S
C908 C436 1.505 . S
C919 C146 1.513 . S
C924 C438 1.493 . S
C940 C437 1.501 . S
C935 C199 1.507 . S
C956 C439 1.515 . S
C951 C238 1.510 . S
C967 C291 1.505 . S
C972 C452 1.507 . S
C988 C479 1.511 . S
C983 C344 1.517 . S
