# Generated by pormake.
# Topology eea, (3,6)-cn, num edge types: 1
# Building blocks:
#     Node 0, Type 0, BuildingBlock: PAMTOO_clean_linker_0, # of connection points: 3
#     Node 1, Type 0, BuildingBlock: PAMTOO_clean_linker_0, # of connection points: 3
#     Node 2, Type 0, BuildingBlock: PAMTOO_clean_linker_0, # of connection points: 3
#     Node 3, Type 0, BuildingBlock: PAMTOO_clean_linker_0, # of connection points: 3
#     Node 4, Type 0, BuildingBlock: PAMTOO_clean_linker_0, # of connection points: 3
#     Node 5, Type 0, BuildingBlock: PAMTOO_clean_linker_0, # of connection points: 3
#     Node 6, Type 0, BuildingBlock: PAMTOO_clean_linker_0, # of connection points: 3
#     Node 7, Type 0, BuildingBlock: PAMTOO_clean_linker_0, # of connection points: 3
#     Node 8, Type 0, BuildingBlock: PAMTOO_clean_linker_0, # of connection points: 3
#     Node 9, Type 0, BuildingBlock: PAMTOO_clean_linker_0, # of connection points: 3
#     Node 10, Type 0, BuildingBlock: PAMTOO_clean_linker_0, # of connection points: 3
#     Node 11, Type 0, BuildingBlock: PAMTOO_clean_linker_0, # of connection points: 3
#     Node 12, Type 0, BuildingBlock: PAMTOO_clean_linker_0, # of connection points: 3
#     Node 13, Type 0, BuildingBlock: PAMTOO_clean_linker_0, # of connection points: 3
#     Node 14, Type 0, BuildingBlock: PAMTOO_clean_linker_0, # of connection points: 3
#     Node 15, Type 0, BuildingBlock: PAMTOO_clean_linker_0, # of connection points: 3
#     Node 16, Type 0, BuildingBlock: PAMTOO_clean_linker_0, # of connection points: 3
#     Node 17, Type 0, BuildingBlock: PAMTOO_clean_linker_0, # of connection points: 3
#     Node 18, Type 1, BuildingBlock: KUMBOL_clean_sbu_0, # of connection points: 6
#     Node 19, Type 1, BuildingBlock: KUMBOL_clean_sbu_0, # of connection points: 6
#     Node 20, Type 1, BuildingBlock: KUMBOL_clean_sbu_0, # of connection points: 6
#     Node 21, Type 1, BuildingBlock: KUMBOL_clean_sbu_0, # of connection points: 6
#     Node 22, Type 1, BuildingBlock: KUMBOL_clean_sbu_0, # of connection points: 6
#     Node 23, Type 1, BuildingBlock: KUMBOL_clean_sbu_0, # of connection points: 6
#     Node 24, Type 1, BuildingBlock: KUMBOL_clean_sbu_0, # of connection points: 6
#     Node 25, Type 1, BuildingBlock: KUMBOL_clean_sbu_0, # of connection points: 6
#     Node 26, Type 1, BuildingBlock: KUMBOL_clean_sbu_0, # of connection points: 6
#     Edge 27, Type (0, 1), BuildingBlock: XUDNAN_clean_linker_2, # of connection points: 2
#     Edge 28, Type (0, 1), BuildingBlock: XUDNAN_clean_linker_2, # of connection points: 2
#     Edge 29, Type (0, 1), BuildingBlock: XUDNAN_clean_linker_2, # of connection points: 2
#     Edge 30, Type (0, 1), BuildingBlock: XUDNAN_clean_linker_2, # of connection points: 2
#     Edge 31, Type (0, 1), BuildingBlock: XUDNAN_clean_linker_2, # of connection points: 2
#     Edge 32, Type (0, 1), BuildingBlock: XUDNAN_clean_linker_2, # of connection points: 2
#     Edge 33, Type (0, 1), BuildingBlock: XUDNAN_clean_linker_2, # of connection points: 2
#     Edge 34, Type (0, 1), BuildingBlock: XUDNAN_clean_linker_2, # of connection points: 2
#     Edge 35, Type (0, 1), BuildingBlock: XUDNAN_clean_linker_2, # of connection points: 2
#     Edge 36, Type (0, 1), BuildingBlock: XUDNAN_clean_linker_2, # of connection points: 2
#     Edge 37, Type (0, 1), BuildingBlock: XUDNAN_clean_linker_2, # of connection points: 2
#     Edge 38, Type (0, 1), BuildingBlock: XUDNAN_clean_linker_2, # of connection points: 2
#     Edge 39, Type (0, 1), BuildingBlock: XUDNAN_clean_linker_2, # of connection points: 2
#     Edge 40, Type (0, 1), BuildingBlock: XUDNAN_clean_linker_2, # of connection points: 2
#     Edge 41, Type (0, 1), BuildingBlock: XUDNAN_clean_linker_2, # of connection points: 2
#     Edge 42, Type (0, 1), BuildingBlock: XUDNAN_clean_linker_2, # of connection points: 2
#     Edge 43, Type (0, 1), BuildingBlock: XUDNAN_clean_linker_2, # of connection points: 2
#     Edge 44, Type (0, 1), BuildingBlock: XUDNAN_clean_linker_2, # of connection points: 2
#     Edge 45, Type (0, 1), BuildingBlock: XUDNAN_clean_linker_2, # of connection points: 2
#     Edge 46, Type (0, 1), BuildingBlock: XUDNAN_clean_linker_2, # of connection points: 2
#     Edge 47, Type (0, 1), BuildingBlock: XUDNAN_clean_linker_2, # of connection points: 2
#     Edge 48, Type (0, 1), BuildingBlock: XUDNAN_clean_linker_2, # of connection points: 2
#     Edge 49, Type (0, 1), BuildingBlock: XUDNAN_clean_linker_2, # of connection points: 2
#     Edge 50, Type (0, 1), BuildingBlock: XUDNAN_clean_linker_2, # of connection points: 2
#     Edge 51, Type (0, 1), BuildingBlock: XUDNAN_clean_linker_2, # of connection points: 2
#     Edge 52, Type (0, 1), BuildingBlock: XUDNAN_clean_linker_2, # of connection points: 2
#     Edge 53, Type (0, 1), BuildingBlock: XUDNAN_clean_linker_2, # of connection points: 2
#     Edge 54, Type (0, 1), BuildingBlock: XUDNAN_clean_linker_2, # of connection points: 2
#     Edge 55, Type (0, 1), BuildingBlock: XUDNAN_clean_linker_2, # of connection points: 2
#     Edge 56, Type (0, 1), BuildingBlock: XUDNAN_clean_linker_2, # of connection points: 2
#     Edge 57, Type (0, 1), BuildingBlock: XUDNAN_clean_linker_2, # of connection points: 2
#     Edge 58, Type (0, 1), BuildingBlock: XUDNAN_clean_linker_2, # of connection points: 2
#     Edge 59, Type (0, 1), BuildingBlock: XUDNAN_clean_linker_2, # of connection points: 2
#     Edge 60, Type (0, 1), BuildingBlock: XUDNAN_clean_linker_2, # of connection points: 2
#     Edge 61, Type (0, 1), BuildingBlock: XUDNAN_clean_linker_2, # of connection points: 2
#     Edge 62, Type (0, 1), BuildingBlock: XUDNAN_clean_linker_2, # of connection points: 2
#     Edge 63, Type (0, 1), BuildingBlock: XUDNAN_clean_linker_2, # of connection points: 2
#     Edge 64, Type (0, 1), BuildingBlock: XUDNAN_clean_linker_2, # of connection points: 2
#     Edge 65, Type (0, 1), BuildingBlock: XUDNAN_clean_linker_2, # of connection points: 2
#     Edge 66, Type (0, 1), BuildingBlock: XUDNAN_clean_linker_2, # of connection points: 2
#     Edge 67, Type (0, 1), BuildingBlock: XUDNAN_clean_linker_2, # of connection points: 2
#     Edge 68, Type (0, 1), BuildingBlock: XUDNAN_clean_linker_2, # of connection points: 2
#     Edge 69, Type (0, 1), BuildingBlock: XUDNAN_clean_linker_2, # of connection points: 2
#     Edge 70, Type (0, 1), BuildingBlock: XUDNAN_clean_linker_2, # of connection points: 2
#     Edge 71, Type (0, 1), BuildingBlock: XUDNAN_clean_linker_2, # of connection points: 2
#     Edge 72, Type (0, 1), BuildingBlock: XUDNAN_clean_linker_2, # of connection points: 2
#     Edge 73, Type (0, 1), BuildingBlock: XUDNAN_clean_linker_2, # of connection points: 2
#     Edge 74, Type (0, 1), BuildingBlock: XUDNAN_clean_linker_2, # of connection points: 2
#     Edge 75, Type (0, 1), BuildingBlock: XUDNAN_clean_linker_2, # of connection points: 2
#     Edge 76, Type (0, 1), BuildingBlock: XUDNAN_clean_linker_2, # of connection points: 2
#     Edge 77, Type (0, 1), BuildingBlock: XUDNAN_clean_linker_2, # of connection points: 2
#     Edge 78, Type (0, 1), BuildingBlock: XUDNAN_clean_linker_2, # of connection points: 2
#     Edge 79, Type (0, 1), BuildingBlock: XUDNAN_clean_linker_2, # of connection points: 2
#     Edge 80, Type (0, 1), BuildingBlock: XUDNAN_clean_linker_2, # of connection points: 2
# Relax obj value: 0.023
# Max RMSD: 0.165
# Mean RMSD: 0.119
data_MOF--net-eea--node1-KUMBOL_clean_sbu_0--node2-PAMTOO_clean_linker_0--edge1-XUDNAN_clean_linker_2
_symmetry_space_group_name_H-M    P1
_symmetry_Int_Tables_number       1
_symmetry_cell_setting            triclinic
loop_
_symmetry_equiv_pos_as_xyz
'x, y, z'
_cell_length_a     53.95565
_cell_length_b     55.779752
_cell_length_c     66.348979
_cell_angle_alpha  89.820388
_cell_angle_beta   90.051883
_cell_angle_gamma 119.8927
loop_
_atom_site_label
_atom_site_type_symbol
_atom_site_fract_x
_atom_site_fract_y
_atom_site_fract_z
_atom_type_partial_charge
H0 H 0.2256 0.0601 0.43615 0.0
H1 H 0.23511 0.14126 0.43903 0.0
H2 H 0.21218 0.09712 0.38311 0.0
H3 H 0.25749 0.15851 0.38314 0.0
C4 C 0.24625 0.16527 0.3938 0.0
O5 O 0.22212 0.14258 0.40129 0.0
H6 H 0.26118 0.17663 0.40636 0.0
C7 C 0.22498 0.07715 0.42877 0.0
C8 C 0.21808 0.07542 0.4082 0.0
C9 C 0.23139 0.10085 0.43992 0.0
C10 C 0.23031 0.12286 0.43055 0.0
C11 C 0.22322 0.12132 0.41015 0.0
C12 C 0.21722 0.09777 0.39897 0.0
H13 H 0.95811 0.17892 0.4309 0.0
H14 H 0.88122 0.09924 0.43351 0.0
H15 H 0.93727 0.1204 0.38279 0.0
H16 H 0.87822 0.08168 0.37132 0.0
C17 C 0.86921 0.07478 0.38669 0.0
O18 O 0.89133 0.08129 0.40003 0.0
H19 H 0.85737 0.08564 0.39089 0.0
C20 C 0.94345 0.1592 0.42413 0.0
C21 C 0.95032 0.15255 0.40529 0.0
C22 C 0.9185 0.14041 0.43457 0.0
C23 C 0.9007 0.1142 0.42602 0.0
C24 C 0.90778 0.10701 0.40755 0.0
C25 C 0.93239 0.12616 0.3972 0.0
H26 H 0.85386 0.79037 0.43138 0.0
H27 H 0.93779 0.79912 0.43318 0.0
H28 H 0.90333 0.80802 0.37694 0.0
H29 H 0.93102 0.77067 0.38049 0.0
C30 C 0.95012 0.78523 0.38942 0.0
O31 O 0.94761 0.80805 0.39438 0.0
H32 H 0.95031 0.77441 0.40348 0.0
C33 C 0.87369 0.79517 0.42391 0.0
C34 C 0.87629 0.80026 0.40306 0.0
C35 C 0.89558 0.79446 0.43496 0.0
C36 C 0.92079 0.79975 0.42491 0.0
C37 C 0.92385 0.80487 0.40402 0.0
C38 C 0.90144 0.80499 0.39312 0.0
H39 H 0.08125 0.23163 0.60144 0.0
H40 H 0.15498 0.22111 0.60525 0.0
H41 H 0.09945 0.20209 0.65639 0.0
H42 H 0.14436 0.17325 0.62636 0.0
C43 C 0.14997 0.18231 0.64174 0.0
O44 O 0.14746 0.20584 0.64289 0.0
H45 H 0.13481 0.16677 0.65266 0.0
C46 C 0.09403 0.22482 0.60965 0.0
C47 C 0.08687 0.216 0.6298 0.0
C48 C 0.11844 0.22667 0.60047 0.0
C49 C 0.13576 0.21937 0.6118 0.0
C50 C 0.12874 0.21 0.63176 0.0
C51 C 0.10407 0.20802 0.64068 0.0
H52 H 0.78687 0.84599 0.60304 0.0
H53 H 0.79642 0.92736 0.60242 0.0
H54 H 0.80765 0.89396 0.6576 0.0
H55 H 0.77236 0.92121 0.65975 0.0
C56 C 0.78408 0.93782 0.64838 0.0
O57 O 0.80678 0.9359 0.6408 0.0
H58 H 0.76887 0.93507 0.63605 0.0
C59 C 0.79165 0.86487 0.61083 0.0
C60 C 0.7976 0.86731 0.63159 0.0
C61 C 0.79128 0.88642 0.60009 0.0
C62 C 0.79722 0.9107 0.61029 0.0
C63 C 0.80271 0.91312 0.63098 0.0
C64 C 0.80308 0.89161 0.6416 0.0
H65 H 0.17851 0.93178 0.60025 0.0
H66 H 0.09204 0.86325 0.59683 0.0
H67 H 0.11746 0.91706 0.64743 0.0
H68 H 0.08435 0.86048 0.6599 0.0
C69 C 0.0735 0.85095 0.64545 0.0
O70 O 0.07708 0.87149 0.63208 0.0
H71 H 0.08343 0.83921 0.63915 0.0
C72 C 0.15707 0.92017 0.60631 0.0
C73 C 0.15084 0.92788 0.62507 0.0
C74 C 0.13607 0.89691 0.59573 0.0
C75 C 0.1088 0.88111 0.60447 0.0
C76 C 0.10265 0.88809 0.62325 0.0
C77 C 0.12321 0.9117 0.63319 0.0
H78 H 0.91567 0.40445 0.76332 0.0
H79 H 0.90427 0.47518 0.76829 0.0
H80 H 0.88209 0.42909 0.71331 0.0
H81 H 0.90718 0.48921 0.70621 0.0
C82 C 0.90251 0.49487 0.72123 0.0
O83 O 0.88439 0.47107 0.73167 0.0
H84 H 0.92295 0.50703 0.72958 0.0
C85 C 0.9089 0.41804 0.7567 0.0
C86 C 0.89874 0.41383 0.73675 0.0
C87 C 0.91077 0.43992 0.76825 0.0
C88 C 0.90317 0.45829 0.75955 0.0
C89 C 0.89315 0.45434 0.73968 0.0
C90 C 0.89078 0.43218 0.72841 0.0
H91 H 0.60861 0.50523 0.76198 0.0
H92 H 0.55157 0.41682 0.76002 0.0
H93 H 0.60497 0.45835 0.70952 0.0
H94 H 0.54562 0.41404 0.69695 0.0
C95 C 0.53921 0.40368 0.7119 0.0
O96 O 0.56344 0.41116 0.72332 0.0
H97 H 0.52539 0.41064 0.71936 0.0
C98 C 0.59989 0.48554 0.75436 0.0
C99 C 0.61009 0.48466 0.73496 0.0
C100 C 0.57853 0.46127 0.76377 0.0
C101 C 0.56752 0.43607 0.75327 0.0
C102 C 0.57645 0.43521 0.73367 0.0
C103 C 0.59806 0.45932 0.72467 0.0
H104 H 0.51757 0.1104 0.76675 0.0
H105 H 0.6051 0.1283 0.76461 0.0
H106 H 0.56647 0.141 0.7121 0.0
H107 H 0.60972 0.12217 0.70209 0.0
C108 C 0.62005 0.1267 0.71716 0.0
O109 O 0.61375 0.14472 0.72728 0.0
H110 H 0.61117 0.1068 0.7256 0.0
C111 C 0.53745 0.11739 0.75865 0.0
C112 C 0.53904 0.12543 0.73834 0.0
C113 C 0.56108 0.11839 0.76852 0.0
C114 C 0.58672 0.12786 0.75763 0.0
C115 C 0.58878 0.13603 0.7374 0.0
C116 C 0.56498 0.13505 0.72781 0.0
H117 H 0.74935 0.56496 0.93643 0.0
H118 H 0.82857 0.56388 0.93451 0.0
H119 H 0.77503 0.5341 0.98709 0.0
H120 H 0.82759 0.55102 1.00103 0.0
C121 C 0.84001 0.55864 0.98681 0.0
O122 O 0.82319 0.54286 0.97093 0.0
H123 H 0.84548 0.58058 0.98474 0.0
C124 C 0.76466 0.56046 0.94358 0.0
C125 C 0.75935 0.54951 0.9632 0.0
C126 C 0.78922 0.56532 0.93289 0.0
C127 C 0.80935 0.56002 0.9424 0.0
C128 C 0.80404 0.54846 0.96187 0.0
C129 C 0.77882 0.54278 0.97203 0.0
H130 H 0.45971 0.17825 0.93349 0.0
H131 H 0.46983 0.25956 0.92691 0.0
H132 H 0.48613 0.23402 0.9839 0.0
H133 H 0.45069 0.26099 0.98469 0.0
C134 C 0.46156 0.27641 0.97243 0.0
O135 O 0.48331 0.27333 0.96433 0.0
H136 H 0.44547 0.27284 0.96058 0.0
C137 C 0.46571 0.1984 0.93963 0.0
C138 C 0.47387 0.20392 0.95995 0.0
C139 C 0.46394 0.21818 0.9275 0.0
C140 C 0.47075 0.2438 0.93594 0.0
C141 C 0.47826 0.24919 0.95624 0.0
C142 C 0.47998 0.22941 0.96822 0.0
H143 H 0.83678 0.27154 0.92997 0.0
H144 H 0.75274 0.20096 0.93678 0.0
H145 H 0.79244 0.25648 0.98664 0.0
H146 H 0.75024 0.20624 1.00461 0.0
C147 C 0.74713 0.19486 0.99028 0.0
O148 O 0.74635 0.21092 0.97459 0.0
H149 H 0.76585 0.19168 0.98849 0.0
C150 C 0.81813 0.2592 0.93929 0.0
C151 C 0.81792 0.26672 0.95946 0.0
C152 C 0.79477 0.23579 0.93097 0.0
C153 C 0.77075 0.21933 0.943 0.0
C154 C 0.76966 0.22698 0.963 0.0
C155 C 0.79308 0.25101 0.97108 0.0
H156 H 0.5836 0.73787 0.0998 0.0
H157 H 0.57017 0.80755 0.10343 0.0
H158 H 0.55234 0.76217 0.04826 0.0
H159 H 0.57428 0.8215 0.04057 0.0
C160 C 0.57033 0.82714 0.05581 0.0
O161 O 0.55208 0.80332 0.0662 0.0
H162 H 0.59113 0.83877 0.06384 0.0
C163 C 0.57682 0.75124 0.09279 0.0
C164 C 0.5681 0.74726 0.07251 0.0
C165 C 0.57757 0.77284 0.10407 0.0
C166 C 0.56986 0.79086 0.09489 0.0
C167 C 0.5609 0.7869 0.07476 0.0
C168 C 0.55992 0.76518 0.06368 0.0
H169 H 0.27833 0.84362 0.09334 0.0
H170 H 0.21956 0.75557 0.09195 0.0
H171 H 0.27836 0.79471 0.04338 0.0
H172 H 0.22317 0.74494 0.02713 0.0
C173 C 0.21348 0.74145 0.0424 0.0
O174 O 0.23478 0.74822 0.05658 0.0
H175 H 0.20396 0.75511 0.04369 0.0
C176 C 0.26986 0.82365 0.08618 0.0
C177 C 0.28154 0.82201 0.0676 0.0
C178 C 0.24748 0.79989 0.09541 0.0
C179 C 0.23647 0.77439 0.08533 0.0
C180 C 0.24713 0.77266 0.06651 0.0
C181 C 0.27009 0.79629 0.05789 0.0
H182 H 0.18976 0.45466 0.09664 0.0
H183 H 0.27184 0.45952 0.09929 0.0
H184 H 0.24653 0.48474 0.04549 0.0
H185 H 0.28132 0.4589 0.03661 0.0
C186 C 0.29254 0.4623 0.05128 0.0
O187 O 0.28768 0.48004 0.06294 0.0
H188 H 0.28384 0.44199 0.05912 0.0
C189 C 0.20969 0.45928 0.08941 0.0
C190 C 0.21521 0.46951 0.06956 0.0
C191 C 0.22996 0.4557 0.10027 0.0
C192 C 0.25589 0.46192 0.091 0.0
C193 C 0.26188 0.47246 0.07128 0.0
C194 C 0.24163 0.47639 0.06065 0.0
H195 H 0.41706 0.911 0.27116 0.0
H196 H 0.49154 0.90122 0.27029 0.0
H197 H 0.43341 0.86966 0.32 0.0
H198 H 0.49505 0.89389 0.3325 0.0
C199 C 0.5038 0.8924 0.3177 0.0
O200 O 0.48141 0.87612 0.30486 0.0
H201 H 0.51637 0.91365 0.3113 0.0
C202 C 0.43031 0.90375 0.27806 0.0
C203 C 0.42172 0.88948 0.29662 0.0
C204 C 0.45553 0.90833 0.26823 0.0
C205 C 0.47242 0.89869 0.27756 0.0
C206 C 0.46471 0.8852 0.29626 0.0
C207 C 0.43931 0.88041 0.30565 0.0
H208 H 0.12316 0.51172 0.26656 0.0
H209 H 0.12331 0.58896 0.26739 0.0
H210 H 0.14468 0.56077 0.32091 0.0
H211 H 0.12098 0.59753 0.33121 0.0
C212 C 0.12124 0.60443 0.31543 0.0
O213 O 0.14106 0.6011 0.30449 0.0
H214 H 0.09939 0.59159 0.30907 0.0
C215 C 0.1257 0.52953 0.27482 0.0
C216 C 0.13464 0.53339 0.29515 0.0
C217 C 0.12139 0.54937 0.26466 0.0
C218 C 0.12624 0.5733 0.27495 0.0
C219 C 0.13483 0.57727 0.29509 0.0
C220 C 0.13852 0.55728 0.30519 0.0
H221 H 0.50449 0.61265 0.26292 0.0
H222 H 0.4283 0.53277 0.26277 0.0
H223 H 0.45282 0.58143 0.3166 0.0
H224 H 0.42521 0.52403 0.32559 0.0
C225 C 0.4121 0.51512 0.3118 0.0
O226 O 0.41363 0.53609 0.29984 0.0
H227 H 0.4207 0.50361 0.30336 0.0
C228 C 0.48629 0.59648 0.27092 0.0
C229 C 0.48162 0.6002 0.29122 0.0
C230 C 0.46735 0.5722 0.26061 0.0
C231 C 0.44336 0.55138 0.27067 0.0
C232 C 0.43805 0.55505 0.29074 0.0
C233 C 0.4572 0.57921 0.301 0.0
Gd234 Gd 0.5158 0.02279 0.04812 0.0
Gd235 Gd 0.50311 0.00312 0.99473 0.0
C236 C 0.41002 0.93877 0.98223 0.0
C237 C 0.41371 0.89889 0.97196 0.0
C238 C 0.45642 0.94195 0.98084 0.0
C239 C 0.4399 0.9539 0.985 0.0
C240 C 0.4436 0.9146 0.97361 0.0
C241 C 0.39694 0.91098 0.97625 0.0
C242 C 0.39432 0.95231 0.98485 0.0
C243 C 0.40858 0.98045 0.98947 0.0
N244 N 0.45325 0.98086 0.99056 0.0
C245 C 0.43824 0.99451 0.99217 0.0
H246 H 0.44897 0.01622 0.99563 0.0
C247 C 0.50255 0.94892 0.97411 0.0
N248 N 0.48524 0.95795 0.98207 0.0
C249 C 0.4909 0.92177 0.96717 0.0
C250 C 0.46128 0.90434 0.96728 0.0
H251 H 0.52549 0.96246 0.97393 0.0
H252 H 0.37398 0.89891 0.97431 0.0
H253 H 0.55124 0.99323 0.07107 0.0
H254 H 0.37133 0.94143 0.98284 0.0
H255 H 0.39674 0.99129 0.99108 0.0
H256 H 0.40343 0.87771 0.96671 0.0
H257 H 0.51636 0.08394 0.05047 0.0
H258 H 0.63971 0.05352 0.07427 0.0
H259 H 0.60046 0.00544 0.07872 0.0
H260 H 0.64097 0.13794 0.05988 0.0
H261 H 0.50474 0.91438 0.96164 0.0
H262 H 0.45227 0.88342 0.96167 0.0
H263 H 0.65462 0.1029 0.06711 0.0
H264 H 0.55085 0.13333 0.05022 0.0
N265 N 0.56222 0.03309 0.05919 0.0
C266 C 0.61808 0.04809 0.0702 0.0
C267 C 0.59603 0.02095 0.07265 0.0
C268 C 0.61164 0.06823 0.0638 0.0
C269 C 0.58311 0.06004 0.05853 0.0
C270 C 0.56805 0.014 0.06773 0.0
N271 N 0.54767 0.07118 0.05031 0.0
C272 C 0.57559 0.07971 0.05396 0.0
C273 C 0.55827 0.11853 0.05078 0.0
C274 C 0.58729 0.12758 0.05275 0.0
C275 C 0.53867 0.0902 0.05022 0.0
C276 C 0.59623 0.10813 0.05498 0.0
H277 H 0.60242 0.14955 0.05351 0.0
O278 O 0.49094 0.0332 0.06851 0.0
O279 O 0.48232 0.99925 0.02466 0.0
O280 O 0.50423 0.04344 0.99993 0.0
O281 O 0.49192 0.042 0.03351 0.0
O282 O 0.48044 0.97888 0.05147 0.0
O283 O 0.512 0.01107 0.07992 0.0
O284 O 0.52858 0.01326 0.96727 0.0
O285 O 0.5344 0.03295 0.01712 0.0
O286 O 0.52421 0.98763 0.04254 0.0
O287 O 0.50842 0.96978 0.01025 0.0
O288 O 0.54894 0.01388 0.99715 0.0
O289 O 0.49435 0.02239 0.96922 0.0
C290 C 0.46814 0.97678 0.0344 0.0
C291 C 0.62484 0.11625 0.05915 0.0
C292 C 0.6326 0.09631 0.06336 0.0
C293 C 0.49541 0.02117 0.08382 0.0
C294 C 0.48369 0.02031 0.10418 0.0
C295 C 0.46673 0.03258 0.10728 0.0
C296 C 0.48736 0.00557 0.1202 0.0
C297 C 0.47357 0.00262 0.13888 0.0
C298 C 0.45336 0.02994 0.12579 0.0
C299 C 0.45656 0.01495 0.14143 0.0
C300 C 0.49525 0.05227 0.01512 0.0
C301 C 0.55617 0.03173 0.01149 0.0
C302 C 0.51396 0.02254 0.95777 0.0
C303 C 0.50557 0.01308 0.93684 0.0
C304 C 0.48569 0.98536 0.93281 0.0
C305 C 0.51745 0.03196 0.92071 0.0
C306 C 0.50986 0.02312 0.90055 0.0
C307 C 0.4782 0.97638 0.91301 0.0
C308 C 0.49026 0.99496 0.89701 0.0
C309 C 0.51848 0.96911 0.02828 0.0
H310 H 0.4634 0.04389 0.09529 0.0
H311 H 0.50017 0.99578 0.11801 0.0
H312 H 0.44026 0.0394 0.12797 0.0
H313 H 0.44599 0.0133 0.15567 0.0
H314 H 0.47596 0.97063 0.94491 0.0
H315 H 0.5323 0.0535 0.92396 0.0
H316 H 0.46306 0.95485 0.91004 0.0
H317 H 0.48443 0.98705 0.88183 0.0
Gd318 Gd 1.00279 0.48849 0.04112 0.0
Gd319 Gd 0.03422 0.50202 0.98967 0.0
C320 C 0.11885 0.5049 0.97667 0.0
C321 C 0.14912 0.55255 0.96588 0.0
C322 C 0.09951 0.53575 0.97499 0.0
C323 C 0.09598 0.51004 0.97926 0.0
C324 C 0.12584 0.55709 0.96762 0.0
C325 C 0.14565 0.52649 0.97045 0.0
C326 C 0.11389 0.47806 0.97993 0.0
C327 C 0.0864 0.457 0.98488 0.0
N328 N 0.06974 0.48969 0.98503 0.0
C329 C 0.06436 0.46313 0.98705 0.0
H330 H 0.04329 0.44667 0.99099 0.0
C331 C 0.07767 0.5629 0.9698 0.0
N332 N 0.07651 0.53926 0.97671 0.0
C333 C 0.10322 0.5846 0.96219 0.0
C334 C 0.12761 0.58193 0.96149 0.0
H335 H 0.05902 0.56526 0.97044 0.0
H336 H 0.16358 0.52304 0.96859 0.0
H337 H 0.99375 0.54292 0.04859 0.0
H338 H 0.13092 0.47327 0.97824 0.0
H339 H 0.08219 0.43607 0.98711 0.0
H340 H 0.16965 0.5688 0.96048 0.0
H341 H 0.97723 0.42138 0.05175 0.0
H342 H 0.90521 0.51319 0.0607 0.0
H343 H 0.95439 0.55216 0.05583 0.0
H344 H 0.86565 0.41494 0.06469 0.0
H345 H 0.10411 0.60341 0.95696 0.0
H346 H 0.14741 0.59882 0.95567 0.0
H347 H 0.87203 0.46182 0.06345 0.0
H348 H 0.93092 0.38015 0.06011 0.0
N349 N 0.96686 0.49925 0.0484 0.0
C350 C 0.92236 0.50903 0.05738 0.0
C351 C 0.9501 0.53107 0.0547 0.0
C352 C 0.91726 0.48187 0.05646 0.0
C353 C 0.94036 0.47763 0.05215 0.0
C354 C 0.97231 0.52576 0.05053 0.0
N355 N 0.96006 0.4484 0.05028 0.0
C356 C 0.93683 0.45134 0.05314 0.0
C357 C 0.93228 0.40004 0.05814 0.0
C358 C 0.90787 0.40248 0.06021 0.0
C359 C 0.95848 0.42343 0.05349 0.0
C360 C 0.91003 0.42843 0.05804 0.0
H361 H 0.88763 0.38435 0.06391 0.0
O362 O 0.01712 0.4774 0.06828 0.0
O363 O 0.03848 0.49366 0.02173 0.0
O364 O 1.00463 0.45644 0.99711 0.0
O365 O 0.97166 0.45566 0.01986 0.0
O366 O 0.0247 0.46274 0.04281 0.0
O367 O 0.01633 0.51591 0.06703 0.0
O368 O 0.01566 0.50817 0.9625 0.0
O369 O 1.00055 0.50044 0.00965 0.0
O370 O 0.03337 0.53479 0.0358 0.0
O371 O 0.06322 0.53931 0.0085 0.0
O372 O 0.01476 0.52946 0.98668 0.0
O373 O 0.01983 0.4717 0.96561 0.0
C374 C 0.04378 0.47593 0.0292 0.0
C375 C 0.88652 0.43232 0.06115 0.0
C376 C 0.89015 0.45901 0.06042 0.0
C377 C 0.02104 0.49922 0.07811 0.0
C378 C 1.01015 0.4944 0.09886 0.0
C379 C 0.98076 0.47916 0.10285 0.0
C380 C 0.02963 0.50447 0.11493 0.0
C381 C 0.01994 0.49946 0.13504 0.0
C382 C 0.97095 0.47401 0.12273 0.0
C383 C 0.99034 0.48404 0.13874 0.0
C384 C 0.97887 0.444 0.00545 0.0
C385 C 0.9974 0.51936 1.00166 0.0
C386 C 0.01292 0.48613 0.95377 0.0
C387 C 0.02323 0.48987 0.93294 0.0
C388 C 0.05257 0.50348 0.92863 0.0
C389 C 1.00342 0.48049 0.91711 0.0
C390 C 0.01276 0.48479 0.89696 0.0
C391 C 0.06201 0.50795 0.90868 0.0
C392 C 0.04227 0.49875 0.89289 0.0
C393 C 0.05713 0.5491 0.02487 0.0
H394 H 0.96548 0.47116 0.09065 0.0
H395 H 0.05235 0.51588 0.11172 0.0
H396 H 0.94822 0.46225 0.12574 0.0
H397 H 0.98212 0.48012 0.154 0.0
H398 H 0.06812 0.51071 0.94064 0.0
H399 H 0.98074 0.47016 0.92051 0.0
H400 H 0.08469 0.51851 0.90543 0.0
H401 H 0.05007 0.5021 0.87752 0.0
Gd402 Gd 0.52563 0.5233 0.98791 0.0
Gd403 Gd 0.54405 0.52006 0.04142 0.0
C404 C 0.62975 0.52736 0.05787 0.0
C405 C 0.61494 0.48235 0.07281 0.0
C406 C 0.57941 0.49352 0.06057 0.0
C407 C 0.60082 0.51939 0.05462 0.0
C408 C 0.58616 0.47499 0.07027 0.0
C409 C 0.63671 0.50847 0.06656 0.0
C410 C 0.65078 0.55428 0.05275 0.0
C411 C 0.64265 0.57278 0.04532 0.0
N412 N 0.5933 0.53722 0.04651 0.0
C413 C 0.61366 0.564 0.04259 0.0
H414 H 0.60784 0.57857 0.03674 0.0
C415 C 0.53003 0.46358 0.06623 0.0
N416 N 0.55188 0.48719 0.05804 0.0
C417 C 0.53562 0.44448 0.07593 0.0
C418 C 0.5638 0.45002 0.0777 0.0
H419 H 0.50821 0.4592 0.06479 0.0
H420 H 0.65882 0.51412 0.06901 0.0
H421 H 0.46356 0.46269 0.99037 0.0
H422 H 0.67325 0.56116 0.05489 0.0
H423 H 0.65872 0.5938 0.04163 0.0
H424 H 0.62059 0.46828 0.08003 0.0
H425 H 0.55819 0.58439 0.96441 0.0
H426 H 0.39521 0.47814 0.97722 0.0
H427 H 0.41212 0.44577 0.98663 0.0
H428 H 0.44372 0.57326 0.95677 0.0
H429 H 0.51822 0.4255 0.08199 0.0
H430 H 0.56809 0.43523 0.08527 0.0
H431 H 0.40721 0.52602 0.96653 0.0
H432 H 0.54583 0.61817 0.95006 0.0
N433 N 0.47602 0.50458 0.98358 0.0
C434 C 0.41791 0.48574 0.9788 0.0
C435 C 0.42738 0.46739 0.98405 0.0
C436 C 0.43792 0.51348 0.97497 0.0
C437 C 0.46722 0.52234 0.97739 0.0
C438 C 0.45667 0.47713 0.98615 0.0
N439 N 0.51557 0.55605 0.97343 0.0
C440 C 0.48767 0.54902 0.97226 0.0
C441 C 0.52929 0.59892 0.95644 0.0
C442 C 0.50088 0.59296 0.95661 0.0
C443 C 0.53621 0.57982 0.96453 0.0
C444 C 0.47954 0.56744 0.96409 0.0
H445 H 0.49552 0.60768 0.95018 0.0
O446 O 0.5507 0.53175 0.96052 0.0
O447 O 0.55696 0.52333 0.0094 0.0
O448 O 0.55832 0.5641 0.03186 0.0
O449 O 0.53356 0.56287 1.00249 0.0
O450 O 0.57371 0.55062 0.98571 0.0
O451 O 0.5117 0.49259 0.96403 0.0
O452 O 0.51831 0.51361 0.06818 0.0
O453 O 0.51223 0.51958 0.01997 0.0
O454 O 0.51319 0.4792 0.99745 0.0
O455 O 0.53813 0.48142 0.02698 0.0
O456 O 0.4964 0.49116 0.04318 0.0
O457 O 0.55816 0.55208 0.06417 0.0
C458 C 0.58007 0.5407 1.00118 0.0
C459 C 0.45041 0.55926 0.96273 0.0
C460 C 0.42962 0.53234 0.96823 0.0
C461 C 0.53255 0.50859 0.95194 0.0
C462 C 0.52469 0.5109 0.93103 0.0
C463 C 0.50897 0.52418 0.9269 0.0
C464 C 0.53312 0.50008 0.91498 0.0
C465 C 0.52575 0.50265 0.89505 0.0
C466 C 0.50218 0.5272 0.90713 0.0
C467 C 0.51047 0.51646 0.89127 0.0
C468 C 0.54921 0.57562 0.01847 0.0
C469 C 0.48948 0.501 0.02796 0.0
C470 C 0.53682 0.53707 0.07622 0.0
C471 C 0.54389 0.53578 0.09741 0.0
C472 C 0.56452 0.5286 0.10269 0.0
C473 C 0.52927 0.54117 0.11258 0.0
C474 C 0.53509 0.53932 0.13303 0.0
C475 C 0.57022 0.52646 0.12292 0.0
C476 C 0.5556 0.53174 0.13804 0.0
C477 C 0.52288 0.46817 0.01096 0.0
H478 H 0.50175 0.53209 0.93887 0.0
H479 H 0.54479 0.48929 0.91798 0.0
H480 H 0.49012 0.53757 0.90414 0.0
H481 H 0.50449 0.51844 0.87602 0.0
H482 H 0.57624 0.52471 0.09124 0.0
H483 H 0.51322 0.54658 0.10845 0.0
H484 H 0.58617 0.52089 0.1269 0.0
H485 H 0.56081 0.53048 0.15363 0.0
Gd486 Gd 0.18001 0.34661 0.37582 0.0
Gd487 Gd 0.16355 0.32946 0.3217 0.0
C488 C 0.0737 0.25782 0.30852 0.0
C489 C 0.08381 0.22344 0.29442 0.0
C490 C 0.1227 0.26841 0.30458 0.0
C491 C 0.1033 0.27618 0.31064 0.0
C492 C 0.11325 0.2424 0.2956 0.0
C493 C 0.06405 0.23111 0.30095 0.0
C494 C 0.05475 0.26715 0.31349 0.0
C495 C 0.06555 0.29452 0.31952 0.0
N496 N 0.11346 0.30227 0.31757 0.0
C497 C 0.09511 0.31202 0.32117 0.0
H498 H 0.10296 0.333 0.32601 0.0
C499 C 0.17057 0.283 0.29596 0.0
N500 N 0.15088 0.28736 0.3057 0.0
C501 C 0.16237 0.25745 0.28699 0.0
C502 C 0.13362 0.23681 0.28719 0.0
H503 H 0.19279 0.29903 0.29575 0.0
H504 H 0.04139 0.2166 0.29944 0.0
H505 H 0.24476 0.34866 0.37404 0.0
H506 H 0.03185 0.25365 0.3122 0.0
H507 H 0.05111 0.30213 0.323 0.0
H508 H 0.07611 0.20319 0.28785 0.0
H509 H 0.14315 0.37175 0.40004 0.0
H510 H 0.30868 0.42963 0.39156 0.0
H511 H 0.29498 0.38276 0.37962 0.0
H512 H 0.25517 0.47161 0.41421 0.0
H513 H 0.17819 0.25374 0.27989 0.0
H514 H 0.12726 0.2171 0.28011 0.0
H515 H 0.29366 0.46272 0.40412 0.0
H516 H 0.15306 0.41532 0.41652 0.0
N517 N 0.22921 0.37597 0.38193 0.0
C518 C 0.28632 0.41469 0.38914 0.0
C519 C 0.27867 0.38823 0.38243 0.0
C520 C 0.265 0.42122 0.39338 0.0
C521 C 0.23618 0.40109 0.38982 0.0
C522 C 0.24987 0.36886 0.37922 0.0
N523 N 0.1868 0.3861 0.39292 0.0
C524 C 0.21442 0.40627 0.39546 0.0
C525 C 0.17046 0.41313 0.41052 0.0
C526 C 0.19859 0.43489 0.412 0.0
C527 C 0.16493 0.38851 0.40122 0.0
C528 C 0.22102 0.43145 0.40482 0.0
H529 H 0.20282 0.45393 0.41927 0.0
O530 O 0.15841 0.3075 0.39234 0.0
O531 O 0.1488 0.31908 0.35335 0.0
O532 O 0.15327 0.36292 0.33063 0.0
O533 O 0.17253 0.3796 0.36259 0.0
O534 O 0.13298 0.33295 0.37591 0.0
O535 O 0.1862 0.34481 0.40821 0.0
O536 O 0.18934 0.34546 0.29462 0.0
O537 O 0.19482 0.35789 0.34418 0.0
O538 O 0.19754 0.31938 0.36523 0.0
O539 O 0.17298 0.29773 0.33544 0.0
O540 O 0.21133 0.34698 0.32014 0.0
O541 O 0.1518 0.34949 0.29841 0.0
C542 C 0.12606 0.31619 0.36085 0.0
C543 C 0.24971 0.452 0.40731 0.0
C544 C 0.27163 0.44692 0.40157 0.0
C545 C 0.16786 0.31863 0.40986 0.0
C546 C 0.14662 0.31038 0.42634 0.0
C547 C 0.12161 0.31188 0.42371 0.0
C548 C 0.15142 0.30118 0.445 0.0
C549 C 0.13141 0.29361 0.46093 0.0
C550 C 0.10182 0.30449 0.43928 0.0
C551 C 0.10666 0.29557 0.45775 0.0
C552 C 0.16061 0.381 0.34553 0.0
C553 C 0.21777 0.36203 0.33612 0.0
C554 C 0.17246 0.35307 0.28636 0.0
C555 C 0.16481 0.34498 0.26518 0.0
C556 C 0.1452 0.31753 0.26012 0.0
C557 C 0.17781 0.36477 0.24979 0.0
C558 C 0.17154 0.35711 0.22939 0.0
C559 C 0.13911 0.30974 0.23997 0.0
C560 C 0.15222 0.32933 0.22467 0.0
C561 C 0.18891 0.29975 0.35133 0.0
H562 H 0.11725 0.31889 0.40974 0.0
H563 H 0.17057 0.29974 0.447 0.0
H564 H 0.08272 0.30593 0.4371 0.0
H565 H 0.09116 0.29071 0.46966 0.0
H566 H 0.13459 0.30212 0.27168 0.0
H567 H 0.19296 0.38602 0.25368 0.0
H568 H 0.12401 0.28848 0.23619 0.0
H569 H 0.14669 0.32285 0.20916 0.0
Gd570 Gd 0.66795 0.82207 0.37891 0.0
Gd571 Gd 0.69609 0.83327 0.32713 0.0
C572 C 0.7717 0.82062 0.31327 0.0
C573 C 0.80901 0.86724 0.3048 0.0
C574 C 0.76141 0.85816 0.31377 0.0
C575 C 0.75266 0.83058 0.3168 0.0
C576 C 0.78938 0.87664 0.30703 0.0
C577 C 0.80014 0.83924 0.30785 0.0
C578 C 0.76122 0.79211 0.31425 0.0
C579 C 0.73212 0.77426 0.31761 0.0
N580 N 0.72481 0.8131 0.32137 0.0
C581 C 0.71405 0.78514 0.3209 0.0
H582 H 0.69167 0.77104 0.32362 0.0
C583 C 0.74753 0.89175 0.30862 0.0
N584 N 0.74165 0.86628 0.31541 0.0
C585 C 0.77506 0.91094 0.30202 0.0
C586 C 0.79627 0.90355 0.30165 0.0
H587 H 0.73117 0.89755 0.30907 0.0
H588 H 0.81517 0.83202 0.30531 0.0
H589 H 0.66656 0.88178 0.38046 0.0
H590 H 0.77516 0.78363 0.31168 0.0
H591 H 0.72361 0.75212 0.31783 0.0
H592 H 0.83072 0.88119 0.2999 0.0
H593 H 0.63597 0.75605 0.39413 0.0
H594 H 0.58151 0.86301 0.39469 0.0
H595 H 0.63159 0.89712 0.38612 0.0
H596 H 0.53305 0.76559 0.40822 0.0
H597 H 0.77991 0.93143 0.29731 0.0
H598 H 0.81753 0.91839 0.29641 0.0
H599 H 0.5448 0.81381 0.40278 0.0
H600 H 0.58839 0.7198 0.40583 0.0
N601 N 0.63658 0.83911 0.38524 0.0
C602 C 0.59681 0.85611 0.39225 0.0
C603 C 0.62507 0.87542 0.38746 0.0
C604 C 0.58882 0.82821 0.39433 0.0
C605 C 0.60952 0.82029 0.39081 0.0
C606 C 0.64488 0.86658 0.38427 0.0
N607 N 0.62365 0.78664 0.39092 0.0
C608 C 0.60283 0.79318 0.39375 0.0
C609 C 0.59213 0.74032 0.4024 0.0
C610 C 0.57008 0.74639 0.4045 0.0
C611 C 0.61906 0.76091 0.39582 0.0
C612 C 0.57537 0.77318 0.40044 0.0
H613 H 0.54925 0.73042 0.40965 0.0
O614 O 0.68203 0.81011 0.40582 0.0
O615 O 0.70161 0.82332 0.3587 0.0
O616 O 0.65993 0.78826 0.33218 0.0
O617 O 0.63409 0.78919 0.36005 0.0
O618 O 0.68285 0.79077 0.37876 0.0
O619 O 0.68501 0.85032 0.4041 0.0
O620 O 0.68508 0.84733 0.29983 0.0
O621 O 0.6633 0.83237 0.34745 0.0
O622 O 0.7007 0.86703 0.37342 0.0
O623 O 0.72864 0.86948 0.34574 0.0
O624 O 0.67926 0.8634 0.32638 0.0
O625 O 0.67756 0.80542 0.30171 0.0
C626 C 0.70216 0.80221 0.36504 0.0
C627 C 0.55436 0.78071 0.40327 0.0
C628 C 0.56106 0.80817 0.40019 0.0
C629 C 0.68825 0.83285 0.4153 0.0
C630 C 0.67796 0.82967 0.43607 0.0
C631 C 0.64868 0.81656 0.44047 0.0
C632 C 0.69793 0.8399 0.45174 0.0
C633 C 0.68882 0.8371 0.47187 0.0
C634 C 0.63945 0.81359 0.46043 0.0
C635 C 0.65936 0.82376 0.47609 0.0
C636 C 0.6365 0.7773 0.3436 0.0
C637 C 0.66063 0.85207 0.34058 0.0
C638 C 0.67692 0.82418 0.29032 0.0
C639 C 0.68753 0.82658 0.26963 0.0
C640 C 0.71687 0.83894 0.26558 0.0
C641 C 0.66794 0.81681 0.25365 0.0
C642 C 0.67753 0.81963 0.23362 0.0
C643 C 0.72655 0.84187 0.24573 0.0
C644 C 0.70705 0.83239 0.22981 0.0
C645 C 0.72426 0.87993 0.36242 0.0
H646 H 0.63301 0.80868 0.42858 0.0
H647 H 0.72055 0.8498 0.44824 0.0
H648 H 0.61681 0.80348 0.46376 0.0
H649 H 0.65173 0.82157 0.49145 0.0
H650 H 0.73227 0.84637 0.27765 0.0
H651 H 0.64525 0.80735 0.25681 0.0
H652 H 0.74923 0.85146 0.2427 0.0
H653 H 0.71502 0.83458 0.21454 0.0
Gd654 Gd 0.18376 0.85924 0.31733 0.0
Gd655 Gd 0.19837 0.84825 0.3704 0.0
C656 C 0.28996 0.86807 0.38415 0.0
C657 C 0.28266 0.82327 0.39476 0.0
C658 C 0.24207 0.82867 0.38551 0.0
C659 C 0.26019 0.85631 0.38141 0.0
C660 C 0.253 0.81193 0.39266 0.0
C661 C 0.30112 0.8513 0.39048 0.0
C662 C 0.3076 0.89639 0.3807 0.0
C663 C 0.2954 0.91237 0.37524 0.0
N664 N 0.24866 0.87182 0.37514 0.0
C665 C 0.26578 0.89981 0.37275 0.0
H666 H 0.25713 0.91275 0.36843 0.0
C667 C 0.19467 0.7921 0.38954 0.0
N668 N 0.21361 0.81838 0.38328 0.0
C669 C 0.20441 0.77462 0.39662 0.0
C670 C 0.23375 0.78446 0.39793 0.0
H671 H 0.17192 0.78447 0.38855 0.0
H672 H 0.32393 0.85991 0.39247 0.0
H673 H 0.119 0.80552 0.30838 0.0
H674 H 0.33056 0.90617 0.38253 0.0
H675 H 0.30882 0.9344 0.37283 0.0
H676 H 0.2915 0.81069 0.40003 0.0
H677 H 0.22891 0.92773 0.31086 0.0
H678 H 0.06428 0.83605 0.28862 0.0
H679 H 0.07137 0.79679 0.29758 0.0
H680 H 0.128 0.93382 0.28339 0.0
H681 H 0.18929 0.7536 0.40105 0.0
H682 H 0.24128 0.77093 0.40346 0.0
H683 H 0.08565 0.88722 0.28328 0.0
H684 H 0.2268 0.96874 0.29967 0.0
N685 N 0.13805 0.84919 0.30686 0.0
C686 C 0.08511 0.83999 0.2936 0.0
C687 C 0.08901 0.81778 0.29865 0.0
C688 C 0.10837 0.86695 0.29437 0.0
C689 C 0.13501 0.87092 0.30099 0.0
C690 C 0.11591 0.8228 0.30499 0.0
N691 N 0.18426 0.90003 0.30704 0.0
C692 C 0.15886 0.8971 0.30088 0.0
C693 C 0.20753 0.94871 0.29996 0.0
C694 C 0.18146 0.94615 0.29412 0.0
C695 C 0.20864 0.92531 0.30623 0.0
C696 C 0.15673 0.92011 0.2944 0.0
H697 H 0.18069 0.96433 0.28929 0.0
O698 O 0.21292 0.86838 0.29236 0.0
O699 O 0.2136 0.85563 0.33876 0.0
O700 O 0.20812 0.89243 0.36355 0.0
O701 O 0.17765 0.88799 0.33731 0.0
O702 O 0.23194 0.88712 0.31815 0.0
O703 O 0.17019 0.83301 0.2906 0.0
O704 O 0.18205 0.83523 0.40095 0.0
O705 O 0.16663 0.84553 0.34826 0.0
O706 O 0.16615 0.81361 0.32304 0.0
O707 O 0.18774 0.80925 0.35258 0.0
O708 O 0.15038 0.81928 0.3726 0.0
O709 O 0.19794 0.87754 0.39152 0.0
C710 C 0.23728 0.8744 0.3322 0.0
C711 C 0.1301 0.91638 0.28832 0.0
C712 C 0.10597 0.88985 0.28831 0.0
C713 C 0.1942 0.84846 0.28111 0.0
C714 C 0.19252 0.8563 0.26017 0.0
C715 C 0.1899 0.87964 0.25604 0.0
C716 C 0.19594 0.84177 0.24412 0.0
C717 C 0.19733 0.85097 0.22418 0.0
C718 C 0.19103 0.8886 0.23624 0.0
C719 C 0.19492 0.87447 0.22036 0.0
C720 C 0.19313 0.90122 0.35313 0.0
C721 C 0.14362 0.82724 0.35627 0.0
C722 C 0.18846 0.86005 0.40647 0.0
C723 C 0.20391 0.87026 0.42567 0.0
C724 C 0.2339 0.88415 0.42615 0.0
C725 C 0.18869 0.8675 0.44353 0.0
C726 C 0.20339 0.87915 0.46165 0.0
C727 C 0.24853 0.89557 0.44408 0.0
C728 C 0.23343 0.89328 0.46171 0.0
C729 C 0.17359 0.79943 0.33533 0.0
H730 H 0.18762 0.89131 0.2681 0.0
H731 H 0.19817 0.82383 0.24715 0.0
H732 H 0.18917 0.90672 0.23321 0.0
H733 H 0.19588 0.88175 0.20506 0.0
H734 H 0.24606 0.88654 0.41266 0.0
H735 H 0.16552 0.8569 0.44324 0.0
H736 H 0.27166 0.90636 0.44428 0.0
H737 H 0.24521 0.90222 0.47548 0.0
Gd738 Gd 0.84119 0.68299 0.71048 0.0
Gd739 Gd 0.82763 0.66397 0.65649 0.0
C740 C 0.73934 0.59218 0.64136 0.0
C741 C 0.75027 0.55706 0.63004 0.0
C742 C 0.78848 0.60225 0.64042 0.0
C743 C 0.7687 0.61038 0.6447 0.0
C744 C 0.77959 0.57578 0.63248 0.0
C745 C 0.73017 0.56526 0.63446 0.0
C746 C 0.72021 0.60189 0.64445 0.0
C747 C 0.73066 0.62942 0.65002 0.0
N748 N 0.77831 0.63664 0.65108 0.0
C749 C 0.76001 0.64668 0.65315 0.0
H750 H 0.7679 0.66785 0.65762 0.0
C751 C 0.83709 0.61562 0.63545 0.0
N752 N 0.81662 0.62097 0.64272 0.0
C753 C 0.82937 0.58953 0.62769 0.0
C754 C 0.80049 0.56935 0.62651 0.0
H755 H 0.85942 0.63127 0.63636 0.0
H756 H 0.70768 0.55087 0.63199 0.0
H757 H 0.89891 0.67283 0.71642 0.0
H758 H 0.69747 0.58854 0.64211 0.0
H759 H 0.71611 0.63729 0.65209 0.0
H760 H 0.74296 0.53649 0.62419 0.0
H761 H 0.81802 0.72587 0.72814 0.0
H762 H 0.97399 0.75156 0.72072 0.0
H763 H 0.95062 0.70073 0.71861 0.0
H764 H 0.93855 0.81431 0.72681 0.0
H765 H 0.84566 0.58503 0.62258 0.0
H766 H 0.79454 0.54922 0.62035 0.0
H767 H 0.96936 0.79378 0.72308 0.0
H768 H 0.83753 0.77542 0.73417 0.0
N769 N 0.89165 0.70732 0.71535 0.0
C770 C 0.95095 0.73939 0.71934 0.0
C771 C 0.93783 0.71073 0.71814 0.0
C772 C 0.93411 0.75192 0.71963 0.0
C773 C 0.90411 0.73513 0.71791 0.0
C774 C 0.9081 0.69492 0.71652 0.0
N775 N 0.85804 0.72986 0.7194 0.0
C776 C 0.8868 0.74676 0.71975 0.0
C777 C 0.85165 0.76779 0.72974 0.0
C778 C 0.88094 0.78587 0.72807 0.0
C779 C 0.84065 0.73966 0.72596 0.0
C780 C 0.89902 0.77534 0.7237 0.0
H781 H 0.88949 0.80765 0.73121 0.0
O782 O 0.81739 0.68111 0.73746 0.0
O783 O 0.8078 0.66008 0.68673 0.0
O784 O 0.8213 0.70023 0.66298 0.0
O785 O 0.81554 0.70159 0.69771 0.0
O786 O 0.80416 0.63988 0.71361 0.0
O787 O 0.84699 0.66537 0.73798 0.0
O788 O 0.85575 0.68082 0.63047 0.0
O789 O 0.85758 0.69364 0.67906 0.0
O790 O 0.85467 0.65204 0.70242 0.0
O791 O 0.83168 0.63027 0.67245 0.0
O792 O 0.87472 0.67861 0.65804 0.0
O793 O 0.81551 0.6802 0.63071 0.0
C794 C 0.79286 0.63769 0.69625 0.0
C795 C 0.92885 0.79229 0.72414 0.0
C796 C 0.94637 0.78059 0.7221 0.0
C797 C 0.82917 0.66988 0.74829 0.0
C798 C 0.83779 0.67987 0.769 0.0
C799 C 0.85597 0.70794 0.77314 0.0
C800 C 0.82804 0.66056 0.78487 0.0
C801 C 0.83591 0.66908 0.80499 0.0
C802 C 0.86399 0.71663 0.79299 0.0
C803 C 0.85402 0.69744 0.80882 0.0
C804 C 0.81508 0.71004 0.67912 0.0
C805 C 0.88066 0.69603 0.67253 0.0
C806 C 0.83842 0.68623 0.6204 0.0
C807 C 0.83456 0.67865 0.59888 0.0
C808 C 0.82053 0.65083 0.59306 0.0
C809 C 0.8455 0.6995 0.58397 0.0
C810 C 0.84277 0.69258 0.5633 0.0
C811 C 0.81779 0.64382 0.57269 0.0
C812 C 0.82885 0.66445 0.55792 0.0
C813 C 0.84527 0.63156 0.68934 0.0
H814 H 0.86399 0.72307 0.7611 0.0
H815 H 0.81454 0.63881 0.78143 0.0
H816 H 0.87792 0.73837 0.79615 0.0
H817 H 0.86016 0.70493 0.82407 0.0
H818 H 0.81171 0.63452 0.60421 0.0
H819 H 0.8564 0.72103 0.58847 0.0
H820 H 0.80693 0.62228 0.56832 0.0
H821 H 0.82596 0.65835 0.54223 0.0
Gd822 Gd 0.33761 0.15803 0.70802 0.0
Gd823 Gd 0.36282 0.15796 0.65677 0.0
C824 C 0.43637 0.14201 0.64386 0.0
C825 C 0.47346 0.18698 0.63195 0.0
C826 C 0.42691 0.18006 0.64168 0.0
C827 C 0.41793 0.15283 0.64664 0.0
C828 C 0.4546 0.19732 0.63395 0.0
C829 C 0.46431 0.15934 0.6368 0.0
C830 C 0.42586 0.11387 0.6476 0.0
C831 C 0.39727 0.09707 0.65309 0.0
N832 N 0.39057 0.13649 0.65292 0.0
C833 C 0.37971 0.10871 0.65539 0.0
H834 H 0.35767 0.09548 0.65967 0.0
C835 C 0.41464 0.21484 0.63641 0.0
N836 N 0.40793 0.18918 0.64333 0.0
C837 C 0.44197 0.23285 0.62888 0.0
C838 C 0.46216 0.22417 0.62784 0.0
H839 H 0.39914 0.22167 0.63723 0.0
H840 H 0.47885 0.15143 0.6347 0.0
H841 H 0.33951 0.21864 0.70241 0.0
H842 H 0.43939 0.10478 0.64576 0.0
H843 H 0.38875 0.07516 0.6556 0.0
H844 H 0.4949 0.19997 0.62616 0.0
H845 H 0.30705 0.09873 0.7337 0.0
H846 H 0.25825 0.20826 0.71922 0.0
H847 H 0.3075 0.23789 0.70655 0.0
H848 H 0.20883 0.11616 0.74593 0.0
H849 H 0.44743 0.25338 0.62385 0.0
H850 H 0.48325 0.23809 0.62186 0.0
H851 H 0.2216 0.16276 0.73408 0.0
H852 H 0.26155 0.06807 0.75103 0.0
N853 N 0.30816 0.17789 0.71123 0.0
C854 C 0.27209 0.19956 0.71713 0.0
C855 C 0.29989 0.21637 0.71005 0.0
C856 C 0.26297 0.17209 0.72236 0.0
C857 C 0.28172 0.16171 0.71913 0.0
C858 C 0.31796 0.20531 0.70765 0.0
N859 N 0.2946 0.12779 0.72456 0.0
C860 C 0.27468 0.13572 0.72603 0.0
C861 C 0.26486 0.08695 0.74395 0.0
C862 C 0.24353 0.09413 0.7447 0.0
C863 C 0.29062 0.10438 0.73409 0.0
C864 C 0.24857 0.11912 0.73613 0.0
H865 H 0.22374 0.08079 0.75258 0.0
O866 O 0.35442 0.15245 0.73629 0.0
O867 O 0.36829 0.15253 0.68911 0.0
O868 O 0.32677 0.11514 0.66555 0.0
O869 O 0.30241 0.11961 0.69327 0.0
O870 O 0.35053 0.12554 0.71285 0.0
O871 O 0.3581 0.19203 0.72912 0.0
O872 O 0.35069 0.16772 0.62811 0.0
O873 O 0.33099 0.16227 0.67544 0.0
O874 O 0.37256 0.20091 0.69752 0.0
O875 O 0.39886 0.19201 0.6741 0.0
O876 O 0.35031 0.1908 0.65263 0.0
O877 O 0.3429 0.12614 0.634 0.0
C878 C 0.36828 0.13256 0.69808 0.0
C879 C 0.22908 0.12867 0.73833 0.0
C880 C 0.23637 0.15521 0.73161 0.0
C881 C 0.36151 0.17705 0.74275 0.0
C882 C 0.35205 0.17831 0.76321 0.0
C883 C 0.32536 0.17609 0.76672 0.0
C884 C 0.36972 0.18098 0.7795 0.0
C885 C 0.36077 0.18114 0.79936 0.0
C886 C 0.31622 0.17606 0.78637 0.0
C887 C 0.33372 0.17846 0.80263 0.0
C888 C 0.30439 0.10554 0.67783 0.0
C889 C 0.33117 0.18242 0.66657 0.0
C890 C 0.34178 0.14304 0.62088 0.0
C891 C 0.35098 0.14191 0.60037 0.0
C892 C 0.37947 0.14989 0.59594 0.0
C893 C 0.33088 0.13354 0.58484 0.0
C894 C 0.33909 0.13343 0.56481 0.0
C895 C 0.38781 0.14981 0.57604 0.0
C896 C 0.36777 0.14176 0.56048 0.0
C897 C 0.39661 0.20826 0.68752 0.0
H898 H 0.31161 0.17437 0.75435 0.0
H899 H 0.39056 0.18324 0.77661 0.0
H900 H 0.2955 0.17411 0.78899 0.0
H901 H 0.32595 0.17798 0.81775 0.0
H902 H 0.39522 0.15631 0.60777 0.0
H903 H 0.30891 0.12764 0.58831 0.0
H904 H 0.40984 0.15606 0.57266 0.0
H905 H 0.37459 0.14174 0.54513 0.0
Gd906 Gd 0.85245 0.18371 0.658 0.0
Gd907 Gd 0.87448 0.18688 0.71126 0.0
C908 C 0.96577 0.20535 0.72341 0.0
C909 C 0.95769 0.16256 0.73897 0.0
C910 C 0.91746 0.16802 0.72883 0.0
C911 C 0.93597 0.1941 0.72147 0.0
C912 C 0.92809 0.15243 0.73849 0.0
C913 C 0.97653 0.18904 0.73145 0.0
C914 C 0.98377 0.23314 0.71837 0.0
C915 C 0.97184 0.24934 0.71277 0.0
N916 N 0.92475 0.20954 0.71448 0.0
C917 C 0.94214 0.23725 0.71115 0.0
H918 H 0.93345 0.25014 0.70665 0.0
C919 C 0.87058 0.13696 0.7399 0.0
N920 N 0.88912 0.15929 0.72862 0.0
C921 C 0.87997 0.12062 0.7496 0.0
C922 C 0.90876 0.128 0.74845 0.0
H923 H 0.84824 0.13112 0.74063 0.0
H924 H 0.99936 0.19717 0.73277 0.0
H925 H 0.79283 0.12153 0.66587 0.0
H926 H 1.00678 0.24257 0.71962 0.0
H927 H 0.98552 0.27111 0.70951 0.0
H928 H 0.96627 0.15069 0.74601 0.0
H929 H 0.87988 0.24192 0.6311 0.0
H930 H 0.72012 0.12805 0.64898 0.0
H931 H 0.74096 0.10065 0.66254 0.0
H932 H 0.76123 0.21865 0.61993 0.0
H933 H 0.865 0.10234 0.75789 0.0
H934 H 0.91605 0.11545 0.75609 0.0
H935 H 0.72788 0.17234 0.63337 0.0
H936 H 0.86343 0.27054 0.61339 0.0
N937 N 0.80211 0.16111 0.65472 0.0
C938 C 0.74311 0.13744 0.65034 0.0
C939 C 0.7548 0.1219 0.65796 0.0
C940 C 0.7613 0.16462 0.64396 0.0
C941 C 0.79107 0.1759 0.64618 0.0
C942 C 0.78446 0.13397 0.65981 0.0
N943 N 0.83811 0.2113 0.64019 0.0
C944 C 0.8097 0.20187 0.63871 0.0
C945 C 0.84807 0.25135 0.62055 0.0
C946 C 0.81894 0.24269 0.6199 0.0
C947 C 0.8573 0.23508 0.63052 0.0
C948 C 0.79928 0.21742 0.62873 0.0
H949 H 0.8118 0.25525 0.6121 0.0
O950 O 0.87314 0.19069 0.62863 0.0
O951 O 0.8873 0.18868 0.6789 0.0
O952 O 0.88368 0.22893 0.69998 0.0
O953 O 0.85807 0.22374 0.67021 0.0
O954 O 0.89888 0.21515 0.65433 0.0
O955 O 0.84358 0.1491 0.63877 0.0
O956 O 0.84949 0.17955 0.7386 0.0
O957 O 0.84092 0.18309 0.69006 0.0
O958 O 0.84255 0.14156 0.66968 0.0
O959 O 0.86713 0.14596 0.69981 0.0
O960 O 0.82686 0.1572 0.71468 0.0
O961 O 0.88679 0.21955 0.73339 0.0
C962 C 0.90838 0.20808 0.6697 0.0
C963 C 0.76966 0.20689 0.62734 0.0
C964 C 0.75069 0.18053 0.63498 0.0
C965 C 0.85868 0.16466 0.62377 0.0
C966 C 0.84458 0.15811 0.60392 0.0
C967 C 0.81487 0.14711 0.60235 0.0
C968 C 0.8608 0.16225 0.58636 0.0
C969 C 0.84729 0.15485 0.56747 0.0
C970 C 0.80151 0.13991 0.58356 0.0
C971 C 0.81759 0.14357 0.56619 0.0
C972 C 0.87337 0.23834 0.68582 0.0
C973 C 0.81872 0.16529 0.69907 0.0
C974 C 0.86653 0.2039 0.74598 0.0
C975 C 0.87466 0.20452 0.76723 0.0
C976 C 0.89832 0.20183 0.7725 0.0
C977 C 0.85808 0.20717 0.78247 0.0
C978 C 0.86515 0.20739 0.80298 0.0
C979 C 0.90539 0.20186 0.79273 0.0
C980 C 0.88905 0.20468 0.80787 0.0
C981 C 0.85174 0.13152 0.68417 0.0
H982 H 0.8019 0.14379 0.61561 0.0
H983 H 0.88375 0.17082 0.5874 0.0
H984 H 0.77861 0.13135 0.58248 0.0
H985 H 0.80691 0.13783 0.55172 0.0
H986 H 0.91133 0.19977 0.761 0.0
H987 H 0.83955 0.2088 0.77829 0.0
H988 H 0.92375 0.19988 0.7967 0.0
H989 H 0.89553 0.20528 0.8234 0.0
H990 H 0.33261 0.82947 0.05296 0.0
H991 H 0.28483 0.87208 0.06224 0.0
H992 H 0.32599 0.91553 0.0499 0.0
H993 H 0.39788 0.88262 0.07072 0.0
H994 H 0.41983 0.87726 0.05288 0.0
H995 H 0.38543 0.84891 0.05989 0.0
H996 H 0.37134 0.84093 0.0224 0.0
H997 H 0.40509 0.87007 0.01488 0.0
H998 H 0.37202 0.86835 0.00761 0.0
H999 H 0.37376 0.95523 0.04074 0.0
H1000 H 0.42523 0.98852 0.03597 0.0
H1001 H 0.44249 0.92081 0.03199 0.0
C1002 C 0.33063 0.84781 0.05188 0.0
C1003 C 0.30547 0.8474 0.05843 0.0
C1004 C 0.30391 0.87197 0.05732 0.0
C1005 C 0.32711 0.89669 0.05021 0.0
C1006 C 0.35179 0.89657 0.04419 0.0
C1007 C 0.35375 0.87278 0.04495 0.0
C1008 C 0.3836 0.87886 0.03932 0.0
C1009 C 0.39749 0.87148 0.05674 0.0
C1010 C 0.38299 0.86366 0.01989 0.0
C1011 C 0.39832 0.90987 0.03593 0.0
C1012 C 0.37944 0.9196 0.03853 0.0
C1013 C 0.38855 0.94779 0.03807 0.0
C1014 C 0.41773 0.96655 0.0352 0.0
C1015 C 0.43737 0.95706 0.03255 0.0
C1016 C 0.42755 0.92839 0.03295 0.0
H1017 H 0.15755 0.43375 0.06608 0.0
H1018 H 0.22434 0.51616 0.04944 0.0
H1019 H 0.1879 0.52597 0.03515 0.0
H1020 H 0.11154 0.42272 0.02149 0.0
H1021 H 0.07914 0.40394 0.03597 0.0
H1022 H 0.11073 0.40274 0.04317 0.0
H1023 H 0.10774 0.41967 0.07898 0.0
H1024 H 0.07635 0.42115 0.07182 0.0
H1025 H 0.10703 0.45147 0.08174 0.0
H1026 H 0.14368 0.52872 0.02692 0.0
H1027 H 0.09562 0.52272 0.02227 0.0
H1028 H 0.0575 0.43752 0.04211 0.0
C1029 C 0.16451 0.45371 0.05915 0.0
C1030 C 0.19377 0.47422 0.05884 0.0
C1031 C 0.20208 0.50007 0.04963 0.0
C1032 C 0.18152 0.50585 0.04157 0.0
C1033 C 0.15278 0.4854 0.04255 0.0
C1034 C 0.14431 0.45968 0.05081 0.0
C1035 C 0.11203 0.44159 0.05055 0.0
C1036 C 0.10283 0.41625 0.03699 0.0
C1037 C 0.1001 0.43298 0.07205 0.0
C1038 C 0.10359 0.46141 0.04142 0.0
C1039 C 0.1274 0.48658 0.03692 0.0
C1040 C 0.12493 0.50884 0.02985 0.0
C1041 C 0.09746 0.50519 0.02713 0.0
C1042 C 0.07275 0.4793 0.03096 0.0
C1043 C 0.076 0.45727 0.0384 0.0
H1044 H 0.55181 0.69456 0.0854 0.0
H1045 H 0.58295 0.74816 0.03282 0.0
H1046 H 0.58157 0.71005 0.01315 0.0
H1047 H 0.59305 0.66084 0.07701 0.0
H1048 H 0.56524 0.62769 0.08593 0.0
H1049 H 0.56793 0.65899 0.09572 0.0
H1050 H 0.51541 0.64191 0.08538 0.0
H1051 H 0.51257 0.61057 0.0756 0.0
H1052 H 0.50461 0.63204 0.05961 0.0
H1053 H 0.57645 0.66592 0.99914 0.0
H1054 H 0.56887 0.6192 0.99219 0.0
H1055 H 0.54313 0.59544 0.05423 0.0
C1056 C 0.55867 0.69847 0.06982 0.0
C1057 C 0.56743 0.7244 0.06066 0.0
C1058 C 0.57571 0.72837 0.0401 0.0
C1059 C 0.57521 0.70691 0.02883 0.0
C1060 C 0.56656 0.68169 0.03838 0.0
C1061 C 0.55856 0.67741 0.05842 0.0
C1062 C 0.55036 0.64845 0.06516 0.0
C1063 C 0.57035 0.64904 0.08195 0.0
C1064 C 0.51887 0.6323 0.07182 0.0
C1065 C 0.55502 0.63711 0.04576 0.0
C1066 C 0.56419 0.65652 0.03044 0.0
C1067 C 0.56925 0.65054 0.01101 0.0
C1068 C 0.56464 0.62393 0.00713 0.0
C1069 C 0.55522 0.60384 0.02262 0.0
C1070 C 0.55064 0.61062 0.04219 0.0
H1071 H 0.82499 0.31177 0.98196 0.0
H1072 H 0.87137 0.27409 0.95638 0.0
H1073 H 0.91689 0.31414 0.96697 0.0
H1074 H 0.87391 0.38022 0.96716 0.0
H1075 H 0.87111 0.39665 0.98971 0.0
H1076 H 0.8415 0.36401 0.98188 0.0
H1077 H 0.84137 0.3422 0.01657 0.0
H1078 H 0.87038 0.37523 0.02442 0.0
H1079 H 0.87408 0.34488 0.02586 0.0
H1080 H 0.9574 0.35946 0.97696 0.0
H1081 H 0.99106 0.40689 0.98806 0.0
H1082 H 0.9199 0.41607 0.00873 0.0
C1083 C 0.84472 0.31177 0.97901 0.0
C1084 C 0.84461 0.28984 0.9682 0.0
C1085 C 0.87093 0.29076 0.9644 0.0
C1086 C 0.89692 0.31338 0.97043 0.0
C1087 C 0.89644 0.335 0.98048 0.0
C1088 C 0.87111 0.33438 0.98501 0.0
C1089 C 0.87708 0.36112 0.99526 0.0
C1090 C 0.86519 0.3764 0.98275 0.0
C1091 C 0.86501 0.3555 0.01681 0.0
C1092 C 0.90961 0.37687 0.99539 0.0
C1093 C 0.9202 0.36131 0.98676 0.0
C1094 C 0.9494 0.37174 0.98402 0.0
C1095 C 0.96838 0.3988 0.99029 0.0
C1096 C 0.95821 0.4152 0.99936 0.0
C1097 C 0.92837 0.40392 1.00208 0.0
H1098 H 0.73718 0.58429 0.96498 0.0
H1099 H 0.72204 0.50419 0.98558 0.0
H1100 H 0.67618 0.49493 1.00069 0.0
H1101 H 0.70367 0.59891 0.00833 0.0
H1102 H 0.68893 0.61509 0.99257 0.0
H1103 H 0.722 0.61668 0.98559 0.0
H1104 H 0.7003 0.59519 0.95084 0.0
H1105 H 0.66723 0.59347 0.95778 0.0
H1106 H 0.66731 0.56261 0.94992 0.0
H1107 H 0.62935 0.49212 0.00967 0.0
H1108 H 0.5865 0.49672 0.01294 0.0
H1109 H 0.63253 0.57915 0.98737 0.0
C1110 C 0.72437 0.5649 0.97286 0.0
C1111 C 0.7332 0.54493 0.97408 0.0
C1112 C 0.7159 0.51992 0.98465 0.0
C1113 C 0.68977 0.51445 0.99322 0.0
C1114 C 0.68142 0.53434 0.9913 0.0
C1115 C 0.69836 0.55919 0.98154 0.0
C1116 C 0.68382 0.57642 0.98047 0.0
C1117 C 0.70061 0.60337 0.99246 0.0
C1118 C 0.6794 0.58225 0.95845 0.0
C1119 C 0.65566 0.55707 0.99061 0.0
C1120 C 0.65475 0.53299 0.99689 0.0
C1121 C 0.63013 0.51118 1.00526 0.0
C1122 C 0.60584 0.51405 0.00718 0.0
C1123 C 0.60644 0.53871 1.00111 0.0
C1124 C 0.63173 0.56041 0.9927 0.0
H1125 H 0.49852 0.17325 0.94984 0.0
H1126 H 0.45266 0.18674 0.99808 0.0
H1127 H 0.45349 0.14957 0.01808 0.0
H1128 H 0.46304 0.10004 0.9536 0.0
H1129 H 0.49457 0.09781 0.94826 0.0
H1130 H 0.49122 0.12609 0.93826 0.0
H1131 H 0.53932 0.16107 0.95497 0.0
H1132 H 0.54282 0.13285 0.96497 0.0
H1133 H 0.54402 0.15882 0.98168 0.0
H1134 H 0.45752 0.10918 0.03196 0.0
H1135 H 0.46637 0.07049 0.03915 0.0
H1136 H 0.51004 0.08484 0.98165 0.0
C1137 C 0.48865 0.16838 0.96462 0.0
C1138 C 0.47547 0.18274 0.97245 0.0
C1139 C 0.46309 0.17607 0.99193 0.0
C1140 C 0.46333 0.15494 1.00332 0.0
C1141 C 0.47621 0.14093 0.99501 0.0
C1142 C 0.48882 0.14754 0.97616 0.0
C1143 C 0.50112 0.12936 0.97054 0.0
C1144 C 0.48661 0.11232 0.95154 0.0
C1145 C 0.53375 0.14656 0.96789 0.0
C1146 C 0.49315 0.11123 0.98906 0.0
C1147 C 0.47881 0.11813 1.00304 0.0
C1148 C 0.46894 0.10374 0.02118 0.0
C1149 C 0.47407 0.08185 0.02513 0.0
C1150 C 0.48905 0.07477 0.01103 0.0
C1151 C 0.49852 0.08967 0.99278 0.0
H1152 H 0.68992 0.18175 0.98663 0.0
H1153 H 0.74319 0.14565 0.99967 0.0
H1154 H 0.70037 0.10138 0.00814 0.0
H1155 H 0.64061 0.1507 0.0247 0.0
H1156 H 0.60815 0.14175 0.01108 0.0
H1157 H 0.64163 0.17086 1.00326 0.0
H1158 H 0.63796 0.15208 0.96772 0.0
H1159 H 0.60313 0.12375 0.97413 0.0
H1160 H 0.6301 0.11695 0.96418 0.0
H1161 H 0.6528 0.06137 0.01566 0.0
H1162 H 0.60183 0.02633 0.0199 0.0
H1163 H 0.57779 0.08715 1.00321 0.0
C1164 C 0.69241 0.16429 0.9908 0.0
C1165 C 0.71996 0.16704 0.9921 0.0
C1166 C 0.72237 0.14392 0.99818 0.0
C1167 C 0.69815 0.11871 1.00315 0.0
C1168 C 0.67145 0.11674 1.00203 0.0
C1169 C 0.66822 0.13864 0.99565 0.0
C1170 C 0.63677 0.13055 0.9957 0.0
C1171 C 0.63144 0.14955 0.00954 0.0
C1172 C 0.62638 0.13084 0.97415 0.0
C1173 C 0.62313 0.10112 1.00391 0.0
C1174 C 0.64366 0.09361 0.00716 0.0
C1175 C 0.63652 0.06704 0.01339 0.0
C1176 C 0.60759 0.04732 0.01587 0.0
C1177 C 0.58612 0.05434 0.01262 0.0
C1178 C 0.59396 0.08165 0.00664 0.0
H1179 H 0.84684 0.51218 0.98663 0.0
H1180 H 0.89384 0.60139 0.99332 0.0
H1181 H 0.93757 0.59972 1.00115 0.0
H1182 H 0.88067 0.49634 0.02608 0.0
H1183 H 0.88388 0.46938 0.01351 0.0
H1184 H 0.85512 0.47566 0.00713 0.0
H1185 H 0.86921 0.48353 0.96978 0.0
H1186 H 0.89683 0.47526 0.97513 0.0
H1187 H 0.9057 0.5074 0.9628 0.0
H1188 H 0.97622 0.5894 0.00728 0.0
H1189 H 1.00926 0.57097 0.00929 0.0
H1190 H 0.9386 0.48796 1.00002 0.0
C1191 C 0.8665 0.53132 0.98945 0.0
C1192 C 0.86707 0.55702 0.98901 0.0
C1193 C 0.89301 0.58158 0.99321 0.0
C1194 C 0.91791 0.58081 0.99784 0.0
C1195 C 0.91664 0.55528 0.99835 0.0
C1196 C 0.89181 0.53095 0.99402 0.0
C1197 C 0.89688 0.50645 0.99515 0.0
C1198 C 0.87804 0.48573 0.01144 0.0
C1199 C 0.89186 0.49233 0.97448 0.0
C1200 C 0.92836 0.52091 1.00094 0.0
C1201 C 0.93916 0.5491 1.00267 0.0
C1202 C 0.96799 0.56734 0.00632 0.0
C1203 C 0.98656 0.5567 0.00757 0.0
C1204 C 0.97625 0.52803 0.00569 0.0
C1205 C 0.9467 0.50979 1.00255 0.0
H1206 H 0.4542 0.31935 0.95909 0.0
H1207 H 0.49686 0.29734 1.00482 0.0
H1208 H 0.51806 0.34443 0.01919 0.0
H1209 H 0.51124 0.39015 0.95188 0.0
H1210 H 0.48725 0.40355 0.94848 0.0
H1211 H 0.47614 0.36846 0.94143 0.0
H1212 H 0.43166 0.35079 0.96452 0.0
H1213 H 0.44264 0.38582 0.97165 0.0
H1214 H 0.43637 0.36037 0.99077 0.0
H1215 H 0.53475 0.39339 0.02819 0.0
H1216 H 0.54476 0.44105 0.03245 0.0
H1217 H 0.48923 0.43093 0.98182 0.0
C1218 C 0.46798 0.32453 0.97214 0.0
C1219 C 0.47391 0.3049 0.98103 0.0
C1220 C 0.49211 0.31226 0.99798 0.0
C1221 C 0.50423 0.33886 0.00615 0.0
C1222 C 0.49786 0.35773 0.99713 0.0
C1223 C 0.48014 0.35096 0.98054 0.0
C1224 C 0.47641 0.37502 0.974 0.0
C1225 C 0.48848 0.38487 0.95268 0.0
C1226 C 0.4449 0.36754 0.97532 0.0
C1227 C 0.49445 0.39623 0.98971 0.0
C1228 C 0.50686 0.38587 1.00273 0.0
C1229 C 0.52489 0.40164 0.01824 0.0
C1230 C 0.53021 0.42868 0.02065 0.0
C1231 C 0.51717 0.43962 0.00784 0.0
C1232 C 0.49925 0.42314 0.99204 0.0
H1233 H 0.19856 0.69751 0.01674 0.0
H1234 H 0.1746 0.71911 0.07324 0.0
H1235 H 0.13258 0.67187 0.07565 0.0
H1236 H 0.12845 0.65832 0.99769 0.0
H1237 H 0.13478 0.63313 0.9854 0.0
H1238 H 0.16388 0.66767 0.98915 0.0
H1239 H 0.19219 0.64805 0.00793 0.0
H1240 H 0.163 0.61343 1.00407 0.0
H1241 H 0.17604 0.62527 0.02919 0.0
H1242 H 0.0911 0.62306 0.07034 0.0
H1243 H 0.05533 0.57628 0.05893 0.0
H1244 H 0.10735 0.58665 0.00617 0.0
C1245 C 0.18474 0.69209 0.0298 0.0
C1246 C 0.18982 0.71183 0.0449 0.0
C1247 C 0.17111 0.70415 0.06163 0.0
C1248 C 0.14719 0.67743 0.06306 0.0
C1249 C 0.14238 0.65861 0.04766 0.0
C1250 C 0.16083 0.66554 0.03146 0.0
C1251 C 0.15025 0.64203 0.01647 0.0
C1252 C 0.14396 0.65083 0.99597 0.0
C1253 C 0.17164 0.63158 0.0143 0.0
C1254 C 0.12297 0.62073 0.02674 0.0
C1255 C 0.11869 0.6307 0.04465 0.0
C1256 C 0.0944 0.61501 0.0564 0.0
C1257 C 0.07411 0.58842 0.04974 0.0
C1258 C 0.07824 0.57762 0.03151 0.0
C1259 C 0.10319 0.59416 0.02002 0.0
H1260 H 0.3239 0.43573 0.05279 0.0
H1261 H 0.33192 0.51543 0.03955 0.0
H1262 H 0.38312 0.5342 0.03111 0.0
H1263 H 0.39303 0.46094 0.07555 0.0
H1264 H 0.39831 0.43419 0.06478 0.0
H1265 H 0.36268 0.42759 0.06989 0.0
H1266 H 0.34896 0.4134 0.03261 0.0
H1267 H 0.38471 0.42045 0.02721 0.0
H1268 H 0.36942 0.43734 0.0128 0.0
H1269 H 0.43406 0.54411 0.02438 0.0
H1270 H 0.47983 0.54424 0.02056 0.0
H1271 H 0.43759 0.45774 0.03761 0.0
C1272 C 0.33652 0.45722 0.04831 0.0
C1273 C 0.32415 0.47433 0.04724 0.0
C1274 C 0.34118 0.50215 0.04085 0.0
C1275 C 0.37019 0.51292 0.03593 0.0
C1276 C 0.38176 0.49548 0.03725 0.0
C1277 C 0.3654 0.46821 0.0433 0.0
C1278 C 0.38275 0.45366 0.04336 0.0
C1279 C 0.38428 0.44351 0.06466 0.0
C1280 C 0.37074 0.4298 0.02809 0.0
C1281 C 0.41153 0.47701 0.03664 0.0
C1282 C 0.4106 0.50097 0.03305 0.0
C1283 C 0.43489 0.52537 0.02701 0.0
C1284 C 0.46075 0.52523 0.02473 0.0
C1285 C 0.46196 0.50078 0.02826 0.0
C1286 C 0.43706 0.47654 0.03443 0.0
H1287 H 0.56891 0.8569 0.02293 0.0
H1288 H 0.54399 0.83965 0.08578 0.0
H1289 H 0.52384 0.87079 0.08415 0.0
H1290 H 0.59173 0.92814 0.02511 0.0
H1291 H 0.5792 0.93022 1.00033 0.0
H1292 H 0.58907 0.90443 0.00569 0.0
H1293 H 0.53899 0.86604 0.99405 0.0
H1294 H 0.52897 0.89179 0.98873 0.0
H1295 H 0.50748 0.86348 0.00554 0.0
H1296 H 0.50949 0.90534 0.07673 0.0
H1297 H 0.50336 0.94367 0.0644 0.0
H1298 H 0.53766 0.93975 0.00614 0.0
C1299 C 0.55871 0.85936 0.0362 0.0
C1300 C 0.55721 0.84535 0.05434 0.0
C1301 C 0.54466 0.84971 0.07164 0.0
C1302 C 0.53316 0.8673 0.07083 0.0
C1303 C 0.53469 0.88057 0.05269 0.0
C1304 C 0.54721 0.87699 0.03567 0.0
C1305 C 0.54789 0.89544 0.01856 0.0
C1306 C 0.57881 0.91576 0.01205 0.0
C1307 C 0.52974 0.87815 1.00066 0.0
C1308 C 0.53432 0.91032 0.02879 0.0
C1309 C 0.52665 0.90112 0.04841 0.0
C1310 C 0.51519 0.91259 0.06137 0.0
C1311 C 0.51195 0.93443 0.05425 0.0
C1312 C 0.52015 0.94461 0.03437 0.0
C1313 C 0.53091 0.93205 0.02131 0.0
H1314 H 0.97161 0.2086 0.40212 0.0
H1315 H 0.98864 0.14335 0.38424 0.0
H1316 H 0.03344 0.17805 0.36791 0.0
H1317 H 1.00219 0.2528 0.35762 0.0
H1318 H 0.01717 0.28424 0.3721 0.0
H1319 H 0.98498 0.25405 0.38057 0.0
H1320 H 1.00902 0.25638 0.41502 0.0
H1321 H 0.04116 0.28656 0.4066 0.0
H1322 H 0.04261 0.25672 0.41547 0.0
H1323 H 0.07847 0.22 0.35664 0.0
H1324 H 0.12026 0.26611 0.35095 0.0
H1325 H 0.07405 0.3043 0.3758 0.0
C1326 C 0.98466 0.20153 0.3947 0.0
C1327 C 0.9765 0.17316 0.39443 0.0
C1328 C 0.99414 0.16485 0.38439 0.0
C1329 C 0.0197 0.18444 0.37513 0.0
C1330 C 0.02726 0.21222 0.37597 0.0
C1331 C 1.01024 0.22078 0.38546 0.0
C1332 C 0.02406 0.25201 0.38528 0.0
C1333 C 1.00601 0.26131 0.37317 0.0
C1334 C 0.02953 0.26358 0.40687 0.0
C1335 C 0.05177 0.25973 0.37454 0.0
C1336 C 0.0531 0.23646 0.36918 0.0
C1337 C 0.0774 0.23834 0.36036 0.0
C1338 C 0.101 0.26466 0.35709 0.0
C1339 C 0.09998 0.28879 0.36227 0.0
C1340 C 0.07502 0.2862 0.37112 0.0
H1341 H 0.86247 0.84012 0.39212 0.0
H1342 H 0.8319 0.75213 0.39026 0.0
H1343 H 0.78546 0.74382 0.37695 0.0
H1344 H 0.79868 0.83568 0.40866 0.0
H1345 H 0.80135 0.86384 0.3936 0.0
H1346 H 0.83323 0.86335 0.40092 0.0
H1347 H 0.84794 0.86799 0.36374 0.0
H1348 H 0.81554 0.86693 0.35546 0.0
H1349 H 0.82495 0.84228 0.34588 0.0
H1350 H 0.74051 0.74411 0.36962 0.0
H1351 H 0.7006 0.75329 0.3649 0.0
H1352 H 0.75978 0.84142 0.36805 0.0
C1353 C 0.84624 0.81926 0.38824 0.0
C1354 C 0.85085 0.79672 0.3918 0.0
C1355 C 0.82889 0.76962 0.38724 0.0
C1356 C 0.80245 0.76473 0.37976 0.0
C1357 C 0.79826 0.78722 0.37674 0.0
C1358 C 0.81962 0.81403 0.38053 0.0
C1359 C 0.80879 0.83422 0.37683 0.0
C1360 C 0.81062 0.85021 0.39615 0.0
C1361 C 0.82527 0.85405 0.35944 0.0
C1362 C 0.77784 0.81447 0.37101 0.0
C1363 C 0.77233 0.78745 0.37119 0.0
C1364 C 0.74474 0.76519 0.36876 0.0
C1365 C 0.72219 0.77058 0.36613 0.0
C1366 C 0.72725 0.798 0.36525 0.0
C1367 C 0.75553 0.82029 0.36766 0.0
H1368 H 0.24475 0.04433 0.41066 0.0
H1369 H 0.17618 0.04899 0.37986 0.0
H1370 H 0.1635 0.00567 0.36198 0.0
H1371 H 0.26509 0.0154 0.36934 0.0
H1372 H 0.2718 0.99311 0.38539 0.0
H1373 H 0.27659 0.02533 0.39499 0.0
H1374 H 0.24164 0.99905 0.42428 0.0
H1375 H 0.23666 0.96674 0.41473 0.0
H1376 H 0.20618 0.97125 0.41864 0.0
H1377 H 0.15659 0.96109 0.34889 0.0
H1378 H 0.15649 0.91832 0.34035 0.0
H1379 H 0.22939 0.94175 0.37973 0.0
C1380 C 0.22701 0.03624 0.40018 0.0
C1381 C 0.21146 0.05014 0.39665 0.0
C1382 C 0.18868 0.039 0.3826 0.0
C1383 C 0.18119 0.0143 0.37248 0.0
C1384 C 0.19668 1.00098 0.37658 0.0
C1385 C 0.21916 0.01154 0.39003 0.0
C1386 C 0.23185 0.99272 0.39201 0.0
C1387 C 0.26319 0.00753 0.38501 0.0
C1388 C 0.2289 0.9818 0.4137 0.0
C1389 C 0.21282 0.96982 0.37763 0.0
C1390 C 0.19274 0.97511 0.36891 0.0
C1391 C 0.17239 0.95687 0.35544 0.0
C1392 C 0.17265 0.93263 0.35062 0.0
C1393 C 0.19327 0.92683 0.35908 0.0
C1394 C 0.21349 0.94565 0.37291 0.0
H1395 H 0.5405 0.63212 0.28743 0.0
H1396 H 0.46779 0.62837 0.31862 0.0
H1397 H 0.49999 0.67219 0.33553 0.0
H1398 H 0.59201 0.66307 0.32762 0.0
H1399 H 0.62109 0.68522 0.31112 0.0
H1400 H 0.59268 0.65262 0.30203 0.0
H1401 H 0.58346 0.67787 0.27265 0.0
H1402 H 0.61181 0.71055 0.28166 0.0
H1403 H 0.57641 0.70555 0.27815 0.0
H1404 H 0.53879 0.71616 0.34848 0.0
H1405 H 0.58241 0.75892 0.3569 0.0
H1406 H 0.63133 0.73681 0.31662 0.0
C1407 C 0.53126 0.64052 0.29774 0.0
C1408 C 0.50146 0.62645 0.30178 0.0
C1409 C 0.49048 0.6382 0.31557 0.0
C1410 C 0.5086 0.66328 0.32514 0.0
C1411 C 0.53767 0.67658 0.3207 0.0
C1412 C 0.54904 0.66578 0.3073 0.0
C1413 C 0.58108 0.68492 0.30489 0.0
C1414 C 0.59769 0.6706 0.31183 0.0
C1415 C 0.58863 0.69534 0.28304 0.0
C1416 C 0.58586 0.70815 0.31907 0.0
C1417 C 0.5604 0.70266 0.32801 0.0
C1418 C 0.55887 0.72066 0.34165 0.0
C1419 C 0.58399 0.74495 0.3464 0.0
C1420 C 0.61057 0.75127 0.33762 0.0
C1421 C 0.61143 0.73261 0.3236 0.0
H1422 H 0.398 0.92335 0.29951 0.0
H1423 H 0.38177 0.84099 0.31455 0.0
H1424 H 0.33413 0.8291 0.32766 0.0
H1425 H 0.35988 0.93098 0.34289 0.0
H1426 H 0.34633 0.94927 0.32832 0.0
H1427 H 0.38008 0.95205 0.32175 0.0
H1428 H 0.36159 0.93572 0.28543 0.0
H1429 H 0.32785 0.93287 0.29194 0.0
H1430 H 0.32887 0.90342 0.28184 0.0
H1431 H 0.2861 0.82467 0.33602 0.0
H1432 H 0.24291 0.82893 0.3401 0.0
H1433 H 0.29069 0.91442 0.32062 0.0
C1434 C 0.38454 0.90285 0.30567 0.0
C1435 C 0.39382 0.88314 0.30599 0.0
C1436 C 0.37546 0.85663 0.31436 0.0
C1437 C 0.34825 0.84962 0.32177 0.0
C1438 C 0.33963 0.86939 0.32092 0.0
C1439 C 0.35736 0.89556 0.31324 0.0
C1440 C 0.34261 0.9127 0.31336 0.0
C1441 C 0.35816 0.93774 0.32742 0.0
C1442 C 0.34008 0.9217 0.29187 0.0
C1443 C 0.31359 0.89189 0.32179 0.0
C1444 C 0.31231 0.86705 0.32617 0.0
C1445 C 0.28711 0.84422 0.33301 0.0
C1446 C 0.26268 0.84686 0.33539 0.0
C1447 C 0.26367 0.87228 0.33133 0.0
C1448 C 0.2895 0.89496 0.32435 0.0
H1449 H 0.10987 0.47651 0.28957 0.0
H1450 H 0.17539 0.54485 0.3243 0.0
H1451 H 0.18558 0.51252 0.34252 0.0
H1452 H 0.08538 0.42389 0.32803 0.0
H1453 H 0.08198 0.39708 0.31123 0.0
H1454 H 0.07759 0.42503 0.30173 0.0
H1455 H 0.11707 0.43656 0.27507 0.0
H1456 H 0.12139 0.4085 0.28438 0.0
H1457 H 0.15176 0.44297 0.28314 0.0
H1458 H 0.18924 0.47348 0.35715 0.0
H1459 H 0.19002 0.43066 0.36455 0.0
H1460 H 0.12566 0.38775 0.31848 0.0
C1461 C 0.12648 0.48486 0.3009 0.0
C1462 C 0.14117 0.51343 0.30572 0.0
C1463 C 0.1628 0.52309 0.32074 0.0
C1464 C 0.16903 0.50487 0.33113 0.0
C1465 C 0.15398 0.477 0.32614 0.0
C1466 C 0.13352 0.46702 0.31115 0.0
C1467 C 0.122 0.43633 0.30786 0.0
C1468 C 0.08982 0.4196 0.31249 0.0
C1469 C 0.12845 0.43077 0.28634 0.0
C1470 C 0.13922 0.43077 0.32335 0.0
C1471 C 0.15721 0.45449 0.33391 0.0
C1472 C 0.17526 0.45474 0.349 0.0
C1473 C 0.17537 0.4302 0.3532 0.0
C1474 C 0.15777 0.40575 0.3422 0.0
C1475 C 0.13931 0.40607 0.32717 0.0
H1476 H 0.38221 0.45824 0.31077 0.0
H1477 H 0.37365 0.52883 0.32745 0.0
H1478 H 0.32342 0.4973 0.33774 0.0
H1479 H 0.31313 0.41744 0.28999 0.0
H1480 H 0.30845 0.38515 0.29955 0.0
H1481 H 0.34381 0.41334 0.29439 0.0
H1482 H 0.35874 0.41065 0.33116 0.0
H1483 H 0.32326 0.38262 0.33649 0.0
H1484 H 0.33854 0.41333 0.3518 0.0
H1485 H 0.27315 0.45768 0.34447 0.0
H1486 H 0.22732 0.4135 0.34672 0.0
H1487 H 0.26964 0.36924 0.32643 0.0
C1488 C 0.36974 0.46703 0.31661 0.0
C1489 C 0.38154 0.49593 0.31803 0.0
C1490 C 0.36475 0.50671 0.326 0.0
C1491 C 0.33632 0.48898 0.33196 0.0
C1492 C 0.3252 0.46053 0.33014 0.0
C1493 C 0.34146 0.44965 0.32272 0.0
C1494 C 0.32438 0.41841 0.32189 0.0
C1495 C 0.32232 0.40799 0.30016 0.0
C1496 C 0.33699 0.4055 0.33619 0.0
C1497 C 0.29576 0.41341 0.32943 0.0
C1498 C 0.29665 0.43789 0.33435 0.0
C1499 C 0.27235 0.43839 0.34092 0.0
C1500 C 0.24647 0.41323 0.34227 0.0
C1501 C 0.24528 0.38803 0.33725 0.0
C1502 C 0.27023 0.38823 0.33076 0.0
H1503 H 0.56278 0.91933 0.3172 0.0
H1504 H 0.48849 0.83852 0.32694 0.0
H1505 H 0.52025 0.81944 0.33482 0.0
H1506 H 0.60746 0.89607 0.29378 0.0
H1507 H 0.63973 0.92204 0.30572 0.0
H1508 H 0.61106 0.92891 0.30064 0.0
H1509 H 0.61004 0.94024 0.33841 0.0
H1510 H 0.6385 0.93308 0.34363 0.0
H1511 H 0.60528 0.91496 0.35729 0.0
H1512 H 0.5606 0.80936 0.34152 0.0
H1513 H 0.60565 0.80879 0.34555 0.0
H1514 H 0.65383 0.89645 0.33226 0.0
C1515 C 0.55321 0.89754 0.32076 0.0
C1516 C 0.52313 0.88023 0.32104 0.0
C1517 C 0.51144 0.85198 0.32624 0.0
C1518 C 0.52933 0.84104 0.33084 0.0
C1519 C 0.5589 0.85869 0.3304 0.0
C1520 C 0.57075 0.88633 0.32544 0.0
C1521 C 0.60316 0.90095 0.32616 0.0
C1522 C 0.61611 0.91268 0.30534 0.0
C1523 C 0.61493 0.92366 0.34234 0.0
C1524 C 0.60778 0.87721 0.3321 0.0
C1525 C 0.58199 0.85303 0.3346 0.0
C1526 C 0.58086 0.82827 0.33976 0.0
C1527 C 0.60669 0.82817 0.34223 0.0
C1528 C 0.63339 0.85271 0.33983 0.0
C1529 C 0.63377 0.87747 0.33458 0.0
H1530 H 0.13877 0.6423 0.34664 0.0
H1531 H 0.12109 0.63362 0.28251 0.0
H1532 H 0.13333 0.68266 0.28063 0.0
H1533 H 0.10947 0.6866 0.35668 0.0
H1534 H 0.13621 0.70734 0.37507 0.0
H1535 H 0.12668 0.67179 0.37135 0.0
H1536 H 0.17979 0.68708 0.36439 0.0
H1537 H 0.18942 0.72267 0.36807 0.0
H1538 H 0.19886 0.7123 0.34495 0.0
H1539 H 0.14611 0.73171 0.28582 0.0
H1540 H 0.15954 0.77843 0.29736 0.0
H1541 H 0.16928 0.75588 0.35835 0.0
C1542 C 0.13754 0.65082 0.33223 0.0
C1543 C 0.1289 0.63432 0.31468 0.0
C1544 C 0.12757 0.64605 0.29607 0.0
C1545 C 0.1345 0.67379 0.29489 0.0
C1546 C 0.14274 0.6895 0.31247 0.0
C1547 C 0.14436 0.67853 0.3308 0.0
C1548 C 0.1535 0.69993 0.34742 0.0
C1549 C 0.13006 0.69087 0.36358 0.0
C1550 C 0.18209 0.70584 0.35675 0.0
C1551 C 0.15674 0.7246 0.33555 0.0
C1552 C 0.15035 0.71804 0.31544 0.0
C1553 C 0.15121 0.73712 0.30152 0.0
C1554 C 0.15877 0.76363 0.3083 0.0
C1555 C 0.16553 0.77102 0.32885 0.0
C1556 C 0.16456 0.75113 0.34259 0.0
H1557 H 0.8495 0.03802 0.35481 0.0
H1558 H 0.84167 0.04285 0.4195 0.0
H1559 H 0.80569 0.99296 0.42049 0.0
H1560 H 0.77587 0.99248 0.34527 0.0
H1561 H 0.78148 0.97324 0.32577 0.0
H1562 H 0.808 0.00878 0.33026 0.0
H1563 H 0.84652 0.9945 0.33536 0.0
H1564 H 0.82005 0.95891 0.33083 0.0
H1565 H 0.84065 0.96833 0.35377 0.0
H1566 H 0.76891 0.94359 0.41421 0.0
H1567 H 0.73379 0.89773 0.40131 0.0
H1568 H 0.76515 0.92463 0.34059 0.0
C1569 C 0.84046 0.02842 0.36919 0.0
C1570 C 0.84855 0.04408 0.38716 0.0
C1571 C 0.83593 0.03102 0.40566 0.0
C1572 C 0.81553 0.00277 0.40634 0.0
C1573 C 0.80795 0.98791 0.38836 0.0
C1574 C 0.82004 1.0002 0.37013 0.0
C1575 C 0.80719 0.97972 0.35293 0.0
C1576 C 0.79225 0.98912 0.33766 0.0
C1577 C 0.82997 0.9751 0.34262 0.0
C1578 C 0.78575 0.95412 0.36433 0.0
C1579 C 0.78664 0.95932 0.38474 0.0
C1580 C 0.76816 0.93925 0.39827 0.0
C1581 C 0.74814 0.91325 0.39073 0.0
C1582 C 0.74665 0.90737 0.36984 0.0
C1583 C 0.76597 0.92812 0.35657 0.0
H1584 H 1.00555 0.83217 0.39122 0.0
H1585 H 0.95607 0.75222 0.36258 0.0
H1586 H 0.9999 0.75704 0.34738 0.0
H1587 H 0.05857 0.86522 0.34839 0.0
H1588 H 0.08806 0.88439 0.36533 0.0
H1589 H 0.0525 0.87649 0.3724 0.0
H1590 H 0.05627 0.85316 0.40517 0.0
H1591 H 0.09175 0.861 0.39816 0.0
H1592 H 0.06479 0.82581 0.40354 0.0
H1593 H 0.0488 0.76536 0.34143 0.0
H1594 H 0.1003 0.78037 0.34073 0.0
H1595 H 0.11981 0.85811 0.36803 0.0
C1596 C 1.00389 0.81622 0.38113 0.0
C1597 C 0.97708 0.79208 0.37763 0.0
C1598 C 0.9761 0.77116 0.36504 0.0
C1599 C 1.00095 0.77366 0.35638 0.0
C1600 C 0.02694 0.79742 0.3602 0.0
C1601 C 0.02869 0.81868 0.37191 0.0
C1602 C 0.05981 0.84132 0.37427 0.0
C1603 C 0.06503 0.86847 0.36451 0.0
C1604 C 0.06866 0.84556 0.39661 0.0
C1605 C 0.07509 0.82894 0.36262 0.0
C1606 C 0.05559 0.80343 0.35486 0.0
C1607 C 0.06429 0.78591 0.34645 0.0
C1608 C 0.09358 0.79464 0.34595 0.0
C1609 C 0.11408 0.82128 0.35264 0.0
C1610 C 0.10465 0.8386 0.36121 0.0
H1611 H 0.23005 0.19989 0.41122 0.0
H1612 H 0.24283 0.17227 0.35315 0.0
H1613 H 0.22925 0.20351 0.33603 0.0
H1614 H 0.16827 0.2057 0.39638 0.0
H1615 H 0.17836 0.23601 0.41147 0.0
H1616 H 0.18863 0.21118 0.41917 0.0
H1617 H 0.24171 0.25003 0.4202 0.0
H1618 H 0.23157 0.27492 0.41245 0.0
H1619 H 0.25767 0.27101 0.39808 0.0
H1620 H 0.21602 0.23859 0.32534 0.0
H1621 H 0.20255 0.27447 0.32162 0.0
H1622 H 0.1969 0.27877 0.38652 0.0
C1623 C 0.22999 0.20056 0.3949 0.0
C1624 C 0.23787 0.18413 0.38341 0.0
C1625 C 0.2372 0.18504 0.36213 0.0
C1626 C 0.22948 0.20263 0.35232 0.0
C1627 C 0.22223 0.2189 0.36406 0.0
C1628 C 0.22223 0.21794 0.38487 0.0
C1629 C 0.21348 0.23757 0.39388 0.0
C1630 C 0.18552 0.22166 0.40593 0.0
C1631 C 0.23755 0.25969 0.40692 0.0
C1632 C 0.20903 0.25004 0.37486 0.0
C1633 C 0.21405 0.23884 0.35786 0.0
C1634 C 0.21164 0.24722 0.33854 0.0
C1635 C 0.20363 0.26742 0.33653 0.0
C1636 C 0.198 0.27894 0.35368 0.0
C1637 C 0.20103 0.27028 0.37311 0.0
H1638 H 0.65892 0.49188 0.71671 0.0
H1639 H 0.61369 0.53531 0.73225 0.0
H1640 H 0.6534 0.57854 0.71821 0.0
H1641 H 0.72616 0.54398 0.73117 0.0
H1642 H 0.74549 0.53838 0.71132 0.0
H1643 H 0.71183 0.51031 0.71982 0.0
H1644 H 0.69282 0.50298 0.68322 0.0
H1645 H 0.72624 0.53157 0.67458 0.0
H1646 H 0.69319 0.53125 0.66974 0.0
H1647 H 0.69987 0.61781 0.70616 0.0
H1648 H 0.75098 0.65062 0.6994 0.0
H1649 H 0.76638 0.58216 0.69168 0.0
C1650 C 0.6571 0.51036 0.71667 0.0
C1651 C 0.63315 0.51024 0.72542 0.0
C1652 C 0.63187 0.53498 0.72565 0.0
C1653 C 0.65419 0.55955 0.71753 0.0
C1654 C 0.67765 0.55906 0.7092 0.0
C1655 C 0.67933 0.53512 0.70878 0.0
C1656 C 0.70816 0.54079 0.70097 0.0
C1657 C 0.72383 0.53291 0.71677 0.0
C1658 C 0.70491 0.52575 0.68093 0.0
C1659 C 0.72285 0.5718 0.69782 0.0
C1660 C 0.70464 0.58185 0.70219 0.0
C1661 C 0.71408 0.61012 0.70216 0.0
C1662 C 0.74304 0.62861 0.69817 0.0
C1663 C 0.76207 0.61872 0.6941 0.0
C1664 C 0.7518 0.59002 0.69375 0.0
H1665 H 0.52784 0.16468 0.72137 0.0
H1666 H 0.49003 0.07694 0.73344 0.0
H1667 H 0.44368 0.06907 0.72051 0.0
H1668 H 0.46857 0.17033 0.73733 0.0
H1669 H 0.47183 0.19493 0.71833 0.0
H1670 H 0.50295 0.19348 0.72632 0.0
H1671 H 0.51272 0.18694 0.68946 0.0
H1672 H 0.48084 0.18667 0.68089 0.0
H1673 H 0.48623 0.15792 0.67538 0.0
H1674 H 0.40054 0.07099 0.71079 0.0
H1675 H 0.36272 0.08245 0.70378 0.0
H1676 H 0.4269 0.16874 0.69633 0.0
C1677 C 0.50992 0.14379 0.72075 0.0
C1678 C 0.51255 0.12129 0.72818 0.0
C1679 C 0.48848 0.09434 0.72768 0.0
C1680 C 0.46209 0.08969 0.72034 0.0
C1681 C 0.45993 0.11222 0.71349 0.0
C1682 C 0.48312 0.13877 0.71353 0.0
C1683 C 0.47413 0.15941 0.7066 0.0
C1684 C 0.4797 0.18079 0.72313 0.0
C1685 C 0.48937 0.1736 0.6869 0.0
C1686 C 0.44222 0.14035 0.7032 0.0
C1687 C 0.43467 0.11321 0.70721 0.0
C1688 C 0.40625 0.09204 0.70712 0.0
C1689 C 0.38489 0.09872 0.70314 0.0
C1690 C 0.3919 0.12623 0.69885 0.0
C1691 C 0.42102 0.14734 0.6987 0.0
H1692 H 0.88295 0.36168 0.75059 0.0
H1693 H 0.90783 0.41171 0.69608 0.0
H1694 H 0.90229 0.3717 0.67662 0.0
H1695 H 0.92223 0.32713 0.73949 0.0
H1696 H 0.89583 0.29486 0.75059 0.0
H1697 H 0.9001 0.32699 0.75989 0.0
H1698 H 0.84632 0.30933 0.75345 0.0
H1699 H 0.84193 0.27717 0.74409 0.0
H1700 H 0.83173 0.29748 0.72864 0.0
H1701 H 0.89384 0.32573 0.66313 0.0
H1702 H 0.8861 0.27864 0.65733 0.0
H1703 H 0.87033 0.26073 0.72114 0.0
C1704 C 0.88762 0.36449 0.73462 0.0
C1705 C 0.89576 0.38995 0.72491 0.0
C1706 C 0.90105 0.39233 0.70385 0.0
C1707 C 0.89814 0.36976 0.69267 0.0
C1708 C 0.89021 0.34506 0.7028 0.0
C1709 C 0.88528 0.34242 0.72333 0.0
C1710 C 0.87803 0.31405 0.73082 0.0
C1711 C 0.90039 0.31588 0.74609 0.0
C1712 C 0.8477 0.2986 0.73977 0.0
C1713 C 0.87972 0.30112 0.71128 0.0
C1714 C 0.88642 0.31915 0.69522 0.0
C1715 C 0.88862 0.31146 0.6756 0.0
C1716 C 0.88401 0.28467 0.67241 0.0
C1717 C 0.87765 0.26623 0.68878 0.0
C1718 C 0.8755 0.27462 0.7084 0.0
H1719 H 0.19454 0.97773 0.61017 0.0
H1720 H 0.15828 0.93322 0.66617 0.0
H1721 H 0.19271 0.97385 0.68536 0.0
H1722 H 0.26838 0.01138 0.62778 0.0
H1723 H 0.27862 0.04302 0.61421 0.0
H1724 H 0.25052 0.0106 0.60461 0.0
H1725 H 0.21616 0.03045 0.60389 0.0
H1726 H 0.24416 0.06287 0.61353 0.0
H1727 H 0.21043 0.04471 0.6266 0.0
H1728 H 0.22964 0.01971 0.69875 0.0
H1729 H 0.26959 0.0666 0.70531 0.0
H1730 H 0.28482 0.0807 0.64112 0.0
C1731 C 0.19398 0.9763 0.62645 0.0
C1732 C 0.17308 0.95219 0.63653 0.0
C1733 C 0.17327 0.95155 0.65793 0.0
C1734 C 0.19298 0.97451 0.66905 0.0
C1735 C 0.21287 0.99795 0.65865 0.0
C1736 C 0.21387 0.99894 0.63785 0.0
C1737 C 0.23804 0.02655 0.63048 0.0
C1738 C 0.26021 0.02265 0.61857 0.0
C1739 C 0.22649 0.04206 0.61788 0.0
C1740 C 0.25018 0.04095 0.65041 0.0
C1741 C 0.23515 0.02411 0.66644 0.0
C1742 C 0.24168 0.03305 0.68632 0.0
C1743 C 0.26428 0.05986 0.68993 0.0
C1744 C 0.28029 0.07739 0.67382 0.0
C1745 C 0.27314 0.06767 0.65379 0.0
H1746 H 0.03534 0.17625 0.64712 0.0
H1747 H 0.08696 0.26396 0.63441 0.0
H1748 H 0.04864 0.27149 0.64741 0.0
H1749 H 0.96958 0.16943 0.63172 0.0
H1750 H 0.94796 0.14528 0.65108 0.0
H1751 H 0.98057 0.14679 0.64304 0.0
H1752 H 0.99807 0.15474 0.67982 0.0
H1753 H 0.96615 0.15446 0.68828 0.0
H1754 H 1.00086 0.18377 0.69356 0.0
H1755 H 1.00377 0.26934 0.65689 0.0
H1756 H 0.95422 0.25784 0.66378 0.0
H1757 H 0.92981 0.17183 0.6726 0.0
C1758 C 0.03869 0.19706 0.64759 0.0
C1759 C 0.06424 0.21964 0.63987 0.0
C1760 C 0.06765 0.24648 0.64028 0.0
C1761 C 0.04601 0.25095 0.64769 0.0
C1762 C 0.02091 0.22839 0.6548 0.0
C1763 C 0.01701 0.20194 0.65497 0.0
C1764 C 0.98691 0.1813 0.66226 0.0
C1765 C 0.97028 0.15941 0.64606 0.0
C1766 C 0.98805 0.16775 0.68217 0.0
C1767 C 0.97439 0.20021 0.66546 0.0
C1768 C 0.99466 0.22731 0.66114 0.0
C1769 C 0.98793 0.24837 0.66087 0.0
C1770 C 0.95972 0.24165 0.66481 0.0
C1771 C 0.93849 0.21424 0.66953 0.0
C1772 C 0.94596 0.19319 0.67002 0.0
H1773 H 0.821 0.83614 0.61949 0.0
H1774 H 0.77421 0.84639 0.66872 0.0
H1775 H 0.77329 0.80698 0.68664 0.0
H1776 H 0.78341 0.76221 0.61981 0.0
H1777 H 0.81471 0.75978 0.61396 0.0
H1778 H 0.81219 0.78917 0.60542 0.0
H1779 H 0.86016 0.82212 0.62318 0.0
H1780 H 0.8628 0.79281 0.63173 0.0
H1781 H 0.86414 0.81762 0.64968 0.0
H1782 H 0.77666 0.76541 0.69869 0.0
H1783 H 0.78517 0.72614 0.70407 0.0
H1784 H 0.82959 0.74413 0.64669 0.0
C1785 C 0.81041 0.83003 0.634 0.0
C1786 C 0.79765 0.84427 0.64272 0.0
C1787 C 0.78441 0.83592 0.66187 0.0
C1788 C 0.78362 0.81348 0.67209 0.0
C1789 C 0.7962 0.79972 0.66293 0.0
C1790 C 0.80941 0.80777 0.64433 0.0
C1791 C 0.82133 0.78966 0.63767 0.0
C1792 C 0.80705 0.77429 0.61806 0.0
C1793 C 0.85405 0.80657 0.63545 0.0
C1794 C 0.81262 0.77004 0.65537 0.0
C1795 C 0.79818 0.77609 0.66983 0.0
C1796 C 0.78809 0.76058 0.68751 0.0
C1797 C 0.79314 0.73844 0.69049 0.0
C1798 C 0.80822 0.73223 0.67589 0.0
C1799 C 0.81781 0.74819 0.6581 0.0
H1800 H 0.04558 0.7943 0.64811 0.0
H1801 H 0.0317 0.86416 0.65352 0.0
H1802 H 0.98094 0.83226 0.66231 0.0
H1803 H 0.97734 0.74676 0.62612 0.0
H1804 H 0.97411 0.7173 0.63971 0.0
H1805 H 1.00895 0.74575 0.63358 0.0
H1806 H 0.0226 0.75002 0.6712 0.0
H1807 H 0.98749 0.72247 0.67796 0.0
H1808 H 1.0017 0.75596 0.68955 0.0
H1809 H 0.93134 0.79238 0.66934 0.0
H1810 H 0.88694 0.74769 0.6746 0.0
H1811 H 0.93405 0.70429 0.66611 0.0
C1812 C 0.03175 0.80283 0.65094 0.0
C1813 C 0.04227 0.83159 0.64968 0.0
C1814 C 0.02379 0.8421 0.65399 0.0
C1815 C 0.99505 0.82418 0.65908 0.0
C1816 C 0.98531 0.79589 0.66007 0.0
C1817 C 1.00312 0.78528 0.65613 0.0
C1818 C 0.98747 0.75411 0.65834 0.0
C1819 C 0.98694 0.74017 0.63824 0.0
C1820 C 1.00059 0.7451 0.67527 0.0
C1821 C 0.95801 0.74878 0.66401 0.0
C1822 C 0.95715 0.77312 0.66492 0.0
C1823 C 0.93188 0.77326 0.66896 0.0
C1824 C 0.90684 0.74783 0.67206 0.0
C1825 C 0.90745 0.72275 0.67146 0.0
C1826 C 0.9333 0.72329 0.66723 0.0
H1827 H 0.16765 0.14621 0.65451 0.0
H1828 H 0.20101 0.23221 0.638 0.0
H1829 H 0.25008 0.24145 0.64441 0.0
H1830 H 0.21582 0.15712 0.69379 0.0
H1831 H 0.22222 0.12884 0.68864 0.0
H1832 H 0.18851 0.12618 0.68207 0.0
H1833 H 0.19253 0.1173 0.64488 0.0
H1834 H 0.22496 0.11685 0.65054 0.0
H1835 H 0.22491 0.13964 0.63124 0.0
H1836 H 0.29569 0.24104 0.65095 0.0
H1837 H 0.33484 0.23114 0.65728 0.0
H1838 H 0.27283 0.14568 0.67068 0.0
C1839 C 0.18531 0.16705 0.65248 0.0
C1840 C 0.18029 0.18865 0.64637 0.0
C1841 C 0.20407 0.21546 0.64324 0.0
C1842 C 0.2321 0.22089 0.64675 0.0
C1843 C 0.23622 0.19924 0.65308 0.0
C1844 C 0.21352 0.17278 0.65575 0.0
C1845 C 0.22395 0.15309 0.66212 0.0
C1846 C 0.21195 0.14053 0.68291 0.0
C1847 C 0.21612 0.13038 0.64625 0.0
C1848 C 0.2561 0.17266 0.66283 0.0
C1849 C 0.26262 0.19913 0.65735 0.0
C1850 C 0.29081 0.2205 0.65551 0.0
C1851 C 0.31292 0.21469 0.65912 0.0
C1852 C 0.30693 0.18788 0.66492 0.0
C1853 C 0.27806 0.16658 0.66687 0.0
H1854 H 0.79808 0.9866 0.62935 0.0
H1855 H 0.79575 0.95161 0.68821 0.0
H1856 H 0.8143 0.99777 0.70367 0.0
H1857 H 0.86351 0.05209 0.63763 0.0
H1858 H 0.85126 0.07195 0.62364 0.0
H1859 H 0.83859 0.03635 0.61717 0.0
H1860 H 0.78627 0.02555 0.62147 0.0
H1861 H 0.79881 0.06109 0.62798 0.0
H1862 H 0.77541 0.03381 0.64492 0.0
H1863 H 0.83122 0.04693 0.71271 0.0
H1864 H 0.84577 0.09611 0.71491 0.0
H1865 H 0.83808 0.09969 0.65009 0.0
C1866 C 0.80145 0.98879 0.64549 0.0
C1867 C 0.79506 0.9657 0.65774 0.0
C1868 C 0.80014 0.96913 0.67873 0.0
C1869 C 0.81073 0.9952 0.68757 0.0
C1870 C 0.8164 0.01754 0.67513 0.0
C1871 C 0.81205 0.01467 0.65454 0.0
C1872 C 0.81962 0.042 0.64465 0.0
C1873 C 0.84474 0.05113 0.6299 0.0
C1874 C 0.79346 0.04051 0.63414 0.0
C1875 C 0.82836 0.06055 0.66297 0.0
C1876 C 0.82657 0.04605 0.68034 0.0
C1877 C 0.83306 0.05859 0.69917 0.0
C1878 C 0.84161 0.08671 0.70028 0.0
C1879 C 0.84362 0.10205 0.68274 0.0
C1880 C 0.83684 0.08864 0.66383 0.0
H1881 H 0.48285 0.36692 0.72156 0.0
H1882 H 0.55815 0.3713 0.69459 0.0
H1883 H 0.53038 0.32122 0.68695 0.0
H1884 H 0.45366 0.29742 0.74367 0.0
H1885 H 0.41718 0.28811 0.73835 0.0
H1886 H 0.44351 0.3237 0.74302 0.0
H1887 H 0.43114 0.33771 0.70881 0.0
H1888 H 0.40493 0.30217 0.70399 0.0
H1889 H 0.43314 0.32121 0.68603 0.0
H1890 H 0.49396 0.27164 0.6806 0.0
H1891 H 0.45164 0.2256 0.67617 0.0
H1892 H 0.39935 0.25324 0.70694 0.0
C1893 C 0.49356 0.35719 0.71433 0.0
C1894 C 0.52272 0.3728 0.70882 0.0
C1895 C 0.53592 0.35953 0.69909 0.0
C1896 C 0.52031 0.33118 0.6947 0.0
C1897 C 0.49152 0.31642 0.70014 0.0
C1898 C 0.47826 0.3289 0.70982 0.0
C1899 C 0.44677 0.30856 0.71327 0.0
C1900 C 0.43988 0.30419 0.73592 0.0
C1901 C 0.42789 0.31798 0.70237 0.0
C1902 C 0.44428 0.28281 0.70369 0.0
C1903 C 0.4704 0.2878 0.69632 0.0
C1904 C 0.47343 0.26747 0.68639 0.0
C1905 C 0.44916 0.24139 0.68384 0.0
C1906 C 0.42205 0.23579 0.69107 0.0
C1907 C 0.41974 0.2568 0.7013 0.0
H1908 H 0.6526 0.1019 0.72409 0.0
H1909 H 0.65927 0.17832 0.70257 0.0
H1910 H 0.7107 0.19667 0.69514 0.0
H1911 H 0.72236 0.13195 0.74772 0.0
H1912 H 0.72811 0.10407 0.74024 0.0
H1913 H 0.69231 0.09765 0.74431 0.0
H1914 H 0.67853 0.07746 0.7083 0.0
H1915 H 0.71442 0.08432 0.70387 0.0
H1916 H 0.69854 0.09827 0.68702 0.0
H1917 H 0.76175 0.20615 0.68954 0.0
H1918 H 0.80763 0.20641 0.6873 0.0
H1919 H 0.76725 0.12354 0.71221 0.0
C1920 C 0.66499 0.12266 0.71809 0.0
C1921 C 0.65206 0.13895 0.7143 0.0
C1922 C 0.66887 0.16574 0.70596 0.0
C1923 C 0.69804 0.17623 0.7016 0.0
C1924 C 0.7101 0.15959 0.70549 0.0
C1925 C 0.69407 0.1334 0.71364 0.0
C1926 C 0.71192 0.11947 0.71613 0.0
C1927 C 0.71378 0.11291 0.73842 0.0
C1928 C 0.70015 0.09333 0.70305 0.0
C1929 C 0.74057 0.14194 0.70831 0.0
C1930 C 0.7391 0.16488 0.7021 0.0
C1931 C 0.763 0.18822 0.69431 0.0
C1932 C 0.78899 0.18813 0.69296 0.0
C1933 C 0.79088 0.16476 0.69917 0.0
C1934 C 0.76633 0.14154 0.70711 0.0
H1935 H 0.90187 0.5242 0.68786 0.0
H1936 H 0.87364 0.50612 0.75006 0.0
H1937 H 0.85167 0.5356 0.74708 0.0
H1938 H 0.92159 0.59489 0.68975 0.0
H1939 H 0.91033 0.59647 0.66443 0.0
H1940 H 0.92145 0.57183 0.67071 0.0
H1941 H 0.87301 0.53208 0.65769 0.0
H1942 H 0.86172 0.55667 0.6515 0.0
H1943 H 0.84012 0.52789 0.66791 0.0
H1944 H 0.83587 0.56875 0.73851 0.0
H1945 H 0.8288 0.60619 0.7252 0.0
H1946 H 0.867 0.60365 0.66835 0.0
C1947 C 0.8906 0.52613 0.70069 0.0
C1948 C 0.88864 0.51232 0.71901 0.0
C1949 C 0.87468 0.51602 0.73576 0.0
C1950 C 0.86214 0.53265 0.7342 0.0
C1951 C 0.86407 0.54568 0.71586 0.0
C1952 C 0.87806 0.54283 0.69941 0.0
C1953 C 0.8789 0.56092 0.682 0.0
C1954 C 0.90991 0.58229 0.6764 0.0
C1955 C 0.86245 0.54333 0.66369 0.0
C1956 C 0.86355 0.57464 0.69138 0.0
C1957 C 0.85503 0.5653 0.71088 0.0
C1958 C 0.84212 0.57603 0.7232 0.0
C1959 C 0.83829 0.59729 0.71555 0.0
C1960 C 0.84721 0.60745 0.69578 0.0
C1961 C 0.85949 0.5957 0.68336 0.0
H1962 H 0.42067 0.90739 0.23709 0.0
H1963 H 0.51006 0.9431 0.25386 0.0
H1964 H 0.52425 0.96683 0.22103 0.0
H1965 H 0.42828 0.89916 0.1837 0.0
H1966 H 0.40267 0.90938 0.17642 0.0
H1967 H 0.39933 0.89285 0.20044 0.0
H1968 H 0.39976 0.93405 0.21869 0.0
H1969 H 0.40274 0.95052 0.19475 0.0
H1970 H 0.42882 0.96862 0.21418 0.0
H1971 H 0.52892 0.98817 0.18642 0.0
H1972 H 0.52331 0.00892 0.15487 0.0
H1973 H 0.43123 0.96211 0.16198 0.0
C1974 C 0.44327 0.92028 0.23405 0.0
C1975 C 0.46414 0.92292 0.24825 0.0
C1976 C 0.49348 0.93993 0.24323 0.0
C1977 C 0.50183 0.95369 0.22457 0.0
C1978 C 0.48069 0.95058 0.21102 0.0
C1979 C 0.45201 0.93453 0.21564 0.0
C1980 C 0.4335 0.93615 0.19909 0.0
C1981 C 0.41485 0.90769 0.18934 0.0
C1982 C 0.41513 0.94805 0.20716 0.0
C1983 C 0.45626 0.95603 0.18462 0.0
C1984 C 0.48336 0.96371 0.19155 0.0
C1985 C 0.50778 0.98226 0.18085 0.0
C1986 C 0.50443 0.99383 0.1629 0.0
C1987 C 0.47689 0.98718 0.15603 0.0
C1988 C 0.45256 0.96763 0.16691 0.0
H1989 H 0.07807 0.50302 0.24668 0.0
H1990 H 0.14417 0.58747 0.23429 0.0
H1991 H 0.12714 0.58284 0.1992 0.0
H1992 H 0.07926 0.47475 0.19658 0.0
H1993 H 0.04106 0.45211 0.19622 0.0
H1994 H 0.06 0.46121 0.21986 0.0
H1995 H 0.02688 0.479 0.23297 0.0
H1996 H 1.00797 0.47014 0.20936 0.0
H1997 H 0.02376 0.50498 0.21877 0.0
H1998 H 0.10118 0.57027 0.16629 0.0
H1999 H 0.06782 0.55066 0.13769 0.0
H2000 H 0.01857 0.47408 0.17109 0.0
C2001 C 0.08928 0.52031 0.23644 0.0
C2002 C 0.11244 0.54562 0.24318 0.0
C2003 C 0.12624 0.56798 0.22947 0.0
C2004 C 0.11683 0.5655 0.20949 0.0
C2005 C 0.0936 0.54049 0.20342 0.0
C2006 C 0.08004 0.51823 0.21643 0.0
C2007 C 0.05459 0.49419 0.20634 0.0
C2008 C 0.059 0.46908 0.20465 0.0
C2009 C 0.02665 0.48665 0.21753 0.0
C2010 C 0.05561 0.50666 0.18581 0.0
C2011 C 0.07847 0.53327 0.18438 0.0
C2012 C 0.08339 0.54933 0.16713 0.0
C2013 C 0.06437 0.53795 0.15092 0.0
C2014 C 0.0406 0.51078 0.15206 0.0
C2015 C 0.0364 0.49496 0.16976 0.0
H2016 H 0.47245 0.53047 0.24326 0.0
H2017 H 0.47495 0.60777 0.23 0.0
H2018 H 0.48794 0.60523 0.19465 0.0
H2019 H 0.53307 0.54485 0.21545 0.0
H2020 H 0.52001 0.51009 0.20656 0.0
H2021 H 0.507 0.51581 0.22996 0.0
H2022 H 0.45492 0.48775 0.21693 0.0
H2023 H 0.46777 0.48179 0.19346 0.0
H2024 H 0.44543 0.49735 0.19341 0.0
H2025 H 0.50442 0.59639 0.1618 0.0
H2026 H 0.52513 0.58282 0.13394 0.0
H2027 H 0.51286 0.5116 0.16862 0.0
C2028 C 0.47506 0.54644 0.23272 0.0
C2029 C 0.47251 0.5692 0.23915 0.0
C2030 C 0.47678 0.59017 0.22522 0.0
C2031 C 0.48401 0.58882 0.20515 0.0
C2032 C 0.48694 0.56639 0.19932 0.0
C2033 C 0.48261 0.54556 0.21268 0.0
C2034 C 0.48962 0.52507 0.20303 0.0
C2035 C 0.51387 0.52391 0.21443 0.0
C2036 C 0.46284 0.49629 0.20162 0.0
C2037 C 0.49929 0.53806 0.18238 0.0
C2038 C 0.49712 0.56161 0.18044 0.0
C2039 C 0.5059 0.57779 0.16303 0.0
C2040 C 0.51754 0.56987 0.14727 0.0
C2041 C 0.52055 0.54614 0.14911 0.0
C2042 C 0.51093 0.52991 0.16682 0.0
H2043 H 0.95342 0.48579 0.78687 0.0
H2044 H 0.88896 0.40021 0.79731 0.0
H2045 H 0.9058 0.40355 0.8324 0.0
H2046 H 1.00825 0.48322 0.81366 0.0
H2047 H 0.02375 0.51761 0.8239 0.0
H2048 H 1.0047 0.50959 0.80036 0.0
H2049 H 0.97126 0.52632 0.81469 0.0
H2050 H 0.99031 0.5345 0.83829 0.0
H2051 H 0.95216 0.51159 0.83786 0.0
H2052 H 0.93119 0.41522 0.86547 0.0
H2053 H 0.96481 0.43391 0.89407 0.0
H2054 H 0.01363 0.51166 0.86201 0.0
C2055 C 0.94257 0.46799 0.79672 0.0
C2056 C 0.91984 0.44279 0.78955 0.0
C2057 C 0.90646 0.41967 0.80263 0.0
C2058 C 0.91576 0.42141 0.82255 0.0
C2059 C 0.93854 0.44641 0.82912 0.0
C2060 C 0.95183 0.46929 0.81662 0.0
C2061 C 0.97717 0.49302 0.82699 0.0
C2062 C 1.00511 0.50133 0.81554 0.0
C2063 C 0.97243 0.51783 0.82961 0.0
C2064 C 0.97637 0.47969 0.84708 0.0
C2065 C 0.95367 0.45295 0.8481 0.0
C2066 C 0.94892 0.43622 0.86494 0.0
C2067 C 0.96805 0.44703 0.88112 0.0
C2068 C 0.99179 0.47421 0.88024 0.0
C2069 C 0.99577 0.49075 0.86304 0.0
H2070 H 0.60607 0.49711 0.79588 0.0
H2071 H 0.52377 0.42804 0.7779 0.0
H2072 H 0.5045 0.42778 0.81127 0.0
H2073 H 0.60433 0.47952 0.84877 0.0
H2074 H 0.61904 0.51464 0.85736 0.0
H2075 H 0.62823 0.50785 0.83275 0.0
H2076 H 0.61077 0.53898 0.81635 0.0
H2077 H 0.60194 0.54618 0.84091 0.0
H2078 H 0.57506 0.53228 0.82148 0.0
H2079 H 0.49278 0.43538 0.84568 0.0
H2080 H 0.48769 0.45462 0.8779 0.0
H2081 H 0.57543 0.52121 0.87335 0.0
C2082 C 0.58398 0.4819 0.79882 0.0
C2083 C 0.56689 0.46202 0.78412 0.0
C2084 C 0.53798 0.44272 0.78892 0.0
C2085 C 0.52661 0.4425 0.8079 0.0
C2086 C 0.54409 0.46205 0.82197 0.0
C2087 C 0.57196 0.48177 0.81762 0.0
C2088 C 0.58511 0.50212 0.83489 0.0
C2089 C 0.61069 0.50095 0.84398 0.0
C2090 C 0.59372 0.53163 0.82799 0.0
C2091 C 0.5601 0.49077 0.8495 0.0
C2092 C 0.53686 0.46734 0.8418 0.0
C2093 C 0.51085 0.45358 0.85197 0.0
C2094 C 0.50816 0.46452 0.87025 0.0
C2095 C 0.53128 0.48898 0.87809 0.0
C2096 C 0.55773 0.50207 0.8678 0.0
H2097 H 0.51447 0.07552 0.78763 0.0
H2098 H 0.60228 0.13972 0.79828 0.0
H2099 H 0.59861 0.12337 0.83334 0.0
H2100 H 0.4877 0.08064 0.83687 0.0
H2101 H 0.46304 0.04399 0.83847 0.0
H2102 H 0.4727 0.06083 0.81422 0.0
H2103 H 0.48891 0.02651 0.8025 0.0
H2104 H 0.47937 0.00961 0.8267 0.0
H2105 H 0.51512 0.02295 0.81709 0.0
H2106 H 0.58564 0.09856 0.86724 0.0
H2107 H 0.56445 0.06793 0.89674 0.0
H2108 H 0.484 0.02283 0.86451 0.0
C2109 C 0.53286 0.08656 0.79733 0.0
C2110 C 0.55872 0.10898 0.78997 0.0
C2111 C 0.58235 0.12223 0.80329 0.0
C2112 C 0.58041 0.11323 0.82335 0.0
C2113 C 0.55461 0.0911 0.83003 0.0
C2114 C 0.53121 0.07808 0.81743 0.0
C2115 C 0.50594 0.05471 0.82824 0.0
C2116 C 0.48087 0.06039 0.82953 0.0
C2117 C 0.49682 0.0268 0.81802 0.0
C2118 C 0.51889 0.05631 0.8488 0.0
C2119 C 0.54697 0.07742 0.84958 0.0
C2120 C 0.56356 0.08217 0.86684 0.0
C2121 C 0.55121 0.06472 0.88363 0.0
C2122 C 0.52244 0.04277 0.88315 0.0
C2123 C 0.50614 0.03901 0.86547 0.0
H2124 H 0.08342 0.2163 0.56746 0.0
H2125 H 0.17218 0.26316 0.58615 0.0
H2126 H 0.18574 0.28319 0.55199 0.0
H2127 H 0.09652 0.20192 0.5164 0.0
H2128 H 0.06805 0.20594 0.50574 0.0
H2129 H 0.06554 0.19421 0.53138 0.0
H2130 H 0.05816 0.23427 0.54369 0.0
H2131 H 0.06058 0.24606 0.5181 0.0
H2132 H 0.08409 0.26938 0.53707 0.0
H2133 H 0.18926 0.30021 0.51599 0.0
H2134 H 0.18223 0.31282 0.48158 0.0
H2135 H 0.09139 0.25387 0.48626 0.0
C2136 C 0.10574 0.23073 0.56439 0.0
C2137 C 0.12673 0.23794 0.57956 0.0
C2138 C 0.15572 0.25684 0.57477 0.0
C2139 C 0.16364 0.26848 0.5554 0.0
C2140 C 0.14238 0.261 0.54086 0.0
C2141 C 0.11402 0.2425 0.54513 0.0
C2142 C 0.09521 0.23847 0.52701 0.0
C2143 C 0.08047 0.20835 0.5197 0.0
C2144 C 0.07322 0.24759 0.53176 0.0
C2145 C 0.11734 0.25782 0.51197 0.0
C2146 C 0.14444 0.27059 0.52019 0.0
C2147 C 0.16814 0.2901 0.50934 0.0
C2148 C 0.16396 0.29699 0.4897 0.0
C2149 C 0.13626 0.28443 0.48104 0.0
C2150 C 0.11284 0.26421 0.49237 0.0
H2151 H 0.74685 0.84118 0.58257 0.0
H2152 H 0.81609 0.92395 0.56935 0.0
H2153 H 0.79928 0.91911 0.5341 0.0
H2154 H 0.74657 0.81059 0.53317 0.0
H2155 H 0.70817 0.78936 0.53312 0.0
H2156 H 0.72742 0.79845 0.55664 0.0
H2157 H 0.69633 0.8188 0.56935 0.0
H2158 H 0.67717 0.81002 0.54585 0.0
H2159 H 0.69461 0.84522 0.5547 0.0
H2160 H 0.77276 0.90648 0.50121 0.0
H2161 H 0.73832 0.88714 0.4731 0.0
H2162 H 0.68701 0.81242 0.50796 0.0
C2163 C 0.75893 0.85802 0.57213 0.0
C2164 C 0.78286 0.88288 0.5786 0.0
C2165 C 0.79762 0.90477 0.56466 0.0
C2166 C 0.78835 0.90214 0.54463 0.0
C2167 C 0.76439 0.87748 0.53883 0.0
C2168 C 0.74997 0.85575 0.55215 0.0
C2169 C 0.7238 0.83212 0.54253 0.0
C2170 C 0.72668 0.80609 0.54129 0.0
C2171 C 0.69637 0.82622 0.55378 0.0
C2172 C 0.72529 0.84425 0.52188 0.0
C2173 C 0.74902 0.87028 0.51994 0.0
C2174 C 0.75429 0.88598 0.50245 0.0
C2175 C 0.73467 0.8748 0.48657 0.0
C2176 C 0.71004 0.84829 0.48838 0.0
C2177 C 0.70554 0.83282 0.50622 0.0
H2178 H 0.17197 0.9308 0.56553 0.0
H2179 H 0.11521 0.84428 0.58056 0.0
H2180 H 0.12352 0.83088 0.5471 0.0
H2181 H 0.1549 0.92754 0.51305 0.0
H2182 H 0.19127 0.95055 0.5053 0.0
H2183 H 0.17956 0.95377 0.53005 0.0
H2184 H 0.22032 0.94849 0.54624 0.0
H2185 H 0.23232 0.94553 0.52154 0.0
H2186 H 0.22376 0.91883 0.54008 0.0
H2187 H 0.13747 0.82664 0.51165 0.0
H2188 H 0.16059 0.8318 0.47844 0.0
H2189 H 0.21127 0.92033 0.4877 0.0
C2190 C 0.16143 0.90899 0.56198 0.0
C2191 C 0.14243 0.88874 0.57578 0.0
C2192 C 0.12911 0.86043 0.5702 0.0
C2193 C 0.13384 0.8525 0.5512 0.0
C2194 C 0.15236 0.87301 0.53796 0.0
C2195 C 0.16632 0.90063 0.54321 0.0
C2196 C 0.18641 0.91844 0.52662 0.0
C2197 C 0.17749 0.93877 0.51827 0.0
C2198 C 0.21755 0.93372 0.53407 0.0
C2199 C 0.18158 0.89649 0.51126 0.0
C2200 C 0.16152 0.87045 0.51795 0.0
C2201 C 0.15331 0.84691 0.50628 0.0
C2202 C 0.16639 0.85002 0.48743 0.0
C2203 C 0.18772 0.8764 0.48063 0.0
C2204 C 0.19514 0.8999 0.49264 0.0
H2205 H 0.62048 0.81869 0.12239 0.0
H2206 H 0.55452 0.73393 0.13363 0.0
H2207 H 0.57075 0.73787 0.16897 0.0
H2208 H 0.67413 0.81519 0.15018 0.0
H2209 H 0.69039 0.84995 0.15982 0.0
H2210 H 0.67163 0.84164 0.13615 0.0
H2211 H 0.63912 0.86008 0.14943 0.0
H2212 H 0.65789 0.86857 0.17314 0.0
H2213 H 0.61962 0.84644 0.17262 0.0
H2214 H 0.59559 0.75017 0.20237 0.0
H2215 H 0.62882 0.76926 0.23119 0.0
H2216 H 0.67976 0.84553 0.19791 0.0
C2217 C 0.60916 0.80122 0.13247 0.0
C2218 C 0.58613 0.77609 0.12549 0.0
C2219 C 0.57218 0.75335 0.13884 0.0
C2220 C 0.58116 0.75544 0.15889 0.0
C2221 C 0.60424 0.78037 0.16528 0.0
C2222 C 0.61814 0.80285 0.15248 0.0
C2223 C 0.64373 0.8265 0.16269 0.0
C2224 C 0.67161 0.83373 0.15155 0.0
C2225 C 0.63984 0.8519 0.16458 0.0
C2226 C 0.64231 0.81364 0.1831 0.0
C2227 C 0.61913 0.78718 0.18438 0.0
C2228 C 0.6137 0.77094 0.20161 0.0
C2229 C 0.63262 0.78197 0.2179 0.0
C2230 C 0.65682 0.80883 0.21675 0.0
C2231 C 0.66151 0.82487 0.19915 0.0
H2232 H 0.27492 0.8364 0.12695 0.0
H2233 H 0.192 0.76818 0.10918 0.0
H2234 H 0.17218 0.77071 0.14185 0.0
H2235 H 0.27117 0.82155 0.18022 0.0
H2236 H 0.28722 0.85731 0.18756 0.0
H2237 H 0.29624 0.84837 0.16366 0.0
H2238 H 0.28122 0.8801 0.14515 0.0
H2239 H 0.27253 0.88939 0.16899 0.0
H2240 H 0.246 0.87528 0.14933 0.0
H2241 H 0.16056 0.78113 0.17617 0.0
H2242 H 0.15689 0.80263 0.20785 0.0
H2243 H 0.24541 0.8669 0.20171 0.0
C2244 C 0.25253 0.82201 0.1297 0.0
C2245 C 0.23535 0.80171 0.1153 0.0
C2246 C 0.20615 0.78332 0.11998 0.0
C2247 C 0.19451 0.78468 0.13854 0.0
C2248 C 0.21208 0.80486 0.15226 0.0
C2249 C 0.24033 0.82351 0.14795 0.0
C2250 C 0.25392 0.84476 0.16457 0.0
C2251 C 0.2786 0.84287 0.17459 0.0
C2252 C 0.264 0.87411 0.15653 0.0
C2253 C 0.22876 0.83527 0.1788 0.0
C2254 C 0.20498 0.81186 0.1716 0.0
C2255 C 0.17903 0.79942 0.18198 0.0
C2256 C 0.17714 0.81163 0.19994 0.0
C2257 C 0.2009 0.83614 0.20709 0.0
C2258 C 0.22708 0.84794 0.19653 0.0
H2259 H 0.22885 0.41056 0.11787 0.0
H2260 H 0.2177 0.48077 0.13056 0.0
H2261 H 0.2057 0.46532 0.16598 0.0
H2262 H 0.1698 0.36248 0.14669 0.0
H2263 H 0.18642 0.34327 0.15551 0.0
H2264 H 0.19718 0.36141 0.13182 0.0
H2265 H 0.24975 0.38798 0.14406 0.0
H2266 H 0.23913 0.36992 0.16784 0.0
H2267 H 0.25832 0.40718 0.16728 0.0
H2268 H 0.19274 0.44118 0.19947 0.0
H2269 H 0.1764 0.4083 0.22805 0.0
H2270 H 0.19435 0.35281 0.19346 0.0
C2271 C 0.22438 0.42286 0.12827 0.0
C2272 C 0.22441 0.44696 0.12166 0.0
C2273 C 0.21783 0.46229 0.13545 0.0
C2274 C 0.21113 0.45374 0.15557 0.0
C2275 C 0.21094 0.42971 0.16162 0.0
C2276 C 0.21722 0.41437 0.14837 0.0
C2277 C 0.2133 0.38822 0.15835 0.0
C2278 C 0.1903 0.36232 0.14744 0.0
C2279 C 0.24183 0.38834 0.15945 0.0
C2280 C 0.20335 0.39102 0.17912 0.0
C2281 C 0.20259 0.41533 0.1808 0.0
C2282 C 0.19342 0.42216 0.19839 0.0
C2283 C 0.18431 0.40344 0.21458 0.0
C2284 C 0.1841 0.37802 0.21299 0.0
C2285 C 0.19415 0.37202 0.19508 0.0
H2286 H 0.83684 0.6082 0.91467 0.0
H2287 H 0.74917 0.54462 0.90318 0.0
H2288 H 0.75239 0.56287 0.86881 0.0
H2289 H 0.83372 0.66211 0.88896 0.0
H2290 H 0.86931 0.67771 0.87861 0.0
H2291 H 0.86112 0.65849 0.90185 0.0
H2292 H 0.87884 0.62698 0.88663 0.0
H2293 H 0.88723 0.6462 0.86334 0.0
H2294 H 0.86377 0.60925 0.86325 0.0
H2295 H 0.76362 0.58981 0.83674 0.0
H2296 H 0.78256 0.62312 0.80865 0.0
H2297 H 0.86374 0.66868 0.83998 0.0
C2298 C 0.81857 0.59783 0.90475 0.0
C2299 C 0.79272 0.57503 0.91162 0.0
C2300 C 0.76909 0.56227 0.8983 0.0
C2301 C 0.77074 0.57241 0.87871 0.0
C2302 C 0.79625 0.59528 0.87254 0.0
C2303 C 0.81983 0.60776 0.88506 0.0
C2304 C 0.84424 0.63277 0.87486 0.0
C2305 C 0.85258 0.65934 0.88678 0.0
C2306 C 0.87005 0.62854 0.87184 0.0
C2307 C 0.83047 0.63264 0.85487 0.0
C2308 C 0.80284 0.61074 0.85383 0.0
C2309 C 0.7854 0.60683 0.83724 0.0
C2310 C 0.79646 0.62584 0.82127 0.0
C2311 C 0.82479 0.64856 0.82189 0.0
C2312 C 0.84196 0.65175 0.83897 0.0
H2313 H 0.42777 0.23173 0.90818 0.0
H2314 H 0.4756 0.1889 0.8994 0.0
H2315 H 0.45504 0.17521 0.86526 0.0
H2316 H 0.3651 0.18418 0.88326 0.0
H2317 H 0.35853 0.20996 0.87203 0.0
H2318 H 0.37773 0.21709 0.89546 0.0
H2319 H 0.42022 0.26106 0.87984 0.0
H2320 H 0.40104 0.25419 0.85639 0.0
H2321 H 0.43633 0.25824 0.85684 0.0
H2322 H 0.4271 0.16427 0.83276 0.0
H2323 H 0.39546 0.1584 0.80403 0.0
H2324 H 0.36889 0.21119 0.83374 0.0
C2325 C 0.43449 0.22 0.89898 0.0
C2326 C 0.45334 0.21143 0.90649 0.0
C2327 C 0.46093 0.19545 0.89406 0.0
C2328 C 0.44951 0.18771 0.87462 0.0
C2329 C 0.43077 0.19634 0.86781 0.0
C2330 C 0.42355 0.21234 0.87956 0.0
C2331 C 0.40267 0.21862 0.86891 0.0
C2332 C 0.37434 0.20675 0.88062 0.0
C2333 C 0.41586 0.24988 0.86528 0.0
C2334 C 0.39891 0.20331 0.84941 0.0
C2335 C 0.41526 0.19057 0.84902 0.0
C2336 C 0.41448 0.17445 0.83279 0.0
C2337 C 0.39654 0.17135 0.8165 0.0
C2338 C 0.37973 0.18441 0.81658 0.0
C2339 C 0.38116 0.20066 0.83328 0.0
H2340 H 0.80899 0.19879 0.91568 0.0
H2341 H 0.78637 0.26034 0.89847 0.0
H2342 H 0.79741 0.25635 0.86284 0.0
H2343 H 0.86821 0.22259 0.88493 0.0
H2344 H 0.86341 0.18927 0.87818 0.0
H2345 H 0.84939 0.19345 0.90167 0.0
H2346 H 0.79876 0.15425 0.89194 0.0
H2347 H 0.8127 0.1497 0.86847 0.0
H2348 H 0.78319 0.15625 0.86839 0.0
H2349 H 0.81657 0.24996 0.83007 0.0
H2350 H 0.84154 0.24117 0.80247 0.0
H2351 H 0.85119 0.18297 0.84066 0.0
C2352 C 0.80537 0.21057 0.90422 0.0
C2353 C 0.79616 0.22934 0.90956 0.0
C2354 C 0.79276 0.24539 0.89445 0.0
C2355 C 0.79907 0.2433 0.87424 0.0
C2356 C 0.80876 0.22505 0.86942 0.0
C2357 C 0.81166 0.20875 0.88395 0.0
C2358 C 0.82479 0.19259 0.87506 0.0
C2359 C 0.85313 0.19993 0.88559 0.0
C2360 C 0.80359 0.16134 0.87602 0.0
C2361 C 0.82971 0.20307 0.8535 0.0
C2362 C 0.82002 0.22151 0.8505 0.0
C2363 C 0.82374 0.23513 0.83214 0.0
C2364 C 0.83788 0.22989 0.81648 0.0
C2365 C 0.84829 0.21124 0.81923 0.0
C2366 C 0.8437 0.19745 0.838 0.0
H2367 H 0.27974 0.14226 0.45683 0.0
H2368 H 0.20432 0.06355 0.4702 0.0
H2369 H 0.22244 0.06477 0.50468 0.0
H2370 H 0.32823 0.12811 0.48117 0.0
H2371 H 0.35086 0.16259 0.49062 0.0
H2372 H 0.33044 0.15742 0.46798 0.0
H2373 H 0.30692 0.18378 0.48359 0.0
H2374 H 0.32753 0.18932 0.50624 0.0
H2375 H 0.28912 0.17286 0.50762 0.0
H2376 H 0.25016 0.07308 0.53664 0.0
H2377 H 0.28602 0.08754 0.56391 0.0
H2378 H 0.34398 0.16014 0.52917 0.0
C2379 C 0.26675 0.12569 0.46724 0.0
C2380 C 0.24056 0.10295 0.46109 0.0
C2381 C 0.22441 0.08117 0.47479 0.0
C2382 C 0.23448 0.08174 0.49436 0.0
C2383 C 0.26073 0.10419 0.49984 0.0
C2384 C 0.27663 0.1258 0.48671 0.0
C2385 C 0.30512 0.14641 0.49579 0.0
C2386 C 0.33013 0.14875 0.48313 0.0
C2387 C 0.30728 0.17477 0.49847 0.0
C2388 C 0.30302 0.1327 0.5159 0.0
C2389 C 0.27709 0.10858 0.51806 0.0
C2390 C 0.27045 0.09203 0.5352 0.0
C2391 C 0.29089 0.10038 0.55057 0.0
C2392 C 0.31769 0.12486 0.54853 0.0
C2393 C 0.32373 0.1412 0.53099 0.0
H2394 H 0.89134 0.10686 0.46752 0.0
H2395 H 0.92899 0.1919 0.44663 0.0
H2396 H 0.91903 0.20537 0.47955 0.0
H2397 H 0.83309 0.10673 0.49318 0.0
H2398 H 0.83229 0.08458 0.51332 0.0
H2399 H 0.84488 0.08211 0.48872 0.0
H2400 H 0.89249 0.09044 0.5045 0.0
H2401 H 0.88014 0.09322 0.52914 0.0
H2402 H 0.91342 0.12091 0.51951 0.0
H2403 H 0.90444 0.20976 0.51473 0.0
H2404 H 0.88132 0.20342 0.54815 0.0
H2405 H 0.84949 0.11529 0.54487 0.0
C2406 C 0.89737 0.12831 0.46969 0.0
C2407 C 0.91147 0.14831 0.45437 0.0
C2408 C 0.91902 0.17619 0.45817 0.0
C2409 C 0.9133 0.1841 0.47685 0.0
C2410 C 0.89961 0.16389 0.49158 0.0
C2411 C 0.89135 0.1365 0.48811 0.0
C2412 C 0.87515 0.11852 0.50597 0.0
C2413 C 0.84454 0.0967 0.49993 0.0
C2414 C 0.89127 0.10498 0.51533 0.0
C2415 C 0.87528 0.14003 0.5199 0.0
C2416 C 0.88999 0.16618 0.51148 0.0
C2417 C 0.89287 0.1894 0.52148 0.0
C2418 C 0.87984 0.18568 0.54042 0.0
C2419 C 0.86389 0.15896 0.54889 0.0
C2420 C 0.8618 0.13593 0.53862 0.0
H2421 H 0.9028 0.75441 0.45374 0.0
H2422 H 0.87635 0.81492 0.46479 0.0
H2423 H 0.86381 0.79809 0.49992 0.0
H2424 H 0.84684 0.70026 0.4805 0.0
H2425 H 0.86787 0.68598 0.4904 0.0
H2426 H 0.87791 0.70487 0.46699 0.0
H2427 H 0.92834 0.73798 0.48128 0.0
H2428 H 0.91847 0.71913 0.50476 0.0
H2429 H 0.93179 0.75587 0.5046 0.0
H2430 H 0.85131 0.77258 0.53332 0.0
H2431 H 0.83778 0.73921 0.56149 0.0
H2432 H 0.8715 0.69471 0.52845 0.0
C2433 C 0.89507 0.76457 0.46373 0.0
C2434 C 0.89089 0.78623 0.45662 0.0
C2435 C 0.87986 0.79841 0.46997 0.0
C2436 C 0.87276 0.78903 0.48995 0.0
C2437 C 0.8767 0.76734 0.49641 0.0
C2438 C 0.88758 0.75524 0.48368 0.0
C2439 C 0.8877 0.73089 0.49384 0.0
C2440 C 0.86896 0.70391 0.48224 0.0
C2441 C 0.91841 0.7363 0.49626 0.0
C2442 C 0.87464 0.73081 0.51409 0.0
C2443 C 0.86884 0.75224 0.51541 0.0
C2444 C 0.85599 0.75587 0.53249 0.0
C2445 C 0.84849 0.73687 0.54848 0.0
C2446 C 0.85352 0.71429 0.54724 0.0
C2447 C 0.86718 0.71162 0.52985 0.0
loop_
_geom_bond_atom_site_label_1
_geom_bond_atom_site_label_2
_geom_bond_distance
_geom_bond_site_symmetry_2
_ccdc_geom_bond_type
H0 C7 0.929 . S
H1 C10 0.930 . S
H2 C12 0.929 . S
H3 C4 0.969 . S
C4 H3 0.969 . S
C4 O5 1.550 . S
C4 H6 0.973 . S
O5 C4 1.550 . S
O5 C11 1.412 . S
H6 C4 0.973 . S
C7 H0 0.929 . S
C7 C8 1.400 . S
C7 C9 1.364 . S
C8 C7 1.400 . S
C8 C12 1.377 . S
C9 C7 1.364 . S
C9 C10 1.374 . S
C10 H1 0.930 . S
C10 C9 1.374 . S
C10 C11 1.383 . S
C11 O5 1.412 . S
C11 C10 1.383 . S
C11 C12 1.394 . S
C12 H2 0.929 . S
C12 C8 1.377 . S
C12 C11 1.394 . S
H13 C20 0.929 . S
H14 C23 0.930 . S
H15 C25 0.929 . S
H16 C17 0.969 . S
C17 H16 0.969 . S
C17 O18 1.550 . S
C17 H19 0.973 . S
O18 C17 1.550 . S
O18 C24 1.412 . S
H19 C17 0.973 . S
C20 H13 0.929 . S
C20 C21 1.400 . S
C20 C22 1.364 . S
C21 C20 1.400 . S
C21 C25 1.377 . S
C22 C20 1.364 . S
C22 C23 1.374 . S
C23 H14 0.930 . S
C23 C22 1.374 . S
C23 C24 1.383 . S
C24 O18 1.412 . S
C24 C23 1.383 . S
C24 C25 1.394 . S
C25 H15 0.929 . S
C25 C21 1.377 . S
C25 C24 1.394 . S
H26 C33 0.929 . S
H27 C36 0.930 . S
H28 C38 0.929 . S
H29 C30 0.969 . S
C30 H29 0.969 . S
C30 O31 1.550 . S
C30 H32 0.973 . S
O31 C30 1.550 . S
O31 C37 1.412 . S
H32 C30 0.973 . S
C33 H26 0.929 . S
C33 C34 1.400 . S
C33 C35 1.364 . S
C34 C33 1.400 . S
C34 C38 1.377 . S
C35 C33 1.364 . S
C35 C36 1.374 . S
C36 H27 0.930 . S
C36 C35 1.374 . S
C36 C37 1.383 . S
C37 O31 1.412 . S
C37 C36 1.383 . S
C37 C38 1.394 . S
C38 H28 0.929 . S
C38 C34 1.377 . S
C38 C37 1.394 . S
H39 C46 0.929 . S
H40 C49 0.930 . S
H41 C51 0.929 . S
H42 C43 0.969 . S
C43 H42 0.969 . S
C43 O44 1.550 . S
C43 H45 0.973 . S
O44 C43 1.550 . S
O44 C50 1.412 . S
H45 C43 0.973 . S
C46 H39 0.929 . S
C46 C47 1.400 . S
C46 C48 1.364 . S
C47 C46 1.400 . S
C47 C51 1.377 . S
C48 C46 1.364 . S
C48 C49 1.374 . S
C49 H40 0.930 . S
C49 C48 1.374 . S
C49 C50 1.383 . S
C50 O44 1.412 . S
C50 C49 1.383 . S
C50 C51 1.394 . S
C51 H41 0.929 . S
C51 C47 1.377 . S
C51 C50 1.394 . S
H52 C59 0.929 . S
H53 C62 0.930 . S
H54 C64 0.929 . S
H55 C56 0.969 . S
C56 H55 0.969 . S
C56 O57 1.550 . S
C56 H58 0.973 . S
O57 C56 1.550 . S
O57 C63 1.412 . S
H58 C56 0.973 . S
C59 H52 0.929 . S
C59 C60 1.400 . S
C59 C61 1.364 . S
C60 C59 1.400 . S
C60 C64 1.377 . S
C61 C59 1.364 . S
C61 C62 1.374 . S
C62 H53 0.930 . S
C62 C61 1.374 . S
C62 C63 1.383 . S
C63 O57 1.412 . S
C63 C62 1.383 . S
C63 C64 1.394 . S
C64 H54 0.929 . S
C64 C60 1.377 . S
C64 C63 1.394 . S
H65 C72 0.929 . S
H66 C75 0.930 . S
H67 C77 0.929 . S
H68 C69 0.969 . S
C69 H68 0.969 . S
C69 O70 1.550 . S
C69 H71 0.973 . S
O70 C69 1.550 . S
O70 C76 1.412 . S
H71 C69 0.973 . S
C72 H65 0.929 . S
C72 C73 1.400 . S
C72 C74 1.364 . S
C73 C72 1.400 . S
C73 C77 1.377 . S
C74 C72 1.364 . S
C74 C75 1.374 . S
C75 H66 0.930 . S
C75 C74 1.374 . S
C75 C76 1.383 . S
C76 O70 1.412 . S
C76 C75 1.383 . S
C76 C77 1.394 . S
C77 H67 0.929 . S
C77 C73 1.377 . S
C77 C76 1.394 . S
H78 C85 0.929 . S
H79 C88 0.930 . S
H80 C90 0.929 . S
H81 C82 0.969 . S
C82 H81 0.969 . S
C82 O83 1.550 . S
C82 H84 0.973 . S
O83 C82 1.550 . S
O83 C89 1.412 . S
H84 C82 0.973 . S
C85 H78 0.929 . S
C85 C86 1.400 . S
C85 C87 1.364 . S
C86 C85 1.400 . S
C86 C90 1.377 . S
C87 C85 1.364 . S
C87 C88 1.374 . S
C88 H79 0.930 . S
C88 C87 1.374 . S
C88 C89 1.383 . S
C89 O83 1.412 . S
C89 C88 1.383 . S
C89 C90 1.394 . S
C90 H80 0.929 . S
C90 C86 1.377 . S
C90 C89 1.394 . S
H91 C98 0.929 . S
H92 C101 0.930 . S
H93 C103 0.929 . S
H94 C95 0.969 . S
C95 H94 0.969 . S
C95 O96 1.550 . S
C95 H97 0.973 . S
O96 C95 1.550 . S
O96 C102 1.412 . S
H97 C95 0.973 . S
C98 H91 0.929 . S
C98 C99 1.400 . S
C98 C100 1.364 . S
C99 C98 1.400 . S
C99 C103 1.377 . S
C100 C98 1.364 . S
C100 C101 1.374 . S
C101 H92 0.930 . S
C101 C100 1.374 . S
C101 C102 1.383 . S
C102 O96 1.412 . S
C102 C101 1.383 . S
C102 C103 1.394 . S
C103 H93 0.929 . S
C103 C99 1.377 . S
C103 C102 1.394 . S
H104 C111 0.929 . S
H105 C114 0.930 . S
H106 C116 0.929 . S
H107 C108 0.969 . S
C108 H107 0.969 . S
C108 O109 1.550 . S
C108 H110 0.973 . S
O109 C108 1.550 . S
O109 C115 1.412 . S
H110 C108 0.973 . S
C111 H104 0.929 . S
C111 C112 1.400 . S
C111 C113 1.364 . S
C112 C111 1.400 . S
C112 C116 1.377 . S
C113 C111 1.364 . S
C113 C114 1.374 . S
C114 H105 0.930 . S
C114 C113 1.374 . S
C114 C115 1.383 . S
C115 O109 1.412 . S
C115 C114 1.383 . S
C115 C116 1.394 . S
C116 H106 0.929 . S
C116 C112 1.377 . S
C116 C115 1.394 . S
H117 C124 0.929 . S
H118 C127 0.930 . S
H119 C129 0.929 . S
H120 C121 0.969 . S
C121 H120 0.969 . S
C121 O122 1.550 . S
C121 H123 0.973 . S
O122 C121 1.550 . S
O122 C128 1.412 . S
H123 C121 0.973 . S
C124 H117 0.929 . S
C124 C125 1.400 . S
C124 C126 1.364 . S
C125 C124 1.400 . S
C125 C129 1.377 . S
C126 C124 1.364 . S
C126 C127 1.374 . S
C127 H118 0.930 . S
C127 C126 1.374 . S
C127 C128 1.383 . S
C128 O122 1.412 . S
C128 C127 1.383 . S
C128 C129 1.394 . S
C129 H119 0.929 . S
C129 C125 1.377 . S
C129 C128 1.394 . S
H130 C137 0.929 . S
H131 C140 0.930 . S
H132 C142 0.929 . S
H133 C134 0.969 . S
C134 H133 0.969 . S
C134 O135 1.550 . S
C134 H136 0.973 . S
O135 C134 1.550 . S
O135 C141 1.412 . S
H136 C134 0.973 . S
C137 H130 0.929 . S
C137 C138 1.400 . S
C137 C139 1.364 . S
C138 C137 1.400 . S
C138 C142 1.377 . S
C139 C137 1.364 . S
C139 C140 1.374 . S
C140 H131 0.930 . S
C140 C139 1.374 . S
C140 C141 1.383 . S
C141 O135 1.412 . S
C141 C140 1.383 . S
C141 C142 1.394 . S
C142 H132 0.929 . S
C142 C138 1.377 . S
C142 C141 1.394 . S
H143 C150 0.929 . S
H144 C153 0.930 . S
H145 C155 0.929 . S
H146 C147 0.969 . S
C147 H146 0.969 . S
C147 O148 1.550 . S
C147 H149 0.973 . S
O148 C147 1.550 . S
O148 C154 1.412 . S
H149 C147 0.973 . S
C150 H143 0.929 . S
C150 C151 1.400 . S
C150 C152 1.364 . S
C151 C150 1.400 . S
C151 C155 1.377 . S
C152 C150 1.364 . S
C152 C153 1.374 . S
C153 H144 0.930 . S
C153 C152 1.374 . S
C153 C154 1.383 . S
C154 O148 1.412 . S
C154 C153 1.383 . S
C154 C155 1.394 . S
C155 H145 0.929 . S
C155 C151 1.377 . S
C155 C154 1.394 . S
H156 C163 0.929 . S
H157 C166 0.930 . S
H158 C168 0.929 . S
H159 C160 0.969 . S
C160 H159 0.969 . S
C160 O161 1.550 . S
C160 H162 0.973 . S
O161 C160 1.550 . S
O161 C167 1.412 . S
H162 C160 0.973 . S
C163 H156 0.929 . S
C163 C164 1.400 . S
C163 C165 1.364 . S
C164 C163 1.400 . S
C164 C168 1.377 . S
C165 C163 1.364 . S
C165 C166 1.374 . S
C166 H157 0.930 . S
C166 C165 1.374 . S
C166 C167 1.383 . S
C167 O161 1.412 . S
C167 C166 1.383 . S
C167 C168 1.394 . S
C168 H158 0.929 . S
C168 C164 1.377 . S
C168 C167 1.394 . S
H169 C176 0.929 . S
H170 C179 0.930 . S
H171 C181 0.929 . S
H172 C173 0.969 . S
C173 H172 0.969 . S
C173 O174 1.550 . S
C173 H175 0.973 . S
O174 C173 1.550 . S
O174 C180 1.412 . S
H175 C173 0.973 . S
C176 H169 0.929 . S
C176 C177 1.400 . S
C176 C178 1.364 . S
C177 C176 1.400 . S
C177 C181 1.377 . S
C178 C176 1.364 . S
C178 C179 1.374 . S
C179 H170 0.930 . S
C179 C178 1.374 . S
C179 C180 1.383 . S
C180 O174 1.412 . S
C180 C179 1.383 . S
C180 C181 1.394 . S
C181 H171 0.929 . S
C181 C177 1.377 . S
C181 C180 1.394 . S
H182 C189 0.929 . S
H183 C192 0.930 . S
H184 C194 0.929 . S
H185 C186 0.969 . S
C186 H185 0.969 . S
C186 O187 1.550 . S
C186 H188 0.973 . S
O187 C186 1.550 . S
O187 C193 1.412 . S
H188 C186 0.973 . S
C189 H182 0.929 . S
C189 C190 1.400 . S
C189 C191 1.364 . S
C190 C189 1.400 . S
C190 C194 1.377 . S
C191 C189 1.364 . S
C191 C192 1.374 . S
C192 H183 0.930 . S
C192 C191 1.374 . S
C192 C193 1.383 . S
C193 O187 1.412 . S
C193 C192 1.383 . S
C193 C194 1.394 . S
C194 H184 0.929 . S
C194 C190 1.377 . S
C194 C193 1.394 . S
H195 C202 0.929 . S
H196 C205 0.930 . S
H197 C207 0.929 . S
H198 C199 0.969 . S
C199 H198 0.969 . S
C199 O200 1.550 . S
C199 H201 0.973 . S
O200 C199 1.550 . S
O200 C206 1.412 . S
H201 C199 0.973 . S
C202 H195 0.929 . S
C202 C203 1.400 . S
C202 C204 1.364 . S
C203 C202 1.400 . S
C203 C207 1.377 . S
C204 C202 1.364 . S
C204 C205 1.374 . S
C205 H196 0.930 . S
C205 C204 1.374 . S
C205 C206 1.383 . S
C206 O200 1.412 . S
C206 C205 1.383 . S
C206 C207 1.394 . S
C207 H197 0.929 . S
C207 C203 1.377 . S
C207 C206 1.394 . S
H208 C215 0.929 . S
H209 C218 0.930 . S
H210 C220 0.929 . S
H211 C212 0.969 . S
C212 H211 0.969 . S
C212 O213 1.550 . S
C212 H214 0.973 . S
O213 C212 1.550 . S
O213 C219 1.412 . S
H214 C212 0.973 . S
C215 H208 0.929 . S
C215 C216 1.400 . S
C215 C217 1.364 . S
C216 C215 1.400 . S
C216 C220 1.377 . S
C217 C215 1.364 . S
C217 C218 1.374 . S
C218 H209 0.930 . S
C218 C217 1.374 . S
C218 C219 1.383 . S
C219 O213 1.412 . S
C219 C218 1.383 . S
C219 C220 1.394 . S
C220 H210 0.929 . S
C220 C216 1.377 . S
C220 C219 1.394 . S
H221 C228 0.929 . S
H222 C231 0.930 . S
H223 C233 0.929 . S
H224 C225 0.969 . S
C225 H224 0.969 . S
C225 O226 1.550 . S
C225 H227 0.973 . S
O226 C225 1.550 . S
O226 C232 1.412 . S
H227 C225 0.973 . S
C228 H221 0.929 . S
C228 C229 1.400 . S
C228 C230 1.364 . S
C229 C228 1.400 . S
C229 C233 1.377 . S
C230 C228 1.364 . S
C230 C231 1.374 . S
C231 H222 0.930 . S
C231 C230 1.374 . S
C231 C232 1.383 . S
C232 O226 1.412 . S
C232 C231 1.383 . S
C232 C233 1.394 . S
C233 H223 0.929 . S
C233 C229 1.377 . S
C233 C232 1.394 . S
Gd234 N265 2.661 . S
Gd234 N271 2.601 . S
Gd234 O278 2.545 . S
Gd234 O279 2.606 1_545 S
Gd234 O281 2.429 . S
Gd234 O282 2.545 1_545 S
Gd234 O283 2.412 1_545 S
Gd234 O285 2.362 . S
Gd234 O286 2.324 1_545 S
Gd234 C293 2.828 . S
Gd235 N244 2.661 . S
Gd235 N248 2.601 . S
Gd235 O279 2.362 1_556 S
Gd235 O280 2.324 1_565 S
Gd235 O284 2.545 . S
Gd235 O285 2.606 1_566 S
Gd235 O287 2.434 . S
Gd235 O288 2.545 1_565 S
Gd235 O289 2.412 1_565 S
Gd235 C302 2.827 1_565 S
C236 C239 1.417 . S
C236 C241 1.431 . S
C236 C242 1.412 . S
C237 C240 1.437 . S
C237 C241 1.317 . S
C237 H256 0.929 . S
C238 C239 1.426 . S
C238 C240 1.413 . S
C238 N248 1.359 . S
C239 C236 1.417 . S
C239 C238 1.426 . S
C239 N244 1.350 . S
C240 C237 1.437 . S
C240 C238 1.413 . S
C240 C250 1.391 . S
C241 C236 1.431 . S
C241 C237 1.317 . S
C241 H252 0.930 . S
C242 C236 1.412 . S
C242 C243 1.355 . S
C242 H254 0.930 . S
C243 C242 1.355 . S
C243 C245 1.402 . S
C243 H255 0.930 . S
N244 Gd235 2.661 . S
N244 C239 1.350 . S
N244 C245 1.307 . S
C245 C243 1.402 . S
C245 N244 1.307 . S
C245 H246 0.930 . S
H246 C245 0.930 . S
C247 N248 1.334 . S
C247 C249 1.394 . S
C247 H251 0.930 . S
N248 Gd235 2.601 . S
N248 C238 1.359 . S
N248 C247 1.334 . S
C249 C247 1.394 . S
C249 C250 1.359 . S
C249 H261 0.930 . S
C250 C240 1.391 . S
C250 C249 1.359 . S
C250 H262 0.929 . S
H251 C247 0.930 . S
H252 C241 0.930 . S
H253 C270 0.930 . S
H254 C242 0.930 . S
H255 C243 0.930 . S
H256 C237 0.929 . S
H257 C275 0.930 . S
H258 C266 0.930 . S
H259 C267 0.930 . S
H260 C291 0.929 . S
H261 C249 0.930 . S
H262 C250 0.929 . S
H263 C292 0.930 . S
H264 C273 0.930 . S
N265 Gd234 2.661 . S
N265 C269 1.350 . S
N265 C270 1.307 . S
C266 H258 0.930 . S
C266 C267 1.355 . S
C266 C268 1.412 . S
C267 H259 0.930 . S
C267 C266 1.355 . S
C267 C270 1.402 . S
C268 C266 1.412 . S
C268 C269 1.417 . S
C268 C292 1.431 . S
C269 N265 1.350 . S
C269 C268 1.417 . S
C269 C272 1.426 . S
C270 H253 0.930 . S
C270 N265 1.307 . S
C270 C267 1.402 . S
N271 Gd234 2.601 . S
N271 C272 1.359 . S
N271 C275 1.334 . S
C272 C269 1.426 . S
C272 N271 1.359 . S
C272 C276 1.413 . S
C273 H264 0.930 . S
C273 C274 1.359 . S
C273 C275 1.394 . S
C274 C273 1.359 . S
C274 C276 1.391 . S
C274 H277 0.929 . S
C275 H257 0.930 . S
C275 N271 1.334 . S
C275 C273 1.394 . S
C276 C272 1.413 . S
C276 C274 1.391 . S
C276 C291 1.437 . S
H277 C274 0.929 . S
O278 Gd234 2.545 . S
O278 C293 1.258 . S
O279 Gd234 2.606 1_565 S
O279 Gd235 2.362 1_554 S
O279 C290 1.284 . S
O280 Gd235 2.324 1_545 S
O280 C300 1.254 1_556 S
O281 Gd234 2.429 . S
O281 C300 1.268 . S
O282 Gd234 2.545 1_565 S
O282 C290 1.250 . S
O283 Gd234 2.412 1_565 S
O283 C293 1.252 1_565 S
O284 Gd235 2.545 . S
O284 C302 1.235 1_565 S
O285 Gd234 2.362 . S
O285 Gd235 2.606 1_544 S
O285 C301 1.284 1_554 S
O286 Gd234 2.324 1_565 S
O286 C309 1.254 . S
O287 Gd235 2.434 . S
O287 C309 1.259 1_556 S
O288 Gd235 2.545 1_545 S
O288 C301 1.250 . S
O289 Gd235 2.412 1_545 S
O289 C302 1.272 . S
C290 O279 1.284 . S
C290 O282 1.250 . S
C291 H260 0.929 . S
C291 C276 1.437 . S
C291 C292 1.317 . S
C292 H263 0.930 . S
C292 C268 1.431 . S
C292 C291 1.317 . S
C293 Gd234 2.828 . S
C293 O278 1.258 . S
C293 O283 1.252 1_545 S
C293 C294 1.504 . S
C294 C293 1.504 . S
C294 C295 1.430 . S
C294 C296 1.338 1_545 S
C295 C294 1.430 . S
C295 C298 1.398 . S
C295 H310 0.930 . S
C296 C294 1.338 1_565 S
C296 C297 1.391 . S
C296 H311 0.930 . S
C297 C296 1.391 . S
C297 C299 1.387 . S
C298 C295 1.398 . S
C298 C299 1.380 1_545 S
C298 H312 0.930 . S
C299 C297 1.387 . S
C299 C298 1.380 1_565 S
C299 H313 0.930 . S
C300 O280 1.254 1_554 S
C300 O281 1.268 . S
C301 O285 1.284 1_556 S
C301 O288 1.250 . S
C302 Gd235 2.827 1_545 S
C302 O284 1.235 1_545 S
C302 O289 1.272 . S
C302 C303 1.501 . S
C303 C302 1.501 . S
C303 C304 1.395 1_545 S
C303 C305 1.380 . S
C304 C303 1.395 1_565 S
C304 C307 1.398 . S
C304 H314 0.930 . S
C305 C303 1.380 . S
C305 C306 1.391 . S
C305 H315 0.930 . S
C306 C305 1.391 . S
C306 C308 1.387 . S
C307 C304 1.398 . S
C307 C308 1.380 1_565 S
C307 H316 0.930 . S
C308 C306 1.387 . S
C308 C307 1.380 1_545 S
C308 H317 0.930 . S
C309 O286 1.254 . S
C309 O287 1.259 1_554 S
H310 C295 0.930 . S
H311 C296 0.930 . S
H312 C298 0.930 . S
H313 C299 0.930 . S
H314 C304 0.930 . S
H315 C305 0.930 . S
H316 C307 0.930 . S
H317 C308 0.930 . S
Gd318 N349 2.661 . S
Gd318 N355 2.601 . S
Gd318 O362 2.545 . S
Gd318 O363 2.606 1_655 S
Gd318 O365 2.429 . S
Gd318 O366 2.545 1_655 S
Gd318 O367 2.412 1_655 S
Gd318 O369 2.362 . S
Gd318 O370 2.324 1_655 S
Gd318 C377 2.828 . S
Gd319 N328 2.661 . S
Gd319 N332 2.601 . S
Gd319 O363 2.362 1_556 S
Gd319 O364 2.324 1_455 S
Gd319 O368 2.545 . S
Gd319 O369 2.606 1_456 S
Gd319 O371 2.409 1_556 S
Gd319 O372 2.545 1_455 S
Gd319 O373 2.412 1_455 S
Gd319 C386 2.828 . S
C320 C323 1.417 . S
C320 C325 1.431 . S
C320 C326 1.412 . S
C321 C324 1.437 . S
C321 C325 1.317 . S
C321 H340 0.929 . S
C322 C323 1.426 . S
C322 C324 1.413 . S
C322 N332 1.359 . S
C323 C320 1.417 . S
C323 C322 1.426 . S
C323 N328 1.350 . S
C324 C321 1.437 . S
C324 C322 1.413 . S
C324 C334 1.391 . S
C325 C320 1.431 . S
C325 C321 1.317 . S
C325 H336 0.930 . S
C326 C320 1.412 . S
C326 C327 1.355 . S
C326 H338 0.930 . S
C327 C326 1.355 . S
C327 C329 1.402 . S
C327 H339 0.930 . S
N328 Gd319 2.661 . S
N328 C323 1.350 . S
N328 C329 1.307 . S
C329 C327 1.402 . S
C329 N328 1.307 . S
C329 H330 0.930 . S
H330 C329 0.930 . S
C331 N332 1.334 . S
C331 C333 1.394 . S
C331 H335 0.930 . S
N332 Gd319 2.601 . S
N332 C322 1.359 . S
N332 C331 1.334 . S
C333 C331 1.394 . S
C333 C334 1.359 . S
C333 H345 0.930 . S
C334 C324 1.391 . S
C334 C333 1.359 . S
C334 H346 0.929 . S
H335 C331 0.930 . S
H336 C325 0.930 . S
H337 C354 0.930 . S
H338 C326 0.930 . S
H339 C327 0.930 . S
H340 C321 0.929 . S
H341 C359 0.930 . S
H342 C350 0.930 . S
H343 C351 0.930 . S
H344 C375 0.929 . S
H345 C333 0.930 . S
H346 C334 0.929 . S
H347 C376 0.930 . S
H348 C357 0.930 . S
N349 Gd318 2.661 . S
N349 C353 1.350 . S
N349 C354 1.307 . S
C350 H342 0.930 . S
C350 C351 1.355 . S
C350 C352 1.412 . S
C351 H343 0.930 . S
C351 C350 1.355 . S
C351 C354 1.402 . S
C352 C350 1.412 . S
C352 C353 1.417 . S
C352 C376 1.431 . S
C353 N349 1.350 . S
C353 C352 1.417 . S
C353 C356 1.426 . S
C354 H337 0.930 . S
C354 N349 1.307 . S
C354 C351 1.402 . S
N355 Gd318 2.601 . S
N355 C356 1.359 . S
N355 C359 1.334 . S
C356 C353 1.426 . S
C356 N355 1.359 . S
C356 C360 1.413 . S
C357 H348 0.930 . S
C357 C358 1.359 . S
C357 C359 1.394 . S
C358 C357 1.359 . S
C358 C360 1.391 . S
C358 H361 0.929 . S
C359 H341 0.930 . S
C359 N355 1.334 . S
C359 C357 1.394 . S
C360 C356 1.413 . S
C360 C358 1.391 . S
C360 C375 1.437 . S
H361 C358 0.929 . S
O362 Gd318 2.545 . S
O362 C377 1.258 . S
O363 Gd318 2.606 1_455 S
O363 Gd319 2.362 1_554 S
O363 C374 1.284 . S
O364 Gd319 2.324 1_655 S
O364 C384 1.254 1_556 S
O365 Gd318 2.429 . S
O365 C384 1.268 . S
O366 Gd318 2.545 1_455 S
O366 C374 1.250 . S
O367 Gd318 2.412 1_455 S
O367 C377 1.252 1_455 S
O368 Gd319 2.545 . S
O368 C386 1.258 . S
O369 Gd318 2.362 . S
O369 Gd319 2.606 1_654 S
O369 C385 1.284 1_554 S
O370 Gd318 2.324 1_455 S
O370 C393 1.254 . S
O371 Gd319 2.409 1_554 S
O371 C393 1.308 . S
O372 Gd319 2.545 1_655 S
O372 C385 1.250 . S
O373 Gd319 2.412 1_655 S
O373 C386 1.252 1_655 S
C374 O363 1.284 . S
C374 O366 1.250 . S
C375 H344 0.929 . S
C375 C360 1.437 . S
C375 C376 1.317 . S
C376 H347 0.930 . S
C376 C352 1.431 . S
C376 C375 1.317 . S
C377 Gd318 2.828 . S
C377 O362 1.258 . S
C377 O367 1.252 1_655 S
C377 C378 1.497 1_655 S
C378 C377 1.497 1_455 S
C378 C379 1.395 1_455 S
C378 C380 1.380 . S
C379 C378 1.395 1_655 S
C379 C382 1.398 . S
C379 H394 0.930 . S
C380 C378 1.380 . S
C380 C381 1.391 . S
C380 H395 0.930 . S
C381 C380 1.391 . S
C381 C383 1.387 . S
C382 C379 1.398 . S
C382 C383 1.380 1_655 S
C382 H396 0.930 . S
C383 C381 1.387 . S
C383 C382 1.380 1_455 S
C383 H397 0.930 . S
C384 O364 1.254 1_554 S
C384 O365 1.268 . S
C385 O369 1.284 1_556 S
C385 O372 1.250 . S
C386 Gd319 2.828 . S
C386 O368 1.258 . S
C386 O373 1.252 1_455 S
C386 C387 1.497 . S
C387 C386 1.497 . S
C387 C388 1.395 . S
C387 C389 1.380 1_455 S
C388 C387 1.395 . S
C388 C391 1.398 . S
C388 H398 0.930 . S
C389 C387 1.380 1_655 S
C389 C390 1.391 . S
C389 H399 0.930 . S
C390 C389 1.391 . S
C390 C392 1.387 . S
C391 C388 1.398 . S
C391 C392 1.380 1_455 S
C391 H400 0.930 . S
C392 C390 1.387 . S
C392 C391 1.380 1_655 S
C392 H401 0.930 . S
C393 O370 1.254 . S
C393 O371 1.308 . S
H394 C379 0.930 . S
H395 C380 0.930 . S
H396 C382 0.930 . S
H397 C383 0.930 . S
H398 C388 0.930 . S
H399 C389 0.930 . S
H400 C391 0.930 . S
H401 C392 0.930 . S
Gd402 N433 2.661 . S
Gd402 N439 2.601 . S
Gd402 O446 2.545 . S
Gd402 O447 2.606 1_556 S
Gd402 O449 2.429 1_556 S
Gd402 O450 2.545 . S
Gd402 O451 2.412 . S
Gd402 O453 2.362 1_556 S
Gd402 O454 2.324 . S
Gd402 C461 2.828 . S
Gd403 N412 2.661 . S
Gd403 N416 2.601 . S
Gd403 O447 2.362 . S
Gd403 O448 2.324 . S
Gd403 O452 2.545 . S
Gd403 O453 2.606 . S
Gd403 O455 2.429 . S
Gd403 O456 2.545 . S
Gd403 O457 2.412 . S
Gd403 C470 2.828 . S
C404 C407 1.417 . S
C404 C409 1.431 . S
C404 C410 1.412 . S
C405 C408 1.437 . S
C405 C409 1.317 . S
C405 H424 0.929 . S
C406 C407 1.426 . S
C406 C408 1.413 . S
C406 N416 1.359 . S
C407 C404 1.417 . S
C407 C406 1.426 . S
C407 N412 1.350 . S
C408 C405 1.437 . S
C408 C406 1.413 . S
C408 C418 1.391 . S
C409 C404 1.431 . S
C409 C405 1.317 . S
C409 H420 0.930 . S
C410 C404 1.412 . S
C410 C411 1.355 . S
C410 H422 0.930 . S
C411 C410 1.355 . S
C411 C413 1.402 . S
C411 H423 0.930 . S
N412 Gd403 2.661 . S
N412 C407 1.350 . S
N412 C413 1.307 . S
C413 C411 1.402 . S
C413 N412 1.307 . S
C413 H414 0.930 . S
H414 C413 0.930 . S
C415 N416 1.334 . S
C415 C417 1.394 . S
C415 H419 0.930 . S
N416 Gd403 2.601 . S
N416 C406 1.359 . S
N416 C415 1.334 . S
C417 C415 1.394 . S
C417 C418 1.359 . S
C417 H429 0.930 . S
C418 C408 1.391 . S
C418 C417 1.359 . S
C418 H430 0.929 . S
H419 C415 0.930 . S
H420 C409 0.930 . S
H421 C438 0.930 . S
H422 C410 0.930 . S
H423 C411 0.930 . S
H424 C405 0.929 . S
H425 C443 0.930 . S
H426 C434 0.930 . S
H427 C435 0.930 . S
H428 C459 0.929 . S
H429 C417 0.930 . S
H430 C418 0.929 . S
H431 C460 0.930 . S
H432 C441 0.930 . S
N433 Gd402 2.661 . S
N433 C437 1.350 . S
N433 C438 1.307 . S
C434 H426 0.930 . S
C434 C435 1.355 . S
C434 C436 1.412 . S
C435 H427 0.930 . S
C435 C434 1.355 . S
C435 C438 1.402 . S
C436 C434 1.412 . S
C436 C437 1.417 . S
C436 C460 1.431 . S
C437 N433 1.350 . S
C437 C436 1.417 . S
C437 C440 1.426 . S
C438 H421 0.930 . S
C438 N433 1.307 . S
C438 C435 1.402 . S
N439 Gd402 2.601 . S
N439 C440 1.359 . S
N439 C443 1.334 . S
C440 C437 1.426 . S
C440 N439 1.359 . S
C440 C444 1.413 . S
C441 H432 0.930 . S
C441 C442 1.359 . S
C441 C443 1.394 . S
C442 C441 1.359 . S
C442 C444 1.391 . S
C442 H445 0.929 . S
C443 H425 0.930 . S
C443 N439 1.334 . S
C443 C441 1.394 . S
C444 C440 1.413 . S
C444 C442 1.391 . S
C444 C459 1.437 . S
H445 C442 0.929 . S
O446 Gd402 2.545 . S
O446 C461 1.258 . S
O447 Gd402 2.606 1_554 S
O447 Gd403 2.362 . S
O447 C458 1.284 1_554 S
O448 Gd403 2.324 . S
O448 C468 1.254 . S
O449 Gd402 2.429 1_554 S
O449 C468 1.268 . S
O450 Gd402 2.545 . S
O450 C458 1.250 . S
O451 Gd402 2.412 . S
O451 C461 1.252 . S
O452 Gd403 2.545 . S
O452 C470 1.258 . S
O453 Gd402 2.362 1_554 S
O453 Gd403 2.606 . S
O453 C469 1.284 . S
O454 Gd402 2.324 . S
O454 C477 1.254 1_556 S
O455 Gd403 2.429 . S
O455 C477 1.268 . S
O456 Gd403 2.545 . S
O456 C469 1.250 . S
O457 Gd403 2.412 . S
O457 C470 1.252 . S
C458 O447 1.284 1_556 S
C458 O450 1.250 . S
C459 H428 0.929 . S
C459 C444 1.437 . S
C459 C460 1.317 . S
C460 H431 0.930 . S
C460 C436 1.431 . S
C460 C459 1.317 . S
C461 Gd402 2.828 . S
C461 O446 1.258 . S
C461 O451 1.252 . S
C461 C462 1.497 . S
C462 C461 1.497 . S
C462 C463 1.395 . S
C462 C464 1.380 . S
C463 C462 1.395 . S
C463 C466 1.398 . S
C463 H478 0.930 . S
C464 C462 1.380 . S
C464 C465 1.391 . S
C464 H479 0.930 . S
C465 C464 1.391 . S
C465 C467 1.387 . S
C466 C463 1.398 . S
C466 C467 1.380 . S
C466 H480 0.930 . S
C467 C465 1.387 . S
C467 C466 1.380 . S
C467 H481 0.930 . S
C468 O448 1.254 . S
C468 O449 1.268 . S
C469 O453 1.284 . S
C469 O456 1.250 . S
C470 Gd403 2.828 . S
C470 O452 1.258 . S
C470 O457 1.252 . S
C470 C471 1.497 . S
C471 C470 1.497 . S
C471 C472 1.395 . S
C471 C473 1.380 . S
C472 C471 1.395 . S
C472 C475 1.398 . S
C472 H482 0.930 . S
C473 C471 1.380 . S
C473 C474 1.391 . S
C473 H483 0.930 . S
C474 C473 1.391 . S
C474 C476 1.387 . S
C475 C472 1.398 . S
C475 C476 1.380 . S
C475 H484 0.930 . S
C476 C474 1.387 . S
C476 C475 1.380 . S
C476 H485 0.930 . S
C477 O454 1.254 1_554 S
C477 O455 1.268 . S
H478 C463 0.930 . S
H479 C464 0.930 . S
H480 C466 0.930 . S
H481 C467 0.930 . S
H482 C472 0.930 . S
H483 C473 0.930 . S
H484 C475 0.930 . S
H485 C476 0.930 . S
Gd486 N517 2.661 . S
Gd486 N523 2.601 . S
Gd486 O530 2.545 . S
Gd486 O531 2.606 . S
Gd486 O533 2.429 . S
Gd486 O534 2.545 . S
Gd486 O535 2.412 . S
Gd486 O537 2.362 . S
Gd486 O538 2.324 . S
Gd486 C545 2.828 . S
Gd487 N496 2.661 . S
Gd487 N500 2.601 . S
Gd487 O531 2.362 . S
Gd487 O532 2.324 . S
Gd487 O536 2.545 . S
Gd487 O537 2.606 . S
Gd487 O539 2.429 . S
Gd487 O540 2.545 . S
Gd487 O541 2.412 . S
Gd487 C554 2.828 . S
C488 C491 1.417 . S
C488 C493 1.431 . S
C488 C494 1.412 . S
C489 C492 1.437 . S
C489 C493 1.317 . S
C489 H508 0.929 . S
C490 C491 1.426 . S
C490 C492 1.413 . S
C490 N500 1.359 . S
C491 C488 1.417 . S
C491 C490 1.426 . S
C491 N496 1.350 . S
C492 C489 1.437 . S
C492 C490 1.413 . S
C492 C502 1.391 . S
C493 C488 1.431 . S
C493 C489 1.317 . S
C493 H504 0.930 . S
C494 C488 1.412 . S
C494 C495 1.355 . S
C494 H506 0.951 . S
C495 C494 1.355 . S
C495 C497 1.402 . S
C495 H507 0.930 . S
N496 Gd487 2.661 . S
N496 C491 1.350 . S
N496 C497 1.307 . S
C497 C495 1.402 . S
C497 N496 1.307 . S
C497 H498 0.930 . S
H498 C497 0.930 . S
C499 N500 1.334 . S
C499 C501 1.394 . S
C499 H503 0.930 . S
N500 Gd487 2.601 . S
N500 C490 1.359 . S
N500 C499 1.334 . S
C501 C499 1.394 . S
C501 C502 1.359 . S
C501 H513 0.930 . S
C502 C492 1.391 . S
C502 C501 1.359 . S
C502 H514 0.929 . S
H503 C499 0.930 . S
H504 C493 0.930 . S
H505 C522 0.930 . S
H506 C494 0.951 . S
H507 C495 0.930 . S
H508 C489 0.929 . S
H509 C527 0.930 . S
H510 C518 0.930 . S
H511 C519 0.930 . S
H512 C543 0.929 . S
H513 C501 0.930 . S
H514 C502 0.929 . S
H515 C544 0.930 . S
H516 C525 0.930 . S
N517 Gd486 2.661 . S
N517 C521 1.350 . S
N517 C522 1.307 . S
C518 H510 0.930 . S
C518 C519 1.355 . S
C518 C520 1.412 . S
C519 H511 0.930 . S
C519 C518 1.355 . S
C519 C522 1.402 . S
C520 C518 1.412 . S
C520 C521 1.417 . S
C520 C544 1.431 . S
C521 N517 1.350 . S
C521 C520 1.417 . S
C521 C524 1.426 . S
C522 H505 0.930 . S
C522 N517 1.307 . S
C522 C519 1.402 . S
N523 Gd486 2.601 . S
N523 C524 1.359 . S
N523 C527 1.334 . S
C524 C521 1.426 . S
C524 N523 1.359 . S
C524 C528 1.413 . S
C525 H516 0.930 . S
C525 C526 1.359 . S
C525 C527 1.394 . S
C526 C525 1.359 . S
C526 C528 1.391 . S
C526 H529 0.929 . S
C527 H509 0.930 . S
C527 N523 1.334 . S
C527 C525 1.394 . S
C528 C524 1.413 . S
C528 C526 1.391 . S
C528 C543 1.437 . S
H529 C526 0.929 . S
O530 Gd486 2.545 . S
O530 C545 1.258 . S
O531 Gd486 2.606 . S
O531 Gd487 2.362 . S
O531 C542 1.284 . S
O532 Gd487 2.324 . S
O532 C552 1.254 . S
O533 Gd486 2.429 . S
O533 C552 1.268 . S
O534 Gd486 2.545 . S
O534 C542 1.250 . S
O535 Gd486 2.412 . S
O535 C545 1.252 . S
O536 Gd487 2.545 . S
O536 C554 1.258 . S
O537 Gd486 2.362 . S
O537 Gd487 2.606 . S
O537 C553 1.284 . S
O538 Gd486 2.324 . S
O538 C561 1.254 . S
O539 Gd487 2.429 . S
O539 C561 1.268 . S
O540 Gd487 2.545 . S
O540 C553 1.250 . S
O541 Gd487 2.412 . S
O541 C554 1.252 . S
C542 O531 1.284 . S
C542 O534 1.250 . S
C543 H512 0.929 . S
C543 C528 1.437 . S
C543 C544 1.317 . S
C544 H515 0.930 . S
C544 C520 1.431 . S
C544 C543 1.317 . S
C545 Gd486 2.828 . S
C545 O530 1.258 . S
C545 O535 1.252 . S
C545 C546 1.497 . S
C546 C545 1.497 . S
C546 C547 1.395 . S
C546 C548 1.380 . S
C547 C546 1.395 . S
C547 C550 1.398 . S
C547 H562 0.930 . S
C548 C546 1.380 . S
C548 C549 1.391 . S
C548 H563 0.930 . S
C549 C548 1.391 . S
C549 C551 1.387 . S
C550 C547 1.398 . S
C550 C551 1.380 . S
C550 H564 0.930 . S
C551 C549 1.387 . S
C551 C550 1.380 . S
C551 H565 0.930 . S
C552 O532 1.254 . S
C552 O533 1.268 . S
C553 O537 1.284 . S
C553 O540 1.250 . S
C554 Gd487 2.828 . S
C554 O536 1.258 . S
C554 O541 1.252 . S
C554 C555 1.497 . S
C555 C554 1.497 . S
C555 C556 1.395 . S
C555 C557 1.380 . S
C556 C555 1.395 . S
C556 C559 1.398 . S
C556 H566 0.930 . S
C557 C555 1.380 . S
C557 C558 1.391 . S
C557 H567 0.930 . S
C558 C557 1.391 . S
C558 C560 1.387 . S
C559 C556 1.398 . S
C559 C560 1.380 . S
C559 H568 0.930 . S
C560 C558 1.387 . S
C560 C559 1.380 . S
C560 H569 0.930 . S
C561 O538 1.254 . S
C561 O539 1.268 . S
H562 C547 0.930 . S
H563 C548 0.930 . S
H564 C550 0.930 . S
H565 C551 0.930 . S
H566 C556 0.930 . S
H567 C557 0.930 . S
H568 C559 0.930 . S
H569 C560 0.930 . S
Gd570 N601 2.661 . S
Gd570 N607 2.601 . S
Gd570 O614 2.545 . S
Gd570 O615 2.606 . S
Gd570 O617 2.429 . S
Gd570 O618 2.545 . S
Gd570 O619 2.412 . S
Gd570 O621 2.362 . S
Gd570 O622 2.324 . S
Gd570 C629 2.828 . S
Gd571 N580 2.661 . S
Gd571 N584 2.601 . S
Gd571 O615 2.362 . S
Gd571 O616 2.324 . S
Gd571 O620 2.545 . S
Gd571 O621 2.606 . S
Gd571 O623 2.429 . S
Gd571 O624 2.545 . S
Gd571 O625 2.412 . S
Gd571 C638 2.828 . S
C572 C575 1.417 . S
C572 C577 1.431 . S
C572 C578 1.412 . S
C573 C576 1.437 . S
C573 C577 1.317 . S
C573 H592 0.929 . S
C574 C575 1.426 . S
C574 C576 1.413 . S
C574 N584 1.359 . S
C575 C572 1.417 . S
C575 C574 1.426 . S
C575 N580 1.350 . S
C576 C573 1.437 . S
C576 C574 1.413 . S
C576 C586 1.391 . S
C577 C572 1.431 . S
C577 C573 1.317 . S
C577 H588 0.930 . S
C578 C572 1.412 . S
C578 C579 1.355 . S
C578 H590 0.930 . S
C579 C578 1.355 . S
C579 C581 1.402 . S
C579 H591 0.930 . S
N580 Gd571 2.661 . S
N580 C575 1.350 . S
N580 C581 1.307 . S
C581 C579 1.402 . S
C581 N580 1.307 . S
C581 H582 0.930 . S
H582 C581 0.930 . S
C583 N584 1.334 . S
C583 C585 1.394 . S
C583 H587 0.930 . S
N584 Gd571 2.601 . S
N584 C574 1.359 . S
N584 C583 1.334 . S
C585 C583 1.394 . S
C585 C586 1.359 . S
C585 H597 0.930 . S
C586 C576 1.391 . S
C586 C585 1.359 . S
C586 H598 0.929 . S
H587 C583 0.930 . S
H588 C577 0.930 . S
H589 C606 0.930 . S
H590 C578 0.930 . S
H591 C579 0.930 . S
H592 C573 0.929 . S
H593 C611 0.930 . S
H594 C602 0.930 . S
H595 C603 0.930 . S
H596 C627 0.929 . S
H597 C585 0.930 . S
H598 C586 0.929 . S
H599 C628 0.930 . S
H600 C609 0.930 . S
N601 Gd570 2.661 . S
N601 C605 1.350 . S
N601 C606 1.307 . S
C602 H594 0.930 . S
C602 C603 1.355 . S
C602 C604 1.412 . S
C603 H595 0.930 . S
C603 C602 1.355 . S
C603 C606 1.402 . S
C604 C602 1.412 . S
C604 C605 1.417 . S
C604 C628 1.431 . S
C605 N601 1.350 . S
C605 C604 1.417 . S
C605 C608 1.426 . S
C606 H589 0.930 . S
C606 N601 1.307 . S
C606 C603 1.402 . S
N607 Gd570 2.601 . S
N607 C608 1.359 . S
N607 C611 1.334 . S
C608 C605 1.426 . S
C608 N607 1.359 . S
C608 C612 1.413 . S
C609 H600 0.930 . S
C609 C610 1.359 . S
C609 C611 1.394 . S
C610 C609 1.359 . S
C610 C612 1.391 . S
C610 H613 0.929 . S
C611 H593 0.930 . S
C611 N607 1.334 . S
C611 C609 1.394 . S
C612 C608 1.413 . S
C612 C610 1.391 . S
C612 C627 1.437 . S
H613 C610 0.929 . S
O614 Gd570 2.545 . S
O614 C629 1.258 . S
O615 Gd570 2.606 . S
O615 Gd571 2.362 . S
O615 C626 1.284 . S
O616 Gd571 2.324 . S
O616 C636 1.254 . S
O617 Gd570 2.429 . S
O617 C636 1.268 . S
O618 Gd570 2.545 . S
O618 C626 1.250 . S
O619 Gd570 2.412 . S
O619 C629 1.252 . S
O620 Gd571 2.545 . S
O620 C638 1.258 . S
O621 Gd570 2.362 . S
O621 Gd571 2.606 . S
O621 C637 1.284 . S
O622 Gd570 2.324 . S
O622 C645 1.254 . S
O623 Gd571 2.429 . S
O623 C645 1.268 . S
O624 Gd571 2.545 . S
O624 C637 1.250 . S
O625 Gd571 2.412 . S
O625 C638 1.252 . S
C626 O615 1.284 . S
C626 O618 1.250 . S
C627 H596 0.929 . S
C627 C612 1.437 . S
C627 C628 1.317 . S
C628 H599 0.930 . S
C628 C604 1.431 . S
C628 C627 1.317 . S
C629 Gd570 2.828 . S
C629 O614 1.258 . S
C629 O619 1.252 . S
C629 C630 1.497 . S
C630 C629 1.497 . S
C630 C631 1.395 . S
C630 C632 1.380 . S
C631 C630 1.395 . S
C631 C634 1.398 . S
C631 H646 0.930 . S
C632 C630 1.380 . S
C632 C633 1.391 . S
C632 H647 0.930 . S
C633 C632 1.391 . S
C633 C635 1.387 . S
C634 C631 1.398 . S
C634 C635 1.380 . S
C634 H648 0.930 . S
C635 C633 1.387 . S
C635 C634 1.380 . S
C635 H649 0.930 . S
C636 O616 1.254 . S
C636 O617 1.268 . S
C637 O621 1.284 . S
C637 O624 1.250 . S
C638 Gd571 2.828 . S
C638 O620 1.258 . S
C638 O625 1.252 . S
C638 C639 1.497 . S
C639 C638 1.497 . S
C639 C640 1.395 . S
C639 C641 1.380 . S
C640 C639 1.395 . S
C640 C643 1.398 . S
C640 H650 0.930 . S
C641 C639 1.380 . S
C641 C642 1.391 . S
C641 H651 0.930 . S
C642 C641 1.391 . S
C642 C644 1.387 . S
C643 C640 1.398 . S
C643 C644 1.380 . S
C643 H652 0.930 . S
C644 C642 1.387 . S
C644 C643 1.380 . S
C644 H653 0.930 . S
C645 O622 1.254 . S
C645 O623 1.268 . S
H646 C631 0.930 . S
H647 C632 0.930 . S
H648 C634 0.930 . S
H649 C635 0.930 . S
H650 C640 0.930 . S
H651 C641 0.930 . S
H652 C643 0.930 . S
H653 C644 0.930 . S
Gd654 N685 2.661 . S
Gd654 N691 2.601 . S
Gd654 O698 2.545 . S
Gd654 O699 2.606 . S
Gd654 O701 2.429 . S
Gd654 O702 2.545 . S
Gd654 O703 2.412 . S
Gd654 O705 2.362 . S
Gd654 O706 2.324 . S
Gd654 C713 2.828 . S
Gd655 N664 2.661 . S
Gd655 N668 2.601 . S
Gd655 O699 2.362 . S
Gd655 O700 2.324 . S
Gd655 O704 2.545 . S
Gd655 O705 2.606 . S
Gd655 O707 2.429 . S
Gd655 O708 2.545 . S
Gd655 O709 2.412 . S
Gd655 C722 2.828 . S
C656 C659 1.417 . S
C656 C661 1.431 . S
C656 C662 1.412 . S
C657 C660 1.437 . S
C657 C661 1.317 . S
C657 H676 0.929 . S
C658 C659 1.426 . S
C658 C660 1.413 . S
C658 N668 1.359 . S
C659 C656 1.417 . S
C659 C658 1.426 . S
C659 N664 1.350 . S
C660 C657 1.437 . S
C660 C658 1.413 . S
C660 C670 1.391 . S
C661 C656 1.431 . S
C661 C657 1.317 . S
C661 H672 0.930 . S
C662 C656 1.412 . S
C662 C663 1.355 . S
C662 H674 0.930 . S
C663 C662 1.355 . S
C663 C665 1.402 . S
C663 H675 0.930 . S
N664 Gd655 2.661 . S
N664 C659 1.350 . S
N664 C665 1.307 . S
C665 C663 1.402 . S
C665 N664 1.307 . S
C665 H666 0.930 . S
H666 C665 0.930 . S
C667 N668 1.334 . S
C667 C669 1.394 . S
C667 H671 0.930 . S
N668 Gd655 2.601 . S
N668 C658 1.359 . S
N668 C667 1.334 . S
C669 C667 1.394 . S
C669 C670 1.359 . S
C669 H681 0.930 . S
C670 C660 1.391 . S
C670 C669 1.359 . S
C670 H682 0.929 . S
H671 C667 0.930 . S
H672 C661 0.930 . S
H673 C690 0.930 . S
H674 C662 0.930 . S
H675 C663 0.930 . S
H676 C657 0.929 . S
H677 C695 0.930 . S
H678 C686 0.930 . S
H679 C687 0.930 . S
H680 C711 0.929 . S
H681 C669 0.930 . S
H682 C670 0.929 . S
H683 C712 0.930 . S
H684 C693 0.930 . S
N685 Gd654 2.661 . S
N685 C689 1.350 . S
N685 C690 1.307 . S
C686 H678 0.930 . S
C686 C687 1.355 . S
C686 C688 1.412 . S
C687 H679 0.930 . S
C687 C686 1.355 . S
C687 C690 1.402 . S
C688 C686 1.412 . S
C688 C689 1.417 . S
C688 C712 1.431 . S
C689 N685 1.350 . S
C689 C688 1.417 . S
C689 C692 1.426 . S
C690 H673 0.930 . S
C690 N685 1.307 . S
C690 C687 1.402 . S
N691 Gd654 2.601 . S
N691 C692 1.359 . S
N691 C695 1.334 . S
C692 C689 1.426 . S
C692 N691 1.359 . S
C692 C696 1.413 . S
C693 H684 0.930 . S
C693 C694 1.359 . S
C693 C695 1.394 . S
C694 C693 1.359 . S
C694 C696 1.391 . S
C694 H697 0.929 . S
C695 H677 0.930 . S
C695 N691 1.334 . S
C695 C693 1.394 . S
C696 C692 1.413 . S
C696 C694 1.391 . S
C696 C711 1.437 . S
H697 C694 0.929 . S
O698 Gd654 2.545 . S
O698 C713 1.258 . S
O699 Gd654 2.606 . S
O699 Gd655 2.362 . S
O699 C710 1.284 . S
O700 Gd655 2.324 . S
O700 C720 1.254 . S
O701 Gd654 2.429 . S
O701 C720 1.268 . S
O702 Gd654 2.545 . S
O702 C710 1.250 . S
O703 Gd654 2.412 . S
O703 C713 1.252 . S
O704 Gd655 2.545 . S
O704 C722 1.258 . S
O705 Gd654 2.362 . S
O705 Gd655 2.606 . S
O705 C721 1.284 . S
O706 Gd654 2.324 . S
O706 C729 1.254 . S
O707 Gd655 2.429 . S
O707 C729 1.268 . S
O708 Gd655 2.545 . S
O708 C721 1.250 . S
O709 Gd655 2.412 . S
O709 C722 1.252 . S
C710 O699 1.284 . S
C710 O702 1.250 . S
C711 H680 0.929 . S
C711 C696 1.437 . S
C711 C712 1.317 . S
C712 H683 0.930 . S
C712 C688 1.431 . S
C712 C711 1.317 . S
C713 Gd654 2.828 . S
C713 O698 1.258 . S
C713 O703 1.252 . S
C713 C714 1.497 . S
C714 C713 1.497 . S
C714 C715 1.395 . S
C714 C716 1.380 . S
C715 C714 1.395 . S
C715 C718 1.398 . S
C715 H730 0.930 . S
C716 C714 1.380 . S
C716 C717 1.391 . S
C716 H731 0.930 . S
C717 C716 1.391 . S
C717 C719 1.387 . S
C718 C715 1.398 . S
C718 C719 1.380 . S
C718 H732 0.930 . S
C719 C717 1.387 . S
C719 C718 1.380 . S
C719 H733 0.930 . S
C720 O700 1.254 . S
C720 O701 1.268 . S
C721 O705 1.284 . S
C721 O708 1.250 . S
C722 Gd655 2.828 . S
C722 O704 1.258 . S
C722 O709 1.252 . S
C722 C723 1.497 . S
C723 C722 1.497 . S
C723 C724 1.395 . S
C723 C725 1.380 . S
C724 C723 1.395 . S
C724 C727 1.398 . S
C724 H734 0.930 . S
C725 C723 1.380 . S
C725 C726 1.391 . S
C725 H735 0.930 . S
C726 C725 1.391 . S
C726 C728 1.387 . S
C727 C724 1.398 . S
C727 C728 1.380 . S
C727 H736 0.930 . S
C728 C726 1.387 . S
C728 C727 1.380 . S
C728 H737 0.930 . S
C729 O706 1.254 . S
C729 O707 1.268 . S
H730 C715 0.930 . S
H731 C716 0.930 . S
H732 C718 0.930 . S
H733 C719 0.930 . S
H734 C724 0.930 . S
H735 C725 0.930 . S
H736 C727 0.930 . S
H737 C728 0.930 . S
Gd738 N769 2.661 . S
Gd738 N775 2.601 . S
Gd738 O782 2.545 . S
Gd738 O783 2.606 . S
Gd738 O785 2.429 . S
Gd738 O786 2.545 . S
Gd738 O787 2.412 . S
Gd738 O789 2.362 . S
Gd738 O790 2.324 . S
Gd738 C797 2.828 . S
Gd739 N748 2.661 . S
Gd739 N752 2.601 . S
Gd739 O783 2.362 . S
Gd739 O784 2.324 . S
Gd739 O788 2.545 . S
Gd739 O789 2.606 . S
Gd739 O791 2.429 . S
Gd739 O792 2.545 . S
Gd739 O793 2.412 . S
Gd739 C806 2.828 . S
C740 C743 1.417 . S
C740 C745 1.431 . S
C740 C746 1.412 . S
C741 C744 1.437 . S
C741 C745 1.317 . S
C741 H760 0.929 . S
C742 C743 1.426 . S
C742 C744 1.413 . S
C742 N752 1.359 . S
C743 C740 1.417 . S
C743 C742 1.426 . S
C743 N748 1.350 . S
C744 C741 1.437 . S
C744 C742 1.413 . S
C744 C754 1.391 . S
C745 C740 1.431 . S
C745 C741 1.317 . S
C745 H756 0.930 . S
C746 C740 1.412 . S
C746 C747 1.355 . S
C746 H758 0.930 . S
C747 C746 1.355 . S
C747 C749 1.402 . S
C747 H759 0.930 . S
N748 Gd739 2.661 . S
N748 C743 1.350 . S
N748 C749 1.307 . S
C749 C747 1.402 . S
C749 N748 1.307 . S
C749 H750 0.930 . S
H750 C749 0.930 . S
C751 N752 1.334 . S
C751 C753 1.394 . S
C751 H755 0.930 . S
N752 Gd739 2.601 . S
N752 C742 1.359 . S
N752 C751 1.334 . S
C753 C751 1.394 . S
C753 C754 1.359 . S
C753 H765 0.930 . S
C754 C744 1.391 . S
C754 C753 1.359 . S
C754 H766 0.929 . S
H755 C751 0.930 . S
H756 C745 0.930 . S
H757 C774 0.930 . S
H758 C746 0.930 . S
H759 C747 0.930 . S
H760 C741 0.929 . S
H761 C779 0.930 . S
H762 C770 0.930 . S
H763 C771 0.930 . S
H764 C795 0.929 . S
H765 C753 0.930 . S
H766 C754 0.929 . S
H767 C796 0.930 . S
H768 C777 0.930 . S
N769 Gd738 2.661 . S
N769 C773 1.350 . S
N769 C774 1.307 . S
C770 H762 0.930 . S
C770 C771 1.355 . S
C770 C772 1.412 . S
C771 H763 0.930 . S
C771 C770 1.355 . S
C771 C774 1.402 . S
C772 C770 1.412 . S
C772 C773 1.417 . S
C772 C796 1.431 . S
C773 N769 1.350 . S
C773 C772 1.417 . S
C773 C776 1.426 . S
C774 H757 0.930 . S
C774 N769 1.307 . S
C774 C771 1.402 . S
N775 Gd738 2.601 . S
N775 C776 1.359 . S
N775 C779 1.334 . S
C776 C773 1.426 . S
C776 N775 1.359 . S
C776 C780 1.413 . S
C777 H768 0.930 . S
C777 C778 1.359 . S
C777 C779 1.394 . S
C778 C777 1.359 . S
C778 C780 1.391 . S
C778 H781 0.929 . S
C779 H761 0.930 . S
C779 N775 1.334 . S
C779 C777 1.394 . S
C780 C776 1.413 . S
C780 C778 1.391 . S
C780 C795 1.437 . S
H781 C778 0.929 . S
O782 Gd738 2.545 . S
O782 C797 1.258 . S
O783 Gd738 2.606 . S
O783 Gd739 2.362 . S
O783 C794 1.284 . S
O784 Gd739 2.324 . S
O784 C804 1.254 . S
O785 Gd738 2.429 . S
O785 C804 1.268 . S
O786 Gd738 2.545 . S
O786 C794 1.250 . S
O787 Gd738 2.412 . S
O787 C797 1.252 . S
O788 Gd739 2.545 . S
O788 C806 1.258 . S
O789 Gd738 2.362 . S
O789 Gd739 2.606 . S
O789 C805 1.284 . S
O790 Gd738 2.324 . S
O790 C813 1.254 . S
O791 Gd739 2.429 . S
O791 C813 1.268 . S
O792 Gd739 2.545 . S
O792 C805 1.250 . S
O793 Gd739 2.412 . S
O793 C806 1.252 . S
C794 O783 1.284 . S
C794 O786 1.250 . S
C795 H764 0.929 . S
C795 C780 1.437 . S
C795 C796 1.317 . S
C796 H767 0.930 . S
C796 C772 1.431 . S
C796 C795 1.317 . S
C797 Gd738 2.828 . S
C797 O782 1.258 . S
C797 O787 1.252 . S
C797 C798 1.497 . S
C798 C797 1.497 . S
C798 C799 1.395 . S
C798 C800 1.380 . S
C799 C798 1.395 . S
C799 C802 1.398 . S
C799 H814 0.930 . S
C800 C798 1.380 . S
C800 C801 1.391 . S
C800 H815 0.930 . S
C801 C800 1.391 . S
C801 C803 1.387 . S
C802 C799 1.398 . S
C802 C803 1.380 . S
C802 H816 0.930 . S
C803 C801 1.387 . S
C803 C802 1.380 . S
C803 H817 0.930 . S
C804 O784 1.254 . S
C804 O785 1.268 . S
C805 O789 1.284 . S
C805 O792 1.250 . S
C806 Gd739 2.828 . S
C806 O788 1.258 . S
C806 O793 1.252 . S
C806 C807 1.497 . S
C807 C806 1.497 . S
C807 C808 1.395 . S
C807 C809 1.380 . S
C808 C807 1.395 . S
C808 C811 1.398 . S
C808 H818 0.930 . S
C809 C807 1.380 . S
C809 C810 1.391 . S
C809 H819 0.930 . S
C810 C809 1.391 . S
C810 C812 1.387 . S
C811 C808 1.398 . S
C811 C812 1.380 . S
C811 H820 0.930 . S
C812 C810 1.387 . S
C812 C811 1.380 . S
C812 H821 0.930 . S
C813 O790 1.254 . S
C813 O791 1.268 . S
H814 C799 0.930 . S
H815 C800 0.930 . S
H816 C802 0.930 . S
H817 C803 0.930 . S
H818 C808 0.930 . S
H819 C809 0.930 . S
H820 C811 0.930 . S
H821 C812 0.930 . S
Gd822 N853 2.661 . S
Gd822 N859 2.601 . S
Gd822 O866 2.545 . S
Gd822 O867 2.606 . S
Gd822 O869 2.429 . S
Gd822 O870 2.545 . S
Gd822 O871 2.412 . S
Gd822 O873 2.362 . S
Gd822 O874 2.324 . S
Gd822 C881 2.828 . S
Gd823 N832 2.661 . S
Gd823 N836 2.601 . S
Gd823 O867 2.362 . S
Gd823 O868 2.324 . S
Gd823 O872 2.545 . S
Gd823 O873 2.606 . S
Gd823 O875 2.429 . S
Gd823 O876 2.545 . S
Gd823 O877 2.412 . S
Gd823 C890 2.828 . S
C824 C827 1.417 . S
C824 C829 1.431 . S
C824 C830 1.412 . S
C825 C828 1.437 . S
C825 C829 1.317 . S
C825 H844 0.929 . S
C826 C827 1.426 . S
C826 C828 1.413 . S
C826 N836 1.359 . S
C827 C824 1.417 . S
C827 C826 1.426 . S
C827 N832 1.350 . S
C828 C825 1.437 . S
C828 C826 1.413 . S
C828 C838 1.391 . S
C829 C824 1.431 . S
C829 C825 1.317 . S
C829 H840 0.930 . S
C830 C824 1.412 . S
C830 C831 1.355 . S
C830 H842 0.930 . S
C831 C830 1.355 . S
C831 C833 1.402 . S
C831 H843 0.930 . S
N832 Gd823 2.661 . S
N832 C827 1.350 . S
N832 C833 1.307 . S
C833 C831 1.402 . S
C833 N832 1.307 . S
C833 H834 0.930 . S
H834 C833 0.930 . S
C835 N836 1.334 . S
C835 C837 1.394 . S
C835 H839 0.930 . S
N836 Gd823 2.601 . S
N836 C826 1.359 . S
N836 C835 1.334 . S
C837 C835 1.394 . S
C837 C838 1.359 . S
C837 H849 0.930 . S
C838 C828 1.391 . S
C838 C837 1.359 . S
C838 H850 0.929 . S
H839 C835 0.930 . S
H840 C829 0.930 . S
H841 C858 0.930 . S
H842 C830 0.930 . S
H843 C831 0.930 . S
H844 C825 0.929 . S
H845 C863 0.930 . S
H846 C854 0.930 . S
H847 C855 0.930 . S
H848 C879 0.929 . S
H849 C837 0.930 . S
H850 C838 0.929 . S
H851 C880 0.930 . S
H852 C861 0.930 . S
N853 Gd822 2.661 . S
N853 C857 1.350 . S
N853 C858 1.307 . S
C854 H846 0.930 . S
C854 C855 1.355 . S
C854 C856 1.412 . S
C855 H847 0.930 . S
C855 C854 1.355 . S
C855 C858 1.402 . S
C856 C854 1.412 . S
C856 C857 1.417 . S
C856 C880 1.431 . S
C857 N853 1.350 . S
C857 C856 1.417 . S
C857 C860 1.426 . S
C858 H841 0.930 . S
C858 N853 1.307 . S
C858 C855 1.402 . S
N859 Gd822 2.601 . S
N859 C860 1.359 . S
N859 C863 1.334 . S
C860 C857 1.426 . S
C860 N859 1.359 . S
C860 C864 1.413 . S
C861 H852 0.930 . S
C861 C862 1.359 . S
C861 C863 1.394 . S
C862 C861 1.359 . S
C862 C864 1.391 . S
C862 H865 0.929 . S
C863 H845 0.930 . S
C863 N859 1.334 . S
C863 C861 1.394 . S
C864 C860 1.413 . S
C864 C862 1.391 . S
C864 C879 1.437 . S
H865 C862 0.929 . S
O866 Gd822 2.545 . S
O866 C881 1.258 . S
O867 Gd822 2.606 . S
O867 Gd823 2.362 . S
O867 C878 1.284 . S
O868 Gd823 2.324 . S
O868 C888 1.254 . S
O869 Gd822 2.429 . S
O869 C888 1.268 . S
O870 Gd822 2.545 . S
O870 C878 1.250 . S
O871 Gd822 2.412 . S
O871 C881 1.252 . S
O872 Gd823 2.545 . S
O872 C890 1.258 . S
O873 Gd822 2.362 . S
O873 Gd823 2.606 . S
O873 C889 1.284 . S
O874 Gd822 2.324 . S
O874 C897 1.254 . S
O875 Gd823 2.429 . S
O875 C897 1.268 . S
O876 Gd823 2.545 . S
O876 C889 1.250 . S
O877 Gd823 2.412 . S
O877 C890 1.252 . S
C878 O867 1.284 . S
C878 O870 1.250 . S
C879 H848 0.929 . S
C879 C864 1.437 . S
C879 C880 1.317 . S
C880 H851 0.930 . S
C880 C856 1.431 . S
C880 C879 1.317 . S
C881 Gd822 2.828 . S
C881 O866 1.258 . S
C881 O871 1.252 . S
C881 C882 1.497 . S
C882 C881 1.497 . S
C882 C883 1.395 . S
C882 C884 1.380 . S
C883 C882 1.395 . S
C883 C886 1.398 . S
C883 H898 0.930 . S
C884 C882 1.380 . S
C884 C885 1.391 . S
C884 H899 0.930 . S
C885 C884 1.391 . S
C885 C887 1.387 . S
C886 C883 1.398 . S
C886 C887 1.380 . S
C886 H900 0.930 . S
C887 C885 1.387 . S
C887 C886 1.380 . S
C887 H901 0.930 . S
C888 O868 1.254 . S
C888 O869 1.268 . S
C889 O873 1.284 . S
C889 O876 1.250 . S
C890 Gd823 2.828 . S
C890 O872 1.258 . S
C890 O877 1.252 . S
C890 C891 1.497 . S
C891 C890 1.497 . S
C891 C892 1.395 . S
C891 C893 1.380 . S
C892 C891 1.395 . S
C892 C895 1.398 . S
C892 H902 0.930 . S
C893 C891 1.380 . S
C893 C894 1.391 . S
C893 H903 0.930 . S
C894 C893 1.391 . S
C894 C896 1.387 . S
C895 C892 1.398 . S
C895 C896 1.380 . S
C895 H904 0.930 . S
C896 C894 1.387 . S
C896 C895 1.380 . S
C896 H905 0.930 . S
C897 O874 1.254 . S
C897 O875 1.268 . S
H898 C883 0.930 . S
H899 C884 0.930 . S
H900 C886 0.930 . S
H901 C887 0.930 . S
H902 C892 0.930 . S
H903 C893 0.930 . S
H904 C895 0.930 . S
H905 C896 0.930 . S
Gd906 N937 2.661 . S
Gd906 N943 2.601 . S
Gd906 O950 2.545 . S
Gd906 O951 2.606 . S
Gd906 O953 2.429 . S
Gd906 O954 2.545 . S
Gd906 O955 2.412 . S
Gd906 O957 2.362 . S
Gd906 O958 2.324 . S
Gd906 C965 2.828 . S
Gd907 N916 2.661 . S
Gd907 N920 2.601 . S
Gd907 O951 2.362 . S
Gd907 O952 2.324 . S
Gd907 O956 2.545 . S
Gd907 O957 2.606 . S
Gd907 O959 2.429 . S
Gd907 O960 2.545 . S
Gd907 O961 2.412 . S
Gd907 C974 2.828 . S
C908 C911 1.417 . S
C908 C913 1.431 . S
C908 C914 1.412 . S
C909 C912 1.437 . S
C909 C913 1.317 . S
C909 H928 0.929 . S
C910 C911 1.426 . S
C910 C912 1.413 . S
C910 N920 1.359 . S
C911 C908 1.417 . S
C911 C910 1.426 . S
C911 N916 1.350 . S
C912 C909 1.437 . S
C912 C910 1.413 . S
C912 C922 1.391 . S
C913 C908 1.431 . S
C913 C909 1.317 . S
C913 H924 0.930 1_655 S
C914 C908 1.412 . S
C914 C915 1.355 . S
C914 H926 0.930 1_655 S
C915 C914 1.355 . S
C915 C917 1.402 . S
C915 H927 0.930 . S
N916 Gd907 2.661 . S
N916 C911 1.350 . S
N916 C917 1.307 . S
C917 C915 1.402 . S
C917 N916 1.307 . S
C917 H918 0.930 . S
H918 C917 0.930 . S
C919 N920 1.334 . S
C919 C921 1.394 . S
C919 H923 0.930 . S
N920 Gd907 2.601 . S
N920 C910 1.359 . S
N920 C919 1.334 . S
C921 C919 1.394 . S
C921 C922 1.359 . S
C921 H933 0.930 . S
C922 C912 1.391 . S
C922 C921 1.359 . S
C922 H934 0.929 . S
H923 C919 0.930 . S
H924 C913 0.930 1_455 S
H925 C942 0.930 . S
H926 C914 0.930 1_455 S
H927 C915 0.930 . S
H928 C909 0.929 . S
H929 C947 0.930 . S
H930 C938 0.930 . S
H931 C939 0.930 . S
H932 C963 0.929 . S
H933 C921 0.930 . S
H934 C922 0.929 . S
H935 C964 0.930 . S
H936 C945 0.930 . S
N937 Gd906 2.661 . S
N937 C941 1.350 . S
N937 C942 1.307 . S
C938 H930 0.930 . S
C938 C939 1.355 . S
C938 C940 1.412 . S
C939 H931 0.930 . S
C939 C938 1.355 . S
C939 C942 1.402 . S
C940 C938 1.412 . S
C940 C941 1.417 . S
C940 C964 1.431 . S
C941 N937 1.350 . S
C941 C940 1.417 . S
C941 C944 1.426 . S
C942 H925 0.930 . S
C942 N937 1.307 . S
C942 C939 1.402 . S
N943 Gd906 2.601 . S
N943 C944 1.359 . S
N943 C947 1.334 . S
C944 C941 1.426 . S
C944 N943 1.359 . S
C944 C948 1.413 . S
C945 H936 0.930 . S
C945 C946 1.359 . S
C945 C947 1.394 . S
C946 C945 1.359 . S
C946 C948 1.391 . S
C946 H949 0.929 . S
C947 H929 0.930 . S
C947 N943 1.334 . S
C947 C945 1.394 . S
C948 C944 1.413 . S
C948 C946 1.391 . S
C948 C963 1.437 . S
H949 C946 0.929 . S
O950 Gd906 2.545 . S
O950 C965 1.258 . S
O951 Gd906 2.606 . S
O951 Gd907 2.362 . S
O951 C962 1.284 . S
O952 Gd907 2.324 . S
O952 C972 1.254 . S
O953 Gd906 2.429 . S
O953 C972 1.268 . S
O954 Gd906 2.545 . S
O954 C962 1.250 . S
O955 Gd906 2.412 . S
O955 C965 1.252 . S
O956 Gd907 2.545 . S
O956 C974 1.258 . S
O957 Gd906 2.362 . S
O957 Gd907 2.606 . S
O957 C973 1.284 . S
O958 Gd906 2.324 . S
O958 C981 1.254 . S
O959 Gd907 2.429 . S
O959 C981 1.268 . S
O960 Gd907 2.545 . S
O960 C973 1.250 . S
O961 Gd907 2.412 . S
O961 C974 1.252 . S
C962 O951 1.284 . S
C962 O954 1.250 . S
C963 H932 0.929 . S
C963 C948 1.437 . S
C963 C964 1.317 . S
C964 H935 0.930 . S
C964 C940 1.431 . S
C964 C963 1.317 . S
C965 Gd906 2.828 . S
C965 O950 1.258 . S
C965 O955 1.252 . S
C965 C966 1.497 . S
C966 C965 1.497 . S
C966 C967 1.395 . S
C966 C968 1.380 . S
C967 C966 1.395 . S
C967 C970 1.398 . S
C967 H982 0.930 . S
C968 C966 1.380 . S
C968 C969 1.391 . S
C968 H983 0.930 . S
C969 C968 1.391 . S
C969 C971 1.387 . S
C970 C967 1.398 . S
C970 C971 1.380 . S
C970 H984 0.930 . S
C971 C969 1.387 . S
C971 C970 1.380 . S
C971 H985 0.930 . S
C972 O952 1.254 . S
C972 O953 1.268 . S
C973 O957 1.284 . S
C973 O960 1.250 . S
C974 Gd907 2.828 . S
C974 O956 1.258 . S
C974 O961 1.252 . S
C974 C975 1.497 . S
C975 C974 1.497 . S
C975 C976 1.395 . S
C975 C977 1.380 . S
C976 C975 1.395 . S
C976 C979 1.398 . S
C976 H986 0.930 . S
C977 C975 1.380 . S
C977 C978 1.391 . S
C977 H987 0.930 . S
C978 C977 1.391 . S
C978 C980 1.387 . S
C979 C976 1.398 . S
C979 C980 1.380 . S
C979 H988 0.930 . S
C980 C978 1.387 . S
C980 C979 1.380 . S
C980 H989 0.930 . S
C981 O958 1.254 . S
C981 O959 1.268 . S
H982 C967 0.930 . S
H983 C968 0.930 . S
H984 C970 0.930 . S
H985 C971 0.930 . S
H986 C976 0.930 . S
H987 C977 0.930 . S
H988 C979 0.930 . S
H989 C980 0.930 . S
H990 C1002 0.930 . S
H991 C1004 0.930 . S
H992 C1005 0.930 . S
H993 C1009 0.959 . S
H994 C1009 0.959 . S
H995 C1009 0.961 . S
H996 C1010 0.960 . S
H997 C1010 0.961 . S
H998 C1010 0.959 . S
H999 C1013 0.929 . S
H1000 C1014 0.931 . S
H1001 C1016 0.930 . S
C1002 H990 0.930 . S
C1002 C1003 1.399 . S
C1002 C1007 1.399 . S
C1003 C1002 1.399 . S
C1003 C1004 1.376 . S
C1004 H991 0.930 . S
C1004 C1003 1.376 . S
C1004 C1005 1.388 . S
C1005 H992 0.930 . S
C1005 C1004 1.388 . S
C1005 C1006 1.390 . S
C1006 C1005 1.390 . S
C1006 C1007 1.394 . S
C1006 C1012 1.465 . S
C1007 C1002 1.399 . S
C1007 C1006 1.394 . S
C1007 C1008 1.516 . S
C1008 C1007 1.516 . S
C1008 C1009 1.502 . S
C1008 C1010 1.561 . S
C1008 C1011 1.526 . S
C1009 H993 0.959 . S
C1009 H994 0.959 . S
C1009 H995 0.961 . S
C1009 C1008 1.502 . S
C1010 H996 0.960 . S
C1010 H997 0.961 . S
C1010 H998 0.959 . S
C1010 C1008 1.561 . S
C1011 C1008 1.526 . S
C1011 C1012 1.396 . S
C1011 C1016 1.390 . S
C1012 C1006 1.465 . S
C1012 C1011 1.396 . S
C1012 C1013 1.399 . S
C1013 H999 0.929 . S
C1013 C1012 1.399 . S
C1013 C1014 1.385 . S
C1014 H1000 0.931 . S
C1014 C1013 1.385 . S
C1014 C1015 1.389 . S
C1015 C1014 1.389 . S
C1015 C1016 1.387 . S
C1016 H1001 0.930 . S
C1016 C1011 1.390 . S
C1016 C1015 1.387 . S
H1017 C1029 0.930 . S
H1018 C1031 0.930 . S
H1019 C1032 0.930 . S
H1020 C1036 0.959 . S
H1021 C1036 0.959 . S
H1022 C1036 0.961 . S
H1023 C1037 0.960 . S
H1024 C1037 0.961 . S
H1025 C1037 0.959 . S
H1026 C1040 0.929 . S
H1027 C1041 0.931 . S
H1028 C1043 0.930 . S
C1029 H1017 0.930 . S
C1029 C1030 1.399 . S
C1029 C1034 1.399 . S
C1030 C1029 1.399 . S
C1030 C1031 1.376 . S
C1031 H1018 0.930 . S
C1031 C1030 1.376 . S
C1031 C1032 1.388 . S
C1032 H1019 0.930 . S
C1032 C1031 1.388 . S
C1032 C1033 1.390 . S
C1033 C1032 1.390 . S
C1033 C1034 1.394 . S
C1033 C1039 1.465 . S
C1034 C1029 1.399 . S
C1034 C1033 1.394 . S
C1034 C1035 1.516 . S
C1035 C1034 1.516 . S
C1035 C1036 1.502 . S
C1035 C1037 1.561 . S
C1035 C1038 1.526 . S
C1036 H1020 0.959 . S
C1036 H1021 0.959 . S
C1036 H1022 0.961 . S
C1036 C1035 1.502 . S
C1037 H1023 0.960 . S
C1037 H1024 0.961 . S
C1037 H1025 0.959 . S
C1037 C1035 1.561 . S
C1038 C1035 1.526 . S
C1038 C1039 1.396 . S
C1038 C1043 1.390 . S
C1039 C1033 1.465 . S
C1039 C1038 1.396 . S
C1039 C1040 1.399 . S
C1040 H1026 0.929 . S
C1040 C1039 1.399 . S
C1040 C1041 1.385 . S
C1041 H1027 0.931 . S
C1041 C1040 1.385 . S
C1041 C1042 1.389 . S
C1042 C1041 1.389 . S
C1042 C1043 1.387 . S
C1043 H1028 0.930 . S
C1043 C1038 1.390 . S
C1043 C1042 1.387 . S
H1044 C1056 0.930 . S
H1045 C1058 0.930 . S
H1046 C1059 0.930 . S
H1047 C1063 0.959 . S
H1048 C1063 0.959 . S
H1049 C1063 0.961 . S
H1050 C1064 0.960 . S
H1051 C1064 0.961 . S
H1052 C1064 0.959 . S
H1053 C1067 0.929 1_556 S
H1054 C1068 0.931 1_556 S
H1055 C1070 0.930 . S
C1056 H1044 0.930 . S
C1056 C1057 1.399 . S
C1056 C1061 1.399 . S
C1057 C1056 1.399 . S
C1057 C1058 1.376 . S
C1058 H1045 0.930 . S
C1058 C1057 1.376 . S
C1058 C1059 1.388 . S
C1059 H1046 0.930 . S
C1059 C1058 1.388 . S
C1059 C1060 1.390 . S
C1060 C1059 1.390 . S
C1060 C1061 1.394 . S
C1060 C1066 1.465 . S
C1061 C1056 1.399 . S
C1061 C1060 1.394 . S
C1061 C1062 1.516 . S
C1062 C1061 1.516 . S
C1062 C1063 1.502 . S
C1062 C1064 1.561 . S
C1062 C1065 1.526 . S
C1063 H1047 0.959 . S
C1063 H1048 0.959 . S
C1063 H1049 0.961 . S
C1063 C1062 1.502 . S
C1064 H1050 0.960 . S
C1064 H1051 0.961 . S
C1064 H1052 0.959 . S
C1064 C1062 1.561 . S
C1065 C1062 1.526 . S
C1065 C1066 1.396 . S
C1065 C1070 1.390 . S
C1066 C1060 1.465 . S
C1066 C1065 1.396 . S
C1066 C1067 1.399 . S
C1067 H1053 0.929 1_554 S
C1067 C1066 1.399 . S
C1067 C1068 1.385 . S
C1068 H1054 0.931 1_554 S
C1068 C1067 1.385 . S
C1068 C1069 1.389 . S
C1069 C1068 1.389 . S
C1069 C1070 1.387 . S
C1070 H1055 0.930 . S
C1070 C1065 1.390 . S
C1070 C1069 1.387 . S
H1071 C1083 0.930 . S
H1072 C1085 0.930 . S
H1073 C1086 0.930 . S
H1074 C1090 0.959 1_556 S
H1075 C1090 0.959 . S
H1076 C1090 0.961 . S
H1077 C1091 0.960 . S
H1078 C1091 0.961 . S
H1079 C1091 0.959 . S
H1080 C1094 0.929 . S
H1081 C1095 0.931 . S
H1082 C1097 0.930 . S
C1083 H1071 0.930 . S
C1083 C1084 1.399 . S
C1083 C1088 1.399 . S
C1084 C1083 1.399 . S
C1084 C1085 1.376 . S
C1085 H1072 0.930 . S
C1085 C1084 1.376 . S
C1085 C1086 1.388 . S
C1086 H1073 0.930 . S
C1086 C1085 1.388 . S
C1086 C1087 1.390 . S
C1087 C1086 1.390 . S
C1087 C1088 1.394 . S
C1087 C1093 1.465 . S
C1088 C1083 1.399 . S
C1088 C1087 1.394 . S
C1088 C1089 1.530 . S
C1089 C1088 1.530 . S
C1089 C1090 1.499 1_556 S
C1089 C1091 1.546 1_556 S
C1089 C1092 1.532 . S
C1090 H1074 0.959 1_554 S
C1090 H1075 0.959 . S
C1090 H1076 0.961 . S
C1090 C1089 1.499 1_554 S
C1091 H1077 0.960 . S
C1091 H1078 0.961 . S
C1091 H1079 0.959 . S
C1091 C1089 1.546 1_554 S
C1092 C1089 1.532 . S
C1092 C1093 1.396 . S
C1092 C1097 1.390 1_556 S
C1093 C1087 1.465 . S
C1093 C1092 1.396 . S
C1093 C1094 1.399 . S
C1094 H1080 0.929 . S
C1094 C1093 1.399 . S
C1094 C1095 1.385 . S
C1095 H1081 0.931 . S
C1095 C1094 1.385 . S
C1095 C1096 1.389 . S
C1096 C1095 1.389 . S
C1096 C1097 1.387 1_556 S
C1097 H1082 0.930 . S
C1097 C1092 1.390 1_554 S
C1097 C1096 1.387 1_554 S
H1098 C1110 0.930 . S
H1099 C1112 0.930 . S
H1100 C1113 0.930 . S
H1101 C1117 0.959 . S
H1102 C1117 0.959 . S
H1103 C1117 0.961 1_556 S
H1104 C1118 0.960 . S
H1105 C1118 0.961 . S
H1106 C1118 0.959 . S
H1107 C1121 0.929 . S
H1108 C1122 0.931 . S
H1109 C1124 0.930 . S
C1110 H1098 0.930 . S
C1110 C1111 1.399 . S
C1110 C1115 1.399 . S
C1111 C1110 1.399 . S
C1111 C1112 1.376 . S
C1112 H1099 0.930 . S
C1112 C1111 1.376 . S
C1112 C1113 1.388 . S
C1113 H1100 0.930 . S
C1113 C1112 1.388 . S
C1113 C1114 1.390 . S
C1114 C1113 1.390 . S
C1114 C1115 1.394 . S
C1114 C1120 1.465 . S
C1115 C1110 1.399 . S
C1115 C1114 1.394 . S
C1115 C1116 1.516 . S
C1116 C1115 1.516 . S
C1116 C1117 1.502 1_556 S
C1116 C1118 1.561 . S
C1116 C1119 1.526 . S
C1117 H1101 0.959 . S
C1117 H1102 0.959 . S
C1117 H1103 0.961 1_554 S
C1117 C1116 1.502 1_554 S
C1118 H1104 0.960 . S
C1118 H1105 0.961 . S
C1118 H1106 0.959 . S
C1118 C1116 1.561 . S
C1119 C1116 1.526 . S
C1119 C1120 1.396 . S
C1119 C1124 1.390 . S
C1120 C1114 1.465 . S
C1120 C1119 1.396 . S
C1120 C1121 1.399 . S
C1121 H1107 0.929 . S
C1121 C1120 1.399 . S
C1121 C1122 1.385 . S
C1122 H1108 0.931 . S
C1122 C1121 1.385 . S
C1122 C1123 1.389 . S
C1123 C1122 1.389 . S
C1123 C1124 1.387 . S
C1124 H1109 0.930 . S
C1124 C1119 1.390 . S
C1124 C1123 1.387 . S
H1125 C1137 0.930 . S
H1126 C1139 0.930 . S
H1127 C1140 0.930 1_554 S
H1128 C1144 0.959 . S
H1129 C1144 0.959 . S
H1130 C1144 0.961 . S
H1131 C1145 0.960 . S
H1132 C1145 0.961 . S
H1133 C1145 0.959 . S
H1134 C1148 0.929 . S
H1135 C1149 0.931 . S
H1136 C1151 0.930 . S
C1137 H1125 0.930 . S
C1137 C1138 1.399 . S
C1137 C1142 1.399 . S
C1138 C1137 1.399 . S
C1138 C1139 1.376 . S
C1139 H1126 0.930 . S
C1139 C1138 1.376 . S
C1139 C1140 1.388 . S
C1140 H1127 0.930 1_556 S
C1140 C1139 1.388 . S
C1140 C1141 1.390 . S
C1141 C1140 1.390 . S
C1141 C1142 1.394 . S
C1141 C1147 1.465 . S
C1142 C1137 1.399 . S
C1142 C1141 1.394 . S
C1142 C1143 1.516 . S
C1143 C1142 1.516 . S
C1143 C1144 1.502 . S
C1143 C1145 1.561 . S
C1143 C1146 1.526 . S
C1144 H1128 0.959 . S
C1144 H1129 0.959 . S
C1144 H1130 0.961 . S
C1144 C1143 1.502 . S
C1145 H1131 0.960 . S
C1145 H1132 0.961 . S
C1145 H1133 0.959 . S
C1145 C1143 1.561 . S
C1146 C1143 1.526 . S
C1146 C1147 1.396 . S
C1146 C1151 1.390 . S
C1147 C1141 1.465 . S
C1147 C1146 1.396 . S
C1147 C1148 1.399 1_556 S
C1148 H1134 0.929 . S
C1148 C1147 1.399 1_554 S
C1148 C1149 1.385 . S
C1149 H1135 0.931 . S
C1149 C1148 1.385 . S
C1149 C1150 1.389 1_554 S
C1150 C1149 1.389 1_556 S
C1150 C1151 1.387 . S
C1151 H1136 0.930 . S
C1151 C1146 1.390 . S
C1151 C1150 1.387 . S
H1152 C1164 0.930 . S
H1153 C1166 0.930 . S
H1154 C1167 0.930 . S
H1155 C1171 0.959 . S
H1156 C1171 0.959 . S
H1157 C1171 0.961 . S
H1158 C1172 0.960 . S
H1159 C1172 0.961 . S
H1160 C1172 0.959 1_556 S
H1161 C1175 0.929 . S
H1162 C1176 0.931 . S
H1163 C1178 0.930 . S
C1164 H1152 0.930 . S
C1164 C1165 1.399 . S
C1164 C1169 1.399 . S
C1165 C1164 1.399 . S
C1165 C1166 1.376 . S
C1166 H1153 0.930 . S
C1166 C1165 1.376 . S
C1166 C1167 1.388 . S
C1167 H1154 0.930 . S
C1167 C1166 1.388 . S
C1167 C1168 1.390 . S
C1168 C1167 1.390 . S
C1168 C1169 1.394 . S
C1168 C1174 1.465 . S
C1169 C1164 1.399 . S
C1169 C1168 1.394 . S
C1169 C1170 1.516 1_556 S
C1170 C1169 1.516 1_554 S
C1170 C1171 1.502 . S
C1170 C1172 1.561 . S
C1170 C1173 1.526 1_554 S
C1171 H1155 0.959 . S
C1171 H1156 0.959 . S
C1171 H1157 0.961 . S
C1171 C1170 1.502 . S
C1172 H1158 0.960 . S
C1172 H1159 0.961 . S
C1172 H1160 0.959 1_554 S
C1172 C1170 1.561 . S
C1173 C1170 1.526 1_556 S
C1173 C1174 1.396 . S
C1173 C1178 1.390 1_556 S
C1174 C1168 1.465 . S
C1174 C1173 1.396 . S
C1174 C1175 1.399 . S
C1175 H1161 0.929 . S
C1175 C1174 1.399 . S
C1175 C1176 1.385 . S
C1176 H1162 0.931 . S
C1176 C1175 1.385 . S
C1176 C1177 1.389 . S
C1177 C1176 1.389 . S
C1177 C1178 1.387 1_556 S
C1178 H1163 0.930 . S
C1178 C1173 1.390 1_554 S
C1178 C1177 1.387 1_554 S
H1179 C1191 0.930 . S
H1180 C1193 0.930 . S
H1181 C1194 0.930 . S
H1182 C1198 0.959 . S
H1183 C1198 0.959 . S
H1184 C1198 0.961 . S
H1185 C1199 0.960 . S
H1186 C1199 0.961 . S
H1187 C1199 0.959 . S
H1188 C1202 0.929 1_554 S
H1189 C1203 0.954 . S
H1190 C1205 0.930 . S
C1191 H1179 0.930 . S
C1191 C1192 1.399 . S
C1191 C1196 1.399 . S
C1192 C1191 1.399 . S
C1192 C1193 1.376 . S
C1193 H1180 0.930 . S
C1193 C1192 1.376 . S
C1193 C1194 1.388 . S
C1194 H1181 0.930 . S
C1194 C1193 1.388 . S
C1194 C1195 1.390 . S
C1195 C1194 1.390 . S
C1195 C1196 1.394 . S
C1195 C1201 1.465 . S
C1196 C1191 1.399 . S
C1196 C1195 1.394 . S
C1196 C1197 1.516 . S
C1197 C1196 1.516 . S
C1197 C1198 1.502 . S
C1197 C1199 1.561 . S
C1197 C1200 1.526 . S
C1198 H1182 0.959 . S
C1198 H1183 0.959 . S
C1198 H1184 0.961 . S
C1198 C1197 1.502 . S
C1199 H1185 0.960 . S
C1199 H1186 0.961 . S
C1199 H1187 0.959 . S
C1199 C1197 1.561 . S
C1200 C1197 1.526 . S
C1200 C1201 1.396 . S
C1200 C1205 1.390 . S
C1201 C1195 1.465 . S
C1201 C1200 1.396 . S
C1201 C1202 1.399 . S
C1202 H1188 0.929 1_556 S
C1202 C1201 1.399 . S
C1202 C1203 1.377 1_556 S
C1203 H1189 0.954 . S
C1203 C1202 1.377 1_554 S
C1203 C1204 1.376 1_554 S
C1204 C1203 1.376 1_556 S
C1204 C1205 1.387 . S
C1205 H1190 0.930 . S
C1205 C1200 1.390 . S
C1205 C1204 1.387 . S
H1206 C1218 0.930 . S
H1207 C1220 0.930 1_554 S
H1208 C1221 0.930 . S
H1209 C1225 0.959 . S
H1210 C1225 0.959 . S
H1211 C1225 0.961 . S
H1212 C1226 0.960 . S
H1213 C1226 0.961 . S
H1214 C1226 0.959 . S
H1215 C1229 0.929 . S
H1216 C1230 0.931 . S
H1217 C1232 0.930 . S
C1218 H1206 0.930 . S
C1218 C1219 1.399 . S
C1218 C1223 1.399 . S
C1219 C1218 1.399 . S
C1219 C1220 1.376 . S
C1220 H1207 0.930 1_556 S
C1220 C1219 1.376 . S
C1220 C1221 1.388 1_556 S
C1221 H1208 0.930 . S
C1221 C1220 1.388 1_554 S
C1221 C1222 1.390 1_554 S
C1222 C1221 1.390 1_556 S
C1222 C1223 1.394 . S
C1222 C1228 1.465 . S
C1223 C1218 1.399 . S
C1223 C1222 1.394 . S
C1223 C1224 1.516 . S
C1224 C1223 1.516 . S
C1224 C1225 1.502 . S
C1224 C1226 1.561 . S
C1224 C1227 1.526 . S
C1225 H1209 0.959 . S
C1225 H1210 0.959 . S
C1225 H1211 0.961 . S
C1225 C1224 1.502 . S
C1226 H1212 0.960 . S
C1226 H1213 0.961 . S
C1226 H1214 0.959 . S
C1226 C1224 1.561 . S
C1227 C1224 1.526 . S
C1227 C1228 1.396 . S
C1227 C1232 1.390 . S
C1228 C1222 1.465 . S
C1228 C1227 1.396 . S
C1228 C1229 1.399 1_556 S
C1229 H1215 0.929 . S
C1229 C1228 1.399 1_554 S
C1229 C1230 1.385 . S
C1230 H1216 0.931 . S
C1230 C1229 1.385 . S
C1230 C1231 1.389 1_554 S
C1231 C1230 1.389 1_556 S
C1231 C1232 1.387 . S
C1232 H1217 0.930 . S
C1232 C1227 1.390 . S
C1232 C1231 1.387 . S
H1233 C1245 0.930 . S
H1234 C1247 0.930 . S
H1235 C1248 0.930 . S
H1236 C1252 0.959 . S
H1237 C1252 0.959 1_556 S
H1238 C1252 0.961 . S
H1239 C1253 0.960 . S
H1240 C1253 0.961 . S
H1241 C1253 0.959 1_554 S
H1242 C1256 0.929 . S
H1243 C1257 0.931 . S
H1244 C1259 0.930 . S
C1245 H1233 0.930 . S
C1245 C1246 1.399 . S
C1245 C1250 1.399 . S
C1246 C1245 1.399 . S
C1246 C1247 1.376 . S
C1247 H1234 0.930 . S
C1247 C1246 1.376 . S
C1247 C1248 1.388 . S
C1248 H1235 0.930 . S
C1248 C1247 1.388 . S
C1248 C1249 1.390 . S
C1249 C1248 1.390 . S
C1249 C1250 1.394 . S
C1249 C1255 1.465 . S
C1250 C1245 1.399 . S
C1250 C1249 1.394 . S
C1250 C1251 1.516 . S
C1251 C1250 1.516 . S
C1251 C1252 1.502 . S
C1251 C1253 1.561 1_554 S
C1251 C1254 1.526 . S
C1252 H1236 0.959 . S
C1252 H1237 0.959 1_554 S
C1252 H1238 0.961 . S
C1252 C1251 1.502 . S
C1253 H1239 0.960 . S
C1253 H1240 0.961 . S
C1253 H1241 0.959 1_556 S
C1253 C1251 1.561 1_556 S
C1254 C1251 1.526 . S
C1254 C1255 1.396 . S
C1254 C1259 1.390 . S
C1255 C1249 1.465 . S
C1255 C1254 1.396 . S
C1255 C1256 1.399 . S
C1256 H1242 0.929 . S
C1256 C1255 1.399 . S
C1256 C1257 1.385 . S
C1257 H1243 0.931 . S
C1257 C1256 1.385 . S
C1257 C1258 1.389 . S
C1258 C1257 1.389 . S
C1258 C1259 1.387 . S
C1259 H1244 0.930 . S
C1259 C1254 1.390 . S
C1259 C1258 1.387 . S
H1260 C1272 0.930 . S
H1261 C1274 0.930 . S
H1262 C1275 0.930 . S
H1263 C1279 0.959 . S
H1264 C1279 0.959 . S
H1265 C1279 0.961 . S
H1266 C1280 0.960 1_556 S
H1267 C1280 0.961 1_556 S
H1268 C1280 0.959 . S
H1269 C1283 0.929 . S
H1270 C1284 0.931 . S
H1271 C1286 0.930 . S
C1272 H1260 0.930 . S
C1272 C1273 1.399 . S
C1272 C1277 1.399 . S
C1273 C1272 1.399 . S
C1273 C1274 1.376 . S
C1274 H1261 0.930 . S
C1274 C1273 1.376 . S
C1274 C1275 1.388 . S
C1275 H1262 0.930 . S
C1275 C1274 1.388 . S
C1275 C1276 1.390 . S
C1276 C1275 1.390 . S
C1276 C1277 1.394 . S
C1276 C1282 1.465 . S
C1277 C1272 1.399 . S
C1277 C1276 1.394 . S
C1277 C1278 1.516 . S
C1278 C1277 1.516 . S
C1278 C1279 1.502 . S
C1278 C1280 1.561 . S
C1278 C1281 1.526 . S
C1279 H1263 0.959 . S
C1279 H1264 0.959 . S
C1279 H1265 0.961 . S
C1279 C1278 1.502 . S
C1280 H1266 0.960 1_554 S
C1280 H1267 0.961 1_554 S
C1280 H1268 0.959 . S
C1280 C1278 1.561 . S
C1281 C1278 1.526 . S
C1281 C1282 1.396 . S
C1281 C1286 1.390 . S
C1282 C1276 1.465 . S
C1282 C1281 1.396 . S
C1282 C1283 1.399 . S
C1283 H1269 0.929 . S
C1283 C1282 1.399 . S
C1283 C1284 1.385 . S
C1284 H1270 0.931 . S
C1284 C1283 1.385 . S
C1284 C1285 1.389 . S
C1285 C1284 1.389 . S
C1285 C1286 1.387 . S
C1286 H1271 0.930 . S
C1286 C1281 1.390 . S
C1286 C1285 1.387 . S
H1287 C1299 0.930 . S
H1288 C1301 0.930 . S
H1289 C1302 0.930 . S
H1290 C1306 0.959 . S
H1291 C1306 0.959 1_556 S
H1292 C1306 0.946 1_556 S
H1293 C1307 0.960 . S
H1294 C1307 0.961 . S
H1295 C1307 0.959 1_554 S
H1296 C1310 0.929 . S
H1297 C1311 0.931 . S
H1298 C1313 0.930 . S
C1299 H1287 0.930 . S
C1299 C1300 1.399 . S
C1299 C1304 1.399 . S
C1300 C1299 1.399 . S
C1300 C1301 1.376 . S
C1301 H1288 0.930 . S
C1301 C1300 1.376 . S
C1301 C1302 1.388 . S
C1302 H1289 0.930 . S
C1302 C1301 1.388 . S
C1302 C1303 1.390 . S
C1303 C1302 1.390 . S
C1303 C1304 1.394 . S
C1303 C1309 1.465 . S
C1304 C1299 1.399 . S
C1304 C1303 1.394 . S
C1304 C1305 1.516 . S
C1305 C1304 1.516 . S
C1305 C1306 1.502 . S
C1305 C1307 1.561 1_554 S
C1305 C1308 1.526 . S
C1306 H1290 0.959 . S
C1306 H1291 0.959 1_554 S
C1306 H1292 0.946 1_554 S
C1306 C1305 1.502 . S
C1307 H1293 0.960 . S
C1307 H1294 0.961 . S
C1307 H1295 0.959 1_556 S
C1307 C1305 1.561 1_556 S
C1308 C1305 1.526 . S
C1308 C1309 1.396 . S
C1308 C1313 1.390 . S
C1309 C1303 1.465 . S
C1309 C1308 1.396 . S
C1309 C1310 1.399 . S
C1310 H1296 0.929 . S
C1310 C1309 1.399 . S
C1310 C1311 1.385 . S
C1311 H1297 0.931 . S
C1311 C1310 1.385 . S
C1311 C1312 1.389 . S
C1312 C1311 1.389 . S
C1312 C1313 1.387 . S
C1313 H1298 0.930 . S
C1313 C1308 1.390 . S
C1313 C1312 1.387 . S
H1314 C1326 0.930 . S
H1315 C1328 0.930 . S
H1316 C1329 0.930 . S
H1317 C1333 0.958 1_655 S
H1318 C1333 0.960 . S
H1319 C1333 0.960 1_655 S
H1320 C1334 0.960 . S
H1321 C1334 0.961 . S
H1322 C1334 0.959 . S
H1323 C1337 0.929 . S
H1324 C1338 0.931 . S
H1325 C1340 0.930 . S
C1326 H1314 0.930 . S
C1326 C1327 1.399 . S
C1326 C1331 1.399 . S
C1327 C1326 1.399 . S
C1327 C1328 1.376 . S
C1328 H1315 0.930 . S
C1328 C1327 1.376 . S
C1328 C1329 1.388 . S
C1329 H1316 0.930 . S
C1329 C1328 1.388 . S
C1329 C1330 1.390 . S
C1330 C1329 1.390 . S
C1330 C1331 1.394 . S
C1330 C1336 1.465 1_655 S
C1331 C1326 1.399 . S
C1331 C1330 1.394 . S
C1331 C1332 1.516 1_655 S
C1332 C1331 1.516 1_455 S
C1332 C1333 1.503 . S
C1332 C1334 1.561 . S
C1332 C1335 1.526 . S
C1333 H1317 0.958 1_455 S
C1333 H1318 0.960 . S
C1333 H1319 0.960 1_455 S
C1333 C1332 1.503 . S
C1334 H1320 0.960 . S
C1334 H1321 0.961 . S
C1334 H1322 0.959 . S
C1334 C1332 1.561 . S
C1335 C1332 1.526 . S
C1335 C1336 1.396 . S
C1335 C1340 1.390 . S
C1336 C1330 1.465 1_455 S
C1336 C1335 1.396 . S
C1336 C1337 1.399 . S
C1337 H1323 0.929 . S
C1337 C1336 1.399 . S
C1337 C1338 1.385 . S
C1338 H1324 0.931 . S
C1338 C1337 1.385 . S
C1338 C1339 1.389 . S
C1339 C1338 1.389 . S
C1339 C1340 1.387 . S
C1340 H1325 0.930 . S
C1340 C1335 1.390 . S
C1340 C1339 1.387 . S
H1341 C1353 0.930 . S
H1342 C1355 0.930 . S
H1343 C1356 0.930 . S
H1344 C1360 0.959 . S
H1345 C1360 0.959 . S
H1346 C1360 0.961 . S
H1347 C1361 0.960 . S
H1348 C1361 0.961 . S
H1349 C1361 0.959 . S
H1350 C1364 0.929 . S
H1351 C1365 0.931 . S
H1352 C1367 0.930 . S
C1353 H1341 0.930 . S
C1353 C1354 1.399 . S
C1353 C1358 1.399 . S
C1354 C1353 1.399 . S
C1354 C1355 1.376 . S
C1355 H1342 0.930 . S
C1355 C1354 1.376 . S
C1355 C1356 1.388 . S
C1356 H1343 0.930 . S
C1356 C1355 1.388 . S
C1356 C1357 1.390 . S
C1357 C1356 1.390 . S
C1357 C1358 1.394 . S
C1357 C1363 1.465 . S
C1358 C1353 1.399 . S
C1358 C1357 1.394 . S
C1358 C1359 1.516 . S
C1359 C1358 1.516 . S
C1359 C1360 1.502 . S
C1359 C1361 1.561 . S
C1359 C1362 1.526 . S
C1360 H1344 0.959 . S
C1360 H1345 0.959 . S
C1360 H1346 0.961 . S
C1360 C1359 1.502 . S
C1361 H1347 0.960 . S
C1361 H1348 0.961 . S
C1361 H1349 0.959 . S
C1361 C1359 1.561 . S
C1362 C1359 1.526 . S
C1362 C1363 1.396 . S
C1362 C1367 1.390 . S
C1363 C1357 1.465 . S
C1363 C1362 1.396 . S
C1363 C1364 1.399 . S
C1364 H1350 0.929 . S
C1364 C1363 1.399 . S
C1364 C1365 1.385 . S
C1365 H1351 0.931 . S
C1365 C1364 1.385 . S
C1365 C1366 1.389 . S
C1366 C1365 1.389 . S
C1366 C1367 1.387 . S
C1367 H1352 0.930 . S
C1367 C1362 1.390 . S
C1367 C1366 1.387 . S
H1368 C1380 0.930 . S
H1369 C1382 0.930 . S
H1370 C1383 0.930 . S
H1371 C1387 0.959 . S
H1372 C1387 0.959 . S
H1373 C1387 0.961 . S
H1374 C1388 0.960 1_545 S
H1375 C1388 0.961 . S
H1376 C1388 0.959 . S
H1377 C1391 0.929 . S
H1378 C1392 0.931 . S
H1379 C1394 0.930 . S
C1380 H1368 0.930 . S
C1380 C1381 1.399 . S
C1380 C1385 1.399 . S
C1381 C1380 1.399 . S
C1381 C1382 1.376 . S
C1382 H1369 0.930 . S
C1382 C1381 1.376 . S
C1382 C1383 1.388 . S
C1383 H1370 0.930 . S
C1383 C1382 1.388 . S
C1383 C1384 1.390 . S
C1384 C1383 1.390 . S
C1384 C1385 1.394 . S
C1384 C1390 1.465 1_545 S
C1385 C1380 1.399 . S
C1385 C1384 1.394 . S
C1385 C1386 1.516 . S
C1386 C1385 1.516 . S
C1386 C1387 1.502 . S
C1386 C1388 1.561 1_545 S
C1386 C1389 1.526 1_545 S
C1387 H1371 0.959 . S
C1387 H1372 0.959 . S
C1387 H1373 0.961 . S
C1387 C1386 1.502 . S
C1388 H1374 0.960 1_565 S
C1388 H1375 0.961 . S
C1388 H1376 0.959 . S
C1388 C1386 1.561 1_565 S
C1389 C1386 1.526 1_565 S
C1389 C1390 1.396 . S
C1389 C1394 1.390 . S
C1390 C1384 1.465 1_565 S
C1390 C1389 1.396 . S
C1390 C1391 1.399 . S
C1391 H1377 0.929 . S
C1391 C1390 1.399 . S
C1391 C1392 1.385 . S
C1392 H1378 0.931 . S
C1392 C1391 1.385 . S
C1392 C1393 1.389 . S
C1393 C1392 1.389 . S
C1393 C1394 1.387 . S
C1394 H1379 0.930 . S
C1394 C1389 1.390 . S
C1394 C1393 1.387 . S
H1395 C1407 0.930 . S
H1396 C1409 0.930 . S
H1397 C1410 0.930 . S
H1398 C1414 0.959 . S
H1399 C1414 0.959 . S
H1400 C1414 0.961 . S
H1401 C1415 0.960 . S
H1402 C1415 0.961 . S
H1403 C1415 0.959 . S
H1404 C1418 0.929 . S
H1405 C1419 0.931 . S
H1406 C1421 0.930 . S
C1407 H1395 0.930 . S
C1407 C1408 1.399 . S
C1407 C1412 1.399 . S
C1408 C1407 1.399 . S
C1408 C1409 1.376 . S
C1409 H1396 0.930 . S
C1409 C1408 1.376 . S
C1409 C1410 1.388 . S
C1410 H1397 0.930 . S
C1410 C1409 1.388 . S
C1410 C1411 1.390 . S
C1411 C1410 1.390 . S
C1411 C1412 1.394 . S
C1411 C1417 1.465 . S
C1412 C1407 1.399 . S
C1412 C1411 1.394 . S
C1412 C1413 1.516 . S
C1413 C1412 1.516 . S
C1413 C1414 1.502 . S
C1413 C1415 1.561 . S
C1413 C1416 1.526 . S
C1414 H1398 0.959 . S
C1414 H1399 0.959 . S
C1414 H1400 0.961 . S
C1414 C1413 1.502 . S
C1415 H1401 0.960 . S
C1415 H1402 0.961 . S
C1415 H1403 0.959 . S
C1415 C1413 1.561 . S
C1416 C1413 1.526 . S
C1416 C1417 1.396 . S
C1416 C1421 1.390 . S
C1417 C1411 1.465 . S
C1417 C1416 1.396 . S
C1417 C1418 1.399 . S
C1418 H1404 0.929 . S
C1418 C1417 1.399 . S
C1418 C1419 1.385 . S
C1419 H1405 0.931 . S
C1419 C1418 1.385 . S
C1419 C1420 1.389 . S
C1420 C1419 1.389 . S
C1420 C1421 1.387 . S
C1421 H1406 0.930 . S
C1421 C1416 1.390 . S
C1421 C1420 1.387 . S
H1422 C1434 0.930 . S
H1423 C1436 0.930 . S
H1424 C1437 0.930 . S
H1425 C1441 0.959 . S
H1426 C1441 0.959 . S
H1427 C1441 0.961 . S
H1428 C1442 0.960 . S
H1429 C1442 0.961 . S
H1430 C1442 0.959 . S
H1431 C1445 0.929 . S
H1432 C1446 0.931 . S
H1433 C1448 0.930 . S
C1434 H1422 0.930 . S
C1434 C1435 1.399 . S
C1434 C1439 1.399 . S
C1435 C1434 1.399 . S
C1435 C1436 1.376 . S
C1436 H1423 0.930 . S
C1436 C1435 1.376 . S
C1436 C1437 1.388 . S
C1437 H1424 0.930 . S
C1437 C1436 1.388 . S
C1437 C1438 1.390 . S
C1438 C1437 1.390 . S
C1438 C1439 1.394 . S
C1438 C1444 1.465 . S
C1439 C1434 1.399 . S
C1439 C1438 1.394 . S
C1439 C1440 1.516 . S
C1440 C1439 1.516 . S
C1440 C1441 1.502 . S
C1440 C1442 1.561 . S
C1440 C1443 1.526 . S
C1441 H1425 0.959 . S
C1441 H1426 0.959 . S
C1441 H1427 0.961 . S
C1441 C1440 1.502 . S
C1442 H1428 0.960 . S
C1442 H1429 0.961 . S
C1442 H1430 0.959 . S
C1442 C1440 1.561 . S
C1443 C1440 1.526 . S
C1443 C1444 1.396 . S
C1443 C1448 1.390 . S
C1444 C1438 1.465 . S
C1444 C1443 1.396 . S
C1444 C1445 1.399 . S
C1445 H1431 0.929 . S
C1445 C1444 1.399 . S
C1445 C1446 1.385 . S
C1446 H1432 0.931 . S
C1446 C1445 1.385 . S
C1446 C1447 1.389 . S
C1447 C1446 1.389 . S
C1447 C1448 1.387 . S
C1448 H1433 0.930 . S
C1448 C1443 1.390 . S
C1448 C1447 1.387 . S
H1449 C1461 0.930 . S
H1450 C1463 0.930 . S
H1451 C1464 0.930 . S
H1452 C1468 0.959 . S
H1453 C1468 0.959 . S
H1454 C1468 0.961 . S
H1455 C1469 0.960 . S
H1456 C1469 0.961 . S
H1457 C1469 0.959 . S
H1458 C1472 0.929 . S
H1459 C1473 0.931 . S
H1460 C1475 0.930 . S
C1461 H1449 0.930 . S
C1461 C1462 1.399 . S
C1461 C1466 1.399 . S
C1462 C1461 1.399 . S
C1462 C1463 1.376 . S
C1463 H1450 0.930 . S
C1463 C1462 1.376 . S
C1463 C1464 1.388 . S
C1464 H1451 0.930 . S
C1464 C1463 1.388 . S
C1464 C1465 1.390 . S
C1465 C1464 1.390 . S
C1465 C1466 1.394 . S
C1465 C1471 1.465 . S
C1466 C1461 1.399 . S
C1466 C1465 1.394 . S
C1466 C1467 1.516 . S
C1467 C1466 1.516 . S
C1467 C1468 1.502 . S
C1467 C1469 1.561 . S
C1467 C1470 1.526 . S
C1468 H1452 0.959 . S
C1468 H1453 0.959 . S
C1468 H1454 0.961 . S
C1468 C1467 1.502 . S
C1469 H1455 0.960 . S
C1469 H1456 0.961 . S
C1469 H1457 0.959 . S
C1469 C1467 1.561 . S
C1470 C1467 1.526 . S
C1470 C1471 1.396 . S
C1470 C1475 1.390 . S
C1471 C1465 1.465 . S
C1471 C1470 1.396 . S
C1471 C1472 1.399 . S
C1472 H1458 0.929 . S
C1472 C1471 1.399 . S
C1472 C1473 1.385 . S
C1473 H1459 0.931 . S
C1473 C1472 1.385 . S
C1473 C1474 1.389 . S
C1474 C1473 1.389 . S
C1474 C1475 1.387 . S
C1475 H1460 0.930 . S
C1475 C1470 1.390 . S
C1475 C1474 1.387 . S
H1476 C1488 0.930 . S
H1477 C1490 0.930 . S
H1478 C1491 0.930 . S
H1479 C1495 0.959 . S
H1480 C1495 0.959 . S
H1481 C1495 0.961 . S
H1482 C1496 0.960 . S
H1483 C1496 0.961 . S
H1484 C1496 0.959 . S
H1485 C1499 0.929 . S
H1486 C1500 0.931 . S
H1487 C1502 0.930 . S
C1488 H1476 0.930 . S
C1488 C1489 1.399 . S
C1488 C1493 1.399 . S
C1489 C1488 1.399 . S
C1489 C1490 1.376 . S
C1490 H1477 0.930 . S
C1490 C1489 1.376 . S
C1490 C1491 1.388 . S
C1491 H1478 0.930 . S
C1491 C1490 1.388 . S
C1491 C1492 1.390 . S
C1492 C1491 1.390 . S
C1492 C1493 1.394 . S
C1492 C1498 1.465 . S
C1493 C1488 1.399 . S
C1493 C1492 1.394 . S
C1493 C1494 1.516 . S
C1494 C1493 1.516 . S
C1494 C1495 1.502 . S
C1494 C1496 1.561 . S
C1494 C1497 1.526 . S
C1495 H1479 0.959 . S
C1495 H1480 0.959 . S
C1495 H1481 0.961 . S
C1495 C1494 1.502 . S
C1496 H1482 0.960 . S
C1496 H1483 0.961 . S
C1496 H1484 0.959 . S
C1496 C1494 1.561 . S
C1497 C1494 1.526 . S
C1497 C1498 1.396 . S
C1497 C1502 1.390 . S
C1498 C1492 1.465 . S
C1498 C1497 1.396 . S
C1498 C1499 1.399 . S
C1499 H1485 0.929 . S
C1499 C1498 1.399 . S
C1499 C1500 1.385 . S
C1500 H1486 0.931 . S
C1500 C1499 1.385 . S
C1500 C1501 1.389 . S
C1501 C1500 1.389 . S
C1501 C1502 1.387 . S
C1502 H1487 0.930 . S
C1502 C1497 1.390 . S
C1502 C1501 1.387 . S
H1503 C1515 0.930 . S
H1504 C1517 0.930 . S
H1505 C1518 0.930 . S
H1506 C1522 0.959 . S
H1507 C1522 0.959 . S
H1508 C1522 0.961 . S
H1509 C1523 0.960 . S
H1510 C1523 0.961 . S
H1511 C1523 0.959 . S
H1512 C1526 0.929 . S
H1513 C1527 0.931 . S
H1514 C1529 0.930 . S
C1515 H1503 0.930 . S
C1515 C1516 1.399 . S
C1515 C1520 1.399 . S
C1516 C1515 1.399 . S
C1516 C1517 1.376 . S
C1517 H1504 0.930 . S
C1517 C1516 1.376 . S
C1517 C1518 1.388 . S
C1518 H1505 0.930 . S
C1518 C1517 1.388 . S
C1518 C1519 1.390 . S
C1519 C1518 1.390 . S
C1519 C1520 1.394 . S
C1519 C1525 1.465 . S
C1520 C1515 1.399 . S
C1520 C1519 1.394 . S
C1520 C1521 1.516 . S
C1521 C1520 1.516 . S
C1521 C1522 1.502 . S
C1521 C1523 1.561 . S
C1521 C1524 1.526 . S
C1522 H1506 0.959 . S
C1522 H1507 0.959 . S
C1522 H1508 0.961 . S
C1522 C1521 1.502 . S
C1523 H1509 0.960 . S
C1523 H1510 0.961 . S
C1523 H1511 0.959 . S
C1523 C1521 1.561 . S
C1524 C1521 1.526 . S
C1524 C1525 1.396 . S
C1524 C1529 1.390 . S
C1525 C1519 1.465 . S
C1525 C1524 1.396 . S
C1525 C1526 1.399 . S
C1526 H1512 0.929 . S
C1526 C1525 1.399 . S
C1526 C1527 1.385 . S
C1527 H1513 0.931 . S
C1527 C1526 1.385 . S
C1527 C1528 1.389 . S
C1528 C1527 1.389 . S
C1528 C1529 1.387 . S
C1529 H1514 0.930 . S
C1529 C1524 1.390 . S
C1529 C1528 1.387 . S
H1530 C1542 0.930 . S
H1531 C1544 0.930 . S
H1532 C1545 0.930 . S
H1533 C1549 0.959 . S
H1534 C1549 0.959 . S
H1535 C1549 0.961 . S
H1536 C1550 0.960 . S
H1537 C1550 0.961 . S
H1538 C1550 0.959 . S
H1539 C1553 0.929 . S
H1540 C1554 0.931 . S
H1541 C1556 0.930 . S
C1542 H1530 0.930 . S
C1542 C1543 1.399 . S
C1542 C1547 1.399 . S
C1543 C1542 1.399 . S
C1543 C1544 1.376 . S
C1544 H1531 0.930 . S
C1544 C1543 1.376 . S
C1544 C1545 1.388 . S
C1545 H1532 0.930 . S
C1545 C1544 1.388 . S
C1545 C1546 1.390 . S
C1546 C1545 1.390 . S
C1546 C1547 1.394 . S
C1546 C1552 1.465 . S
C1547 C1542 1.399 . S
C1547 C1546 1.394 . S
C1547 C1548 1.516 . S
C1548 C1547 1.516 . S
C1548 C1549 1.502 . S
C1548 C1550 1.561 . S
C1548 C1551 1.526 . S
C1549 H1533 0.959 . S
C1549 H1534 0.959 . S
C1549 H1535 0.961 . S
C1549 C1548 1.502 . S
C1550 H1536 0.960 . S
C1550 H1537 0.961 . S
C1550 H1538 0.959 . S
C1550 C1548 1.561 . S
C1551 C1548 1.526 . S
C1551 C1552 1.396 . S
C1551 C1556 1.390 . S
C1552 C1546 1.465 . S
C1552 C1551 1.396 . S
C1552 C1553 1.399 . S
C1553 H1539 0.929 . S
C1553 C1552 1.399 . S
C1553 C1554 1.385 . S
C1554 H1540 0.931 . S
C1554 C1553 1.385 . S
C1554 C1555 1.389 . S
C1555 C1554 1.389 . S
C1555 C1556 1.387 . S
C1556 H1541 0.930 . S
C1556 C1551 1.390 . S
C1556 C1555 1.387 . S
H1557 C1569 0.930 . S
H1558 C1571 0.930 . S
H1559 C1572 0.930 . S
H1560 C1576 0.959 . S
H1561 C1576 0.959 . S
H1562 C1576 0.961 . S
H1563 C1577 0.960 . S
H1564 C1577 0.961 . S
H1565 C1577 0.959 . S
H1566 C1580 0.929 . S
H1567 C1581 0.931 . S
H1568 C1583 0.930 . S
C1569 H1557 0.930 . S
C1569 C1570 1.399 . S
C1569 C1574 1.399 1_545 S
C1570 C1569 1.399 . S
C1570 C1571 1.376 . S
C1571 H1558 0.930 . S
C1571 C1570 1.376 . S
C1571 C1572 1.388 1_545 S
C1572 H1559 0.930 . S
C1572 C1571 1.388 1_565 S
C1572 C1573 1.390 . S
C1573 C1572 1.390 . S
C1573 C1574 1.394 . S
C1573 C1579 1.465 . S
C1574 C1569 1.399 1_565 S
C1574 C1573 1.394 . S
C1574 C1575 1.516 . S
C1575 C1574 1.516 . S
C1575 C1576 1.502 . S
C1575 C1577 1.561 . S
C1575 C1578 1.526 . S
C1576 H1560 0.959 . S
C1576 H1561 0.959 . S
C1576 H1562 0.961 . S
C1576 C1575 1.502 . S
C1577 H1563 0.960 . S
C1577 H1564 0.961 . S
C1577 H1565 0.959 . S
C1577 C1575 1.561 . S
C1578 C1575 1.526 . S
C1578 C1579 1.396 . S
C1578 C1583 1.390 . S
C1579 C1573 1.465 . S
C1579 C1578 1.396 . S
C1579 C1580 1.399 . S
C1580 H1566 0.929 . S
C1580 C1579 1.399 . S
C1580 C1581 1.385 . S
C1581 H1567 0.931 . S
C1581 C1580 1.385 . S
C1581 C1582 1.389 . S
C1582 C1581 1.389 . S
C1582 C1583 1.387 . S
C1583 H1568 0.930 . S
C1583 C1578 1.390 . S
C1583 C1582 1.387 . S
H1584 C1596 0.930 . S
H1585 C1598 0.930 . S
H1586 C1599 0.930 . S
H1587 C1603 0.959 . S
H1588 C1603 0.959 . S
H1589 C1603 0.961 . S
H1590 C1604 0.960 . S
H1591 C1604 0.961 . S
H1592 C1604 0.959 . S
H1593 C1607 0.929 . S
H1594 C1608 0.931 . S
H1595 C1610 0.930 . S
C1596 H1584 0.930 . S
C1596 C1597 1.399 1_455 S
C1596 C1601 1.399 . S
C1597 C1596 1.399 1_655 S
C1597 C1598 1.376 . S
C1598 H1585 0.930 . S
C1598 C1597 1.376 . S
C1598 C1599 1.388 1_655 S
C1599 H1586 0.930 . S
C1599 C1598 1.388 1_455 S
C1599 C1600 1.390 . S
C1600 C1599 1.390 . S
C1600 C1601 1.394 . S
C1600 C1606 1.465 . S
C1601 C1596 1.399 . S
C1601 C1600 1.394 . S
C1601 C1602 1.516 . S
C1602 C1601 1.516 . S
C1602 C1603 1.502 . S
C1602 C1604 1.561 . S
C1602 C1605 1.526 . S
C1603 H1587 0.959 . S
C1603 H1588 0.959 . S
C1603 H1589 0.961 . S
C1603 C1602 1.502 . S
C1604 H1590 0.960 . S
C1604 H1591 0.961 . S
C1604 H1592 0.959 . S
C1604 C1602 1.561 . S
C1605 C1602 1.526 . S
C1605 C1606 1.396 . S
C1605 C1610 1.390 . S
C1606 C1600 1.465 . S
C1606 C1605 1.396 . S
C1606 C1607 1.399 . S
C1607 H1593 0.929 . S
C1607 C1606 1.399 . S
C1607 C1608 1.385 . S
C1608 H1594 0.931 . S
C1608 C1607 1.385 . S
C1608 C1609 1.389 . S
C1609 C1608 1.389 . S
C1609 C1610 1.387 . S
C1610 H1595 0.930 . S
C1610 C1605 1.390 . S
C1610 C1609 1.387 . S
H1611 C1623 0.930 . S
H1612 C1625 0.930 . S
H1613 C1626 0.930 . S
H1614 C1630 0.959 . S
H1615 C1630 0.959 . S
H1616 C1630 0.961 . S
H1617 C1631 0.960 . S
H1618 C1631 0.961 . S
H1619 C1631 0.959 . S
H1620 C1634 0.929 . S
H1621 C1635 0.931 . S
H1622 C1637 0.930 . S
C1623 H1611 0.930 . S
C1623 C1624 1.399 . S
C1623 C1628 1.399 . S
C1624 C1623 1.399 . S
C1624 C1625 1.376 . S
C1625 H1612 0.930 . S
C1625 C1624 1.376 . S
C1625 C1626 1.388 . S
C1626 H1613 0.930 . S
C1626 C1625 1.388 . S
C1626 C1627 1.390 . S
C1627 C1626 1.390 . S
C1627 C1628 1.394 . S
C1627 C1633 1.465 . S
C1628 C1623 1.399 . S
C1628 C1627 1.394 . S
C1628 C1629 1.516 . S
C1629 C1628 1.516 . S
C1629 C1630 1.502 . S
C1629 C1631 1.561 . S
C1629 C1632 1.526 . S
C1630 H1614 0.959 . S
C1630 H1615 0.959 . S
C1630 H1616 0.961 . S
C1630 C1629 1.502 . S
C1631 H1617 0.960 . S
C1631 H1618 0.961 . S
C1631 H1619 0.959 . S
C1631 C1629 1.561 . S
C1632 C1629 1.526 . S
C1632 C1633 1.396 . S
C1632 C1637 1.390 . S
C1633 C1627 1.465 . S
C1633 C1632 1.396 . S
C1633 C1634 1.399 . S
C1634 H1620 0.929 . S
C1634 C1633 1.399 . S
C1634 C1635 1.385 . S
C1635 H1621 0.931 . S
C1635 C1634 1.385 . S
C1635 C1636 1.389 . S
C1636 C1635 1.389 . S
C1636 C1637 1.387 . S
C1637 H1622 0.930 . S
C1637 C1632 1.390 . S
C1637 C1636 1.387 . S
H1638 C1650 0.930 . S
H1639 C1652 0.930 . S
H1640 C1653 0.930 . S
H1641 C1657 0.959 . S
H1642 C1657 0.959 . S
H1643 C1657 0.961 . S
H1644 C1658 0.960 . S
H1645 C1658 0.961 . S
H1646 C1658 0.959 . S
H1647 C1661 0.929 . S
H1648 C1662 0.931 . S
H1649 C1664 0.930 . S
C1650 H1638 0.930 . S
C1650 C1651 1.399 . S
C1650 C1655 1.399 . S
C1651 C1650 1.399 . S
C1651 C1652 1.376 . S
C1652 H1639 0.930 . S
C1652 C1651 1.376 . S
C1652 C1653 1.388 . S
C1653 H1640 0.930 . S
C1653 C1652 1.388 . S
C1653 C1654 1.390 . S
C1654 C1653 1.390 . S
C1654 C1655 1.394 . S
C1654 C1660 1.465 . S
C1655 C1650 1.399 . S
C1655 C1654 1.394 . S
C1655 C1656 1.516 . S
C1656 C1655 1.516 . S
C1656 C1657 1.502 . S
C1656 C1658 1.561 . S
C1656 C1659 1.526 . S
C1657 H1641 0.959 . S
C1657 H1642 0.959 . S
C1657 H1643 0.961 . S
C1657 C1656 1.502 . S
C1658 H1644 0.960 . S
C1658 H1645 0.961 . S
C1658 H1646 0.959 . S
C1658 C1656 1.561 . S
C1659 C1656 1.526 . S
C1659 C1660 1.396 . S
C1659 C1664 1.390 . S
C1660 C1654 1.465 . S
C1660 C1659 1.396 . S
C1660 C1661 1.399 . S
C1661 H1647 0.929 . S
C1661 C1660 1.399 . S
C1661 C1662 1.385 . S
C1662 H1648 0.931 . S
C1662 C1661 1.385 . S
C1662 C1663 1.389 . S
C1663 C1662 1.389 . S
C1663 C1664 1.387 . S
C1664 H1649 0.930 . S
C1664 C1659 1.390 . S
C1664 C1663 1.387 . S
H1665 C1677 0.930 . S
H1666 C1679 0.930 . S
H1667 C1680 0.930 . S
H1668 C1684 0.959 . S
H1669 C1684 0.959 . S
H1670 C1684 0.961 . S
H1671 C1685 0.960 . S
H1672 C1685 0.961 . S
H1673 C1685 0.959 . S
H1674 C1688 0.929 . S
H1675 C1689 0.931 . S
H1676 C1691 0.930 . S
C1677 H1665 0.930 . S
C1677 C1678 1.399 . S
C1677 C1682 1.399 . S
C1678 C1677 1.399 . S
C1678 C1679 1.376 . S
C1679 H1666 0.930 . S
C1679 C1678 1.376 . S
C1679 C1680 1.388 . S
C1680 H1667 0.930 . S
C1680 C1679 1.388 . S
C1680 C1681 1.390 . S
C1681 C1680 1.390 . S
C1681 C1682 1.394 . S
C1681 C1687 1.465 . S
C1682 C1677 1.399 . S
C1682 C1681 1.394 . S
C1682 C1683 1.516 . S
C1683 C1682 1.516 . S
C1683 C1684 1.502 . S
C1683 C1685 1.561 . S
C1683 C1686 1.526 . S
C1684 H1668 0.959 . S
C1684 H1669 0.959 . S
C1684 H1670 0.961 . S
C1684 C1683 1.502 . S
C1685 H1671 0.960 . S
C1685 H1672 0.961 . S
C1685 H1673 0.959 . S
C1685 C1683 1.561 . S
C1686 C1683 1.526 . S
C1686 C1687 1.396 . S
C1686 C1691 1.390 . S
C1687 C1681 1.465 . S
C1687 C1686 1.396 . S
C1687 C1688 1.399 . S
C1688 H1674 0.929 . S
C1688 C1687 1.399 . S
C1688 C1689 1.385 . S
C1689 H1675 0.931 . S
C1689 C1688 1.385 . S
C1689 C1690 1.389 . S
C1690 C1689 1.389 . S
C1690 C1691 1.387 . S
C1691 H1676 0.930 . S
C1691 C1686 1.390 . S
C1691 C1690 1.387 . S
H1692 C1704 0.930 . S
H1693 C1706 0.930 . S
H1694 C1707 0.930 . S
H1695 C1711 0.959 . S
H1696 C1711 0.959 . S
H1697 C1711 0.961 . S
H1698 C1712 0.960 . S
H1699 C1712 0.961 . S
H1700 C1712 0.959 . S
H1701 C1715 0.929 . S
H1702 C1716 0.931 . S
H1703 C1718 0.930 . S
C1704 H1692 0.930 . S
C1704 C1705 1.399 . S
C1704 C1709 1.399 . S
C1705 C1704 1.399 . S
C1705 C1706 1.376 . S
C1706 H1693 0.930 . S
C1706 C1705 1.376 . S
C1706 C1707 1.388 . S
C1707 H1694 0.930 . S
C1707 C1706 1.388 . S
C1707 C1708 1.390 . S
C1708 C1707 1.390 . S
C1708 C1709 1.394 . S
C1708 C1714 1.465 . S
C1709 C1704 1.399 . S
C1709 C1708 1.394 . S
C1709 C1710 1.516 . S
C1710 C1709 1.516 . S
C1710 C1711 1.502 . S
C1710 C1712 1.561 . S
C1710 C1713 1.526 . S
C1711 H1695 0.959 . S
C1711 H1696 0.959 . S
C1711 H1697 0.961 . S
C1711 C1710 1.502 . S
C1712 H1698 0.960 . S
C1712 H1699 0.961 . S
C1712 H1700 0.959 . S
C1712 C1710 1.561 . S
C1713 C1710 1.526 . S
C1713 C1714 1.396 . S
C1713 C1718 1.390 . S
C1714 C1708 1.465 . S
C1714 C1713 1.396 . S
C1714 C1715 1.399 . S
C1715 H1701 0.929 . S
C1715 C1714 1.399 . S
C1715 C1716 1.385 . S
C1716 H1702 0.931 . S
C1716 C1715 1.385 . S
C1716 C1717 1.389 . S
C1717 C1716 1.389 . S
C1717 C1718 1.387 . S
C1718 H1703 0.930 . S
C1718 C1713 1.390 . S
C1718 C1717 1.387 . S
H1719 C1731 0.930 . S
H1720 C1733 0.930 . S
H1721 C1734 0.930 . S
H1722 C1738 0.973 . S
H1723 C1738 0.951 1_545 S
H1724 C1738 0.972 . S
H1725 C1739 0.960 . S
H1726 C1739 0.961 . S
H1727 C1739 0.959 . S
H1728 C1742 0.929 . S
H1729 C1743 0.931 . S
H1730 C1745 0.930 . S
C1731 H1719 0.930 . S
C1731 C1732 1.399 . S
C1731 C1736 1.399 . S
C1732 C1731 1.399 . S
C1732 C1733 1.376 . S
C1733 H1720 0.930 . S
C1733 C1732 1.376 . S
C1733 C1734 1.388 . S
C1734 H1721 0.930 . S
C1734 C1733 1.388 . S
C1734 C1735 1.390 . S
C1735 C1734 1.390 . S
C1735 C1736 1.394 . S
C1735 C1741 1.465 1_565 S
C1736 C1731 1.399 . S
C1736 C1735 1.394 . S
C1736 C1737 1.516 1_565 S
C1737 C1736 1.516 1_545 S
C1737 C1738 1.487 1_545 S
C1737 C1739 1.561 . S
C1737 C1740 1.526 . S
C1738 H1722 0.973 . S
C1738 H1723 0.951 1_565 S
C1738 H1724 0.972 . S
C1738 C1737 1.487 1_565 S
C1739 H1725 0.960 . S
C1739 H1726 0.961 . S
C1739 H1727 0.959 . S
C1739 C1737 1.561 . S
C1740 C1737 1.526 . S
C1740 C1741 1.396 . S
C1740 C1745 1.390 . S
C1741 C1735 1.465 1_545 S
C1741 C1740 1.396 . S
C1741 C1742 1.399 . S
C1742 H1728 0.929 . S
C1742 C1741 1.399 . S
C1742 C1743 1.385 . S
C1743 H1729 0.931 . S
C1743 C1742 1.385 . S
C1743 C1744 1.389 . S
C1744 C1743 1.389 . S
C1744 C1745 1.387 . S
C1745 H1730 0.930 . S
C1745 C1740 1.390 . S
C1745 C1744 1.387 . S
H1746 C1758 0.930 . S
H1747 C1760 0.930 . S
H1748 C1761 0.930 . S
H1749 C1765 0.959 . S
H1750 C1765 0.959 . S
H1751 C1765 0.961 . S
H1752 C1766 0.960 . S
H1753 C1766 0.961 . S
H1754 C1766 0.959 . S
H1755 C1769 0.929 1_455 S
H1756 C1770 0.931 . S
H1757 C1772 0.930 . S
C1758 H1746 0.930 . S
C1758 C1759 1.399 . S
C1758 C1763 1.399 . S
C1759 C1758 1.399 . S
C1759 C1760 1.376 . S
C1760 H1747 0.930 . S
C1760 C1759 1.376 . S
C1760 C1761 1.388 . S
C1761 H1748 0.930 . S
C1761 C1760 1.388 . S
C1761 C1762 1.390 . S
C1762 C1761 1.390 . S
C1762 C1763 1.394 . S
C1762 C1768 1.465 1_455 S
C1763 C1758 1.399 . S
C1763 C1762 1.394 . S
C1763 C1764 1.516 1_455 S
C1764 C1763 1.516 1_655 S
C1764 C1765 1.502 . S
C1764 C1766 1.561 . S
C1764 C1767 1.526 . S
C1765 H1749 0.959 . S
C1765 H1750 0.959 . S
C1765 H1751 0.961 . S
C1765 C1764 1.502 . S
C1766 H1752 0.960 . S
C1766 H1753 0.961 . S
C1766 H1754 0.959 . S
C1766 C1764 1.561 . S
C1767 C1764 1.526 . S
C1767 C1768 1.396 . S
C1767 C1772 1.390 . S
C1768 C1762 1.465 1_655 S
C1768 C1767 1.396 . S
C1768 C1769 1.399 . S
C1769 H1755 0.929 1_655 S
C1769 C1768 1.399 . S
C1769 C1770 1.385 . S
C1770 H1756 0.931 . S
C1770 C1769 1.385 . S
C1770 C1771 1.389 . S
C1771 C1770 1.389 . S
C1771 C1772 1.387 . S
C1772 H1757 0.930 . S
C1772 C1767 1.390 . S
C1772 C1771 1.387 . S
H1773 C1785 0.930 . S
H1774 C1787 0.930 . S
H1775 C1788 0.930 . S
H1776 C1792 0.959 . S
H1777 C1792 0.959 . S
H1778 C1792 0.961 . S
H1779 C1793 0.960 . S
H1780 C1793 0.961 . S
H1781 C1793 0.959 . S
H1782 C1796 0.929 . S
H1783 C1797 0.931 . S
H1784 C1799 0.930 . S
C1785 H1773 0.930 . S
C1785 C1786 1.399 . S
C1785 C1790 1.399 . S
C1786 C1785 1.399 . S
C1786 C1787 1.376 . S
C1787 H1774 0.930 . S
C1787 C1786 1.376 . S
C1787 C1788 1.388 . S
C1788 H1775 0.930 . S
C1788 C1787 1.388 . S
C1788 C1789 1.390 . S
C1789 C1788 1.390 . S
C1789 C1790 1.394 . S
C1789 C1795 1.465 . S
C1790 C1785 1.399 . S
C1790 C1789 1.394 . S
C1790 C1791 1.516 . S
C1791 C1790 1.516 . S
C1791 C1792 1.502 . S
C1791 C1793 1.561 . S
C1791 C1794 1.526 . S
C1792 H1776 0.959 . S
C1792 H1777 0.959 . S
C1792 H1778 0.961 . S
C1792 C1791 1.502 . S
C1793 H1779 0.960 . S
C1793 H1780 0.961 . S
C1793 H1781 0.959 . S
C1793 C1791 1.561 . S
C1794 C1791 1.526 . S
C1794 C1795 1.396 . S
C1794 C1799 1.390 . S
C1795 C1789 1.465 . S
C1795 C1794 1.396 . S
C1795 C1796 1.399 . S
C1796 H1782 0.929 . S
C1796 C1795 1.399 . S
C1796 C1797 1.385 . S
C1797 H1783 0.931 . S
C1797 C1796 1.385 . S
C1797 C1798 1.389 . S
C1798 C1797 1.389 . S
C1798 C1799 1.387 . S
C1799 H1784 0.930 . S
C1799 C1794 1.390 . S
C1799 C1798 1.387 . S
H1800 C1812 0.930 . S
H1801 C1814 0.930 . S
H1802 C1815 0.930 . S
H1803 C1819 0.959 . S
H1804 C1819 0.959 . S
H1805 C1819 0.961 . S
H1806 C1820 0.960 . S
H1807 C1820 0.961 . S
H1808 C1820 0.959 . S
H1809 C1823 0.929 . S
H1810 C1824 0.931 . S
H1811 C1826 0.930 . S
C1812 H1800 0.930 . S
C1812 C1813 1.399 1_655 S
C1812 C1817 1.399 . S
C1813 C1812 1.399 1_455 S
C1813 C1814 1.376 . S
C1814 H1801 0.930 . S
C1814 C1813 1.376 . S
C1814 C1815 1.388 1_455 S
C1815 H1802 0.930 . S
C1815 C1814 1.388 1_655 S
C1815 C1816 1.390 . S
C1816 C1815 1.390 . S
C1816 C1817 1.394 . S
C1816 C1822 1.465 . S
C1817 C1812 1.399 . S
C1817 C1816 1.394 . S
C1817 C1818 1.516 . S
C1818 C1817 1.516 . S
C1818 C1819 1.502 . S
C1818 C1820 1.561 . S
C1818 C1821 1.526 . S
C1819 H1803 0.959 . S
C1819 H1804 0.959 . S
C1819 H1805 0.961 . S
C1819 C1818 1.502 . S
C1820 H1806 0.960 . S
C1820 H1807 0.961 . S
C1820 H1808 0.959 . S
C1820 C1818 1.561 . S
C1821 C1818 1.526 . S
C1821 C1822 1.396 . S
C1821 C1826 1.390 . S
C1822 C1816 1.465 . S
C1822 C1821 1.396 . S
C1822 C1823 1.399 . S
C1823 H1809 0.929 . S
C1823 C1822 1.399 . S
C1823 C1824 1.385 . S
C1824 H1810 0.931 . S
C1824 C1823 1.385 . S
C1824 C1825 1.389 . S
C1825 C1824 1.389 . S
C1825 C1826 1.387 . S
C1826 H1811 0.930 . S
C1826 C1821 1.390 . S
C1826 C1825 1.387 . S
H1827 C1839 0.930 . S
H1828 C1841 0.930 . S
H1829 C1842 0.930 . S
H1830 C1846 0.959 . S
H1831 C1846 0.959 . S
H1832 C1846 0.961 . S
H1833 C1847 0.960 . S
H1834 C1847 0.961 . S
H1835 C1847 0.959 . S
H1836 C1850 0.929 . S
H1837 C1851 0.931 . S
H1838 C1853 0.930 . S
C1839 H1827 0.930 . S
C1839 C1840 1.399 . S
C1839 C1844 1.399 . S
C1840 C1839 1.399 . S
C1840 C1841 1.376 . S
C1841 H1828 0.930 . S
C1841 C1840 1.376 . S
C1841 C1842 1.388 . S
C1842 H1829 0.930 . S
C1842 C1841 1.388 . S
C1842 C1843 1.390 . S
C1843 C1842 1.390 . S
C1843 C1844 1.394 . S
C1843 C1849 1.465 . S
C1844 C1839 1.399 . S
C1844 C1843 1.394 . S
C1844 C1845 1.516 . S
C1845 C1844 1.516 . S
C1845 C1846 1.502 . S
C1845 C1847 1.561 . S
C1845 C1848 1.526 . S
C1846 H1830 0.959 . S
C1846 H1831 0.959 . S
C1846 H1832 0.961 . S
C1846 C1845 1.502 . S
C1847 H1833 0.960 . S
C1847 H1834 0.961 . S
C1847 H1835 0.959 . S
C1847 C1845 1.561 . S
C1848 C1845 1.526 . S
C1848 C1849 1.396 . S
C1848 C1853 1.390 . S
C1849 C1843 1.465 . S
C1849 C1848 1.396 . S
C1849 C1850 1.399 . S
C1850 H1836 0.929 . S
C1850 C1849 1.399 . S
C1850 C1851 1.385 . S
C1851 H1837 0.931 . S
C1851 C1850 1.385 . S
C1851 C1852 1.389 . S
C1852 C1851 1.389 . S
C1852 C1853 1.387 . S
C1853 H1838 0.930 . S
C1853 C1848 1.390 . S
C1853 C1852 1.387 . S
H1854 C1866 0.930 . S
H1855 C1868 0.930 . S
H1856 C1869 0.930 . S
H1857 C1873 0.959 . S
H1858 C1873 0.959 . S
H1859 C1873 0.961 . S
H1860 C1874 0.960 . S
H1861 C1874 0.961 . S
H1862 C1874 0.959 . S
H1863 C1877 0.929 . S
H1864 C1878 0.931 . S
H1865 C1880 0.930 . S
C1866 H1854 0.930 . S
C1866 C1867 1.399 1_545 S
C1866 C1871 1.399 . S
C1867 C1866 1.399 1_565 S
C1867 C1868 1.376 . S
C1868 H1855 0.930 . S
C1868 C1867 1.376 . S
C1868 C1869 1.388 1_565 S
C1869 H1856 0.930 . S
C1869 C1868 1.388 1_545 S
C1869 C1870 1.390 . S
C1870 C1869 1.390 . S
C1870 C1871 1.394 . S
C1870 C1876 1.465 . S
C1871 C1866 1.399 . S
C1871 C1870 1.394 . S
C1871 C1872 1.516 . S
C1872 C1871 1.516 . S
C1872 C1873 1.502 . S
C1872 C1874 1.561 . S
C1872 C1875 1.526 . S
C1873 H1857 0.959 . S
C1873 H1858 0.959 . S
C1873 H1859 0.961 . S
C1873 C1872 1.502 . S
C1874 H1860 0.960 . S
C1874 H1861 0.961 . S
C1874 H1862 0.959 . S
C1874 C1872 1.561 . S
C1875 C1872 1.526 . S
C1875 C1876 1.396 . S
C1875 C1880 1.390 . S
C1876 C1870 1.465 . S
C1876 C1875 1.396 . S
C1876 C1877 1.399 . S
C1877 H1863 0.929 . S
C1877 C1876 1.399 . S
C1877 C1878 1.385 . S
C1878 H1864 0.931 . S
C1878 C1877 1.385 . S
C1878 C1879 1.389 . S
C1879 C1878 1.389 . S
C1879 C1880 1.387 . S
C1880 H1865 0.930 . S
C1880 C1875 1.390 . S
C1880 C1879 1.387 . S
H1881 C1893 0.930 . S
H1882 C1895 0.930 . S
H1883 C1896 0.930 . S
H1884 C1900 0.959 . S
H1885 C1900 0.959 . S
H1886 C1900 0.961 . S
H1887 C1901 0.960 . S
H1888 C1901 0.961 . S
H1889 C1901 0.959 . S
H1890 C1904 0.929 . S
H1891 C1905 0.931 . S
H1892 C1907 0.930 . S
C1893 H1881 0.930 . S
C1893 C1894 1.399 . S
C1893 C1898 1.399 . S
C1894 C1893 1.399 . S
C1894 C1895 1.376 . S
C1895 H1882 0.930 . S
C1895 C1894 1.376 . S
C1895 C1896 1.388 . S
C1896 H1883 0.930 . S
C1896 C1895 1.388 . S
C1896 C1897 1.390 . S
C1897 C1896 1.390 . S
C1897 C1898 1.394 . S
C1897 C1903 1.465 . S
C1898 C1893 1.399 . S
C1898 C1897 1.394 . S
C1898 C1899 1.516 . S
C1899 C1898 1.516 . S
C1899 C1900 1.502 . S
C1899 C1901 1.561 . S
C1899 C1902 1.526 . S
C1900 H1884 0.959 . S
C1900 H1885 0.959 . S
C1900 H1886 0.961 . S
C1900 C1899 1.502 . S
C1901 H1887 0.960 . S
C1901 H1888 0.961 . S
C1901 H1889 0.959 . S
C1901 C1899 1.561 . S
C1902 C1899 1.526 . S
C1902 C1903 1.396 . S
C1902 C1907 1.390 . S
C1903 C1897 1.465 . S
C1903 C1902 1.396 . S
C1903 C1904 1.399 . S
C1904 H1890 0.929 . S
C1904 C1903 1.399 . S
C1904 C1905 1.385 . S
C1905 H1891 0.931 . S
C1905 C1904 1.385 . S
C1905 C1906 1.389 . S
C1906 C1905 1.389 . S
C1906 C1907 1.387 . S
C1907 H1892 0.930 . S
C1907 C1902 1.390 . S
C1907 C1906 1.387 . S
H1908 C1920 0.930 . S
H1909 C1922 0.930 . S
H1910 C1923 0.930 . S
H1911 C1927 0.959 . S
H1912 C1927 0.959 . S
H1913 C1927 0.961 . S
H1914 C1928 0.960 . S
H1915 C1928 0.961 . S
H1916 C1928 0.959 . S
H1917 C1931 0.929 . S
H1918 C1932 0.931 . S
H1919 C1934 0.930 . S
C1920 H1908 0.930 . S
C1920 C1921 1.399 . S
C1920 C1925 1.399 . S
C1921 C1920 1.399 . S
C1921 C1922 1.376 . S
C1922 H1909 0.930 . S
C1922 C1921 1.376 . S
C1922 C1923 1.388 . S
C1923 H1910 0.930 . S
C1923 C1922 1.388 . S
C1923 C1924 1.390 . S
C1924 C1923 1.390 . S
C1924 C1925 1.394 . S
C1924 C1930 1.465 . S
C1925 C1920 1.399 . S
C1925 C1924 1.394 . S
C1925 C1926 1.516 . S
C1926 C1925 1.516 . S
C1926 C1927 1.502 . S
C1926 C1928 1.561 . S
C1926 C1929 1.526 . S
C1927 H1911 0.959 . S
C1927 H1912 0.959 . S
C1927 H1913 0.961 . S
C1927 C1926 1.502 . S
C1928 H1914 0.960 . S
C1928 H1915 0.961 . S
C1928 H1916 0.959 . S
C1928 C1926 1.561 . S
C1929 C1926 1.526 . S
C1929 C1930 1.396 . S
C1929 C1934 1.390 . S
C1930 C1924 1.465 . S
C1930 C1929 1.396 . S
C1930 C1931 1.399 . S
C1931 H1917 0.929 . S
C1931 C1930 1.399 . S
C1931 C1932 1.385 . S
C1932 H1918 0.931 . S
C1932 C1931 1.385 . S
C1932 C1933 1.389 . S
C1933 C1932 1.389 . S
C1933 C1934 1.387 . S
C1934 H1919 0.930 . S
C1934 C1929 1.390 . S
C1934 C1933 1.387 . S
H1935 C1947 0.930 . S
H1936 C1949 0.930 . S
H1937 C1950 0.930 . S
H1938 C1954 0.959 . S
H1939 C1954 0.959 . S
H1940 C1954 0.961 . S
H1941 C1955 0.960 . S
H1942 C1955 0.961 . S
H1943 C1955 0.959 . S
H1944 C1958 0.929 . S
H1945 C1959 0.931 . S
H1946 C1961 0.930 . S
C1947 H1935 0.930 . S
C1947 C1948 1.399 . S
C1947 C1952 1.399 . S
C1948 C1947 1.399 . S
C1948 C1949 1.376 . S
C1949 H1936 0.930 . S
C1949 C1948 1.376 . S
C1949 C1950 1.388 . S
C1950 H1937 0.930 . S
C1950 C1949 1.388 . S
C1950 C1951 1.390 . S
C1951 C1950 1.390 . S
C1951 C1952 1.394 . S
C1951 C1957 1.465 . S
C1952 C1947 1.399 . S
C1952 C1951 1.394 . S
C1952 C1953 1.516 . S
C1953 C1952 1.516 . S
C1953 C1954 1.502 . S
C1953 C1955 1.561 . S
C1953 C1956 1.526 . S
C1954 H1938 0.959 . S
C1954 H1939 0.959 . S
C1954 H1940 0.961 . S
C1954 C1953 1.502 . S
C1955 H1941 0.960 . S
C1955 H1942 0.961 . S
C1955 H1943 0.959 . S
C1955 C1953 1.561 . S
C1956 C1953 1.526 . S
C1956 C1957 1.396 . S
C1956 C1961 1.390 . S
C1957 C1951 1.465 . S
C1957 C1956 1.396 . S
C1957 C1958 1.399 . S
C1958 H1944 0.929 . S
C1958 C1957 1.399 . S
C1958 C1959 1.385 . S
C1959 H1945 0.931 . S
C1959 C1958 1.385 . S
C1959 C1960 1.389 . S
C1960 C1959 1.389 . S
C1960 C1961 1.387 . S
C1961 H1946 0.930 . S
C1961 C1956 1.390 . S
C1961 C1960 1.387 . S
H1962 C1974 0.930 . S
H1963 C1976 0.930 . S
H1964 C1977 0.930 . S
H1965 C1981 0.959 . S
H1966 C1981 0.959 . S
H1967 C1981 0.961 . S
H1968 C1982 0.960 . S
H1969 C1982 0.961 . S
H1970 C1982 0.959 . S
H1971 C1985 0.929 . S
H1972 C1986 0.931 . S
H1973 C1988 0.930 . S
C1974 H1962 0.930 . S
C1974 C1975 1.399 . S
C1974 C1979 1.399 . S
C1975 C1974 1.399 . S
C1975 C1976 1.376 . S
C1976 H1963 0.930 . S
C1976 C1975 1.376 . S
C1976 C1977 1.388 . S
C1977 H1964 0.930 . S
C1977 C1976 1.388 . S
C1977 C1978 1.390 . S
C1978 C1977 1.390 . S
C1978 C1979 1.394 . S
C1978 C1984 1.465 . S
C1979 C1974 1.399 . S
C1979 C1978 1.394 . S
C1979 C1980 1.516 . S
C1980 C1979 1.516 . S
C1980 C1981 1.502 . S
C1980 C1982 1.561 . S
C1980 C1983 1.526 . S
C1981 H1965 0.959 . S
C1981 H1966 0.959 . S
C1981 H1967 0.961 . S
C1981 C1980 1.502 . S
C1982 H1968 0.960 . S
C1982 H1969 0.961 . S
C1982 H1970 0.959 . S
C1982 C1980 1.561 . S
C1983 C1980 1.526 . S
C1983 C1984 1.396 . S
C1983 C1988 1.390 . S
C1984 C1978 1.465 . S
C1984 C1983 1.396 . S
C1984 C1985 1.399 . S
C1985 H1971 0.929 . S
C1985 C1984 1.399 . S
C1985 C1986 1.385 . S
C1986 H1972 0.931 . S
C1986 C1985 1.385 . S
C1986 C1987 1.389 . S
C1987 C1986 1.389 . S
C1987 C1988 1.387 . S
C1988 H1973 0.930 . S
C1988 C1983 1.390 . S
C1988 C1987 1.387 . S
H1989 C2001 0.930 . S
H1990 C2003 0.930 . S
H1991 C2004 0.930 . S
H1992 C2008 0.959 . S
H1993 C2008 0.959 . S
H1994 C2008 0.961 . S
H1995 C2009 0.960 . S
H1996 C2009 0.961 . S
H1997 C2009 0.959 . S
H1998 C2012 0.929 . S
H1999 C2013 0.931 . S
H2000 C2015 0.930 . S
C2001 H1989 0.930 . S
C2001 C2002 1.399 . S
C2001 C2006 1.399 . S
C2002 C2001 1.399 . S
C2002 C2003 1.376 . S
C2003 H1990 0.930 . S
C2003 C2002 1.376 . S
C2003 C2004 1.388 . S
C2004 H1991 0.930 . S
C2004 C2003 1.388 . S
C2004 C2005 1.390 . S
C2005 C2004 1.390 . S
C2005 C2006 1.394 . S
C2005 C2011 1.465 . S
C2006 C2001 1.399 . S
C2006 C2005 1.394 . S
C2006 C2007 1.516 . S
C2007 C2006 1.516 . S
C2007 C2008 1.502 . S
C2007 C2009 1.561 . S
C2007 C2010 1.526 . S
C2008 H1992 0.959 . S
C2008 H1993 0.959 . S
C2008 H1994 0.961 . S
C2008 C2007 1.502 . S
C2009 H1995 0.960 . S
C2009 H1996 0.961 . S
C2009 H1997 0.959 . S
C2009 C2007 1.561 . S
C2010 C2007 1.526 . S
C2010 C2011 1.396 . S
C2010 C2015 1.390 . S
C2011 C2005 1.465 . S
C2011 C2010 1.396 . S
C2011 C2012 1.399 . S
C2012 H1998 0.929 . S
C2012 C2011 1.399 . S
C2012 C2013 1.385 . S
C2013 H1999 0.931 . S
C2013 C2012 1.385 . S
C2013 C2014 1.389 . S
C2014 C2013 1.389 . S
C2014 C2015 1.387 . S
C2015 H2000 0.930 . S
C2015 C2010 1.390 . S
C2015 C2014 1.387 . S
H2016 C2028 0.930 . S
H2017 C2030 0.930 . S
H2018 C2031 0.930 . S
H2019 C2035 0.959 . S
H2020 C2035 0.959 . S
H2021 C2035 0.961 . S
H2022 C2036 0.960 . S
H2023 C2036 0.961 . S
H2024 C2036 0.959 . S
H2025 C2039 0.929 . S
H2026 C2040 0.931 . S
H2027 C2042 0.930 . S
C2028 H2016 0.930 . S
C2028 C2029 1.399 . S
C2028 C2033 1.399 . S
C2029 C2028 1.399 . S
C2029 C2030 1.376 . S
C2030 H2017 0.930 . S
C2030 C2029 1.376 . S
C2030 C2031 1.388 . S
C2031 H2018 0.930 . S
C2031 C2030 1.388 . S
C2031 C2032 1.390 . S
C2032 C2031 1.390 . S
C2032 C2033 1.394 . S
C2032 C2038 1.465 . S
C2033 C2028 1.399 . S
C2033 C2032 1.394 . S
C2033 C2034 1.516 . S
C2034 C2033 1.516 . S
C2034 C2035 1.502 . S
C2034 C2036 1.561 . S
C2034 C2037 1.526 . S
C2035 H2019 0.959 . S
C2035 H2020 0.959 . S
C2035 H2021 0.961 . S
C2035 C2034 1.502 . S
C2036 H2022 0.960 . S
C2036 H2023 0.961 . S
C2036 H2024 0.959 . S
C2036 C2034 1.561 . S
C2037 C2034 1.526 . S
C2037 C2038 1.396 . S
C2037 C2042 1.390 . S
C2038 C2032 1.465 . S
C2038 C2037 1.396 . S
C2038 C2039 1.399 . S
C2039 H2025 0.929 . S
C2039 C2038 1.399 . S
C2039 C2040 1.385 . S
C2040 H2026 0.931 . S
C2040 C2039 1.385 . S
C2040 C2041 1.389 . S
C2041 C2040 1.389 . S
C2041 C2042 1.387 . S
C2042 H2027 0.930 . S
C2042 C2037 1.390 . S
C2042 C2041 1.387 . S
H2043 C2055 0.930 . S
H2044 C2057 0.930 . S
H2045 C2058 0.930 . S
H2046 C2062 0.959 . S
H2047 C2062 0.959 . S
H2048 C2062 0.961 . S
H2049 C2063 0.960 . S
H2050 C2063 0.961 . S
H2051 C2063 0.959 . S
H2052 C2066 0.929 . S
H2053 C2067 0.931 . S
H2054 C2069 0.930 . S
C2055 H2043 0.930 . S
C2055 C2056 1.399 . S
C2055 C2060 1.399 . S
C2056 C2055 1.399 . S
C2056 C2057 1.376 . S
C2057 H2044 0.930 . S
C2057 C2056 1.376 . S
C2057 C2058 1.388 . S
C2058 H2045 0.930 . S
C2058 C2057 1.388 . S
C2058 C2059 1.390 . S
C2059 C2058 1.390 . S
C2059 C2060 1.394 . S
C2059 C2065 1.465 . S
C2060 C2055 1.399 . S
C2060 C2059 1.394 . S
C2060 C2061 1.516 . S
C2061 C2060 1.516 . S
C2061 C2062 1.502 . S
C2061 C2063 1.561 . S
C2061 C2064 1.526 . S
C2062 H2046 0.959 . S
C2062 H2047 0.959 . S
C2062 H2048 0.961 . S
C2062 C2061 1.502 . S
C2063 H2049 0.960 . S
C2063 H2050 0.961 . S
C2063 H2051 0.959 . S
C2063 C2061 1.561 . S
C2064 C2061 1.526 . S
C2064 C2065 1.396 . S
C2064 C2069 1.390 . S
C2065 C2059 1.465 . S
C2065 C2064 1.396 . S
C2065 C2066 1.399 . S
C2066 H2052 0.929 . S
C2066 C2065 1.399 . S
C2066 C2067 1.385 . S
C2067 H2053 0.931 . S
C2067 C2066 1.385 . S
C2067 C2068 1.389 . S
C2068 C2067 1.389 . S
C2068 C2069 1.387 . S
C2069 H2054 0.930 . S
C2069 C2064 1.390 . S
C2069 C2068 1.387 . S
H2070 C2082 0.930 . S
H2071 C2084 0.930 . S
H2072 C2085 0.930 . S
H2073 C2089 0.959 . S
H2074 C2089 0.959 . S
H2075 C2089 0.961 . S
H2076 C2090 0.960 . S
H2077 C2090 0.961 . S
H2078 C2090 0.959 . S
H2079 C2093 0.929 . S
H2080 C2094 0.931 . S
H2081 C2096 0.930 . S
C2082 H2070 0.930 . S
C2082 C2083 1.399 . S
C2082 C2087 1.399 . S
C2083 C2082 1.399 . S
C2083 C2084 1.376 . S
C2084 H2071 0.930 . S
C2084 C2083 1.376 . S
C2084 C2085 1.388 . S
C2085 H2072 0.930 . S
C2085 C2084 1.388 . S
C2085 C2086 1.390 . S
C2086 C2085 1.390 . S
C2086 C2087 1.394 . S
C2086 C2092 1.465 . S
C2087 C2082 1.399 . S
C2087 C2086 1.394 . S
C2087 C2088 1.516 . S
C2088 C2087 1.516 . S
C2088 C2089 1.502 . S
C2088 C2090 1.561 . S
C2088 C2091 1.526 . S
C2089 H2073 0.959 . S
C2089 H2074 0.959 . S
C2089 H2075 0.961 . S
C2089 C2088 1.502 . S
C2090 H2076 0.960 . S
C2090 H2077 0.961 . S
C2090 H2078 0.959 . S
C2090 C2088 1.561 . S
C2091 C2088 1.526 . S
C2091 C2092 1.396 . S
C2091 C2096 1.390 . S
C2092 C2086 1.465 . S
C2092 C2091 1.396 . S
C2092 C2093 1.399 . S
C2093 H2079 0.929 . S
C2093 C2092 1.399 . S
C2093 C2094 1.385 . S
C2094 H2080 0.931 . S
C2094 C2093 1.385 . S
C2094 C2095 1.389 . S
C2095 C2094 1.389 . S
C2095 C2096 1.387 . S
C2096 H2081 0.930 . S
C2096 C2091 1.390 . S
C2096 C2095 1.387 . S
H2097 C2109 0.930 . S
H2098 C2111 0.930 . S
H2099 C2112 0.930 . S
H2100 C2116 0.959 . S
H2101 C2116 0.959 . S
H2102 C2116 0.961 . S
H2103 C2117 0.960 . S
H2104 C2117 0.961 . S
H2105 C2117 0.959 . S
H2106 C2120 0.929 . S
H2107 C2121 0.931 . S
H2108 C2123 0.930 . S
C2109 H2097 0.930 . S
C2109 C2110 1.399 . S
C2109 C2114 1.399 . S
C2110 C2109 1.399 . S
C2110 C2111 1.376 . S
C2111 H2098 0.930 . S
C2111 C2110 1.376 . S
C2111 C2112 1.388 . S
C2112 H2099 0.930 . S
C2112 C2111 1.388 . S
C2112 C2113 1.390 . S
C2113 C2112 1.390 . S
C2113 C2114 1.394 . S
C2113 C2119 1.465 . S
C2114 C2109 1.399 . S
C2114 C2113 1.394 . S
C2114 C2115 1.516 . S
C2115 C2114 1.516 . S
C2115 C2116 1.502 . S
C2115 C2117 1.561 . S
C2115 C2118 1.526 . S
C2116 H2100 0.959 . S
C2116 H2101 0.959 . S
C2116 H2102 0.961 . S
C2116 C2115 1.502 . S
C2117 H2103 0.960 . S
C2117 H2104 0.961 . S
C2117 H2105 0.959 . S
C2117 C2115 1.561 . S
C2118 C2115 1.526 . S
C2118 C2119 1.396 . S
C2118 C2123 1.390 . S
C2119 C2113 1.465 . S
C2119 C2118 1.396 . S
C2119 C2120 1.399 . S
C2120 H2106 0.929 . S
C2120 C2119 1.399 . S
C2120 C2121 1.385 . S
C2121 H2107 0.931 . S
C2121 C2120 1.385 . S
C2121 C2122 1.389 . S
C2122 C2121 1.389 . S
C2122 C2123 1.387 . S
C2123 H2108 0.930 . S
C2123 C2118 1.390 . S
C2123 C2122 1.387 . S
H2124 C2136 0.930 . S
H2125 C2138 0.930 . S
H2126 C2139 0.930 . S
H2127 C2143 0.959 . S
H2128 C2143 0.959 . S
H2129 C2143 0.961 . S
H2130 C2144 0.960 . S
H2131 C2144 0.961 . S
H2132 C2144 0.959 . S
H2133 C2147 0.929 . S
H2134 C2148 0.931 . S
H2135 C2150 0.930 . S
C2136 H2124 0.930 . S
C2136 C2137 1.399 . S
C2136 C2141 1.399 . S
C2137 C2136 1.399 . S
C2137 C2138 1.376 . S
C2138 H2125 0.930 . S
C2138 C2137 1.376 . S
C2138 C2139 1.388 . S
C2139 H2126 0.930 . S
C2139 C2138 1.388 . S
C2139 C2140 1.390 . S
C2140 C2139 1.390 . S
C2140 C2141 1.394 . S
C2140 C2146 1.465 . S
C2141 C2136 1.399 . S
C2141 C2140 1.394 . S
C2141 C2142 1.516 . S
C2142 C2141 1.516 . S
C2142 C2143 1.502 . S
C2142 C2144 1.561 . S
C2142 C2145 1.526 . S
C2143 H2127 0.959 . S
C2143 H2128 0.959 . S
C2143 H2129 0.961 . S
C2143 C2142 1.502 . S
C2144 H2130 0.960 . S
C2144 H2131 0.961 . S
C2144 H2132 0.959 . S
C2144 C2142 1.561 . S
C2145 C2142 1.526 . S
C2145 C2146 1.396 . S
C2145 C2150 1.390 . S
C2146 C2140 1.465 . S
C2146 C2145 1.396 . S
C2146 C2147 1.399 . S
C2147 H2133 0.929 . S
C2147 C2146 1.399 . S
C2147 C2148 1.385 . S
C2148 H2134 0.931 . S
C2148 C2147 1.385 . S
C2148 C2149 1.389 . S
C2149 C2148 1.389 . S
C2149 C2150 1.387 . S
C2150 H2135 0.930 . S
C2150 C2145 1.390 . S
C2150 C2149 1.387 . S
H2151 C2163 0.930 . S
H2152 C2165 0.930 . S
H2153 C2166 0.930 . S
H2154 C2170 0.959 . S
H2155 C2170 0.959 . S
H2156 C2170 0.961 . S
H2157 C2171 0.960 . S
H2158 C2171 0.961 . S
H2159 C2171 0.959 . S
H2160 C2174 0.929 . S
H2161 C2175 0.931 . S
H2162 C2177 0.930 . S
C2163 H2151 0.930 . S
C2163 C2164 1.399 . S
C2163 C2168 1.399 . S
C2164 C2163 1.399 . S
C2164 C2165 1.376 . S
C2165 H2152 0.930 . S
C2165 C2164 1.376 . S
C2165 C2166 1.388 . S
C2166 H2153 0.930 . S
C2166 C2165 1.388 . S
C2166 C2167 1.390 . S
C2167 C2166 1.390 . S
C2167 C2168 1.394 . S
C2167 C2173 1.465 . S
C2168 C2163 1.399 . S
C2168 C2167 1.394 . S
C2168 C2169 1.516 . S
C2169 C2168 1.516 . S
C2169 C2170 1.502 . S
C2169 C2171 1.561 . S
C2169 C2172 1.526 . S
C2170 H2154 0.959 . S
C2170 H2155 0.959 . S
C2170 H2156 0.961 . S
C2170 C2169 1.502 . S
C2171 H2157 0.960 . S
C2171 H2158 0.961 . S
C2171 H2159 0.959 . S
C2171 C2169 1.561 . S
C2172 C2169 1.526 . S
C2172 C2173 1.396 . S
C2172 C2177 1.390 . S
C2173 C2167 1.465 . S
C2173 C2172 1.396 . S
C2173 C2174 1.399 . S
C2174 H2160 0.929 . S
C2174 C2173 1.399 . S
C2174 C2175 1.385 . S
C2175 H2161 0.931 . S
C2175 C2174 1.385 . S
C2175 C2176 1.389 . S
C2176 C2175 1.389 . S
C2176 C2177 1.387 . S
C2177 H2162 0.930 . S
C2177 C2172 1.390 . S
C2177 C2176 1.387 . S
H2178 C2190 0.930 . S
H2179 C2192 0.930 . S
H2180 C2193 0.930 . S
H2181 C2197 0.959 . S
H2182 C2197 0.959 . S
H2183 C2197 0.961 . S
H2184 C2198 0.960 . S
H2185 C2198 0.961 . S
H2186 C2198 0.959 . S
H2187 C2201 0.929 . S
H2188 C2202 0.931 . S
H2189 C2204 0.930 . S
C2190 H2178 0.930 . S
C2190 C2191 1.399 . S
C2190 C2195 1.399 . S
C2191 C2190 1.399 . S
C2191 C2192 1.376 . S
C2192 H2179 0.930 . S
C2192 C2191 1.376 . S
C2192 C2193 1.388 . S
C2193 H2180 0.930 . S
C2193 C2192 1.388 . S
C2193 C2194 1.390 . S
C2194 C2193 1.390 . S
C2194 C2195 1.394 . S
C2194 C2200 1.465 . S
C2195 C2190 1.399 . S
C2195 C2194 1.394 . S
C2195 C2196 1.516 . S
C2196 C2195 1.516 . S
C2196 C2197 1.502 . S
C2196 C2198 1.561 . S
C2196 C2199 1.526 . S
C2197 H2181 0.959 . S
C2197 H2182 0.959 . S
C2197 H2183 0.961 . S
C2197 C2196 1.502 . S
C2198 H2184 0.960 . S
C2198 H2185 0.961 . S
C2198 H2186 0.959 . S
C2198 C2196 1.561 . S
C2199 C2196 1.526 . S
C2199 C2200 1.396 . S
C2199 C2204 1.390 . S
C2200 C2194 1.465 . S
C2200 C2199 1.396 . S
C2200 C2201 1.399 . S
C2201 H2187 0.929 . S
C2201 C2200 1.399 . S
C2201 C2202 1.385 . S
C2202 H2188 0.931 . S
C2202 C2201 1.385 . S
C2202 C2203 1.389 . S
C2203 C2202 1.389 . S
C2203 C2204 1.387 . S
C2204 H2189 0.930 . S
C2204 C2199 1.390 . S
C2204 C2203 1.387 . S
H2205 C2217 0.930 . S
H2206 C2219 0.930 . S
H2207 C2220 0.930 . S
H2208 C2224 0.959 . S
H2209 C2224 0.959 . S
H2210 C2224 0.961 . S
H2211 C2225 0.960 . S
H2212 C2225 0.961 . S
H2213 C2225 0.959 . S
H2214 C2228 0.929 . S
H2215 C2229 0.931 . S
H2216 C2231 0.930 . S
C2217 H2205 0.930 . S
C2217 C2218 1.399 . S
C2217 C2222 1.399 . S
C2218 C2217 1.399 . S
C2218 C2219 1.376 . S
C2219 H2206 0.930 . S
C2219 C2218 1.376 . S
C2219 C2220 1.388 . S
C2220 H2207 0.930 . S
C2220 C2219 1.388 . S
C2220 C2221 1.390 . S
C2221 C2220 1.390 . S
C2221 C2222 1.394 . S
C2221 C2227 1.465 . S
C2222 C2217 1.399 . S
C2222 C2221 1.394 . S
C2222 C2223 1.516 . S
C2223 C2222 1.516 . S
C2223 C2224 1.502 . S
C2223 C2225 1.561 . S
C2223 C2226 1.526 . S
C2224 H2208 0.959 . S
C2224 H2209 0.959 . S
C2224 H2210 0.961 . S
C2224 C2223 1.502 . S
C2225 H2211 0.960 . S
C2225 H2212 0.961 . S
C2225 H2213 0.959 . S
C2225 C2223 1.561 . S
C2226 C2223 1.526 . S
C2226 C2227 1.396 . S
C2226 C2231 1.390 . S
C2227 C2221 1.465 . S
C2227 C2226 1.396 . S
C2227 C2228 1.399 . S
C2228 H2214 0.929 . S
C2228 C2227 1.399 . S
C2228 C2229 1.385 . S
C2229 H2215 0.931 . S
C2229 C2228 1.385 . S
C2229 C2230 1.389 . S
C2230 C2229 1.389 . S
C2230 C2231 1.387 . S
C2231 H2216 0.930 . S
C2231 C2226 1.390 . S
C2231 C2230 1.387 . S
H2232 C2244 0.930 . S
H2233 C2246 0.930 . S
H2234 C2247 0.930 . S
H2235 C2251 0.959 . S
H2236 C2251 0.959 . S
H2237 C2251 0.961 . S
H2238 C2252 0.960 . S
H2239 C2252 0.961 . S
H2240 C2252 0.959 . S
H2241 C2255 0.929 . S
H2242 C2256 0.931 . S
H2243 C2258 0.930 . S
C2244 H2232 0.930 . S
C2244 C2245 1.399 . S
C2244 C2249 1.399 . S
C2245 C2244 1.399 . S
C2245 C2246 1.376 . S
C2246 H2233 0.930 . S
C2246 C2245 1.376 . S
C2246 C2247 1.388 . S
C2247 H2234 0.930 . S
C2247 C2246 1.388 . S
C2247 C2248 1.390 . S
C2248 C2247 1.390 . S
C2248 C2249 1.394 . S
C2248 C2254 1.465 . S
C2249 C2244 1.399 . S
C2249 C2248 1.394 . S
C2249 C2250 1.516 . S
C2250 C2249 1.516 . S
C2250 C2251 1.502 . S
C2250 C2252 1.561 . S
C2250 C2253 1.526 . S
C2251 H2235 0.959 . S
C2251 H2236 0.959 . S
C2251 H2237 0.961 . S
C2251 C2250 1.502 . S
C2252 H2238 0.960 . S
C2252 H2239 0.961 . S
C2252 H2240 0.959 . S
C2252 C2250 1.561 . S
C2253 C2250 1.526 . S
C2253 C2254 1.396 . S
C2253 C2258 1.390 . S
C2254 C2248 1.465 . S
C2254 C2253 1.396 . S
C2254 C2255 1.399 . S
C2255 H2241 0.929 . S
C2255 C2254 1.399 . S
C2255 C2256 1.385 . S
C2256 H2242 0.931 . S
C2256 C2255 1.385 . S
C2256 C2257 1.389 . S
C2257 C2256 1.389 . S
C2257 C2258 1.387 . S
C2258 H2243 0.930 . S
C2258 C2253 1.390 . S
C2258 C2257 1.387 . S
H2259 C2271 0.930 . S
H2260 C2273 0.930 . S
H2261 C2274 0.930 . S
H2262 C2278 0.959 . S
H2263 C2278 0.959 . S
H2264 C2278 0.961 . S
H2265 C2279 0.960 . S
H2266 C2279 0.961 . S
H2267 C2279 0.959 . S
H2268 C2282 0.929 . S
H2269 C2283 0.931 . S
H2270 C2285 0.930 . S
C2271 H2259 0.930 . S
C2271 C2272 1.399 . S
C2271 C2276 1.399 . S
C2272 C2271 1.399 . S
C2272 C2273 1.376 . S
C2273 H2260 0.930 . S
C2273 C2272 1.376 . S
C2273 C2274 1.388 . S
C2274 H2261 0.930 . S
C2274 C2273 1.388 . S
C2274 C2275 1.390 . S
C2275 C2274 1.390 . S
C2275 C2276 1.394 . S
C2275 C2281 1.465 . S
C2276 C2271 1.399 . S
C2276 C2275 1.394 . S
C2276 C2277 1.516 . S
C2277 C2276 1.516 . S
C2277 C2278 1.502 . S
C2277 C2279 1.561 . S
C2277 C2280 1.526 . S
C2278 H2262 0.959 . S
C2278 H2263 0.959 . S
C2278 H2264 0.961 . S
C2278 C2277 1.502 . S
C2279 H2265 0.960 . S
C2279 H2266 0.961 . S
C2279 H2267 0.959 . S
C2279 C2277 1.561 . S
C2280 C2277 1.526 . S
C2280 C2281 1.396 . S
C2280 C2285 1.390 . S
C2281 C2275 1.465 . S
C2281 C2280 1.396 . S
C2281 C2282 1.399 . S
C2282 H2268 0.929 . S
C2282 C2281 1.399 . S
C2282 C2283 1.385 . S
C2283 H2269 0.931 . S
C2283 C2282 1.385 . S
C2283 C2284 1.389 . S
C2284 C2283 1.389 . S
C2284 C2285 1.387 . S
C2285 H2270 0.930 . S
C2285 C2280 1.390 . S
C2285 C2284 1.387 . S
H2286 C2298 0.930 . S
H2287 C2300 0.930 . S
H2288 C2301 0.930 . S
H2289 C2305 0.959 . S
H2290 C2305 0.959 . S
H2291 C2305 0.961 . S
H2292 C2306 0.960 . S
H2293 C2306 0.961 . S
H2294 C2306 0.959 . S
H2295 C2309 0.929 . S
H2296 C2310 0.931 . S
H2297 C2312 0.930 . S
C2298 H2286 0.930 . S
C2298 C2299 1.399 . S
C2298 C2303 1.399 . S
C2299 C2298 1.399 . S
C2299 C2300 1.376 . S
C2300 H2287 0.930 . S
C2300 C2299 1.376 . S
C2300 C2301 1.388 . S
C2301 H2288 0.930 . S
C2301 C2300 1.388 . S
C2301 C2302 1.390 . S
C2302 C2301 1.390 . S
C2302 C2303 1.394 . S
C2302 C2308 1.465 . S
C2303 C2298 1.399 . S
C2303 C2302 1.394 . S
C2303 C2304 1.516 . S
C2304 C2303 1.516 . S
C2304 C2305 1.502 . S
C2304 C2306 1.561 . S
C2304 C2307 1.526 . S
C2305 H2289 0.959 . S
C2305 H2290 0.959 . S
C2305 H2291 0.961 . S
C2305 C2304 1.502 . S
C2306 H2292 0.960 . S
C2306 H2293 0.961 . S
C2306 H2294 0.959 . S
C2306 C2304 1.561 . S
C2307 C2304 1.526 . S
C2307 C2308 1.396 . S
C2307 C2312 1.390 . S
C2308 C2302 1.465 . S
C2308 C2307 1.396 . S
C2308 C2309 1.399 . S
C2309 H2295 0.929 . S
C2309 C2308 1.399 . S
C2309 C2310 1.385 . S
C2310 H2296 0.931 . S
C2310 C2309 1.385 . S
C2310 C2311 1.389 . S
C2311 C2310 1.389 . S
C2311 C2312 1.387 . S
C2312 H2297 0.930 . S
C2312 C2307 1.390 . S
C2312 C2311 1.387 . S
H2313 C2325 0.930 . S
H2314 C2327 0.930 . S
H2315 C2328 0.930 . S
H2316 C2332 0.959 . S
H2317 C2332 0.959 . S
H2318 C2332 0.961 . S
H2319 C2333 0.960 . S
H2320 C2333 0.961 . S
H2321 C2333 0.959 . S
H2322 C2336 0.929 . S
H2323 C2337 0.931 . S
H2324 C2339 0.930 . S
C2325 H2313 0.930 . S
C2325 C2326 1.399 . S
C2325 C2330 1.399 . S
C2326 C2325 1.399 . S
C2326 C2327 1.376 . S
C2327 H2314 0.930 . S
C2327 C2326 1.376 . S
C2327 C2328 1.388 . S
C2328 H2315 0.930 . S
C2328 C2327 1.388 . S
C2328 C2329 1.390 . S
C2329 C2328 1.390 . S
C2329 C2330 1.394 . S
C2329 C2335 1.465 . S
C2330 C2325 1.399 . S
C2330 C2329 1.394 . S
C2330 C2331 1.516 . S
C2331 C2330 1.516 . S
C2331 C2332 1.502 . S
C2331 C2333 1.561 . S
C2331 C2334 1.526 . S
C2332 H2316 0.959 . S
C2332 H2317 0.959 . S
C2332 H2318 0.961 . S
C2332 C2331 1.502 . S
C2333 H2319 0.960 . S
C2333 H2320 0.961 . S
C2333 H2321 0.959 . S
C2333 C2331 1.561 . S
C2334 C2331 1.526 . S
C2334 C2335 1.396 . S
C2334 C2339 1.390 . S
C2335 C2329 1.465 . S
C2335 C2334 1.396 . S
C2335 C2336 1.399 . S
C2336 H2322 0.929 . S
C2336 C2335 1.399 . S
C2336 C2337 1.385 . S
C2337 H2323 0.931 . S
C2337 C2336 1.385 . S
C2337 C2338 1.389 . S
C2338 C2337 1.389 . S
C2338 C2339 1.387 . S
C2339 H2324 0.930 . S
C2339 C2334 1.390 . S
C2339 C2338 1.387 . S
H2340 C2352 0.930 . S
H2341 C2354 0.930 . S
H2342 C2355 0.930 . S
H2343 C2359 0.959 . S
H2344 C2359 0.959 . S
H2345 C2359 0.961 . S
H2346 C2360 0.960 . S
H2347 C2360 0.961 . S
H2348 C2360 0.959 . S
H2349 C2363 0.929 . S
H2350 C2364 0.931 . S
H2351 C2366 0.930 . S
C2352 H2340 0.930 . S
C2352 C2353 1.399 . S
C2352 C2357 1.399 . S
C2353 C2352 1.399 . S
C2353 C2354 1.376 . S
C2354 H2341 0.930 . S
C2354 C2353 1.376 . S
C2354 C2355 1.388 . S
C2355 H2342 0.930 . S
C2355 C2354 1.388 . S
C2355 C2356 1.390 . S
C2356 C2355 1.390 . S
C2356 C2357 1.394 . S
C2356 C2362 1.465 . S
C2357 C2352 1.399 . S
C2357 C2356 1.394 . S
C2357 C2358 1.516 . S
C2358 C2357 1.516 . S
C2358 C2359 1.502 . S
C2358 C2360 1.561 . S
C2358 C2361 1.526 . S
C2359 H2343 0.959 . S
C2359 H2344 0.959 . S
C2359 H2345 0.961 . S
C2359 C2358 1.502 . S
C2360 H2346 0.960 . S
C2360 H2347 0.961 . S
C2360 H2348 0.959 . S
C2360 C2358 1.561 . S
C2361 C2358 1.526 . S
C2361 C2362 1.396 . S
C2361 C2366 1.390 . S
C2362 C2356 1.465 . S
C2362 C2361 1.396 . S
C2362 C2363 1.399 . S
C2363 H2349 0.929 . S
C2363 C2362 1.399 . S
C2363 C2364 1.385 . S
C2364 H2350 0.931 . S
C2364 C2363 1.385 . S
C2364 C2365 1.389 . S
C2365 C2364 1.389 . S
C2365 C2366 1.387 . S
C2366 H2351 0.930 . S
C2366 C2361 1.390 . S
C2366 C2365 1.387 . S
H2367 C2379 0.930 . S
H2368 C2381 0.930 . S
H2369 C2382 0.930 . S
H2370 C2386 0.959 . S
H2371 C2386 0.959 . S
H2372 C2386 0.961 . S
H2373 C2387 0.960 . S
H2374 C2387 0.961 . S
H2375 C2387 0.959 . S
H2376 C2390 0.929 . S
H2377 C2391 0.931 . S
H2378 C2393 0.930 . S
C2379 H2367 0.930 . S
C2379 C2380 1.399 . S
C2379 C2384 1.399 . S
C2380 C2379 1.399 . S
C2380 C2381 1.376 . S
C2381 H2368 0.930 . S
C2381 C2380 1.376 . S
C2381 C2382 1.388 . S
C2382 H2369 0.930 . S
C2382 C2381 1.388 . S
C2382 C2383 1.390 . S
C2383 C2382 1.390 . S
C2383 C2384 1.394 . S
C2383 C2389 1.465 . S
C2384 C2379 1.399 . S
C2384 C2383 1.394 . S
C2384 C2385 1.516 . S
C2385 C2384 1.516 . S
C2385 C2386 1.502 . S
C2385 C2387 1.561 . S
C2385 C2388 1.526 . S
C2386 H2370 0.959 . S
C2386 H2371 0.959 . S
C2386 H2372 0.961 . S
C2386 C2385 1.502 . S
C2387 H2373 0.960 . S
C2387 H2374 0.961 . S
C2387 H2375 0.959 . S
C2387 C2385 1.561 . S
C2388 C2385 1.526 . S
C2388 C2389 1.396 . S
C2388 C2393 1.390 . S
C2389 C2383 1.465 . S
C2389 C2388 1.396 . S
C2389 C2390 1.399 . S
C2390 H2376 0.929 . S
C2390 C2389 1.399 . S
C2390 C2391 1.385 . S
C2391 H2377 0.931 . S
C2391 C2390 1.385 . S
C2391 C2392 1.389 . S
C2392 C2391 1.389 . S
C2392 C2393 1.387 . S
C2393 H2378 0.930 . S
C2393 C2388 1.390 . S
C2393 C2392 1.387 . S
H2394 C2406 0.930 . S
H2395 C2408 0.930 . S
H2396 C2409 0.930 . S
H2397 C2413 0.959 . S
H2398 C2413 0.959 . S
H2399 C2413 0.961 . S
H2400 C2414 0.960 . S
H2401 C2414 0.961 . S
H2402 C2414 0.959 . S
H2403 C2417 0.929 . S
H2404 C2418 0.931 . S
H2405 C2420 0.930 . S
C2406 H2394 0.930 . S
C2406 C2407 1.399 . S
C2406 C2411 1.399 . S
C2407 C2406 1.399 . S
C2407 C2408 1.376 . S
C2408 H2395 0.930 . S
C2408 C2407 1.376 . S
C2408 C2409 1.388 . S
C2409 H2396 0.930 . S
C2409 C2408 1.388 . S
C2409 C2410 1.390 . S
C2410 C2409 1.390 . S
C2410 C2411 1.394 . S
C2410 C2416 1.465 . S
C2411 C2406 1.399 . S
C2411 C2410 1.394 . S
C2411 C2412 1.516 . S
C2412 C2411 1.516 . S
C2412 C2413 1.502 . S
C2412 C2414 1.561 . S
C2412 C2415 1.526 . S
C2413 H2397 0.959 . S
C2413 H2398 0.959 . S
C2413 H2399 0.961 . S
C2413 C2412 1.502 . S
C2414 H2400 0.960 . S
C2414 H2401 0.961 . S
C2414 H2402 0.959 . S
C2414 C2412 1.561 . S
C2415 C2412 1.526 . S
C2415 C2416 1.396 . S
C2415 C2420 1.390 . S
C2416 C2410 1.465 . S
C2416 C2415 1.396 . S
C2416 C2417 1.399 . S
C2417 H2403 0.929 . S
C2417 C2416 1.399 . S
C2417 C2418 1.385 . S
C2418 H2404 0.931 . S
C2418 C2417 1.385 . S
C2418 C2419 1.389 . S
C2419 C2418 1.389 . S
C2419 C2420 1.387 . S
C2420 H2405 0.930 . S
C2420 C2415 1.390 . S
C2420 C2419 1.387 . S
H2421 C2433 0.930 . S
H2422 C2435 0.930 . S
H2423 C2436 0.930 . S
H2424 C2440 0.959 . S
H2425 C2440 0.959 . S
H2426 C2440 0.961 . S
H2427 C2441 0.960 . S
H2428 C2441 0.961 . S
H2429 C2441 0.959 . S
H2430 C2444 0.929 . S
H2431 C2445 0.931 . S
H2432 C2447 0.930 . S
C2433 H2421 0.930 . S
C2433 C2434 1.399 . S
C2433 C2438 1.399 . S
C2434 C2433 1.399 . S
C2434 C2435 1.376 . S
C2435 H2422 0.930 . S
C2435 C2434 1.376 . S
C2435 C2436 1.388 . S
C2436 H2423 0.930 . S
C2436 C2435 1.388 . S
C2436 C2437 1.390 . S
C2437 C2436 1.390 . S
C2437 C2438 1.394 . S
C2437 C2443 1.465 . S
C2438 C2433 1.399 . S
C2438 C2437 1.394 . S
C2438 C2439 1.516 . S
C2439 C2438 1.516 . S
C2439 C2440 1.502 . S
C2439 C2441 1.561 . S
C2439 C2442 1.526 . S
C2440 H2424 0.959 . S
C2440 H2425 0.959 . S
C2440 H2426 0.961 . S
C2440 C2439 1.502 . S
C2441 H2427 0.960 . S
C2441 H2428 0.961 . S
C2441 H2429 0.959 . S
C2441 C2439 1.561 . S
C2442 C2439 1.526 . S
C2442 C2443 1.396 . S
C2442 C2447 1.390 . S
C2443 C2437 1.465 . S
C2443 C2442 1.396 . S
C2443 C2444 1.399 . S
C2444 H2430 0.929 . S
C2444 C2443 1.399 . S
C2444 C2445 1.385 . S
C2445 H2431 0.931 . S
C2445 C2444 1.385 . S
C2445 C2446 1.389 . S
C2446 C2445 1.389 . S
C2446 C2447 1.387 . S
C2447 H2432 0.930 . S
C2447 C2442 1.390 . S
C2447 C2446 1.387 . S
C1003 C177 1.456 . S
C1015 C290 1.417 . S
C1030 C190 1.470 . S
C1042 C374 1.403 . S
C1057 C164 1.456 . S
C1069 C468 1.434 . S
C1084 C151 1.414 . S
C1096 C384 1.416 1_556 S
C1123 C458 1.362 . S
C1111 C125 1.432 . S
C1138 C138 1.414 . S
C1150 C300 1.402 1_556 S
C1177 C301 1.394 . S
C1165 C147 1.412 . S
C1204 C385 1.451 . S
C1192 C121 1.434 . S
C1219 C134 1.482 . S
C1231 C477 1.457 1_556 S
C1246 C173 1.432 . S
C1258 C393 1.479 . S
C1273 C186 1.424 . S
C1285 C469 1.397 . S
C1312 C309 1.456 . S
C1300 C160 1.410 . S
C1339 C542 1.429 . S
C1327 C21 1.458 . S
C1354 C34 1.468 . S
C1366 C626 1.411 . S
C1381 C8 1.454 . S
C1393 C720 1.440 . S
C1408 C229 1.429 . S
C1420 C636 1.437 . S
C1435 C203 1.434 . S
C1447 C710 1.370 . S
C1462 C216 1.406 . S
C1474 C552 1.414 . S
C1489 C225 1.436 . S
C1501 C553 1.412 . S
C1516 C199 1.493 . S
C1528 C637 1.476 . S
C1555 C729 1.512 . S
C1543 C212 1.483 . S
C1570 C17 1.424 . S
C1582 C645 1.474 . S
C1609 C721 1.405 . S
C1597 C30 1.392 . S
C1624 C4 1.387 . S
C1636 C561 1.389 . S
C1663 C794 1.351 . S
C1651 C99 1.436 . S
C1678 C112 1.471 . S
C1690 C878 1.420 . S
C1717 C972 1.436 . S
C1705 C86 1.455 . S
C1744 C888 1.421 . S
C1732 C73 1.439 . S
C1771 C962 1.388 . S
C1759 C47 1.434 . S
C1786 C60 1.418 . S
C1798 C804 1.387 . S
C1813 C69 1.470 . S
C1825 C805 1.475 . S
C1840 C43 1.439 . S
C1852 C889 1.458 . S
C1879 C981 1.441 . S
C1867 C56 1.458 . S
C1894 C95 1.467 . S
C1906 C897 1.447 . S
C1921 C108 1.460 . S
C1933 C973 1.444 . S
C1948 C82 1.430 . S
C1960 C813 1.465 . S
C1975 C204 1.540 . S
C1987 C297 1.378 . S
C2014 C381 1.483 . S
C2002 C217 1.627 . S
C2029 C230 1.555 . S
C2041 C474 1.444 . S
C2056 C87 1.574 . S
C2068 C390 1.454 . S
C2083 C100 1.586 . S
C2095 C465 1.434 . S
C2122 C306 1.394 . S
C2110 C113 1.542 . S
C2137 C48 1.535 . S
C2149 C549 1.383 . S
C2164 C61 1.627 . S
C2176 C633 1.496 . S
C2191 C74 1.572 . S
C2203 C726 1.325 . S
C2218 C165 1.574 . S
C2230 C642 1.454 . S
C2257 C717 1.438 . S
C2245 C178 1.587 . S
C2272 C191 1.524 . S
C2284 C558 1.424 . S
C2299 C126 1.559 . S
C2311 C801 1.486 . S
C2326 C139 1.590 . S
C2338 C885 1.455 . S
C2365 C978 1.440 . S
C2353 C152 1.550 . S
C2380 C9 1.576 . S
C2392 C894 1.455 . S
C2407 C22 1.553 . S
C2419 C969 1.413 . S
C2434 C35 1.508 . S
C2446 C810 1.384 . S
