# Generated by pormake.
# Topology pth, (4,4)-cn, num edge types: 1
# Building blocks:
#     Node 0, Type 0, BuildingBlock: UXUYUI_clean_sbu_0, # of connection points: 4
#     Node 1, Type 0, BuildingBlock: UXUYUI_clean_sbu_0, # of connection points: 4
#     Node 2, Type 0, BuildingBlock: UXUYUI_clean_sbu_0, # of connection points: 4
#     Node 3, Type 1, BuildingBlock: NAHDIM_clean_linker_0, # of connection points: 4
#     Node 4, Type 1, BuildingBlock: NAHDIM_clean_linker_0, # of connection points: 4
#     Node 5, Type 1, BuildingBlock: NAHDIM_clean_linker_0, # of connection points: 4
#     Edge 6, Type (0, 1), BuildingBlock: XIVTED_clean_linker_0, # of connection points: 2
#     Edge 7, Type (0, 1), BuildingBlock: XIVTED_clean_linker_0, # of connection points: 2
#     Edge 8, Type (0, 1), BuildingBlock: XIVTED_clean_linker_0, # of connection points: 2
#     Edge 9, Type (0, 1), BuildingBlock: XIVTED_clean_linker_0, # of connection points: 2
#     Edge 10, Type (0, 1), BuildingBlock: XIVTED_clean_linker_0, # of connection points: 2
#     Edge 11, Type (0, 1), BuildingBlock: XIVTED_clean_linker_0, # of connection points: 2
#     Edge 12, Type (0, 1), BuildingBlock: XIVTED_clean_linker_0, # of connection points: 2
#     Edge 13, Type (0, 1), BuildingBlock: XIVTED_clean_linker_0, # of connection points: 2
#     Edge 14, Type (0, 1), BuildingBlock: XIVTED_clean_linker_0, # of connection points: 2
#     Edge 15, Type (0, 1), BuildingBlock: XIVTED_clean_linker_0, # of connection points: 2
#     Edge 16, Type (0, 1), BuildingBlock: XIVTED_clean_linker_0, # of connection points: 2
#     Edge 17, Type (0, 1), BuildingBlock: XIVTED_clean_linker_0, # of connection points: 2
# Relax obj value: 0.093
# Max RMSD: 0.220
# Mean RMSD: 0.135
data_MOF--net-pth--node1-UXUYUI_clean_sbu_0--node2-NAHDIM_clean_linker_0--edge1-XIVTED_clean_linker_0
_symmetry_space_group_name_H-M    P1
_symmetry_Int_Tables_number       1
_symmetry_cell_setting            triclinic
loop_
_symmetry_equiv_pos_as_xyz
'x, y, z'
_cell_length_a     36.975261
_cell_length_b     36.954318
_cell_length_c     94.153101
_cell_angle_alpha  89.829146
_cell_angle_beta   90.185082
_cell_angle_gamma 120.01589
loop_
_atom_site_label
_atom_site_type_symbol
_atom_site_fract_x
_atom_site_fract_y
_atom_site_fract_z
_atom_type_partial_charge
Li0 Li 0.05293 0.07637 0.05201 0.0
Li1 Li 0.00514 0.07413 0.07073 0.0
Li2 Li 0.02594 0.01894 0.06931 0.0
Li3 Li 0.97711 0.01923 0.05229 0.0
C4 C 0.10098 0.10693 0.07721 0.0
N5 N 0.18179 0.16275 0.08563 0.0
C6 C 0.10998 0.14395 0.08413 0.0
C7 C 0.13302 0.0981 0.07473 0.0
C8 C 0.15105 0.17183 0.08826 0.0
C9 C 0.17368 0.12676 0.07902 0.0
C10 C 0.9868 0.10565 0.04524 0.0
C11 C 0.92979 0.11865 0.04129 0.0
N12 N 0.95705 0.15682 0.0358 0.0
C13 C 0.01418 0.14483 0.03941 0.0
C14 C 0.94419 0.09228 0.04607 0.0
C15 C 0.99857 0.17031 0.03476 0.0
C16 C 0.0998 0.1035 0.02668 0.0
N17 N 0.09717 0.1148 0.04019 0.0
C18 C 0.15061 0.18511 0.03565 0.0
C19 C 0.12209 0.15458 0.04482 0.0
C20 C 0.15289 0.17494 0.02144 0.0
C21 C 0.1277 0.13322 0.01707 0.0
H22 H 0.07891 0.07184 0.02319 0.0
H23 H 0.11838 0.16325 0.05541 0.0
C24 C 0.9869 0.09752 0.09699 0.0
N25 N 0.99757 0.10998 0.0833 0.0
C26 C 0.98848 0.12572 0.10718 0.0
C27 C 0.01034 0.17842 0.08884 0.0
C28 C 0.00859 0.14934 0.07906 0.0
C29 C 0.00143 0.16716 0.10321 0.0
H30 H 0.97917 0.06628 0.10013 0.0
H31 H 0.01829 0.159 0.06826 0.0
C32 C 0.04695 0.99264 0.04547 0.0
N33 N 0.08508 0.94608 0.04012 0.0
C34 C 0.02281 0.94972 0.04293 0.0
C35 C 0.09047 0.01201 0.04498 0.0
C36 C 0.04266 0.92668 0.04034 0.0
C37 C 0.10918 0.98791 0.04234 0.0
C38 C 0.92832 0.99211 0.07643 0.0
C39 C 0.90745 0.94959 0.07986 0.0
C40 C 0.90646 0.01389 0.07648 0.0
C41 C 0.86479 0.92934 0.08293 0.0
C42 C 0.86384 0.99257 0.07962 0.0
N43 N 0.84404 0.95106 0.08273 0.0
C44 C 0.06604 0.99464 0.09031 0.0
C45 C 0.00832 0.94017 0.07817 0.0
C46 C 0.06905 0.96566 0.09907 0.0
N47 N 0.03583 0.98142 0.08017 0.0
C48 C 0.01002 0.91019 0.08671 0.0
C49 C 0.04029 0.92277 0.09749 0.0
H50 H 0.08692 0.02765 0.09193 0.0
H51 H 0.98404 0.93063 0.07025 0.0
C52 C 0.9199 0.99646 0.02906 0.0
N53 N 0.93139 0.98258 0.04065 0.0
C54 C 0.89025 0.96795 0.01957 0.0
C55 C 0.88476 0.91158 0.0342 0.0
C56 C 0.91413 0.94113 0.04345 0.0
C57 C 0.87298 0.92477 0.02189 0.0
H58 H 0.93494 0.02955 0.02684 0.0
H59 H 0.92481 0.93096 0.0525 0.0
O60 O 0.06095 0.07944 0.07301 0.0
O61 O 0.00165 0.08033 0.04983 0.0
O62 O 0.02808 0.01569 0.04815 0.0
O63 O 0.97008 0.01242 0.07334 0.0
H64 H 0.0856 0.15122 0.08623 0.0
H65 H 0.12653 0.06928 0.06966 0.0
H66 H 0.15847 0.20068 0.09355 0.0
H67 H 0.19877 0.12033 0.07715 0.0
H68 H 0.89689 0.10869 0.04189 0.0
H69 H 0.04717 0.15558 0.03856 0.0
H70 H 0.92236 0.06164 0.05016 0.0
H71 H 0.01946 0.2008 0.0303 0.0
H72 H 0.16968 0.21671 0.03955 0.0
H73 H 0.12789 0.12402 0.00618 0.0
H74 H 0.98191 0.11578 0.11815 0.0
H75 H 0.02006 0.20985 0.08526 0.0
H76 H 0.98909 0.93428 0.04304 0.0
H77 H 0.10963 0.04533 0.04653 0.0
H78 H 0.02434 0.89338 0.03849 0.0
H79 H 0.14285 0.0025 0.04201 0.0
H80 H 0.92393 0.93231 0.08009 0.0
H81 H 0.92223 0.04697 0.0742 0.0
H82 H 0.84821 0.89637 0.08549 0.0
H83 H 0.84654 0.00905 0.07963 0.0
H84 H 0.09305 0.9768 0.10718 0.0
H85 H 0.98658 0.87766 0.08526 0.0
H86 H 0.88194 0.97965 0.0103 0.0
H87 H 0.87326 0.8788 0.03633 0.0
Li88 Li 0.01427 0.01558 0.38358 0.0
Li89 Li 0.06583 0.0639 0.39924 0.0
Li90 Li 0.99403 0.05103 0.40059 0.0
Li91 Li 0.03929 0.08773 0.3801 0.0
C92 C 0.0192 0.98024 0.40963 0.0
N93 N 0.02839 0.91507 0.41974 0.0
C94 C 0.04892 0.97211 0.40363 0.0
C95 C 0.99405 0.95519 0.42072 0.0
C96 C 0.05317 0.93907 0.40893 0.0
C97 C 0.99915 0.92236 0.42568 0.0
C98 C 0.11145 0.08693 0.37439 0.0
C99 C 0.17279 0.15538 0.37585 0.0
N100 N 0.19167 0.14402 0.36585 0.0
C101 C 0.13145 0.07598 0.36412 0.0
C102 C 0.13226 0.12699 0.38031 0.0
C103 C 0.17201 0.10526 0.35995 0.0
C104 C 0.0126 0.96941 0.36008 0.0
N105 N 0.99708 0.96508 0.37343 0.0
C106 C 0.96215 0.8907 0.37157 0.0
C107 C 0.97178 0.92678 0.3792 0.0
C108 C 0.97839 0.89422 0.35784 0.0
C109 C 0.0035 0.93422 0.35203 0.0
H110 H 0.0325 0.00032 0.35576 0.0
H111 H 0.95937 0.9242 0.38977 0.0
C112 C 0.11051 0.08436 0.42468 0.0
N113 N 0.11153 0.07355 0.41098 0.0
C114 C 0.13961 0.08578 0.43447 0.0
C115 C 0.17129 0.06667 0.41569 0.0
C116 C 0.14146 0.0654 0.40629 0.0
C117 C 0.16992 0.07585 0.43009 0.0
H118 H 0.08588 0.09002 0.42812 0.0
H119 H 0.14117 0.05609 0.39541 0.0
C120 C 0.94527 0.00914 0.37451 0.0
N121 N 0.87704 0.93956 0.36312 0.0
C122 C 0.93887 0.00571 0.35982 0.0
C123 C 0.91689 0.97726 0.38341 0.0
C124 C 0.90421 0.97025 0.35427 0.0
C125 C 0.88259 0.94234 0.37745 0.0
C126 C 0.03953 0.13748 0.40322 0.0
C127 C 0.00652 0.13855 0.39634 0.0
C128 C 0.06363 0.1683 0.41315 0.0
C129 C 0.99825 0.17062 0.39949 0.0
C130 C 0.0544 0.19988 0.41601 0.0
N131 N 0.02217 0.20037 0.40918 0.0
C132 C 0.96044 0.04751 0.42743 0.0
C133 C 0.92041 0.05198 0.40849 0.0
C134 C 0.93372 0.04967 0.43739 0.0
N135 N 0.95353 0.04904 0.41332 0.0
C136 C 0.89296 0.05439 0.41808 0.0
C137 C 0.89973 0.05372 0.43276 0.0
H138 H 0.98738 0.04565 0.43092 0.0
H139 H 0.91588 0.05341 0.39719 0.0
C140 C 0.04357 0.11095 0.35229 0.0
N141 N 0.05203 0.12783 0.36551 0.0
C142 C 0.047 0.13536 0.34053 0.0
C143 C 0.0706 0.195 0.35606 0.0
C144 C 0.06687 0.16934 0.36756 0.0
C145 C 0.05937 0.17769 0.34238 0.0
H146 H 0.03329 0.07815 0.35097 0.0
H147 H 0.07482 0.18242 0.37812 0.0
O148 O 0.01367 0.01174 0.40447 0.0
O149 O 0.07158 0.05843 0.37843 0.0
O150 O 0.97971 0.04289 0.38016 0.0
O151 O 0.04774 0.10592 0.40059 0.0
H152 H 0.06809 0.99075 0.39486 0.0
H153 H 0.97064 0.96092 0.42537 0.0
H154 H 0.07602 0.93236 0.40439 0.0
H155 H 0.9798 0.90262 0.43423 0.0
H156 H 0.18924 0.18646 0.38035 0.0
H157 H 0.11575 0.04512 0.35942 0.0
H158 H 0.11748 0.13624 0.38825 0.0
H159 H 0.18785 0.09717 0.35201 0.0
H160 H 0.9422 0.86039 0.37634 0.0
H161 H 0.01691 0.9383 0.34153 0.0
H162 H 0.13693 0.0924 0.44549 0.0
H163 H 0.19435 0.05925 0.41181 0.0
H164 H 0.96044 0.03003 0.35277 0.0
H165 H 0.9217 0.9791 0.39479 0.0
H166 H 0.89896 0.9671 0.34292 0.0
H167 H 0.86053 0.91732 0.38421 0.0
H168 H 0.98759 0.11503 0.38859 0.0
H169 H 0.08914 0.16772 0.41862 0.0
H170 H 0.97283 0.17186 0.39424 0.0
H171 H 0.07281 0.22396 0.42367 0.0
H172 H 0.94046 0.04964 0.44859 0.0
H173 H 0.86694 0.05708 0.41406 0.0
H174 H 0.03917 0.121 0.33012 0.0
H175 H 0.08041 0.22752 0.35797 0.0
Li176 Li 0.05203 0.04581 0.7185 0.0
Li177 Li 0.04716 0.09241 0.73575 0.0
Li178 Li 0.99771 0.01682 0.73693 0.0
Li179 Li 0.99261 0.05888 0.71817 0.0
C180 C 0.07164 0.0189 0.74381 0.0
N181 N 0.0958 0.9628 0.75268 0.0
C182 C 0.09692 0.02748 0.75581 0.0
C183 C 0.05864 0.98181 0.7363 0.0
C184 C 0.10881 0.99872 0.76013 0.0
C185 C 0.07118 0.95385 0.74095 0.0
C186 C 0.07769 0.1384 0.71043 0.0
C187 C 0.08873 0.20657 0.70424 0.0
N188 N 0.12943 0.2195 0.70133 0.0
C189 C 0.11943 0.15215 0.70715 0.0
C190 C 0.06202 0.16561 0.70877 0.0
C191 C 0.14517 0.19335 0.70267 0.0
C192 C 0.07776 0.02198 0.69387 0.0
N193 N 0.08972 0.03818 0.70712 0.0
C194 C 0.15689 0.04505 0.70396 0.0
C195 C 0.12844 0.04997 0.71224 0.0
C196 C 0.1455 0.02819 0.69022 0.0
C197 C 0.1053 0.01664 0.68519 0.0
H198 H 0.04694 0.01352 0.69003 0.0
H199 H 0.13721 0.06324 0.72276 0.0
C200 C 0.06442 0.14754 0.75888 0.0
N201 N 0.08081 0.13975 0.74716 0.0
C202 C 0.09048 0.17825 0.76854 0.0
C203 C 0.14956 0.19285 0.75372 0.0
C204 C 0.12244 0.16164 0.74443 0.0
C205 C 0.13374 0.20082 0.76611 0.0
H206 H 0.03143 0.12863 0.76109 0.0
H207 H 0.13492 0.15335 0.73547 0.0
C208 C 0.9525 0.97322 0.7124 0.0
N209 N 0.87373 0.91063 0.70455 0.0
C210 C 0.91757 0.96611 0.72027 0.0
C211 C 0.94739 0.94841 0.70055 0.0
C212 C 0.87801 0.93436 0.71613 0.0
C213 C 0.9073 0.91694 0.69674 0.0
C214 C 0.96158 0.08051 0.74144 0.0
C215 C 0.92166 0.05615 0.74718 0.0
C216 C 0.9763 0.12259 0.73835 0.0
C217 C 0.89683 0.07421 0.74951 0.0
C218 C 0.95055 0.13952 0.74085 0.0
N219 N 0.91165 0.11517 0.74631 0.0
C220 C 0.95407 0.98056 0.76196 0.0
C221 C 0.95523 0.93167 0.74597 0.0
C222 C 0.92727 0.94841 0.77104 0.0
N223 N 0.96672 0.9716 0.74959 0.0
C224 C 0.92869 0.89855 0.75481 0.0
C225 C 0.91369 0.90673 0.76738 0.0
H226 H 0.96389 0.01266 0.76456 0.0
H227 H 0.96548 0.92542 0.73601 0.0
C228 C 0.97085 0.07996 0.69228 0.0
N229 N 0.95568 0.06425 0.70539 0.0
C230 C 0.94426 0.07991 0.68172 0.0
C231 C 0.88706 0.04803 0.6984 0.0
C232 C 0.9148 0.04904 0.70866 0.0
C233 C 0.9016 0.06288 0.68466 0.0
H234 H 0.00333 0.0911 0.68988 0.0
H235 H 0.90321 0.03605 0.71903 0.0
O236 O 0.05983 0.04686 0.73948 0.0
O237 O 0.05195 0.09802 0.7147 0.0
O238 O 0.99159 0.00415 0.71624 0.0
O239 O 0.98621 0.06324 0.73901 0.0
H240 H 0.10725 0.05611 0.76173 0.0
H241 H 0.03914 0.97467 0.72696 0.0
H242 H 0.12838 0.00495 0.76941 0.0
H243 H 0.06135 0.92503 0.73525 0.0
H244 H 0.07705 0.22801 0.70296 0.0
H245 H 0.13191 0.13131 0.70818 0.0
H246 H 0.02947 0.15513 0.71078 0.0
H247 H 0.17764 0.20452 0.70023 0.0
H248 H 0.18729 0.05388 0.70836 0.0
H249 H 0.09539 0.00414 0.6746 0.0
H250 H 0.07715 0.18334 0.77803 0.0
H251 H 0.18282 0.20876 0.75165 0.0
H252 H 0.92094 0.98497 0.72947 0.0
H253 H 0.97411 0.95339 0.69436 0.0
H254 H 0.85073 0.9286 0.72213 0.0
H255 H 0.90288 0.89751 0.68759 0.0
H256 H 0.9098 0.02354 0.74969 0.0
H257 H 0.00744 0.14207 0.73423 0.0
H258 H 0.86576 0.05567 0.75386 0.0
H259 H 0.96154 0.17205 0.73848 0.0
H260 H 0.91677 0.95603 0.78072 0.0
H261 H 0.91859 0.86683 0.75152 0.0
H262 H 0.95654 0.09115 0.67119 0.0
H263 H 0.85439 0.03483 0.70108 0.0
C264 C 0.88306 0.6061 0.30547 0.0
C265 C 0.92773 0.64063 0.30226 0.0
C266 C 0.94947 0.63008 0.27936 0.0
C267 C 0.99234 0.64452 0.2799 0.0
C268 C 0.00978 0.62528 0.27179 0.0
C269 C 0.98345 0.59049 0.26318 0.0
C270 C 0.94008 0.5763 0.26251 0.0
C271 C 0.92374 0.59687 0.27046 0.0
C272 C 0.05614 0.64152 0.27266 0.0
C273 C 0.9108 0.53867 0.25377 0.0
C274 C 0.01012 0.3144 0.29403 0.0
C275 C 0.99831 0.34067 0.28564 0.0
C276 C 0.01915 0.41371 0.28165 0.0
C277 C 0.98781 0.40555 0.27159 0.0
C278 C 0.98753 0.43813 0.26406 0.0
C279 C 0.02011 0.47973 0.26624 0.0
C280 C 0.05158 0.48818 0.27642 0.0
C281 C 0.05036 0.45499 0.28414 0.0
C282 C 0.95236 0.42785 0.25371 0.0
C283 C 0.08674 0.53214 0.279 0.0
C284 C 0.09144 0.4425 0.1822 0.0
C285 C 0.0487 0.42817 0.18405 0.0
C286 C 0.03505 0.4554 0.18868 0.0
C287 C 0.06476 0.49776 0.19145 0.0
C288 C 0.10753 0.5128 0.1887 0.0
C289 C 0.12027 0.48492 0.18399 0.0
C290 C 0.98904 0.4386 0.19111 0.0
C291 C 0.1399 0.55786 0.19135 0.0
C292 C 0.92636 0.69401 0.17446 0.0
C293 C 0.96964 0.70141 0.17054 0.0
C294 C 0.98263 0.64316 0.17205 0.0
C295 C 0.95817 0.59988 0.17339 0.0
C296 C 0.97281 0.57699 0.18093 0.0
C297 C 0.01346 0.59803 0.18688 0.0
C298 C 0.0395 0.64149 0.18464 0.0
C299 C 0.02365 0.66373 0.17731 0.0
C300 C 0.94436 0.53057 0.18292 0.0
C301 C 0.08354 0.66454 0.19034 0.0
C302 C 0.00075 0.56702 0.25581 0.0
C303 C 0.00638 0.53836 0.26386 0.0
C304 C 0.02112 0.51395 0.25766 0.0
C305 C 0.03174 0.51892 0.24311 0.0
C306 C 0.04832 0.49607 0.2367 0.0
C307 C 0.05574 0.49876 0.22217 0.0
C308 C 0.04666 0.52424 0.21347 0.0
C309 C 0.05155 0.52507 0.19856 0.0
C310 C 0.04185 0.5504 0.19019 0.0
C311 C 0.02719 0.57503 0.19636 0.0
C312 C 0.02252 0.57493 0.21129 0.0
C313 C 0.00804 0.59947 0.21787 0.0
C314 C 0.00219 0.59801 0.2325 0.0
C315 C 0.0093 0.57099 0.24107 0.0
C316 C 0.0247 0.54665 0.2347 0.0
C317 C 0.03175 0.54898 0.21983 0.0
C318 C 0.12148 0.36797 0.18989 0.0
C319 C 0.08825 0.3747 0.18263 0.0
O320 O 0.93246 0.64731 0.28773 0.0
O321 O 0.96573 0.66422 0.1657 0.0
O322 O 0.10603 0.41644 0.1788 0.0
O323 O 0.02029 0.38273 0.28911 0.0
H324 H 0.94943 0.63013 0.30628 0.0
H325 H 0.87666 0.57667 0.30015 0.0
H326 H 0.86019 0.615 0.30155 0.0
H327 H 0.87876 0.60015 0.31709 0.0
H328 H 0.01192 0.67054 0.2868 0.0
H329 H 0.89059 0.58617 0.27017 0.0
H330 H 0.06175 0.61847 0.27839 0.0
H331 H 0.07295 0.67189 0.27833 0.0
H332 H 0.06944 0.64541 0.26183 0.0
H333 H 0.87753 0.52933 0.25547 0.0
H334 H 0.91509 0.51177 0.25644 0.0
H335 H 0.91805 0.54573 0.24233 0.0
H336 H 0.96399 0.32741 0.28438 0.0
H337 H 0.98094 0.29204 0.30003 0.0
H338 H 0.02721 0.33286 0.3038 0.0
H339 H 0.04052 0.2933 0.2781 0.0
H340 H 0.96318 0.37389 0.26958 0.0
H341 H 0.07432 0.46104 0.29195 0.0
H342 H 0.96394 0.43019 0.2427 0.0
H343 H 0.94088 0.45031 0.25478 0.0
H344 H 0.92566 0.39571 0.25529 0.0
H345 H 0.11076 0.53307 0.28635 0.0
H346 H 0.074 0.55103 0.28363 0.0
H347 H 0.10193 0.54698 0.26878 0.0
H348 H 0.06295 0.36597 0.19058 0.0
H349 H 0.02601 0.39572 0.18202 0.0
H350 H 0.1531 0.49581 0.18223 0.0
H351 H 0.98312 0.43861 0.20266 0.0
H352 H 0.96962 0.40624 0.18705 0.0
H353 H 0.979 0.45906 0.18584 0.0
H354 H 0.17171 0.56507 0.18813 0.0
H355 H 0.14041 0.565 0.20282 0.0
H356 H 0.13156 0.57867 0.18541 0.0
H357 H 0.98904 0.71214 0.18038 0.0
H358 H 0.92861 0.72327 0.17854 0.0
H359 H 0.91254 0.66982 0.18291 0.0
H360 H 0.90525 0.6831 0.16508 0.0
H361 H 0.92683 0.58432 0.16901 0.0
H362 H 0.04314 0.69713 0.17576 0.0
H363 H 0.94077 0.52265 0.19441 0.0
H364 H 0.95848 0.51353 0.17782 0.0
H365 H 0.9129 0.51935 0.17824 0.0
H366 H 0.10153 0.69686 0.18607 0.0
H367 H 0.10016 0.64741 0.18767 0.0
H368 H 0.08267 0.66625 0.2021 0.0
H369 H 0.99787 0.53402 0.27501 0.0
H370 H 0.05534 0.47551 0.24283 0.0
H371 H 0.06806 0.48003 0.21783 0.0
H372 H 0.04478 0.55017 0.17874 0.0
H373 H 0.00089 0.62002 0.21179 0.0
H374 H 0.99106 0.61761 0.23698 0.0
H375 H 0.14827 0.37654 0.18265 0.0
H376 H 0.10799 0.33476 0.19314 0.0
H377 H 0.1332 0.38776 0.19955 0.0
C378 C 0.34804 0.93552 0.64722 0.0
C379 C 0.3534 0.97495 0.63992 0.0
C380 C 0.37836 0.98725 0.61567 0.0
C381 C 0.40486 0.0307 0.61571 0.0
C382 C 0.43872 0.04978 0.60631 0.0
C383 C 0.44638 0.02471 0.59682 0.0
C384 C 0.41856 0.98094 0.59641 0.0
C385 C 0.38431 0.96293 0.60568 0.0
C386 C 0.46705 0.09655 0.60682 0.0
C387 C 0.42586 0.95287 0.58665 0.0
C388 C 0.72055 0.0307 0.63448 0.0
C389 C 0.6858 0.02381 0.62503 0.0
C390 C 0.65509 0.06088 0.61338 0.0
C391 C 0.62884 0.02723 0.60452 0.0
C392 C 0.59832 0.02868 0.5961 0.0
C393 C 0.59418 0.06471 0.5964 0.0
C394 C 0.62136 0.0992 0.60493 0.0
C395 C 0.65164 0.09686 0.6133 0.0
C396 C 0.56982 0.99122 0.58712 0.0
C397 C 0.61786 0.13812 0.60537 0.0
C398 C 0.67968 0.11649 0.50787 0.0
C399 C 0.65239 0.07476 0.51169 0.0
C400 C 0.61367 0.06298 0.51797 0.0
C401 C 0.60216 0.09364 0.52047 0.0
C402 C 0.6287 0.13528 0.51593 0.0
C403 C 0.66704 0.14607 0.50954 0.0
C404 C 0.58553 0.01799 0.52225 0.0
C405 C 0.61715 0.16859 0.5183 0.0
C406 C 0.25957 0.9643 0.51615 0.0
C407 C 0.29901 0.00103 0.50988 0.0
C408 C 0.36785 0.00679 0.5101 0.0
C409 C 0.38608 0.98197 0.51198 0.0
C410 C 0.42688 0.99902 0.51724 0.0
C411 C 0.45008 0.0422 0.52042 0.0
C412 C 0.43305 0.06815 0.51738 0.0
C413 C 0.39197 0.05016 0.51224 0.0
C414 C 0.44441 0.97055 0.52007 0.0
C415 C 0.45754 0.11448 0.52025 0.0
C416 C 0.48572 0.0435 0.5885 0.0
C417 C 0.52196 0.05104 0.59568 0.0
C418 C 0.55953 0.06473 0.58847 0.0
C419 C 0.56164 0.07232 0.57371 0.0
C420 C 0.59916 0.08672 0.56619 0.0
C421 C 0.60026 0.09128 0.5515 0.0
C422 C 0.56376 0.08112 0.54376 0.0
C423 C 0.56389 0.08272 0.52874 0.0
C424 C 0.52683 0.07144 0.52137 0.0
C425 C 0.48943 0.05866 0.52865 0.0
C426 C 0.48887 0.05769 0.54368 0.0
C427 C 0.45182 0.04542 0.55133 0.0
C428 C 0.45102 0.04215 0.56606 0.0
C429 C 0.48696 0.0501 0.57367 0.0
C430 C 0.525 0.06414 0.56623 0.0
C431 C 0.52601 0.0682 0.55123 0.0
C432 C 0.78115 0.15375 0.51561 0.0
C433 C 0.74596 0.11716 0.50753 0.0
O434 O 0.34761 0.96798 0.62542 0.0
O435 O 0.32686 0.98765 0.50646 0.0
O436 O 0.71816 0.12907 0.50246 0.0
O437 O 0.6834 0.05938 0.62225 0.0
H438 H 0.38587 0.00029 0.64232 0.0
H439 H 0.37195 0.92829 0.64322 0.0
H440 H 0.31663 0.9083 0.64501 0.0
H441 H 0.35218 0.94033 0.65889 0.0
H442 H 0.39931 0.04954 0.62323 0.0
H443 H 0.36323 0.92943 0.60568 0.0
H444 H 0.49715 0.10388 0.61185 0.0
H445 H 0.45318 0.11213 0.61301 0.0
H446 H 0.47393 0.10974 0.5959 0.0
H447 H 0.40443 0.91923 0.58895 0.0
H448 H 0.45854 0.95949 0.58763 0.0
H449 H 0.4209 0.95898 0.57548 0.0
H450 H 0.65512 0.99558 0.6275 0.0
H451 H 0.70505 0.01131 0.64424 0.0
H452 H 0.73167 0.06161 0.64002 0.0
H453 H 0.76245 0.01926 0.62035 0.0
H454 H 0.63161 0.99945 0.60423 0.0
H455 H 0.67221 0.12281 0.62007 0.0
H456 H 0.57363 0.00031 0.57574 0.0
H457 H 0.53676 0.97983 0.59 0.0
H458 H 0.57627 0.96509 0.58843 0.0
H459 H 0.64339 0.16347 0.61166 0.0
H460 H 0.58745 0.13058 0.61014 0.0
H461 H 0.61855 0.14963 0.59441 0.0
H462 H 0.7305 0.09077 0.51519 0.0
H463 H 0.66131 0.05139 0.50978 0.0
H464 H 0.68805 0.17803 0.50627 0.0
H465 H 0.58361 0.01565 0.53401 0.0
H466 H 0.59698 0.99726 0.51827 0.0
H467 H 0.55345 0.00657 0.51814 0.0
H468 H 0.64095 0.19942 0.51398 0.0
H469 H 0.61359 0.1719 0.52985 0.0
H470 H 0.58662 0.15918 0.51317 0.0
H471 H 0.31216 0.02551 0.51828 0.0
H472 H 0.23669 0.97422 0.51902 0.0
H473 H 0.26767 0.95295 0.52593 0.0
H474 H 0.24483 0.93806 0.50846 0.0
H475 H 0.36747 0.9487 0.50997 0.0
H476 H 0.37862 0.06988 0.51013 0.0
H477 H 0.45021 0.97 0.53162 0.0
H478 H 0.4748 0.98267 0.51455 0.0
H479 H 0.42303 0.93803 0.51646 0.0
H480 H 0.44204 0.13111 0.51575 0.0
H481 H 0.48941 0.12814 0.51571 0.0
H482 H 0.46094 0.11983 0.5319 0.0
H483 H 0.52042 0.04423 0.60696 0.0
H484 H 0.62798 0.09421 0.57158 0.0
H485 H 0.62997 0.10211 0.54627 0.0
H486 H 0.52684 0.07146 0.50985 0.0
H487 H 0.42286 0.03783 0.54603 0.0
H488 H 0.42162 0.03236 0.57139 0.0
H489 H 0.80378 0.14489 0.51981 0.0
H490 H 0.76798 0.16239 0.52471 0.0
H491 H 0.7979 0.18146 0.50857 0.0
C492 C 0.66701 0.62049 0.80437 0.0
C493 C 0.67667 0.65688 0.81435 0.0
C494 C 0.65532 0.63308 0.83848 0.0
C495 C 0.63298 0.6533 0.84191 0.0
C496 C 0.60068 0.63603 0.85195 0.0
C497 C 0.59068 0.59782 0.85865 0.0
C498 C 0.61474 0.5786 0.85575 0.0
C499 C 0.64724 0.5969 0.84579 0.0
C500 C 0.5763 0.65782 0.85505 0.0
C501 C 0.60494 0.53787 0.86271 0.0
C502 C 0.28306 0.34893 0.82675 0.0
C503 C 0.3121 0.3705 0.83867 0.0
C504 C 0.3667 0.44058 0.84539 0.0
C505 C 0.38912 0.4268 0.85373 0.0
C506 C 0.42577 0.45535 0.8608 0.0
C507 C 0.43948 0.49858 0.86002 0.0
C508 C 0.41685 0.51262 0.85176 0.0
C509 C 0.38093 0.48336 0.84442 0.0
C510 C 0.44975 0.4391 0.86911 0.0
C511 C 0.43045 0.55843 0.85077 0.0
C512 C 0.35907 0.45861 0.94672 0.0
C513 C 0.38533 0.44229 0.94378 0.0
C514 C 0.42577 0.46814 0.9385 0.0
C515 C 0.44022 0.51113 0.93625 0.0
C516 C 0.41499 0.52816 0.94026 0.0
C517 C 0.37471 0.50159 0.94555 0.0
C518 C 0.45231 0.44915 0.93469 0.0
C519 C 0.4297 0.57394 0.93818 0.0
C520 C 0.78496 0.69368 0.94726 0.0
C521 C 0.74659 0.69843 0.94944 0.0
C522 C 0.67406 0.64211 0.94839 0.0
C523 C 0.65146 0.59867 0.94725 0.0
C524 C 0.61192 0.57836 0.94084 0.0
C525 C 0.59415 0.60224 0.93587 0.0
C526 C 0.61571 0.64607 0.93792 0.0
C527 C 0.65573 0.66566 0.94404 0.0
C528 C 0.58967 0.53151 0.93904 0.0
C529 C 0.59693 0.67227 0.93331 0.0
C530 C 0.55255 0.57596 0.8675 0.0
C531 C 0.51478 0.55076 0.86047 0.0
C532 C 0.4774 0.52875 0.86796 0.0
C533 C 0.47728 0.53267 0.88287 0.0
C534 C 0.43993 0.51222 0.89065 0.0
C535 C 0.44032 0.51406 0.90538 0.0
C536 C 0.4781 0.5365 0.91292 0.0
C537 C 0.47892 0.53669 0.92794 0.0
C538 C 0.51691 0.55934 0.93514 0.0
C539 C 0.5545 0.58161 0.92768 0.0
C540 C 0.5543 0.58162 0.91263 0.0
C541 C 0.59152 0.60324 0.90476 0.0
C542 C 0.591 0.60226 0.88997 0.0
C543 C 0.55337 0.57881 0.88249 0.0
C544 C 0.51551 0.55704 0.89019 0.0
C545 C 0.51594 0.55874 0.90526 0.0
C546 C 0.25469 0.39231 0.93818 0.0
C547 C 0.29193 0.39352 0.94575 0.0
O548 O 0.68407 0.64737 0.82792 0.0
O549 O 0.71348 0.6602 0.95365 0.0
O550 O 0.31852 0.43387 0.95052 0.0
O551 O 0.3317 0.41372 0.83805 0.0
H552 H 0.6486 0.66065 0.81416 0.0
H553 H 0.63805 0.5921 0.8079 0.0
H554 H 0.69285 0.61336 0.80438 0.0
H555 H 0.66203 0.62807 0.79336 0.0
H556 H 0.64043 0.68225 0.83659 0.0
H557 H 0.66519 0.58195 0.84318 0.0
H558 H 0.54404 0.6388 0.85085 0.0
H559 H 0.59074 0.68941 0.85016 0.0
H560 H 0.57401 0.6608 0.8667 0.0
H561 H 0.62692 0.5272 0.85943 0.0
H562 H 0.57267 0.51331 0.8599 0.0
H563 H 0.60637 0.54139 0.87443 0.0
H564 H 0.3006 0.35739 0.84947 0.0
H565 H 0.31371 0.31886 0.81494 0.0
H566 H 0.27574 0.37239 0.82176 0.0
H567 H 0.25126 0.32981 0.83177 0.0
H568 H 0.3785 0.39381 0.8547 0.0
H569 H 0.36351 0.49376 0.83797 0.0
H570 H 0.44485 0.44098 0.88064 0.0
H571 H 0.48376 0.45836 0.86699 0.0
H572 H 0.43947 0.40604 0.86649 0.0
H573 H 0.40724 0.56389 0.84507 0.0
H574 H 0.46067 0.57518 0.84504 0.0
H575 H 0.43542 0.57214 0.86157 0.0
H576 H 0.30755 0.38389 0.93774 0.0
H577 H 0.37412 0.40933 0.94539 0.0
H578 H 0.35449 0.514 0.94817 0.0
H579 H 0.45608 0.44983 0.92298 0.0
H580 H 0.43834 0.41628 0.93838 0.0
H581 H 0.48392 0.4678 0.93942 0.0
H582 H 0.40786 0.58299 0.94289 0.0
H583 H 0.4327 0.5812 0.92665 0.0
H584 H 0.46105 0.5932 0.94305 0.0
H585 H 0.73967 0.70801 0.93901 0.0
H586 H 0.81191 0.72364 0.94358 0.0
H587 H 0.77815 0.66951 0.93907 0.0
H588 H 0.7936 0.684 0.95731 0.0
H589 H 0.66569 0.58082 0.9509 0.0
H590 H 0.67266 0.69927 0.9454 0.0
H591 H 0.58041 0.52307 0.92777 0.0
H592 H 0.56074 0.51704 0.94551 0.0
H593 H 0.60928 0.51801 0.9424 0.0
H594 H 0.61456 0.70458 0.93758 0.0
H595 H 0.56395 0.65762 0.93687 0.0
H596 H 0.59706 0.67404 0.92154 0.0
H597 H 0.51463 0.54746 0.84901 0.0
H598 H 0.40997 0.49422 0.88544 0.0
H599 H 0.41057 0.49723 0.91077 0.0
H600 H 0.51734 0.55882 0.94665 0.0
H601 H 0.62157 0.62109 0.90992 0.0
H602 H 0.62054 0.61949 0.88447 0.0
H603 H 0.23283 0.36022 0.93429 0.0
H604 H 0.26582 0.41379 0.9289 0.0
H605 H 0.23763 0.40226 0.94543 0.0
H606 H 0.95577 0.1598 0.12722 0.0
H607 H 0.12313 0.38697 0.15599 0.0
H608 H 0.06614 0.24783 0.10426 0.0
H609 H 0.01616 0.29872 0.18021 0.0
H610 H 0.09867 0.33847 0.13597 0.0
H611 H 0.97357 0.21205 0.14591 0.0
C612 C 0.9836 0.19012 0.12607 0.0
C613 C 0.00946 0.19934 0.11413 0.0
C614 C 0.08023 0.32981 0.14559 0.0
C615 C 0.02992 0.25932 0.13543 0.0
C616 C 0.0941 0.3576 0.15698 0.0
C617 C 0.07131 0.34702 0.16969 0.0
C618 C 0.04353 0.29086 0.14695 0.0
C619 C 0.03436 0.30819 0.17053 0.0
C620 C 0.99365 0.21999 0.13671 0.0
C621 C 0.04486 0.23939 0.11313 0.0
N622 N 0.02167 0.28143 0.15933 0.0
N623 N 0.05411 0.26772 0.12366 0.0
H624 H 0.86936 0.01273 0.4581 0.0
H625 H 0.77036 0.15315 0.48098 0.0
H626 H 0.86903 0.10746 0.43126 0.0
H627 H 0.76398 0.05359 0.50682 0.0
H628 H 0.80416 0.13503 0.46223 0.0
H629 H 0.82865 0.02549 0.47574 0.0
C630 C 0.86068 0.03618 0.4559 0.0
C631 C 0.87275 0.05915 0.44319 0.0
C632 C 0.79498 0.11682 0.47193 0.0
C633 C 0.82601 0.07384 0.46332 0.0
C634 C 0.77555 0.12706 0.4826 0.0
C635 C 0.76372 0.10434 0.49536 0.0
C636 C 0.80321 0.08398 0.4741 0.0
C637 C 0.77208 0.07148 0.49706 0.0
C638 C 0.83726 0.04331 0.46595 0.0
C639 C 0.86007 0.0887 0.44084 0.0
N640 N 0.79138 0.06234 0.48657 0.0
N641 N 0.83763 0.09536 0.45084 0.0
H642 H 0.91197 0.83446 0.7755 0.0
H643 H 0.67945 0.72886 0.80519 0.0
H644 H 0.84267 0.89952 0.77887 0.0
H645 H 0.75868 0.67558 0.81186 0.0
H646 H 0.73895 0.79148 0.7953 0.0
H647 H 0.85619 0.77536 0.78847 0.0
C648 C 0.8851 0.83635 0.77903 0.0
C649 C 0.8819 0.8719 0.7761 0.0
C650 C 0.74345 0.76623 0.799 0.0
C651 C 0.81803 0.80451 0.79085 0.0
C652 C 0.70949 0.73049 0.80463 0.0
C653 C 0.71408 0.69685 0.8092 0.0
C654 C 0.78228 0.76825 0.79779 0.0
C655 C 0.75377 0.70068 0.80831 0.0
C656 C 0.85342 0.80274 0.78648 0.0
C657 C 0.84662 0.8729 0.78102 0.0
N658 N 0.78627 0.73558 0.80257 0.0
N659 N 0.81592 0.83957 0.78804 0.0
H660 H 0.0231 0.84256 0.0921 0.0
H661 H 0.02114 0.78552 0.17426 0.0
H662 H 0.05469 0.93132 0.12623 0.0
H663 H 0.96001 0.69347 0.14136 0.0
H664 H 0.04612 0.84071 0.15623 0.0
H665 H 0.01239 0.789 0.10955 0.0
C666 C 0.02805 0.85091 0.10324 0.0
C667 C 0.03933 0.89149 0.10769 0.0
C668 C 0.02772 0.8084 0.15294 0.0
C669 C 0.02756 0.83037 0.12768 0.0
C670 C 0.01366 0.77696 0.1632 0.0
C671 C 0.98902 0.73492 0.15927 0.0
C672 C 0.01687 0.79771 0.13863 0.0
C673 C 0.97947 0.72546 0.14482 0.0
C674 C 0.02205 0.82033 0.11318 0.0
C675 C 0.04629 0.90066 0.12225 0.0
N676 N 0.99336 0.75664 0.13503 0.0
N677 N 0.03997 0.87026 0.13173 0.0
H678 H 0.20855 0.12441 0.45356 0.0
H679 H 0.28259 0.96836 0.48286 0.0
H680 H 0.19264 0.01588 0.43094 0.0
H681 H 0.28912 0.0697 0.50746 0.0
H682 H 0.25826 0.99135 0.46245 0.0
H683 H 0.24646 0.11068 0.47219 0.0
C684 C 0.21325 0.09788 0.45245 0.0
C685 C 0.19713 0.07114 0.44068 0.0
C686 C 0.26544 0.0089 0.47225 0.0
C687 C 0.2406 0.05538 0.46192 0.0
C688 C 0.27948 0.99587 0.48387 0.0
C689 C 0.28818 0.01742 0.4968 0.0
C690 C 0.25959 0.04349 0.4736 0.0
C691 C 0.28301 0.05246 0.49763 0.0
C692 C 0.23501 0.09015 0.46306 0.0
C693 C 0.20481 0.03765 0.43971 0.0
N694 N 0.26884 0.06432 0.4862 0.0
N695 N 0.22568 0.03057 0.45023 0.0
H696 H 0.13143 0.18655 0.79463 0.0
H697 H 0.36632 0.41162 0.81161 0.0
H698 H 0.20274 0.27851 0.76258 0.0
H699 H 0.29212 0.28205 0.84409 0.0
H700 H 0.29846 0.36496 0.79189 0.0
H701 H 0.18446 0.22903 0.81224 0.0
C702 C 0.15785 0.21608 0.79135 0.0
C703 C 0.16281 0.229 0.77711 0.0
C704 C 0.29963 0.3514 0.80195 0.0
C705 C 0.22368 0.27724 0.79713 0.0
C706 C 0.34294 0.37935 0.81353 0.0
C707 C 0.33332 0.35414 0.83134 0.0
C708 C 0.25823 0.30088 0.80709 0.0
C709 C 0.29622 0.29759 0.83398 0.0
C710 C 0.18826 0.24006 0.80138 0.0
C711 C 0.19801 0.26726 0.77343 0.0
N712 N 0.26008 0.27826 0.82183 0.0
N713 N 0.2273 0.29006 0.78339 0.0
H714 H 0.90901 0.11967 0.66434 0.0
H715 H 0.68007 0.93993 0.62264 0.0
H716 H 0.82708 0.99342 0.67872 0.0
H717 H 0.76453 0.09717 0.6106 0.0
H718 H 0.74362 0.95762 0.64369 0.0
H719 H 0.86007 0.10809 0.64483 0.0
C720 C 0.88072 0.08962 0.66339 0.0
C721 C 0.87189 0.05752 0.67318 0.0
C722 C 0.74576 0.98226 0.63689 0.0
C723 C 0.81644 0.04409 0.65098 0.0
C724 C 0.70789 0.97037 0.62336 0.0
C725 C 0.71156 0.01833 0.61559 0.0
C726 C 0.78655 0.0352 0.63938 0.0
C727 C 0.761 0.0696 0.61592 0.0
C728 C 0.85287 0.0831 0.65232 0.0
C729 C 0.83477 0.01919 0.67153 0.0
N730 N 0.79173 0.07306 0.62894 0.0
N731 N 0.8085 0.01347 0.66059 0.0
H732 H 0.87888 0.93284 0.99284 0.0
H733 H 0.73703 0.69038 0.97868 0.0
H734 H 0.80635 0.84528 0.02591 0.0
H735 H 0.77977 0.78233 0.94516 0.0
H736 H 0.7605 0.7465 0.99619 0.0
H737 H 0.84086 0.87876 0.97521 0.0
C738 C 0.85442 0.90255 0.99643 0.0
C739 C 0.84619 0.89369 0.01098 0.0
C740 C 0.76409 0.75438 0.985 0.0
C741 C 0.80324 0.83104 0.99073 0.0
C742 C 0.7506 0.72235 0.975 0.0
C743 C 0.75594 0.73176 0.96044 0.0
C744 C 0.78397 0.79616 0.98041 0.0
C745 C 0.77467 0.7738 0.95629 0.0
C746 C 0.83289 0.87151 0.98632 0.0
C747 C 0.81454 0.8534 0.01487 0.0
N748 N 0.78835 0.80448 0.96622 0.0
N749 N 0.79462 0.82345 0.00484 0.0
H750 H 0.98103 0.82575 0.36753 0.0
H751 H 0.91244 0.70345 0.29356 0.0
H752 H 0.95767 0.87711 0.3297 0.0
H753 H 0.96204 0.66649 0.32867 0.0
H754 H 0.92476 0.76531 0.30696 0.0
H755 H 0.96934 0.76462 0.35389 0.0
C756 C 0.97311 0.82398 0.35637 0.0
C757 C 0.97024 0.8565 0.34974 0.0
C758 C 0.9333 0.74387 0.31168 0.0
C759 C 0.95713 0.78681 0.33403 0.0
C760 C 0.92645 0.70869 0.30401 0.0
C761 C 0.9372 0.68037 0.3099 0.0
C762 C 0.95024 0.75033 0.32544 0.0
C763 C 0.95407 0.688 0.32366 0.0
C764 C 0.96677 0.78925 0.34857 0.0
C765 C 0.96052 0.85289 0.3352 0.0
N766 N 0.96005 0.7222 0.33097 0.0
N767 N 0.95419 0.81861 0.32784 0.0
H768 H 0.12884 0.96294 0.67238 0.0
H769 H 0.3691 0.04142 0.65697 0.0
H770 H 0.23018 0.08017 0.68769 0.0
H771 H 0.26792 0.93455 0.63631 0.0
H772 H 0.31854 0.05687 0.66794 0.0
H773 H 0.17889 0.95266 0.65865 0.0
C774 C 0.16154 0.98675 0.67275 0.0
C775 C 0.17529 0.02236 0.6813 0.0
C776 C 0.30734 0.03022 0.66092 0.0
C777 C 0.23288 0.01044 0.66574 0.0
C778 C 0.3362 0.02145 0.65465 0.0
C779 C 0.32261 0.98667 0.64574 0.0
C780 C 0.26447 0.00375 0.65839 0.0
C781 C 0.27961 0.96166 0.64313 0.0
C782 C 0.19014 0.98074 0.66495 0.0
C783 C 0.21818 0.05183 0.68149 0.0
N784 N 0.25203 0.97052 0.64951 0.0
N785 N 0.24543 0.04509 0.6739 0.0
H786 H 0.19883 0.17178 0.99894 0.0
H787 H 0.26407 0.40225 0.97186 0.0
H788 H 0.1648 0.25414 0.01998 0.0
H789 H 0.28467 0.31578 0.9474 0.0
H790 H 0.23461 0.35064 0.99096 0.0
H791 H 0.23682 0.22621 0.98113 0.0
C792 C 0.19943 0.20127 -0.00014 0.0
C793 C 0.17857 0.2083 0.01102 0.0
C794 C 0.24586 0.34299 0.98147 0.0
C795 C 0.22223 0.27078 0.99075 0.0
C796 C 0.26283 0.37252 0.97062 0.0
C797 C 0.2771 0.36333 0.95811 0.0
C798 C 0.24286 0.3038 0.9798 0.0
C799 C 0.27427 0.32414 0.95693 0.0
C800 C 0.22126 0.23238 0.98972 0.0
C801 C 0.18093 0.2474 0.01175 0.0
N802 N 0.25737 0.29573 0.96763 0.0
N803 N 0.20218 0.277 0.00174 0.0
H804 H 0.11454 0.25981 0.33538 0.0
H805 H 0.95106 0.25952 0.26966 0.0
H806 H 0.99897 0.1522 0.32201 0.0
H807 H 0.09528 0.3851 0.28235 0.0
H808 H 0.97156 0.21255 0.28932 0.0
H809 H 0.10724 0.30033 0.31598 0.0
C810 C 0.0878 0.24468 0.32835 0.0
C811 C 0.05739 0.20249 0.3303 0.0
C812 C 0.99373 0.24507 0.28723 0.0
C813 C 0.04908 0.24841 0.3082 0.0
C814 C 0.98175 0.27289 0.27443 0.0
C815 C 0.01851 0.33003 0.2754 0.0
C816 C 0.04174 0.27165 0.29697 0.0
C817 C 0.07247 0.35208 0.28261 0.0
C818 C 0.08381 0.26773 0.31726 0.0
C819 C 0.02354 0.18439 0.3208 0.0
N820 N 0.07657 0.32058 0.2938 0.0
N821 N 0.0202 0.20752 0.31022 0.0
loop_
_geom_bond_atom_site_label_1
_geom_bond_atom_site_label_2
_geom_bond_distance
_geom_bond_site_symmetry_2
_ccdc_geom_bond_type
Li0 N17 1.990 . S
Li0 O60 1.956 . S
Li0 O61 2.000 . S
Li0 O62 1.961 . S
Li1 N25 1.987 1_455 S
Li1 O60 1.976 . S
Li1 O61 1.956 . S
Li1 O63 1.961 1_455 S
Li2 N47 1.990 1_545 S
Li2 O60 1.961 . S
Li2 O62 1.956 . S
Li2 O63 1.970 1_455 S
Li3 N53 1.990 1_545 S
Li3 O61 1.961 1_655 S
Li3 O62 1.970 1_655 S
Li3 O63 1.956 . S
C4 C6 1.348 . S
C4 C7 1.356 . S
C4 O60 1.325 . S
N5 C8 1.314 . S
N5 C9 1.279 . S
C6 C4 1.348 . S
C6 C8 1.353 . S
C6 H64 0.929 . S
C7 C4 1.356 . S
C7 C9 1.358 . S
C7 H65 0.930 . S
C8 N5 1.314 . S
C8 C6 1.353 . S
C8 H66 0.930 . S
C9 N5 1.279 . S
C9 C7 1.358 . S
C9 H67 0.930 . S
C10 C13 1.348 1_655 S
C10 C14 1.356 . S
C10 O61 1.307 1_655 S
C11 N12 1.279 . S
C11 C14 1.358 . S
C11 H68 0.930 . S
N12 C11 1.279 . S
N12 C15 1.314 1_655 S
C13 C10 1.348 1_455 S
C13 C15 1.353 . S
C13 H69 0.929 . S
C14 C10 1.356 . S
C14 C11 1.358 . S
C14 H70 0.930 . S
C15 N12 1.314 1_455 S
C15 C13 1.353 . S
C15 H71 0.930 . S
C16 N17 1.314 . S
C16 C21 1.353 . S
C16 H22 0.930 . S
N17 Li0 1.990 . S
N17 C16 1.314 . S
N17 C19 1.279 . S
C18 C19 1.358 . S
C18 C20 1.356 . S
C18 H72 0.930 . S
C19 N17 1.279 . S
C19 C18 1.358 . S
C19 H23 0.930 . S
C20 C18 1.356 . S
C20 C21 1.348 . S
C21 C16 1.353 . S
C21 C20 1.348 . S
C21 H73 0.929 . S
H22 C16 0.930 . S
H23 C19 0.930 . S
C24 N25 1.314 . S
C24 C26 1.353 . S
C24 H30 0.930 . S
N25 Li1 1.987 1_655 S
N25 C24 1.314 . S
N25 C28 1.279 . S
C26 C24 1.353 . S
C26 C29 1.348 . S
C26 H74 0.929 . S
C27 C28 1.358 . S
C27 C29 1.356 . S
C27 H75 0.930 . S
C28 N25 1.279 . S
C28 C27 1.358 . S
C28 H31 0.930 . S
C29 C26 1.348 . S
C29 C27 1.356 . S
H30 C24 0.930 . S
H31 C28 0.930 . S
C32 C34 1.348 . S
C32 C35 1.356 . S
C32 O62 1.325 1_565 S
N33 C36 1.314 . S
N33 C37 1.279 . S
C34 C32 1.348 . S
C34 C36 1.353 . S
C34 H76 0.929 1_455 S
C35 C32 1.356 . S
C35 C37 1.358 . S
C35 H77 0.930 1_565 S
C36 N33 1.314 . S
C36 C34 1.353 . S
C36 H78 0.930 1_455 S
C37 N33 1.279 . S
C37 C35 1.358 . S
C37 H79 0.930 . S
C38 C39 1.348 . S
C38 C40 1.356 . S
C38 O63 1.325 1_565 S
C39 C38 1.348 . S
C39 C41 1.353 . S
C39 H80 0.929 . S
C40 C38 1.356 . S
C40 C42 1.358 . S
C40 H81 0.930 1_565 S
C41 C39 1.353 . S
C41 N43 1.314 . S
C41 H82 0.930 . S
C42 C40 1.358 . S
C42 N43 1.279 . S
C42 H83 0.930 . S
N43 C41 1.314 . S
N43 C42 1.279 . S
C44 C46 1.353 . S
C44 N47 1.314 . S
C44 H50 0.930 . S
C45 N47 1.279 . S
C45 C48 1.358 . S
C45 H51 0.930 . S
C46 C44 1.353 . S
C46 C49 1.348 . S
C46 H84 0.929 . S
N47 Li2 1.990 1_565 S
N47 C44 1.314 . S
N47 C45 1.279 . S
C48 C45 1.358 . S
C48 C49 1.356 . S
C48 H85 0.930 . S
C49 C46 1.348 . S
C49 C48 1.356 . S
H50 C44 0.930 . S
H51 C45 0.930 . S
C52 N53 1.314 . S
C52 C54 1.353 . S
C52 H58 0.941 . S
N53 Li3 1.990 1_565 S
N53 C52 1.314 . S
N53 C56 1.279 . S
C54 C52 1.353 . S
C54 C57 1.348 . S
C54 H86 0.929 . S
C55 C56 1.358 . S
C55 C57 1.356 . S
C55 H87 0.930 . S
C56 N53 1.279 . S
C56 C55 1.358 . S
C56 H59 0.930 . S
C57 C54 1.348 . S
C57 C55 1.356 . S
H58 C52 0.941 . S
H59 C56 0.930 . S
O60 Li0 1.956 . S
O60 Li1 1.976 . S
O60 Li2 1.961 . S
O60 C4 1.325 . S
O61 Li0 2.000 . S
O61 Li1 1.956 . S
O61 Li3 1.961 1_455 S
O61 C10 1.307 1_455 S
O62 Li0 1.961 . S
O62 Li2 1.956 . S
O62 Li3 1.970 1_455 S
O62 C32 1.325 1_545 S
O63 Li1 1.961 1_655 S
O63 Li2 1.970 1_655 S
O63 Li3 1.956 . S
O63 C38 1.325 1_545 S
H64 C6 0.929 . S
H65 C7 0.930 . S
H66 C8 0.930 . S
H67 C9 0.930 . S
H68 C11 0.930 . S
H69 C13 0.929 . S
H70 C14 0.930 . S
H71 C15 0.930 . S
H72 C18 0.930 . S
H73 C21 0.929 . S
H74 C26 0.929 . S
H75 C27 0.930 . S
H76 C34 0.929 1_655 S
H77 C35 0.930 1_545 S
H78 C36 0.930 1_655 S
H79 C37 0.930 . S
H80 C39 0.929 . S
H81 C40 0.930 1_545 S
H82 C41 0.930 . S
H83 C42 0.930 . S
H84 C46 0.929 . S
H85 C48 0.930 . S
H86 C54 0.929 . S
H87 C55 0.930 . S
Li88 N105 1.990 1_445 S
Li88 O148 1.956 . S
Li88 O149 1.970 . S
Li88 O150 1.961 1_455 S
Li89 N113 1.990 . S
Li89 O148 1.970 . S
Li89 O149 1.956 . S
Li89 O151 1.961 . S
Li90 N135 1.990 . S
Li90 O148 1.961 1_655 S
Li90 O150 1.956 . S
Li90 O151 1.970 1_655 S
Li91 N141 1.990 . S
Li91 O149 1.961 . S
Li91 O150 1.970 1_455 S
Li91 O151 1.956 . S
C92 C94 1.348 . S
C92 C95 1.356 1_455 S
C92 O148 1.325 1_565 S
N93 C96 1.314 1_655 S
N93 C97 1.279 . S
C94 C92 1.348 . S
C94 C96 1.353 . S
C94 H152 0.929 . S
C95 C92 1.356 1_655 S
C95 C97 1.358 . S
C95 H153 0.930 . S
C96 N93 1.314 1_455 S
C96 C94 1.353 . S
C96 H154 0.930 . S
C97 N93 1.279 . S
C97 C95 1.358 . S
C97 H155 0.930 . S
C98 C101 1.348 . S
C98 C102 1.356 . S
C98 O149 1.325 . S
C99 N100 1.279 . S
C99 C102 1.358 . S
C99 H156 0.930 . S
N100 C99 1.279 . S
N100 C103 1.314 . S
C101 C98 1.348 . S
C101 C103 1.353 . S
C101 H157 0.929 . S
C102 C98 1.356 . S
C102 C99 1.358 . S
C102 H158 0.930 . S
C103 N100 1.314 . S
C103 C101 1.353 . S
C103 H159 0.930 . S
C104 N105 1.314 . S
C104 C109 1.353 . S
C104 H110 0.930 . S
N105 Li88 1.990 1_665 S
N105 C104 1.314 . S
N105 C107 1.279 . S
C106 C107 1.358 . S
C106 C108 1.356 . S
C106 H160 0.930 . S
C107 N105 1.279 . S
C107 C106 1.358 . S
C107 H111 0.930 1_655 S
C108 C106 1.356 . S
C108 C109 1.348 . S
C109 C104 1.353 . S
C109 C108 1.348 . S
C109 H161 0.929 . S
H110 C104 0.930 . S
H111 C107 0.930 1_455 S
C112 N113 1.314 . S
C112 C114 1.353 . S
C112 H118 0.930 . S
N113 Li89 1.990 . S
N113 C112 1.314 . S
N113 C116 1.279 . S
C114 C112 1.353 . S
C114 C117 1.348 . S
C114 H162 0.929 . S
C115 C116 1.358 . S
C115 C117 1.356 . S
C115 H163 0.930 . S
C116 N113 1.279 . S
C116 C115 1.358 . S
C116 H119 0.930 . S
C117 C114 1.348 . S
C117 C115 1.356 . S
H118 C112 0.930 . S
H119 C116 0.930 . S
C120 C122 1.348 . S
C120 C123 1.356 1_545 S
C120 O150 1.325 . S
N121 C124 1.314 . S
N121 C125 1.279 1_545 S
C122 C120 1.348 . S
C122 C124 1.353 . S
C122 H164 0.929 . S
C123 C120 1.356 1_565 S
C123 C125 1.358 . S
C123 H165 0.930 . S
C124 N121 1.314 . S
C124 C122 1.353 . S
C124 H166 0.930 . S
C125 N121 1.279 1_565 S
C125 C123 1.358 . S
C125 H167 0.930 . S
C126 C127 1.348 . S
C126 C128 1.356 . S
C126 O151 1.325 . S
C127 C126 1.348 . S
C127 C129 1.353 . S
C127 H168 0.929 1_455 S
C128 C126 1.356 . S
C128 C130 1.358 . S
C128 H169 0.930 . S
C129 C127 1.353 . S
C129 N131 1.314 . S
C129 H170 0.930 . S
C130 C128 1.358 . S
C130 N131 1.279 . S
C130 H171 0.930 . S
N131 C129 1.314 . S
N131 C130 1.279 . S
C132 C134 1.353 . S
C132 N135 1.314 . S
C132 H138 0.930 . S
C133 N135 1.279 . S
C133 C136 1.358 . S
C133 H139 0.930 . S
C134 C132 1.353 . S
C134 C137 1.348 . S
C134 H172 0.929 1_545 S
N135 Li90 1.990 . S
N135 C132 1.314 . S
N135 C133 1.279 . S
C136 C133 1.358 . S
C136 C137 1.356 . S
C136 H173 0.930 . S
C137 C134 1.348 . S
C137 C136 1.356 . S
H138 C132 0.930 . S
H139 C133 0.930 . S
C140 N141 1.314 . S
C140 C142 1.353 . S
C140 H146 0.930 . S
N141 Li91 1.990 . S
N141 C140 1.314 . S
N141 C144 1.279 . S
C142 C140 1.353 . S
C142 C145 1.348 . S
C142 H174 0.929 . S
C143 C144 1.358 . S
C143 C145 1.356 . S
C143 H175 0.930 . S
C144 N141 1.279 . S
C144 C143 1.358 . S
C144 H147 0.930 . S
C145 C142 1.348 . S
C145 C143 1.356 . S
H146 C140 0.930 . S
H147 C144 0.930 . S
O148 Li88 1.956 . S
O148 Li89 1.970 . S
O148 Li90 1.961 1_455 S
O148 C92 1.325 1_545 S
O149 Li88 1.970 . S
O149 Li89 1.956 . S
O149 Li91 1.961 . S
O149 C98 1.325 . S
O150 Li88 1.961 1_655 S
O150 Li90 1.956 . S
O150 Li91 1.970 1_655 S
O150 C120 1.325 . S
O151 Li89 1.961 . S
O151 Li90 1.970 1_455 S
O151 Li91 1.956 . S
O151 C126 1.325 . S
H152 C94 0.929 . S
H153 C95 0.930 . S
H154 C96 0.930 . S
H155 C97 0.930 . S
H156 C99 0.930 . S
H157 C101 0.929 . S
H158 C102 0.930 . S
H159 C103 0.930 . S
H160 C106 0.930 . S
H161 C109 0.929 . S
H162 C114 0.929 . S
H163 C115 0.930 . S
H164 C122 0.929 . S
H165 C123 0.930 . S
H166 C124 0.930 . S
H167 C125 0.930 . S
H168 C127 0.929 1_655 S
H169 C128 0.930 . S
H170 C129 0.930 . S
H171 C130 0.930 . S
H172 C134 0.929 1_565 S
H173 C136 0.930 . S
H174 C142 0.929 . S
H175 C143 0.930 . S
Li176 N193 1.990 . S
Li176 O236 1.956 . S
Li176 O237 1.970 . S
Li176 O238 1.961 1_455 S
Li177 N201 1.990 . S
Li177 O236 1.970 . S
Li177 O237 1.956 . S
Li177 O239 1.961 1_455 S
Li178 N223 1.990 1_545 S
Li178 O236 1.961 1_655 S
Li178 O238 1.956 . S
Li178 O239 1.970 . S
Li179 N229 1.990 . S
Li179 O237 1.961 1_655 S
Li179 O238 1.970 . S
Li179 O239 1.956 . S
C180 C182 1.348 . S
C180 C183 1.356 1_545 S
C180 O236 1.325 . S
N181 C184 1.314 . S
N181 C185 1.279 1_545 S
C182 C180 1.348 . S
C182 C184 1.353 . S
C182 H240 0.929 . S
C183 C180 1.356 1_565 S
C183 C185 1.358 . S
C183 H241 0.930 . S
C184 N181 1.314 . S
C184 C182 1.353 . S
C184 H242 0.930 . S
C185 N181 1.279 1_565 S
C185 C183 1.358 . S
C185 H243 0.930 . S
C186 C189 1.348 . S
C186 C190 1.356 . S
C186 O237 1.325 . S
C187 N188 1.279 . S
C187 C190 1.358 . S
C187 H244 0.930 . S
N188 C187 1.279 . S
N188 C191 1.314 . S
C189 C186 1.348 . S
C189 C191 1.353 . S
C189 H245 0.929 . S
C190 C186 1.356 . S
C190 C187 1.358 . S
C190 H246 0.930 . S
C191 N188 1.314 . S
C191 C189 1.353 . S
C191 H247 0.930 . S
C192 N193 1.314 . S
C192 C197 1.353 . S
C192 H198 0.930 . S
N193 Li176 1.990 . S
N193 C192 1.314 . S
N193 C195 1.279 . S
C194 C195 1.358 . S
C194 C196 1.356 . S
C194 H248 0.930 . S
C195 N193 1.279 . S
C195 C194 1.358 . S
C195 H199 0.930 . S
C196 C194 1.356 . S
C196 C197 1.348 . S
C197 C192 1.353 . S
C197 C196 1.348 . S
C197 H249 0.929 1_545 S
H198 C192 0.930 . S
H199 C195 0.930 . S
C200 N201 1.314 . S
C200 C202 1.353 . S
C200 H206 0.930 . S
N201 Li177 1.990 . S
N201 C200 1.314 . S
N201 C204 1.279 . S
C202 C200 1.353 . S
C202 C205 1.348 . S
C202 H250 0.929 . S
C203 C204 1.358 . S
C203 C205 1.356 . S
C203 H251 0.930 . S
C204 N201 1.279 . S
C204 C203 1.358 . S
C204 H207 0.930 . S
C205 C202 1.348 . S
C205 C203 1.356 . S
H206 C200 0.930 . S
H207 C204 0.930 . S
C208 C210 1.348 . S
C208 C211 1.356 . S
C208 O238 1.325 1_565 S
N209 C212 1.314 . S
N209 C213 1.279 . S
C210 C208 1.348 . S
C210 C212 1.353 . S
C210 H252 0.929 . S
C211 C208 1.356 . S
C211 C213 1.358 . S
C211 H253 0.930 . S
C212 N209 1.314 . S
C212 C210 1.353 . S
C212 H254 0.930 . S
C213 N209 1.279 . S
C213 C211 1.358 . S
C213 H255 0.930 . S
C214 C215 1.348 . S
C214 C216 1.356 . S
C214 O239 1.325 . S
C215 C214 1.348 . S
C215 C217 1.353 . S
C215 H256 0.929 . S
C216 C214 1.356 . S
C216 C218 1.358 . S
C216 H257 0.930 . S
C217 C215 1.353 . S
C217 N219 1.314 . S
C217 H258 0.930 . S
C218 C216 1.358 . S
C218 N219 1.279 . S
C218 H259 0.930 . S
N219 C217 1.314 . S
N219 C218 1.279 . S
C220 C222 1.353 . S
C220 N223 1.314 . S
C220 H226 0.930 . S
C221 N223 1.279 . S
C221 C224 1.358 . S
C221 H227 0.930 . S
C222 C220 1.353 . S
C222 C225 1.348 . S
C222 H260 0.929 . S
N223 Li178 1.990 1_565 S
N223 C220 1.314 . S
N223 C221 1.279 . S
C224 C221 1.358 . S
C224 C225 1.356 . S
C224 H261 0.930 . S
C225 C222 1.348 . S
C225 C224 1.356 . S
H226 C220 0.930 . S
H227 C221 0.930 . S
C228 N229 1.314 . S
C228 C230 1.353 . S
C228 H234 0.930 . S
N229 Li179 1.990 . S
N229 C228 1.314 . S
N229 C232 1.279 . S
C230 C228 1.353 . S
C230 C233 1.348 . S
C230 H262 0.929 . S
C231 C232 1.358 . S
C231 C233 1.356 . S
C231 H263 0.930 . S
C232 N229 1.279 . S
C232 C231 1.358 . S
C232 H235 0.930 . S
C233 C230 1.348 . S
C233 C231 1.356 . S
H234 C228 0.930 . S
H235 C232 0.930 . S
O236 Li176 1.956 . S
O236 Li177 1.970 . S
O236 Li178 1.961 1_455 S
O236 C180 1.325 . S
O237 Li176 1.970 . S
O237 Li177 1.956 . S
O237 Li179 1.961 1_455 S
O237 C186 1.325 . S
O238 Li176 1.961 1_655 S
O238 Li178 1.956 . S
O238 Li179 1.970 . S
O238 C208 1.325 1_545 S
O239 Li177 1.961 1_655 S
O239 Li178 1.970 . S
O239 Li179 1.956 . S
O239 C214 1.325 . S
H240 C182 0.929 . S
H241 C183 0.930 . S
H242 C184 0.930 . S
H243 C185 0.930 . S
H244 C187 0.930 . S
H245 C189 0.929 . S
H246 C190 0.930 . S
H247 C191 0.930 . S
H248 C194 0.930 . S
H249 C197 0.929 1_565 S
H250 C202 0.929 . S
H251 C203 0.930 . S
H252 C210 0.929 . S
H253 C211 0.930 . S
H254 C212 0.930 . S
H255 C213 0.930 . S
H256 C215 0.929 . S
H257 C216 0.930 . S
H258 C217 0.930 . S
H259 C218 0.930 . S
H260 C222 0.929 . S
H261 C224 0.930 . S
H262 C230 0.929 . S
H263 C231 0.930 . S
C264 C265 1.560 . S
C264 H325 0.959 . S
C264 H326 0.959 . S
C264 H327 0.960 . S
C265 C264 1.560 . S
C265 O320 1.426 . S
C265 H324 0.980 1_655 S
C266 C267 1.407 1_655 S
C266 C271 1.418 . S
C266 O320 1.334 . S
C267 C266 1.407 1_455 S
C267 C268 1.360 . S
C267 H328 0.929 . S
C268 C267 1.360 . S
C268 C269 1.401 . S
C268 C272 1.527 . S
C269 C268 1.401 . S
C269 C270 1.405 1_455 S
C269 C302 1.587 . S
C270 C269 1.405 1_655 S
C270 C271 1.332 . S
C270 C273 1.496 . S
C271 C266 1.418 . S
C271 C270 1.332 . S
C271 H329 0.929 . S
C272 C268 1.527 . S
C272 H330 0.959 . S
C272 H331 0.961 . S
C272 H332 0.961 . S
C273 C270 1.496 . S
C273 H333 0.960 . S
C273 H334 0.960 . S
C273 H335 0.961 . S
C274 C275 1.517 . S
C274 H337 0.961 . S
C274 H338 0.960 . S
C274 H339 0.959 . S
C275 C274 1.517 . S
C275 O323 1.468 . S
C275 H336 0.980 . S
C276 C277 1.349 . S
C276 C281 1.367 . S
C276 O323 1.408 . S
C277 C276 1.349 . S
C277 C278 1.407 . S
C277 H340 0.930 . S
C278 C277 1.407 . S
C278 C279 1.449 . S
C278 C282 1.535 1_455 S
C279 C278 1.449 . S
C279 C280 1.384 . S
C279 C304 1.553 . S
C280 C279 1.384 . S
C280 C281 1.364 . S
C280 C283 1.450 . S
C281 C276 1.367 . S
C281 C280 1.364 . S
C281 H341 0.931 . S
C282 C278 1.535 1_655 S
C282 H342 0.959 . S
C282 H343 0.961 . S
C282 H344 0.959 . S
C283 C280 1.450 . S
C283 H345 0.960 . S
C283 H346 0.960 . S
C283 H347 0.960 . S
C284 C285 1.309 . S
C284 C289 1.304 . S
C284 O322 1.435 . S
C285 C284 1.309 . S
C285 C286 1.476 . S
C285 H349 0.930 1_455 S
C286 C285 1.476 . S
C286 C287 1.400 . S
C286 C290 1.567 1_455 S
C287 C286 1.400 . S
C287 C288 1.373 . S
C287 C309 1.432 . S
C288 C287 1.373 . S
C288 C289 1.339 . S
C288 C291 1.530 . S
C289 C284 1.304 . S
C289 C288 1.339 . S
C289 H350 0.930 . S
C290 C286 1.567 1_655 S
C290 H351 0.961 . S
C290 H352 0.960 . S
C290 H353 0.958 . S
C291 C288 1.530 . S
C291 H354 0.961 . S
C291 H355 0.960 . S
C291 H356 0.960 . S
C292 C293 1.530 1_655 S
C292 H358 0.961 . S
C292 H359 0.961 . S
C292 H360 0.959 . S
C293 C292 1.530 1_455 S
C293 O321 1.412 1_455 S
C293 H357 0.980 . S
C294 C295 1.288 . S
C294 C299 1.377 1_655 S
C294 O321 1.393 . S
C295 C294 1.288 . S
C295 C296 1.369 . S
C295 H361 0.932 . S
C296 C295 1.369 . S
C296 C297 1.398 1_655 S
C296 C300 1.527 . S
C297 C296 1.398 1_455 S
C297 C298 1.380 . S
C297 C311 1.497 . S
C298 C297 1.380 . S
C298 C299 1.383 . S
C298 C301 1.603 . S
C299 C294 1.377 1_455 S
C299 C298 1.383 . S
C299 H362 0.929 . S
C300 C296 1.527 . S
C300 H363 0.961 . S
C300 H364 0.959 . S
C300 H365 0.959 . S
C301 C298 1.603 . S
C301 H366 0.960 . S
C301 H367 0.962 . S
C301 H368 0.961 . S
C302 C269 1.587 . S
C302 C303 1.360 . S
C302 C315 1.412 . S
C303 C302 1.360 . S
C303 C304 1.365 . S
C303 H369 0.929 . S
C304 C279 1.553 . S
C304 C303 1.365 . S
C304 C305 1.404 . S
C305 C304 1.404 . S
C305 C306 1.395 . S
C305 C316 1.451 . S
C306 C305 1.395 . S
C306 C307 1.322 . S
C306 H370 0.930 . S
C307 C306 1.322 . S
C307 C308 1.459 . S
C307 H371 0.929 . S
C308 C307 1.459 . S
C308 C309 1.445 . S
C308 C317 1.395 . S
C309 C287 1.432 . S
C309 C308 1.445 . S
C309 C310 1.370 . S
C310 C309 1.370 . S
C310 C311 1.438 . S
C310 H372 0.930 . S
C311 C297 1.497 . S
C311 C310 1.438 . S
C311 C312 1.360 . S
C312 C311 1.360 . S
C312 C313 1.401 . S
C312 C317 1.446 . S
C313 C312 1.401 . S
C313 C314 1.347 . S
C313 H373 0.929 . S
C314 C313 1.347 . S
C314 C315 1.455 . S
C314 H374 0.930 . S
C315 C302 1.412 . S
C315 C314 1.455 . S
C315 C316 1.331 . S
C316 C305 1.451 . S
C316 C315 1.331 . S
C316 C317 1.497 . S
C317 C308 1.395 . S
C317 C312 1.446 . S
C317 C316 1.497 . S
C318 C319 1.582 . S
C318 H375 0.962 . S
C318 H376 0.959 . S
C318 H377 0.958 . S
C319 C318 1.582 . S
C319 O322 1.458 . S
C319 H348 0.980 . S
O320 C265 1.426 . S
O320 C266 1.334 . S
O321 C293 1.412 1_655 S
O321 C294 1.393 . S
O322 C284 1.435 . S
O322 C319 1.458 . S
O323 C275 1.468 . S
O323 C276 1.408 . S
H324 C265 0.980 1_455 S
H325 C264 0.959 . S
H326 C264 0.959 . S
H327 C264 0.960 . S
H328 C267 0.929 . S
H329 C271 0.929 . S
H330 C272 0.959 . S
H331 C272 0.961 . S
H332 C272 0.961 . S
H333 C273 0.960 . S
H334 C273 0.960 . S
H335 C273 0.961 . S
H336 C275 0.980 . S
H337 C274 0.961 . S
H338 C274 0.960 . S
H339 C274 0.959 . S
H340 C277 0.930 . S
H341 C281 0.931 . S
H342 C282 0.959 . S
H343 C282 0.961 . S
H344 C282 0.959 . S
H345 C283 0.960 . S
H346 C283 0.960 . S
H347 C283 0.960 . S
H348 C319 0.980 . S
H349 C285 0.930 1_655 S
H350 C289 0.930 . S
H351 C290 0.961 . S
H352 C290 0.960 . S
H353 C290 0.958 . S
H354 C291 0.961 . S
H355 C291 0.960 . S
H356 C291 0.960 . S
H357 C293 0.980 . S
H358 C292 0.961 . S
H359 C292 0.961 . S
H360 C292 0.959 . S
H361 C295 0.932 . S
H362 C299 0.929 . S
H363 C300 0.961 . S
H364 C300 0.959 . S
H365 C300 0.959 . S
H366 C301 0.960 . S
H367 C301 0.962 . S
H368 C301 0.961 . S
H369 C303 0.929 . S
H370 C306 0.930 . S
H371 C307 0.929 . S
H372 C310 0.930 . S
H373 C313 0.929 . S
H374 C314 0.930 . S
H375 C318 0.962 . S
H376 C318 0.959 . S
H377 C318 0.958 . S
C378 C379 1.560 1_565 S
C378 H439 0.959 . S
C378 H440 0.959 . S
C378 H441 0.960 1_565 S
C379 C378 1.560 1_545 S
C379 O434 1.426 . S
C379 H438 0.980 . S
C380 C381 1.407 . S
C380 C385 1.418 1_545 S
C380 O434 1.334 . S
C381 C380 1.407 . S
C381 C382 1.360 . S
C381 H442 0.929 . S
C382 C381 1.360 . S
C382 C383 1.401 . S
C382 C386 1.527 . S
C383 C382 1.401 . S
C383 C384 1.405 . S
C383 C416 1.587 . S
C384 C383 1.405 . S
C384 C385 1.332 1_545 S
C384 C387 1.496 1_545 S
C385 C380 1.418 1_565 S
C385 C384 1.332 1_565 S
C385 H443 0.929 . S
C386 C382 1.527 . S
C386 H444 0.959 . S
C386 H445 0.961 . S
C386 H446 0.961 . S
C387 C384 1.496 1_565 S
C387 H447 0.960 . S
C387 H448 0.960 . S
C387 H449 0.961 . S
C388 C389 1.517 . S
C388 H451 0.961 . S
C388 H452 0.960 . S
C388 H453 0.959 . S
C389 C388 1.517 . S
C389 O437 1.468 . S
C389 H450 0.980 . S
C390 C391 1.349 . S
C390 C395 1.367 . S
C390 O437 1.408 . S
C391 C390 1.349 . S
C391 C392 1.407 . S
C391 H454 0.930 . S
C392 C391 1.407 . S
C392 C393 1.449 . S
C392 C396 1.535 . S
C393 C392 1.449 . S
C393 C394 1.384 . S
C393 C418 1.553 . S
C394 C393 1.384 . S
C394 C395 1.364 . S
C394 C397 1.450 . S
C395 C390 1.367 . S
C395 C394 1.364 . S
C395 H455 0.931 . S
C396 C392 1.535 . S
C396 H456 0.959 . S
C396 H457 0.961 1_545 S
C396 H458 0.959 1_545 S
C397 C394 1.450 . S
C397 H459 0.960 . S
C397 H460 0.960 . S
C397 H461 0.960 . S
C398 C399 1.309 . S
C398 C403 1.304 . S
C398 O436 1.435 . S
C399 C398 1.309 . S
C399 C400 1.476 . S
C399 H463 0.930 . S
C400 C399 1.476 . S
C400 C401 1.400 . S
C400 C404 1.567 1_545 S
C401 C400 1.400 . S
C401 C402 1.373 . S
C401 C423 1.432 . S
C402 C401 1.373 . S
C402 C403 1.339 . S
C402 C405 1.530 . S
C403 C398 1.304 . S
C403 C402 1.339 . S
C403 H464 0.930 . S
C404 C400 1.567 1_565 S
C404 H465 0.971 . S
C404 H466 0.960 . S
C404 H467 0.958 . S
C405 C402 1.530 . S
C405 H468 0.961 . S
C405 H469 0.960 . S
C405 H470 0.960 . S
C406 C407 1.530 . S
C406 H472 0.961 . S
C406 H473 0.961 1_545 S
C406 H474 0.959 1_545 S
C407 C406 1.530 . S
C407 O435 1.412 . S
C407 H471 0.980 . S
C408 C409 1.288 1_545 S
C408 C413 1.377 . S
C408 O435 1.393 . S
C409 C408 1.288 1_565 S
C409 C410 1.369 1_565 S
C409 H475 0.932 . S
C410 C409 1.369 1_545 S
C410 C411 1.398 . S
C410 C414 1.527 1_545 S
C411 C410 1.398 . S
C411 C412 1.380 . S
C411 C425 1.497 . S
C412 C411 1.380 . S
C412 C413 1.383 . S
C412 C415 1.603 . S
C413 C408 1.377 . S
C413 C412 1.383 . S
C413 H476 0.929 . S
C414 C410 1.527 1_565 S
C414 H477 0.961 . S
C414 H478 0.959 . S
C414 H479 0.959 . S
C415 C412 1.603 . S
C415 H480 0.960 . S
C415 H481 0.962 . S
C415 H482 0.961 . S
C416 C383 1.587 . S
C416 C417 1.360 . S
C416 C429 1.412 . S
C417 C416 1.360 . S
C417 C418 1.365 . S
C417 H483 0.929 . S
C418 C393 1.553 . S
C418 C417 1.365 . S
C418 C419 1.404 . S
C419 C418 1.404 . S
C419 C420 1.395 . S
C419 C430 1.451 . S
C420 C419 1.395 . S
C420 C421 1.322 . S
C420 H484 0.930 . S
C421 C420 1.322 . S
C421 C422 1.459 . S
C421 H485 0.929 . S
C422 C421 1.459 . S
C422 C423 1.445 . S
C422 C431 1.395 . S
C423 C401 1.432 . S
C423 C422 1.445 . S
C423 C424 1.370 . S
C424 C423 1.370 . S
C424 C425 1.438 . S
C424 H486 0.930 . S
C425 C411 1.497 . S
C425 C424 1.438 . S
C425 C426 1.360 . S
C426 C425 1.360 . S
C426 C427 1.401 . S
C426 C431 1.446 . S
C427 C426 1.401 . S
C427 C428 1.347 . S
C427 H487 0.929 . S
C428 C427 1.347 . S
C428 C429 1.455 . S
C428 H488 0.930 . S
C429 C416 1.412 . S
C429 C428 1.455 . S
C429 C430 1.331 . S
C430 C419 1.451 . S
C430 C429 1.331 . S
C430 C431 1.497 . S
C431 C422 1.395 . S
C431 C426 1.446 . S
C431 C430 1.497 . S
C432 C433 1.582 . S
C432 H489 0.962 . S
C432 H490 0.959 . S
C432 H491 0.958 . S
C433 C432 1.582 . S
C433 O436 1.458 . S
C433 H462 0.980 . S
O434 C379 1.426 . S
O434 C380 1.334 . S
O435 C407 1.412 . S
O435 C408 1.393 . S
O436 C398 1.435 . S
O436 C433 1.458 . S
O437 C389 1.468 . S
O437 C390 1.408 . S
H438 C379 0.980 . S
H439 C378 0.959 . S
H440 C378 0.959 . S
H441 C378 0.960 1_545 S
H442 C381 0.929 . S
H443 C385 0.929 . S
H444 C386 0.959 . S
H445 C386 0.961 . S
H446 C386 0.961 . S
H447 C387 0.960 . S
H448 C387 0.960 . S
H449 C387 0.961 . S
H450 C389 0.980 . S
H451 C388 0.961 . S
H452 C388 0.960 . S
H453 C388 0.959 . S
H454 C391 0.930 . S
H455 C395 0.931 . S
H456 C396 0.959 . S
H457 C396 0.961 1_565 S
H458 C396 0.959 1_565 S
H459 C397 0.960 . S
H460 C397 0.960 . S
H461 C397 0.960 . S
H462 C433 0.980 . S
H463 C399 0.930 . S
H464 C403 0.930 . S
H465 C404 0.971 . S
H466 C404 0.960 . S
H467 C404 0.958 . S
H468 C405 0.961 . S
H469 C405 0.960 . S
H470 C405 0.960 . S
H471 C407 0.980 . S
H472 C406 0.961 . S
H473 C406 0.961 1_565 S
H474 C406 0.959 1_565 S
H475 C409 0.932 . S
H476 C413 0.929 . S
H477 C414 0.961 . S
H478 C414 0.959 . S
H479 C414 0.959 . S
H480 C415 0.960 . S
H481 C415 0.962 . S
H482 C415 0.961 . S
H483 C417 0.929 . S
H484 C420 0.930 . S
H485 C421 0.929 . S
H486 C424 0.930 . S
H487 C427 0.929 . S
H488 C428 0.930 . S
H489 C432 0.962 . S
H490 C432 0.959 . S
H491 C432 0.958 . S
C492 C493 1.560 . S
C492 H553 0.959 . S
C492 H554 0.959 . S
C492 H555 0.960 . S
C493 C492 1.560 . S
C493 O548 1.426 . S
C493 H552 0.980 . S
C494 C495 1.407 . S
C494 C499 1.418 . S
C494 O548 1.334 . S
C495 C494 1.407 . S
C495 C496 1.360 . S
C495 H556 0.929 . S
C496 C495 1.360 . S
C496 C497 1.401 . S
C496 C500 1.527 . S
C497 C496 1.401 . S
C497 C498 1.405 . S
C497 C530 1.587 . S
C498 C497 1.405 . S
C498 C499 1.332 . S
C498 C501 1.496 . S
C499 C494 1.418 . S
C499 C498 1.332 . S
C499 H557 0.929 . S
C500 C496 1.527 . S
C500 H558 0.959 . S
C500 H559 0.961 . S
C500 H560 0.961 . S
C501 C498 1.496 . S
C501 H561 0.960 . S
C501 H562 0.960 . S
C501 H563 0.961 . S
C502 C503 1.517 . S
C502 H565 0.961 . S
C502 H566 0.960 . S
C502 H567 0.959 . S
C503 C502 1.517 . S
C503 O551 1.468 . S
C503 H564 0.980 . S
C504 C505 1.349 . S
C504 C509 1.367 . S
C504 O551 1.408 . S
C505 C504 1.349 . S
C505 C506 1.407 . S
C505 H568 0.930 . S
C506 C505 1.407 . S
C506 C507 1.449 . S
C506 C510 1.535 . S
C507 C506 1.449 . S
C507 C508 1.384 . S
C507 C532 1.553 . S
C508 C507 1.384 . S
C508 C509 1.364 . S
C508 C511 1.450 . S
C509 C504 1.367 . S
C509 C508 1.364 . S
C509 H569 0.931 . S
C510 C506 1.535 . S
C510 H570 0.959 . S
C510 H571 0.961 . S
C510 H572 0.959 . S
C511 C508 1.450 . S
C511 H573 0.960 . S
C511 H574 0.960 . S
C511 H575 0.960 . S
C512 C513 1.309 . S
C512 C517 1.304 . S
C512 O550 1.435 . S
C513 C512 1.309 . S
C513 C514 1.476 . S
C513 H577 0.930 . S
C514 C513 1.476 . S
C514 C515 1.400 . S
C514 C518 1.567 . S
C515 C514 1.400 . S
C515 C516 1.373 . S
C515 C537 1.432 . S
C516 C515 1.373 . S
C516 C517 1.339 . S
C516 C519 1.530 . S
C517 C512 1.304 . S
C517 C516 1.339 . S
C517 H578 0.930 . S
C518 C514 1.567 . S
C518 H579 0.961 . S
C518 H580 0.960 . S
C518 H581 0.958 . S
C519 C516 1.530 . S
C519 H582 0.961 . S
C519 H583 0.960 . S
C519 H584 0.960 . S
C520 C521 1.530 . S
C520 H586 0.961 . S
C520 H587 0.961 . S
C520 H588 0.959 . S
C521 C520 1.530 . S
C521 O549 1.412 . S
C521 H585 0.980 . S
C522 C523 1.288 . S
C522 C527 1.377 . S
C522 O549 1.393 . S
C523 C522 1.288 . S
C523 C524 1.369 . S
C523 H589 0.932 . S
C524 C523 1.369 . S
C524 C525 1.398 . S
C524 C528 1.527 . S
C525 C524 1.398 . S
C525 C526 1.380 . S
C525 C539 1.497 . S
C526 C525 1.380 . S
C526 C527 1.383 . S
C526 C529 1.603 . S
C527 C522 1.377 . S
C527 C526 1.383 . S
C527 H590 0.929 . S
C528 C524 1.527 . S
C528 H591 0.961 . S
C528 H592 0.959 . S
C528 H593 0.959 . S
C529 C526 1.603 . S
C529 H594 0.960 . S
C529 H595 0.962 . S
C529 H596 0.961 . S
C530 C497 1.587 . S
C530 C531 1.360 . S
C530 C543 1.412 . S
C531 C530 1.360 . S
C531 C532 1.365 . S
C531 H597 0.929 . S
C532 C507 1.553 . S
C532 C531 1.365 . S
C532 C533 1.404 . S
C533 C532 1.404 . S
C533 C534 1.395 . S
C533 C544 1.451 . S
C534 C533 1.395 . S
C534 C535 1.322 . S
C534 H598 0.930 . S
C535 C534 1.322 . S
C535 C536 1.459 . S
C535 H599 0.929 . S
C536 C535 1.459 . S
C536 C537 1.445 . S
C536 C545 1.395 . S
C537 C515 1.432 . S
C537 C536 1.445 . S
C537 C538 1.370 . S
C538 C537 1.370 . S
C538 C539 1.438 . S
C538 H600 0.930 . S
C539 C525 1.497 . S
C539 C538 1.438 . S
C539 C540 1.360 . S
C540 C539 1.360 . S
C540 C541 1.401 . S
C540 C545 1.446 . S
C541 C540 1.401 . S
C541 C542 1.347 . S
C541 H601 0.929 . S
C542 C541 1.347 . S
C542 C543 1.455 . S
C542 H602 0.930 . S
C543 C530 1.412 . S
C543 C542 1.455 . S
C543 C544 1.331 . S
C544 C533 1.451 . S
C544 C543 1.331 . S
C544 C545 1.497 . S
C545 C536 1.395 . S
C545 C540 1.446 . S
C545 C544 1.497 . S
C546 C547 1.582 . S
C546 H603 0.962 . S
C546 H604 0.959 . S
C546 H605 0.958 . S
C547 C546 1.582 . S
C547 O550 1.458 . S
C547 H576 0.980 . S
O548 C493 1.426 . S
O548 C494 1.334 . S
O549 C521 1.412 . S
O549 C522 1.393 . S
O550 C512 1.435 . S
O550 C547 1.458 . S
O551 C503 1.468 . S
O551 C504 1.408 . S
H552 C493 0.980 . S
H553 C492 0.959 . S
H554 C492 0.959 . S
H555 C492 0.960 . S
H556 C495 0.929 . S
H557 C499 0.929 . S
H558 C500 0.959 . S
H559 C500 0.961 . S
H560 C500 0.961 . S
H561 C501 0.960 . S
H562 C501 0.960 . S
H563 C501 0.961 . S
H564 C503 0.980 . S
H565 C502 0.961 . S
H566 C502 0.960 . S
H567 C502 0.959 . S
H568 C505 0.930 . S
H569 C509 0.931 . S
H570 C510 0.959 . S
H571 C510 0.961 . S
H572 C510 0.959 . S
H573 C511 0.960 . S
H574 C511 0.960 . S
H575 C511 0.960 . S
H576 C547 0.980 . S
H577 C513 0.930 . S
H578 C517 0.930 . S
H579 C518 0.961 . S
H580 C518 0.960 . S
H581 C518 0.958 . S
H582 C519 0.961 . S
H583 C519 0.960 . S
H584 C519 0.960 . S
H585 C521 0.980 . S
H586 C520 0.961 . S
H587 C520 0.961 . S
H588 C520 0.959 . S
H589 C523 0.932 . S
H590 C527 0.929 . S
H591 C528 0.961 . S
H592 C528 0.959 . S
H593 C528 0.959 . S
H594 C529 0.960 . S
H595 C529 0.962 . S
H596 C529 0.961 . S
H597 C531 0.929 . S
H598 C534 0.930 . S
H599 C535 0.929 . S
H600 C538 0.930 . S
H601 C541 0.929 . S
H602 C542 0.930 . S
H603 C546 0.962 . S
H604 C546 0.959 . S
H605 C546 0.958 . S
H606 C612 0.930 . S
H607 C616 0.930 . S
H608 C621 0.929 . S
H609 C619 0.929 . S
H610 C614 0.929 1_455 S
H611 C620 0.929 . S
C612 H606 0.930 . S
C612 C613 1.367 . S
C612 C620 1.378 . S
C613 C612 1.367 . S
C613 C621 1.433 . S
C614 H610 0.929 1_655 S
C614 C616 1.381 1_655 S
C614 C618 1.347 . S
C615 C618 1.463 . S
C615 C620 1.350 . S
C615 N623 1.427 . S
C616 H607 0.930 . S
C616 C614 1.381 1_455 S
C616 C617 1.367 . S
C617 C616 1.367 . S
C617 C619 1.433 1_455 S
C618 C614 1.347 . S
C618 C615 1.463 . S
C618 N622 1.427 . S
C619 H609 0.929 . S
C619 C617 1.433 1_655 S
C619 N622 1.384 . S
C620 H611 0.929 . S
C620 C612 1.378 . S
C620 C615 1.350 . S
C621 H608 0.929 . S
C621 C613 1.433 . S
C621 N623 1.384 . S
N622 C618 1.427 . S
N622 C619 1.384 . S
N623 C615 1.427 . S
N623 C621 1.384 . S
H624 C630 0.930 . S
H625 C634 0.930 . S
H626 C639 0.929 . S
H627 C637 0.929 . S
H628 C632 0.929 . S
H629 C638 0.929 . S
C630 H624 0.930 . S
C630 C631 1.367 1_565 S
C630 C638 1.378 . S
C631 C630 1.367 1_545 S
C631 C639 1.433 . S
C632 H628 0.929 . S
C632 C634 1.378 . S
C632 C636 1.350 . S
C633 C636 1.463 . S
C633 C638 1.350 1_545 S
C633 N641 1.427 . S
C634 H625 0.930 . S
C634 C632 1.378 . S
C634 C635 1.367 . S
C635 C634 1.367 . S
C635 C637 1.433 1_545 S
C636 C632 1.350 . S
C636 C633 1.463 . S
C636 N640 1.427 1_545 S
C637 H627 0.929 . S
C637 C635 1.433 1_565 S
C637 N640 1.384 . S
C638 H629 0.929 . S
C638 C630 1.378 . S
C638 C633 1.350 1_565 S
C639 H626 0.929 . S
C639 C631 1.433 . S
C639 N641 1.384 . S
N640 C636 1.427 1_565 S
N640 C637 1.384 . S
N641 C633 1.427 . S
N641 C639 1.384 . S
H642 C648 0.930 . S
H643 C652 0.930 . S
H644 C657 0.929 . S
H645 C655 0.929 . S
H646 C650 0.929 . S
H647 C656 0.929 . S
C648 H642 0.930 . S
C648 C649 1.367 . S
C648 C656 1.378 . S
C649 C648 1.367 . S
C649 C657 1.433 . S
C650 H646 0.929 . S
C650 C652 1.378 . S
C650 C654 1.350 . S
C651 C654 1.463 . S
C651 C656 1.350 . S
C651 N659 1.427 . S
C652 H643 0.930 . S
C652 C650 1.378 . S
C652 C653 1.367 . S
C653 C652 1.367 . S
C653 C655 1.433 . S
C654 C650 1.350 . S
C654 C651 1.463 . S
C654 N658 1.427 . S
C655 H645 0.929 . S
C655 C653 1.433 . S
C655 N658 1.384 . S
C656 H647 0.929 . S
C656 C648 1.378 . S
C656 C651 1.350 . S
C657 H644 0.929 . S
C657 C649 1.433 . S
C657 N659 1.384 . S
N658 C654 1.427 . S
N658 C655 1.384 . S
N659 C651 1.427 . S
N659 C657 1.384 . S
H660 C666 0.930 . S
H661 C670 0.930 . S
H662 C675 0.929 . S
H663 C673 0.929 . S
H664 C668 0.929 . S
H665 C674 0.929 . S
C666 H660 0.930 . S
C666 C667 1.367 . S
C666 C674 1.378 . S
C667 C666 1.367 . S
C667 C675 1.433 . S
C668 H664 0.929 . S
C668 C670 1.378 . S
C668 C672 1.350 . S
C669 C672 1.463 . S
C669 C674 1.350 . S
C669 N677 1.427 . S
C670 H661 0.930 . S
C670 C668 1.378 . S
C670 C671 1.367 . S
C671 C670 1.367 . S
C671 C673 1.433 . S
C672 C668 1.350 . S
C672 C669 1.463 . S
C672 N676 1.427 . S
C673 H663 0.929 . S
C673 C671 1.433 . S
C673 N676 1.384 . S
C674 H665 0.929 . S
C674 C666 1.378 . S
C674 C669 1.350 . S
C675 H662 0.929 . S
C675 C667 1.433 . S
C675 N677 1.384 . S
N676 C672 1.427 . S
N676 C673 1.384 . S
N677 C669 1.427 . S
N677 C675 1.384 . S
H678 C684 0.930 . S
H679 C688 0.930 1_565 S
H680 C693 0.929 . S
H681 C691 0.929 . S
H682 C686 0.929 . S
H683 C692 0.929 . S
C684 H678 0.930 . S
C684 C685 1.367 . S
C684 C692 1.378 . S
C685 C684 1.367 . S
C685 C693 1.433 . S
C686 H682 0.929 . S
C686 C688 1.378 . S
C686 C690 1.350 . S
C687 C690 1.463 . S
C687 C692 1.350 . S
C687 N695 1.427 . S
C688 H679 0.930 1_545 S
C688 C686 1.378 . S
C688 C689 1.367 . S
C689 C688 1.367 . S
C689 C691 1.433 . S
C690 C686 1.350 . S
C690 C687 1.463 . S
C690 N694 1.427 . S
C691 H681 0.929 . S
C691 C689 1.433 . S
C691 N694 1.384 . S
C692 H683 0.929 . S
C692 C684 1.378 . S
C692 C687 1.350 . S
C693 H680 0.929 . S
C693 C685 1.433 . S
C693 N695 1.384 . S
N694 C690 1.427 . S
N694 C691 1.384 . S
N695 C687 1.427 . S
N695 C693 1.384 . S
H696 C702 0.930 . S
H697 C706 0.930 . S
H698 C711 0.929 . S
H699 C709 0.929 . S
H700 C704 0.929 . S
H701 C710 0.929 . S
C702 H696 0.930 . S
C702 C703 1.367 . S
C702 C710 1.378 . S
C703 C702 1.367 . S
C703 C711 1.433 . S
C704 H700 0.929 . S
C704 C706 1.378 . S
C704 C708 1.350 . S
C705 C708 1.463 . S
C705 C710 1.350 . S
C705 N713 1.427 . S
C706 H697 0.930 . S
C706 C704 1.378 . S
C706 C707 1.367 . S
C707 C706 1.367 . S
C707 C709 1.433 . S
C708 C704 1.350 . S
C708 C705 1.463 . S
C708 N712 1.427 . S
C709 H699 0.929 . S
C709 C707 1.433 . S
C709 N712 1.384 . S
C710 H701 0.929 . S
C710 C702 1.378 . S
C710 C705 1.350 . S
C711 H698 0.929 . S
C711 C703 1.433 . S
C711 N713 1.384 . S
N712 C708 1.427 . S
N712 C709 1.384 . S
N713 C705 1.427 . S
N713 C711 1.384 . S
H714 C720 0.930 . S
H715 C724 0.916 1_565 S
H716 C729 0.929 . S
H717 C727 0.929 . S
H718 C722 0.929 . S
H719 C728 0.929 . S
C720 H714 0.930 . S
C720 C721 1.367 . S
C720 C728 1.378 . S
C721 C720 1.367 . S
C721 C729 1.433 . S
C722 H718 0.929 . S
C722 C724 1.378 . S
C722 C726 1.350 . S
C723 C726 1.463 . S
C723 C728 1.350 . S
C723 N731 1.427 . S
C724 H715 0.916 1_545 S
C724 C722 1.378 . S
C724 C725 1.367 . S
C725 C724 1.367 . S
C725 C727 1.433 . S
C726 C722 1.350 . S
C726 C723 1.463 . S
C726 N730 1.427 . S
C727 H717 0.929 . S
C727 C725 1.433 . S
C727 N730 1.384 . S
C728 H719 0.929 . S
C728 C720 1.378 . S
C728 C723 1.350 . S
C729 H716 0.929 . S
C729 C721 1.433 . S
C729 N731 1.384 . S
N730 C726 1.427 . S
N730 C727 1.384 . S
N731 C723 1.427 . S
N731 C729 1.384 . S
H732 C738 0.930 1_556 S
H733 C742 0.930 . S
H734 C747 0.929 . S
H735 C745 0.929 . S
H736 C740 0.929 . S
H737 C746 0.929 . S
C738 H732 0.930 1_554 S
C738 C739 1.368 . S
C738 C746 1.377 1_554 S
C739 C738 1.368 . S
C739 C747 1.433 . S
C740 H736 0.929 . S
C740 C742 1.378 . S
C740 C744 1.350 . S
C741 C744 1.463 . S
C741 C746 1.350 . S
C741 N749 1.427 1_556 S
C742 H733 0.930 . S
C742 C740 1.378 . S
C742 C743 1.367 . S
C743 C742 1.367 . S
C743 C745 1.433 . S
C744 C740 1.350 . S
C744 C741 1.463 . S
C744 N748 1.427 . S
C745 H735 0.929 . S
C745 C743 1.433 . S
C745 N748 1.384 . S
C746 H737 0.929 . S
C746 C738 1.377 1_556 S
C746 C741 1.350 . S
C747 H734 0.929 . S
C747 C739 1.433 . S
C747 N749 1.384 . S
N748 C744 1.427 . S
N748 C745 1.384 . S
N749 C741 1.427 1_554 S
N749 C747 1.384 . S
H750 C756 0.930 . S
H751 C760 0.930 . S
H752 C765 0.929 . S
H753 C763 0.929 . S
H754 C758 0.929 . S
H755 C764 0.929 1_455 S
C756 H750 0.930 . S
C756 C757 1.367 . S
C756 C764 1.378 . S
C757 C756 1.367 . S
C757 C765 1.433 . S
C758 H754 0.929 . S
C758 C760 1.378 . S
C758 C762 1.350 . S
C759 C762 1.463 . S
C759 C764 1.350 . S
C759 N767 1.427 . S
C760 H751 0.930 . S
C760 C758 1.378 . S
C760 C761 1.367 1_655 S
C761 C760 1.367 1_455 S
C761 C763 1.433 . S
C762 C758 1.350 . S
C762 C759 1.463 . S
C762 N766 1.427 1_655 S
C763 H753 0.929 . S
C763 C761 1.433 . S
C763 N766 1.384 . S
C764 H755 0.929 1_655 S
C764 C756 1.378 . S
C764 C759 1.350 . S
C765 H752 0.929 . S
C765 C757 1.433 . S
C765 N767 1.384 . S
N766 C762 1.427 1_455 S
N766 C763 1.384 . S
N767 C759 1.427 . S
N767 C765 1.384 . S
H768 C774 0.930 . S
H769 C778 0.930 . S
H770 C783 0.929 . S
H771 C781 0.929 . S
H772 C776 0.929 . S
H773 C782 0.929 . S
C774 H768 0.930 . S
C774 C775 1.367 1_565 S
C774 C782 1.378 . S
C775 C774 1.367 1_545 S
C775 C783 1.433 . S
C776 H772 0.929 . S
C776 C778 1.378 . S
C776 C780 1.350 . S
C777 C780 1.463 . S
C777 C782 1.350 1_545 S
C777 N785 1.427 . S
C778 H769 0.930 . S
C778 C776 1.378 . S
C778 C779 1.367 . S
C779 C778 1.367 . S
C779 C781 1.433 1_545 S
C780 C776 1.350 . S
C780 C777 1.463 . S
C780 N784 1.427 1_545 S
C781 H771 0.929 . S
C781 C779 1.433 1_565 S
C781 N784 1.384 . S
C782 H773 0.929 . S
C782 C774 1.378 . S
C782 C777 1.350 1_565 S
C783 H770 0.929 . S
C783 C775 1.433 . S
C783 N785 1.384 . S
N784 C780 1.427 1_565 S
N784 C781 1.384 . S
N785 C777 1.427 . S
N785 C783 1.384 . S
H786 C792 0.930 . S
H787 C796 0.930 . S
H788 C801 0.929 . S
H789 C799 0.929 . S
H790 C794 0.929 . S
H791 C800 0.929 . S
C792 H786 0.930 . S
C792 C793 1.367 1_556 S
C792 C800 1.378 . S
C793 C792 1.367 1_554 S
C793 C801 1.433 . S
C794 H790 0.929 . S
C794 C796 1.378 . S
C794 C798 1.350 . S
C795 C798 1.463 . S
C795 C800 1.350 . S
C795 N803 1.427 1_556 S
C796 H787 0.930 . S
C796 C794 1.378 . S
C796 C797 1.367 . S
C797 C796 1.367 . S
C797 C799 1.433 . S
C798 C794 1.350 . S
C798 C795 1.463 . S
C798 N802 1.427 . S
C799 H789 0.929 . S
C799 C797 1.433 . S
C799 N802 1.384 . S
C800 H791 0.929 . S
C800 C792 1.378 . S
C800 C795 1.350 . S
C801 H788 0.929 . S
C801 C793 1.433 . S
C801 N803 1.384 . S
N802 C798 1.427 . S
N802 C799 1.384 . S
N803 C795 1.427 1_554 S
N803 C801 1.384 . S
H804 C810 0.930 . S
H805 C814 0.930 . S
H806 C819 0.929 . S
H807 C817 0.929 . S
H808 C812 0.929 1_655 S
H809 C818 0.929 . S
C810 H804 0.930 . S
C810 C811 1.367 . S
C810 C818 1.378 . S
C811 C810 1.367 . S
C811 C819 1.433 . S
C812 H808 0.929 1_455 S
C812 C814 1.378 1_455 S
C812 C816 1.350 . S
C813 C816 1.463 . S
C813 C818 1.350 . S
C813 N821 1.427 . S
C814 H805 0.930 . S
C814 C812 1.378 1_655 S
C814 C815 1.367 1_655 S
C815 C814 1.367 1_455 S
C815 C817 1.433 . S
C816 C812 1.350 . S
C816 C813 1.463 . S
C816 N820 1.427 . S
C817 H807 0.929 . S
C817 C815 1.433 . S
C817 N820 1.384 . S
C818 H809 0.929 . S
C818 C810 1.378 . S
C818 C813 1.350 . S
C819 H806 0.929 . S
C819 C811 1.433 . S
C819 N821 1.384 . S
N820 C816 1.427 . S
N820 C817 1.384 . S
N821 C813 1.427 . S
N821 C819 1.384 . S
C617 C319 1.193 . S
C613 C29 1.497 . S
C631 C137 1.503 . S
C635 C433 1.174 . S
C649 C225 1.244 . S
C653 C493 0.979 . S
C667 C49 1.324 . S
C671 C293 1.116 . S
C689 C407 1.119 . S
C685 C117 1.329 . S
C703 C205 1.409 . S
C707 C503 0.776 . S
C725 C389 0.807 . S
C721 C233 1.416 . S
C739 C57 1.319 . S
C743 C521 1.141 . S
C761 C265 0.971 1_455 S
C757 C108 1.231 . S
C779 C379 0.964 . S
C775 C196 1.245 . S
C797 C547 1.190 . S
C793 C20 1.500 . S
C811 C145 1.423 . S
C815 C275 0.818 . S
