# Generated by pormake.
# Topology hwx, (6,3)-cn, num edge types: 1
# Building blocks:
#     Node 0, Type 0, BuildingBlock: IZENUY_clean_sbu_0, # of connection points: 6
#     Node 1, Type 0, BuildingBlock: IZENUY_clean_sbu_0, # of connection points: 6
#     Node 2, Type 0, BuildingBlock: IZENUY_clean_sbu_0, # of connection points: 6
#     Node 3, Type 0, BuildingBlock: IZENUY_clean_sbu_0, # of connection points: 6
#     Node 4, Type 1, BuildingBlock: BELTOD_clean_linker_0, # of connection points: 3
#     Node 5, Type 1, BuildingBlock: BELTOD_clean_linker_0, # of connection points: 3
#     Node 6, Type 1, BuildingBlock: BELTOD_clean_linker_0, # of connection points: 3
#     Node 7, Type 1, BuildingBlock: BELTOD_clean_linker_0, # of connection points: 3
#     Node 8, Type 1, BuildingBlock: BELTOD_clean_linker_0, # of connection points: 3
#     Node 9, Type 1, BuildingBlock: BELTOD_clean_linker_0, # of connection points: 3
#     Node 10, Type 1, BuildingBlock: BELTOD_clean_linker_0, # of connection points: 3
#     Node 11, Type 1, BuildingBlock: BELTOD_clean_linker_0, # of connection points: 3
#     Edge 12, Type (0, 1), BuildingBlock: CIFDUS_clean_linker_0, # of connection points: 2
#     Edge 13, Type (0, 1), BuildingBlock: CIFDUS_clean_linker_0, # of connection points: 2
#     Edge 14, Type (0, 1), BuildingBlock: CIFDUS_clean_linker_0, # of connection points: 2
#     Edge 15, Type (0, 1), BuildingBlock: CIFDUS_clean_linker_0, # of connection points: 2
#     Edge 16, Type (0, 1), BuildingBlock: CIFDUS_clean_linker_0, # of connection points: 2
#     Edge 17, Type (0, 1), BuildingBlock: CIFDUS_clean_linker_0, # of connection points: 2
#     Edge 18, Type (0, 1), BuildingBlock: CIFDUS_clean_linker_0, # of connection points: 2
#     Edge 19, Type (0, 1), BuildingBlock: CIFDUS_clean_linker_0, # of connection points: 2
#     Edge 20, Type (0, 1), BuildingBlock: CIFDUS_clean_linker_0, # of connection points: 2
#     Edge 21, Type (0, 1), BuildingBlock: CIFDUS_clean_linker_0, # of connection points: 2
#     Edge 22, Type (0, 1), BuildingBlock: CIFDUS_clean_linker_0, # of connection points: 2
#     Edge 23, Type (0, 1), BuildingBlock: CIFDUS_clean_linker_0, # of connection points: 2
#     Edge 24, Type (0, 1), BuildingBlock: CIFDUS_clean_linker_0, # of connection points: 2
#     Edge 25, Type (0, 1), BuildingBlock: CIFDUS_clean_linker_0, # of connection points: 2
#     Edge 26, Type (0, 1), BuildingBlock: CIFDUS_clean_linker_0, # of connection points: 2
#     Edge 27, Type (0, 1), BuildingBlock: CIFDUS_clean_linker_0, # of connection points: 2
#     Edge 28, Type (0, 1), BuildingBlock: CIFDUS_clean_linker_0, # of connection points: 2
#     Edge 29, Type (0, 1), BuildingBlock: CIFDUS_clean_linker_0, # of connection points: 2
#     Edge 30, Type (0, 1), BuildingBlock: CIFDUS_clean_linker_0, # of connection points: 2
#     Edge 31, Type (0, 1), BuildingBlock: CIFDUS_clean_linker_0, # of connection points: 2
#     Edge 32, Type (0, 1), BuildingBlock: CIFDUS_clean_linker_0, # of connection points: 2
#     Edge 33, Type (0, 1), BuildingBlock: CIFDUS_clean_linker_0, # of connection points: 2
#     Edge 34, Type (0, 1), BuildingBlock: CIFDUS_clean_linker_0, # of connection points: 2
#     Edge 35, Type (0, 1), BuildingBlock: CIFDUS_clean_linker_0, # of connection points: 2
# Relax obj value: 0.046
# Max RMSD: 0.072
# Mean RMSD: 0.062
data_MOF--net-hwx--node1-IZENUY_clean_sbu_0--node2-BELTOD_clean_linker_0--edge1-CIFDUS_clean_linker_0
_symmetry_space_group_name_H-M    P1
_symmetry_Int_Tables_number       1
_symmetry_cell_setting            triclinic
loop_
_symmetry_equiv_pos_as_xyz
'x, y, z'
_cell_length_a     48.274989
_cell_length_b     48.388741
_cell_length_c     23.006813
_cell_angle_alpha  89.343585
_cell_angle_beta   90.554958
_cell_angle_gamma 89.973872
loop_
_atom_site_label
_atom_site_type_symbol
_atom_site_fract_x
_atom_site_fract_y
_atom_site_fract_z
_atom_type_partial_charge
Fe0 Fe 0.22726 0.20665 0.02867 0.0
Fe1 Fe 0.23308 0.20119 0.89713 0.0
O2 O 0.22127 0.18786 0.96436 0.0
Fe3 Fe 0.20359 0.15576 0.96653 0.0
O4 O 0.18074 0.16491 0.02746 0.0
O5 O 0.19071 0.20849 0.04317 0.0
O6 O 0.22307 0.24058 0.99294 0.0
C7 C 0.21129 0.24737 0.94532 0.0
C8 C 0.23704 0.15093 0.06301 0.0
O9 O 0.21101 0.23128 0.90249 0.0
C10 C 0.24722 0.1472 0.88643 0.0
O11 O 0.26469 0.20655 0.01855 0.0
O12 O 0.26251 0.22009 0.92751 0.0
O13 O 0.22939 0.14094 0.01514 0.0
O14 O 0.2319 0.17585 0.07547 0.0
C15 C 0.18169 0.17739 0.86675 0.0
O16 O 0.2558 0.17182 0.88855 0.0
O17 O 0.2236 0.14078 0.90648 0.0
C18 C 0.27605 0.21697 0.97434 0.0
O19 O 0.20584 0.18503 0.85341 0.0
O20 O 0.17652 0.16855 0.91727 0.0
C21 C 0.17438 0.18835 0.04747 0.0
Fe22 Fe 0.26112 0.70444 0.55789 0.0
Fe23 Fe 0.29963 0.66775 0.48773 0.0
O24 O 0.27396 0.69396 0.48983 0.0
Fe25 Fe 0.26147 0.7099 0.42504 0.0
O26 O 0.25809 0.74444 0.45741 0.0
O27 O 0.27426 0.739 0.54672 0.0
O28 O 0.29309 0.69692 0.59807 0.0
C29 C 0.31781 0.69735 0.58067 0.0
C30 C 0.21332 0.70761 0.48605 0.0
O31 O 0.32365 0.68834 0.53099 0.0
C32 C 0.26584 0.65277 0.39731 0.0
O33 O 0.24751 0.67021 0.57253 0.0
O34 O 0.28651 0.64912 0.55196 0.0
O35 O 0.22579 0.7009 0.44056 0.0
O36 O 0.22676 0.7143 0.53105 0.0
C37 C 0.31627 0.7045 0.39771 0.0
O38 O 0.27755 0.64587 0.44453 0.0
O39 O 0.26297 0.67796 0.38229 0.0
C40 C 0.26255 0.64885 0.57429 0.0
O41 O 0.31691 0.68104 0.42242 0.0
O42 O 0.29595 0.72044 0.40381 0.0
C43 C 0.26909 0.75426 0.50313 0.0
Fe44 Fe 0.76527 0.78479 0.95932 0.0
Fe45 Fe 0.76928 0.78107 0.09231 0.0
O46 O 0.77602 0.79901 0.02649 0.0
Fe47 Fe 0.79348 0.83111 0.02853 0.0
O48 O 0.77564 0.84587 0.96452 0.0
O49 O 0.74452 0.81482 0.94078 0.0
O50 O 0.73326 0.7693 0.9888 0.0
C51 C 0.72005 0.77536 0.03442 0.0
C52 C 0.8185 0.80739 0.93545 0.0
O53 O 0.73257 0.78344 0.07939 0.0
C54 C 0.82175 0.79866 0.11381 0.0
O55 O 0.78539 0.75374 0.97225 0.0
O56 O 0.77105 0.74637 0.06106 0.0
O57 O 0.82133 0.81814 0.98479 0.0
O58 O 0.79525 0.79804 0.91854 0.0
C59 C 0.75997 0.83693 0.1219 0.0
O60 O 0.80592 0.77806 0.10881 0.0
O61 O 0.8148 0.822 0.09262 0.0
C62 C 0.78295 0.73802 0.01579 0.0
O63 O 0.76596 0.8123 0.13633 0.0
O64 O 0.76666 0.84633 0.07267 0.0
C65 C 0.7536 0.83917 0.93793 0.0
Fe66 Fe 0.70206 0.34661 0.54259 0.0
Fe67 Fe 0.73492 0.29825 0.59656 0.0
O68 O 0.71889 0.31433 0.53554 0.0
Fe69 Fe 0.71978 0.29826 0.46699 0.0
O70 O 0.72016 0.33065 0.42512 0.0
O71 O 0.72553 0.36292 0.49071 0.0
O72 O 0.7249 0.35916 0.60123 0.0
C73 C 0.74893 0.35176 0.61768 0.0
C74 C 0.66712 0.31755 0.46357 0.0
O75 O 0.75743 0.32763 0.60821 0.0
C76 C 0.71235 0.25307 0.5447 0.0
O77 O 0.67781 0.33215 0.59455 0.0
O78 O 0.70927 0.31086 0.64869 0.0
O79 O 0.68236 0.29637 0.4634 0.0
O80 O 0.67589 0.3399 0.48555 0.0
C81 C 0.77277 0.28923 0.50523 0.0
O82 O 0.71362 0.26766 0.5896 0.0
O83 O 0.71971 0.26282 0.496 0.0
C84 C 0.68478 0.31986 0.64119 0.0
O85 O 0.76339 0.28283 0.5549 0.0
O86 O 0.7572 0.29948 0.46633 0.0
C87 C 0.72816 0.35455 0.43924 0.0
P88 P 0.22083 0.49119 0.99382 0.0
H89 H 0.23158 0.48419 0.11805 0.0
H90 H 0.22935 0.51554 0.19939 0.0
H91 H 0.19839 0.57995 0.08397 0.0
H92 H 0.19784 0.5476 0.00449 0.0
H93 H 0.19458 0.46191 0.89636 0.0
H94 H 0.17623 0.41542 0.88947 0.0
H95 H 0.18459 0.40576 0.07605 0.0
H96 H 0.20025 0.45292 0.08283 0.0
H97 H 0.26478 0.51483 0.92338 0.0
H98 H 0.17546 0.51296 0.92024 0.0
O99 O 0.25289 0.47877 0.00245 0.0
H100 H 0.26467 0.54452 0.8375 0.0
H101 H 0.17516 0.54272 0.83297 0.0
C102 C 0.21461 0.51325 0.05499 0.0
C103 C 0.22313 0.50467 0.11068 0.0
C104 C 0.22246 0.52295 0.1571 0.0
C105 C 0.21431 0.55066 0.14838 0.0
C106 C 0.20458 0.55881 0.0929 0.0
C107 C 0.20449 0.54022 0.04686 0.0
C108 C 0.19868 0.46128 0.99029 0.0
C109 C 0.19115 0.45037 0.93616 0.0
C110 C 0.18111 0.42337 0.93214 0.0
C111 C 0.17958 0.40628 0.98195 0.0
C112 C 0.18516 0.41807 0.03651 0.0
C113 C 0.19444 0.4453 0.04054 0.0
C114 C 0.22014 0.51125 0.92745 0.0
C115 C 0.2451 0.52038 0.90353 0.0
C116 C 0.24501 0.53731 0.85419 0.0
C117 C 0.2199 0.54567 0.82799 0.0
C118 C 0.19482 0.53656 0.85217 0.0
C119 C 0.19496 0.51946 0.90165 0.0
P120 P 0.98766 0.82663 0.52704 0.0
H121 H 0.95504 0.86287 0.60019 0.0
H122 H 0.9218 0.85371 0.67761 0.0
H123 H 0.93645 0.76608 0.66191 0.0
H124 H 0.97012 0.7754 0.58494 0.0
H125 H 0.03707 0.82596 0.59925 0.0
H126 H 0.07789 0.79622 0.6027 0.0
H127 H 0.04267 0.74616 0.46623 0.0
H128 H 0.00197 0.77636 0.46253 0.0
H129 H 0.93794 0.79513 0.49441 0.0
H130 H 0.99621 0.84993 0.41115 0.0
O131 O 0.99943 0.85897 0.53141 0.0
H132 H 0.91131 0.7923 0.40465 0.0
H133 H 0.96985 0.84663 0.31994 0.0
C134 C 0.96533 0.81985 0.5876 0.0
C135 C 0.95149 0.84173 0.61409 0.0
C136 C 0.9325 0.83647 0.65823 0.0
C137 C 0.92666 0.80919 0.67572 0.0
C138 C 0.94057 0.78728 0.64908 0.0
C139 C 0.95991 0.7926 0.60553 0.0
C140 C 0.01685 0.80367 0.52993 0.0
C141 C 0.03815 0.80856 0.57013 0.0
C142 C 0.06133 0.79137 0.5724 0.0
C143 C 0.06352 0.76881 0.53468 0.0
C144 C 0.04172 0.76357 0.49532 0.0
C145 C 0.01846 0.78081 0.4932 0.0
C146 C 0.96869 0.82331 0.45987 0.0
C147 C 0.94512 0.8065 0.45679 0.0
C148 C 0.93004 0.80463 0.40502 0.0
C149 C 0.93842 0.8193 0.35511 0.0
C150 C 0.96264 0.8354 0.35786 0.0
C151 C 0.97772 0.83728 0.40986 0.0
P152 P 0.84425 0.4853 0.03802 0.0
H153 H 0.86802 0.46761 0.92756 0.0
H154 H 0.84743 0.44784 0.83977 0.0
H155 H 0.76678 0.45037 0.91953 0.0
H156 H 0.78746 0.47055 0.0065 0.0
H157 H 0.87373 0.53639 0.00764 0.0
H158 H 0.86035 0.58519 0.01131 0.0
H159 H 0.7791 0.5614 0.07109 0.0
H160 H 0.79268 0.51282 0.06785 0.0
H161 H 0.82422 0.42916 0.0629 0.0
H162 H 0.83898 0.50413 0.15791 0.0
O163 O 0.8787 0.48256 0.03669 0.0
H164 H 0.80545 0.4074 0.15028 0.0
H165 H 0.81966 0.48269 0.24531 0.0
C166 C 0.8293 0.47015 0.97383 0.0
C167 C 0.84592 0.46381 0.92617 0.0
C168 C 0.83413 0.45246 0.87603 0.0
C169 C 0.80545 0.44746 0.87258 0.0
C170 C 0.78886 0.45426 0.92034 0.0
C171 C 0.80069 0.4656 0.97034 0.0
C172 C 0.83435 0.5211 0.03854 0.0
C173 C 0.85307 0.54172 0.02159 0.0
C174 C 0.84534 0.56956 0.02337 0.0
C175 C 0.81876 0.5771 0.04204 0.0
C176 C 0.79988 0.55625 0.05754 0.0
C177 C 0.80757 0.52849 0.05543 0.0
C178 C 0.83203 0.46859 0.10333 0.0
C179 C 0.82321 0.44103 0.10241 0.0
C180 C 0.81242 0.42864 0.15244 0.0
C181 C 0.81054 0.4435 0.20452 0.0
C182 C 0.82074 0.47069 0.20595 0.0
C183 C 0.83156 0.48305 0.15584 0.0
P184 P 0.02632 0.23976 0.4543 0.0
H185 H 0.01273 0.24427 0.33137 0.0
H186 H 0.03359 0.22387 0.24542 0.0
H187 H 0.08374 0.17088 0.35637 0.0
H188 H 0.06213 0.19056 0.44161 0.0
H189 H 0.98948 0.28681 0.46932 0.0
H190 H 0.93958 0.29077 0.48192 0.0
H191 H 0.9315 0.20218 0.46886 0.0
H192 H 0.98186 0.19833 0.45506 0.0
H193 H 0.08322 0.241 0.49391 0.0
H194 H 0.00515 0.21214 0.56117 0.0
O195 O 0.03864 0.27144 0.4414 0.0
H196 H 0.10655 0.22542 0.58285 0.0
H197 H 0.02853 0.19632 0.65052 0.0
C198 C 0.03609 0.21925 0.3929 0.0
C199 C 0.02762 0.22767 0.33706 0.0
C200 C 0.03974 0.21615 0.28799 0.0
C201 C 0.06074 0.19609 0.29396 0.0
C202 C 0.06759 0.18619 0.35003 0.0
C203 C 0.05535 0.19767 0.39907 0.0
C204 C 0.9893 0.24228 0.46067 0.0
C205 C 0.97704 0.26821 0.46838 0.0
C206 C 0.94849 0.27049 0.47554 0.0
C207 C 0.93171 0.2468 0.47608 0.0
C208 C 0.94403 0.22074 0.46869 0.0
C209 C 0.97266 0.21854 0.46056 0.0
C210 C 0.04251 0.22775 0.52078 0.0
C211 C 0.07111 0.23125 0.52782 0.0
C212 C 0.08443 0.22216 0.57852 0.0
C213 C 0.06938 0.20943 0.62346 0.0
C214 C 0.04061 0.20613 0.61664 0.0
C215 C 0.02727 0.21508 0.56542 0.0
P216 P 0.75355 0.00162 0.52345 0.0
H217 H 0.78173 0.00375 0.41269 0.0
H218 H 0.77567 0.97837 0.3225 0.0
H219 H 0.70315 0.93837 0.39308 0.0
H220 H 0.70954 0.96388 0.48374 0.0
H221 H 0.76939 0.05087 0.58585 0.0
H222 H 0.75244 0.09835 0.58343 0.0
H223 H 0.68929 0.07544 0.45864 0.0
H224 H 0.70638 0.02767 0.46149 0.0
H225 H 0.75517 0.94261 0.54908 0.0
H226 H 0.72847 0.01669 0.63497 0.0
O227 O 0.78788 0.00436 0.53051 0.0
H228 H 0.74767 0.91602 0.63837 0.0
H229 H 0.72135 0.99023 0.72454 0.0
C230 C 0.74663 0.98496 0.45538 0.0
C231 C 0.76442 0.98965 0.40862 0.0
C232 C 0.76075 0.97533 0.35683 0.0
C233 C 0.73906 0.95616 0.35081 0.0
C234 C 0.72031 0.95268 0.39679 0.0
C235 C 0.72395 0.96717 0.44859 0.0
C236 C 0.73944 0.03596 0.52314 0.0
C237 C 0.7518 0.05602 0.55821 0.0
C238 C 0.74191 0.08307 0.55721 0.0
C239 C 0.71951 0.09057 0.52089 0.0
C240 C 0.70669 0.07022 0.48675 0.0
C241 C 0.71646 0.04299 0.48829 0.0
C242 C 0.74196 0.98156 0.58487 0.0
C243 C 0.74687 0.95302 0.58654 0.0
C244 C 0.74258 0.93783 0.63762 0.0
C245 C 0.73387 0.95109 0.68834 0.0
C246 C 0.72809 0.97953 0.68607 0.0
C247 C 0.73209 0.99464 0.63471 0.0
P248 P 0.50712 0.3305 0.03497 0.0
H249 H 0.50875 0.36042 0.92441 0.0
H250 H 0.5386 0.35714 0.83997 0.0
H251 H 0.57968 0.28636 0.91836 0.0
H252 H 0.5502 0.29046 0.00383 0.0
H253 H 0.44957 0.34291 0.06147 0.0
H254 H 0.40712 0.31552 0.05801 0.0
H255 H 0.45389 0.24457 0.00318 0.0
H256 H 0.49654 0.2724 0.00505 0.0
H257 H 0.54667 0.36373 0.09916 0.0
H258 H 0.51341 0.28116 0.11112 0.0
O259 O 0.49773 0.36368 0.03737 0.0
H260 H 0.57513 0.35486 0.18567 0.0
H261 H 0.54162 0.27224 0.19805 0.0
C262 C 0.52763 0.32602 0.97081 0.0
C263 C 0.52416 0.34416 0.92342 0.0
C264 C 0.54113 0.3421 0.87482 0.0
C265 C 0.56175 0.32159 0.87234 0.0
C266 C 0.56442 0.30275 0.91923 0.0
C267 C 0.54747 0.30495 0.96801 0.0
C268 C 0.47615 0.3098 0.03269 0.0
C269 C 0.45079 0.32154 0.04834 0.0
C270 C 0.42656 0.30587 0.0466 0.0
C271 C 0.42734 0.27802 0.03034 0.0
C272 C 0.45285 0.266 0.01613 0.0
C273 C 0.47711 0.28189 0.01683 0.0
C274 C 0.52754 0.32332 0.09925 0.0
C275 C 0.54527 0.34378 0.12076 0.0
C276 C 0.56142 0.33872 0.17039 0.0
C277 C 0.56036 0.31295 0.19915 0.0
C278 C 0.54289 0.29229 0.17685 0.0
C279 C 0.52663 0.29744 0.12723 0.0
P280 P 0.33099 0.00586 0.47849 0.0
H281 H 0.35766 0.01882 0.59029 0.0
H282 H 0.33966 0.03827 0.68028 0.0
H283 H 0.25735 0.03971 0.60477 0.0
H284 H 0.27543 0.02029 0.51541 0.0
H285 H 0.35975 0.95321 0.49422 0.0
H286 H 0.34429 0.90519 0.4897 0.0
H287 H 0.26164 0.9328 0.44488 0.0
H288 H 0.27722 0.98088 0.44961 0.0
H289 H 0.32899 0.06562 0.46861 0.0
H290 H 0.30716 0.9963 0.36136 0.0
O291 O 0.36553 0.00718 0.47911 0.0
H292 H 0.31153 0.09735 0.39381 0.0
H293 H 0.28794 0.02771 0.28797 0.0
C294 C 0.31787 0.0183 0.54617 0.0
C295 C 0.33573 0.02315 0.59333 0.0
C296 C 0.32544 0.03429 0.64465 0.0
C297 C 0.29709 0.0405 0.6496 0.0
C298 C 0.2792 0.03478 0.60268 0.0
C299 C 0.28953 0.0238 0.55144 0.0
C300 C 0.31979 0.9706 0.47094 0.0
C301 C 0.33838 0.94897 0.48279 0.0
C302 C 0.32948 0.92154 0.48065 0.0
C303 C 0.30178 0.91529 0.46675 0.0
C304 C 0.28318 0.93703 0.45494 0.0
C305 C 0.29206 0.96448 0.4577 0.0
C306 C 0.3186 0.02859 0.42141 0.0
C307 C 0.3201 0.05722 0.42918 0.0
C308 C 0.30989 0.07535 0.38646 0.0
C309 C 0.29784 0.06519 0.33502 0.0
C310 C 0.29717 0.03639 0.32675 0.0
C311 C 0.30779 0.01829 0.36924 0.0
P312 P 0.46397 0.79219 0.98732 0.0
H313 H 0.41902 0.81917 0.04745 0.0
H314 H 0.39103 0.80618 0.13062 0.0
H315 H 0.43798 0.73026 0.14946 0.0
H316 H 0.46395 0.74244 0.06261 0.0
H317 H 0.50354 0.78269 0.89466 0.0
H318 H 0.55291 0.77199 0.89559 0.0
H319 H 0.55087 0.76331 0.08289 0.0
H320 H 0.50232 0.77628 0.0817 0.0
H321 H 0.42265 0.81929 0.91389 0.0
H322 H 0.46208 0.73941 0.92575 0.0
O323 O 0.46605 0.8266 0.98484 0.0
H324 H 0.39316 0.80292 0.83469 0.0
H325 H 0.43245 0.72281 0.84605 0.0
C326 C 0.44435 0.78232 0.05038 0.0
C327 C 0.42334 0.79978 0.06976 0.0
C328 C 0.40746 0.79236 0.11787 0.0
C329 C 0.41246 0.76736 0.14822 0.0
C330 C 0.43324 0.74961 0.12751 0.0
C331 C 0.44856 0.75676 0.07827 0.0
C332 C 0.49895 0.77935 0.98792 0.0
C333 C 0.51365 0.77795 0.93579 0.0
C334 C 0.54193 0.77169 0.9364 0.0
C335 C 0.55604 0.76675 0.98933 0.0
C336 C 0.5409 0.76739 0.04131 0.0
C337 C 0.51285 0.77427 0.04067 0.0
C338 C 0.44486 0.7807 0.92481 0.0
C339 C 0.4253 0.79836 0.8987 0.0
C340 C 0.40838 0.78895 0.85368 0.0
C341 C 0.41058 0.76162 0.83425 0.0
C342 C 0.43061 0.74407 0.85969 0.0
C343 C 0.44746 0.7535 0.90519 0.0
H344 H 0.1469 0.14995 0.11362 0.0
H345 H 0.14559 0.23575 0.06033 0.0
H346 H 0.10822 0.24492 0.12779 0.0
H347 H 0.07967 0.23 0.20884 0.0
H348 H 0.08123 0.14482 0.26613 0.0
H349 H 0.11477 0.134 0.19047 0.0
C350 C 0.13801 0.17048 0.11608 0.0
C351 C 0.14912 0.19218 0.08234 0.0
C352 C 0.11684 0.17583 0.15621 0.0
C353 C 0.13758 0.21876 0.08626 0.0
C354 C 0.11622 0.22405 0.12486 0.0
C355 C 0.0867 0.20888 0.20394 0.0
C356 C 0.07789 0.18828 0.24322 0.0
C357 C 0.1062 0.20293 0.16108 0.0
C358 C 0.08785 0.16115 0.23685 0.0
C359 C 0.107 0.15494 0.19352 0.0
H360 H 0.21988 0.64581 0.65111 0.0
H361 H 0.28703 0.5982 0.58014 0.0
H362 H 0.27756 0.56067 0.64859 0.0
H363 H 0.25321 0.54319 0.73411 0.0
H364 H 0.18767 0.59146 0.80876 0.0
H365 H 0.19305 0.62658 0.73242 0.0
C366 C 0.23223 0.6271 0.65011 0.0
C367 C 0.25441 0.62502 0.61112 0.0
C368 C 0.227 0.60572 0.69031 0.0
C369 C 0.27008 0.60053 0.61022 0.0
C370 C 0.26469 0.57902 0.64932 0.0
C371 C 0.24002 0.56136 0.73349 0.0
C372 C 0.22033 0.5649 0.77738 0.0
C373 C 0.24371 0.58172 0.69051 0.0
C374 C 0.20293 0.5882 0.77532 0.0
C375 C 0.20615 0.60839 0.73198 0.0
H376 H 0.85643 0.84021 0.1451 0.0
H377 H 0.84186 0.7529 0.17131 0.0
H378 H 0.87868 0.75113 0.24471 0.0
H379 H 0.91232 0.77513 0.30689 0.0
H380 H 0.92501 0.86286 0.28375 0.0
H381 H 0.89203 0.86352 0.20276 0.0
C382 C 0.86144 0.82069 0.1664 0.0
C383 C 0.8461 0.79681 0.15323 0.0
C384 C 0.8823 0.8199 0.20917 0.0
C385 C 0.85311 0.77167 0.18096 0.0
C386 C 0.87416 0.77064 0.22302 0.0
C387 C 0.90789 0.79438 0.28405 0.0
C388 C 0.92093 0.81894 0.30172 0.0
C389 C 0.88841 0.79476 0.23842 0.0
C390 C 0.91545 0.84361 0.27082 0.0
C391 C 0.89641 0.84406 0.2248 0.0
H392 H 0.73252 0.39979 0.66765 0.0
H393 H 0.80168 0.34341 0.65873 0.0
H394 H 0.82593 0.36905 0.73441 0.0
H395 H 0.82584 0.40502 0.80885 0.0
H396 H 0.75657 0.46115 0.81831 0.0
H397 H 0.73397 0.43786 0.73712 0.0
C398 C 0.75306 0.39329 0.68161 0.0
C399 C 0.7651 0.36952 0.65773 0.0
C400 C 0.76674 0.40786 0.7259 0.0
C401 C 0.79178 0.36149 0.67652 0.0
C402 C 0.80566 0.3761 0.71997 0.0
C403 C 0.80602 0.41248 0.79253 0.0
C404 C 0.79283 0.43466 0.82009 0.0
C405 C 0.79309 0.39895 0.74585 0.0
C406 C 0.76697 0.44381 0.79869 0.0
C407 C 0.75409 0.4306 0.75201 0.0
H408 H 0.64918 0.27802 0.38857 0.0
H409 H 0.62896 0.35904 0.45273 0.0
H410 H 0.59257 0.36382 0.37896 0.0
H411 H 0.56955 0.34692 0.29064 0.0
H412 H 0.59113 0.26681 0.2241 0.0
H413 H 0.62366 0.25965 0.30486 0.0
C414 C 0.63654 0.29656 0.38714 0.0
C415 C 0.64207 0.31828 0.42582 0.0
C416 C 0.61604 0.29946 0.34379 0.0
C417 C 0.62535 0.34208 0.42327 0.0
C418 C 0.60459 0.3449 0.38092 0.0
C419 C 0.58135 0.32787 0.29391 0.0
C420 C 0.57814 0.30756 0.25109 0.0
C421 C 0.60032 0.32407 0.33994 0.0
C422 C 0.59312 0.28273 0.25659 0.0
C423 C 0.61184 0.27868 0.30258 0.0
H424 H 0.2292 0.0973 0.84774 0.0
H425 H 0.29948 0.15245 0.84331 0.0
H426 H 0.32226 0.12271 0.77345 0.0
H427 H 0.32019 0.0837 0.70647 0.0
H428 H 0.24951 0.02919 0.70883 0.0
H429 H 0.22891 0.05608 0.78664 0.0
C430 C 0.24967 0.10264 0.83218 0.0
C431 C 0.26244 0.12726 0.8503 0.0
C432 C 0.26246 0.08572 0.79116 0.0
C433 C 0.28902 0.13378 0.82968 0.0
C434 C 0.30207 0.1168 0.78964 0.0
C435 C 0.30056 0.07735 0.72488 0.0
C436 C 0.28631 0.0546 0.70167 0.0
C437 C 0.28869 0.0931 0.76902 0.0
C438 C 0.26071 0.04686 0.72545 0.0
C439 C 0.24895 0.06218 0.77 0.0
H440 H 0.33446 0.7556 0.36705 0.0
H441 H 0.34487 0.66911 0.32952 0.0
H442 H 0.37569 0.68081 0.24929 0.0
H443 H 0.39696 0.71563 0.18605 0.0
H444 H 0.39033 0.80207 0.22961 0.0
H445 H 0.36024 0.79029 0.31026 0.0
C446 C 0.34371 0.73935 0.34156 0.0
C447 C 0.3373 0.71158 0.35385 0.0
C448 C 0.36172 0.74619 0.29601 0.0
C449 C 0.34961 0.69066 0.32103 0.0
C450 C 0.36709 0.69733 0.27493 0.0
C451 C 0.38956 0.73199 0.21368 0.0
C452 C 0.39573 0.75982 0.20044 0.0
C453 C 0.37298 0.72505 0.26153 0.0
C454 C 0.38535 0.78052 0.23698 0.0
C455 C 0.36831 0.77381 0.28376 0.0
H456 H 0.76299 0.89434 0.92769 0.0
H457 H 0.71751 0.82737 0.84922 0.0
H458 H 0.70487 0.85722 0.76701 0.0
H459 H 0.71156 0.9006 0.7119 0.0
H460 H 0.7573 0.96728 0.7903 0.0
H461 H 0.76465 0.93945 0.87825 0.0
C462 C 0.74996 0.88638 0.89304 0.0
C463 C 0.74166 0.85853 0.89417 0.0
C464 C 0.74295 0.90357 0.84561 0.0
C465 C 0.72439 0.84868 0.84936 0.0
C466 C 0.71725 0.86569 0.8021 0.0
C467 C 0.7228 0.9091 0.74864 0.0
C468 C 0.73408 0.93581 0.74451 0.0
C469 C 0.72719 0.89288 0.79888 0.0
C470 C 0.74828 0.94681 0.79258 0.0
C471 C 0.75268 0.93083 0.84271 0.0
H472 H 0.82443 0.77975 0.83369 0.0
H473 H 0.86534 0.83848 0.94541 0.0
H474 H 0.90269 0.84353 0.87574 0.0
H475 H 0.92293 0.83283 0.7813 0.0
H476 H 0.88308 0.77346 0.6701 0.0
H477 H 0.84627 0.76691 0.74146 0.0
C478 C 0.84157 0.79357 0.84284 0.0
C479 C 0.84191 0.80887 0.89448 0.0
C480 C 0.86317 0.79629 0.80268 0.0
C481 C 0.86447 0.82645 0.90602 0.0
C482 C 0.88585 0.82944 0.86612 0.0
C483 C 0.90618 0.81843 0.77288 0.0
C484 C 0.90553 0.80379 0.72058 0.0
C485 C 0.88526 0.81472 0.81407 0.0
C486 C 0.88401 0.78487 0.71032 0.0
C487 C 0.86293 0.78123 0.75092 0.0
H488 H 0.77009 0.39238 0.44422 0.0
H489 H 0.70865 0.35747 0.3292 0.0
H490 H 0.72797 0.38295 0.24716 0.0
H491 H 0.76374 0.41277 0.20678 0.0
H492 H 0.82717 0.4462 0.31896 0.0
H493 H 0.80557 0.42404 0.40333 0.0
C494 C 0.76075 0.39082 0.40132 0.0
C495 C 0.73804 0.37313 0.39262 0.0
C496 C 0.77246 0.40503 0.35374 0.0
C497 C 0.72625 0.3709 0.33679 0.0
C498 C 0.7373 0.3854 0.28984 0.0
C499 C 0.773 0.41507 0.24961 0.0
C500 C 0.79721 0.43084 0.25638 0.0
C501 C 0.76074 0.40202 0.29756 0.0
C502 C 0.80848 0.43421 0.31249 0.0
C503 C 0.7962 0.42146 0.36075 0.0
H504 H 0.12722 0.19259 0.86873 0.0
H505 H 0.19035 0.15875 0.75884 0.0
H506 H 0.15961 0.16273 0.67454 0.0
H507 H 0.11712 0.18052 0.63018 0.0
H508 H 0.05447 0.21727 0.7369 0.0
H509 H 0.08226 0.20704 0.82432 0.0
C510 C 0.13386 0.18557 0.82648 0.0
C511 C 0.16095 0.17557 0.81965 0.0
C512 C 0.11629 0.18871 0.77758 0.0
C513 C 0.1696 0.16673 0.76479 0.0
C514 C 0.15208 0.16904 0.7166 0.0
C515 C 0.10949 0.18616 0.67264 0.0
C516 C 0.08405 0.2 0.67707 0.0
C517 C 0.12578 0.18082 0.72216 0.0
C518 C 0.07405 0.2066 0.73241 0.0
C519 C 0.09001 0.20091 0.78233 0.0
H520 H 0.22292 0.65213 0.31972 0.0
H521 H 0.29266 0.60426 0.38263 0.0
H522 H 0.2825 0.56837 0.31207 0.0
H523 H 0.25546 0.55177 0.23013 0.0
H524 H 0.18287 0.59686 0.1718 0.0
H525 H 0.19282 0.6329 0.24238 0.0
C526 C 0.23578 0.63377 0.31786 0.0
C527 C 0.25859 0.63087 0.35589 0.0
C528 C 0.22945 0.61286 0.27793 0.0
C529 C 0.27494 0.60689 0.35383 0.0
C530 C 0.2692 0.58641 0.31343 0.0
C531 C 0.24124 0.56899 0.23354 0.0
C532 C 0.21845 0.57141 0.19515 0.0
C533 C 0.24662 0.58925 0.27512 0.0
C534 C 0.20088 0.59453 0.19981 0.0
C535 C 0.20645 0.61513 0.24046 0.0
H536 H 0.30971 0.7265 0.67759 0.0
H537 H 0.37458 0.69092 0.57458 0.0
H538 H 0.40938 0.70737 0.64468 0.0
H539 H 0.42099 0.73194 0.73619 0.0
H540 H 0.35493 0.76752 0.83598 0.0
H541 H 0.32087 0.75086 0.76601 0.0
C542 C 0.33145 0.72213 0.67038 0.0
C543 C 0.33952 0.70723 0.62124 0.0
C544 C 0.35109 0.73171 0.7103 0.0
C545 C 0.36782 0.70226 0.6122 0.0
C546 C 0.38768 0.71163 0.6523 0.0
C547 C 0.39911 0.73589 0.74247 0.0
C548 C 0.39045 0.75106 0.79094 0.0
C549 C 0.37952 0.72633 0.70167 0.0
C550 C 0.3621 0.75623 0.7986 0.0
C551 C 0.34261 0.74662 0.75879 0.0
H552 H 0.75606 0.89322 0.11592 0.0
H553 H 0.74086 0.82328 0.22949 0.0
H554 H 0.72999 0.8543 0.30874 0.0
H555 H 0.72993 0.90093 0.34878 0.0
H556 H 0.74607 0.97102 0.23661 0.0
H557 H 0.75139 0.94027 0.15385 0.0
C558 C 0.74999 0.88474 0.15774 0.0
C559 C 0.7497 0.85593 0.16689 0.0
C560 C 0.74418 0.90272 0.20359 0.0
C561 C 0.74162 0.84536 0.22135 0.0
C562 C 0.7354 0.86309 0.2668 0.0
C563 C 0.73391 0.90956 0.30596 0.0
C564 C 0.7378 0.93819 0.29897 0.0
C565 C 0.73735 0.89176 0.25886 0.0
C566 C 0.74336 0.94899 0.24328 0.0
C567 C 0.74638 0.93143 0.19595 0.0
H568 H 0.62891 0.32849 0.63747 0.0
H569 H 0.6961 0.30707 0.75481 0.0
H570 H 0.664 0.30501 0.83587 0.0
H571 H 0.61721 0.31075 0.87428 0.0
H572 H 0.54957 0.33048 0.75685 0.0
H573 H 0.58155 0.33201 0.67537 0.0
C574 C 0.63654 0.32339 0.68078 0.0
C575 C 0.66494 0.31812 0.68994 0.0
C576 C 0.61791 0.32203 0.72736 0.0
C577 C 0.67438 0.31124 0.74633 0.0
C578 C 0.65603 0.31008 0.79285 0.0
C579 C 0.60931 0.31493 0.83078 0.0
C580 C 0.58096 0.32062 0.82202 0.0
C581 C 0.62777 0.31554 0.78393 0.0
C582 C 0.57132 0.32646 0.76524 0.0
C583 C 0.58959 0.32721 0.71847 0.0
H584 H 0.23921 0.15748 0.1802 0.0
H585 H 0.26495 0.10304 0.04361 0.0
H586 H 0.28677 0.07221 0.11532 0.0
H587 H 0.2984 0.06066 0.21663 0.0
H588 H 0.26958 0.1134 0.35375 0.0
H589 H 0.24969 0.14517 0.2819 0.0
C590 C 0.2497 0.13893 0.16613 0.0
C591 C 0.25048 0.13258 0.10669 0.0
C592 C 0.26179 0.12103 0.20765 0.0
C593 C 0.26393 0.10832 0.08917 0.0
C594 C 0.27646 0.09071 0.13012 0.0
C595 C 0.28749 0.0789 0.23102 0.0
C596 C 0.2857 0.08454 0.29078 0.0
C597 C 0.27539 0.09678 0.1895 0.0
C598 C 0.27186 0.10866 0.30816 0.0
C599 C 0.26022 0.1268 0.26707 0.0
H600 H 0.18136 0.2774 0.02024 0.0
H601 H 0.22057 0.28132 0.85283 0.0
H602 H 0.21137 0.331 0.84632 0.0
H603 H 0.19777 0.37356 0.89413 0.0
H604 H 0.15502 0.36956 0.05829 0.0
H605 H 0.16006 0.31943 0.06008 0.0
C606 C 0.18745 0.28917 0.98202 0.0
C607 C 0.20191 0.27605 0.93743 0.0
C608 C 0.18176 0.31758 0.97829 0.0
C609 C 0.20942 0.29116 0.88763 0.0
C610 C 0.20428 0.31952 0.88407 0.0
C611 C 0.1886 0.36191 0.92951 0.0
C612 C 0.1766 0.37569 0.97673 0.0
C613 C 0.19114 0.33304 0.9299 0.0
C614 C 0.1652 0.35977 0.0222 0.0
C615 C 0.16794 0.33102 0.02321 0.0
H616 H 0.17951 0.7132 0.57805 0.0
H617 H 0.17935 0.71374 0.39044 0.0
H618 H 0.13145 0.73024 0.38904 0.0
H619 H 0.09191 0.74998 0.44131 0.0
H620 H 0.09267 0.74959 0.62896 0.0
H621 H 0.13819 0.72768 0.63006 0.0
C622 C 0.1689 0.71659 0.53679 0.0
C623 C 0.18311 0.7127 0.48446 0.0
C624 C 0.14162 0.72646 0.53632 0.0
C625 C 0.16893 0.71671 0.43138 0.0
C626 C 0.14159 0.72631 0.43055 0.0
C627 C 0.10175 0.74452 0.48244 0.0
C628 C 0.08912 0.75182 0.53499 0.0
C629 C 0.12804 0.73205 0.48277 0.0
C630 C 0.10224 0.74475 0.58791 0.0
C631 C 0.12821 0.73213 0.5886 0.0
H632 H 0.77532 0.697 0.09576 0.0
H633 H 0.81122 0.71349 0.9277 0.0
H634 H 0.82587 0.66534 0.9214 0.0
H635 H 0.82781 0.61829 0.96295 0.0
H636 H 0.79169 0.602 0.13068 0.0
H637 H 0.77763 0.65031 0.1375 0.0
C638 C 0.78638 0.69012 0.05773 0.0
C639 C 0.79207 0.70887 0.01223 0.0
C640 C 0.79462 0.6624 0.05421 0.0
C641 C 0.80644 0.69952 0.9633 0.0
C642 C 0.81486 0.67197 0.95965 0.0
C643 C 0.81707 0.62541 0.00117 0.0
C644 C 0.81074 0.6066 0.04615 0.0
C645 C 0.809 0.65321 0.00478 0.0
C646 C 0.7965 0.61601 0.09513 0.0
C647 C 0.78857 0.64364 0.0992 0.0
H648 H 0.80727 0.25168 0.55749 0.0
H649 H 0.8038 0.31368 0.42121 0.0
H650 H 0.85239 0.30537 0.39899 0.0
H651 H 0.89625 0.28145 0.4199 0.0
H652 H 0.89979 0.21847 0.55379 0.0
H653 H 0.8507 0.22588 0.57487 0.0
C654 C 0.81718 0.26334 0.52295 0.0
C655 C 0.80201 0.28338 0.49129 0.0
C656 C 0.84507 0.2582 0.50983 0.0
C657 C 0.81501 0.2981 0.44615 0.0
C658 C 0.84281 0.29341 0.43346 0.0
C659 C 0.88619 0.26932 0.45358 0.0
C660 C 0.90153 0.24958 0.48552 0.0
C661 C 0.85807 0.27365 0.46523 0.0
C662 C 0.88828 0.23369 0.52847 0.0
C663 C 0.86031 0.23804 0.54074 0.0
H664 H 0.70514 0.21617 0.45782 0.0
H665 H 0.70808 0.22236 0.64491 0.0
H666 H 0.70723 0.17209 0.65403 0.0
H667 H 0.71121 0.12656 0.6087 0.0
H668 H 0.70966 0.12049 0.4218 0.0
H669 H 0.70386 0.17052 0.41282 0.0
C670 C 0.70526 0.20656 0.50065 0.0
C671 C 0.70722 0.22302 0.55054 0.0
C672 C 0.70512 0.17765 0.50562 0.0
C673 C 0.70684 0.21022 0.60571 0.0
C674 C 0.70645 0.18145 0.61101 0.0
C675 C 0.70929 0.13622 0.56606 0.0
C676 C 0.71119 0.11997 0.51599 0.0
C677 C 0.70649 0.165 0.56124 0.0
C678 C 0.70816 0.13257 0.46099 0.0
C679 C 0.70508 0.16119 0.45583 0.0
H680 H 0.32088 0.2017 0.0415 0.0
H681 H 0.29207 0.26334 0.91795 0.0
H682 H 0.33615 0.28743 0.92458 0.0
H683 H 0.38276 0.29151 0.9655 0.0
H684 H 0.41379 0.22923 0.08441 0.0
H685 H 0.36925 0.20471 0.07938 0.0
C686 C 0.32437 0.2204 0.01621 0.0
C687 C 0.30326 0.23073 0.97941 0.0
C688 C 0.35018 0.23398 0.01922 0.0
C689 C 0.30806 0.25485 0.94632 0.0
C690 C 0.33324 0.26872 0.95014 0.0
C691 C 0.3797 0.27255 0.99026 0.0
C692 C 0.40123 0.26222 0.02558 0.0
C693 C 0.35439 0.25852 0.98639 0.0
C694 C 0.39735 0.23746 0.05688 0.0
C695 C 0.37191 0.22355 0.05415 0.0
H696 H 0.25592 0.79486 0.42414 0.0
H697 H 0.29756 0.78074 0.58891 0.0
H698 H 0.31097 0.82919 0.59224 0.0
H699 H 0.31191 0.8754 0.54768 0.0
H700 H 0.2702 0.89007 0.38366 0.0
H701 H 0.2556 0.84165 0.38098 0.0
C702 C 0.2678 0.8024 0.46092 0.0
C703 C 0.27569 0.7841 0.50613 0.0
C704 C 0.27549 0.83038 0.4627 0.0
C705 C 0.29107 0.7943 0.55354 0.0
C706 C 0.29886 0.82203 0.55547 0.0
C707 C 0.29973 0.86793 0.51124 0.0
C708 C 0.29231 0.88616 0.46575 0.0
C709 C 0.29138 0.84018 0.51012 0.0
C710 C 0.27607 0.8764 0.41931 0.0
C711 C 0.26782 0.84873 0.41766 0.0
H712 H 0.68521 0.75107 0.9552 0.0
H713 H 0.68609 0.79568 0.11689 0.0
H714 H 0.63583 0.79613 0.11756 0.0
H715 H 0.59189 0.78664 0.0702 0.0
H716 H 0.58949 0.73999 0.91134 0.0
H717 H 0.64012 0.73811 0.9112 0.0
C718 C 0.67437 0.76069 0.99073 0.0
C719 C 0.68948 0.77337 0.03576 0.0
C720 C 0.64522 0.76082 0.99119 0.0
C721 C 0.67509 0.78566 0.08167 0.0
C722 C 0.64628 0.78605 0.0821 0.0
C723 C 0.60223 0.77538 0.03617 0.0
C724 C 0.58672 0.76346 0.99092 0.0
C725 C 0.63118 0.77397 0.03684 0.0
C726 C 0.60083 0.74972 0.9464 0.0
C727 C 0.6298 0.7485 0.94642 0.0
loop_
_geom_bond_atom_site_label_1
_geom_bond_atom_site_label_2
_geom_bond_distance
_geom_bond_site_symmetry_2
_ccdc_geom_bond_type
Fe0 O2 1.918 . S
Fe0 O5 1.997 . S
Fe0 O6 2.002 . S
Fe0 O11 1.976 . S
Fe0 O14 1.996 . S
Fe1 O2 1.918 1_556 S
Fe1 O9 1.997 . S
Fe1 O12 1.996 . S
Fe1 O16 1.976 . S
Fe1 O19 2.002 . S
O2 Fe0 1.918 . S
O2 Fe1 1.918 1_554 S
O2 Fe3 1.918 . S
Fe3 O2 1.918 . S
Fe3 O4 2.002 . S
Fe3 O13 1.976 . S
Fe3 O17 1.996 1_554 S
Fe3 O20 1.997 1_554 S
O4 Fe3 2.002 . S
O4 C21 1.295 . S
O5 Fe0 1.997 . S
O5 C21 1.235 . S
O6 Fe0 2.002 . S
O6 C7 1.295 . S
C7 O6 1.295 . S
C7 O9 1.235 1_554 S
C8 O13 1.287 . S
C8 O14 1.255 . S
O9 Fe1 1.997 . S
O9 C7 1.235 1_556 S
C10 O16 1.287 . S
C10 O17 1.255 . S
O11 Fe0 1.976 . S
O11 C18 1.287 . S
O12 Fe1 1.996 . S
O12 C18 1.255 1_556 S
O13 Fe3 1.976 . S
O13 C8 1.287 . S
O14 Fe0 1.996 . S
O14 C8 1.255 . S
C15 O19 1.295 . S
C15 O20 1.235 . S
O16 Fe1 1.976 . S
O16 C10 1.287 . S
O17 Fe3 1.996 1_556 S
O17 C10 1.255 . S
C18 O11 1.287 . S
C18 O12 1.255 1_554 S
O19 Fe1 2.002 . S
O19 C15 1.295 . S
O20 Fe3 1.997 1_556 S
O20 C15 1.235 . S
C21 O4 1.295 . S
C21 O5 1.235 . S
Fe22 O24 1.918 . S
Fe22 O27 1.997 . S
Fe22 O28 2.002 . S
Fe22 O33 1.976 . S
Fe22 O36 1.996 . S
Fe23 O24 1.918 . S
Fe23 O31 1.997 . S
Fe23 O34 1.996 . S
Fe23 O38 1.976 . S
Fe23 O41 2.002 . S
O24 Fe22 1.918 . S
O24 Fe23 1.918 . S
O24 Fe25 1.918 . S
Fe25 O24 1.918 . S
Fe25 O26 2.002 . S
Fe25 O35 1.976 . S
Fe25 O39 1.996 . S
Fe25 O42 1.997 . S
O26 Fe25 2.002 . S
O26 C43 1.295 . S
O27 Fe22 1.997 . S
O27 C43 1.235 . S
O28 Fe22 2.002 . S
O28 C29 1.295 . S
C29 O28 1.295 . S
C29 O31 1.235 . S
C30 O35 1.287 . S
C30 O36 1.255 . S
O31 Fe23 1.997 . S
O31 C29 1.235 . S
C32 O38 1.287 . S
C32 O39 1.255 . S
O33 Fe22 1.976 . S
O33 C40 1.287 . S
O34 Fe23 1.996 . S
O34 C40 1.255 . S
O35 Fe25 1.976 . S
O35 C30 1.287 . S
O36 Fe22 1.996 . S
O36 C30 1.255 . S
C37 O41 1.295 . S
C37 O42 1.235 . S
O38 Fe23 1.976 . S
O38 C32 1.287 . S
O39 Fe25 1.996 . S
O39 C32 1.255 . S
C40 O33 1.287 . S
C40 O34 1.255 . S
O41 Fe23 2.002 . S
O41 C37 1.295 . S
O42 Fe25 1.997 . S
O42 C37 1.235 . S
C43 O26 1.295 . S
C43 O27 1.235 . S
Fe44 O46 1.918 1_556 S
Fe44 O49 1.997 . S
Fe44 O50 2.002 . S
Fe44 O55 1.976 . S
Fe44 O58 1.996 . S
Fe45 O46 1.918 . S
Fe45 O53 1.997 . S
Fe45 O56 1.996 . S
Fe45 O60 1.976 . S
Fe45 O63 2.002 . S
O46 Fe44 1.918 1_554 S
O46 Fe45 1.918 . S
O46 Fe47 1.918 . S
Fe47 O46 1.918 . S
Fe47 O48 2.002 1_554 S
Fe47 O57 1.976 1_554 S
Fe47 O61 1.996 . S
Fe47 O64 1.997 . S
O48 Fe47 2.002 1_556 S
O48 C65 1.295 . S
O49 Fe44 1.997 . S
O49 C65 1.235 . S
O50 Fe44 2.002 . S
O50 C51 1.295 1_556 S
C51 O50 1.295 1_554 S
C51 O53 1.235 . S
C52 O57 1.287 . S
C52 O58 1.255 . S
O53 Fe45 1.997 . S
O53 C51 1.235 . S
C54 O60 1.287 . S
C54 O61 1.255 . S
O55 Fe44 1.976 . S
O55 C62 1.287 1_556 S
O56 Fe45 1.996 . S
O56 C62 1.255 . S
O57 Fe47 1.976 1_556 S
O57 C52 1.287 . S
O58 Fe44 1.996 . S
O58 C52 1.255 . S
C59 O63 1.295 . S
C59 O64 1.235 . S
O60 Fe45 1.976 . S
O60 C54 1.287 . S
O61 Fe47 1.996 . S
O61 C54 1.255 . S
C62 O55 1.287 1_554 S
C62 O56 1.255 . S
O63 Fe45 2.002 . S
O63 C59 1.295 . S
O64 Fe47 1.997 . S
O64 C59 1.235 . S
C65 O48 1.295 . S
C65 O49 1.235 . S
Fe66 O68 1.918 . S
Fe66 O71 1.997 . S
Fe66 O72 2.002 . S
Fe66 O77 1.976 . S
Fe66 O80 1.996 . S
Fe67 O68 1.918 . S
Fe67 O75 1.997 . S
Fe67 O78 1.996 . S
Fe67 O82 1.976 . S
Fe67 O85 2.002 . S
O68 Fe66 1.918 . S
O68 Fe67 1.918 . S
O68 Fe69 1.918 . S
Fe69 O68 1.918 . S
Fe69 O70 2.002 . S
Fe69 O79 1.976 . S
Fe69 O83 1.996 . S
Fe69 O86 1.997 . S
O70 Fe69 2.002 . S
O70 C87 1.295 . S
O71 Fe66 1.997 . S
O71 C87 1.235 . S
O72 Fe66 2.002 . S
O72 C73 1.295 . S
C73 O72 1.295 . S
C73 O75 1.235 . S
C74 O79 1.287 . S
C74 O80 1.255 . S
O75 Fe67 1.997 . S
O75 C73 1.235 . S
C76 O82 1.287 . S
C76 O83 1.255 . S
O77 Fe66 1.976 . S
O77 C84 1.287 . S
O78 Fe67 1.996 . S
O78 C84 1.255 . S
O79 Fe69 1.976 . S
O79 C74 1.287 . S
O80 Fe66 1.996 . S
O80 C74 1.255 . S
C81 O85 1.295 . S
C81 O86 1.235 . S
O82 Fe67 1.976 . S
O82 C76 1.287 . S
O83 Fe69 1.996 . S
O83 C76 1.255 . S
C84 O77 1.287 . S
C84 O78 1.255 . S
O85 Fe67 2.002 . S
O85 C81 1.295 . S
O86 Fe69 1.997 . S
O86 C81 1.235 . S
C87 O70 1.295 . S
C87 O71 1.235 . S
P88 O99 1.490 . S
P88 C102 1.812 . S
P88 C108 1.803 . S
P88 C114 1.819 1_554 S
H89 C103 0.941 . S
H90 C104 0.939 . S
H91 C106 0.940 . S
H92 C107 0.940 . S
H93 C109 0.939 . S
H94 C110 0.942 . S
H95 C112 0.940 . S
H96 C113 0.939 . S
H97 C115 0.941 . S
H98 C119 0.939 . S
O99 P88 1.490 . S
H100 C116 0.939 . S
H101 C118 0.940 . S
C102 P88 1.812 . S
C102 C103 1.389 . S
C102 C107 1.391 . S
C103 H89 0.941 . S
C103 C102 1.389 . S
C103 C104 1.397 . S
C104 H90 0.939 . S
C104 C103 1.397 . S
C104 C105 1.378 . S
C105 C104 1.378 . S
C105 C106 1.378 . S
C106 H91 0.940 . S
C106 C105 1.378 . S
C106 C107 1.396 . S
C107 H92 0.940 . S
C107 C102 1.391 . S
C107 C106 1.396 . S
C108 P88 1.803 . S
C108 C109 1.378 1_554 S
C108 C113 1.400 . S
C109 H93 0.939 . S
C109 C108 1.378 1_556 S
C109 C110 1.361 . S
C110 H94 0.942 . S
C110 C109 1.361 . S
C110 C111 1.369 1_556 S
C111 C110 1.369 1_554 S
C111 C112 1.404 . S
C112 H95 0.940 . S
C112 C111 1.404 . S
C112 C113 1.389 . S
C113 H96 0.939 . S
C113 C108 1.400 . S
C113 C112 1.389 . S
C114 P88 1.819 1_556 S
C114 C115 1.391 . S
C114 C119 1.391 . S
C115 H97 0.941 . S
C115 C114 1.391 . S
C115 C116 1.396 . S
C116 H100 0.939 . S
C116 C115 1.396 . S
C116 C117 1.397 . S
C117 C116 1.397 . S
C117 C118 1.385 . S
C118 H101 0.940 . S
C118 C117 1.385 . S
C118 C119 1.388 . S
C119 H98 0.939 . S
C119 C114 1.391 . S
C119 C118 1.388 . S
P120 O131 1.490 . S
P120 C134 1.812 . S
P120 C140 1.803 1_655 S
P120 C146 1.819 . S
H121 C135 0.941 . S
H122 C136 0.939 . S
H123 C138 0.940 . S
H124 C139 0.940 . S
H125 C141 0.939 . S
H126 C142 0.942 . S
H127 C144 0.940 . S
H128 C145 0.939 . S
H129 C147 0.941 . S
H130 C151 0.939 . S
O131 P120 1.490 . S
H132 C148 0.939 . S
H133 C150 0.940 . S
C134 P120 1.812 . S
C134 C135 1.389 . S
C134 C139 1.391 . S
C135 H121 0.941 . S
C135 C134 1.389 . S
C135 C136 1.397 . S
C136 H122 0.939 . S
C136 C135 1.397 . S
C136 C137 1.378 . S
C137 C136 1.378 . S
C137 C138 1.378 . S
C138 H123 0.940 . S
C138 C137 1.378 . S
C138 C139 1.396 . S
C139 H124 0.940 . S
C139 C134 1.391 . S
C139 C138 1.396 . S
C140 P120 1.803 1_455 S
C140 C141 1.378 . S
C140 C145 1.400 . S
C141 H125 0.939 . S
C141 C140 1.378 . S
C141 C142 1.361 . S
C142 H126 0.942 . S
C142 C141 1.361 . S
C142 C143 1.369 . S
C143 C142 1.369 . S
C143 C144 1.404 . S
C144 H127 0.940 . S
C144 C143 1.404 . S
C144 C145 1.389 . S
C145 H128 0.939 . S
C145 C140 1.400 . S
C145 C144 1.389 . S
C146 P120 1.819 . S
C146 C147 1.391 . S
C146 C151 1.391 . S
C147 H129 0.941 . S
C147 C146 1.391 . S
C147 C148 1.396 . S
C148 H132 0.939 . S
C148 C147 1.396 . S
C148 C149 1.397 . S
C149 C148 1.397 . S
C149 C150 1.385 . S
C150 H133 0.940 . S
C150 C149 1.385 . S
C150 C151 1.388 . S
C151 H130 0.939 . S
C151 C146 1.391 . S
C151 C150 1.388 . S
P152 O163 1.490 . S
P152 C166 1.812 1_554 S
P152 C172 1.803 . S
P152 C178 1.819 . S
H153 C167 0.941 . S
H154 C168 0.939 . S
H155 C170 0.940 . S
H156 C171 0.940 . S
H157 C173 0.939 . S
H158 C174 0.942 . S
H159 C176 0.940 . S
H160 C177 0.939 . S
H161 C179 0.941 . S
H162 C183 0.939 . S
O163 P152 1.490 . S
H164 C180 0.939 . S
H165 C182 0.940 . S
C166 P152 1.812 1_556 S
C166 C167 1.389 . S
C166 C171 1.391 . S
C167 H153 0.941 . S
C167 C166 1.389 . S
C167 C168 1.397 . S
C168 H154 0.939 . S
C168 C167 1.397 . S
C168 C169 1.378 . S
C169 C168 1.378 . S
C169 C170 1.378 . S
C170 H155 0.940 . S
C170 C169 1.378 . S
C170 C171 1.396 . S
C171 H156 0.940 . S
C171 C166 1.391 . S
C171 C170 1.396 . S
C172 P152 1.803 . S
C172 C173 1.381 . S
C172 C177 1.398 1_554 S
C173 H157 0.939 . S
C173 C172 1.381 . S
C173 C174 1.361 . S
C174 H158 0.942 . S
C174 C173 1.361 . S
C174 C175 1.369 . S
C175 C174 1.369 . S
C175 C176 1.404 1_554 S
C176 H159 0.940 . S
C176 C175 1.404 1_556 S
C176 C177 1.389 . S
C177 H160 0.939 . S
C177 C172 1.398 1_556 S
C177 C176 1.389 . S
C178 P152 1.819 . S
C178 C179 1.391 . S
C178 C183 1.391 . S
C179 H161 0.941 . S
C179 C178 1.391 . S
C179 C180 1.396 . S
C180 H164 0.939 . S
C180 C179 1.396 . S
C180 C181 1.397 . S
C181 C180 1.397 . S
C181 C182 1.385 . S
C182 H165 0.940 . S
C182 C181 1.385 . S
C182 C183 1.388 . S
C183 H162 0.939 . S
C183 C178 1.391 . S
C183 C182 1.388 . S
P184 O195 1.490 . S
P184 C198 1.812 . S
P184 C204 1.803 1_455 S
P184 C210 1.819 . S
H185 C199 0.941 . S
H186 C200 0.939 . S
H187 C202 0.940 . S
H188 C203 0.940 . S
H189 C205 0.939 . S
H190 C206 0.942 . S
H191 C208 0.940 . S
H192 C209 0.939 . S
H193 C211 0.941 . S
H194 C215 0.939 . S
O195 P184 1.490 . S
H196 C212 0.939 . S
H197 C214 0.940 . S
C198 P184 1.812 . S
C198 C199 1.389 . S
C198 C203 1.391 . S
C199 H185 0.941 . S
C199 C198 1.389 . S
C199 C200 1.397 . S
C200 H186 0.939 . S
C200 C199 1.397 . S
C200 C201 1.378 . S
C201 C200 1.378 . S
C201 C202 1.378 . S
C202 H187 0.940 . S
C202 C201 1.378 . S
C202 C203 1.396 . S
C203 H188 0.940 . S
C203 C198 1.391 . S
C203 C202 1.396 . S
C204 P184 1.803 1_655 S
C204 C205 1.378 . S
C204 C209 1.400 . S
C205 H189 0.939 . S
C205 C204 1.378 . S
C205 C206 1.361 . S
C206 H190 0.942 . S
C206 C205 1.361 . S
C206 C207 1.369 . S
C207 C206 1.369 . S
C207 C208 1.404 . S
C208 H191 0.940 . S
C208 C207 1.404 . S
C208 C209 1.389 . S
C209 H192 0.939 . S
C209 C204 1.400 . S
C209 C208 1.389 . S
C210 P184 1.819 . S
C210 C211 1.391 . S
C210 C215 1.391 . S
C211 H193 0.941 . S
C211 C210 1.391 . S
C211 C212 1.396 . S
C212 H196 0.939 . S
C212 C211 1.396 . S
C212 C213 1.397 . S
C213 C212 1.397 . S
C213 C214 1.385 . S
C214 H197 0.940 . S
C214 C213 1.385 . S
C214 C215 1.388 . S
C215 H194 0.939 . S
C215 C210 1.391 . S
C215 C214 1.388 . S
P216 O227 1.486 1_565 S
P216 C230 1.812 . S
P216 C236 1.803 1_565 S
P216 C242 1.819 . S
H217 C231 0.941 . S
H218 C232 0.939 . S
H219 C234 0.940 . S
H220 C235 0.940 . S
H221 C237 0.939 . S
H222 C238 0.942 . S
H223 C240 0.940 . S
H224 C241 0.939 . S
H225 C243 0.941 . S
H226 C247 0.939 1_545 S
O227 P216 1.486 1_545 S
H228 C244 0.939 . S
H229 C246 0.940 . S
C230 P216 1.812 . S
C230 C231 1.389 . S
C230 C235 1.391 . S
C231 H217 0.941 . S
C231 C230 1.389 . S
C231 C232 1.397 . S
C232 H218 0.939 . S
C232 C231 1.397 . S
C232 C233 1.378 . S
C233 C232 1.378 . S
C233 C234 1.378 . S
C234 H219 0.940 . S
C234 C233 1.378 . S
C234 C235 1.396 . S
C235 H220 0.940 . S
C235 C230 1.391 . S
C235 C234 1.396 . S
C236 P216 1.803 1_545 S
C236 C237 1.378 . S
C236 C241 1.400 . S
C237 H221 0.939 . S
C237 C236 1.378 . S
C237 C238 1.361 . S
C238 H222 0.942 . S
C238 C237 1.361 . S
C238 C239 1.369 . S
C239 C238 1.369 . S
C239 C240 1.404 . S
C240 H223 0.940 . S
C240 C239 1.404 . S
C240 C241 1.389 . S
C241 H224 0.939 . S
C241 C236 1.400 . S
C241 C240 1.389 . S
C242 P216 1.819 . S
C242 C243 1.391 . S
C242 C247 1.391 . S
C243 H225 0.941 . S
C243 C242 1.391 . S
C243 C244 1.396 . S
C244 H228 0.939 . S
C244 C243 1.396 . S
C244 C245 1.397 . S
C245 C244 1.397 . S
C245 C246 1.385 . S
C246 H229 0.940 . S
C246 C245 1.385 . S
C246 C247 1.388 . S
C247 H226 0.939 1_565 S
C247 C242 1.391 . S
C247 C246 1.388 . S
P248 O259 1.490 . S
P248 C262 1.812 . S
P248 C268 1.803 . S
P248 C274 1.819 1_556 S
H249 C263 0.941 . S
H250 C264 0.939 . S
H251 C266 0.940 . S
H252 C267 0.940 . S
H253 C269 0.939 . S
H254 C270 0.942 . S
H255 C272 0.940 . S
H256 C273 0.939 . S
H257 C275 0.941 . S
H258 C279 0.939 . S
O259 P248 1.490 . S
H260 C276 0.939 . S
H261 C278 0.940 . S
C262 P248 1.812 . S
C262 C263 1.389 . S
C262 C267 1.391 . S
C263 H249 0.941 . S
C263 C262 1.389 . S
C263 C264 1.397 . S
C264 H250 0.939 . S
C264 C263 1.397 . S
C264 C265 1.378 . S
C265 C264 1.378 . S
C265 C266 1.378 . S
C266 H251 0.940 . S
C266 C265 1.378 . S
C266 C267 1.396 . S
C267 H252 0.940 . S
C267 C262 1.391 . S
C267 C266 1.396 . S
C268 P248 1.803 . S
C268 C269 1.378 1_556 S
C268 C273 1.400 . S
C269 H253 0.939 . S
C269 C268 1.378 1_554 S
C269 C270 1.361 . S
C270 H254 0.942 . S
C270 C269 1.361 . S
C270 C271 1.369 . S
C271 C270 1.369 . S
C271 C272 1.404 1_554 S
C272 H255 0.940 . S
C272 C271 1.404 1_556 S
C272 C273 1.389 . S
C273 H256 0.939 . S
C273 C268 1.400 . S
C273 C272 1.389 . S
C274 P248 1.819 1_554 S
C274 C275 1.391 . S
C274 C279 1.391 . S
C275 H257 0.941 . S
C275 C274 1.391 . S
C275 C276 1.396 . S
C276 H260 0.939 . S
C276 C275 1.396 . S
C276 C277 1.397 . S
C277 C276 1.397 . S
C277 C278 1.385 . S
C278 H261 0.940 . S
C278 C277 1.385 . S
C278 C279 1.388 . S
C279 H258 0.939 . S
C279 C274 1.391 . S
C279 C278 1.388 . S
P280 O291 1.490 . S
P280 C294 1.812 . S
P280 C300 1.803 1_545 S
P280 C306 1.819 . S
H281 C295 0.941 . S
H282 C296 0.939 . S
H283 C298 0.940 . S
H284 C299 0.940 . S
H285 C301 0.939 . S
H286 C302 0.942 . S
H287 C304 0.940 . S
H288 C305 0.939 . S
H289 C307 0.941 . S
H290 C311 0.939 1_565 S
O291 P280 1.490 . S
H292 C308 0.939 . S
H293 C310 0.940 . S
C294 P280 1.812 . S
C294 C295 1.389 . S
C294 C299 1.391 . S
C295 H281 0.941 . S
C295 C294 1.389 . S
C295 C296 1.397 . S
C296 H282 0.939 . S
C296 C295 1.397 . S
C296 C297 1.378 . S
C297 C296 1.378 . S
C297 C298 1.378 . S
C298 H283 0.940 . S
C298 C297 1.378 . S
C298 C299 1.396 . S
C299 H284 0.940 . S
C299 C294 1.391 . S
C299 C298 1.396 . S
C300 P280 1.803 1_565 S
C300 C301 1.378 . S
C300 C305 1.400 . S
C301 H285 0.939 . S
C301 C300 1.378 . S
C301 C302 1.361 . S
C302 H286 0.942 . S
C302 C301 1.361 . S
C302 C303 1.369 . S
C303 C302 1.369 . S
C303 C304 1.404 . S
C304 H287 0.940 . S
C304 C303 1.404 . S
C304 C305 1.389 . S
C305 H288 0.939 . S
C305 C300 1.400 . S
C305 C304 1.389 . S
C306 P280 1.819 . S
C306 C307 1.391 . S
C306 C311 1.391 . S
C307 H289 0.941 . S
C307 C306 1.391 . S
C307 C308 1.396 . S
C308 H292 0.939 . S
C308 C307 1.396 . S
C308 C309 1.397 . S
C309 C308 1.397 . S
C309 C310 1.385 . S
C310 H293 0.940 . S
C310 C309 1.385 . S
C310 C311 1.388 . S
C311 H290 0.939 1_545 S
C311 C306 1.391 . S
C311 C310 1.388 . S
P312 O323 1.490 . S
P312 C326 1.812 . S
P312 C332 1.803 . S
P312 C338 1.819 1_554 S
H313 C327 0.941 . S
H314 C328 0.939 . S
H315 C330 0.940 . S
H316 C331 0.940 . S
H317 C333 0.939 . S
H318 C334 0.942 . S
H319 C336 0.940 . S
H320 C337 0.939 . S
H321 C339 0.941 . S
H322 C343 0.939 . S
O323 P312 1.490 . S
H324 C340 0.939 . S
H325 C342 0.940 . S
C326 P312 1.812 . S
C326 C327 1.389 . S
C326 C331 1.391 . S
C327 H313 0.941 . S
C327 C326 1.389 . S
C327 C328 1.397 . S
C328 H314 0.939 . S
C328 C327 1.397 . S
C328 C329 1.378 . S
C329 C328 1.378 . S
C329 C330 1.378 . S
C330 H315 0.940 . S
C330 C329 1.378 . S
C330 C331 1.396 . S
C331 H316 0.940 . S
C331 C326 1.391 . S
C331 C330 1.396 . S
C332 P312 1.803 . S
C332 C333 1.378 1_554 S
C332 C337 1.400 . S
C333 H317 0.939 . S
C333 C332 1.378 1_556 S
C333 C334 1.361 . S
C334 H318 0.942 . S
C334 C333 1.361 . S
C334 C335 1.369 1_556 S
C335 C334 1.369 1_554 S
C335 C336 1.404 . S
C336 H319 0.940 . S
C336 C335 1.404 . S
C336 C337 1.389 . S
C337 H320 0.939 . S
C337 C332 1.400 . S
C337 C336 1.389 . S
C338 P312 1.819 1_556 S
C338 C339 1.391 . S
C338 C343 1.391 . S
C339 H321 0.941 . S
C339 C338 1.391 . S
C339 C340 1.396 . S
C340 H324 0.939 . S
C340 C339 1.396 . S
C340 C341 1.397 . S
C341 C340 1.397 . S
C341 C342 1.385 . S
C342 H325 0.940 . S
C342 C341 1.385 . S
C342 C343 1.388 . S
C343 H322 0.939 . S
C343 C338 1.391 . S
C343 C342 1.388 . S
H344 C350 0.930 . S
H345 C353 0.930 . S
H346 C354 0.930 . S
H347 C355 0.930 . S
H348 C358 0.930 . S
H349 C359 0.930 . S
C350 H344 0.930 . S
C350 C351 1.355 . S
C350 C352 1.415 . S
C351 C350 1.355 . S
C351 C353 1.419 . S
C352 C350 1.415 . S
C352 C357 1.425 . S
C352 C359 1.409 . S
C353 H345 0.930 . S
C353 C351 1.419 . S
C353 C354 1.362 . S
C354 H346 0.930 . S
C354 C353 1.362 . S
C354 C357 1.409 . S
C355 H347 0.930 . S
C355 C356 1.355 . S
C355 C357 1.415 . S
C356 C355 1.355 . S
C356 C358 1.419 . S
C357 C352 1.425 . S
C357 C354 1.409 . S
C357 C355 1.415 . S
C358 H348 0.930 . S
C358 C356 1.419 . S
C358 C359 1.362 . S
C359 H349 0.930 . S
C359 C352 1.409 . S
C359 C358 1.362 . S
H360 C366 0.930 . S
H361 C369 0.930 . S
H362 C370 0.930 . S
H363 C371 0.930 . S
H364 C374 0.930 . S
H365 C375 0.930 . S
C366 H360 0.930 . S
C366 C367 1.355 . S
C366 C368 1.415 . S
C367 C366 1.355 . S
C367 C369 1.419 . S
C368 C366 1.415 . S
C368 C373 1.425 . S
C368 C375 1.409 . S
C369 H361 0.930 . S
C369 C367 1.419 . S
C369 C370 1.362 . S
C370 H362 0.930 . S
C370 C369 1.362 . S
C370 C373 1.409 . S
C371 H363 0.930 . S
C371 C372 1.355 . S
C371 C373 1.415 . S
C372 C371 1.355 . S
C372 C374 1.419 . S
C373 C368 1.425 . S
C373 C370 1.409 . S
C373 C371 1.415 . S
C374 H364 0.930 . S
C374 C372 1.419 . S
C374 C375 1.362 . S
C375 H365 0.930 . S
C375 C368 1.409 . S
C375 C374 1.362 . S
H376 C382 0.930 . S
H377 C385 0.930 . S
H378 C386 0.930 . S
H379 C387 0.930 . S
H380 C390 0.930 . S
H381 C391 0.930 . S
C382 H376 0.930 . S
C382 C383 1.355 . S
C382 C384 1.415 . S
C383 C382 1.355 . S
C383 C385 1.419 . S
C384 C382 1.415 . S
C384 C389 1.425 . S
C384 C391 1.409 . S
C385 H377 0.930 . S
C385 C383 1.419 . S
C385 C386 1.362 . S
C386 H378 0.930 . S
C386 C385 1.362 . S
C386 C389 1.409 . S
C387 H379 0.930 . S
C387 C388 1.355 . S
C387 C389 1.415 . S
C388 C387 1.355 . S
C388 C390 1.419 . S
C389 C384 1.425 . S
C389 C386 1.409 . S
C389 C387 1.415 . S
C390 H380 0.930 . S
C390 C388 1.419 . S
C390 C391 1.362 . S
C391 H381 0.930 . S
C391 C384 1.409 . S
C391 C390 1.362 . S
H392 C398 0.930 . S
H393 C401 0.930 . S
H394 C402 0.930 . S
H395 C403 0.930 . S
H396 C406 0.930 . S
H397 C407 0.930 . S
C398 H392 0.930 . S
C398 C399 1.355 . S
C398 C400 1.415 . S
C399 C398 1.355 . S
C399 C401 1.419 . S
C400 C398 1.415 . S
C400 C405 1.425 . S
C400 C407 1.409 . S
C401 H393 0.930 . S
C401 C399 1.419 . S
C401 C402 1.362 . S
C402 H394 0.930 . S
C402 C401 1.362 . S
C402 C405 1.409 . S
C403 H395 0.930 . S
C403 C404 1.355 . S
C403 C405 1.415 . S
C404 C403 1.355 . S
C404 C406 1.419 . S
C405 C400 1.425 . S
C405 C402 1.409 . S
C405 C403 1.415 . S
C406 H396 0.930 . S
C406 C404 1.419 . S
C406 C407 1.362 . S
C407 H397 0.930 . S
C407 C400 1.409 . S
C407 C406 1.362 . S
H408 C414 0.930 . S
H409 C417 0.930 . S
H410 C418 0.930 . S
H411 C419 0.930 . S
H412 C422 0.930 . S
H413 C423 0.930 . S
C414 H408 0.930 . S
C414 C415 1.355 . S
C414 C416 1.415 . S
C415 C414 1.355 . S
C415 C417 1.419 . S
C416 C414 1.415 . S
C416 C421 1.425 . S
C416 C423 1.409 . S
C417 H409 0.930 . S
C417 C415 1.419 . S
C417 C418 1.362 . S
C418 H410 0.930 . S
C418 C417 1.362 . S
C418 C421 1.409 . S
C419 H411 0.930 . S
C419 C420 1.355 . S
C419 C421 1.415 . S
C420 C419 1.355 . S
C420 C422 1.419 . S
C421 C416 1.425 . S
C421 C418 1.409 . S
C421 C419 1.415 . S
C422 H412 0.930 . S
C422 C420 1.419 . S
C422 C423 1.362 . S
C423 H413 0.930 . S
C423 C416 1.409 . S
C423 C422 1.362 . S
H424 C430 0.930 . S
H425 C433 0.930 . S
H426 C434 0.930 . S
H427 C435 0.930 . S
H428 C438 0.930 . S
H429 C439 0.930 . S
C430 H424 0.930 . S
C430 C431 1.355 . S
C430 C432 1.415 . S
C431 C430 1.355 . S
C431 C433 1.419 . S
C432 C430 1.415 . S
C432 C437 1.425 . S
C432 C439 1.409 . S
C433 H425 0.930 . S
C433 C431 1.419 . S
C433 C434 1.362 . S
C434 H426 0.930 . S
C434 C433 1.362 . S
C434 C437 1.409 . S
C435 H427 0.930 . S
C435 C436 1.355 . S
C435 C437 1.415 . S
C436 C435 1.355 . S
C436 C438 1.419 . S
C437 C432 1.425 . S
C437 C434 1.409 . S
C437 C435 1.415 . S
C438 H428 0.930 . S
C438 C436 1.419 . S
C438 C439 1.362 . S
C439 H429 0.930 . S
C439 C432 1.409 . S
C439 C438 1.362 . S
H440 C446 0.930 . S
H441 C449 0.930 . S
H442 C450 0.930 . S
H443 C451 0.930 . S
H444 C454 0.930 . S
H445 C455 0.930 . S
C446 H440 0.930 . S
C446 C447 1.355 . S
C446 C448 1.415 . S
C447 C446 1.355 . S
C447 C449 1.419 . S
C448 C446 1.415 . S
C448 C453 1.425 . S
C448 C455 1.409 . S
C449 H441 0.930 . S
C449 C447 1.419 . S
C449 C450 1.362 . S
C450 H442 0.930 . S
C450 C449 1.362 . S
C450 C453 1.409 . S
C451 H443 0.930 . S
C451 C452 1.355 . S
C451 C453 1.415 . S
C452 C451 1.355 . S
C452 C454 1.419 . S
C453 C448 1.425 . S
C453 C450 1.409 . S
C453 C451 1.415 . S
C454 H444 0.930 . S
C454 C452 1.419 . S
C454 C455 1.362 . S
C455 H445 0.930 . S
C455 C448 1.409 . S
C455 C454 1.362 . S
H456 C462 0.930 . S
H457 C465 0.930 . S
H458 C466 0.930 . S
H459 C467 0.930 . S
H460 C470 0.930 . S
H461 C471 0.930 . S
C462 H456 0.930 . S
C462 C463 1.355 . S
C462 C464 1.415 . S
C463 C462 1.355 . S
C463 C465 1.419 . S
C464 C462 1.415 . S
C464 C469 1.425 . S
C464 C471 1.409 . S
C465 H457 0.930 . S
C465 C463 1.419 . S
C465 C466 1.362 . S
C466 H458 0.930 . S
C466 C465 1.362 . S
C466 C469 1.409 . S
C467 H459 0.930 . S
C467 C468 1.355 . S
C467 C469 1.415 . S
C468 C467 1.355 . S
C468 C470 1.419 . S
C469 C464 1.425 . S
C469 C466 1.409 . S
C469 C467 1.415 . S
C470 H460 0.930 . S
C470 C468 1.419 . S
C470 C471 1.362 . S
C471 H461 0.930 . S
C471 C464 1.409 . S
C471 C470 1.362 . S
H472 C478 0.930 . S
H473 C481 0.930 . S
H474 C482 0.930 . S
H475 C483 0.930 . S
H476 C486 0.930 . S
H477 C487 0.930 . S
C478 H472 0.930 . S
C478 C479 1.355 . S
C478 C480 1.415 . S
C479 C478 1.355 . S
C479 C481 1.419 . S
C480 C478 1.415 . S
C480 C485 1.425 . S
C480 C487 1.409 . S
C481 H473 0.930 . S
C481 C479 1.419 . S
C481 C482 1.362 . S
C482 H474 0.930 . S
C482 C481 1.362 . S
C482 C485 1.409 . S
C483 H475 0.930 . S
C483 C484 1.355 . S
C483 C485 1.415 . S
C484 C483 1.355 . S
C484 C486 1.419 . S
C485 C480 1.425 . S
C485 C482 1.409 . S
C485 C483 1.415 . S
C486 H476 0.930 . S
C486 C484 1.419 . S
C486 C487 1.362 . S
C487 H477 0.930 . S
C487 C480 1.409 . S
C487 C486 1.362 . S
H488 C494 0.930 . S
H489 C497 0.930 . S
H490 C498 0.930 . S
H491 C499 0.930 . S
H492 C502 0.930 . S
H493 C503 0.930 . S
C494 H488 0.930 . S
C494 C495 1.355 . S
C494 C496 1.415 . S
C495 C494 1.355 . S
C495 C497 1.419 . S
C496 C494 1.415 . S
C496 C501 1.425 . S
C496 C503 1.409 . S
C497 H489 0.930 . S
C497 C495 1.419 . S
C497 C498 1.362 . S
C498 H490 0.930 . S
C498 C497 1.362 . S
C498 C501 1.409 . S
C499 H491 0.930 . S
C499 C500 1.355 . S
C499 C501 1.415 . S
C500 C499 1.355 . S
C500 C502 1.419 . S
C501 C496 1.425 . S
C501 C498 1.409 . S
C501 C499 1.415 . S
C502 H492 0.930 . S
C502 C500 1.419 . S
C502 C503 1.362 . S
C503 H493 0.930 . S
C503 C496 1.409 . S
C503 C502 1.362 . S
H504 C510 0.930 . S
H505 C513 0.930 . S
H506 C514 0.930 . S
H507 C515 0.930 . S
H508 C518 0.930 . S
H509 C519 0.930 . S
C510 H504 0.930 . S
C510 C511 1.355 . S
C510 C512 1.415 . S
C511 C510 1.355 . S
C511 C513 1.419 . S
C512 C510 1.415 . S
C512 C517 1.425 . S
C512 C519 1.409 . S
C513 H505 0.930 . S
C513 C511 1.419 . S
C513 C514 1.362 . S
C514 H506 0.930 . S
C514 C513 1.362 . S
C514 C517 1.409 . S
C515 H507 0.930 . S
C515 C516 1.355 . S
C515 C517 1.415 . S
C516 C515 1.355 . S
C516 C518 1.419 . S
C517 C512 1.425 . S
C517 C514 1.409 . S
C517 C515 1.415 . S
C518 H508 0.930 . S
C518 C516 1.419 . S
C518 C519 1.362 . S
C519 H509 0.930 . S
C519 C512 1.409 . S
C519 C518 1.362 . S
H520 C526 0.930 . S
H521 C529 0.930 . S
H522 C530 0.930 . S
H523 C531 0.930 . S
H524 C534 0.930 . S
H525 C535 0.930 . S
C526 H520 0.930 . S
C526 C527 1.355 . S
C526 C528 1.415 . S
C527 C526 1.355 . S
C527 C529 1.419 . S
C528 C526 1.415 . S
C528 C533 1.425 . S
C528 C535 1.409 . S
C529 H521 0.930 . S
C529 C527 1.419 . S
C529 C530 1.362 . S
C530 H522 0.930 . S
C530 C529 1.362 . S
C530 C533 1.409 . S
C531 H523 0.930 . S
C531 C532 1.355 . S
C531 C533 1.415 . S
C532 C531 1.355 . S
C532 C534 1.419 . S
C533 C528 1.425 . S
C533 C530 1.409 . S
C533 C531 1.415 . S
C534 H524 0.930 . S
C534 C532 1.419 . S
C534 C535 1.362 . S
C535 H525 0.930 . S
C535 C528 1.409 . S
C535 C534 1.362 . S
H536 C542 0.930 . S
H537 C545 0.930 . S
H538 C546 0.930 . S
H539 C547 0.930 . S
H540 C550 0.930 . S
H541 C551 0.930 . S
C542 H536 0.930 . S
C542 C543 1.355 . S
C542 C544 1.415 . S
C543 C542 1.355 . S
C543 C545 1.419 . S
C544 C542 1.415 . S
C544 C549 1.425 . S
C544 C551 1.409 . S
C545 H537 0.930 . S
C545 C543 1.419 . S
C545 C546 1.362 . S
C546 H538 0.930 . S
C546 C545 1.362 . S
C546 C549 1.409 . S
C547 H539 0.930 . S
C547 C548 1.355 . S
C547 C549 1.415 . S
C548 C547 1.355 . S
C548 C550 1.419 . S
C549 C544 1.425 . S
C549 C546 1.409 . S
C549 C547 1.415 . S
C550 H540 0.930 . S
C550 C548 1.419 . S
C550 C551 1.362 . S
C551 H541 0.930 . S
C551 C544 1.409 . S
C551 C550 1.362 . S
H552 C558 0.930 . S
H553 C561 0.930 . S
H554 C562 0.930 . S
H555 C563 0.930 . S
H556 C566 0.930 . S
H557 C567 0.930 . S
C558 H552 0.930 . S
C558 C559 1.355 . S
C558 C560 1.415 . S
C559 C558 1.355 . S
C559 C561 1.419 . S
C560 C558 1.415 . S
C560 C565 1.425 . S
C560 C567 1.409 . S
C561 H553 0.930 . S
C561 C559 1.419 . S
C561 C562 1.362 . S
C562 H554 0.930 . S
C562 C561 1.362 . S
C562 C565 1.409 . S
C563 H555 0.930 . S
C563 C564 1.355 . S
C563 C565 1.415 . S
C564 C563 1.355 . S
C564 C566 1.419 . S
C565 C560 1.425 . S
C565 C562 1.409 . S
C565 C563 1.415 . S
C566 H556 0.930 . S
C566 C564 1.419 . S
C566 C567 1.362 . S
C567 H557 0.930 . S
C567 C560 1.409 . S
C567 C566 1.362 . S
H568 C574 0.930 . S
H569 C577 0.930 . S
H570 C578 0.930 . S
H571 C579 0.930 . S
H572 C582 0.930 . S
H573 C583 0.930 . S
C574 H568 0.930 . S
C574 C575 1.355 . S
C574 C576 1.415 . S
C575 C574 1.355 . S
C575 C577 1.419 . S
C576 C574 1.415 . S
C576 C581 1.425 . S
C576 C583 1.409 . S
C577 H569 0.930 . S
C577 C575 1.419 . S
C577 C578 1.362 . S
C578 H570 0.930 . S
C578 C577 1.362 . S
C578 C581 1.409 . S
C579 H571 0.930 . S
C579 C580 1.355 . S
C579 C581 1.415 . S
C580 C579 1.355 . S
C580 C582 1.419 . S
C581 C576 1.425 . S
C581 C578 1.409 . S
C581 C579 1.415 . S
C582 H572 0.930 . S
C582 C580 1.419 . S
C582 C583 1.362 . S
C583 H573 0.930 . S
C583 C576 1.409 . S
C583 C582 1.362 . S
H584 C590 0.930 . S
H585 C593 0.930 . S
H586 C594 0.930 . S
H587 C595 0.930 . S
H588 C598 0.930 . S
H589 C599 0.930 . S
C590 H584 0.930 . S
C590 C591 1.355 . S
C590 C592 1.415 . S
C591 C590 1.355 . S
C591 C593 1.419 . S
C592 C590 1.415 . S
C592 C597 1.425 . S
C592 C599 1.409 . S
C593 H585 0.930 . S
C593 C591 1.419 . S
C593 C594 1.362 . S
C594 H586 0.930 . S
C594 C593 1.362 . S
C594 C597 1.409 . S
C595 H587 0.930 . S
C595 C596 1.355 . S
C595 C597 1.415 . S
C596 C595 1.355 . S
C596 C598 1.419 . S
C597 C592 1.425 . S
C597 C594 1.409 . S
C597 C595 1.415 . S
C598 H588 0.930 . S
C598 C596 1.419 . S
C598 C599 1.362 . S
C599 H589 0.930 . S
C599 C592 1.409 . S
C599 C598 1.362 . S
H600 C606 0.930 . S
H601 C609 0.930 . S
H602 C610 0.930 . S
H603 C611 0.930 . S
H604 C614 0.930 . S
H605 C615 0.930 . S
C606 H600 0.930 . S
C606 C607 1.355 . S
C606 C608 1.415 . S
C607 C606 1.355 . S
C607 C609 1.419 1_554 S
C608 C606 1.415 . S
C608 C613 1.425 1_554 S
C608 C615 1.409 . S
C609 H601 0.930 . S
C609 C607 1.419 1_556 S
C609 C610 1.362 . S
C610 H602 0.930 . S
C610 C609 1.362 . S
C610 C613 1.409 . S
C611 H603 0.930 . S
C611 C612 1.355 1_556 S
C611 C613 1.415 . S
C612 C611 1.355 1_554 S
C612 C614 1.419 . S
C613 C608 1.425 1_556 S
C613 C610 1.409 . S
C613 C611 1.415 . S
C614 H604 0.930 . S
C614 C612 1.419 . S
C614 C615 1.362 . S
C615 H605 0.930 . S
C615 C608 1.409 . S
C615 C614 1.362 . S
H616 C622 0.930 . S
H617 C625 0.930 . S
H618 C626 0.930 . S
H619 C627 0.930 . S
H620 C630 0.930 . S
H621 C631 0.930 . S
C622 H616 0.930 . S
C622 C623 1.355 . S
C622 C624 1.415 . S
C623 C622 1.355 . S
C623 C625 1.419 . S
C624 C622 1.415 . S
C624 C629 1.425 . S
C624 C631 1.409 . S
C625 H617 0.930 . S
C625 C623 1.419 . S
C625 C626 1.362 . S
C626 H618 0.930 . S
C626 C625 1.362 . S
C626 C629 1.409 . S
C627 H619 0.930 . S
C627 C628 1.355 . S
C627 C629 1.415 . S
C628 C627 1.355 . S
C628 C630 1.419 . S
C629 C624 1.425 . S
C629 C626 1.409 . S
C629 C627 1.415 . S
C630 H620 0.930 . S
C630 C628 1.419 . S
C630 C631 1.362 . S
C631 H621 0.930 . S
C631 C624 1.409 . S
C631 C630 1.362 . S
H632 C638 0.930 . S
H633 C641 0.930 . S
H634 C642 0.930 . S
H635 C643 0.930 . S
H636 C646 0.930 . S
H637 C647 0.930 . S
C638 H632 0.930 . S
C638 C639 1.355 . S
C638 C640 1.415 . S
C639 C638 1.355 . S
C639 C641 1.419 1_554 S
C640 C638 1.415 . S
C640 C645 1.425 1_554 S
C640 C647 1.409 . S
C641 H633 0.930 . S
C641 C639 1.419 1_556 S
C641 C642 1.362 . S
C642 H634 0.930 . S
C642 C641 1.362 . S
C642 C645 1.409 . S
C643 H635 0.930 . S
C643 C644 1.355 1_556 S
C643 C645 1.415 . S
C644 C643 1.355 1_554 S
C644 C646 1.419 . S
C645 C640 1.425 1_556 S
C645 C642 1.409 . S
C645 C643 1.415 . S
C646 H636 0.930 . S
C646 C644 1.419 . S
C646 C647 1.362 . S
C647 H637 0.930 . S
C647 C640 1.409 . S
C647 C646 1.362 . S
H648 C654 0.930 . S
H649 C657 0.930 . S
H650 C658 0.930 . S
H651 C659 0.930 . S
H652 C662 0.930 . S
H653 C663 0.930 . S
C654 H648 0.930 . S
C654 C655 1.355 . S
C654 C656 1.415 . S
C655 C654 1.355 . S
C655 C657 1.419 . S
C656 C654 1.415 . S
C656 C661 1.425 . S
C656 C663 1.409 . S
C657 H649 0.930 . S
C657 C655 1.419 . S
C657 C658 1.362 . S
C658 H650 0.930 . S
C658 C657 1.362 . S
C658 C661 1.409 . S
C659 H651 0.930 . S
C659 C660 1.355 . S
C659 C661 1.415 . S
C660 C659 1.355 . S
C660 C662 1.419 . S
C661 C656 1.425 . S
C661 C658 1.409 . S
C661 C659 1.415 . S
C662 H652 0.930 . S
C662 C660 1.419 . S
C662 C663 1.362 . S
C663 H653 0.930 . S
C663 C656 1.409 . S
C663 C662 1.362 . S
H664 C670 0.930 . S
H665 C673 0.930 . S
H666 C674 0.930 . S
H667 C675 0.930 . S
H668 C678 0.930 . S
H669 C679 0.930 . S
C670 H664 0.930 . S
C670 C671 1.355 . S
C670 C672 1.415 . S
C671 C670 1.355 . S
C671 C673 1.419 . S
C672 C670 1.415 . S
C672 C677 1.425 . S
C672 C679 1.409 . S
C673 H665 0.930 . S
C673 C671 1.419 . S
C673 C674 1.362 . S
C674 H666 0.930 . S
C674 C673 1.362 . S
C674 C677 1.409 . S
C675 H667 0.930 . S
C675 C676 1.355 . S
C675 C677 1.415 . S
C676 C675 1.355 . S
C676 C678 1.419 . S
C677 C672 1.425 . S
C677 C674 1.409 . S
C677 C675 1.415 . S
C678 H668 0.930 . S
C678 C676 1.419 . S
C678 C679 1.362 . S
C679 H669 0.930 . S
C679 C672 1.409 . S
C679 C678 1.362 . S
H680 C686 0.930 . S
H681 C689 0.930 . S
H682 C690 0.930 . S
H683 C691 0.930 . S
H684 C694 0.930 . S
H685 C695 0.930 . S
C686 H680 0.930 . S
C686 C687 1.355 . S
C686 C688 1.415 . S
C687 C686 1.355 . S
C687 C689 1.419 1_554 S
C688 C686 1.415 . S
C688 C693 1.425 1_554 S
C688 C695 1.409 . S
C689 H681 0.930 . S
C689 C687 1.419 1_556 S
C689 C690 1.362 . S
C690 H682 0.930 . S
C690 C689 1.362 . S
C690 C693 1.409 . S
C691 H683 0.930 . S
C691 C692 1.355 1_556 S
C691 C693 1.415 . S
C692 C691 1.355 1_554 S
C692 C694 1.419 . S
C693 C688 1.425 1_556 S
C693 C690 1.409 . S
C693 C691 1.415 . S
C694 H684 0.930 . S
C694 C692 1.419 . S
C694 C695 1.362 . S
C695 H685 0.930 . S
C695 C688 1.409 . S
C695 C694 1.362 . S
H696 C702 0.930 . S
H697 C705 0.930 . S
H698 C706 0.930 . S
H699 C707 0.930 . S
H700 C710 0.930 . S
H701 C711 0.930 . S
C702 H696 0.930 . S
C702 C703 1.355 . S
C702 C704 1.415 . S
C703 C702 1.355 . S
C703 C705 1.419 . S
C704 C702 1.415 . S
C704 C709 1.425 . S
C704 C711 1.409 . S
C705 H697 0.930 . S
C705 C703 1.419 . S
C705 C706 1.362 . S
C706 H698 0.930 . S
C706 C705 1.362 . S
C706 C709 1.409 . S
C707 H699 0.930 . S
C707 C708 1.355 . S
C707 C709 1.415 . S
C708 C707 1.355 . S
C708 C710 1.419 . S
C709 C704 1.425 . S
C709 C706 1.409 . S
C709 C707 1.415 . S
C710 H700 0.930 . S
C710 C708 1.419 . S
C710 C711 1.362 . S
C711 H701 0.930 . S
C711 C704 1.409 . S
C711 C710 1.362 . S
H712 C718 0.930 . S
H713 C721 0.930 . S
H714 C722 0.930 . S
H715 C723 0.930 . S
H716 C726 0.930 . S
H717 C727 0.930 . S
C718 H712 0.930 . S
C718 C719 1.355 1_556 S
C718 C720 1.415 . S
C719 C718 1.355 1_554 S
C719 C721 1.419 . S
C720 C718 1.415 . S
C720 C725 1.425 1_556 S
C720 C727 1.409 . S
C721 H713 0.930 . S
C721 C719 1.419 . S
C721 C722 1.362 . S
C722 H714 0.930 . S
C722 C721 1.362 . S
C722 C725 1.409 . S
C723 H715 0.930 . S
C723 C724 1.355 . S
C723 C725 1.415 . S
C724 C723 1.355 . S
C724 C726 1.419 1_554 S
C725 C720 1.425 1_554 S
C725 C722 1.409 . S
C725 C723 1.415 . S
C726 H716 0.930 . S
C726 C724 1.419 1_556 S
C726 C727 1.362 . S
C727 H717 0.930 . S
C727 C720 1.409 . S
C727 C726 1.362 . S
C351 C21 1.572 . S
C356 C201 1.535 . S
C367 C40 1.671 . S
C372 C117 1.557 . S
C388 C149 1.559 . S
C383 C54 1.554 . S
C399 C73 1.691 . S
C404 C169 1.684 . S
C420 C277 1.560 . S
C415 C74 1.538 . S
C436 C297 1.648 . S
C431 C10 1.656 . S
C452 C329 1.475 . S
C447 C37 1.541 . S
C468 C245 1.534 . S
C463 C65 1.689 . S
C479 C52 1.558 . S
C484 C137 1.548 . S
C495 C87 1.689 . S
C500 C181 1.710 . S
C511 C15 1.554 . S
C516 C213 1.457 . S
C532 C105 1.561 . S
C527 C32 1.656 . S
C543 C29 1.599 . S
C548 C341 1.492 . S
C564 C233 1.546 . S
C559 C59 1.681 . S
C580 C265 1.554 . S
C575 C84 1.530 . S
C591 C8 1.652 . S
C596 C309 1.653 . S
C612 C111 1.635 . S
C607 C7 1.757 . S
C628 C143 1.638 . S
C623 C30 1.640 . S
C639 C62 1.764 . S
C644 C175 1.762 . S
C655 C81 1.630 . S
C660 C207 1.570 . S
C676 C239 1.565 . S
C671 C76 1.764 . S
C687 C18 1.607 . S
C692 C271 1.636 . S
C703 C43 1.760 . S
C708 C303 1.747 . S
C719 C51 1.632 . S
C724 C335 1.573 . S
