# Generated by pormake.
# Topology sit, (3,6)-cn, num edge types: 1
# Building blocks:
#     Node 0, Type 0, BuildingBlock: MIDCAF_clean_linker_0, # of connection points: 3
#     Node 1, Type 0, BuildingBlock: MIDCAF_clean_linker_0, # of connection points: 3
#     Node 2, Type 0, BuildingBlock: MIDCAF_clean_linker_0, # of connection points: 3
#     Node 3, Type 0, BuildingBlock: MIDCAF_clean_linker_0, # of connection points: 3
#     Node 4, Type 1, BuildingBlock: MIDCAF_clean_sbu_0, # of connection points: 6
#     Node 5, Type 1, BuildingBlock: MIDCAF_clean_sbu_0, # of connection points: 6
#     Edge 6, Type (0, 1), BuildingBlock: FUNLAD_clean_linker_1, # of connection points: 2
#     Edge 7, Type (0, 1), BuildingBlock: FUNLAD_clean_linker_1, # of connection points: 2
#     Edge 8, Type (0, 1), BuildingBlock: FUNLAD_clean_linker_1, # of connection points: 2
#     Edge 9, Type (0, 1), BuildingBlock: FUNLAD_clean_linker_1, # of connection points: 2
#     Edge 10, Type (0, 1), BuildingBlock: FUNLAD_clean_linker_1, # of connection points: 2
#     Edge 11, Type (0, 1), BuildingBlock: FUNLAD_clean_linker_1, # of connection points: 2
#     Edge 12, Type (0, 1), BuildingBlock: FUNLAD_clean_linker_1, # of connection points: 2
#     Edge 13, Type (0, 1), BuildingBlock: FUNLAD_clean_linker_1, # of connection points: 2
#     Edge 14, Type (0, 1), BuildingBlock: FUNLAD_clean_linker_1, # of connection points: 2
#     Edge 15, Type (0, 1), BuildingBlock: FUNLAD_clean_linker_1, # of connection points: 2
#     Edge 16, Type (0, 1), BuildingBlock: FUNLAD_clean_linker_1, # of connection points: 2
#     Edge 17, Type (0, 1), BuildingBlock: FUNLAD_clean_linker_1, # of connection points: 2
# Relax obj value: 0.111
# Max RMSD: 0.194
# Mean RMSD: 0.108
data_MOF--net-sit--node1-MIDCAF_clean_sbu_0--node2-MIDCAF_clean_linker_0--edge1-FUNLAD_clean_linker_1
_symmetry_space_group_name_H-M    P1
_symmetry_Int_Tables_number       1
_symmetry_cell_setting            triclinic
loop_
_symmetry_equiv_pos_as_xyz
'x, y, z'
_cell_length_a     29.26657
_cell_length_b     39.804126
_cell_length_c     44.155674
_cell_angle_alpha  90.060526
_cell_angle_beta   89.297549
_cell_angle_gamma 84.317335
loop_
_atom_site_label
_atom_site_type_symbol
_atom_site_fract_x
_atom_site_fract_y
_atom_site_fract_z
_atom_type_partial_charge
C0 C 0.94121 0.45975 0.0364 0.0
C1 C 0.89781 0.44775 0.03589 0.0
C2 C 0.89342 0.41429 0.04488 0.0
C3 C 0.93224 0.39265 0.05231 0.0
H4 H 0.97993 0.30357 0.09742 0.0
H5 H 0.97676 0.25067 0.12451 0.0
H6 H 0.11963 0.22249 0.10233 0.0
H7 H 0.1228 0.27516 0.07503 0.0
H8 H 0.17645 0.32511 0.03165 0.0
H9 H 0.24401 0.33952 0.00397 0.0
H10 H 0.1819 0.44201 0.99383 0.0
H11 H 0.11426 0.42754 0.02122 0.0
H12 H 0.01335 0.44776 0.04239 0.0
H13 H 0.94539 0.4855 0.02983 0.0
H14 H 0.86014 0.40458 0.04549 0.0
H15 H 0.92797 0.36668 0.05803 0.0
N16 N 0.01594 0.34947 0.0673 0.0
N17 N 0.09438 0.33539 0.0566 0.0
N18 N 0.05839 0.38807 0.04223 0.0
C19 C 0.0541 0.32701 0.06886 0.0
C20 C 0.09672 0.36598 0.04326 0.0
C21 C 0.01794 0.38012 0.0541 0.0
C22 C 0.05169 0.29384 0.08402 0.0
C23 C 0.01062 0.286 0.09798 0.0
C24 C 0.00872 0.25559 0.11351 0.0
C25 C 0.04757 0.23203 0.11532 0.0
C26 C 0.08855 0.23949 0.10092 0.0
C27 C 0.09052 0.27003 0.08543 0.0
C28 C 0.13972 0.37505 0.02861 0.0
C29 C 0.17745 0.35082 0.02384 0.0
C30 C 0.21646 0.35922 0.00797 0.0
C31 C 0.21862 0.39218 0.99674 0.0
C32 C 0.18131 0.41644 0.00216 0.0
C33 C 0.14244 0.40807 0.01789 0.0
C34 C 0.97617 0.40399 0.05067 0.0
C35 C 0.98008 0.43804 0.04344 0.0
C36 C 0.92443 0.61566 0.99246 0.0
C37 C 0.88613 0.63848 0.98618 0.0
C38 C 0.88553 0.67208 0.99641 0.0
C39 C 0.92266 0.68247 0.0124 0.0
H40 H 0.96667 0.75161 0.0813 0.0
H41 H 0.96627 0.80587 0.10738 0.0
H42 H 0.11155 0.80589 0.08932 0.0
H43 H 0.11228 0.75144 0.06377 0.0
H44 H 0.16908 0.67578 0.05344 0.0
H45 H 0.23983 0.63942 0.04348 0.0
H46 H 0.16015 0.55686 0.02218 0.0
H47 H 0.09009 0.59273 0.03237 0.0
H48 H 0.99056 0.60765 0.01242 0.0
H49 H 0.9259 0.58967 0.98484 0.0
H50 H 0.85726 0.69078 0.99152 0.0
H51 H 0.9215 0.70861 0.01946 0.0
N52 N 0.00177 0.70241 0.04509 0.0
N53 N 0.08009 0.69193 0.05668 0.0
N54 N 0.04189 0.65013 0.03325 0.0
C55 C 0.04053 0.71305 0.05701 0.0
C56 C 0.08082 0.66024 0.04503 0.0
C57 C 0.00234 0.67093 0.03302 0.0
C58 C 0.03956 0.74716 0.07058 0.0
C59 C -0.00161 0.76343 0.08248 0.0
C60 C -0.00191 0.79448 0.09736 0.0
C61 C 0.03857 0.81037 0.09987 0.0
C62 C 0.07951 0.7947 0.08709 0.0
C63 C 0.08003 0.76328 0.07278 0.0
C64 C 0.12387 0.63733 0.04334 0.0
C65 C 0.16674 0.64965 0.04732 0.0
C66 C 0.20726 0.62882 0.04166 0.0
C67 C 0.20586 0.59519 0.03228 0.0
C68 C 0.16299 0.58234 0.02992 0.0
C69 C 0.12252 0.60319 0.03542 0.0
C70 C 0.9613 0.65965 0.01823 0.0
C71 C 0.96149 0.62603 0.00831 0.0
C72 C 0.46688 0.89791 0.49625 0.0
C73 C 0.4248 0.89074 0.50908 0.0
C74 C 0.42457 0.86513 0.53091 0.0
C75 C 0.46552 0.84603 0.53883 0.0
H76 H 0.52024 0.76127 0.58664 0.0
H77 H 0.52165 0.71275 0.6197 0.0
H78 H 0.66921 0.69621 0.60933 0.0
H79 H 0.66793 0.74537 0.57641 0.0
H80 H 0.71101 0.8354 0.55645 0.0
H81 H 0.77691 0.86114 0.53439 0.0
H82 H 0.71301 0.86276 0.44677 0.0
H83 H 0.64675 0.83846 0.46893 0.0
H84 H 0.5392 0.88529 0.49353 0.0
H85 H 0.46852 0.91821 0.48008 0.0
H86 H 0.39256 0.85935 0.5413 0.0
H87 H 0.46418 0.82609 0.55539 0.0
N88 N 0.55241 0.80551 0.55188 0.0
N89 N 0.63289 0.7973 0.54689 0.0
N90 N 0.59121 0.8413 0.52088 0.0
C91 C 0.59308 0.7876 0.55882 0.0
C92 C 0.63191 0.82404 0.52776 0.0
C93 C 0.55132 0.83255 0.53299 0.0
C94 C 0.59395 0.75743 0.57875 0.0
C95 C 0.55304 0.74722 0.59116 0.0
C96 C 0.55384 0.71891 0.60998 0.0
C97 C 0.59565 0.69989 0.61673 0.0
C98 C 0.63644 0.71008 0.6043 0.0
C99 C 0.63567 0.73839 0.58549 0.0
C100 C 0.67422 0.83486 0.51426 0.0
C101 C 0.71164 0.84078 0.53241 0.0
C102 C 0.74899 0.85561 0.51989 0.0
C103 C 0.75004 0.8635 0.48893 0.0
C104 C 0.7133 0.8564 0.47062 0.0
C105 C 0.67545 0.84261 0.48328 0.0
C106 C 0.50751 0.85261 0.52532 0.0
C107 C 0.50761 0.87907 0.5042 0.0
C108 C 0.41349 0.13059 0.51089 0.0
C109 C 0.37539 0.15445 0.50667 0.0
C110 C 0.37811 0.18794 0.51604 0.0
C111 C 0.41906 0.1979 0.52754 0.0
H112 H 0.47969 0.27273 0.57597 0.0
H113 H 0.4856 0.32445 0.60394 0.0
H114 H 0.63325 0.30316 0.60551 0.0
H115 H 0.62736 0.25092 0.57768 0.0
H116 H 0.67363 0.17414 0.5546 0.0
H117 H 0.74093 0.14 0.53353 0.0
H118 H 0.6539 0.09371 0.47086 0.0
H119 H 0.58703 0.12706 0.49188 0.0
H120 H 0.48336 0.12161 0.52433 0.0
H121 H 0.41223 0.10423 0.50531 0.0
H122 H 0.34901 0.20672 0.51343 0.0
H123 H 0.4207 0.22417 0.53344 0.0
N124 N 0.50698 0.21499 0.5524 0.0
N125 N 0.58753 0.20446 0.55067 0.0
N126 N 0.54173 0.16538 0.53015 0.0
C127 C 0.5491 0.22479 0.5589 0.0
C128 C 0.58393 0.17472 0.53615 0.0
C129 C 0.50317 0.18511 0.53821 0.0
C130 C 0.55301 0.25741 0.5746 0.0
C131 C 0.51354 0.27915 0.58196 0.0
C132 C 0.51701 0.30924 0.59779 0.0
C133 C 0.56018 0.3184 0.60658 0.0
C134 C 0.59959 0.29695 0.59882 0.0
C135 C 0.59615 0.26692 0.58293 0.0
C136 C 0.62496 0.15334 0.52497 0.0
C137 C 0.66889 0.15636 0.5366 0.0
C138 C 0.70731 0.13657 0.52477 0.0
C139 C 0.7023 0.11386 0.50085 0.0
C140 C 0.6585 0.11079 0.48947 0.0
C141 C 0.62023 0.12996 0.50157 0.0
C142 C 0.45799 0.17443 0.52986 0.0
C143 C 0.45434 0.14053 0.52214 0.0
Zn144 Zn 0.04482 0.06756 0.34337 0.0
Zn145 Zn 0.10619 0.93855 0.33239 0.0
Zn146 Zn 0.07506 1.00238 0.33823 0.0
C147 C 0.08475 0.96188 0.27436 0.0
C148 C 0.02529 0.94081 0.36694 0.0
O149 O 0.12713 0.02725 0.36245 0.0
O150 O 0.09745 0.08043 0.36742 0.0
C151 C 0.05575 0.05495 0.28177 0.0
O152 O 0.07624 0.98991 0.28898 0.0
O153 O 0.09787 0.93511 0.2884 0.0
O154 O 0.05909 0.92044 0.35897 0.0
O155 O 0.02458 0.97253 0.36075 0.0
O156 O 0.04278 0.07868 0.29986 0.0
O157 O 0.06798 0.02509 0.29201 0.0
O158 O 0.01182 0.00749 0.36698 0.0
O159 O 0.9879 0.062 0.36613 0.0
C160 C 0.98308 0.03253 0.37535 0.0
O161 O 0.14354 0.99276 0.36024 0.0
O162 O 0.16904 0.94029 0.34783 0.0
C163 C 0.12947 0.05748 0.3723 0.0
C164 C 0.17499 0.96766 0.36089 0.0
Zn165 Zn 0.50101 0.56887 0.85559 0.0
Zn166 Zn 0.59786 0.44717 0.84535 0.0
Zn167 Zn 0.55311 0.50964 0.85232 0.0
C168 C 0.572 0.47046 0.78793 0.0
C169 C 0.51698 0.44093 0.87923 0.0
O170 O 0.59745 0.54345 0.8739 0.0
O171 O 0.55166 0.59136 0.8747 0.0
C172 C 0.51454 0.55635 0.79487 0.0
O173 O 0.55536 0.49608 0.80377 0.0
O174 O 0.59404 0.44553 0.80059 0.0
O175 O 0.5526 0.42334 0.86978 0.0
O176 O 0.51203 0.47312 0.87484 0.0
O177 O 0.48971 0.57627 0.81186 0.0
O178 O 0.53957 0.53101 0.80619 0.0
O179 O 0.49324 0.50658 0.88285 0.0
O180 O 0.45193 0.55631 0.88303 0.0
C181 C 0.45889 0.52647 0.89276 0.0
O182 O 0.62035 0.50923 0.87487 0.0
O183 O 0.65501 0.45823 0.86495 0.0
C184 C 0.58993 0.57514 0.88027 0.0
C185 C 0.65498 0.48675 0.87744 0.0
H186 H 0.01672 0.20239 0.15105 0.0
C187 C 0.0446 0.2015 0.13444 0.0
H188 H 0.10263 0.17118 0.11692 0.0
H189 H 0.133 0.10257 0.24632 0.0
H190 H 0.20244 0.13057 0.23971 0.0
H191 H 0.21333 0.16586 0.19479 0.0
H192 H 0.15486 0.17344 0.15626 0.0
C193 C 0.07442 0.17348 0.13318 0.0
C194 C 0.0722 0.14656 0.15649 0.0
C195 C 0.10745 0.14154 0.17824 0.0
C196 C 0.10116 0.12123 0.20416 0.0
C197 C 0.13602 0.11774 0.22621 0.0
C198 C 0.17607 0.13363 0.22268 0.0
C199 C 0.1822 0.15349 0.19738 0.0
C200 C 0.14835 0.15761 0.17541 0.0
H201 H 0.07833 0.04391 0.23419 0.0
C202 C 0.06056 0.06268 0.24914 0.0
H203 H 0.02968 0.11276 0.25359 0.0
H204 H 0.00354 0.14416 0.1154 0.0
H205 H 0.93577 0.11376 0.12091 0.0
H206 H 0.92432 0.07943 0.1664 0.0
H207 H 0.98082 0.07505 0.2066 0.0
C208 C 0.04736 0.09386 0.23869 0.0
C209 C 0.05984 0.10586 0.20813 0.0
C210 C 0.02686 0.10801 0.18489 0.0
C211 C 0.03317 0.12819 0.15889 0.0
C212 C -0.00022 0.12979 0.13591 0.0
C213 C 0.96095 0.11232 0.13873 0.0
C214 C 0.95452 0.09296 0.16435 0.0
C215 C 0.98699 0.09077 0.18727 0.0
H216 H 0.01634 0.84233 0.13912 0.0
C217 C 0.03841 0.84096 0.11907 0.0
H218 H 0.0873 0.86482 0.09365 0.0
H219 H -0.00131 0.957 0.21428 0.0
H220 H 0.92588 0.96075 0.18813 0.0
H221 H 0.91974 0.93428 0.13796 0.0
H222 H 0.98642 0.90321 0.11393 0.0
C223 C 0.06581 0.86565 0.1139 0.0
C224 C 0.07201 0.89131 0.13782 0.0
C225 C 0.03354 0.91103 0.15068 0.0
C226 C 0.03751 0.92736 0.17908 0.0
C227 C -0.00218 0.9447 0.1925 0.0
C228 C 0.95583 0.94707 0.1777 0.0
C229 C 0.95234 0.9321 0.14947 0.0
C230 C 0.99065 0.91421 0.13603 0.0
H231 H 0.07159 0.98329 0.22824 0.0
C232 C 0.07907 0.96022 0.24111 0.0
H233 H 0.09114 0.90709 0.24004 0.0
H234 H 0.15521 0.86271 0.11569 0.0
H235 H 0.22933 0.86483 0.13898 0.0
H236 H 0.23644 0.89528 0.18714 0.0
H237 H 0.16895 0.92365 0.21239 0.0
C238 C 0.08284 0.93002 0.22705 0.0
C239 C 0.08043 0.92496 0.1938 0.0
C240 C 0.12011 0.9099 0.17854 0.0
C241 C 0.116 0.89285 0.15056 0.0
C242 C 0.15612 0.87636 0.13679 0.0
C243 C 0.19901 0.87739 0.14994 0.0
C244 C 0.20302 0.89449 0.17707 0.0
C245 C 0.16411 0.9105 0.19136 0.0
H246 H 0.63188 0.66332 0.6482 0.0
C247 C 0.5986 0.67103 0.63835 0.0
H248 H 0.52921 0.6602 0.63688 0.0
H249 H 0.54628 0.5199 0.7016 0.0
H250 H 0.53225 0.50301 0.64985 0.0
H251 H 0.53427 0.54375 0.60788 0.0
H252 H 0.5499 0.60166 0.61735 0.0
C253 C 0.56234 0.65511 0.64753 0.0
C254 C 0.56599 0.62962 0.67238 0.0
C255 C 0.55728 0.59579 0.66637 0.0
C256 C 0.55648 0.57213 0.6905 0.0
C257 C 0.5471 0.53872 0.68402 0.0
C258 C 0.53916 0.52873 0.65446 0.0
C259 C 0.54029 0.55169 0.63082 0.0
C260 C 0.54918 0.58486 0.63657 0.0
H261 H 0.49027 0.58292 0.75381 0.0
C262 C 0.51763 0.56524 0.7626 0.0
H263 H 0.58621 0.54426 0.75568 0.0
H264 H 0.5804 0.69311 0.69299 0.0
H265 H 0.59937 0.70821 0.74398 0.0
H266 H 0.60476 0.66568 0.7847 0.0
H267 H 0.5901 0.60786 0.77458 0.0
C268 C 0.55695 0.55974 0.74655 0.0
C269 C 0.56474 0.58225 0.72048 0.0
C270 C 0.57634 0.6154 0.72625 0.0
C271 C 0.57555 0.63944 0.70243 0.0
C272 C 0.58296 0.67319 0.70964 0.0
C273 C 0.59345 0.68237 0.73901 0.0
C274 C 0.5963 0.65848 0.76195 0.0
C275 C 0.58766 0.62541 0.75583 0.0
H276 H 0.59689 0.34786 0.63909 0.0
C277 C 0.56532 0.34812 0.62627 0.0
H278 H 0.50081 0.37577 0.6183 0.0
H279 H 0.50114 0.42104 0.75697 0.0
H280 H 0.43753 0.38647 0.75619 0.0
H281 H 0.4182 0.35729 0.70942 0.0
H282 H 0.46257 0.36244 0.66319 0.0
C283 C 0.53277 0.3741 0.63061 0.0
C284 C 0.53717 0.39826 0.65593 0.0
C285 C 0.50968 0.39606 0.68235 0.0
C286 C 0.52069 0.41303 0.70925 0.0
C287 C 0.49419 0.40895 0.73582 0.0
C288 C 0.45753 0.38915 0.7357 0.0
C289 C 0.44665 0.37271 0.70938 0.0
C290 C 0.47242 0.37589 0.68299 0.0
H291 H 0.53373 0.48587 0.74643 0.0
C292 C 0.56066 0.46813 0.75554 0.0
H293 H 0.60529 0.42389 0.74776 0.0
H294 H 0.58887 0.4142 0.60715 0.0
H295 H 0.64929 0.45213 0.60694 0.0
H296 H 0.66865 0.48138 0.65372 0.0
H297 H 0.6276 0.47301 0.701 0.0
C298 C 0.57834 0.44171 0.73875 0.0
C299 C 0.55874 0.4325 0.70941 0.0
C300 C 0.58283 0.43769 0.68213 0.0
C301 C 0.57191 0.42065 0.65526 0.0
C302 C 0.59648 0.4262 0.62825 0.0
C303 C 0.63098 0.44797 0.62784 0.0
C304 C 0.64191 0.46444 0.65419 0.0
C305 C 0.61833 0.45933 0.68115 0.0
H306 H 0.25283 0.4265 0.96669 0.0
C307 C 0.25763 0.40228 0.9781 0.0
H308 H 0.30636 0.36023 0.9863 0.0
H309 H 0.38457 0.42028 0.85774 0.0
H310 H 0.31743 0.40003 0.83513 0.0
H311 H 0.2581 0.37695 0.86688 0.0
H312 H 0.26546 0.3742 0.92144 0.0
C313 C 0.29819 0.38373 0.97426 0.0
C314 C 0.33472 0.39646 0.95493 0.0
C315 C 0.33036 0.39725 0.92298 0.0
C316 C 0.36479 0.41028 0.90468 0.0
C317 C 0.35934 0.41096 0.87283 0.0
C318 C 0.32103 0.39926 0.8595 0.0
C319 C 0.28762 0.38628 0.87737 0.0
C320 C 0.29218 0.38502 0.90871 0.0
H321 H 0.49348 0.40077 0.90838 0.0
C322 C 0.48247 0.42418 0.89674 0.0
H323 H 0.42648 0.4585 0.88481 0.0
H324 H 0.35189 0.40003 0.01547 0.0
H325 H 0.41719 0.42247 0.03857 0.0
H326 H 0.47763 0.44448 0.00707 0.0
H327 H 0.47331 0.44412 0.95259 0.0
C328 C 0.43846 0.43709 0.8988 0.0
C329 C 0.40398 0.42193 0.91827 0.0
C330 C 0.4082 0.42128 0.95035 0.0
C331 C 0.37339 0.40859 0.96862 0.0
C332 C 0.37751 0.40918 0.00055 0.0
C333 C 0.41476 0.42205 0.01414 0.0
C334 C 0.44876 0.43442 0.99641 0.0
C335 C 0.44579 0.43401 0.96496 0.0
H336 H 0.85577 0.60241 0.95608 0.0
C337 C 0.84867 0.62637 0.96798 0.0
H338 H 0.79633 0.66542 0.97886 0.0
H339 H 0.71637 0.60354 0.85299 0.0
H340 H 0.7785 0.62869 0.82762 0.0
H341 H 0.83701 0.6547 0.85697 0.0
H342 H 0.83388 0.65547 0.91187 0.0
C343 C 0.80643 0.6427 0.96589 0.0
C344 C 0.77055 0.62808 0.94804 0.0
C345 C 0.77247 0.6284 0.91596 0.0
C346 C 0.73851 0.6137 0.89906 0.0
C347 C 0.74143 0.61412 0.86701 0.0
C348 C 0.77682 0.62861 0.85213 0.0
C349 C 0.80976 0.64324 0.86865 0.0
C350 C 0.80767 0.64336 0.90017 0.0
H351 H 0.61221 0.61619 0.90828 0.0
C352 C 0.62415 0.59319 0.89606 0.0
H353 H 0.68149 0.56104 0.88188 0.0
H354 H 0.75864 0.62207 0.00925 0.0
H355 H 0.698 0.59553 0.03492 0.0
H356 H 0.6379 0.57106 0.00585 0.0
H357 H 0.63794 0.57309 0.95131 0.0
C358 C 0.66873 0.58209 0.89627 0.0
C359 C 0.70227 0.59927 0.91427 0.0
C360 C 0.70023 0.59916 0.94648 0.0
C361 C 0.73468 0.61341 0.96331 0.0
C362 C 0.73308 0.61187 0.99537 0.0
C363 C 0.69852 0.59665 0.01042 0.0
C364 C 0.66471 0.5829 0.99407 0.0
C365 C 0.66525 0.58421 0.96256 0.0
H366 H 0.85782 0.49698 0.02658 0.0
C367 C 0.85852 0.4698 0.0237 0.0
H368 H 0.82907 0.4304 0.00144 0.0
H369 H 0.63552 0.49324 0.96974 0.0
H370 H 0.61708 0.46661 0.0169 0.0
H371 H 0.67812 0.44564 0.05215 0.0
H372 H 0.75829 0.45134 0.04022 0.0
C373 C 0.82789 0.4574 0.00542 0.0
C374 C 0.7918 0.47899 0.98915 0.0
C375 C 0.74516 0.47631 0.99663 0.0
C376 C 0.71006 0.48869 0.97638 0.0
C377 C 0.6638 0.4846 0.98417 0.0
C378 C 0.65264 0.46931 0.01127 0.0
C379 C 0.687 0.45747 0.0311 0.0
C380 C 0.7328 0.46076 0.02394 0.0
H381 H 0.72551 0.47586 0.89362 0.0
C382 C 0.69336 0.49144 0.89774 0.0
H383 H 0.65347 0.521 0.92923 0.0
H384 H 0.87745 0.49415 0.97067 0.0
H385 H 0.89519 0.52696 0.92672 0.0
H386 H 0.83405 0.54937 0.89209 0.0
H387 H 0.75509 0.53837 0.90109 0.0
C388 C 0.68705 0.50818 0.92408 0.0
C389 C 0.72199 0.50339 0.94846 0.0
C390 C 0.76814 0.51004 0.94296 0.0
C391 C 0.80321 0.49769 0.96327 0.0
C392 C 0.8492 0.50352 0.95652 0.0
C393 C 0.85995 0.52226 0.93124 0.0
C394 C 0.82558 0.53483 0.91172 0.0
C395 C 0.78031 0.52846 0.9172 0.0
H396 H 0.27611 0.59112 0.01368 0.0
C397 C 0.24888 0.57613 0.02104 0.0
H398 H 0.22859 0.52659 0.02394 0.0
H399 H 0.33541 0.4925 0.90009 0.0
H400 H 0.2607 0.47249 0.89112 0.0
H401 H 0.20002 0.47823 0.93067 0.0
H402 H 0.21401 0.50286 0.97962 0.0
C403 C 0.25467 0.54244 0.01667 0.0
C404 C 0.29379 0.5276 0.99745 0.0
C405 C 0.28481 0.51261 0.96929 0.0
C406 C 0.31919 0.51014 0.94621 0.0
C407 C 0.30978 0.49554 0.91804 0.0
C408 C 0.26724 0.48394 0.91269 0.0
C409 C 0.23309 0.48716 0.93497 0.0
C410 C 0.24152 0.50141 0.96297 0.0
H411 H 0.4434 0.49441 0.93143 0.0
C412 C 0.43008 0.51549 0.91765 0.0
H413 H 0.3753 0.55299 0.91077 0.0
H414 H 0.32637 0.54397 0.05242 0.0
H415 H 0.40356 0.55879 0.06293 0.0
H416 H 0.46198 0.55815 0.02206 0.0
H417 H 0.44416 0.54219 0.97084 0.0
C418 C 0.38958 0.53229 0.92488 0.0
C419 C 0.36167 0.52313 0.9513 0.0
C420 C 0.37316 0.53269 0.98095 0.0
C421 C 0.33922 0.53416 0.00428 0.0
C422 C 0.35099 0.54343 0.03387 0.0
C423 C 0.39502 0.55178 0.04014 0.0
C424 C 0.42793 0.55136 0.01714 0.0
C425 C 0.41725 0.54213 0.98779 0.0
H426 H 0.79842 0.90275 0.48843 0.0
C427 C 0.78798 0.88114 0.47618 0.0
H428 H 0.79859 0.84929 0.43824 0.0
H429 H 0.88564 0.94102 0.34482 0.0
H430 H 0.81599 0.92844 0.32007 0.0
H431 H 0.7572 0.8998 0.34762 0.0
H432 H 0.76812 0.88299 0.39986 0.0
C433 C 0.80917 0.87117 0.45003 0.0
C434 C 0.84347 0.89097 0.4347 0.0
C435 C 0.83583 0.90162 0.40431 0.0
C436 C 0.86898 0.91921 0.3887 0.0
C437 C 0.8613 0.92821 0.358 0.0
C438 C 0.82141 0.92113 0.34346 0.0
C439 C 0.78837 0.90495 0.35895 0.0
C440 C 0.79527 0.89526 0.38897 0.0
H441 H -0.00464 0.90258 0.39464 0.0
C442 C 0.98795 0.92725 0.38424 0.0
H443 H 0.93643 0.9661 0.37411 0.0
H444 H 0.87398 0.86975 0.49097 0.0
H445 H 0.93879 0.88838 0.51755 0.0
H446 H 0.98844 0.92752 0.4934 0.0
H447 H 0.97459 0.94691 0.44196 0.0
C448 C 0.94542 0.94304 0.38666 0.0
C449 C 0.90881 0.9274 0.40385 0.0
C450 C 0.91478 0.91896 0.43487 0.0
C451 C 0.8836 0.89906 0.44978 0.0
C452 C 0.89412 0.8872 0.47937 0.0
C453 C 0.93167 0.89735 0.49479 0.0
C454 C 0.95979 0.91919 0.48114 0.0
C455 C 0.95169 0.92988 0.4515 0.0
H456 H 0.30153 0.16203 0.49537 0.0
C457 C 0.333 0.14545 0.49184 0.0
H458 H 0.36351 0.10297 0.46715 0.0
H459 H 0.17005 0.04608 0.44865 0.0
H460 H 0.20099 0.00844 0.48814 0.0
H461 H 0.27359 0.01792 0.51311 0.0
H462 H 0.31509 0.0656 0.49916 0.0
C463 C 0.33272 0.11959 0.47219 0.0
C464 C 0.29038 0.11304 0.45601 0.0
C465 C 0.26713 0.08473 0.46405 0.0
C466 C 0.22621 0.07857 0.4489 0.0
C467 C 0.20228 0.05116 0.45852 0.0
C468 C 0.21942 0.02955 0.4814 0.0
C469 C 0.26025 0.03492 0.49549 0.0
C470 C 0.28377 0.06232 0.48721 0.0
H471 H 0.20002 0.04752 0.38847 0.0
C472 C 0.16954 0.06516 0.38973 0.0
H473 H 0.13856 0.11078 0.40863 0.0
H474 H 0.32888 0.16808 0.43347 0.0
H475 H 0.29946 0.20451 0.39277 0.0
H476 H 0.22872 0.1936 0.36622 0.0
H477 H 0.18707 0.14613 0.38021 0.0
C478 C 0.16878 0.09257 0.40754 0.0
C479 C 0.20988 0.09991 0.42482 0.0
C480 C 0.23328 0.12815 0.41672 0.0
C481 C 0.27376 0.13463 0.43222 0.0
C482 C 0.29736 0.16237 0.42297 0.0
C483 C 0.28101 0.1834 0.39948 0.0
C484 C 0.24121 0.17724 0.38452 0.0
C485 C 0.21758 0.14992 0.39284 0.0
H486 H 0.35298 0.91356 0.51593 0.0
C487 C 0.38096 0.90941 0.49951 0.0
H488 H 0.40161 0.91425 0.45389 0.0
H489 H 0.17796 0.93354 0.43396 0.0
H490 H 0.17428 0.87951 0.45876 0.0
H491 H 0.24275 0.85038 0.48282 0.0
H492 H 0.31469 0.87533 0.48291 0.0
C493 C 0.37412 0.919 0.47057 0.0
C494 C 0.33072 0.93742 0.45963 0.0
C495 C 0.28921 0.92173 0.45921 0.0
C496 C 0.25026 0.93775 0.44414 0.0
C497 C 0.20882 0.92211 0.44456 0.0
C498 C 0.20621 0.89112 0.45872 0.0
C499 C 0.24471 0.87478 0.47234 0.0
C500 C 0.28586 0.88963 0.47246 0.0
H501 H 0.24761 0.95329 0.37041 0.0
C502 C 0.21715 0.96874 0.37851 0.0
H503 H 0.18453 0.99264 0.41671 0.0
H504 H 0.40176 0.97718 0.46101 0.0
H505 H 0.40508 0.03109 0.43569 0.0
H506 H 0.33998 0.05586 0.40533 0.0
H507 H 0.27101 0.02717 0.40074 0.0
C508 C 0.21621 0.98038 0.40704 0.0
C509 C 0.25382 0.96805 0.42782 0.0
C510 C 0.2946 0.98431 0.4292 0.0
C511 C 0.33263 0.96943 0.44583 0.0
C512 C 0.37231 0.98696 0.44798 0.0
C513 C 0.37462 0.01793 0.43365 0.0
C514 C 0.33798 0.03188 0.41657 0.0
C515 C 0.29849 0.01525 0.41417 0.0
H516 H 0.73914 0.09158 0.46088 0.0
C517 C 0.74212 0.09549 0.48515 0.0
H518 H 0.78471 0.08667 0.52318 0.0
H519 H 0.86292 1.00467 0.39493 0.0
H520 H 0.79668 0.97272 0.40038 0.0
H521 H 0.74389 0.98192 0.44415 0.0
H522 H 0.75499 0.02512 0.48173 0.0
C523 C 0.78103 0.0835 0.49893 0.0
C524 C 0.82103 0.06896 0.48032 0.0
C525 C 0.81627 0.04186 0.46004 0.0
C526 C 0.84836 0.03511 0.43584 0.0
C527 C 0.84038 0.01011 0.41426 0.0
C528 C 0.8027 0.99146 0.41721 0.0
C529 C 0.77267 0.99687 0.44174 0.0
C530 C 0.77919 0.0218 0.46298 0.0
H531 H 0.95119 1.00588 0.41301 0.0
C532 C 0.94765 0.02815 0.39874 0.0
H533 H 0.91237 0.07619 0.39155 0.0
H534 H 0.84551 0.11753 0.51939 0.0
H535 H 0.91475 0.14621 0.51658 0.0
H536 H 0.97246 0.13254 0.47608 0.0
H537 H 0.96096 0.09026 0.43796 0.0
C538 C 0.91477 0.05325 0.40502 0.0
C539 C 0.88643 0.05428 0.43315 0.0
C540 C 0.89449 0.07808 0.45591 0.0
C541 C 0.86162 0.08557 0.4795 0.0
C542 C 0.86948 0.11063 0.50109 0.0
C543 C 0.90916 0.12728 0.49977 0.0
C544 C 0.94163 0.11961 0.47695 0.0
C545 C 0.93452 0.09538 0.45517 0.0
loop_
_geom_bond_atom_site_label_1
_geom_bond_atom_site_label_2
_geom_bond_distance
_geom_bond_site_symmetry_2
_ccdc_geom_bond_type
C0 C1 1.384 . S
C0 H13 0.947 . S
C0 C35 1.382 1_655 S
C1 C0 1.384 . S
C1 C2 1.376 1_556 S
C2 C1 1.376 1_554 S
C2 C3 1.379 . S
C2 H14 0.954 . S
C3 C2 1.379 . S
C3 H15 0.950 . S
C3 C34 1.383 1_655 S
H4 C23 0.947 . S
H5 C24 0.946 . S
H6 C26 0.953 . S
H7 C27 0.945 . S
H8 C29 0.952 . S
H9 C30 0.951 . S
H10 C32 0.950 . S
H11 C33 0.948 . S
H12 C35 0.951 . S
H13 C0 0.947 . S
H14 C2 0.954 . S
H15 C3 0.950 . S
N16 C19 1.382 . S
N16 C21 1.363 . S
N17 C19 1.371 . S
N17 C20 1.372 . S
N18 C20 1.361 . S
N18 C21 1.377 . S
C19 N16 1.382 . S
C19 N17 1.371 . S
C19 C22 1.480 . S
C20 N17 1.372 . S
C20 N18 1.361 . S
C20 C28 1.457 . S
C21 N16 1.363 . S
C21 N18 1.377 . S
C21 C34 1.479 . S
C22 C19 1.480 . S
C22 C23 1.383 . S
C22 C27 1.385 . S
C23 H4 0.947 . S
C23 C22 1.383 . S
C23 C24 1.388 . S
C24 H5 0.946 . S
C24 C23 1.388 . S
C24 C25 1.384 . S
C25 C24 1.384 . S
C25 C26 1.377 . S
C26 H6 0.953 . S
C26 C25 1.377 . S
C26 C27 1.369 . S
C27 H7 0.945 . S
C27 C22 1.385 . S
C27 C26 1.369 . S
C28 C20 1.457 . S
C28 C29 1.372 . S
C28 C33 1.364 1_554 S
C29 H8 0.952 . S
C29 C28 1.372 . S
C29 C30 1.391 . S
C30 H9 0.951 . S
C30 C29 1.391 . S
C30 C31 1.382 1_554 S
C31 C30 1.382 1_556 S
C31 C32 1.372 . S
C32 H10 0.950 . S
C32 C31 1.372 . S
C32 C33 1.379 . S
C33 H11 0.948 . S
C33 C28 1.364 1_556 S
C33 C32 1.379 . S
C34 C3 1.383 1_455 S
C34 C21 1.479 . S
C34 C35 1.398 1_554 S
C35 C0 1.382 1_455 S
C35 H12 0.951 . S
C35 C34 1.398 1_556 S
C36 C37 1.384 . S
C36 H49 0.947 . S
C36 C71 1.382 . S
C37 C36 1.384 . S
C37 C38 1.378 1_556 S
C38 C37 1.378 1_554 S
C38 C39 1.378 . S
C38 H50 0.952 . S
C39 C38 1.378 . S
C39 H51 0.950 . S
C39 C70 1.383 . S
H40 C59 0.947 . S
H41 C60 0.946 . S
H42 C62 0.953 . S
H43 C63 0.945 . S
H44 C65 0.952 . S
H45 C66 0.949 1_554 S
H46 C68 0.950 . S
H47 C69 0.948 . S
H48 C71 0.951 . S
H49 C36 0.947 . S
H50 C38 0.952 . S
H51 C39 0.950 . S
N52 C55 1.382 1_655 S
N52 C57 1.363 . S
N53 C55 1.371 . S
N53 C56 1.372 . S
N54 C56 1.361 1_556 S
N54 C57 1.377 1_456 S
C55 N52 1.382 1_455 S
C55 N53 1.371 . S
C55 C58 1.480 . S
C56 N53 1.372 . S
C56 N54 1.361 1_554 S
C56 C64 1.457 1_554 S
C57 N52 1.363 . S
C57 N54 1.377 1_654 S
C57 C70 1.479 . S
C58 C55 1.480 . S
C58 C59 1.383 1_455 S
C58 C63 1.385 . S
C59 H40 0.947 . S
C59 C58 1.383 1_655 S
C59 C60 1.388 . S
C60 H41 0.946 . S
C60 C59 1.388 . S
C60 C61 1.384 1_655 S
C61 C60 1.384 1_455 S
C61 C62 1.377 . S
C62 H42 0.953 . S
C62 C61 1.377 . S
C62 C63 1.369 . S
C63 H43 0.945 . S
C63 C58 1.385 . S
C63 C62 1.369 . S
C64 C56 1.457 1_556 S
C64 C65 1.372 1_556 S
C64 C69 1.364 . S
C65 H44 0.952 . S
C65 C64 1.372 1_554 S
C65 C66 1.389 1_554 S
C66 H45 0.949 1_556 S
C66 C65 1.389 1_556 S
C66 C67 1.387 . S
C67 C66 1.387 . S
C67 C68 1.372 . S
C68 H46 0.950 . S
C68 C67 1.372 . S
C68 C69 1.379 . S
C69 H47 0.948 . S
C69 C64 1.364 . S
C69 C68 1.379 . S
C70 C39 1.383 . S
C70 C57 1.479 . S
C70 C71 1.398 1_554 S
C71 C36 1.382 . S
C71 H48 0.951 . S
C71 C70 1.398 1_556 S
C72 C73 1.384 . S
C72 H85 0.947 . S
C72 C107 1.382 . S
C73 C72 1.384 . S
C73 C74 1.378 . S
C74 C73 1.378 . S
C74 C75 1.378 . S
C74 H86 0.952 . S
C75 C74 1.378 . S
C75 H87 0.950 . S
C75 C106 1.383 . S
H76 C95 0.947 . S
H77 C96 0.946 . S
H78 C98 0.953 . S
H79 C99 0.945 . S
H80 C101 0.952 . S
H81 C102 0.949 . S
H82 C104 0.950 . S
H83 C105 0.948 . S
H84 C107 0.951 . S
H85 C72 0.947 . S
H86 C74 0.952 . S
H87 C75 0.950 . S
N88 C91 1.382 . S
N88 C93 1.363 . S
N89 C91 1.371 . S
N89 C92 1.372 . S
N90 C92 1.361 . S
N90 C93 1.377 . S
C91 N88 1.382 . S
C91 N89 1.371 . S
C91 C94 1.480 . S
C92 N89 1.372 . S
C92 N90 1.361 . S
C92 C100 1.457 . S
C93 N88 1.363 . S
C93 N90 1.377 . S
C93 C106 1.479 . S
C94 C91 1.480 . S
C94 C95 1.383 . S
C94 C99 1.385 . S
C95 H76 0.947 . S
C95 C94 1.383 . S
C95 C96 1.388 . S
C96 H77 0.946 . S
C96 C95 1.388 . S
C96 C97 1.384 . S
C97 C96 1.384 . S
C97 C98 1.377 . S
C98 H78 0.953 . S
C98 C97 1.377 . S
C98 C99 1.369 . S
C99 H79 0.945 . S
C99 C94 1.385 . S
C99 C98 1.369 . S
C100 C92 1.457 . S
C100 C101 1.372 . S
C100 C105 1.364 . S
C101 H80 0.952 . S
C101 C100 1.372 . S
C101 C102 1.389 . S
C102 H81 0.949 . S
C102 C101 1.389 . S
C102 C103 1.387 . S
C103 C102 1.387 . S
C103 C104 1.372 . S
C104 H82 0.950 . S
C104 C103 1.372 . S
C104 C105 1.379 . S
C105 H83 0.948 . S
C105 C100 1.364 . S
C105 C104 1.379 . S
C106 C75 1.383 . S
C106 C93 1.479 . S
C106 C107 1.398 . S
C107 C72 1.382 . S
C107 H84 0.951 . S
C107 C106 1.398 . S
C108 C109 1.384 . S
C108 H121 0.947 . S
C108 C143 1.382 . S
C109 C108 1.384 . S
C109 C110 1.378 . S
C110 C109 1.378 . S
C110 C111 1.378 . S
C110 H122 0.952 . S
C111 C110 1.378 . S
C111 H123 0.950 . S
C111 C142 1.383 . S
H112 C131 0.947 . S
H113 C132 0.946 . S
H114 C134 0.953 . S
H115 C135 0.945 . S
H116 C137 0.952 . S
H117 C138 0.949 . S
H118 C140 0.950 . S
H119 C141 0.948 . S
H120 C143 0.951 . S
H121 C108 0.947 . S
H122 C110 0.952 . S
H123 C111 0.950 . S
N124 C127 1.382 . S
N124 C129 1.363 . S
N125 C127 1.371 . S
N125 C128 1.372 . S
N126 C128 1.361 . S
N126 C129 1.377 . S
C127 N124 1.382 . S
C127 N125 1.371 . S
C127 C130 1.480 . S
C128 N125 1.372 . S
C128 N126 1.361 . S
C128 C136 1.457 . S
C129 N124 1.363 . S
C129 N126 1.377 . S
C129 C142 1.479 . S
C130 C127 1.480 . S
C130 C131 1.383 . S
C130 C135 1.385 . S
C131 H112 0.947 . S
C131 C130 1.383 . S
C131 C132 1.388 . S
C132 H113 0.946 . S
C132 C131 1.388 . S
C132 C133 1.384 . S
C133 C132 1.384 . S
C133 C134 1.377 . S
C134 H114 0.953 . S
C134 C133 1.377 . S
C134 C135 1.369 . S
C135 H115 0.945 . S
C135 C130 1.385 . S
C135 C134 1.369 . S
C136 C128 1.457 . S
C136 C137 1.372 . S
C136 C141 1.364 . S
C137 H116 0.952 . S
C137 C136 1.372 . S
C137 C138 1.389 . S
C138 H117 0.949 . S
C138 C137 1.389 . S
C138 C139 1.387 . S
C139 C138 1.387 . S
C139 C140 1.372 . S
C140 H118 0.950 . S
C140 C139 1.372 . S
C140 C141 1.379 . S
C141 H119 0.948 . S
C141 C136 1.364 . S
C141 C140 1.379 . S
C142 C111 1.383 . S
C142 C129 1.479 . S
C142 C143 1.398 . S
C143 C108 1.382 . S
C143 H120 0.951 . S
C143 C142 1.398 . S
Zn144 O150 1.920 . S
Zn144 O156 1.898 . S
Zn144 O159 1.905 1_455 S
Zn145 O153 1.905 . S
Zn145 O154 1.898 . S
Zn145 O162 1.920 . S
Zn146 O149 2.080 . S
Zn146 O152 2.114 1_545 S
Zn146 O155 2.120 1_545 S
Zn146 O157 2.120 . S
Zn146 O158 2.114 . S
Zn146 O161 2.080 1_545 S
C147 O152 1.166 . S
C147 O153 1.182 . S
C148 O154 1.167 . S
C148 O155 1.299 . S
O149 Zn146 2.080 . S
O149 C163 1.305 . S
O150 Zn144 1.920 . S
O150 C163 1.234 . S
C151 O156 1.167 . S
C151 O157 1.299 . S
O152 Zn146 2.114 1_565 S
O152 C147 1.166 . S
O153 Zn145 1.905 . S
O153 C147 1.182 . S
O154 Zn145 1.898 . S
O154 C148 1.167 . S
O155 Zn146 2.120 1_565 S
O155 C148 1.299 . S
O156 Zn144 1.898 . S
O156 C151 1.167 . S
O157 Zn146 2.120 . S
O157 C151 1.299 . S
O158 Zn146 2.114 . S
O158 C160 1.166 1_455 S
O159 Zn144 1.905 1_655 S
O159 C160 1.182 . S
C160 O158 1.166 1_655 S
C160 O159 1.182 . S
O161 Zn146 2.080 1_565 S
O161 C164 1.305 . S
O162 Zn145 1.920 . S
O162 C164 1.234 . S
C163 O149 1.305 . S
C163 O150 1.234 . S
C164 O161 1.305 . S
C164 O162 1.234 . S
Zn165 O171 1.920 . S
Zn165 O177 1.898 . S
Zn165 O180 1.905 . S
Zn166 O174 1.905 . S
Zn166 O175 1.898 . S
Zn166 O183 1.920 . S
Zn167 O170 2.080 . S
Zn167 O173 2.114 . S
Zn167 O176 2.120 . S
Zn167 O178 2.120 . S
Zn167 O179 2.114 . S
Zn167 O182 2.080 . S
C168 O173 1.166 . S
C168 O174 1.182 . S
C169 O175 1.167 . S
C169 O176 1.299 . S
O170 Zn167 2.080 . S
O170 C184 1.305 . S
O171 Zn165 1.920 . S
O171 C184 1.234 . S
C172 O177 1.167 . S
C172 O178 1.299 . S
O173 Zn167 2.114 . S
O173 C168 1.166 . S
O174 Zn166 1.905 . S
O174 C168 1.182 . S
O175 Zn166 1.898 . S
O175 C169 1.167 . S
O176 Zn167 2.120 . S
O176 C169 1.299 . S
O177 Zn165 1.898 . S
O177 C172 1.167 . S
O178 Zn167 2.120 . S
O178 C172 1.299 . S
O179 Zn167 2.114 . S
O179 C181 1.166 . S
O180 Zn165 1.905 . S
O180 C181 1.182 . S
C181 O179 1.166 . S
C181 O180 1.182 . S
O182 Zn167 2.080 . S
O182 C185 1.305 . S
O183 Zn166 1.920 . S
O183 C185 1.234 . S
C184 O170 1.305 . S
C184 O171 1.234 . S
C185 O182 1.305 . S
C185 O183 1.234 . S
H186 C187 0.951 . S
C187 H186 0.951 . S
C187 C193 1.265 . S
H188 C193 0.950 . S
H189 C197 0.949 . S
H190 C198 0.950 . S
H191 C199 0.951 . S
H192 C200 0.951 . S
C193 C187 1.265 . S
C193 H188 0.950 . S
C193 C194 1.478 . S
C194 C193 1.478 . S
C194 C195 1.397 . S
C194 C211 1.394 . S
C195 C194 1.397 . S
C195 C196 1.438 . S
C195 C200 1.429 . S
C196 C195 1.438 . S
C196 C197 1.428 . S
C196 C209 1.394 . S
C197 H189 0.949 . S
C197 C196 1.428 . S
C197 C198 1.345 . S
C198 H190 0.950 . S
C198 C197 1.345 . S
C198 C199 1.424 . S
C199 H191 0.951 . S
C199 C198 1.424 . S
C199 C200 1.347 . S
C200 H192 0.951 . S
C200 C195 1.429 . S
C200 C199 1.347 . S
H201 C202 0.951 . S
C202 H201 0.951 . S
C202 C208 1.265 . S
H203 C208 0.950 . S
H204 C212 0.949 . S
H205 C213 0.950 . S
H206 C214 0.951 1_565 S
H207 C215 0.951 . S
C208 C202 1.265 . S
C208 H203 0.950 . S
C208 C209 1.478 . S
C209 C196 1.394 . S
C209 C208 1.478 . S
C209 C210 1.397 . S
C210 C209 1.397 . S
C210 C211 1.438 . S
C210 C215 1.429 . S
C211 C194 1.394 . S
C211 C210 1.438 . S
C211 C212 1.428 . S
C212 H204 0.949 . S
C212 C211 1.428 . S
C212 C213 1.345 . S
C213 H205 0.950 . S
C213 C212 1.345 . S
C213 C214 1.424 . S
C214 H206 0.951 1_545 S
C214 C213 1.424 . S
C214 C215 1.347 . S
C215 H207 0.951 . S
C215 C210 1.429 . S
C215 C214 1.347 . S
H216 C217 0.951 . S
C217 H216 0.951 . S
C217 C223 1.265 1_655 S
H218 C223 0.950 . S
H219 C227 0.949 . S
H220 C228 0.950 . S
H221 C229 0.951 . S
H222 C230 0.951 . S
C223 C217 1.265 1_455 S
C223 H218 0.950 . S
C223 C224 1.478 . S
C224 C223 1.478 . S
C224 C225 1.397 . S
C224 C241 1.394 . S
C225 C224 1.397 . S
C225 C226 1.438 . S
C225 C230 1.429 . S
C226 C225 1.438 . S
C226 C227 1.428 . S
C226 C239 1.394 . S
C227 H219 0.949 . S
C227 C226 1.428 . S
C227 C228 1.345 . S
C228 H220 0.950 . S
C228 C227 1.345 . S
C228 C229 1.424 . S
C229 H221 0.951 . S
C229 C228 1.424 . S
C229 C230 1.347 . S
C230 H222 0.951 . S
C230 C225 1.429 . S
C230 C229 1.347 . S
H231 C232 0.951 . S
C232 H231 0.951 . S
C232 C238 1.265 . S
H233 C238 0.950 1_655 S
H234 C242 0.949 . S
H235 C243 0.950 . S
H236 C244 0.951 . S
H237 C245 0.951 . S
C238 C232 1.265 . S
C238 H233 0.950 1_455 S
C238 C239 1.478 . S
C239 C226 1.394 . S
C239 C238 1.478 . S
C239 C240 1.405 . S
C240 C239 1.405 . S
C240 C241 1.438 . S
C240 C245 1.420 1_455 S
C241 C224 1.394 . S
C241 C240 1.438 . S
C241 C242 1.428 1_455 S
C242 H234 0.949 . S
C242 C241 1.428 1_655 S
C242 C243 1.345 . S
C243 H235 0.950 . S
C243 C242 1.345 . S
C243 C244 1.424 . S
C244 H236 0.951 . S
C244 C243 1.424 . S
C244 C245 1.347 . S
C245 H237 0.951 . S
C245 C240 1.420 1_655 S
C245 C244 1.347 . S
H246 C247 0.951 . S
C247 H246 0.951 . S
C247 C253 1.265 . S
H248 C253 0.950 . S
H249 C257 0.949 . S
H250 C258 0.950 . S
H251 C259 0.951 . S
H252 C260 0.951 . S
C253 C247 1.265 . S
C253 H248 0.950 . S
C253 C254 1.478 . S
C254 C253 1.478 . S
C254 C255 1.397 . S
C254 C271 1.394 . S
C255 C254 1.397 . S
C255 C256 1.438 . S
C255 C260 1.429 . S
C256 C255 1.438 . S
C256 C257 1.428 . S
C256 C269 1.394 . S
C257 H249 0.949 . S
C257 C256 1.428 . S
C257 C258 1.345 . S
C258 H250 0.950 . S
C258 C257 1.345 . S
C258 C259 1.424 . S
C259 H251 0.951 . S
C259 C258 1.424 . S
C259 C260 1.347 . S
C260 H252 0.951 . S
C260 C255 1.429 . S
C260 C259 1.347 . S
H261 C262 0.951 . S
C262 H261 0.951 . S
C262 C268 1.265 . S
H263 C268 0.950 . S
H264 C272 0.949 . S
H265 C273 0.950 . S
H266 C274 0.951 . S
H267 C275 0.951 . S
C268 C262 1.265 . S
C268 H263 0.950 . S
C268 C269 1.478 . S
C269 C256 1.394 . S
C269 C268 1.478 . S
C269 C270 1.397 . S
C270 C269 1.397 . S
C270 C271 1.438 . S
C270 C275 1.429 . S
C271 C254 1.394 . S
C271 C270 1.438 . S
C271 C272 1.428 . S
C272 H264 0.949 . S
C272 C271 1.428 . S
C272 C273 1.345 . S
C273 H265 0.950 . S
C273 C272 1.345 . S
C273 C274 1.424 . S
C274 H266 0.951 . S
C274 C273 1.424 . S
C274 C275 1.347 . S
C275 H267 0.951 . S
C275 C270 1.429 . S
C275 C274 1.347 . S
H276 C277 0.951 . S
C277 H276 0.951 . S
C277 C283 1.265 . S
H278 C283 0.950 . S
H279 C287 0.949 . S
H280 C288 0.950 . S
H281 C289 0.951 . S
H282 C290 0.951 . S
C283 C277 1.265 . S
C283 H278 0.950 . S
C283 C284 1.478 . S
C284 C283 1.478 . S
C284 C285 1.397 . S
C284 C301 1.394 . S
C285 C284 1.397 . S
C285 C286 1.438 . S
C285 C290 1.429 . S
C286 C285 1.438 . S
C286 C287 1.428 . S
C286 C299 1.394 . S
C287 H279 0.949 . S
C287 C286 1.428 . S
C287 C288 1.345 . S
C288 H280 0.950 . S
C288 C287 1.345 . S
C288 C289 1.424 . S
C289 H281 0.951 . S
C289 C288 1.424 . S
C289 C290 1.347 . S
C290 H282 0.951 . S
C290 C285 1.429 . S
C290 C289 1.347 . S
H291 C292 0.951 . S
C292 H291 0.951 . S
C292 C298 1.265 . S
H293 C298 0.950 . S
H294 C302 0.949 . S
H295 C303 0.950 . S
H296 C304 0.951 . S
H297 C305 0.951 . S
C298 C292 1.265 . S
C298 H293 0.950 . S
C298 C299 1.478 . S
C299 C286 1.394 . S
C299 C298 1.478 . S
C299 C300 1.397 . S
C300 C299 1.397 . S
C300 C301 1.438 . S
C300 C305 1.429 . S
C301 C284 1.394 . S
C301 C300 1.438 . S
C301 C302 1.428 . S
C302 H294 0.949 . S
C302 C301 1.428 . S
C302 C303 1.345 . S
C303 H295 0.950 . S
C303 C302 1.345 . S
C303 C304 1.424 . S
C304 H296 0.951 . S
C304 C303 1.424 . S
C304 C305 1.347 . S
C305 H297 0.951 . S
C305 C300 1.429 . S
C305 C304 1.347 . S
H306 C307 0.951 . S
C307 H306 0.951 . S
C307 C313 1.265 . S
H308 C313 0.950 . S
H309 C317 0.949 . S
H310 C318 0.950 . S
H311 C319 0.951 . S
H312 C320 0.951 . S
C313 C307 1.265 . S
C313 H308 0.950 . S
C313 C314 1.478 . S
C314 C313 1.478 . S
C314 C315 1.397 . S
C314 C331 1.394 . S
C315 C314 1.397 . S
C315 C316 1.438 . S
C315 C320 1.429 . S
C316 C315 1.438 . S
C316 C317 1.428 . S
C316 C329 1.394 . S
C317 H309 0.949 . S
C317 C316 1.428 . S
C317 C318 1.345 . S
C318 H310 0.950 . S
C318 C317 1.345 . S
C318 C319 1.424 . S
C319 H311 0.951 . S
C319 C318 1.424 . S
C319 C320 1.347 . S
C320 H312 0.951 . S
C320 C315 1.429 . S
C320 C319 1.347 . S
H321 C322 0.951 . S
C322 H321 0.951 . S
C322 C328 1.265 . S
H323 C328 0.950 . S
H324 C332 0.949 . S
H325 C333 0.950 . S
H326 C334 0.951 . S
H327 C335 0.951 . S
C328 C322 1.265 . S
C328 H323 0.950 . S
C328 C329 1.478 . S
C329 C316 1.394 . S
C329 C328 1.478 . S
C329 C330 1.397 . S
C330 C329 1.397 . S
C330 C331 1.438 . S
C330 C335 1.429 . S
C331 C314 1.394 . S
C331 C330 1.438 . S
C331 C332 1.428 1_556 S
C332 H324 0.949 . S
C332 C331 1.428 1_554 S
C332 C333 1.345 . S
C333 H325 0.950 . S
C333 C332 1.345 . S
C333 C334 1.424 . S
C334 H326 0.951 . S
C334 C333 1.424 . S
C334 C335 1.347 1_554 S
C335 H327 0.951 . S
C335 C330 1.429 . S
C335 C334 1.347 1_556 S
H336 C337 0.951 . S
C337 H336 0.951 . S
C337 C343 1.265 . S
H338 C343 0.950 . S
H339 C347 0.949 . S
H340 C348 0.950 . S
H341 C349 0.951 . S
H342 C350 0.951 . S
C343 C337 1.265 . S
C343 H338 0.950 . S
C343 C344 1.478 . S
C344 C343 1.478 . S
C344 C345 1.397 . S
C344 C361 1.394 . S
C345 C344 1.397 . S
C345 C346 1.438 . S
C345 C350 1.429 . S
C346 C345 1.438 . S
C346 C347 1.428 . S
C346 C359 1.394 . S
C347 H339 0.949 . S
C347 C346 1.428 . S
C347 C348 1.345 . S
C348 H340 0.950 . S
C348 C347 1.345 . S
C348 C349 1.424 . S
C349 H341 0.951 . S
C349 C348 1.424 . S
C349 C350 1.347 . S
C350 H342 0.951 . S
C350 C345 1.429 . S
C350 C349 1.347 . S
H351 C352 0.951 . S
C352 H351 0.951 . S
C352 C358 1.265 . S
H353 C358 0.950 . S
H354 C362 0.949 . S
H355 C363 0.950 . S
H356 C364 0.951 . S
H357 C365 0.951 . S
C358 C352 1.265 . S
C358 H353 0.950 . S
C358 C359 1.478 . S
C359 C346 1.394 . S
C359 C358 1.478 . S
C359 C360 1.397 . S
C360 C359 1.397 . S
C360 C361 1.438 . S
C360 C365 1.429 . S
C361 C344 1.394 . S
C361 C360 1.438 . S
C361 C362 1.428 1_556 S
C362 H354 0.949 . S
C362 C361 1.428 1_554 S
C362 C363 1.345 . S
C363 H355 0.950 . S
C363 C362 1.345 . S
C363 C364 1.424 . S
C364 H356 0.951 . S
C364 C363 1.424 . S
C364 C365 1.347 1_554 S
C365 H357 0.951 . S
C365 C360 1.429 . S
C365 C364 1.347 1_556 S
H366 C367 0.951 . S
C367 H366 0.951 . S
C367 C373 1.265 . S
H368 C373 0.950 . S
H369 C377 0.949 . S
H370 C378 0.950 1_554 S
H371 C379 0.951 . S
H372 C380 0.951 . S
C373 C367 1.265 . S
C373 H368 0.950 . S
C373 C374 1.478 . S
C374 C373 1.478 . S
C374 C375 1.397 . S
C374 C391 1.394 . S
C375 C374 1.397 . S
C375 C376 1.438 . S
C375 C380 1.429 . S
C376 C375 1.438 . S
C376 C377 1.428 . S
C376 C389 1.394 . S
C377 H369 0.949 . S
C377 C376 1.428 . S
C377 C378 1.345 . S
C378 H370 0.950 1_556 S
C378 C377 1.345 . S
C378 C379 1.424 1_556 S
C379 H371 0.951 . S
C379 C378 1.424 1_554 S
C379 C380 1.347 1_554 S
C380 H372 0.951 . S
C380 C375 1.429 . S
C380 C379 1.347 1_556 S
H381 C382 0.951 . S
C382 H381 0.951 . S
C382 C388 1.265 . S
H383 C388 0.950 . S
H384 C392 0.949 . S
H385 C393 0.950 . S
H386 C394 0.951 . S
H387 C395 0.951 . S
C388 C382 1.265 . S
C388 H383 0.950 . S
C388 C389 1.478 . S
C389 C376 1.394 . S
C389 C388 1.478 . S
C389 C390 1.397 . S
C390 C389 1.397 . S
C390 C391 1.438 . S
C390 C395 1.429 . S
C391 C374 1.394 . S
C391 C390 1.438 . S
C391 C392 1.428 . S
C392 H384 0.949 . S
C392 C391 1.428 . S
C392 C393 1.345 . S
C393 H385 0.950 . S
C393 C392 1.345 . S
C393 C394 1.424 . S
C394 H386 0.951 . S
C394 C393 1.424 . S
C394 C395 1.347 . S
C395 H387 0.951 . S
C395 C390 1.429 . S
C395 C394 1.347 . S
H396 C397 0.951 . S
C397 H396 0.951 . S
C397 C403 1.265 . S
H398 C403 0.950 . S
H399 C407 0.949 . S
H400 C408 0.950 . S
H401 C409 0.951 . S
H402 C410 0.951 . S
C403 C397 1.265 . S
C403 H398 0.950 . S
C403 C404 1.478 . S
C404 C403 1.478 . S
C404 C405 1.397 . S
C404 C421 1.394 . S
C405 C404 1.397 . S
C405 C406 1.438 . S
C405 C410 1.429 . S
C406 C405 1.438 . S
C406 C407 1.428 . S
C406 C419 1.394 . S
C407 H399 0.949 . S
C407 C406 1.428 . S
C407 C408 1.345 . S
C408 H400 0.950 . S
C408 C407 1.345 . S
C408 C409 1.424 . S
C409 H401 0.951 . S
C409 C408 1.424 . S
C409 C410 1.347 . S
C410 H402 0.951 . S
C410 C405 1.429 . S
C410 C409 1.347 . S
H411 C412 0.951 . S
C412 H411 0.951 . S
C412 C418 1.265 . S
H413 C418 0.950 . S
H414 C422 0.949 . S
H415 C423 0.950 . S
H416 C424 0.951 1_554 S
H417 C425 0.951 . S
C418 C412 1.265 . S
C418 H413 0.950 . S
C418 C419 1.478 . S
C419 C406 1.394 . S
C419 C418 1.478 . S
C419 C420 1.397 . S
C420 C419 1.397 . S
C420 C421 1.438 . S
C420 C425 1.429 . S
C421 C404 1.394 . S
C421 C420 1.438 . S
C421 C422 1.428 . S
C422 H414 0.949 . S
C422 C421 1.428 . S
C422 C423 1.345 1_556 S
C423 H415 0.950 . S
C423 C422 1.345 1_554 S
C423 C424 1.424 1_554 S
C424 H416 0.951 1_556 S
C424 C423 1.424 1_556 S
C424 C425 1.347 . S
C425 H417 0.951 . S
C425 C420 1.429 . S
C425 C424 1.347 . S
H426 C427 0.951 . S
C427 H426 0.951 . S
C427 C433 1.265 . S
H428 C433 0.950 . S
H429 C437 0.949 . S
H430 C438 0.950 . S
H431 C439 0.951 . S
H432 C440 0.951 . S
C433 C427 1.265 . S
C433 H428 0.950 . S
C433 C434 1.478 . S
C434 C433 1.478 . S
C434 C435 1.397 . S
C434 C451 1.394 . S
C435 C434 1.397 . S
C435 C436 1.438 . S
C435 C440 1.429 . S
C436 C435 1.438 . S
C436 C437 1.428 . S
C436 C449 1.394 . S
C437 H429 0.949 . S
C437 C436 1.428 . S
C437 C438 1.345 . S
C438 H430 0.950 . S
C438 C437 1.345 . S
C438 C439 1.424 . S
C439 H431 0.951 . S
C439 C438 1.424 . S
C439 C440 1.347 . S
C440 H432 0.951 . S
C440 C435 1.429 . S
C440 C439 1.347 . S
H441 C442 0.951 . S
C442 H441 0.951 . S
C442 C448 1.265 . S
H443 C448 0.950 . S
H444 C452 0.949 . S
H445 C453 0.950 . S
H446 C454 0.951 . S
H447 C455 0.951 . S
C448 C442 1.265 . S
C448 H443 0.950 . S
C448 C449 1.478 . S
C449 C436 1.394 . S
C449 C448 1.478 . S
C449 C450 1.397 . S
C450 C449 1.397 . S
C450 C451 1.438 . S
C450 C455 1.429 . S
C451 C434 1.394 . S
C451 C450 1.438 . S
C451 C452 1.428 . S
C452 H444 0.949 . S
C452 C451 1.428 . S
C452 C453 1.345 . S
C453 H445 0.950 . S
C453 C452 1.345 . S
C453 C454 1.424 . S
C454 H446 0.951 . S
C454 C453 1.424 . S
C454 C455 1.347 . S
C455 H447 0.951 . S
C455 C450 1.429 . S
C455 C454 1.347 . S
H456 C457 0.951 . S
C457 H456 0.951 . S
C457 C463 1.265 . S
H458 C463 0.950 . S
H459 C467 0.949 . S
H460 C468 0.950 . S
H461 C469 0.951 . S
H462 C470 0.951 . S
C463 C457 1.265 . S
C463 H458 0.950 . S
C463 C464 1.478 . S
C464 C463 1.478 . S
C464 C465 1.397 . S
C464 C481 1.394 . S
C465 C464 1.397 . S
C465 C466 1.438 . S
C465 C470 1.429 . S
C466 C465 1.438 . S
C466 C467 1.428 . S
C466 C479 1.394 . S
C467 H459 0.949 . S
C467 C466 1.428 . S
C467 C468 1.345 . S
C468 H460 0.950 . S
C468 C467 1.345 . S
C468 C469 1.424 . S
C469 H461 0.951 . S
C469 C468 1.424 . S
C469 C470 1.347 . S
C470 H462 0.951 . S
C470 C465 1.429 . S
C470 C469 1.347 . S
H471 C472 0.951 . S
C472 H471 0.951 . S
C472 C478 1.265 . S
H473 C478 0.950 . S
H474 C482 0.949 . S
H475 C483 0.950 . S
H476 C484 0.951 . S
H477 C485 0.951 . S
C478 C472 1.265 . S
C478 H473 0.950 . S
C478 C479 1.478 . S
C479 C466 1.394 . S
C479 C478 1.478 . S
C479 C480 1.397 . S
C480 C479 1.397 . S
C480 C481 1.438 . S
C480 C485 1.429 . S
C481 C464 1.394 . S
C481 C480 1.438 . S
C481 C482 1.428 . S
C482 H474 0.949 . S
C482 C481 1.428 . S
C482 C483 1.345 . S
C483 H475 0.950 . S
C483 C482 1.345 . S
C483 C484 1.424 . S
C484 H476 0.951 . S
C484 C483 1.424 . S
C484 C485 1.347 . S
C485 H477 0.951 . S
C485 C480 1.429 . S
C485 C484 1.347 . S
H486 C487 0.951 . S
C487 H486 0.951 . S
C487 C493 1.265 . S
H488 C493 0.950 . S
H489 C497 0.949 . S
H490 C498 0.950 . S
H491 C499 0.951 . S
H492 C500 0.951 . S
C493 C487 1.265 . S
C493 H488 0.950 . S
C493 C494 1.478 . S
C494 C493 1.478 . S
C494 C495 1.397 . S
C494 C511 1.394 . S
C495 C494 1.397 . S
C495 C496 1.438 . S
C495 C500 1.429 . S
C496 C495 1.438 . S
C496 C497 1.428 . S
C496 C509 1.394 . S
C497 H489 0.949 . S
C497 C496 1.428 . S
C497 C498 1.345 . S
C498 H490 0.950 . S
C498 C497 1.345 . S
C498 C499 1.424 . S
C499 H491 0.951 . S
C499 C498 1.424 . S
C499 C500 1.347 . S
C500 H492 0.951 . S
C500 C495 1.429 . S
C500 C499 1.347 . S
H501 C502 0.951 . S
C502 H501 0.951 . S
C502 C508 1.265 . S
H503 C508 0.950 . S
H504 C512 0.949 . S
H505 C513 0.950 . S
H506 C514 0.951 . S
H507 C515 0.951 . S
C508 C502 1.265 . S
C508 H503 0.950 . S
C508 C509 1.478 . S
C509 C496 1.394 . S
C509 C508 1.478 . S
C509 C510 1.397 . S
C510 C509 1.397 . S
C510 C511 1.438 . S
C510 C515 1.429 . S
C511 C494 1.394 . S
C511 C510 1.438 . S
C511 C512 1.428 . S
C512 H504 0.949 . S
C512 C511 1.428 . S
C512 C513 1.345 . S
C513 H505 0.950 . S
C513 C512 1.345 . S
C513 C514 1.424 . S
C514 H506 0.951 . S
C514 C513 1.424 . S
C514 C515 1.347 . S
C515 H507 0.951 . S
C515 C510 1.429 . S
C515 C514 1.347 . S
H516 C517 0.951 . S
C517 H516 0.951 . S
C517 C523 1.265 . S
H518 C523 0.950 . S
H519 C527 0.949 . S
H520 C528 0.950 . S
H521 C529 0.951 . S
H522 C530 0.951 . S
C523 C517 1.265 . S
C523 H518 0.950 . S
C523 C524 1.478 . S
C524 C523 1.478 . S
C524 C525 1.397 . S
C524 C541 1.394 . S
C525 C524 1.397 . S
C525 C526 1.438 . S
C525 C530 1.429 . S
C526 C525 1.438 . S
C526 C527 1.428 . S
C526 C539 1.394 . S
C527 H519 0.949 . S
C527 C526 1.428 . S
C527 C528 1.345 . S
C528 H520 0.950 . S
C528 C527 1.345 . S
C528 C529 1.424 . S
C529 H521 0.951 . S
C529 C528 1.424 . S
C529 C530 1.347 . S
C530 H522 0.951 . S
C530 C525 1.429 . S
C530 C529 1.347 . S
H531 C532 0.951 . S
C532 H531 0.951 . S
C532 C538 1.265 . S
H533 C538 0.950 . S
H534 C542 0.949 . S
H535 C543 0.950 . S
H536 C544 0.951 . S
H537 C545 0.951 . S
C538 C532 1.265 . S
C538 H533 0.950 . S
C538 C539 1.478 . S
C539 C526 1.394 . S
C539 C538 1.478 . S
C539 C540 1.397 . S
C540 C539 1.397 . S
C540 C541 1.438 . S
C540 C545 1.429 . S
C541 C524 1.394 . S
C541 C540 1.438 . S
C541 C542 1.428 . S
C542 H534 0.949 . S
C542 C541 1.428 . S
C542 C543 1.345 . S
C543 H535 0.950 . S
C543 C542 1.345 . S
C543 C544 1.424 . S
C544 H536 0.951 . S
C544 C543 1.424 . S
C544 C545 1.347 . S
C545 H537 0.951 . S
C545 C540 1.429 . S
C545 C544 1.347 . S
C202 C151 1.408 . S
C187 C25 1.508 . S
C232 C147 1.413 . S
C217 C61 1.536 1_655 S
C262 C172 1.407 . S
C247 C97 1.511 . S
C277 C133 1.497 . S
C292 C168 1.432 . S
C307 C31 1.122 . S
C322 C169 0.977 . S
C352 C184 1.020 . S
C337 C37 1.199 . S
C367 C1 1.668 . S
C382 C185 1.489 . S
C412 C181 1.609 . S
C397 C67 1.721 . S
C442 C148 0.950 1_655 S
C427 C103 1.124 . S
C457 C109 1.208 . S
C472 C163 0.987 . S
C502 C164 1.501 . S
C487 C73 1.662 . S
C532 C160 1.571 . S
C517 C139 1.699 . S
