# Generated by pormake.
# Topology zzz, (3,6)-cn, num edge types: 1
# Building blocks:
#     Node 0, Type 0, BuildingBlock: BETDIP_clean_linker_0, # of connection points: 3
#     Node 1, Type 0, BuildingBlock: BETDIP_clean_linker_0, # of connection points: 3
#     Node 2, Type 0, BuildingBlock: BETDIP_clean_linker_0, # of connection points: 3
#     Node 3, Type 0, BuildingBlock: BETDIP_clean_linker_0, # of connection points: 3
#     Node 4, Type 0, BuildingBlock: BETDIP_clean_linker_0, # of connection points: 3
#     Node 5, Type 0, BuildingBlock: BETDIP_clean_linker_0, # of connection points: 3
#     Node 6, Type 0, BuildingBlock: BETDIP_clean_linker_0, # of connection points: 3
#     Node 7, Type 0, BuildingBlock: BETDIP_clean_linker_0, # of connection points: 3
#     Node 8, Type 1, BuildingBlock: MIFKUJ_clean_sbu_0, # of connection points: 6
#     Node 9, Type 1, BuildingBlock: MIFKUJ_clean_sbu_0, # of connection points: 6
#     Node 10, Type 1, BuildingBlock: MIFKUJ_clean_sbu_0, # of connection points: 6
#     Node 11, Type 1, BuildingBlock: MIFKUJ_clean_sbu_0, # of connection points: 6
#     Edge 12, Type (0, 1), BuildingBlock: TEMPAE_clean_linker_10, # of connection points: 2
#     Edge 13, Type (0, 1), BuildingBlock: TEMPAE_clean_linker_10, # of connection points: 2
#     Edge 14, Type (0, 1), BuildingBlock: TEMPAE_clean_linker_10, # of connection points: 2
#     Edge 15, Type (0, 1), BuildingBlock: TEMPAE_clean_linker_10, # of connection points: 2
#     Edge 16, Type (0, 1), BuildingBlock: TEMPAE_clean_linker_10, # of connection points: 2
#     Edge 17, Type (0, 1), BuildingBlock: TEMPAE_clean_linker_10, # of connection points: 2
#     Edge 18, Type (0, 1), BuildingBlock: TEMPAE_clean_linker_10, # of connection points: 2
#     Edge 19, Type (0, 1), BuildingBlock: TEMPAE_clean_linker_10, # of connection points: 2
#     Edge 20, Type (0, 1), BuildingBlock: TEMPAE_clean_linker_10, # of connection points: 2
#     Edge 21, Type (0, 1), BuildingBlock: TEMPAE_clean_linker_10, # of connection points: 2
#     Edge 22, Type (0, 1), BuildingBlock: TEMPAE_clean_linker_10, # of connection points: 2
#     Edge 23, Type (0, 1), BuildingBlock: TEMPAE_clean_linker_10, # of connection points: 2
#     Edge 24, Type (0, 1), BuildingBlock: TEMPAE_clean_linker_10, # of connection points: 2
#     Edge 25, Type (0, 1), BuildingBlock: TEMPAE_clean_linker_10, # of connection points: 2
#     Edge 26, Type (0, 1), BuildingBlock: TEMPAE_clean_linker_10, # of connection points: 2
#     Edge 27, Type (0, 1), BuildingBlock: TEMPAE_clean_linker_10, # of connection points: 2
#     Edge 28, Type (0, 1), BuildingBlock: TEMPAE_clean_linker_10, # of connection points: 2
#     Edge 29, Type (0, 1), BuildingBlock: TEMPAE_clean_linker_10, # of connection points: 2
#     Edge 30, Type (0, 1), BuildingBlock: TEMPAE_clean_linker_10, # of connection points: 2
#     Edge 31, Type (0, 1), BuildingBlock: TEMPAE_clean_linker_10, # of connection points: 2
#     Edge 32, Type (0, 1), BuildingBlock: TEMPAE_clean_linker_10, # of connection points: 2
#     Edge 33, Type (0, 1), BuildingBlock: TEMPAE_clean_linker_10, # of connection points: 2
#     Edge 34, Type (0, 1), BuildingBlock: TEMPAE_clean_linker_10, # of connection points: 2
#     Edge 35, Type (0, 1), BuildingBlock: TEMPAE_clean_linker_10, # of connection points: 2
# Relax obj value: 0.116
# Max RMSD: 0.118
# Mean RMSD: 0.085
data_MOF--net-zzz--node1-MIFKUJ_clean_sbu_0--node2-BETDIP_clean_linker_0--edge1-TEMPAE_clean_linker_10
_symmetry_space_group_name_H-M    P1
_symmetry_Int_Tables_number       1
_symmetry_cell_setting            triclinic
loop_
_symmetry_equiv_pos_as_xyz
'x, y, z'
_cell_length_a     51.618201
_cell_length_b     51.28977
_cell_length_c     15.996305
_cell_angle_alpha  89.861665
_cell_angle_beta   89.828438
_cell_angle_gamma 89.881918
loop_
_atom_site_label
_atom_site_type_symbol
_atom_site_fract_x
_atom_site_fract_y
_atom_site_fract_z
_atom_type_partial_charge
H0 H 0.74844 0.4647 0.26181 0.0
H1 H 0.7488 0.48073 0.9965 0.0
H2 H 0.81815 0.45481 0.11678 0.0
H3 H 0.7213 0.51743 0.07349 0.0
C4 C 0.70852 0.50108 0.08661 0.0
C5 C 0.75841 0.4649 0.20213 0.0
C6 C 0.78487 0.45822 0.19762 0.0
C7 C 0.74516 0.47284 0.12934 0.0
C8 C 0.75857 0.47416 0.05261 0.0
C9 C 0.78472 0.46723 0.04853 0.0
C10 C 0.79754 0.45901 0.12034 0.0
N11 N 0.71849 0.47967 0.13325 0.0
H12 H 0.98982 0.71861 0.24032 0.0
H13 H 0.99456 0.747 0.98632 0.0
H14 H 0.01329 0.79744 0.19 0.0
H15 H 0.961 0.71636 0.97612 0.0
C16 C 0.97219 0.70044 0.00293 0.0
C17 C 0.99447 0.73395 0.19609 0.0
C18 C 0.00216 0.75858 0.2249 0.0
C19 C 0.99212 0.72946 0.10963 0.0
C20 C 0.9969 0.75002 0.05281 0.0
C21 C 0.004 0.77474 0.0818 0.0
C22 C 0.00762 0.77837 0.1673 0.0
N23 N 0.98499 0.7043 0.08054 0.0
H24 H 0.76266 0.00663 0.21683 0.0
H25 H 0.74818 0.05434 -0.00093 0.0
H26 H 0.69127 0.04892 0.194 0.0
H27 H 0.76763 0.01605 0.94358 0.0
C28 C 0.78513 0.01748 0.98095 0.0
C29 C 0.75076 0.02062 0.18358 0.0
C30 C 0.72639 0.02785 0.21592 0.0
C31 C 0.75889 0.03028 0.10506 0.0
C32 C 0.74245 0.04725 0.0602 0.0
C33 C 0.71793 0.05397 0.09153 0.0
C34 C 0.71066 0.04496 0.17069 0.0
N35 N 0.78265 0.02152 0.06882 0.0
H36 H 0.51641 0.7488 0.22323 0.0
H37 H 0.47884 0.74081 0.98374 0.0
H38 H 0.47611 0.67823 0.16174 0.0
H39 H 0.52211 0.76366 0.95785 0.0
C40 C 0.51524 0.77958 0.99692 0.0
C41 C 0.50437 0.73779 0.18073 0.0
C42 C 0.49655 0.71233 0.20187 0.0
C43 C 0.49779 0.74835 0.10201 0.0
C44 C 0.48336 0.73323 0.04529 0.0
C45 C 0.47502 0.70816 0.06747 0.0
C46 C 0.48131 0.69818 0.14616 0.0
N47 N 0.50626 0.77381 0.07918 0.0
H48 H 0.29095 0.49864 0.96676 0.0
H49 H 0.28605 0.54374 0.194 0.0
H50 H 0.21798 0.53015 0.04735 0.0
H51 H 0.32909 0.55571 0.14019 0.0
C52 C 0.33493 0.53536 0.13671 0.0
C53 C 0.27981 0.51032 0.01034 0.0
C54 C 0.25308 0.51367 0.99859 0.0
C55 C 0.29208 0.5219 0.07948 0.0
C56 C 0.27716 0.53609 0.13796 0.0
C57 C 0.25044 0.53935 0.12617 0.0
C58 C 0.2388 0.52846 0.05567 0.0
N59 N 0.31895 0.51744 0.093 0.0
H60 H 1.00044 0.28764 0.95045 0.0
H61 H 0.95792 0.27528 0.18015 0.0
H62 H 0.97827 0.21039 0.0244 0.0
H63 H 0.94241 0.31877 0.1388 0.0
C64 C 0.96222 0.32575 0.13347 0.0
C65 C 0.99047 0.27475 0.99351 0.0
C66 C 0.99017 0.24782 0.97883 0.0
C67 C 0.97819 0.28494 0.06506 0.0
C68 C 0.96619 0.26785 0.12263 0.0
C69 C 0.96594 0.24091 0.10781 0.0
C70 C 0.97764 0.23127 0.03526 0.0
N71 N 0.98012 0.31204 0.082 0.0
H72 H 0.23385 0.99287 0.95358 0.0
H73 H 0.24234 0.00558 0.21911 0.0
H74 H 0.30827 0.01124 0.05707 0.0
H75 H 0.21371 0.96855 0.20947 0.0
C76 C 0.19954 0.9799 0.17467 0.0
C77 C 0.24564 0.99818 0.00674 0.0
C78 C 0.27236 0.00294 0.99608 0.0
C79 C 0.2346 0.99898 0.08772 0.0
C80 C 0.25049 0.00487 0.15667 0.0
C81 C 0.27699 0.00943 0.14593 0.0
C82 C 0.28753 0.00888 0.06551 0.0
N83 N 0.20789 0.99302 0.10066 0.0
H84 H 0.51106 0.22896 0.99251 0.0
H85 H 0.55834 0.23367 0.21433 0.0
H86 H 0.54708 0.30125 0.06016 0.0
H87 H 0.56825 0.18938 0.1603 0.0
C88 C 0.54779 0.18441 0.16232 0.0
C89 C 0.52367 0.23993 0.03339 0.0
C90 C 0.52834 0.2665 0.01758 0.0
C91 C 0.53521 0.22764 0.10306 0.0
C92 C 0.55067 0.24244 0.15791 0.0
C93 C 0.55518 0.26895 0.14228 0.0
C94 C 0.54435 0.28054 0.07132 0.0
N95 N 0.52973 0.20099 0.12093 0.0
Zn96 Zn 0.99392 0.04662 0.56904 0.0
Zn97 Zn 0.99221 0.96569 0.58449 0.0
C98 C 0.99457 0.08626 0.6925 0.0
O99 O 0.97047 0.07845 0.70024 0.0
C100 C 0.99972 0.91769 0.51091 0.0
O101 O 0.02235 0.92317 0.54365 0.0
O102 O 0.97717 0.06941 0.4831 0.0
O103 O 0.02291 0.02663 0.51149 0.0
O104 O 0.02107 0.98348 0.52121 0.0
C105 C 0.99206 0.08322 0.43797 0.0
O106 O 0.01722 0.07971 0.4432 0.0
O107 O 0.0097 0.07393 0.64377 0.0
C108 C 0.98722 0.93176 0.71214 0.0
O109 O 0.96412 0.93426 0.67881 0.0
O110 O 0.00531 0.94663 0.68642 0.0
O111 O 0.96114 0.9855 0.62842 0.0
O112 O 0.9641 0.02865 0.62852 0.0
O113 O 0.98174 0.93473 0.51333 0.0
C114 C 0.03201 0.00414 0.49506 0.0
C115 C 0.95212 0.0078 0.64739 0.0
Zn116 Zn 0.47677 0.98503 0.5796 0.0
Zn117 Zn 0.52943 0.00821 0.67518 0.0
C118 C 0.4359 0.98205 0.68821 0.0
O119 O 0.43913 0.95853 0.65754 0.0
C120 C 0.57158 0.01803 0.56137 0.0
O121 O 0.56329 0.04204 0.57162 0.0
O122 O 0.44891 0.97625 0.49638 0.0
O123 O 0.49854 0.0103 0.51252 0.0
O124 O 0.50629 0.03518 0.6196 0.0
C125 C 0.4358 0.99704 0.48527 0.0
O126 O 0.44422 0.01899 0.51738 0.0
O127 O 0.45302 0.99933 0.6722 0.0
C128 C 0.556 0.01977 0.83162 0.0
O129 O 0.55095 0.99546 0.85179 0.0
O130 O 0.5474 0.02886 0.76336 0.0
O131 O 0.51619 0.97385 0.72605 0.0
O132 O 0.49439 0.95333 0.62644 0.0
O133 O 0.55948 0.99944 0.597 0.0
C134 C 0.50351 0.03266 0.5414 0.0
C135 C 0.50606 0.95314 0.6965 0.0
Zn136 Zn 0.53102 0.46535 0.56946 0.0
Zn137 Zn 0.50023 0.51334 0.66206 0.0
C138 C 0.52976 0.42545 0.68953 0.0
O139 O 0.55434 0.43202 0.68805 0.0
C140 C 0.49709 0.55379 0.54163 0.0
O141 O 0.4728 0.54633 0.5462 0.0
O142 O 0.55182 0.44205 0.49416 0.0
O143 O 0.50519 0.48423 0.49593 0.0
O144 O 0.47718 0.48873 0.59794 0.0
C145 C 0.53855 0.42878 0.44297 0.0
O146 O 0.5135 0.43311 0.43792 0.0
O147 O 0.51383 0.43847 0.6452 0.0
C148 C 0.48075 0.53946 0.8111 0.0
O149 O 0.49909 0.52646 0.84994 0.0
O150 O 0.47675 0.53502 0.73423 0.0
O151 O 0.52926 0.49914 0.73493 0.0
O152 O 0.55642 0.48656 0.63612 0.0
O153 O 0.5141 0.54143 0.58367 0.0
C154 C 0.48191 0.4869 0.52025 0.0
C155 C 0.55214 0.49355 0.7111 0.0
Zn156 Zn 0.0554 0.51179 0.56629 0.0
Zn157 Zn 0.98463 0.48756 0.61038 0.0
C158 C 0.09169 0.51069 0.69728 0.0
O159 O 0.08352 0.53493 0.70179 0.0
C160 C 0.94953 0.46173 0.51042 0.0
O161 O 0.95659 0.44408 0.56551 0.0
O162 O 0.07969 0.53147 0.49119 0.0
O163 O 0.03769 0.48447 0.49628 0.0
O164 O 0.01677 0.46598 0.59984 0.0
C165 C 0.09362 0.51756 0.44321 0.0
O166 O 0.08957 0.49229 0.44057 0.0
O167 O 0.08056 0.49522 0.64691 0.0
C168 C 0.93941 0.49027 0.69205 0.0
O169 O 0.93973 0.50954 0.63777 0.0
O170 O 0.95973 0.47637 0.701 0.0
O171 O 0.99208 0.52471 0.64152 0.0
O172 O 0.03253 0.53856 0.62362 0.0
O173 O 0.9619 0.48321 0.50746 0.0
C174 C 0.02442 0.46557 0.52442 0.0
C175 C 0.00932 0.54224 0.64812 0.0
C176 C 0.17136 0.97869 0.30029 0.0
C177 C 0.1741 0.98474 0.21526 0.0
C178 C 0.14794 0.98301 0.34277 0.0
C179 C 0.12636 0.99307 0.29872 0.0
C180 C 0.12892 0.99908 0.2124 0.0
C181 C 0.15291 0.99512 0.17177 0.0
C182 C 0.14633 0.97679 0.43501 0.0
C183 C 0.10623 0.00931 0.16287 0.0
C184 C 0.06142 0.97821 0.40156 0.0
C185 C 0.05565 0.0018 0.44203 0.0
C186 C 0.08376 0.9755 0.35181 0.0
C187 C 0.10113 0.9967 0.34344 0.0
C188 C 0.09527 0.02066 0.38329 0.0
C189 C 0.0725 0.023 0.43136 0.0
C190 C 0.089 0.94974 0.3094 0.0
C191 C 0.1135 0.04358 0.37748 0.0
H192 H 0.18778 0.9708 0.33415 0.0
H193 H 0.15494 0.99972 0.10591 0.0
H194 H 0.13984 0.99425 0.47021 0.0
H195 H 0.13179 0.96125 0.44601 0.0
H196 H 0.1652 0.97019 0.46084 0.0
H197 H 0.11135 0.01308 0.09643 0.0
H198 H 0.09012 0.99504 0.16513 0.0
H199 H 0.09895 0.02768 0.19096 0.0
H200 H 0.0484 0.96179 0.4085 0.0
H201 H 0.06823 0.04129 0.46234 0.0
H202 H 0.10653 0.94056 0.33669 0.0
H203 H 0.09288 0.95285 0.24185 0.0
H204 H 0.07255 0.93595 0.31618 0.0
H205 H 0.13224 0.03846 0.40724 0.0
H206 H 0.10558 0.06123 0.40857 0.0
H207 H 0.11763 0.04832 0.3111 0.0
C208 C 0.51363 0.15655 0.23115 0.0
C209 C 0.5397 0.16118 0.2113 0.0
C210 C 0.50651 0.13553 0.2831 0.0
C211 C 0.5259 0.11866 0.31525 0.0
C212 C 0.55217 0.12291 0.2934 0.0
C213 C 0.55873 0.1442 0.2422 0.0
C214 C 0.47832 0.13168 0.30503 0.0
C215 C 0.57342 0.10522 0.32521 0.0
C216 C 0.51345 0.07994 0.51497 0.0
C217 C 0.50805 0.055 0.48372 0.0
C218 C 0.51882 0.10091 0.46084 0.0
C219 C 0.51889 0.09689 0.37321 0.0
C220 C 0.51313 0.07185 0.34124 0.0
C221 C 0.50772 0.05127 0.39675 0.0
C222 C 0.52484 0.1273 0.49751 0.0
C223 C 0.51316 0.06667 0.24835 0.0
H224 H 0.49884 0.16968 0.20781 0.0
H225 H 0.5789 0.14775 0.22685 0.0
H226 H 0.4721 0.11172 0.2877 0.0
H227 H 0.47557 0.13363 0.37356 0.0
H228 H 0.46553 0.14599 0.27306 0.0
H229 H 0.59272 0.11045 0.29926 0.0
H230 H 0.57436 0.10628 0.3944 0.0
H231 H 0.56919 0.08467 0.30867 0.0
H232 H 0.51374 0.08306 0.58195 0.0
H233 H 0.5036 0.0321 0.3718 0.0
H234 H 0.5116 0.14224 0.47113 0.0
H235 H 0.54488 0.13306 0.48048 0.0
H236 H 0.52301 0.12749 0.56672 0.0
H237 H 0.49976 0.08032 0.21626 0.0
H238 H 0.50734 0.04638 0.23336 0.0
H239 H 0.53282 0.07014 0.22239 0.0
C240 C 0.36437 0.50033 0.19263 0.0
C241 C 0.35832 0.52682 0.18278 0.0
C242 C 0.3853 0.49243 0.24284 0.0
C243 C 0.40053 0.51148 0.28366 0.0
C244 C 0.39502 0.53827 0.2713 0.0
C245 C 0.3739 0.54559 0.22132 0.0
C246 C 0.39059 0.46369 0.25439 0.0
C247 C 0.41095 0.55921 0.31294 0.0
C248 C 0.43516 0.49422 0.48567 0.0
C249 C 0.46089 0.49134 0.45867 0.0
C250 C 0.41529 0.50022 0.42902 0.0
C251 C 0.42125 0.50349 0.34316 0.0
C252 C 0.44707 0.50009 0.31513 0.0
C253 C 0.46657 0.494 0.37318 0.0
C254 C 0.38799 0.50365 0.46144 0.0
C255 C 0.45422 0.50354 0.22419 0.0
H256 H 0.35237 0.48572 0.16306 0.0
H257 H 0.36926 0.56608 0.21356 0.0
H258 H 0.41116 0.45927 0.23978 0.0
H259 H 0.38723 0.45818 0.32066 0.0
H260 H 0.37805 0.45141 0.21424 0.0
H261 H 0.40528 0.57912 0.29238 0.0
H262 H 0.40854 0.55791 0.38178 0.0
H263 H 0.43183 0.55631 0.29908 0.0
H264 H 0.43054 0.49217 0.5515 0.0
H265 H 0.4864 0.49187 0.35167 0.0
H266 H 0.37457 0.49063 0.42721 0.0
H267 H 0.38144 0.52398 0.45033 0.0
H268 H 0.38637 0.49938 0.52937 0.0
H269 H 0.44183 0.49104 0.18442 0.0
H270 H 0.47485 0.49867 0.21167 0.0
H271 H 0.45073 0.52404 0.20499 0.0
C272 C 0.95184 0.36326 0.22649 0.0
C273 C 0.97047 0.34824 0.18455 0.0
C274 C 0.9592 0.3836 0.28006 0.0
C275 C 0.98585 0.38871 0.29259 0.0
C276 C 0.00473 0.37381 0.24936 0.0
C277 C 0.9968 0.35386 0.19537 0.0
C278 C 0.9385 0.39949 0.32354 0.0
C279 C 0.03334 0.37846 0.26192 0.0
C280 C 0.00935 0.45295 0.38182 0.0
C281 C 0.01355 0.44632 0.4658 0.0
C282 C 0.99943 0.43466 0.32529 0.0
C283 C 0.99419 0.40898 0.35307 0.0
C284 C 0.99815 0.40228 0.43805 0.0
C285 C 0.00763 0.42111 0.49355 0.0
C286 C 0.99486 0.4427 0.23568 0.0
C287 C 0.9929 0.37506 0.46995 0.0
H288 H 0.93147 0.35894 0.21787 0.0
H289 H 0.0113 0.3422 0.16355 0.0
H290 H 0.94166 0.39945 0.39212 0.0
H291 H 0.93959 0.42006 0.30226 0.0
H292 H 0.91872 0.39204 0.31083 0.0
H293 H 0.04552 0.36546 0.22259 0.0
H294 H 0.0382 0.39899 0.24678 0.0
H295 H 0.03842 0.37517 0.32849 0.0
H296 H 0.01365 0.47255 0.36039 0.0
H297 H 0.01091 0.41597 0.55845 0.0
H298 H 0.97454 0.43852 0.21779 0.0
H299 H 0.00758 0.43121 0.19353 0.0
H300 H 0.99872 0.46376 0.22509 0.0
H301 H 0.97251 0.36959 0.45715 0.0
H302 H 0.99646 0.37317 0.53815 0.0
H303 H 0.00546 0.36091 0.43653 0.0
C304 C 0.81047 0.01254 0.84988 0.0
C305 C 0.81044 0.01572 0.93689 0.0
C306 C 0.83369 0.01145 0.80419 0.0
C307 C 0.85764 0.01351 0.84649 0.0
C308 C 0.85779 0.01661 0.93464 0.0
C309 C 0.83414 0.01772 0.97892 0.0
C310 C 0.83256 0.00815 0.71045 0.0
C311 C 0.88292 0.01879 0.98202 0.0
C312 C 0.91661 0.98667 0.7314 0.0
C313 C 0.92776 0.00935 0.69757 0.0
C314 C 0.8942 0.98782 0.78144 0.0
C315 C 0.8824 0.01222 0.79792 0.0
C316 C 0.89352 0.03521 0.76418 0.0
C317 C 0.91602 0.03351 0.71457 0.0
C318 C 0.88304 0.96283 0.81616 0.0
C319 C 0.88146 0.06161 0.77967 0.0
H320 H 0.79216 0.01106 0.81717 0.0
H321 H 0.83424 0.02024 0.04616 0.0
H322 H 0.84236 0.02477 0.67917 0.0
H323 H 0.84301 0.99015 0.69184 0.0
H324 H 0.81236 0.00698 0.68701 0.0
H325 H 0.87978 0.02102 0.05037 0.0
H326 H 0.89497 0.00119 0.97107 0.0
H327 H 0.89411 0.0358 0.95885 0.0
H328 H 0.92547 0.9679 0.71932 0.0
H329 H 0.92433 0.05116 0.68876 0.0
H330 H 0.86331 0.95974 0.79073 0.0
H331 H 0.88117 0.96417 0.88512 0.0
H332 H 0.89514 0.94556 0.80068 0.0
H333 H 0.86168 0.0622 0.75278 0.0
H334 H 0.893 0.0777 0.75178 0.0
H335 H 0.87952 0.06508 0.84783 0.0
C336 C 0.52921 0.81116 0.88775 0.0
C337 C 0.51534 0.80637 0.96161 0.0
C338 C 0.52846 0.83566 0.84845 0.0
C339 C 0.513 0.85582 0.88288 0.0
C340 C 0.49921 0.85121 0.95832 0.0
C341 C 0.5007 0.82657 0.99722 0.0
C342 C 0.54383 0.8398 0.76905 0.0
C343 C 0.48224 0.87205 0.99645 0.0
C344 C 0.52592 0.92543 0.80935 0.0
C345 C 0.50759 0.92845 0.74533 0.0
C346 C 0.52774 0.90206 0.85526 0.0
C347 C 0.51056 0.88128 0.83778 0.0
C348 C 0.49168 0.88441 0.77435 0.0
C349 C 0.49057 0.90782 0.72853 0.0
C350 C 0.54841 0.89941 0.92132 0.0
C351 C 0.47275 0.86292 0.75438 0.0
H352 H 0.54054 0.79556 0.86014 0.0
H353 H 0.48976 0.8229 0.05396 0.0
H354 H 0.53046 0.84351 0.71616 0.0
H355 H 0.55642 0.85719 0.77518 0.0
H356 H 0.55616 0.82271 0.75333 0.0
H357 H 0.47353 0.86576 0.05679 0.0
H358 H 0.49361 0.89005 0.00707 0.0
H359 H 0.46639 0.87711 0.95256 0.0
H360 H 0.53922 0.94119 0.82266 0.0
H361 H 0.47617 0.91003 0.67983 0.0
H362 H 0.56188 0.88336 0.90439 0.0
H363 H 0.53951 0.89423 0.98232 0.0
H364 H 0.55979 0.9176 0.92905 0.0
H365 H 0.48337 0.84557 0.73099 0.0
H366 H 0.45836 0.86892 0.70651 0.0
H367 H 0.46223 0.85691 0.81185 0.0
C368 C 0.67541 0.52152 0.99523 0.0
C369 C 0.68322 0.50004 0.04322 0.0
C370 C 0.65293 0.5206 0.94626 0.0
C371 C 0.63789 0.49756 0.94498 0.0
C372 C 0.64519 0.47606 0.99563 0.0
C373 C 0.66782 0.47755 0.04431 0.0
C374 C 0.6458 0.544 0.89355 0.0
C375 C 0.62963 0.45117 0.99608 0.0
C376 C 0.56991 0.50266 0.85428 0.0
C377 C 0.57391 0.49426 0.77172 0.0
C378 C 0.59041 0.50341 0.9119 0.0
C379 C 0.61553 0.49553 0.88651 0.0
C380 C 0.61962 0.48672 0.80368 0.0
C381 C 0.59882 0.48621 0.74739 0.0
C382 C 0.58527 0.51296 -0.0004 0.0
C383 C 0.6461 0.47812 0.77407 0.0
H384 H 0.6873 0.53892 0.99439 0.0
H385 H 0.67378 0.46086 0.08126 0.0
H386 H 0.64727 0.5389 0.82632 0.0
H387 H 0.62545 0.54985 0.90584 0.0
H388 H 0.65857 0.56098 0.90569 0.0
H389 H 0.63676 0.43699 0.04336 0.0
H390 H 0.60893 0.45546 0.00903 0.0
H391 H 0.63067 0.44192 0.93353 0.0
H392 H 0.55075 0.50882 0.87394 0.0
H393 H 0.60214 0.47953 0.68403 0.0
H394 H 0.59678 0.53081 0.01163 0.0
H395 H 0.59151 0.49805 0.04574 0.0
H396 H 0.56448 0.51749 0.01044 0.0
H397 H 0.65987 0.49465 0.77803 0.0
H398 H 0.64588 0.47094 0.70861 0.0
H399 H 0.65361 0.46236 0.81506 0.0
C400 C 0.96732 0.67624 0.86979 0.0
C401 C 0.97644 0.67675 0.95215 0.0
C402 C 0.97217 0.65481 0.81771 0.0
C403 C 0.98628 0.63324 0.84917 0.0
C404 C 0.99515 0.63346 0.93294 0.0
C405 C 0.99023 0.65531 0.98344 0.0
C406 C 0.96251 0.65539 0.7287 0.0
C407 C 0.00997 0.61067 0.969 0.0
C408 C 0.97944 0.56801 0.73986 0.0
C409 C 0.00269 0.56646 0.69417 0.0
C410 C 0.97383 0.58965 0.79026 0.0
C411 C 0.99172 0.61046 0.79442 0.0
C412 C 0.01488 0.6094 0.74679 0.0
C413 C 0.02017 0.58734 0.69762 0.0
C414 C 0.94902 0.58994 0.8406 0.0
C415 C 0.03424 0.63141 0.74872 0.0
H416 H 0.95672 0.69288 0.84555 0.0
H417 H 0.99727 0.65561 0.04718 0.0
H418 H 0.97908 0.65355 0.68477 0.0
H419 H 0.9495 0.63858 0.71737 0.0
H420 H 0.95182 0.67364 0.71393 0.0
H421 H 0.01503 0.61364 0.03575 0.0
H422 H 0.99832 0.5926 0.96368 0.0
H423 H 0.0281 0.60755 0.93295 0.0
H424 H 0.96584 0.55195 0.73823 0.0
H425 H 0.03814 0.58636 0.66254 0.0
H426 H 0.93741 0.60748 0.82479 0.0
H427 H 0.95359 0.59101 0.90825 0.0
H428 H 0.93699 0.57236 0.82952 0.0
H429 H 0.02468 0.65 0.73098 0.0
H430 H 0.05087 0.62801 0.70582 0.0
H431 H 0.04178 0.63383 0.8131 0.0
C432 C 0.96788 0.22266 0.25203 0.0
C433 C 0.95729 0.22182 0.17159 0.0
C434 C 0.96793 0.20036 0.30302 0.0
C435 C 0.95736 0.17683 0.27205 0.0
C436 C 0.94378 0.17689 0.19538 0.0
C437 C 0.94369 0.19954 0.14634 0.0
C438 C 0.98198 0.20125 0.38559 0.0
C439 C 0.93214 0.15231 0.16008 0.0
C440 C 0.99672 0.1169 0.3269 0.0
C441 C 0.98168 0.10548 0.38996 0.0
C442 C 0.98853 0.13971 0.28655 0.0
C443 C 0.96491 0.15164 0.31095 0.0
C444 C 0.94928 0.13986 0.37313 0.0
C445 C 0.95778 0.11675 0.41163 0.0
C446 C 0.00553 0.15139 0.21911 0.0
C447 C 0.92412 0.15213 0.40112 0.0
H448 H 0.97838 0.23985 0.27188 0.0
H449 H 0.93515 0.19903 0.0845 0.0
H450 H 0.97132 0.19008 0.43411 0.0
H451 H 1.00139 0.19215 0.37832 0.0
H452 H 0.98466 0.22158 0.40775 0.0
H453 H 0.91792 0.15665 0.10991 0.0
H454 H 0.94781 0.14009 0.13299 0.0
H455 H 0.92243 0.14069 0.20959 0.0
H456 H 0.01513 0.10816 0.3098 0.0
H457 H 0.9462 0.1081 0.46102 0.0
H458 H 0.01242 0.17089 0.23897 0.0
H459 H 0.99428 0.1541 0.16072 0.0
H460 H 0.02269 0.13903 0.20498 0.0
H461 H 0.92823 0.17064 0.43425 0.0
H462 H 0.91298 0.13919 0.44382 0.0
H463 H 0.91185 0.15701 0.34643 0.0
C464 C 0.31573 0.02857 0.21422 0.0
C465 C 0.29484 0.01122 0.21778 0.0
C466 C 0.33684 0.02573 0.26794 0.0
C467 C 0.33665 0.00548 0.32817 0.0
C468 C 0.3145 0.98952 0.33759 0.0
C469 C 0.29379 0.99251 0.28177 0.0
C470 C 0.36014 0.04315 0.25589 0.0
C471 C 0.3132 0.9686 0.40397 0.0
C472 C 0.40374 0.98079 0.38134 0.0
C473 C 0.40966 0.99651 0.44977 0.0
C474 C 0.3794 0.98266 0.34295 0.0
C475 C 0.36052 0.99998 0.37608 0.0
C476 C 0.36587 0.01433 0.44917 0.0
C477 C 0.39061 0.01287 0.48401 0.0
C478 C 0.37439 0.96727 0.26431 0.0
C479 C 0.34597 0.03217 0.48837 0.0
H480 H 0.31629 0.04333 0.16559 0.0
H481 H 0.27763 0.97907 0.28475 0.0
H482 H 0.36543 0.05259 0.31572 0.0
H483 H 0.377 0.03126 0.23554 0.0
H484 H 0.3567 0.05861 0.2084 0.0
H485 H 0.29505 0.95705 0.40044 0.0
H486 H 0.32996 0.95514 0.39818 0.0
H487 H 0.31428 0.97771 0.46664 0.0
H488 H 0.41853 0.96811 0.3554 0.0
H489 H 0.39509 0.02464 0.5383 0.0
H490 H 0.37198 0.98086 0.21076 0.0
H491 H 0.35616 0.95602 0.27051 0.0
H492 H 0.39044 0.95355 0.24964 0.0
H493 H 0.34403 0.05011 0.45004 0.0
H494 H 0.35147 0.03792 0.55283 0.0
H495 H 0.3267 0.02265 0.4906 0.0
C496 C 0.58427 0.30585 0.17881 0.0
C497 C 0.56712 0.28628 0.20511 0.0
C498 C 0.58717 0.32875 0.22543 0.0
C499 C 0.57264 0.33186 0.29983 0.0
C500 C 0.5587 0.31041 0.33307 0.0
C501 C 0.55606 0.28775 0.28499 0.0
C502 C 0.60287 0.35083 0.18903 0.0
C503 C 0.54355 0.31268 0.41356 0.0
C504 C 0.57243 0.394 0.42904 0.0
C505 C 0.54993 0.40621 0.39905 0.0
C506 C 0.5809 0.37017 0.39533 0.0
C507 C 0.56652 0.3585 0.33026 0.0
C508 C 0.54469 0.37161 0.29661 0.0
C509 C 0.53664 0.39524 0.3317 0.0
C510 C 0.60434 0.35694 0.43247 0.0
C511 C 0.52906 0.36015 0.22584 0.0
H512 H 0.5932 0.30447 0.1175 0.0
H513 H 0.54291 0.27259 0.30577 0.0
H514 H 0.58975 0.36438 0.15524 0.0
H515 H 0.61271 0.36205 0.23887 0.0
H516 H 0.61763 0.34359 0.144 0.0
H517 H 0.538 0.29325 0.43862 0.0
H518 H 0.55489 0.32317 0.46163 0.0
H519 H 0.52557 0.32403 0.40194 0.0
H520 H 0.58272 0.40239 0.48144 0.0
H521 H 0.5194 0.40478 0.30783 0.0
H522 H 0.61618 0.34726 0.38351 0.0
H523 H 0.59788 0.34169 0.47714 0.0
H524 H 0.61674 0.37095 0.46686 0.0
H525 H 0.54183 0.35578 0.17172 0.0
H526 H 0.51338 0.37344 0.20451 0.0
H527 H 0.52014 0.34152 0.24631 0.0
C528 C 0.23316 0.53846 0.2712 0.0
C529 C 0.23325 0.55007 0.1919 0.0
C530 C 0.21108 0.5399 0.32236 0.0
C531 C 0.18878 0.5531 0.29271 0.0
C532 C 0.19031 0.5681 0.21855 0.0
C533 C 0.21268 0.56651 0.16903 0.0
C534 C 0.21048 0.52432 0.40248 0.0
C535 C 0.16719 0.58288 0.18547 0.0
C536 C 0.12719 0.51521 0.33204 0.0
C537 C 0.11615 0.52876 0.39911 0.0
C538 C 0.15033 0.52362 0.2952 0.0
C539 C 0.16298 0.54599 0.32707 0.0
C540 C 0.15145 0.56037 0.39282 0.0
C541 C 0.12803 0.55162 0.42799 0.0
C542 C 0.16165 0.50801 0.22374 0.0
C543 C 0.16434 0.58423 0.42859 0.0
H544 H 0.24908 0.52585 0.2893 0.0
H545 H 0.21296 0.57584 0.10812 0.0
H546 H 0.19995 0.53504 0.45225 0.0
H547 H 0.20009 0.50571 0.39157 0.0
H548 H 0.23031 0.51966 0.4249 0.0
H549 H 0.17307 0.59802 0.1394 0.0
H550 H 0.15396 0.56906 0.15378 0.0
H551 H 0.15622 0.59232 0.2369 0.0
H552 H 0.11793 0.49767 0.3092 0.0
H553 H 0.11963 0.56205 0.48036 0.0
H554 H 0.18059 0.4996 0.24254 0.0
H555 H 0.16516 0.52083 0.16891 0.0
H556 H 0.14877 0.49182 0.20411 0.0
H557 H 0.18074 0.57808 0.46879 0.0
H558 H 0.15072 0.59596 0.46717 0.0
H559 H 0.17235 0.59679 0.37825 0.0
C560 C 0.0167 0.7962 0.94619 0.0
C561 C 0.00513 0.79769 0.02536 0.0
C562 C 0.01706 0.81796 0.89275 0.0
C563 C 0.00553 0.84164 0.91952 0.0
C564 C 0.99443 0.84338 0.00016 0.0
C565 C 0.99407 0.82135 0.05151 0.0
C566 C 0.02874 0.81482 0.8068 0.0
C567 C 0.98211 0.86831 0.03131 0.0
C568 C 0.01607 0.90626 0.80851 0.0
C569 C 0.99256 0.90897 0.76582 0.0
C570 C 0.02107 0.88394 0.85703 0.0
C571 C 0.00228 0.86389 0.86134 0.0
C572 C 0.97898 0.86617 0.81587 0.0
C573 C 0.97423 0.88883 0.76985 0.0
C574 C 0.0462 0.88185 0.90447 0.0
C575 C 0.9588 0.84486 0.817 0.0
H576 H 0.02537 0.77802 0.92574 0.0
H577 H 0.9845 0.82253 0.11179 0.0
H578 H 0.01468 0.80441 0.76662 0.0
H579 H 0.03366 0.83367 0.77668 0.0
H580 H 0.04652 0.80261 0.80988 0.0
H581 H 0.97574 0.86682 0.09751 0.0
H582 H 0.99599 0.88471 0.0255 0.0
H583 H 0.96497 0.8732 0.99257 0.0
H584 H 0.03041 0.92163 0.80468 0.0
H585 H 0.9562 0.89048 0.73564 0.0
H586 H 0.0564 0.86357 0.88702 0.0
H587 H 0.04214 0.88087 0.97258 0.0
H588 H 0.05923 0.89864 0.8921 0.0
H589 H 0.96794 0.82569 0.80389 0.0
H590 H 0.94324 0.8483 0.7704 0.0
H591 H 0.94981 0.84367 0.87997 0.0
C592 C 0.69326 0.0523 0.95884 0.0
C593 C 0.69729 0.06436 0.03623 0.0
C594 C 0.66877 0.05262 0.92155 0.0
C595 C 0.64799 0.06529 0.96293 0.0
C596 C 0.65295 0.0809 0.03379 0.0
C597 C 0.67775 0.08044 0.06936 0.0
C598 C 0.66446 0.03638 0.84419 0.0
C599 C 0.63154 0.09541 0.07827 0.0
C600 C 0.58489 0.05858 0.8459 0.0
C601 C 0.57592 0.03463 0.87751 0.0
C602 C 0.60736 0.07019 0.87771 0.0
C603 C 0.62111 0.05749 0.9423 0.0
C604 C 0.61075 0.03467 0.97979 0.0
C605 C 0.58825 0.02351 0.94684 0.0
C606 C 0.61735 0.09489 0.83768 0.0
C607 C 0.62454 0.02087 0.0505 0.0
H608 H 0.70825 0.03999 0.93226 0.0
H609 H 0.68101 0.09039 0.12814 0.0
H610 H 0.65441 0.01805 0.86186 0.0
H611 H 0.65199 0.04688 0.79888 0.0
H612 H 0.68299 0.03121 0.81277 0.0
H613 H 0.63931 0.11197 0.1151 0.0
H614 H 0.6169 0.10292 0.0336 0.0
H615 H 0.6216 0.08194 0.12223 0.0
H616 H 0.57526 0.06758 0.79303 0.0
H617 H 0.58119 0.00527 0.9725 0.0
H618 H 0.6324 0.08987 0.7907 0.0
H619 H 0.62637 0.1079 0.88462 0.0
H620 H 0.60165 0.10573 0.80526 0.0
H621 H 0.6431 0.01261 0.02732 0.0
H622 H 0.61279 0.00475 0.07741 0.0
H623 H 0.6292 0.0348 0.10116 0.0
C624 C 0.44266 0.6746 0.02727 0.0
C625 C 0.46415 0.68991 0.00565 0.0
C626 C 0.43818 0.65072 0.98743 0.0
C627 C 0.45589 0.642 0.92587 0.0
C628 C 0.47556 0.659 0.89656 0.0
C629 C 0.47936 0.68293 0.9367 0.0
C630 C 0.41631 0.63366 0.01791 0.0
C631 C 0.49467 0.65058 0.83021 0.0
C632 C 0.47887 0.57208 0.92621 0.0
C633 C 0.46953 0.5632 0.84928 0.0
C634 C 0.47317 0.5973 0.95433 0.0
C635 C 0.45743 0.61388 0.90472 0.0
C636 C 0.4459 0.60416 0.83108 0.0
C637 C 0.45222 0.57893 0.80386 0.0
C638 C 0.48561 0.6068 0.0341 0.0
C639 C 0.42833 0.62087 0.77796 0.0
H640 H 0.4308 0.68016 0.08043 0.0
H641 H 0.49603 0.69475 0.92021 0.0
H642 H 0.40761 0.62257 0.96559 0.0
H643 H 0.42391 0.61936 0.06393 0.0
H644 H 0.40093 0.64533 0.04907 0.0
H645 H 0.50652 0.66715 0.80688 0.0
H646 H 0.50793 0.63564 0.8567 0.0
H647 H 0.48451 0.64163 0.77654 0.0
H648 H 0.492 0.55996 0.96217 0.0
H649 H 0.44461 0.5721 0.74477 0.0
H650 H 0.47074 0.61495 0.0769 0.0
H651 H 0.49951 0.62266 0.01942 0.0
H652 H 0.49617 0.59105 0.06754 0.0
H653 H 0.4158 0.63353 0.8172 0.0
H654 H 0.41585 0.6088 0.73696 0.0
H655 H 0.44027 0.6337 0.73743 0.0
C656 C 0.80628 0.45069 0.92052 0.0
C657 C 0.80043 0.47157 0.97339 0.0
C658 C 0.82719 0.45225 0.86452 0.0
C659 C 0.84275 0.47496 0.86376 0.0
C660 C 0.83584 0.49664 0.91377 0.0
C661 C 0.81459 0.4947 0.9678 0.0
C662 C 0.83362 0.42909 0.81025 0.0
C663 C 0.85195 0.5212 0.91465 0.0
C664 C 0.91433 0.47145 0.81166 0.0
C665 C 0.91482 0.48375 0.73362 0.0
C666 C 0.89073 0.46751 0.85366 0.0
C667 C 0.86728 0.47567 0.81558 0.0
C668 C 0.86766 0.4868 0.73479 0.0
C669 C 0.89146 0.49079 0.6949 0.0
C670 C 0.891 0.45582 0.94039 0.0
C671 C 0.84303 0.49518 0.69155 0.0
H672 H 0.79547 0.43267 0.92658 0.0
H673 H 0.8102 0.51055 0.0104 0.0
H674 H 0.83686 0.4354 0.74467 0.0
H675 H 0.85184 0.41989 0.83232 0.0
H676 H 0.81803 0.41419 0.81142 0.0
H677 H 0.84308 0.53676 0.95365 0.0
H678 H 0.8715 0.51675 0.93965 0.0
H679 H 0.85453 0.52881 0.85019 0.0
H680 H 0.93239 0.4659 0.84122 0.0
H681 H 0.89179 0.4997 0.63335 0.0
H682 H 0.87745 0.4391 0.94407 0.0
H683 H 0.88429 0.47057 0.98632 0.0
H684 H 0.91062 0.44904 0.95894 0.0
H685 H 0.83068 0.4779 0.68 0.0
H686 H 0.84689 0.50507 0.63101 0.0
H687 H 0.83178 0.50868 0.73186 0.0
C688 C 0.02497 0.21959 0.9251 0.0
C689 C 0.00339 0.2353 0.90769 0.0
C690 C 0.02997 0.19711 0.87796 0.0
C691 C 0.01307 0.19055 0.81183 0.0
C692 C 0.994 0.20873 0.78577 0.0
C693 C 0.98922 0.23093 0.8347 0.0
C694 C 0.05086 0.17859 0.90695 0.0
C695 C 0.97619 0.20295 0.71358 0.0
C696 C 0.02049 0.12748 0.68841 0.0
C697 C 0.0023 0.1115 0.72895 0.0
C698 C 0.02484 0.15318 0.71547 0.0
C699 C 0.01088 0.16286 0.78513 0.0
C700 C 0.99351 0.14624 0.82875 0.0
C701 C 0.98928 0.12089 0.79956 0.0
C702 C 0.04332 0.17025 0.66684 0.0
C703 C 0.97869 0.15549 0.90486 0.0
H704 H 0.0358 0.22294 0.98208 0.0
H705 H 0.97244 0.24301 0.82164 0.0
H706 H 0.04198 0.1631 0.94617 0.0
H707 H 0.06054 0.16901 0.85315 0.0
H708 H 0.0657 0.18876 0.945 0.0
H709 H 0.96627 0.22084 0.69083 0.0
H710 H 0.98705 0.19403 0.66095 0.0
H711 H 0.9612 0.18882 0.73416 0.0
H712 H 0.03037 0.12038 0.63303 0.0
H713 H 0.9753 0.10852 0.83115 0.0
H714 H 0.05501 0.1826 0.70917 0.0
H715 H 0.03205 0.18345 0.62557 0.0
H716 H 0.05662 0.15854 0.62706 0.0
H717 H 0.99229 0.16299 0.95265 0.0
H718 H 0.96688 0.13975 0.93369 0.0
H719 H 0.96556 0.17175 0.88728 0.0
C720 C 0.3007 0.97503 0.9108 0.0
C721 C 0.28678 0.99842 0.91741 0.0
C722 C 0.32362 0.97362 0.86351 0.0
C723 C 0.33243 0.99597 0.81965 0.0
C724 C 0.31682 0.01874 0.81853 0.0
C725 C 0.29437 0.01986 0.86873 0.0
C726 C 0.33967 0.94899 0.86749 0.0
C727 C 0.32486 0.0426 0.76976 0.0
C728 C 0.40591 0.00107 0.79638 0.0
C729 C 0.40978 0.98913 0.71887 0.0
C730 C 0.38068 0.00413 0.82912 0.0
C731 C 0.35893 0.99595 0.78158 0.0
C732 C 0.36288 0.98547 0.70088 0.0
C733 C 0.38822 0.98157 0.67162 0.0
C734 C 0.37737 0.01484 0.91632 0.0
C735 C 0.34039 0.97758 0.64644 0.0
H736 H 0.29524 0.9587 0.95026 0.0
H737 H 0.28401 0.03815 0.87534 0.0
H738 H 0.34506 0.94245 0.80376 0.0
H739 H 0.35792 0.95295 0.90169 0.0
H740 H 0.32933 0.93285 0.8997 0.0
H741 H 0.30854 0.05655 0.76211 0.0
H742 H 0.34074 0.05268 0.80319 0.0
H743 H 0.33227 0.03712 0.70702 0.0
H744 H 0.4226 0.00666 0.83317 0.0
H745 H 0.39123 0.97225 0.61162 0.0
H746 H 0.36852 0.99976 0.95725 0.0
H747 H 0.36404 0.03181 0.91558 0.0
H748 H 0.39608 0.02097 0.94417 0.0
H749 H 0.33005 0.96085 0.67509 0.0
H750 H 0.34676 0.97192 0.5826 0.0
H751 H 0.32631 0.99388 0.64131 0.0
C752 C 0.52902 0.28319 0.87197 0.0
C753 C 0.51614 0.28139 0.94886 0.0
C754 C 0.5256 0.30512 0.8201 0.0
C755 C 0.50926 0.32578 0.84681 0.0
C756 C 0.49393 0.32248 0.91961 0.0
C757 C 0.49753 0.30025 0.96971 0.0
C758 C 0.54189 0.30753 0.74199 0.0
C759 C 0.4762 0.34383 0.95058 0.0
C760 C 0.53683 0.393 0.80294 0.0
C761 C 0.52195 0.40152 0.73504 0.0
C762 C 0.53224 0.36881 0.84113 0.0
C763 C 0.51251 0.35235 0.80976 0.0
C764 C 0.49684 0.36115 0.7427 0.0
C765 C 0.50164 0.38576 0.7064 0.0
C766 C 0.54908 0.36058 0.91381 0.0
C767 C 0.47576 0.34417 0.70712 0.0
H768 H 0.5437 0.26884 0.85647 0.0
H769 H 0.48789 0.29905 0.02994 0.0
H770 H 0.53051 0.31628 0.69026 0.0
H771 H 0.55855 0.32058 0.75448 0.0
H772 H 0.54955 0.28832 0.72144 0.0
H773 H 0.46186 0.33632 0.99659 0.0
H774 H 0.48795 0.35909 0.98161 0.0
H775 H 0.46569 0.35318 0.89806 0.0
H776 H 0.55247 0.40516 0.82554 0.0
H777 H 0.49026 0.39214 0.65325 0.0
H778 H 0.56045 0.343 0.89666 0.0
H779 H 0.53684 0.35537 0.96848 0.0
H780 H 0.56277 0.37613 0.93297 0.0
H781 H 0.48467 0.32743 0.67387 0.0
H782 H 0.46327 0.35499 0.66244 0.0
H783 H 0.46345 0.33609 0.75784 0.0
C784 C 0.22139 0.48098 0.95179 0.0
C785 C 0.2384 0.50121 0.93064 0.0
C786 C 0.19884 0.47661 0.90513 0.0
C787 C 0.1934 0.49287 0.83571 0.0
C788 C 0.21234 0.51091 0.80777 0.0
C789 C 0.23463 0.51502 0.85615 0.0
C790 C 0.17938 0.457 0.93685 0.0
C791 C 0.2076 0.5282 0.73287 0.0
C792 C 0.13248 0.48414 0.70453 0.0
C793 C 0.11617 0.50328 0.739 0.0
C794 C 0.15756 0.47997 0.73622 0.0
C795 C 0.16632 0.49509 0.80442 0.0
C796 C 0.14938 0.51349 0.84195 0.0
C797 C 0.12464 0.51749 0.80831 0.0
C798 C 0.17503 0.46031 0.69424 0.0
C799 C 0.15768 0.52964 0.91612 0.0
H800 H 0.22418 0.47057 0.01022 0.0
H801 H 0.24762 0.53091 0.84055 0.0
H802 H 0.16407 0.46733 0.97274 0.0
H803 H 0.16989 0.4467 0.88437 0.0
H804 H 0.18854 0.44237 0.97879 0.0
H805 H 0.19885 0.51696 0.681 0.0
H806 H 0.19379 0.5439 0.75032 0.0
H807 H 0.22578 0.53741 0.71018 0.0
H808 H 0.12613 0.4733 0.65026 0.0
H809 H 0.11206 0.53221 0.83531 0.0
H810 H 0.18503 0.448 0.7413 0.0
H811 H 0.19019 0.47072 0.65802 0.0
H812 H 0.1642 0.44748 0.65081 0.0
H813 H 0.16446 0.51677 0.96748 0.0
H814 H 0.14176 0.54213 0.94043 0.0
H815 H 0.17413 0.54238 0.89805 0.0
C816 C 0.97645 0.77311 0.34557 0.0
C817 C 1.00087 0.76659 0.31328 0.0
C818 C 0.97355 0.7946 0.39912 0.0
C819 C 0.99557 0.80972 0.41923 0.0
C820 C 0.02059 0.80029 0.39868 0.0
C821 C 0.02294 0.77834 0.34714 0.0
C822 C 0.94669 0.80306 0.42474 0.0
C823 C 0.04468 0.81549 0.41997 0.0
C824 C 0.99029 0.88344 0.40561 0.0
C825 C 0.99429 0.89052 0.48868 0.0
C826 C 0.98969 0.85702 0.3827 0.0
C827 C 0.99243 0.83741 0.44507 0.0
C828 C 0.99467 0.84468 0.52991 0.0
C829 C 0.99625 0.87119 0.55039 0.0
C830 C 0.98778 0.85019 0.29113 0.0
C831 C 0.99673 0.82468 0.59885 0.0
H832 H 0.95933 0.76389 0.31996 0.0
H833 H 0.04182 0.77312 0.32232 0.0
H834 H 0.94671 0.8111 0.4891 0.0
H835 H 0.93986 0.81864 0.38185 0.0
H836 H 0.93276 0.78661 0.42177 0.0
H837 H 0.04557 0.83328 0.38041 0.0
H838 H 0.04425 0.82181 0.48614 0.0
H839 H 0.06259 0.80391 0.40913 0.0
H840 H 0.98914 0.89852 0.35813 0.0
H841 H 0.99966 0.87682 0.61463 0.0
H842 H 0.97158 0.83643 0.28058 0.0
H843 H 0.00589 0.84038 0.27064 0.0
H844 H 0.98472 0.86767 0.25126 0.0
H845 H 0.9852 0.807 0.58486 0.0
H846 H 0.99009 0.83286 0.65944 0.0
H847 H 0.01727 0.81872 0.60609 0.0
C848 C 0.71174 0.02851 0.36356 0.0
C849 C 0.71385 0.0149 0.28807 0.0
C850 C 0.69055 0.02436 0.41748 0.0
C851 C 0.67074 0.00675 0.39386 0.0
C852 C 0.67432 0.99098 0.32216 0.0
C853 C 0.69604 0.99505 0.27069 0.0
C854 C 0.68796 0.04098 0.49475 0.0
C855 C 0.65367 0.97225 0.2935 0.0
C856 C 0.6135 0.99403 0.54035 0.0
C857 C 0.59596 0.01337 0.51466 0.0
C858 C 0.63797 0.99153 0.50189 0.0
C859 C 0.6447 0.00829 0.43475 0.0
C860 C 0.62656 0.02717 0.40662 0.0
C861 C 0.60263 0.02974 0.4478 0.0
C862 C 0.65691 0.97158 0.53481 0.0
C863 C 0.63252 0.04495 0.33358 0.0
H864 H 0.72519 0.04421 0.37629 0.0
H865 H 0.69733 0.98496 0.21127 0.0
H866 H 0.67406 0.05707 0.48249 0.0
H867 H 0.6803 0.02937 0.54794 0.0
H868 H 0.7068 0.04968 0.51307 0.0
H869 H 0.66136 0.95805 0.24728 0.0
H870 H 0.64524 0.96138 0.347 0.0
H871 H 0.63777 0.98343 0.26347 0.0
H872 H 0.60851 0.98157 0.5928 0.0
H873 H 0.58906 0.04465 0.42766 0.0
H874 H 0.66392 0.95891 0.48337 0.0
H875 H 0.64826 0.95911 0.58439 0.0
H876 H 0.67406 0.98165 0.56096 0.0
H877 H 0.64908 0.05778 0.34925 0.0
H878 H 0.61574 0.05743 0.31631 0.0
H879 H 0.63825 0.03328 0.27817 0.0
C880 C 0.49072 0.69483 0.34557 0.0
C881 C 0.50651 0.69778 0.27492 0.0
C882 C 0.49352 0.67308 0.39861 0.0
C883 C 0.51208 0.65358 0.3789 0.0
C884 C 0.52967 0.65785 0.31219 0.0
C885 C 0.52677 0.68004 0.26138 0.0
C886 C 0.47482 0.66969 0.47047 0.0
C887 C 0.54955 0.63758 0.28805 0.0
C888 C 0.5215 0.59579 0.52701 0.0
C889 C 0.50346 0.57797 0.49538 0.0
C890 C 0.52475 0.62049 0.48972 0.0
C891 C 0.51006 0.62718 0.41805 0.0
C892 C 0.49268 0.60868 0.38388 0.0
C893 C 0.48932 0.58451 0.42372 0.0
C894 C 0.54304 0.63979 0.529 0.0
C895 C 0.47714 0.6146 0.30614 0.0
H896 H 0.47471 0.70823 0.35504 0.0
H897 H 0.53858 0.68201 0.2055 0.0
H898 H 0.46503 0.6883 0.48689 0.0
H899 H 0.45978 0.65529 0.45301 0.0
H900 H 0.48496 0.66208 0.52656 0.0
H901 H 0.56451 0.64567 0.24522 0.0
H902 H 0.55926 0.62944 0.34408 0.0
H903 H 0.5397 0.62125 0.25578 0.0
H904 H 0.53216 0.59091 0.58324 0.0
H905 H 0.47538 0.57072 0.39917 0.0
H906 H 0.53179 0.6564 0.55473 0.0
H907 H 0.55652 0.64782 0.48139 0.0
H908 H 0.55456 0.63093 0.58034 0.0
H909 H 0.46354 0.63092 0.31859 0.0
H910 H 0.46577 0.59753 0.28465 0.0
H911 H 0.4902 0.62084 0.25463 0.0
C912 C 0.80637 0.47477 0.32546 0.0
C913 C 0.8013 0.45384 0.27194 0.0
C914 C 0.82899 0.47518 0.37417 0.0
C915 C 0.84688 0.45424 0.36847 0.0
C916 C 0.84046 0.43195 0.32089 0.0
C917 C 0.81765 0.43197 0.27355 0.0
C918 C 0.83479 0.49911 0.42536 0.0
C919 C 0.85889 0.40918 0.313 0.0
C920 C 0.9186 0.46974 0.39263 0.0
C921 C 0.9237 0.45953 0.472 0.0
C922 C 0.89365 0.46802 0.358 0.0
C923 C 0.87325 0.45659 0.40521 0.0
C924 C 0.87828 0.44687 0.4863 0.0
C925 C 0.90352 0.44805 0.51807 0.0
C926 C 0.88911 0.47829 0.27073 0.0
C927 C 0.857 0.43534 0.53969 0.0
H928 H 0.79398 0.49186 0.32333 0.0
H929 H 0.81382 0.41591 0.23141 0.0
H930 H 0.84467 0.49388 0.4845 0.0
H931 H 0.84794 0.51206 0.38933 0.0
H932 H 0.81688 0.51023 0.44026 0.0
H933 H 0.84952 0.39199 0.2838 0.0
H934 H 0.87563 0.41503 0.27354 0.0
H935 H 0.86656 0.40337 0.37501 0.0
H936 H 0.93421 0.47866 0.35728 0.0
H937 H 0.90731 0.4406 0.58035 0.0
H938 H 0.87417 0.49386 0.27214 0.0
H939 H 0.88168 0.46244 0.23026 0.0
H940 H 0.90704 0.48629 0.24199 0.0
H941 H 0.84054 0.44922 0.54447 0.0
H942 H 0.86374 0.4305 0.60379 0.0
H943 H 0.84955 0.41733 0.51007 0.0
loop_
_geom_bond_atom_site_label_1
_geom_bond_atom_site_label_2
_geom_bond_distance
_geom_bond_site_symmetry_2
_ccdc_geom_bond_type
H0 C5 0.930 . S
H1 C8 0.930 . S
H2 C10 0.930 . S
H3 C4 1.016 . S
C4 H3 1.016 . S
C4 N11 1.286 1_556 S
C5 H0 0.930 . S
C5 C6 1.397 . S
C5 C7 1.361 . S
C6 C5 1.397 . S
C6 C10 1.390 . S
C7 C5 1.361 . S
C7 C8 1.393 1_554 S
C7 N11 1.413 . S
C8 H1 0.930 . S
C8 C7 1.393 1_556 S
C8 C9 1.399 . S
C9 C8 1.399 . S
C9 C10 1.381 1_556 S
C10 H2 0.930 . S
C10 C6 1.390 . S
C10 C9 1.381 1_554 S
N11 C4 1.286 1_554 S
N11 C7 1.413 . S
H12 C17 0.930 . S
H13 C20 0.930 . S
H14 C22 0.930 . S
H15 C16 1.016 . S
C16 H15 1.016 . S
C16 N23 1.286 1_556 S
C17 H12 0.930 . S
C17 C18 1.397 . S
C17 C19 1.361 . S
C18 C17 1.397 . S
C18 C22 1.390 . S
C19 C17 1.361 . S
C19 C20 1.393 1_554 S
C19 N23 1.413 . S
C20 H13 0.930 . S
C20 C19 1.393 1_556 S
C20 C21 1.399 . S
C21 C20 1.399 . S
C21 C22 1.381 1_556 S
C22 H14 0.930 . S
C22 C18 1.390 . S
C22 C21 1.381 1_554 S
N23 C16 1.286 1_554 S
N23 C19 1.413 . S
H24 C29 0.930 . S
H25 C32 0.930 . S
H26 C34 0.930 . S
H27 C28 1.029 . S
C28 H27 1.029 . S
C28 N35 1.268 1_566 S
C29 H24 0.930 . S
C29 C30 1.397 . S
C29 C31 1.361 . S
C30 C29 1.397 . S
C30 C34 1.390 1_545 S
C31 C29 1.361 . S
C31 C32 1.393 1_554 S
C31 N35 1.413 . S
C32 H25 0.930 . S
C32 C31 1.393 1_556 S
C32 C33 1.402 . S
C33 C32 1.402 . S
C33 C34 1.379 1_546 S
C34 H26 0.930 . S
C34 C30 1.390 1_565 S
C34 C33 1.379 1_564 S
N35 C28 1.268 1_544 S
N35 C31 1.413 . S
H36 C41 0.930 . S
H37 C44 0.930 . S
H38 C46 0.930 . S
H39 C40 1.016 . S
C40 H39 1.016 . S
C40 N47 1.286 1_556 S
C41 H36 0.930 . S
C41 C42 1.397 . S
C41 C43 1.361 . S
C42 C41 1.397 . S
C42 C46 1.390 . S
C43 C41 1.361 . S
C43 C44 1.393 1_554 S
C43 N47 1.413 . S
C44 H37 0.930 . S
C44 C43 1.393 1_556 S
C44 C45 1.399 . S
C45 C44 1.399 . S
C45 C46 1.381 1_556 S
C46 H38 0.930 . S
C46 C42 1.390 . S
C46 C45 1.381 1_554 S
N47 C40 1.286 1_554 S
N47 C43 1.413 . S
H48 C53 0.930 . S
H49 C56 0.930 . S
H50 C58 0.930 . S
H51 C52 1.016 . S
C52 H51 1.016 . S
C52 N59 1.286 . S
C53 H48 0.930 . S
C53 C54 1.397 . S
C53 C55 1.361 . S
C54 C53 1.397 . S
C54 C58 1.390 . S
C55 C53 1.361 . S
C55 C56 1.393 . S
C55 N59 1.413 . S
C56 H49 0.930 . S
C56 C55 1.393 . S
C56 C57 1.399 . S
C57 C56 1.399 . S
C57 C58 1.381 . S
C58 H50 0.930 . S
C58 C54 1.390 . S
C58 C57 1.381 . S
N59 C52 1.286 . S
N59 C55 1.413 . S
H60 C65 0.930 . S
H61 C68 0.930 . S
H62 C70 0.930 . S
H63 C64 1.016 . S
C64 H63 1.016 . S
C64 N71 1.286 . S
C65 H60 0.930 . S
C65 C66 1.397 . S
C65 C67 1.361 . S
C66 C65 1.397 . S
C66 C70 1.390 . S
C67 C65 1.361 . S
C67 C68 1.393 . S
C67 N71 1.413 . S
C68 H61 0.930 . S
C68 C67 1.393 . S
C68 C69 1.399 . S
C69 C68 1.399 . S
C69 C70 1.381 . S
C70 H62 0.930 . S
C70 C66 1.390 . S
C70 C69 1.381 . S
N71 C64 1.286 . S
N71 C67 1.413 . S
H72 C77 0.930 . S
H73 C80 0.930 . S
H74 C82 0.930 . S
H75 C76 1.026 . S
C76 H75 1.026 . S
C76 N83 1.273 1_565 S
C77 H72 0.930 . S
C77 C78 1.397 . S
C77 C79 1.361 . S
C78 C77 1.397 . S
C78 C82 1.390 1_545 S
C79 C77 1.361 . S
C79 C80 1.393 . S
C79 N83 1.413 . S
C80 H73 0.930 . S
C80 C79 1.393 . S
C80 C81 1.404 . S
C81 C80 1.404 . S
C81 C82 1.378 1_545 S
C82 H74 0.930 . S
C82 C78 1.390 1_565 S
C82 C81 1.378 1_565 S
N83 C76 1.273 1_545 S
N83 C79 1.413 . S
H84 C89 0.930 . S
H85 C92 0.930 . S
H86 C94 0.930 . S
H87 C88 1.016 . S
C88 H87 1.016 . S
C88 N95 1.286 . S
C89 H84 0.930 . S
C89 C90 1.397 . S
C89 C91 1.361 . S
C90 C89 1.397 . S
C90 C94 1.390 . S
C91 C89 1.361 . S
C91 C92 1.393 . S
C91 N95 1.413 . S
C92 H85 0.930 . S
C92 C91 1.393 . S
C92 C93 1.399 . S
C93 C92 1.399 . S
C93 C94 1.381 . S
C94 H86 0.930 . S
C94 C90 1.390 . S
C94 C93 1.381 . S
N95 C88 1.286 . S
N95 C91 1.413 . S
Zn96 O102 1.969 1_455 S
Zn96 O103 1.965 . S
Zn96 O107 2.024 . S
Zn96 O112 1.969 1_455 S
Zn97 O104 1.988 . S
Zn97 O110 1.977 . S
Zn97 O111 1.956 1_455 S
Zn97 O113 2.012 1_455 S
C98 O99 1.229 . S
C98 O107 1.058 . S
O99 C98 1.229 . S
C100 O101 1.229 1_655 S
C100 O113 1.058 . S
O101 C100 1.229 1_455 S
O102 Zn96 1.969 1_655 S
O102 C105 1.267 1_655 S
O103 Zn96 1.965 . S
O103 C114 1.260 1_545 S
O104 Zn97 1.988 . S
O104 C114 1.258 . S
C105 O102 1.267 1_455 S
C105 O106 1.228 . S
O106 C105 1.228 . S
O107 Zn96 2.024 . S
O107 C98 1.058 . S
C108 O109 1.228 . S
C108 O110 1.267 1_655 S
O109 C108 1.228 . S
O110 Zn97 1.977 . S
O110 C108 1.267 1_455 S
O111 Zn97 1.956 1_655 S
O111 C115 1.260 1_565 S
O112 Zn96 1.969 1_655 S
O112 C115 1.258 . S
O113 Zn97 2.012 1_655 S
O113 C100 1.058 . S
C114 O103 1.260 1_565 S
C114 O104 1.258 . S
C115 O111 1.260 1_545 S
C115 O112 1.258 . S
Zn116 O122 1.969 . S
Zn116 O123 1.965 1_565 S
Zn116 O127 2.024 1_565 S
Zn116 O132 1.969 . S
Zn117 O124 1.969 . S
Zn117 O130 1.969 . S
Zn117 O131 1.965 1_545 S
Zn117 O133 2.024 1_545 S
C118 O119 1.229 1_545 S
C118 O127 1.058 . S
O119 C118 1.229 1_565 S
C120 O121 1.229 1_565 S
C120 O133 1.058 . S
O121 C120 1.229 1_545 S
O122 Zn116 1.969 . S
O122 C125 1.267 . S
O123 Zn116 1.965 1_545 S
O123 C134 1.260 . S
O124 Zn117 1.969 . S
O124 C134 1.258 . S
C125 O122 1.267 . S
C125 O126 1.228 1_565 S
O126 C125 1.228 1_545 S
O127 Zn116 2.024 1_545 S
O127 C118 1.058 . S
C128 O129 1.228 1_545 S
C128 O130 1.267 . S
O129 C128 1.228 1_565 S
O130 Zn117 1.969 . S
O130 C128 1.267 . S
O131 Zn117 1.965 1_565 S
O131 C135 1.260 . S
O132 Zn116 1.969 . S
O132 C135 1.258 . S
O133 Zn117 2.024 1_565 S
O133 C120 1.058 . S
C134 O123 1.260 . S
C134 O124 1.258 . S
C135 O131 1.260 . S
C135 O132 1.258 . S
Zn136 O142 1.969 . S
Zn136 O143 1.965 . S
Zn136 O147 2.024 . S
Zn136 O152 1.969 . S
Zn137 O144 1.969 . S
Zn137 O150 1.969 . S
Zn137 O151 1.965 . S
Zn137 O153 2.024 . S
C138 O139 1.229 . S
C138 O147 1.058 . S
O139 C138 1.229 . S
C140 O141 1.229 . S
C140 O153 1.058 . S
O141 C140 1.229 . S
O142 Zn136 1.969 . S
O142 C145 1.267 . S
O143 Zn136 1.965 . S
O143 C154 1.260 . S
O144 Zn137 1.969 . S
O144 C154 1.258 . S
C145 O142 1.267 . S
C145 O146 1.228 . S
O146 C145 1.228 . S
O147 Zn136 2.024 . S
O147 C138 1.058 . S
C148 O149 1.228 . S
C148 O150 1.267 . S
O149 C148 1.228 . S
O150 Zn137 1.969 . S
O150 C148 1.267 . S
O151 Zn137 1.965 . S
O151 C155 1.260 . S
O152 Zn136 1.969 . S
O152 C155 1.258 . S
O153 Zn137 2.024 . S
O153 C140 1.058 . S
C154 O143 1.260 . S
C154 O144 1.258 . S
C155 O151 1.260 . S
C155 O152 1.258 . S
Zn156 O162 1.969 . S
Zn156 O163 1.965 . S
Zn156 O167 2.024 . S
Zn156 O172 1.969 . S
Zn157 O164 1.969 . S
Zn157 O170 1.969 . S
Zn157 O171 1.965 . S
Zn157 O173 2.024 . S
C158 O159 1.229 . S
C158 O167 1.058 . S
O159 C158 1.229 . S
C160 O161 1.229 . S
C160 O173 1.058 . S
O161 C160 1.229 . S
O162 Zn156 1.969 . S
O162 C165 1.267 . S
O163 Zn156 1.965 . S
O163 C174 1.260 . S
O164 Zn157 1.969 . S
O164 C174 1.258 1_655 S
C165 O162 1.267 . S
C165 O166 1.228 . S
O166 C165 1.228 . S
O167 Zn156 2.024 . S
O167 C158 1.058 . S
C168 O169 1.228 . S
C168 O170 1.267 . S
O169 C168 1.228 . S
O170 Zn157 1.969 . S
O170 C168 1.267 . S
O171 Zn157 1.965 . S
O171 C175 1.260 1_655 S
O172 Zn156 1.969 . S
O172 C175 1.258 . S
O173 Zn157 2.024 . S
O173 C160 1.058 . S
C174 O163 1.260 . S
C174 O164 1.258 1_455 S
C175 O171 1.260 1_455 S
C175 O172 1.258 . S
C176 C177 1.391 . S
C176 C178 1.394 . S
C176 H192 0.931 . S
C177 C176 1.391 . S
C177 C181 1.376 1_545 S
C178 C176 1.394 . S
C178 C179 1.369 . S
C178 C182 1.531 . S
C179 C178 1.369 . S
C179 C180 1.410 1_545 S
C179 C187 1.503 . S
C180 C179 1.410 1_565 S
C180 C181 1.392 . S
C180 C183 1.511 . S
C181 C177 1.376 1_565 S
C181 C180 1.392 . S
C181 H193 0.929 . S
C182 C178 1.531 . S
C182 H194 0.960 . S
C182 H195 0.962 . S
C182 H196 0.960 . S
C183 C180 1.511 . S
C183 H197 0.961 . S
C183 H198 0.961 . S
C183 H199 0.961 1_565 S
C184 C185 1.385 . S
C184 C186 1.363 . S
C184 H200 0.931 . S
C185 C184 1.385 . S
C185 C189 1.392 1_565 S
C186 C184 1.363 . S
C186 C187 1.370 1_565 S
C186 C190 1.524 . S
C187 C179 1.503 . S
C187 C186 1.370 1_545 S
C187 C188 1.403 . S
C188 C187 1.403 . S
C188 C189 1.404 . S
C188 C191 1.539 . S
C189 C185 1.392 1_545 S
C189 C188 1.404 . S
C189 H201 0.930 . S
C190 C186 1.524 . S
C190 H202 0.956 . S
C190 H203 0.961 . S
C190 H204 0.961 . S
C191 C188 1.539 . S
C191 H205 0.958 . S
C191 H206 0.961 . S
C191 H207 0.960 . S
H192 C176 0.931 . S
H193 C181 0.929 . S
H194 C182 0.960 . S
H195 C182 0.962 . S
H196 C182 0.960 . S
H197 C183 0.961 . S
H198 C183 0.961 . S
H199 C183 0.961 1_545 S
H200 C184 0.931 . S
H201 C189 0.930 . S
H202 C190 0.956 . S
H203 C190 0.961 . S
H204 C190 0.961 . S
H205 C191 0.958 . S
H206 C191 0.961 . S
H207 C191 0.960 . S
C208 C209 1.391 . S
C208 C210 1.394 . S
C208 H224 0.931 . S
C209 C208 1.391 . S
C209 C213 1.376 . S
C210 C208 1.394 . S
C210 C211 1.369 . S
C210 C214 1.531 . S
C211 C210 1.369 . S
C211 C212 1.410 . S
C211 C219 1.503 . S
C212 C211 1.410 . S
C212 C213 1.392 . S
C212 C215 1.511 . S
C213 C209 1.376 . S
C213 C212 1.392 . S
C213 H225 0.929 . S
C214 C210 1.531 . S
C214 H226 0.960 . S
C214 H227 0.962 . S
C214 H228 0.960 . S
C215 C212 1.511 . S
C215 H229 0.961 . S
C215 H230 0.961 . S
C215 H231 0.961 . S
C216 C217 1.370 . S
C216 C218 1.363 . S
C216 H232 0.931 . S
C217 C216 1.370 . S
C217 C221 1.408 . S
C218 C216 1.363 . S
C218 C219 1.370 . S
C218 C222 1.524 . S
C219 C211 1.503 . S
C219 C218 1.370 . S
C219 C220 1.403 . S
C220 C219 1.403 . S
C220 C221 1.404 . S
C220 C223 1.539 . S
C221 C217 1.408 . S
C221 C220 1.404 . S
C221 H233 0.930 . S
C222 C218 1.524 . S
C222 H234 0.956 . S
C222 H235 0.961 . S
C222 H236 0.961 . S
C223 C220 1.539 . S
C223 H237 0.958 . S
C223 H238 0.961 . S
C223 H239 0.960 . S
H224 C208 0.931 . S
H225 C213 0.929 . S
H226 C214 0.960 . S
H227 C214 0.962 . S
H228 C214 0.960 . S
H229 C215 0.961 . S
H230 C215 0.961 . S
H231 C215 0.961 . S
H232 C216 0.931 . S
H233 C221 0.930 . S
H234 C222 0.956 . S
H235 C222 0.961 . S
H236 C222 0.961 . S
H237 C223 0.958 . S
H238 C223 0.961 . S
H239 C223 0.960 . S
C240 C241 1.391 . S
C240 C242 1.394 . S
C240 H256 0.931 . S
C241 C240 1.391 . S
C241 C245 1.376 . S
C242 C240 1.394 . S
C242 C243 1.369 . S
C242 C246 1.531 . S
C243 C242 1.369 . S
C243 C244 1.410 . S
C243 C251 1.503 . S
C244 C243 1.410 . S
C244 C245 1.392 . S
C244 C247 1.511 . S
C245 C241 1.376 . S
C245 C244 1.392 . S
C245 H257 0.929 . S
C246 C242 1.531 . S
C246 H258 0.960 . S
C246 H259 0.962 . S
C246 H260 0.960 . S
C247 C244 1.511 . S
C247 H261 0.961 . S
C247 H262 0.961 . S
C247 H263 0.961 . S
C248 C249 1.370 . S
C248 C250 1.363 . S
C248 H264 0.931 . S
C249 C248 1.370 . S
C249 C253 1.408 . S
C250 C248 1.363 . S
C250 C251 1.370 . S
C250 C254 1.524 . S
C251 C243 1.503 . S
C251 C250 1.370 . S
C251 C252 1.403 . S
C252 C251 1.403 . S
C252 C253 1.404 . S
C252 C255 1.539 . S
C253 C249 1.408 . S
C253 C252 1.404 . S
C253 H265 0.930 . S
C254 C250 1.524 . S
C254 H266 0.956 . S
C254 H267 0.961 . S
C254 H268 0.961 . S
C255 C252 1.539 . S
C255 H269 0.958 . S
C255 H270 0.961 . S
C255 H271 0.960 . S
H256 C240 0.931 . S
H257 C245 0.929 . S
H258 C246 0.960 . S
H259 C246 0.962 . S
H260 C246 0.960 . S
H261 C247 0.961 . S
H262 C247 0.961 . S
H263 C247 0.961 . S
H264 C248 0.931 . S
H265 C253 0.930 . S
H266 C254 0.956 . S
H267 C254 0.961 . S
H268 C254 0.961 . S
H269 C255 0.958 . S
H270 C255 0.961 . S
H271 C255 0.960 . S
C272 C273 1.391 . S
C272 C274 1.394 . S
C272 H288 0.931 . S
C273 C272 1.391 . S
C273 C277 1.376 . S
C274 C272 1.394 . S
C274 C275 1.369 . S
C274 C278 1.531 1_455 S
C275 C274 1.369 . S
C275 C276 1.410 . S
C275 C283 1.503 . S
C276 C275 1.410 . S
C276 C277 1.392 . S
C276 C279 1.511 . S
C277 C273 1.376 . S
C277 C276 1.392 . S
C277 H289 0.929 . S
C278 C274 1.531 1_655 S
C278 H290 0.960 . S
C278 H291 0.962 . S
C278 H292 0.960 . S
C279 C276 1.511 . S
C279 H293 0.961 . S
C279 H294 0.961 . S
C279 H295 0.961 . S
C280 C281 1.370 . S
C280 C282 1.363 . S
C280 H296 0.931 . S
C281 C280 1.370 . S
C281 C285 1.408 . S
C282 C280 1.363 . S
C282 C283 1.370 . S
C282 C286 1.524 . S
C283 C275 1.503 . S
C283 C282 1.370 . S
C283 C284 1.403 . S
C284 C283 1.403 . S
C284 C285 1.404 . S
C284 C287 1.539 . S
C285 C281 1.408 . S
C285 C284 1.404 . S
C285 H297 0.930 . S
C286 C282 1.524 . S
C286 H298 0.987 . S
C286 H299 0.961 . S
C286 H300 0.961 . S
C287 C284 1.539 . S
C287 H301 0.958 . S
C287 H302 0.961 . S
C287 H303 0.960 . S
H288 C272 0.931 . S
H289 C277 0.929 . S
H290 C278 0.960 . S
H291 C278 0.962 . S
H292 C278 0.960 . S
H293 C279 0.961 . S
H294 C279 0.961 . S
H295 C279 0.961 . S
H296 C280 0.931 . S
H297 C285 0.930 . S
H298 C286 0.987 . S
H299 C286 0.961 . S
H300 C286 0.961 . S
H301 C287 0.958 . S
H302 C287 0.961 . S
H303 C287 0.960 . S
C304 C305 1.391 . S
C304 C306 1.394 . S
C304 H320 0.931 . S
C305 C304 1.391 . S
C305 C309 1.376 . S
C306 C304 1.394 . S
C306 C307 1.369 . S
C306 C310 1.531 . S
C307 C306 1.369 . S
C307 C308 1.410 . S
C307 C315 1.503 . S
C308 C307 1.410 . S
C308 C309 1.392 . S
C308 C311 1.511 . S
C309 C305 1.376 . S
C309 C308 1.392 . S
C309 H321 0.929 1_546 S
C310 C306 1.531 . S
C310 H322 0.960 . S
C310 H323 0.962 1_545 S
C310 H324 0.960 . S
C311 C308 1.511 . S
C311 H325 0.961 1_546 S
C311 H326 0.961 1_545 S
C311 H327 0.961 . S
C312 C313 1.370 1_565 S
C312 C314 1.363 . S
C312 H328 0.931 . S
C313 C312 1.370 1_545 S
C313 C317 1.408 . S
C314 C312 1.363 . S
C314 C315 1.370 1_565 S
C314 C318 1.524 . S
C315 C307 1.503 . S
C315 C314 1.370 1_545 S
C315 C316 1.403 . S
C316 C315 1.403 . S
C316 C317 1.404 . S
C316 C319 1.539 . S
C317 C313 1.408 . S
C317 C316 1.404 . S
C317 H329 0.930 . S
C318 C314 1.524 . S
C318 H330 0.956 . S
C318 H331 0.961 . S
C318 H332 0.961 . S
C319 C316 1.539 . S
C319 H333 0.958 . S
C319 H334 0.961 . S
C319 H335 0.960 . S
H320 C304 0.931 . S
H321 C309 0.929 1_564 S
H322 C310 0.960 . S
H323 C310 0.962 1_565 S
H324 C310 0.960 . S
H325 C311 0.961 1_564 S
H326 C311 0.961 1_565 S
H327 C311 0.961 . S
H328 C312 0.931 . S
H329 C317 0.930 . S
H330 C318 0.956 . S
H331 C318 0.961 . S
H332 C318 0.961 . S
H333 C319 0.958 . S
H334 C319 0.961 . S
H335 C319 0.960 . S
C336 C337 1.391 . S
C336 C338 1.394 . S
C336 H352 0.931 . S
C337 C336 1.391 . S
C337 C341 1.376 . S
C338 C336 1.394 . S
C338 C339 1.369 . S
C338 C342 1.531 . S
C339 C338 1.369 . S
C339 C340 1.410 . S
C339 C347 1.503 . S
C340 C339 1.410 . S
C340 C341 1.392 . S
C340 C343 1.511 . S
C341 C337 1.376 . S
C341 C340 1.392 . S
C341 H353 0.929 1_556 S
C342 C338 1.531 . S
C342 H354 0.960 . S
C342 H355 0.962 . S
C342 H356 0.960 . S
C343 C340 1.511 . S
C343 H357 0.961 . S
C343 H358 0.961 . S
C343 H359 0.961 . S
C344 C345 1.370 . S
C344 C346 1.363 . S
C344 H360 0.931 . S
C345 C344 1.370 . S
C345 C349 1.408 . S
C346 C344 1.363 . S
C346 C347 1.370 . S
C346 C350 1.524 . S
C347 C339 1.503 . S
C347 C346 1.370 . S
C347 C348 1.403 . S
C348 C347 1.403 . S
C348 C349 1.404 . S
C348 C351 1.539 . S
C349 C345 1.408 . S
C349 C348 1.404 . S
C349 H361 0.930 . S
C350 C346 1.524 . S
C350 H362 0.956 . S
C350 H363 0.961 . S
C350 H364 0.961 . S
C351 C348 1.539 . S
C351 H365 0.958 . S
C351 H366 0.961 . S
C351 H367 0.960 . S
H352 C336 0.931 . S
H353 C341 0.929 1_554 S
H354 C342 0.960 . S
H355 C342 0.962 . S
H356 C342 0.960 . S
H357 C343 0.961 . S
H358 C343 0.961 . S
H359 C343 0.961 . S
H360 C344 0.931 . S
H361 C349 0.930 . S
H362 C350 0.956 . S
H363 C350 0.961 . S
H364 C350 0.961 . S
H365 C351 0.958 . S
H366 C351 0.961 . S
H367 C351 0.960 . S
C368 C369 1.391 . S
C368 C370 1.394 . S
C368 H384 0.931 . S
C369 C368 1.391 . S
C369 C373 1.376 . S
C370 C368 1.394 . S
C370 C371 1.369 . S
C370 C374 1.531 . S
C371 C370 1.369 . S
C371 C372 1.410 . S
C371 C379 1.503 . S
C372 C371 1.410 . S
C372 C373 1.392 . S
C372 C375 1.511 . S
C373 C369 1.376 . S
C373 C372 1.392 . S
C373 H385 0.929 1_556 S
C374 C370 1.531 . S
C374 H386 0.960 . S
C374 H387 0.962 . S
C374 H388 0.960 . S
C375 C372 1.511 . S
C375 H389 0.961 1_556 S
C375 H390 0.961 . S
C375 H391 0.961 . S
C376 C377 1.370 . S
C376 C378 1.363 . S
C376 H392 0.931 . S
C377 C376 1.370 . S
C377 C381 1.408 . S
C378 C376 1.363 . S
C378 C379 1.370 . S
C378 C382 1.524 . S
C379 C371 1.503 . S
C379 C378 1.370 . S
C379 C380 1.403 . S
C380 C379 1.403 . S
C380 C381 1.404 . S
C380 C383 1.539 . S
C381 C377 1.408 . S
C381 C380 1.404 . S
C381 H393 0.930 . S
C382 C378 1.524 . S
C382 H394 0.956 . S
C382 H395 0.961 . S
C382 H396 0.961 . S
C383 C380 1.539 . S
C383 H397 0.958 . S
C383 H398 0.961 . S
C383 H399 0.960 . S
H384 C368 0.931 . S
H385 C373 0.929 1_554 S
H386 C374 0.960 . S
H387 C374 0.962 . S
H388 C374 0.960 . S
H389 C375 0.961 1_554 S
H390 C375 0.961 . S
H391 C375 0.961 . S
H392 C376 0.931 . S
H393 C381 0.930 . S
H394 C382 0.956 . S
H395 C382 0.961 . S
H396 C382 0.961 . S
H397 C383 0.958 . S
H398 C383 0.961 . S
H399 C383 0.960 . S
C400 C401 1.391 . S
C400 C402 1.394 . S
C400 H416 0.931 . S
C401 C400 1.391 . S
C401 C405 1.376 . S
C402 C400 1.394 . S
C402 C403 1.369 . S
C402 C406 1.531 . S
C403 C402 1.369 . S
C403 C404 1.410 . S
C403 C411 1.503 . S
C404 C403 1.410 . S
C404 C405 1.392 . S
C404 C407 1.511 . S
C405 C401 1.376 . S
C405 C404 1.392 . S
C405 H417 0.929 1_556 S
C406 C402 1.531 . S
C406 H418 0.960 . S
C406 H419 0.962 . S
C406 H420 0.960 . S
C407 C404 1.511 . S
C407 H421 0.961 1_556 S
C407 H422 0.961 . S
C407 H423 0.930 1_655 S
C408 C409 1.370 . S
C408 C410 1.363 . S
C408 H424 0.931 . S
C409 C408 1.370 . S
C409 C413 1.408 1_655 S
C410 C408 1.363 . S
C410 C411 1.370 . S
C410 C414 1.524 . S
C411 C403 1.503 . S
C411 C410 1.370 . S
C411 C412 1.403 1_655 S
C412 C411 1.403 1_455 S
C412 C413 1.404 . S
C412 C415 1.539 . S
C413 C409 1.408 1_455 S
C413 C412 1.404 . S
C413 H425 0.930 . S
C414 C410 1.524 . S
C414 H426 0.956 . S
C414 H427 0.961 . S
C414 H428 0.961 . S
C415 C412 1.539 . S
C415 H429 0.958 . S
C415 H430 0.961 . S
C415 H431 0.960 . S
H416 C400 0.931 . S
H417 C405 0.929 1_554 S
H418 C406 0.960 . S
H419 C406 0.962 . S
H420 C406 0.960 . S
H421 C407 0.961 1_554 S
H422 C407 0.961 . S
H423 C407 0.930 1_455 S
H424 C408 0.931 . S
H425 C413 0.930 . S
H426 C414 0.956 . S
H427 C414 0.961 . S
H428 C414 0.961 . S
H429 C415 0.958 . S
H430 C415 0.961 . S
H431 C415 0.960 . S
C432 C433 1.391 . S
C432 C434 1.394 . S
C432 H448 0.931 . S
C433 C432 1.391 . S
C433 C437 1.376 . S
C434 C432 1.394 . S
C434 C435 1.369 . S
C434 C438 1.531 . S
C435 C434 1.369 . S
C435 C436 1.410 . S
C435 C443 1.503 . S
C436 C435 1.410 . S
C436 C437 1.392 . S
C436 C439 1.511 1_455 S
C437 C433 1.376 . S
C437 C436 1.392 . S
C437 H449 0.929 . S
C438 C434 1.531 . S
C438 H450 0.960 . S
C438 H451 0.962 . S
C438 H452 0.960 . S
C439 C436 1.511 1_655 S
C439 H453 0.961 . S
C439 H454 0.961 . S
C439 H455 0.961 . S
C440 C441 1.370 . S
C440 C442 1.363 . S
C440 H456 0.931 . S
C441 C440 1.370 . S
C441 C445 1.408 . S
C442 C440 1.363 . S
C442 C443 1.370 . S
C442 C446 1.524 . S
C443 C435 1.503 . S
C443 C442 1.370 . S
C443 C444 1.403 . S
C444 C443 1.403 . S
C444 C445 1.404 . S
C444 C447 1.539 . S
C445 C441 1.408 . S
C445 C444 1.404 . S
C445 H457 0.930 . S
C446 C442 1.524 . S
C446 H458 0.956 . S
C446 H459 0.961 . S
C446 H460 0.961 . S
C447 C444 1.539 . S
C447 H461 0.958 . S
C447 H462 0.961 . S
C447 H463 0.960 . S
H448 C432 0.931 . S
H449 C437 0.929 . S
H450 C438 0.960 . S
H451 C438 0.962 . S
H452 C438 0.960 . S
H453 C439 0.961 . S
H454 C439 0.961 . S
H455 C439 0.961 . S
H456 C440 0.931 . S
H457 C445 0.930 . S
H458 C446 0.956 . S
H459 C446 0.961 . S
H460 C446 0.961 . S
H461 C447 0.958 . S
H462 C447 0.961 . S
H463 C447 0.960 . S
C464 C465 1.391 . S
C464 C466 1.394 . S
C464 H480 0.931 . S
C465 C464 1.391 . S
C465 C469 1.376 1_545 S
C466 C464 1.394 . S
C466 C467 1.369 . S
C466 C470 1.531 . S
C467 C466 1.369 . S
C467 C468 1.410 1_545 S
C467 C475 1.503 1_545 S
C468 C467 1.410 1_565 S
C468 C469 1.392 . S
C468 C471 1.511 . S
C469 C465 1.376 1_565 S
C469 C468 1.392 . S
C469 H481 0.929 . S
C470 C466 1.531 . S
C470 H482 0.960 . S
C470 H483 0.962 . S
C470 H484 0.960 . S
C471 C468 1.511 . S
C471 H485 0.961 . S
C471 H486 0.961 . S
C471 H487 0.961 . S
C472 C473 1.370 . S
C472 C474 1.363 . S
C472 H488 0.931 . S
C473 C472 1.370 . S
C473 C477 1.408 1_565 S
C474 C472 1.363 . S
C474 C475 1.370 . S
C474 C478 1.524 . S
C475 C467 1.503 1_565 S
C475 C474 1.370 . S
C475 C476 1.403 1_565 S
C476 C475 1.403 1_545 S
C476 C477 1.404 . S
C476 C479 1.539 . S
C477 C473 1.408 1_545 S
C477 C476 1.404 . S
C477 H489 0.930 . S
C478 C474 1.524 . S
C478 H490 0.956 . S
C478 H491 0.961 . S
C478 H492 0.961 . S
C479 C476 1.539 . S
C479 H493 0.958 . S
C479 H494 0.961 . S
C479 H495 0.960 . S
H480 C464 0.931 . S
H481 C469 0.929 . S
H482 C470 0.960 . S
H483 C470 0.962 . S
H484 C470 0.960 . S
H485 C471 0.961 . S
H486 C471 0.961 . S
H487 C471 0.961 . S
H488 C472 0.931 . S
H489 C477 0.930 . S
H490 C478 0.956 . S
H491 C478 0.961 . S
H492 C478 0.961 . S
H493 C479 0.958 . S
H494 C479 0.961 . S
H495 C479 0.960 . S
C496 C497 1.391 . S
C496 C498 1.394 . S
C496 H512 0.931 . S
C497 C496 1.391 . S
C497 C501 1.376 . S
C498 C496 1.394 . S
C498 C499 1.369 . S
C498 C502 1.531 . S
C499 C498 1.369 . S
C499 C500 1.410 . S
C499 C507 1.503 . S
C500 C499 1.410 . S
C500 C501 1.392 . S
C500 C503 1.511 . S
C501 C497 1.376 . S
C501 C500 1.392 . S
C501 H513 0.929 . S
C502 C498 1.531 . S
C502 H514 0.960 . S
C502 H515 0.962 . S
C502 H516 0.960 . S
C503 C500 1.511 . S
C503 H517 0.961 . S
C503 H518 0.961 . S
C503 H519 0.961 . S
C504 C505 1.370 . S
C504 C506 1.363 . S
C504 H520 0.931 . S
C505 C504 1.370 . S
C505 C509 1.408 . S
C506 C504 1.363 . S
C506 C507 1.370 . S
C506 C510 1.524 . S
C507 C499 1.503 . S
C507 C506 1.370 . S
C507 C508 1.403 . S
C508 C507 1.403 . S
C508 C509 1.404 . S
C508 C511 1.539 . S
C509 C505 1.408 . S
C509 C508 1.404 . S
C509 H521 0.930 . S
C510 C506 1.524 . S
C510 H522 0.956 . S
C510 H523 0.961 . S
C510 H524 0.961 . S
C511 C508 1.539 . S
C511 H525 0.958 . S
C511 H526 0.961 . S
C511 H527 0.960 . S
H512 C496 0.931 . S
H513 C501 0.929 . S
H514 C502 0.960 . S
H515 C502 0.962 . S
H516 C502 0.960 . S
H517 C503 0.961 . S
H518 C503 0.961 . S
H519 C503 0.961 . S
H520 C504 0.931 . S
H521 C509 0.930 . S
H522 C510 0.956 . S
H523 C510 0.961 . S
H524 C510 0.961 . S
H525 C511 0.958 . S
H526 C511 0.961 . S
H527 C511 0.960 . S
C528 C529 1.391 . S
C528 C530 1.394 . S
C528 H544 0.931 . S
C529 C528 1.391 . S
C529 C533 1.376 . S
C530 C528 1.394 . S
C530 C531 1.369 . S
C530 C534 1.531 . S
C531 C530 1.369 . S
C531 C532 1.410 . S
C531 C539 1.503 . S
C532 C531 1.410 . S
C532 C533 1.392 . S
C532 C535 1.511 . S
C533 C529 1.376 . S
C533 C532 1.392 . S
C533 H545 0.929 . S
C534 C530 1.531 . S
C534 H546 0.960 . S
C534 H547 0.962 . S
C534 H548 0.960 . S
C535 C532 1.511 . S
C535 H549 0.961 . S
C535 H550 0.961 . S
C535 H551 0.961 . S
C536 C537 1.370 . S
C536 C538 1.363 . S
C536 H552 0.931 . S
C537 C536 1.370 . S
C537 C541 1.408 . S
C538 C536 1.363 . S
C538 C539 1.370 . S
C538 C542 1.524 . S
C539 C531 1.503 . S
C539 C538 1.370 . S
C539 C540 1.403 . S
C540 C539 1.403 . S
C540 C541 1.404 . S
C540 C543 1.539 . S
C541 C537 1.408 . S
C541 C540 1.404 . S
C541 H553 0.930 . S
C542 C538 1.524 . S
C542 H554 0.956 . S
C542 H555 0.961 . S
C542 H556 0.961 . S
C543 C540 1.539 . S
C543 H557 0.958 . S
C543 H558 0.961 . S
C543 H559 0.960 . S
H544 C528 0.931 . S
H545 C533 0.929 . S
H546 C534 0.960 . S
H547 C534 0.962 . S
H548 C534 0.960 . S
H549 C535 0.961 . S
H550 C535 0.961 . S
H551 C535 0.961 . S
H552 C536 0.931 . S
H553 C541 0.930 . S
H554 C542 0.956 . S
H555 C542 0.961 . S
H556 C542 0.961 . S
H557 C543 0.958 . S
H558 C543 0.961 . S
H559 C543 0.960 . S
C560 C561 1.391 . S
C560 C562 1.394 . S
C560 H576 0.931 . S
C561 C560 1.391 . S
C561 C565 1.376 . S
C562 C560 1.394 . S
C562 C563 1.369 . S
C562 C566 1.531 1_655 S
C563 C562 1.369 . S
C563 C564 1.410 . S
C563 C571 1.503 . S
C564 C563 1.410 . S
C564 C565 1.392 . S
C564 C567 1.511 . S
C565 C561 1.376 . S
C565 C564 1.392 . S
C565 H577 0.929 . S
C566 C562 1.531 1_455 S
C566 H578 0.960 . S
C566 H579 0.962 . S
C566 H580 0.960 . S
C567 C564 1.511 . S
C567 H581 0.961 . S
C567 H582 0.961 . S
C567 H583 0.961 . S
C568 C569 1.370 . S
C568 C570 1.363 . S
C568 H584 0.931 . S
C569 C568 1.370 . S
C569 C573 1.409 1_655 S
C570 C568 1.363 . S
C570 C571 1.370 . S
C570 C574 1.524 . S
C571 C563 1.503 . S
C571 C570 1.370 . S
C571 C572 1.403 . S
C572 C571 1.403 . S
C572 C573 1.404 1_655 S
C572 C575 1.539 . S
C573 C569 1.409 1_455 S
C573 C572 1.404 1_455 S
C573 H585 0.930 . S
C574 C570 1.524 . S
C574 H586 0.956 . S
C574 H587 0.961 . S
C574 H588 0.961 . S
C575 C572 1.539 . S
C575 H589 0.958 1_655 S
C575 H590 0.961 . S
C575 H591 0.960 . S
H576 C560 0.931 . S
H577 C565 0.929 . S
H578 C566 0.960 . S
H579 C566 0.962 . S
H580 C566 0.960 . S
H581 C567 0.961 . S
H582 C567 0.961 . S
H583 C567 0.961 . S
H584 C568 0.931 . S
H585 C573 0.930 . S
H586 C574 0.956 . S
H587 C574 0.961 . S
H588 C574 0.961 . S
H589 C575 0.958 1_455 S
H590 C575 0.961 . S
H591 C575 0.960 . S
C592 C593 1.391 . S
C592 C594 1.394 . S
C592 H608 0.931 . S
C593 C592 1.391 . S
C593 C597 1.376 1_565 S
C594 C592 1.394 . S
C594 C595 1.384 . S
C594 C598 1.531 . S
C595 C594 1.384 . S
C595 C596 1.397 1_565 S
C595 C603 1.499 1_565 S
C596 C595 1.397 1_545 S
C596 C597 1.392 . S
C596 C599 1.511 1_556 S
C597 C593 1.376 1_545 S
C597 C596 1.392 . S
C597 H609 0.929 1_556 S
C598 C594 1.531 . S
C598 H610 0.960 . S
C598 H611 0.962 . S
C598 H612 0.960 . S
C599 C596 1.511 1_554 S
C599 H613 0.961 . S
C599 H614 0.961 1_554 S
C599 H615 0.961 . S
C600 C601 1.370 . S
C600 C602 1.363 . S
C600 H616 0.931 . S
C601 C600 1.370 . S
C601 C605 1.408 1_545 S
C602 C600 1.363 . S
C602 C603 1.370 . S
C602 C606 1.524 . S
C603 C595 1.499 1_545 S
C603 C602 1.370 . S
C603 C604 1.403 1_545 S
C604 C603 1.403 1_565 S
C604 C605 1.404 . S
C604 C607 1.539 . S
C605 C601 1.408 1_565 S
C605 C604 1.404 . S
C605 H617 0.930 . S
C606 C602 1.524 . S
C606 H618 0.956 . S
C606 H619 0.961 . S
C606 H620 0.961 . S
C607 C604 1.539 . S
C607 H621 0.958 . S
C607 H622 0.961 . S
C607 H623 0.960 . S
H608 C592 0.931 . S
H609 C597 0.929 1_554 S
H610 C598 0.960 . S
H611 C598 0.962 . S
H612 C598 0.960 . S
H613 C599 0.961 . S
H614 C599 0.961 1_556 S
H615 C599 0.961 . S
H616 C600 0.931 . S
H617 C605 0.930 . S
H618 C606 0.956 . S
H619 C606 0.961 . S
H620 C606 0.961 . S
H621 C607 0.958 . S
H622 C607 0.961 . S
H623 C607 0.960 . S
C624 C625 1.391 . S
C624 C626 1.394 . S
C624 H640 0.931 . S
C625 C624 1.391 . S
C625 C629 1.376 . S
C626 C624 1.394 . S
C626 C627 1.369 . S
C626 C630 1.531 . S
C627 C626 1.369 . S
C627 C628 1.410 . S
C627 C635 1.503 . S
C628 C627 1.410 . S
C628 C629 1.392 . S
C628 C631 1.511 . S
C629 C625 1.376 . S
C629 C628 1.392 . S
C629 H641 0.929 . S
C630 C626 1.531 . S
C630 H642 0.960 . S
C630 H643 0.962 . S
C630 H644 0.960 . S
C631 C628 1.511 . S
C631 H645 0.961 . S
C631 H646 0.961 . S
C631 H647 0.961 . S
C632 C633 1.370 . S
C632 C634 1.363 . S
C632 H648 0.931 . S
C633 C632 1.370 . S
C633 C637 1.408 . S
C634 C632 1.363 . S
C634 C635 1.370 . S
C634 C638 1.524 . S
C635 C627 1.503 . S
C635 C634 1.370 . S
C635 C636 1.403 . S
C636 C635 1.403 . S
C636 C637 1.404 . S
C636 C639 1.539 . S
C637 C633 1.408 . S
C637 C636 1.404 . S
C637 H649 0.930 . S
C638 C634 1.524 . S
C638 H650 0.956 . S
C638 H651 0.961 . S
C638 H652 0.961 . S
C639 C636 1.539 . S
C639 H653 0.958 . S
C639 H654 0.961 . S
C639 H655 0.960 . S
H640 C624 0.931 . S
H641 C629 0.929 . S
H642 C630 0.960 . S
H643 C630 0.962 . S
H644 C630 0.960 . S
H645 C631 0.961 . S
H646 C631 0.961 . S
H647 C631 0.961 . S
H648 C632 0.931 . S
H649 C637 0.930 . S
H650 C638 0.956 . S
H651 C638 0.961 . S
H652 C638 0.961 . S
H653 C639 0.958 . S
H654 C639 0.961 . S
H655 C639 0.960 . S
C656 C657 1.391 . S
C656 C658 1.394 . S
C656 H672 0.931 . S
C657 C656 1.391 . S
C657 C661 1.376 . S
C658 C656 1.394 . S
C658 C659 1.369 . S
C658 C662 1.531 . S
C659 C658 1.369 . S
C659 C660 1.410 . S
C659 C667 1.503 . S
C660 C659 1.410 . S
C660 C661 1.392 . S
C660 C663 1.504 1_556 S
C661 C657 1.376 . S
C661 C660 1.392 . S
C661 H673 0.929 1_556 S
C662 C658 1.531 . S
C662 H674 0.960 . S
C662 H675 0.962 . S
C662 H676 0.960 . S
C663 C660 1.504 1_554 S
C663 H677 0.974 . S
C663 H678 0.957 1_554 S
C663 H679 0.958 1_554 S
C664 C665 1.370 . S
C664 C666 1.363 . S
C664 H680 0.931 . S
C665 C664 1.370 . S
C665 C669 1.408 . S
C666 C664 1.363 . S
C666 C667 1.370 . S
C666 C670 1.524 . S
C667 C659 1.503 . S
C667 C666 1.370 . S
C667 C668 1.403 . S
C668 C667 1.403 . S
C668 C669 1.404 . S
C668 C671 1.539 . S
C669 C665 1.408 . S
C669 C668 1.404 . S
C669 H681 0.930 . S
C670 C666 1.524 . S
C670 H682 0.956 . S
C670 H683 0.961 . S
C670 H684 0.961 . S
C671 C668 1.539 . S
C671 H685 0.958 . S
C671 H686 0.961 . S
C671 H687 0.960 . S
H672 C656 0.931 . S
H673 C661 0.929 1_554 S
H674 C662 0.960 . S
H675 C662 0.962 . S
H676 C662 0.960 . S
H677 C663 0.974 . S
H678 C663 0.957 1_556 S
H679 C663 0.958 1_556 S
H680 C664 0.931 . S
H681 C669 0.930 . S
H682 C670 0.956 . S
H683 C670 0.961 . S
H684 C670 0.961 . S
H685 C671 0.958 . S
H686 C671 0.961 . S
H687 C671 0.960 . S
C688 C689 1.391 . S
C688 C690 1.394 . S
C688 H704 0.931 . S
C689 C688 1.391 . S
C689 C693 1.376 1_554 S
C690 C688 1.394 . S
C690 C691 1.369 1_554 S
C690 C694 1.531 . S
C691 C690 1.369 1_556 S
C691 C692 1.410 . S
C691 C699 1.503 . S
C692 C691 1.410 . S
C692 C693 1.392 . S
C692 C695 1.511 . S
C693 C689 1.376 1_556 S
C693 C692 1.392 . S
C693 H705 0.929 . S
C694 C690 1.531 . S
C694 H706 0.960 . S
C694 H707 0.962 . S
C694 H708 0.960 . S
C695 C692 1.511 . S
C695 H709 0.961 . S
C695 H710 0.961 . S
C695 H711 0.961 1_455 S
C696 C697 1.370 . S
C696 C698 1.363 . S
C696 H712 0.931 . S
C697 C696 1.370 . S
C697 C701 1.408 . S
C698 C696 1.363 . S
C698 C699 1.370 . S
C698 C702 1.524 . S
C699 C691 1.503 . S
C699 C698 1.370 . S
C699 C700 1.403 . S
C700 C699 1.403 . S
C700 C701 1.404 . S
C700 C703 1.539 1_455 S
C701 C697 1.408 . S
C701 C700 1.404 . S
C701 H713 0.930 1_455 S
C702 C698 1.524 . S
C702 H714 0.956 . S
C702 H715 0.961 . S
C702 H716 0.961 . S
C703 C700 1.539 1_655 S
C703 H717 0.958 . S
C703 H718 0.961 . S
C703 H719 0.960 . S
H704 C688 0.931 . S
H705 C693 0.929 . S
H706 C694 0.960 . S
H707 C694 0.962 . S
H708 C694 0.960 . S
H709 C695 0.961 . S
H710 C695 0.961 . S
H711 C695 0.961 1_655 S
H712 C696 0.931 . S
H713 C701 0.930 1_655 S
H714 C702 0.956 . S
H715 C702 0.961 . S
H716 C702 0.961 . S
H717 C703 0.958 . S
H718 C703 0.961 . S
H719 C703 0.960 . S
C720 C721 1.393 1_554 S
C720 C722 1.394 1_554 S
C720 H736 0.931 . S
C721 C720 1.393 1_556 S
C721 C725 1.374 1_565 S
C722 C720 1.394 1_556 S
C722 C723 1.355 1_565 S
C722 C726 1.531 . S
C723 C722 1.355 1_545 S
C723 C724 1.423 . S
C723 C731 1.505 . S
C724 C723 1.423 . S
C724 C725 1.392 . S
C724 C727 1.511 . S
C725 C721 1.374 1_545 S
C725 C724 1.392 . S
C725 H737 0.929 . S
C726 C722 1.531 . S
C726 H738 0.960 . S
C726 H739 0.962 1_556 S
C726 H740 0.960 . S
C727 C724 1.511 . S
C727 H741 0.961 . S
C727 H742 0.961 . S
C727 H743 0.961 . S
C728 C729 1.370 . S
C728 C730 1.363 . S
C728 H744 0.931 . S
C729 C728 1.370 . S
C729 C733 1.408 1_545 S
C730 C728 1.363 . S
C730 C731 1.370 . S
C730 C734 1.524 . S
C731 C723 1.505 . S
C731 C730 1.370 . S
C731 C732 1.403 1_545 S
C732 C731 1.403 1_565 S
C732 C733 1.404 . S
C732 C735 1.539 . S
C733 C729 1.408 1_565 S
C733 C732 1.404 . S
C733 H745 0.930 . S
C734 C730 1.524 . S
C734 H746 0.956 1_556 S
C734 H747 0.961 . S
C734 H748 0.961 1_556 S
C735 C732 1.539 . S
C735 H749 0.958 . S
C735 H750 0.961 . S
C735 H751 0.960 . S
H736 C720 0.931 . S
H737 C725 0.929 . S
H738 C726 0.960 . S
H739 C726 0.962 1_554 S
H740 C726 0.960 . S
H741 C727 0.961 . S
H742 C727 0.961 . S
H743 C727 0.961 . S
H744 C728 0.931 . S
H745 C733 0.930 . S
H746 C734 0.956 1_554 S
H747 C734 0.961 . S
H748 C734 0.961 1_554 S
H749 C735 0.958 . S
H750 C735 0.961 . S
H751 C735 0.960 . S
C752 C753 1.381 1_556 S
C752 C754 1.394 . S
C752 H768 0.931 . S
C753 C752 1.381 1_554 S
C753 C757 1.378 . S
C754 C752 1.394 . S
C754 C755 1.369 . S
C754 C758 1.531 . S
C755 C754 1.369 . S
C755 C756 1.410 . S
C755 C763 1.503 . S
C756 C755 1.410 . S
C756 C757 1.392 1_556 S
C756 C759 1.511 . S
C757 C753 1.378 . S
C757 C756 1.392 1_554 S
C757 H769 0.929 . S
C758 C754 1.531 . S
C758 H770 0.960 . S
C758 H771 0.962 . S
C758 H772 0.960 . S
C759 C756 1.511 . S
C759 H773 0.961 1_556 S
C759 H774 0.961 . S
C759 H775 0.961 . S
C760 C761 1.370 . S
C760 C762 1.363 . S
C760 H776 0.931 . S
C761 C760 1.370 . S
C761 C765 1.408 . S
C762 C760 1.363 . S
C762 C763 1.370 . S
C762 C766 1.524 . S
C763 C755 1.503 . S
C763 C762 1.370 . S
C763 C764 1.403 . S
C764 C763 1.403 . S
C764 C765 1.404 . S
C764 C767 1.539 . S
C765 C761 1.408 . S
C765 C764 1.404 . S
C765 H777 0.930 . S
C766 C762 1.524 . S
C766 H778 0.956 . S
C766 H779 0.961 1_556 S
C766 H780 0.961 1_556 S
C767 C764 1.539 . S
C767 H781 0.958 . S
C767 H782 0.961 . S
C767 H783 0.960 . S
H768 C752 0.931 . S
H769 C757 0.929 . S
H770 C758 0.960 . S
H771 C758 0.962 . S
H772 C758 0.960 . S
H773 C759 0.961 1_554 S
H774 C759 0.961 . S
H775 C759 0.961 . S
H776 C760 0.931 . S
H777 C765 0.930 . S
H778 C766 0.956 . S
H779 C766 0.961 1_554 S
H780 C766 0.961 1_554 S
H781 C767 0.958 . S
H782 C767 0.961 . S
H783 C767 0.960 . S
C784 C785 1.391 1_556 S
C784 C786 1.394 . S
C784 H800 0.931 . S
C785 C784 1.391 1_554 S
C785 C789 1.376 . S
C786 C784 1.394 . S
C786 C787 1.369 . S
C786 C790 1.531 . S
C787 C786 1.369 . S
C787 C788 1.410 1_556 S
C787 C795 1.503 . S
C788 C787 1.410 1_554 S
C788 C789 1.392 . S
C788 C791 1.511 . S
C789 C785 1.376 . S
C789 C788 1.392 . S
C789 H801 0.929 . S
C790 C786 1.531 . S
C790 H802 0.960 . S
C790 H803 0.962 . S
C790 H804 0.960 . S
C791 C788 1.511 . S
C791 H805 0.961 . S
C791 H806 0.961 . S
C791 H807 0.961 . S
C792 C793 1.370 . S
C792 C794 1.363 . S
C792 H808 0.931 . S
C793 C792 1.370 . S
C793 C797 1.408 . S
C794 C792 1.363 . S
C794 C795 1.370 . S
C794 C798 1.524 . S
C795 C787 1.503 . S
C795 C794 1.370 . S
C795 C796 1.403 . S
C796 C795 1.403 . S
C796 C797 1.404 . S
C796 C799 1.539 . S
C797 C793 1.408 . S
C797 C796 1.404 . S
C797 H809 0.930 . S
C798 C794 1.524 . S
C798 H810 0.956 . S
C798 H811 0.961 . S
C798 H812 0.961 . S
C799 C796 1.539 . S
C799 H813 0.958 . S
C799 H814 0.961 . S
C799 H815 0.960 1_556 S
H800 C784 0.931 . S
H801 C789 0.929 . S
H802 C790 0.960 . S
H803 C790 0.962 . S
H804 C790 0.960 . S
H805 C791 0.961 . S
H806 C791 0.961 . S
H807 C791 0.961 . S
H808 C792 0.931 . S
H809 C797 0.930 . S
H810 C798 0.956 . S
H811 C798 0.961 . S
H812 C798 0.961 . S
H813 C799 0.958 . S
H814 C799 0.961 . S
H815 C799 0.960 1_554 S
C816 C817 1.391 . S
C816 C818 1.394 . S
C816 H832 0.931 . S
C817 C816 1.391 . S
C817 C821 1.376 . S
C818 C816 1.394 . S
C818 C819 1.369 . S
C818 C822 1.531 . S
C819 C818 1.369 . S
C819 C820 1.410 . S
C819 C827 1.503 . S
C820 C819 1.410 . S
C820 C821 1.392 . S
C820 C823 1.511 . S
C821 C817 1.376 . S
C821 C820 1.392 . S
C821 H833 0.929 . S
C822 C818 1.531 . S
C822 H834 0.960 . S
C822 H835 0.962 . S
C822 H836 0.960 . S
C823 C820 1.511 . S
C823 H837 0.961 . S
C823 H838 0.961 . S
C823 H839 0.961 1_655 S
C824 C825 1.370 . S
C824 C826 1.363 . S
C824 H840 0.931 . S
C825 C824 1.370 . S
C825 C829 1.408 1_655 S
C826 C824 1.363 . S
C826 C827 1.370 . S
C826 C830 1.524 . S
C827 C819 1.503 . S
C827 C826 1.370 . S
C827 C828 1.367 1_655 S
C828 C827 1.367 1_455 S
C828 C829 1.408 . S
C828 C831 1.573 . S
C829 C825 1.408 1_455 S
C829 C828 1.408 . S
C829 H841 0.930 . S
C830 C826 1.524 . S
C830 H842 0.956 . S
C830 H843 0.961 . S
C830 H844 0.961 . S
C831 C828 1.573 . S
C831 H845 0.958 . S
C831 H846 0.961 . S
C831 H847 0.960 . S
H832 C816 0.931 . S
H833 C821 0.929 . S
H834 C822 0.960 . S
H835 C822 0.962 . S
H836 C822 0.960 . S
H837 C823 0.961 . S
H838 C823 0.961 . S
H839 C823 0.961 1_455 S
H840 C824 0.931 . S
H841 C829 0.930 . S
H842 C830 0.956 . S
H843 C830 0.961 . S
H844 C830 0.961 . S
H845 C831 0.958 . S
H846 C831 0.961 . S
H847 C831 0.960 . S
C848 C849 1.391 1_545 S
C848 C850 1.394 . S
C848 H864 0.931 . S
C849 C848 1.391 1_565 S
C849 C853 1.376 . S
C850 C848 1.394 . S
C850 C851 1.367 1_545 S
C850 C854 1.532 . S
C851 C850 1.367 1_565 S
C851 C852 1.410 . S
C851 C859 1.503 . S
C852 C851 1.410 . S
C852 C853 1.392 . S
C852 C855 1.511 . S
C853 C849 1.376 . S
C853 C852 1.392 . S
C853 H865 0.929 . S
C854 C850 1.532 . S
C854 H866 0.960 1_545 S
C854 H867 0.962 . S
C854 H868 0.960 . S
C855 C852 1.511 . S
C855 H869 0.961 . S
C855 H870 0.961 . S
C855 H871 0.961 . S
C856 C857 1.370 1_545 S
C856 C858 1.363 . S
C856 H872 0.931 . S
C857 C856 1.370 1_565 S
C857 C861 1.408 . S
C858 C856 1.363 . S
C858 C859 1.370 1_545 S
C858 C862 1.524 . S
C859 C851 1.503 . S
C859 C858 1.370 1_565 S
C859 C860 1.403 . S
C860 C859 1.403 . S
C860 C861 1.404 . S
C860 C863 1.539 . S
C861 C857 1.408 . S
C861 C860 1.404 . S
C861 H873 0.930 . S
C862 C858 1.524 . S
C862 H874 0.956 . S
C862 H875 0.961 . S
C862 H876 0.961 . S
C863 C860 1.539 . S
C863 H877 0.958 . S
C863 H878 0.961 . S
C863 H879 0.960 . S
H864 C848 0.931 . S
H865 C853 0.929 . S
H866 C854 0.960 1_565 S
H867 C854 0.962 . S
H868 C854 0.960 . S
H869 C855 0.961 . S
H870 C855 0.961 . S
H871 C855 0.961 . S
H872 C856 0.931 . S
H873 C861 0.930 . S
H874 C862 0.956 . S
H875 C862 0.961 . S
H876 C862 0.961 . S
H877 C863 0.958 . S
H878 C863 0.961 . S
H879 C863 0.960 . S
C880 C881 1.391 . S
C880 C882 1.394 . S
C880 H896 0.931 . S
C881 C880 1.391 . S
C881 C885 1.376 . S
C882 C880 1.394 . S
C882 C883 1.369 . S
C882 C886 1.531 . S
C883 C882 1.369 . S
C883 C884 1.410 . S
C883 C891 1.503 . S
C884 C883 1.410 . S
C884 C885 1.392 . S
C884 C887 1.511 . S
C885 C881 1.376 . S
C885 C884 1.392 . S
C885 H897 0.929 . S
C886 C882 1.531 . S
C886 H898 0.960 . S
C886 H899 0.962 . S
C886 H900 0.960 . S
C887 C884 1.511 . S
C887 H901 0.961 . S
C887 H902 0.961 . S
C887 H903 0.961 . S
C888 C889 1.370 . S
C888 C890 1.363 . S
C888 H904 0.931 . S
C889 C888 1.370 . S
C889 C893 1.408 . S
C890 C888 1.363 . S
C890 C891 1.370 . S
C890 C894 1.524 . S
C891 C883 1.503 . S
C891 C890 1.370 . S
C891 C892 1.403 . S
C892 C891 1.403 . S
C892 C893 1.404 . S
C892 C895 1.539 . S
C893 C889 1.408 . S
C893 C892 1.404 . S
C893 H905 0.930 . S
C894 C890 1.524 . S
C894 H906 0.956 . S
C894 H907 0.961 . S
C894 H908 0.961 . S
C895 C892 1.539 . S
C895 H909 0.958 . S
C895 H910 0.961 . S
C895 H911 0.960 . S
H896 C880 0.931 . S
H897 C885 0.929 . S
H898 C886 0.960 . S
H899 C886 0.962 . S
H900 C886 0.960 . S
H901 C887 0.961 . S
H902 C887 0.961 . S
H903 C887 0.961 . S
H904 C888 0.931 . S
H905 C893 0.930 . S
H906 C894 0.956 . S
H907 C894 0.961 . S
H908 C894 0.961 . S
H909 C895 0.958 . S
H910 C895 0.961 . S
H911 C895 0.960 . S
C912 C913 1.391 . S
C912 C914 1.394 . S
C912 H928 0.931 . S
C913 C912 1.391 . S
C913 C917 1.376 . S
C914 C912 1.394 . S
C914 C915 1.369 . S
C914 C918 1.531 . S
C915 C914 1.369 . S
C915 C916 1.410 . S
C915 C923 1.503 . S
C916 C915 1.410 . S
C916 C917 1.392 . S
C916 C919 1.511 . S
C917 C913 1.376 . S
C917 C916 1.392 . S
C917 H929 0.929 . S
C918 C914 1.531 . S
C918 H930 0.960 . S
C918 H931 0.962 . S
C918 H932 0.960 . S
C919 C916 1.511 . S
C919 H933 0.961 . S
C919 H934 0.961 . S
C919 H935 0.961 . S
C920 C921 1.370 . S
C920 C922 1.363 . S
C920 H936 0.931 . S
C921 C920 1.370 . S
C921 C925 1.408 . S
C922 C920 1.363 . S
C922 C923 1.370 . S
C922 C926 1.524 . S
C923 C915 1.503 . S
C923 C922 1.370 . S
C923 C924 1.403 . S
C924 C923 1.403 . S
C924 C925 1.404 . S
C924 C927 1.539 . S
C925 C921 1.408 . S
C925 C924 1.404 . S
C925 H937 0.930 . S
C926 C922 1.524 . S
C926 H938 0.956 . S
C926 H939 0.961 . S
C926 H940 0.961 . S
C927 C924 1.539 . S
C927 H941 0.958 . S
C927 H942 0.961 . S
C927 H943 0.960 . S
H928 C912 0.931 . S
H929 C917 0.929 . S
H930 C918 0.960 . S
H931 C918 0.962 . S
H932 C918 0.960 . S
H933 C919 0.961 . S
H934 C919 0.961 . S
H935 C919 0.961 . S
H936 C920 0.931 . S
H937 C925 0.930 . S
H938 C926 0.956 . S
H939 C926 0.961 . S
H940 C926 0.961 . S
H941 C927 0.958 . S
H942 C927 0.961 . S
H943 C927 0.960 . S
C177 C76 1.473 1_545 S
C185 C114 1.481 . S
C217 C134 1.549 . S
C209 C88 1.549 . S
C249 C154 1.473 . S
C241 C52 1.481 . S
C281 C174 1.568 . S
C273 C64 1.494 . S
C313 C115 1.470 . S
C305 C28 1.466 1_545 S
C337 C40 1.503 . S
C345 C135 1.566 . S
C369 C4 1.444 . S
C377 C155 1.477 . S
C401 C16 1.522 . S
C409 C175 1.551 1_655 S
C441 C105 0.830 . S
C433 C69 0.900 . S
C473 C125 0.801 . S
C465 C81 0.861 . S
C505 C145 0.833 . S
C497 C93 0.862 . S
C529 C57 0.863 . S
C537 C165 0.841 . S
C561 C21 0.888 . S
C569 C108 0.834 . S
C601 C128 0.824 . S
C593 C33 0.821 1_565 S
C633 C148 0.822 . S
C625 C45 0.912 . S
C657 C9 0.865 . S
C665 C168 0.810 . S
C689 C66 1.538 . S
C697 C98 1.491 . S
C721 C78 1.537 1_566 S
C729 C118 1.434 . S
C761 C138 1.490 . S
C753 C90 1.584 . S
C793 C158 1.466 . S
C785 C54 1.470 . S
C817 C18 1.537 . S
C825 C100 1.494 . S
C857 C120 1.466 . S
C849 C30 1.494 1_565 S
C889 C140 1.494 . S
C881 C42 1.516 . S
C913 C6 1.537 . S
C921 C160 1.431 . S
