# Generated by pormake.
# Topology anh, (6,3)-cn, num edge types: 1
# Building blocks:
#     Node 0, Type 0, BuildingBlock: BETGAK_clean_sbu_0, # of connection points: 6
#     Node 1, Type 0, BuildingBlock: BETGAK_clean_sbu_0, # of connection points: 6
#     Node 2, Type 0, BuildingBlock: BETGAK_clean_sbu_0, # of connection points: 6
#     Node 3, Type 1, BuildingBlock: PAMTOO_clean_linker_0, # of connection points: 3
#     Node 4, Type 1, BuildingBlock: PAMTOO_clean_linker_0, # of connection points: 3
#     Node 5, Type 1, BuildingBlock: PAMTOO_clean_linker_0, # of connection points: 3
#     Node 6, Type 1, BuildingBlock: PAMTOO_clean_linker_0, # of connection points: 3
#     Node 7, Type 1, BuildingBlock: PAMTOO_clean_linker_0, # of connection points: 3
#     Node 8, Type 1, BuildingBlock: PAMTOO_clean_linker_0, # of connection points: 3
#     Edge 9, Type (0, 1), BuildingBlock: TEMPAE_clean_linker_10, # of connection points: 2
#     Edge 10, Type (0, 1), BuildingBlock: TEMPAE_clean_linker_10, # of connection points: 2
#     Edge 11, Type (0, 1), BuildingBlock: TEMPAE_clean_linker_10, # of connection points: 2
#     Edge 12, Type (0, 1), BuildingBlock: TEMPAE_clean_linker_10, # of connection points: 2
#     Edge 13, Type (0, 1), BuildingBlock: TEMPAE_clean_linker_10, # of connection points: 2
#     Edge 14, Type (0, 1), BuildingBlock: TEMPAE_clean_linker_10, # of connection points: 2
#     Edge 15, Type (0, 1), BuildingBlock: TEMPAE_clean_linker_10, # of connection points: 2
#     Edge 16, Type (0, 1), BuildingBlock: TEMPAE_clean_linker_10, # of connection points: 2
#     Edge 17, Type (0, 1), BuildingBlock: TEMPAE_clean_linker_10, # of connection points: 2
#     Edge 18, Type (0, 1), BuildingBlock: TEMPAE_clean_linker_10, # of connection points: 2
#     Edge 19, Type (0, 1), BuildingBlock: TEMPAE_clean_linker_10, # of connection points: 2
#     Edge 20, Type (0, 1), BuildingBlock: TEMPAE_clean_linker_10, # of connection points: 2
#     Edge 21, Type (0, 1), BuildingBlock: TEMPAE_clean_linker_10, # of connection points: 2
#     Edge 22, Type (0, 1), BuildingBlock: TEMPAE_clean_linker_10, # of connection points: 2
#     Edge 23, Type (0, 1), BuildingBlock: TEMPAE_clean_linker_10, # of connection points: 2
#     Edge 24, Type (0, 1), BuildingBlock: TEMPAE_clean_linker_10, # of connection points: 2
#     Edge 25, Type (0, 1), BuildingBlock: TEMPAE_clean_linker_10, # of connection points: 2
#     Edge 26, Type (0, 1), BuildingBlock: TEMPAE_clean_linker_10, # of connection points: 2
# Relax obj value: 0.166
# Max RMSD: 0.181
# Mean RMSD: 0.125
data_MOF--net-anh--node1-BETGAK_clean_sbu_0--node2-PAMTOO_clean_linker_0--edge1-TEMPAE_clean_linker_10
_symmetry_space_group_name_H-M    P1
_symmetry_Int_Tables_number       1
_symmetry_cell_setting            triclinic
loop_
_symmetry_equiv_pos_as_xyz
'x, y, z'
_cell_length_a     30.303773
_cell_length_b     37.829029
_cell_length_c     49.624739
_cell_angle_alpha  88.667651
_cell_angle_beta   91.327557
_cell_angle_gamma 129.87548
loop_
_atom_site_label
_atom_site_type_symbol
_atom_site_fract_x
_atom_site_fract_y
_atom_site_fract_z
_atom_type_partial_charge
La0 La 0.28825 0.5983 0.14721 0.0
La1 La 0.21039 0.61567 0.16627 0.0
C2 C 0.35304 0.59115 0.12188 0.0
C3 C 0.34781 0.55073 0.11622 0.0
C4 C 0.30681 0.50898 0.12985 0.0
C5 C 0.30207 0.47051 0.12492 0.0
C6 C 0.33827 0.47311 0.10626 0.0
C7 C 0.37862 0.51486 0.09227 0.0
C8 C 0.38329 0.5534 0.09722 0.0
C9 C 0.2749 0.59345 0.19955 0.0
C10 C 0.33584 0.70151 0.15592 0.0
C11 C 0.13188 0.60565 0.19088 0.0
C12 C 1.07038 0.56616 0.18751 0.0
C13 C 1.05076 0.54346 0.16268 0.0
C14 C 0.99457 0.50275 0.15964 0.0
C15 C 0.95649 0.48338 0.18141 0.0
C16 C 0.97601 0.50611 0.20635 0.0
C17 C 1.03281 0.54715 0.20942 0.0
C18 C 0.2179 0.61478 0.11341 0.0
C19 C 0.16178 0.51156 0.15865 0.0
O20 O 0.31425 0.59159 0.11017 0.0
O21 O 0.36069 0.60252 0.1473 0.0
O22 O 0.28115 0.56771 0.18644 0.0
O23 O 0.27978 0.62222 0.1837 0.0
O24 O 0.33972 0.67363 0.14244 0.0
O25 O 0.29062 0.68507 0.1709 0.0
O26 O 0.15704 0.63271 0.1697 0.0
O27 O 0.16189 0.59495 0.20154 0.0
O28 O 0.20974 0.63998 0.1257 0.0
O29 O 0.2167 0.58923 0.13047 0.0
O30 O 0.15569 0.54027 0.16873 0.0
O31 O 0.20937 0.52678 0.1463 0.0
H32 H 0.27904 0.5063 0.14463 0.0
H33 H 0.27116 0.43913 0.13631 0.0
H34 H 0.40669 0.51775 0.07757 0.0
H35 H 0.41481 0.58531 0.08639 0.0
H36 H 1.07929 0.55678 0.1456 0.0
H37 H 0.98075 0.4868 0.14 0.0
H38 H 0.94763 0.49191 0.2235 0.0
H39 H 1.04764 0.56355 0.22892 0.0
La40 La 0.72459 0.06371 0.48357 0.0
La41 La 0.64717 0.08429 0.46678 0.0
C42 C 0.76752 0.0334 0.50878 0.0
C43 C 0.75649 0.98945 0.51073 0.0
C44 C 0.74547 0.9638 0.48771 0.0
C45 C 0.73614 0.92256 0.49018 0.0
C46 C 0.73691 0.90604 0.5157 0.0
C47 C 0.74689 0.9314 0.53869 0.0
C48 C 0.75676 0.97279 0.53619 0.0
C49 C 0.71985 0.07413 0.43145 0.0
C50 C 0.59035 0.98099 0.47206 0.0
C51 C 0.60118 0.11507 0.44562 0.0
C52 C 0.60962 0.15778 0.44883 0.0
C53 C 0.56291 0.15469 0.45634 0.0
C54 C 0.57071 0.19439 0.46199 0.0
C55 C 0.62546 0.23816 0.4601 0.0
C56 C 0.67195 0.24126 0.45181 0.0
C57 C 0.66412 0.20148 0.44627 0.0
C58 C 0.65649 0.07681 0.51926 0.0
C59 C 0.78258 0.16675 0.47494 0.0
O60 O 0.78715 0.05595 0.48583 0.0
O61 O 0.72769 0.03318 0.51865 0.0
O62 O 0.76361 0.08245 0.44385 0.0
O63 O 0.67822 0.05466 0.44734 0.0
O64 O 0.63851 0.99508 0.48428 0.0
O65 O 0.58709 1.01054 0.45953 0.0
O66 O 0.58069 0.08768 0.46669 0.0
O67 O 0.64263 0.11872 0.43441 0.0
O68 O 0.6104 0.06476 0.50736 0.0
O69 O 0.6958 0.09534 0.50228 0.0
O70 O 0.73352 0.15204 0.46347 0.0
O71 O 0.7865 0.13819 0.48837 0.0
H72 H 0.7443 0.97567 0.46784 0.0
H73 H 0.72803 0.90344 0.47218 0.0
H74 H 0.74827 0.91969 0.55858 0.0
H75 H 0.76495 0.992 0.55418 0.0
H76 H 0.52055 0.12136 0.45856 0.0
H77 H 0.5341 0.19062 0.46866 0.0
H78 H 0.7145 0.27444 0.44976 0.0
H79 H 0.70091 0.20496 0.44043 0.0
La80 La 0.68035 0.57049 0.84393 0.0
La81 La 0.59402 0.46742 0.84297 0.0
C82 C 0.74027 0.65523 0.83302 0.0
C83 C 0.73232 0.6892 0.8277 0.0
C84 C 0.77946 0.73611 0.83041 0.0
C85 C 0.77369 0.76926 0.82448 0.0
C86 C 0.72044 0.75603 0.81584 0.0
C87 C 0.67298 0.70876 0.81351 0.0
C88 C 0.67898 0.67565 0.81928 0.0
C89 C 0.65255 0.52877 0.89119 0.0
C90 C 0.54416 0.51861 0.84409 0.0
C91 C 0.53747 0.38252 0.85185 0.0
C92 C 0.54724 0.34946 0.84825 0.0
C93 C 0.50348 0.30657 0.8368 0.0
C94 C 0.51231 0.27526 0.83212 0.0
C95 C 0.56515 0.28618 0.83888 0.0
C96 C 0.60885 0.32913 0.85059 0.0
C97 C 0.60001 0.3605 0.85521 0.0
C98 C 0.62187 0.50872 0.79557 0.0
C99 C 0.73061 0.51957 0.84438 0.0
O100 O 0.73013 0.63857 0.8576 0.0
O101 O 0.71926 0.6233 0.81485 0.0
O102 O 0.70391 0.56613 0.88539 0.0
O103 O 0.6194 0.51794 0.87155 0.0
O104 O 0.59726 0.55669 0.83827 0.0
O105 O 0.53403 0.47975 0.85054 0.0
O106 O 0.5328 0.39926 0.82966 0.0
O107 O 0.56902 0.41423 0.87011 0.0
O108 O 0.57096 0.47137 0.80158 0.0
O109 O 0.65539 0.51969 0.81511 0.0
O110 O 0.67694 0.48094 0.84836 0.0
O111 O 0.74182 0.55908 0.83909 0.0
H112 H 0.82106 0.74717 0.83674 0.0
H113 H 0.81134 0.8053 0.82607 0.0
H114 H 0.63119 0.69731 0.80724 0.0
H115 H 0.64222 0.63958 0.81685 0.0
H116 H 0.46261 0.29751 0.83115 0.0
H117 H 0.47807 0.24283 0.82268 0.0
H118 H 0.6498 0.33842 0.85632 0.0
H119 H 0.63452 0.39338 0.86409 0.0
H120 H 0.83843 0.19472 0.23601 0.0
H121 H 0.69734 0.05249 0.21898 0.0
H122 H 0.80057 0.14614 0.15424 0.0
H123 H 0.66904 0.06335 0.13589 0.0
C124 C 0.66042 0.04758 0.15631 0.0
O125 O 0.71157 0.06079 0.16701 0.0
H126 H 0.64304 0.06017 0.16884 0.0
C127 C 0.81299 0.16696 0.22168 0.0
C128 C 0.8264 0.17611 0.1941 0.0
C129 C 0.76667 0.12257 0.23099 0.0
C130 C 0.73265 0.08712 0.21222 0.0
C131 C 0.74436 0.09579 0.18464 0.0
C132 C 0.79112 0.14017 0.17557 0.0
H133 H 0.70889 0.64671 0.60135 0.0
H134 H 0.70245 0.53124 0.58712 0.0
H135 H 0.71506 0.61143 0.5207 0.0
H136 H 0.64201 0.51634 0.50572 0.0
C137 C 0.65097 0.50291 0.52329 0.0
O138 O 0.70302 0.53865 0.53486 0.0
H139 H 0.61531 0.48792 0.53785 0.0
C140 C 0.71055 0.62544 0.5879 0.0
C141 C 0.7145 0.63446 0.56007 0.0
C142 C 0.70635 0.58842 0.59829 0.0
C143 C 0.7052 0.55986 0.58001 0.0
C144 C 0.70742 0.56784 0.55218 0.0
C145 C 0.71275 0.60534 0.54226 0.0
H146 H 1.06607 0.54448 0.91787 0.0
H147 H 0.20901 0.54886 0.90459 0.0
H148 H 1.10325 0.52941 0.83751 0.0
H149 H 0.16616 0.48185 0.83091 0.0
C150 C 0.19157 0.49969 0.84956 0.0
O151 O 0.19529 0.53794 0.85301 0.0
H152 H 0.16748 0.47453 0.86644 0.0
C153 C 1.09186 0.54276 0.90413 0.0
C154 C 1.07829 0.53698 0.87637 0.0
C155 C 0.13882 0.54741 0.91456 0.0
C156 C 0.17259 0.54532 0.89692 0.0
C157 C 0.15966 0.53804 0.86933 0.0
C158 C 1.11222 0.5337 0.85897 0.0
H159 H 0.11433 0.47803 0.39349 0.0
H160 H 0.25686 0.62025 0.40937 0.0
H161 H 0.15761 0.52774 0.47514 0.0
H162 H 0.21309 0.63121 0.48817 0.0
C163 C 0.23566 0.64291 0.46854 0.0
O164 O 0.24519 0.61313 0.46151 0.0
H165 H 0.20745 0.64233 0.45342 0.0
C166 C 0.14111 0.50581 0.40769 0.0
C167 C 0.13 0.49693 0.43549 0.0
C168 C 0.1869 0.55007 0.39802 0.0
C169 C 0.22156 0.58592 0.41647 0.0
C170 C 0.2106 0.57802 0.44411 0.0
C171 C 0.16492 0.53363 0.45364 0.0
H172 H 0.70332 0.99091 0.71572 0.0
H173 H 0.6639 0.08003 0.73053 0.0
H174 H 0.68071 1.01483 0.79667 0.0
H175 H 0.59844 0.02882 0.80962 0.0
C176 C 0.60781 0.05082 0.79171 0.0
O177 O 0.66226 0.07135 0.78265 0.0
H178 H 0.57472 0.02804 0.776 0.0
C179 C 0.69453 1.00753 0.72944 0.0
C180 C 0.69226 0.99861 0.75727 0.0
C181 C 0.68438 0.03688 0.71925 0.0
C182 C 0.67318 0.05807 0.73759 0.0
C183 C 0.67243 0.05034 0.76533 0.0
C184 C 0.68185 0.02072 0.77513 0.0
H185 H 0.62454 0.34362 0.05426 0.0
H186 H 0.46377 0.31394 0.06563 0.0
H187 H 0.52841 0.27676 0.12732 0.0
H188 H 0.37023 0.21319 0.12483 0.0
C189 C 0.38774 0.23858 0.10796 0.0
O190 O 0.44478 0.27537 0.11329 0.0
H191 H 0.38241 0.22055 0.08917 0.0
C192 C 0.58648 0.32805 0.06623 0.0
C193 C 0.58299 0.31091 0.09231 0.0
C194 C 0.54408 0.32984 0.05655 0.0
C195 C 0.49571 0.31121 0.07237 0.0
C196 C 0.48883 0.28969 0.09711 0.0
C197 C 0.53224 0.2895 0.10701 0.0
C198 C 0.38708 0.4398 0.10181 0.0
C199 C 0.33598 0.43312 0.10267 0.0
C200 C 0.38602 0.40229 0.10079 0.0
C201 C 0.3325 0.35692 0.10066 0.0
C202 C 0.2807 0.3499 0.10061 0.0
C203 C 0.28304 0.38814 0.10165 0.0
C204 C 0.44232 0.41122 0.10086 0.0
C205 C 0.22294 0.30205 0.10016 0.0
C206 C 0.34857 0.26994 0.08053 0.0
C207 C 0.35673 0.25743 0.10577 0.0
C208 C 0.33587 0.29963 0.07846 0.0
C209 C 0.33166 0.31725 0.10224 0.0
C210 C 0.33506 0.30155 0.12776 0.0
C211 C 0.34771 0.27184 0.1292 0.0
C212 C 0.33214 0.31528 0.05088 0.0
C213 C 0.3308 0.31946 0.1536 0.0
H214 H 0.42809 0.47439 0.10295 0.0
H215 H 0.2434 0.38282 0.10193 0.0
H216 H 0.44605 0.39639 0.11945 0.0
H217 H 0.4438 0.39414 0.08345 0.0
H218 H 0.4801 0.44856 0.0999 0.0
H219 H 0.18676 0.30257 0.09824 0.0
H220 H 0.2205 0.2823 0.08315 0.0
H221 H 0.21746 0.2833 0.11901 0.0
H222 H 0.35599 0.25902 0.06241 0.0
H223 H 0.35479 0.26256 0.1487 0.0
H224 H 0.37279 0.35056 0.04675 0.0
H225 H 0.29664 0.31664 0.04986 0.0
H226 H 0.32542 0.29227 0.03479 0.0
H227 H 0.37001 0.35594 0.15624 0.0
H228 H 0.32668 0.29938 0.17151 0.0
H229 H 0.2934 0.31844 0.15282 0.0
C230 C 0.88334 0.23549 0.4883 0.0
C231 C 0.83377 0.21633 0.47254 0.0
C232 C 0.93276 0.28198 0.48509 0.0
C233 C 0.93277 0.30984 0.4655 0.0
C234 C 0.88247 0.29086 0.44992 0.0
C235 C 0.83375 0.24447 0.45362 0.0
C236 C 0.98537 0.30101 0.50224 0.0
C237 C 0.88062 0.31914 0.42866 0.0
C238 C 1.04484 0.44097 0.46534 0.0
C239 C 1.08221 0.44918 0.44514 0.0
C240 C 0.99706 0.39576 0.47291 0.0
C241 C 0.98625 0.35788 0.45989 0.0
C242 C 1.0249 0.36599 0.44016 0.0
C243 C 1.07244 0.41139 0.43317 0.0
C244 C 0.95708 0.38853 0.49418 0.0
C245 C 1.01505 0.32668 0.42575 0.0
H246 H 0.88375 0.21409 0.50303 0.0
H247 H 0.79608 0.22994 0.44107 0.0
H248 H 1.02088 0.31032 0.4893 0.0
H249 H 1.00027 0.33294 0.51232 0.0
H250 H 0.97715 0.27596 0.51787 0.0
H251 H 0.8372 0.30005 0.41937 0.0
H252 H 0.89358 0.35127 0.43753 0.0
H253 H 0.91169 0.3293 0.41253 0.0
H254 H 1.05183 0.46987 0.47462 0.0
H255 H 1.10178 0.41733 0.418 0.0
H256 H 0.94978 0.36392 0.50985 0.0
H257 H 0.91467 0.37328 0.48489 0.0
H258 H 0.97409 0.42123 0.50404 0.0
H259 H 1.01085 0.3023 0.44056 0.0
H260 H 1.05044 0.33872 0.41174 0.0
H261 H 0.97419 0.30727 0.41402 0.0
C262 C 0.68261 0.78587 0.78587 0.0
C263 C 0.71505 0.79153 0.80856 0.0
C264 C 0.67876 0.81976 0.77821 0.0
C265 C 0.70843 0.86053 0.79345 0.0
C266 C 0.74087 0.86637 0.81648 0.0
C267 C 0.7436 0.83174 0.82382 0.0
C268 C 0.64349 0.81218 0.75358 0.0
C269 C 0.77311 0.90939 0.83324 0.0
C270 C 0.74194 0.96526 0.75793 0.0
C271 C 0.69834 0.96471 0.76751 0.0
C272 C 0.74634 0.93202 0.76657 0.0
C273 C 0.7059 0.89722 0.78509 0.0
C274 C 0.66222 0.89684 0.79508 0.0
C275 C 0.65907 0.93067 0.78623 0.0
C276 C 0.79387 0.93383 0.75568 0.0
C277 C 0.61807 0.8601 0.81468 0.0
H278 H 0.66112 0.75529 0.77372 0.0
H279 H 0.76803 0.83612 0.84162 0.0
H280 H 0.61047 0.81493 0.75896 0.0
H281 H 0.67156 0.83928 0.73822 0.0
H282 H 0.62159 0.77798 0.7444 0.0
H283 H 0.79623 0.90856 0.85061 0.0
H284 H 0.80481 0.94008 0.82055 0.0
H285 H 0.74284 0.91376 0.84099 0.0
H286 H 0.77272 0.99181 0.74368 0.0
H287 H 0.62486 0.92978 0.79343 0.0
H288 H 0.77515 0.90195 0.74436 0.0
H289 H 0.81983 0.93553 0.77255 0.0
H290 H 0.82289 0.96394 0.74207 0.0
H291 H 0.59282 0.82574 0.80524 0.0
H292 H 0.5879 0.86547 0.82114 0.0
H293 H 0.63972 0.85957 0.83283 0.0
C294 C 0.88268 0.40655 0.16012 0.0
C295 C 0.89575 0.44163 0.17689 0.0
C296 C 0.82726 0.37387 0.14932 0.0
C297 C 0.78393 0.37618 0.15577 0.0
C298 C 0.79495 0.40724 0.17572 0.0
C299 C 0.851 0.43996 0.18592 0.0
C300 C 0.81743 0.33955 0.12962 0.0
C301 C 0.74916 0.40941 0.18405 0.0
C302 C 0.68911 0.36666 0.10073 0.0
C303 C 0.63562 0.32335 0.10596 0.0
C304 C 0.7381 0.38267 0.11584 0.0
C305 C 0.73355 0.35557 0.13749 0.0
C306 C 0.68075 0.31099 0.14223 0.0
C307 C 0.63234 0.29518 0.12626 0.0
C308 C 0.79437 0.42971 0.10928 0.0
C309 C 0.67524 0.28073 0.16458 0.0
H310 H 0.91673 0.40656 0.15388 0.0
H311 H 0.86048 0.46653 0.19914 0.0
H312 H 0.77574 0.32002 0.11866 0.0
H313 H 0.85267 0.35733 0.11469 0.0
H314 H 0.81871 0.31449 0.14085 0.0
H315 H 0.76054 0.42809 0.2033 0.0
H316 H 0.74403 0.42774 0.16818 0.0
H317 H 0.70711 0.37427 0.18634 0.0
H318 H 0.69263 0.38949 0.08567 0.0
H319 H 0.59166 0.2613 0.13016 0.0
H320 H 0.82907 0.42764 0.10732 0.0
H321 H 0.80677 0.45379 0.12588 0.0
H322 H 0.79179 0.44443 0.09027 0.0
H323 H 0.70738 0.27594 0.16191 0.0
H324 H 0.63164 0.24638 0.16523 0.0
H325 H 0.68458 0.29773 0.18428 0.0
C326 C 0.48717 0.91533 0.46061 0.0
C327 C 0.54005 0.93093 0.47147 0.0
C328 C 0.43891 0.86819 0.46041 0.0
C329 C 0.44353 0.83569 0.47124 0.0
C330 C 0.49688 0.85113 0.48205 0.0
C331 C 0.54441 0.89852 0.48211 0.0
C332 C 0.38279 0.8532 0.44876 0.0
C333 C 0.50371 0.8176 0.49363 0.0
C334 C 0.30433 0.71902 0.49254 0.0
C335 C 0.29184 0.6918 0.4702 0.0
C336 C 0.35416 0.76563 0.4934 0.0
C337 C 0.39231 0.78559 0.47133 0.0
C338 C 0.38024 0.75807 0.44887 0.0
C339 C 0.32998 0.71164 0.44851 0.0
C340 C 0.36525 0.7938 0.51766 0.0
C341 C 0.41979 0.77791 0.42495 0.0
H342 H 0.48321 0.94 0.45241 0.0
H343 H 0.58505 0.91012 0.49051 0.0
H344 H 0.36828 0.8289 0.432 0.0
H345 H 0.349 0.83465 0.46437 0.0
H346 H 0.38632 0.88273 0.44105 0.0
H347 H 0.54833 0.83505 0.50081 0.0
H348 H 0.47401 0.79825 0.51077 0.0
H349 H 0.49204 0.79203 0.47819 0.0
H350 H 0.27457 0.70401 0.50919 0.0
H351 H 0.3201 0.69099 0.43105 0.0
H352 H 0.36497 0.82203 0.51147 0.0
H353 H 0.4084 0.81002 0.52637 0.0
H354 H 0.3326 0.77276 0.53359 0.0
H355 H 0.42119 0.80528 0.41517 0.0
H356 H 0.40584 0.75139 0.4097 0.0
H357 H 0.46423 0.7941 0.43166 0.0
C358 C 0.53076 0.20573 0.83791 0.0
C359 C 0.57466 0.25305 0.83329 0.0
C360 C 0.53801 0.17379 0.8316 0.0
C361 C 0.59058 0.1895 0.82055 0.0
C362 C 0.63555 0.23728 0.81634 0.0
C363 C 0.62701 0.26848 0.8227 0.0
C364 C 0.48907 0.12312 0.83645 0.0
C365 C 0.6923 0.25536 0.80467 0.0
C366 C 0.62202 0.10707 0.82468 0.0
C367 C 0.60454 0.08743 0.79903 0.0
C368 C 0.61871 0.141 0.83185 0.0
C369 C 0.59773 0.15568 0.81281 0.0
C370 C 0.58163 0.13683 0.78659 0.0
C371 C 0.58561 0.1031 0.77996 0.0
C372 C 0.63685 0.16063 0.85989 0.0
C373 C 0.55925 0.15169 0.7657 0.0
H374 H 0.49057 0.19359 0.84652 0.0
H375 H 0.66092 0.30492 0.81877 0.0
H376 H 0.47534 0.10438 0.81711 0.0
H377 H 0.5035 0.10846 0.85 0.0
H378 H 0.45128 0.1166 0.84558 0.0
H379 H 0.72383 0.2936 0.80384 0.0
H380 H 0.71112 0.24288 0.81687 0.0
H381 H 0.68542 0.24213 0.78395 0.0
H382 H 0.63772 0.09547 0.8392 0.0
H383 H 0.57321 0.08846 0.75995 0.0
H384 H 0.59951 0.15242 0.87064 0.0
H385 H 0.67005 0.19872 0.85881 0.0
H386 H 0.65435 0.14687 0.87194 0.0
H387 H 0.51907 0.14331 0.77292 0.0
H388 H 0.55019 0.13468 0.74601 0.0
H389 H 0.59094 0.18955 0.76256 0.0
C390 C 0.6923 0.83018 0.53816 0.0
C391 C 0.72905 0.86321 0.51848 0.0
C392 C 0.68796 0.79131 0.54256 0.0
C393 C 0.72164 0.78559 0.52708 0.0
C394 C 0.75741 0.81804 0.50658 0.0
C395 C 0.76051 0.85643 0.50244 0.0
C396 C 0.64876 0.75715 0.56439 0.0
C397 C 0.79424 0.81328 0.4898 0.0
C398 C 0.75879 0.71719 0.56175 0.0
C399 C 0.71912 0.67385 0.54991 0.0
C400 C 0.76117 0.75418 0.55387 0.0
C401 C 0.72253 0.74755 0.53382 0.0
C402 C 0.6833 0.70415 0.52129 0.0
C403 C 0.68226 0.66779 0.52941 0.0
C404 C 0.80413 0.80008 0.56749 0.0
C405 C 0.6412 0.69572 0.49999 0.0
H406 H 0.66736 0.83507 0.55033 0.0
H407 H 0.78927 0.8821 0.48734 0.0
H408 H 0.61971 0.72171 0.55626 0.0
H409 H 0.67479 0.75784 0.5808 0.0
H410 H 0.62221 0.76469 0.57316 0.0
H411 H 0.81613 0.83936 0.47327 0.0
H412 H 0.82745 0.81735 0.50284 0.0
H413 H 0.76777 0.77844 0.4809 0.0
H414 H 0.78775 0.72201 0.5774 0.0
H415 H 0.65126 0.63417 0.52039 0.0
H416 H 0.7811 0.80862 0.57896 0.0
H417 H 0.83059 0.82774 0.55217 0.0
H418 H 0.83324 0.80022 0.5816 0.0
H419 H 0.61092 0.69915 0.50895 0.0
H420 H 0.61595 0.66092 0.49106 0.0
H421 H 0.66422 0.72191 0.48362 0.0
C422 C 0.7776 0.48731 0.86214 0.0
C423 C 0.77946 0.51867 0.84537 0.0
C424 C 0.82528 0.48865 0.86475 0.0
C425 C 0.87597 0.52133 0.84969 0.0
C426 C 0.87688 0.5516 0.83177 0.0
C427 C 0.82929 0.55041 0.83017 0.0
C428 C 0.82228 0.45637 0.8846 0.0
C429 C 0.92876 0.58608 0.81463 0.0
C430 C 1.02028 0.56359 0.87928 0.0
C431 C 1.02941 0.5357 0.86674 0.0
C432 C 0.97098 0.55903 0.87397 0.0
C433 C 0.9297 0.52696 0.85467 0.0
C434 C 0.94003 0.50052 0.84065 0.0
C435 C 0.98929 0.50487 0.84698 0.0
C436 C 0.96237 0.58786 0.88972 0.0
C437 C 0.89844 0.46697 0.81928 0.0
H438 H 0.73963 0.46284 0.87412 0.0
H439 H 0.83112 0.57448 0.8169 0.0
H440 H 0.83322 0.43701 0.87458 0.0
H441 H 0.8544 0.47661 0.901 0.0
H442 H 0.77904 0.43135 0.89371 0.0
H443 H 0.9202 0.60297 0.79931 0.0
H444 H 0.96516 0.61312 0.82762 0.0
H445 H 0.94251 0.569 0.80417 0.0
H446 H 1.05152 0.58882 0.89388 0.0
H447 H 0.99539 0.48313 0.837 0.0
H448 H 0.92103 0.56512 0.90066 0.0
H449 H 0.95996 0.60994 0.87579 0.0
H450 H 0.99756 0.61032 0.90458 0.0
H451 H 0.85698 0.43825 0.82868 0.0
H452 H 0.91502 0.45236 0.80836 0.0
H453 H 0.88947 0.48417 0.80449 0.0
C454 C 0.43536 0.77049 0.14176 0.0
C455 C 0.384 0.75209 0.15493 0.0
C456 C 0.48153 0.81822 0.14121 0.0
C457 C 0.47621 0.8484 0.154 0.0
C458 C 0.42432 0.8301 0.1671 0.0
C459 C 0.37899 0.78226 0.16747 0.0
C460 C 0.53621 0.83636 0.12712 0.0
C461 C 0.41671 0.86107 0.18084 0.0
C462 C 0.61031 0.96744 0.17562 0.0
C463 C 0.6154 0.99564 0.15486 0.0
C464 C 0.56599 0.91943 0.17529 0.0
C465 C 0.52504 0.8991 0.15394 0.0
C466 C 0.52977 0.92743 0.133 0.0
C467 C 0.57475 0.97533 0.13378 0.0
C468 C 0.56249 0.89051 0.19802 0.0
C469 C 0.48668 0.90723 0.11004 0.0
H470 H 0.4398 0.74757 0.13203 0.0
H471 H 0.33951 0.76854 0.17763 0.0
H472 H 0.54598 0.86123 0.11102 0.0
H473 H 0.57281 0.85516 0.14165 0.0
H474 H 0.53343 0.80844 0.11799 0.0
H475 H 0.37336 0.84151 0.18975 0.0
H476 H 0.44945 0.88055 0.19709 0.0
H477 H 0.42336 0.88667 0.16619 0.0
H478 H 0.64077 0.98293 0.19227 0.0
H479 H 0.57776 0.99711 0.11802 0.0
H480 H 0.56223 0.86333 0.18984 0.0
H481 H 0.5217 0.87292 0.20907 0.0
H482 H 0.59892 0.91135 0.21256 0.0
H483 H 0.48472 0.88053 0.09975 0.0
H484 H 0.49732 0.93376 0.09494 0.0
H485 H 0.44317 0.89013 0.11799 0.0
C486 C 0.59283 0.28462 0.46082 0.0
C487 C 0.63414 0.28008 0.46775 0.0
C488 C 0.59849 0.32243 0.46944 0.0
C489 C 0.6469 0.3568 0.48523 0.0
C490 C 0.68959 0.35316 0.49168 0.0
C491 C 0.68261 0.31476 0.48296 0.0
C492 C 0.55204 0.3251 0.46211 0.0
C493 C 0.74195 0.38922 0.50836 0.0
C494 C 0.67869 0.47141 0.4897 0.0
C495 C 0.65278 0.46622 0.51414 0.0
C496 C 0.67833 0.4365 0.48027 0.0
C497 C 0.65153 0.3956 0.49576 0.0
C498 C 0.62703 0.39096 0.52093 0.0
C499 C 0.62829 0.42651 0.5299 0.0
C500 C 0.70547 0.44293 0.45351 0.0
C501 C 0.59817 0.34795 0.53806 0.0
H502 H 0.55576 0.25841 0.4487 0.0
H503 H 0.71441 0.3113 0.48872 0.0
H504 H 0.53195 0.32453 0.48072 0.0
H505 H 0.57094 0.35802 0.45139 0.0
H506 H 0.51787 0.29616 0.44913 0.0
H507 H 0.77296 0.38286 0.51016 0.0
H508 H 0.76421 0.42392 0.49931 0.0
H509 H 0.72862 0.38966 0.5289 0.0
H510 H 0.69833 0.50251 0.47776 0.0
H511 H 0.60904 0.4229 0.549 0.0
H512 H 0.67205 0.41678 0.43909 0.0
H513 H 0.73739 0.43765 0.45592 0.0
H514 H 0.72722 0.47771 0.44464 0.0
H515 H 0.56069 0.31784 0.52698 0.0
H516 H 0.58308 0.35047 0.55755 0.0
H517 H 0.62831 0.3412 0.54227 0.0
C518 C 0.4387 0.47932 0.84935 0.0
C519 C 0.49538 0.51982 0.84463 0.0
C520 C 0.39227 0.47956 0.85006 0.0
C521 C 0.40198 0.52133 0.84604 0.0
C522 C 0.4591 0.56241 0.84135 0.0
C523 C 0.5048 0.56117 0.84069 0.0
C524 C 0.33249 0.43478 0.85504 0.0
C525 C 0.47204 0.60785 0.83702 0.0
C526 C 0.2704 0.50905 0.8236 0.0
C527 C 0.25067 0.51226 0.84803 0.0
C528 C 0.32038 0.5135 0.82252 0.0
C529 C 0.35212 0.52154 0.84645 0.0
C530 C 0.3338 0.52691 0.871 0.0
C531 C 0.28353 0.52219 0.87148 0.0
C532 C 0.33784 0.50766 0.79585 0.0
C533 C 0.36605 0.53585 0.89702 0.0
H534 H 0.43033 0.44705 0.85243 0.0
H535 H 0.54809 0.59282 0.83722 0.0
H536 H 0.31435 0.43762 0.87322 0.0
H537 H 0.30384 0.42735 0.83777 0.0
H538 H 0.33184 0.40524 0.85792 0.0
H539 H 0.51853 0.63676 0.8337 0.0
H540 H 0.44742 0.60573 0.81933 0.0
H541 H 0.45816 0.6157 0.85478 0.0
H542 H 0.24543 0.50131 0.80535 0.0
H543 H 0.26861 0.52455 0.89046 0.0
H544 H 0.33324 0.47609 0.79655 0.0
H545 H 0.38371 0.53718 0.79186 0.0
H546 H 0.31136 0.50483 0.7788 0.0
H547 H 0.3623 0.50542 0.90248 0.0
H548 H 0.34941 0.54295 0.91393 0.0
H549 H 0.41245 0.56556 0.89454 0.0
C550 C 1.0646 0.44545 0.17613 0.0
C551 C 1.11286 0.46132 0.16092 0.0
C552 C 1.01836 0.39823 0.17931 0.0
C553 C 1.01996 0.36578 0.16684 0.0
C554 C 1.06793 0.38147 0.15099 0.0
C555 C 0.11396 0.42908 0.14831 0.0
C556 C 0.96859 0.3831 0.19677 0.0
C557 C 1.07104 0.34797 0.13723 0.0
C558 C 0.92872 0.24787 0.20065 0.0
C559 C 0.87774 0.22319 0.18523 0.0
C560 C 0.97592 0.29373 0.19434 0.0
C561 C 0.97264 0.31556 0.17178 0.0
C562 C 0.92238 0.29032 0.15536 0.0
C563 C 0.87546 0.24442 0.16229 0.0
C564 C 1.02852 0.31935 0.21246 0.0
C565 C 0.91763 0.31231 0.13097 0.0
H566 H 1.06316 0.46992 0.18605 0.0
H567 H 0.15089 0.44097 0.13643 0.0
H568 H 0.92715 0.35796 0.18596 0.0
H569 H 0.96792 0.36554 0.21517 0.0
H570 H 0.9714 0.41251 0.20302 0.0
H571 H 1.10995 0.36568 0.12459 0.0
H572 H 1.0715 0.32637 0.15255 0.0
H573 H 1.03236 0.32442 0.12432 0.0
H574 H 0.93146 0.23145 0.21804 0.0
H575 H 0.83631 0.22572 0.15027 0.0
H576 H 1.03405 0.34794 0.22244 0.0
H577 H 1.06764 0.33489 0.20043 0.0
H578 H 1.02558 0.2967 0.2283 0.0
H579 H 0.92342 0.3431 0.13704 0.0
H580 H 0.87554 0.28826 0.12038 0.0
H581 H 0.9524 0.32424 0.11662 0.0
C582 C 0.20971 0.57196 0.07349 0.0
C583 C 0.2117 0.60701 0.08405 0.0
C584 C 0.20125 0.56261 0.0458 0.0
C585 C 0.19335 0.58833 0.02834 0.0
C586 C 0.19581 0.62406 0.03889 0.0
C587 C 0.2053 0.63315 0.06664 0.0
C588 C 0.19956 0.52458 0.03535 0.0
C589 C 0.18693 0.65188 0.02096 0.0
C590 C 0.21069 0.58856 0.95263 0.0
C591 C 0.15333 0.55599 0.94388 0.0
C592 C 0.2245 0.59884 0.9801 0.0
C593 C 0.17988 0.57647 -0.00073 0.0
C594 C 0.12202 0.54307 0.99064 0.0
C595 C 1.10952 0.53298 0.96313 0.0
C596 C 0.28677 0.63419 0.98858 0.0
C597 C 1.07316 0.5185 0.01044 0.0
H598 H 0.21371 0.55116 0.08693 0.0
H599 H 0.20661 0.66017 0.07478 0.0
H600 H 0.15585 0.49624 0.02749 0.0
H601 H 0.22982 0.53754 0.01837 0.0
H602 H 0.21085 0.51028 0.05121 0.0
H603 H 0.19174 0.67929 0.03216 0.0
H604 H 0.21825 0.66814 0.00426 0.0
H605 H 0.14327 0.62885 0.01174 0.0
H606 H 0.24483 0.60691 0.93793 0.0
H607 H 1.06518 0.5071 0.95666 0.0
H608 H 0.29767 0.61929 0.00416 0.0
H609 H 0.29409 0.66407 -0.00227 0.0
H610 H 0.31651 0.64676 0.97138 0.0
H611 H 1.07879 0.49989 0.02582 0.0
H612 H 1.03054 0.49341 0.00046 0.0
H613 H 1.07335 0.54398 0.02122 0.0
C614 C 0.71927 0.11147 0.38994 0.0
C615 C 0.71568 0.07601 0.40207 0.0
C616 C 0.72269 0.11729 0.36181 0.0
C617 C 0.72285 0.08697 0.34565 0.0
C618 C 0.71742 0.05017 0.35794 0.0
C619 C 0.71435 0.04537 0.38612 0.0
C620 C 0.72892 0.15715 0.34954 0.0
C621 C 0.71723 1.01705 0.34143 0.0
C622 C 0.69839 0.08502 0.26995 0.0
C623 C 0.75493 0.11324 0.26036 0.0
C624 C 0.68715 0.07612 0.29767 0.0
C625 C 0.73354 0.096 0.3162 0.0
C626 C 0.79064 0.12451 0.30664 0.0
C627 C 0.8006 0.13262 0.27887 0.0
C628 C 0.62572 0.04553 0.30715 0.0
C629 C 0.84132 0.14633 0.32575 0.0
H630 H 0.72198 0.13586 0.40249 0.0
H631 H 0.71222 1.01829 0.39576 0.0
H632 H 0.77236 0.18245 0.34074 0.0
H633 H 0.69716 0.14504 0.33293 0.0
H634 H 0.72298 0.17503 0.3646 0.0
H635 H 0.70784 0.98812 0.35382 0.0
H636 H 0.68477 1.00268 0.32493 0.0
H637 H 0.75981 0.03562 0.33193 0.0
H638 H 0.66292 0.07032 0.2558 0.0
H639 H 0.84432 0.15379 0.27161 0.0
H640 H 0.61984 0.0648 0.321 0.0
H641 H 0.61561 1.01566 0.31866 0.0
H642 H 0.59448 0.03249 0.29016 0.0
H643 H 0.84134 0.16789 0.34054 0.0
H644 H 0.88308 0.1682 0.31508 0.0
H645 H 0.83783 0.11918 0.3373 0.0
C646 C 0.69249 0.53957 0.75854 0.0
C647 C 0.64023 0.5259 0.76783 0.0
C648 C 0.70736 0.55115 0.73128 0.0
C649 C 0.67001 0.55071 0.7133 0.0
C650 C 0.61846 0.53903 0.72303 0.0
C651 C 0.60363 0.52581 0.75011 0.0
C652 C 0.76165 0.56184 0.72152 0.0
C653 C 0.57857 0.53985 0.70475 0.0
C654 C 0.72717 0.61521 0.64647 0.0
C655 C 0.70093 0.57895 0.628 0.0
C656 C 0.71779 0.60662 0.67428 0.0
C657 C 0.68345 0.56076 0.6841 0.0
C658 C 0.65948 0.52417 0.66584 0.0
C659 C 0.66753 0.53357 0.63804 0.0
C660 C 0.74293 0.6465 0.69304 0.0
C661 C 0.62405 0.47486 0.67562 0.0
H662 H 0.72046 0.53915 0.77232 0.0
H663 H 0.56337 0.51542 0.75749 0.0
H664 H 0.75042 0.53556 0.70672 0.0
H665 H 0.78917 0.59572 0.711 0.0
H666 H 0.78698 0.56225 0.73825 0.0
H667 H 0.54299 0.53387 0.716 0.0
H668 H 0.60288 0.57353 0.69404 0.0
H669 H 0.55964 0.51285 0.68924 0.0
H670 H 0.75457 0.65053 0.63925 0.0
H671 H 0.6462 0.50503 0.62424 0.0
H672 H 0.77019 0.64729 0.70872 0.0
H673 H 0.70772 0.64206 0.70357 0.0
H674 H 0.76924 0.68021 0.68222 0.0
H675 H 0.64722 0.47207 0.69202 0.0
H676 H 0.61394 0.45109 0.65921 0.0
H677 H 0.58302 0.46332 0.68402 0.0
C678 C 0.61677 0.05508 0.56568 0.0
C679 C 0.66303 0.07309 0.54849 0.0
C680 C 0.62186 0.05071 0.5935 0.0
C681 C 0.67403 0.06358 0.60422 0.0
C682 C 0.72092 0.0818 0.58691 0.0
C683 C 0.71519 0.0872 0.55929 0.0
C684 C 0.57138 0.03226 0.6114 0.0
C685 C 0.77674 0.09484 0.59745 0.0
C686 C 0.70346 0.08711 0.67927 0.0
C687 C 0.68381 0.04434 0.68959 0.0
C688 C 0.7006 0.09389 0.65156 0.0
C689 C 0.67914 0.05748 0.63354 0.0
C690 C 0.66085 1.0147 0.64361 0.0
C691 C 0.66255 1.00842 0.67149 0.0
C692 C 0.71957 0.13979 0.64162 0.0
C693 C 0.63878 0.9753 0.62496 0.0
H694 H 0.57654 0.04454 0.55739 0.0
H695 H 0.75138 0.10195 0.5461 0.0
H696 H 0.55619 0.99952 0.62113 0.0
H697 H 0.58475 0.05702 0.62772 0.0
H698 H 0.53484 0.02583 0.60006 0.0
H699 H 0.80854 0.10749 0.5812 0.0
H700 H 0.79592 0.12207 0.61283 0.0
H701 H 0.76849 0.06458 0.60745 0.0
H702 H 0.7211 0.11548 0.69286 0.0
H703 H 0.64612 0.97491 0.67906 0.0
H704 H 0.68329 0.13478 0.63103 0.0
H705 H 0.75473 0.15529 0.62688 0.0
H706 H 0.73484 0.16449 0.65827 0.0
H707 H 0.59834 0.96364 0.61499 0.0
H708 H 0.63024 0.94544 0.63577 0.0
H709 H 0.67042 0.98686 0.60885 0.0
C710 C 0.67659 0.51151 0.93544 0.0
C711 C 0.63545 0.50093 0.91609 0.0
C712 C 0.66049 0.48366 0.95856 0.0
C713 C 0.60206 0.44412 0.96211 0.0
C714 C 0.56036 0.43372 0.94272 0.0
C715 C 0.5775 0.46263 0.92014 0.0
C716 C 0.70603 0.49624 0.97904 0.0
C717 C 0.49781 0.39158 0.94556 0.0
C718 C 0.57172 0.3491 0.008 0.0
C719 C 0.55443 0.35649 0.03166 0.0
C720 C 0.5863 0.37684 0.98501 0.0
C721 C 0.58457 0.41333 0.98596 0.0
C722 C 0.56645 0.42055 0.00972 0.0
C723 C 0.5512 0.39181 0.03224 0.0
C724 C 0.60416 0.36743 0.95982 0.0
C725 C 0.56466 0.4594 0.01162 0.0
H726 H 0.72139 0.54126 0.93238 0.0
H727 H 0.54547 0.45472 0.90535 0.0
H728 H 0.69413 0.49949 -0.00074 0.0
H729 H 0.70897 0.46851 0.98047 0.0
H730 H 0.74907 0.5291 0.97385 0.0
H731 H 0.47083 0.38839 0.92864 0.0
H732 H 0.49347 0.36014 0.94632 0.0
H733 H 0.48076 0.39282 0.96474 0.0
H734 H 0.57406 0.32169 0.00756 0.0
H735 H 0.53865 0.39799 0.05067 0.0
H736 H 0.64926 0.3975 0.9549 0.0
H737 H 0.57692 0.36239 0.94247 0.0
H738 H 0.60077 0.33648 0.96201 0.0
H739 H 0.60843 0.49288 0.00866 0.0
H740 H 0.54846 0.45976 0.03139 0.0
H741 H 0.53669 0.45652 0.99543 0.0
C742 C 0.24892 0.55074 0.2431 0.0
C743 C 0.26147 0.58826 0.22845 0.0
C744 C 0.23575 0.54493 0.27058 0.0
C745 C 0.23528 0.57754 0.28368 0.0
C746 C 0.24767 0.61543 0.26891 0.0
C747 C 0.26076 0.62038 0.24141 0.0
C748 C 0.22259 0.50401 0.28562 0.0
C749 C 0.24744 0.65082 0.28217 0.0
C750 C 0.15453 0.53967 0.34971 0.0
C751 C 0.19932 0.55857 0.3687 0.0
C752 C 0.16567 0.54626 0.32195 0.0
C753 C 0.22296 0.57235 0.31299 0.0
C754 C 0.26843 0.59213 0.33206 0.0
C755 C 0.25606 0.58497 0.35967 0.0
C756 C 0.11609 0.52481 0.30221 0.0
C757 C 0.33007 0.62008 0.32328 0.0
H758 H 0.24924 0.52576 0.23304 0.0
H759 H 0.27059 0.64948 0.23007 0.0
H760 H 0.25406 0.51599 0.30236 0.0
H761 H 0.17931 0.4832 0.29472 0.0
H762 H 0.22396 0.48146 0.27237 0.0
H763 H 0.25673 0.67766 0.26771 0.0
H764 H 0.20499 0.63378 0.2914 0.0
H765 H 0.28008 0.66785 0.29864 0.0
H766 H 1.11068 0.51978 0.35658 0.0
H767 H 0.29079 0.5992 0.37421 0.0
H768 H 1.11317 0.49957 0.28955 0.0
H769 H 0.1234 0.55162 0.28845 0.0
H770 H 1.07432 0.50691 0.31245 0.0
H771 H 0.33496 0.59814 0.3116 0.0
H772 H 0.36064 0.63463 0.34063 0.0
H773 H 0.34205 0.64881 0.30982 0.0
loop_
_geom_bond_atom_site_label_1
_geom_bond_atom_site_label_2
_geom_bond_distance
_geom_bond_site_symmetry_2
_ccdc_geom_bond_type
La0 C2 2.928 . S
La0 O20 2.521 . S
La0 O21 2.628 . S
La0 O22 2.554 . S
La0 O23 2.757 1_455 S
La0 O24 2.470 . S
La0 O29 2.482 . S
La0 O31 2.503 1_455 S
La1 C11 2.928 . S
La1 O23 2.482 . S
La1 O25 2.503 1_655 S
La1 O26 2.521 . S
La1 O27 2.628 . S
La1 O28 2.554 . S
La1 O29 2.757 1_655 S
La1 O30 2.470 . S
C2 La0 2.928 . S
C2 C3 1.503 . S
C2 O20 1.261 . S
C2 O21 1.243 . S
C3 C2 1.503 . S
C3 C4 1.394 . S
C3 C8 1.373 . S
C4 C3 1.394 . S
C4 C5 1.380 . S
C4 H32 0.930 . S
C5 C4 1.380 . S
C5 C6 1.376 . S
C5 H33 0.930 . S
C6 C5 1.376 . S
C6 C7 1.370 . S
C7 C6 1.370 . S
C7 C8 1.396 . S
C7 H34 0.929 . S
C8 C3 1.373 . S
C8 C7 1.396 . S
C8 H35 0.929 . S
C9 O22 1.240 . S
C9 O23 1.289 1_455 S
C10 O24 1.258 . S
C10 O25 1.256 . S
C11 La1 2.928 . S
C11 C12 1.503 . S
C11 O26 1.261 . S
C11 O27 1.243 . S
C12 C11 1.503 . S
C12 C13 1.394 . S
C12 C17 1.373 . S
C13 C12 1.394 . S
C13 C14 1.380 . S
C13 H36 0.930 . S
C14 C13 1.380 . S
C14 C15 1.376 . S
C14 H37 0.930 . S
C15 C14 1.376 . S
C15 C16 1.370 . S
C16 C15 1.370 . S
C16 C17 1.396 . S
C16 H38 0.929 . S
C17 C12 1.373 . S
C17 C16 1.396 . S
C17 H39 0.929 . S
C18 O28 1.240 1_455 S
C18 O29 1.289 . S
C19 O30 1.258 . S
C19 O31 1.256 . S
O20 La0 2.521 . S
O20 C2 1.261 . S
O21 La0 2.628 . S
O21 C2 1.243 . S
O22 La0 2.554 . S
O22 C9 1.240 . S
O23 La0 2.757 1_655 S
O23 La1 2.482 . S
O23 C9 1.289 1_655 S
O24 La0 2.470 . S
O24 C10 1.258 . S
O25 La1 2.503 1_455 S
O25 C10 1.256 . S
O26 La1 2.521 . S
O26 C11 1.261 . S
O27 La1 2.628 . S
O27 C11 1.243 . S
O28 La1 2.554 . S
O28 C18 1.240 1_655 S
O29 La0 2.482 . S
O29 La1 2.757 1_455 S
O29 C18 1.289 . S
O30 La1 2.470 . S
O30 C19 1.258 . S
O31 La0 2.503 1_655 S
O31 C19 1.256 . S
H32 C4 0.930 . S
H33 C5 0.930 . S
H34 C7 0.929 . S
H35 C8 0.929 . S
H36 C13 0.930 . S
H37 C14 0.930 . S
H38 C16 0.929 . S
H39 C17 0.929 . S
La40 C42 2.928 1_545 S
La40 O60 2.521 1_545 S
La40 O61 2.628 1_545 S
La40 O62 2.554 . S
La40 O63 2.757 . S
La40 O64 2.470 1_545 S
La40 O69 2.482 . S
La40 O71 2.503 . S
La41 C51 2.928 . S
La41 O63 2.482 . S
La41 O65 2.503 1_545 S
La41 O66 2.521 . S
La41 O67 2.628 . S
La41 O68 2.554 . S
La41 O69 2.757 . S
La41 O70 2.470 . S
C42 La40 2.928 1_565 S
C42 C43 1.503 . S
C42 O60 1.261 . S
C42 O61 1.243 . S
C43 C42 1.503 . S
C43 C44 1.394 . S
C43 C48 1.373 . S
C44 C43 1.394 . S
C44 C45 1.380 . S
C44 H72 0.930 . S
C45 C44 1.380 . S
C45 C46 1.376 . S
C45 H73 0.930 . S
C46 C45 1.376 . S
C46 C47 1.370 . S
C47 C46 1.370 . S
C47 C48 1.396 . S
C47 H74 0.929 . S
C48 C43 1.373 . S
C48 C47 1.396 . S
C48 H75 0.929 . S
C49 O62 1.240 . S
C49 O63 1.289 . S
C50 O64 1.258 . S
C50 O65 1.256 . S
C51 La41 2.928 . S
C51 C52 1.503 . S
C51 O66 1.261 . S
C51 O67 1.243 . S
C52 C51 1.503 . S
C52 C53 1.394 . S
C52 C57 1.373 . S
C53 C52 1.394 . S
C53 C54 1.380 . S
C53 H76 0.930 . S
C54 C53 1.380 . S
C54 C55 1.376 . S
C54 H77 0.930 . S
C55 C54 1.376 . S
C55 C56 1.370 . S
C56 C55 1.370 . S
C56 C57 1.396 . S
C56 H78 0.929 . S
C57 C52 1.373 . S
C57 C56 1.396 . S
C57 H79 0.929 . S
C58 O68 1.240 . S
C58 O69 1.289 . S
C59 O70 1.258 . S
C59 O71 1.256 . S
O60 La40 2.521 1_565 S
O60 C42 1.261 . S
O61 La40 2.628 1_565 S
O61 C42 1.243 . S
O62 La40 2.554 . S
O62 C49 1.240 . S
O63 La40 2.757 . S
O63 La41 2.482 . S
O63 C49 1.289 . S
O64 La40 2.470 1_565 S
O64 C50 1.258 . S
O65 La41 2.503 1_565 S
O65 C50 1.256 . S
O66 La41 2.521 . S
O66 C51 1.261 . S
O67 La41 2.628 . S
O67 C51 1.243 . S
O68 La41 2.554 . S
O68 C58 1.240 . S
O69 La40 2.482 . S
O69 La41 2.757 . S
O69 C58 1.289 . S
O70 La41 2.470 . S
O70 C59 1.258 . S
O71 La40 2.503 . S
O71 C59 1.256 . S
H72 C44 0.930 . S
H73 C45 0.930 . S
H74 C47 0.929 . S
H75 C48 0.929 . S
H76 C53 0.930 . S
H77 C54 0.930 . S
H78 C56 0.929 . S
H79 C57 0.929 . S
La80 C82 2.928 . S
La80 O100 2.521 . S
La80 O101 2.628 . S
La80 O102 2.554 . S
La80 O103 2.757 . S
La80 O104 2.470 . S
La80 O109 2.482 . S
La80 O111 2.503 . S
La81 C91 2.928 . S
La81 O103 2.482 . S
La81 O105 2.503 . S
La81 O106 2.521 . S
La81 O107 2.628 . S
La81 O108 2.554 . S
La81 O109 2.757 . S
La81 O110 2.470 . S
C82 La80 2.928 . S
C82 C83 1.503 . S
C82 O100 1.261 . S
C82 O101 1.243 . S
C83 C82 1.503 . S
C83 C84 1.394 . S
C83 C88 1.373 . S
C84 C83 1.394 . S
C84 C85 1.380 . S
C84 H112 0.930 . S
C85 C84 1.380 . S
C85 C86 1.376 . S
C85 H113 0.930 . S
C86 C85 1.376 . S
C86 C87 1.370 . S
C87 C86 1.370 . S
C87 C88 1.396 . S
C87 H114 0.929 . S
C88 C83 1.373 . S
C88 C87 1.396 . S
C88 H115 0.929 . S
C89 O102 1.240 . S
C89 O103 1.289 . S
C90 O104 1.258 . S
C90 O105 1.256 . S
C91 La81 2.928 . S
C91 C92 1.503 . S
C91 O106 1.261 . S
C91 O107 1.243 . S
C92 C91 1.503 . S
C92 C93 1.394 . S
C92 C97 1.373 . S
C93 C92 1.394 . S
C93 C94 1.380 . S
C93 H116 0.930 . S
C94 C93 1.380 . S
C94 C95 1.376 . S
C94 H117 0.930 . S
C95 C94 1.376 . S
C95 C96 1.370 . S
C96 C95 1.370 . S
C96 C97 1.396 . S
C96 H118 0.929 . S
C97 C92 1.373 . S
C97 C96 1.396 . S
C97 H119 0.929 . S
C98 O108 1.240 . S
C98 O109 1.289 . S
C99 O110 1.258 . S
C99 O111 1.256 . S
O100 La80 2.521 . S
O100 C82 1.261 . S
O101 La80 2.628 . S
O101 C82 1.243 . S
O102 La80 2.554 . S
O102 C89 1.240 . S
O103 La80 2.757 . S
O103 La81 2.482 . S
O103 C89 1.289 . S
O104 La80 2.470 . S
O104 C90 1.258 . S
O105 La81 2.503 . S
O105 C90 1.256 . S
O106 La81 2.521 . S
O106 C91 1.261 . S
O107 La81 2.628 . S
O107 C91 1.243 . S
O108 La81 2.554 . S
O108 C98 1.240 . S
O109 La80 2.482 . S
O109 La81 2.757 . S
O109 C98 1.289 . S
O110 La81 2.470 . S
O110 C99 1.258 . S
O111 La80 2.503 . S
O111 C99 1.256 . S
H112 C84 0.930 . S
H113 C85 0.930 . S
H114 C87 0.929 . S
H115 C88 0.929 . S
H116 C93 0.930 . S
H117 C94 0.930 . S
H118 C96 0.929 . S
H119 C97 0.929 . S
H120 C127 0.929 . S
H121 C130 0.930 . S
H122 C132 0.929 . S
H123 C124 0.969 . S
C124 H123 0.969 . S
C124 O125 1.550 . S
C124 H126 0.973 . S
O125 C124 1.550 . S
O125 C131 1.412 . S
H126 C124 0.973 . S
C127 H120 0.929 . S
C127 C128 1.400 . S
C127 C129 1.364 . S
C128 C127 1.400 . S
C128 C132 1.377 . S
C129 C127 1.364 . S
C129 C130 1.374 1_545 S
C130 H121 0.930 . S
C130 C129 1.374 1_565 S
C130 C131 1.383 . S
C131 O125 1.412 . S
C131 C130 1.383 . S
C131 C132 1.394 1_565 S
C132 H122 0.929 . S
C132 C128 1.377 . S
C132 C131 1.394 1_545 S
H133 C140 0.929 . S
H134 C143 0.930 . S
H135 C145 0.929 . S
H136 C137 0.969 . S
C137 H136 0.969 . S
C137 O138 1.550 . S
C137 H139 0.973 . S
O138 C137 1.550 . S
O138 C144 1.412 . S
H139 C137 0.973 . S
C140 H133 0.929 . S
C140 C141 1.400 . S
C140 C142 1.364 . S
C141 C140 1.400 . S
C141 C145 1.377 . S
C142 C140 1.364 . S
C142 C143 1.374 . S
C143 H134 0.930 . S
C143 C142 1.374 . S
C143 C144 1.383 . S
C144 O138 1.412 . S
C144 C143 1.383 . S
C144 C145 1.394 . S
C145 H135 0.929 . S
C145 C141 1.377 . S
C145 C144 1.394 . S
H146 C153 0.929 . S
H147 C156 0.930 . S
H148 C158 0.929 . S
H149 C150 0.969 . S
C150 H149 0.969 . S
C150 O151 1.550 . S
C150 H152 0.973 . S
O151 C150 1.550 . S
O151 C157 1.412 . S
H152 C150 0.973 . S
C153 H146 0.929 . S
C153 C154 1.400 . S
C153 C155 1.364 . S
C154 C153 1.400 . S
C154 C158 1.377 . S
C155 C153 1.364 . S
C155 C156 1.374 . S
C156 H147 0.930 . S
C156 C155 1.374 . S
C156 C157 1.383 . S
C157 O151 1.412 . S
C157 C156 1.383 . S
C157 C158 1.394 . S
C158 H148 0.929 . S
C158 C154 1.377 . S
C158 C157 1.394 . S
H159 C166 0.929 . S
H160 C169 0.930 . S
H161 C171 0.929 . S
H162 C163 0.969 . S
C163 H162 0.969 . S
C163 O164 1.550 . S
C163 H165 0.973 . S
O164 C163 1.550 . S
O164 C170 1.412 . S
H165 C163 0.973 . S
C166 H159 0.929 . S
C166 C167 1.400 . S
C166 C168 1.364 1_655 S
C167 C166 1.400 . S
C167 C171 1.377 1_655 S
C168 C166 1.364 1_455 S
C168 C169 1.374 . S
C169 H160 0.930 . S
C169 C168 1.374 . S
C169 C170 1.383 . S
C170 O164 1.412 . S
C170 C169 1.383 . S
C170 C171 1.394 . S
C171 H161 0.929 . S
C171 C167 1.377 1_455 S
C171 C170 1.394 . S
H172 C179 0.929 . S
H173 C182 0.930 . S
H174 C184 0.929 . S
H175 C176 0.969 . S
C176 H175 0.969 . S
C176 O177 1.550 . S
C176 H178 0.973 . S
O177 C176 1.550 . S
O177 C183 1.412 . S
H178 C176 0.973 . S
C179 H172 0.929 . S
C179 C180 1.400 . S
C179 C181 1.364 1_565 S
C180 C179 1.400 . S
C180 C184 1.377 1_565 S
C181 C179 1.364 1_545 S
C181 C182 1.374 . S
C182 H173 0.930 . S
C182 C181 1.374 . S
C182 C183 1.383 . S
C183 O177 1.412 . S
C183 C182 1.383 . S
C183 C184 1.394 . S
C184 H174 0.929 . S
C184 C180 1.377 1_545 S
C184 C183 1.394 . S
H185 C192 0.929 . S
H186 C195 0.930 . S
H187 C197 0.929 . S
H188 C189 0.969 . S
C189 H188 0.969 . S
C189 O190 1.550 . S
C189 H191 0.973 . S
O190 C189 1.550 . S
O190 C196 1.412 . S
H191 C189 0.973 . S
C192 H185 0.929 . S
C192 C193 1.400 . S
C192 C194 1.364 . S
C193 C192 1.400 . S
C193 C197 1.377 . S
C194 C192 1.364 . S
C194 C195 1.374 . S
C195 H186 0.930 . S
C195 C194 1.374 . S
C195 C196 1.383 . S
C196 O190 1.412 . S
C196 C195 1.383 . S
C196 C197 1.394 . S
C197 H187 0.929 . S
C197 C193 1.377 . S
C197 C196 1.394 . S
C198 C199 1.391 . S
C198 C200 1.394 . S
C198 H214 0.931 . S
C199 C198 1.391 . S
C199 C203 1.376 . S
C200 C198 1.394 . S
C200 C201 1.369 . S
C200 C204 1.531 . S
C201 C200 1.369 . S
C201 C202 1.410 . S
C201 C209 1.503 . S
C202 C201 1.410 . S
C202 C203 1.392 . S
C202 C205 1.511 . S
C203 C199 1.376 . S
C203 C202 1.392 . S
C203 H215 0.929 . S
C204 C200 1.531 . S
C204 H216 0.960 . S
C204 H217 0.962 . S
C204 H218 0.960 . S
C205 C202 1.511 . S
C205 H219 0.961 . S
C205 H220 0.961 . S
C205 H221 0.961 . S
C206 C207 1.370 . S
C206 C208 1.363 . S
C206 H222 0.931 . S
C207 C206 1.370 . S
C207 C211 1.408 . S
C208 C206 1.363 . S
C208 C209 1.370 . S
C208 C212 1.524 . S
C209 C201 1.503 . S
C209 C208 1.370 . S
C209 C210 1.403 . S
C210 C209 1.403 . S
C210 C211 1.404 . S
C210 C213 1.539 . S
C211 C207 1.408 . S
C211 C210 1.404 . S
C211 H223 0.930 . S
C212 C208 1.524 . S
C212 H224 0.956 . S
C212 H225 0.961 . S
C212 H226 0.961 . S
C213 C210 1.539 . S
C213 H227 0.958 . S
C213 H228 0.961 . S
C213 H229 0.960 . S
H214 C198 0.931 . S
H215 C203 0.929 . S
H216 C204 0.960 . S
H217 C204 0.962 . S
H218 C204 0.960 . S
H219 C205 0.961 . S
H220 C205 0.961 . S
H221 C205 0.961 . S
H222 C206 0.931 . S
H223 C211 0.930 . S
H224 C212 0.956 . S
H225 C212 0.961 . S
H226 C212 0.961 . S
H227 C213 0.958 . S
H228 C213 0.961 . S
H229 C213 0.960 . S
C230 C231 1.391 . S
C230 C232 1.394 . S
C230 H246 0.931 . S
C231 C230 1.391 . S
C231 C235 1.376 . S
C232 C230 1.394 . S
C232 C233 1.369 . S
C232 C236 1.531 . S
C233 C232 1.369 . S
C233 C234 1.410 . S
C233 C241 1.503 . S
C234 C233 1.410 . S
C234 C235 1.392 . S
C234 C237 1.511 . S
C235 C231 1.376 . S
C235 C234 1.392 . S
C235 H247 0.929 . S
C236 C232 1.531 . S
C236 H248 0.960 . S
C236 H249 0.962 . S
C236 H250 0.960 . S
C237 C234 1.511 . S
C237 H251 0.961 . S
C237 H252 0.961 . S
C237 H253 0.961 . S
C238 C239 1.370 . S
C238 C240 1.363 . S
C238 H254 0.931 . S
C239 C238 1.370 . S
C239 C243 1.408 . S
C240 C238 1.363 . S
C240 C241 1.370 . S
C240 C244 1.524 . S
C241 C233 1.503 . S
C241 C240 1.370 . S
C241 C242 1.403 . S
C242 C241 1.403 . S
C242 C243 1.404 . S
C242 C245 1.539 . S
C243 C239 1.408 . S
C243 C242 1.404 . S
C243 H255 0.930 . S
C244 C240 1.524 . S
C244 H256 0.956 . S
C244 H257 0.961 . S
C244 H258 0.961 . S
C245 C242 1.539 . S
C245 H259 0.958 . S
C245 H260 0.961 . S
C245 H261 0.960 . S
H246 C230 0.931 . S
H247 C235 0.929 . S
H248 C236 0.960 . S
H249 C236 0.962 . S
H250 C236 0.960 . S
H251 C237 0.961 . S
H252 C237 0.961 . S
H253 C237 0.961 . S
H254 C238 0.931 . S
H255 C243 0.930 . S
H256 C244 0.956 . S
H257 C244 0.961 . S
H258 C244 0.961 . S
H259 C245 0.958 . S
H260 C245 0.961 . S
H261 C245 0.960 . S
C262 C263 1.391 . S
C262 C264 1.394 . S
C262 H278 0.931 . S
C263 C262 1.391 . S
C263 C267 1.376 . S
C264 C262 1.394 . S
C264 C265 1.369 . S
C264 C268 1.531 . S
C265 C264 1.369 . S
C265 C266 1.410 . S
C265 C273 1.503 . S
C266 C265 1.410 . S
C266 C267 1.392 . S
C266 C269 1.511 . S
C267 C263 1.376 . S
C267 C266 1.392 . S
C267 H279 0.929 . S
C268 C264 1.531 . S
C268 H280 0.960 . S
C268 H281 0.962 . S
C268 H282 0.960 . S
C269 C266 1.511 . S
C269 H283 0.961 . S
C269 H284 0.961 . S
C269 H285 0.961 . S
C270 C271 1.370 . S
C270 C272 1.363 . S
C270 H286 0.931 . S
C271 C270 1.370 . S
C271 C275 1.408 . S
C272 C270 1.363 . S
C272 C273 1.370 . S
C272 C276 1.524 . S
C273 C265 1.503 . S
C273 C272 1.370 . S
C273 C274 1.403 . S
C274 C273 1.403 . S
C274 C275 1.404 . S
C274 C277 1.539 . S
C275 C271 1.408 . S
C275 C274 1.404 . S
C275 H287 0.930 . S
C276 C272 1.524 . S
C276 H288 0.956 . S
C276 H289 0.961 . S
C276 H290 0.961 . S
C277 C274 1.539 . S
C277 H291 0.958 . S
C277 H292 0.961 . S
C277 H293 0.960 . S
H278 C262 0.931 . S
H279 C267 0.929 . S
H280 C268 0.960 . S
H281 C268 0.962 . S
H282 C268 0.960 . S
H283 C269 0.961 . S
H284 C269 0.961 . S
H285 C269 0.961 . S
H286 C270 0.931 . S
H287 C275 0.930 . S
H288 C276 0.956 . S
H289 C276 0.961 . S
H290 C276 0.961 . S
H291 C277 0.958 . S
H292 C277 0.961 . S
H293 C277 0.960 . S
C294 C295 1.391 . S
C294 C296 1.394 . S
C294 H310 0.931 . S
C295 C294 1.391 . S
C295 C299 1.376 . S
C296 C294 1.394 . S
C296 C297 1.369 . S
C296 C300 1.531 . S
C297 C296 1.369 . S
C297 C298 1.410 . S
C297 C305 1.503 . S
C298 C297 1.410 . S
C298 C299 1.392 . S
C298 C301 1.511 . S
C299 C295 1.376 . S
C299 C298 1.392 . S
C299 H311 0.929 . S
C300 C296 1.531 . S
C300 H312 0.960 . S
C300 H313 0.962 . S
C300 H314 0.960 . S
C301 C298 1.511 . S
C301 H315 0.961 . S
C301 H316 0.961 . S
C301 H317 0.961 . S
C302 C303 1.370 . S
C302 C304 1.363 . S
C302 H318 0.931 . S
C303 C302 1.370 . S
C303 C307 1.408 . S
C304 C302 1.363 . S
C304 C305 1.370 . S
C304 C308 1.524 . S
C305 C297 1.503 . S
C305 C304 1.370 . S
C305 C306 1.403 . S
C306 C305 1.403 . S
C306 C307 1.404 . S
C306 C309 1.539 . S
C307 C303 1.408 . S
C307 C306 1.404 . S
C307 H319 0.930 . S
C308 C304 1.524 . S
C308 H320 0.956 . S
C308 H321 0.961 . S
C308 H322 0.961 . S
C309 C306 1.539 . S
C309 H323 0.958 . S
C309 H324 0.961 . S
C309 H325 0.960 . S
H310 C294 0.931 . S
H311 C299 0.929 . S
H312 C300 0.960 . S
H313 C300 0.962 . S
H314 C300 0.960 . S
H315 C301 0.961 . S
H316 C301 0.961 . S
H317 C301 0.961 . S
H318 C302 0.931 . S
H319 C307 0.930 . S
H320 C308 0.956 . S
H321 C308 0.961 . S
H322 C308 0.961 . S
H323 C309 0.958 . S
H324 C309 0.961 . S
H325 C309 0.960 . S
C326 C327 1.391 . S
C326 C328 1.394 . S
C326 H342 0.931 . S
C327 C326 1.391 . S
C327 C331 1.376 . S
C328 C326 1.394 . S
C328 C329 1.369 . S
C328 C332 1.531 . S
C329 C328 1.369 . S
C329 C330 1.410 . S
C329 C337 1.503 . S
C330 C329 1.410 . S
C330 C331 1.392 . S
C330 C333 1.511 . S
C331 C327 1.376 . S
C331 C330 1.392 . S
C331 H343 0.929 . S
C332 C328 1.531 . S
C332 H344 0.960 . S
C332 H345 0.962 . S
C332 H346 0.960 . S
C333 C330 1.511 . S
C333 H347 0.961 . S
C333 H348 0.961 . S
C333 H349 0.961 . S
C334 C335 1.370 . S
C334 C336 1.363 . S
C334 H350 0.931 . S
C335 C334 1.370 . S
C335 C339 1.408 . S
C336 C334 1.363 . S
C336 C337 1.370 . S
C336 C340 1.524 . S
C337 C329 1.503 . S
C337 C336 1.370 . S
C337 C338 1.403 . S
C338 C337 1.403 . S
C338 C339 1.404 . S
C338 C341 1.539 . S
C339 C335 1.408 . S
C339 C338 1.404 . S
C339 H351 0.930 . S
C340 C336 1.524 . S
C340 H352 0.956 . S
C340 H353 0.961 . S
C340 H354 0.961 . S
C341 C338 1.539 . S
C341 H355 0.958 . S
C341 H356 0.961 . S
C341 H357 0.960 . S
H342 C326 0.931 . S
H343 C331 0.929 . S
H344 C332 0.960 . S
H345 C332 0.962 . S
H346 C332 0.960 . S
H347 C333 0.961 . S
H348 C333 0.961 . S
H349 C333 0.961 . S
H350 C334 0.931 . S
H351 C339 0.930 . S
H352 C340 0.956 . S
H353 C340 0.961 . S
H354 C340 0.961 . S
H355 C341 0.958 . S
H356 C341 0.961 . S
H357 C341 0.960 . S
C358 C359 1.391 . S
C358 C360 1.394 . S
C358 H374 0.931 . S
C359 C358 1.391 . S
C359 C363 1.376 . S
C360 C358 1.394 . S
C360 C361 1.369 . S
C360 C364 1.531 . S
C361 C360 1.369 . S
C361 C362 1.410 . S
C361 C369 1.503 . S
C362 C361 1.410 . S
C362 C363 1.392 . S
C362 C365 1.511 . S
C363 C359 1.376 . S
C363 C362 1.392 . S
C363 H375 0.929 . S
C364 C360 1.531 . S
C364 H376 0.960 . S
C364 H377 0.962 . S
C364 H378 0.960 . S
C365 C362 1.511 . S
C365 H379 0.961 . S
C365 H380 0.961 . S
C365 H381 0.961 . S
C366 C367 1.370 . S
C366 C368 1.363 . S
C366 H382 0.931 . S
C367 C366 1.370 . S
C367 C371 1.408 . S
C368 C366 1.363 . S
C368 C369 1.370 . S
C368 C372 1.524 . S
C369 C361 1.503 . S
C369 C368 1.370 . S
C369 C370 1.403 . S
C370 C369 1.403 . S
C370 C371 1.404 . S
C370 C373 1.539 . S
C371 C367 1.408 . S
C371 C370 1.404 . S
C371 H383 0.930 . S
C372 C368 1.524 . S
C372 H384 0.956 . S
C372 H385 0.961 . S
C372 H386 0.961 . S
C373 C370 1.539 . S
C373 H387 0.958 . S
C373 H388 0.961 . S
C373 H389 0.960 . S
H374 C358 0.931 . S
H375 C363 0.929 . S
H376 C364 0.960 . S
H377 C364 0.962 . S
H378 C364 0.960 . S
H379 C365 0.961 . S
H380 C365 0.961 . S
H381 C365 0.961 . S
H382 C366 0.931 . S
H383 C371 0.930 . S
H384 C372 0.956 . S
H385 C372 0.961 . S
H386 C372 0.961 . S
H387 C373 0.958 . S
H388 C373 0.961 . S
H389 C373 0.960 . S
C390 C391 1.391 . S
C390 C392 1.394 . S
C390 H406 0.931 . S
C391 C390 1.391 . S
C391 C395 1.376 . S
C392 C390 1.394 . S
C392 C393 1.369 . S
C392 C396 1.531 . S
C393 C392 1.369 . S
C393 C394 1.410 . S
C393 C401 1.503 . S
C394 C393 1.410 . S
C394 C395 1.392 . S
C394 C397 1.511 . S
C395 C391 1.376 . S
C395 C394 1.392 . S
C395 H407 0.929 . S
C396 C392 1.531 . S
C396 H408 0.960 . S
C396 H409 0.962 . S
C396 H410 0.960 . S
C397 C394 1.511 . S
C397 H411 0.961 . S
C397 H412 0.961 . S
C397 H413 0.961 . S
C398 C399 1.370 . S
C398 C400 1.363 . S
C398 H414 0.931 . S
C399 C398 1.370 . S
C399 C403 1.408 . S
C400 C398 1.363 . S
C400 C401 1.370 . S
C400 C404 1.524 . S
C401 C393 1.503 . S
C401 C400 1.370 . S
C401 C402 1.403 . S
C402 C401 1.403 . S
C402 C403 1.404 . S
C402 C405 1.539 . S
C403 C399 1.408 . S
C403 C402 1.404 . S
C403 H415 0.930 . S
C404 C400 1.524 . S
C404 H416 0.956 . S
C404 H417 0.961 . S
C404 H418 0.961 . S
C405 C402 1.539 . S
C405 H419 0.958 . S
C405 H420 0.961 . S
C405 H421 0.960 . S
H406 C390 0.931 . S
H407 C395 0.929 . S
H408 C396 0.960 . S
H409 C396 0.962 . S
H410 C396 0.960 . S
H411 C397 0.961 . S
H412 C397 0.961 . S
H413 C397 0.961 . S
H414 C398 0.931 . S
H415 C403 0.930 . S
H416 C404 0.956 . S
H417 C404 0.961 . S
H418 C404 0.961 . S
H419 C405 0.958 . S
H420 C405 0.961 . S
H421 C405 0.960 . S
C422 C423 1.391 . S
C422 C424 1.394 . S
C422 H438 0.931 . S
C423 C422 1.391 . S
C423 C427 1.376 . S
C424 C422 1.394 . S
C424 C425 1.369 . S
C424 C428 1.531 . S
C425 C424 1.369 . S
C425 C426 1.410 . S
C425 C433 1.503 . S
C426 C425 1.410 . S
C426 C427 1.392 . S
C426 C429 1.511 . S
C427 C423 1.376 . S
C427 C426 1.392 . S
C427 H439 0.929 . S
C428 C424 1.531 . S
C428 H440 0.960 . S
C428 H441 0.962 . S
C428 H442 0.960 . S
C429 C426 1.511 . S
C429 H443 0.961 . S
C429 H444 0.961 . S
C429 H445 0.961 . S
C430 C431 1.370 . S
C430 C432 1.363 . S
C430 H446 0.931 . S
C431 C430 1.370 . S
C431 C435 1.408 . S
C432 C430 1.363 . S
C432 C433 1.370 . S
C432 C436 1.524 . S
C433 C425 1.503 . S
C433 C432 1.370 . S
C433 C434 1.403 . S
C434 C433 1.403 . S
C434 C435 1.404 . S
C434 C437 1.539 . S
C435 C431 1.408 . S
C435 C434 1.404 . S
C435 H447 0.930 . S
C436 C432 1.524 . S
C436 H448 0.956 . S
C436 H449 0.961 . S
C436 H450 0.961 . S
C437 C434 1.539 . S
C437 H451 0.958 . S
C437 H452 0.961 . S
C437 H453 0.960 . S
H438 C422 0.931 . S
H439 C427 0.929 . S
H440 C428 0.960 . S
H441 C428 0.962 . S
H442 C428 0.960 . S
H443 C429 0.961 . S
H444 C429 0.961 . S
H445 C429 0.961 . S
H446 C430 0.931 . S
H447 C435 0.930 . S
H448 C436 0.956 . S
H449 C436 0.961 . S
H450 C436 0.961 . S
H451 C437 0.958 . S
H452 C437 0.961 . S
H453 C437 0.960 . S
C454 C455 1.391 . S
C454 C456 1.394 . S
C454 H470 0.931 . S
C455 C454 1.391 . S
C455 C459 1.376 . S
C456 C454 1.394 . S
C456 C457 1.369 . S
C456 C460 1.531 . S
C457 C456 1.369 . S
C457 C458 1.410 . S
C457 C465 1.503 . S
C458 C457 1.410 . S
C458 C459 1.392 . S
C458 C461 1.511 . S
C459 C455 1.376 . S
C459 C458 1.392 . S
C459 H471 0.929 . S
C460 C456 1.531 . S
C460 H472 0.960 . S
C460 H473 0.962 . S
C460 H474 0.960 . S
C461 C458 1.511 . S
C461 H475 0.961 . S
C461 H476 0.961 . S
C461 H477 0.961 . S
C462 C463 1.370 . S
C462 C464 1.363 . S
C462 H478 0.931 . S
C463 C462 1.370 . S
C463 C467 1.408 . S
C464 C462 1.363 . S
C464 C465 1.370 . S
C464 C468 1.524 . S
C465 C457 1.503 . S
C465 C464 1.370 . S
C465 C466 1.403 . S
C466 C465 1.403 . S
C466 C467 1.404 . S
C466 C469 1.539 . S
C467 C463 1.408 . S
C467 C466 1.404 . S
C467 H479 0.930 . S
C468 C464 1.524 . S
C468 H480 0.956 . S
C468 H481 0.961 . S
C468 H482 0.961 . S
C469 C466 1.539 . S
C469 H483 0.958 . S
C469 H484 0.961 . S
C469 H485 0.960 . S
H470 C454 0.931 . S
H471 C459 0.929 . S
H472 C460 0.960 . S
H473 C460 0.962 . S
H474 C460 0.960 . S
H475 C461 0.961 . S
H476 C461 0.961 . S
H477 C461 0.961 . S
H478 C462 0.931 . S
H479 C467 0.930 . S
H480 C468 0.956 . S
H481 C468 0.961 . S
H482 C468 0.961 . S
H483 C469 0.958 . S
H484 C469 0.961 . S
H485 C469 0.960 . S
C486 C487 1.391 . S
C486 C488 1.394 . S
C486 H502 0.931 . S
C487 C486 1.391 . S
C487 C491 1.376 . S
C488 C486 1.394 . S
C488 C489 1.369 . S
C488 C492 1.531 . S
C489 C488 1.369 . S
C489 C490 1.410 . S
C489 C497 1.503 . S
C490 C489 1.410 . S
C490 C491 1.392 . S
C490 C493 1.511 . S
C491 C487 1.376 . S
C491 C490 1.392 . S
C491 H503 0.929 . S
C492 C488 1.531 . S
C492 H504 0.960 . S
C492 H505 0.962 . S
C492 H506 0.960 . S
C493 C490 1.511 . S
C493 H507 0.961 . S
C493 H508 0.961 . S
C493 H509 0.961 . S
C494 C495 1.370 . S
C494 C496 1.363 . S
C494 H510 0.931 . S
C495 C494 1.370 . S
C495 C499 1.408 . S
C496 C494 1.363 . S
C496 C497 1.370 . S
C496 C500 1.524 . S
C497 C489 1.503 . S
C497 C496 1.370 . S
C497 C498 1.403 . S
C498 C497 1.403 . S
C498 C499 1.404 . S
C498 C501 1.539 . S
C499 C495 1.408 . S
C499 C498 1.404 . S
C499 H511 0.930 . S
C500 C496 1.524 . S
C500 H512 0.956 . S
C500 H513 0.961 . S
C500 H514 0.961 . S
C501 C498 1.539 . S
C501 H515 0.958 . S
C501 H516 0.961 . S
C501 H517 0.960 . S
H502 C486 0.931 . S
H503 C491 0.929 . S
H504 C492 0.960 . S
H505 C492 0.962 . S
H506 C492 0.960 . S
H507 C493 0.961 . S
H508 C493 0.961 . S
H509 C493 0.961 . S
H510 C494 0.931 . S
H511 C499 0.930 . S
H512 C500 0.956 . S
H513 C500 0.961 . S
H514 C500 0.961 . S
H515 C501 0.958 . S
H516 C501 0.961 . S
H517 C501 0.960 . S
C518 C519 1.391 . S
C518 C520 1.394 . S
C518 H534 0.931 . S
C519 C518 1.391 . S
C519 C523 1.376 . S
C520 C518 1.394 . S
C520 C521 1.369 . S
C520 C524 1.531 . S
C521 C520 1.369 . S
C521 C522 1.410 . S
C521 C529 1.503 . S
C522 C521 1.410 . S
C522 C523 1.392 . S
C522 C525 1.511 . S
C523 C519 1.376 . S
C523 C522 1.392 . S
C523 H535 0.929 . S
C524 C520 1.531 . S
C524 H536 0.960 . S
C524 H537 0.962 . S
C524 H538 0.960 . S
C525 C522 1.511 . S
C525 H539 0.961 . S
C525 H540 0.961 . S
C525 H541 0.961 . S
C526 C527 1.370 . S
C526 C528 1.363 . S
C526 H542 0.931 . S
C527 C526 1.370 . S
C527 C531 1.408 . S
C528 C526 1.363 . S
C528 C529 1.370 . S
C528 C532 1.524 . S
C529 C521 1.503 . S
C529 C528 1.370 . S
C529 C530 1.403 . S
C530 C529 1.403 . S
C530 C531 1.404 . S
C530 C533 1.539 . S
C531 C527 1.408 . S
C531 C530 1.404 . S
C531 H543 0.930 . S
C532 C528 1.524 . S
C532 H544 0.956 . S
C532 H545 0.961 . S
C532 H546 0.961 . S
C533 C530 1.539 . S
C533 H547 0.958 . S
C533 H548 0.961 . S
C533 H549 0.960 . S
H534 C518 0.931 . S
H535 C523 0.929 . S
H536 C524 0.960 . S
H537 C524 0.962 . S
H538 C524 0.960 . S
H539 C525 0.961 . S
H540 C525 0.961 . S
H541 C525 0.961 . S
H542 C526 0.931 . S
H543 C531 0.930 . S
H544 C532 0.956 . S
H545 C532 0.961 . S
H546 C532 0.961 . S
H547 C533 0.958 . S
H548 C533 0.961 . S
H549 C533 0.960 . S
C550 C551 1.391 . S
C550 C552 1.394 . S
C550 H566 0.931 . S
C551 C550 1.391 . S
C551 C555 1.376 . S
C552 C550 1.394 . S
C552 C553 1.369 . S
C552 C556 1.531 . S
C553 C552 1.369 . S
C553 C554 1.410 . S
C553 C561 1.503 . S
C554 C553 1.410 . S
C554 C555 1.392 . S
C554 C557 1.511 . S
C555 C551 1.376 . S
C555 C554 1.392 . S
C555 H567 0.929 . S
C556 C552 1.531 . S
C556 H568 0.960 . S
C556 H569 0.962 . S
C556 H570 0.960 . S
C557 C554 1.511 . S
C557 H571 0.961 . S
C557 H572 0.961 . S
C557 H573 0.961 . S
C558 C559 1.370 . S
C558 C560 1.363 . S
C558 H574 0.931 . S
C559 C558 1.370 . S
C559 C563 1.408 . S
C560 C558 1.363 . S
C560 C561 1.370 . S
C560 C564 1.524 . S
C561 C553 1.503 . S
C561 C560 1.370 . S
C561 C562 1.403 . S
C562 C561 1.403 . S
C562 C563 1.404 . S
C562 C565 1.539 . S
C563 C559 1.408 . S
C563 C562 1.404 . S
C563 H575 0.930 . S
C564 C560 1.524 . S
C564 H576 0.956 . S
C564 H577 0.961 . S
C564 H578 0.961 . S
C565 C562 1.539 . S
C565 H579 0.958 . S
C565 H580 0.961 . S
C565 H581 0.960 . S
H566 C550 0.931 . S
H567 C555 0.929 . S
H568 C556 0.960 . S
H569 C556 0.962 . S
H570 C556 0.960 . S
H571 C557 0.961 . S
H572 C557 0.961 . S
H573 C557 0.961 . S
H574 C558 0.931 . S
H575 C563 0.930 . S
H576 C564 0.956 . S
H577 C564 0.961 . S
H578 C564 0.961 . S
H579 C565 0.958 . S
H580 C565 0.961 . S
H581 C565 0.960 . S
C582 C583 1.391 . S
C582 C584 1.394 . S
C582 H598 0.931 . S
C583 C582 1.391 . S
C583 C587 1.376 1_455 S
C584 C582 1.394 . S
C584 C585 1.369 . S
C584 C588 1.531 . S
C585 C584 1.369 . S
C585 C586 1.410 1_455 S
C585 C593 1.503 1_554 S
C586 C585 1.410 1_655 S
C586 C587 1.392 . S
C586 C589 1.511 . S
C587 C583 1.376 1_655 S
C587 C586 1.392 . S
C587 H599 0.929 . S
C588 C584 1.531 . S
C588 H600 0.960 . S
C588 H601 0.962 . S
C588 H602 0.960 . S
C589 C586 1.511 . S
C589 H603 0.961 . S
C589 H604 0.939 1_554 S
C589 H605 0.961 . S
C590 C591 1.370 . S
C590 C592 1.363 . S
C590 H606 0.931 . S
C591 C590 1.370 . S
C591 C595 1.408 . S
C592 C590 1.363 . S
C592 C593 1.370 . S
C592 C596 1.524 1_556 S
C593 C585 1.503 1_556 S
C593 C592 1.370 . S
C593 C594 1.403 . S
C594 C593 1.403 . S
C594 C595 1.404 . S
C594 C597 1.539 1_455 S
C595 C591 1.408 . S
C595 C594 1.404 . S
C595 H607 0.930 1_455 S
C596 C592 1.524 1_554 S
C596 H608 0.956 . S
C596 H609 0.961 . S
C596 H610 0.961 1_554 S
C597 C594 1.539 1_655 S
C597 H611 0.958 . S
C597 H612 0.961 . S
C597 H613 0.960 . S
H598 C582 0.931 . S
H599 C587 0.929 . S
H600 C588 0.960 . S
H601 C588 0.962 . S
H602 C588 0.960 . S
H603 C589 0.961 . S
H604 C589 0.939 1_556 S
H605 C589 0.961 . S
H606 C590 0.931 . S
H607 C595 0.930 1_655 S
H608 C596 0.956 . S
H609 C596 0.961 . S
H610 C596 0.961 1_556 S
H611 C597 0.958 . S
H612 C597 0.961 . S
H613 C597 0.960 . S
C614 C615 1.391 . S
C614 C616 1.394 . S
C614 H630 0.931 . S
C615 C614 1.391 . S
C615 C619 1.376 . S
C616 C614 1.394 . S
C616 C617 1.369 . S
C616 C620 1.531 . S
C617 C616 1.369 . S
C617 C618 1.410 . S
C617 C625 1.503 . S
C618 C617 1.410 . S
C618 C619 1.392 . S
C618 C621 1.511 1_545 S
C619 C615 1.376 . S
C619 C618 1.392 . S
C619 H631 0.929 . S
C620 C616 1.531 . S
C620 H632 0.960 . S
C620 H633 0.962 . S
C620 H634 0.960 . S
C621 C618 1.511 1_565 S
C621 H635 0.961 . S
C621 H636 0.961 . S
C621 H637 0.961 1_565 S
C622 C623 1.370 1_565 S
C622 C624 1.363 . S
C622 H638 0.931 . S
C623 C622 1.370 1_545 S
C623 C627 1.408 . S
C624 C622 1.363 . S
C624 C625 1.370 1_565 S
C624 C628 1.524 . S
C625 C617 1.503 . S
C625 C624 1.370 1_545 S
C625 C626 1.403 . S
C626 C625 1.403 . S
C626 C627 1.404 . S
C626 C629 1.539 . S
C627 C623 1.408 . S
C627 C626 1.404 . S
C627 H639 0.930 . S
C628 C624 1.524 . S
C628 H640 0.956 . S
C628 H641 0.961 . S
C628 H642 0.961 . S
C629 C626 1.539 . S
C629 H643 0.958 . S
C629 H644 0.961 . S
C629 H645 0.960 . S
H630 C614 0.931 . S
H631 C619 0.929 . S
H632 C620 0.960 . S
H633 C620 0.962 . S
H634 C620 0.960 . S
H635 C621 0.961 . S
H636 C621 0.961 . S
H637 C621 0.961 1_545 S
H638 C622 0.931 . S
H639 C627 0.930 . S
H640 C628 0.956 . S
H641 C628 0.961 . S
H642 C628 0.961 . S
H643 C629 0.958 . S
H644 C629 0.961 . S
H645 C629 0.960 . S
C646 C647 1.391 . S
C646 C648 1.394 . S
C646 H662 0.931 . S
C647 C646 1.391 . S
C647 C651 1.376 . S
C648 C646 1.394 . S
C648 C649 1.369 . S
C648 C652 1.531 . S
C649 C648 1.369 . S
C649 C650 1.410 . S
C649 C657 1.503 . S
C650 C649 1.410 . S
C650 C651 1.392 . S
C650 C653 1.511 . S
C651 C647 1.376 . S
C651 C650 1.392 . S
C651 H663 0.929 . S
C652 C648 1.531 . S
C652 H664 0.960 . S
C652 H665 0.962 . S
C652 H666 0.960 . S
C653 C650 1.511 . S
C653 H667 0.961 . S
C653 H668 0.961 . S
C653 H669 0.961 . S
C654 C655 1.370 . S
C654 C656 1.363 . S
C654 H670 0.931 . S
C655 C654 1.370 . S
C655 C659 1.408 . S
C656 C654 1.363 . S
C656 C657 1.370 . S
C656 C660 1.524 . S
C657 C649 1.503 . S
C657 C656 1.370 . S
C657 C658 1.403 . S
C658 C657 1.403 . S
C658 C659 1.404 . S
C658 C661 1.539 . S
C659 C655 1.408 . S
C659 C658 1.404 . S
C659 H671 0.930 . S
C660 C656 1.524 . S
C660 H672 0.956 . S
C660 H673 0.961 . S
C660 H674 0.961 . S
C661 C658 1.539 . S
C661 H675 0.958 . S
C661 H676 0.961 . S
C661 H677 0.960 . S
H662 C646 0.931 . S
H663 C651 0.929 . S
H664 C652 0.960 . S
H665 C652 0.962 . S
H666 C652 0.960 . S
H667 C653 0.961 . S
H668 C653 0.961 . S
H669 C653 0.961 . S
H670 C654 0.931 . S
H671 C659 0.930 . S
H672 C660 0.956 . S
H673 C660 0.961 . S
H674 C660 0.961 . S
H675 C661 0.958 . S
H676 C661 0.961 . S
H677 C661 0.960 . S
C678 C679 1.391 1_565 S
C678 C680 1.394 . S
C678 H694 0.931 . S
C679 C678 1.391 1_545 S
C679 C683 1.376 . S
C680 C678 1.394 . S
C680 C681 1.369 1_565 S
C680 C684 1.531 . S
C681 C680 1.369 1_545 S
C681 C682 1.410 . S
C681 C689 1.503 . S
C682 C681 1.410 . S
C682 C683 1.392 . S
C682 C685 1.511 . S
C683 C679 1.376 . S
C683 C682 1.392 . S
C683 H695 0.929 . S
C684 C680 1.531 . S
C684 H696 0.960 . S
C684 H697 0.962 . S
C684 H698 0.960 . S
C685 C682 1.511 . S
C685 H699 0.961 . S
C685 H700 0.961 . S
C685 H701 0.961 . S
C686 C687 1.370 . S
C686 C688 1.363 . S
C686 H702 0.931 . S
C687 C686 1.370 . S
C687 C691 1.408 1_545 S
C688 C686 1.363 . S
C688 C689 1.370 . S
C688 C692 1.524 . S
C689 C681 1.503 . S
C689 C688 1.370 . S
C689 C690 1.403 1_545 S
C690 C689 1.403 1_565 S
C690 C691 1.404 . S
C690 C693 1.539 . S
C691 C687 1.408 1_565 S
C691 C690 1.404 . S
C691 H703 0.930 . S
C692 C688 1.524 . S
C692 H704 0.956 . S
C692 H705 0.961 . S
C692 H706 0.961 . S
C693 C690 1.539 . S
C693 H707 0.958 . S
C693 H708 0.961 . S
C693 H709 0.960 . S
H694 C678 0.931 . S
H695 C683 0.929 . S
H696 C684 0.960 . S
H697 C684 0.962 . S
H698 C684 0.960 . S
H699 C685 0.961 . S
H700 C685 0.961 . S
H701 C685 0.961 . S
H702 C686 0.931 . S
H703 C691 0.930 . S
H704 C692 0.956 . S
H705 C692 0.961 . S
H706 C692 0.961 . S
H707 C693 0.958 . S
H708 C693 0.961 . S
H709 C693 0.960 . S
C710 C711 1.391 . S
C710 C712 1.394 . S
C710 H726 0.931 . S
C711 C710 1.391 . S
C711 C715 1.376 . S
C712 C710 1.394 . S
C712 C713 1.369 . S
C712 C716 1.531 . S
C713 C712 1.369 . S
C713 C714 1.410 . S
C713 C721 1.503 . S
C714 C713 1.410 . S
C714 C715 1.392 . S
C714 C717 1.511 . S
C715 C711 1.376 . S
C715 C714 1.392 . S
C715 H727 0.929 . S
C716 C712 1.531 . S
C716 H728 0.960 . S
C716 H729 0.962 . S
C716 H730 0.960 . S
C717 C714 1.511 . S
C717 H731 0.961 . S
C717 H732 0.961 . S
C717 H733 0.961 . S
C718 C719 1.370 . S
C718 C720 1.363 . S
C718 H734 0.931 . S
C719 C718 1.370 . S
C719 C723 1.408 . S
C720 C718 1.363 . S
C720 C721 1.370 1_554 S
C720 C724 1.524 1_554 S
C721 C713 1.503 . S
C721 C720 1.370 1_556 S
C721 C722 1.403 1_556 S
C722 C721 1.403 1_554 S
C722 C723 1.404 . S
C722 C725 1.539 1_554 S
C723 C719 1.408 . S
C723 C722 1.404 . S
C723 H735 0.930 . S
C724 C720 1.524 1_556 S
C724 H736 0.956 . S
C724 H737 0.961 . S
C724 H738 0.961 . S
C725 C722 1.539 1_556 S
C725 H739 0.958 1_556 S
C725 H740 0.961 1_556 S
C725 H741 0.960 . S
H726 C710 0.931 . S
H727 C715 0.929 . S
H728 C716 0.960 . S
H729 C716 0.962 . S
H730 C716 0.960 . S
H731 C717 0.961 . S
H732 C717 0.961 . S
H733 C717 0.961 . S
H734 C718 0.931 . S
H735 C723 0.930 . S
H736 C724 0.956 . S
H737 C724 0.961 . S
H738 C724 0.961 . S
H739 C725 0.958 1_554 S
H740 C725 0.961 1_554 S
H741 C725 0.960 . S
C742 C743 1.391 1_655 S
C742 C744 1.394 . S
C742 H758 0.931 . S
C743 C742 1.391 1_455 S
C743 C747 1.376 . S
C744 C742 1.394 . S
C744 C745 1.369 1_655 S
C744 C748 1.531 . S
C745 C744 1.369 1_455 S
C745 C746 1.410 . S
C745 C753 1.503 . S
C746 C745 1.410 . S
C746 C747 1.392 . S
C746 C749 1.511 . S
C747 C743 1.376 . S
C747 C746 1.392 . S
C747 H759 0.929 . S
C748 C744 1.531 . S
C748 H760 0.960 . S
C748 H761 0.962 . S
C748 H762 0.960 . S
C749 C746 1.511 . S
C749 H763 0.961 . S
C749 H764 0.961 . S
C749 H765 0.961 . S
C750 C751 1.370 1_655 S
C750 C752 1.363 . S
C750 H766 0.931 . S
C751 C750 1.370 1_455 S
C751 C755 1.408 . S
C752 C750 1.363 . S
C752 C753 1.370 1_655 S
C752 C756 1.524 . S
C753 C745 1.503 . S
C753 C752 1.370 1_455 S
C753 C754 1.403 . S
C754 C753 1.403 . S
C754 C755 1.404 . S
C754 C757 1.539 . S
C755 C751 1.408 . S
C755 C754 1.404 . S
C755 H767 0.930 . S
C756 C752 1.524 . S
C756 H768 0.956 . S
C756 H769 0.961 . S
C756 H770 0.961 . S
C757 C754 1.539 . S
C757 H771 0.958 . S
C757 H772 0.961 . S
C757 H773 0.960 . S
H758 C742 0.931 . S
H759 C747 0.929 . S
H760 C748 0.960 . S
H761 C748 0.962 . S
H762 C748 0.960 . S
H763 C749 0.961 . S
H764 C749 0.961 . S
H765 C749 0.961 . S
H766 C750 0.931 . S
H767 C755 0.930 . S
H768 C756 0.956 . S
H769 C756 0.961 . S
H770 C756 0.961 . S
H771 C757 0.958 . S
H772 C757 0.961 . S
H773 C757 0.960 . S
C199 C6 0.573 . S
C207 C189 0.632 . S
C231 C59 1.829 . S
C239 C167 1.795 . S
C263 C86 1.159 . S
C271 C180 1.186 . S
C295 C15 0.478 . S
C303 C193 0.227 . S
C335 C163 1.852 . S
C327 C50 1.984 . S
C367 C176 1.247 . S
C359 C95 1.298 . S
C391 C46 1.089 . S
C399 C141 1.083 . S
C423 C99 3.037 . S
C431 C154 3.013 1_655 S
C455 C10 2.004 . S
C463 C124 1.887 . S
C495 C137 1.282 . S
C487 C55 1.314 . S
C527 C150 2.910 . S
C519 C90 3.059 . S
C551 C19 1.821 . S
C559 C128 1.830 . S
C591 C155 1.751 . S
C583 C18 1.707 . S
C615 C49 1.450 . S
C623 C129 1.486 . S
C647 C98 1.466 . S
C655 C142 1.604 . S
C687 C181 1.540 . S
C679 C58 1.487 . S
C719 C194 1.316 . S
C711 C89 1.273 . S
C743 C9 1.383 . S
C751 C168 1.479 . S
