# Generated by pormake.
# Topology zzz, (3,6)-cn, num edge types: 1
# Building blocks:
#     Node 0, Type 0, BuildingBlock: VETTIZ_charged_linker_0, # of connection points: 3
#     Node 1, Type 0, BuildingBlock: VETTIZ_charged_linker_0, # of connection points: 3
#     Node 2, Type 0, BuildingBlock: VETTIZ_charged_linker_0, # of connection points: 3
#     Node 3, Type 0, BuildingBlock: VETTIZ_charged_linker_0, # of connection points: 3
#     Node 4, Type 0, BuildingBlock: VETTIZ_charged_linker_0, # of connection points: 3
#     Node 5, Type 0, BuildingBlock: VETTIZ_charged_linker_0, # of connection points: 3
#     Node 6, Type 0, BuildingBlock: VETTIZ_charged_linker_0, # of connection points: 3
#     Node 7, Type 0, BuildingBlock: VETTIZ_charged_linker_0, # of connection points: 3
#     Node 8, Type 1, BuildingBlock: INOVEN_clean_sbu_0, # of connection points: 6
#     Node 9, Type 1, BuildingBlock: INOVEN_clean_sbu_0, # of connection points: 6
#     Node 10, Type 1, BuildingBlock: INOVEN_clean_sbu_0, # of connection points: 6
#     Node 11, Type 1, BuildingBlock: INOVEN_clean_sbu_0, # of connection points: 6
#     Edge 12, Type (0, 1), BuildingBlock: OJICUG_clean_linker_0, # of connection points: 2
#     Edge 13, Type (0, 1), BuildingBlock: OJICUG_clean_linker_0, # of connection points: 2
#     Edge 14, Type (0, 1), BuildingBlock: OJICUG_clean_linker_0, # of connection points: 2
#     Edge 15, Type (0, 1), BuildingBlock: OJICUG_clean_linker_0, # of connection points: 2
#     Edge 16, Type (0, 1), BuildingBlock: OJICUG_clean_linker_0, # of connection points: 2
#     Edge 17, Type (0, 1), BuildingBlock: OJICUG_clean_linker_0, # of connection points: 2
#     Edge 18, Type (0, 1), BuildingBlock: OJICUG_clean_linker_0, # of connection points: 2
#     Edge 19, Type (0, 1), BuildingBlock: OJICUG_clean_linker_0, # of connection points: 2
#     Edge 20, Type (0, 1), BuildingBlock: OJICUG_clean_linker_0, # of connection points: 2
#     Edge 21, Type (0, 1), BuildingBlock: OJICUG_clean_linker_0, # of connection points: 2
#     Edge 22, Type (0, 1), BuildingBlock: OJICUG_clean_linker_0, # of connection points: 2
#     Edge 23, Type (0, 1), BuildingBlock: OJICUG_clean_linker_0, # of connection points: 2
#     Edge 24, Type (0, 1), BuildingBlock: OJICUG_clean_linker_0, # of connection points: 2
#     Edge 25, Type (0, 1), BuildingBlock: OJICUG_clean_linker_0, # of connection points: 2
#     Edge 26, Type (0, 1), BuildingBlock: OJICUG_clean_linker_0, # of connection points: 2
#     Edge 27, Type (0, 1), BuildingBlock: OJICUG_clean_linker_0, # of connection points: 2
#     Edge 28, Type (0, 1), BuildingBlock: OJICUG_clean_linker_0, # of connection points: 2
#     Edge 29, Type (0, 1), BuildingBlock: OJICUG_clean_linker_0, # of connection points: 2
#     Edge 30, Type (0, 1), BuildingBlock: OJICUG_clean_linker_0, # of connection points: 2
#     Edge 31, Type (0, 1), BuildingBlock: OJICUG_clean_linker_0, # of connection points: 2
#     Edge 32, Type (0, 1), BuildingBlock: OJICUG_clean_linker_0, # of connection points: 2
#     Edge 33, Type (0, 1), BuildingBlock: OJICUG_clean_linker_0, # of connection points: 2
#     Edge 34, Type (0, 1), BuildingBlock: OJICUG_clean_linker_0, # of connection points: 2
#     Edge 35, Type (0, 1), BuildingBlock: OJICUG_clean_linker_0, # of connection points: 2
# Relax obj value: 0.494
# Max RMSD: 0.266
# Mean RMSD: 0.256
data_MOF--net-zzz--node1-INOVEN_clean_sbu_0--node2-VETTIZ_charged_linker_0--edge1-OJICUG_clean_linker_0
_symmetry_space_group_name_H-M    P1
_symmetry_Int_Tables_number       1
_symmetry_cell_setting            triclinic
loop_
_symmetry_equiv_pos_as_xyz
'x, y, z'
_cell_length_a     44.862626
_cell_length_b     44.789013
_cell_length_c     14.23423
_cell_angle_alpha  90.009453
_cell_angle_beta   90.131415
_cell_angle_gamma 90.068391
loop_
_atom_site_label
_atom_site_type_symbol
_atom_site_fract_x
_atom_site_fract_y
_atom_site_fract_z
_atom_type_partial_charge
C0 C 0.81686 0.5021 0.52696 0.0
C1 C 0.83687 0.48526 0.58432 0.0
C2 C 0.83298 0.45403 0.58868 0.0
C3 C 0.79618 0.4561 0.46536 0.0
C4 C 0.79568 0.48673 0.47011 0.0
C5 C 0.77009 0.49874 0.40972 0.0
H6 H 0.66714 0.46361 0.0627 0.0
C7 C 0.77647 0.44603 0.38967 0.0
C8 C 0.75932 0.47038 0.35863 0.0
H9 H 0.67458 0.54868 0.2024 0.0
H10 H 0.71571 0.52936 0.29863 0.0
H11 H 0.7299 0.46043 0.02353 0.0
H12 H 0.6792 0.41691 0.23624 0.0
H13 H 0.70315 0.39069 0.18203 0.0
H14 H 0.67684 0.41103 0.11144 0.0
H15 H 0.71781 0.42284 1.00765 0.0
H16 H 0.75378 0.43152 0.05836 0.0
C17 C 0.78209 0.52234 0.34088 0.0
C18 C 0.74598 0.51113 0.47604 0.0
C19 C 0.81478 0.36017 0.19887 0.0
C20 C 0.80901 0.35293 0.10461 0.0
C21 C 0.78054 0.35929 0.0677 0.0
C22 C 0.76037 0.37684 0.1189 0.0
C23 C 0.76943 0.3892 0.20534 0.0
C24 C 0.79553 0.37944 0.24643 0.0
C25 C 0.803 0.39615 0.33513 0.0
C26 C 0.77813 0.41945 0.33584 0.0
C27 C 0.75897 0.41551 0.259 0.0
C28 C 0.83418 0.4108 0.32391 0.0
C29 C 0.80146 0.374 0.41885 0.0
C30 C 0.67688 0.47792 0.11596 0.0
C31 C 0.66689 0.50734 0.12672 0.0
C32 C 0.68151 0.5257 0.19356 0.0
C33 C 0.70517 0.51443 0.24979 0.0
C34 C 0.71472 0.48468 0.23789 0.0
C35 C 0.70067 0.46732 0.17034 0.0
C36 C 0.71559 0.43784 0.15621 0.0
C37 C 0.73858 0.43843 0.23417 0.0
C38 C 0.73866 0.46604 0.28232 0.0
C39 C 0.72994 0.43791 0.05659 0.0
C40 C 0.6925 0.41266 0.17178 0.0
H41 H 0.80981 0.41594 0.53782 0.0
H42 H 0.81789 0.52624 0.52621 0.0
H43 H 0.74076 0.49466 0.53218 0.0
H44 H 0.72482 0.51571 0.43938 0.0
H45 H 0.75376 0.53204 0.51026 0.0
H46 H 0.8011 0.51314 0.30012 0.0
H47 H 0.79 0.54243 0.37936 0.0
H48 H 0.76492 0.52944 0.28991 0.0
H49 H 0.83604 0.35491 0.22993 0.0
H50 H 0.77506 0.35317 0.99608 0.0
H51 H 0.73948 0.38197 0.08613 0.0
H52 H 0.84057 0.42479 0.38425 0.0
H53 H 0.83481 0.42511 0.26009 0.0
H54 H 0.85193 0.39375 0.31782 0.0
H55 H 0.78245 0.37914 0.46601 0.0
H56 H 0.8224 0.37425 0.46066 0.0
H57 H 0.79842 0.35045 0.39586 0.0
H58 H 0.84692 0.44042 0.63374 0.0
C59 C 0.81232 0.43958 0.53112 0.0
C60 C 0.10957 0.79638 0.94868 0.0
C61 C 0.10179 0.82272 0.90044 0.0
C62 C 0.07414 0.83643 0.91987 0.0
C63 C 0.06715 0.8035 0.05083 0.0
C64 C 0.09097 0.78647 0.02171 0.0
C65 C 0.09293 0.75768 0.07644 0.0
H66 H 0.99419 0.67065 0.26524 0.0
C67 C 0.05517 0.79079 0.13712 0.0
C68 C 0.06879 0.763 0.15073 0.0
H69 H 0.07698 0.64625 0.12873 0.0
H70 H 0.09718 0.6955 0.16439 0.0
H71 H 0.03757 0.72215 0.44961 0.0
H72 H 0.98542 0.74225 0.19868 0.0
H73 H 0.97548 0.75845 0.31018 0.0
H74 H 0.96893 0.71941 0.28914 0.0
H75 H 1.00239 0.70331 0.43344 0.0
H76 H 1.00289 0.74252 0.45772 0.0
C77 C 0.12406 0.75498 0.12166 0.0
C78 C 0.08571 0.7315 1.00846 0.0
C79 C 1.02087 0.86214 0.38599 0.0
C80 C 1.02109 0.85969 0.48449 0.0
C81 C 0.0243 0.83077 0.52406 0.0
C82 C 0.02645 0.80503 0.4658 0.0
C83 C 0.02546 0.80833 0.36754 0.0
C84 C 0.02439 0.83674 0.32956 0.0
C85 C 0.03004 0.83668 0.22531 0.0
C86 C 0.0382 0.80396 0.20998 0.0
C87 C 0.03207 0.78705 0.29034 0.0
C88 C 0.0559 0.85851 0.20244 0.0
C89 C 1.00054 0.84509 0.17592 0.0
C90 C 1.01662 0.67588 0.24272 0.0
C91 C 0.03342 0.65477 0.18998 0.0
C92 C 0.06311 0.66204 0.16621 0.0
C93 C 0.07452 0.69061 0.18322 0.0
C94 C 0.05606 0.71219 0.22286 0.0
C95 C 0.02915 0.70435 0.262 0.0
C96 C 1.0159 0.73094 0.31415 0.0
C97 C 0.03831 0.75586 0.29086 0.0
C98 C 0.05939 0.74466 0.22659 0.0
C99 C 1.01472 0.72442 0.42 0.0
C100 C 0.98458 0.73816 0.27569 0.0
H101 H 0.03608 0.83793 1.00806 0.0
H102 H 0.12996 0.78461 0.9322 0.0
H103 H 0.08997 0.73749 0.93388 0.0
H104 H 0.06191 0.72476 1.01319 0.0
H105 H 0.10002 0.7118 0.02126 0.0
H106 H 0.12995 0.77582 0.15997 0.0
H107 H 0.1413 0.75089 0.06726 0.0
H108 H 0.12491 0.73646 0.17307 0.0
H109 H 1.01936 0.88389 0.35319 0.0
H110 H 0.02532 0.82812 0.5996 0.0
H111 H 0.03023 0.78345 0.49733 0.0
H112 H 0.05285 0.88053 0.23657 0.0
H113 H 0.05739 0.86378 0.12713 0.0
H114 H 0.07759 0.84927 0.2266 0.0
H115 H 0.99654 0.86953 0.18068 0.0
H116 H 0.98132 0.83347 0.20912 0.0
H117 H 1.00005 0.83844 0.10145 0.0
H118 H 0.06716 0.85634 0.88264 0.0
C119 C 0.05661 0.82661 0.99436 0.0
C120 C 0.86741 0.05277 0.15158 0.0
C121 C 0.88805 0.06653 0.08926 0.0
C122 C 0.88341 0.09651 0.06391 0.0
C123 C 0.83804 0.09843 0.15517 0.0
C124 C 0.84278 0.06958 0.18572 0.0
C125 C 0.81865 0.06038 0.25554 0.0
H126 H 0.6908 0.10309 0.49205 0.0
C127 C 0.81092 0.11031 0.19955 0.0
C128 C 0.79967 0.08886 0.26268 0.0
H129 H 0.72987 1.0153 0.49577 0.0
H130 H 0.77103 0.03309 0.39752 0.0
H131 H 0.74177 0.14344 0.50852 0.0
H132 H 0.6829 0.12931 0.34749 0.0
H133 H 0.70138 0.10778 0.25839 0.0
H134 H 0.70201 0.14709 0.25476 0.0
H135 H 0.71195 0.16278 0.45086 0.0
H136 H 0.75045 0.16933 0.41966 0.0
C137 C 0.83341 0.05252 0.35012 0.0
C138 C 0.80092 0.0342 0.21257 0.0
C139 C 0.75197 0.19202 0.0437 0.0
C140 C 0.72397 0.20388 0.06941 0.0
C141 C 0.71763 0.20636 0.16636 0.0
C142 C 0.73443 0.19037 0.23219 0.0
C143 C 0.75717 0.17165 0.19982 0.0
C144 C 0.76813 0.17553 0.11048 0.0
C145 C 0.79587 0.15724 0.09505 0.0
C146 C 0.79541 0.1374 0.18293 0.0
C147 C 0.77162 0.14524 0.24135 0.0
C148 C 0.82284 0.17901 0.09285 0.0
C149 C 0.79258 0.13873 1.0038 0.0
C150 C 0.70844 0.08771 0.47334 0.0
C151 C 0.70715 0.05794 0.50315 0.0
C152 C 0.73025 0.03847 0.4741 0.0
C153 C 0.75401 0.04877 0.41657 0.0
C154 C 0.75421 0.07862 0.38461 0.0
C155 C 0.7313 0.09725 0.41325 0.0
C156 C 0.7318 0.12684 0.36464 0.0
C157 C 0.7601 0.12418 0.30667 0.0
C158 C 0.77345 0.09576 0.31697 0.0
C159 C 0.73394 0.152 0.43937 0.0
C160 C 0.70318 0.12811 0.303 0.0
H161 H 0.8566 0.13485 0.07354 0.0
H162 H 0.87053 0.02983 0.17343 0.0
H163 H 0.79472 0.03923 0.13854 0.0
H164 H 0.77987 0.02987 0.24993 0.0
H165 H 0.81443 1.01342 0.21294 0.0
H166 H 0.84845 0.07088 0.37316 0.0
H167 H 0.84688 0.03181 0.34383 0.0
H168 H 0.81685 0.04925 0.40642 0.0
H169 H 0.75911 0.19236 0.97119 0.0
H170 H 0.69757 0.2171 0.1908 0.0
H171 H 0.72706 0.19054 0.30379 0.0
H172 H 0.81629 0.20271 0.10401 0.0
H173 H 0.83447 0.17837 0.02406 0.0
H174 H 0.83915 0.17374 0.14914 0.0
H175 H 0.77168 0.12536 1.00529 0.0
H176 H 0.81129 0.12308 0.99367 0.0
H177 H 0.79198 0.15346 0.94111 0.0
H178 H 0.89865 0.10767 1.01646 0.0
C179 C 0.85879 0.11235 0.09649 0.0
C180 C 0.5191 0.7248 0.45814 0.0
C181 C 0.50325 0.70149 0.50512 0.0
C182 C 0.47186 0.70232 0.50361 0.0
C183 C 0.47249 0.74372 0.39523 0.0
C184 C 0.50284 0.74658 0.40579 0.0
C185 C 0.5134 0.77511 0.35645 0.0
H186 H 0.47493 0.88353 0.02794 0.0
C187 C 0.46192 0.76493 0.32391 0.0
C188 C 0.48523 0.78487 0.30229 0.0
H189 H 0.55534 0.88365 0.19411 0.0
H190 H 0.53958 0.8371 0.27079 0.0
H191 H 0.48288 0.82056 0.97447 0.0
H192 H 0.42513 0.86027 0.17712 0.0
H193 H 0.40467 0.83464 0.10696 0.0
H194 H 0.42382 0.86516 0.05173 0.0
H195 H 0.44504 0.82857 0.94546 0.0
H196 H 0.456 0.79271 0.99272 0.0
C197 C 0.5394 0.76795 0.28993 0.0
C198 C 0.522 0.79794 0.43281 0.0
C199 C 0.38359 0.72247 0.11025 0.0
C200 C 0.37924 0.72766 1.01385 0.0
C201 C 0.38585 0.75623 0.97794 0.0
C202 C 0.40068 0.7774 0.03387 0.0
C203 C 0.41035 0.76927 0.12443 0.0
C204 C 0.40081 0.74258 0.16251 0.0
C205 C 0.41399 0.73697 0.25817 0.0
C206 C 0.43669 0.76238 0.26399 0.0
C207 C 0.43363 0.78171 0.18731 0.0
C208 C 0.42869 0.70537 0.26178 0.0
C209 C 0.38861 0.74118 0.33056 0.0
C210 C 0.48879 0.87425 0.0831 0.0
C211 C 0.51582 0.88804 0.10708 0.0
C212 C 0.53404 0.87391 0.17542 0.0
C213 C 0.52479 0.84711 0.22053 0.0
C214 C 0.49726 0.83396 0.19618 0.0
C215 C 0.48022 0.84754 0.12689 0.0
C216 C 0.4538 0.82915 0.09901 0.0
C217 C 0.45492 0.80466 0.17231 0.0
C218 C 0.48075 0.80668 0.22902 0.0
C219 C 0.45946 0.81717 0.99786 0.0
C220 C 0.42523 0.84826 0.10868 0.0
H221 H 0.43276 0.72308 0.45239 0.0
H222 H 0.54316 0.72591 0.46209 0.0
H223 H 0.50384 0.80009 0.48544 0.0
H224 H 0.5258 0.82043 0.40389 0.0
H225 H 0.54253 0.79074 0.47027 0.0
H226 H 0.53287 0.75008 0.23968 0.0
H227 H 0.55917 0.76018 0.33018 0.0
H228 H 0.54606 0.78774 0.24854 0.0
H229 H 0.37752 0.70124 0.14108 0.0
H230 H 0.38176 0.76127 0.9046 0.0
H231 H 0.40564 0.79856 1.00256 0.0
H232 H 0.45324 0.7066 0.25274 0.0
H233 H 0.42098 0.69004 0.20575 0.0
H234 H 0.42358 0.6935 0.32808 0.0
H235 H 0.37302 0.75919 0.30854 0.0
H236 H 0.39691 0.74831 0.40017 0.0
H237 H 0.37542 0.72031 0.33828 0.0
H238 H 0.45891 0.68564 0.54065 0.0
C239 C 0.45658 0.72349 0.45044 0.0
C240 C 0.36764 0.51961 0.33646 0.0
C241 C 0.38546 0.51589 0.41895 0.0
C242 C 0.37117 0.51254 0.50614 0.0
C243 C 0.32393 0.52352 0.43502 0.0
C244 C 0.33614 0.52256 0.34657 0.0
C245 C 0.31098 0.52185 0.27284 0.0
H246 H 0.15622 0.52228 0.21553 0.0
C247 C 0.29196 0.52638 0.42807 0.0
C248 C 0.28272 0.52282 0.33473 0.0
H249 H 0.22008 0.5208 0.99005 0.0
H250 H 0.26112 0.51994 0.10546 0.0
H251 H 0.19173 0.47433 0.3493 0.0
H252 H 0.16443 0.55797 0.33369 0.0
H253 H 0.19616 0.57083 0.39791 0.0
H254 H 0.16769 0.54807 0.45205 0.0
H255 H 0.15862 0.49512 0.37741 0.0
H256 H 0.18707 0.48823 0.46434 0.0
C257 C 0.31298 0.49261 0.21652 0.0
C258 C 0.31349 0.54966 0.20998 0.0
C259 C 0.23545 0.58036 0.68362 0.0
C260 C 0.20581 0.57758 0.71382 0.0
C261 C 0.18767 0.5548 0.6755 0.0
C262 C 0.19791 0.53714 0.60151 0.0
C263 C 0.22614 0.54281 0.56454 0.0
C264 C 0.24548 0.56167 0.61123 0.0
C265 C 0.27676 0.5583 0.57551 0.0
C266 C 0.27196 0.53443 0.49929 0.0
C267 C 0.24171 0.52942 0.4847 0.0
C268 C 0.29706 0.54908 0.65808 0.0
C269 C 0.28744 0.58794 0.53191 0.0
C270 C 0.17899 0.52228 0.19032 0.0
C271 C 0.18469 0.52229 0.09356 0.0
C272 C 0.21487 0.52096 0.06429 0.0
C273 C 0.23862 0.52056 0.13103 0.0
C274 C 0.23219 0.52131 0.22808 0.0
C275 C 0.20253 0.52235 0.25534 0.0
C276 C 0.1987 0.52296 0.35983 0.0
C277 C 0.23099 0.52361 0.39224 0.0
C278 C 0.25109 0.52197 0.31543 0.0
C279 C 0.18305 0.4937 0.38979 0.0
C280 C 0.18102 0.55142 0.3878 0.0
H281 H 0.32989 0.50889 0.57833 0.0
H282 H 0.37776 0.51972 0.26753 0.0
H283 H 0.31372 0.57027 0.25355 0.0
H284 H 0.29452 0.5514 0.16068 0.0
H285 H 0.33442 0.54901 0.1684 0.0
H286 H 0.31334 0.47309 0.26479 0.0
H287 H 0.33367 0.49215 0.17373 0.0
H288 H 0.29375 0.48973 0.16884 0.0
H289 H 0.25006 0.59701 0.71422 0.0
H290 H 0.16487 0.55188 0.69883 0.0
H291 H 0.18351 0.52007 0.57417 0.0
H292 H 0.29286 0.56309 0.72108 0.0
H293 H 0.32087 0.55286 0.64136 0.0
H294 H 0.29303 0.52546 0.67824 0.0
H295 H 0.27202 0.59531 0.4752 0.0
H296 H 0.31001 0.58526 0.50111 0.0
H297 H 0.28861 0.60582 0.58595 0.0
H298 H 0.3839 0.50736 0.5689 0.0
C299 C 0.34044 0.51512 0.51347 0.0
C300 C 0.86708 0.26504 0.40961 0.0
C301 C 0.85536 0.23706 0.38218 0.0
C302 C 0.85289 0.23125 0.28481 0.0
C303 C 0.88712 0.27128 0.25374 0.0
C304 C 0.88353 0.28164 0.34403 0.0
C305 C 0.90317 0.30825 0.36305 0.0
H306 H 0.03239 0.37063 0.35341 0.0
C307 C 0.91384 0.28523 0.21345 0.0
C308 C 0.92175 0.30885 0.27257 0.0
H309 H 0.94858 0.41381 0.42157 0.0
H310 H 0.92228 0.37628 0.33038 0.0
H311 H 1.01166 0.29588 0.36196 0.0
H312 H 1.00333 0.35452 0.1194 0.0
H313 H 0.02304 0.32063 0.09902 0.0
H314 H 0.03906 0.34863 0.17412 0.0
H315 H 0.04396 0.31436 0.31447 0.0
H316 H 0.02826 0.28235 0.2567 0.0
C317 C 0.92284 0.30258 0.45058 0.0
C318 C 0.88312 0.3359 0.37624 0.0
C319 C 0.97322 0.21746 0.99941 0.0
C320 C 1.00366 0.21316 0.98209 0.0
C321 C 0.02406 0.23367 0.02264 0.0
C322 C 1.01402 0.25798 0.07845 0.0
C323 C 0.98332 0.26139 0.0965 0.0
C324 C 0.96371 0.24076 0.05802 0.0
C325 C 0.93239 0.24471 0.09207 0.0
C326 C 0.93581 0.27209 0.1544 0.0
C327 C 0.96565 0.2825 0.15632 0.0
C328 C 0.92305 0.21603 0.14695 0.0
C329 C 0.91215 0.25153 1.00674 0.0
C330 C 1.00828 0.37136 0.35238 0.0
C331 C 0.99264 0.39466 0.39977 0.0
C332 C 0.96132 0.39588 0.39018 0.0
C333 C 0.94575 0.37355 0.34258 0.0
C334 C 0.96122 0.34901 0.30798 0.0
C335 C 0.99177 0.34911 0.30336 0.0
C336 C 1.00234 0.32379 0.23906 0.0
C337 C 0.97272 0.30846 0.21195 0.0
C338 C 0.9496 0.32283 0.2601 0.0
C339 C 0.02279 0.30289 0.29577 0.0
C340 C 1.01791 0.33752 0.15302 0.0
H341 H 0.8676 0.24271 0.14696 0.0
H342 H 0.86687 0.27181 0.48254 0.0
H343 H 0.87926 0.34716 0.30798 0.0
H344 H 0.89298 0.35204 0.42664 0.0
H345 H 0.86103 0.32988 0.40611 0.0
H346 H 0.93608 0.28178 0.44197 0.0
H347 H 0.90902 0.30047 0.51487 0.0
H348 H 0.93852 0.32134 0.46272 0.0
H349 H 0.95695 0.20176 0.9722 0.0
H350 H 0.04775 0.2309 1.01113 0.0
H351 H 0.03043 0.27285 0.10736 0.0
H352 H 0.93879 0.19715 0.13733 0.0
H353 H 0.9012 0.20724 0.12299 0.0
H354 H 0.9224 0.21995 0.22395 0.0
H355 H 0.92286 0.26815 0.95947 0.0
H356 H 0.89061 0.2614 0.02797 0.0
H357 H 0.90772 0.23095 0.96537 0.0
H358 H 0.84218 0.21131 0.25923 0.0
C359 C 0.86855 0.24867 0.21993 0.0
C360 C 0.33043 1.01999 0.99703 0.0
C361 C 0.35119 1.0029 0.94311 0.0
C362 C 0.34691 0.97171 0.9378 0.0
C363 C 0.30886 0.97425 0.05637 0.0
C364 C 0.30834 1.00482 0.0508 0.0
C365 C 0.28134 1.01663 0.10532 0.0
H366 H 0.17306 0.97887 0.43483 0.0
C367 C 0.28859 0.96431 0.1301 0.0
C368 C 0.27035 0.98835 0.1568 0.0
H369 H 0.17662 0.06179 0.28158 0.0
H370 H 0.22222 0.04511 0.20216 0.0
H371 H 0.19279 0.93068 0.27689 0.0
H372 H 0.23682 0.98231 0.48745 0.0
H373 H 0.26297 0.9543 0.46269 0.0
H374 H 0.22688 0.94441 0.50968 0.0
H375 H 0.18877 0.92714 0.4021 0.0
H376 H 0.21771 0.90752 0.3407 0.0
C377 C 0.2583 0.02782 0.03311 0.0
C378 C 0.29112 0.04117 0.17437 0.0
C379 C 0.33009 0.88292 0.33401 0.0
C380 C 0.32422 0.87624 0.42855 0.0
C381 C 0.29569 0.88265 0.46456 0.0
C382 C 0.27511 0.89911 0.41109 0.0
C383 C 0.28371 0.91032 0.32283 0.0
C384 C 0.31027 0.90099 0.28386 0.0
C385 C 0.31737 0.9168 0.19349 0.0
C386 C 0.29132 0.93877 0.18807 0.0
C387 C 0.27204 0.9351 0.26444 0.0
C388 C 0.31748 0.8935 0.1128 0.0
C389 C 0.3478 0.93299 0.20477 0.0
C390 C 0.18292 0.99316 0.3819 0.0
C391 C 0.17038 1.02116 0.36221 0.0
C392 C 0.18531 0.03977 0.29679 0.0
C393 C 0.21149 0.02998 0.2498 0.0
C394 C 0.22314 1.0014 0.26891 0.0
C395 C 0.20903 0.98398 0.33604 0.0
C396 C 0.22601 0.95607 0.35813 0.0
C397 C 0.25013 0.95713 0.28379 0.0
C398 C 0.24916 0.98399 0.23162 0.0
C399 C 0.20527 0.92878 0.34425 0.0
C400 C 0.23878 0.95919 0.45951 0.0
H401 H 0.32226 0.93393 0.98489 0.0
H402 H 0.33157 0.04413 0.99746 0.0
H403 H 0.30898 0.03273 0.22166 0.0
H404 H 0.27233 0.04861 0.21874 0.0
H405 H 0.29986 0.0609 0.13591 0.0
H406 H 0.25404 1.01048 0.97873 0.0
H407 H 0.26659 0.04821 0.99712 0.0
H408 H 0.23662 0.03298 0.06531 0.0
H409 H 0.35162 0.8779 0.30381 0.0
H410 H 0.29028 0.87711 0.53663 0.0
H411 H 0.25406 0.90411 0.4428 0.0
H412 H 0.29742 0.89573 0.0674 0.0
H413 H 0.31764 0.87012 0.13915 0.0
H414 H 0.33776 0.89555 0.0687 0.0
H415 H 0.34741 0.94824 0.26644 0.0
H416 H 0.35395 0.94634 0.14285 0.0
H417 H 0.36625 0.9168 0.21451 0.0
H418 H 0.36119 0.95794 0.89455 0.0
C419 C 0.32537 0.95752 0.99242 0.0
C420 C 0.55525 0.3225 0.96926 0.0
C421 C 0.57199 0.34356 0.91538 0.0
C422 C 0.60311 0.33937 0.90837 0.0
C423 C 0.60122 0.30087 0.02604 0.0
C424 C 0.57069 0.30027 0.02164 0.0
C425 C 0.55911 0.27337 0.07713 0.0
H426 H 0.59484 0.16838 0.41762 0.0
C427 C 0.61145 0.28076 0.10005 0.0
C428 C 0.58751 0.2626 0.12803 0.0
H429 H 0.5121 0.17234 0.26364 0.0
H430 H 0.53049 0.21562 0.17572 0.0
H431 H 0.64502 0.18643 0.25179 0.0
H432 H 0.59406 0.23074 0.4632 0.0
H433 H 0.62099 0.25751 0.4332 0.0
H434 H 0.63229 0.22215 0.48318 0.0
H435 H 0.64618 0.18064 0.37694 0.0
H436 H 0.66769 0.20972 0.32394 0.0
C437 C 0.54782 0.25001 1.00588 0.0
C438 C 0.53484 0.28344 0.14639 0.0
C439 C 0.6909 0.32483 0.3056 0.0
C440 C 0.69705 0.31952 0.40081 0.0
C441 C 0.6915 0.29078 0.43726 0.0
C442 C 0.67622 0.26939 0.38319 0.0
C443 C 0.66508 0.27743 0.29424 0.0
C444 C 0.6737 0.30429 0.25509 0.0
C445 C 0.6578 0.31093 0.16451 0.0
C446 C 0.63689 0.28399 0.15824 0.0
C447 C 0.64077 0.26492 0.23544 0.0
C448 C 0.68113 0.3124 0.08439 0.0
C449 C 0.64025 0.34058 0.17603 0.0
C450 C 0.58097 0.17782 0.36276 0.0
C451 C 0.55241 0.16619 0.34576 0.0
C452 C 0.53444 0.18047 0.27728 0.0
C453 C 0.5452 0.20536 0.22565 0.0
C454 C 0.57408 0.21646 0.24344 0.0
C455 C 0.59112 0.20278 0.31244 0.0
C456 C 0.61941 0.21942 0.33272 0.0
C457 C 0.61881 0.24293 0.25584 0.0
C458 C 0.59196 0.24175 0.20369 0.0
C459 C 0.6461 0.19794 0.32101 0.0
C460 C 0.61679 0.23312 0.43298 0.0
H461 H 0.64114 0.31453 0.95322 0.0
H462 H 0.53116 0.32359 0.971 0.0
H463 H 0.54335 0.30178 0.19179 0.0
H464 H 0.52774 0.26502 0.19287 0.0
H465 H 0.5149 0.2917 0.10803 0.0
H466 H 0.56464 0.24634 0.94973 0.0
H467 H 0.52684 0.25768 0.97201 0.0
H468 H 0.54382 0.22804 0.03823 0.0
H469 H 0.6954 0.34645 0.27508 0.0
H470 H 0.69675 0.28576 0.50987 0.0
H471 H 0.67186 0.24819 0.41509 0.0
H472 H 0.70436 0.31424 0.11133 0.0
H473 H 0.67787 0.33244 0.03966 0.0
H474 H 0.68028 0.29211 0.03957 0.0
H475 H 0.62432 0.33897 0.23557 0.0
H476 H 0.62752 0.34676 0.11275 0.0
H477 H 0.65541 0.35964 0.18947 0.0
H478 H 0.61662 0.3539 0.86498 0.0
C479 C 0.61761 0.31762 0.96176 0.0
Gd480 Gd 0.04942 0.03251 0.78547 0.0
Gd481 Gd 1.00331 0.04457 0.66557 0.0
C482 C 0.02333 0.97764 0.66043 0.0
C483 C 0.08923 1.01042 0.89657 0.0
C484 C 0.11051 0.98626 0.87837 0.0
C485 C 0.11783 0.97863 0.78545 0.0
C486 C 0.11988 0.96792 0.95205 0.0
C487 C 0.13859 0.93151 0.83914 0.0
C488 C 0.13389 0.9408 0.93276 0.0
C489 C 0.13202 0.95159 0.76605 0.0
C490 C 0.07133 0.04838 0.6128 0.0
C491 C 0.02705 0.099 0.7977 0.0
C492 C 0.96545 0.0644 0.54265 0.0
C493 C 0.94068 0.08572 0.54156 0.0
C494 C 0.93345 0.10225 0.62201 0.0
C495 C 0.92424 0.08982 0.45889 0.0
C496 C 0.89556 0.12936 0.53367 0.0
C497 C 0.90186 0.11144 0.45485 0.0
C498 C 0.91102 0.12387 0.61817 0.0
C499 C 0.98115 0.02862 0.83816 0.0
O500 O 0.03619 0.98481 0.741 0.0
O501 O 1.01269 0.99913 0.60747 0.0
O502 O 0.09337 0.03483 0.84844 0.0
O503 O 0.06128 1.00212 0.89809 0.0
O504 O 0.07952 0.05983 0.69192 0.0
O505 O 0.04966 0.03089 0.62795 0.0
O506 O 1.01448 0.09194 0.71642 0.0
O507 O 0.03942 0.07764 0.84796 0.0
O508 O 0.96113 0.04045 0.59278 0.0
O509 O 0.99215 0.07562 0.55388 0.0
O510 O 0.97186 1.0185 0.75838 0.0
O511 O 1.00312 0.04567 0.82322 0.0
H512 H 0.11071 0.99257 0.72735 0.0
H513 H 0.11433 0.97345 0.02405 0.0
H514 H 0.13822 0.92596 0.99123 0.0
H515 H 0.13563 0.94537 0.69343 0.0
H516 H 0.94572 0.099 0.68689 0.0
H517 H 0.92937 0.07698 0.39645 0.0
H518 H 0.8908 0.1153 0.38823 0.0
H519 H 0.90656 0.13709 0.68029 0.0
Gd520 Gd 0.53459 0.05409 0.7959 0.0
Gd521 Gd 0.5266 1.0066 0.67536 0.0
C522 C 0.59224 0.03164 0.67571 0.0
C523 C 0.55139 0.09388 0.91726 0.0
C524 C 0.5723 0.11909 0.91574 0.0
C525 C 0.58886 0.12543 0.83468 0.0
C526 C 0.57638 0.13649 0.99645 0.0
C527 C 0.61618 0.16414 0.91897 0.0
C528 C 0.59811 0.15888 0.99814 0.0
C529 C 0.61059 0.14782 0.8362 0.0
C530 C 0.52128 0.07439 0.61848 0.0
C531 C 0.46901 0.0297 0.79397 0.0
C532 C 0.50841 0.96685 0.556 0.0
C533 C 0.48531 0.94366 0.55923 0.0
C534 C 0.46983 0.9379 0.6429 0.0
C535 C 0.47764 0.92813 0.47743 0.0
C536 C 0.437 0.90335 0.56026 0.0
C537 C 0.45371 0.90814 0.47782 0.0
C538 C 0.44593 0.91783 0.6435 0.0
C539 C 0.54109 0.9862 0.85113 0.0
O540 O 0.58318 0.04462 0.75428 0.0
O541 O 0.57244 1.01803 0.62236 0.0
O542 O 0.52793 0.09679 0.86384 0.0
O543 O 0.56327 0.06728 0.9116 0.0
O544 O 0.50902 0.08372 0.69506 0.0
O545 O 0.53878 0.05331 0.639 0.0
O546 O 0.47811 1.01746 0.71443 0.0
O547 O 0.48894 0.04217 0.84925 0.0
O548 O 0.53102 0.96284 0.61226 0.0
O549 O 0.49876 0.99437 0.55661 0.0
O550 O 0.55342 0.97766 0.77382 0.0
O551 O 0.52287 1.00698 0.8324 0.0
H552 H 0.58564 0.11241 0.77126 0.0
H553 H 0.56355 0.13204 0.05933 0.0
H554 H 0.60199 0.17069 0.06349 0.0
H555 H 0.62388 0.1515 0.77381 0.0
H556 H 0.47565 0.94963 0.70698 0.0
H557 H 0.48942 0.93231 0.41235 0.0
H558 H 0.44724 0.89789 0.41193 0.0
H559 H 0.43375 0.91452 0.70828 0.0
Gd560 Gd 0.51467 0.52616 0.77253 0.0
Gd561 Gd 0.56287 0.5203 0.65383 0.0
C562 C 0.53595 0.5849 0.65379 0.0
C563 C 0.47367 0.543 0.88871 0.0
C564 C 0.45084 0.5664 0.88483 0.0
C565 C 0.44605 0.58262 0.80177 0.0
C566 C 0.43473 0.57364 0.96563 0.0
C567 C 0.4111 0.6151 0.88319 0.0
C568 C 0.41501 0.59776 0.96492 0.0
C569 C 0.42629 0.60675 0.80088 0.0
C570 C 0.4963 0.50934 0.59708 0.0
C571 C 0.54138 0.4615 0.77173 0.0
C572 C 0.60343 0.50345 0.53567 0.0
C573 C 0.62704 0.48078 0.53805 0.0
C574 C 0.63213 0.46399 0.61972 0.0
C575 C 0.64346 0.4746 0.45687 0.0
C576 C 0.66731 0.43246 0.5354 0.0
C577 C 0.66345 0.45069 0.45547 0.0
C578 C 0.65218 0.44012 0.61857 0.0
C579 C 0.5812 0.53457 0.83262 0.0
O580 O 0.52348 0.57506 0.7321 0.0
O581 O 0.55007 0.56576 0.59987 0.0
O582 O 0.47022 0.52109 0.82932 0.0
O583 O 0.50122 0.55243 0.8932 0.0
O584 O 0.48859 0.49663 0.67472 0.0
O585 O 0.51538 0.52943 0.61527 0.0
O586 O 0.55373 0.47134 0.69311 0.0
O587 O 0.52775 0.48077 0.82667 0.0
O588 O 0.6068 0.52588 0.59319 0.0
O589 O 0.57617 0.49313 0.53505 0.0
O590 O 0.59077 0.54718 0.75678 0.0
O591 O 0.56135 0.51588 0.81039 0.0
H592 H 0.45825 0.57717 0.73843 0.0
H593 H 0.4382 0.56133 0.03026 0.0
H594 H 0.4042 0.60381 0.03012 0.0
H595 H 0.4237 0.61948 0.73671 0.0
H596 H 0.61979 0.46869 0.68341 0.0
H597 H 0.63991 0.48746 0.39334 0.0
H598 H 0.67437 0.44544 0.38979 0.0
H599 H 0.65492 0.42696 0.68179 0.0
Gd600 Gd 1.00766 0.49165 0.87872 0.0
Gd601 Gd 1.0153 0.54177 0.7697 0.0
C602 C 0.95112 0.51491 0.75465 0.0
C603 C 0.98975 0.44976 0.9911 0.0
C604 C 0.96786 0.42544 0.98469 0.0
C605 C 0.95282 0.41972 0.90003 0.0
C606 C 0.96079 0.40879 0.06479 0.0
C607 C 0.92127 0.38314 0.97858 0.0
C608 C 0.93772 0.38782 0.06187 0.0
C609 C 0.9298 0.39865 0.89687 0.0
C610 C 0.02452 0.47533 0.7008 0.0
C611 C 0.07268 0.51773 0.88711 0.0
C612 C 0.03248 0.58706 0.67217 0.0
C613 C 0.0538 0.6102 0.70126 0.0
C614 C 0.05745 0.61668 0.79734 0.0
C615 C 0.07491 0.62052 0.63701 0.0
C616 C 0.10732 0.6352 0.76673 0.0
C617 C 0.10144 0.63319 0.66938 0.0
C618 C 0.08392 0.62952 0.82975 0.0
C619 C 0.99896 0.55745 0.94837 0.0
O620 O 0.95946 0.50176 0.83378 0.0
O621 O 0.97141 0.5289 0.70467 0.0
O622 O 1.013 0.44727 0.93686 0.0
O623 O 0.97876 0.47678 0.99139 0.0
O624 O 0.03527 0.46442 0.77772 0.0
O625 O 1.00596 0.49551 0.72138 0.0
O626 O 0.06401 0.53166 0.80983 0.0
O627 O 0.05264 0.50378 0.93812 0.0
O628 O 1.00737 0.58659 0.71807 0.0
O629 O 0.04407 0.56044 0.6624 0.0
O630 O 0.98608 0.56643 0.8724 0.0
O631 O 1.018 0.53789 0.9263 0.0
H632 H 0.95821 0.43228 0.83724 0.0
H633 H 0.97229 0.41284 0.13064 0.0
H634 H 0.93158 0.37675 0.12663 0.0
H635 H 0.9179 0.3954 0.83139 0.0
H636 H 0.0413 0.60903 0.84847 0.0
H637 H 0.0724 0.61583 0.56271 0.0
H638 H 0.11873 0.63742 0.61813 0.0
H639 H 0.08746 0.63138 0.90486 0.0
C640 C 0.14148 0.05781 0.46339 0.0
C641 C 0.14269 0.03059 0.41413 0.0
H642 H 0.11813 0.08468 0.56465 0.0
C643 C 0.11837 1.01078 0.42338 0.0
H644 H 0.15984 0.07347 0.45888 0.0
C645 C 0.09421 1.01739 0.48285 0.0
C646 C 0.09385 0.04382 0.53629 0.0
H647 H 0.11845 0.98963 0.38647 0.0
H648 H 0.07658 1.00104 0.49061 0.0
C649 C 0.11756 0.06418 0.52427 0.0
C650 C 0.51488 0.14188 0.45494 0.0
C651 C 0.54168 0.14031 0.40394 0.0
H652 H 0.48747 0.12243 0.56284 0.0
C653 C 0.56003 0.11514 0.41751 0.0
H654 H 0.50036 0.16103 0.44704 0.0
C655 C 0.55247 0.09283 0.48277 0.0
C656 C 0.52656 0.09525 0.53783 0.0
H657 H 0.58081 0.11314 0.37942 0.0
H658 H 0.56774 0.07441 0.49331 0.0
C659 C 0.50755 0.11978 0.5216 0.0
C660 C 0.43544 0.53987 0.43913 0.0
C661 C 0.41866 0.51383 0.42153 0.0
H662 H 0.47391 0.55898 0.50722 0.0
C663 C 0.43155 0.48613 0.44423 0.0
H664 H 0.42577 0.56159 0.42537 0.0
C665 C 0.45872 0.48465 0.49314 0.0
C666 C 0.474 0.5108 0.51929 0.0
H667 H 0.41889 0.46575 0.43419 0.0
H668 H 0.46647 0.46311 0.5177 0.0
C669 C 0.46297 0.53837 0.48696 0.0
C670 C 0.99757 0.44718 0.46308 0.0
C671 C 1.00731 0.4172 0.46317 0.0
H672 H 0.99528 0.48888 0.53723 0.0
C673 C 0.02666 0.40811 0.5356 0.0
H674 H 0.98296 0.45519 0.4079 0.0
C675 C 0.03394 0.42766 0.60981 0.0
C676 C 1.02198 0.45678 0.61358 0.0
H677 H 0.03443 0.38524 0.53861 0.0
H678 H 0.0475 0.41933 0.66709 0.0
C679 C 1.00465 0.4666 0.53732 0.0
C680 C 0.94254 0.06401 0.04842 0.0
C681 C 0.91398 0.05083 0.04494 0.0
H682 H 0.98618 0.06714 0.98747 0.0
C683 C 0.90938 0.02707 0.98202 0.0
H684 H 0.94678 0.08254 0.09553 0.0
C685 C 0.93199 1.01838 0.91907 0.0
C686 C 0.95979 0.03318 0.91774 0.0
H687 H 0.8876 1.01676 0.97636 0.0
H688 H 0.92706 1.00125 0.86763 0.0
C689 C 0.96515 0.05524 0.98607 0.0
C690 C 0.50434 0.93956 0.04328 0.0
C691 C 0.52484 0.91598 0.0555 0.0
H692 H 0.49354 0.98046 0.9718 0.0
C693 C 0.55222 0.91779 1.00784 0.0
H694 H 0.48301 0.93894 0.07879 0.0
C695 C 0.55809 0.94148 0.94529 0.0
C696 C 0.537 0.96431 0.92988 0.0
H697 H 0.56839 0.89998 1.01459 0.0
H698 H 0.57875 0.9413 0.90603 0.0
C699 C 0.51042 0.96349 0.98208 0.0
C700 C 0.64642 0.54302 1.00432 0.0
C701 C 0.64236 0.5182 0.06359 0.0
H702 H 0.63037 0.56767 0.88464 0.0
C703 C 0.61626 0.50102 0.05237 0.0
H704 H 0.66638 0.55651 1.01029 0.0
C705 C 0.59556 0.50749 0.98111 0.0
C706 C 0.60052 0.53111 0.91786 0.0
H707 H 0.61242 0.48175 0.09675 0.0
H708 H 0.57639 0.493 0.97276 0.0
C709 C 0.62583 0.54929 0.93195 0.0
C710 C 0.99393 0.62843 0.09467 0.0
C711 C 1.02012 0.62688 0.14896 0.0
H712 H 0.9666 0.60767 0.9892 0.0
C713 C 0.0364 0.59994 0.1479 0.0
H714 H 0.98101 0.64884 0.09283 0.0
C715 C 0.02804 0.57619 0.08876 0.0
C716 C 1.00345 0.57889 0.02791 0.0
H717 H 0.05661 0.59785 0.18912 0.0
H718 H 0.04194 0.55647 0.08647 0.0
C719 C 0.98578 0.60482 0.03467 0.0
C720 C 0.87738 0.21087 0.52135 0.0
C721 C 0.85573 0.21129 0.4493 0.0
H722 H 0.90698 0.18463 0.60395 0.0
C723 C 0.84129 0.18417 0.42693 0.0
H724 H 0.8891 0.23088 0.54264 0.0
C725 C 0.85224 0.15707 0.46183 0.0
C726 C 0.87717 0.15671 0.52196 0.0
H727 H 0.82345 0.18347 0.37563 0.0
H728 H 0.84269 0.13639 0.43606 0.0
C729 C 0.88795 0.18394 0.55703 0.0
C730 C 0.35404 0.89255 0.56612 0.0
C731 C 0.35027 0.87216 0.49191 0.0
H732 H 0.38473 0.91876 0.64543 0.0
C733 C 0.37515 0.85572 0.46147 0.0
H734 H 0.33543 0.9056 0.59166 0.0
C735 C 0.40377 0.86346 0.49217 0.0
C736 C 0.40784 0.88755 0.55439 0.0
H737 H 0.37286 0.83939 0.40573 0.0
H738 H 0.42278 0.85247 0.46061 0.0
C739 C 0.38259 0.90029 0.59678 0.0
C740 C 0.71545 0.37138 0.43363 0.0
C741 C 0.69962 0.34598 0.46341 0.0
H742 H 0.71796 0.41913 0.43473 0.0
C743 C 0.67877 0.34916 0.53626 0.0
H744 H 0.73195 0.36953 0.37858 0.0
C745 C 0.6704 0.3775 0.56722 0.0
C746 C 0.68298 0.40325 0.5267 0.0
H747 H 0.66604 0.33015 0.56088 0.0
H748 H 0.65178 0.37907 0.61521 0.0
C749 C 0.70716 0.3998 0.4649 0.0
C750 C 0.17216 0.59234 0.84318 0.0
C751 C 0.19143 0.60094 0.77072 0.0
H752 H 0.12932 0.59828 0.90308 0.0
C753 C 0.18802 0.62931 0.73013 0.0
H754 H 0.17484 0.57083 0.877 0.0
C755 C 0.16169 0.64527 0.74481 0.0
C756 C 0.13877 0.63251 0.79886 0.0
H757 H 0.20303 0.63675 0.67536 0.0
H758 H 0.15732 0.66467 0.70152 0.0
C759 C 0.14593 0.60828 0.85795 0.0
C760 C 0.14844 0.85152 0.89846 0.0
C761 C 0.12399 0.84035 0.84763 0.0
H762 H 0.17364 0.89058 0.93315 0.0
C763 C 0.11453 0.85581 0.76718 0.0
H764 H 0.15674 0.8397 0.95957 0.0
C765 C 0.12357 0.88531 0.75353 0.0
C766 C 0.14261 0.89913 0.81936 0.0
H767 H 0.09622 0.84723 0.72535 0.0
H768 H 0.11189 0.89825 0.70082 0.0
C769 C 0.15781 0.88093 0.88418 0.0
C770 C 0.67174 0.21857 0.02122 0.0
C771 C 0.69855 0.20348 1.00106 0.0
H772 H 0.62404 0.21788 1.01094 0.0
C773 C 0.6979 0.1812 0.93108 0.0
H774 H 0.67136 0.23676 0.07105 0.0
C775 C 0.67086 0.1707 0.89577 0.0
C776 C 0.64381 0.18226 0.92912 0.0
H777 H 0.71775 0.16899 0.91167 0.0
H778 H 0.67128 0.1512 0.85078 0.0
C779 C 0.64454 0.20777 0.98665 0.0
C780 C 0.36131 0.67578 0.97811 0.0
C781 C 0.37754 0.70122 0.95085 0.0
H782 H 0.35898 0.62801 0.9766 0.0
C783 C 0.39929 0.69816 0.88047 0.0
H784 H 0.34398 0.67748 0.03072 0.0
C785 C 0.40807 0.66987 0.85021 0.0
C786 C 0.39509 0.64413 0.88915 0.0
H787 H 0.4123 0.71718 0.85755 0.0
H788 H 0.42727 0.66829 0.80448 0.0
C789 C 0.3701 0.64742 0.94777 0.0
C790 C 0.83868 0.36981 0.96796 0.0
C791 C 0.83522 0.34927 0.04185 0.0
H792 H 0.86882 0.3971 0.89083 0.0
C793 C 0.86046 0.33346 0.07307 0.0
H794 H 0.81981 0.3824 0.94169 0.0
C795 C 0.88896 0.34202 0.04357 0.0
C796 C 0.89257 0.3664 0.9823 0.0
H797 H 0.85845 0.31704 0.12853 0.0
H798 H 0.9082 0.33149 0.07526 0.0
C799 C 0.86709 0.37846 0.93893 0.0
C800 C 0.03473 0.16623 0.96289 0.0
C801 C 1.0132 0.18608 0.9272 0.0
H802 H 0.05582 0.12332 0.951 0.0
C803 C 0.9981 0.17791 0.844 0.0
H804 H 0.04654 0.17152 0.02723 0.0
C805 C 1.00353 0.15036 0.7998 0.0
C806 C 0.02397 0.12984 0.83805 0.0
H807 H 0.98139 0.1926 0.81427 0.0
H808 H 0.99078 0.14468 0.73757 0.0
C809 C 0.03987 0.13843 0.91937 0.0
C810 C 0.39888 0.03322 0.94755 0.0
C811 C 0.37849 1.01567 0.89644 0.0
H812 H 0.44322 0.05127 0.95613 0.0
C813 C 0.38729 1.00548 0.80677 0.0
H814 H 0.39319 0.0411 1.01718 0.0
C815 C 0.41611 1.01096 0.77203 0.0
C816 C 0.43716 0.02691 0.82565 0.0
H817 H 0.37225 0.99195 0.76499 0.0
H818 H 0.42223 1.00165 0.70454 0.0
C819 C 0.4278 0.03872 0.91276 0.0
C820 C 0.54061 0.39053 0.92275 0.0
C821 C 0.55876 0.37102 0.87067 0.0
H822 H 0.52103 0.43419 0.93324 0.0
C823 C 0.5686 0.38069 0.78154 0.0
H824 H 0.53294 0.38415 0.992 0.0
C825 C 0.56209 0.40949 0.74813 0.0
C826 C 0.54541 0.42966 0.80257 0.0
H827 H 0.5825 0.36633 0.73891 0.0
H828 H 0.57108 0.41628 0.68087 0.0
C829 C 0.53407 0.41944 0.88928 0.0
C830 C 0.13545 0.54474 0.04482 0.0
C831 C 0.15851 0.52411 0.02704 0.0
H832 H 0.09091 0.5592 1.01331 0.0
C833 C 0.15421 0.50336 0.95372 0.0
H834 H 0.13797 0.56127 0.09985 0.0
C835 C 0.12684 0.50211 0.90418 0.0
C836 C 0.10339 0.52183 0.92603 0.0
H837 H 0.17129 0.48703 0.93834 0.0
H838 H 0.12356 0.48492 0.85163 0.0
C839 C 0.10839 0.54359 0.99523 0.0
C840 C 0.03905 0.89424 0.61661 0.0
C841 C 1.01921 0.88795 0.54197 0.0
H842 H 0.0562 0.9274 0.71304 0.0
C843 C 0.99938 0.91064 0.51412 0.0
H844 H 0.05479 0.87746 0.63972 0.0
C845 C 1.00047 0.93909 0.55473 0.0
C846 C 1.02118 0.94602 0.62586 0.0
H847 H 0.98342 0.90667 0.45827 0.0
H848 H 0.98524 0.95594 0.52874 0.0
C849 C 0.03998 0.92295 0.65829 0.0
C850 C 0.66978 0.06465 0.63453 0.0
C851 C 0.68032 0.04777 0.55778 0.0
H852 H 0.63435 0.07263 0.73275 0.0
C853 C 0.66265 0.02383 0.52594 0.0
H854 H 0.68271 0.08332 0.66077 0.0
C855 C 0.63458 1.018 0.56629 0.0
C856 C 0.62356 0.0356 0.64076 0.0
H857 H 0.66978 1.01063 0.46635 0.0
H858 H 0.62112 1.00014 0.53727 0.0
C859 C 0.64198 0.0585 0.67593 0.0
C860 C 0.53674 0.65592 0.50222 0.0
C861 C 0.51762 0.67503 0.55228 0.0
H862 H 0.55741 0.61269 0.49412 0.0
C863 C 0.50722 0.66521 0.64061 0.0
H864 H 0.54477 0.6624 0.43347 0.0
C865 C 0.51413 0.63661 0.67507 0.0
C866 C 0.53172 0.61674 0.62244 0.0
H867 H 0.49234 0.67919 0.6812 0.0
H868 H 0.50459 0.62967 0.74142 0.0
C869 C 0.54366 0.62718 0.53672 0.0
C870 C 0.8837 0.51686 0.58883 0.0
C871 C 0.86307 0.49851 0.63576 0.0
H872 H 0.9275 0.5363 0.58877 0.0
C873 C 0.87064 0.48831 0.72659 0.0
H874 H 0.87891 0.5248 0.51854 0.0
C875 C 0.89864 0.49455 0.76656 0.0
C876 C 0.92 0.51132 0.71721 0.0
H877 H 0.85533 0.47425 0.76532 0.0
H878 H 0.9039 0.48524 0.83482 0.0
C879 C 0.91177 0.52314 0.62892 0.0
loop_
_geom_bond_atom_site_label_1
_geom_bond_atom_site_label_2
_geom_bond_distance
_geom_bond_site_symmetry_2
_ccdc_geom_bond_type
C0 C1 1.391 . S
C0 C4 1.391 . S
C0 H42 0.948 . S
C1 C0 1.391 . S
C1 C2 1.391 . S
C2 C1 1.391 . S
C2 H58 0.947 . S
C2 C59 1.392 . S
C3 C4 1.391 . S
C3 C7 1.397 . S
C3 C59 1.419 . S
C4 C0 1.391 . S
C4 C3 1.391 . S
C4 C5 1.399 . S
C5 C4 1.399 . S
C5 C8 1.396 . S
C5 C17 1.453 . S
C5 C18 1.684 . S
H6 C30 0.948 . S
C7 C3 1.397 . S
C7 C8 1.394 . S
C7 C26 1.723 . S
C8 C5 1.396 . S
C8 C7 1.394 . S
C8 C38 1.723 . S
H9 C32 0.947 . S
H10 C33 0.948 . S
H11 C39 0.982 . S
H12 C40 0.979 . S
H13 C40 0.980 . S
H14 C40 0.983 . S
H15 C39 0.979 . S
H16 C39 0.977 . S
C17 C5 1.453 . S
C17 H46 0.982 . S
C17 H47 0.979 . S
C17 H48 0.977 . S
C18 C5 1.684 . S
C18 H43 0.979 . S
C18 H44 0.980 . S
C18 H45 0.983 . S
C19 C20 1.391 . S
C19 C24 1.391 . S
C19 H49 0.948 . S
C20 C19 1.391 . S
C20 C21 1.391 . S
C21 C20 1.391 . S
C21 C22 1.392 . S
C21 H50 0.947 . S
C22 C21 1.392 . S
C22 C23 1.419 . S
C22 H51 0.948 . S
C23 C22 1.419 . S
C23 C24 1.391 . S
C23 C27 1.397 . S
C24 C19 1.391 . S
C24 C23 1.391 . S
C24 C25 1.399 . S
C25 C24 1.399 . S
C25 C26 1.396 . S
C25 C28 1.453 . S
C25 C29 1.684 . S
C26 C7 1.723 . S
C26 C25 1.396 . S
C26 C27 1.394 . S
C27 C23 1.397 . S
C27 C26 1.394 . S
C27 C37 1.723 . S
C28 C25 1.453 . S
C28 H52 0.982 . S
C28 H53 0.979 . S
C28 H54 0.977 . S
C29 C25 1.684 . S
C29 H55 0.979 . S
C29 H56 0.980 . S
C29 H57 0.983 . S
C30 H6 0.948 . S
C30 C31 1.391 . S
C30 C35 1.391 . S
C31 C30 1.391 . S
C31 C32 1.391 . S
C32 H9 0.947 . S
C32 C31 1.391 . S
C32 C33 1.392 . S
C33 H10 0.948 . S
C33 C32 1.392 . S
C33 C34 1.419 . S
C34 C33 1.419 . S
C34 C35 1.391 . S
C34 C38 1.397 . S
C35 C30 1.391 . S
C35 C34 1.391 . S
C35 C36 1.399 . S
C36 C35 1.399 . S
C36 C37 1.396 . S
C36 C39 1.453 . S
C36 C40 1.684 . S
C37 C27 1.723 . S
C37 C36 1.396 . S
C37 C38 1.394 . S
C38 C8 1.723 . S
C38 C34 1.397 . S
C38 C37 1.394 . S
C39 H11 0.982 . S
C39 H15 0.979 . S
C39 H16 0.977 . S
C39 C36 1.453 . S
C40 H12 0.979 . S
C40 H13 0.980 . S
C40 H14 0.983 . S
C40 C36 1.684 . S
H41 C59 0.948 . S
H42 C0 0.948 . S
H43 C18 0.979 . S
H44 C18 0.980 . S
H45 C18 0.983 . S
H46 C17 0.982 . S
H47 C17 0.979 . S
H48 C17 0.977 . S
H49 C19 0.948 . S
H50 C21 0.947 . S
H51 C22 0.948 . S
H52 C28 0.982 . S
H53 C28 0.979 . S
H54 C28 0.977 . S
H55 C29 0.979 . S
H56 C29 0.980 . S
H57 C29 0.983 . S
H58 C2 0.947 . S
C59 C2 1.392 . S
C59 C3 1.419 . S
C59 H41 0.948 . S
C60 C61 1.391 . S
C60 C64 1.391 . S
C60 H102 0.948 . S
C61 C60 1.391 . S
C61 C62 1.391 . S
C62 C61 1.391 . S
C62 H118 0.947 . S
C62 C119 1.392 . S
C63 C64 1.391 . S
C63 C67 1.397 1_655 S
C63 C119 1.419 . S
C64 C60 1.391 . S
C64 C63 1.391 . S
C64 C65 1.399 . S
C65 C64 1.399 . S
C65 C68 1.396 1_655 S
C65 C77 1.453 1_655 S
C65 C78 1.684 . S
H66 C90 0.948 . S
C67 C63 1.397 1_455 S
C67 C68 1.394 . S
C67 C86 1.723 . S
C68 C65 1.396 1_455 S
C68 C67 1.394 . S
C68 C98 1.723 . S
H69 C92 0.947 . S
H70 C93 0.948 . S
H71 C99 0.982 . S
H72 C100 0.979 . S
H73 C100 0.980 . S
H74 C100 0.983 . S
H75 C99 0.979 . S
H76 C99 0.977 . S
C77 C65 1.453 1_455 S
C77 H106 0.982 . S
C77 H107 0.979 . S
C77 H108 0.977 . S
C78 C65 1.684 . S
C78 H103 0.979 . S
C78 H104 0.980 . S
C78 H105 0.983 . S
C79 C80 1.391 . S
C79 C84 1.391 . S
C79 H109 0.948 . S
C80 C79 1.391 . S
C80 C81 1.391 . S
C81 C80 1.391 . S
C81 C82 1.392 . S
C81 H110 0.947 . S
C82 C81 1.392 . S
C82 C83 1.419 . S
C82 H111 0.948 . S
C83 C82 1.419 . S
C83 C84 1.391 . S
C83 C87 1.397 1_655 S
C84 C79 1.391 . S
C84 C83 1.391 . S
C84 C85 1.399 . S
C85 C84 1.399 . S
C85 C86 1.396 1_655 S
C85 C88 1.453 1_655 S
C85 C89 1.684 . S
C86 C67 1.723 . S
C86 C85 1.396 1_455 S
C86 C87 1.394 . S
C87 C83 1.397 1_455 S
C87 C86 1.394 . S
C87 C97 1.723 . S
C88 C85 1.453 1_455 S
C88 H112 0.982 . S
C88 H113 0.979 . S
C88 H114 0.977 . S
C89 C85 1.684 . S
C89 H115 0.979 . S
C89 H116 0.980 . S
C89 H117 0.983 . S
C90 H66 0.948 . S
C90 C91 1.391 . S
C90 C95 1.391 . S
C91 C90 1.391 . S
C91 C92 1.391 . S
C92 H69 0.947 . S
C92 C91 1.391 . S
C92 C93 1.392 . S
C93 H70 0.948 . S
C93 C92 1.392 . S
C93 C94 1.419 . S
C94 C93 1.419 . S
C94 C95 1.391 . S
C94 C98 1.397 1_655 S
C95 C90 1.391 . S
C95 C94 1.391 . S
C95 C96 1.399 . S
C96 C95 1.399 . S
C96 C97 1.396 1_655 S
C96 C99 1.453 1_655 S
C96 C100 1.684 . S
C97 C87 1.723 . S
C97 C96 1.396 1_455 S
C97 C98 1.394 . S
C98 C68 1.723 . S
C98 C94 1.397 1_455 S
C98 C97 1.394 . S
C99 H71 0.982 . S
C99 H75 0.979 . S
C99 H76 0.977 . S
C99 C96 1.453 1_455 S
C100 H72 0.979 . S
C100 H73 0.980 . S
C100 H74 0.983 . S
C100 C96 1.684 . S
H101 C119 0.948 . S
H102 C60 0.948 . S
H103 C78 0.979 . S
H104 C78 0.980 . S
H105 C78 0.983 . S
H106 C77 0.982 . S
H107 C77 0.979 . S
H108 C77 0.977 . S
H109 C79 0.948 . S
H110 C81 0.947 . S
H111 C82 0.948 . S
H112 C88 0.982 . S
H113 C88 0.979 . S
H114 C88 0.977 . S
H115 C89 0.979 . S
H116 C89 0.980 . S
H117 C89 0.983 . S
H118 C62 0.947 . S
C119 C62 1.392 . S
C119 C63 1.419 . S
C119 H101 0.948 . S
C120 C121 1.391 . S
C120 C124 1.391 . S
C120 H162 0.948 . S
C121 C120 1.391 . S
C121 C122 1.391 . S
C122 C121 1.391 . S
C122 H178 0.947 . S
C122 C179 1.392 . S
C123 C124 1.391 . S
C123 C127 1.397 1_565 S
C123 C179 1.419 . S
C124 C120 1.391 . S
C124 C123 1.391 . S
C124 C125 1.399 . S
C125 C124 1.399 . S
C125 C128 1.396 1_565 S
C125 C137 1.453 1_565 S
C125 C138 1.684 . S
H126 C150 0.948 . S
C127 C123 1.397 1_545 S
C127 C128 1.394 . S
C127 C146 1.723 . S
C128 C125 1.396 1_545 S
C128 C127 1.394 . S
C128 C158 1.723 . S
H129 C152 0.947 . S
H130 C153 0.948 . S
H131 C159 0.982 . S
H132 C160 0.979 . S
H133 C160 0.980 . S
H134 C160 0.983 . S
H135 C159 0.979 . S
H136 C159 0.977 . S
C137 C125 1.453 1_545 S
C137 H166 0.982 . S
C137 H167 0.979 . S
C137 H168 0.977 . S
C138 C125 1.684 . S
C138 H163 0.979 . S
C138 H164 0.980 . S
C138 H165 0.983 . S
C139 C140 1.391 . S
C139 C144 1.391 . S
C139 H169 0.948 . S
C140 C139 1.391 . S
C140 C141 1.391 . S
C141 C140 1.391 . S
C141 C142 1.392 . S
C141 H170 0.947 . S
C142 C141 1.392 . S
C142 C143 1.419 . S
C142 H171 0.948 . S
C143 C142 1.419 . S
C143 C144 1.391 . S
C143 C147 1.397 1_565 S
C144 C139 1.391 . S
C144 C143 1.391 . S
C144 C145 1.399 . S
C145 C144 1.399 . S
C145 C146 1.396 1_565 S
C145 C148 1.453 1_565 S
C145 C149 1.684 . S
C146 C127 1.723 . S
C146 C145 1.396 1_545 S
C146 C147 1.394 . S
C147 C143 1.397 1_545 S
C147 C146 1.394 . S
C147 C157 1.723 . S
C148 C145 1.453 1_545 S
C148 H172 0.982 . S
C148 H173 0.979 . S
C148 H174 0.977 . S
C149 C145 1.684 . S
C149 H175 0.979 . S
C149 H176 0.980 . S
C149 H177 0.983 . S
C150 H126 0.948 . S
C150 C151 1.391 . S
C150 C155 1.391 . S
C151 C150 1.391 . S
C151 C152 1.391 . S
C152 H129 0.947 . S
C152 C151 1.391 . S
C152 C153 1.392 . S
C153 H130 0.948 . S
C153 C152 1.392 . S
C153 C154 1.419 . S
C154 C153 1.419 . S
C154 C155 1.391 . S
C154 C158 1.397 1_565 S
C155 C150 1.391 . S
C155 C154 1.391 . S
C155 C156 1.399 . S
C156 C155 1.399 . S
C156 C157 1.396 1_565 S
C156 C159 1.453 1_565 S
C156 C160 1.684 . S
C157 C147 1.723 . S
C157 C156 1.396 1_545 S
C157 C158 1.394 . S
C158 C128 1.723 . S
C158 C154 1.397 1_545 S
C158 C157 1.394 . S
C159 H131 0.982 . S
C159 H135 0.979 . S
C159 H136 0.977 . S
C159 C156 1.453 1_545 S
C160 H132 0.979 . S
C160 H133 0.980 . S
C160 H134 0.983 . S
C160 C156 1.684 . S
H161 C179 0.948 . S
H162 C120 0.948 . S
H163 C138 0.979 . S
H164 C138 0.980 . S
H165 C138 0.983 . S
H166 C137 0.982 . S
H167 C137 0.979 . S
H168 C137 0.977 . S
H169 C139 0.948 . S
H170 C141 0.947 . S
H171 C142 0.948 . S
H172 C148 0.982 . S
H173 C148 0.979 . S
H174 C148 0.977 . S
H175 C149 0.979 . S
H176 C149 0.980 . S
H177 C149 0.983 . S
H178 C122 0.947 . S
C179 C122 1.392 . S
C179 C123 1.419 . S
C179 H161 0.948 . S
C180 C181 1.391 . S
C180 C184 1.391 . S
C180 H222 0.948 . S
C181 C180 1.391 . S
C181 C182 1.391 . S
C182 C181 1.391 . S
C182 H238 0.947 . S
C182 C239 1.392 . S
C183 C184 1.391 . S
C183 C187 1.397 . S
C183 C239 1.419 . S
C184 C180 1.391 . S
C184 C183 1.391 . S
C184 C185 1.399 . S
C185 C184 1.399 . S
C185 C188 1.396 . S
C185 C197 1.453 . S
C185 C198 1.684 . S
H186 C210 0.948 . S
C187 C183 1.397 . S
C187 C188 1.394 . S
C187 C206 1.723 . S
C188 C185 1.396 . S
C188 C187 1.394 . S
C188 C218 1.723 . S
H189 C212 0.947 . S
H190 C213 0.948 . S
H191 C219 0.982 . S
H192 C220 0.979 . S
H193 C220 0.980 . S
H194 C220 0.983 . S
H195 C219 0.979 . S
H196 C219 0.977 . S
C197 C185 1.453 . S
C197 H226 0.982 . S
C197 H227 0.979 . S
C197 H228 0.977 . S
C198 C185 1.684 . S
C198 H223 0.979 . S
C198 H224 0.980 . S
C198 H225 0.983 . S
C199 C200 1.391 . S
C199 C204 1.391 . S
C199 H229 0.948 . S
C200 C199 1.391 . S
C200 C201 1.391 . S
C201 C200 1.391 . S
C201 C202 1.392 . S
C201 H230 0.947 . S
C202 C201 1.392 . S
C202 C203 1.419 . S
C202 H231 0.948 . S
C203 C202 1.419 . S
C203 C204 1.391 . S
C203 C207 1.397 . S
C204 C199 1.391 . S
C204 C203 1.391 . S
C204 C205 1.399 . S
C205 C204 1.399 . S
C205 C206 1.396 . S
C205 C208 1.453 . S
C205 C209 1.684 . S
C206 C187 1.723 . S
C206 C205 1.396 . S
C206 C207 1.394 . S
C207 C203 1.397 . S
C207 C206 1.394 . S
C207 C217 1.723 . S
C208 C205 1.453 . S
C208 H232 0.982 . S
C208 H233 0.979 . S
C208 H234 0.977 . S
C209 C205 1.684 . S
C209 H235 0.979 . S
C209 H236 0.980 . S
C209 H237 0.983 . S
C210 H186 0.948 . S
C210 C211 1.391 . S
C210 C215 1.391 . S
C211 C210 1.391 . S
C211 C212 1.391 . S
C212 H189 0.947 . S
C212 C211 1.391 . S
C212 C213 1.392 . S
C213 H190 0.948 . S
C213 C212 1.392 . S
C213 C214 1.419 . S
C214 C213 1.419 . S
C214 C215 1.391 . S
C214 C218 1.397 . S
C215 C210 1.391 . S
C215 C214 1.391 . S
C215 C216 1.399 . S
C216 C215 1.399 . S
C216 C217 1.396 . S
C216 C219 1.453 . S
C216 C220 1.684 . S
C217 C207 1.723 . S
C217 C216 1.396 . S
C217 C218 1.394 . S
C218 C188 1.723 . S
C218 C214 1.397 . S
C218 C217 1.394 . S
C219 H191 0.982 . S
C219 H195 0.979 . S
C219 H196 0.977 . S
C219 C216 1.453 . S
C220 H192 0.979 . S
C220 H193 0.980 . S
C220 H194 0.983 . S
C220 C216 1.684 . S
H221 C239 0.948 . S
H222 C180 0.948 . S
H223 C198 0.979 . S
H224 C198 0.980 . S
H225 C198 0.983 . S
H226 C197 0.982 . S
H227 C197 0.979 . S
H228 C197 0.977 . S
H229 C199 0.948 . S
H230 C201 0.947 . S
H231 C202 0.948 . S
H232 C208 0.982 . S
H233 C208 0.979 . S
H234 C208 0.977 . S
H235 C209 0.979 . S
H236 C209 0.980 . S
H237 C209 0.983 . S
H238 C182 0.947 . S
C239 C182 1.392 . S
C239 C183 1.419 . S
C239 H221 0.948 . S
C240 C241 1.391 . S
C240 C244 1.391 . S
C240 H282 0.948 1_554 S
C241 C240 1.391 . S
C241 C242 1.391 . S
C242 C241 1.391 . S
C242 H298 0.947 . S
C242 C299 1.392 . S
C243 C244 1.391 . S
C243 C247 1.397 . S
C243 C299 1.419 . S
C244 C240 1.391 . S
C244 C243 1.391 . S
C244 C245 1.399 1_554 S
C245 C244 1.399 1_556 S
C245 C248 1.396 . S
C245 C257 1.453 . S
C245 C258 1.684 . S
H246 C270 0.948 . S
C247 C243 1.397 . S
C247 C248 1.394 1_554 S
C247 C266 1.723 . S
C248 C245 1.396 . S
C248 C247 1.394 1_556 S
C248 C278 1.723 . S
H249 C272 0.947 . S
H250 C273 0.948 . S
H251 C279 0.982 . S
H252 C280 0.979 . S
H253 C280 0.980 . S
H254 C280 0.983 . S
H255 C279 0.979 . S
H256 C279 0.977 . S
C257 C245 1.453 . S
C257 H286 0.982 . S
C257 H287 0.979 . S
C257 H288 0.977 . S
C258 C245 1.684 . S
C258 H283 0.979 . S
C258 H284 0.980 . S
C258 H285 0.983 . S
C259 C260 1.391 . S
C259 C264 1.391 . S
C259 H289 0.948 . S
C260 C259 1.391 . S
C260 C261 1.391 . S
C261 C260 1.391 . S
C261 C262 1.392 . S
C261 H290 0.947 . S
C262 C261 1.392 . S
C262 C263 1.419 . S
C262 H291 0.948 . S
C263 C262 1.419 . S
C263 C264 1.391 . S
C263 C267 1.397 . S
C264 C259 1.391 . S
C264 C263 1.391 . S
C264 C265 1.399 . S
C265 C264 1.399 . S
C265 C266 1.396 . S
C265 C268 1.453 . S
C265 C269 1.684 . S
C266 C247 1.723 . S
C266 C265 1.396 . S
C266 C267 1.394 . S
C267 C263 1.397 . S
C267 C266 1.394 . S
C267 C277 1.723 1_554 S
C268 C265 1.453 . S
C268 H292 0.982 . S
C268 H293 0.979 . S
C268 H294 0.977 . S
C269 C265 1.684 . S
C269 H295 0.979 . S
C269 H296 0.980 . S
C269 H297 0.983 . S
C270 H246 0.948 . S
C270 C271 1.391 . S
C270 C275 1.391 . S
C271 C270 1.391 . S
C271 C272 1.391 . S
C272 H249 0.947 . S
C272 C271 1.391 . S
C272 C273 1.392 . S
C273 H250 0.948 . S
C273 C272 1.392 . S
C273 C274 1.419 . S
C274 C273 1.419 . S
C274 C275 1.391 . S
C274 C278 1.397 . S
C275 C270 1.391 . S
C275 C274 1.391 . S
C275 C276 1.399 . S
C276 C275 1.399 . S
C276 C277 1.396 . S
C276 C279 1.453 . S
C276 C280 1.684 . S
C277 C267 1.723 1_556 S
C277 C276 1.396 . S
C277 C278 1.394 . S
C278 C248 1.723 . S
C278 C274 1.397 . S
C278 C277 1.394 . S
C279 H251 0.982 . S
C279 H255 0.979 . S
C279 H256 0.977 . S
C279 C276 1.453 . S
C280 H252 0.979 . S
C280 H253 0.980 . S
C280 H254 0.983 . S
C280 C276 1.684 . S
H281 C299 0.948 . S
H282 C240 0.948 1_556 S
H283 C258 0.979 . S
H284 C258 0.980 . S
H285 C258 0.983 . S
H286 C257 0.982 . S
H287 C257 0.979 . S
H288 C257 0.977 . S
H289 C259 0.948 . S
H290 C261 0.947 . S
H291 C262 0.948 . S
H292 C268 0.982 . S
H293 C268 0.979 . S
H294 C268 0.977 . S
H295 C269 0.979 . S
H296 C269 0.980 . S
H297 C269 0.983 . S
H298 C242 0.947 . S
C299 C242 1.392 . S
C299 C243 1.419 . S
C299 H281 0.948 . S
C300 C301 1.391 . S
C300 C304 1.391 . S
C300 H342 0.948 . S
C301 C300 1.391 . S
C301 C302 1.391 . S
C302 C301 1.391 . S
C302 H358 0.947 . S
C302 C359 1.392 . S
C303 C304 1.391 . S
C303 C307 1.396 1_655 S
C303 C359 1.419 . S
C304 C300 1.391 . S
C304 C303 1.391 . S
C304 C305 1.399 . S
C305 C304 1.399 . S
C305 C308 1.396 1_655 S
C305 C317 1.453 1_655 S
C305 C318 1.684 . S
H306 C330 0.948 1_556 S
C307 C303 1.396 1_455 S
C307 C308 1.395 . S
C307 C326 1.723 1_554 S
C308 C305 1.396 1_455 S
C308 C307 1.395 . S
C308 C338 1.723 . S
H309 C332 0.947 . S
H310 C333 0.948 . S
H311 C339 0.982 . S
H312 C340 0.979 . S
H313 C340 0.980 . S
H314 C340 0.983 . S
H315 C339 0.979 . S
H316 C339 0.977 . S
C317 C305 1.453 1_455 S
C317 H346 0.982 . S
C317 H347 0.979 . S
C317 H348 0.977 . S
C318 C305 1.684 . S
C318 H343 0.979 . S
C318 H344 0.980 . S
C318 H345 0.983 . S
C319 C320 1.391 . S
C319 C324 1.391 . S
C319 H349 0.948 . S
C320 C319 1.391 . S
C320 C321 1.391 . S
C321 C320 1.391 . S
C321 C322 1.392 . S
C321 H350 0.947 . S
C322 C321 1.392 . S
C322 C323 1.419 . S
C322 H351 0.948 . S
C323 C322 1.419 . S
C323 C324 1.391 . S
C323 C327 1.396 1_655 S
C324 C319 1.391 . S
C324 C323 1.391 . S
C324 C325 1.399 . S
C325 C324 1.399 . S
C325 C326 1.396 1_655 S
C325 C328 1.453 1_655 S
C325 C329 1.684 . S
C326 C307 1.723 1_556 S
C326 C325 1.396 1_455 S
C326 C327 1.395 . S
C327 C323 1.396 1_455 S
C327 C326 1.395 . S
C327 C337 1.723 . S
C328 C325 1.453 1_455 S
C328 H352 0.982 . S
C328 H353 0.979 . S
C328 H354 0.977 . S
C329 C325 1.684 . S
C329 H355 0.979 . S
C329 H356 0.980 . S
C329 H357 0.983 . S
C330 H306 0.948 1_554 S
C330 C331 1.391 . S
C330 C335 1.391 . S
C331 C330 1.391 . S
C331 C332 1.391 . S
C332 H309 0.947 . S
C332 C331 1.391 . S
C332 C333 1.392 . S
C333 H310 0.948 . S
C333 C332 1.392 . S
C333 C334 1.419 . S
C334 C333 1.419 . S
C334 C335 1.391 . S
C334 C338 1.396 1_655 S
C335 C330 1.391 . S
C335 C334 1.391 . S
C335 C336 1.399 1_554 S
C336 C335 1.399 1_556 S
C336 C337 1.396 1_655 S
C336 C339 1.453 1_655 S
C336 C340 1.684 . S
C337 C327 1.723 . S
C337 C336 1.396 1_455 S
C337 C338 1.395 1_556 S
C338 C308 1.723 . S
C338 C334 1.396 1_455 S
C338 C337 1.395 1_554 S
C339 H311 0.982 . S
C339 H315 0.979 . S
C339 H316 0.977 . S
C339 C336 1.453 1_455 S
C340 H312 0.979 . S
C340 H313 0.980 . S
C340 H314 0.983 . S
C340 C336 1.684 . S
H341 C359 0.948 . S
H342 C300 0.948 . S
H343 C318 0.979 . S
H344 C318 0.980 . S
H345 C318 0.983 . S
H346 C317 0.982 . S
H347 C317 0.979 . S
H348 C317 0.977 . S
H349 C319 0.948 . S
H350 C321 0.947 . S
H351 C322 0.948 . S
H352 C328 0.982 . S
H353 C328 0.979 . S
H354 C328 0.977 . S
H355 C329 0.979 . S
H356 C329 0.980 . S
H357 C329 0.983 . S
H358 C302 0.947 . S
C359 C302 1.392 . S
C359 C303 1.419 . S
C359 H341 0.948 . S
C360 C361 1.391 . S
C360 C364 1.391 . S
C360 H402 0.948 . S
C361 C360 1.391 . S
C361 C362 1.391 . S
C362 C361 1.391 . S
C362 H418 0.947 . S
C362 C419 1.392 . S
C363 C364 1.391 . S
C363 C367 1.397 1_545 S
C363 C419 1.419 . S
C364 C360 1.391 . S
C364 C363 1.391 . S
C364 C365 1.399 . S
C365 C364 1.399 . S
C365 C368 1.396 1_545 S
C365 C377 1.453 1_545 S
C365 C378 1.684 . S
H366 C390 0.948 . S
C367 C363 1.397 1_565 S
C367 C368 1.394 . S
C367 C386 1.723 1_556 S
C368 C365 1.396 1_565 S
C368 C367 1.394 . S
C368 C398 1.723 1_556 S
H369 C392 0.947 1_556 S
H370 C393 0.948 . S
H371 C399 0.982 . S
H372 C400 0.979 . S
H373 C400 0.980 . S
H374 C400 0.983 . S
H375 C399 0.979 . S
H376 C399 0.977 . S
C377 C365 1.453 1_565 S
C377 H406 0.982 . S
C377 H407 0.979 . S
C377 H408 0.977 . S
C378 C365 1.684 . S
C378 H403 0.979 . S
C378 H404 0.980 . S
C378 H405 0.983 . S
C379 C380 1.391 . S
C379 C384 1.391 . S
C379 H409 0.948 . S
C380 C379 1.391 . S
C380 C381 1.391 . S
C381 C380 1.391 . S
C381 C382 1.392 . S
C381 H410 0.947 . S
C382 C381 1.392 . S
C382 C383 1.419 . S
C382 H411 0.948 . S
C383 C382 1.419 . S
C383 C384 1.391 . S
C383 C387 1.397 1_545 S
C384 C379 1.391 . S
C384 C383 1.391 . S
C384 C385 1.399 . S
C385 C384 1.399 . S
C385 C386 1.396 1_545 S
C385 C388 1.453 1_545 S
C385 C389 1.684 . S
C386 C367 1.723 1_554 S
C386 C385 1.396 1_565 S
C386 C387 1.394 . S
C387 C383 1.397 1_565 S
C387 C386 1.394 . S
C387 C397 1.723 . S
C388 C385 1.453 1_565 S
C388 H412 0.982 . S
C388 H413 0.979 . S
C388 H414 0.977 1_554 S
C389 C385 1.684 . S
C389 H415 0.979 . S
C389 H416 0.980 1_554 S
C389 H417 0.983 . S
C390 H366 0.948 . S
C390 C391 1.391 . S
C390 C395 1.391 . S
C391 C390 1.391 . S
C391 C392 1.391 . S
C392 H369 0.947 1_554 S
C392 C391 1.391 . S
C392 C393 1.392 1_554 S
C393 H370 0.948 . S
C393 C392 1.392 1_556 S
C393 C394 1.419 1_556 S
C394 C393 1.419 1_554 S
C394 C395 1.391 . S
C394 C398 1.397 1_545 S
C395 C390 1.391 . S
C395 C394 1.391 . S
C395 C396 1.399 . S
C396 C395 1.399 . S
C396 C397 1.396 1_545 S
C396 C399 1.453 1_545 S
C396 C400 1.684 . S
C397 C387 1.723 . S
C397 C396 1.396 1_565 S
C397 C398 1.394 . S
C398 C368 1.723 1_554 S
C398 C394 1.397 1_565 S
C398 C397 1.394 . S
C399 H371 0.982 . S
C399 H375 0.979 . S
C399 H376 0.977 . S
C399 C396 1.453 1_565 S
C400 H372 0.979 . S
C400 H373 0.980 . S
C400 H374 0.983 . S
C400 C396 1.684 . S
H401 C419 0.948 . S
H402 C360 0.948 . S
H403 C378 0.979 . S
H404 C378 0.980 . S
H405 C378 0.983 . S
H406 C377 0.982 . S
H407 C377 0.979 . S
H408 C377 0.977 . S
H409 C379 0.948 . S
H410 C381 0.947 . S
H411 C382 0.948 . S
H412 C388 0.982 . S
H413 C388 0.979 . S
H414 C388 0.977 1_556 S
H415 C389 0.979 . S
H416 C389 0.980 1_556 S
H417 C389 0.983 . S
H418 C362 0.947 . S
C419 C362 1.392 . S
C419 C363 1.419 . S
C419 H401 0.948 . S
C420 C421 1.391 . S
C420 C424 1.391 . S
C420 H462 0.948 . S
C421 C420 1.391 . S
C421 C422 1.391 . S
C422 C421 1.391 . S
C422 H478 0.947 . S
C422 C479 1.392 . S
C423 C424 1.391 . S
C423 C427 1.397 . S
C423 C479 1.419 . S
C424 C420 1.391 . S
C424 C423 1.391 . S
C424 C425 1.399 . S
C425 C424 1.399 . S
C425 C428 1.396 . S
C425 C437 1.453 . S
C425 C438 1.684 . S
H426 C450 0.948 . S
C427 C423 1.397 . S
C427 C428 1.394 . S
C427 C446 1.723 1_556 S
C428 C425 1.396 . S
C428 C427 1.394 . S
C428 C458 1.723 1_556 S
H429 C452 0.947 1_556 S
H430 C453 0.948 . S
H431 C459 0.982 . S
H432 C460 0.979 . S
H433 C460 0.980 . S
H434 C460 0.983 . S
H435 C459 0.979 . S
H436 C459 0.977 . S
C437 C425 1.453 . S
C437 H466 0.982 . S
C437 H467 0.979 . S
C437 H468 0.977 . S
C438 C425 1.684 . S
C438 H463 0.979 . S
C438 H464 0.980 . S
C438 H465 0.983 . S
C439 C440 1.391 . S
C439 C444 1.391 . S
C439 H469 0.948 . S
C440 C439 1.391 . S
C440 C441 1.391 . S
C441 C440 1.391 . S
C441 C442 1.392 . S
C441 H470 0.947 . S
C442 C441 1.392 . S
C442 C443 1.419 . S
C442 H471 0.948 . S
C443 C442 1.419 . S
C443 C444 1.391 . S
C443 C447 1.397 . S
C444 C439 1.391 . S
C444 C443 1.391 . S
C444 C445 1.399 . S
C445 C444 1.399 . S
C445 C446 1.396 . S
C445 C448 1.453 . S
C445 C449 1.684 . S
C446 C427 1.723 1_554 S
C446 C445 1.396 . S
C446 C447 1.394 . S
C447 C443 1.397 . S
C447 C446 1.394 . S
C447 C457 1.723 . S
C448 C445 1.453 . S
C448 H472 0.982 . S
C448 H473 0.979 . S
C448 H474 0.977 1_554 S
C449 C445 1.684 . S
C449 H475 0.979 . S
C449 H476 0.980 1_554 S
C449 H477 0.983 . S
C450 H426 0.948 . S
C450 C451 1.391 . S
C450 C455 1.391 . S
C451 C450 1.391 . S
C451 C452 1.391 . S
C452 H429 0.947 1_554 S
C452 C451 1.391 . S
C452 C453 1.392 1_554 S
C453 H430 0.948 . S
C453 C452 1.392 1_556 S
C453 C454 1.419 1_556 S
C454 C453 1.419 1_554 S
C454 C455 1.391 . S
C454 C458 1.397 . S
C455 C450 1.391 . S
C455 C454 1.391 . S
C455 C456 1.399 . S
C456 C455 1.399 . S
C456 C457 1.396 . S
C456 C459 1.453 . S
C456 C460 1.684 . S
C457 C447 1.723 . S
C457 C456 1.396 . S
C457 C458 1.394 . S
C458 C428 1.723 1_554 S
C458 C454 1.397 . S
C458 C457 1.394 . S
C459 H431 0.982 . S
C459 H435 0.979 . S
C459 H436 0.977 . S
C459 C456 1.453 . S
C460 H432 0.979 . S
C460 H433 0.980 . S
C460 H434 0.983 . S
C460 C456 1.684 . S
H461 C479 0.948 . S
H462 C420 0.948 . S
H463 C438 0.979 . S
H464 C438 0.980 . S
H465 C438 0.983 . S
H466 C437 0.982 . S
H467 C437 0.979 . S
H468 C437 0.977 . S
H469 C439 0.948 . S
H470 C441 0.947 . S
H471 C442 0.948 . S
H472 C448 0.982 . S
H473 C448 0.979 . S
H474 C448 0.977 1_556 S
H475 C449 0.979 . S
H476 C449 0.980 1_556 S
H477 C449 0.983 . S
H478 C422 0.947 . S
C479 C422 1.392 . S
C479 C423 1.419 . S
C479 H461 0.948 . S
Gd480 C483 2.818 . S
Gd480 O500 2.377 . S
Gd480 O502 2.448 . S
Gd480 O503 2.506 . S
Gd480 O504 2.435 . S
Gd480 O505 2.717 1_565 S
Gd480 O507 2.395 1_565 S
Gd480 O511 2.327 1_455 S
Gd481 C492 2.818 . S
Gd481 O501 2.395 1_545 S
Gd481 O505 2.327 1_655 S
Gd481 O506 2.377 . S
Gd481 O508 2.448 . S
Gd481 O509 2.506 . S
Gd481 O510 2.435 . S
Gd481 O511 2.717 1_545 S
C482 O500 1.240 1_655 S
C482 O501 1.240 . S
C483 Gd480 2.818 . S
C483 C484 1.510 . S
C483 O502 1.249 . S
C483 O503 1.252 . S
C484 C483 1.510 . S
C484 C485 1.404 . S
C484 C486 1.350 1_556 S
C485 C484 1.404 . S
C485 C489 1.389 1_556 S
C485 H512 0.930 . S
C486 C484 1.350 1_554 S
C486 C488 1.376 . S
C486 H513 0.930 1_454 S
C487 C488 1.359 . S
C487 C489 1.364 . S
C488 C486 1.376 . S
C488 C487 1.359 . S
C488 H514 0.931 . S
C489 C485 1.389 1_554 S
C489 C487 1.364 . S
C489 H515 0.931 . S
C490 O504 1.256 . S
C490 O505 1.257 1_565 S
C491 O506 1.240 1_455 S
C491 O507 1.240 . S
C492 Gd481 2.818 . S
C492 C493 1.510 . S
C492 O508 1.249 . S
C492 O509 1.252 . S
C493 C492 1.510 . S
C493 C494 1.404 . S
C493 C495 1.352 . S
C494 C493 1.404 . S
C494 C498 1.389 . S
C494 H516 0.930 . S
C495 C493 1.352 . S
C495 C497 1.374 . S
C495 H517 0.931 1_655 S
C496 C497 1.359 . S
C496 C498 1.364 . S
C497 C495 1.374 . S
C497 C496 1.359 . S
C497 H518 0.931 . S
C498 C494 1.389 . S
C498 C496 1.364 . S
C498 H519 0.931 . S
C499 O510 1.256 . S
C499 O511 1.257 1_545 S
O500 Gd480 2.377 . S
O500 C482 1.240 1_455 S
O501 Gd481 2.395 1_565 S
O501 C482 1.240 . S
O502 Gd480 2.448 . S
O502 C483 1.249 . S
O503 Gd480 2.506 . S
O503 C483 1.252 . S
O504 Gd480 2.435 . S
O504 C490 1.256 . S
O505 Gd480 2.717 1_545 S
O505 Gd481 2.327 1_455 S
O505 C490 1.257 1_545 S
O506 Gd481 2.377 . S
O506 C491 1.240 1_655 S
O507 Gd480 2.395 1_545 S
O507 C491 1.240 . S
O508 Gd481 2.448 . S
O508 C492 1.249 . S
O509 Gd481 2.506 . S
O509 C492 1.252 . S
O510 Gd481 2.435 . S
O510 C499 1.256 . S
O511 Gd480 2.327 1_655 S
O511 Gd481 2.717 1_565 S
O511 C499 1.257 1_565 S
H512 C485 0.930 . S
H513 C486 0.930 1_656 S
H514 C488 0.931 . S
H515 C489 0.931 . S
H516 C494 0.930 . S
H517 C495 0.931 1_455 S
H518 C497 0.931 . S
H519 C498 0.931 . S
Gd520 C523 2.818 . S
Gd520 O540 2.377 . S
Gd520 O542 2.448 . S
Gd520 O543 2.506 . S
Gd520 O544 2.435 . S
Gd520 O545 2.717 . S
Gd520 O547 2.395 . S
Gd520 O551 2.327 1_545 S
Gd521 C532 2.818 . S
Gd521 O541 2.395 . S
Gd521 O545 2.327 1_565 S
Gd521 O546 2.377 . S
Gd521 O548 2.448 . S
Gd521 O549 2.506 . S
Gd521 O550 2.435 . S
Gd521 O551 2.717 . S
C522 O540 1.240 1_565 S
C522 O541 1.240 . S
C523 Gd520 2.818 . S
C523 C524 1.510 . S
C523 O542 1.249 . S
C523 O543 1.252 . S
C524 C523 1.510 . S
C524 C525 1.404 . S
C524 C526 1.347 1_556 S
C525 C524 1.404 . S
C525 C529 1.389 1_556 S
C525 H552 0.930 . S
C526 C524 1.347 1_554 S
C526 C528 1.379 . S
C526 H553 0.930 1_544 S
C527 C528 1.359 . S
C527 C529 1.364 . S
C528 C526 1.379 . S
C528 C527 1.359 . S
C528 H554 0.931 . S
C529 C525 1.389 1_554 S
C529 C527 1.364 . S
C529 H555 0.931 . S
C530 O544 1.256 . S
C530 O545 1.257 . S
C531 O546 1.240 1_545 S
C531 O547 1.240 . S
C532 Gd521 2.818 . S
C532 C533 1.510 . S
C532 O548 1.249 . S
C532 O549 1.252 . S
C533 C532 1.510 . S
C533 C534 1.404 . S
C533 C535 1.352 . S
C534 C533 1.404 . S
C534 C538 1.389 . S
C534 H556 0.930 . S
C535 C533 1.352 . S
C535 C537 1.374 . S
C535 H557 0.931 1_565 S
C536 C537 1.359 . S
C536 C538 1.364 . S
C537 C535 1.374 . S
C537 C536 1.359 . S
C537 H558 0.962 . S
C538 C534 1.389 . S
C538 C536 1.364 . S
C538 H559 0.931 . S
C539 O550 1.256 . S
C539 O551 1.257 . S
O540 Gd520 2.377 . S
O540 C522 1.240 1_545 S
O541 Gd521 2.395 . S
O541 C522 1.240 . S
O542 Gd520 2.448 . S
O542 C523 1.249 . S
O543 Gd520 2.506 . S
O543 C523 1.252 . S
O544 Gd520 2.435 . S
O544 C530 1.256 . S
O545 Gd520 2.717 . S
O545 Gd521 2.327 1_545 S
O545 C530 1.257 . S
O546 Gd521 2.377 . S
O546 C531 1.240 1_565 S
O547 Gd520 2.395 . S
O547 C531 1.240 . S
O548 Gd521 2.448 . S
O548 C532 1.249 . S
O549 Gd521 2.506 . S
O549 C532 1.252 . S
O550 Gd521 2.435 . S
O550 C539 1.256 . S
O551 Gd520 2.327 1_565 S
O551 Gd521 2.717 . S
O551 C539 1.257 . S
H552 C525 0.930 . S
H553 C526 0.930 1_566 S
H554 C528 0.931 . S
H555 C529 0.931 . S
H556 C534 0.930 . S
H557 C535 0.931 1_545 S
H558 C537 0.962 . S
H559 C538 0.931 . S
Gd560 C563 2.818 . S
Gd560 O580 2.377 . S
Gd560 O582 2.448 . S
Gd560 O583 2.506 . S
Gd560 O584 2.435 . S
Gd560 O585 2.717 . S
Gd560 O587 2.395 . S
Gd560 O591 2.327 . S
Gd561 C572 2.818 . S
Gd561 O581 2.395 . S
Gd561 O585 2.327 . S
Gd561 O586 2.377 . S
Gd561 O588 2.448 . S
Gd561 O589 2.506 . S
Gd561 O590 2.435 . S
Gd561 O591 2.717 . S
C562 O580 1.240 . S
C562 O581 1.240 . S
C563 Gd560 2.818 . S
C563 C564 1.510 . S
C563 O582 1.249 . S
C563 O583 1.252 . S
C564 C563 1.510 . S
C564 C565 1.404 . S
C564 C566 1.352 1_556 S
C565 C564 1.404 . S
C565 C569 1.389 1_556 S
C565 H592 0.930 . S
C566 C564 1.352 1_554 S
C566 C568 1.374 . S
C566 H593 0.931 1_554 S
C567 C568 1.359 . S
C567 C569 1.364 . S
C568 C566 1.374 . S
C568 C567 1.359 . S
C568 H594 0.931 . S
C569 C565 1.389 1_554 S
C569 C567 1.364 . S
C569 H595 0.931 . S
C570 O584 1.256 . S
C570 O585 1.257 . S
C571 O586 1.240 . S
C571 O587 1.240 . S
C572 Gd561 2.818 . S
C572 C573 1.510 . S
C572 O588 1.249 . S
C572 O589 1.252 . S
C573 C572 1.510 . S
C573 C574 1.404 . S
C573 C575 1.352 . S
C574 C573 1.404 . S
C574 C578 1.389 . S
C574 H596 0.930 . S
C575 C573 1.352 . S
C575 C577 1.374 . S
C575 H597 0.931 . S
C576 C577 1.359 . S
C576 C578 1.364 . S
C577 C575 1.374 . S
C577 C576 1.359 . S
C577 H598 0.931 . S
C578 C574 1.389 . S
C578 C576 1.364 . S
C578 H599 0.931 . S
C579 O590 1.256 . S
C579 O591 1.257 . S
O580 Gd560 2.377 . S
O580 C562 1.240 . S
O581 Gd561 2.395 . S
O581 C562 1.240 . S
O582 Gd560 2.448 . S
O582 C563 1.249 . S
O583 Gd560 2.506 . S
O583 C563 1.252 . S
O584 Gd560 2.435 . S
O584 C570 1.256 . S
O585 Gd560 2.717 . S
O585 Gd561 2.327 . S
O585 C570 1.257 . S
O586 Gd561 2.377 . S
O586 C571 1.240 . S
O587 Gd560 2.395 . S
O587 C571 1.240 . S
O588 Gd561 2.448 . S
O588 C572 1.249 . S
O589 Gd561 2.506 . S
O589 C572 1.252 . S
O590 Gd561 2.435 . S
O590 C579 1.256 . S
O591 Gd560 2.327 . S
O591 Gd561 2.717 . S
O591 C579 1.257 . S
H592 C565 0.930 . S
H593 C566 0.931 1_556 S
H594 C568 0.931 . S
H595 C569 0.931 . S
H596 C574 0.930 . S
H597 C575 0.931 . S
H598 C577 0.931 . S
H599 C578 0.931 . S
Gd600 C603 2.818 . S
Gd600 O620 2.377 . S
Gd600 O622 2.448 . S
Gd600 O623 2.506 . S
Gd600 O624 2.435 . S
Gd600 O625 2.717 1_655 S
Gd600 O627 2.395 1_655 S
Gd600 O631 2.327 . S
Gd601 C612 2.818 . S
Gd601 O621 2.395 1_455 S
Gd601 O625 2.327 . S
Gd601 O626 2.377 . S
Gd601 O628 2.448 . S
Gd601 O629 2.506 . S
Gd601 O630 2.435 . S
Gd601 O631 2.717 1_455 S
C602 O620 1.240 . S
C602 O621 1.240 . S
C603 Gd600 2.818 . S
C603 C604 1.510 . S
C603 O622 1.249 . S
C603 O623 1.252 . S
C604 C603 1.510 . S
C604 C605 1.404 . S
C604 C606 1.352 1_556 S
C605 C604 1.404 . S
C605 C609 1.389 1_556 S
C605 H632 0.930 . S
C606 C604 1.352 1_554 S
C606 C608 1.374 . S
C606 H633 0.931 1_554 S
C607 C608 1.359 . S
C607 C609 1.364 . S
C608 C606 1.374 . S
C608 C607 1.359 . S
C608 H634 0.931 . S
C609 C605 1.389 1_554 S
C609 C607 1.364 . S
C609 H635 0.931 . S
C610 O624 1.272 . S
C610 O625 1.249 1_655 S
C611 O626 1.240 . S
C611 O627 1.240 . S
C612 Gd601 2.818 . S
C612 C613 1.510 . S
C612 O628 1.249 . S
C612 O629 1.252 . S
C613 C612 1.510 . S
C613 C614 1.404 . S
C613 C615 1.352 . S
C614 C613 1.404 . S
C614 C618 1.389 . S
C614 H636 0.930 . S
C615 C613 1.352 . S
C615 C617 1.374 . S
C615 H637 0.931 . S
C616 C617 1.359 . S
C616 C618 1.364 . S
C617 C615 1.374 . S
C617 C616 1.359 . S
C617 H638 0.931 . S
C618 C614 1.389 . S
C618 C616 1.364 . S
C618 H639 0.931 . S
C619 O630 1.256 . S
C619 O631 1.257 1_455 S
O620 Gd600 2.377 . S
O620 C602 1.240 . S
O621 Gd601 2.395 1_655 S
O621 C602 1.240 . S
O622 Gd600 2.448 . S
O622 C603 1.249 . S
O623 Gd600 2.506 . S
O623 C603 1.252 . S
O624 Gd600 2.435 . S
O624 C610 1.272 . S
O625 Gd600 2.717 1_455 S
O625 Gd601 2.327 . S
O625 C610 1.249 1_455 S
O626 Gd601 2.377 . S
O626 C611 1.240 . S
O627 Gd600 2.395 1_455 S
O627 C611 1.240 . S
O628 Gd601 2.448 . S
O628 C612 1.249 . S
O629 Gd601 2.506 . S
O629 C612 1.252 . S
O630 Gd601 2.435 . S
O630 C619 1.256 . S
O631 Gd600 2.327 . S
O631 Gd601 2.717 1_655 S
O631 C619 1.257 1_655 S
H632 C605 0.930 . S
H633 C606 0.931 1_556 S
H634 C608 0.931 . S
H635 C609 0.931 . S
H636 C614 0.930 . S
H637 C615 0.931 . S
H638 C617 0.931 . S
H639 C618 0.931 . S
C640 C641 1.415 . S
C640 H644 0.950 . S
C640 C649 1.390 . S
C641 C640 1.415 . S
C641 C643 1.360 1_545 S
H642 C649 0.950 . S
C643 C641 1.360 1_565 S
C643 C645 1.390 . S
C643 H647 0.950 . S
H644 C640 0.950 . S
C645 C643 1.390 . S
C645 C646 1.387 1_565 S
C645 H648 0.950 . S
C646 C645 1.387 1_545 S
C646 C649 1.387 . S
H647 C643 0.950 . S
H648 C645 0.950 . S
C649 C640 1.390 . S
C649 H642 0.950 . S
C649 C646 1.387 . S
C650 C651 1.387 . S
C650 H654 0.950 . S
C650 C659 1.390 . S
C651 C650 1.387 . S
C651 C653 1.387 . S
H652 C659 0.950 . S
C653 C651 1.387 . S
C653 C655 1.390 . S
C653 H657 0.950 . S
H654 C650 0.950 . S
C655 C653 1.390 . S
C655 C656 1.387 . S
C655 H658 0.950 . S
C656 C655 1.387 . S
C656 C659 1.387 . S
H657 C653 0.950 . S
H658 C655 0.950 . S
C659 C650 1.390 . S
C659 H652 0.950 . S
C659 C656 1.387 . S
C660 C661 1.387 . S
C660 H664 0.950 . S
C660 C669 1.390 . S
C661 C660 1.387 . S
C661 C663 1.387 . S
H662 C669 0.950 . S
C663 C661 1.387 . S
C663 C665 1.390 . S
C663 H667 0.950 . S
H664 C660 0.950 . S
C665 C663 1.390 . S
C665 C666 1.387 . S
C665 H668 0.950 . S
C666 C665 1.387 . S
C666 C669 1.387 . S
H667 C663 0.950 . S
H668 C665 0.950 . S
C669 C660 1.390 . S
C669 H662 0.950 . S
C669 C666 1.387 . S
C670 C671 1.378 1_655 S
C670 H674 0.950 . S
C670 C679 1.390 . S
C671 C670 1.378 1_455 S
C671 C673 1.399 . S
H672 C679 0.950 . S
C673 C671 1.399 . S
C673 C675 1.390 . S
C673 H677 0.950 . S
H674 C670 0.950 . S
C675 C673 1.390 . S
C675 C676 1.387 . S
C675 H678 0.950 . S
C676 C675 1.387 . S
C676 C679 1.387 1_455 S
H677 C673 0.950 . S
H678 C675 0.950 . S
C679 C670 1.390 . S
C679 H672 0.950 . S
C679 C676 1.387 1_655 S
C680 C681 1.382 1_545 S
C680 H684 0.950 . S
C680 C689 1.390 . S
C681 C680 1.382 1_565 S
C681 C683 1.394 . S
H682 C689 0.950 . S
C683 C681 1.394 . S
C683 C685 1.390 . S
C683 H687 0.950 . S
H684 C680 0.950 . S
C685 C683 1.390 . S
C685 C686 1.387 . S
C685 H688 0.950 . S
C686 C685 1.387 . S
C686 C689 1.387 1_565 S
H687 C683 0.950 . S
H688 C685 0.950 . S
C689 C680 1.390 . S
C689 H682 0.950 . S
C689 C686 1.387 1_545 S
C690 C691 1.387 . S
C690 H694 0.950 . S
C690 C699 1.390 . S
C691 C690 1.387 . S
C691 C693 1.387 . S
H692 C699 0.950 . S
C693 C691 1.387 . S
C693 C695 1.390 . S
C693 H697 0.950 . S
H694 C690 0.950 . S
C695 C693 1.390 . S
C695 C696 1.387 . S
C695 H698 0.950 . S
C696 C695 1.387 . S
C696 C699 1.387 . S
H697 C693 0.950 . S
H698 C695 0.950 . S
C699 C690 1.390 . S
C699 H692 0.950 . S
C699 C696 1.387 . S
C700 C701 1.387 . S
C700 H704 0.950 . S
C700 C709 1.390 . S
C701 C700 1.387 . S
C701 C703 1.387 . S
H702 C709 0.950 . S
C703 C701 1.387 . S
C703 C705 1.390 . S
C703 H707 0.950 . S
H704 C700 0.950 . S
C705 C703 1.390 . S
C705 C706 1.387 . S
C705 H708 0.950 . S
C706 C705 1.387 . S
C706 C709 1.387 . S
H707 C703 0.950 . S
H708 C705 0.950 . S
C709 C700 1.390 . S
C709 H702 0.950 . S
C709 C706 1.387 . S
C710 C711 1.421 . S
C710 H714 0.950 . S
C710 C719 1.390 . S
C711 C710 1.421 . S
C711 C713 1.355 1_655 S
H712 C719 0.950 . S
C713 C711 1.355 1_455 S
C713 C715 1.390 . S
C713 H717 0.950 . S
H714 C710 0.950 . S
C715 C713 1.390 . S
C715 C716 1.387 1_455 S
C715 H718 0.950 . S
C716 C715 1.387 1_655 S
C716 C719 1.387 . S
H717 C713 0.950 . S
H718 C715 0.950 . S
C719 C710 1.390 . S
C719 H712 0.950 . S
C719 C716 1.387 . S
C720 C721 1.387 1_455 S
C720 H724 0.950 . S
C720 C729 1.390 1_455 S
C721 C720 1.387 1_655 S
C721 C723 1.387 . S
H722 C729 0.950 . S
C723 C721 1.387 . S
C723 C725 1.390 . S
C723 H727 0.950 . S
H724 C720 0.950 . S
C725 C723 1.390 . S
C725 C726 1.387 . S
C725 H728 0.950 . S
C726 C725 1.387 . S
C726 C729 1.387 . S
H727 C723 0.950 . S
H728 C725 0.950 . S
C729 C720 1.390 1_655 S
C729 H722 0.950 . S
C729 C726 1.387 . S
C730 C731 1.387 . S
C730 H734 0.950 1_565 S
C730 C739 1.390 . S
C731 C730 1.387 . S
C731 C733 1.387 . S
H732 C739 0.950 . S
C733 C731 1.387 . S
C733 C735 1.390 . S
C733 H737 0.950 . S
H734 C730 0.950 1_545 S
C735 C733 1.390 . S
C735 C736 1.387 . S
C735 H738 0.950 . S
C736 C735 1.387 . S
C736 C739 1.387 . S
H737 C733 0.950 . S
H738 C735 0.950 . S
C739 C730 1.390 . S
C739 H732 0.950 . S
C739 C736 1.387 . S
C740 C741 1.387 . S
C740 H744 0.950 . S
C740 C749 1.390 . S
C741 C740 1.387 . S
C741 C743 1.387 . S
H742 C749 0.950 . S
C743 C741 1.387 . S
C743 C745 1.390 . S
C743 H747 0.950 . S
H744 C740 0.950 . S
C745 C743 1.390 . S
C745 C746 1.387 . S
C745 H748 0.950 . S
C746 C745 1.387 . S
C746 C749 1.387 . S
H747 C743 0.950 . S
H748 C745 0.950 . S
C749 C740 1.390 . S
C749 H742 0.950 . S
C749 C746 1.387 . S
C750 C751 1.387 . S
C750 H754 0.950 . S
C750 C759 1.390 . S
C751 C750 1.387 . S
C751 C753 1.387 . S
H752 C759 0.950 . S
C753 C751 1.387 . S
C753 C755 1.390 . S
C753 H757 0.950 . S
H754 C750 0.950 . S
C755 C753 1.390 . S
C755 C756 1.387 . S
C755 H758 0.950 . S
C756 C755 1.387 . S
C756 C759 1.387 . S
H757 C753 0.950 . S
H758 C755 0.950 . S
C759 C750 1.390 . S
C759 H752 0.950 . S
C759 C756 1.387 . S
C760 C761 1.387 . S
C760 H764 0.948 1_554 S
C760 C769 1.390 . S
C761 C760 1.387 . S
C761 C763 1.387 . S
H762 C769 0.950 1_556 S
C763 C761 1.387 . S
C763 C765 1.390 . S
C763 H767 0.950 . S
H764 C760 0.948 1_556 S
C765 C763 1.390 . S
C765 C766 1.387 . S
C765 H768 0.950 . S
C766 C765 1.387 . S
C766 C769 1.387 . S
H767 C763 0.950 . S
H768 C765 0.950 . S
C769 C760 1.390 . S
C769 H762 0.950 1_554 S
C769 C766 1.387 . S
C770 C771 1.387 . S
C770 H774 0.950 . S
C770 C779 1.390 . S
C771 C770 1.387 . S
C771 C773 1.387 . S
H772 C779 0.950 . S
C773 C771 1.387 . S
C773 C775 1.390 . S
C773 H777 0.950 1_544 S
H774 C770 0.950 . S
C775 C773 1.390 . S
C775 C776 1.387 . S
C775 H778 0.950 1_554 S
C776 C775 1.387 . S
C776 C779 1.387 . S
H777 C773 0.950 1_566 S
H778 C775 0.950 1_556 S
C779 C770 1.390 . S
C779 H772 0.950 . S
C779 C776 1.387 . S
C780 C781 1.387 . S
C780 H784 0.950 1_554 S
C780 C789 1.390 . S
C781 C780 1.387 . S
C781 C783 1.387 . S
H782 C789 0.950 1_556 S
C783 C781 1.387 . S
C783 C785 1.390 . S
C783 H787 0.950 . S
H784 C780 0.950 1_556 S
C785 C783 1.390 . S
C785 C786 1.387 . S
C785 H788 0.950 . S
C786 C785 1.387 . S
C786 C789 1.387 . S
H787 C783 0.950 . S
H788 C785 0.950 . S
C789 C780 1.390 . S
C789 H782 0.950 1_554 S
C789 C786 1.387 . S
C790 C791 1.387 . S
C790 H794 0.950 1_554 S
C790 C799 1.390 . S
C791 C790 1.387 . S
C791 C793 1.387 . S
H792 C799 0.950 1_556 S
C793 C791 1.387 . S
C793 C795 1.390 . S
C793 H797 0.950 . S
H794 C790 0.950 1_556 S
C795 C793 1.390 . S
C795 C796 1.387 . S
C795 H798 0.950 . S
C796 C795 1.387 . S
C796 C799 1.387 . S
H797 C793 0.950 . S
H798 C795 0.950 . S
C799 C790 1.390 . S
C799 H792 0.950 1_554 S
C799 C796 1.387 . S
C800 C801 1.387 . S
C800 H804 0.950 . S
C800 C809 1.390 . S
C801 C800 1.387 . S
C801 C803 1.387 1_455 S
H802 C809 0.950 . S
C803 C801 1.387 1_655 S
C803 C805 1.390 . S
C803 H807 0.950 . S
H804 C800 0.950 . S
C805 C803 1.390 . S
C805 C806 1.387 1_655 S
C805 H808 0.950 . S
C806 C805 1.387 1_455 S
C806 C809 1.387 . S
H807 C803 0.950 . S
H808 C805 0.950 . S
C809 C800 1.390 . S
C809 H802 0.950 . S
C809 C806 1.387 . S
C810 C811 1.387 . S
C810 H814 0.950 . S
C810 C819 1.390 . S
C811 C810 1.387 . S
C811 C813 1.387 1_545 S
H812 C819 0.950 . S
C813 C811 1.387 1_565 S
C813 C815 1.390 . S
C813 H817 0.950 . S
H814 C810 0.950 . S
C815 C813 1.390 . S
C815 C816 1.387 1_565 S
C815 H818 0.950 . S
C816 C815 1.387 1_545 S
C816 C819 1.387 . S
H817 C813 0.950 . S
H818 C815 0.950 . S
C819 C810 1.390 . S
C819 H812 0.950 . S
C819 C816 1.387 . S
C820 C821 1.387 . S
C820 H824 0.950 . S
C820 C829 1.390 . S
C821 C820 1.387 . S
C821 C823 1.387 . S
H822 C829 0.950 . S
C823 C821 1.387 . S
C823 C825 1.390 . S
C823 H827 0.950 . S
H824 C820 0.950 . S
C825 C823 1.390 . S
C825 C826 1.387 . S
C825 H828 0.950 . S
C826 C825 1.387 . S
C826 C829 1.387 . S
H827 C823 0.950 . S
H828 C825 0.950 . S
C829 C820 1.390 . S
C829 H822 0.950 . S
C829 C826 1.387 . S
C830 C831 1.387 . S
C830 H834 0.950 . S
C830 C839 1.390 . S
C831 C830 1.387 . S
C831 C833 1.387 . S
H832 C839 0.950 . S
C833 C831 1.387 . S
C833 C835 1.390 . S
C833 H837 0.950 . S
H834 C830 0.950 . S
C835 C833 1.390 . S
C835 C836 1.387 . S
C835 H838 0.950 . S
C836 C835 1.387 . S
C836 C839 1.387 . S
H837 C833 0.950 . S
H838 C835 0.950 . S
C839 C830 1.390 . S
C839 H832 0.950 . S
C839 C836 1.387 . S
C840 C841 1.387 1_455 S
C840 H844 0.950 . S
C840 C849 1.390 . S
C841 C840 1.387 1_655 S
C841 C843 1.387 . S
H842 C849 0.950 . S
C843 C841 1.387 . S
C843 C845 1.390 . S
C843 H847 0.950 . S
H844 C840 0.950 . S
C845 C843 1.390 . S
C845 C846 1.387 . S
C845 H848 0.950 . S
C846 C845 1.387 . S
C846 C849 1.387 1_655 S
H847 C843 0.950 . S
H848 C845 0.950 . S
C849 C840 1.390 . S
C849 H842 0.950 . S
C849 C846 1.387 1_455 S
C850 C851 1.387 1_545 S
C850 H854 0.950 . S
C850 C859 1.390 . S
C851 C850 1.387 1_565 S
C851 C853 1.387 . S
H852 C859 0.950 . S
C853 C851 1.387 . S
C853 C855 1.390 . S
C853 H857 0.950 . S
H854 C850 0.950 . S
C855 C853 1.390 . S
C855 C856 1.387 . S
C855 H858 0.950 . S
C856 C855 1.387 . S
C856 C859 1.387 1_565 S
H857 C853 0.950 . S
H858 C855 0.950 . S
C859 C850 1.390 . S
C859 H852 0.950 . S
C859 C856 1.387 1_545 S
C860 C861 1.387 . S
C860 H864 0.950 . S
C860 C869 1.390 . S
C861 C860 1.387 . S
C861 C863 1.387 . S
H862 C869 0.950 . S
C863 C861 1.387 . S
C863 C865 1.390 . S
C863 H867 0.950 . S
H864 C860 0.950 . S
C865 C863 1.390 . S
C865 C866 1.387 . S
C865 H868 0.950 . S
C866 C865 1.387 . S
C866 C869 1.387 . S
H867 C863 0.950 . S
H868 C865 0.950 . S
C869 C860 1.390 . S
C869 H862 0.950 . S
C869 C866 1.387 . S
C870 C871 1.387 . S
C870 H874 0.950 . S
C870 C879 1.390 . S
C871 C870 1.387 . S
C871 C873 1.387 . S
H872 C879 0.950 . S
C873 C871 1.387 . S
C873 C875 1.390 . S
C873 H877 0.950 . S
H874 C870 0.950 . S
C875 C873 1.390 . S
C875 C876 1.387 . S
C875 H878 0.950 . S
C876 C875 1.387 . S
C876 C879 1.387 . S
H877 C873 0.950 . S
H878 C875 0.950 . S
C879 C870 1.390 . S
C879 H872 0.950 . S
C879 C876 1.387 . S
C641 C391 2.685 . S
C646 C490 2.859 1_545 S
C656 C530 2.866 . S
C651 C451 2.688 . S
C666 C570 2.868 . S
C661 C241 2.333 . S
C676 C610 2.861 1_455 S
C671 C331 2.320 1_455 S
C686 C499 2.860 1_564 S
C681 C121 2.318 . S
C691 C211 2.696 . S
C696 C539 2.866 1_554 S
C701 C31 2.701 . S
C706 C579 2.868 1_554 S
C711 C91 2.321 . S
C716 C619 2.863 1_654 S
C726 C496 0.804 . S
C721 C301 0.783 . S
C736 C536 0.809 . S
C731 C380 0.839 1_565 S
C746 C576 0.791 . S
C741 C440 0.818 . S
C751 C260 0.784 . S
C756 C616 0.796 . S
C761 C61 0.817 1_455 S
C766 C487 0.805 . S
C776 C527 0.810 . S
C771 C140 0.819 1_545 S
C786 C567 0.791 . S
C781 C200 0.796 . S
C791 C20 0.798 . S
C796 C607 0.797 . S
C801 C320 3.410 1_455 S
C806 C491 3.732 . S
C811 C361 2.944 . S
C816 C531 3.725 . S
C826 C571 3.722 . S
C821 C421 2.938 . S
C836 C611 3.733 . S
C831 C271 3.403 . S
C841 C80 3.389 . S
C846 C482 3.740 . S
C856 C522 3.726 . S
C851 C151 3.378 . S
C866 C562 3.722 . S
C861 C181 2.967 . S
C871 C1 2.978 . S
C876 C602 3.737 . S
