# Generated by pormake.
# Topology wbl, (4,4)-cn, num edge types: 1
# Building blocks:
#     Node 0, Type 0, BuildingBlock: MUDLON_clean_linker_0, # of connection points: 4
#     Node 1, Type 0, BuildingBlock: MUDLON_clean_linker_0, # of connection points: 4
#     Node 2, Type 0, BuildingBlock: MUDLON_clean_linker_0, # of connection points: 4
#     Node 3, Type 0, BuildingBlock: MUDLON_clean_linker_0, # of connection points: 4
#     Node 4, Type 0, BuildingBlock: MUDLON_clean_linker_0, # of connection points: 4
#     Node 5, Type 0, BuildingBlock: MUDLON_clean_linker_0, # of connection points: 4
#     Node 6, Type 0, BuildingBlock: MUDLON_clean_linker_0, # of connection points: 4
#     Node 7, Type 0, BuildingBlock: MUDLON_clean_linker_0, # of connection points: 4
#     Node 8, Type 1, BuildingBlock: QUQFOY_clean_sbu_3, # of connection points: 4
#     Node 9, Type 1, BuildingBlock: QUQFOY_clean_sbu_3, # of connection points: 4
#     Node 10, Type 1, BuildingBlock: QUQFOY_clean_sbu_3, # of connection points: 4
#     Node 11, Type 1, BuildingBlock: QUQFOY_clean_sbu_3, # of connection points: 4
#     Node 12, Type 1, BuildingBlock: QUQFOY_clean_sbu_3, # of connection points: 4
#     Node 13, Type 1, BuildingBlock: QUQFOY_clean_sbu_3, # of connection points: 4
#     Node 14, Type 1, BuildingBlock: QUQFOY_clean_sbu_3, # of connection points: 4
#     Node 15, Type 1, BuildingBlock: QUQFOY_clean_sbu_3, # of connection points: 4
#     Edge 16, Type (0, 1), BuildingBlock: CIFDUS_clean_linker_0, # of connection points: 2
#     Edge 17, Type (0, 1), BuildingBlock: CIFDUS_clean_linker_0, # of connection points: 2
#     Edge 18, Type (0, 1), BuildingBlock: CIFDUS_clean_linker_0, # of connection points: 2
#     Edge 19, Type (0, 1), BuildingBlock: CIFDUS_clean_linker_0, # of connection points: 2
#     Edge 20, Type (0, 1), BuildingBlock: CIFDUS_clean_linker_0, # of connection points: 2
#     Edge 21, Type (0, 1), BuildingBlock: CIFDUS_clean_linker_0, # of connection points: 2
#     Edge 22, Type (0, 1), BuildingBlock: CIFDUS_clean_linker_0, # of connection points: 2
#     Edge 23, Type (0, 1), BuildingBlock: CIFDUS_clean_linker_0, # of connection points: 2
#     Edge 24, Type (0, 1), BuildingBlock: CIFDUS_clean_linker_0, # of connection points: 2
#     Edge 25, Type (0, 1), BuildingBlock: CIFDUS_clean_linker_0, # of connection points: 2
#     Edge 26, Type (0, 1), BuildingBlock: CIFDUS_clean_linker_0, # of connection points: 2
#     Edge 27, Type (0, 1), BuildingBlock: CIFDUS_clean_linker_0, # of connection points: 2
#     Edge 28, Type (0, 1), BuildingBlock: CIFDUS_clean_linker_0, # of connection points: 2
#     Edge 29, Type (0, 1), BuildingBlock: CIFDUS_clean_linker_0, # of connection points: 2
#     Edge 30, Type (0, 1), BuildingBlock: CIFDUS_clean_linker_0, # of connection points: 2
#     Edge 31, Type (0, 1), BuildingBlock: CIFDUS_clean_linker_0, # of connection points: 2
#     Edge 32, Type (0, 1), BuildingBlock: CIFDUS_clean_linker_0, # of connection points: 2
#     Edge 33, Type (0, 1), BuildingBlock: CIFDUS_clean_linker_0, # of connection points: 2
#     Edge 34, Type (0, 1), BuildingBlock: CIFDUS_clean_linker_0, # of connection points: 2
#     Edge 35, Type (0, 1), BuildingBlock: CIFDUS_clean_linker_0, # of connection points: 2
#     Edge 36, Type (0, 1), BuildingBlock: CIFDUS_clean_linker_0, # of connection points: 2
#     Edge 37, Type (0, 1), BuildingBlock: CIFDUS_clean_linker_0, # of connection points: 2
#     Edge 38, Type (0, 1), BuildingBlock: CIFDUS_clean_linker_0, # of connection points: 2
#     Edge 39, Type (0, 1), BuildingBlock: CIFDUS_clean_linker_0, # of connection points: 2
#     Edge 40, Type (0, 1), BuildingBlock: CIFDUS_clean_linker_0, # of connection points: 2
#     Edge 41, Type (0, 1), BuildingBlock: CIFDUS_clean_linker_0, # of connection points: 2
#     Edge 42, Type (0, 1), BuildingBlock: CIFDUS_clean_linker_0, # of connection points: 2
#     Edge 43, Type (0, 1), BuildingBlock: CIFDUS_clean_linker_0, # of connection points: 2
#     Edge 44, Type (0, 1), BuildingBlock: CIFDUS_clean_linker_0, # of connection points: 2
#     Edge 45, Type (0, 1), BuildingBlock: CIFDUS_clean_linker_0, # of connection points: 2
#     Edge 46, Type (0, 1), BuildingBlock: CIFDUS_clean_linker_0, # of connection points: 2
#     Edge 47, Type (0, 1), BuildingBlock: CIFDUS_clean_linker_0, # of connection points: 2
# Relax obj value: 0.124
# Max RMSD: 0.150
# Mean RMSD: 0.134
data_MOF--net-wbl--node1-QUQFOY_clean_sbu_3--node2-MUDLON_clean_linker_0--edge1-CIFDUS_clean_linker_0
_symmetry_space_group_name_H-M    P1
_symmetry_Int_Tables_number       1
_symmetry_cell_setting            triclinic
loop_
_symmetry_equiv_pos_as_xyz
'x, y, z'
_cell_length_a     49.196874
_cell_length_b     49.672196
_cell_length_c     69.802364
_cell_angle_alpha  90.841543
_cell_angle_beta   90.33589
_cell_angle_gamma 90.067223
loop_
_atom_site_label
_atom_site_type_symbol
_atom_site_fract_x
_atom_site_fract_y
_atom_site_fract_z
_atom_type_partial_charge
H0 H 0.09466 0.96528 0.33379 0.0
N1 N 0.08094 0.92675 0.30671 0.0
H2 H 0.10048 0.95864 0.36788 0.0
H3 H 0.07374 0.88148 0.32596 0.0
H4 H 0.07904 0.87471 0.36055 0.0
H5 H 0.08908 0.89109 0.27867 0.0
H6 H 0.1322 0.87979 0.26308 0.0
H7 H 0.12927 0.95404 0.31126 0.0
H8 H 0.17217 0.94264 0.29619 0.0
H9 H 0.09211 0.98054 0.30168 0.0
H10 H 0.02875 0.92068 0.2982 0.0
H11 H 0.05869 0.01599 0.29776 0.0
H12 H 0.99512 0.95599 0.2929 0.0
H13 H 0.97395 0.10745 0.33057 0.0
H14 H 0.96305 0.11332 0.36476 0.0
H15 H 0.89511 0.05897 0.35766 0.0
H16 H 0.90562 0.05349 0.3239 0.0
H17 H 0.91253 0.03883 0.28973 0.0
H18 H 0.87078 0.04842 0.27251 0.0
H19 H 0.89155 0.133 0.27237 0.0
H20 H 0.93315 0.12323 0.29036 0.0
H21 H 0.99394 0.07669 0.2844 0.0
H22 H 0.02629 0.03971 0.27969 0.0
H23 H 0.97428 0.98785 0.31267 0.0
N24 N 0.94832 0.07639 0.30472 0.0
H25 H 0.94191 0.02391 0.31629 0.0
C26 C 0.0836 0.92379 0.32718 0.0
C27 C 0.09101 0.94545 0.33935 0.0
C28 C 0.09421 0.94165 0.35899 0.0
C29 C 0.09008 0.91618 0.36699 0.0
C30 C 0.08259 0.89455 0.35483 0.0
C31 C 0.0794 0.89838 0.33512 0.0
C32 C 0.10581 0.92328 0.29614 0.0
C33 C 0.10709 0.90273 0.28222 0.0
C34 C 0.13175 0.8962 0.27346 0.0
C35 C 0.15568 0.91019 0.2785 0.0
C36 C 0.1541 0.93166 0.2918 0.0
C37 C 0.12944 0.93816 0.30054 0.0
C38 C 0.06282 0.94784 0.30066 0.0
C39 C 0.07108 0.9749 0.29963 0.0
C40 C 0.05183 0.99528 0.29717 0.0
C41 C 0.024 0.989 0.29535 0.0
C42 C 0.01622 0.96172 0.29483 0.0
C43 C 0.03541 0.94144 0.29763 0.0
C44 C 0.94086 0.07998 0.32461 0.0
C45 C 0.95666 0.09695 0.33643 0.0
C46 C 0.95039 0.10032 0.35586 0.0
C47 C 0.92839 0.08639 0.3638 0.0
C48 C 0.9124 0.06965 0.35193 0.0
C49 C 0.91841 0.0666 0.33254 0.0
C50 C 0.92607 0.08043 0.29149 0.0
C51 C 0.90853 0.05938 0.28573 0.0
C52 C 0.88454 0.06491 0.27575 0.0
C53 C 0.87761 0.09155 0.27119 0.0
C54 C 0.89598 0.11233 0.27596 0.0
C55 C 0.91989 0.10678 0.28605 0.0
C56 C 0.96564 0.05345 0.30089 0.0
C57 C 0.98944 0.05716 0.29031 0.0
C58 C 0.00797 0.03604 0.28777 0.0
C59 C 0.0031 0.01072 0.29591 0.0
C60 C 0.97869 0.00682 0.30591 0.0
C61 C 0.96013 0.02779 0.30825 0.0
H62 H 0.93567 0.41014 0.56401 0.0
N63 N 0.91463 0.45191 0.54359 0.0
H64 H 0.93036 0.40251 0.59822 0.0
H65 H 0.88878 0.48316 0.56894 0.0
H66 H 0.88307 0.47545 0.60338 0.0
H67 H 0.86493 0.43098 0.54358 0.0
H68 H 0.85032 0.38762 0.53066 0.0
H69 H 0.94322 0.42034 0.51678 0.0
H70 H 0.92842 0.37755 0.5035 0.0
H71 H 0.96701 0.43268 0.54529 0.0
H72 H 0.91885 0.50256 0.53238 0.0
H73 H 0.00828 0.45879 0.54196 0.0
H74 H 0.96016 0.52967 0.53049 0.0
H75 H 0.12962 0.5622 0.56514 0.0
H76 H 0.13939 0.57188 0.59905 0.0
H77 H 0.05465 0.59057 0.60818 0.0
H78 H 0.04504 0.58056 0.57445 0.0
H79 H 0.04841 0.6095 0.54761 0.0
H80 H 0.05895 0.6536 0.53471 0.0
H81 H 0.13257 0.62144 0.50988 0.0
H82 H 0.12214 0.57737 0.52341 0.0
H83 H 0.07163 0.51819 0.56344 0.0
H84 H 0.03203 0.48976 0.5598 0.0
H85 H 0.00085 0.54217 0.51593 0.0
N86 N 0.08189 0.56542 0.54707 0.0
H87 H 0.0398 0.57154 0.52039 0.0
C88 C 0.91275 0.44743 0.56395 0.0
C89 C 0.92463 0.4248 0.57253 0.0
C90 C 0.92154 0.42043 0.5921 0.0
C91 C 0.90637 0.43843 0.60347 0.0
C92 C 0.89474 0.46117 0.59493 0.0
C93 C 0.89804 0.46566 0.57534 0.0
C94 C 0.90563 0.42879 0.53218 0.0
C95 C 0.87886 0.41959 0.53466 0.0
C96 C 0.87044 0.39475 0.52712 0.0
C97 C 0.88841 0.37862 0.51641 0.0
C98 C 0.91437 0.38895 0.51232 0.0
C99 C 0.92294 0.4137 0.52009 0.0
C100 C 0.9396 0.46553 0.53872 0.0
C101 C 0.96525 0.45361 0.54146 0.0
C102 C 0.98899 0.46881 0.53984 0.0
C103 C 0.98779 0.49662 0.53628 0.0
C104 C 0.96213 0.5083 0.53297 0.0
C105 C 0.9384 0.49286 0.53409 0.0
C106 C 0.08672 0.57056 0.56726 0.0
C107 C 0.11321 0.56827 0.57453 0.0
C108 C 0.11873 0.57394 0.59383 0.0
C109 C 0.09777 0.58197 0.60626 0.0
C110 C 0.07116 0.58413 0.599 0.0
C111 C 0.06569 0.57861 0.57969 0.0
C112 C 0.08456 0.59004 0.53645 0.0
C113 C 0.06658 0.61178 0.53914 0.0
C114 C 0.07259 0.63701 0.53163 0.0
C115 C 0.09675 0.64114 0.52136 0.0
C116 C 0.114 0.61905 0.51794 0.0
C117 C 0.10794 0.5938 0.52545 0.0
C118 C 0.05849 0.54812 0.54315 0.0
C119 C 0.05616 0.52387 0.55317 0.0
C120 C 0.03352 0.50725 0.55081 0.0
C121 C 0.01283 0.51365 0.53766 0.0
C122 C 0.01589 0.53696 0.52663 0.0
C123 C 0.03842 0.55395 0.52926 0.0
H124 H 0.62352 0.46779 0.82656 0.0
N125 N 0.58364 0.44381 0.80475 0.0
H126 H 0.62948 0.46441 0.86121 0.0
H127 H 0.55377 0.41534 0.82888 0.0
H128 H 0.55991 0.4115 0.86369 0.0
H129 H 0.60985 0.39721 0.8033 0.0
H130 H 0.65415 0.38772 0.78952 0.0
H131 H 0.61267 0.47749 0.78033 0.0
H132 H 0.65622 0.46773 0.76605 0.0
H133 H 0.59569 0.49749 0.80971 0.0
H134 H 0.53379 0.44207 0.78993 0.0
H135 H 0.56442 0.53484 0.80609 0.0
H136 H 0.50166 0.4794 0.78713 0.0
H137 H 0.44466 0.64134 0.82067 0.0
H138 H 0.42964 0.6518 0.85338 0.0
H139 H 0.41946 0.56683 0.86373 0.0
H140 H 0.43503 0.55659 0.83134 0.0
H141 H 0.41257 0.55066 0.80187 0.0
H142 H 0.36732 0.55138 0.78747 0.0
H143 H 0.38317 0.63082 0.76569 0.0
H144 H 0.42834 0.63019 0.78067 0.0
H145 H 0.4931 0.58589 0.82575 0.0
H146 H 0.52693 0.55085 0.82325 0.0
H147 H 0.48805 0.52024 0.77172 0.0
N148 N 0.44838 0.59303 0.80379 0.0
H149 H 0.45345 0.55478 0.77452 0.0
C150 C 0.58799 0.4419 0.82516 0.0
C151 C 0.60934 0.45573 0.83455 0.0
C152 C 0.61273 0.45379 0.85435 0.0
C153 C 0.59508 0.43779 0.86511 0.0
C154 C 0.57388 0.42386 0.8557 0.0
C155 C 0.57031 0.42605 0.83591 0.0
C156 C 0.6079 0.43827 0.79362 0.0
C157 C 0.61974 0.41266 0.79505 0.0
C158 C 0.64507 0.4072 0.787 0.0
C159 C 0.65906 0.42711 0.77687 0.0
C160 C 0.64641 0.45218 0.77426 0.0
C161 C 0.62119 0.45778 0.78255 0.0
C162 C 0.56715 0.46681 0.79992 0.0
C163 C 0.57544 0.49333 0.80436 0.0
C164 C 0.55736 0.51474 0.80245 0.0
C165 C 0.53033 0.51015 0.7966 0.0
C166 C 0.52238 0.48377 0.79147 0.0
C167 C 0.54067 0.46238 0.79309 0.0
C168 C 0.441 0.59832 0.82353 0.0
C169 C 0.43941 0.62504 0.8301 0.0
C170 C 0.43065 0.63094 0.8487 0.0
C171 C 0.42329 0.61013 0.8611 0.0
C172 C 0.42525 0.58329 0.8546 0.0
C173 C 0.43392 0.57742 0.836 0.0
C174 C 0.42387 0.59052 0.79238 0.0
C175 C 0.4065 0.56807 0.79378 0.0
C176 C 0.38066 0.56844 0.78541 0.0
C177 C 0.37157 0.59127 0.77558 0.0
C178 C 0.38946 0.6131 0.7734 0.0
C179 C 0.41533 0.61268 0.78175 0.0
C180 C 0.46898 0.57215 0.80134 0.0
C181 C 0.49128 0.57137 0.81409 0.0
C182 C 0.5111 0.5515 0.81243 0.0
C183 C 0.51003 0.53234 0.79744 0.0
C184 C 0.48899 0.53413 0.78381 0.0
C185 C 0.46893 0.55397 0.78556 0.0
H186 H 0.4548 0.91058 0.06349 0.0
N187 N 0.43066 0.955 0.04814 0.0
H188 H 0.4568 0.899 0.09734 0.0
H189 H 0.41122 0.98337 0.07768 0.0
H190 H 0.41289 0.97171 0.11174 0.0
H191 H 0.38055 0.93567 0.05123 0.0
H192 H 0.3626 0.8937 0.03779 0.0
H193 H 0.45351 0.92538 0.01773 0.0
H194 H 0.43546 0.88402 0.00419 0.0
H195 H 0.48266 0.93564 0.04358 0.0
H196 H 0.43301 0.00671 0.03932 0.0
H197 H 0.52298 0.96201 0.03737 0.0
H198 H 0.47367 0.03397 0.03478 0.0
H199 H 0.64354 0.06833 0.06171 0.0
H200 H 0.6522 0.08043 0.0954 0.0
H201 H 0.56659 0.09616 0.10313 0.0
H202 H 0.55811 0.0839 0.0696 0.0
H203 H 0.56545 0.1151 0.04351 0.0
H204 H 0.57829 0.15809 0.02994 0.0
H205 H 0.64842 0.12074 0.00377 0.0
H206 H 0.6356 0.07764 0.01786 0.0
H207 H 0.59035 0.01951 0.05583 0.0
H208 H 0.55068 0.99072 0.05389 0.0
H209 H 0.51077 0.04865 0.01761 0.0
N210 N 0.59622 0.06915 0.043 0.0
H211 H 0.54981 0.07814 0.02063 0.0
C212 C 0.43296 0.94803 0.0681 0.0
C213 C 0.44604 0.9243 0.07393 0.0
C214 C 0.44714 0.91767 0.09328 0.0
C215 C 0.43502 0.93447 0.10716 0.0
C216 C 0.42222 0.9583 0.10132 0.0
C217 C 0.42132 0.96503 0.08196 0.0
C218 C 0.41897 0.93346 0.03642 0.0
C219 C 0.39252 0.92472 0.04073 0.0
C220 C 0.3822 0.90072 0.03295 0.0
C221 C 0.39792 0.88505 0.02031 0.0
C222 C 0.42325 0.89511 0.01446 0.0
C223 C 0.43371 0.919 0.0224 0.0
C224 C 0.45449 0.9691 0.04152 0.0
C225 C 0.48031 0.95692 0.04102 0.0
C226 C 0.50359 0.97225 0.03777 0.0
C227 C 0.50193 0.00039 0.03587 0.0
C228 C 0.47598 0.01238 0.03584 0.0
C229 C 0.4526 0.99684 0.03851 0.0
C230 C 0.6003 0.07507 0.06316 0.0
C231 C 0.62669 0.0742 0.07076 0.0
C232 C 0.63158 0.08127 0.08992 0.0
C233 C 0.61006 0.08926 0.10188 0.0
C234 C 0.58352 0.0898 0.09432 0.0
C235 C 0.57868 0.08291 0.07513 0.0
C236 C 0.5996 0.09302 0.03166 0.0
C237 C 0.58321 0.11594 0.03448 0.0
C238 C 0.59055 0.14056 0.02661 0.0
C239 C 0.61452 0.14292 0.01586 0.0
C240 C 0.63001 0.11966 0.01216 0.0
C241 C 0.62258 0.09498 0.02 0.0
C242 C 0.57321 0.05153 0.03902 0.0
C243 C 0.57307 0.02602 0.0474 0.0
C244 C 0.55031 0.00936 0.04606 0.0
C245 C 0.52712 0.01728 0.03568 0.0
C246 C 0.52784 0.04211 0.0262 0.0
C247 C 0.5505 0.05913 0.02791 0.0
H248 H 0.09943 0.5677 0.93424 0.0
N249 N 0.05416 0.5922 0.94886 0.0
H250 H 0.11221 0.56457 0.90048 0.0
H251 H 0.02633 0.61017 0.91885 0.0
H252 H 0.03911 0.60734 0.88495 0.0
H253 H 0.07382 0.64148 0.94429 0.0
H254 H 0.11402 0.66148 0.95908 0.0
H255 H 0.08182 0.57258 0.98097 0.0
H256 H 0.12129 0.59287 0.99611 0.0
H257 H 0.07407 0.54142 0.95536 0.0
H258 H 0.00152 0.58984 0.95638 0.0
H259 H 0.04744 0.50152 0.96196 0.0
H260 H 0.97416 0.54968 0.96128 0.0
H261 H 0.93021 0.38274 0.93522 0.0
H262 H 0.91799 0.37554 0.90172 0.0
H263 H 0.92466 0.46134 0.89243 0.0
H264 H 0.93369 0.46838 0.9263 0.0
H265 H 0.89221 0.45929 0.95122 0.0
H266 H 0.84839 0.44845 0.96543 0.0
H267 H 0.88491 0.38089 0.99411 0.0
H268 H 0.92885 0.39191 0.97967 0.0
H269 H 0.99032 0.43321 0.94357 0.0
H270 H 0.01977 0.47228 0.94596 0.0
H271 H 0.9583 0.51439 0.97877 0.0
N272 N 0.93857 0.4293 0.95365 0.0
H273 H 0.9283 0.4761 0.97513 0.0
C274 C 0.06179 0.58911 0.92901 0.0
C275 C 0.08592 0.57597 0.92356 0.0
C276 C 0.09321 0.57421 0.90426 0.0
C277 C 0.07665 0.58572 0.8901 0.0
C278 C 0.05236 0.59849 0.89558 0.0
C279 C 0.04499 0.60005 0.91486 0.0
C280 C 0.07512 0.60489 0.96065 0.0
C281 C 0.08393 0.6308 0.95572 0.0
C282 C 0.10688 0.64236 0.96435 0.0
C283 C 0.12138 0.62855 0.97855 0.0
C284 C 0.11121 0.60366 0.98473 0.0
C285 C 0.0884 0.5919 0.9759 0.0
C286 C 0.03983 0.5689 0.95577 0.0
C287 C 0.05239 0.54358 0.9573 0.0
C288 C 0.03694 0.52055 0.96077 0.0
C289 C 0.00839 0.52199 0.96192 0.0
C290 C 0.99603 0.54753 0.9609 0.0
C291 C 0.01163 0.57064 0.95801 0.0
C292 C 0.93339 0.4259 0.93331 0.0
C293 C 0.92903 0.39992 0.92587 0.0
C294 C 0.92229 0.39589 0.90658 0.0
C295 C 0.92054 0.41779 0.89401 0.0
C296 C 0.92526 0.44389 0.90152 0.0
C297 C 0.93098 0.44797 0.92097 0.0
C298 C 0.9139 0.42649 0.96456 0.0
C299 C 0.89094 0.44257 0.96095 0.0
C300 C 0.86591 0.43634 0.9691 0.0
C301 C 0.86319 0.41374 0.98084 0.0
C302 C 0.88635 0.39829 0.985 0.0
C303 C 0.91147 0.4047 0.97695 0.0
C304 C 0.95669 0.45151 0.95858 0.0
C305 C 0.98328 0.45081 0.95143 0.0
C306 C 0.00026 0.47326 0.95299 0.0
C307 C 0.99147 0.49695 0.96237 0.0
C308 C 0.96557 0.49695 0.97087 0.0
C309 C 0.94826 0.47468 0.96886 0.0
H310 H 0.55233 0.39857 0.18606 0.0
N311 N 0.56862 0.4436 0.20625 0.0
H312 H 0.56115 0.38859 0.1523 0.0
H313 H 0.59209 0.47556 0.1808 0.0
H314 H 0.6004 0.4658 0.14669 0.0
H315 H 0.61797 0.42375 0.21155 0.0
H316 H 0.62985 0.38005 0.22426 0.0
H317 H 0.53457 0.41165 0.22834 0.0
H318 H 0.54659 0.36882 0.24204 0.0
H319 H 0.51597 0.42863 0.19848 0.0
H320 H 0.56592 0.49271 0.22163 0.0
H321 H 0.47625 0.45772 0.19997 0.0
H322 H 0.52644 0.52256 0.22236 0.0
H323 H 0.36908 0.57254 0.17631 0.0
H324 H 0.36354 0.58249 0.14219 0.0
H325 H 0.45011 0.5961 0.13802 0.0
H326 H 0.45551 0.5849 0.1716 0.0
H327 H 0.45871 0.60652 0.20073 0.0
H328 H 0.45823 0.65149 0.21499 0.0
H329 H 0.37461 0.64003 0.23174 0.0
H330 H 0.37499 0.59515 0.21664 0.0
H331 H 0.42597 0.52698 0.17612 0.0
H332 H 0.46111 0.49408 0.18168 0.0
H333 H 0.48257 0.53441 0.23489 0.0
N334 N 0.41505 0.57233 0.19679 0.0
H335 H 0.44788 0.56802 0.22911 0.0
C336 C 0.57204 0.43774 0.18605 0.0
C337 C 0.56282 0.41341 0.17764 0.0
C338 C 0.56784 0.4077 0.15835 0.0
C339 C 0.58156 0.42638 0.14701 0.0
C340 C 0.58971 0.45113 0.15517 0.0
C341 C 0.5851 0.45666 0.17458 0.0
C342 C 0.57533 0.42102 0.21834 0.0
C343 C 0.60238 0.41209 0.21855 0.0
C344 C 0.60916 0.38701 0.22594 0.0
C345 C 0.58907 0.37041 0.23386 0.0
C346 C 0.56244 0.38055 0.23542 0.0
C347 C 0.55554 0.40542 0.22761 0.0
C348 C 0.54401 0.45849 0.2101 0.0
C349 C 0.51832 0.44884 0.20423 0.0
C350 C 0.49562 0.46566 0.20489 0.0
C351 C 0.49815 0.49268 0.21101 0.0
C352 C 0.5236 0.50183 0.21776 0.0
C353 C 0.54624 0.48484 0.21733 0.0
C354 C 0.41256 0.57808 0.17657 0.0
C355 C 0.38678 0.57756 0.16793 0.0
C356 C 0.38368 0.58343 0.1485 0.0
C357 C 0.40639 0.59011 0.13734 0.0
C358 C 0.43222 0.59068 0.14607 0.0
C359 C 0.43531 0.58466 0.16541 0.0
C360 C 0.41673 0.59742 0.20753 0.0
C361 C 0.44027 0.61357 0.20749 0.0
C362 C 0.44006 0.63926 0.21587 0.0
C363 C 0.41633 0.64945 0.22446 0.0
C364 C 0.39311 0.63294 0.22502 0.0
C365 C 0.39334 0.60722 0.2166 0.0
C366 C 0.43542 0.55188 0.20116 0.0
C367 C 0.4385 0.52934 0.18884 0.0
C368 C 0.4584 0.51002 0.19224 0.0
C369 C 0.47519 0.51186 0.20856 0.0
C370 C 0.47067 0.53293 0.22182 0.0
C371 C 0.45079 0.55243 0.21835 0.0
H372 H 0.39991 0.9508 0.43903 0.0
N373 N 0.44738 0.93546 0.45639 0.0
H374 H 0.38554 0.93966 0.40629 0.0
H375 H 0.47645 0.91078 0.42926 0.0
H376 H 0.46225 0.89993 0.39622 0.0
H377 H 0.43127 0.88565 0.46326 0.0
H378 H 0.38937 0.87171 0.47856 0.0
H379 H 0.41543 0.9681 0.48012 0.0
H380 H 0.37442 0.95416 0.49612 0.0
H381 H 0.42959 0.98716 0.4509 0.0
H382 H 0.49891 0.93974 0.46733 0.0
H383 H 0.45727 0.02768 0.45189 0.0
H384 H 0.52754 0.97984 0.46684 0.0
H385 H 0.57569 0.13766 0.42133 0.0
H386 H 0.59054 0.13882 0.38808 0.0
H387 H 0.59025 0.05167 0.38589 0.0
H388 H 0.57769 0.0509 0.4195 0.0
H389 H 0.61253 0.06109 0.44573 0.0
H390 H 0.65639 0.07208 0.46032 0.0
H391 H 0.62417 0.14825 0.48043 0.0
H392 H 0.58036 0.13724 0.46527 0.0
H393 H 0.51981 0.08535 0.42763 0.0
H394 H 0.48905 0.0483 0.43348 0.0
H395 H 0.54173 0.02108 0.47906 0.0
N396 N 0.5687 0.09468 0.4431 0.0
H397 H 0.57325 0.05704 0.47238 0.0
C398 C 0.43923 0.93126 0.43666 0.0
C399 C 0.41375 0.93985 0.42979 0.0
C400 C 0.4055 0.93342 0.41111 0.0
C401 C 0.42273 0.91878 0.39885 0.0
C402 C 0.44864 0.9113 0.40541 0.0
C403 C 0.45674 0.91739 0.42421 0.0
C404 C 0.4265 0.92795 0.46991 0.0
C405 C 0.41925 0.90065 0.47078 0.0
C406 C 0.39521 0.8927 0.47961 0.0
C407 C 0.37799 0.91188 0.48822 0.0
C408 C 0.38662 0.93893 0.48902 0.0
C409 C 0.41045 0.94695 0.47986 0.0
C410 C 0.4621 0.96035 0.45945 0.0
C411 C 0.45073 0.98551 0.45505 0.0
C412 C 0.46683 0.00871 0.45529 0.0
C413 C 0.49492 0.00725 0.45919 0.0
C414 C 0.506 0.9821 0.46408 0.0
C415 C 0.48969 0.95902 0.46432 0.0
C416 C 0.57519 0.09435 0.42288 0.0
C417 C 0.57872 0.11887 0.41357 0.0
C418 C 0.58702 0.11941 0.39448 0.0
C419 C 0.59153 0.09531 0.38408 0.0
C420 C 0.5875 0.07068 0.3934 0.0
C421 C 0.57989 0.07018 0.41263 0.0
C422 C 0.5931 0.0984 0.45447 0.0
C423 C 0.61476 0.07994 0.45355 0.0
C424 C 0.63982 0.08623 0.46199 0.0
C425 C 0.64386 0.11113 0.47148 0.0
C426 C 0.62184 0.12906 0.47303 0.0
C427 C 0.59674 0.12271 0.4646 0.0
C428 C 0.54974 0.0737 0.44874 0.0
C429 C 0.52488 0.07133 0.43884 0.0
C430 C 0.50701 0.05018 0.44242 0.0
C431 C 0.5129 0.03121 0.45663 0.0
C432 C 0.53685 0.03466 0.46756 0.0
C433 C 0.55507 0.05554 0.46368 0.0
H434 H 0.04449 0.89243 0.68248 0.0
N435 N 0.06781 0.9313 0.70547 0.0
H436 H 0.05519 0.88286 0.64892 0.0
H437 H 0.10282 0.95731 0.68347 0.0
H438 H 0.11446 0.94698 0.64994 0.0
H439 H 0.1157 0.90996 0.7134 0.0
H440 H 0.12488 0.86575 0.72631 0.0
H441 H 0.03007 0.89902 0.72398 0.0
H442 H 0.03923 0.85569 0.73795 0.0
H443 H 0.01415 0.92144 0.69637 0.0
H444 H 0.0687 0.97966 0.7222 0.0
H445 H 0.9768 0.95293 0.69935 0.0
H446 H 0.03131 0.01206 0.72453 0.0
H447 H 0.86674 0.06685 0.69263 0.0
H448 H 0.85279 0.08308 0.66104 0.0
H449 H 0.93672 0.10042 0.64797 0.0
H450 H 0.95044 0.08348 0.67912 0.0
H451 H 0.96102 0.09982 0.70992 0.0
H452 H 0.96094 0.14557 0.72314 0.0
H453 H 0.87944 0.13346 0.74405 0.0
H454 H 0.87947 0.08776 0.73039 0.0
H455 H 0.92772 0.02553 0.68202 0.0
H456 H 0.96339 0.9924 0.68359 0.0
H457 H 0.98812 0.0238 0.73902 0.0
N458 N 0.91676 0.06613 0.70755 0.0
H459 H 0.95285 0.05787 0.73726 0.0
C460 C 0.07256 0.92602 0.68539 0.0
C461 C 0.05916 0.90501 0.67538 0.0
C462 C 0.06539 0.89942 0.65624 0.0
C463 C 0.08554 0.91427 0.64693 0.0
C464 C 0.09883 0.93529 0.65688 0.0
C465 C 0.0922 0.94124 0.67591 0.0
C466 C 0.07227 0.90794 0.71724 0.0
C467 C 0.09896 0.8984 0.71907 0.0
C468 C 0.10417 0.87305 0.7266 0.0
C469 C 0.08275 0.85673 0.73296 0.0
C470 C 0.05618 0.86726 0.73264 0.0
C471 C 0.05092 0.89242 0.72469 0.0
C472 C 0.04444 0.94811 0.70917 0.0
C473 C 0.01816 0.94091 0.70286 0.0
C474 C 0.99672 0.95914 0.70441 0.0
C475 C 0.00108 0.98522 0.71192 0.0
C476 C 0.02714 0.99208 0.71884 0.0
C477 C 0.04855 0.97365 0.71748 0.0
C478 C 0.90951 0.07387 0.68826 0.0
C479 C 0.88207 0.07386 0.6828 0.0
C480 C 0.87416 0.08336 0.66486 0.0
C481 C 0.89365 0.09311 0.65201 0.0
C482 C 0.92122 0.09276 0.65741 0.0
C483 C 0.92909 0.08328 0.67532 0.0
C484 C 0.92005 0.09037 0.71906 0.0
C485 C 0.94335 0.10676 0.7177 0.0
C486 C 0.94335 0.13289 0.72537 0.0
C487 C 0.92004 0.1432 0.73439 0.0
C488 C 0.89754 0.12616 0.73692 0.0
C489 C 0.89761 0.10001 0.72931 0.0
C490 C 0.93853 0.04623 0.70872 0.0
C491 C 0.94116 0.02612 0.69435 0.0
C492 C 0.96138 0.00658 0.69543 0.0
C493 C 0.97898 0.00564 0.71131 0.0
C494 C 0.97547 0.02449 0.72629 0.0
C495 C 0.95525 0.04423 0.72517 0.0
C496 C 0.37483 0.64513 0.03245 0.0
O497 O 0.39567 0.64285 0.02191 0.0
Cd498 Cd 0.39824 0.66215 0.99069 0.0
O499 O 0.35317 0.65588 0.02602 0.0
Cd500 Cd 0.33436 0.67389 0.99564 0.0
C501 C 0.37628 0.7273 0.00087 0.0
O502 O 0.36002 0.64678 0.97257 0.0
O503 O 0.33869 0.68115 0.96132 0.0
O504 O 0.29764 0.64219 -0.00062 0.0
C505 C 0.3532 0.6605 0.95812 0.0
O506 O 0.39489 0.71055 0.99643 0.0
C507 C 0.27833 0.65897 -0.00189 0.0
O508 O 0.35162 0.71967 0.00247 0.0
O509 O 0.28493 0.68357 0.99618 0.0
C510 C 0.40766 0.88895 0.21458 0.0
O511 O 0.42949 0.88261 0.22321 0.0
Cd512 Cd 0.43061 0.86436 0.25498 0.0
O513 O 0.38473 0.88558 0.22258 0.0
Cd514 Cd 0.36701 0.86826 0.25311 0.0
C515 C 0.39545 0.80615 0.24717 0.0
O516 O 0.40018 0.89097 0.27428 0.0
O517 O 0.37238 0.86342 0.28765 0.0
O518 O 0.33064 0.90171 0.25105 0.0
C519 C 0.39094 0.88097 0.28954 0.0
O520 O 0.41805 0.81694 0.25186 0.0
C521 C 0.31139 0.885 0.25321 0.0
O522 O 0.37419 0.82051 0.24535 0.0
O523 O 0.31802 0.86044 0.25488 0.0
C524 C 0.13665 0.88299 0.47382 0.0
O525 O 0.13353 0.90371 0.48443 0.0
Cd526 Cd 0.15274 0.90731 0.51585 0.0
O527 O 0.14831 0.86209 0.48035 0.0
Cd528 Cd 0.16702 0.84576 0.51141 0.0
C529 C 0.21933 0.88892 0.50663 0.0
O530 O 0.13737 0.86975 0.53391 0.0
O531 O 0.17434 0.85336 0.54572 0.0
O532 O 0.13885 0.80585 0.50685 0.0
C533 C 0.15173 0.86488 0.54859 0.0
O534 O 0.20189 0.90702 0.51073 0.0
C535 C 0.15764 0.78881 0.50949 0.0
O536 O 0.21239 0.86423 0.50518 0.0
O537 O 0.18134 0.7982 0.51262 0.0
C538 C 0.12725 0.61196 0.78352 0.0
O539 O 0.13265 0.59048 0.77423 0.0
Cd540 Cd 0.15419 0.59115 0.74323 0.0
O541 O 0.13327 0.63477 0.77664 0.0
Cd542 Cd 0.15486 0.65339 0.74792 0.0
C543 C 0.21468 0.62077 0.75465 0.0
O544 O 0.13308 0.62466 0.72335 0.0
O545 O 0.16635 0.64968 0.71413 0.0
O546 O 0.12262 0.69063 0.7479 0.0
C547 C 0.14716 0.63369 0.70967 0.0
O548 O 0.20254 0.59958 0.74868 0.0
C549 C 0.1403 0.70904 0.75016 0.0
O550 O 0.20164 0.6427 0.75699 0.0
O551 O 0.16492 0.70159 0.75151 0.0
C552 C 0.88291 0.12207 0.4707 0.0
O553 O 0.88153 0.10093 0.48066 0.0
Cd554 Cd 0.86374 0.0995 0.51245 0.0
O555 O 0.87503 0.14465 0.47756 0.0
Cd556 Cd 0.8561 0.1632 0.50797 0.0
C557 C 0.79943 0.12416 0.50397 0.0
O558 O 0.88349 0.13648 0.52966 0.0
O559 O 0.85057 0.15835 0.54283 0.0
O560 O 0.88728 0.20091 0.50546 0.0
C561 C 0.87121 0.14334 0.54485 0.0
O562 O 0.81479 0.10476 0.5088 0.0
C563 C 0.86944 0.21931 0.50603 0.0
O564 O 0.80922 0.14764 0.50145 0.0
O565 O 0.8448 0.21174 0.50717 0.0
C566 C 0.9029 0.38683 0.71104 0.0
O567 O 0.92209 0.37894 0.72169 0.0
Cd568 Cd 0.89463 0.35957 0.7458 0.0
O569 O 0.87861 0.38324 0.71667 0.0
Cd570 Cd 0.86438 0.36168 0.74807 0.0
C571 C 0.88986 0.30068 0.74366 0.0
O572 O 0.8914 0.3872 0.77334 0.0
O573 O 0.87741 0.34796 0.78126 0.0
O574 O 0.82546 0.39236 0.75058 0.0
C575 C 0.88791 0.37026 0.78642 0.0
O576 O 0.90906 0.31391 0.75147 0.0
C577 C 0.80758 0.37397 0.75096 0.0
O578 O 0.86906 0.31361 0.7381 0.0
O579 O 0.81608 0.34992 0.74989 0.0
C580 C 0.6258 0.3993 0.97365 0.0
O581 O 0.62568 0.41965 0.98488 0.0
Cd582 Cd 0.64186 0.41825 0.01746 0.0
O583 O 0.634 0.37652 0.9795 0.0
Cd584 Cd 0.65155 0.35523 0.00889 0.0
C585 C 0.70705 0.39622 0.00878 0.0
O586 O 0.62286 0.37928 0.03204 0.0
O587 O 0.6548 0.35437 0.04364 0.0
O588 O 0.62172 0.31789 0.00028 0.0
C589 C 0.63451 0.36952 0.04664 0.0
O590 O 0.69095 0.41474 0.01439 0.0
C591 C 0.63949 0.29956 0.00191 0.0
O592 O 0.69813 0.37266 0.00474 0.0
O593 O 0.66346 0.30714 0.0063 0.0
C594 C 0.63768 0.12405 0.27667 0.0
O595 O 0.64374 0.1031 0.26698 0.0
Cd596 Cd 0.66392 0.10462 0.23561 0.0
O597 O 0.64301 0.14738 0.27038 0.0
Cd598 Cd 0.66517 0.16753 0.24232 0.0
C599 C 0.7246 0.13334 0.24778 0.0
O600 O 0.64272 0.13982 0.21764 0.0
O601 O 0.67539 0.1653 0.20812 0.0
O602 O 0.63294 0.20467 0.24415 0.0
C603 C 0.6563 0.1491 0.20382 0.0
O604 O 0.71217 0.11294 0.24078 0.0
C605 C 0.65064 0.22313 0.24606 0.0
O606 O 0.7119 0.1552 0.2513 0.0
O607 O 0.67537 0.21577 0.24639 0.0
H608 H 0.19813 0.94124 0.26681 0.0
H609 H 0.17376 0.85854 0.27416 0.0
H610 H 0.2192 0.84338 0.26545 0.0
H611 H 0.26679 0.85367 0.25832 0.0
H612 H 0.29177 0.93638 0.25201 0.0
H613 H 0.24526 0.95142 0.25784 0.0
C614 C 0.20275 0.9199 0.26646 0.0
C615 C 0.18254 0.9011 0.27121 0.0
C616 C 0.22911 0.9113 0.26178 0.0
C617 C 0.18877 0.87347 0.27036 0.0
C618 C 0.21486 0.86476 0.26554 0.0
C619 C 0.26203 0.87498 0.25804 0.0
C620 C 0.28278 0.89387 0.25489 0.0
C621 C 0.23531 0.88351 0.26159 0.0
C622 C 0.27622 0.9214 0.25449 0.0
C623 C 0.24962 0.93003 0.25785 0.0
H624 H 0.14697 0.66419 0.52377 0.0
H625 H 0.06438 0.68038 0.50622 0.0
H626 H 0.07639 0.72716 0.50004 0.0
H627 H 0.10958 0.76404 0.5015 0.0
H628 H 0.19221 0.74793 0.51894 0.0
H629 H 0.18104 0.70037 0.52289 0.0
C630 C 0.1317 0.67777 0.51821 0.0
C631 C 0.10474 0.66876 0.51558 0.0
C632 C 0.13872 0.70469 0.51474 0.0
C633 C 0.08517 0.68684 0.50865 0.0
C634 C 0.09204 0.71359 0.50505 0.0
C635 C 0.12523 0.7501 0.506 0.0
C636 C 0.15165 0.75959 0.51005 0.0
C637 C 0.11862 0.72284 0.50838 0.0
C638 C 0.17171 0.74119 0.51577 0.0
C639 C 0.16531 0.71399 0.51808 0.0
H640 H 0.33765 0.63402 0.77929 0.0
H641 H 0.34093 0.55235 0.7575 0.0
H642 H 0.2927 0.55435 0.74901 0.0
H643 H 0.24944 0.5789 0.74858 0.0
H644 H 0.24643 0.66075 0.77023 0.0
H645 H 0.29486 0.65912 0.77776 0.0
C646 C 0.32795 0.61681 0.77237 0.0
C647 C 0.34289 0.59309 0.769 0.0
C648 C 0.30025 0.61807 0.7676 0.0
C649 C 0.32984 0.57078 0.76039 0.0
C650 C 0.30228 0.57192 0.7555 0.0
C651 C 0.25934 0.59642 0.75493 0.0
C652 C 0.24421 0.61987 0.75891 0.0
C653 C 0.28723 0.59538 0.75922 0.0
C654 C 0.25749 0.64241 0.76704 0.0
C655 C 0.28522 0.64151 0.77136 0.0
H656 H 0.42956 0.84058 0.01763 0.0
H657 H 0.34646 0.8668 0.01116 0.0
H658 H 0.33212 0.82026 0.00501 0.0
H659 H 0.3433 0.77179 0.00199 0.0
H660 H 0.42703 0.74686 0.0076 0.0
H661 H 0.44093 0.79326 0.01329 0.0
C662 C 0.40837 0.83631 0.01447 0.0
C663 C 0.38918 0.85727 0.01479 0.0
C664 C 0.40031 0.80963 0.01088 0.0
C665 C 0.36168 0.85107 0.01116 0.0
C666 C 0.35346 0.82445 0.0076 0.0
C667 C 0.36456 0.77654 0.00449 0.0
C668 C 0.38404 0.75579 0.00441 0.0
C669 C 0.37259 0.8035 0.0076 0.0
C670 C 0.41156 0.76236 0.00752 0.0
C671 C 0.41959 0.78893 0.0108 0.0
H672 H 0.16659 0.59939 0.98681 0.0
H673 H 0.13699 0.68114 0.98551 0.0
H674 H 0.18278 0.69796 0.99228 0.0
H675 H 0.23198 0.68939 0.99631 0.0
H676 H 0.26041 0.60726 -0.00145 0.0
H677 H 0.2142 0.59079 0.99418 0.0
C678 C 0.16985 0.62088 0.9885 0.0
C679 C 0.14825 0.63889 0.98545 0.0
C680 C 0.19615 0.63043 0.99249 0.0
C681 C 0.15325 0.66673 0.98739 0.0
C682 C 0.17945 0.6764 0.99134 0.0
C683 C 0.22799 0.66791 0.99605 0.0
C684 C 0.24972 0.64963 0.99756 0.0
C685 C 0.2012 0.65844 0.9935 0.0
C686 C 0.24416 0.62184 0.99733 0.0
C687 C 0.21769 0.61234 0.99478 0.0
H688 H 0.37524 0.68573 0.22068 0.0
H689 H 0.45581 0.67685 0.24457 0.0
H690 H 0.45619 0.72435 0.25403 0.0
H691 H 0.43443 0.76875 0.25437 0.0
H692 H 0.35345 0.77743 0.23109 0.0
H693 H 0.3523 0.7295 0.22288 0.0
C694 C 0.3927 0.69402 0.22828 0.0
C695 C 0.41553 0.67771 0.23179 0.0
C696 C 0.39276 0.72135 0.23374 0.0
C697 C 0.43813 0.689 0.2414 0.0
C698 C 0.43833 0.71615 0.24689 0.0
C699 C 0.41647 0.76018 0.24756 0.0
C700 C 0.39415 0.77677 0.24323 0.0
C701 C 0.41591 0.73259 0.24289 0.0
C702 C 0.37096 0.7652 0.23457 0.0
C703 C 0.37029 0.73777 0.22983 0.0
H704 H 0.33147 0.94121 0.48523 0.0
H705 H 0.36147 0.86478 0.50509 0.0
H706 H 0.31506 0.85051 0.51193 0.0
H707 H 0.2656 0.85941 0.51156 0.0
H708 H 0.2367 0.93719 0.49376 0.0
H709 H 0.28313 0.95136 0.48718 0.0
C710 C 0.32811 0.92166 0.4915 0.0
C711 C 0.35015 0.90414 0.49454 0.0
C712 C 0.30145 0.91372 0.49569 0.0
C713 C 0.34498 0.87861 0.50227 0.0
C714 C 0.31841 0.87044 0.50627 0.0
C715 C 0.26953 0.87943 0.50623 0.0
C716 C 0.24773 0.89714 0.50302 0.0
C717 C 0.29643 0.8877 0.50281 0.0
C718 C 0.25312 0.92317 0.49637 0.0
C719 C 0.27967 0.9313 0.49258 0.0
H720 H 0.12751 0.83532 0.75076 0.0
H721 H 0.04965 0.81312 0.72618 0.0
H722 H 0.05967 0.76587 0.73114 0.0
H723 H 0.09197 0.73049 0.73963 0.0
H724 H 0.17154 0.75215 0.76116 0.0
H725 H 0.15964 0.79987 0.75975 0.0
C726 C 0.11273 0.82022 0.74638 0.0
C727 C 0.08785 0.82808 0.73805 0.0
C728 C 0.11907 0.79286 0.74848 0.0
C729 C 0.06877 0.80801 0.73295 0.0
C730 C 0.07461 0.78082 0.73555 0.0
C731 C 0.10663 0.74564 0.74417 0.0
C732 C 0.13262 0.73781 0.75042 0.0
C733 C 0.09989 0.773 0.74291 0.0
C734 C 0.15144 0.75768 0.75619 0.0
C735 C 0.14464 0.78496 0.7554 0.0
H736 H 0.68068 0.38048 0.76225 0.0
H737 H 0.70154 0.46278 0.77686 0.0
H738 H 0.74879 0.45409 0.76867 0.0
H739 H 0.78489 0.42241 0.75967 0.0
H740 H 0.7647 0.33935 0.74733 0.0
H741 H 0.71664 0.34898 0.75269 0.0
C742 C 0.69554 0.39653 0.76374 0.0
C743 C 0.68739 0.42224 0.77023 0.0
C744 C 0.72292 0.3912 0.7596 0.0
C745 C 0.70697 0.44289 0.77163 0.0
C746 C 0.73413 0.43788 0.76714 0.0
C747 C 0.76995 0.40646 0.75801 0.0
C748 C 0.77837 0.3802 0.75318 0.0
C749 C 0.74241 0.41202 0.76142 0.0
C750 C 0.75877 0.35973 0.75113 0.0
C751 C 0.73127 0.36521 0.75418 0.0
H752 H 0.58523 0.18467 0.00146 0.0
H753 H 0.66648 0.16213 0.01838 0.0
H754 H 0.6821 0.20818 0.01368 0.0
H755 H 0.67169 0.25583 0.008 0.0
H756 H 0.58999 0.27857 0.99225 0.0
H757 H 0.57562 0.23162 0.99334 0.0
C758 C 0.60639 0.18981 0.00401 0.0
C759 C 0.62457 0.16997 0.01037 0.0
C760 C 0.61514 0.21648 0.00167 0.0
C761 C 0.65205 0.17688 0.01328 0.0
C762 C 0.66098 0.20331 0.01078 0.0
C763 C 0.65084 0.25047 0.00455 0.0
C764 C 0.63192 0.27074 0.00024 0.0
C765 C 0.64257 0.22341 0.00544 0.0
C766 C 0.60497 0.26342 0.99575 0.0
C767 C 0.59668 0.23655 0.99639 0.0
H768 H 0.84441 0.13366 0.28027 0.0
H769 H 0.84938 0.06304 0.24364 0.0
H770 H 0.80273 0.07025 0.23282 0.0
H771 H 0.75986 0.09518 0.23504 0.0
H772 H 0.75523 0.16653 0.27093 0.0
H773 H 0.80274 0.16075 0.28043 0.0
C774 C 0.83556 0.12015 0.2696 0.0
C775 C 0.85041 0.0977 0.26291 0.0
C776 C 0.80876 0.12447 0.26336 0.0
C777 C 0.83832 0.0802 0.2493 0.0
C778 C 0.81166 0.08437 0.24304 0.0
C779 C 0.76925 0.10955 0.24488 0.0
C780 C 0.75391 0.13109 0.25242 0.0
C781 C 0.79655 0.10615 0.25024 0.0
C782 C 0.76654 0.14973 0.26494 0.0
C783 C 0.79368 0.1464 0.27042 0.0
H784 H 0.92125 0.33454 0.51621 0.0
H785 H 0.83849 0.35876 0.50494 0.0
H786 H 0.82527 0.31168 0.50045 0.0
H787 H 0.83681 0.26331 0.50144 0.0
H788 H 0.92014 0.23991 0.51132 0.0
H789 H 0.93354 0.28702 0.51421 0.0
C790 C 0.90043 0.32972 0.5123 0.0
C791 C 0.88092 0.35034 0.51109 0.0
C792 C 0.89299 0.30264 0.50958 0.0
C793 C 0.85392 0.34338 0.50634 0.0
C794 C 0.84632 0.31642 0.5037 0.0
C795 C 0.85791 0.26856 0.5041 0.0
C796 C 0.87738 0.24809 0.50633 0.0
C797 C 0.8656 0.29583 0.50563 0.0
C798 C 0.9047 0.25523 0.50959 0.0
C799 C 0.91241 0.28219 0.51128 0.0
H800 H 0.68058 0.0798 0.49009 0.0
H801 H 0.66916 0.16 0.46856 0.0
H802 H 0.71571 0.17176 0.47773 0.0
H803 H 0.76069 0.15834 0.49 0.0
H804 H 0.77205 0.07748 0.51053 0.0
H805 H 0.72473 0.06696 0.50343 0.0
C806 C 0.68827 0.09985 0.48738 0.0
C807 C 0.67139 0.11891 0.47858 0.0
C808 C 0.71519 0.10635 0.49238 0.0
C809 C 0.68157 0.14498 0.47551 0.0
C810 C 0.70829 0.15167 0.4806 0.0
C811 C 0.75278 0.13848 0.49304 0.0
C812 C 0.77009 0.11873 0.50066 0.0
C813 C 0.72544 0.1324 0.48879 0.0
C814 C 0.75937 0.0931 0.50455 0.0
C815 C 0.73224 0.087 0.5005 0.0
H816 H 0.87804 0.17631 0.72656 0.0
H817 H 0.95799 0.17556 0.75223 0.0
H818 H 0.95569 0.22436 0.75753 0.0
H819 H 0.93126 0.26733 0.75405 0.0
H820 H 0.85144 0.26746 0.72795 0.0
H821 H 0.85334 0.21871 0.72379 0.0
C822 C 0.89477 0.18674 0.73364 0.0
C823 C 0.91805 0.17234 0.73914 0.0
C824 C 0.8934 0.21469 0.73644 0.0
C825 C 0.93986 0.18624 0.74784 0.0
C826 C 0.93854 0.21411 0.75088 0.0
C827 C 0.91428 0.25669 0.74747 0.0
C828 C 0.89129 0.27107 0.74127 0.0
C829 C 0.9155 0.22858 0.74506 0.0
C830 C 0.86943 0.25694 0.73281 0.0
C831 C 0.87046 0.22904 0.73044 0.0
H832 H 0.82371 0.44555 0.99607 0.0
H833 H 0.84132 0.36314 0.98035 0.0
H834 H 0.79495 0.34998 0.98847 0.0
H835 H 0.74848 0.36249 -0.00186 0.0
H836 H 0.73128 0.44527 0.01355 0.0
H837 H 0.77822 0.45757 0.00736 0.0
C838 C 0.8174 0.4247 0.99447 0.0
C839 C 0.83589 0.4054 0.98755 0.0
C840 C 0.79067 0.41733 -0.00102 0.0
C841 C 0.82755 0.37837 0.98583 0.0
C842 C 0.80097 0.37086 0.99033 0.0
C843 C 0.75503 0.38318 0.00025 0.0
C844 C 0.7362 0.4029 0.00615 0.0
C845 C 0.78221 0.39025 0.99664 0.0
C846 C 0.74518 0.42961 0.00893 0.0
C847 C 0.77208 0.43674 0.00538 0.0
H848 H 0.63653 0.34938 0.24823 0.0
H849 H 0.55579 0.32646 0.22938 0.0
H850 H 0.56709 0.27931 0.2333 0.0
H851 H 0.60085 0.24425 0.23915 0.0
H852 H 0.68281 0.26653 0.25506 0.0
H853 H 0.67021 0.31415 0.25473 0.0
C854 C 0.62138 0.33415 0.24489 0.0
C855 C 0.5953 0.3418 0.23848 0.0
C856 C 0.62833 0.30681 0.24638 0.0
C857 C 0.57585 0.32153 0.2347 0.0
C858 C 0.58239 0.29439 0.23669 0.0
C859 C 0.61593 0.2595 0.24271 0.0
C860 C 0.64275 0.25186 0.24704 0.0
C861 C 0.60871 0.28679 0.24211 0.0
C862 C 0.66205 0.27188 0.25156 0.0
C863 C 0.65485 0.29911 0.2514 0.0
H864 H 0.11512 0.87422 0.38466 0.0
H865 H 0.07434 0.94956 0.3963 0.0
H866 H 0.08437 0.94542 0.43038 0.0
H867 H 0.10641 0.92158 0.45663 0.0
H868 H 0.14673 0.84588 0.44532 0.0
H869 H 0.13469 0.84879 0.41141 0.0
C870 C 0.10803 0.88952 0.39469 0.0
C871 C 0.09423 0.9123 0.38788 0.0
C872 C 0.11382 0.887 0.41432 0.0
C873 C 0.08545 0.93207 0.40108 0.0
C874 C 0.09106 0.92966 0.4206 0.0
C875 C 0.11247 0.90561 0.4468 0.0
C876 C 0.12765 0.88366 0.45353 0.0
C877 C 0.10558 0.90743 0.42733 0.0
C878 C 0.13509 0.86306 0.44056 0.0
C879 C 0.12827 0.86472 0.42113 0.0
H880 H 0.13964 0.61188 0.62053 0.0
H881 H 0.06895 0.56707 0.63775 0.0
H882 H 0.07807 0.57887 0.67131 0.0
H883 H 0.10599 0.60225 0.69572 0.0
H884 H 0.17651 0.6473 0.67827 0.0
H885 H 0.16776 0.63482 0.64488 0.0
C886 C 0.12641 0.60446 0.63165 0.0
C887 C 0.10369 0.5886 0.62667 0.0
C888 C 0.13173 0.61137 0.65087 0.0
C889 C 0.08644 0.57952 0.64121 0.0
C890 C 0.0917 0.58617 0.6604 0.0
C891 C 0.11947 0.60928 0.68462 0.0
C892 C 0.14186 0.62567 0.6895 0.0
C893 C 0.11424 0.60216 0.66539 0.0
C894 C 0.15911 0.63467 0.67492 0.0
C895 C 0.15413 0.62755 0.65581 0.0
H896 H 0.38723 0.64901 0.87141 0.0
H897 H 0.43603 0.58496 0.89456 0.0
H898 H 0.41817 0.59446 0.92653 0.0
H899 H 0.3889 0.62116 0.94794 0.0
H900 H 0.34067 0.68566 0.92477 0.0
H901 H 0.35829 0.67591 0.89281 0.0
C902 C 0.39419 0.63733 0.88349 0.0
C903 C 0.41296 0.61635 0.88061 0.0
C904 C 0.38391 0.64294 0.90182 0.0
C905 C 0.42139 0.60106 0.89636 0.0
C906 C 0.41127 0.60654 0.91465 0.0
C907 C 0.3822 0.63304 0.93589 0.0
C908 C 0.3635 0.65409 0.93874 0.0
C909 C 0.39249 0.62741 0.91755 0.0
C910 C 0.35506 0.66934 0.92298 0.0
C911 C 0.36513 0.6638 0.90469 0.0
H912 H 0.39223 0.93517 0.13145 0.0
H913 H 0.47751 0.91567 0.12842 0.0
H914 H 0.4768 0.90057 0.16161 0.0
H915 H 0.45163 0.89184 0.19115 0.0
H916 H 0.36599 0.91046 0.19383 0.0
H917 H 0.36724 0.92719 0.16117 0.0
C918 C 0.41072 0.92793 0.13816 0.0
C919 C 0.43489 0.92657 0.12755 0.0
C920 C 0.41009 0.91905 0.15714 0.0
C921 C 0.45861 0.91671 0.13628 0.0
C922 C 0.45823 0.90815 0.15525 0.0
C923 C 0.43325 0.89968 0.18465 0.0
C924 C 0.40875 0.89984 0.19496 0.0
C925 C 0.43402 0.90903 0.16577 0.0
C926 C 0.38512 0.90999 0.18623 0.0
C927 C 0.3858 0.9196 0.16754 0.0
H928 H 0.07648 0.62761 0.86569 0.0
H929 H 0.09672 0.54337 0.86912 0.0
H930 H 0.11303 0.54364 0.83606 0.0
H931 H 0.1229 0.56831 0.80657 0.0
H932 H 0.10381 0.653 0.80378 0.0
H933 H 0.08538 0.65196 0.8361 0.0
C934 C 0.08412 0.60923 0.8591 0.0
C935 C 0.08534 0.58549 0.86979 0.0
C936 C 0.09371 0.60963 0.84022 0.0
C937 C 0.09577 0.56194 0.8612 0.0
C938 C 0.10501 0.56207 0.8423 0.0
C939 C 0.1145 0.58648 0.81297 0.0
C940 C 0.11478 0.61069 0.80275 0.0
C941 C 0.1043 0.58587 0.83172 0.0
C942 C 0.10398 0.63411 0.81133 0.0
C943 C 0.09342 0.63355 0.82983 0.0
H944 H 0.36603 0.61927 0.12049 0.0
H945 H 0.43986 0.57581 0.10772 0.0
H946 H 0.43655 0.58893 0.07428 0.0
H947 H 0.41335 0.6135 0.04878 0.0
H948 H 0.33859 0.65557 0.06116 0.0
H949 H 0.34138 0.64173 0.09453 0.0
C950 C 0.38118 0.6123 0.11035 0.0
C951 C 0.4033 0.59677 0.11672 0.0
C952 C 0.37902 0.61966 0.09105 0.0
C953 C 0.42291 0.58824 0.10336 0.0
C954 C 0.42096 0.59559 0.08418 0.0
C955 C 0.39762 0.61962 0.05876 0.0
C956 C 0.3759 0.6357 0.05247 0.0
C957 C 0.39925 0.6115 0.07791 0.0
C958 C 0.35556 0.6432 0.06558 0.0
C959 C 0.35715 0.63534 0.0847 0.0
H960 H 0.44851 0.92498 0.36486 0.0
H961 H 0.37539 0.89338 0.38986 0.0
H962 H 0.35936 0.87832 0.35827 0.0
H963 H 0.36615 0.87411 0.32361 0.0
H964 H 0.4382 0.90746 0.29817 0.0
H965 H 0.45474 0.92179 0.32984 0.0
C966 C 0.42912 0.91473 0.36332 0.0
C967 C 0.41312 0.91025 0.37958 0.0
C968 C 0.4199 0.90644 0.34508 0.0
C969 C 0.3879 0.89722 0.37747 0.0
C970 C 0.37881 0.88852 0.35945 0.0
C971 C 0.38552 0.88443 0.32501 0.0
C972 C 0.40101 0.88959 0.30863 0.0
C973 C 0.39463 0.89301 0.34317 0.0
C974 C 0.42591 0.90327 0.3106 0.0
C975 C 0.43538 0.91145 0.32869 0.0
H976 H 0.13598 0.90195 0.63465 0.0
H977 H 0.05299 0.90929 0.61538 0.0
H978 H 0.06625 0.89532 0.58293 0.0
H979 H 0.10145 0.88023 0.56028 0.0
H980 H 0.18398 0.87037 0.58024 0.0
H981 H 0.17097 0.8861 0.6122 0.0
C982 C 0.12091 0.9007 0.62325 0.0
C983 C 0.09365 0.90681 0.62722 0.0
C984 C 0.12859 0.89209 0.60484 0.0
C985 C 0.07411 0.90468 0.61253 0.0
C986 C 0.08169 0.89671 0.59404 0.0
C987 C 0.11657 0.8816 0.57163 0.0
C988 C 0.14363 0.87423 0.56791 0.0
C989 C 0.10885 0.89023 0.59006 0.0
C990 C 0.16299 0.87586 0.58277 0.0
C991 C 0.15559 0.88491 0.60103 0.0
H992 H 0.59589 0.3919 0.88568 0.0
H993 H 0.60379 0.47812 0.89135 0.0
H994 H 0.61261 0.47395 0.9257 0.0
H995 H 0.61967 0.44567 0.95384 0.0
H996 H 0.61344 0.35924 0.94786 0.0
H997 H 0.60208 0.36364 0.91397 0.0
C998 C 0.59924 0.40977 0.89451 0.0
C999 C 0.59921 0.43526 0.88605 0.0
C1000 C 0.60464 0.40718 0.91416 0.0
C1001 C 0.60396 0.45826 0.89756 0.0
C1002 C 0.60891 0.45589 0.91718 0.0
C1003 C 0.61559 0.4278 0.94517 0.0
C1004 C 0.61741 0.40218 0.95339 0.0
C1005 C 0.60955 0.43043 0.9256 0.0
C1006 C 0.61229 0.37922 0.94189 0.0
C1007 C 0.60578 0.3817 0.9225 0.0
H1008 H 0.6501 0.12227 0.11525 0.0
H1009 H 0.5816 0.07517 0.1337 0.0
H1010 H 0.58978 0.08958 0.16688 0.0
H1011 H 0.61642 0.11558 0.19062 0.0
H1012 H 0.68477 0.1629 0.17202 0.0
H1013 H 0.67673 0.14821 0.13895 0.0
C1014 C 0.63713 0.11496 0.12657 0.0
C1015 C 0.61533 0.09762 0.12205 0.0
C1016 C 0.6419 0.12338 0.14557 0.0
C1017 C 0.59839 0.08869 0.13681 0.0
C1018 C 0.60311 0.09685 0.15578 0.0
C1019 C 0.62956 0.12267 0.17933 0.0
C1020 C 0.65117 0.14029 0.18379 0.0
C1021 C 0.62478 0.11423 0.16032 0.0
C1022 C 0.66798 0.14934 0.16899 0.0
C1023 C 0.66342 0.14094 0.15007 0.0
H1024 H 0.92217 0.13236 0.38496 0.0
H1025 H 0.92014 0.04581 0.38871 0.0
H1026 H 0.90688 0.04925 0.42232 0.0
H1027 H 0.89426 0.07669 0.45018 0.0
H1028 H 0.89458 0.16338 0.44647 0.0
H1029 H 0.91021 0.16007 0.41334 0.0
C1030 C 0.91909 0.11432 0.39326 0.0
C1031 C 0.92205 0.08888 0.38444 0.0
C1032 C 0.91104 0.11647 0.41251 0.0
C1033 C 0.91774 0.0656 0.39521 0.0
C1034 C 0.91021 0.06756 0.4144 0.0
C1035 C 0.89787 0.09491 0.4422 0.0
C1036 C 0.8932 0.12024 0.45082 0.0
C1037 C 0.90651 0.09287 0.42313 0.0
C1038 C 0.8979 0.1436 0.44018 0.0
C1039 C 0.90687 0.14174 0.42123 0.0
H1040 H 0.94377 0.42291 0.62986 0.0
H1041 H 0.85857 0.44098 0.62302 0.0
H1042 H 0.85017 0.42805 0.65612 0.0
H1043 H 0.86658 0.40895 0.68631 0.0
H1044 H 0.95187 0.39075 0.69308 0.0
H1045 H 0.96066 0.40637 0.66072 0.0
C1046 C 0.92339 0.42404 0.63566 0.0
C1047 C 0.9018 0.43271 0.624 0.0
C1048 C 0.91869 0.41645 0.65464 0.0
C1049 C 0.87555 0.43454 0.63176 0.0
C1050 C 0.87071 0.42699 0.65063 0.0
C1051 C 0.88713 0.40857 0.68076 0.0
C1052 C 0.90848 0.39848 0.69206 0.0
C1053 C 0.89206 0.41754 0.66211 0.0
C1054 C 0.93502 0.39834 0.68469 0.0
C1055 C 0.94008 0.40721 0.66616 0.0
H1056 H 0.57908 0.13211 0.35651 0.0
H1057 H 0.62605 0.05992 0.36581 0.0
H1058 H 0.64227 0.06117 0.33301 0.0
H1059 H 0.64516 0.08392 0.30205 0.0
H1060 H 0.60262 0.15881 0.29406 0.0
H1061 H 0.58319 0.15566 0.32611 0.0
C1062 C 0.59315 0.11679 0.35155 0.0
C1063 C 0.60112 0.0959 0.36382 0.0
C1064 C 0.60337 0.11819 0.33286 0.0
C1065 C 0.61894 0.07596 0.35675 0.0
C1066 C 0.62852 0.07678 0.33797 0.0
C1067 C 0.63145 0.0994 0.3073 0.0
C1068 C 0.62518 0.12148 0.29573 0.0
C1069 C 0.62105 0.0979 0.32595 0.0
C1070 C 0.60775 0.14165 0.30276 0.0
C1071 C 0.59664 0.13984 0.32106 0.0
H1072 H 0.91821 0.08528 0.61759 0.0
H1073 H 0.8504 0.12585 0.64423 0.0
H1074 H 0.8374 0.14495 0.61346 0.0
H1075 H 0.84576 0.15071 0.57905 0.0
H1076 H 0.91406 0.11056 0.55267 0.0
H1077 H 0.92667 0.09115 0.58336 0.0
C1078 C 0.90071 0.09847 0.6167 0.0
C1079 C 0.88533 0.10412 0.6332 0.0
C1080 C 0.89352 0.1096 0.59903 0.0
C1081 C 0.86241 0.12087 0.63171 0.0
C1082 C 0.85507 0.13198 0.61415 0.0
C1083 C 0.86343 0.13776 0.58003 0.0
C1084 C 0.87896 0.13213 0.5636 0.0
C1085 C 0.87054 0.12656 0.59773 0.0
C1086 C 0.90176 0.11525 0.5651 0.0
C1087 C 0.90898 0.1041 0.58264 0.0
H1088 H 0.93159 0.37375 0.87115 0.0
H1089 H 0.89303 0.45194 0.86982 0.0
H1090 H 0.88199 0.44506 0.83616 0.0
H1091 H 0.88152 0.41616 0.80715 0.0
H1092 H 0.91351 0.3356 0.81004 0.0
H1093 H 0.92811 0.34378 0.84321 0.0
C1094 C 0.92029 0.3892 0.86376 0.0
C1095 C 0.91345 0.41346 0.87331 0.0
C1096 C 0.91264 0.38461 0.8446 0.0
C1097 C 0.89939 0.43333 0.86299 0.0
C1098 C 0.8927 0.42932 0.84368 0.0
C1099 C 0.8918 0.40052 0.8151 0.0
C1100 C 0.89672 0.37544 0.80628 0.0
C1101 C 0.89912 0.40501 0.83436 0.0
C1102 C 0.90958 0.35506 0.81666 0.0
C1103 C 0.91793 0.35975 0.83557 0.0
H1104 H 0.6079 0.38202 0.13451 0.0
H1105 H 0.57124 0.45546 0.1149 0.0
H1106 H 0.58341 0.44384 0.08178 0.0
H1107 H 0.60516 0.41291 0.05855 0.0
H1108 H 0.64421 0.34088 0.07879 0.0
H1109 H 0.63032 0.3517 0.11153 0.0
C1110 C 0.60243 0.39534 0.12292 0.0
C1111 C 0.58856 0.41941 0.12699 0.0
C1112 C 0.60994 0.38877 0.10409 0.0
C1113 C 0.58196 0.43682 0.112 0.0
C1114 C 0.58886 0.43016 0.09312 0.0
C1115 C 0.61047 0.39955 0.07014 0.0
C1116 C 0.62557 0.37609 0.06629 0.0
C1117 C 0.60293 0.40621 0.089 0.0
C1118 C 0.63264 0.35909 0.08143 0.0
C1119 C 0.62469 0.36524 0.10014 0.0
loop_
_geom_bond_atom_site_label_1
_geom_bond_atom_site_label_2
_geom_bond_distance
_geom_bond_site_symmetry_2
_ccdc_geom_bond_type
H0 C27 0.929 . S
N1 C26 1.433 . S
N1 C32 1.435 . S
N1 C38 1.423 . S
H2 C28 0.930 . S
H3 C31 0.931 . S
H4 C30 0.929 . S
H5 C33 0.930 . S
H6 C34 0.932 . S
H7 C37 0.929 . S
H8 C36 0.931 . S
H9 C39 0.929 . S
H10 C43 0.932 . S
H11 C40 0.931 . S
H12 C42 0.929 . S
H13 C45 0.929 . S
H14 C46 0.930 . S
H15 C48 0.929 . S
H16 C49 0.931 . S
H17 C51 0.930 . S
H18 C52 0.932 . S
H19 C54 0.931 . S
H20 C55 0.929 . S
H21 C57 0.929 . S
H22 C58 0.931 . S
H23 C60 0.929 . S
N24 C44 1.433 . S
N24 C50 1.435 . S
N24 C56 1.423 . S
H25 C61 0.932 . S
C26 N1 1.433 . S
C26 C27 1.363 . S
C26 C31 1.370 . S
C27 H0 0.929 . S
C27 C26 1.363 . S
C27 C28 1.385 . S
C28 H2 0.930 . S
C28 C27 1.385 . S
C28 C29 1.357 . S
C29 C28 1.357 . S
C29 C30 1.406 . S
C30 H4 0.929 . S
C30 C29 1.406 . S
C30 C31 1.391 . S
C31 H3 0.931 . S
C31 C26 1.370 . S
C31 C30 1.391 . S
C32 N1 1.435 . S
C32 C33 1.358 . S
C32 C37 1.371 . S
C33 H5 0.930 . S
C33 C32 1.358 . S
C33 C34 1.405 . S
C34 H6 0.932 . S
C34 C33 1.405 . S
C34 C35 1.383 . S
C35 C34 1.383 . S
C35 C36 1.393 . S
C36 H8 0.931 . S
C36 C35 1.393 . S
C36 C37 1.382 . S
C37 H7 0.929 . S
C37 C32 1.371 . S
C37 C36 1.382 . S
C38 N1 1.423 . S
C38 C39 1.362 1_565 S
C38 C43 1.388 . S
C39 H9 0.929 . S
C39 C38 1.362 1_545 S
C39 C40 1.377 . S
C40 H11 0.931 . S
C40 C39 1.377 . S
C40 C41 1.396 . S
C41 C40 1.396 . S
C41 C42 1.348 1_545 S
C41 C59 1.472 . S
C42 H12 0.929 . S
C42 C41 1.348 1_565 S
C42 C43 1.443 . S
C43 H10 0.932 . S
C43 C38 1.388 . S
C43 C42 1.443 . S
C44 N24 1.433 . S
C44 C45 1.363 . S
C44 C49 1.370 . S
C45 H13 0.929 . S
C45 C44 1.363 . S
C45 C46 1.385 . S
C46 H14 0.930 . S
C46 C45 1.385 . S
C46 C47 1.357 . S
C47 C46 1.357 . S
C47 C48 1.406 . S
C48 H15 0.929 . S
C48 C47 1.406 . S
C48 C49 1.391 . S
C49 H16 0.931 . S
C49 C44 1.370 . S
C49 C48 1.391 . S
C50 N24 1.435 . S
C50 C51 1.358 . S
C50 C55 1.371 . S
C51 H17 0.930 . S
C51 C50 1.358 . S
C51 C52 1.405 . S
C52 H18 0.932 . S
C52 C51 1.405 . S
C52 C53 1.383 . S
C53 C52 1.383 . S
C53 C54 1.393 . S
C54 H19 0.931 . S
C54 C53 1.393 . S
C54 C55 1.382 . S
C55 H20 0.929 . S
C55 C50 1.371 . S
C55 C54 1.382 . S
C56 N24 1.423 . S
C56 C57 1.362 . S
C56 C61 1.388 . S
C57 H21 0.929 . S
C57 C56 1.362 . S
C57 C58 1.376 1_655 S
C58 H22 0.931 . S
C58 C57 1.376 1_455 S
C58 C59 1.396 . S
C59 C41 1.472 . S
C59 C58 1.396 . S
C59 C60 1.348 1_455 S
C60 H23 0.929 . S
C60 C59 1.348 1_655 S
C60 C61 1.443 . S
C61 H25 0.932 . S
C61 C56 1.388 . S
C61 C60 1.443 . S
H62 C89 0.929 . S
N63 C88 1.433 . S
N63 C94 1.435 . S
N63 C100 1.423 . S
H64 C90 0.930 . S
H65 C93 0.931 . S
H66 C92 0.929 . S
H67 C95 0.930 . S
H68 C96 0.932 . S
H69 C99 0.929 . S
H70 C98 0.931 . S
H71 C101 0.929 . S
H72 C105 0.932 . S
H73 C102 0.931 . S
H74 C104 0.929 . S
H75 C107 0.929 . S
H76 C108 0.930 . S
H77 C110 0.929 . S
H78 C111 0.931 . S
H79 C113 0.930 . S
H80 C114 0.932 . S
H81 C116 0.931 . S
H82 C117 0.929 . S
H83 C119 0.929 . S
H84 C120 0.931 . S
H85 C122 0.929 . S
N86 C106 1.433 . S
N86 C112 1.435 . S
N86 C118 1.423 . S
H87 C123 0.932 . S
C88 N63 1.433 . S
C88 C89 1.363 . S
C88 C93 1.370 . S
C89 H62 0.929 . S
C89 C88 1.363 . S
C89 C90 1.385 . S
C90 H64 0.930 . S
C90 C89 1.385 . S
C90 C91 1.357 . S
C91 C90 1.357 . S
C91 C92 1.406 . S
C92 H66 0.929 . S
C92 C91 1.406 . S
C92 C93 1.391 . S
C93 H65 0.931 . S
C93 C88 1.370 . S
C93 C92 1.391 . S
C94 N63 1.435 . S
C94 C95 1.358 . S
C94 C99 1.371 . S
C95 H67 0.930 . S
C95 C94 1.358 . S
C95 C96 1.405 . S
C96 H68 0.932 . S
C96 C95 1.405 . S
C96 C97 1.383 . S
C97 C96 1.383 . S
C97 C98 1.393 . S
C98 H70 0.931 . S
C98 C97 1.393 . S
C98 C99 1.382 . S
C99 H69 0.929 . S
C99 C94 1.371 . S
C99 C98 1.382 . S
C100 N63 1.423 . S
C100 C101 1.362 1_655 S
C100 C105 1.388 . S
C101 H71 0.929 . S
C101 C100 1.362 1_455 S
C101 C102 1.376 . S
C102 H73 0.931 . S
C102 C101 1.376 . S
C102 C103 1.396 . S
C103 C102 1.396 . S
C103 C104 1.348 1_455 S
C103 C121 1.472 . S
C104 H74 0.929 . S
C104 C103 1.348 1_655 S
C104 C105 1.443 . S
C105 H72 0.932 . S
C105 C100 1.388 . S
C105 C104 1.443 . S
C106 N86 1.433 . S
C106 C107 1.363 . S
C106 C111 1.370 . S
C107 H75 0.929 . S
C107 C106 1.363 . S
C107 C108 1.385 . S
C108 H76 0.930 . S
C108 C107 1.385 . S
C108 C109 1.357 . S
C109 C108 1.357 . S
C109 C110 1.406 . S
C110 H77 0.929 . S
C110 C109 1.406 . S
C110 C111 1.391 . S
C111 H78 0.931 . S
C111 C106 1.370 . S
C111 C110 1.391 . S
C112 N86 1.435 . S
C112 C113 1.358 . S
C112 C117 1.371 . S
C113 H79 0.930 . S
C113 C112 1.358 . S
C113 C114 1.405 . S
C114 H80 0.932 . S
C114 C113 1.405 . S
C114 C115 1.383 . S
C115 C114 1.383 . S
C115 C116 1.393 . S
C116 H81 0.931 . S
C116 C115 1.393 . S
C116 C117 1.382 . S
C117 H82 0.929 . S
C117 C112 1.371 . S
C117 C116 1.382 . S
C118 N86 1.423 . S
C118 C119 1.362 . S
C118 C123 1.388 . S
C119 H83 0.929 . S
C119 C118 1.362 . S
C119 C120 1.376 . S
C120 H84 0.931 . S
C120 C119 1.376 . S
C120 C121 1.396 . S
C121 C103 1.472 . S
C121 C120 1.396 . S
C121 C122 1.348 . S
C122 H85 0.929 . S
C122 C121 1.348 . S
C122 C123 1.443 . S
C123 H87 0.932 . S
C123 C118 1.388 . S
C123 C122 1.443 . S
H124 C151 0.929 . S
N125 C150 1.433 . S
N125 C156 1.435 . S
N125 C162 1.423 . S
H126 C152 0.930 . S
H127 C155 0.931 . S
H128 C154 0.929 . S
H129 C157 0.930 . S
H130 C158 0.932 . S
H131 C161 0.929 . S
H132 C160 0.931 . S
H133 C163 0.929 . S
H134 C167 0.932 . S
H135 C164 0.931 . S
H136 C166 0.929 . S
H137 C169 0.929 . S
H138 C170 0.930 . S
H139 C172 0.929 . S
H140 C173 0.931 . S
H141 C175 0.930 . S
H142 C176 0.932 . S
H143 C178 0.931 . S
H144 C179 0.929 . S
H145 C181 0.929 . S
H146 C182 0.931 . S
H147 C184 0.929 . S
N148 C168 1.433 . S
N148 C174 1.435 . S
N148 C180 1.423 . S
H149 C185 0.932 . S
C150 N125 1.433 . S
C150 C151 1.363 . S
C150 C155 1.370 . S
C151 H124 0.929 . S
C151 C150 1.363 . S
C151 C152 1.385 . S
C152 H126 0.930 . S
C152 C151 1.385 . S
C152 C153 1.357 . S
C153 C152 1.357 . S
C153 C154 1.406 . S
C154 H128 0.929 . S
C154 C153 1.406 . S
C154 C155 1.391 . S
C155 H127 0.931 . S
C155 C150 1.370 . S
C155 C154 1.391 . S
C156 N125 1.435 . S
C156 C157 1.358 . S
C156 C161 1.371 . S
C157 H129 0.930 . S
C157 C156 1.358 . S
C157 C158 1.405 . S
C158 H130 0.932 . S
C158 C157 1.405 . S
C158 C159 1.383 . S
C159 C158 1.383 . S
C159 C160 1.393 . S
C160 H132 0.931 . S
C160 C159 1.393 . S
C160 C161 1.382 . S
C161 H131 0.929 . S
C161 C156 1.371 . S
C161 C160 1.382 . S
C162 N125 1.423 . S
C162 C163 1.362 . S
C162 C167 1.388 . S
C163 H133 0.929 . S
C163 C162 1.362 . S
C163 C164 1.376 . S
C164 H135 0.931 . S
C164 C163 1.376 . S
C164 C165 1.396 . S
C165 C164 1.396 . S
C165 C166 1.348 . S
C165 C183 1.472 . S
C166 H136 0.929 . S
C166 C165 1.348 . S
C166 C167 1.443 . S
C167 H134 0.932 . S
C167 C162 1.388 . S
C167 C166 1.443 . S
C168 N148 1.433 . S
C168 C169 1.363 . S
C168 C173 1.370 . S
C169 H137 0.929 . S
C169 C168 1.363 . S
C169 C170 1.385 . S
C170 H138 0.930 . S
C170 C169 1.385 . S
C170 C171 1.357 . S
C171 C170 1.357 . S
C171 C172 1.406 . S
C172 H139 0.929 . S
C172 C171 1.406 . S
C172 C173 1.391 . S
C173 H140 0.931 . S
C173 C168 1.370 . S
C173 C172 1.391 . S
C174 N148 1.435 . S
C174 C175 1.358 . S
C174 C179 1.371 . S
C175 H141 0.930 . S
C175 C174 1.358 . S
C175 C176 1.405 . S
C176 H142 0.932 . S
C176 C175 1.405 . S
C176 C177 1.383 . S
C177 C176 1.383 . S
C177 C178 1.393 . S
C178 H143 0.931 . S
C178 C177 1.393 . S
C178 C179 1.382 . S
C179 H144 0.929 . S
C179 C174 1.371 . S
C179 C178 1.382 . S
C180 N148 1.423 . S
C180 C181 1.362 . S
C180 C185 1.388 . S
C181 H145 0.929 . S
C181 C180 1.362 . S
C181 C182 1.376 . S
C182 H146 0.931 . S
C182 C181 1.376 . S
C182 C183 1.396 . S
C183 C165 1.472 . S
C183 C182 1.396 . S
C183 C184 1.348 . S
C184 H147 0.929 . S
C184 C183 1.348 . S
C184 C185 1.443 . S
C185 H149 0.932 . S
C185 C180 1.388 . S
C185 C184 1.443 . S
H186 C213 0.929 . S
N187 C212 1.433 . S
N187 C218 1.435 . S
N187 C224 1.423 . S
H188 C214 0.930 . S
H189 C217 0.931 . S
H190 C216 0.929 . S
H191 C219 0.930 . S
H192 C220 0.932 . S
H193 C223 0.929 . S
H194 C222 0.931 . S
H195 C225 0.929 . S
H196 C229 0.932 . S
H197 C226 0.931 . S
H198 C228 0.929 . S
H199 C231 0.929 . S
H200 C232 0.930 . S
H201 C234 0.929 . S
H202 C235 0.931 . S
H203 C237 0.930 . S
H204 C238 0.932 . S
H205 C240 0.931 . S
H206 C241 0.929 . S
H207 C243 0.929 . S
H208 C244 0.931 1_565 S
H209 C246 0.929 . S
N210 C230 1.433 . S
N210 C236 1.435 . S
N210 C242 1.423 . S
H211 C247 0.932 . S
C212 N187 1.433 . S
C212 C213 1.363 . S
C212 C217 1.370 . S
C213 H186 0.929 . S
C213 C212 1.363 . S
C213 C214 1.385 . S
C214 H188 0.930 . S
C214 C213 1.385 . S
C214 C215 1.357 . S
C215 C214 1.357 . S
C215 C216 1.406 . S
C216 H190 0.929 . S
C216 C215 1.406 . S
C216 C217 1.391 . S
C217 H189 0.931 . S
C217 C212 1.370 . S
C217 C216 1.391 . S
C218 N187 1.435 . S
C218 C219 1.358 . S
C218 C223 1.371 . S
C219 H191 0.930 . S
C219 C218 1.358 . S
C219 C220 1.405 . S
C220 H192 0.932 . S
C220 C219 1.405 . S
C220 C221 1.383 . S
C221 C220 1.383 . S
C221 C222 1.393 . S
C222 H194 0.931 . S
C222 C221 1.393 . S
C222 C223 1.382 . S
C223 H193 0.929 . S
C223 C218 1.371 . S
C223 C222 1.382 . S
C224 N187 1.423 . S
C224 C225 1.362 . S
C224 C229 1.388 . S
C225 H195 0.929 . S
C225 C224 1.362 . S
C225 C226 1.376 . S
C226 H197 0.931 . S
C226 C225 1.376 . S
C226 C227 1.396 . S
C227 C226 1.396 . S
C227 C228 1.348 . S
C227 C245 1.472 1_565 S
C228 H198 0.929 . S
C228 C227 1.348 . S
C228 C229 1.443 . S
C229 H196 0.932 . S
C229 C224 1.388 . S
C229 C228 1.443 . S
C230 N210 1.433 . S
C230 C231 1.363 . S
C230 C235 1.370 . S
C231 H199 0.929 . S
C231 C230 1.363 . S
C231 C232 1.385 . S
C232 H200 0.930 . S
C232 C231 1.385 . S
C232 C233 1.357 . S
C233 C232 1.357 . S
C233 C234 1.406 . S
C234 H201 0.929 . S
C234 C233 1.406 . S
C234 C235 1.391 . S
C235 H202 0.931 . S
C235 C230 1.370 . S
C235 C234 1.391 . S
C236 N210 1.435 . S
C236 C237 1.358 . S
C236 C241 1.371 . S
C237 H203 0.930 . S
C237 C236 1.358 . S
C237 C238 1.405 . S
C238 H204 0.932 . S
C238 C237 1.405 . S
C238 C239 1.383 . S
C239 C238 1.383 . S
C239 C240 1.393 . S
C240 H205 0.931 . S
C240 C239 1.393 . S
C240 C241 1.382 . S
C241 H206 0.929 . S
C241 C236 1.371 . S
C241 C240 1.382 . S
C242 N210 1.423 . S
C242 C243 1.362 . S
C242 C247 1.388 . S
C243 H207 0.929 . S
C243 C242 1.362 . S
C243 C244 1.376 . S
C244 H208 0.931 1_545 S
C244 C243 1.376 . S
C244 C245 1.396 . S
C245 C227 1.472 1_545 S
C245 C244 1.396 . S
C245 C246 1.348 . S
C246 H209 0.929 . S
C246 C245 1.348 . S
C246 C247 1.443 . S
C247 H211 0.932 . S
C247 C242 1.388 . S
C247 C246 1.443 . S
H248 C275 0.929 . S
N249 C274 1.433 . S
N249 C280 1.435 . S
N249 C286 1.423 . S
H250 C276 0.930 . S
H251 C279 0.931 . S
H252 C278 0.929 . S
H253 C281 0.930 . S
H254 C282 0.932 . S
H255 C285 0.929 . S
H256 C284 0.931 1_554 S
H257 C287 0.929 . S
H258 C291 0.932 . S
H259 C288 0.931 . S
H260 C290 0.929 . S
H261 C293 0.929 . S
H262 C294 0.930 . S
H263 C296 0.929 . S
H264 C297 0.931 . S
H265 C299 0.930 . S
H266 C300 0.932 . S
H267 C302 0.881 1_554 S
H268 C303 0.929 . S
H269 C305 0.929 . S
H270 C306 0.931 1_455 S
H271 C308 0.929 . S
N272 C292 1.433 . S
N272 C298 1.435 . S
N272 C304 1.423 . S
H273 C309 0.932 . S
C274 N249 1.433 . S
C274 C275 1.363 . S
C274 C279 1.370 . S
C275 H248 0.929 . S
C275 C274 1.363 . S
C275 C276 1.385 . S
C276 H250 0.930 . S
C276 C275 1.385 . S
C276 C277 1.357 . S
C277 C276 1.357 . S
C277 C278 1.406 . S
C278 H252 0.929 . S
C278 C277 1.406 . S
C278 C279 1.391 . S
C279 H251 0.931 . S
C279 C274 1.370 . S
C279 C278 1.391 . S
C280 N249 1.435 . S
C280 C281 1.358 . S
C280 C285 1.371 . S
C281 H253 0.930 . S
C281 C280 1.358 . S
C281 C282 1.405 . S
C282 H254 0.932 . S
C282 C281 1.405 . S
C282 C283 1.383 . S
C283 C282 1.383 . S
C283 C284 1.393 . S
C284 H256 0.931 1_556 S
C284 C283 1.393 . S
C284 C285 1.382 . S
C285 H255 0.929 . S
C285 C280 1.371 . S
C285 C284 1.382 . S
C286 N249 1.423 . S
C286 C287 1.362 . S
C286 C291 1.388 . S
C287 H257 0.929 . S
C287 C286 1.362 . S
C287 C288 1.376 . S
C288 H259 0.931 . S
C288 C287 1.376 . S
C288 C289 1.396 . S
C289 C288 1.396 . S
C289 C290 1.348 . S
C289 C307 1.472 . S
C290 H260 0.929 . S
C290 C289 1.348 . S
C290 C291 1.443 . S
C291 H258 0.932 . S
C291 C286 1.388 . S
C291 C290 1.443 . S
C292 N272 1.433 . S
C292 C293 1.363 . S
C292 C297 1.370 . S
C293 H261 0.929 . S
C293 C292 1.363 . S
C293 C294 1.385 . S
C294 H262 0.930 . S
C294 C293 1.385 . S
C294 C295 1.357 . S
C295 C294 1.357 . S
C295 C296 1.406 . S
C296 H263 0.929 . S
C296 C295 1.406 . S
C296 C297 1.391 . S
C297 H264 0.931 . S
C297 C292 1.370 . S
C297 C296 1.391 . S
C298 N272 1.435 . S
C298 C299 1.358 . S
C298 C303 1.371 . S
C299 H265 0.930 . S
C299 C298 1.358 . S
C299 C300 1.405 . S
C300 H266 0.932 . S
C300 C299 1.405 . S
C300 C301 1.383 . S
C301 C300 1.383 . S
C301 C302 1.393 . S
C302 H267 0.881 1_556 S
C302 C301 1.393 . S
C302 C303 1.382 . S
C303 H268 0.929 . S
C303 C298 1.371 . S
C303 C302 1.382 . S
C304 N272 1.423 . S
C304 C305 1.362 . S
C304 C309 1.388 . S
C305 H269 0.929 . S
C305 C304 1.362 . S
C305 C306 1.376 . S
C306 H270 0.931 1_655 S
C306 C305 1.376 . S
C306 C307 1.396 1_655 S
C307 C289 1.472 . S
C307 C306 1.396 1_455 S
C307 C308 1.348 1_455 S
C308 H271 0.929 . S
C308 C307 1.348 1_655 S
C308 C309 1.443 . S
C309 H273 0.932 . S
C309 C304 1.388 . S
C309 C308 1.443 . S
H310 C337 0.929 . S
N311 C336 1.433 . S
N311 C342 1.435 . S
N311 C348 1.423 . S
H312 C338 0.930 . S
H313 C341 0.931 . S
H314 C340 0.929 . S
H315 C343 0.930 . S
H316 C344 0.932 . S
H317 C347 0.929 . S
H318 C346 0.931 . S
H319 C349 0.929 . S
H320 C353 0.932 . S
H321 C350 0.931 . S
H322 C352 0.929 . S
H323 C355 0.929 . S
H324 C356 0.930 . S
H325 C358 0.929 . S
H326 C359 0.931 . S
H327 C361 0.930 . S
H328 C362 0.932 . S
H329 C364 0.931 . S
H330 C365 0.929 . S
H331 C367 0.929 . S
H332 C368 0.931 . S
H333 C370 0.929 . S
N334 C354 1.433 . S
N334 C360 1.435 . S
N334 C366 1.423 . S
H335 C371 0.932 . S
C336 N311 1.433 . S
C336 C337 1.363 . S
C336 C341 1.370 . S
C337 H310 0.929 . S
C337 C336 1.363 . S
C337 C338 1.385 . S
C338 H312 0.930 . S
C338 C337 1.385 . S
C338 C339 1.357 . S
C339 C338 1.357 . S
C339 C340 1.406 . S
C340 H314 0.929 . S
C340 C339 1.406 . S
C340 C341 1.391 . S
C341 H313 0.931 . S
C341 C336 1.370 . S
C341 C340 1.391 . S
C342 N311 1.435 . S
C342 C343 1.358 . S
C342 C347 1.371 . S
C343 H315 0.930 . S
C343 C342 1.358 . S
C343 C344 1.405 . S
C344 H316 0.932 . S
C344 C343 1.405 . S
C344 C345 1.383 . S
C345 C344 1.383 . S
C345 C346 1.393 . S
C346 H318 0.931 . S
C346 C345 1.393 . S
C346 C347 1.382 . S
C347 H317 0.929 . S
C347 C342 1.371 . S
C347 C346 1.382 . S
C348 N311 1.423 . S
C348 C349 1.362 . S
C348 C353 1.388 . S
C349 H319 0.929 . S
C349 C348 1.362 . S
C349 C350 1.376 . S
C350 H321 0.931 . S
C350 C349 1.376 . S
C350 C351 1.396 . S
C351 C350 1.396 . S
C351 C352 1.348 . S
C351 C369 1.472 . S
C352 H322 0.929 . S
C352 C351 1.348 . S
C352 C353 1.443 . S
C353 H320 0.932 . S
C353 C348 1.388 . S
C353 C352 1.443 . S
C354 N334 1.433 . S
C354 C355 1.363 . S
C354 C359 1.370 . S
C355 H323 0.929 . S
C355 C354 1.363 . S
C355 C356 1.385 . S
C356 H324 0.930 . S
C356 C355 1.385 . S
C356 C357 1.357 . S
C357 C356 1.357 . S
C357 C358 1.406 . S
C358 H325 0.929 . S
C358 C357 1.406 . S
C358 C359 1.391 . S
C359 H326 0.931 . S
C359 C354 1.370 . S
C359 C358 1.391 . S
C360 N334 1.435 . S
C360 C361 1.358 . S
C360 C365 1.371 . S
C361 H327 0.930 . S
C361 C360 1.358 . S
C361 C362 1.405 . S
C362 H328 0.932 . S
C362 C361 1.405 . S
C362 C363 1.383 . S
C363 C362 1.383 . S
C363 C364 1.393 . S
C364 H329 0.931 . S
C364 C363 1.393 . S
C364 C365 1.382 . S
C365 H330 0.929 . S
C365 C360 1.371 . S
C365 C364 1.382 . S
C366 N334 1.423 . S
C366 C367 1.362 . S
C366 C371 1.388 . S
C367 H331 0.929 . S
C367 C366 1.362 . S
C367 C368 1.376 . S
C368 H332 0.931 . S
C368 C367 1.376 . S
C368 C369 1.396 . S
C369 C351 1.472 . S
C369 C368 1.396 . S
C369 C370 1.348 . S
C370 H333 0.929 . S
C370 C369 1.348 . S
C370 C371 1.443 . S
C371 H335 0.932 . S
C371 C366 1.388 . S
C371 C370 1.443 . S
H372 C399 0.929 . S
N373 C398 1.433 . S
N373 C404 1.435 . S
N373 C410 1.423 . S
H374 C400 0.930 . S
H375 C403 0.931 . S
H376 C402 0.929 . S
H377 C405 0.930 . S
H378 C406 0.932 . S
H379 C409 0.929 . S
H380 C408 0.931 . S
H381 C411 0.934 . S
H382 C415 0.932 . S
H383 C412 0.931 . S
H384 C414 0.929 . S
H385 C417 0.929 . S
H386 C418 0.930 . S
H387 C420 0.929 . S
H388 C421 0.931 . S
H389 C423 0.930 . S
H390 C424 0.932 . S
H391 C426 0.931 . S
H392 C427 0.929 . S
H393 C429 0.929 . S
H394 C430 0.931 . S
H395 C432 0.929 . S
N396 C416 1.433 . S
N396 C422 1.435 . S
N396 C428 1.423 . S
H397 C433 0.932 . S
C398 N373 1.433 . S
C398 C399 1.363 . S
C398 C403 1.370 . S
C399 H372 0.929 . S
C399 C398 1.363 . S
C399 C400 1.385 . S
C400 H374 0.930 . S
C400 C399 1.385 . S
C400 C401 1.357 . S
C401 C400 1.357 . S
C401 C402 1.406 . S
C402 H376 0.929 . S
C402 C401 1.406 . S
C402 C403 1.391 . S
C403 H375 0.931 . S
C403 C398 1.370 . S
C403 C402 1.391 . S
C404 N373 1.435 . S
C404 C405 1.358 . S
C404 C409 1.371 . S
C405 H377 0.930 . S
C405 C404 1.358 . S
C405 C406 1.405 . S
C406 H378 0.932 . S
C406 C405 1.405 . S
C406 C407 1.383 . S
C407 C406 1.383 . S
C407 C408 1.393 . S
C408 H380 0.931 . S
C408 C407 1.393 . S
C408 C409 1.382 . S
C409 H379 0.929 . S
C409 C404 1.371 . S
C409 C408 1.382 . S
C410 N373 1.423 . S
C410 C411 1.336 1_565 S
C410 C415 1.388 . S
C411 H381 0.934 . S
C411 C410 1.336 1_545 S
C411 C412 1.399 . S
C412 H383 0.931 . S
C412 C411 1.399 . S
C412 C413 1.396 . S
C413 C412 1.396 . S
C413 C414 1.348 1_545 S
C413 C431 1.472 . S
C414 H384 0.929 . S
C414 C413 1.348 1_565 S
C414 C415 1.443 . S
C415 H382 0.932 . S
C415 C410 1.388 . S
C415 C414 1.443 . S
C416 N396 1.433 . S
C416 C417 1.363 . S
C416 C421 1.370 . S
C417 H385 0.929 . S
C417 C416 1.363 . S
C417 C418 1.385 . S
C418 H386 0.930 . S
C418 C417 1.385 . S
C418 C419 1.357 . S
C419 C418 1.357 . S
C419 C420 1.406 . S
C420 H387 0.929 . S
C420 C419 1.406 . S
C420 C421 1.391 . S
C421 H388 0.931 . S
C421 C416 1.370 . S
C421 C420 1.391 . S
C422 N396 1.435 . S
C422 C423 1.358 . S
C422 C427 1.371 . S
C423 H389 0.930 . S
C423 C422 1.358 . S
C423 C424 1.405 . S
C424 H390 0.932 . S
C424 C423 1.405 . S
C424 C425 1.383 . S
C425 C424 1.383 . S
C425 C426 1.393 . S
C426 H391 0.931 . S
C426 C425 1.393 . S
C426 C427 1.382 . S
C427 H392 0.929 . S
C427 C422 1.371 . S
C427 C426 1.382 . S
C428 N396 1.423 . S
C428 C429 1.362 . S
C428 C433 1.388 . S
C429 H393 0.929 . S
C429 C428 1.362 . S
C429 C430 1.376 . S
C430 H394 0.931 . S
C430 C429 1.376 . S
C430 C431 1.396 . S
C431 C413 1.472 . S
C431 C430 1.396 . S
C431 C432 1.348 . S
C432 H395 0.929 . S
C432 C431 1.348 . S
C432 C433 1.443 . S
C433 H397 0.932 . S
C433 C428 1.388 . S
C433 C432 1.443 . S
H434 C461 0.929 . S
N435 C460 1.433 . S
N435 C466 1.435 . S
N435 C472 1.423 . S
H436 C462 0.930 . S
H437 C465 0.931 . S
H438 C464 0.929 . S
H439 C467 0.930 . S
H440 C468 0.932 . S
H441 C471 0.929 . S
H442 C470 0.931 . S
H443 C473 0.929 . S
H444 C477 0.932 . S
H445 C474 0.931 1_655 S
H446 C476 0.929 1_545 S
H447 C479 0.929 . S
H448 C480 0.930 . S
H449 C482 0.929 . S
H450 C483 0.931 . S
H451 C485 0.930 . S
H452 C486 0.932 . S
H453 C488 0.931 . S
H454 C489 0.929 . S
H455 C491 0.929 . S
H456 C492 0.931 . S
H457 C494 0.929 1_455 S
N458 C478 1.433 . S
N458 C484 1.435 . S
N458 C490 1.423 . S
H459 C495 0.932 . S
C460 N435 1.433 . S
C460 C461 1.363 . S
C460 C465 1.370 . S
C461 H434 0.929 . S
C461 C460 1.363 . S
C461 C462 1.385 . S
C462 H436 0.930 . S
C462 C461 1.385 . S
C462 C463 1.357 . S
C463 C462 1.357 . S
C463 C464 1.406 . S
C464 H438 0.929 . S
C464 C463 1.406 . S
C464 C465 1.391 . S
C465 H437 0.931 . S
C465 C460 1.370 . S
C465 C464 1.391 . S
C466 N435 1.435 . S
C466 C467 1.358 . S
C466 C471 1.371 . S
C467 H439 0.930 . S
C467 C466 1.358 . S
C467 C468 1.405 . S
C468 H440 0.932 . S
C468 C467 1.405 . S
C468 C469 1.383 . S
C469 C468 1.383 . S
C469 C470 1.393 . S
C470 H442 0.931 . S
C470 C469 1.393 . S
C470 C471 1.382 . S
C471 H441 0.929 . S
C471 C466 1.371 . S
C471 C470 1.382 . S
C472 N435 1.423 . S
C472 C473 1.362 . S
C472 C477 1.388 . S
C473 H443 0.929 . S
C473 C472 1.362 . S
C473 C474 1.376 . S
C474 H445 0.931 1_455 S
C474 C473 1.376 . S
C474 C475 1.396 . S
C475 C474 1.396 . S
C475 C476 1.348 . S
C475 C493 1.472 1_465 S
C476 H446 0.929 1_565 S
C476 C475 1.348 . S
C476 C477 1.443 . S
C477 H444 0.932 . S
C477 C472 1.388 . S
C477 C476 1.443 . S
C478 N458 1.433 . S
C478 C479 1.363 . S
C478 C483 1.370 . S
C479 H447 0.929 . S
C479 C478 1.363 . S
C479 C480 1.385 . S
C480 H448 0.930 . S
C480 C479 1.385 . S
C480 C481 1.357 . S
C481 C480 1.357 . S
C481 C482 1.406 . S
C482 H449 0.929 . S
C482 C481 1.406 . S
C482 C483 1.391 . S
C483 H450 0.931 . S
C483 C478 1.370 . S
C483 C482 1.391 . S
C484 N458 1.435 . S
C484 C485 1.358 . S
C484 C489 1.371 . S
C485 H451 0.930 . S
C485 C484 1.358 . S
C485 C486 1.405 . S
C486 H452 0.932 . S
C486 C485 1.405 . S
C486 C487 1.383 . S
C487 C486 1.383 . S
C487 C488 1.393 . S
C488 H453 0.931 . S
C488 C487 1.393 . S
C488 C489 1.382 . S
C489 H454 0.929 . S
C489 C484 1.371 . S
C489 C488 1.382 . S
C490 N458 1.423 . S
C490 C491 1.362 . S
C490 C495 1.388 . S
C491 H455 0.929 . S
C491 C490 1.362 . S
C491 C492 1.376 . S
C492 H456 0.931 . S
C492 C491 1.376 . S
C492 C493 1.396 . S
C493 C475 1.472 1_645 S
C493 C492 1.396 . S
C493 C494 1.348 . S
C494 H457 0.929 1_655 S
C494 C493 1.348 . S
C494 C495 1.443 . S
C495 H459 0.932 . S
C495 C490 1.388 . S
C495 C494 1.443 . S
C496 O497 1.306 . S
C496 O499 1.160 . S
O497 C496 1.306 . S
O497 Cd498 2.228 . S
Cd498 O497 2.228 . S
Cd498 O502 2.273 1_554 S
Cd498 O506 2.277 . S
O499 C496 1.160 . S
O499 Cd500 2.203 . S
Cd500 O499 2.203 . S
Cd500 O502 2.411 1_554 S
Cd500 O503 2.333 1_554 S
Cd500 O504 2.352 . S
Cd500 O508 2.277 . S
Cd500 O509 2.351 1_554 S
C501 O506 1.209 . S
C501 O508 1.226 . S
O502 Cd498 2.273 1_556 S
O502 Cd500 2.411 1_556 S
O502 C505 1.320 . S
O503 Cd500 2.333 1_556 S
O503 C505 1.214 . S
O504 Cd500 2.352 . S
O504 C507 1.263 . S
C505 O502 1.320 . S
C505 O503 1.214 . S
O506 Cd498 2.277 . S
O506 C501 1.209 . S
C507 O504 1.263 . S
C507 O509 1.279 1_554 S
O508 Cd500 2.277 . S
O508 C501 1.226 . S
O509 Cd500 2.351 1_556 S
O509 C507 1.279 1_556 S
C510 O511 1.306 . S
C510 O513 1.160 . S
O511 C510 1.306 . S
O511 Cd512 2.228 . S
Cd512 O511 2.228 . S
Cd512 O516 2.273 . S
Cd512 O520 2.277 . S
O513 C510 1.160 . S
O513 Cd514 2.203 . S
Cd514 O513 2.203 . S
Cd514 O516 2.411 . S
Cd514 O517 2.333 . S
Cd514 O518 2.352 . S
Cd514 O522 2.277 . S
Cd514 O523 2.356 . S
C515 O520 1.209 . S
C515 O522 1.226 . S
O516 Cd512 2.273 . S
O516 Cd514 2.411 . S
O516 C519 1.320 . S
O517 Cd514 2.333 . S
O517 C519 1.214 . S
O518 Cd514 2.352 . S
O518 C521 1.258 . S
C519 O516 1.320 . S
C519 O517 1.214 . S
O520 Cd512 2.277 . S
O520 C515 1.209 . S
C521 O518 1.258 . S
C521 O523 1.282 . S
O522 Cd514 2.277 . S
O522 C515 1.226 . S
O523 Cd514 2.356 . S
O523 C521 1.282 . S
C524 O525 1.306 . S
C524 O527 1.160 . S
O525 C524 1.306 . S
O525 Cd526 2.228 . S
Cd526 O525 2.228 . S
Cd526 O530 2.273 . S
Cd526 O534 2.277 . S
O527 C524 1.160 . S
O527 Cd528 2.203 . S
Cd528 O527 2.203 . S
Cd528 O530 2.411 . S
Cd528 O531 2.333 . S
Cd528 O532 2.352 . S
Cd528 O536 2.277 . S
Cd528 O537 2.356 . S
C529 O534 1.209 . S
C529 O536 1.226 . S
O530 Cd526 2.273 . S
O530 Cd528 2.411 . S
O530 C533 1.320 . S
O531 Cd528 2.333 . S
O531 C533 1.214 . S
O532 Cd528 2.352 . S
O532 C535 1.258 . S
C533 O530 1.320 . S
C533 O531 1.214 . S
O534 Cd526 2.277 . S
O534 C529 1.209 . S
C535 O532 1.258 . S
C535 O537 1.282 . S
O536 Cd528 2.277 . S
O536 C529 1.226 . S
O537 Cd528 2.356 . S
O537 C535 1.282 . S
C538 O539 1.306 . S
C538 O541 1.160 . S
O539 C538 1.306 . S
O539 Cd540 2.228 . S
Cd540 O539 2.228 . S
Cd540 O544 2.273 . S
Cd540 O548 2.277 . S
O541 C538 1.160 . S
O541 Cd542 2.203 . S
Cd542 O541 2.203 . S
Cd542 O544 2.411 . S
Cd542 O545 2.333 . S
Cd542 O546 2.352 . S
Cd542 O550 2.277 . S
Cd542 O551 2.356 . S
C543 O548 1.209 . S
C543 O550 1.226 . S
O544 Cd540 2.273 . S
O544 Cd542 2.411 . S
O544 C547 1.320 . S
O545 Cd542 2.333 . S
O545 C547 1.214 . S
O546 Cd542 2.352 . S
O546 C549 1.258 . S
C547 O544 1.320 . S
C547 O545 1.214 . S
O548 Cd540 2.277 . S
O548 C543 1.209 . S
C549 O546 1.258 . S
C549 O551 1.282 . S
O550 Cd542 2.277 . S
O550 C543 1.226 . S
O551 Cd542 2.356 . S
O551 C549 1.282 . S
C552 O553 1.306 . S
C552 O555 1.160 . S
O553 C552 1.306 . S
O553 Cd554 2.228 . S
Cd554 O553 2.228 . S
Cd554 O558 2.273 . S
Cd554 O562 2.277 . S
O555 C552 1.160 . S
O555 Cd556 2.203 . S
Cd556 O555 2.203 . S
Cd556 O558 2.411 . S
Cd556 O559 2.333 . S
Cd556 O560 2.352 . S
Cd556 O564 2.277 . S
Cd556 O565 2.356 . S
C557 O562 1.209 . S
C557 O564 1.226 . S
O558 Cd554 2.273 . S
O558 Cd556 2.411 . S
O558 C561 1.320 . S
O559 Cd556 2.333 . S
O559 C561 1.214 . S
O560 Cd556 2.352 . S
O560 C563 1.258 . S
C561 O558 1.320 . S
C561 O559 1.214 . S
O562 Cd554 2.277 . S
O562 C557 1.209 . S
C563 O560 1.258 . S
C563 O565 1.282 . S
O564 Cd556 2.277 . S
O564 C557 1.226 . S
O565 Cd556 2.356 . S
O565 C563 1.282 . S
C566 O567 1.306 . S
C566 O569 1.160 . S
O567 C566 1.306 . S
O567 Cd568 2.228 . S
Cd568 O567 2.228 . S
Cd568 O572 2.273 . S
Cd568 O576 2.277 . S
O569 C566 1.160 . S
O569 Cd570 2.203 . S
Cd570 O569 2.203 . S
Cd570 O572 2.411 . S
Cd570 O573 2.333 . S
Cd570 O574 2.352 . S
Cd570 O578 2.277 . S
Cd570 O579 2.356 . S
C571 O576 1.209 . S
C571 O578 1.226 . S
O572 Cd568 2.273 . S
O572 Cd570 2.411 . S
O572 C575 1.320 . S
O573 Cd570 2.333 . S
O573 C575 1.214 . S
O574 Cd570 2.352 . S
O574 C577 1.258 . S
C575 O572 1.320 . S
C575 O573 1.214 . S
O576 Cd568 2.277 . S
O576 C571 1.209 . S
C577 O574 1.258 . S
C577 O579 1.282 . S
O578 Cd570 2.277 . S
O578 C571 1.226 . S
O579 Cd570 2.356 . S
O579 C577 1.282 . S
C580 O581 1.306 . S
C580 O583 1.160 . S
O581 C580 1.306 . S
O581 Cd582 2.193 1_556 S
Cd582 O581 2.193 1_554 S
Cd582 O586 2.300 . S
Cd582 O590 2.273 1_554 S
O583 C580 1.160 . S
O583 Cd584 2.203 1_556 S
Cd584 O583 2.203 1_554 S
Cd584 O586 2.411 . S
Cd584 O587 2.333 . S
Cd584 O588 2.352 . S
Cd584 O592 2.277 1_554 S
Cd584 O593 2.356 . S
C585 O590 1.209 . S
C585 O592 1.226 . S
O586 Cd582 2.300 . S
O586 Cd584 2.411 . S
O586 C589 1.320 . S
O587 Cd584 2.333 . S
O587 C589 1.214 . S
O588 Cd584 2.352 . S
O588 C591 1.258 . S
C589 O586 1.320 . S
C589 O587 1.214 . S
O590 Cd582 2.273 1_556 S
O590 C585 1.209 . S
C591 O588 1.258 . S
C591 O593 1.282 . S
O592 Cd584 2.277 1_556 S
O592 C585 1.226 . S
O593 Cd584 2.356 . S
O593 C591 1.282 . S
C594 O595 1.306 . S
C594 O597 1.160 . S
O595 C594 1.306 . S
O595 Cd596 2.228 . S
Cd596 O595 2.228 . S
Cd596 O600 2.273 . S
Cd596 O604 2.277 . S
O597 C594 1.160 . S
O597 Cd598 2.203 . S
Cd598 O597 2.203 . S
Cd598 O600 2.411 . S
Cd598 O601 2.333 . S
Cd598 O602 2.352 . S
Cd598 O606 2.277 . S
Cd598 O607 2.356 . S
C599 O604 1.209 . S
C599 O606 1.226 . S
O600 Cd596 2.273 . S
O600 Cd598 2.411 . S
O600 C603 1.320 . S
O601 Cd598 2.333 . S
O601 C603 1.214 . S
O602 Cd598 2.352 . S
O602 C605 1.258 . S
C603 O600 1.320 . S
C603 O601 1.214 . S
O604 Cd596 2.277 . S
O604 C599 1.209 . S
C605 O602 1.258 . S
C605 O607 1.282 . S
O606 Cd598 2.277 . S
O606 C599 1.226 . S
O607 Cd598 2.356 . S
O607 C605 1.282 . S
H608 C614 0.930 . S
H609 C617 0.930 . S
H610 C618 0.930 . S
H611 C619 0.930 . S
H612 C622 0.930 . S
H613 C623 0.930 . S
C614 H608 0.930 . S
C614 C615 1.355 . S
C614 C616 1.415 . S
C615 C614 1.355 . S
C615 C617 1.419 . S
C616 C614 1.415 . S
C616 C621 1.425 . S
C616 C623 1.409 . S
C617 H609 0.930 . S
C617 C615 1.419 . S
C617 C618 1.362 . S
C618 H610 0.930 . S
C618 C617 1.362 . S
C618 C621 1.409 . S
C619 H611 0.930 . S
C619 C620 1.355 . S
C619 C621 1.415 . S
C620 C619 1.355 . S
C620 C622 1.419 . S
C621 C616 1.425 . S
C621 C618 1.409 . S
C621 C619 1.415 . S
C622 H612 0.930 . S
C622 C620 1.419 . S
C622 C623 1.362 . S
C623 H613 0.930 . S
C623 C616 1.409 . S
C623 C622 1.362 . S
H624 C630 0.930 . S
H625 C633 0.930 . S
H626 C634 0.930 . S
H627 C635 0.930 . S
H628 C638 0.930 . S
H629 C639 0.930 . S
C630 H624 0.930 . S
C630 C631 1.355 . S
C630 C632 1.415 . S
C631 C630 1.355 . S
C631 C633 1.419 . S
C632 C630 1.415 . S
C632 C637 1.425 . S
C632 C639 1.409 . S
C633 H625 0.930 . S
C633 C631 1.419 . S
C633 C634 1.362 . S
C634 H626 0.930 . S
C634 C633 1.362 . S
C634 C637 1.409 . S
C635 H627 0.930 . S
C635 C636 1.355 . S
C635 C637 1.415 . S
C636 C635 1.355 . S
C636 C638 1.419 . S
C637 C632 1.425 . S
C637 C634 1.409 . S
C637 C635 1.415 . S
C638 H628 0.930 . S
C638 C636 1.419 . S
C638 C639 1.362 . S
C639 H629 0.930 . S
C639 C632 1.409 . S
C639 C638 1.362 . S
H640 C646 0.930 . S
H641 C649 0.930 . S
H642 C650 0.930 . S
H643 C651 0.930 . S
H644 C654 0.930 . S
H645 C655 0.930 . S
C646 H640 0.930 . S
C646 C647 1.355 . S
C646 C648 1.415 . S
C647 C646 1.355 . S
C647 C649 1.419 . S
C648 C646 1.415 . S
C648 C653 1.425 . S
C648 C655 1.409 . S
C649 H641 0.930 . S
C649 C647 1.419 . S
C649 C650 1.362 . S
C650 H642 0.930 . S
C650 C649 1.362 . S
C650 C653 1.409 . S
C651 H643 0.930 . S
C651 C652 1.355 . S
C651 C653 1.415 . S
C652 C651 1.355 . S
C652 C654 1.419 . S
C653 C648 1.425 . S
C653 C650 1.409 . S
C653 C651 1.415 . S
C654 H644 0.930 . S
C654 C652 1.419 . S
C654 C655 1.362 . S
C655 H645 0.930 . S
C655 C648 1.409 . S
C655 C654 1.362 . S
H656 C662 0.939 . S
H657 C665 0.930 . S
H658 C666 0.930 . S
H659 C667 0.930 . S
H660 C670 0.930 . S
H661 C671 0.930 . S
C662 H656 0.939 . S
C662 C663 1.355 . S
C662 C664 1.415 . S
C663 C662 1.355 . S
C663 C665 1.419 . S
C664 C662 1.415 . S
C664 C669 1.425 . S
C664 C671 1.409 . S
C665 H657 0.930 . S
C665 C663 1.419 . S
C665 C666 1.362 . S
C666 H658 0.930 . S
C666 C665 1.362 . S
C666 C669 1.409 . S
C667 H659 0.930 . S
C667 C668 1.355 . S
C667 C669 1.415 . S
C668 C667 1.355 . S
C668 C670 1.419 . S
C669 C664 1.425 . S
C669 C666 1.409 . S
C669 C667 1.415 . S
C670 H660 0.930 . S
C670 C668 1.419 . S
C670 C671 1.362 . S
C671 H661 0.930 . S
C671 C664 1.409 . S
C671 C670 1.362 . S
H672 C678 0.930 . S
H673 C681 0.930 . S
H674 C682 0.930 . S
H675 C683 0.930 . S
H676 C686 0.930 . S
H677 C687 0.930 . S
C678 H672 0.930 . S
C678 C679 1.355 1_556 S
C678 C680 1.415 . S
C679 C678 1.355 1_554 S
C679 C681 1.419 . S
C680 C678 1.415 . S
C680 C685 1.425 1_556 S
C680 C687 1.409 . S
C681 H673 0.930 . S
C681 C679 1.419 . S
C681 C682 1.362 . S
C682 H674 0.930 . S
C682 C681 1.362 . S
C682 C685 1.409 . S
C683 H675 0.930 . S
C683 C684 1.355 1_554 S
C683 C685 1.415 . S
C684 C683 1.355 1_556 S
C684 C686 1.419 . S
C685 C680 1.425 1_554 S
C685 C682 1.409 . S
C685 C683 1.415 . S
C686 H676 0.930 . S
C686 C684 1.419 . S
C686 C687 1.362 . S
C687 H677 0.930 . S
C687 C680 1.409 . S
C687 C686 1.362 . S
H688 C694 0.930 . S
H689 C697 0.930 . S
H690 C698 0.930 . S
H691 C699 0.930 . S
H692 C702 0.930 . S
H693 C703 0.930 . S
C694 H688 0.930 . S
C694 C695 1.355 . S
C694 C696 1.415 . S
C695 C694 1.355 . S
C695 C697 1.419 . S
C696 C694 1.415 . S
C696 C701 1.425 . S
C696 C703 1.409 . S
C697 H689 0.930 . S
C697 C695 1.419 . S
C697 C698 1.362 . S
C698 H690 0.930 . S
C698 C697 1.362 . S
C698 C701 1.409 . S
C699 H691 0.930 . S
C699 C700 1.355 . S
C699 C701 1.415 . S
C700 C699 1.355 . S
C700 C702 1.419 . S
C701 C696 1.425 . S
C701 C698 1.409 . S
C701 C699 1.415 . S
C702 H692 0.930 . S
C702 C700 1.419 . S
C702 C703 1.362 . S
C703 H693 0.930 . S
C703 C696 1.409 . S
C703 C702 1.362 . S
H704 C710 0.930 . S
H705 C713 0.930 . S
H706 C714 0.930 . S
H707 C715 0.930 . S
H708 C718 0.930 . S
H709 C719 0.930 . S
C710 H704 0.930 . S
C710 C711 1.355 . S
C710 C712 1.415 . S
C711 C710 1.355 . S
C711 C713 1.419 . S
C712 C710 1.415 . S
C712 C717 1.425 . S
C712 C719 1.409 . S
C713 H705 0.930 . S
C713 C711 1.419 . S
C713 C714 1.362 . S
C714 H706 0.930 . S
C714 C713 1.362 . S
C714 C717 1.409 . S
C715 H707 0.930 . S
C715 C716 1.355 . S
C715 C717 1.415 . S
C716 C715 1.355 . S
C716 C718 1.419 . S
C717 C712 1.425 . S
C717 C714 1.409 . S
C717 C715 1.415 . S
C718 H708 0.930 . S
C718 C716 1.419 . S
C718 C719 1.362 . S
C719 H709 0.930 . S
C719 C712 1.409 . S
C719 C718 1.362 . S
H720 C726 0.930 . S
H721 C729 0.930 . S
H722 C730 0.930 . S
H723 C731 0.930 . S
H724 C734 0.930 . S
H725 C735 0.930 . S
C726 H720 0.930 . S
C726 C727 1.355 . S
C726 C728 1.415 . S
C727 C726 1.355 . S
C727 C729 1.419 . S
C728 C726 1.415 . S
C728 C733 1.425 . S
C728 C735 1.409 . S
C729 H721 0.930 . S
C729 C727 1.419 . S
C729 C730 1.362 . S
C730 H722 0.930 . S
C730 C729 1.362 . S
C730 C733 1.409 . S
C731 H723 0.930 . S
C731 C732 1.355 . S
C731 C733 1.415 . S
C732 C731 1.355 . S
C732 C734 1.419 . S
C733 C728 1.425 . S
C733 C730 1.409 . S
C733 C731 1.415 . S
C734 H724 0.930 . S
C734 C732 1.419 . S
C734 C735 1.362 . S
C735 H725 0.930 . S
C735 C728 1.409 . S
C735 C734 1.362 . S
H736 C742 0.930 . S
H737 C745 0.930 . S
H738 C746 0.930 . S
H739 C747 0.930 . S
H740 C750 0.930 . S
H741 C751 0.930 . S
C742 H736 0.930 . S
C742 C743 1.355 . S
C742 C744 1.415 . S
C743 C742 1.355 . S
C743 C745 1.419 . S
C744 C742 1.415 . S
C744 C749 1.425 . S
C744 C751 1.409 . S
C745 H737 0.930 . S
C745 C743 1.419 . S
C745 C746 1.362 . S
C746 H738 0.930 . S
C746 C745 1.362 . S
C746 C749 1.409 . S
C747 H739 0.930 . S
C747 C748 1.355 . S
C747 C749 1.415 . S
C748 C747 1.355 . S
C748 C750 1.419 . S
C749 C744 1.425 . S
C749 C746 1.409 . S
C749 C747 1.415 . S
C750 H740 0.930 . S
C750 C748 1.419 . S
C750 C751 1.362 . S
C751 H741 0.930 . S
C751 C744 1.409 . S
C751 C750 1.362 . S
H752 C758 0.930 . S
H753 C761 0.930 . S
H754 C762 0.930 . S
H755 C763 0.930 . S
H756 C766 0.930 . S
H757 C767 0.930 . S
C758 H752 0.930 . S
C758 C759 1.355 . S
C758 C760 1.415 . S
C759 C758 1.355 . S
C759 C761 1.419 . S
C760 C758 1.415 . S
C760 C765 1.425 . S
C760 C767 1.409 . S
C761 H753 0.930 . S
C761 C759 1.419 . S
C761 C762 1.362 . S
C762 H754 0.930 . S
C762 C761 1.362 . S
C762 C765 1.409 . S
C763 H755 0.930 . S
C763 C764 1.355 . S
C763 C765 1.415 . S
C764 C763 1.355 . S
C764 C766 1.419 . S
C765 C760 1.425 . S
C765 C762 1.409 . S
C765 C763 1.415 . S
C766 H756 0.930 . S
C766 C764 1.419 . S
C766 C767 1.362 . S
C767 H757 0.930 . S
C767 C760 1.409 . S
C767 C766 1.362 . S
H768 C774 0.930 . S
H769 C777 0.930 . S
H770 C778 0.930 . S
H771 C779 0.930 . S
H772 C782 0.930 . S
H773 C783 0.930 . S
C774 H768 0.930 . S
C774 C775 1.355 . S
C774 C776 1.415 . S
C775 C774 1.355 . S
C775 C777 1.419 . S
C776 C774 1.415 . S
C776 C781 1.425 . S
C776 C783 1.409 . S
C777 H769 0.930 . S
C777 C775 1.419 . S
C777 C778 1.362 . S
C778 H770 0.930 . S
C778 C777 1.362 . S
C778 C781 1.409 . S
C779 H771 0.930 . S
C779 C780 1.355 . S
C779 C781 1.415 . S
C780 C779 1.355 . S
C780 C782 1.419 . S
C781 C776 1.425 . S
C781 C778 1.409 . S
C781 C779 1.415 . S
C782 H772 0.930 . S
C782 C780 1.419 . S
C782 C783 1.362 . S
C783 H773 0.930 . S
C783 C776 1.409 . S
C783 C782 1.362 . S
H784 C790 0.930 . S
H785 C793 0.930 . S
H786 C794 0.930 . S
H787 C795 0.930 . S
H788 C798 0.930 . S
H789 C799 0.930 . S
C790 H784 0.930 . S
C790 C791 1.355 . S
C790 C792 1.415 . S
C791 C790 1.355 . S
C791 C793 1.419 . S
C792 C790 1.415 . S
C792 C797 1.425 . S
C792 C799 1.409 . S
C793 H785 0.930 . S
C793 C791 1.419 . S
C793 C794 1.362 . S
C794 H786 0.930 . S
C794 C793 1.362 . S
C794 C797 1.409 . S
C795 H787 0.930 . S
C795 C796 1.355 . S
C795 C797 1.415 . S
C796 C795 1.355 . S
C796 C798 1.419 . S
C797 C792 1.425 . S
C797 C794 1.409 . S
C797 C795 1.415 . S
C798 H788 0.930 . S
C798 C796 1.419 . S
C798 C799 1.362 . S
C799 H789 0.930 . S
C799 C792 1.409 . S
C799 C798 1.362 . S
H800 C806 0.930 . S
H801 C809 0.930 . S
H802 C810 0.930 . S
H803 C811 0.930 . S
H804 C814 0.930 . S
H805 C815 0.930 . S
C806 H800 0.930 . S
C806 C807 1.355 . S
C806 C808 1.415 . S
C807 C806 1.355 . S
C807 C809 1.419 . S
C808 C806 1.415 . S
C808 C813 1.425 . S
C808 C815 1.409 . S
C809 H801 0.930 . S
C809 C807 1.419 . S
C809 C810 1.362 . S
C810 H802 0.930 . S
C810 C809 1.362 . S
C810 C813 1.409 . S
C811 H803 0.930 . S
C811 C812 1.355 . S
C811 C813 1.415 . S
C812 C811 1.355 . S
C812 C814 1.419 . S
C813 C808 1.425 . S
C813 C810 1.409 . S
C813 C811 1.415 . S
C814 H804 0.930 . S
C814 C812 1.419 . S
C814 C815 1.362 . S
C815 H805 0.930 . S
C815 C808 1.409 . S
C815 C814 1.362 . S
H816 C822 0.930 . S
H817 C825 0.930 . S
H818 C826 0.930 . S
H819 C827 0.930 . S
H820 C830 0.930 . S
H821 C831 0.930 . S
C822 H816 0.930 . S
C822 C823 1.355 . S
C822 C824 1.415 . S
C823 C822 1.355 . S
C823 C825 1.419 . S
C824 C822 1.415 . S
C824 C829 1.425 . S
C824 C831 1.409 . S
C825 H817 0.930 . S
C825 C823 1.419 . S
C825 C826 1.362 . S
C826 H818 0.930 . S
C826 C825 1.362 . S
C826 C829 1.409 . S
C827 H819 0.930 . S
C827 C828 1.355 . S
C827 C829 1.415 . S
C828 C827 1.355 . S
C828 C830 1.419 . S
C829 C824 1.425 . S
C829 C826 1.409 . S
C829 C827 1.415 . S
C830 H820 0.930 . S
C830 C828 1.419 . S
C830 C831 1.362 . S
C831 H821 0.930 . S
C831 C824 1.409 . S
C831 C830 1.362 . S
H832 C838 0.930 . S
H833 C841 0.931 . S
H834 C842 0.936 . S
H835 C843 0.930 . S
H836 C846 0.930 . S
H837 C847 0.930 . S
C838 H832 0.930 . S
C838 C839 1.355 . S
C838 C840 1.415 . S
C839 C838 1.355 . S
C839 C841 1.419 . S
C840 C838 1.415 . S
C840 C845 1.425 . S
C840 C847 1.409 . S
C841 H833 0.931 . S
C841 C839 1.419 . S
C841 C842 1.362 . S
C842 H834 0.936 . S
C842 C841 1.362 . S
C842 C845 1.409 . S
C843 H835 0.930 . S
C843 C844 1.355 . S
C843 C845 1.415 . S
C844 C843 1.355 . S
C844 C846 1.419 . S
C845 C840 1.425 . S
C845 C842 1.409 . S
C845 C843 1.415 . S
C846 H836 0.930 . S
C846 C844 1.419 . S
C846 C847 1.362 . S
C847 H837 0.930 . S
C847 C840 1.409 . S
C847 C846 1.362 . S
H848 C854 0.930 . S
H849 C857 0.930 . S
H850 C858 0.930 . S
H851 C859 0.930 . S
H852 C862 0.930 . S
H853 C863 0.930 . S
C854 H848 0.930 . S
C854 C855 1.355 . S
C854 C856 1.415 . S
C855 C854 1.355 . S
C855 C857 1.419 . S
C856 C854 1.415 . S
C856 C861 1.425 . S
C856 C863 1.409 . S
C857 H849 0.930 . S
C857 C855 1.419 . S
C857 C858 1.362 . S
C858 H850 0.930 . S
C858 C857 1.362 . S
C858 C861 1.409 . S
C859 H851 0.930 . S
C859 C860 1.355 . S
C859 C861 1.415 . S
C860 C859 1.355 . S
C860 C862 1.419 . S
C861 C856 1.425 . S
C861 C858 1.409 . S
C861 C859 1.415 . S
C862 H852 0.930 . S
C862 C860 1.419 . S
C862 C863 1.362 . S
C863 H853 0.930 . S
C863 C856 1.409 . S
C863 C862 1.362 . S
H864 C870 0.930 . S
H865 C873 0.930 . S
H866 C874 0.930 . S
H867 C875 0.930 . S
H868 C878 0.930 . S
H869 C879 0.930 . S
C870 H864 0.930 . S
C870 C871 1.355 . S
C870 C872 1.415 . S
C871 C870 1.355 . S
C871 C873 1.419 . S
C872 C870 1.415 . S
C872 C877 1.425 . S
C872 C879 1.409 . S
C873 H865 0.930 . S
C873 C871 1.419 . S
C873 C874 1.362 . S
C874 H866 0.930 . S
C874 C873 1.362 . S
C874 C877 1.409 . S
C875 H867 0.930 . S
C875 C876 1.355 . S
C875 C877 1.415 . S
C876 C875 1.355 . S
C876 C878 1.419 . S
C877 C872 1.425 . S
C877 C874 1.409 . S
C877 C875 1.415 . S
C878 H868 0.930 . S
C878 C876 1.419 . S
C878 C879 1.362 . S
C879 H869 0.930 . S
C879 C872 1.409 . S
C879 C878 1.362 . S
H880 C886 0.930 . S
H881 C889 0.930 . S
H882 C890 0.930 . S
H883 C891 0.930 . S
H884 C894 0.930 . S
H885 C895 0.930 . S
C886 H880 0.930 . S
C886 C887 1.355 . S
C886 C888 1.415 . S
C887 C886 1.355 . S
C887 C889 1.419 . S
C888 C886 1.415 . S
C888 C893 1.425 . S
C888 C895 1.409 . S
C889 H881 0.930 . S
C889 C887 1.419 . S
C889 C890 1.362 . S
C890 H882 0.930 . S
C890 C889 1.362 . S
C890 C893 1.409 . S
C891 H883 0.930 . S
C891 C892 1.355 . S
C891 C893 1.415 . S
C892 C891 1.355 . S
C892 C894 1.419 . S
C893 C888 1.425 . S
C893 C890 1.409 . S
C893 C891 1.415 . S
C894 H884 0.930 . S
C894 C892 1.419 . S
C894 C895 1.362 . S
C895 H885 0.930 . S
C895 C888 1.409 . S
C895 C894 1.362 . S
H896 C902 0.930 . S
H897 C905 0.930 . S
H898 C906 0.930 . S
H899 C907 0.930 . S
H900 C910 0.930 . S
H901 C911 0.930 . S
C902 H896 0.930 . S
C902 C903 1.355 . S
C902 C904 1.415 . S
C903 C902 1.355 . S
C903 C905 1.419 . S
C904 C902 1.415 . S
C904 C909 1.425 . S
C904 C911 1.409 . S
C905 H897 0.930 . S
C905 C903 1.419 . S
C905 C906 1.362 . S
C906 H898 0.930 . S
C906 C905 1.362 . S
C906 C909 1.409 . S
C907 H899 0.930 . S
C907 C908 1.355 . S
C907 C909 1.415 . S
C908 C907 1.355 . S
C908 C910 1.419 . S
C909 C904 1.425 . S
C909 C906 1.409 . S
C909 C907 1.415 . S
C910 H900 0.930 . S
C910 C908 1.419 . S
C910 C911 1.362 . S
C911 H901 0.930 . S
C911 C904 1.409 . S
C911 C910 1.362 . S
H912 C918 0.930 . S
H913 C921 0.930 . S
H914 C922 0.930 . S
H915 C923 0.930 . S
H916 C926 0.930 . S
H917 C927 0.930 . S
C918 H912 0.930 . S
C918 C919 1.355 . S
C918 C920 1.415 . S
C919 C918 1.355 . S
C919 C921 1.419 . S
C920 C918 1.415 . S
C920 C925 1.425 . S
C920 C927 1.409 . S
C921 H913 0.930 . S
C921 C919 1.419 . S
C921 C922 1.362 . S
C922 H914 0.930 . S
C922 C921 1.362 . S
C922 C925 1.409 . S
C923 H915 0.930 . S
C923 C924 1.355 . S
C923 C925 1.415 . S
C924 C923 1.355 . S
C924 C926 1.419 . S
C925 C920 1.425 . S
C925 C922 1.409 . S
C925 C923 1.415 . S
C926 H916 0.930 . S
C926 C924 1.419 . S
C926 C927 1.362 . S
C927 H917 0.930 . S
C927 C920 1.409 . S
C927 C926 1.362 . S
H928 C934 0.930 . S
H929 C937 0.930 . S
H930 C938 0.930 . S
H931 C939 0.930 . S
H932 C942 0.930 . S
H933 C943 0.930 . S
C934 H928 0.930 . S
C934 C935 1.355 . S
C934 C936 1.415 . S
C935 C934 1.355 . S
C935 C937 1.419 . S
C936 C934 1.415 . S
C936 C941 1.425 . S
C936 C943 1.409 . S
C937 H929 0.930 . S
C937 C935 1.419 . S
C937 C938 1.362 . S
C938 H930 0.930 . S
C938 C937 1.362 . S
C938 C941 1.409 . S
C939 H931 0.930 . S
C939 C940 1.355 . S
C939 C941 1.415 . S
C940 C939 1.355 . S
C940 C942 1.419 . S
C941 C936 1.425 . S
C941 C938 1.409 . S
C941 C939 1.415 . S
C942 H932 0.930 . S
C942 C940 1.419 . S
C942 C943 1.362 . S
C943 H933 0.930 . S
C943 C936 1.409 . S
C943 C942 1.362 . S
H944 C950 0.930 . S
H945 C953 0.930 . S
H946 C954 0.930 . S
H947 C955 0.930 . S
H948 C958 0.930 . S
H949 C959 0.930 . S
C950 H944 0.930 . S
C950 C951 1.355 . S
C950 C952 1.415 . S
C951 C950 1.355 . S
C951 C953 1.419 . S
C952 C950 1.415 . S
C952 C957 1.425 . S
C952 C959 1.409 . S
C953 H945 0.930 . S
C953 C951 1.419 . S
C953 C954 1.362 . S
C954 H946 0.930 . S
C954 C953 1.362 . S
C954 C957 1.409 . S
C955 H947 0.930 . S
C955 C956 1.355 . S
C955 C957 1.415 . S
C956 C955 1.355 . S
C956 C958 1.419 . S
C957 C952 1.425 . S
C957 C954 1.409 . S
C957 C955 1.415 . S
C958 H948 0.930 . S
C958 C956 1.419 . S
C958 C959 1.362 . S
C959 H949 0.930 . S
C959 C952 1.409 . S
C959 C958 1.362 . S
H960 C966 0.930 . S
H961 C969 0.930 . S
H962 C970 0.930 . S
H963 C971 0.930 . S
H964 C974 0.930 . S
H965 C975 0.930 . S
C966 H960 0.930 . S
C966 C967 1.355 . S
C966 C968 1.415 . S
C967 C966 1.355 . S
C967 C969 1.419 . S
C968 C966 1.415 . S
C968 C973 1.425 . S
C968 C975 1.409 . S
C969 H961 0.930 . S
C969 C967 1.419 . S
C969 C970 1.362 . S
C970 H962 0.930 . S
C970 C969 1.362 . S
C970 C973 1.409 . S
C971 H963 0.930 . S
C971 C972 1.355 . S
C971 C973 1.415 . S
C972 C971 1.355 . S
C972 C974 1.419 . S
C973 C968 1.425 . S
C973 C970 1.409 . S
C973 C971 1.415 . S
C974 H964 0.930 . S
C974 C972 1.419 . S
C974 C975 1.362 . S
C975 H965 0.930 . S
C975 C968 1.409 . S
C975 C974 1.362 . S
H976 C982 0.930 . S
H977 C985 0.930 . S
H978 C986 0.930 . S
H979 C987 0.930 . S
H980 C990 0.930 . S
H981 C991 0.930 . S
C982 H976 0.930 . S
C982 C983 1.355 . S
C982 C984 1.415 . S
C983 C982 1.355 . S
C983 C985 1.419 . S
C984 C982 1.415 . S
C984 C989 1.425 . S
C984 C991 1.409 . S
C985 H977 0.930 . S
C985 C983 1.419 . S
C985 C986 1.362 . S
C986 H978 0.930 . S
C986 C985 1.362 . S
C986 C989 1.409 . S
C987 H979 0.930 . S
C987 C988 1.355 . S
C987 C989 1.415 . S
C988 C987 1.355 . S
C988 C990 1.419 . S
C989 C984 1.425 . S
C989 C986 1.409 . S
C989 C987 1.415 . S
C990 H980 0.930 . S
C990 C988 1.419 . S
C990 C991 1.362 . S
C991 H981 0.930 . S
C991 C984 1.409 . S
C991 C990 1.362 . S
H992 C998 0.930 . S
H993 C1001 0.930 . S
H994 C1002 0.930 . S
H995 C1003 0.930 . S
H996 C1006 0.930 . S
H997 C1007 0.930 . S
C998 H992 0.930 . S
C998 C999 1.355 . S
C998 C1000 1.415 . S
C999 C998 1.355 . S
C999 C1001 1.419 . S
C1000 C998 1.415 . S
C1000 C1005 1.425 . S
C1000 C1007 1.409 . S
C1001 H993 0.930 . S
C1001 C999 1.419 . S
C1001 C1002 1.362 . S
C1002 H994 0.930 . S
C1002 C1001 1.362 . S
C1002 C1005 1.409 . S
C1003 H995 0.930 . S
C1003 C1004 1.355 . S
C1003 C1005 1.415 . S
C1004 C1003 1.355 . S
C1004 C1006 1.419 . S
C1005 C1000 1.425 . S
C1005 C1002 1.409 . S
C1005 C1003 1.415 . S
C1006 H996 0.930 . S
C1006 C1004 1.419 . S
C1006 C1007 1.362 . S
C1007 H997 0.930 . S
C1007 C1000 1.409 . S
C1007 C1006 1.362 . S
H1008 C1014 0.930 . S
H1009 C1017 0.930 . S
H1010 C1018 0.930 . S
H1011 C1019 0.930 . S
H1012 C1022 0.930 . S
H1013 C1023 0.930 . S
C1014 H1008 0.930 . S
C1014 C1015 1.355 . S
C1014 C1016 1.415 . S
C1015 C1014 1.355 . S
C1015 C1017 1.419 . S
C1016 C1014 1.415 . S
C1016 C1021 1.425 . S
C1016 C1023 1.409 . S
C1017 H1009 0.930 . S
C1017 C1015 1.419 . S
C1017 C1018 1.362 . S
C1018 H1010 0.930 . S
C1018 C1017 1.362 . S
C1018 C1021 1.409 . S
C1019 H1011 0.930 . S
C1019 C1020 1.355 . S
C1019 C1021 1.415 . S
C1020 C1019 1.355 . S
C1020 C1022 1.419 . S
C1021 C1016 1.425 . S
C1021 C1018 1.409 . S
C1021 C1019 1.415 . S
C1022 H1012 0.930 . S
C1022 C1020 1.419 . S
C1022 C1023 1.362 . S
C1023 H1013 0.930 . S
C1023 C1016 1.409 . S
C1023 C1022 1.362 . S
H1024 C1030 0.930 . S
H1025 C1033 0.930 . S
H1026 C1034 0.930 . S
H1027 C1035 0.930 . S
H1028 C1038 0.930 . S
H1029 C1039 0.930 . S
C1030 H1024 0.930 . S
C1030 C1031 1.355 . S
C1030 C1032 1.415 . S
C1031 C1030 1.355 . S
C1031 C1033 1.419 . S
C1032 C1030 1.415 . S
C1032 C1037 1.425 . S
C1032 C1039 1.409 . S
C1033 H1025 0.930 . S
C1033 C1031 1.419 . S
C1033 C1034 1.362 . S
C1034 H1026 0.930 . S
C1034 C1033 1.362 . S
C1034 C1037 1.409 . S
C1035 H1027 0.930 . S
C1035 C1036 1.355 . S
C1035 C1037 1.415 . S
C1036 C1035 1.355 . S
C1036 C1038 1.419 . S
C1037 C1032 1.425 . S
C1037 C1034 1.409 . S
C1037 C1035 1.415 . S
C1038 H1028 0.930 . S
C1038 C1036 1.419 . S
C1038 C1039 1.362 . S
C1039 H1029 0.930 . S
C1039 C1032 1.409 . S
C1039 C1038 1.362 . S
H1040 C1046 0.930 . S
H1041 C1049 0.930 . S
H1042 C1050 0.930 . S
H1043 C1051 0.930 . S
H1044 C1054 0.930 . S
H1045 C1055 0.930 . S
C1046 H1040 0.930 . S
C1046 C1047 1.355 . S
C1046 C1048 1.415 . S
C1047 C1046 1.355 . S
C1047 C1049 1.419 . S
C1048 C1046 1.415 . S
C1048 C1053 1.425 . S
C1048 C1055 1.409 . S
C1049 H1041 0.930 . S
C1049 C1047 1.419 . S
C1049 C1050 1.362 . S
C1050 H1042 0.930 . S
C1050 C1049 1.362 . S
C1050 C1053 1.409 . S
C1051 H1043 0.930 . S
C1051 C1052 1.355 . S
C1051 C1053 1.415 . S
C1052 C1051 1.355 . S
C1052 C1054 1.419 . S
C1053 C1048 1.425 . S
C1053 C1050 1.409 . S
C1053 C1051 1.415 . S
C1054 H1044 0.930 . S
C1054 C1052 1.419 . S
C1054 C1055 1.362 . S
C1055 H1045 0.930 . S
C1055 C1048 1.409 . S
C1055 C1054 1.362 . S
H1056 C1062 0.930 . S
H1057 C1065 0.930 . S
H1058 C1066 0.930 . S
H1059 C1067 0.930 . S
H1060 C1070 0.930 . S
H1061 C1071 0.930 . S
C1062 H1056 0.930 . S
C1062 C1063 1.355 . S
C1062 C1064 1.415 . S
C1063 C1062 1.355 . S
C1063 C1065 1.419 . S
C1064 C1062 1.415 . S
C1064 C1069 1.425 . S
C1064 C1071 1.409 . S
C1065 H1057 0.930 . S
C1065 C1063 1.419 . S
C1065 C1066 1.362 . S
C1066 H1058 0.930 . S
C1066 C1065 1.362 . S
C1066 C1069 1.409 . S
C1067 H1059 0.930 . S
C1067 C1068 1.355 . S
C1067 C1069 1.415 . S
C1068 C1067 1.355 . S
C1068 C1070 1.419 . S
C1069 C1064 1.425 . S
C1069 C1066 1.409 . S
C1069 C1067 1.415 . S
C1070 H1060 0.930 . S
C1070 C1068 1.419 . S
C1070 C1071 1.362 . S
C1071 H1061 0.930 . S
C1071 C1064 1.409 . S
C1071 C1070 1.362 . S
H1072 C1078 0.930 . S
H1073 C1081 0.930 . S
H1074 C1082 0.930 . S
H1075 C1083 0.930 . S
H1076 C1086 0.930 . S
H1077 C1087 0.930 . S
C1078 H1072 0.930 . S
C1078 C1079 1.355 . S
C1078 C1080 1.415 . S
C1079 C1078 1.355 . S
C1079 C1081 1.419 . S
C1080 C1078 1.415 . S
C1080 C1085 1.425 . S
C1080 C1087 1.409 . S
C1081 H1073 0.930 . S
C1081 C1079 1.419 . S
C1081 C1082 1.362 . S
C1082 H1074 0.930 . S
C1082 C1081 1.362 . S
C1082 C1085 1.409 . S
C1083 H1075 0.930 . S
C1083 C1084 1.355 . S
C1083 C1085 1.415 . S
C1084 C1083 1.355 . S
C1084 C1086 1.419 . S
C1085 C1080 1.425 . S
C1085 C1082 1.409 . S
C1085 C1083 1.415 . S
C1086 H1076 0.930 . S
C1086 C1084 1.419 . S
C1086 C1087 1.362 . S
C1087 H1077 0.930 . S
C1087 C1080 1.409 . S
C1087 C1086 1.362 . S
H1088 C1094 0.930 . S
H1089 C1097 0.930 . S
H1090 C1098 0.930 . S
H1091 C1099 0.930 . S
H1092 C1102 0.930 . S
H1093 C1103 0.930 . S
C1094 H1088 0.930 . S
C1094 C1095 1.355 . S
C1094 C1096 1.415 . S
C1095 C1094 1.355 . S
C1095 C1097 1.419 . S
C1096 C1094 1.415 . S
C1096 C1101 1.425 . S
C1096 C1103 1.409 . S
C1097 H1089 0.930 . S
C1097 C1095 1.419 . S
C1097 C1098 1.362 . S
C1098 H1090 0.930 . S
C1098 C1097 1.362 . S
C1098 C1101 1.409 . S
C1099 H1091 0.930 . S
C1099 C1100 1.355 . S
C1099 C1101 1.415 . S
C1100 C1099 1.355 . S
C1100 C1102 1.419 . S
C1101 C1096 1.425 . S
C1101 C1098 1.409 . S
C1101 C1099 1.415 . S
C1102 H1092 0.930 . S
C1102 C1100 1.419 . S
C1102 C1103 1.362 . S
C1103 H1093 0.930 . S
C1103 C1096 1.409 . S
C1103 C1102 1.362 . S
H1104 C1110 0.930 . S
H1105 C1113 0.930 . S
H1106 C1114 0.930 . S
H1107 C1115 0.930 . S
H1108 C1118 0.930 . S
H1109 C1119 0.930 . S
C1110 H1104 0.930 . S
C1110 C1111 1.355 . S
C1110 C1112 1.415 . S
C1111 C1110 1.355 . S
C1111 C1113 1.419 . S
C1112 C1110 1.415 . S
C1112 C1117 1.425 . S
C1112 C1119 1.409 . S
C1113 H1105 0.930 . S
C1113 C1111 1.419 . S
C1113 C1114 1.362 . S
C1114 H1106 0.930 . S
C1114 C1113 1.362 . S
C1114 C1117 1.409 . S
C1115 H1107 0.930 . S
C1115 C1116 1.355 . S
C1115 C1117 1.415 . S
C1116 C1115 1.355 . S
C1116 C1118 1.419 . S
C1117 C1112 1.425 . S
C1117 C1114 1.409 . S
C1117 C1115 1.415 . S
C1118 H1108 0.930 . S
C1118 C1116 1.419 . S
C1118 C1119 1.362 . S
C1119 H1109 0.930 . S
C1119 C1112 1.409 . S
C1119 C1118 1.362 . S
C620 C521 1.516 . S
C615 C35 1.312 . S
C636 C535 1.507 . S
C631 C115 1.397 . S
C652 C543 1.542 . S
C647 C177 1.371 . S
C663 C221 1.344 . S
C668 C501 1.498 . S
C679 C283 1.354 1_554 S
C684 C507 1.494 1_556 S
C695 C363 1.361 . S
C700 C515 1.521 . S
C716 C529 1.607 . S
C711 C407 1.462 . S
C732 C549 1.536 . S
C727 C469 1.320 . S
C743 C159 1.275 . S
C748 C577 1.494 . S
C764 C591 1.581 . S
C759 C239 1.427 . S
C775 C53 1.379 . S
C780 C599 1.531 . S
C796 C563 1.456 . S
C791 C97 1.314 . S
C807 C425 1.337 . S
C812 C557 1.526 . S
C823 C487 1.350 . S
C828 C571 1.532 . S
C844 C585 1.525 . S
C839 C301 1.387 . S
C855 C345 1.316 . S
C860 C605 1.554 . S
C876 C524 1.855 . S
C871 C29 1.877 . S
C892 C547 1.863 . S
C887 C109 1.843 . S
C903 C171 1.832 . S
C908 C505 1.862 . S
C919 C215 1.913 . S
C924 C510 1.874 . S
C935 C277 1.866 . S
C940 C538 1.810 . S
C956 C496 1.812 . S
C951 C357 1.803 . S
C972 C519 1.876 . S
C967 C401 1.864 . S
C988 C533 1.889 . S
C983 C463 1.890 . S
C1004 C580 1.832 . S
C999 C153 1.876 . S
C1020 C603 1.853 . S
C1015 C233 1.839 . S
C1031 C47 1.834 . S
C1036 C552 1.838 . S
C1052 C566 1.788 . S
C1047 C91 1.831 . S
C1068 C594 1.889 . S
C1063 C419 1.881 . S
C1079 C481 1.870 . S
C1084 C561 1.915 . S
C1100 C575 1.905 . S
C1095 C295 1.868 . S
C1116 C589 1.860 . S
C1111 C339 1.887 . S
