# Generated by pormake.
# Topology zzz, (3,6)-cn, num edge types: 1
# Building blocks:
#     Node 0, Type 0, BuildingBlock: KAKCAD_clean_linker_0, # of connection points: 3
#     Node 1, Type 0, BuildingBlock: KAKCAD_clean_linker_0, # of connection points: 3
#     Node 2, Type 0, BuildingBlock: KAKCAD_clean_linker_0, # of connection points: 3
#     Node 3, Type 0, BuildingBlock: KAKCAD_clean_linker_0, # of connection points: 3
#     Node 4, Type 0, BuildingBlock: KAKCAD_clean_linker_0, # of connection points: 3
#     Node 5, Type 0, BuildingBlock: KAKCAD_clean_linker_0, # of connection points: 3
#     Node 6, Type 0, BuildingBlock: KAKCAD_clean_linker_0, # of connection points: 3
#     Node 7, Type 0, BuildingBlock: KAKCAD_clean_linker_0, # of connection points: 3
#     Node 8, Type 1, BuildingBlock: KUMBUR_clean_sbu_0, # of connection points: 6
#     Node 9, Type 1, BuildingBlock: KUMBUR_clean_sbu_0, # of connection points: 6
#     Node 10, Type 1, BuildingBlock: KUMBUR_clean_sbu_0, # of connection points: 6
#     Node 11, Type 1, BuildingBlock: KUMBUR_clean_sbu_0, # of connection points: 6
#     Edge 12, Type (0, 1), BuildingBlock: MIFKUJ_clean_linker_0, # of connection points: 2
#     Edge 13, Type (0, 1), BuildingBlock: MIFKUJ_clean_linker_0, # of connection points: 2
#     Edge 14, Type (0, 1), BuildingBlock: MIFKUJ_clean_linker_0, # of connection points: 2
#     Edge 15, Type (0, 1), BuildingBlock: MIFKUJ_clean_linker_0, # of connection points: 2
#     Edge 16, Type (0, 1), BuildingBlock: MIFKUJ_clean_linker_0, # of connection points: 2
#     Edge 17, Type (0, 1), BuildingBlock: MIFKUJ_clean_linker_0, # of connection points: 2
#     Edge 18, Type (0, 1), BuildingBlock: MIFKUJ_clean_linker_0, # of connection points: 2
#     Edge 19, Type (0, 1), BuildingBlock: MIFKUJ_clean_linker_0, # of connection points: 2
#     Edge 20, Type (0, 1), BuildingBlock: MIFKUJ_clean_linker_0, # of connection points: 2
#     Edge 21, Type (0, 1), BuildingBlock: MIFKUJ_clean_linker_0, # of connection points: 2
#     Edge 22, Type (0, 1), BuildingBlock: MIFKUJ_clean_linker_0, # of connection points: 2
#     Edge 23, Type (0, 1), BuildingBlock: MIFKUJ_clean_linker_0, # of connection points: 2
#     Edge 24, Type (0, 1), BuildingBlock: MIFKUJ_clean_linker_0, # of connection points: 2
#     Edge 25, Type (0, 1), BuildingBlock: MIFKUJ_clean_linker_0, # of connection points: 2
#     Edge 26, Type (0, 1), BuildingBlock: MIFKUJ_clean_linker_0, # of connection points: 2
#     Edge 27, Type (0, 1), BuildingBlock: MIFKUJ_clean_linker_0, # of connection points: 2
#     Edge 28, Type (0, 1), BuildingBlock: MIFKUJ_clean_linker_0, # of connection points: 2
#     Edge 29, Type (0, 1), BuildingBlock: MIFKUJ_clean_linker_0, # of connection points: 2
#     Edge 30, Type (0, 1), BuildingBlock: MIFKUJ_clean_linker_0, # of connection points: 2
#     Edge 31, Type (0, 1), BuildingBlock: MIFKUJ_clean_linker_0, # of connection points: 2
#     Edge 32, Type (0, 1), BuildingBlock: MIFKUJ_clean_linker_0, # of connection points: 2
#     Edge 33, Type (0, 1), BuildingBlock: MIFKUJ_clean_linker_0, # of connection points: 2
#     Edge 34, Type (0, 1), BuildingBlock: MIFKUJ_clean_linker_0, # of connection points: 2
#     Edge 35, Type (0, 1), BuildingBlock: MIFKUJ_clean_linker_0, # of connection points: 2
# Relax obj value: 0.272
# Max RMSD: 0.226
# Mean RMSD: 0.210
data_MOF--net-zzz--node1-KUMBUR_clean_sbu_0--node2-KAKCAD_clean_linker_0--edge1-MIFKUJ_clean_linker_0
_symmetry_space_group_name_H-M    P1
_symmetry_Int_Tables_number       1
_symmetry_cell_setting            triclinic
loop_
_symmetry_equiv_pos_as_xyz
'x, y, z'
_cell_length_a     70.883156
_cell_length_b     70.93913
_cell_length_c     24.78544
_cell_angle_alpha  90.596007
_cell_angle_beta   90.198742
_cell_angle_gamma 90.004306
loop_
_atom_site_label
_atom_site_type_symbol
_atom_site_fract_x
_atom_site_fract_y
_atom_site_fract_z
_atom_type_partial_charge
C0 C 0.78611 0.61194 0.96827 0.0
C1 C 0.80536 0.60972 0.97969 0.0
C2 C 0.77251 0.60612 1.00558 0.0
C3 C 0.7779 0.59706 0.05382 0.0
C4 C 0.79737 0.59553 0.06511 0.0
C5 C 0.81078 0.60218 0.0293 0.0
C6 C 0.76375 0.58779 0.09001 0.0
C7 C 0.74614 0.58161 0.07025 0.0
C8 C 0.73385 0.57083 0.1021 0.0
C9 C 0.74 0.56483 0.15349 0.0
C10 C 0.75742 0.57125 0.17437 0.0
C11 C 0.7685 0.58343 0.14355 0.0
C12 C 0.76583 0.56443 0.22567 0.0
C13 C 0.77089 0.57756 0.26603 0.0
C14 C 0.77366 0.54626 0.22757 0.0
C15 C 0.78745 0.54183 0.2663 0.0
C16 C 0.79372 0.55551 0.30394 0.0
C17 C 0.71484 0.56605 0.0796 0.0
C18 C 0.70398 0.58028 0.05548 0.0
C19 C 0.70822 0.54739 0.07683 0.0
C20 C 0.69158 0.543 0.04818 0.0
C21 C 0.68111 0.55722 0.02218 0.0
C22 C 0.6874 0.57596 0.02727 0.0
C23 C 0.78457 0.57314 0.30483 0.0
H24 H 0.78162 0.61774 0.93006 0.0
H25 H 0.75783 0.60828 0.99545 0.0
H26 H 0.80265 0.58824 0.10009 0.0
H27 H 0.82554 0.60016 0.03888 0.0
H28 H 0.74201 0.58454 0.02915 0.0
H29 H 0.78143 0.58874 0.1613 0.0
H30 H 0.73119 0.55566 0.17739 0.0
H31 H 0.76528 0.59176 0.26505 0.0
H32 H 0.77037 0.53601 0.1962 0.0
H33 H 0.79418 0.52814 0.26401 0.0
H34 H 0.70865 0.59483 0.05709 0.0
H35 H 0.71631 0.5361 0.09477 0.0
H36 H 0.78865 0.58391 0.33387 0.0
H37 H 0.67995 0.5873 1.00749 0.0
H38 H 0.68706 0.52844 0.04572 0.0
C39 C 0.92597 0.78981 0.98333 0.0
C40 C 0.93428 0.80771 0.97869 0.0
C41 C 0.93197 0.77744 0.02362 0.0
C42 C 0.9465 0.78271 0.05961 0.0
C43 C 0.9542 0.8009 0.05605 0.0
C44 C 0.94814 0.81322 0.01633 0.0
C45 C 0.95494 0.76901 0.09777 0.0
C46 C 0.95841 0.75036 0.08151 0.0
C47 C 0.96883 0.73796 0.11412 0.0
C48 C 0.9764 0.7448 0.16365 0.0
C49 C 0.97246 0.76346 0.18107 0.0
C50 C 0.96145 0.77513 0.14835 0.0
C51 C 0.98037 0.77219 0.23105 0.0
C52 C 0.96799 0.77842 0.27167 0.0
C53 C 0.99891 0.77917 0.23112 0.0
C54 C 1.00453 0.79307 0.26867 0.0
C55 C 0.99172 0.80031 0.30705 0.0
C56 C 0.97198 0.71831 0.09339 0.0
C57 C 0.9569 0.70841 0.06911 0.0
C58 C 0.99011 0.71029 0.09092 0.0
C59 C 0.9932 0.69337 0.06198 0.0
C60 C 0.97823 0.68418 0.03477 0.0
C61 C 0.95998 0.69168 0.04012 0.0
C62 C 0.9736 0.7922 0.30937 0.0
H63 H 0.91528 0.78518 0.95484 0.0
H64 H 0.9256 0.76359 0.02568 0.0
H65 H 0.96572 0.80534 0.08203 0.0
H66 H 0.95528 0.82666 0.01304 0.0
H67 H 0.95378 0.74568 0.04186 0.0
H68 H 0.95861 0.78947 0.16166 0.0
H69 H 0.98497 0.73571 0.18859 0.0
H70 H 0.95346 0.77365 0.27168 0.0
H71 H 1.00861 0.77498 0.19949 0.0
H72 H 0.01867 0.79875 0.26607 0.0
H73 H 0.94269 0.71401 0.07089 0.0
H74 H 1.00204 0.71759 0.10879 0.0
H75 H 0.96325 0.79746 0.3378 0.0
H76 H 0.94805 0.68478 0.02091 0.0
H77 H 1.00745 0.688 0.05873 0.0
C78 C 0.73167 0.92808 0.96079 0.0
C79 C 0.71374 0.93636 0.95591 0.0
C80 C 0.74337 0.93265 1.00466 0.0
C81 C 0.73742 0.94571 0.04426 0.0
C82 C 0.7192 0.95338 0.04023 0.0
C83 C 0.70752 0.94874 0.99675 0.0
C84 C 0.7505 0.95255 0.08733 0.0
C85 C 0.7694 0.95647 0.07544 0.0
C86 C 0.78141 0.96497 0.11385 0.0
C87 C 0.77414 0.96993 0.16517 0.0
C88 C 0.7553 0.9654 0.17831 0.0
C89 C 0.74377 0.95664 0.13925 0.0
C90 C 0.74665 0.97002 0.23146 0.0
C91 C 0.73786 0.95564 0.26074 0.0
C92 C 0.74363 0.98885 0.24736 0.0
C93 C 0.73086 0.99321 0.28899 0.0
C94 C 0.72087 0.9788 0.31533 0.0
C95 C 0.80127 0.96879 0.09775 0.0
C96 C 0.81199 0.95425 0.07407 0.0
C97 C 0.80857 0.9872 0.09784 0.0
C98 C 0.8257 0.99112 0.07178 0.0
C99 C 0.83594 0.97668 0.04547 0.0
C100 C 0.82908 0.95811 0.04842 0.0
C101 C 0.72519 0.95996 0.3022 0.0
H102 H 0.73682 0.91846 0.93 0.0
H103 H 0.75723 0.92628 1.00694 0.0
H104 H 0.71425 0.96377 0.06922 0.0
H105 H 0.69399 0.95577 0.9936 0.0
H106 H 0.77468 0.95366 0.03515 0.0
H107 H 0.72924 0.95341 0.1491 0.0
H108 H 0.78313 0.97679 0.19485 0.0
H109 H 0.73991 0.941 0.24924 0.0
H110 H 0.75001 1.00021 0.22497 0.0
H111 H 0.72784 1.00788 0.29786 0.0
H112 H 0.80668 0.93992 0.07324 0.0
H113 H 0.80054 0.99871 0.11535 0.0
H114 H 0.71808 0.9485 0.32228 0.0
H115 H 0.83637 0.94662 0.02833 0.0
H116 H 0.83066 1.00555 0.07097 0.0
C117 C 0.55092 0.74408 0.29514 0.0
C118 C 0.56463 0.73261 0.32017 0.0
C119 C 0.55624 0.75843 0.2595 0.0
C120 C 0.57537 0.76173 0.24855 0.0
C121 C 0.58902 0.7515 0.2772 0.0
C122 C 0.58377 0.73712 0.31223 0.0
C123 C 0.58115 0.77146 0.19835 0.0
C124 C 0.57763 0.79071 0.18794 0.0
C125 C 0.58374 0.79867 0.13879 0.0
C126 C 0.5925 0.78704 0.09995 0.0
C127 C 0.59532 0.76784 0.10912 0.0
C128 C 0.5899 0.76033 0.15865 0.0
C129 C 0.60141 0.75491 0.06506 0.0
C130 C 0.5931 0.75631 0.01366 0.0
C131 C 0.61271 0.73915 0.07657 0.0
C132 C 0.61345 0.72395 0.04046 0.0
C133 C 0.60315 0.72444 0.99205 0.0
C134 C 0.58064 0.81878 0.12458 0.0
C135 C 0.56238 0.82649 0.12235 0.0
C136 C 0.59569 0.82914 0.10292 0.0
C137 C 0.59241 0.84591 0.07543 0.0
C138 C 0.57401 0.8529 0.06934 0.0
C139 C 0.55909 0.84348 0.09506 0.0
C140 C 0.59404 0.74119 0.97731 0.0
H141 H 0.53604 0.74144 0.30107 0.0
H142 H 0.54541 0.76592 0.23745 0.0
H143 H 0.60388 0.75358 0.26897 0.0
H144 H 0.59488 0.72869 0.3298 0.0
H145 H 0.57058 0.7994 0.21788 0.0
H146 H 0.5915 0.74533 0.16552 0.0
H147 H 0.5966 0.79287 0.06145 0.0
H148 H 0.58428 0.76822 1.00349 0.0
H149 H 0.61967 0.7379 0.11535 0.0
H150 H 0.6207 0.7112 0.05239 0.0
H151 H 0.5505 0.81873 0.13819 0.0
H152 H 0.60993 0.82361 0.1043 0.0
H153 H 0.58587 0.74185 0.94033 0.0
H154 H 0.54475 0.84857 0.09102 0.0
H155 H 0.60421 0.85302 0.05685 0.0
C156 C 0.24353 0.45106 0.22574 0.0
C157 C 0.22878 0.43875 0.21171 0.0
C158 C 0.25583 0.45766 0.18643 0.0
C159 C 0.25385 0.45188 0.13217 0.0
C160 C 0.24002 0.43831 0.11911 0.0
C161 C 0.22748 0.43195 0.15842 0.0
C162 C 0.26474 0.46158 0.08922 0.0
C163 C 0.28303 0.46825 0.09956 0.0
C164 C 0.29226 0.48021 0.06338 0.0
C165 C 0.28327 0.48491 0.01431 0.0
C166 C 0.26513 0.47766 1.00233 0.0
C167 C 0.25609 0.46612 0.04002 0.0
C168 C 0.25423 0.48291 0.95329 0.0
C169 C 0.24682 0.50117 0.94824 0.0
C170 C 0.24779 0.4687 0.91783 0.0
C171 C 0.23359 0.4724 0.87987 0.0
C172 C 0.22524 0.49036 0.87705 0.0
C173 C 0.31076 0.48821 0.08068 0.0
C174 C 0.31193 0.49789 0.13035 0.0
C175 C 0.32753 0.48339 0.05397 0.0
C176 C 0.34513 0.48716 0.07825 0.0
C177 C 0.34628 0.49583 0.12973 0.0
C178 C 0.32939 0.50165 0.15451 0.0
C179 C 0.23242 0.50484 0.91068 0.0
H180 H 0.24465 0.45681 0.26631 0.0
H181 H 0.26602 0.4683 0.19824 0.0
H182 H 0.23834 0.43319 0.07807 0.0
H183 H 0.21622 0.42242 0.14668 0.0
H184 H 0.29006 0.46452 0.13686 0.0
H185 H 0.24174 0.4616 0.03199 0.0
H186 H 0.29012 0.49435 0.98641 0.0
H187 H 0.25127 0.51229 0.97574 0.0
H188 H 0.25302 0.45441 0.92157 0.0
H189 H 0.22835 0.46087 0.85508 0.0
H190 H 0.2992 0.50163 0.15206 0.0
H191 H 0.32703 0.47574 0.01594 0.0
H192 H 0.22645 0.51888 0.90925 0.0
H193 H 0.32952 0.50813 0.19425 0.0
H194 H 0.35781 0.48273 0.05743 0.0
C195 C 0.08553 0.24599 0.2263 0.0
C196 C 0.09309 0.22808 0.215 0.0
C197 C 0.08014 0.25788 0.18456 0.0
C198 C 0.08276 0.25243 0.1303 0.0
C199 C 0.09268 0.23561 0.11943 0.0
C200 C 0.09759 0.22346 0.16127 0.0
C201 C 0.07296 0.26286 0.08624 0.0
C202 C 0.06923 0.28223 0.09135 0.0
C203 C 0.0568 0.29142 0.056 0.0
C204 C 0.04878 0.28111 0.01237 0.0
C205 C 0.05336 0.26187 1.00481 0.0
C206 C 0.06515 0.25295 0.04219 0.0
C207 C 0.04559 0.25003 0.96017 0.0
C208 C 0.03066 0.23759 0.97055 0.0
C209 C 0.05594 0.24762 0.91238 0.0
C210 C 0.05196 0.23258 0.87682 0.0
C211 C 0.0376 0.21948 0.88842 0.0
C212 C 0.05126 0.31121 0.06982 0.0
C213 C 0.03232 0.3158 0.08006 0.0
C214 C 0.06524 0.32456 0.08331 0.0
C215 C 0.06057 0.34148 0.10963 0.0
C216 C 0.04175 0.34557 0.12342 0.0
C217 C 0.02762 0.33276 0.10665 0.0
C218 C 0.02664 0.22257 0.93504 0.0
H219 H 0.08242 0.25028 0.26739 0.0
H220 H 0.0726 0.27063 0.19528 0.0
H221 H 0.09566 0.23124 0.07837 0.0
H222 H 0.10355 0.20985 0.1509 0.0
H223 H 0.07529 0.2901 0.12485 0.0
H224 H 0.06747 0.23792 0.03781 0.0
H225 H 0.03906 0.28792 0.98495 0.0
H226 H 0.02284 0.23879 0.00792 0.0
H227 H 0.06783 0.25673 0.90413 0.0
H228 H 0.06055 0.23088 0.84106 0.0
H229 H 0.02124 0.30575 0.07073 0.0
H230 H 0.07999 0.3214 0.07617 0.0
H231 H 0.01565 0.21274 0.94596 0.0
H232 H 0.01294 0.33554 0.11562 0.0
H233 H 0.0719 0.35083 0.12199 0.0
C234 C 0.27848 0.0799 0.20316 0.0
C235 C 0.29497 0.09057 0.19598 0.0
C236 C 0.26592 0.07709 0.16051 0.0
C237 C 0.26952 0.08491 0.1097 0.0
C238 C 0.28505 0.09705 0.10397 0.0
C239 C 0.29768 0.09985 0.14676 0.0
C240 C 0.2588 0.07801 0.06188 0.0
C241 C 0.23948 0.0742 0.06565 0.0
C242 C 0.23005 0.06389 0.02521 0.0
C243 C 0.2401 0.05767 0.97919 0.0
C244 C 0.25938 0.06235 0.97371 0.0
C245 C 0.26848 0.07248 0.0151 0.0
C246 C 0.27119 0.05578 0.92793 0.0
C247 C 0.28002 0.03811 0.93031 0.0
C248 C 0.27747 0.06882 0.88974 0.0
C249 C 0.29286 0.06462 0.85631 0.0
C250 C 0.3026 0.04738 0.86094 0.0
C251 C 0.21016 0.05869 0.03591 0.0
C252 C 0.20609 0.04121 0.05921 0.0
C253 C 0.19629 0.07281 0.03679 0.0
C254 C 0.1791 0.06991 0.06321 0.0
C255 C 0.1755 0.05292 0.0903 0.0
C256 C 0.18895 0.03834 0.08609 0.0
C257 C 0.29552 0.03393 0.89722 0.0
H258 H 0.27608 0.07231 0.2402 0.0
H259 H 0.25424 0.06749 0.1663 0.0
H260 H 0.28801 0.10354 0.06555 0.0
H261 H 0.31015 0.10836 0.14033 0.0
H262 H 0.23185 0.07847 0.10164 0.0
H263 H 0.28354 0.07498 0.01213 0.0
H264 H 0.23308 0.04927 0.94839 0.0
H265 H 0.27579 0.02803 0.96053 0.0
H266 H 0.27114 0.08271 0.88794 0.0
H267 H 0.29756 0.07522 0.82825 0.0
H268 H 0.21677 0.03029 0.06038 0.0
H269 H 0.19923 0.08653 0.01999 0.0
H270 H 0.30267 0.0206 0.9027 0.0
H271 H 0.18687 0.02513 0.10671 0.0
H272 H 0.16898 0.08133 0.0644 0.0
C273 C 0.46054 0.29069 0.85103 0.0
C274 C 0.4788 0.29832 0.84679 0.0
C275 C 0.45633 0.27749 0.89077 0.0
C276 C 0.47031 0.27141 0.92696 0.0
C277 C 0.48891 0.27771 0.91993 0.0
C278 C 0.49313 0.29104 0.88021 0.0
C279 C 0.46458 0.26284 0.97883 0.0
C280 C 0.47119 0.24518 0.9964 0.0
C281 C 0.46591 0.23846 0.04765 0.0
C282 C 0.45528 0.25011 0.08226 0.0
C283 C 0.44927 0.26806 0.06608 0.0
C284 C 0.45322 0.27376 0.01325 0.0
C285 C 0.4409 0.28168 0.10568 0.0
C286 C 0.43 0.27559 0.14971 0.0
C287 C 0.44525 0.30099 0.10212 0.0
C288 C 0.43946 0.31368 0.14186 0.0
C289 C 0.42952 0.30745 0.18711 0.0
C290 C 0.47175 0.21967 0.06762 0.0
C291 C 0.4579 0.20674 0.08377 0.0
C292 C 0.49078 0.21566 0.07844 0.0
C293 C 0.49576 0.19947 0.10736 0.0
C294 C 0.48181 0.18687 0.12534 0.0
C295 C 0.46287 0.19046 0.11188 0.0
C296 C 0.42458 0.28833 0.19044 0.0
H297 H 0.44923 0.29561 0.82526 0.0
H298 H 0.44184 0.27297 0.89563 0.0
H299 H 0.49987 0.27354 0.94795 0.0
H300 H 0.50734 0.29661 0.87835 0.0
H301 H 0.48004 0.23665 0.97027 0.0
H302 H 0.4482 0.2873 0.9993 0.0
H303 H 0.45253 0.24539 0.12292 0.0
H304 H 0.42606 0.26093 0.15357 0.0
H305 H 0.45407 0.30635 0.07021 0.0
H306 H 0.44391 0.32825 0.13887 0.0
H307 H 0.44311 0.20964 0.07641 0.0
H308 H 0.50168 0.22554 0.06705 0.0
H309 H 0.41698 0.28318 0.22515 0.0
H310 H 0.45176 0.18119 0.12547 0.0
H311 H 0.51048 0.19703 0.11676 0.0
Tb312 Tb 0.02629 0.01024 0.62072 0.0
C313 C 0.95367 0.99205 0.50025 0.0
C314 C 0.96317 0.97124 0.42724 0.0
C315 C 0.93081 0.97071 0.45906 0.0
C316 C 0.96754 0.98523 0.46623 0.0
C317 C 0.93506 0.98505 0.49653 0.0
C318 C 0.94481 0.96394 0.42419 0.0
C319 C 0.92539 1.00938 0.55932 0.0
N320 N 0.95796 1.00681 0.53328 0.0
C321 C 0.94385 0.01626 0.55992 0.0
C322 C 0.92101 0.99352 0.52799 0.0
Tb323 Tb 0.98811 0.01828 0.52778 0.0
N324 N 0.98477 0.99359 0.46772 0.0
C325 C 0.99786 0.98923 0.42896 0.0
C326 C 0.97702 0.96581 0.39025 0.0
C327 C 0.99434 0.97505 0.39064 0.0
H328 H 0.94697 0.02909 0.58195 0.0
H329 H 1.00499 0.97137 0.36115 0.0
H330 H 0.94117 0.95335 0.39409 0.0
H331 H 0.91448 0.01662 0.58183 0.0
H332 H 0.01128 0.99632 0.42767 0.0
H333 H 1.00811 0.0552 0.79482 0.0
H334 H 0.97422 0.95503 0.35996 0.0
H335 H 0.06877 1.00005 0.5735 0.0
H336 H 1.00246 0.0306 0.72976 0.0
H337 H 0.10068 0.01396 0.57462 0.0
H338 H 0.91659 0.96523 0.4554 0.0
H339 H 0.03824 0.0725 0.79646 0.0
H340 H 0.07058 0.07676 0.75936 0.0
H341 H 0.90658 0.98851 0.52623 0.0
H342 H 0.09563 0.0661 0.69795 0.0
N343 N 0.0292 0.0332 0.68866 0.0
C344 C 0.01588 0.03749 0.72728 0.0
C345 C 0.03598 0.06143 0.76669 0.0
C346 C 0.05001 0.05647 0.72993 0.0
C347 C 0.01897 0.05171 0.76577 0.0
C348 C 0.04628 0.04202 0.6915 0.0
H349 H 0.10705 0.04265 0.62921 0.0
N350 N 0.05673 0.02148 0.62334 0.0
C351 C 0.08944 0.02053 0.59751 0.0
C352 C 0.06036 0.03618 0.65697 0.0
C353 C 0.07132 0.01278 0.59669 0.0
C354 C 0.09296 0.03671 0.62827 0.0
C355 C 0.07851 0.0444 0.65984 0.0
O356 O 0.04635 0.99453 0.66431 0.0
O357 O 1.00671 0.99759 0.56361 0.0
O358 O 0.97628 1.00339 0.59674 0.0
O359 O 0.99892 0.01022 0.66259 0.0
O360 O 0.0342 0.98909 0.55988 0.0
O361 O 0.01726 0.98682 0.66541 0.0
O362 O 0.97067 0.04136 0.50941 0.0
O363 O 1.00904 0.0311 0.58115 0.0
O364 O 0.03934 0.0215 0.54683 0.0
O365 O 0.01462 0.02317 0.48427 0.0
O366 O 0.98244 0.04226 0.58191 0.0
O367 O 0.98686 0.02725 0.44731 0.0
C368 C 0.01763 0.98598 0.54036 0.0
C369 C 0.03906 0.96195 0.66169 0.0
C370 C 0.03078 0.9286 0.66465 0.0
C371 C 0.02739 0.94745 0.67973 0.0
C372 C 0.04591 0.92443 0.63006 0.0
C373 C 0.05433 0.95752 0.62774 0.0
C374 C 0.05762 0.93886 0.61185 0.0
C375 C 0.98169 1.00501 0.64767 0.0
C376 C 0.03431 0.98156 0.67655 0.0
C377 C 0.08189 0.05944 0.69574 0.0
C378 C 0.06766 0.06544 0.73083 0.0
C379 C 0.9991 0.04407 0.60172 0.0
C380 C 0.97637 0.05823 0.42936 0.0
C381 C 0.99261 0.06954 0.43245 0.0
C382 C 0.9936 0.08632 0.40255 0.0
C383 C 0.97819 0.09142 0.36974 0.0
C384 C 0.96115 0.0637 0.3969 0.0
C385 C 0.96207 0.08021 0.36724 0.0
C386 C 0.03271 0.0244 0.49739 0.0
C387 C 0.97464 0.04044 0.45826 0.0
H388 H 0.01538 0.95096 0.7049 0.0
H389 H 0.04889 0.91004 0.61787 0.0
H390 H 0.06356 0.96843 0.61289 0.0
H391 H 0.06931 0.93555 0.58542 0.0
H392 H 1.00426 0.06533 0.4581 0.0
H393 H 0.97866 0.10395 0.34522 0.0
H394 H 0.94855 0.05507 0.39418 0.0
H395 H 0.95032 0.08426 0.34186 0.0
Tb396 Tb 0.52117 0.04105 0.65661 0.0
C397 C 0.53756 0.96466 0.54814 0.0
C398 C 0.56047 0.97053 0.4782 0.0
C399 C 0.55998 0.94019 0.52249 0.0
C400 C 0.54561 0.97688 0.51153 0.0
C401 C 0.54436 0.94603 0.55293 0.0
C402 C 0.56801 0.95241 0.48511 0.0
C403 C 0.51846 0.93949 0.61274 0.0
N404 N 0.52227 0.97062 0.57644 0.0
C405 C 0.5121 0.95798 0.60635 0.0
C406 C 0.53484 0.93357 0.58668 0.0
Tb407 Tb 0.51419 1.00176 0.56536 0.0
N408 N 0.53804 0.99443 0.5058 0.0
C409 C 0.54353 1.00532 0.4632 0.0
C410 C 0.56686 0.98223 0.4373 0.0
C411 C 0.55812 0.99955 0.42926 0.0
H412 H 0.49937 0.96211 0.62688 0.0
H413 H 0.56246 1.00853 0.39667 0.0
H414 H 0.57964 0.94749 0.46046 0.0
H415 H 0.51069 0.92981 0.63779 0.0
H416 H 0.53711 0.01864 0.4542 0.0
H417 H 0.48841 1.00799 0.83038 0.0
H418 H 0.57801 0.97765 0.4106 0.0
H419 H 0.51513 0.08425 0.6066 0.0
H420 H 0.50738 1.00844 0.74953 0.0
H421 H 0.49418 0.11137 0.6198 0.0
H422 H 0.56556 0.92604 0.52622 0.0
H423 H 0.46913 0.03565 0.85575 0.0
H424 H 0.45607 0.06703 0.83109 0.0
H425 H 0.53968 0.9192 0.59153 0.0
H426 H 0.45644 0.09445 0.77133 0.0
N427 N 0.50042 0.03681 0.72776 0.0
C428 C 0.49983 0.02106 0.75953 0.0
C429 C 0.47753 0.03595 0.81941 0.0
C430 C 0.47729 0.05161 0.78593 0.0
C431 C 0.48858 0.02047 0.80561 0.0
C432 C 0.48926 0.05177 0.74044 0.0
H433 H 0.47023 0.11091 0.69196 0.0
N434 N 0.50159 0.06701 0.66477 0.0
C435 C 0.49241 0.0989 0.64407 0.0
C436 C 0.48953 0.06718 0.70714 0.0
C437 C 0.50397 0.08321 0.63572 0.0
C438 C 0.47902 0.09863 0.68497 0.0
C439 C 0.47778 0.08287 0.71806 0.0
O440 O 0.53785 0.06522 0.66813 0.0
O441 O 0.53424 0.02088 0.60208 0.0
O442 O 0.52907 0.99021 0.63536 0.0
O443 O 0.53253 0.0156 0.69562 0.0
O444 O 0.54518 0.04745 0.60349 0.0
O445 O 0.53691 0.04344 0.7283 0.0
O446 O 0.50118 0.98275 0.51091 0.0
O447 O 0.50098 0.02168 0.62074 0.0
O448 O 0.50941 0.05165 0.58031 0.0
O449 O 0.51681 0.02768 0.51864 0.0
O450 O 0.49228 0.99427 0.62292 0.0
O451 O 0.49054 0.01079 0.52109 0.0
C452 C 0.54737 0.03086 0.58321 0.0
C453 C 0.56593 0.0589 0.71376 0.0
C454 C 0.596 0.04259 0.7035 0.0
C455 C 0.5762 0.04226 0.70429 0.0
C456 C 0.6054 0.0599 0.71115 0.0
C457 C 0.57552 0.07599 0.72139 0.0
C458 C 0.59519 0.07647 0.7199 0.0
C459 C 0.53445 0.99752 0.68232 0.0
C460 C 0.54525 0.05881 0.71237 0.0
C461 C 0.46557 0.08258 0.76248 0.0
C462 C 0.46543 0.06702 0.79659 0.0
C463 C 0.48933 0.01073 0.64294 0.0
C464 C 0.46807 0.98724 0.5025 0.0
C465 C 0.4534 0.9988 0.48414 0.0
C466 C 0.43459 0.99246 0.48374 0.0
C467 C 0.43068 0.97429 0.50312 0.0
C468 C 0.46385 0.96922 0.52204 0.0
C469 C 0.44521 0.96285 0.52241 0.0
C470 C 0.51188 0.04526 0.53033 0.0
C471 C 0.48758 0.99432 0.49969 0.0
H472 H 0.5688 0.02909 0.69722 0.0
H473 H 0.62066 0.06058 0.71176 0.0
H474 H 0.56777 0.08897 0.72805 0.0
H475 H 0.60254 0.0897 0.72595 0.0
H476 H 0.45676 0.01286 0.47035 0.0
H477 H 0.41646 0.96873 0.50259 0.0
H478 H 0.47489 0.96003 0.53672 0.0
H479 H 0.44204 0.9489 0.53716 0.0
Tb480 Tb 0.54602 0.50242 0.52582 0.0
C481 C 0.45996 0.50451 0.59235 0.0
C482 C 0.4423 0.51419 0.51357 0.0
C483 C 0.42682 0.49591 0.58281 0.0
C484 C 0.45932 0.51332 0.54311 0.0
C485 C 0.44355 0.49594 0.61322 0.0
C486 C 0.42615 0.50507 0.53311 0.0
C487 C 0.46095 0.48957 0.69472 0.0
N488 N 0.47631 0.50506 0.62082 0.0
C489 C 0.47678 0.49831 0.67251 0.0
C490 C 0.44436 0.48815 0.66472 0.0
Tb491 Tb 0.50152 0.5196 0.58005 0.0
N492 N 0.47532 0.52171 0.52511 0.0
C493 C 0.47468 0.53225 0.47904 0.0
C494 C 0.44183 0.52447 0.46579 0.0
C495 C 0.45807 0.53372 0.44881 0.0
H496 H 0.4893 0.49908 0.69682 0.0
H497 H 0.45785 0.54184 0.41211 0.0
H498 H 0.41304 0.50534 0.51063 0.0
H499 H 0.46162 0.4839 0.73509 0.0
H500 H 0.487 0.5395 0.46448 0.0
H501 H 0.59196 0.48721 0.69502 0.0
H502 H 0.42904 0.52548 0.442 0.0
H503 H 0.55384 0.52552 0.41233 0.0
H504 H 0.56322 0.484 0.6392 0.0
H505 H 0.57871 0.54587 0.37495 0.0
H506 H 0.41415 0.48925 0.59801 0.0
H507 H 0.61701 0.50956 0.66884 0.0
H508 H 0.6293 0.53293 0.60208 0.0
H509 H 0.4321 0.48142 0.68215 0.0
H510 H 0.62574 0.54888 0.51484 0.0
N511 N 0.57152 0.50488 0.58285 0.0
C512 C 0.57402 0.49389 0.62744 0.0
C513 C 0.60438 0.5083 0.64433 0.0
C514 C 0.60227 0.51871 0.59707 0.0
C515 C 0.59031 0.49562 0.65913 0.0
C516 C 0.58562 0.51641 0.56635 0.0
H517 H 0.60706 0.55357 0.4295 0.0
N518 N 0.56788 0.52187 0.4876 0.0
C519 C 0.58022 0.54031 0.41517 0.0
C520 C 0.58379 0.52514 0.51698 0.0
C521 C 0.56621 0.52867 0.43632 0.0
C522 C 0.59621 0.54459 0.44607 0.0
C523 C 0.59828 0.53678 0.49737 0.0
O524 O 0.55548 0.48705 0.45785 0.0
O525 O 0.51601 0.50489 0.51607 0.0
O526 O 0.49972 0.48875 0.58392 0.0
O527 O 0.5319 0.48079 0.576 0.0
O528 O 0.53105 0.50147 0.44725 0.0
O529 O 0.55992 0.47692 0.53894 0.0
O530 O 0.50595 0.53879 0.64374 0.0
O531 O 0.53169 0.51616 0.5914 0.0
O532 O 0.5462 0.53338 0.52831 0.0
O533 O 0.51416 0.53754 0.51759 0.0
O534 O 0.51514 0.51315 0.65741 0.0
O535 O 0.48831 0.54642 0.57732 0.0
C536 C 0.5142 0.50286 0.46574 0.0
C537 C 0.55937 0.45418 0.47047 0.0
C538 C 0.53892 0.42707 0.45565 0.0
C539 C 0.54123 0.4463 0.46841 0.0
C540 C 0.55497 0.41596 0.44494 0.0
C541 C 0.57517 0.44292 0.45966 0.0
C542 C 0.57295 0.42388 0.44694 0.0
C543 C 0.51397 0.47652 0.58739 0.0
C544 C 0.56247 0.47367 0.48778 0.0
C545 C 0.6145 0.53987 0.52901 0.0
C546 C 0.6165 0.53082 0.57872 0.0
C547 C 0.53241 0.51286 0.6414 0.0
C548 C 0.48512 0.56333 0.66079 0.0
C549 C 0.49536 0.57692 0.68947 0.0
C550 C 0.48752 0.58648 0.73371 0.0
C551 C 0.46843 0.58335 0.74611 0.0
C552 C 0.46623 0.55992 0.67381 0.0
C553 C 0.45782 0.57024 0.71587 0.0
C554 C 0.53159 0.54417 0.51636 0.0
C555 C 0.49588 0.55189 0.6225 0.0
H556 H 0.52907 0.45504 0.47742 0.0
H557 H 0.5536 0.40122 0.43373 0.0
H558 H 0.58926 0.44883 0.4617 0.0
H559 H 0.5852 0.41524 0.43849 0.0
H560 H 0.5099 0.57951 0.67819 0.0
H561 H 0.46187 0.59053 0.77993 0.0
H562 H 0.45819 0.54921 0.65236 0.0
H563 H 0.44323 0.56767 0.72615 0.0
Tb564 Tb 0.01687 0.53824 0.53863 0.0
C565 C 0.0253 0.45612 0.61023 0.0
C566 C 1.00817 0.4363 0.54698 0.0
C567 C 0.03503 0.42358 0.5955 0.0
C568 C 0.01099 0.45396 0.5726 0.0
C569 C 0.03726 0.44086 0.62283 0.0
C570 C 0.02046 0.42128 0.5578 0.0
C571 C 0.05149 0.46017 0.69261 0.0
N572 N 0.02684 0.47287 0.63668 0.0
C573 C 0.03913 0.47476 0.67939 0.0
C574 C 0.05072 0.44321 0.66377 0.0
Tb575 Tb 1.0061 0.496 0.61081 0.0
N576 N 0.99945 0.46888 0.56251 0.0
C577 C 0.9841 0.46646 0.52945 0.0
C578 C 0.99279 0.43407 0.51225 0.0
C579 C 0.98064 0.44918 0.50385 0.0
H580 H 0.03986 0.48778 0.70225 0.0
H581 H 0.96844 0.44754 0.478 0.0
H582 H 0.01859 0.40772 0.53799 0.0
H583 H 0.06155 0.462 0.72522 0.0
H584 H 0.97431 0.47759 0.52159 0.0
H585 H 0.04845 0.58786 0.67864 0.0
H586 H 0.98995 0.42062 0.49287 0.0
H587 H 0.98544 0.54489 0.44074 0.0
H588 H 0.04532 0.55781 0.63121 0.0
H589 H 0.96369 0.56991 0.41156 0.0
H590 H 0.04417 0.41175 0.60432 0.0
H591 H 0.02539 0.61349 0.66298 0.0
H592 H 0.99729 0.6253 0.61153 0.0
H593 H 0.0602 0.43184 0.67445 0.0
H594 H 0.97417 0.62039 0.53834 0.0
N595 N 0.02037 0.56552 0.58829 0.0
C596 C 0.03501 0.56855 0.62345 0.0
C597 C 0.02386 0.60013 0.64188 0.0
C598 C 1.00948 0.59736 0.60396 0.0
C599 C 0.03685 0.58574 0.65093 0.0
C600 C 1.00831 0.57979 0.57692 0.0
H601 H 0.96178 0.59989 0.46273 0.0
N602 N 0.99567 0.56039 0.50903 0.0
C603 C 0.97248 0.57208 0.4467 0.0
C604 C 0.99545 0.57713 0.53588 0.0
C605 C 0.98489 0.55796 0.46343 0.0
C606 C 0.9714 0.58898 0.47585 0.0
C607 C 0.9832 0.5918 0.52055 0.0
O608 O 0.02423 0.54679 0.46094 0.0
O609 O 0.01591 0.50763 0.53633 0.0
O610 O 0.03659 0.49671 0.59411 0.0
O611 O 0.04159 0.52885 0.5857 0.0
O612 O 1.00912 0.52098 0.46723 0.0
O613 O 0.04489 0.54689 0.52503 0.0
O614 O 0.99865 0.47992 0.67817 0.0
O615 O 1.00781 0.52644 0.61437 0.0
O616 O 0.98655 0.53786 0.55586 0.0
O617 O 0.98166 0.5055 0.56176 0.0
O618 O 0.01696 0.5123 0.68026 0.0
O619 O 0.97898 0.49942 0.64432 0.0
C620 C 0.01105 0.50465 0.48805 0.0
C621 C 0.05564 0.54123 0.43509 0.0
C622 C 0.08541 0.5256 0.41398 0.0
C623 C 0.07226 0.53214 0.45222 0.0
C624 C 0.08157 0.52787 0.35867 0.0
C625 C 0.0523 0.54355 0.37963 0.0
C626 C 0.06513 0.53678 0.34175 0.0
C627 C 0.0477 0.51167 0.59665 0.0
C628 C 0.0419 0.54918 0.47359 0.0
C629 C 0.98359 0.609 0.54914 0.0
C630 C 0.99674 0.61178 0.59079 0.0
C631 C 0.01403 0.52886 0.66174 0.0
C632 C 0.98012 0.49745 0.73975 0.0
C633 C 0.96654 0.51164 0.7478 0.0
C634 C 0.96375 0.51951 0.79933 0.0
C635 C 0.97478 0.51336 0.84283 0.0
C636 C 0.99105 0.49145 0.78392 0.0
C637 C 0.98845 0.49948 0.83498 0.0
C638 C 0.97535 0.52291 0.55306 0.0
C639 C 0.98298 0.489 0.68557 0.0
H640 H 0.07514 0.53039 0.49486 0.0
H641 H 0.09122 0.52252 0.32835 0.0
H642 H 0.03971 0.55066 0.36552 0.0
H643 H 0.06235 0.53849 0.29911 0.0
H644 H 0.95781 0.51627 0.71443 0.0
H645 H 0.97272 0.51924 0.8829 0.0
H646 H 1.00164 0.48056 0.77914 0.0
H647 H 0.99692 0.49479 0.86868 0.0
H648 H 0.15348 0.02153 0.10919 0.0
H649 H 0.128 0.01824 0.17474 0.0
H650 H 0.13375 0.0769 0.21914 0.0
H651 H 0.15973 0.08009 0.1558 0.0
H652 H 0.13085 0.05771 0.30619 0.0
H653 H 0.09561 0.06049 0.14323 0.0
H654 H 0.08644 0.0521 0.04996 0.0
H655 H 0.07357 0.99571 0.09927 0.0
H656 H 0.08288 1.00371 0.19277 0.0
H657 H 0.02564 0.04121 0.39988 0.0
H658 H 0.0482 0.04837 0.32809 0.0
H659 H 0.09258 0.02238 0.42063 0.0
H660 H 0.07041 0.01584 0.49203 0.0
H661 H 0.06885 0.02872 0.26287 0.0
H662 H 0.13393 0.04173 0.40292 0.0
H663 H 0.14022 0.05473 0.49402 0.0
H664 H 0.08974 0.08804 0.48501 0.0
H665 H 0.08336 0.07532 0.39364 0.0
C666 C 0.14937 0.03374 0.13291 0.0
C667 C 0.15876 0.0511 0.12675 0.0
C668 C 0.13462 0.03188 0.17013 0.0
C669 C 0.12878 0.04735 0.2019 0.0
C670 C 0.13794 0.06473 0.19529 0.0
C671 C 0.1527 0.06658 0.15833 0.0
C672 C 0.11364 0.04531 0.24335 0.0
C673 C 0.11734 0.05131 0.29658 0.0
C674 C 0.09568 0.03756 0.23096 0.0
C675 C 0.09013 0.03265 0.17484 0.0
C676 C 0.09098 0.04626 0.13407 0.0
C677 C 0.08572 0.04159 0.0812 0.0
C678 C 0.07948 0.02337 0.06866 0.0
C679 C 0.07844 1.00981 0.10902 0.0
C680 C 0.08368 0.01441 0.16198 0.0
C681 C 0.04029 0.03731 0.40531 0.0
C682 C 0.04631 0.02867 0.45331 0.0
C683 C 0.05317 0.04128 0.36394 0.0
C684 C 0.07231 0.03637 0.36921 0.0
C685 C 0.07811 0.02702 0.4161 0.0
C686 C 0.06535 0.02337 0.45753 0.0
C687 C 0.08628 0.04064 0.32587 0.0
C688 C 0.08239 0.03507 0.27241 0.0
C689 C 0.10382 0.04943 0.33757 0.0
C690 C 0.10805 0.05749 0.39176 0.0
C691 C 0.12425 0.05191 0.42029 0.0
C692 C 0.12782 0.05919 0.472 0.0
C693 C 0.11536 0.07215 0.4954 0.0
C694 C 0.09936 0.07795 0.467 0.0
C695 C 0.09575 0.07071 0.41533 0.0
H696 H 0.11812 0.07771 0.53549 0.0
H697 H 0.07542 0.01978 0.0277 0.0
H698 H 0.50517 0.18718 0.21335 0.0
H699 H 0.51122 0.16171 0.27662 0.0
H700 H 0.47545 0.12465 0.18241 0.0
H701 H 0.46895 0.15036 0.11974 0.0
H702 H 0.4678 0.11969 0.28266 0.0
H703 H 0.52552 0.12105 0.18464 0.0
H704 H 0.55394 0.13507 0.14432 0.0
H705 H 0.57347 0.15224 0.30148 0.0
H706 H 0.54503 0.13855 0.34271 0.0
H707 H 0.49523 0.03875 0.43251 0.0
H708 H 0.49182 0.06082 0.35745 0.0
H709 H 0.52134 0.10346 0.44996 0.0
H710 H 0.52564 0.08112 0.52338 0.0
H711 H 0.53228 0.10357 0.34561 0.0
H712 H 0.47266 0.10274 0.44125 0.0
H713 H 0.44631 0.08471 0.47994 0.0
H714 H 0.43132 0.064 0.32213 0.0
H715 H 0.45787 0.08158 0.28263 0.0
C716 C 0.49883 0.17352 0.2056 0.0
C717 C 0.48669 0.17079 0.16122 0.0
C718 C 0.5023 0.15891 0.24188 0.0
C719 C 0.49404 0.14104 0.23415 0.0
C720 C 0.48202 0.13824 0.18951 0.0
C721 C 0.47835 0.15295 0.15357 0.0
C722 C 0.4975 0.12553 0.27352 0.0
C723 C 0.48195 0.11603 0.29566 0.0
C724 C 0.5159 0.12069 0.29131 0.0
C725 C 0.53306 0.12891 0.2667 0.0
C726 C 0.53581 0.12793 0.21057 0.0
C727 C 0.55193 0.1358 0.18756 0.0
C728 C 0.56548 0.14458 0.22031 0.0
C729 C 0.56295 0.14546 0.27616 0.0
C730 C 0.54684 0.13762 0.29938 0.0
C731 C 0.50096 0.05285 0.43673 0.0
C732 C 0.50992 0.05853 0.48489 0.0
C733 C 0.49898 0.06546 0.39389 0.0
C734 C 0.50592 0.084 0.39844 0.0
C735 C 0.51559 0.08937 0.4457 0.0
C736 C 0.51763 0.07674 0.48833 0.0
C737 C 0.50264 0.09805 0.35493 0.0
C738 C 0.51818 0.10725 0.33219 0.0
C739 C 0.48429 0.10246 0.33615 0.0
C740 C 0.46734 0.09333 0.35908 0.0
C741 C 0.46371 0.09438 0.41479 0.0
C742 C 0.4488 0.08418 0.43689 0.0
C743 C 0.43727 0.07311 0.40355 0.0
C744 C 0.44036 0.0725 0.34792 0.0
C745 C 0.45533 0.08259 0.32564 0.0
H746 H 0.42596 0.06498 0.4209 0.0
H747 H 0.57795 0.15066 0.20241 0.0
H748 H 0.3584 0.52438 0.19805 0.0
H749 H 0.38638 0.52484 0.2557 0.0
H750 H 0.40425 0.47173 0.18683 0.0
H751 H 0.3758 0.47066 0.13118 0.0
H752 H 0.40768 0.47041 0.29111 0.0
H753 H 0.42601 0.51578 0.15795 0.0
H754 H 0.42269 0.54452 0.10359 0.0
H755 H 0.42114 0.57838 0.24813 0.0
H756 H 0.42422 0.5498 0.3034 0.0
H757 H 0.50892 0.51313 0.36237 0.0
H758 H 0.48111 0.5089 0.30578 0.0
H759 H 0.45285 0.4815 0.43792 0.0
H760 H 0.48163 0.48357 0.49121 0.0
H761 H 0.45185 0.5242 0.30746 0.0
H762 H 0.41713 0.47243 0.42557 0.0
H763 H 0.41592 0.44129 0.46897 0.0
H764 H 0.44794 0.41737 0.3388 0.0
H765 H 0.45053 0.4486 0.29668 0.0
C766 C 0.36824 0.51276 0.19505 0.0
C767 C 0.36465 0.49743 0.15979 0.0
C768 C 0.38442 0.51315 0.22779 0.0
C769 C 0.39763 0.49838 0.22566 0.0
C770 C 0.39434 0.48332 0.18947 0.0
C771 C 0.3781 0.48285 0.157 0.0
C772 C 0.4144 0.4981 0.26259 0.0
C773 C 0.41753 0.48209 0.29408 0.0
C774 C 0.42705 0.51345 0.26792 0.0
C775 C 0.42514 0.53064 0.2348 0.0
C776 C 0.42481 0.52934 0.17815 0.0
C777 C 0.423 0.5456 0.14717 0.0
C778 C 0.42165 0.56326 0.17239 0.0
C779 C 0.42215 0.56469 0.22865 0.0
C780 C 0.42394 0.54847 0.25982 0.0
C781 C 0.49678 0.50595 0.3789 0.0
C782 C 0.49705 0.49967 0.43233 0.0
C783 C 0.48071 0.50358 0.34656 0.0
C784 C 0.4642 0.49512 0.36681 0.0
C785 C 0.46506 0.48766 0.41939 0.0
C786 C 0.48148 0.48944 0.4511 0.0
C787 C 0.44621 0.49579 0.33386 0.0
C788 C 0.44244 0.51221 0.30385 0.0
C789 C 0.43305 0.48071 0.32943 0.0
C790 C 0.43468 0.46293 0.35928 0.0
C791 C 0.4245 0.4606 0.40732 0.0
C792 C 0.42365 0.44296 0.43176 0.0
C793 C 0.43226 0.42738 0.40724 0.0
C794 C 0.44186 0.42951 0.35858 0.0
C795 C 0.44333 0.44725 0.33492 0.0
H796 H 0.43125 0.41361 0.42537 0.0
H797 H 0.42025 0.57583 0.14834 0.0
H798 H 0.05727 0.38127 0.1214 0.0
H799 H 0.0514 0.40768 0.18335 0.0
H800 H 1.01026 0.37439 0.26763 0.0
H801 H 0.01611 0.34793 0.20616 0.0
H802 H 0.99734 0.40894 0.25608 0.0
H803 H 0.05633 0.38242 0.3201 0.0
H804 H 0.08956 0.37227 0.3137 0.0
H805 H 0.1057 0.42788 0.26479 0.0
H806 H 0.07248 0.43816 0.26944 0.0
H807 H 0.03452 0.47393 0.50162 0.0
H808 H 0.03705 0.44595 0.44353 0.0
H809 H 0.99701 0.47058 0.333 0.0
H810 H 0.9926 0.49695 0.39494 0.0
H811 H 0.04968 0.43842 0.35907 0.0
H812 H 0.98184 0.44812 0.24408 0.0
H813 H 0.94798 0.45537 0.2554 0.0
H814 H 0.9487 0.42957 0.41133 0.0
H815 H 0.98265 0.4224 0.40075 0.0
C816 C 0.047 0.37951 0.15318 0.0
C817 C 0.0372 0.36233 0.15853 0.0
C818 C 0.04367 0.39467 0.18875 0.0
C819 C 0.03056 0.39305 0.23091 0.0
C820 C 0.02044 0.3761 0.23555 0.0
C821 C 0.02374 0.36095 0.19999 0.0
C822 C 0.0273 0.40891 0.27021 0.0
C823 C 1.00884 0.41548 0.27842 0.0
C824 C 0.04213 0.41747 0.29996 0.0
C825 C 0.06195 0.41105 0.29509 0.0
C826 C 0.06695 0.39241 0.30746 0.0
C827 C 0.08577 0.38663 0.30412 0.0
C828 C 0.09973 0.39941 0.28881 0.0
C829 C 0.09488 0.41797 0.27656 0.0
C830 C 0.07607 0.42378 0.27951 0.0
C831 C 0.02555 0.47281 0.46629 0.0
C832 C 0.01253 0.48712 0.45466 0.0
C833 C 0.02726 0.45693 0.43214 0.0
C834 C 0.01669 0.45537 0.38377 0.0
C835 C 1.00444 0.47033 0.37107 0.0
C836 C 1.00219 0.48576 0.4063 0.0
C837 C 0.01967 0.43901 0.345 0.0
C838 C 0.03813 0.43224 0.33661 0.0
C839 C 1.00483 0.43024 0.3151 0.0
C840 C 0.98478 0.43526 0.32252 0.0
C841 C 0.97477 0.4442 0.28099 0.0
C842 C 0.9556 0.4483 0.28724 0.0
C843 C 0.94625 0.44314 0.33438 0.0
C844 C 0.95604 0.43384 0.37525 0.0
C845 C 0.97527 0.42992 0.36941 0.0
H846 H 0.93138 0.44622 0.33904 0.0
H847 H 0.11431 0.39493 0.28649 0.0
H848 H 0.86873 0.95614 0.03456 0.0
H849 H 0.89441 0.96112 0.97069 0.0
H850 H 0.86735 0.01185 0.9154 0.0
H851 H 0.84129 1.0066 0.9778 0.0
H852 H 0.87764 0.99079 0.83208 0.0
H853 H 0.90835 0.0126 0.99384 0.0
H854 H 0.91966 0.01066 0.0878 0.0
H855 H 0.9536 0.96257 0.04612 0.0
H856 H 0.94229 0.96407 0.952 0.0
H857 H 0.95135 0.02673 0.67218 0.0
H858 H 0.92748 0.02148 0.74119 0.0
H859 H 0.95732 0.97181 0.79298 0.0
H860 H 0.98106 0.97691 0.72232 0.0
H861 H 0.94581 0.99117 0.878 0.0
H862 H 0.91372 0.96779 0.71976 0.0
H863 H 0.90207 0.96849 0.62583 0.0
H864 H 0.8702 0.01851 0.662 0.0
H865 H 0.88202 0.01822 0.75581 0.0
C866 C 0.86825 0.96841 0.00899 0.0
C867 C 0.85283 0.98093 0.01147 0.0
C868 C 0.88308 0.97134 0.97272 0.0
C869 C 0.88296 0.98694 0.93821 0.0
C870 C 0.86783 0.99971 0.94153 0.0
C871 C 0.853 0.99679 0.97776 0.0
C872 C 0.89799 0.98941 0.89662 0.0
C873 C 0.89253 0.99118 0.84239 0.0
C874 C 0.91751 0.98926 0.90943 0.0
C875 C 0.92432 0.98833 0.96599 0.0
C876 C 0.9181 1.00151 1.0048 0.0
C877 C 0.92454 1.00051 0.05807 0.0
C878 C 0.9373 0.98647 0.07296 0.0
C879 C 0.94369 0.97343 0.03455 0.0
C880 C 0.93729 0.97435 0.98122 0.0
C881 C 0.95245 0.01435 0.69701 0.0
C882 C 0.96757 1.00179 0.69042 0.0
C883 C 0.93889 0.01143 0.73694 0.0
C884 C 0.94016 0.99589 0.77153 0.0
C885 C 0.95578 0.98373 0.76639 0.0
C886 C 0.96933 0.98662 0.72605 0.0
C887 C 0.92541 0.99273 0.81358 0.0
C888 C 0.93092 0.99079 0.8678 0.0
C889 C 0.9059 0.99265 0.80088 0.0
C890 C 0.89899 0.99311 0.7444 0.0
C891 C 0.90448 0.97907 0.70731 0.0
C892 C 0.89776 0.97934 0.65424 0.0
C893 C 0.88538 0.99354 0.63797 0.0
C894 C 0.87977 1.00751 0.67468 0.0
C895 C 0.88648 1.00729 0.72779 0.0
H896 H 0.88013 0.99371 0.59693 0.0
H897 H 0.94227 0.98573 0.11422 0.0
H898 H 0.58596 0.85591 0.96589 0.0
H899 H 0.5807 0.88162 0.90312 0.0
H900 H 0.54908 0.9118 0.02488 0.0
H901 H 0.55368 0.88546 0.08735 0.0
H902 H 0.5323 0.91641 0.93397 0.0
H903 H 0.59703 0.9241 0.98695 0.0
H904 H 0.63012 0.91487 1.00315 0.0
H905 H 0.63622 0.89986 0.83584 0.0
H906 H 0.60304 0.90857 0.81896 0.0
H907 H 0.5384 1.00339 0.79149 0.0
H908 H 0.54718 0.98013 0.85935 0.0
H909 H 0.55774 0.93912 0.73372 0.0
H910 H 0.54933 0.96231 0.66552 0.0
H911 H 0.58594 0.94214 0.82951 0.0
H912 H 0.52024 0.93264 0.77998 0.0
H913 H 0.48859 0.94558 0.76197 0.0
H914 H 0.48558 0.96666 0.92475 0.0
H915 H 0.51743 0.95409 0.94344 0.0
C916 C 0.57797 0.86808 0.97942 0.0
C917 C 0.57045 0.86879 0.03182 0.0
C918 C 0.57505 0.88287 0.94353 0.0
C919 C 0.56495 0.89903 0.95945 0.0
C920 C 0.55707 0.89961 0.01155 0.0
C921 C 0.5597 0.88458 0.0473 0.0
C922 C 0.56241 0.91504 0.92119 0.0
C923 C 0.54415 0.92216 0.91199 0.0
C924 C 0.57771 0.92258 0.89142 0.0
C925 C 0.59755 0.91696 0.90172 0.0
C926 C 0.60539 0.91869 0.95372 0.0
C927 C 0.62416 0.91353 0.96304 0.0
C928 C 0.63524 0.90673 0.9206 0.0
C929 C 0.6276 0.90508 0.86872 0.0
C930 C 0.60883 0.91015 0.85925 0.0
C931 C 0.54284 0.98952 0.77809 0.0
C932 C 0.54257 0.98454 0.72296 0.0
C933 C 0.54789 0.97626 0.81701 0.0
C934 C 0.55309 0.95791 0.80149 0.0
C935 C 0.55398 0.95326 0.74646 0.0
C936 C 0.54883 0.96646 0.70757 0.0
C937 C 0.55603 0.94315 0.84265 0.0
C938 C 0.57426 0.93633 0.85211 0.0
C939 C 0.5408 0.93601 0.8729 0.0
C940 C 0.52124 0.94254 0.86299 0.0
C941 C 0.51284 0.94007 0.81191 0.0
C942 C 0.49489 0.94734 0.80155 0.0
C943 C 0.4851 0.95697 0.84216 0.0
C944 C 0.49319 0.9592 0.89335 0.0
C945 C 0.51119 0.95198 0.90387 0.0
H946 H 0.47125 0.96267 0.83389 0.0
H947 H 0.64977 0.90277 0.92787 0.0
H948 H 0.67633 0.52721 0.95227 0.0
H949 H 0.65023 0.52141 0.88952 0.0
H950 H 0.62216 0.57148 0.948 0.0
H951 H 0.64787 0.577 0.01224 0.0
H952 H 0.59691 0.54498 0.93069 0.0
H953 H 0.64741 0.57107 0.82924 0.0
H954 H 0.67977 0.57385 0.79408 0.0
H955 H 0.67482 0.51937 0.71823 0.0
H956 H 0.64253 0.51612 0.75369 0.0
H957 H 0.55759 0.5422 0.63168 0.0
H958 H 0.58165 0.55222 0.69762 0.0
H959 H 0.5644 0.50753 0.80353 0.0
H960 H 0.54021 0.49784 0.7383 0.0
H961 H 0.61168 0.53578 0.73672 0.0
H962 H 0.57032 0.51945 0.93341 0.0
H963 H 0.53733 0.51956 0.9647 0.0
H964 H 0.52299 0.56066 0.84561 0.0
H965 H 0.55596 0.56108 0.81403 0.0
C966 C 0.66446 0.53682 0.9526 0.0
C967 C 0.66436 0.55267 0.98729 0.0
C968 C 0.6496 0.5336 0.91611 0.0
C969 C 0.63431 0.5462 0.91306 0.0
C970 C 0.63381 0.56161 0.9491 0.0
C971 C 0.64864 0.56482 0.98564 0.0
C972 C 0.6191 0.54353 0.87164 0.0
C973 C 0.60017 0.54297 0.8883 0.0
C974 C 0.62317 0.54139 0.81591 0.0
C975 C 0.64262 0.54327 0.79465 0.0
C976 C 0.65328 0.55961 0.80548 0.0
C977 C 0.67161 0.56128 0.78543 0.0
C978 C 0.67937 0.54677 0.75408 0.0
C979 C 0.66881 0.53058 0.74261 0.0
C980 C 0.65049 0.52882 0.76267 0.0
C981 C 0.55906 0.53451 0.66895 0.0
C982 C 0.54741 0.51894 0.67945 0.0
C983 C 0.57275 0.54026 0.70671 0.0
C984 C 0.57482 0.53075 0.75595 0.0
C985 C 0.56296 0.51534 0.76643 0.0
C986 C 0.54922 0.5097 0.729 0.0
C987 C 0.58959 0.53653 0.79602 0.0
C988 C 0.60842 0.53777 0.7791 0.0
C989 C 0.58537 0.53976 0.85123 0.0
C990 C 0.56561 0.54012 0.87101 0.0
C991 C 0.56017 0.5286 0.91406 0.0
C992 C 0.54146 0.52854 0.93174 0.0
C993 C 0.52806 0.54003 0.90687 0.0
C994 C 0.53337 0.55168 0.86445 0.0
C995 C 0.55206 0.55182 0.84665 0.0
H996 H 0.5136 0.53999 0.92068 0.0
H997 H 0.69356 0.54809 0.73856 0.0
H998 H 0.96356 0.67738 0.93407 0.0
H999 H 0.96905 0.65041 0.8742 0.0
H1000 H 1.00583 0.62587 0.99342 0.0
H1001 H 1.00067 0.65315 0.05309 0.0
H1002 H 0.02137 0.62194 0.90178 0.0
H1003 H 0.95937 0.61075 0.96353 0.0
H1004 H 0.92604 0.61764 0.98223 0.0
H1005 H 0.91454 0.62087 0.81241 0.0
H1006 H 0.94809 0.61496 0.79259 0.0
H1007 H 0.03128 0.53545 0.75731 0.0
H1008 H 0.02477 0.56005 0.82377 0.0
H1009 H 0.98332 0.58415 0.71668 0.0
H1010 H 0.98821 0.5579 0.6532 0.0
H1011 H 0.97013 0.58723 0.80734 0.0
H1012 H 0.03541 0.60946 0.75667 0.0
H1013 H 0.06965 0.60458 0.74324 0.0
H1014 H 0.0737 0.57852 0.89841 0.0
H1015 H 0.03959 0.58352 0.91274 0.0
C1016 C 0.97267 0.66615 0.94788 0.0
C1017 C 0.98157 0.66743 0.99872 0.0
C1018 C 0.97577 0.65065 0.91351 0.0
C1019 C 0.98761 0.63577 0.9293 0.0
C1020 C 0.99658 0.63706 0.98003 0.0
C1021 C 0.99366 0.6527 0.01421 0.0
C1022 C 0.99129 0.61935 0.89206 0.0
C1023 C 1.01007 0.61425 0.8817 0.0
C1024 C 0.97668 0.60926 0.86496 0.0
C1025 C 0.9564 0.61271 0.87662 0.0
C1026 C 0.94982 0.61318 0.9301 0.0
C1027 C 0.93085 0.6169 0.9409 0.0
C1028 C 0.91815 0.6197 0.89852 0.0
C1029 C 0.92441 0.61879 0.8452 0.0
C1030 C 0.94345 0.61535 0.83418 0.0
C1031 C 0.0209 0.54613 0.74772 0.0
C1032 C 0.0109 0.54521 0.69873 0.0
C1033 C 0.01739 0.56049 0.78558 0.0
C1034 C 1.00417 0.57479 0.77494 0.0
C1035 C 0.99388 0.57364 0.72614 0.0
C1036 C 0.99688 0.55878 0.68916 0.0
C1037 C 1.00025 0.59024 0.81564 0.0
C1038 C 0.98139 0.59504 0.82708 0.0
C1039 C 0.01472 0.59998 0.84427 0.0
C1040 C 0.03498 0.59641 0.83497 0.0
C1041 C 0.04361 0.60244 0.78737 0.0
C1042 C 0.06299 0.59979 0.77985 0.0
C1043 C 0.07379 0.59104 0.81965 0.0
C1044 C 0.0653 0.58517 0.86742 0.0
C1045 C 0.04599 0.588 0.87537 0.0
H1046 H 0.08877 0.58894 0.81365 0.0
H1047 H 0.90345 0.62253 0.907 0.0
H1048 H 0.06636 0.22285 0.29159 0.0
H1049 H 0.06194 0.19595 0.34827 0.0
H1050 H 0.11387 0.17157 0.28969 0.0
H1051 H 0.11853 0.19905 0.23176 0.0
H1052 H 0.08745 0.14709 0.27939 0.0
H1053 H 0.1078 0.18095 0.42905 0.0
H1054 H 0.11314 0.2075 0.49211 0.0
H1055 H 0.05392 0.20966 0.52727 0.0
H1056 H 0.04811 0.18337 0.46377 0.0
H1057 H 0.03077 0.07545 0.40328 0.0
H1058 H 0.05856 0.0957 0.39556 0.0
H1059 H 0.02274 0.14475 0.39498 0.0
H1060 H 0.99505 0.12477 0.40486 0.0
H1061 H 0.055 0.14999 0.45615 0.0
H1062 H 0.03793 0.12093 0.27843 0.0
H1063 H 0.03508 0.09306 0.21853 0.0
H1064 H 0.09359 0.08023 0.24408 0.0
H1065 H 0.0966 0.10754 0.30575 0.0
C1066 C 0.07737 0.21228 0.29211 0.0
C1067 C 0.09287 0.21326 0.25703 0.0
C1068 C 0.07481 0.19675 0.32495 0.0
C1069 C 0.08771 0.18176 0.32415 0.0
C1070 C 0.10377 0.18302 0.29127 0.0
C1071 C 0.10637 0.19869 0.25805 0.0
C1072 C 0.08236 0.16392 0.35096 0.0
C1073 C 0.081 0.1475 0.31901 0.0
C1074 C 0.07428 0.16414 0.40312 0.0
C1075 C 0.07754 0.18008 0.44154 0.0
C1076 C 0.09588 0.18713 0.44997 0.0
C1077 C 0.09899 0.20216 0.48585 0.0
C1078 C 0.08388 0.21025 0.51371 0.0
C1079 C 0.06562 0.20334 0.50576 0.0
C1080 C 0.06242 0.18833 0.4699 0.0
C1081 C 0.02886 0.09053 0.40262 0.0
C1082 C 0.01067 0.09844 0.40385 0.0
C1083 C 0.04475 0.10205 0.39778 0.0
C1084 C 0.0427 0.12164 0.39398 0.0
C1085 C 0.02464 0.12963 0.39762 0.0
C1086 C 1.00881 0.11817 0.40272 0.0
C1087 C 0.05893 0.13408 0.38275 0.0
C1088 C 0.06233 0.14933 0.41788 0.0
C1089 C 0.06937 0.1325 0.33439 0.0
C1090 C 0.06742 0.11612 0.29721 0.0
C1091 C 0.05013 0.11202 0.27174 0.0
C1092 C 0.04847 0.09627 0.23762 0.0
C1093 C 0.0641 0.08473 0.22795 0.0
C1094 C 0.08143 0.08897 0.25219 0.0
C1095 C 0.08311 0.10456 0.28681 0.0
H1096 H 0.06282 0.07257 0.20143 0.0
H1097 H 0.08632 0.22188 0.54147 0.0
H1098 H 0.3321 0.08465 0.17433 0.0
H1099 H 0.35568 0.07237 0.23629 0.0
H1100 H 0.31678 0.0787 0.36855 0.0
H1101 H 0.29304 0.09147 0.30674 0.0
H1102 H 0.35748 0.0845 0.39449 0.0
H1103 H 0.31426 0.03989 0.31102 0.0
H1104 H 0.29752 0.02645 0.23218 0.0
H1105 H 0.35048 0.01208 0.15883 0.0
H1106 H 0.36753 0.02581 0.23681 0.0
H1107 H 0.39774 0.99526 0.51806 0.0
H1108 H 0.37267 0.01495 0.48066 0.0
H1109 H 0.4116 0.03771 0.36543 0.0
H1110 H 0.43646 0.0173 0.39953 0.0
H1111 H 0.36755 0.01737 0.34348 0.0
H1112 H 0.39259 0.09177 0.40921 0.0
H1113 H 0.41085 0.10687 0.48254 0.0
H1114 H 0.39592 0.06203 0.58896 0.0
H1115 H 0.37633 0.04753 0.51816 0.0
C1116 C 0.32878 0.08429 0.21692 0.0
C1117 C 0.31059 0.08878 0.23554 0.0
C1118 C 0.34226 0.07713 0.25222 0.0
C1119 C 0.33776 0.07431 0.30656 0.0
C1120 C 0.32041 0.0807 0.32657 0.0
C1121 C 0.30686 0.08788 0.2912 0.0
C1122 C 0.34988 0.06207 0.33966 0.0
C1123 C 0.35964 0.06979 0.38383 0.0
C1124 C 0.35241 0.04286 0.32562 0.0
C1125 C 0.34217 0.03399 0.2796 0.0
C1126 C 0.32233 0.03395 0.27796 0.0
C1127 C 0.31279 0.02629 0.23342 0.0
C1128 C 0.32293 0.01843 0.19049 0.0
C1129 C 0.34264 0.01818 0.1921 0.0
C1130 C 0.35225 0.02589 0.23648 0.0
C1131 C 0.40101 1.0043 0.48445 0.0
C1132 C 0.41928 1.00472 0.46227 0.0
C1133 C 0.38671 0.01572 0.4637 0.0
C1134 C 0.39058 0.02823 0.42178 0.0
C1135 C 0.40862 0.0286 0.39915 0.0
C1136 C 0.42281 0.01694 0.41897 0.0
C1137 C 0.37549 0.03983 0.39803 0.0
C1138 C 0.36522 0.03198 0.35499 0.0
C1139 C 0.37262 0.05893 0.41316 0.0
C1140 C 0.3835 0.06812 0.45749 0.0
C1141 C 0.39298 0.08523 0.4485 0.0
C1142 C 0.40345 0.09381 0.4899 0.0
C1143 C 0.40463 0.08537 0.54044 0.0
C1144 C 0.39506 0.06854 0.54991 0.0
C1145 C 0.38424 0.06013 0.50911 0.0
H1146 H 0.41291 0.0919 0.57231 0.0
H1147 H 0.31552 0.01252 0.15601 0.0
H1148 H 0.43998 0.30181 0.29128 0.0
H1149 H 0.44729 0.32662 0.3569 0.0
H1150 H 0.42207 0.36786 0.25221 0.0
H1151 H 0.41491 0.34303 0.18612 0.0
H1152 H 0.45871 0.37343 0.26405 0.0
H1153 H 0.40767 0.36399 0.38352 0.0
H1154 H 0.38531 0.34673 0.44073 0.0
H1155 H 0.43098 0.32821 0.54133 0.0
H1156 H 0.45367 0.34508 0.48424 0.0
H1157 H 0.50819 0.44247 0.40642 0.0
H1158 H 0.47963 0.42605 0.37854 0.0
H1159 H 0.49818 0.37617 0.46147 0.0
H1160 H 0.52675 0.39272 0.49065 0.0
H1161 H 0.45962 0.37937 0.46349 0.0
H1162 H 0.51018 0.38296 0.33311 0.0
H1163 H 0.53317 0.39976 0.27673 0.0
H1164 H 0.488 0.4285 0.19611 0.0
H1165 H 0.46475 0.41201 0.25241 0.0
C1166 C 0.43512 0.31601 0.28352 0.0
C1167 C 0.42718 0.32059 0.23334 0.0
C1168 C 0.43929 0.33022 0.32114 0.0
C1169 C 0.43543 0.34915 0.30918 0.0
C1170 C 0.42527 0.35337 0.2621 0.0
C1171 C 0.42119 0.33918 0.22438 0.0
C1172 C 0.44585 0.36431 0.33814 0.0
C1173 C 0.45841 0.37514 0.30761 0.0
C1174 C 0.44598 0.36611 0.39505 0.0
C1175 C 0.43241 0.3557 0.42922 0.0
C1176 C 0.41299 0.35607 0.41749 0.0
C1177 C 0.40024 0.34639 0.44999 0.0
C1178 C 0.40672 0.33635 0.49456 0.0
C1179 C 0.42597 0.33599 0.50676 0.0
C1180 C 0.43879 0.34563 0.47436 0.0
C1181 C 0.5059 0.42823 0.42036 0.0
C1182 C 0.5199 0.4187 0.44956 0.0
C1183 C 0.48953 0.41882 0.40427 0.0
C1184 C 0.48692 0.39976 0.41704 0.0
C1185 C 0.5 0.39082 0.45073 0.0
C1186 C 0.51638 0.40023 0.46692 0.0
C1187 C 0.47225 0.38838 0.38928 0.0
C1188 C 0.45928 0.37811 0.41991 0.0
C1189 C 0.47179 0.38686 0.33234 0.0
C1190 C 0.48574 0.39649 0.29763 0.0
C1191 C 0.50516 0.39297 0.30363 0.0
C1192 C 0.51824 0.40241 0.27163 0.0
C1193 C 0.51206 0.41525 0.23302 0.0
C1194 C 0.49278 0.4186 0.22616 0.0
C1195 C 0.47964 0.40921 0.25813 0.0
H1196 H 0.52221 0.42256 0.20829 0.0
H1197 H 0.39682 0.32888 0.51971 0.0
H1198 H 0.1917 0.44458 0.19235 0.0
H1199 H 0.16754 0.45056 0.25952 0.0
H1200 H 0.20586 0.4333 0.38549 0.0
H1201 H 0.23056 0.42817 0.31784 0.0
H1202 H 0.14749 0.43811 0.33547 0.0
H1203 H 0.20245 0.46406 0.49002 0.0
H1204 H 0.23602 0.47332 0.49443 0.0
H1205 H 0.23384 0.49064 0.32899 0.0
H1206 H 0.20022 0.48172 0.32395 0.0
H1207 H 0.08934 0.49707 0.48682 0.0
H1208 H 0.11636 0.47561 0.49377 0.0
H1209 H 0.14741 0.51012 0.38265 0.0
H1210 H 0.1209 0.53185 0.3773 0.0
H1211 H 0.17094 0.48911 0.45689 0.0
H1212 H 0.12297 0.47977 0.30931 0.0
H1213 H 0.08877 0.48349 0.29405 0.0
H1214 H 0.0774 0.44455 0.42143 0.0
H1215 H 0.11162 0.4406 0.43719 0.0
C1216 C 0.19478 0.44136 0.23411 0.0
C1217 C 0.21306 0.43619 0.25005 0.0
C1218 C 0.18091 0.44478 0.27268 0.0
C1219 C 0.185 0.44288 0.32787 0.0
C1220 C 0.20252 0.43532 0.34327 0.0
C1221 C 0.21659 0.43231 0.30466 0.0
C1222 C 0.17224 0.45197 0.3679 0.0
C1223 C 0.15272 0.44875 0.36349 0.0
C1224 C 0.17886 0.46634 0.4036 0.0
C1225 C 0.19897 0.47194 0.40643 0.0
C1226 C 0.20916 0.46986 0.45467 0.0
C1227 C 0.22818 0.47507 0.45728 0.0
C1228 C 0.23708 0.48248 0.41195 0.0
C1229 C 0.22695 0.48484 0.36401 0.0
C1230 C 0.20793 0.47972 0.36127 0.0
C1231 C 0.10227 0.50052 0.46599 0.0
C1232 C 0.10291 0.51579 0.43037 0.0
C1233 C 0.11768 0.48825 0.46993 0.0
C1234 C 0.13371 0.49111 0.43788 0.0
C1235 C 0.13516 0.50763 0.40761 0.0
C1236 C 0.1199 0.51989 0.404 0.0
C1237 C 0.14646 0.47531 0.42378 0.0
C1238 C 0.16587 0.47744 0.43225 0.0
C1239 C 0.13983 0.46057 0.38987 0.0
C1240 C 0.11973 0.45977 0.37402 0.0
C1241 C 0.11314 0.47163 0.33302 0.0
C1242 C 0.09379 0.47394 0.32468 0.0
C1243 C 0.08093 0.4644 0.35703 0.0
C1244 C 0.08739 0.45198 0.39651 0.0
C1245 C 0.10677 0.4496 0.40495 0.0
H1246 H 0.06598 0.4667 0.35142 0.0
H1247 H 0.25181 0.48646 0.41402 0.0
H1248 H 0.93188 0.79634 0.87319 0.0
H1249 H 0.93925 0.81597 0.79591 0.0
H1250 H 0.93845 0.86544 0.89852 0.0
H1251 H 0.93008 0.84603 0.97534 0.0
H1252 H 0.93293 0.87534 0.79523 0.0
H1253 H 0.97695 0.8381 0.89789 0.0
H1254 H 0.98867 0.80853 0.93731 0.0
H1255 H 0.99399 0.78414 0.77876 0.0
H1256 H 0.98192 0.8135 0.73849 0.0
H1257 H 0.01698 0.92559 0.76648 0.0
H1258 H 0.99412 0.90286 0.79946 0.0
H1259 H 0.99447 0.87412 0.64532 0.0
H1260 H 0.01676 0.89755 0.61058 0.0
H1261 H 0.99713 0.85141 0.75282 0.0
H1262 H 0.96275 0.89779 0.65768 0.0
H1263 H 0.95545 0.93053 0.63319 0.0
H1264 H 0.93523 0.94139 0.79354 0.0
H1265 H 0.94307 0.90881 0.81948 0.0
C1266 C 0.93218 0.8115 0.87878 0.0
C1267 C 0.93109 0.81961 0.93068 0.0
C1268 C 0.93651 0.82271 0.83451 0.0
C1269 C 0.94015 0.84203 0.84202 0.0
C1270 C 0.93601 0.85051 0.89195 0.0
C1271 C 0.9314 0.83936 0.93601 0.0
C1272 C 0.9524 0.85224 0.8038 0.0
C1273 C 0.94686 0.87005 0.78532 0.0
C1274 C 0.9707 0.84538 0.79139 0.0
C1275 C 0.97831 0.82786 0.81525 0.0
C1276 C 0.98053 0.82638 0.87148 0.0
C1277 C 0.98722 0.80967 0.89398 0.0
C1278 C 0.99203 0.79444 0.86056 0.0
C1279 C 0.9902 0.79593 0.80458 0.0
C1280 C 0.98342 0.81259 0.78189 0.0
C1281 C 0.01213 0.91454 0.73932 0.0
C1282 C 0.01845 0.91354 0.68565 0.0
C1283 C 0.99921 0.90149 0.75842 0.0
C1284 C 0.99256 0.88704 0.72455 0.0
C1285 C 0.99952 0.88527 0.67184 0.0
C1286 C 0.01227 0.89859 0.65224 0.0
C1287 C 0.97768 0.87445 0.7445 0.0
C1288 C 0.98288 0.85634 0.76046 0.0
C1289 C 0.95939 0.8814 0.75621 0.0
C1290 C 0.95359 0.90077 0.74045 0.0
C1291 C 0.9568 0.90715 0.68774 0.0
C1292 C 0.95262 0.92569 0.67364 0.0
C1293 C 0.9449 0.93801 0.71177 0.0
C1294 C 0.94124 0.93179 0.76403 0.0
C1295 C 0.94557 0.91325 0.77845 0.0
H1296 H 0.94186 0.95238 0.70067 0.0
H1297 H 0.99721 0.78151 0.87803 0.0
H1298 H 0.7263 0.93752 0.85191 0.0
H1299 H 0.7072 0.94481 0.77272 0.0
H1300 H 0.6566 0.93921 0.86722 0.0
H1301 H 0.67556 0.93129 0.9462 0.0
H1302 H 0.65046 0.93274 0.75407 0.0
H1303 H 0.67909 0.97895 0.87908 0.0
H1304 H 0.70666 0.99253 0.92646 0.0
H1305 H 0.73344 1.00294 0.77445 0.0
H1306 H 0.70613 0.98905 0.7263 0.0
H1307 H 0.5885 1.00887 0.75124 0.0
H1308 H 0.60941 0.98184 0.75777 0.0
H1309 H 0.64924 1.00906 0.65306 0.0
H1310 H 0.62821 0.03613 0.64552 0.0
H1311 H 0.66551 1.00084 0.74091 0.0
H1312 H 0.62765 0.96603 0.62029 0.0
H1313 H 0.59852 0.95329 0.57948 0.0
H1314 H 0.58764 0.92168 0.72287 0.0
H1315 H 0.61616 0.93493 0.76552 0.0
C1316 C 0.71108 0.93684 0.85523 0.0
C1317 C 0.70243 0.93435 0.90564 0.0
C1318 C 0.70017 0.94102 0.80982 0.0
C1319 C 0.68053 0.94295 0.81449 0.0
C1320 C 0.67174 0.93784 0.86279 0.0
C1321 C 0.68262 0.93357 0.90812 0.0
C1322 C 0.66993 0.95478 0.77599 0.0
C1323 C 0.65371 0.94761 0.75043 0.0
C1324 C 0.67452 0.97407 0.77044 0.0
C1325 C 0.69073 0.98278 0.79918 0.0
C1326 C 0.69092 0.98405 0.85584 0.0
C1327 C 0.70648 0.99179 0.88282 0.0
C1328 C 0.72182 0.99856 0.85349 0.0
C1329 C 0.72158 0.99765 0.79711 0.0
C1330 C 0.70607 0.98983 0.76995 0.0
C1331 C 0.60139 1.00885 0.72793 0.0
C1332 C 0.60688 0.02481 0.69865 0.0
C1333 C 0.61335 0.99328 0.73148 0.0
C1334 C 0.63092 0.9933 0.70546 0.0
C1335 C 0.63575 1.00866 0.67308 0.0
C1336 C 0.6238 0.02422 0.66937 0.0
C1337 C 0.64539 0.97909 0.72011 0.0
C1338 C 0.66243 0.98586 0.74177 0.0
C1339 C 0.64136 0.95954 0.72207 0.0
C1340 C 0.62413 0.95149 0.69627 0.0
C1341 C 0.61896 0.95652 0.64341 0.0
C1342 C 0.60248 0.94926 0.61995 0.0
C1343 C 0.59119 0.93673 0.6486 0.0
C1344 C 0.59634 0.93144 0.70074 0.0
C1345 C 0.61265 0.93885 0.72463 0.0
H1346 H 0.57845 0.9311 0.63044 0.0
H1347 H 0.73386 1.00455 0.87443 0.0
H1348 H 0.60483 0.71568 0.8839 0.0
H1349 H 0.58879 0.68916 0.83875 0.0
H1350 H 0.57129 0.66831 0.9939 0.0
H1351 H 0.58819 0.69381 0.03852 0.0
H1352 H 0.57549 0.64043 0.9349 0.0
H1353 H 0.54386 0.69996 0.9111 0.0
H1354 H 0.54133 0.73296 0.88151 0.0
H1355 H 0.5515 0.71559 0.71768 0.0
H1356 H 0.55436 0.6825 0.74648 0.0
H1357 H 0.47891 0.62054 0.78216 0.0
H1358 H 0.50055 0.6417 0.83069 0.0
H1359 H 0.54596 0.60202 0.8056 0.0
H1360 H 0.52433 0.58043 0.76142 0.0
H1361 H 0.5285 0.65993 0.79775 0.0
H1362 H 0.58114 0.60679 0.89704 0.0
H1363 H 0.58112 0.57671 0.94585 0.0
H1364 H 0.52236 0.58373 0.9822 0.0
H1365 H 0.52211 0.61412 0.93484 0.0
C1366 C 0.59809 0.70499 0.90808 0.0
C1367 C 0.59776 0.7067 0.96454 0.0
C1368 C 0.58875 0.69 0.88239 0.0
C1369 C 0.57833 0.67702 0.91283 0.0
C1370 C 0.57917 0.67808 0.96936 0.0
C1371 C 0.58891 0.69267 0.99494 0.0
C1372 C 0.56519 0.66335 0.88684 0.0
C1373 C 0.56528 0.64464 0.90462 0.0
C1374 C 0.55149 0.66898 0.8485 0.0
C1375 C 0.54951 0.68881 0.831 0.0
C1376 C 0.54563 0.7032 0.86881 0.0
C1377 C 0.54415 0.72191 0.85219 0.0
C1378 C 0.5463 0.72637 0.79777 0.0
C1379 C 0.54988 0.71212 0.75983 0.0
C1380 C 0.55143 0.69338 0.77627 0.0
C1381 C 0.49339 0.61616 0.78826 0.0
C1382 C 0.49988 0.59889 0.76724 0.0
C1383 C 0.50581 0.62833 0.81549 0.0
C1384 C 0.52494 0.62348 0.822 0.0
C1385 C 0.53127 0.60605 0.80209 0.0
C1386 C 0.51886 0.59381 0.77587 0.0
C1387 C 0.53854 0.637 0.84662 0.0
C1388 C 0.53868 0.65563 0.82801 0.0
C1389 C 0.5519 0.63151 0.88616 0.0
C1390 C 0.55158 0.6127 0.91193 0.0
C1391 C 0.5682 0.60192 0.91538 0.0
C1392 C 0.56826 0.58485 0.94301 0.0
C1393 C 0.55177 0.57836 0.9673 0.0
C1394 C 0.53513 0.58882 0.96349 0.0
C1395 C 0.53501 0.60596 0.93616 0.0
H1396 H 0.55189 0.5652 0.98895 0.0
H1397 H 0.54515 0.74087 0.78498 0.0
H1398 H 0.80679 0.59248 0.88174 0.0
H1399 H 0.83587 0.58516 0.83323 0.0
H1400 H 0.8665 0.62373 0.93677 0.0
H1401 H 0.83747 0.63077 0.98607 0.0
H1402 H 0.86818 0.59846 0.78295 0.0
H1403 H 0.89843 0.59974 0.99857 0.0
H1404 H 0.88758 0.59729 0.09275 0.0
H1405 H 0.84017 0.56409 0.04023 0.0
H1406 H 0.8507 0.56656 0.94578 0.0
H1407 H 0.95936 0.55445 0.75564 0.0
H1408 H 0.93395 0.57717 0.77435 0.0
H1409 H 0.90772 0.53678 0.87978 0.0
H1410 H 0.93364 0.51486 0.86377 0.0
H1411 H 0.90609 0.56776 0.92601 0.0
H1412 H 0.89197 0.54706 0.74485 0.0
H1413 H 0.89798 0.5417 0.64786 0.0
H1414 H 0.9061 0.60111 0.62607 0.0
H1415 H 0.90029 0.6068 0.72304 0.0
C1416 C 0.81951 0.60017 0.89217 0.0
C1417 C 0.82002 0.61197 0.93802 0.0
C1418 C 0.83616 0.59595 0.86447 0.0
C1419 C 0.85339 0.60356 0.88231 0.0
C1420 C 0.85336 0.61754 0.92285 0.0
C1421 C 0.83678 0.62161 0.95088 0.0
C1422 C 0.8712 0.59379 0.86822 0.0
C1423 C 0.87668 0.59193 0.81408 0.0
C1424 C 0.88183 0.58466 0.90868 0.0
C1425 C 0.87525 0.58355 0.96523 0.0
C1426 C 0.88568 0.59201 1.00718 0.0
C1427 C 0.87956 0.59063 0.06057 0.0
C1428 C 0.86316 0.58059 0.07246 0.0
C1429 C 0.85285 0.5719 0.03098 0.0
C1430 C 0.85881 0.5734 0.97751 0.0
C1431 C 0.94816 0.55064 0.78298 0.0
C1432 C 0.9484 0.53311 0.80876 0.0
C1433 C 0.9336 0.5635 0.79337 0.0
C1434 C 0.91881 0.55869 0.82832 0.0
C1435 C 0.91904 0.54097 0.85318 0.0
C1436 C 0.93378 0.5284 0.84394 0.0
C1437 C 0.9031 0.57193 0.8403 0.0
C1438 C 0.89799 0.57457 0.89449 0.0
C1439 C 0.89226 0.58072 0.79943 0.0
C1440 C 0.89591 0.57733 0.74127 0.0
C1441 C 0.89519 0.55896 0.71943 0.0
C1442 C 0.89852 0.55586 0.66447 0.0
C1443 C 0.90246 0.57105 0.63089 0.0
C1444 C 0.90308 0.58936 0.65218 0.0
C1445 C 0.89975 0.59253 0.70711 0.0
H1446 H 0.90493 0.56864 0.58833 0.0
H1447 H 0.85845 0.57951 0.11381 0.0
H1448 H 1.00437 0.2017 0.85991 0.0
H1449 H 1.0003 0.17199 0.81043 0.0
H1450 H 0.06053 0.16762 0.79044 0.0
H1451 H 0.06475 0.19727 0.84018 0.0
H1452 H 0.0435 0.15675 0.6998 0.0
H1453 H 0.03751 0.14137 0.88507 0.0
H1454 H 0.02542 0.14401 0.978 0.0
H1455 H 0.96948 0.13126 0.92151 0.0
H1456 H 0.98119 0.12881 0.82807 0.0
H1457 H 0.03379 0.06179 0.59806 0.0
H1458 H 0.04356 0.0901 0.64801 0.0
H1459 H 0.98665 0.09674 0.70736 0.0
H1460 H 0.97786 0.0671 0.66377 0.0
H1461 H 1.00625 0.10564 0.78306 0.0
H1462 H 0.01436 0.12339 0.59184 0.0
H1463 H 0.02929 0.11663 0.50448 0.0
H1464 H 0.08416 0.12362 0.57583 0.0
H1465 H 0.06949 0.12972 0.66447 0.0
C1466 C 0.01679 0.19444 0.84518 0.0
C1467 C 0.03491 0.20199 0.8545 0.0
C1468 C 0.01443 0.17738 0.81677 0.0
C1469 C 0.03011 0.16728 0.7972 0.0
C1470 C 0.04817 0.17505 0.80498 0.0
C1471 C 0.05055 0.19213 0.83335 0.0
C1472 C 0.02764 0.14852 0.7696 0.0
C1473 C 0.03538 0.14556 0.71808 0.0
C1474 C 0.0173 0.13369 0.79335 0.0
C1475 C 1.0102 0.13508 0.8495 0.0
C1476 C 0.0226 0.13927 0.89241 0.0
C1477 C 0.01582 0.14071 0.94518 0.0
C1478 C 0.99668 0.13785 0.95563 0.0
C1479 C 0.98429 0.13349 0.91334 0.0
C1480 C 0.991 0.13206 0.86046 0.0
C1481 C 0.02357 0.06914 0.6229 0.0
C1482 C 1.00534 0.06176 0.62908 0.0
C1483 C 0.02898 0.08572 0.65046 0.0
C1484 C 0.01586 0.09615 0.6815 0.0
C1485 C 0.99732 0.08911 0.68488 0.0
C1486 C 0.9922 0.07216 0.65945 0.0
C1487 C 0.021 0.11414 0.71128 0.0
C1488 C 0.01406 0.11689 0.76398 0.0
C1489 C 0.03221 0.1287 0.68873 0.0
C1490 C 0.04084 0.12686 0.6347 0.0
C1491 C 0.0296 0.12362 0.58878 0.0
C1492 C 0.03804 0.11979 0.53907 0.0
C1493 C 0.05769 0.11968 0.53446 0.0
C1494 C 0.06895 0.12365 0.57949 0.0
C1495 C 0.06058 0.12724 0.62952 0.0
H1496 H 0.06424 0.11649 0.49611 0.0
H1497 H 0.99146 0.13897 0.99653 0.0
H1498 H 0.33052 0.07308 0.83825 0.0
H1499 H 0.3612 0.06734 0.79703 0.0
H1500 H 0.34758 1.00844 0.77815 0.0
H1501 H 0.31656 0.01409 0.81816 0.0
H1502 H 0.38214 0.01405 0.82609 0.0
H1503 H 0.35113 0.03632 0.66225 0.0
H1504 H 0.33259 0.05902 0.60899 0.0
H1505 H 0.372 0.10293 0.64984 0.0
H1506 H 0.39073 0.08046 0.7034 0.0
H1507 H 0.46544 0.98702 0.69275 0.0
H1508 H 0.43353 0.99277 0.72316 0.0
H1509 H 0.43894 0.05139 0.67966 0.0
H1510 H 0.46943 0.04427 0.6384 0.0
H1511 H 0.40743 0.04633 0.66562 0.0
H1512 H 0.43784 0.02717 0.83225 0.0
H1513 H 0.45637 1.00678 0.89354 0.0
H1514 H 0.41865 0.96075 0.8607 0.0
H1515 H 0.40008 0.9808 0.7994 0.0
C1516 C 0.33375 0.05895 0.82416 0.0
C1517 C 0.32084 0.04407 0.83167 0.0
C1518 C 0.35143 0.05569 0.80065 0.0
C1519 C 0.35674 0.03747 0.78404 0.0
C1520 C 0.34385 0.02263 0.79066 0.0
C1521 C 0.3261 0.02589 0.81386 0.0
C1522 C 0.37614 0.0337 0.76301 0.0
C1523 C 0.38766 0.02093 0.79057 0.0
C1524 C 0.38366 0.04321 0.71813 0.0
C1525 C 0.37224 0.05677 0.68692 0.0
C1526 C 0.35575 0.05085 0.6601 0.0
C1527 C 0.34524 0.06365 0.62978 0.0
C1528 C 0.3511 0.08241 0.62611 0.0
C1529 C 0.36745 0.08841 0.65283 0.0
C1530 C 0.37803 0.07565 0.68309 0.0
C1531 C 0.45981 1.00117 0.68981 0.0
C1532 C 0.47049 0.01552 0.66595 0.0
C1533 C 0.44154 1.00463 0.70867 0.0
C1534 C 0.43367 0.02286 0.70751 0.0
C1535 C 0.44434 0.03716 0.68245 0.0
C1536 C 0.46215 0.03331 0.66003 0.0
C1537 C 0.41406 0.02672 0.72903 0.0
C1538 C 0.40229 0.03948 0.70147 0.0
C1539 C 0.40648 0.0176 0.77516 0.0
C1540 C 0.41787 1.00538 0.81072 0.0
C1541 C 0.43376 0.01262 0.83771 0.0
C1542 C 0.44417 1.00118 0.87252 0.0
C1543 C 0.43873 0.9825 0.88074 0.0
C1544 C 0.42287 0.97521 0.85423 0.0
C1545 C 0.41238 0.98662 0.81958 0.0
H1546 H 0.44677 0.97369 0.90781 0.0
H1547 H 0.34297 0.09229 0.6025 0.0
H1548 H 0.50989 0.30608 0.78385 0.0
H1549 H 0.51607 0.33465 0.73191 0.0
H1550 H 0.4621 0.35717 0.77997 0.0
H1551 H 0.45584 0.32881 0.83148 0.0
H1552 H 0.46789 0.36501 0.67831 0.0
H1553 H 0.50421 0.37079 0.84186 0.0
H1554 H 0.52766 0.3609 0.90964 0.0
H1555 H 0.57101 0.36112 0.78904 0.0
H1556 H 0.54774 0.37078 0.72036 0.0
H1557 H 0.48092 0.4626 0.62928 0.0
H1558 H 0.47536 0.43178 0.66825 0.0
H1559 H 0.53158 0.41452 0.62321 0.0
H1560 H 0.53784 0.44603 0.58925 0.0
H1561 H 0.52549 0.40244 0.71726 0.0
H1562 H 0.48695 0.40314 0.55675 0.0
H1563 H 0.46189 0.41539 0.49733 0.0
H1564 H 0.4204 0.40392 0.61817 0.0
H1565 H 0.44523 0.39263 0.67955 0.0
C1566 C 0.49932 0.3171 0.78324 0.0
C1567 C 0.48233 0.31504 0.81186 0.0
C1568 C 0.50287 0.33346 0.75351 0.0
C1569 C 0.48964 0.34825 0.75232 0.0
C1570 C 0.47252 0.346 0.77986 0.0
C1571 C 0.46893 0.32967 0.80925 0.0
C1572 C 0.49369 0.36634 0.72407 0.0
C1573 C 0.48043 0.37329 0.68701 0.0
C1574 C 0.51019 0.37703 0.73465 0.0
C1575 C 0.5242 0.37129 0.77587 0.0
C1576 C 0.51872 0.36859 0.82973 0.0
C1577 C 0.53198 0.36305 0.86831 0.0
C1578 C 0.5508 0.36033 0.85362 0.0
C1579 C 0.55642 0.36319 0.80034 0.0
C1580 C 0.5432 0.36871 0.76157 0.0
C1581 C 0.49223 0.45243 0.62841 0.0
C1582 C 0.50996 0.45712 0.60703 0.0
C1583 C 0.48891 0.43456 0.64996 0.0
C1584 C 0.50292 0.4205 0.64817 0.0
C1585 C 0.52049 0.42501 0.62546 0.0
C1586 C 0.52403 0.44309 0.60565 0.0
C1587 C 0.49958 0.40137 0.67151 0.0
C1588 C 0.51302 0.39416 0.70775 0.0
C1589 C 0.48303 0.39063 0.66074 0.0
C1590 C 0.46805 0.39708 0.62297 0.0
C1591 C 0.47252 0.40333 0.57083 0.0
C1592 C 0.45835 0.4102 0.53689 0.0
C1593 C 0.43959 0.4103 0.55385 0.0
C1594 C 0.43495 0.40378 0.60503 0.0
C1595 C 0.44908 0.39726 0.63956 0.0
H1596 H 0.42862 0.41546 0.52744 0.0
H1597 H 0.56105 0.35604 0.88355 0.0
H1598 H 0.19275 0.50899 0.90419 0.0
H1599 H 0.16371 0.5119 0.85136 0.0
H1600 H 0.18941 0.48117 0.7199 0.0
H1601 H 0.21864 0.47827 0.77264 0.0
H1602 H 0.16849 0.51197 0.68425 0.0
H1603 H 0.15956 0.4588 0.797 0.0
H1604 H 0.15923 0.44103 0.88193 0.0
H1605 H 0.11743 0.47872 0.94655 0.0
H1606 H 0.11772 0.49691 0.86224 0.0
H1607 H 0.07383 0.48417 0.57409 0.0
H1608 H 0.10536 0.48046 0.61513 0.0
H1609 H 0.09529 0.52928 0.71589 0.0
H1610 H 0.06441 0.53362 0.67313 0.0
H1611 H 0.10894 0.48737 0.76124 0.0
H1612 H 0.11964 0.54139 0.6462 0.0
H1613 H 0.1205 0.5581 0.55978 0.0
H1614 H 0.16076 0.51821 0.49854 0.0
H1615 H 0.15904 0.50034 0.58321 0.0
C1616 C 0.19237 0.5031 0.86373 0.0
C1617 C 0.2081 0.49342 0.84273 0.0
C1618 C 0.17566 0.50462 0.83369 0.0
C1619 C 0.17424 0.49659 0.78175 0.0
C1620 C 0.1901 0.48744 0.75989 0.0
C1621 C 0.20679 0.48572 0.7902 0.0
C1622 C 0.15605 0.49742 0.75112 0.0
C1623 C 0.15553 0.50636 0.70079 0.0
C1624 C 0.13904 0.49021 0.77265 0.0
C1625 C 0.13881 0.47934 0.82348 0.0
C1626 C 0.15042 0.46341 0.8295 0.0
C1627 C 0.15022 0.45324 0.87749 0.0
C1628 C 0.13835 0.45877 0.91967 0.0
C1629 C 0.12663 0.47447 0.91387 0.0
C1630 C 0.1268 0.48471 0.86597 0.0
C1631 C 0.07856 0.49428 0.60428 0.0
C1632 C 0.06691 0.50946 0.61947 0.0
C1633 C 0.0965 0.49213 0.62776 0.0
C1634 C 0.10277 0.50477 0.66804 0.0
C1635 C 0.09088 0.51957 0.68427 0.0
C1636 C 0.07329 0.52211 0.65955 0.0
C1637 C 0.12138 0.50223 0.69506 0.0
C1638 C 0.12195 0.49287 0.74463 0.0
C1639 C 0.13841 0.50897 0.67264 0.0
C1640 C 0.13877 0.51918 0.62069 0.0
C1641 C 0.12814 0.53573 0.61372 0.0
C1642 C 0.12881 0.54545 0.56499 0.0
C1643 C 0.14049 0.53906 0.5234 0.0
C1644 C 0.15148 0.52293 0.53045 0.0
C1645 C 0.15054 0.51291 0.57864 0.0
H1646 H 0.14115 0.54671 0.48589 0.0
H1647 H 0.1382 0.45088 0.95679 0.0
H1648 H 0.01106 0.83198 0.27664 0.0
H1649 H 0.01607 0.8611 0.32782 0.0
H1650 H 0.98769 0.83712 0.46458 0.0
H1651 H 0.98253 0.80787 0.41328 0.0
H1652 H 0.97501 0.87065 0.45063 0.0
H1653 H 0.03658 0.84568 0.46401 0.0
H1654 H 0.0663 0.83131 0.43259 0.0
H1655 H 0.07732 0.87968 0.33488 0.0
H1656 H 0.04753 0.89424 0.36513 0.0
H1657 H 0.99212 0.96097 0.5843 0.0
H1658 H 0.98826 0.92752 0.56105 0.0
H1659 H 0.02749 0.93433 0.42925 0.0
H1660 H 0.03339 0.96649 0.45853 0.0
H1661 H 0.03561 0.90506 0.46034 0.0
H1662 H 0.96595 0.92485 0.43849 0.0
H1663 H 0.93335 0.93183 0.46914 0.0
H1664 H 0.93768 0.88969 0.59038 0.0
H1665 H 0.97 0.88212 0.56067 0.0
C1666 C 1.00624 0.83267 0.31802 0.0
C1667 C 0.99644 0.81741 0.3407 0.0
C1668 C 1.00911 0.84944 0.34739 0.0
C1669 C 1.00245 0.85142 0.40055 0.0
C1670 C 0.99297 0.83608 0.4237 0.0
C1671 C 0.99001 0.81931 0.39422 0.0
C1672 C 1.00442 0.86983 0.43048 0.0
C1673 C 0.9883 0.87823 0.45282 0.0
C1674 C 0.02173 0.87964 0.43461 0.0
C1675 C 0.03974 0.87099 0.41657 0.0
C1676 C 0.04527 0.8532 0.43554 0.0
C1677 C 0.06215 0.84503 0.41798 0.0
C1678 C 0.07368 0.85456 0.38168 0.0
C1679 C 0.06838 0.87231 0.36297 0.0
C1680 C 0.05151 0.88054 0.38037 0.0
C1681 C 0.99971 0.95521 0.55003 0.0
C1682 C 0.01267 0.96651 0.5221 0.0
C1683 C 0.99734 0.93599 0.53609 0.0
C1684 C 1.0072 0.92785 0.4921 0.0
C1685 C 0.01978 0.9396 0.46388 0.0
C1686 C 0.023 0.95827 0.48 0.0
C1687 C 1.00565 0.90722 0.4757 0.0
C1688 C 0.02211 0.89797 0.45708 0.0
C1689 C 0.98862 0.89653 0.47574 0.0
C1690 C 0.97057 0.90333 0.49835 0.0
C1691 C 0.96015 0.9175 0.47275 0.0
C1692 C 0.94177 0.92155 0.48988 0.0
C1693 C 0.93378 0.91173 0.5326 0.0
C1694 C 0.94403 0.89758 0.55802 0.0
C1695 C 0.96236 0.89342 0.5412 0.0
H1696 H 0.91953 0.91486 0.54538 0.0
H1697 H 0.08673 0.84821 0.36812 0.0
H1698 H 0.71797 1.00625 0.39508 0.0
H1699 H 0.68974 0.01481 0.44756 0.0
H1700 H 0.65853 0.97035 0.36811 0.0
H1701 H 0.68639 0.96175 0.31595 0.0
H1702 H 0.6422 1.00705 0.36121 0.0
H1703 H 0.66361 0.9626 0.50004 0.0
H1704 H 0.68651 0.94982 0.56553 0.0
H1705 H 0.69317 1.00484 0.63704 0.0
H1706 H 0.67041 0.01789 0.57161 0.0
H1707 H 0.56709 0.99744 0.59222 0.0
H1708 H 0.59701 0.98906 0.54799 0.0
H1709 H 0.59939 0.04448 0.47896 0.0
H1710 H 0.56881 0.05202 0.51787 0.0
H1711 H 0.63103 1.00327 0.55806 0.0
H1712 H 0.61225 0.04774 0.39608 0.0
H1713 H 0.58967 0.05677 0.325 0.0
H1714 H 0.58069 0.99841 0.28511 0.0
H1715 H 0.60275 0.98916 0.35743 0.0
C1716 C 0.70514 0.99817 0.3893 0.0
C1717 C 0.70452 0.98326 0.35133 0.0
C1718 C 0.68907 1.00299 0.41961 0.0
C1719 C 0.67204 0.99315 0.41197 0.0
C1720 C 0.67153 0.97805 0.375 0.0
C1721 C 0.68755 0.9731 0.34533 0.0
C1722 C 0.65419 0.99962 0.43779 0.0
C1723 C 0.63979 1.00638 0.40439 0.0
C1724 C 0.65101 0.99875 0.49389 0.0
C1725 C 0.66541 0.99119 0.53105 0.0
C1726 C 0.67012 0.97196 0.52946 0.0
C1727 C 0.68302 0.96467 0.56662 0.0
C1728 C 0.69129 0.97651 0.60544 0.0
C1729 C 0.68678 0.99569 0.60692 0.0
C1730 C 0.67391 1.00303 0.5698 0.0
C1731 C 0.57363 1.00745 0.56539 0.0
C1732 C 0.56501 0.02494 0.55564 0.0
C1733 C 0.59087 1.00278 0.5406 0.0
C1734 C 0.60009 0.01568 0.50666 0.0
C1735 C 0.59201 0.0336 0.50037 0.0
C1736 C 0.57463 0.03807 0.52387 0.0
C1737 C 0.61876 0.01088 0.48155 0.0
C1738 C 0.63342 1.00434 0.51505 0.0
C1739 C 0.62225 0.01207 0.42517 0.0
C1740 C 0.60783 0.01772 0.38527 0.0
C1741 C 0.60472 0.03684 0.37402 0.0
C1742 C 0.59223 0.04201 0.33297 0.0
C1743 C 0.58338 0.02816 0.30138 0.0
C1744 C 0.58721 1.00913 0.31034 0.0
C1745 C 0.5995 1.00392 0.35186 0.0
H1746 H 0.57382 0.03218 0.26935 0.0
H1747 H 0.70118 0.97082 0.63437 0.0
H1748 H 0.53462 0.70864 0.30047 0.0
H1749 H 0.52829 0.6781 0.34112 0.0
H1750 H 0.57683 0.68485 0.44447 0.0
H1751 H 0.58271 0.71594 0.40663 0.0
H1752 H 0.57514 0.64979 0.37951 0.0
H1753 H 0.538 0.6869 0.50334 0.0
H1754 H 0.51361 0.71013 0.52849 0.0
H1755 H 0.47129 0.67628 0.44968 0.0
H1756 H 0.49549 0.65297 0.42337 0.0
H1757 H 0.56387 0.56524 0.52648 0.0
H1758 H 0.569 0.59779 0.49892 0.0
H1759 H 0.5121 0.6002 0.43684 0.0
H1760 H 0.50669 0.56794 0.46635 0.0
H1761 H 0.51849 0.63147 0.48355 0.0
H1762 H 0.55346 0.59692 0.34993 0.0
H1763 H 0.57658 0.57405 0.31423 0.0
H1764 H 0.62101 0.60227 0.40128 0.0
H1765 H 0.59814 0.62548 0.43692 0.0
C1766 C 0.54368 0.70403 0.33297 0.0
C1767 C 0.55932 0.71497 0.34968 0.0
C1768 C 0.5401 0.68639 0.35586 0.0
C1769 C 0.55216 0.67911 0.39555 0.0
C1770 C 0.56742 0.69011 0.41355 0.0
C1771 C 0.57082 0.7079 0.39146 0.0
C1772 C 0.54943 0.65962 0.41608 0.0
C1773 C 0.56291 0.64583 0.40304 0.0
C1774 C 0.53316 0.6543 0.44511 0.0
C1775 C 0.5186 0.66829 0.46089 0.0
C1776 C 0.52352 0.6845 0.4909 0.0
C1777 C 0.50973 0.69766 0.50548 0.0
C1778 C 0.49092 0.69471 0.49056 0.0
C1779 C 0.48587 0.67856 0.46114 0.0
C1780 C 0.49962 0.66536 0.44643 0.0
C1781 C 0.55247 0.57266 0.50668 0.0
C1782 C 0.5349 0.56385 0.49827 0.0
C1783 C 0.55545 0.59131 0.49062 0.0
C1784 C 0.54106 0.60155 0.46473 0.0
C1785 C 0.52348 0.59275 0.45662 0.0
C1786 C 0.52042 0.5742 0.47336 0.0
C1787 C 0.5442 0.62144 0.4468 0.0
C1788 C 0.53079 0.63535 0.46023 0.0
C1789 C 0.56034 0.62683 0.41703 0.0
C1790 C 0.57409 0.6128 0.39643 0.0
C1791 C 0.56815 0.59818 0.36166 0.0
C1792 C 0.58121 0.58521 0.34127 0.0
C1793 C 0.60024 0.58665 0.35566 0.0
C1794 C 0.60626 0.60116 0.3902 0.0
C1795 C 0.59328 0.61428 0.41028 0.0
H1796 H 0.61031 0.57654 0.34001 0.0
H1797 H 0.48026 0.70492 0.5019 0.0
H1798 H 0.80487 0.52292 0.35552 0.0
H1799 H 0.83442 0.51725 0.4044 0.0
H1800 H 0.8512 0.57485 0.3784 0.0
H1801 H 0.82213 0.58045 0.32831 0.0
H1802 H 0.87935 0.55217 0.35483 0.0
H1803 H 0.83728 0.55906 0.50406 0.0
H1804 H 0.80916 0.55258 0.55912 0.0
H1805 H 0.82686 0.49512 0.57767 0.0
H1806 H 0.85498 0.50119 0.52207 0.0
H1807 H 0.95614 0.55635 0.54337 0.0
H1808 H 0.92485 0.5614 0.5046 0.0
H1809 H 0.91621 0.50136 0.49468 0.0
H1810 H 0.94804 0.49615 0.52998 0.0
H1811 H 0.88407 0.52483 0.53778 0.0
H1812 H 0.92643 0.51863 0.38773 0.0
H1813 H 0.95405 0.52559 0.33125 0.0
H1814 H 0.9353 0.58278 0.31408 0.0
H1815 H 0.90781 0.57629 0.37175 0.0
C1816 C 0.81482 0.53441 0.36032 0.0
C1817 C 0.81094 0.55219 0.33801 0.0
C1818 C 0.83168 0.53119 0.38875 0.0
C1819 C 0.8451 0.54565 0.39562 0.0
C1820 C 0.84114 0.56344 0.37393 0.0
C1821 C 0.82433 0.56668 0.34567 0.0
C1822 C 0.86363 0.54213 0.42296 0.0
C1823 C 0.88031 0.54644 0.39516 0.0
C1824 C 0.86506 0.53425 0.47518 0.0
C1825 C 0.84812 0.53052 0.50838 0.0
C1826 C 0.83509 0.54499 0.51945 0.0
C1827 C 0.81917 0.54141 0.55085 0.0
C1828 C 0.81619 0.52344 0.57174 0.0
C1829 C 0.82916 0.50903 0.56138 0.0
C1830 C 0.8451 0.51253 0.52996 0.0
C1831 C 0.94782 0.54416 0.53195 0.0
C1832 C 0.95517 0.52582 0.53734 0.0
C1833 C 0.92977 0.54711 0.51046 0.0
C1834 C 0.91826 0.53177 0.496 0.0
C1835 C 0.92491 0.51342 0.50507 0.0
C1836 C 0.94322 0.51047 0.52514 0.0
C1837 C 0.89962 0.53493 0.46953 0.0
C1838 C 0.88301 0.53058 0.4975 0.0
C1839 C 0.89822 0.54288 0.41753 0.0
C1840 C 0.91517 0.54703 0.38469 0.0
C1841 C 0.92835 0.53278 0.37271 0.0
C1842 C 0.94394 0.53661 0.34023 0.0
C1843 C 0.94639 0.5546 0.31891 0.0
C1844 C 0.93335 0.56884 0.33045 0.0
C1845 C 0.91779 0.5651 0.36319 0.0
H1846 H 0.95845 0.55753 0.29366 0.0
H1847 H 0.80386 0.52069 0.59607 0.0
loop_
_geom_bond_atom_site_label_1
_geom_bond_atom_site_label_2
_geom_bond_distance
_geom_bond_site_symmetry_2
_ccdc_geom_bond_type
C0 C1 1.386 . S
C0 C2 1.397 1_556 S
C0 H24 0.931 . S
C1 C0 1.386 . S
C1 C5 1.397 1_556 S
C2 C0 1.397 1_554 S
C2 C3 1.384 . S
C2 H25 0.930 . S
C3 C2 1.384 . S
C3 C4 1.377 . S
C3 C6 1.481 . S
C4 C3 1.377 . S
C4 C5 1.389 . S
C4 H26 0.929 . S
C5 C1 1.397 1_554 S
C5 C4 1.389 . S
C5 H27 0.931 . S
C6 C3 1.481 . S
C6 C7 1.387 . S
C6 C11 1.390 . S
C7 C6 1.387 . S
C7 C8 1.401 . S
C7 H28 0.930 . S
C8 C7 1.401 . S
C8 C9 1.376 . S
C8 C17 1.511 . S
C9 C8 1.376 . S
C9 C10 1.392 . S
C9 H30 0.931 . S
C10 C9 1.392 . S
C10 C11 1.361 . S
C10 C12 1.500 . S
C11 C6 1.390 . S
C11 C10 1.361 . S
C11 H29 0.931 . S
C12 C10 1.500 . S
C12 C13 1.371 . S
C12 C14 1.365 . S
C13 C12 1.371 . S
C13 C23 1.386 . S
C13 H31 0.931 . S
C14 C12 1.365 . S
C14 C15 1.409 . S
C14 H32 0.929 . S
C15 C14 1.409 . S
C15 C16 1.380 . S
C15 H33 0.930 . S
C16 C15 1.380 . S
C16 C23 1.357 . S
C17 C8 1.511 . S
C17 C18 1.341 . S
C17 C19 1.371 . S
C18 C17 1.341 . S
C18 C22 1.394 . S
C18 H34 0.930 . S
C19 C17 1.371 . S
C19 C20 1.392 . S
C19 H35 0.931 . S
C20 C19 1.392 . S
C20 C21 1.331 . S
C20 H38 0.932 . S
C21 C20 1.331 . S
C21 C22 1.336 . S
C22 C18 1.394 . S
C22 C21 1.336 . S
C22 H37 0.929 . S
C23 C13 1.386 . S
C23 C16 1.357 . S
C23 H36 0.928 . S
H24 C0 0.931 . S
H25 C2 0.930 . S
H26 C4 0.929 . S
H27 C5 0.931 . S
H28 C7 0.930 . S
H29 C11 0.931 . S
H30 C9 0.931 . S
H31 C13 0.931 . S
H32 C14 0.929 . S
H33 C15 0.930 . S
H34 C18 0.930 . S
H35 C19 0.931 . S
H36 C23 0.928 . S
H37 C22 0.929 . S
H38 C20 0.932 . S
C39 C40 1.386 . S
C39 C41 1.397 1_556 S
C39 H63 0.931 . S
C40 C39 1.386 . S
C40 C44 1.397 1_556 S
C41 C39 1.397 1_554 S
C41 C42 1.384 . S
C41 H64 0.930 . S
C42 C41 1.384 . S
C42 C43 1.377 . S
C42 C45 1.481 . S
C43 C42 1.377 . S
C43 C44 1.389 . S
C43 H65 0.929 . S
C44 C40 1.397 1_554 S
C44 C43 1.389 . S
C44 H66 0.931 . S
C45 C42 1.481 . S
C45 C46 1.387 . S
C45 C50 1.390 . S
C46 C45 1.387 . S
C46 C47 1.401 . S
C46 H67 0.930 . S
C47 C46 1.401 . S
C47 C48 1.376 . S
C47 C56 1.511 . S
C48 C47 1.376 . S
C48 C49 1.392 . S
C48 H69 0.931 . S
C49 C48 1.392 . S
C49 C50 1.361 . S
C49 C51 1.500 . S
C50 C45 1.390 . S
C50 C49 1.361 . S
C50 H68 0.931 . S
C51 C49 1.500 . S
C51 C52 1.371 . S
C51 C53 1.365 . S
C52 C51 1.371 . S
C52 C62 1.386 . S
C52 H70 0.931 . S
C53 C51 1.365 . S
C53 C54 1.409 . S
C53 H71 0.929 . S
C54 C53 1.409 . S
C54 C55 1.380 . S
C54 H72 0.930 . S
C55 C54 1.380 . S
C55 C62 1.357 . S
C56 C47 1.511 . S
C56 C57 1.341 . S
C56 C58 1.371 . S
C57 C56 1.341 . S
C57 C61 1.394 . S
C57 H73 0.930 . S
C58 C56 1.371 . S
C58 C59 1.392 . S
C58 H74 0.931 . S
C59 C58 1.392 . S
C59 C60 1.331 . S
C59 H77 0.932 . S
C60 C59 1.331 . S
C60 C61 1.336 . S
C61 C57 1.394 . S
C61 C60 1.336 . S
C61 H76 0.929 . S
C62 C52 1.386 . S
C62 C55 1.357 . S
C62 H75 0.928 . S
H63 C39 0.931 . S
H64 C41 0.930 . S
H65 C43 0.929 . S
H66 C44 0.931 . S
H67 C46 0.930 . S
H68 C50 0.931 . S
H69 C48 0.931 . S
H70 C52 0.931 . S
H71 C53 0.929 . S
H72 C54 0.930 . S
H73 C57 0.930 . S
H74 C58 0.931 . S
H75 C62 0.928 . S
H76 C61 0.929 . S
H77 C59 0.932 . S
C78 C79 1.386 . S
C78 C80 1.397 1_556 S
C78 H102 0.931 . S
C79 C78 1.386 . S
C79 C83 1.397 1_556 S
C80 C78 1.397 1_554 S
C80 C81 1.384 . S
C80 H103 0.930 . S
C81 C80 1.384 . S
C81 C82 1.377 . S
C81 C84 1.481 . S
C82 C81 1.377 . S
C82 C83 1.389 . S
C82 H104 0.929 . S
C83 C79 1.397 1_554 S
C83 C82 1.389 . S
C83 H105 0.931 . S
C84 C81 1.481 . S
C84 C85 1.387 . S
C84 C89 1.390 . S
C85 C84 1.387 . S
C85 C86 1.401 . S
C85 H106 0.930 . S
C86 C85 1.401 . S
C86 C87 1.376 . S
C86 C95 1.511 . S
C87 C86 1.376 . S
C87 C88 1.392 . S
C87 H108 0.931 . S
C88 C87 1.392 . S
C88 C89 1.361 . S
C88 C90 1.500 . S
C89 C84 1.390 . S
C89 C88 1.361 . S
C89 H107 0.931 . S
C90 C88 1.500 . S
C90 C91 1.371 . S
C90 C92 1.365 . S
C91 C90 1.371 . S
C91 C101 1.386 . S
C91 H109 0.931 . S
C92 C90 1.365 . S
C92 C93 1.409 . S
C92 H110 0.929 . S
C93 C92 1.409 . S
C93 C94 1.380 . S
C93 H111 0.930 . S
C94 C93 1.380 . S
C94 C101 1.357 . S
C95 C86 1.511 . S
C95 C96 1.341 . S
C95 C97 1.371 . S
C96 C95 1.341 . S
C96 C100 1.394 . S
C96 H112 0.930 . S
C97 C95 1.371 . S
C97 C98 1.392 . S
C97 H113 0.931 . S
C98 C97 1.392 . S
C98 C99 1.331 . S
C98 H116 0.932 . S
C99 C98 1.331 . S
C99 C100 1.336 . S
C100 C96 1.394 . S
C100 C99 1.336 . S
C100 H115 0.929 . S
C101 C91 1.386 . S
C101 C94 1.357 . S
C101 H114 0.928 . S
H102 C78 0.931 . S
H103 C80 0.930 . S
H104 C82 0.929 . S
H105 C83 0.931 . S
H106 C85 0.930 . S
H107 C89 0.931 . S
H108 C87 0.931 . S
H109 C91 0.931 . S
H110 C92 0.929 . S
H111 C93 0.930 . S
H112 C96 0.930 . S
H113 C97 0.931 . S
H114 C101 0.928 . S
H115 C100 0.929 . S
H116 C98 0.932 . S
C117 C118 1.386 . S
C117 C119 1.397 . S
C117 H141 0.931 . S
C118 C117 1.386 . S
C118 C122 1.397 . S
C119 C117 1.397 . S
C119 C120 1.384 . S
C119 H142 0.930 . S
C120 C119 1.384 . S
C120 C121 1.377 . S
C120 C123 1.481 . S
C121 C120 1.377 . S
C121 C122 1.389 . S
C121 H143 0.929 . S
C122 C118 1.397 . S
C122 C121 1.389 . S
C122 H144 0.931 . S
C123 C120 1.481 . S
C123 C124 1.387 . S
C123 C128 1.390 . S
C124 C123 1.387 . S
C124 C125 1.401 . S
C124 H145 0.930 . S
C125 C124 1.401 . S
C125 C126 1.376 . S
C125 C134 1.511 . S
C126 C125 1.376 . S
C126 C127 1.392 . S
C126 H147 0.931 . S
C127 C126 1.392 . S
C127 C128 1.361 . S
C127 C129 1.500 . S
C128 C123 1.390 . S
C128 C127 1.361 . S
C128 H146 0.931 . S
C129 C127 1.500 . S
C129 C130 1.371 . S
C129 C131 1.365 . S
C130 C129 1.371 . S
C130 C140 1.386 1_554 S
C130 H148 0.932 . S
C131 C129 1.365 . S
C131 C132 1.409 . S
C131 H149 0.929 . S
C132 C131 1.409 . S
C132 C133 1.380 1_554 S
C132 H150 0.930 . S
C133 C132 1.380 1_556 S
C133 C140 1.357 . S
C134 C125 1.511 . S
C134 C135 1.341 . S
C134 C136 1.371 . S
C135 C134 1.341 . S
C135 C139 1.394 . S
C135 H151 0.930 . S
C136 C134 1.371 . S
C136 C137 1.392 . S
C136 H152 0.931 . S
C137 C136 1.392 . S
C137 C138 1.331 . S
C137 H155 0.932 . S
C138 C137 1.331 . S
C138 C139 1.336 . S
C139 C135 1.394 . S
C139 C138 1.336 . S
C139 H154 0.929 . S
C140 C130 1.386 1_556 S
C140 C133 1.357 . S
C140 H153 0.928 . S
H141 C117 0.931 . S
H142 C119 0.930 . S
H143 C121 0.929 . S
H144 C122 0.931 . S
H145 C124 0.930 . S
H146 C128 0.931 . S
H147 C126 0.931 . S
H148 C130 0.932 . S
H149 C131 0.929 . S
H150 C132 0.930 . S
H151 C135 0.930 . S
H152 C136 0.931 . S
H153 C140 0.928 . S
H154 C139 0.929 . S
H155 C137 0.932 . S
C156 C157 1.386 . S
C156 C158 1.397 . S
C156 H180 0.931 . S
C157 C156 1.386 . S
C157 C161 1.397 . S
C158 C156 1.397 . S
C158 C159 1.384 . S
C158 H181 0.930 . S
C159 C158 1.384 . S
C159 C160 1.377 . S
C159 C162 1.481 . S
C160 C159 1.377 . S
C160 C161 1.389 . S
C160 H182 0.929 . S
C161 C157 1.397 . S
C161 C160 1.389 . S
C161 H183 0.931 . S
C162 C159 1.481 . S
C162 C163 1.387 . S
C162 C167 1.390 . S
C163 C162 1.387 . S
C163 C164 1.401 . S
C163 H184 0.930 . S
C164 C163 1.401 . S
C164 C165 1.376 1_554 S
C164 C173 1.511 . S
C165 C164 1.376 1_556 S
C165 C166 1.392 . S
C165 H186 0.931 . S
C166 C165 1.392 . S
C166 C167 1.361 1_556 S
C166 C168 1.500 . S
C167 C162 1.390 . S
C167 C166 1.361 1_554 S
C167 H185 0.931 1_554 S
C168 C166 1.500 . S
C168 C169 1.371 . S
C168 C170 1.365 . S
C169 C168 1.371 . S
C169 C179 1.386 . S
C169 H187 0.931 . S
C170 C168 1.365 . S
C170 C171 1.409 . S
C170 H188 0.929 . S
C171 C170 1.409 . S
C171 C172 1.380 . S
C171 H189 0.930 . S
C172 C171 1.380 . S
C172 C179 1.357 . S
C173 C164 1.511 . S
C173 C174 1.341 . S
C173 C175 1.371 . S
C174 C173 1.341 . S
C174 C178 1.394 . S
C174 H190 0.930 . S
C175 C173 1.371 . S
C175 C176 1.392 . S
C175 H191 0.931 1_554 S
C176 C175 1.392 . S
C176 C177 1.331 . S
C176 H194 0.932 1_554 S
C177 C176 1.331 . S
C177 C178 1.336 . S
C178 C174 1.394 . S
C178 C177 1.336 . S
C178 H193 0.929 . S
C179 C169 1.386 . S
C179 C172 1.357 . S
C179 H192 0.928 . S
H180 C156 0.931 . S
H181 C158 0.930 . S
H182 C160 0.929 . S
H183 C161 0.931 . S
H184 C163 0.930 . S
H185 C167 0.931 1_556 S
H186 C165 0.931 . S
H187 C169 0.931 . S
H188 C170 0.929 . S
H189 C171 0.930 . S
H190 C174 0.930 . S
H191 C175 0.931 1_556 S
H192 C179 0.928 . S
H193 C178 0.929 . S
H194 C176 0.932 1_556 S
C195 C196 1.386 . S
C195 C197 1.397 . S
C195 H219 0.931 . S
C196 C195 1.386 . S
C196 C200 1.397 . S
C197 C195 1.397 . S
C197 C198 1.384 . S
C197 H220 0.930 . S
C198 C197 1.384 . S
C198 C199 1.377 . S
C198 C201 1.481 . S
C199 C198 1.377 . S
C199 C200 1.389 . S
C199 H221 0.929 . S
C200 C196 1.397 . S
C200 C199 1.389 . S
C200 H222 0.931 . S
C201 C198 1.481 . S
C201 C202 1.387 . S
C201 C206 1.390 1_554 S
C202 C201 1.387 . S
C202 C203 1.401 . S
C202 H223 0.930 . S
C203 C202 1.401 . S
C203 C204 1.376 1_554 S
C203 C212 1.511 . S
C204 C203 1.376 1_556 S
C204 C205 1.392 . S
C204 H225 0.931 . S
C205 C204 1.392 . S
C205 C206 1.361 . S
C205 C207 1.500 . S
C206 C201 1.390 1_556 S
C206 C205 1.361 . S
C206 H224 0.931 . S
C207 C205 1.500 . S
C207 C208 1.371 . S
C207 C209 1.365 . S
C208 C207 1.371 . S
C208 C218 1.386 . S
C208 H226 0.931 . S
C209 C207 1.365 . S
C209 C210 1.409 . S
C209 H227 0.929 . S
C210 C209 1.409 . S
C210 C211 1.380 . S
C210 H228 0.930 . S
C211 C210 1.380 . S
C211 C218 1.357 . S
C212 C203 1.511 . S
C212 C213 1.341 . S
C212 C214 1.371 1_554 S
C213 C212 1.341 . S
C213 C217 1.394 . S
C213 H229 0.930 . S
C214 C212 1.371 1_556 S
C214 C215 1.392 1_556 S
C214 H230 0.931 . S
C215 C214 1.392 1_554 S
C215 C216 1.331 . S
C215 H233 0.932 1_554 S
C216 C215 1.331 . S
C216 C217 1.336 . S
C217 C213 1.394 . S
C217 C216 1.336 . S
C217 H232 0.929 . S
C218 C208 1.386 . S
C218 C211 1.357 . S
C218 H231 0.928 . S
H219 C195 0.931 . S
H220 C197 0.930 . S
H221 C199 0.929 . S
H222 C200 0.931 . S
H223 C202 0.930 . S
H224 C206 0.931 . S
H225 C204 0.931 . S
H226 C208 0.931 . S
H227 C209 0.929 . S
H228 C210 0.930 . S
H229 C213 0.930 . S
H230 C214 0.931 . S
H231 C218 0.928 . S
H232 C217 0.929 . S
H233 C215 0.932 1_556 S
C234 C235 1.386 . S
C234 C236 1.397 . S
C234 H258 0.931 . S
C235 C234 1.386 . S
C235 C239 1.397 . S
C236 C234 1.397 . S
C236 C237 1.384 . S
C236 H259 0.930 . S
C237 C236 1.384 . S
C237 C238 1.377 . S
C237 C240 1.481 . S
C238 C237 1.377 . S
C238 C239 1.389 . S
C238 H260 0.929 . S
C239 C235 1.397 . S
C239 C238 1.389 . S
C239 H261 0.931 . S
C240 C237 1.481 . S
C240 C241 1.387 . S
C240 C245 1.390 1_554 S
C241 C240 1.387 . S
C241 C242 1.401 . S
C241 H262 0.930 . S
C242 C241 1.401 . S
C242 C243 1.376 1_554 S
C242 C251 1.511 . S
C243 C242 1.376 1_556 S
C243 C244 1.392 . S
C243 H264 0.931 . S
C244 C243 1.392 . S
C244 C245 1.361 . S
C244 C246 1.500 . S
C245 C240 1.390 1_556 S
C245 C244 1.361 . S
C245 H263 0.931 . S
C246 C244 1.500 . S
C246 C247 1.371 . S
C246 C248 1.365 . S
C247 C246 1.371 . S
C247 C257 1.386 . S
C247 H265 0.931 . S
C248 C246 1.365 . S
C248 C249 1.409 . S
C248 H266 0.929 . S
C249 C248 1.409 . S
C249 C250 1.380 . S
C249 H267 0.930 . S
C250 C249 1.380 . S
C250 C257 1.357 . S
C251 C242 1.511 . S
C251 C252 1.341 . S
C251 C253 1.371 1_554 S
C252 C251 1.341 . S
C252 C256 1.394 . S
C252 H268 0.930 . S
C253 C251 1.371 1_556 S
C253 C254 1.392 1_556 S
C253 H269 0.931 . S
C254 C253 1.392 1_554 S
C254 C255 1.331 . S
C254 H272 0.932 1_554 S
C255 C254 1.331 . S
C255 C256 1.336 . S
C256 C252 1.394 . S
C256 C255 1.336 . S
C256 H271 0.929 . S
C257 C247 1.386 . S
C257 C250 1.357 . S
C257 H270 0.928 . S
H258 C234 0.931 . S
H259 C236 0.930 . S
H260 C238 0.929 . S
H261 C239 0.931 . S
H262 C241 0.930 . S
H263 C245 0.931 . S
H264 C243 0.931 . S
H265 C247 0.931 . S
H266 C248 0.929 . S
H267 C249 0.930 . S
H268 C252 0.930 . S
H269 C253 0.931 . S
H270 C257 0.928 . S
H271 C256 0.929 . S
H272 C254 0.932 1_556 S
C273 C274 1.386 . S
C273 C275 1.397 . S
C273 H297 0.931 . S
C274 C273 1.386 . S
C274 C278 1.397 . S
C275 C273 1.397 . S
C275 C276 1.384 . S
C275 H298 0.930 . S
C276 C275 1.384 . S
C276 C277 1.377 . S
C276 C279 1.481 . S
C277 C276 1.377 . S
C277 C278 1.389 . S
C277 H299 0.929 . S
C278 C274 1.397 . S
C278 C277 1.389 . S
C278 H300 0.931 . S
C279 C276 1.481 . S
C279 C280 1.387 . S
C279 C284 1.390 1_556 S
C280 C279 1.387 . S
C280 C281 1.401 1_556 S
C280 H301 0.930 . S
C281 C280 1.401 1_554 S
C281 C282 1.376 . S
C281 C290 1.511 . S
C282 C281 1.376 . S
C282 C283 1.392 . S
C282 H303 0.931 . S
C283 C282 1.392 . S
C283 C284 1.361 . S
C283 C285 1.500 . S
C284 C279 1.390 1_554 S
C284 C283 1.361 . S
C284 H302 0.931 1_554 S
C285 C283 1.500 . S
C285 C286 1.371 . S
C285 C287 1.365 . S
C286 C285 1.371 . S
C286 C296 1.386 . S
C286 H304 0.931 . S
C287 C285 1.365 . S
C287 C288 1.409 . S
C287 H305 0.929 . S
C288 C287 1.409 . S
C288 C289 1.380 . S
C288 H306 0.930 . S
C289 C288 1.380 . S
C289 C296 1.357 . S
C290 C281 1.511 . S
C290 C291 1.341 . S
C290 C292 1.371 . S
C291 C290 1.341 . S
C291 C295 1.394 . S
C291 H307 0.930 1_554 S
C292 C290 1.371 . S
C292 C293 1.392 . S
C292 H308 0.931 . S
C293 C292 1.392 . S
C293 C294 1.331 . S
C293 H311 0.932 . S
C294 C293 1.331 . S
C294 C295 1.336 . S
C295 C291 1.394 . S
C295 C294 1.336 . S
C295 H310 0.929 1_554 S
C296 C286 1.386 . S
C296 C289 1.357 . S
C296 H309 0.928 . S
H297 C273 0.931 . S
H298 C275 0.930 . S
H299 C277 0.929 . S
H300 C278 0.931 . S
H301 C280 0.930 . S
H302 C284 0.931 1_556 S
H303 C282 0.931 . S
H304 C286 0.931 . S
H305 C287 0.929 . S
H306 C288 0.930 . S
H307 C291 0.930 1_556 S
H308 C292 0.931 . S
H309 C296 0.928 . S
H310 C295 0.929 1_556 S
H311 C293 0.932 . S
Tb312 N343 2.660 1_565 S
Tb312 N350 2.600 . S
Tb312 O356 2.546 . S
Tb312 O357 2.610 1_455 S
Tb312 O359 2.320 1_455 S
Tb312 O360 2.552 . S
Tb312 O361 2.413 . S
Tb312 O363 2.362 1_565 S
Tb312 O364 2.421 . S
Tb312 C376 2.833 . S
C313 C316 1.423 1_545 S
C313 C317 1.414 . S
C313 N320 1.359 . S
C314 C316 1.428 . S
C314 C318 1.432 . S
C314 C326 1.410 . S
C315 C317 1.444 1_565 S
C315 C318 1.317 . S
C315 H338 0.929 . S
C316 C313 1.423 1_565 S
C316 C314 1.428 . S
C316 N324 1.357 1_565 S
C317 C313 1.414 . S
C317 C315 1.444 1_545 S
C317 C322 1.385 . S
C318 C314 1.432 . S
C318 C315 1.317 . S
C318 H330 0.930 . S
C319 C321 1.392 . S
C319 C322 1.370 . S
C319 H331 0.931 . S
N320 C313 1.359 . S
N320 C321 1.327 . S
N320 Tb323 2.600 . S
C321 C319 1.392 . S
C321 N320 1.327 . S
C321 H328 0.930 . S
C322 C317 1.385 . S
C322 C319 1.370 . S
C322 H341 0.930 . S
Tb323 N320 2.600 . S
Tb323 N324 2.660 . S
Tb323 O357 2.362 1_545 S
Tb323 O358 2.421 . S
Tb323 O362 2.546 . S
Tb323 O363 2.610 1_655 S
Tb323 O365 2.320 1_655 S
Tb323 O366 2.552 1_655 S
Tb323 O367 2.413 . S
Tb323 C387 2.833 . S
N324 C316 1.357 1_545 S
N324 Tb323 2.660 . S
N324 C325 1.305 1_645 S
C325 N324 1.305 1_465 S
C325 C327 1.407 . S
C325 H332 0.930 . S
C326 C314 1.410 . S
C326 C327 1.345 1_655 S
C326 H334 0.930 . S
C327 C325 1.407 . S
C327 C326 1.345 1_455 S
C327 H329 0.930 . S
H328 C321 0.930 . S
H329 C327 0.930 . S
H330 C318 0.930 . S
H331 C319 0.931 . S
H332 C325 0.930 . S
H333 C347 0.930 1_655 S
H334 C326 0.930 . S
H335 C353 0.930 . S
H336 C344 0.930 1_655 S
H337 C351 0.931 . S
H338 C315 0.929 . S
H339 C345 0.930 . S
H340 C378 0.930 . S
H341 C322 0.930 . S
H342 C377 0.929 . S
N343 Tb312 2.660 1_545 S
N343 C344 1.305 . S
N343 C348 1.360 . S
C344 H336 0.930 1_455 S
C344 N343 1.305 . S
C344 C347 1.407 . S
C345 H339 0.930 . S
C345 C346 1.410 . S
C345 C347 1.345 . S
C346 C345 1.410 . S
C346 C348 1.417 . S
C346 C378 1.432 . S
C347 H333 0.930 1_455 S
C347 C344 1.407 . S
C347 C345 1.345 . S
C348 N343 1.360 . S
C348 C346 1.417 . S
C348 C352 1.432 . S
H349 C354 0.930 . S
N350 Tb312 2.600 . S
N350 C352 1.359 1_565 S
N350 C353 1.327 . S
C351 H337 0.931 . S
C351 C353 1.392 . S
C351 C354 1.370 . S
C352 C348 1.432 . S
C352 N350 1.359 1_545 S
C352 C355 1.414 . S
C353 H335 0.930 . S
C353 N350 1.327 . S
C353 C351 1.392 . S
C354 H349 0.930 . S
C354 C351 1.370 . S
C354 C355 1.385 1_565 S
C355 C352 1.414 . S
C355 C354 1.385 1_545 S
C355 C377 1.444 . S
O356 Tb312 2.546 . S
O356 C376 1.251 . S
O357 Tb312 2.610 1_655 S
O357 Tb323 2.362 1_565 S
O357 C368 1.283 . S
O358 Tb323 2.421 . S
O358 C375 1.262 . S
O359 Tb312 2.320 1_655 S
O359 C375 1.260 1_565 S
O360 Tb312 2.552 . S
O360 C368 1.243 1_455 S
O361 Tb312 2.413 . S
O361 C376 1.256 . S
O362 Tb323 2.546 . S
O362 C387 1.251 . S
O363 Tb312 2.362 1_545 S
O363 Tb323 2.610 1_455 S
O363 C379 1.283 . S
O364 Tb312 2.421 . S
O364 C386 1.262 1_565 S
O365 Tb323 2.320 1_455 S
O365 C386 1.260 . S
O366 Tb323 2.552 1_455 S
O366 C379 1.243 . S
O367 Tb323 2.413 . S
O367 C387 1.256 . S
C368 O357 1.283 . S
C368 O360 1.243 1_655 S
C369 C371 1.382 . S
C369 C373 1.393 . S
C369 C376 1.500 . S
C370 C371 1.400 . S
C370 C372 1.384 . S
C371 C369 1.382 . S
C371 C370 1.400 . S
C371 H388 0.930 1_455 S
C372 C370 1.384 . S
C372 C374 1.392 . S
C372 H389 0.931 . S
C373 C369 1.393 . S
C373 C374 1.401 . S
C373 H390 0.930 . S
C374 C372 1.392 . S
C374 C373 1.401 . S
C374 H391 0.930 . S
C375 O358 1.262 . S
C375 O359 1.260 1_545 S
C376 Tb312 2.833 . S
C376 O356 1.251 . S
C376 O361 1.256 . S
C376 C369 1.500 . S
C377 H342 0.929 . S
C377 C355 1.444 . S
C377 C378 1.317 . S
C378 H340 0.930 . S
C378 C346 1.432 . S
C378 C377 1.317 . S
C379 O363 1.283 . S
C379 O366 1.243 . S
C380 C381 1.436 . S
C380 C384 1.393 . S
C380 C387 1.500 . S
C381 C380 1.436 . S
C381 C382 1.405 . S
C381 H392 0.874 1_655 S
C382 C381 1.405 . S
C382 C383 1.384 . S
C383 C382 1.384 . S
C383 C385 1.392 . S
C383 H393 0.931 . S
C384 C380 1.393 . S
C384 C385 1.401 . S
C384 H394 0.930 . S
C385 C383 1.392 . S
C385 C384 1.401 . S
C385 H395 0.930 . S
C386 O364 1.262 1_545 S
C386 O365 1.260 . S
C387 Tb323 2.833 . S
C387 O362 1.251 . S
C387 O367 1.256 . S
C387 C380 1.500 . S
H388 C371 0.930 1_655 S
H389 C372 0.931 . S
H390 C373 0.930 . S
H391 C374 0.930 . S
H392 C381 0.874 1_455 S
H393 C383 0.931 . S
H394 C384 0.930 . S
H395 C385 0.930 . S
Tb396 N427 2.660 . S
Tb396 N434 2.600 . S
Tb396 O440 2.546 . S
Tb396 O441 2.610 1_545 S
Tb396 O443 2.320 1_545 S
Tb396 O444 2.552 . S
Tb396 O445 2.413 . S
Tb396 O447 2.362 . S
Tb396 O448 2.421 . S
Tb396 C460 2.833 . S
C397 C400 1.432 . S
C397 C401 1.414 . S
C397 N404 1.359 . S
C398 C400 1.417 . S
C398 C402 1.432 . S
C398 C410 1.410 . S
C399 C401 1.444 . S
C399 C402 1.317 . S
C399 H422 0.929 . S
C400 C397 1.432 . S
C400 C398 1.417 . S
C400 N408 1.360 . S
C401 C397 1.414 . S
C401 C399 1.444 . S
C401 C406 1.385 . S
C402 C398 1.432 . S
C402 C399 1.317 . S
C402 H414 0.930 . S
C403 C405 1.392 . S
C403 C406 1.370 . S
C403 H415 0.931 . S
N404 C397 1.359 . S
N404 C405 1.327 . S
N404 Tb407 2.600 . S
C405 C403 1.392 . S
C405 N404 1.327 . S
C405 H412 0.930 . S
C406 C401 1.385 . S
C406 C403 1.370 . S
C406 H425 0.930 . S
Tb407 N404 2.600 . S
Tb407 N408 2.660 . S
Tb407 O441 2.362 . S
Tb407 O442 2.421 . S
Tb407 O446 2.546 . S
Tb407 O447 2.610 1_565 S
Tb407 O449 2.320 1_565 S
Tb407 O450 2.552 1_565 S
Tb407 O451 2.413 . S
Tb407 C471 2.833 . S
N408 C400 1.360 . S
N408 Tb407 2.660 . S
N408 C409 1.305 1_565 S
C409 N408 1.305 1_545 S
C409 C411 1.407 . S
C409 H416 0.930 . S
C410 C398 1.410 . S
C410 C411 1.345 1_565 S
C410 H418 0.930 . S
C411 C409 1.407 . S
C411 C410 1.345 1_545 S
C411 H413 0.930 . S
H412 C405 0.930 . S
H413 C411 0.930 . S
H414 C402 0.930 . S
H415 C403 0.931 . S
H416 C409 0.930 . S
H417 C431 0.930 1_565 S
H418 C410 0.930 . S
H419 C437 0.930 . S
H420 C428 0.930 1_565 S
H421 C435 0.931 . S
H422 C399 0.929 . S
H423 C429 0.930 . S
H424 C462 0.930 . S
H425 C406 0.930 . S
H426 C461 0.929 . S
N427 Tb396 2.660 . S
N427 C428 1.305 . S
N427 C432 1.360 . S
C428 H420 0.930 1_545 S
C428 N427 1.305 . S
C428 C431 1.407 . S
C429 H423 0.930 . S
C429 C430 1.410 . S
C429 C431 1.345 . S
C430 C429 1.410 . S
C430 C432 1.417 . S
C430 C462 1.432 . S
C431 H417 0.930 1_545 S
C431 C428 1.407 . S
C431 C429 1.345 . S
C432 N427 1.360 . S
C432 C430 1.417 . S
C432 C436 1.432 . S
H433 C438 0.930 . S
N434 Tb396 2.600 . S
N434 C436 1.359 . S
N434 C437 1.327 . S
C435 H421 0.931 . S
C435 C437 1.392 . S
C435 C438 1.370 . S
C436 C432 1.432 . S
C436 N434 1.359 . S
C436 C439 1.414 . S
C437 H419 0.930 . S
C437 N434 1.327 . S
C437 C435 1.392 . S
C438 H433 0.930 . S
C438 C435 1.370 . S
C438 C439 1.385 . S
C439 C436 1.414 . S
C439 C438 1.385 . S
C439 C461 1.444 . S
O440 Tb396 2.546 . S
O440 C460 1.251 . S
O441 Tb396 2.610 1_565 S
O441 Tb407 2.362 . S
O441 C452 1.283 . S
O442 Tb407 2.421 . S
O442 C459 1.262 . S
O443 Tb396 2.320 1_565 S
O443 C459 1.260 . S
O444 Tb396 2.552 . S
O444 C452 1.243 1_545 S
O445 Tb396 2.413 . S
O445 C460 1.256 . S
O446 Tb407 2.546 . S
O446 C471 1.251 . S
O447 Tb396 2.362 . S
O447 Tb407 2.610 1_545 S
O447 C463 1.283 . S
O448 Tb396 2.421 . S
O448 C470 1.262 . S
O449 Tb407 2.320 1_545 S
O449 C470 1.260 . S
O450 Tb407 2.552 1_545 S
O450 C463 1.243 . S
O451 Tb407 2.413 . S
O451 C471 1.256 . S
C452 O441 1.283 . S
C452 O444 1.243 1_565 S
C453 C455 1.382 . S
C453 C457 1.393 . S
C453 C460 1.500 . S
C454 C455 1.400 . S
C454 C456 1.384 . S
C455 C453 1.382 . S
C455 C454 1.400 . S
C455 H472 0.940 . S
C456 C454 1.384 . S
C456 C458 1.392 . S
C456 H473 0.931 . S
C457 C453 1.393 . S
C457 C458 1.401 . S
C457 H474 0.930 . S
C458 C456 1.392 . S
C458 C457 1.401 . S
C458 H475 0.930 . S
C459 O442 1.262 . S
C459 O443 1.260 . S
C460 Tb396 2.833 . S
C460 O440 1.251 . S
C460 O445 1.256 . S
C460 C453 1.500 . S
C461 H426 0.929 . S
C461 C439 1.444 . S
C461 C462 1.317 . S
C462 H424 0.930 . S
C462 C430 1.432 . S
C462 C461 1.317 . S
C463 O447 1.283 . S
C463 O450 1.243 . S
C464 C465 1.411 . S
C464 C468 1.393 . S
C464 C471 1.500 . S
C465 C464 1.411 . S
C465 C466 1.403 . S
C465 H476 0.899 1_565 S
C466 C465 1.403 . S
C466 C467 1.384 . S
C467 C466 1.384 . S
C467 C469 1.392 . S
C467 H477 0.931 . S
C468 C464 1.393 . S
C468 C469 1.401 . S
C468 H478 0.930 . S
C469 C467 1.392 . S
C469 C468 1.401 . S
C469 H479 0.930 . S
C470 O448 1.262 . S
C470 O449 1.260 . S
C471 Tb407 2.833 . S
C471 O446 1.251 . S
C471 O451 1.256 . S
C471 C464 1.500 . S
H472 C455 0.940 . S
H473 C456 0.931 . S
H474 C457 0.930 . S
H475 C458 0.930 . S
H476 C465 0.899 1_545 S
H477 C467 0.931 . S
H478 C468 0.930 . S
H479 C469 0.930 . S
Tb480 N511 2.660 . S
Tb480 N518 2.600 . S
Tb480 O524 2.546 . S
Tb480 O525 2.610 . S
Tb480 O527 2.320 . S
Tb480 O528 2.552 . S
Tb480 O529 2.413 . S
Tb480 O531 2.362 . S
Tb480 O532 2.421 . S
Tb480 C544 2.833 . S
C481 C484 1.432 . S
C481 C485 1.414 . S
C481 N488 1.359 . S
C482 C484 1.417 . S
C482 C486 1.432 . S
C482 C494 1.410 . S
C483 C485 1.444 . S
C483 C486 1.317 . S
C483 H506 0.929 . S
C484 C481 1.432 . S
C484 C482 1.417 . S
C484 N492 1.360 . S
C485 C481 1.414 . S
C485 C483 1.444 . S
C485 C490 1.385 . S
C486 C482 1.432 . S
C486 C483 1.317 . S
C486 H498 0.930 . S
C487 C489 1.392 . S
C487 C490 1.370 . S
C487 H499 0.931 . S
N488 C481 1.359 . S
N488 C489 1.327 . S
N488 Tb491 2.600 . S
C489 C487 1.392 . S
C489 N488 1.327 . S
C489 H496 0.930 . S
C490 C485 1.385 . S
C490 C487 1.370 . S
C490 H509 0.930 . S
Tb491 N488 2.600 . S
Tb491 N492 2.660 . S
Tb491 O525 2.362 . S
Tb491 O526 2.421 . S
Tb491 O530 2.546 . S
Tb491 O531 2.610 . S
Tb491 O533 2.320 . S
Tb491 O534 2.552 . S
Tb491 O535 2.413 . S
Tb491 C555 2.833 . S
N492 C484 1.360 . S
N492 Tb491 2.660 . S
N492 C493 1.305 . S
C493 N492 1.305 . S
C493 C495 1.407 . S
C493 H500 0.930 . S
C494 C482 1.410 . S
C494 C495 1.345 . S
C494 H502 0.930 . S
C495 C493 1.407 . S
C495 C494 1.345 . S
C495 H497 0.930 . S
H496 C489 0.930 . S
H497 C495 0.930 . S
H498 C486 0.930 . S
H499 C487 0.931 . S
H500 C493 0.930 . S
H501 C515 0.930 . S
H502 C494 0.930 . S
H503 C521 0.930 . S
H504 C512 0.930 . S
H505 C519 0.931 . S
H506 C483 0.929 . S
H507 C513 0.930 . S
H508 C546 0.930 . S
H509 C490 0.930 . S
H510 C545 0.929 . S
N511 Tb480 2.660 . S
N511 C512 1.305 . S
N511 C516 1.360 . S
C512 H504 0.930 . S
C512 N511 1.305 . S
C512 C515 1.407 . S
C513 H507 0.930 . S
C513 C514 1.410 . S
C513 C515 1.345 . S
C514 C513 1.410 . S
C514 C516 1.417 . S
C514 C546 1.432 . S
C515 H501 0.930 . S
C515 C512 1.407 . S
C515 C513 1.345 . S
C516 N511 1.360 . S
C516 C514 1.417 . S
C516 C520 1.432 . S
H517 C522 0.930 . S
N518 Tb480 2.600 . S
N518 C520 1.359 . S
N518 C521 1.327 . S
C519 H505 0.931 . S
C519 C521 1.392 . S
C519 C522 1.370 . S
C520 C516 1.432 . S
C520 N518 1.359 . S
C520 C523 1.414 . S
C521 H503 0.930 . S
C521 N518 1.327 . S
C521 C519 1.392 . S
C522 H517 0.930 . S
C522 C519 1.370 . S
C522 C523 1.385 . S
C523 C520 1.414 . S
C523 C522 1.385 . S
C523 C545 1.444 . S
O524 Tb480 2.546 . S
O524 C544 1.251 . S
O525 Tb480 2.610 . S
O525 Tb491 2.362 . S
O525 C536 1.283 . S
O526 Tb491 2.421 . S
O526 C543 1.262 . S
O527 Tb480 2.320 . S
O527 C543 1.260 . S
O528 Tb480 2.552 . S
O528 C536 1.243 . S
O529 Tb480 2.413 . S
O529 C544 1.256 . S
O530 Tb491 2.546 . S
O530 C555 1.251 . S
O531 Tb480 2.362 . S
O531 Tb491 2.610 . S
O531 C547 1.283 . S
O532 Tb480 2.421 . S
O532 C554 1.262 . S
O533 Tb491 2.320 . S
O533 C554 1.260 . S
O534 Tb491 2.552 . S
O534 C547 1.243 . S
O535 Tb491 2.413 . S
O535 C555 1.256 . S
C536 O525 1.283 . S
C536 O528 1.243 . S
C537 C539 1.382 . S
C537 C541 1.393 . S
C537 C544 1.500 . S
C538 C539 1.400 . S
C538 C540 1.384 . S
C539 C537 1.382 . S
C539 C538 1.400 . S
C539 H556 0.930 . S
C540 C538 1.384 . S
C540 C542 1.392 . S
C540 H557 0.931 . S
C541 C537 1.393 . S
C541 C542 1.401 . S
C541 H558 0.930 . S
C542 C540 1.392 . S
C542 C541 1.401 . S
C542 H559 0.930 . S
C543 O526 1.262 . S
C543 O527 1.260 . S
C544 Tb480 2.833 . S
C544 O524 1.251 . S
C544 O529 1.256 . S
C544 C537 1.500 . S
C545 H510 0.929 . S
C545 C523 1.444 . S
C545 C546 1.317 . S
C546 H508 0.930 . S
C546 C514 1.432 . S
C546 C545 1.317 . S
C547 O531 1.283 . S
C547 O534 1.243 . S
C548 C549 1.382 . S
C548 C552 1.393 . S
C548 C555 1.500 . S
C549 C548 1.382 . S
C549 C550 1.400 . S
C549 H560 0.930 . S
C550 C549 1.400 . S
C550 C551 1.384 . S
C551 C550 1.384 . S
C551 C553 1.392 . S
C551 H561 0.931 . S
C552 C548 1.393 . S
C552 C553 1.401 . S
C552 H562 0.930 . S
C553 C551 1.392 . S
C553 C552 1.401 . S
C553 H563 0.930 . S
C554 O532 1.262 . S
C554 O533 1.260 . S
C555 Tb491 2.833 . S
C555 O530 1.251 . S
C555 O535 1.256 . S
C555 C548 1.500 . S
H556 C539 0.930 . S
H557 C540 0.931 . S
H558 C541 0.930 . S
H559 C542 0.930 . S
H560 C549 0.930 . S
H561 C551 0.931 . S
H562 C552 0.930 . S
H563 C553 0.930 . S
Tb564 N595 2.660 . S
Tb564 N602 2.600 . S
Tb564 O608 2.546 . S
Tb564 O609 2.610 . S
Tb564 O611 2.320 . S
Tb564 O612 2.552 . S
Tb564 O613 2.413 . S
Tb564 O615 2.362 . S
Tb564 O616 2.421 1_455 S
Tb564 C628 2.833 . S
C565 C568 1.432 . S
C565 C569 1.414 . S
C565 N572 1.359 . S
C566 C568 1.417 . S
C566 C570 1.432 . S
C566 C578 1.410 . S
C567 C569 1.444 . S
C567 C570 1.317 . S
C567 H590 0.929 . S
C568 C565 1.432 . S
C568 C566 1.417 . S
C568 N576 1.360 . S
C569 C565 1.414 . S
C569 C567 1.444 . S
C569 C574 1.385 . S
C570 C566 1.432 . S
C570 C567 1.317 . S
C570 H582 0.930 . S
C571 C573 1.392 . S
C571 C574 1.370 1_455 S
C571 H583 0.931 . S
N572 C565 1.359 . S
N572 C573 1.327 1_655 S
N572 Tb575 2.600 . S
C573 C571 1.392 . S
C573 N572 1.327 1_455 S
C573 H580 0.930 . S
C574 C569 1.385 . S
C574 C571 1.370 1_655 S
C574 H593 0.930 . S
Tb575 N572 2.600 . S
Tb575 N576 2.660 . S
Tb575 O609 2.362 1_655 S
Tb575 O610 2.421 1_655 S
Tb575 O614 2.546 . S
Tb575 O615 2.610 1_655 S
Tb575 O617 2.320 . S
Tb575 O618 2.552 . S
Tb575 O619 2.413 . S
Tb575 C639 2.833 . S
N576 C568 1.360 . S
N576 Tb575 2.660 . S
N576 C577 1.305 . S
C577 N576 1.305 . S
C577 C579 1.407 . S
C577 H584 0.930 . S
C578 C566 1.410 . S
C578 C579 1.345 . S
C578 H586 0.930 . S
C579 C577 1.407 . S
C579 C578 1.345 . S
C579 H581 0.930 . S
H580 C573 0.930 . S
H581 C579 0.930 . S
H582 C570 0.930 . S
H583 C571 0.931 . S
H584 C577 0.930 . S
H585 C599 0.930 . S
H586 C578 0.930 . S
H587 C605 0.930 1_655 S
H588 C596 0.930 . S
H589 C603 0.931 1_655 S
H590 C567 0.929 . S
H591 C597 0.930 . S
H592 C630 0.930 . S
H593 C574 0.930 . S
H594 C629 0.929 . S
N595 Tb564 2.660 . S
N595 C596 1.305 . S
N595 C600 1.360 . S
C596 H588 0.930 . S
C596 N595 1.305 . S
C596 C599 1.407 . S
C597 H591 0.930 . S
C597 C598 1.410 . S
C597 C599 1.345 . S
C598 C597 1.410 . S
C598 C600 1.417 . S
C598 C630 1.432 . S
C599 H585 0.930 . S
C599 C596 1.407 . S
C599 C597 1.345 . S
C600 N595 1.360 . S
C600 C598 1.417 . S
C600 C604 1.432 . S
H601 C606 0.930 . S
N602 Tb564 2.600 . S
N602 C604 1.359 . S
N602 C605 1.327 . S
C603 H589 0.931 1_455 S
C603 C605 1.392 . S
C603 C606 1.370 . S
C604 C600 1.432 . S
C604 N602 1.359 . S
C604 C607 1.414 . S
C605 H587 0.930 1_455 S
C605 N602 1.327 . S
C605 C603 1.392 . S
C606 H601 0.930 . S
C606 C603 1.370 . S
C606 C607 1.385 . S
C607 C604 1.414 . S
C607 C606 1.385 . S
C607 C629 1.444 . S
O608 Tb564 2.546 . S
O608 C628 1.251 . S
O609 Tb564 2.610 . S
O609 Tb575 2.362 1_455 S
O609 C620 1.283 . S
O610 Tb575 2.421 1_455 S
O610 C627 1.262 . S
O611 Tb564 2.320 . S
O611 C627 1.260 . S
O612 Tb564 2.552 . S
O612 C620 1.243 . S
O613 Tb564 2.413 . S
O613 C628 1.256 . S
O614 Tb575 2.546 . S
O614 C639 1.251 . S
O615 Tb564 2.362 . S
O615 Tb575 2.610 1_455 S
O615 C631 1.283 1_455 S
O616 Tb564 2.421 1_655 S
O616 C638 1.262 . S
O617 Tb575 2.320 . S
O617 C638 1.260 . S
O618 Tb575 2.552 . S
O618 C631 1.243 . S
O619 Tb575 2.413 . S
O619 C639 1.256 . S
C620 O609 1.283 . S
C620 O612 1.243 . S
C621 C623 1.382 . S
C621 C625 1.393 . S
C621 C628 1.500 . S
C622 C623 1.400 . S
C622 C624 1.384 . S
C623 C621 1.382 . S
C623 C622 1.400 . S
C623 H640 0.930 . S
C624 C622 1.384 . S
C624 C626 1.392 . S
C624 H641 0.931 . S
C625 C621 1.393 . S
C625 C626 1.401 . S
C625 H642 0.930 . S
C626 C624 1.392 . S
C626 C625 1.401 . S
C626 H643 0.930 . S
C627 O610 1.262 . S
C627 O611 1.260 . S
C628 Tb564 2.833 . S
C628 O608 1.251 . S
C628 O613 1.256 . S
C628 C621 1.500 . S
C629 H594 0.929 . S
C629 C607 1.444 . S
C629 C630 1.317 . S
C630 H592 0.930 . S
C630 C598 1.432 . S
C630 C629 1.317 . S
C631 O615 1.283 1_655 S
C631 O618 1.243 . S
C632 C633 1.382 . S
C632 C636 1.393 . S
C632 C639 1.500 . S
C633 C632 1.382 . S
C633 C634 1.400 . S
C633 H644 0.930 . S
C634 C633 1.400 . S
C634 C635 1.384 . S
C635 C634 1.384 . S
C635 C637 1.392 . S
C635 H645 0.931 . S
C636 C632 1.393 . S
C636 C637 1.401 . S
C636 H646 0.930 . S
C637 C635 1.392 . S
C637 C636 1.401 . S
C637 H647 0.930 . S
C638 O616 1.262 . S
C638 O617 1.260 . S
C639 Tb575 2.833 . S
C639 O614 1.251 . S
C639 O619 1.256 . S
C639 C632 1.500 . S
H640 C623 0.930 . S
H641 C624 0.931 . S
H642 C625 0.930 . S
H643 C626 0.930 . S
H644 C633 0.930 . S
H645 C635 0.931 . S
H646 C636 0.930 . S
H647 C637 0.930 . S
H648 C666 0.951 . S
H649 C668 0.951 . S
H650 C670 0.950 . S
H651 C671 0.950 . S
H652 C673 0.950 . S
H653 C676 0.950 . S
H654 C677 0.950 . S
H655 C679 0.950 . S
H656 C680 0.950 . S
H657 C681 0.951 . S
H658 C683 0.951 . S
H659 C685 0.950 . S
H660 C686 0.950 1_565 S
H661 C688 0.950 . S
H662 C691 0.950 . S
H663 C692 0.950 . S
H664 C694 0.950 . S
H665 C695 0.950 . S
C666 H648 0.951 . S
C666 C667 1.366 . S
C666 C668 1.388 . S
C667 C666 1.366 . S
C667 C671 1.385 . S
C668 H649 0.951 . S
C668 C666 1.388 . S
C668 C669 1.366 . S
C669 C668 1.366 . S
C669 C670 1.414 . S
C669 C672 1.499 . S
C670 H650 0.950 . S
C670 C669 1.414 . S
C670 C671 1.374 . S
C671 H651 0.950 . S
C671 C667 1.385 . S
C671 C670 1.374 . S
C672 C669 1.499 . S
C672 C673 1.373 . S
C672 C674 1.389 . S
C673 H652 0.950 . S
C673 C672 1.373 . S
C673 C689 1.377 . S
C674 C672 1.389 . S
C674 C675 1.524 . S
C674 C688 1.377 . S
C675 C674 1.524 . S
C675 C676 1.397 . S
C675 C680 1.363 . S
C676 H653 0.950 . S
C676 C675 1.397 . S
C676 C677 1.334 . S
C677 H654 0.950 . S
C677 C676 1.334 . S
C677 C678 1.287 . S
C678 C677 1.287 . S
C678 C679 1.524 . S
C678 H697 0.913 . S
C679 H655 0.950 . S
C679 C678 1.524 . S
C679 C680 1.415 . S
C680 H656 0.950 . S
C680 C675 1.363 . S
C680 C679 1.415 . S
C681 H657 0.951 . S
C681 C682 1.366 . S
C681 C683 1.388 . S
C682 C681 1.366 . S
C682 C686 1.385 . S
C683 H658 0.951 . S
C683 C681 1.388 . S
C683 C684 1.366 . S
C684 C683 1.366 . S
C684 C685 1.414 . S
C684 C687 1.499 . S
C685 H659 0.950 . S
C685 C684 1.414 . S
C685 C686 1.374 . S
C686 H660 0.950 1_545 S
C686 C682 1.385 . S
C686 C685 1.374 . S
C687 C684 1.499 . S
C687 C688 1.373 . S
C687 C689 1.389 . S
C688 H661 0.950 . S
C688 C674 1.377 . S
C688 C687 1.373 . S
C689 C673 1.377 . S
C689 C687 1.389 . S
C689 C690 1.524 . S
C690 C689 1.524 . S
C690 C691 1.397 . S
C690 C695 1.363 . S
C691 H662 0.950 . S
C691 C690 1.397 . S
C691 C692 1.334 . S
C692 H663 0.950 . S
C692 C691 1.334 . S
C692 C693 1.287 . S
C693 C692 1.287 . S
C693 C694 1.524 . S
C693 H696 0.999 . S
C694 H664 0.950 . S
C694 C693 1.524 . S
C694 C695 1.415 . S
C695 H665 0.950 . S
C695 C690 1.363 . S
C695 C694 1.415 . S
H696 C693 0.999 . S
H697 C678 0.913 . S
H698 C716 0.951 . S
H699 C718 0.951 . S
H700 C720 0.950 . S
H701 C721 0.950 . S
H702 C723 0.950 . S
H703 C726 0.950 . S
H704 C727 0.950 . S
H705 C729 0.950 . S
H706 C730 0.950 . S
H707 C731 0.951 . S
H708 C733 0.951 . S
H709 C735 0.950 . S
H710 C736 0.950 . S
H711 C738 0.950 . S
H712 C741 0.950 . S
H713 C742 0.950 . S
H714 C744 0.950 . S
H715 C745 0.950 . S
C716 H698 0.951 . S
C716 C717 1.366 . S
C716 C718 1.388 . S
C717 C716 1.366 . S
C717 C721 1.385 . S
C718 H699 0.951 . S
C718 C716 1.388 . S
C718 C719 1.366 . S
C719 C718 1.366 . S
C719 C720 1.414 . S
C719 C722 1.499 . S
C720 H700 0.950 . S
C720 C719 1.414 . S
C720 C721 1.374 . S
C721 H701 0.950 . S
C721 C717 1.385 . S
C721 C720 1.374 . S
C722 C719 1.499 . S
C722 C723 1.373 . S
C722 C724 1.389 . S
C723 H702 0.950 . S
C723 C722 1.373 . S
C723 C739 1.377 . S
C724 C722 1.389 . S
C724 C725 1.524 . S
C724 C738 1.377 . S
C725 C724 1.524 . S
C725 C726 1.397 . S
C725 C730 1.363 . S
C726 H703 0.950 . S
C726 C725 1.397 . S
C726 C727 1.334 . S
C727 H704 0.950 . S
C727 C726 1.334 . S
C727 C728 1.287 . S
C728 C727 1.287 . S
C728 C729 1.524 . S
C728 H747 0.913 . S
C729 H705 0.950 . S
C729 C728 1.524 . S
C729 C730 1.415 . S
C730 H706 0.950 . S
C730 C725 1.363 . S
C730 C729 1.415 . S
C731 H707 0.951 . S
C731 C732 1.366 . S
C731 C733 1.388 . S
C732 C731 1.366 . S
C732 C736 1.385 . S
C733 H708 0.951 . S
C733 C731 1.388 . S
C733 C734 1.366 . S
C734 C733 1.366 . S
C734 C735 1.414 . S
C734 C737 1.499 . S
C735 H709 0.950 . S
C735 C734 1.414 . S
C735 C736 1.374 . S
C736 H710 0.950 . S
C736 C732 1.385 . S
C736 C735 1.374 . S
C737 C734 1.499 . S
C737 C738 1.373 . S
C737 C739 1.389 . S
C738 H711 0.950 . S
C738 C724 1.377 . S
C738 C737 1.373 . S
C739 C723 1.377 . S
C739 C737 1.389 . S
C739 C740 1.524 . S
C740 C739 1.524 . S
C740 C741 1.397 . S
C740 C745 1.363 . S
C741 H712 0.950 . S
C741 C740 1.397 . S
C741 C742 1.334 . S
C742 H713 0.950 . S
C742 C741 1.334 . S
C742 C743 1.287 . S
C743 C742 1.287 . S
C743 C744 1.524 . S
C743 H746 0.999 . S
C744 H714 0.950 . S
C744 C743 1.524 . S
C744 C745 1.415 . S
C745 H715 0.950 . S
C745 C740 1.363 . S
C745 C744 1.415 . S
H746 C743 0.999 . S
H747 C728 0.913 . S
H748 C766 0.951 . S
H749 C768 0.951 . S
H750 C770 0.950 . S
H751 C771 0.950 . S
H752 C773 0.950 . S
H753 C776 0.950 . S
H754 C777 0.950 . S
H755 C779 0.950 . S
H756 C780 0.950 . S
H757 C781 0.951 . S
H758 C783 0.951 . S
H759 C785 0.950 . S
H760 C786 0.950 . S
H761 C788 0.950 . S
H762 C791 0.950 . S
H763 C792 0.950 . S
H764 C794 0.950 . S
H765 C795 0.950 . S
C766 H748 0.951 . S
C766 C767 1.366 . S
C766 C768 1.388 . S
C767 C766 1.366 . S
C767 C771 1.385 . S
C768 H749 0.951 . S
C768 C766 1.388 . S
C768 C769 1.366 . S
C769 C768 1.366 . S
C769 C770 1.414 . S
C769 C772 1.499 . S
C770 H750 0.950 . S
C770 C769 1.414 . S
C770 C771 1.374 . S
C771 H751 0.950 . S
C771 C767 1.385 . S
C771 C770 1.374 . S
C772 C769 1.499 . S
C772 C773 1.373 . S
C772 C774 1.389 . S
C773 H752 0.950 . S
C773 C772 1.373 . S
C773 C789 1.377 . S
C774 C772 1.389 . S
C774 C775 1.524 . S
C774 C788 1.377 . S
C775 C774 1.524 . S
C775 C776 1.397 . S
C775 C780 1.363 . S
C776 H753 0.950 . S
C776 C775 1.397 . S
C776 C777 1.334 . S
C777 H754 0.950 . S
C777 C776 1.334 . S
C777 C778 1.287 . S
C778 C777 1.287 . S
C778 C779 1.524 . S
C778 H797 0.913 . S
C779 H755 0.950 . S
C779 C778 1.524 . S
C779 C780 1.415 . S
C780 H756 0.950 . S
C780 C775 1.363 . S
C780 C779 1.415 . S
C781 H757 0.951 . S
C781 C782 1.366 . S
C781 C783 1.388 . S
C782 C781 1.366 . S
C782 C786 1.385 . S
C783 H758 0.951 . S
C783 C781 1.388 . S
C783 C784 1.366 . S
C784 C783 1.366 . S
C784 C785 1.414 . S
C784 C787 1.499 . S
C785 H759 0.950 . S
C785 C784 1.414 . S
C785 C786 1.374 . S
C786 H760 0.950 . S
C786 C782 1.385 . S
C786 C785 1.374 . S
C787 C784 1.499 . S
C787 C788 1.373 . S
C787 C789 1.389 . S
C788 H761 0.950 . S
C788 C774 1.377 . S
C788 C787 1.373 . S
C789 C773 1.377 . S
C789 C787 1.389 . S
C789 C790 1.524 . S
C790 C789 1.524 . S
C790 C791 1.397 . S
C790 C795 1.363 . S
C791 H762 0.950 . S
C791 C790 1.397 . S
C791 C792 1.334 . S
C792 H763 0.950 . S
C792 C791 1.334 . S
C792 C793 1.287 . S
C793 C792 1.287 . S
C793 C794 1.524 . S
C793 H796 0.999 . S
C794 H764 0.950 . S
C794 C793 1.524 . S
C794 C795 1.415 . S
C795 H765 0.950 . S
C795 C790 1.363 . S
C795 C794 1.415 . S
H796 C793 0.999 . S
H797 C778 0.913 . S
H798 C816 0.951 . S
H799 C818 0.951 . S
H800 C820 0.950 . S
H801 C821 0.950 . S
H802 C823 0.950 . S
H803 C826 0.950 . S
H804 C827 0.950 . S
H805 C829 0.950 . S
H806 C830 0.950 . S
H807 C831 0.951 . S
H808 C833 0.951 . S
H809 C835 0.950 . S
H810 C836 0.950 . S
H811 C838 0.950 . S
H812 C841 0.950 1_455 S
H813 C842 0.950 . S
H814 C844 0.950 . S
H815 C845 0.950 . S
C816 H798 0.951 . S
C816 C817 1.366 . S
C816 C818 1.388 . S
C817 C816 1.366 . S
C817 C821 1.385 . S
C818 H799 0.951 . S
C818 C816 1.388 . S
C818 C819 1.366 . S
C819 C818 1.366 . S
C819 C820 1.414 . S
C819 C822 1.499 . S
C820 H800 0.950 . S
C820 C819 1.414 . S
C820 C821 1.374 . S
C821 H801 0.950 . S
C821 C817 1.385 . S
C821 C820 1.374 . S
C822 C819 1.499 . S
C822 C823 1.373 . S
C822 C824 1.389 . S
C823 H802 0.950 . S
C823 C822 1.373 . S
C823 C839 1.377 . S
C824 C822 1.389 . S
C824 C825 1.524 . S
C824 C838 1.377 . S
C825 C824 1.524 . S
C825 C826 1.397 . S
C825 C830 1.363 . S
C826 H803 0.950 . S
C826 C825 1.397 . S
C826 C827 1.334 . S
C827 H804 0.950 . S
C827 C826 1.334 . S
C827 C828 1.287 . S
C828 C827 1.287 . S
C828 C829 1.524 . S
C828 H847 0.913 . S
C829 H805 0.950 . S
C829 C828 1.524 . S
C829 C830 1.415 . S
C830 H806 0.950 . S
C830 C825 1.363 . S
C830 C829 1.415 . S
C831 H807 0.951 . S
C831 C832 1.366 . S
C831 C833 1.388 . S
C832 C831 1.366 . S
C832 C836 1.385 . S
C833 H808 0.951 . S
C833 C831 1.388 . S
C833 C834 1.366 . S
C834 C833 1.366 . S
C834 C835 1.414 . S
C834 C837 1.499 . S
C835 H809 0.950 . S
C835 C834 1.414 . S
C835 C836 1.374 . S
C836 H810 0.950 . S
C836 C832 1.385 . S
C836 C835 1.374 . S
C837 C834 1.499 . S
C837 C838 1.373 . S
C837 C839 1.389 . S
C838 H811 0.950 . S
C838 C824 1.377 . S
C838 C837 1.373 . S
C839 C823 1.377 . S
C839 C837 1.389 . S
C839 C840 1.524 . S
C840 C839 1.524 . S
C840 C841 1.397 1_455 S
C840 C845 1.363 . S
C841 H812 0.950 1_655 S
C841 C840 1.397 1_655 S
C841 C842 1.334 . S
C842 H813 0.950 . S
C842 C841 1.334 . S
C842 C843 1.287 . S
C843 C842 1.287 . S
C843 C844 1.524 . S
C843 H846 0.999 . S
C844 H814 0.950 . S
C844 C843 1.524 . S
C844 C845 1.415 1_655 S
C845 H815 0.950 . S
C845 C840 1.363 . S
C845 C844 1.415 1_455 S
H846 C843 0.999 . S
H847 C828 0.913 . S
H848 C866 0.951 . S
H849 C868 0.951 1_554 S
H850 C870 0.950 . S
H851 C871 0.950 . S
H852 C873 0.950 . S
H853 C876 0.950 . S
H854 C877 0.950 . S
H855 C879 0.950 . S
H856 C880 0.950 . S
H857 C881 0.951 . S
H858 C883 0.951 . S
H859 C885 0.950 . S
H860 C886 0.950 . S
H861 C888 0.950 . S
H862 C891 0.950 . S
H863 C892 0.950 . S
H864 C894 0.950 . S
H865 C895 0.950 . S
C866 H848 0.951 . S
C866 C867 1.366 . S
C866 C868 1.388 1_554 S
C867 C866 1.366 . S
C867 C871 1.385 1_554 S
C868 H849 0.951 1_556 S
C868 C866 1.388 1_556 S
C868 C869 1.365 . S
C869 C868 1.365 . S
C869 C870 1.414 . S
C869 C872 1.499 . S
C870 H850 0.950 . S
C870 C869 1.414 . S
C870 C871 1.374 . S
C871 H851 0.950 . S
C871 C867 1.385 1_556 S
C871 C870 1.374 . S
C872 C869 1.499 . S
C872 C873 1.373 . S
C872 C874 1.389 . S
C873 H852 0.950 . S
C873 C872 1.373 . S
C873 C889 1.377 . S
C874 C872 1.389 . S
C874 C875 1.524 . S
C874 C888 1.377 . S
C875 C874 1.524 . S
C875 C876 1.397 . S
C875 C880 1.363 . S
C876 H853 0.950 . S
C876 C875 1.397 . S
C876 C877 1.334 1_566 S
C877 H854 0.950 . S
C877 C876 1.334 1_544 S
C877 C878 1.287 . S
C878 C877 1.287 . S
C878 C879 1.524 1_545 S
C878 H897 0.913 . S
C879 H855 0.950 . S
C879 C878 1.524 1_565 S
C879 C880 1.415 1_554 S
C880 H856 0.950 . S
C880 C875 1.363 . S
C880 C879 1.415 1_556 S
C881 H857 0.951 . S
C881 C882 1.366 . S
C881 C883 1.388 . S
C882 C881 1.366 . S
C882 C886 1.385 . S
C883 H858 0.951 . S
C883 C881 1.388 . S
C883 C884 1.366 . S
C884 C883 1.366 . S
C884 C885 1.414 . S
C884 C887 1.499 . S
C885 H859 0.950 . S
C885 C884 1.414 . S
C885 C886 1.374 . S
C886 H860 0.950 . S
C886 C882 1.385 . S
C886 C885 1.374 . S
C887 C884 1.499 . S
C887 C888 1.373 . S
C887 C889 1.389 . S
C888 H861 0.950 . S
C888 C874 1.377 . S
C888 C887 1.373 . S
C889 C873 1.377 . S
C889 C887 1.389 . S
C889 C890 1.524 . S
C890 C889 1.524 . S
C890 C891 1.397 . S
C890 C895 1.363 . S
C891 H862 0.950 . S
C891 C890 1.397 . S
C891 C892 1.334 . S
C892 H863 0.950 . S
C892 C891 1.334 . S
C892 C893 1.287 . S
C893 C892 1.287 . S
C893 C894 1.524 . S
C893 H896 0.999 . S
C894 H864 0.950 . S
C894 C893 1.524 . S
C894 C895 1.415 . S
C895 H865 0.950 . S
C895 C890 1.363 . S
C895 C894 1.415 . S
H896 C893 0.999 . S
H897 C878 0.913 . S
H898 C916 0.951 . S
H899 C918 0.951 . S
H900 C920 0.954 . S
H901 C921 0.950 . S
H902 C923 0.950 . S
H903 C926 0.950 . S
H904 C927 0.950 . S
H905 C929 0.950 . S
H906 C930 0.950 . S
H907 C931 0.951 . S
H908 C933 0.951 . S
H909 C935 0.950 . S
H910 C936 0.950 . S
H911 C938 0.950 . S
H912 C941 0.950 . S
H913 C942 0.950 . S
H914 C944 0.950 . S
H915 C945 0.950 . S
C916 H898 0.951 . S
C916 C917 1.366 1_556 S
C916 C918 1.388 . S
C917 C916 1.366 1_554 S
C917 C921 1.385 . S
C918 H899 0.951 . S
C918 C916 1.388 . S
C918 C919 1.366 . S
C919 C918 1.366 . S
C919 C920 1.394 1_556 S
C919 C922 1.499 . S
C920 H900 0.954 . S
C920 C919 1.394 1_554 S
C920 C921 1.390 . S
C921 H901 0.950 . S
C921 C917 1.385 . S
C921 C920 1.390 . S
C922 C919 1.499 . S
C922 C923 1.373 . S
C922 C924 1.389 . S
C923 H902 0.950 . S
C923 C922 1.373 . S
C923 C939 1.377 . S
C924 C922 1.389 . S
C924 C925 1.524 . S
C924 C938 1.377 . S
C925 C924 1.524 . S
C925 C926 1.397 . S
C925 C930 1.363 . S
C926 H903 0.950 . S
C926 C925 1.397 . S
C926 C927 1.334 . S
C927 H904 0.950 . S
C927 C926 1.334 . S
C927 C928 1.287 . S
C928 C927 1.287 . S
C928 C929 1.524 . S
C928 H947 0.913 . S
C929 H905 0.950 . S
C929 C928 1.524 . S
C929 C930 1.415 . S
C930 H906 0.950 . S
C930 C925 1.363 . S
C930 C929 1.415 . S
C931 H907 0.951 . S
C931 C932 1.366 . S
C931 C933 1.388 . S
C932 C931 1.366 . S
C932 C936 1.385 . S
C933 H908 0.951 . S
C933 C931 1.388 . S
C933 C934 1.366 . S
C934 C933 1.366 . S
C934 C935 1.414 . S
C934 C937 1.499 . S
C935 H909 0.950 . S
C935 C934 1.414 . S
C935 C936 1.374 . S
C936 H910 0.950 . S
C936 C932 1.385 . S
C936 C935 1.374 . S
C937 C934 1.499 . S
C937 C938 1.373 . S
C937 C939 1.389 . S
C938 H911 0.950 . S
C938 C924 1.377 . S
C938 C937 1.373 . S
C939 C923 1.377 . S
C939 C937 1.389 . S
C939 C940 1.524 . S
C940 C939 1.524 . S
C940 C941 1.397 . S
C940 C945 1.363 . S
C941 H912 0.950 . S
C941 C940 1.397 . S
C941 C942 1.334 . S
C942 H913 0.950 . S
C942 C941 1.334 . S
C942 C943 1.287 . S
C943 C942 1.287 . S
C943 C944 1.524 . S
C943 H946 0.999 . S
C944 H914 0.950 . S
C944 C943 1.524 . S
C944 C945 1.415 . S
C945 H915 0.950 . S
C945 C940 1.363 . S
C945 C944 1.415 . S
H946 C943 0.999 . S
H947 C928 0.913 . S
H948 C966 0.951 . S
H949 C968 0.951 . S
H950 C970 0.950 . S
H951 C971 0.950 1_554 S
H952 C973 0.950 . S
H953 C976 0.950 . S
H954 C977 0.950 . S
H955 C979 0.950 . S
H956 C980 0.950 . S
H957 C981 0.951 . S
H958 C983 0.951 . S
H959 C985 0.950 . S
H960 C986 0.950 . S
H961 C988 0.950 . S
H962 C991 0.950 . S
H963 C992 0.950 . S
H964 C994 0.950 . S
H965 C995 0.950 . S
C966 H948 0.951 . S
C966 C967 1.366 . S
C966 C968 1.388 1_554 S
C967 C966 1.366 . S
C967 C971 1.385 1_554 S
C968 H949 0.951 . S
C968 C966 1.388 1_556 S
C968 C969 1.366 . S
C969 C968 1.366 . S
C969 C970 1.414 . S
C969 C972 1.499 . S
C970 H950 0.950 . S
C970 C969 1.414 . S
C970 C971 1.374 . S
C971 H951 0.950 1_556 S
C971 C967 1.385 1_556 S
C971 C970 1.374 . S
C972 C969 1.499 . S
C972 C973 1.373 . S
C972 C974 1.389 . S
C973 H952 0.950 . S
C973 C972 1.373 . S
C973 C989 1.377 . S
C974 C972 1.389 . S
C974 C975 1.524 . S
C974 C988 1.377 . S
C975 C974 1.524 . S
C975 C976 1.397 . S
C975 C980 1.363 . S
C976 H953 0.950 . S
C976 C975 1.397 . S
C976 C977 1.334 . S
C977 H954 0.950 . S
C977 C976 1.334 . S
C977 C978 1.287 . S
C978 C977 1.287 . S
C978 C979 1.524 . S
C978 H997 0.913 . S
C979 H955 0.950 . S
C979 C978 1.524 . S
C979 C980 1.415 . S
C980 H956 0.950 . S
C980 C975 1.363 . S
C980 C979 1.415 . S
C981 H957 0.951 . S
C981 C982 1.366 . S
C981 C983 1.388 . S
C982 C981 1.366 . S
C982 C986 1.385 . S
C983 H958 0.951 . S
C983 C981 1.388 . S
C983 C984 1.366 . S
C984 C983 1.366 . S
C984 C985 1.414 . S
C984 C987 1.499 . S
C985 H959 0.950 . S
C985 C984 1.414 . S
C985 C986 1.374 . S
C986 H960 0.950 . S
C986 C982 1.385 . S
C986 C985 1.374 . S
C987 C984 1.499 . S
C987 C988 1.373 . S
C987 C989 1.389 . S
C988 H961 0.950 . S
C988 C974 1.377 . S
C988 C987 1.373 . S
C989 C973 1.377 . S
C989 C987 1.389 . S
C989 C990 1.524 . S
C990 C989 1.524 . S
C990 C991 1.397 . S
C990 C995 1.363 . S
C991 H962 0.950 . S
C991 C990 1.397 . S
C991 C992 1.334 . S
C992 H963 0.950 . S
C992 C991 1.334 . S
C992 C993 1.287 . S
C993 C992 1.287 . S
C993 C994 1.524 . S
C993 H996 0.999 . S
C994 H964 0.950 . S
C994 C993 1.524 . S
C994 C995 1.415 . S
C995 H965 0.950 . S
C995 C990 1.363 . S
C995 C994 1.415 . S
H996 C993 0.999 . S
H997 C978 0.913 . S
H998 C1016 0.951 . S
H999 C1018 0.951 . S
H1000 C1020 0.949 1_554 S
H1001 C1021 0.950 . S
H1002 C1023 0.950 . S
H1003 C1026 0.950 . S
H1004 C1027 0.950 . S
H1005 C1029 0.950 . S
H1006 C1030 0.950 . S
H1007 C1031 0.951 . S
H1008 C1033 0.951 . S
H1009 C1035 0.950 . S
H1010 C1036 0.950 . S
H1011 C1038 0.950 . S
H1012 C1041 0.950 . S
H1013 C1042 0.950 . S
H1014 C1044 0.950 . S
H1015 C1045 0.950 . S
C1016 H998 0.951 . S
C1016 C1017 1.366 1_556 S
C1016 C1018 1.388 . S
C1017 C1016 1.366 1_554 S
C1017 C1021 1.385 . S
C1018 H999 0.951 . S
C1018 C1016 1.388 . S
C1018 C1019 1.366 . S
C1019 C1018 1.366 . S
C1019 C1020 1.430 . S
C1019 C1022 1.499 . S
C1020 H1000 0.949 1_556 S
C1020 C1019 1.430 . S
C1020 C1021 1.359 1_556 S
C1021 H1001 0.950 . S
C1021 C1017 1.385 . S
C1021 C1020 1.359 1_554 S
C1022 C1019 1.499 . S
C1022 C1023 1.373 . S
C1022 C1024 1.389 . S
C1023 H1002 0.950 . S
C1023 C1022 1.373 . S
C1023 C1039 1.377 . S
C1024 C1022 1.389 . S
C1024 C1025 1.524 . S
C1024 C1038 1.377 . S
C1025 C1024 1.524 . S
C1025 C1026 1.397 . S
C1025 C1030 1.363 . S
C1026 H1003 0.950 . S
C1026 C1025 1.397 . S
C1026 C1027 1.334 . S
C1027 H1004 0.950 . S
C1027 C1026 1.334 . S
C1027 C1028 1.287 . S
C1028 C1027 1.287 . S
C1028 C1029 1.524 . S
C1028 H1047 0.913 . S
C1029 H1005 0.950 . S
C1029 C1028 1.524 . S
C1029 C1030 1.415 . S
C1030 H1006 0.950 . S
C1030 C1025 1.363 . S
C1030 C1029 1.415 . S
C1031 H1007 0.951 . S
C1031 C1032 1.366 . S
C1031 C1033 1.388 . S
C1032 C1031 1.366 . S
C1032 C1036 1.385 . S
C1033 H1008 0.951 . S
C1033 C1031 1.388 . S
C1033 C1034 1.366 . S
C1034 C1033 1.366 . S
C1034 C1035 1.414 . S
C1034 C1037 1.499 . S
C1035 H1009 0.950 . S
C1035 C1034 1.414 . S
C1035 C1036 1.374 . S
C1036 H1010 0.950 . S
C1036 C1032 1.385 . S
C1036 C1035 1.374 . S
C1037 C1034 1.499 . S
C1037 C1038 1.373 . S
C1037 C1039 1.389 . S
C1038 H1011 0.950 . S
C1038 C1024 1.377 . S
C1038 C1037 1.373 . S
C1039 C1023 1.377 . S
C1039 C1037 1.389 . S
C1039 C1040 1.524 . S
C1040 C1039 1.524 . S
C1040 C1041 1.397 1_655 S
C1040 C1045 1.363 . S
C1041 H1012 0.950 . S
C1041 C1040 1.397 1_455 S
C1041 C1042 1.334 . S
C1042 H1013 0.950 . S
C1042 C1041 1.334 . S
C1042 C1043 1.287 . S
C1043 C1042 1.287 . S
C1043 C1044 1.524 . S
C1043 H1046 0.999 . S
C1044 H1014 0.950 . S
C1044 C1043 1.524 . S
C1044 C1045 1.415 1_455 S
C1045 H1015 0.950 . S
C1045 C1040 1.363 . S
C1045 C1044 1.415 1_655 S
H1046 C1043 0.999 . S
H1047 C1028 0.913 . S
H1048 C1066 0.951 . S
H1049 C1068 0.951 . S
H1050 C1070 0.950 . S
H1051 C1071 0.950 . S
H1052 C1073 0.950 . S
H1053 C1076 0.950 . S
H1054 C1077 0.950 . S
H1055 C1079 0.950 . S
H1056 C1080 0.950 . S
H1057 C1081 0.951 . S
H1058 C1083 0.951 . S
H1059 C1085 0.950 1_655 S
H1060 C1086 0.950 . S
H1061 C1088 0.950 . S
H1062 C1091 0.950 . S
H1063 C1092 0.950 . S
H1064 C1094 0.950 . S
H1065 C1095 0.950 . S
C1066 H1048 0.951 . S
C1066 C1067 1.366 . S
C1066 C1068 1.388 . S
C1067 C1066 1.366 . S
C1067 C1071 1.385 . S
C1068 H1049 0.951 . S
C1068 C1066 1.388 . S
C1068 C1069 1.366 . S
C1069 C1068 1.366 . S
C1069 C1070 1.414 . S
C1069 C1072 1.499 . S
C1070 H1050 0.950 . S
C1070 C1069 1.414 . S
C1070 C1071 1.374 . S
C1071 H1051 0.950 . S
C1071 C1067 1.385 . S
C1071 C1070 1.374 . S
C1072 C1069 1.499 . S
C1072 C1073 1.373 . S
C1072 C1074 1.389 . S
C1073 H1052 0.950 . S
C1073 C1072 1.373 . S
C1073 C1089 1.377 . S
C1074 C1072 1.389 . S
C1074 C1075 1.524 . S
C1074 C1088 1.377 . S
C1075 C1074 1.524 . S
C1075 C1076 1.397 . S
C1075 C1080 1.363 . S
C1076 H1053 0.950 . S
C1076 C1075 1.397 . S
C1076 C1077 1.334 . S
C1077 H1054 0.950 . S
C1077 C1076 1.334 . S
C1077 C1078 1.287 . S
C1078 C1077 1.287 . S
C1078 C1079 1.524 . S
C1078 H1097 0.913 . S
C1079 H1055 0.950 . S
C1079 C1078 1.524 . S
C1079 C1080 1.415 . S
C1080 H1056 0.950 . S
C1080 C1075 1.363 . S
C1080 C1079 1.415 . S
C1081 H1057 0.951 . S
C1081 C1082 1.366 . S
C1081 C1083 1.388 . S
C1082 C1081 1.366 . S
C1082 C1086 1.385 1_455 S
C1083 H1058 0.951 . S
C1083 C1081 1.388 . S
C1083 C1084 1.366 . S
C1084 C1083 1.366 . S
C1084 C1085 1.414 . S
C1084 C1087 1.499 . S
C1085 H1059 0.950 1_455 S
C1085 C1084 1.414 . S
C1085 C1086 1.374 1_455 S
C1086 H1060 0.950 . S
C1086 C1082 1.385 1_655 S
C1086 C1085 1.374 1_655 S
C1087 C1084 1.499 . S
C1087 C1088 1.373 . S
C1087 C1089 1.389 . S
C1088 H1061 0.950 . S
C1088 C1074 1.377 . S
C1088 C1087 1.373 . S
C1089 C1073 1.377 . S
C1089 C1087 1.389 . S
C1089 C1090 1.524 . S
C1090 C1089 1.524 . S
C1090 C1091 1.397 . S
C1090 C1095 1.363 . S
C1091 H1062 0.950 . S
C1091 C1090 1.397 . S
C1091 C1092 1.334 . S
C1092 H1063 0.950 . S
C1092 C1091 1.334 . S
C1092 C1093 1.287 . S
C1093 C1092 1.287 . S
C1093 C1094 1.524 . S
C1093 H1096 0.999 . S
C1094 H1064 0.950 . S
C1094 C1093 1.524 . S
C1094 C1095 1.415 . S
C1095 H1065 0.950 . S
C1095 C1090 1.363 . S
C1095 C1094 1.415 . S
H1096 C1093 0.999 . S
H1097 C1078 0.913 . S
H1098 C1116 0.951 . S
H1099 C1118 0.951 . S
H1100 C1120 0.950 . S
H1101 C1121 0.950 . S
H1102 C1123 0.950 . S
H1103 C1126 0.950 . S
H1104 C1127 0.950 . S
H1105 C1129 0.950 . S
H1106 C1130 0.950 . S
H1107 C1131 0.951 . S
H1108 C1133 0.951 . S
H1109 C1135 0.950 . S
H1110 C1136 0.950 . S
H1111 C1138 0.950 . S
H1112 C1141 0.950 . S
H1113 C1142 0.950 . S
H1114 C1144 0.950 . S
H1115 C1145 0.950 . S
C1116 H1098 0.951 . S
C1116 C1117 1.366 . S
C1116 C1118 1.388 . S
C1117 C1116 1.366 . S
C1117 C1121 1.385 . S
C1118 H1099 0.951 . S
C1118 C1116 1.388 . S
C1118 C1119 1.366 . S
C1119 C1118 1.366 . S
C1119 C1120 1.414 . S
C1119 C1122 1.499 . S
C1120 H1100 0.950 . S
C1120 C1119 1.414 . S
C1120 C1121 1.374 . S
C1121 H1101 0.950 . S
C1121 C1117 1.385 . S
C1121 C1120 1.374 . S
C1122 C1119 1.499 . S
C1122 C1123 1.373 . S
C1122 C1124 1.389 . S
C1123 H1102 0.950 . S
C1123 C1122 1.373 . S
C1123 C1139 1.377 . S
C1124 C1122 1.389 . S
C1124 C1125 1.524 . S
C1124 C1138 1.377 . S
C1125 C1124 1.524 . S
C1125 C1126 1.397 . S
C1125 C1130 1.363 . S
C1126 H1103 0.950 . S
C1126 C1125 1.397 . S
C1126 C1127 1.334 . S
C1127 H1104 0.950 . S
C1127 C1126 1.334 . S
C1127 C1128 1.287 . S
C1128 C1127 1.287 . S
C1128 C1129 1.524 . S
C1128 H1147 0.913 . S
C1129 H1105 0.950 . S
C1129 C1128 1.524 . S
C1129 C1130 1.415 . S
C1130 H1106 0.950 . S
C1130 C1125 1.363 . S
C1130 C1129 1.415 . S
C1131 H1107 0.951 . S
C1131 C1132 1.366 . S
C1131 C1133 1.388 . S
C1132 C1131 1.366 . S
C1132 C1136 1.385 . S
C1133 H1108 0.951 . S
C1133 C1131 1.388 . S
C1133 C1134 1.366 . S
C1134 C1133 1.366 . S
C1134 C1135 1.414 . S
C1134 C1137 1.499 . S
C1135 H1109 0.950 . S
C1135 C1134 1.414 . S
C1135 C1136 1.374 . S
C1136 H1110 0.950 . S
C1136 C1132 1.385 . S
C1136 C1135 1.374 . S
C1137 C1134 1.499 . S
C1137 C1138 1.373 . S
C1137 C1139 1.389 . S
C1138 H1111 0.950 . S
C1138 C1124 1.377 . S
C1138 C1137 1.373 . S
C1139 C1123 1.377 . S
C1139 C1137 1.389 . S
C1139 C1140 1.524 . S
C1140 C1139 1.524 . S
C1140 C1141 1.397 . S
C1140 C1145 1.363 . S
C1141 H1112 0.950 . S
C1141 C1140 1.397 . S
C1141 C1142 1.334 . S
C1142 H1113 0.950 . S
C1142 C1141 1.334 . S
C1142 C1143 1.287 . S
C1143 C1142 1.287 . S
C1143 C1144 1.524 . S
C1143 H1146 0.999 . S
C1144 H1114 0.950 . S
C1144 C1143 1.524 . S
C1144 C1145 1.415 . S
C1145 H1115 0.950 . S
C1145 C1140 1.363 . S
C1145 C1144 1.415 . S
H1146 C1143 0.999 . S
H1147 C1128 0.913 . S
H1148 C1166 0.951 . S
H1149 C1168 0.951 . S
H1150 C1170 0.950 . S
H1151 C1171 0.950 . S
H1152 C1173 0.950 . S
H1153 C1176 0.950 . S
H1154 C1177 0.950 . S
H1155 C1179 0.950 . S
H1156 C1180 0.950 . S
H1157 C1181 0.951 . S
H1158 C1183 0.951 . S
H1159 C1185 0.950 . S
H1160 C1186 0.950 . S
H1161 C1188 0.950 . S
H1162 C1191 0.950 . S
H1163 C1192 0.950 . S
H1164 C1194 0.950 . S
H1165 C1195 0.950 . S
C1166 H1148 0.951 . S
C1166 C1167 1.366 . S
C1166 C1168 1.388 . S
C1167 C1166 1.366 . S
C1167 C1171 1.385 . S
C1168 H1149 0.951 . S
C1168 C1166 1.388 . S
C1168 C1169 1.366 . S
C1169 C1168 1.366 . S
C1169 C1170 1.414 . S
C1169 C1172 1.499 . S
C1170 H1150 0.950 . S
C1170 C1169 1.414 . S
C1170 C1171 1.374 . S
C1171 H1151 0.950 . S
C1171 C1167 1.385 . S
C1171 C1170 1.374 . S
C1172 C1169 1.499 . S
C1172 C1173 1.373 . S
C1172 C1174 1.389 . S
C1173 H1152 0.950 . S
C1173 C1172 1.373 . S
C1173 C1189 1.377 . S
C1174 C1172 1.389 . S
C1174 C1175 1.524 . S
C1174 C1188 1.377 . S
C1175 C1174 1.524 . S
C1175 C1176 1.397 . S
C1175 C1180 1.363 . S
C1176 H1153 0.950 . S
C1176 C1175 1.397 . S
C1176 C1177 1.334 . S
C1177 H1154 0.950 . S
C1177 C1176 1.334 . S
C1177 C1178 1.287 . S
C1178 C1177 1.287 . S
C1178 C1179 1.524 . S
C1178 H1197 0.913 . S
C1179 H1155 0.950 . S
C1179 C1178 1.524 . S
C1179 C1180 1.415 . S
C1180 H1156 0.950 . S
C1180 C1175 1.363 . S
C1180 C1179 1.415 . S
C1181 H1157 0.951 . S
C1181 C1182 1.366 . S
C1181 C1183 1.388 . S
C1182 C1181 1.366 . S
C1182 C1186 1.385 . S
C1183 H1158 0.951 . S
C1183 C1181 1.388 . S
C1183 C1184 1.366 . S
C1184 C1183 1.366 . S
C1184 C1185 1.414 . S
C1184 C1187 1.499 . S
C1185 H1159 0.950 . S
C1185 C1184 1.414 . S
C1185 C1186 1.374 . S
C1186 H1160 0.950 . S
C1186 C1182 1.385 . S
C1186 C1185 1.374 . S
C1187 C1184 1.499 . S
C1187 C1188 1.373 . S
C1187 C1189 1.389 . S
C1188 H1161 0.950 . S
C1188 C1174 1.377 . S
C1188 C1187 1.373 . S
C1189 C1173 1.377 . S
C1189 C1187 1.389 . S
C1189 C1190 1.524 . S
C1190 C1189 1.524 . S
C1190 C1191 1.397 . S
C1190 C1195 1.363 . S
C1191 H1162 0.950 . S
C1191 C1190 1.397 . S
C1191 C1192 1.334 . S
C1192 H1163 0.950 . S
C1192 C1191 1.334 . S
C1192 C1193 1.287 . S
C1193 C1192 1.287 . S
C1193 C1194 1.524 . S
C1193 H1196 0.999 . S
C1194 H1164 0.950 . S
C1194 C1193 1.524 . S
C1194 C1195 1.415 . S
C1195 H1165 0.950 . S
C1195 C1190 1.363 . S
C1195 C1194 1.415 . S
H1196 C1193 0.999 . S
H1197 C1178 0.913 . S
H1198 C1216 0.951 . S
H1199 C1218 0.951 . S
H1200 C1220 0.950 . S
H1201 C1221 0.950 . S
H1202 C1223 0.950 . S
H1203 C1226 0.950 . S
H1204 C1227 0.950 . S
H1205 C1229 0.950 . S
H1206 C1230 0.950 . S
H1207 C1231 0.951 . S
H1208 C1233 0.951 . S
H1209 C1235 0.950 . S
H1210 C1236 0.950 . S
H1211 C1238 0.950 . S
H1212 C1241 0.950 . S
H1213 C1242 0.950 . S
H1214 C1244 0.950 . S
H1215 C1245 0.950 . S
C1216 H1198 0.951 . S
C1216 C1217 1.366 . S
C1216 C1218 1.388 . S
C1217 C1216 1.366 . S
C1217 C1221 1.385 . S
C1218 H1199 0.951 . S
C1218 C1216 1.388 . S
C1218 C1219 1.366 . S
C1219 C1218 1.366 . S
C1219 C1220 1.414 . S
C1219 C1222 1.499 . S
C1220 H1200 0.950 . S
C1220 C1219 1.414 . S
C1220 C1221 1.374 . S
C1221 H1201 0.950 . S
C1221 C1217 1.385 . S
C1221 C1220 1.374 . S
C1222 C1219 1.499 . S
C1222 C1223 1.373 . S
C1222 C1224 1.389 . S
C1223 H1202 0.950 . S
C1223 C1222 1.373 . S
C1223 C1239 1.377 . S
C1224 C1222 1.389 . S
C1224 C1225 1.524 . S
C1224 C1238 1.377 . S
C1225 C1224 1.524 . S
C1225 C1226 1.397 . S
C1225 C1230 1.363 . S
C1226 H1203 0.950 . S
C1226 C1225 1.397 . S
C1226 C1227 1.334 . S
C1227 H1204 0.950 . S
C1227 C1226 1.334 . S
C1227 C1228 1.287 . S
C1228 C1227 1.287 . S
C1228 C1229 1.524 . S
C1228 H1247 0.913 . S
C1229 H1205 0.950 . S
C1229 C1228 1.524 . S
C1229 C1230 1.415 . S
C1230 H1206 0.950 . S
C1230 C1225 1.363 . S
C1230 C1229 1.415 . S
C1231 H1207 0.951 . S
C1231 C1232 1.366 . S
C1231 C1233 1.388 . S
C1232 C1231 1.366 . S
C1232 C1236 1.385 . S
C1233 H1208 0.951 . S
C1233 C1231 1.388 . S
C1233 C1234 1.366 . S
C1234 C1233 1.366 . S
C1234 C1235 1.414 . S
C1234 C1237 1.499 . S
C1235 H1209 0.950 . S
C1235 C1234 1.414 . S
C1235 C1236 1.374 . S
C1236 H1210 0.950 . S
C1236 C1232 1.385 . S
C1236 C1235 1.374 . S
C1237 C1234 1.499 . S
C1237 C1238 1.373 . S
C1237 C1239 1.389 . S
C1238 H1211 0.950 . S
C1238 C1224 1.377 . S
C1238 C1237 1.373 . S
C1239 C1223 1.377 . S
C1239 C1237 1.389 . S
C1239 C1240 1.524 . S
C1240 C1239 1.524 . S
C1240 C1241 1.397 . S
C1240 C1245 1.363 . S
C1241 H1212 0.950 . S
C1241 C1240 1.397 . S
C1241 C1242 1.334 . S
C1242 H1213 0.950 . S
C1242 C1241 1.334 . S
C1242 C1243 1.287 . S
C1243 C1242 1.287 . S
C1243 C1244 1.524 . S
C1243 H1246 0.999 . S
C1244 H1214 0.950 . S
C1244 C1243 1.524 . S
C1244 C1245 1.415 . S
C1245 H1215 0.950 . S
C1245 C1240 1.363 . S
C1245 C1244 1.415 . S
H1246 C1243 0.999 . S
H1247 C1228 0.913 . S
H1248 C1266 0.951 . S
H1249 C1268 0.951 . S
H1250 C1270 0.950 . S
H1251 C1271 0.950 . S
H1252 C1273 0.950 . S
H1253 C1276 0.950 1_554 S
H1254 C1277 0.950 . S
H1255 C1279 0.950 . S
H1256 C1280 0.950 . S
H1257 C1281 0.951 . S
H1258 C1283 0.951 . S
H1259 C1285 0.950 . S
H1260 C1286 0.950 . S
H1261 C1288 0.950 . S
H1262 C1291 0.950 . S
H1263 C1292 0.950 . S
H1264 C1294 0.950 . S
H1265 C1295 0.950 . S
C1266 H1248 0.951 . S
C1266 C1267 1.366 . S
C1266 C1268 1.388 . S
C1267 C1266 1.366 . S
C1267 C1271 1.385 . S
C1268 H1249 0.951 . S
C1268 C1266 1.388 . S
C1268 C1269 1.366 . S
C1269 C1268 1.366 . S
C1269 C1270 1.414 . S
C1269 C1272 1.499 . S
C1270 H1250 0.950 . S
C1270 C1269 1.414 . S
C1270 C1271 1.374 . S
C1271 H1251 0.950 . S
C1271 C1267 1.385 . S
C1271 C1270 1.374 . S
C1272 C1269 1.499 . S
C1272 C1273 1.373 . S
C1272 C1274 1.389 . S
C1273 H1252 0.950 . S
C1273 C1272 1.373 . S
C1273 C1289 1.377 . S
C1274 C1272 1.389 . S
C1274 C1275 1.524 . S
C1274 C1288 1.377 . S
C1275 C1274 1.524 . S
C1275 C1276 1.397 . S
C1275 C1280 1.363 1_655 S
C1276 H1253 0.950 1_556 S
C1276 C1275 1.397 . S
C1276 C1277 1.334 1_556 S
C1277 H1254 0.950 . S
C1277 C1276 1.334 1_554 S
C1277 C1278 1.287 1_655 S
C1278 C1277 1.287 1_455 S
C1278 C1279 1.524 1_554 S
C1278 H1297 0.913 . S
C1279 H1255 0.950 . S
C1279 C1278 1.524 1_556 S
C1279 C1280 1.415 . S
C1280 H1256 0.950 . S
C1280 C1275 1.363 1_455 S
C1280 C1279 1.415 . S
C1281 H1257 0.951 . S
C1281 C1282 1.366 1_655 S
C1281 C1283 1.388 . S
C1282 C1281 1.366 1_455 S
C1282 C1286 1.385 . S
C1283 H1258 0.951 . S
C1283 C1281 1.388 . S
C1283 C1284 1.366 . S
C1284 C1283 1.366 . S
C1284 C1285 1.414 1_655 S
C1284 C1287 1.499 . S
C1285 H1259 0.950 . S
C1285 C1284 1.414 1_455 S
C1285 C1286 1.374 . S
C1286 H1260 0.950 . S
C1286 C1282 1.385 . S
C1286 C1285 1.374 . S
C1287 C1284 1.499 . S
C1287 C1288 1.373 . S
C1287 C1289 1.389 . S
C1288 H1261 0.950 . S
C1288 C1274 1.377 . S
C1288 C1287 1.373 . S
C1289 C1273 1.377 . S
C1289 C1287 1.389 . S
C1289 C1290 1.524 . S
C1290 C1289 1.524 . S
C1290 C1291 1.397 . S
C1290 C1295 1.363 . S
C1291 H1262 0.950 . S
C1291 C1290 1.397 . S
C1291 C1292 1.334 . S
C1292 H1263 0.950 . S
C1292 C1291 1.334 . S
C1292 C1293 1.287 . S
C1293 C1292 1.287 . S
C1293 C1294 1.524 . S
C1293 H1296 0.999 . S
C1294 H1264 0.950 . S
C1294 C1293 1.524 . S
C1294 C1295 1.415 . S
C1295 H1265 0.950 . S
C1295 C1290 1.363 . S
C1295 C1294 1.415 . S
H1296 C1293 0.999 . S
H1297 C1278 0.913 . S
H1298 C1316 0.951 . S
H1299 C1318 0.951 . S
H1300 C1320 0.950 . S
H1301 C1321 0.950 . S
H1302 C1323 0.950 . S
H1303 C1326 0.950 . S
H1304 C1327 0.950 . S
H1305 C1329 0.950 . S
H1306 C1330 0.950 . S
H1307 C1331 0.951 . S
H1308 C1333 0.951 . S
H1309 C1335 0.950 . S
H1310 C1336 0.950 . S
H1311 C1338 0.950 1_545 S
H1312 C1341 0.950 . S
H1313 C1342 0.950 . S
H1314 C1344 0.950 . S
H1315 C1345 0.950 . S
C1316 H1298 0.951 . S
C1316 C1317 1.366 . S
C1316 C1318 1.388 . S
C1317 C1316 1.366 . S
C1317 C1321 1.385 . S
C1318 H1299 0.951 . S
C1318 C1316 1.388 . S
C1318 C1319 1.366 . S
C1319 C1318 1.366 . S
C1319 C1320 1.414 . S
C1319 C1322 1.499 . S
C1320 H1300 0.950 . S
C1320 C1319 1.414 . S
C1320 C1321 1.374 . S
C1321 H1301 0.950 . S
C1321 C1317 1.385 . S
C1321 C1320 1.374 . S
C1322 C1319 1.499 . S
C1322 C1323 1.373 . S
C1322 C1324 1.389 . S
C1323 H1302 0.950 . S
C1323 C1322 1.373 . S
C1323 C1339 1.377 . S
C1324 C1322 1.389 . S
C1324 C1325 1.524 . S
C1324 C1338 1.377 . S
C1325 C1324 1.524 . S
C1325 C1326 1.384 1_556 S
C1325 C1330 1.363 1_565 S
C1326 H1303 0.950 . S
C1326 C1325 1.384 1_554 S
C1326 C1327 1.347 . S
C1327 H1304 0.950 . S
C1327 C1326 1.347 . S
C1327 C1328 1.287 1_565 S
C1328 C1327 1.287 1_545 S
C1328 C1329 1.524 1_554 S
C1328 H1347 0.913 . S
C1329 H1305 0.950 . S
C1329 C1328 1.524 1_556 S
C1329 C1330 1.415 . S
C1330 H1306 0.950 . S
C1330 C1325 1.363 1_545 S
C1330 C1329 1.415 . S
C1331 H1307 0.951 . S
C1331 C1332 1.366 1_565 S
C1331 C1333 1.388 . S
C1332 C1331 1.366 1_545 S
C1332 C1336 1.385 . S
C1333 H1308 0.951 . S
C1333 C1331 1.388 . S
C1333 C1334 1.366 . S
C1334 C1333 1.366 . S
C1334 C1335 1.414 1_565 S
C1334 C1337 1.499 . S
C1335 H1309 0.950 . S
C1335 C1334 1.414 1_545 S
C1335 C1336 1.374 . S
C1336 H1310 0.950 . S
C1336 C1332 1.385 . S
C1336 C1335 1.374 . S
C1337 C1334 1.499 . S
C1337 C1338 1.373 . S
C1337 C1339 1.389 . S
C1338 H1311 0.950 1_565 S
C1338 C1324 1.377 . S
C1338 C1337 1.373 . S
C1339 C1323 1.377 . S
C1339 C1337 1.389 . S
C1339 C1340 1.524 . S
C1340 C1339 1.524 . S
C1340 C1341 1.397 . S
C1340 C1345 1.363 . S
C1341 H1312 0.950 . S
C1341 C1340 1.397 . S
C1341 C1342 1.334 . S
C1342 H1313 0.950 . S
C1342 C1341 1.334 . S
C1342 C1343 1.287 . S
C1343 C1342 1.287 . S
C1343 C1344 1.524 . S
C1343 H1346 0.999 . S
C1344 H1314 0.950 . S
C1344 C1343 1.524 . S
C1344 C1345 1.415 . S
C1345 H1315 0.950 . S
C1345 C1340 1.363 . S
C1345 C1344 1.415 . S
H1346 C1343 0.999 . S
H1347 C1328 0.913 . S
H1348 C1366 0.951 . S
H1349 C1368 0.951 . S
H1350 C1370 0.950 . S
H1351 C1371 0.950 1_554 S
H1352 C1373 0.950 . S
H1353 C1376 0.950 . S
H1354 C1377 0.950 . S
H1355 C1379 0.950 . S
H1356 C1380 0.950 . S
H1357 C1381 0.951 . S
H1358 C1383 0.951 . S
H1359 C1385 0.950 . S
H1360 C1386 0.950 . S
H1361 C1388 0.950 . S
H1362 C1391 0.950 . S
H1363 C1392 0.950 . S
H1364 C1394 0.950 . S
H1365 C1395 0.950 . S
C1366 H1348 0.951 . S
C1366 C1367 1.366 . S
C1366 C1368 1.388 . S
C1367 C1366 1.366 . S
C1367 C1371 1.385 . S
C1368 H1349 0.951 . S
C1368 C1366 1.388 . S
C1368 C1369 1.366 . S
C1369 C1368 1.366 . S
C1369 C1370 1.414 . S
C1369 C1372 1.499 . S
C1370 H1350 0.950 . S
C1370 C1369 1.414 . S
C1370 C1371 1.374 . S
C1371 H1351 0.950 1_556 S
C1371 C1367 1.385 . S
C1371 C1370 1.374 . S
C1372 C1369 1.499 . S
C1372 C1373 1.373 . S
C1372 C1374 1.389 . S
C1373 H1352 0.950 . S
C1373 C1372 1.373 . S
C1373 C1389 1.377 . S
C1374 C1372 1.389 . S
C1374 C1375 1.524 . S
C1374 C1388 1.377 . S
C1375 C1374 1.524 . S
C1375 C1376 1.397 . S
C1375 C1380 1.363 . S
C1376 H1353 0.950 . S
C1376 C1375 1.397 . S
C1376 C1377 1.334 . S
C1377 H1354 0.950 . S
C1377 C1376 1.334 . S
C1377 C1378 1.287 . S
C1378 C1377 1.287 . S
C1378 C1379 1.524 . S
C1378 H1397 0.913 . S
C1379 H1355 0.950 . S
C1379 C1378 1.524 . S
C1379 C1380 1.415 . S
C1380 H1356 0.950 . S
C1380 C1375 1.363 . S
C1380 C1379 1.415 . S
C1381 H1357 0.951 . S
C1381 C1382 1.366 . S
C1381 C1383 1.388 . S
C1382 C1381 1.366 . S
C1382 C1386 1.385 . S
C1383 H1358 0.951 . S
C1383 C1381 1.388 . S
C1383 C1384 1.366 . S
C1384 C1383 1.366 . S
C1384 C1385 1.414 . S
C1384 C1387 1.499 . S
C1385 H1359 0.950 . S
C1385 C1384 1.414 . S
C1385 C1386 1.374 . S
C1386 H1360 0.950 . S
C1386 C1382 1.385 . S
C1386 C1385 1.374 . S
C1387 C1384 1.499 . S
C1387 C1388 1.373 . S
C1387 C1389 1.389 . S
C1388 H1361 0.950 . S
C1388 C1374 1.377 . S
C1388 C1387 1.373 . S
C1389 C1373 1.377 . S
C1389 C1387 1.389 . S
C1389 C1390 1.524 . S
C1390 C1389 1.524 . S
C1390 C1391 1.397 . S
C1390 C1395 1.363 . S
C1391 H1362 0.950 . S
C1391 C1390 1.397 . S
C1391 C1392 1.334 . S
C1392 H1363 0.950 . S
C1392 C1391 1.334 . S
C1392 C1393 1.287 . S
C1393 C1392 1.287 . S
C1393 C1394 1.524 1_556 S
C1393 H1396 0.999 1_556 S
C1394 H1364 0.950 . S
C1394 C1393 1.524 1_554 S
C1394 C1395 1.415 1_554 S
C1395 H1365 0.950 . S
C1395 C1390 1.363 . S
C1395 C1394 1.415 1_556 S
H1396 C1393 0.999 1_554 S
H1397 C1378 0.913 . S
H1398 C1416 0.951 . S
H1399 C1418 0.951 . S
H1400 C1420 0.950 . S
H1401 C1421 0.950 . S
H1402 C1423 0.950 . S
H1403 C1426 0.950 1_556 S
H1404 C1427 0.950 . S
H1405 C1429 0.950 . S
H1406 C1430 0.950 . S
H1407 C1431 0.951 . S
H1408 C1433 0.951 . S
H1409 C1435 0.950 . S
H1410 C1436 0.950 . S
H1411 C1438 0.950 . S
H1412 C1441 0.950 . S
H1413 C1442 0.950 . S
H1414 C1444 0.950 . S
H1415 C1445 0.950 . S
C1416 H1398 0.951 . S
C1416 C1417 1.366 . S
C1416 C1418 1.388 . S
C1417 C1416 1.366 . S
C1417 C1421 1.385 . S
C1418 H1399 0.951 . S
C1418 C1416 1.388 . S
C1418 C1419 1.366 . S
C1419 C1418 1.366 . S
C1419 C1420 1.414 . S
C1419 C1422 1.499 . S
C1420 H1400 0.950 . S
C1420 C1419 1.414 . S
C1420 C1421 1.374 . S
C1421 H1401 0.950 . S
C1421 C1417 1.385 . S
C1421 C1420 1.374 . S
C1422 C1419 1.499 . S
C1422 C1423 1.373 . S
C1422 C1424 1.389 . S
C1423 H1402 0.950 . S
C1423 C1422 1.373 . S
C1423 C1439 1.377 . S
C1424 C1422 1.389 . S
C1424 C1425 1.524 . S
C1424 C1438 1.377 . S
C1425 C1424 1.524 . S
C1425 C1426 1.397 1_556 S
C1425 C1430 1.363 . S
C1426 H1403 0.950 1_554 S
C1426 C1425 1.397 1_554 S
C1426 C1427 1.334 . S
C1427 H1404 0.950 . S
C1427 C1426 1.334 . S
C1427 C1428 1.287 . S
C1428 C1427 1.287 . S
C1428 C1429 1.524 . S
C1428 H1447 0.913 . S
C1429 H1405 0.950 . S
C1429 C1428 1.524 . S
C1429 C1430 1.415 1_554 S
C1430 H1406 0.950 . S
C1430 C1425 1.363 . S
C1430 C1429 1.415 1_556 S
C1431 H1407 0.951 . S
C1431 C1432 1.366 . S
C1431 C1433 1.388 . S
C1432 C1431 1.366 . S
C1432 C1436 1.385 . S
C1433 H1408 0.951 . S
C1433 C1431 1.388 . S
C1433 C1434 1.366 . S
C1434 C1433 1.366 . S
C1434 C1435 1.414 . S
C1434 C1437 1.499 . S
C1435 H1409 0.950 . S
C1435 C1434 1.414 . S
C1435 C1436 1.374 . S
C1436 H1410 0.950 . S
C1436 C1432 1.385 . S
C1436 C1435 1.374 . S
C1437 C1434 1.499 . S
C1437 C1438 1.373 . S
C1437 C1439 1.389 . S
C1438 H1411 0.950 . S
C1438 C1424 1.377 . S
C1438 C1437 1.373 . S
C1439 C1423 1.377 . S
C1439 C1437 1.389 . S
C1439 C1440 1.524 . S
C1440 C1439 1.524 . S
C1440 C1441 1.397 . S
C1440 C1445 1.363 . S
C1441 H1412 0.950 . S
C1441 C1440 1.397 . S
C1441 C1442 1.334 . S
C1442 H1413 0.950 . S
C1442 C1441 1.334 . S
C1442 C1443 1.287 . S
C1443 C1442 1.287 . S
C1443 C1444 1.524 . S
C1443 H1446 0.999 . S
C1444 H1414 0.950 . S
C1444 C1443 1.524 . S
C1444 C1445 1.415 . S
C1445 H1415 0.950 . S
C1445 C1440 1.363 . S
C1445 C1444 1.415 . S
H1446 C1443 0.999 . S
H1447 C1428 0.913 . S
H1448 C1466 0.951 . S
H1449 C1468 0.951 . S
H1450 C1470 0.950 . S
H1451 C1471 0.950 . S
H1452 C1473 0.950 . S
H1453 C1476 0.950 . S
H1454 C1477 0.950 . S
H1455 C1479 0.950 . S
H1456 C1480 0.950 . S
H1457 C1481 0.951 . S
H1458 C1483 0.951 . S
H1459 C1485 0.950 . S
H1460 C1486 0.950 . S
H1461 C1488 0.950 . S
H1462 C1491 0.950 . S
H1463 C1492 0.950 . S
H1464 C1494 0.950 . S
H1465 C1495 0.950 . S
C1466 H1448 0.951 . S
C1466 C1467 1.366 . S
C1466 C1468 1.388 . S
C1467 C1466 1.366 . S
C1467 C1471 1.385 . S
C1468 H1449 0.951 . S
C1468 C1466 1.388 . S
C1468 C1469 1.366 . S
C1469 C1468 1.366 . S
C1469 C1470 1.414 . S
C1469 C1472 1.499 . S
C1470 H1450 0.950 . S
C1470 C1469 1.414 . S
C1470 C1471 1.374 . S
C1471 H1451 0.950 . S
C1471 C1467 1.385 . S
C1471 C1470 1.374 . S
C1472 C1469 1.499 . S
C1472 C1473 1.373 . S
C1472 C1474 1.389 . S
C1473 H1452 0.950 . S
C1473 C1472 1.373 . S
C1473 C1489 1.377 . S
C1474 C1472 1.389 . S
C1474 C1475 1.524 . S
C1474 C1488 1.377 . S
C1475 C1474 1.524 . S
C1475 C1476 1.397 . S
C1475 C1480 1.363 . S
C1476 H1453 0.950 . S
C1476 C1475 1.397 . S
C1476 C1477 1.334 . S
C1477 H1454 0.950 . S
C1477 C1476 1.334 . S
C1477 C1478 1.287 . S
C1478 C1477 1.287 . S
C1478 C1479 1.524 1_455 S
C1478 H1497 0.913 . S
C1479 H1455 0.950 . S
C1479 C1478 1.524 1_655 S
C1479 C1480 1.415 1_655 S
C1480 H1456 0.950 . S
C1480 C1475 1.363 . S
C1480 C1479 1.415 1_455 S
C1481 H1457 0.951 . S
C1481 C1482 1.366 . S
C1481 C1483 1.388 . S
C1482 C1481 1.366 . S
C1482 C1486 1.385 . S
C1483 H1458 0.951 . S
C1483 C1481 1.388 . S
C1483 C1484 1.366 . S
C1484 C1483 1.366 . S
C1484 C1485 1.414 . S
C1484 C1487 1.499 . S
C1485 H1459 0.950 . S
C1485 C1484 1.414 . S
C1485 C1486 1.374 . S
C1486 H1460 0.950 . S
C1486 C1482 1.385 . S
C1486 C1485 1.374 . S
C1487 C1484 1.499 . S
C1487 C1488 1.373 . S
C1487 C1489 1.389 . S
C1488 H1461 0.950 . S
C1488 C1474 1.377 . S
C1488 C1487 1.373 . S
C1489 C1473 1.377 . S
C1489 C1487 1.389 . S
C1489 C1490 1.524 . S
C1490 C1489 1.524 . S
C1490 C1491 1.397 . S
C1490 C1495 1.363 . S
C1491 H1462 0.950 . S
C1491 C1490 1.397 . S
C1491 C1492 1.334 . S
C1492 H1463 0.950 . S
C1492 C1491 1.334 . S
C1492 C1493 1.287 . S
C1493 C1492 1.287 . S
C1493 C1494 1.524 . S
C1493 H1496 0.999 . S
C1494 H1464 0.950 . S
C1494 C1493 1.524 . S
C1494 C1495 1.415 . S
C1495 H1465 0.950 . S
C1495 C1490 1.363 . S
C1495 C1494 1.415 . S
H1496 C1493 0.999 . S
H1497 C1478 0.913 . S
H1498 C1516 0.951 . S
H1499 C1518 0.951 . S
H1500 C1520 0.950 . S
H1501 C1521 0.950 . S
H1502 C1523 0.950 . S
H1503 C1526 0.950 . S
H1504 C1527 0.950 . S
H1505 C1529 0.950 . S
H1506 C1530 0.950 . S
H1507 C1531 0.951 . S
H1508 C1533 0.951 . S
H1509 C1535 0.950 . S
H1510 C1536 0.950 . S
H1511 C1538 0.950 . S
H1512 C1541 0.950 . S
H1513 C1542 0.950 . S
H1514 C1544 0.950 . S
H1515 C1545 0.933 1_545 S
C1516 H1498 0.951 . S
C1516 C1517 1.366 . S
C1516 C1518 1.388 . S
C1517 C1516 1.366 . S
C1517 C1521 1.385 . S
C1518 H1499 0.951 . S
C1518 C1516 1.388 . S
C1518 C1519 1.366 . S
C1519 C1518 1.366 . S
C1519 C1520 1.414 . S
C1519 C1522 1.499 . S
C1520 H1500 0.950 . S
C1520 C1519 1.414 . S
C1520 C1521 1.374 . S
C1521 H1501 0.950 . S
C1521 C1517 1.385 . S
C1521 C1520 1.374 . S
C1522 C1519 1.499 . S
C1522 C1523 1.373 . S
C1522 C1524 1.389 . S
C1523 H1502 0.950 . S
C1523 C1522 1.373 . S
C1523 C1539 1.377 . S
C1524 C1522 1.389 . S
C1524 C1525 1.524 . S
C1524 C1538 1.377 . S
C1525 C1524 1.524 . S
C1525 C1526 1.397 . S
C1525 C1530 1.363 . S
C1526 H1503 0.950 . S
C1526 C1525 1.397 . S
C1526 C1527 1.334 . S
C1527 H1504 0.950 . S
C1527 C1526 1.334 . S
C1527 C1528 1.287 . S
C1528 C1527 1.287 . S
C1528 C1529 1.524 . S
C1528 H1547 0.913 . S
C1529 H1505 0.950 . S
C1529 C1528 1.524 . S
C1529 C1530 1.415 . S
C1530 H1506 0.950 . S
C1530 C1525 1.363 . S
C1530 C1529 1.415 . S
C1531 H1507 0.951 . S
C1531 C1532 1.366 . S
C1531 C1533 1.388 . S
C1532 C1531 1.366 . S
C1532 C1536 1.385 . S
C1533 H1508 0.951 . S
C1533 C1531 1.388 . S
C1533 C1534 1.366 . S
C1534 C1533 1.366 . S
C1534 C1535 1.414 . S
C1534 C1537 1.499 . S
C1535 H1509 0.950 . S
C1535 C1534 1.414 . S
C1535 C1536 1.374 . S
C1536 H1510 0.950 . S
C1536 C1532 1.385 . S
C1536 C1535 1.374 . S
C1537 C1534 1.499 . S
C1537 C1538 1.373 . S
C1537 C1539 1.389 . S
C1538 H1511 0.950 . S
C1538 C1524 1.377 . S
C1538 C1537 1.373 . S
C1539 C1523 1.377 . S
C1539 C1537 1.389 . S
C1539 C1540 1.524 . S
C1540 C1539 1.524 . S
C1540 C1541 1.397 . S
C1540 C1545 1.363 1_545 S
C1541 H1512 0.950 . S
C1541 C1540 1.397 . S
C1541 C1542 1.334 1_545 S
C1542 H1513 0.950 . S
C1542 C1541 1.334 1_565 S
C1542 C1543 1.287 . S
C1543 C1542 1.287 . S
C1543 C1544 1.524 . S
C1543 H1546 0.999 . S
C1544 H1514 0.950 . S
C1544 C1543 1.524 . S
C1544 C1545 1.415 . S
C1545 H1515 0.933 1_565 S
C1545 C1540 1.363 1_565 S
C1545 C1544 1.415 . S
H1546 C1543 0.999 . S
H1547 C1528 0.913 . S
H1548 C1566 0.951 . S
H1549 C1568 0.951 . S
H1550 C1570 0.950 . S
H1551 C1571 0.950 . S
H1552 C1573 0.950 . S
H1553 C1576 0.950 . S
H1554 C1577 0.950 . S
H1555 C1579 0.950 . S
H1556 C1580 0.950 . S
H1557 C1581 0.951 . S
H1558 C1583 0.951 . S
H1559 C1585 0.950 . S
H1560 C1586 0.950 . S
H1561 C1588 0.950 . S
H1562 C1591 0.950 . S
H1563 C1592 0.950 . S
H1564 C1594 0.950 . S
H1565 C1595 0.950 . S
C1566 H1548 0.951 . S
C1566 C1567 1.366 . S
C1566 C1568 1.388 . S
C1567 C1566 1.366 . S
C1567 C1571 1.385 . S
C1568 H1549 0.951 . S
C1568 C1566 1.388 . S
C1568 C1569 1.366 . S
C1569 C1568 1.366 . S
C1569 C1570 1.414 . S
C1569 C1572 1.499 . S
C1570 H1550 0.950 . S
C1570 C1569 1.414 . S
C1570 C1571 1.374 . S
C1571 H1551 0.950 . S
C1571 C1567 1.385 . S
C1571 C1570 1.374 . S
C1572 C1569 1.499 . S
C1572 C1573 1.373 . S
C1572 C1574 1.389 . S
C1573 H1552 0.950 . S
C1573 C1572 1.373 . S
C1573 C1589 1.377 . S
C1574 C1572 1.389 . S
C1574 C1575 1.524 . S
C1574 C1588 1.377 . S
C1575 C1574 1.524 . S
C1575 C1576 1.397 . S
C1575 C1580 1.363 . S
C1576 H1553 0.950 . S
C1576 C1575 1.397 . S
C1576 C1577 1.334 . S
C1577 H1554 0.950 . S
C1577 C1576 1.334 . S
C1577 C1578 1.287 . S
C1578 C1577 1.287 . S
C1578 C1579 1.524 . S
C1578 H1597 0.913 . S
C1579 H1555 0.950 . S
C1579 C1578 1.524 . S
C1579 C1580 1.415 . S
C1580 H1556 0.950 . S
C1580 C1575 1.363 . S
C1580 C1579 1.415 . S
C1581 H1557 0.951 . S
C1581 C1582 1.366 . S
C1581 C1583 1.388 . S
C1582 C1581 1.366 . S
C1582 C1586 1.385 . S
C1583 H1558 0.951 . S
C1583 C1581 1.388 . S
C1583 C1584 1.366 . S
C1584 C1583 1.366 . S
C1584 C1585 1.414 . S
C1584 C1587 1.499 . S
C1585 H1559 0.950 . S
C1585 C1584 1.414 . S
C1585 C1586 1.374 . S
C1586 H1560 0.950 . S
C1586 C1582 1.385 . S
C1586 C1585 1.374 . S
C1587 C1584 1.499 . S
C1587 C1588 1.373 . S
C1587 C1589 1.389 . S
C1588 H1561 0.950 . S
C1588 C1574 1.377 . S
C1588 C1587 1.373 . S
C1589 C1573 1.377 . S
C1589 C1587 1.389 . S
C1589 C1590 1.524 . S
C1590 C1589 1.524 . S
C1590 C1591 1.397 . S
C1590 C1595 1.363 . S
C1591 H1562 0.950 . S
C1591 C1590 1.397 . S
C1591 C1592 1.334 . S
C1592 H1563 0.950 . S
C1592 C1591 1.334 . S
C1592 C1593 1.287 . S
C1593 C1592 1.287 . S
C1593 C1594 1.524 . S
C1593 H1596 0.999 . S
C1594 H1564 0.950 . S
C1594 C1593 1.524 . S
C1594 C1595 1.415 . S
C1595 H1565 0.950 . S
C1595 C1590 1.363 . S
C1595 C1594 1.415 . S
H1596 C1593 0.999 . S
H1597 C1578 0.913 . S
H1598 C1616 0.951 . S
H1599 C1618 0.951 . S
H1600 C1620 0.950 . S
H1601 C1621 0.950 . S
H1602 C1623 0.950 . S
H1603 C1626 0.950 . S
H1604 C1627 0.950 . S
H1605 C1629 0.950 . S
H1606 C1630 0.950 . S
H1607 C1631 0.951 . S
H1608 C1633 0.951 . S
H1609 C1635 0.950 . S
H1610 C1636 0.950 . S
H1611 C1638 0.950 . S
H1612 C1641 0.950 . S
H1613 C1642 0.950 . S
H1614 C1644 0.950 . S
H1615 C1645 0.950 . S
C1616 H1598 0.951 . S
C1616 C1617 1.366 . S
C1616 C1618 1.388 . S
C1617 C1616 1.366 . S
C1617 C1621 1.385 . S
C1618 H1599 0.951 . S
C1618 C1616 1.388 . S
C1618 C1619 1.366 . S
C1619 C1618 1.366 . S
C1619 C1620 1.414 . S
C1619 C1622 1.499 . S
C1620 H1600 0.950 . S
C1620 C1619 1.414 . S
C1620 C1621 1.374 . S
C1621 H1601 0.950 . S
C1621 C1617 1.385 . S
C1621 C1620 1.374 . S
C1622 C1619 1.499 . S
C1622 C1623 1.373 . S
C1622 C1624 1.389 . S
C1623 H1602 0.950 . S
C1623 C1622 1.373 . S
C1623 C1639 1.377 . S
C1624 C1622 1.389 . S
C1624 C1625 1.524 . S
C1624 C1638 1.377 . S
C1625 C1624 1.524 . S
C1625 C1626 1.397 . S
C1625 C1630 1.363 . S
C1626 H1603 0.950 . S
C1626 C1625 1.397 . S
C1626 C1627 1.334 . S
C1627 H1604 0.950 . S
C1627 C1626 1.334 . S
C1627 C1628 1.287 . S
C1628 C1627 1.287 . S
C1628 C1629 1.524 . S
C1628 H1647 0.913 . S
C1629 H1605 0.950 . S
C1629 C1628 1.524 . S
C1629 C1630 1.415 . S
C1630 H1606 0.950 . S
C1630 C1625 1.363 . S
C1630 C1629 1.415 . S
C1631 H1607 0.951 . S
C1631 C1632 1.366 . S
C1631 C1633 1.388 . S
C1632 C1631 1.366 . S
C1632 C1636 1.385 . S
C1633 H1608 0.951 . S
C1633 C1631 1.388 . S
C1633 C1634 1.366 . S
C1634 C1633 1.366 . S
C1634 C1635 1.414 . S
C1634 C1637 1.499 . S
C1635 H1609 0.950 . S
C1635 C1634 1.414 . S
C1635 C1636 1.374 . S
C1636 H1610 0.950 . S
C1636 C1632 1.385 . S
C1636 C1635 1.374 . S
C1637 C1634 1.499 . S
C1637 C1638 1.373 . S
C1637 C1639 1.389 . S
C1638 H1611 0.950 . S
C1638 C1624 1.377 . S
C1638 C1637 1.373 . S
C1639 C1623 1.377 . S
C1639 C1637 1.389 . S
C1639 C1640 1.524 . S
C1640 C1639 1.524 . S
C1640 C1641 1.397 . S
C1640 C1645 1.363 . S
C1641 H1612 0.950 . S
C1641 C1640 1.397 . S
C1641 C1642 1.334 . S
C1642 H1613 0.950 . S
C1642 C1641 1.334 . S
C1642 C1643 1.287 . S
C1643 C1642 1.287 . S
C1643 C1644 1.524 . S
C1643 H1646 0.999 . S
C1644 H1614 0.950 . S
C1644 C1643 1.524 . S
C1644 C1645 1.415 . S
C1645 H1615 0.950 . S
C1645 C1640 1.363 . S
C1645 C1644 1.415 . S
H1646 C1643 0.999 . S
H1647 C1628 0.913 . S
H1648 C1666 0.951 . S
H1649 C1668 0.951 . S
H1650 C1670 0.950 . S
H1651 C1671 0.950 . S
H1652 C1673 0.950 . S
H1653 C1676 0.950 . S
H1654 C1677 0.950 . S
H1655 C1679 0.950 . S
H1656 C1680 0.950 . S
H1657 C1681 0.951 . S
H1658 C1683 0.951 . S
H1659 C1685 0.950 . S
H1660 C1686 0.950 . S
H1661 C1688 0.950 . S
H1662 C1691 0.950 . S
H1663 C1692 0.950 . S
H1664 C1694 0.950 . S
H1665 C1695 0.950 . S
C1666 H1648 0.951 . S
C1666 C1667 1.366 . S
C1666 C1668 1.388 . S
C1667 C1666 1.366 . S
C1667 C1671 1.385 . S
C1668 H1649 0.951 . S
C1668 C1666 1.388 . S
C1668 C1669 1.366 . S
C1669 C1668 1.366 . S
C1669 C1670 1.414 . S
C1669 C1672 1.499 . S
C1670 H1650 0.950 . S
C1670 C1669 1.414 . S
C1670 C1671 1.374 . S
C1671 H1651 0.950 . S
C1671 C1667 1.385 . S
C1671 C1670 1.374 . S
C1672 C1669 1.499 . S
C1672 C1673 1.373 . S
C1672 C1674 1.389 . S
C1673 H1652 0.950 . S
C1673 C1672 1.373 . S
C1673 C1689 1.377 . S
C1674 C1672 1.389 . S
C1674 C1675 1.524 . S
C1674 C1688 1.377 . S
C1675 C1674 1.524 . S
C1675 C1676 1.397 . S
C1675 C1680 1.363 . S
C1676 H1653 0.950 . S
C1676 C1675 1.397 . S
C1676 C1677 1.334 . S
C1677 H1654 0.950 . S
C1677 C1676 1.334 . S
C1677 C1678 1.287 . S
C1678 C1677 1.287 . S
C1678 C1679 1.524 . S
C1678 H1697 0.913 . S
C1679 H1655 0.950 . S
C1679 C1678 1.524 . S
C1679 C1680 1.415 . S
C1680 H1656 0.950 . S
C1680 C1675 1.363 . S
C1680 C1679 1.415 . S
C1681 H1657 0.951 . S
C1681 C1682 1.366 . S
C1681 C1683 1.388 . S
C1682 C1681 1.366 . S
C1682 C1686 1.385 . S
C1683 H1658 0.951 . S
C1683 C1681 1.388 . S
C1683 C1684 1.366 . S
C1684 C1683 1.366 . S
C1684 C1685 1.414 . S
C1684 C1687 1.499 . S
C1685 H1659 0.950 . S
C1685 C1684 1.414 . S
C1685 C1686 1.374 . S
C1686 H1660 0.950 . S
C1686 C1682 1.385 . S
C1686 C1685 1.374 . S
C1687 C1684 1.499 . S
C1687 C1688 1.373 . S
C1687 C1689 1.389 . S
C1688 H1661 0.950 . S
C1688 C1674 1.377 . S
C1688 C1687 1.373 . S
C1689 C1673 1.377 . S
C1689 C1687 1.389 . S
C1689 C1690 1.524 . S
C1690 C1689 1.524 . S
C1690 C1691 1.397 . S
C1690 C1695 1.363 . S
C1691 H1662 0.950 . S
C1691 C1690 1.397 . S
C1691 C1692 1.334 . S
C1692 H1663 0.950 . S
C1692 C1691 1.334 . S
C1692 C1693 1.287 . S
C1693 C1692 1.287 . S
C1693 C1694 1.524 . S
C1693 H1696 0.999 . S
C1694 H1664 0.950 . S
C1694 C1693 1.524 . S
C1694 C1695 1.415 . S
C1695 H1665 0.950 . S
C1695 C1690 1.363 . S
C1695 C1694 1.415 . S
H1696 C1693 0.999 . S
H1697 C1678 0.913 . S
H1698 C1716 0.951 . S
H1699 C1718 0.951 . S
H1700 C1720 0.950 . S
H1701 C1721 0.950 . S
H1702 C1723 0.950 . S
H1703 C1726 0.950 . S
H1704 C1727 0.950 . S
H1705 C1729 0.950 1_545 S
H1706 C1730 0.950 . S
H1707 C1731 0.951 . S
H1708 C1733 0.951 . S
H1709 C1735 0.912 1_545 S
H1710 C1736 0.950 1_545 S
H1711 C1738 0.950 . S
H1712 C1741 0.950 . S
H1713 C1742 0.950 . S
H1714 C1744 0.950 . S
H1715 C1745 0.950 . S
C1716 H1698 0.951 . S
C1716 C1717 1.366 . S
C1716 C1718 1.388 . S
C1717 C1716 1.366 . S
C1717 C1721 1.385 . S
C1718 H1699 0.951 . S
C1718 C1716 1.388 . S
C1718 C1719 1.366 . S
C1719 C1718 1.366 . S
C1719 C1720 1.414 . S
C1719 C1722 1.499 . S
C1720 H1700 0.950 . S
C1720 C1719 1.414 . S
C1720 C1721 1.374 . S
C1721 H1701 0.950 . S
C1721 C1717 1.385 . S
C1721 C1720 1.374 . S
C1722 C1719 1.499 . S
C1722 C1723 1.373 . S
C1722 C1724 1.389 . S
C1723 H1702 0.950 . S
C1723 C1722 1.373 . S
C1723 C1739 1.377 . S
C1724 C1722 1.389 . S
C1724 C1725 1.524 . S
C1724 C1738 1.377 . S
C1725 C1724 1.524 . S
C1725 C1726 1.397 . S
C1725 C1730 1.363 . S
C1726 H1703 0.950 . S
C1726 C1725 1.397 . S
C1726 C1727 1.334 . S
C1727 H1704 0.950 . S
C1727 C1726 1.334 . S
C1727 C1728 1.287 . S
C1728 C1727 1.287 . S
C1728 C1729 1.524 . S
C1728 H1747 0.913 . S
C1729 H1705 0.950 1_565 S
C1729 C1728 1.524 . S
C1729 C1730 1.415 . S
C1730 H1706 0.950 . S
C1730 C1725 1.363 . S
C1730 C1729 1.415 . S
C1731 H1707 0.951 . S
C1731 C1732 1.366 . S
C1731 C1733 1.388 . S
C1732 C1731 1.366 . S
C1732 C1736 1.385 . S
C1733 H1708 0.951 . S
C1733 C1731 1.388 . S
C1733 C1734 1.366 . S
C1734 C1733 1.366 . S
C1734 C1735 1.414 . S
C1734 C1737 1.499 . S
C1735 H1709 0.912 1_565 S
C1735 C1734 1.414 . S
C1735 C1736 1.374 . S
C1736 H1710 0.950 1_565 S
C1736 C1732 1.385 . S
C1736 C1735 1.374 . S
C1737 C1734 1.499 . S
C1737 C1738 1.373 . S
C1737 C1739 1.389 . S
C1738 H1711 0.950 . S
C1738 C1724 1.377 . S
C1738 C1737 1.373 . S
C1739 C1723 1.377 . S
C1739 C1737 1.389 . S
C1739 C1740 1.524 . S
C1740 C1739 1.524 . S
C1740 C1741 1.397 . S
C1740 C1745 1.363 . S
C1741 H1712 0.950 . S
C1741 C1740 1.397 . S
C1741 C1742 1.334 . S
C1742 H1713 0.950 . S
C1742 C1741 1.334 . S
C1742 C1743 1.287 . S
C1743 C1742 1.287 . S
C1743 C1744 1.524 . S
C1743 H1746 0.999 . S
C1744 H1714 0.950 . S
C1744 C1743 1.524 . S
C1744 C1745 1.415 . S
C1745 H1715 0.950 . S
C1745 C1740 1.363 . S
C1745 C1744 1.415 . S
H1746 C1743 0.999 . S
H1747 C1728 0.913 . S
H1748 C1766 0.951 . S
H1749 C1768 0.951 . S
H1750 C1770 0.950 . S
H1751 C1771 0.950 . S
H1752 C1773 0.950 . S
H1753 C1776 0.950 . S
H1754 C1777 0.950 . S
H1755 C1779 0.950 . S
H1756 C1780 0.950 . S
H1757 C1781 0.951 . S
H1758 C1783 0.951 . S
H1759 C1785 0.950 . S
H1760 C1786 0.950 . S
H1761 C1788 0.950 . S
H1762 C1791 0.950 . S
H1763 C1792 0.950 . S
H1764 C1794 0.950 . S
H1765 C1795 0.950 . S
C1766 H1748 0.951 . S
C1766 C1767 1.366 . S
C1766 C1768 1.388 . S
C1767 C1766 1.366 . S
C1767 C1771 1.385 . S
C1768 H1749 0.951 . S
C1768 C1766 1.388 . S
C1768 C1769 1.366 . S
C1769 C1768 1.366 . S
C1769 C1770 1.414 . S
C1769 C1772 1.499 . S
C1770 H1750 0.950 . S
C1770 C1769 1.414 . S
C1770 C1771 1.374 . S
C1771 H1751 0.950 . S
C1771 C1767 1.385 . S
C1771 C1770 1.374 . S
C1772 C1769 1.499 . S
C1772 C1773 1.373 . S
C1772 C1774 1.389 . S
C1773 H1752 0.950 . S
C1773 C1772 1.373 . S
C1773 C1789 1.377 . S
C1774 C1772 1.389 . S
C1774 C1775 1.524 . S
C1774 C1788 1.377 . S
C1775 C1774 1.524 . S
C1775 C1776 1.397 . S
C1775 C1780 1.363 . S
C1776 H1753 0.950 . S
C1776 C1775 1.397 . S
C1776 C1777 1.334 . S
C1777 H1754 0.950 . S
C1777 C1776 1.334 . S
C1777 C1778 1.287 . S
C1778 C1777 1.287 . S
C1778 C1779 1.524 . S
C1778 H1797 0.913 . S
C1779 H1755 0.950 . S
C1779 C1778 1.524 . S
C1779 C1780 1.415 . S
C1780 H1756 0.950 . S
C1780 C1775 1.363 . S
C1780 C1779 1.415 . S
C1781 H1757 0.951 . S
C1781 C1782 1.366 . S
C1781 C1783 1.388 . S
C1782 C1781 1.366 . S
C1782 C1786 1.385 . S
C1783 H1758 0.951 . S
C1783 C1781 1.388 . S
C1783 C1784 1.366 . S
C1784 C1783 1.366 . S
C1784 C1785 1.414 . S
C1784 C1787 1.499 . S
C1785 H1759 0.950 . S
C1785 C1784 1.414 . S
C1785 C1786 1.374 . S
C1786 H1760 0.950 . S
C1786 C1782 1.385 . S
C1786 C1785 1.374 . S
C1787 C1784 1.499 . S
C1787 C1788 1.373 . S
C1787 C1789 1.389 . S
C1788 H1761 0.950 . S
C1788 C1774 1.377 . S
C1788 C1787 1.373 . S
C1789 C1773 1.377 . S
C1789 C1787 1.389 . S
C1789 C1790 1.524 . S
C1790 C1789 1.524 . S
C1790 C1791 1.397 . S
C1790 C1795 1.363 . S
C1791 H1762 0.950 . S
C1791 C1790 1.397 . S
C1791 C1792 1.334 . S
C1792 H1763 0.950 . S
C1792 C1791 1.334 . S
C1792 C1793 1.287 . S
C1793 C1792 1.287 . S
C1793 C1794 1.524 . S
C1793 H1796 0.999 . S
C1794 H1764 0.950 . S
C1794 C1793 1.524 . S
C1794 C1795 1.415 . S
C1795 H1765 0.950 . S
C1795 C1790 1.363 . S
C1795 C1794 1.415 . S
H1796 C1793 0.999 . S
H1797 C1778 0.913 . S
H1798 C1816 0.951 . S
H1799 C1818 0.951 . S
H1800 C1820 0.950 . S
H1801 C1821 0.950 . S
H1802 C1823 0.950 . S
H1803 C1826 0.950 . S
H1804 C1827 0.950 . S
H1805 C1829 0.950 . S
H1806 C1830 0.950 . S
H1807 C1831 0.951 . S
H1808 C1833 0.951 . S
H1809 C1835 0.950 . S
H1810 C1836 0.950 . S
H1811 C1838 0.950 . S
H1812 C1841 0.950 . S
H1813 C1842 0.950 . S
H1814 C1844 0.950 . S
H1815 C1845 0.950 . S
C1816 H1798 0.951 . S
C1816 C1817 1.366 . S
C1816 C1818 1.388 . S
C1817 C1816 1.366 . S
C1817 C1821 1.385 . S
C1818 H1799 0.951 . S
C1818 C1816 1.388 . S
C1818 C1819 1.366 . S
C1819 C1818 1.366 . S
C1819 C1820 1.414 . S
C1819 C1822 1.499 . S
C1820 H1800 0.950 . S
C1820 C1819 1.414 . S
C1820 C1821 1.374 . S
C1821 H1801 0.950 . S
C1821 C1817 1.385 . S
C1821 C1820 1.374 . S
C1822 C1819 1.499 . S
C1822 C1823 1.373 . S
C1822 C1824 1.389 . S
C1823 H1802 0.950 . S
C1823 C1822 1.373 . S
C1823 C1839 1.377 . S
C1824 C1822 1.389 . S
C1824 C1825 1.524 . S
C1824 C1838 1.377 . S
C1825 C1824 1.524 . S
C1825 C1826 1.397 . S
C1825 C1830 1.363 . S
C1826 H1803 0.950 . S
C1826 C1825 1.397 . S
C1826 C1827 1.334 . S
C1827 H1804 0.950 . S
C1827 C1826 1.334 . S
C1827 C1828 1.287 . S
C1828 C1827 1.287 . S
C1828 C1829 1.524 . S
C1828 H1847 0.913 . S
C1829 H1805 0.950 . S
C1829 C1828 1.524 . S
C1829 C1830 1.415 . S
C1830 H1806 0.950 . S
C1830 C1825 1.363 . S
C1830 C1829 1.415 . S
C1831 H1807 0.951 . S
C1831 C1832 1.366 . S
C1831 C1833 1.388 . S
C1832 C1831 1.366 . S
C1832 C1836 1.385 . S
C1833 H1808 0.951 . S
C1833 C1831 1.388 . S
C1833 C1834 1.366 . S
C1834 C1833 1.366 . S
C1834 C1835 1.414 . S
C1834 C1837 1.499 . S
C1835 H1809 0.950 . S
C1835 C1834 1.414 . S
C1835 C1836 1.374 . S
C1836 H1810 0.950 . S
C1836 C1832 1.385 . S
C1836 C1835 1.374 . S
C1837 C1834 1.499 . S
C1837 C1838 1.373 . S
C1837 C1839 1.389 . S
C1838 H1811 0.950 . S
C1838 C1824 1.377 . S
C1838 C1837 1.373 . S
C1839 C1823 1.377 . S
C1839 C1837 1.389 . S
C1839 C1840 1.524 . S
C1840 C1839 1.524 . S
C1840 C1841 1.397 . S
C1840 C1845 1.363 . S
C1841 H1812 0.950 . S
C1841 C1840 1.397 . S
C1841 C1842 1.334 . S
C1842 H1813 0.950 . S
C1842 C1841 1.334 . S
C1842 C1843 1.287 . S
C1843 C1842 1.287 . S
C1843 C1844 1.524 . S
C1843 H1846 0.999 . S
C1844 H1814 0.950 . S
C1844 C1843 1.524 . S
C1844 C1845 1.415 . S
C1845 H1815 0.950 . S
C1845 C1840 1.363 . S
C1845 C1844 1.415 . S
H1846 C1843 0.999 . S
H1847 C1828 0.913 . S
C667 C255 2.060 . S
C682 C386 2.113 . S
C732 C470 2.156 . S
C717 C294 2.092 . S
C782 C536 2.123 . S
C767 C177 2.233 . S
C832 C620 2.102 . S
C817 C216 2.213 . S
C882 C375 2.113 1_565 S
C867 C99 2.073 . S
C917 C138 2.078 . S
C932 C459 2.156 . S
C967 C21 2.247 . S
C982 C547 2.124 . S
C1017 C60 2.227 . S
C1032 C631 2.103 . S
C1082 C382 0.429 1_455 S
C1067 C196 0.454 . S
C1132 C466 0.403 1_545 S
C1117 C235 0.420 . S
C1182 C538 0.447 . S
C1167 C289 0.415 . S
C1217 C157 0.444 . S
C1232 C622 0.454 . S
C1267 C40 0.443 . S
C1282 C370 0.427 . S
C1332 C454 0.404 . S
C1317 C79 0.403 . S
C1382 C550 0.447 . S
C1367 C133 0.405 . S
C1417 C1 0.430 . S
C1432 C634 0.450 . S
C1467 C211 2.601 . S
C1482 C379 2.713 . S
C1517 C250 2.545 . S
C1532 C463 2.656 . S
C1582 C543 2.662 . S
C1567 C274 2.424 . S
C1632 C627 2.700 . S
C1617 C172 2.453 . S
C1667 C55 2.598 . S
C1682 C368 2.713 . S
C1732 C452 2.655 . S
C1717 C94 2.541 . S
C1782 C554 2.662 . S
C1767 C118 2.417 . S
C1817 C16 2.448 . S
C1832 C638 2.700 . S
