# Generated by pormake.
# Topology anh, (6,3)-cn, num edge types: 1
# Building blocks:
#     Node 0, Type 0, BuildingBlock: PAMTOO_clean_sbu_0, # of connection points: 6
#     Node 1, Type 0, BuildingBlock: PAMTOO_clean_sbu_0, # of connection points: 6
#     Node 2, Type 0, BuildingBlock: PAMTOO_clean_sbu_0, # of connection points: 6
#     Node 3, Type 1, BuildingBlock: VETTIZ_charged_linker_0, # of connection points: 3
#     Node 4, Type 1, BuildingBlock: VETTIZ_charged_linker_0, # of connection points: 3
#     Node 5, Type 1, BuildingBlock: VETTIZ_charged_linker_0, # of connection points: 3
#     Node 6, Type 1, BuildingBlock: VETTIZ_charged_linker_0, # of connection points: 3
#     Node 7, Type 1, BuildingBlock: VETTIZ_charged_linker_0, # of connection points: 3
#     Node 8, Type 1, BuildingBlock: VETTIZ_charged_linker_0, # of connection points: 3
#     Edge 9, Type (0, 1), BuildingBlock: AJUNOK_clean_linker_0, # of connection points: 2
#     Edge 10, Type (0, 1), BuildingBlock: AJUNOK_clean_linker_0, # of connection points: 2
#     Edge 11, Type (0, 1), BuildingBlock: AJUNOK_clean_linker_0, # of connection points: 2
#     Edge 12, Type (0, 1), BuildingBlock: AJUNOK_clean_linker_0, # of connection points: 2
#     Edge 13, Type (0, 1), BuildingBlock: AJUNOK_clean_linker_0, # of connection points: 2
#     Edge 14, Type (0, 1), BuildingBlock: AJUNOK_clean_linker_0, # of connection points: 2
#     Edge 15, Type (0, 1), BuildingBlock: AJUNOK_clean_linker_0, # of connection points: 2
#     Edge 16, Type (0, 1), BuildingBlock: AJUNOK_clean_linker_0, # of connection points: 2
#     Edge 17, Type (0, 1), BuildingBlock: AJUNOK_clean_linker_0, # of connection points: 2
#     Edge 18, Type (0, 1), BuildingBlock: AJUNOK_clean_linker_0, # of connection points: 2
#     Edge 19, Type (0, 1), BuildingBlock: AJUNOK_clean_linker_0, # of connection points: 2
#     Edge 20, Type (0, 1), BuildingBlock: AJUNOK_clean_linker_0, # of connection points: 2
#     Edge 21, Type (0, 1), BuildingBlock: AJUNOK_clean_linker_0, # of connection points: 2
#     Edge 22, Type (0, 1), BuildingBlock: AJUNOK_clean_linker_0, # of connection points: 2
#     Edge 23, Type (0, 1), BuildingBlock: AJUNOK_clean_linker_0, # of connection points: 2
#     Edge 24, Type (0, 1), BuildingBlock: AJUNOK_clean_linker_0, # of connection points: 2
#     Edge 25, Type (0, 1), BuildingBlock: AJUNOK_clean_linker_0, # of connection points: 2
#     Edge 26, Type (0, 1), BuildingBlock: AJUNOK_clean_linker_0, # of connection points: 2
# Relax obj value: 0.215
# Max RMSD: 0.210
# Mean RMSD: 0.167
data_MOF--net-anh--node1-PAMTOO_clean_sbu_0--node2-VETTIZ_charged_linker_0--edge1-AJUNOK_clean_linker_0
_symmetry_space_group_name_H-M    P1
_symmetry_Int_Tables_number       1
_symmetry_cell_setting            triclinic
loop_
_symmetry_equiv_pos_as_xyz
'x, y, z'
_cell_length_a     29.384974
_cell_length_b     27.306404
_cell_length_c     53.036268
_cell_angle_alpha  90.456276
_cell_angle_beta   94.425465
_cell_angle_gamma 103.20236
loop_
_atom_site_label
_atom_site_type_symbol
_atom_site_fract_x
_atom_site_fract_y
_atom_site_fract_z
_atom_type_partial_charge
Dy0 Dy 0.07197 0.63388 0.14802 0.0
Dy1 Dy 1.04461 0.51292 0.14511 0.0
C2 C 1.05311 0.57612 0.09646 0.0
O3 O 0.99109 0.61952 0.15174 0.0
O4 O 0.97144 0.53417 0.14428 0.0
O5 O 0.1021 0.69934 0.12725 0.0
O6 O 0.07887 0.70833 0.16443 0.0
O7 O 1.04471 0.53029 0.18619 0.0
O8 O 0.08194 0.61407 0.18813 0.0
O9 O 0.12644 0.52675 0.1479 0.0
O10 O 0.14531 0.61302 0.1473 0.0
O11 O 1.046 0.43824 0.15781 0.0
O12 O 1.00378 0.44788 0.12364 0.0
C13 C 0.95777 0.5769 0.14838 0.0
O14 O 1.03785 0.60827 0.10983 0.0
O15 O 0.06893 0.54056 0.10788 0.0
C16 C 0.14649 0.76645 0.15276 0.0
C17 C 0.23525 0.83274 0.16231 0.0
C18 C 0.19921 0.84787 0.14765 0.0
C19 C 0.15523 0.81483 0.1428 0.0
C20 C 0.18209 0.75163 0.16787 0.0
C21 C 0.22604 0.78459 0.17268 0.0
C22 C 0.1015 0.73059 0.14586 0.0
C23 C 0.06434 0.57192 0.19906 0.0
C24 C 0.15938 0.56965 0.14792 0.0
C25 C 0.97222 0.37973 0.14937 0.0
C26 C 0.89319 0.31061 0.16558 0.0
C27 C 0.93077 0.3333 0.18299 0.0
C28 C 0.96977 0.36751 0.17502 0.0
C29 C 0.93481 0.35666 0.13191 0.0
C30 C 0.89564 0.32258 0.13993 0.0
C31 C 1.01312 0.41646 0.14063 0.0
H32 H 0.20538 0.88488 0.13956 0.0
H33 H 0.12826 0.82678 0.13095 0.0
H34 H 0.176 0.71441 0.17572 0.0
H35 H 0.25283 0.77264 0.18462 0.0
H36 H 0.92976 0.32496 0.20291 0.0
H37 H 0.99786 0.38447 0.18903 0.0
H38 H 0.93582 0.36502 0.112 0.0
H39 H 0.86757 0.3051 0.12603 0.0
Dy40 Dy 0.55613 0.01806 0.51501 0.0
Dy41 Dy 0.66991 0.04154 0.51864 0.0
C42 C 0.61533 0.03366 0.56698 0.0
O43 O 0.57601 0.10004 0.50532 0.0
O44 O 0.65203 0.11749 0.52277 0.0
O45 O 0.49474 0.99854 0.53571 0.0
O46 O 0.48741 1.01127 0.49545 0.0
O47 O 0.6456 0.05487 0.47886 0.0
O48 O 0.57619 0.99661 0.47758 0.0
O49 O 0.64926 0.95707 0.51281 0.0
O50 O 0.57266 0.94261 0.52275 0.0
O51 O 0.73512 0.03489 0.50446 0.0
O52 O 0.73555 0.07794 0.53908 0.0
C53 C 0.61487 0.13281 0.51334 0.0
O54 O 0.58512 0.05181 0.55277 0.0
O55 O 0.647 0.01564 0.55641 0.0
C56 C 0.42827 0.94839 0.51235 0.0
C57 C 0.35577 0.86038 0.50629 0.0
C58 C 0.38346 0.8711 0.52929 0.0
C59 C 0.41937 0.91466 0.5323 0.0
C60 C 0.40016 0.93787 0.48947 0.0
C61 C 0.3644 0.89425 0.48644 0.0
C62 C 0.4659 0.99485 0.51546 0.0
C63 C 0.61028 0.02451 0.466 0.0
C64 C 0.60979 0.92581 0.51778 0.0
C65 C 0.79421 0.10969 0.51192 0.0
C66 C 0.85545 0.19624 0.49526 0.0
C67 C 0.81875 0.16837 0.47877 0.0
C68 C 0.78828 0.1257 0.48704 0.0
C69 C 0.83116 0.137 0.52836 0.0
C70 C 0.86146 0.18008 0.52014 0.0
C71 C 0.76032 0.06684 0.52141 0.0
H72 H 0.37702 0.84616 0.54505 0.0
H73 H 0.43999 0.92188 0.55033 0.0
H74 H 0.40586 0.96333 0.47386 0.0
H75 H 0.34371 0.88675 0.46844 0.0
H76 H 0.81346 0.17974 0.45944 0.0
H77 H 0.75972 0.10572 0.47402 0.0
H78 H 0.83594 0.1256 0.54772 0.0
H79 H 0.88883 0.20137 0.53341 0.0
Dy80 Dy 0.59685 0.50866 0.84526 0.0
Dy81 Dy 0.48514 0.49267 0.8347 0.0
C82 C 0.55063 0.50213 0.79062 0.0
O83 O 0.58563 0.58698 0.8384 0.0
O84 O 0.5081 0.57529 0.84546 0.0
O85 O 0.6651 0.54731 0.83533 0.0
O86 O 0.65867 0.48979 0.86371 0.0
O87 O 0.4974 0.47866 0.87578 0.0
O88 O 0.57335 0.52457 0.88253 0.0
O89 O 0.4971 0.414 0.82992 0.0
O90 O 0.56927 0.4263 0.8518 0.0
O91 O 0.41571 0.48682 0.84666 0.0
O92 O 0.42562 0.48064 0.80683 0.0
C93 C 0.54892 0.60552 0.84222 0.0
O94 O 0.57694 0.48054 0.80564 0.0
O95 O 0.5197 0.52272 0.80023 0.0
C96 C 0.7164 0.49254 0.83496 0.0
C97 C 0.78125 0.45403 0.8092 0.0
C98 C 0.74393 0.4687 0.79559 0.0
C99 C 0.71152 0.48754 0.80838 0.0
C100 C 0.75164 0.47469 0.84858 0.0
C101 C 0.78376 0.4555 0.83584 0.0
C102 C 0.68608 0.51766 0.8486 0.0
C103 C 0.53354 0.50142 0.89097 0.0
C104 C 0.53116 0.39582 0.84124 0.0
C105 C 0.37641 0.53196 0.81932 0.0
C106 C 0.34821 0.62227 0.82597 0.0
C107 C 0.38928 0.6225 0.81419 0.0
C108 C 0.40352 0.57752 0.81104 0.0
C109 C 0.3333 0.5313 0.82893 0.0
C110 C 0.31928 0.57619 0.83223 0.0
C111 C 0.39774 0.48886 0.82356 0.0
H112 H 0.74156 0.46845 0.7751 0.0
H113 H 0.68402 0.50034 0.79743 0.0
H114 H 0.75568 0.47779 0.86906 0.0
H115 H 0.81283 0.44572 0.84689 0.0
H116 H 0.412 0.65764 0.80923 0.0
H117 H 0.43736 0.57897 0.8039 0.0
H118 H 0.31227 0.49672 0.83567 0.0
H119 H 0.28713 0.57535 0.84113 0.0
C120 C 0.69412 0.1507 0.19731 0.0
C121 C 0.73724 0.17681 0.20961 0.0
C122 C 0.74459 0.17367 0.23605 0.0
C123 C 0.6672 0.11963 0.23769 0.0
C124 C 0.65961 0.12233 0.21174 0.0
C125 C 0.61174 0.09164 0.20208 0.0
H126 H 0.40061 0.94709 0.22996 0.0
C127 C 0.62471 0.08803 0.24733 0.0
C128 C 0.59167 0.0716 0.22662 0.0
H129 H 0.44611 0.98429 0.15568 0.0
H130 H 0.52152 0.03256 0.17444 0.0
H131 H 0.49572 0.9199 0.25073 0.0
H132 H 0.44183 0.05269 0.25687 0.0
H133 H 0.47242 0.04797 0.28616 0.0
H134 H 0.42238 0.99845 0.27547 0.0
H135 H 0.44946 0.92395 0.27027 0.0
H136 H 0.51027 0.94271 0.282 0.0
C137 C 0.61853 0.04885 0.18449 0.0
C138 C 0.58382 0.12736 0.18909 0.0
C139 C 0.62097 0.05582 0.34167 0.0
C140 C 0.58564 0.03024 0.35642 0.0
C141 C 0.54078 1.00909 0.34451 0.0
C142 C 0.5317 1.01172 0.31833 0.0
C143 C 0.56762 0.03632 0.30376 0.0
C144 C 0.61112 0.05858 0.31549 0.0
C145 C 0.64415 0.08537 0.29708 0.0
C146 C 0.61364 0.07414 0.27228 0.0
C147 C 0.56909 0.04515 0.27636 0.0
C148 C 0.68667 0.06059 0.29754 0.0
C149 C 0.65683 0.14235 0.3043 0.0
C150 C 0.42674 0.96607 0.21779 0.0
C151 C 0.41764 0.96265 0.19147 0.0
C152 C 0.45262 0.98685 0.17609 0.0
C153 C 0.49622 0.01465 0.18701 0.0
C154 C 0.50497 0.01748 0.21355 0.0
C155 C 0.47043 0.99292 0.22834 0.0
C156 C 0.48599 0.99711 0.256 0.0
C157 C 0.53549 0.02867 0.25561 0.0
C158 C 0.54665 0.04115 0.23078 0.0
C159 C 0.48515 0.94332 0.2655 0.0
C160 C 0.45401 0.02514 0.26953 0.0
H161 H 0.71802 0.14478 0.27012 0.0
H162 H 0.68765 0.15185 0.17696 0.0
H163 H 0.58772 0.16217 0.20088 0.0
H164 H 0.54584 0.11071 0.18643 0.0
H165 H 0.59675 0.13861 0.17037 0.0
H166 H 0.64937 0.03426 0.19165 0.0
H167 H 0.62453 0.06237 0.16505 0.0
H168 H 0.58862 0.01585 0.18355 0.0
H169 H 0.65563 0.0731 0.35027 0.0
H170 H 0.51237 0.99094 0.3555 0.0
H171 H 0.49691 0.99454 0.3105 0.0
H172 H 0.67503 0.01901 0.29884 0.0
H173 H 0.71196 0.07451 0.31411 0.0
H174 H 0.70538 0.06664 0.28016 0.0
H175 H 0.6285 0.1534 0.31419 0.0
H176 H 0.6607 0.16649 0.28759 0.0
H177 H 0.68948 0.15249 0.31711 0.0
H178 H 0.77721 0.19373 0.24599 0.0
C179 C 0.70999 0.14539 0.25008 0.0
C180 C 0.60804 0.66982 0.52538 0.0
C181 C 0.60522 0.71488 0.53832 0.0
C182 C 0.60099 0.71364 0.56446 0.0
C183 C 0.60152 0.62496 0.56501 0.0
C184 C 0.60611 0.62487 0.53927 0.0
C185 C 0.60779 0.57217 0.52978 0.0
H186 H 0.61058 0.32753 0.56473 0.0
C187 C 0.59996 0.57385 0.57448 0.0
C188 C 0.60393 0.54172 0.55414 0.0
H189 H 0.61588 0.38018 0.48845 0.0
H190 H 0.61116 0.46441 0.50351 0.0
H191 H 0.67812 0.42147 0.59188 0.0
H192 H 0.52914 0.37376 0.57668 0.0
H193 H 0.53665 0.40437 0.60634 0.0
H194 H 0.55998 0.34934 0.60229 0.0
H195 H 0.64249 0.37194 0.6085 0.0
H196 H 0.65453 0.43666 0.61947 0.0
C197 C 0.65493 0.57479 0.51847 0.0
C198 C 0.56546 0.55255 0.51051 0.0
C199 C 0.58001 0.54497 0.66811 0.0
C200 C 0.57687 0.50218 0.68303 0.0
C201 C 0.58066 0.45663 0.67172 0.0
C202 C 0.58709 0.45354 0.64596 0.0
C203 C 0.58965 0.49644 0.63115 0.0
C204 C 0.58619 0.5411 0.64229 0.0
C205 C 0.58975 0.58267 0.62365 0.0
C206 C 0.59534 0.55535 0.59933 0.0
C207 C 0.59539 0.50514 0.60393 0.0
C208 C 0.63426 0.62408 0.63209 0.0
C209 C 0.54293 0.60018 0.62245 0.0
C210 C 0.61118 0.35707 0.55113 0.0
C211 C 0.61428 0.34713 0.52553 0.0
C212 C 0.61373 0.38677 0.50843 0.0
C213 C 0.61108 0.43556 0.51717 0.0
C214 C 0.60819 0.44463 0.54321 0.0
C215 C 0.60776 0.40482 0.55937 0.0
C216 C 0.60203 0.41793 0.58604 0.0
C217 C 0.60013 0.47251 0.58395 0.0
C218 C 0.60402 0.48958 0.55892 0.0
C219 C 0.64623 0.41146 0.60253 0.0
C220 C 0.55481 0.38462 0.59347 0.0
H221 H 0.59574 0.67214 0.59759 0.0
H222 H 0.61118 0.66958 0.50519 0.0
H223 H 0.53242 0.55586 0.51856 0.0
H224 H 0.56166 0.51251 0.50534 0.0
H225 H 0.56895 0.57461 0.49296 0.0
H226 H 0.68456 0.59279 0.53229 0.0
H227 H 0.65729 0.59731 0.50106 0.0
H228 H 0.65982 0.53704 0.51361 0.0
H229 H 0.57817 0.58081 0.67637 0.0
H230 H 0.57819 0.42311 0.68281 0.0
H231 H 0.58975 0.41767 0.63869 0.0
H232 H 0.6613 0.60799 0.64277 0.0
H233 H 0.62583 0.65308 0.64458 0.0
H234 H 0.65224 0.64263 0.61594 0.0
H235 H 0.51284 0.56824 0.62544 0.0
H236 H 0.53366 0.61451 0.60379 0.0
H237 H 0.54382 0.62942 0.63728 0.0
H238 H 0.59879 0.74736 0.57478 0.0
C239 C 0.59919 0.66953 0.57773 0.0
C240 C 0.20698 0.73136 0.84279 0.0
C241 C 0.24679 0.7537 0.85881 0.0
C242 C 0.24038 0.76555 0.88407 0.0
C243 C 0.16156 0.71322 0.87916 0.0
C244 C 0.16551 0.70929 0.85346 0.0
C245 C 0.12616 0.67024 0.8404 0.0
H246 H 0.93979 0.47742 0.84859 0.0
C247 C 0.11982 0.67488 0.88534 0.0
C248 C 0.09907 0.64981 0.86261 0.0
H249 H 0.9992 0.54054 0.7807 0.0
H250 H 1.05832 0.60107 0.80615 0.0
H251 H 1.04309 0.4875 0.88441 0.0
H252 H 0.93702 0.57235 0.87276 0.0
H253 H 0.95973 0.58503 0.90431 0.0
H254 H 0.9306 0.52141 0.8943 0.0
H255 H 0.98355 0.46629 0.89231 0.0
H256 H 1.02745 0.50453 0.91409 0.0
C257 C 0.14722 0.62974 0.82773 0.0
C258 C 0.09743 0.69741 0.82188 0.0
C259 C 0.08906 0.63632 0.97718 0.0
C260 C 1.05387 0.60128 0.98815 0.0
C261 C 1.01754 0.57039 0.9726 0.0
C262 C 1.01705 0.57297 0.94626 0.0
C263 C 1.05321 0.60695 0.9354 0.0
C264 C 0.08769 0.63896 0.95075 0.0
C265 C 0.12207 0.67397 0.93566 0.0
C266 C 0.10257 0.65738 0.90876 0.0
C267 C 1.06308 0.61716 0.90887 0.0
C268 C 0.17108 0.66304 0.942 0.0
C269 C 0.11932 0.72872 0.94172 0.0
C270 C 0.96689 0.50255 0.83914 0.0
C271 C 0.96579 0.50315 0.81258 0.0
C272 C 1.00004 0.5387 0.80112 0.0
C273 C 1.03374 0.57424 0.81595 0.0
C274 C 1.03302 0.57425 0.84248 0.0
C275 C 1.00019 0.53844 0.85359 0.0
C276 C 1.00226 0.54586 0.88178 0.0
C277 C 1.04225 0.59201 0.8859 0.0
C278 C 1.06021 0.60824 0.8629 0.0
C279 C 1.01448 0.49865 0.894 0.0
C280 C 0.955 0.55639 0.88885 0.0
H281 H 0.19613 0.75138 0.91428 0.0
H282 H 0.21008 0.72203 0.82322 0.0
H283 H 0.09578 0.73474 0.82984 0.0
H284 H 1.06043 0.6768 0.81834 0.0
H285 H 0.11354 0.70384 0.80357 0.0
H286 H 0.17941 0.6247 0.83891 0.0
H287 H 0.15691 0.64052 0.80837 0.0
H288 H 0.12377 0.59186 0.8267 0.0
H289 H 0.11696 0.6609 0.98892 0.0
H290 H 0.99005 0.54348 0.98089 0.0
H291 H 0.98884 0.54791 0.93541 0.0
H292 H 0.16842 0.62182 0.94318 0.0
H293 H 0.18704 0.68069 0.96051 0.0
H294 H 0.19572 0.67579 0.9275 0.0
H295 H 0.08287 0.73064 0.94515 0.0
H296 H 0.12857 0.75411 0.92586 0.0
H297 H 0.14228 0.74408 0.95893 0.0
H298 H 0.27019 0.78417 0.89668 0.0
C299 C 0.19772 0.74523 0.89439 0.0
C300 C 1.00652 0.40809 0.46472 0.0
C301 C 0.97162 0.37052 0.45176 0.0
C302 C 0.96343 0.37256 0.42534 0.0
C303 C 1.02477 0.44845 0.42493 0.0
C304 C 1.03245 0.44688 0.45094 0.0
C305 C 0.06999 0.49096 0.46156 0.0
H306 H 0.22338 0.71011 0.43983 0.0
C307 C 1.05744 0.49319 0.41622 0.0
C308 C 0.08403 0.51852 0.43757 0.0
H309 H 0.19665 0.64224 0.512 0.0
H310 H 0.14114 0.57087 0.49105 0.0
H311 H 0.23159 0.61316 0.41228 0.0
H312 H 0.11677 0.68529 0.41561 0.0
H313 H 0.1186 0.66738 0.38385 0.0
H314 H 0.16846 0.71036 0.39966 0.0
H315 H 0.22574 0.66403 0.39208 0.0
H316 H 0.19934 0.5993 0.38286 0.0
C317 C 0.11058 0.47065 0.47467 0.0
C318 C 1.04733 0.52225 0.47924 0.0
C319 C 1.05779 0.52951 0.32231 0.0
C320 C 0.08509 0.56773 0.30865 0.0
C321 C 0.12072 0.60453 0.32174 0.0
C322 C 0.12815 0.60427 0.34807 0.0
C323 C 0.1 0.56652 0.36155 0.0
C324 C 0.06597 0.52958 0.34868 0.0
C325 C 1.04065 0.49156 0.36619 0.0
C326 C 0.06508 0.51206 0.39167 0.0
C327 C 0.09936 0.55612 0.38876 0.0
C328 C 1.05 0.43964 0.35933 0.0
C329 C 0.98816 0.49353 0.36395 0.0
C330 C 0.2052 0.67998 0.45109 0.0
C331 C 0.21345 0.6817 0.47746 0.0
C332 C 0.1903 0.64148 0.4916 0.0
C333 C 0.15814 0.60038 0.47941 0.0
C334 C 0.14958 0.59969 0.45288 0.0
C335 C 0.17358 0.63889 0.43926 0.0
C336 C 0.16179 0.63175 0.4113 0.0
C337 C 0.1255 0.58244 0.41023 0.0
C338 C 0.1182 0.56373 0.43456 0.0
C339 C 0.20678 0.62712 0.3988 0.0
C340 C 0.14052 0.67598 0.40188 0.0
H341 H 0.98204 0.41047 0.39176 0.0
H342 H 1.01297 0.40759 0.48509 0.0
H343 H 1.0116 0.52397 0.47124 0.0
H344 H 0.06682 0.56183 0.48163 0.0
H345 H 1.04391 0.50527 0.49816 0.0
H346 H 0.1166 0.43814 0.46369 0.0
H347 H 0.10251 0.45768 0.49397 0.0
H348 H 0.14443 0.49859 0.47593 0.0
H349 H 1.03038 0.5005 0.31273 0.0
H350 H 0.14318 0.63341 0.31156 0.0
H351 H 0.15553 0.63361 0.35687 0.0
H352 H 0.08629 0.44379 0.35358 0.0
H353 H 1.02541 0.4209 0.34333 0.0
H354 H 1.04777 0.41405 0.37543 0.0
H355 H 0.98402 0.53238 0.36016 0.0
H356 H 0.97098 0.48351 0.3816 0.0
H357 H 0.96835 0.46859 0.34822 0.0
H358 H 0.93672 0.3438 0.41508 0.0
C359 C 0.98988 0.41118 0.41185 0.0
C360 C 0.55036 0.86079 0.83062 0.0
C361 C 0.55664 0.81672 0.81787 0.0
C362 C 0.56243 0.81926 0.79182 0.0
C363 C 0.55932 0.90716 0.79145 0.0
C364 C 0.55188 0.906 0.81687 0.0
C365 C 0.54695 0.95783 0.82614 0.0
H366 H 0.54375 0.20266 0.79074 0.0
C367 C 0.561 0.95841 0.78213 0.0
C368 C 0.55342 0.98938 0.80214 0.0
H369 H 0.52488 0.14704 0.86588 0.0
H370 H 0.5349 0.06411 0.85165 0.0
H371 H 0.62934 0.15946 0.784 0.0
H372 H 0.48311 0.10982 0.76065 0.0
H373 H 0.51207 0.09581 0.73482 0.0
H374 H 0.52154 0.16018 0.74596 0.0
H375 H 0.60292 0.1842 0.75688 0.0
H376 H 0.62821 0.1301 0.75443 0.0
C377 C 0.58603 0.97835 0.8471 0.0
C378 C 0.49767 0.95274 0.83524 0.0
C379 C 0.59328 0.99179 0.69 0.0
C380 C 0.59732 0.03512 0.67542 0.0
C381 C 0.59328 0.08037 0.68691 0.0
C382 C 0.58461 0.08242 0.71237 0.0
C383 C 0.57991 0.03872 0.72673 0.0
C384 C 0.5847 0.99458 0.71556 0.0
C385 C 0.57863 0.95212 0.73377 0.0
C386 C 0.56948 0.97816 0.75777 0.0
C387 C 0.56996 0.02854 0.75337 0.0
C388 C 0.62555 0.93486 0.73671 0.0
C389 C 0.53524 0.91089 0.7235 0.0
C390 C 0.54107 0.17274 0.80425 0.0
C391 C 0.53264 0.18154 0.82924 0.0
C392 C 0.531 0.14141 0.84631 0.0
C393 C 0.53671 0.09335 0.83806 0.0
C394 C 0.54491 0.0855 0.81258 0.0
C395 C 0.54739 0.12579 0.79655 0.0
C396 C 0.55857 0.11422 0.77062 0.0
C397 C 0.56112 0.05987 0.77288 0.0
C398 C 0.55305 0.04155 0.79742 0.0
C399 C 0.60701 0.1488 0.76599 0.0
C400 C 0.51707 0.12055 0.75187 0.0
H401 H 0.56888 0.86168 0.75906 0.0
H402 H 0.54541 0.8603 0.85063 0.0
H403 H 0.47041 0.93456 0.82021 0.0
H404 H 0.49082 0.98971 0.83996 0.0
H405 H 0.49336 0.92927 0.8523 0.0
H406 H 0.62089 0.9776 0.84052 0.0
H407 H 0.58097 0.95519 0.86423 0.0
H408 H 0.58694 0.0177 0.85255 0.0
H409 H 0.59547 0.95622 0.68157 0.0
H410 H 0.59649 0.11429 0.67606 0.0
H411 H 0.58132 0.11801 0.71967 0.0
H412 H 0.65605 0.96715 0.73514 0.0
H413 H 0.62688 0.90655 0.7218 0.0
H414 H 0.63231 0.91949 0.75547 0.0
H415 H 0.50963 0.92728 0.71179 0.0
H416 H 0.51485 0.8917 0.73874 0.0
H417 H 0.54555 0.88238 0.71149 0.0
H418 H 0.56608 0.78639 0.78127 0.0
C419 C 0.56385 0.86349 0.77876 0.0
C420 C 0.70439 0.57211 0.1546 0.0
C421 C 0.74585 0.5797 0.13966 0.0
C422 C 0.73687 0.59085 0.11423 0.0
C423 C 0.65157 0.57978 0.11725 0.0
C424 C 0.65716 0.57372 0.14289 0.0
C425 C 0.60684 0.56927 0.15321 0.0
H426 H 0.35752 0.52786 0.1088 0.0
C427 C 0.60018 0.57221 0.10854 0.0
C428 C 0.57124 0.56901 0.12917 0.0
H429 H 0.40527 0.60451 0.18027 0.0
H430 H 0.48782 0.60216 0.17294 0.0
H431 H 0.42366 0.5988 0.08259 0.0
H432 H 0.42841 0.45244 0.10897 0.0
H433 H 0.45196 0.45521 0.0795 0.0
H434 H 0.39267 0.46259 0.08144 0.0
H435 H 0.39256 0.54254 0.06569 0.0
H436 H 0.451 0.57442 0.05915 0.0
C437 C 0.60807 0.61473 0.17064 0.0
C438 C 0.59279 0.52009 0.16743 0.0
C439 C 0.56399 0.53399 0.01443 0.0
C440 C 0.52309 0.51114 -0.0006 0.0
C441 C 0.48071 0.49639 0.01096 0.0
C442 C 0.47916 0.50481 0.03696 0.0
C443 C 0.52045 0.52838 0.05176 0.0
C444 C 0.56197 0.54093 0.04043 0.0
C445 C 0.60302 0.56141 0.05898 0.0
C446 C 0.57924 0.56003 0.08362 0.0
C447 C 0.5307 0.54286 0.0791 0.0
C448 C 0.62421 0.61647 0.05172 0.0
C449 C 0.63711 0.52519 0.05845 0.0
C450 C 0.38453 0.54317 0.12366 0.0
C451 C 0.37155 0.56545 0.14532 0.0
C452 C 0.4114 0.58646 0.16304 0.0
C453 C 0.45996 0.58462 0.15899 0.0
C454 C 0.47153 0.56213 0.13665 0.0
C455 C 0.43248 0.54365 0.11951 0.0
C456 C 0.44713 0.53001 0.09472 0.0
C457 C 0.50042 0.54433 0.09859 0.0
C458 C 0.51836 0.56022 0.12385 0.0
C459 C 0.42757 0.56251 0.07434 0.0
C460 C 0.42893 0.47221 0.09068 0.0
H461 H 0.69007 0.60074 0.08395 0.0
H462 H 0.7086 0.56533 0.17462 0.0
H463 H 0.59228 0.48729 0.15477 0.0
H464 H 0.55724 0.51597 0.17416 0.0
H465 H 0.6181 0.51948 0.18405 0.0
H466 H 0.61787 0.65025 0.16021 0.0
H467 H 0.63423 0.61616 0.18709 0.0
H468 H 0.57316 0.6125 0.17782 0.0
H469 H 0.59713 0.54672 0.0062 0.0
H470 H 0.44865 0.47834 -0.00012 0.0
H471 H 0.44555 0.49329 0.0443 0.0
H472 H 0.59648 0.63495 0.04364 0.0
H473 H 0.65 0.61788 0.03734 0.0
H474 H 0.64096 0.64071 0.06827 0.0
H475 H 0.62207 0.49032 0.04683 0.0
H476 H 0.64524 0.51132 0.07746 0.0
H477 H 0.67039 0.54328 0.05035 0.0
H478 H 0.76557 0.59863 0.10208 0.0
C479 C 0.69176 0.59141 0.10341 0.0
C480 C 0.23017 0.52735 0.13912 0.0
C481 C 0.2139 0.56913 0.14827 0.0
C482 C 0.27935 0.52658 0.13857 0.0
C483 C 0.31766 0.56689 0.14777 0.0
H484 H 0.20437 0.49451 0.1317 0.0
H485 H 0.28731 0.49302 0.1308 0.0
S486 S 0.29718 0.68578 0.17493 0.0
N487 N 0.24329 0.65268 0.16726 0.0
N488 N 0.33287 0.65055 0.16696 0.0
C489 C 0.3019 0.60854 0.15749 0.0
C490 C 0.25169 0.60983 0.15751 0.0
C491 C 0.86611 0.2775 0.47268 0.0
C492 C 0.88624 0.24273 0.48639 0.0
C493 C 0.89408 0.31968 0.46226 0.0
C494 C 0.94322 0.32893 0.46537 0.0
H495 H 0.82834 0.27172 0.46969 0.0
H496 H 0.87717 0.3449 0.45135 0.0
S497 S 1.01353 0.25019 0.49972 0.0
N498 N 0.95853 0.2207 0.5026 0.0
N499 N 1.01112 0.30084 0.48332 0.0
C500 C 0.96395 0.29555 0.47966 0.0
C501 C 0.93545 0.25224 0.49012 0.0
C502 C 0.59176 0.69192 0.82955 0.0
C503 C 0.55306 0.66168 0.84043 0.0
C504 C 0.59426 0.74302 0.82451 0.0
C505 C 0.55827 0.76711 0.83003 0.0
H506 H 0.6197 0.67554 0.82375 0.0
H507 H 0.62385 0.76339 0.81495 0.0
S508 S 0.45358 0.70839 0.86308 0.0
N509 N 0.48079 0.66227 0.85989 0.0
N510 N 0.48543 0.75799 0.84999 0.0
C511 C 0.52109 0.73862 0.84267 0.0
C512 C 0.51842 0.68618 0.84785 0.0
C513 C 0.88589 0.62164 0.1491 0.0
C514 C 0.9032 0.57677 0.14878 0.0
C515 C 0.83643 0.62215 0.14817 0.0
C516 C 0.79904 0.57798 0.14764 0.0
H517 H 0.91097 0.65751 0.1493 0.0
H518 H 0.82729 0.65834 0.14706 0.0
S519 S 0.82208 0.44916 0.14624 0.0
N520 N 0.87547 0.48576 0.14766 0.0
N521 N 0.78553 0.48706 0.1462 0.0
C522 C 0.81581 0.53286 0.14759 0.0
C523 C 0.86619 0.53221 0.14822 0.0
C524 C 0.27353 0.8174 0.49154 0.0
C525 C 0.31771 0.81416 0.50269 0.0
C526 C 0.2387 0.77407 0.48497 0.0
C527 C 0.24667 0.72597 0.48947 0.0
H528 H 0.2663 0.8537 0.48717 0.0
H529 H 0.20589 0.7781 0.47537 0.0
S530 S 0.35522 0.69671 0.51916 0.0
N531 N 0.3668 0.7588 0.51881 0.0
N532 N 0.30077 0.67723 0.50658 0.0
C533 C 0.28963 0.72205 0.50174 0.0
C534 C 0.32533 0.76623 0.50835 0.0
C535 C 0.49533 0.30703 0.82416 0.0
C536 C 0.52808 0.33971 0.84108 0.0
C537 C 0.49515 0.25542 0.82172 0.0
C538 C 0.52717 0.23344 0.83633 0.0
H539 H 0.47073 0.32175 0.81187 0.0
H540 H 0.47067 0.23272 0.80752 0.0
S541 S 0.61781 0.30071 0.88493 0.0
N542 N 0.59181 0.34471 0.87395 0.0
N543 N 0.591 0.24824 0.86927 0.0
C544 C 0.55853 0.26494 0.85419 0.0
C545 C 0.55914 0.31773 0.85655 0.0
C546 C 0.64892 0.85158 0.5205 0.0
C547 C 0.60755 0.86998 0.51887 0.0
C548 C 0.64784 0.80005 0.52427 0.0
C549 C 0.60531 0.7643 0.52608 0.0
H550 H 0.68276 0.87752 0.52012 0.0
H551 H 0.68075 0.78861 0.52728 0.0
S552 S 0.48673 0.79087 0.52074 0.0
N553 N 0.52231 0.84636 0.51755 0.0
N554 N 0.52072 0.75054 0.5246 0.0
C555 C 0.56368 0.78162 0.52314 0.0
C556 C 0.56466 0.83397 0.51951 0.0
C557 C 0.84655 0.49249 0.78399 0.0
C558 C 0.82359 0.45007 0.79673 0.0
C559 C 0.8955 0.50533 0.78461 0.0
C560 C 0.92228 0.47599 0.79801 0.0
H561 H 0.82761 0.52007 0.77713 0.0
H562 H 0.91201 0.54231 0.77829 0.0
S563 S 0.87744 0.35037 0.82397 0.0
N564 N 0.82987 0.37059 0.81523 0.0
N565 N 0.92227 0.39458 0.81614 0.0
C566 C 0.89924 0.42792 0.80532 0.0
C567 C 0.84946 0.415 0.80484 0.0
C568 C 0.28623 0.91542 0.17817 0.0
C569 C 0.28217 0.86735 0.16724 0.0
C570 C 0.33038 0.94706 0.18502 0.0
C571 C 0.37191 0.93216 0.18065 0.0
H572 H 0.2551 0.92787 0.18235 0.0
H573 H 0.33212 0.98294 0.19437 0.0
S574 S 0.38045 0.81154 0.15114 0.0
N575 N 0.32349 0.80741 0.15132 0.0
N576 N 0.4064 0.86721 0.164 0.0
C577 C 0.36838 0.88509 0.16889 0.0
C578 C 0.32351 0.85258 0.16224 0.0
C579 C 0.65335 0.22281 0.52709 0.0
C580 C 0.61631 0.18856 0.51332 0.0
C581 C 0.65376 0.2744 0.52952 0.0
C582 C 0.61766 0.29486 0.51794 0.0
H583 H 0.68163 0.20946 0.53698 0.0
H584 H 0.68196 0.29836 0.54136 0.0
S585 S 0.51412 0.22331 0.47821 0.0
N586 N 0.54348 0.18039 0.4867 0.0
N587 N 0.54481 0.2771 0.49122 0.0
C588 C 0.58152 0.26181 0.50317 0.0
C589 C 0.5807 0.20894 0.50089 0.0
C590 C 0.33288 0.6752 0.86085 0.0
C591 C 0.33772 0.66939 0.83497 0.0
C592 C 0.31105 0.71155 0.86961 0.0
C593 C 0.29177 0.7422 0.85258 0.0
H594 H 0.34267 0.64876 0.87418 0.0
H595 H 0.30349 0.71021 0.88929 0.0
S596 S 0.30944 0.75227 0.78417 0.0
N597 N 0.33259 0.7049 0.79332 0.0
N598 N 0.29084 0.77365 0.80979 0.0
C599 C 0.30387 0.74248 0.82735 0.0
C600 C 0.32648 0.7054 0.81843 0.0
C601 C 0.85925 0.23505 0.19027 0.0
C602 C 0.85206 0.27411 0.17442 0.0
C603 C 0.82164 0.20246 0.20057 0.0
C604 C 0.77522 0.20762 0.19555 0.0
H605 H 0.89439 0.23003 0.19502 0.0
H606 H 0.82908 0.17352 0.21303 0.0
S607 S 0.73741 0.30365 0.15514 0.0
N608 N 0.79488 0.31569 0.15387 0.0
N609 N 0.72413 0.25453 0.17341 0.0
C610 C 0.76731 0.24557 0.17915 0.0
C611 C 0.80572 0.27879 0.16857 0.0
C612 C 1.02014 0.60284 0.05549 0.0
C613 C 1.05384 0.58153 0.06883 0.0
C614 C 1.02043 0.60928 0.02932 0.0
C615 C 1.05512 0.59581 0.01579 0.0
H616 H 0.99298 0.61405 0.0653 0.0
H617 H 0.99352 0.62509 0.0196 0.0
S618 S 0.15192 0.54003 0.04172 0.0
N619 N 0.12305 0.54743 0.06647 0.0
N620 N 0.12409 0.56082 0.01729 0.0
C621 C 0.0893 0.5751 0.02883 0.0
C622 C 0.08851 0.56757 0.05538 0.0
C623 C 0.62488 0.06826 0.42523 0.0
C624 C 0.60699 0.02405 0.43809 0.0
C625 C 0.61864 0.06973 0.39878 0.0
C626 C 0.5948 0.02687 0.38424 0.0
H627 H 0.64239 0.10246 0.43571 0.0
H628 H 0.63138 0.10512 0.38975 0.0
S629 S 0.54743 0.89996 0.40879 0.0
N630 N 0.56803 0.93539 0.43435 0.0
N631 N 0.55776 0.93756 0.38463 0.0
C632 C 0.5788 0.98179 0.39688 0.0
C633 C 0.58455 0.98053 0.42379 0.0
C634 C 0.59202 0.48336 0.75361 0.0
C635 C 0.55682 0.50391 0.76315 0.0
C636 C 0.5986 0.4837 0.72778 0.0
C637 C 0.57022 0.5045 0.71039 0.0
H638 H 0.6147 0.46654 0.76613 0.0
H639 H 0.62623 0.46753 0.72136 0.0
S640 S 0.47246 0.56224 0.72526 0.0
N641 N 0.49298 0.54563 0.75295 0.0
N642 N 0.50507 0.54544 0.70427 0.0
C643 C 0.535 0.5254 0.71956 0.0
C644 C 0.52831 0.5252 0.74594 0.0
C645 C 0.57773 0.05341 0.60514 0.0
C646 C 0.61245 0.0333 0.59477 0.0
C647 C 0.57312 0.05341 0.63115 0.0
C648 C 0.60295 0.03326 0.64794 0.0
H649 H 0.55362 0.06934 0.59312 0.0
H650 H 0.54564 0.06906 0.63815 0.0
S651 S 0.69999 0.97652 0.63089 0.0
N652 N 0.67746 0.99267 0.60357 0.0
N653 N 0.66879 0.99317 0.65267 0.0
C654 C 0.63776 1.01284 0.638 0.0
C655 C 0.64259 1.01286 0.61139 0.0
C656 C 0.49182 0.51431 0.92866 0.0
C657 C 0.52975 0.50039 0.91838 0.0
C658 C 0.48943 0.51674 0.95491 0.0
C659 C 0.52445 0.50437 0.97168 0.0
H660 H 0.46472 0.52505 0.91637 0.0
H661 H 0.46066 0.52982 0.96211 0.0
S662 S 0.62708 0.45805 0.95348 0.0
N663 N 0.60085 0.47013 0.92635 0.0
N664 N 0.59531 0.47201 0.97568 0.0
C665 C 0.56126 0.4878 0.96138 0.0
C666 C 0.56416 0.48647 0.93471 0.0
C667 C 0.06831 0.52615 0.23947 0.0
C668 C 0.0674 0.57119 0.22696 0.0
C669 C 0.0733 0.52511 0.26593 0.0
C670 C 0.07719 0.569 0.28078 0.0
H671 H 0.06633 0.49166 0.22876 0.0
H672 H 0.07525 0.48996 0.2748 0.0
S673 S 0.07079 0.69507 0.25731 0.0
N674 N 0.06718 0.65991 0.23145 0.0
N675 N 0.07551 0.65762 0.28117 0.0
C676 C 0.07453 0.61383 0.26853 0.0
C677 C 0.06989 0.61501 0.24162 0.0
loop_
_geom_bond_atom_site_label_1
_geom_bond_atom_site_label_2
_geom_bond_distance
_geom_bond_site_symmetry_2
_ccdc_geom_bond_type
Dy0 O3 2.307 1_455 S
Dy0 O5 2.395 . S
Dy0 O6 2.379 . S
Dy0 O8 2.339 . S
Dy0 O10 2.298 . S
Dy0 O14 2.275 . S
Dy0 C22 2.738 . S
Dy1 O4 2.298 . S
Dy1 O7 2.275 1_655 S
Dy1 O9 2.307 1_655 S
Dy1 O11 2.395 . S
Dy1 O12 2.379 . S
Dy1 O15 2.339 . S
Dy1 C31 2.738 . S
C2 O14 1.254 . S
C2 O15 1.257 1_455 S
O3 Dy0 2.307 1_655 S
O3 C13 1.266 . S
O4 Dy1 2.298 . S
O4 C13 1.236 . S
O5 Dy0 2.395 . S
O5 C22 1.255 . S
O6 Dy0 2.379 . S
O6 C22 1.249 . S
O7 Dy1 2.275 1_455 S
O7 C23 1.254 . S
O8 Dy0 2.339 . S
O8 C23 1.257 . S
O9 Dy1 2.307 1_455 S
O9 C24 1.266 . S
O10 Dy0 2.298 . S
O10 C24 1.236 . S
O11 Dy1 2.395 . S
O11 C31 1.255 . S
O12 Dy1 2.379 . S
O12 C31 1.249 . S
C13 O3 1.266 . S
C13 O4 1.236 . S
O14 Dy0 2.275 . S
O14 C2 1.254 . S
O15 Dy1 2.339 . S
O15 C2 1.257 1_655 S
C16 C19 1.344 . S
C16 C20 1.328 . S
C16 C22 1.516 . S
C17 C18 1.304 . S
C17 C21 1.323 . S
C18 C17 1.304 . S
C18 C19 1.371 . S
C18 H32 0.930 . S
C19 C16 1.344 . S
C19 C18 1.371 . S
C19 H33 0.931 . S
C20 C16 1.328 . S
C20 C21 1.433 . S
C20 H34 0.931 . S
C21 C17 1.323 . S
C21 C20 1.433 . S
C21 H35 0.933 . S
C22 Dy0 2.738 . S
C22 O5 1.255 . S
C22 O6 1.249 . S
C22 C16 1.516 . S
C23 O7 1.254 . S
C23 O8 1.257 . S
C24 O9 1.266 . S
C24 O10 1.236 . S
C25 C28 1.344 . S
C25 C29 1.328 . S
C25 C31 1.516 . S
C26 C27 1.304 . S
C26 C30 1.323 . S
C27 C26 1.304 . S
C27 C28 1.371 . S
C27 H36 0.930 . S
C28 C25 1.344 . S
C28 C27 1.371 . S
C28 H37 0.931 . S
C29 C25 1.328 . S
C29 C30 1.433 . S
C29 H38 0.931 . S
C30 C26 1.323 . S
C30 C29 1.433 . S
C30 H39 0.933 . S
C31 Dy1 2.738 . S
C31 O11 1.255 . S
C31 O12 1.249 . S
C31 C25 1.516 . S
H32 C18 0.930 . S
H33 C19 0.931 . S
H34 C20 0.931 . S
H35 C21 0.933 . S
H36 C27 0.930 . S
H37 C28 0.931 . S
H38 C29 0.931 . S
H39 C30 0.933 . S
Dy40 O43 2.307 1_565 S
Dy40 O45 2.395 . S
Dy40 O46 2.379 . S
Dy40 O48 2.339 1_565 S
Dy40 O50 2.298 . S
Dy40 O54 2.275 1_565 S
Dy40 C62 2.738 . S
Dy41 O44 2.298 . S
Dy41 O47 2.275 . S
Dy41 O49 2.307 1_545 S
Dy41 O51 2.395 . S
Dy41 O52 2.379 . S
Dy41 O55 2.339 . S
Dy41 C71 2.738 . S
C42 O54 1.254 . S
C42 O55 1.257 . S
O43 Dy40 2.307 1_545 S
O43 C53 1.266 . S
O44 Dy41 2.298 . S
O44 C53 1.236 . S
O45 Dy40 2.395 . S
O45 C62 1.255 . S
O46 Dy40 2.379 . S
O46 C62 1.249 . S
O47 Dy41 2.275 . S
O47 C63 1.254 . S
O48 Dy40 2.339 1_545 S
O48 C63 1.257 . S
O49 Dy41 2.307 1_565 S
O49 C64 1.266 . S
O50 Dy40 2.298 . S
O50 C64 1.236 . S
O51 Dy41 2.395 . S
O51 C71 1.255 . S
O52 Dy41 2.379 . S
O52 C71 1.249 . S
C53 O43 1.266 . S
C53 O44 1.236 . S
O54 Dy40 2.275 1_545 S
O54 C42 1.254 . S
O55 Dy41 2.339 . S
O55 C42 1.257 . S
C56 C59 1.344 . S
C56 C60 1.328 . S
C56 C62 1.516 . S
C57 C58 1.304 . S
C57 C61 1.323 . S
C58 C57 1.304 . S
C58 C59 1.371 . S
C58 H72 0.930 . S
C59 C56 1.344 . S
C59 C58 1.371 . S
C59 H73 0.931 . S
C60 C56 1.328 . S
C60 C61 1.433 . S
C60 H74 0.931 . S
C61 C57 1.323 . S
C61 C60 1.433 . S
C61 H75 0.933 . S
C62 Dy40 2.738 . S
C62 O45 1.255 . S
C62 O46 1.249 . S
C62 C56 1.516 . S
C63 O47 1.254 . S
C63 O48 1.257 . S
C64 O49 1.266 . S
C64 O50 1.236 . S
C65 C68 1.344 . S
C65 C69 1.328 . S
C65 C71 1.516 . S
C66 C67 1.304 . S
C66 C70 1.323 . S
C67 C66 1.304 . S
C67 C68 1.371 . S
C67 H76 0.930 . S
C68 C65 1.344 . S
C68 C67 1.371 . S
C68 H77 0.931 . S
C69 C65 1.328 . S
C69 C70 1.433 . S
C69 H78 0.931 . S
C70 C66 1.323 . S
C70 C69 1.433 . S
C70 H79 0.933 . S
C71 Dy41 2.738 . S
C71 O51 1.255 . S
C71 O52 1.249 . S
C71 C65 1.516 . S
H72 C58 0.930 . S
H73 C59 0.931 . S
H74 C60 0.931 . S
H75 C61 0.933 . S
H76 C67 0.930 . S
H77 C68 0.931 . S
H78 C69 0.931 . S
H79 C70 0.933 . S
Dy80 O83 2.307 . S
Dy80 O85 2.395 . S
Dy80 O86 2.379 . S
Dy80 O88 2.339 . S
Dy80 O90 2.298 . S
Dy80 O94 2.275 . S
Dy80 C102 2.738 . S
Dy81 O84 2.298 . S
Dy81 O87 2.275 . S
Dy81 O89 2.307 . S
Dy81 O91 2.395 . S
Dy81 O92 2.379 . S
Dy81 O95 2.339 . S
Dy81 C111 2.738 . S
C82 O94 1.254 . S
C82 O95 1.257 . S
O83 Dy80 2.307 . S
O83 C93 1.266 . S
O84 Dy81 2.298 . S
O84 C93 1.236 . S
O85 Dy80 2.395 . S
O85 C102 1.255 . S
O86 Dy80 2.379 . S
O86 C102 1.249 . S
O87 Dy81 2.275 . S
O87 C103 1.254 . S
O88 Dy80 2.339 . S
O88 C103 1.257 . S
O89 Dy81 2.307 . S
O89 C104 1.266 . S
O90 Dy80 2.298 . S
O90 C104 1.236 . S
O91 Dy81 2.395 . S
O91 C111 1.255 . S
O92 Dy81 2.379 . S
O92 C111 1.249 . S
C93 O83 1.266 . S
C93 O84 1.236 . S
O94 Dy80 2.275 . S
O94 C82 1.254 . S
O95 Dy81 2.339 . S
O95 C82 1.257 . S
C96 C99 1.344 . S
C96 C100 1.328 . S
C96 C102 1.516 . S
C97 C98 1.304 . S
C97 C101 1.323 . S
C98 C97 1.304 . S
C98 C99 1.371 . S
C98 H112 0.930 . S
C99 C96 1.344 . S
C99 C98 1.371 . S
C99 H113 0.931 . S
C100 C96 1.328 . S
C100 C101 1.433 . S
C100 H114 0.931 . S
C101 C97 1.323 . S
C101 C100 1.433 . S
C101 H115 0.933 . S
C102 Dy80 2.738 . S
C102 O85 1.255 . S
C102 O86 1.249 . S
C102 C96 1.516 . S
C103 O87 1.254 . S
C103 O88 1.257 . S
C104 O89 1.266 . S
C104 O90 1.236 . S
C105 C108 1.344 . S
C105 C109 1.328 . S
C105 C111 1.516 . S
C106 C107 1.304 . S
C106 C110 1.323 . S
C107 C106 1.304 . S
C107 C108 1.371 . S
C107 H116 0.930 . S
C108 C105 1.344 . S
C108 C107 1.371 . S
C108 H117 0.931 . S
C109 C105 1.328 . S
C109 C110 1.433 . S
C109 H118 0.931 . S
C110 C106 1.323 . S
C110 C109 1.433 . S
C110 H119 0.933 . S
C111 Dy81 2.738 . S
C111 O91 1.255 . S
C111 O92 1.249 . S
C111 C105 1.516 . S
H112 C98 0.930 . S
H113 C99 0.931 . S
H114 C100 0.931 . S
H115 C101 0.933 . S
H116 C107 0.930 . S
H117 C108 0.931 . S
H118 C109 0.931 . S
H119 C110 0.933 . S
C120 C121 1.391 . S
C120 C124 1.391 . S
C120 H162 0.948 . S
C121 C120 1.391 . S
C121 C122 1.391 . S
C122 C121 1.391 . S
C122 H178 0.947 . S
C122 C179 1.392 . S
C123 C124 1.391 . S
C123 C127 1.397 . S
C123 C179 1.419 . S
C124 C120 1.391 . S
C124 C123 1.391 . S
C124 C125 1.399 . S
C125 C124 1.399 . S
C125 C128 1.396 . S
C125 C137 1.453 . S
C125 C138 1.684 . S
H126 C150 0.948 . S
C127 C123 1.397 . S
C127 C128 1.394 . S
C127 C146 1.723 . S
C128 C125 1.396 . S
C128 C127 1.394 . S
C128 C158 1.723 . S
H129 C152 0.947 . S
H130 C153 0.948 1_545 S
H131 C159 0.982 . S
H132 C160 0.979 1_545 S
H133 C160 0.980 . S
H134 C160 0.983 . S
H135 C159 0.979 . S
H136 C159 0.977 . S
C137 C125 1.453 . S
C137 H166 0.982 . S
C137 H167 0.979 . S
C137 H168 0.977 . S
C138 C125 1.684 . S
C138 H163 0.979 . S
C138 H164 0.980 . S
C138 H165 0.983 . S
C139 C140 1.391 . S
C139 C144 1.391 . S
C139 H169 0.948 . S
C140 C139 1.391 . S
C140 C141 1.391 . S
C141 C140 1.391 . S
C141 C142 1.392 . S
C141 H170 0.947 1_545 S
C142 C141 1.392 . S
C142 C143 1.419 . S
C142 H171 0.948 1_545 S
C143 C142 1.419 . S
C143 C144 1.391 . S
C143 C147 1.397 . S
C144 C139 1.391 . S
C144 C143 1.391 . S
C144 C145 1.399 . S
C145 C144 1.399 . S
C145 C146 1.396 . S
C145 C148 1.453 . S
C145 C149 1.684 . S
C146 C127 1.723 . S
C146 C145 1.396 . S
C146 C147 1.394 . S
C147 C143 1.397 . S
C147 C146 1.394 . S
C147 C157 1.723 . S
C148 C145 1.453 . S
C148 H172 0.982 . S
C148 H173 0.979 . S
C148 H174 0.977 . S
C149 C145 1.684 . S
C149 H175 0.979 . S
C149 H176 0.980 . S
C149 H177 0.983 . S
C150 H126 0.948 . S
C150 C151 1.391 . S
C150 C155 1.391 . S
C151 C150 1.391 . S
C151 C152 1.391 . S
C152 H129 0.947 . S
C152 C151 1.391 . S
C152 C153 1.392 . S
C153 H130 0.948 1_565 S
C153 C152 1.392 . S
C153 C154 1.419 . S
C154 C153 1.419 . S
C154 C155 1.391 . S
C154 C158 1.397 1_565 S
C155 C150 1.391 . S
C155 C154 1.391 . S
C155 C156 1.399 . S
C156 C155 1.399 . S
C156 C157 1.396 1_565 S
C156 C159 1.453 . S
C156 C160 1.684 . S
C157 C147 1.723 . S
C157 C156 1.396 1_545 S
C157 C158 1.394 . S
C158 C128 1.723 . S
C158 C154 1.397 1_545 S
C158 C157 1.394 . S
C159 H131 0.982 . S
C159 H135 0.979 . S
C159 H136 0.977 . S
C159 C156 1.453 . S
C160 H132 0.979 1_565 S
C160 H133 0.980 . S
C160 H134 0.983 . S
C160 C156 1.684 . S
H161 C179 0.948 . S
H162 C120 0.948 . S
H163 C138 0.979 . S
H164 C138 0.980 . S
H165 C138 0.983 . S
H166 C137 0.982 . S
H167 C137 0.979 . S
H168 C137 0.977 . S
H169 C139 0.948 . S
H170 C141 0.947 1_565 S
H171 C142 0.948 1_565 S
H172 C148 0.982 . S
H173 C148 0.979 . S
H174 C148 0.977 . S
H175 C149 0.979 . S
H176 C149 0.980 . S
H177 C149 0.983 . S
H178 C122 0.947 . S
C179 C122 1.392 . S
C179 C123 1.419 . S
C179 H161 0.948 . S
C180 C181 1.391 . S
C180 C184 1.391 . S
C180 H222 0.948 . S
C181 C180 1.391 . S
C181 C182 1.391 . S
C182 C181 1.391 . S
C182 H238 0.947 . S
C182 C239 1.392 . S
C183 C184 1.391 . S
C183 C187 1.397 . S
C183 C239 1.419 . S
C184 C180 1.391 . S
C184 C183 1.391 . S
C184 C185 1.399 . S
C185 C184 1.399 . S
C185 C188 1.396 . S
C185 C197 1.453 . S
C185 C198 1.684 . S
H186 C210 0.948 . S
C187 C183 1.397 . S
C187 C188 1.394 . S
C187 C206 1.723 . S
C188 C185 1.396 . S
C188 C187 1.394 . S
C188 C218 1.723 . S
H189 C212 0.947 . S
H190 C213 0.948 . S
H191 C219 0.982 . S
H192 C220 0.979 . S
H193 C220 0.980 . S
H194 C220 0.983 . S
H195 C219 0.979 . S
H196 C219 0.977 . S
C197 C185 1.453 . S
C197 H226 0.982 . S
C197 H227 0.979 . S
C197 H228 0.977 . S
C198 C185 1.684 . S
C198 H223 0.979 . S
C198 H224 0.980 . S
C198 H225 0.983 . S
C199 C200 1.391 . S
C199 C204 1.391 . S
C199 H229 0.948 . S
C200 C199 1.391 . S
C200 C201 1.391 . S
C201 C200 1.391 . S
C201 C202 1.392 . S
C201 H230 0.947 . S
C202 C201 1.392 . S
C202 C203 1.419 . S
C202 H231 0.948 . S
C203 C202 1.419 . S
C203 C204 1.391 . S
C203 C207 1.397 . S
C204 C199 1.391 . S
C204 C203 1.391 . S
C204 C205 1.399 . S
C205 C204 1.399 . S
C205 C206 1.396 . S
C205 C208 1.453 . S
C205 C209 1.684 . S
C206 C187 1.723 . S
C206 C205 1.396 . S
C206 C207 1.394 . S
C207 C203 1.397 . S
C207 C206 1.394 . S
C207 C217 1.723 . S
C208 C205 1.453 . S
C208 H232 0.982 . S
C208 H233 0.979 . S
C208 H234 0.977 . S
C209 C205 1.684 . S
C209 H235 0.979 . S
C209 H236 0.980 . S
C209 H237 0.983 . S
C210 H186 0.948 . S
C210 C211 1.391 . S
C210 C215 1.391 . S
C211 C210 1.391 . S
C211 C212 1.391 . S
C212 H189 0.947 . S
C212 C211 1.391 . S
C212 C213 1.392 . S
C213 H190 0.948 . S
C213 C212 1.392 . S
C213 C214 1.419 . S
C214 C213 1.419 . S
C214 C215 1.391 . S
C214 C218 1.397 . S
C215 C210 1.391 . S
C215 C214 1.391 . S
C215 C216 1.399 . S
C216 C215 1.399 . S
C216 C217 1.396 . S
C216 C219 1.453 . S
C216 C220 1.684 . S
C217 C207 1.723 . S
C217 C216 1.396 . S
C217 C218 1.394 . S
C218 C188 1.723 . S
C218 C214 1.397 . S
C218 C217 1.394 . S
C219 H191 0.982 . S
C219 H195 0.979 . S
C219 H196 0.977 . S
C219 C216 1.453 . S
C220 H192 0.979 . S
C220 H193 0.980 . S
C220 H194 0.983 . S
C220 C216 1.684 . S
H221 C239 0.948 . S
H222 C180 0.948 . S
H223 C198 0.979 . S
H224 C198 0.980 . S
H225 C198 0.983 . S
H226 C197 0.982 . S
H227 C197 0.979 . S
H228 C197 0.977 . S
H229 C199 0.948 . S
H230 C201 0.947 . S
H231 C202 0.948 . S
H232 C208 0.982 . S
H233 C208 0.979 . S
H234 C208 0.977 . S
H235 C209 0.979 . S
H236 C209 0.980 . S
H237 C209 0.983 . S
H238 C182 0.947 . S
C239 C182 1.392 . S
C239 C183 1.419 . S
C239 H221 0.948 . S
C240 C241 1.391 . S
C240 C244 1.391 . S
C240 H282 0.948 . S
C241 C240 1.391 . S
C241 C242 1.391 . S
C242 C241 1.391 . S
C242 H298 0.947 . S
C242 C299 1.392 . S
C243 C244 1.391 . S
C243 C247 1.397 . S
C243 C299 1.419 . S
C244 C240 1.391 . S
C244 C243 1.391 . S
C244 C245 1.399 . S
C245 C244 1.399 . S
C245 C248 1.396 . S
C245 C257 1.453 . S
C245 C258 1.684 . S
H246 C270 0.948 . S
C247 C243 1.397 . S
C247 C248 1.394 . S
C247 C266 1.723 . S
C248 C245 1.396 . S
C248 C247 1.394 . S
C248 C278 1.723 1_455 S
H249 C272 0.947 . S
H250 C273 0.948 . S
H251 C279 0.982 . S
H252 C280 0.979 . S
H253 C280 0.980 . S
H254 C280 0.983 . S
H255 C279 0.979 . S
H256 C279 0.977 . S
C257 C245 1.453 . S
C257 H286 0.982 . S
C257 H287 0.979 . S
C257 H288 0.977 1_455 S
C258 C245 1.684 . S
C258 H283 0.979 . S
C258 H284 0.980 . S
C258 H285 0.983 . S
C259 C260 1.391 . S
C259 C264 1.391 1_554 S
C259 H289 0.948 . S
C260 C259 1.391 . S
C260 C261 1.391 1_455 S
C261 C260 1.391 1_655 S
C261 C262 1.392 1_554 S
C261 H290 0.947 . S
C262 C261 1.392 1_556 S
C262 C263 1.419 1_655 S
C262 H291 0.948 . S
C263 C262 1.419 1_455 S
C263 C264 1.391 . S
C263 C267 1.397 . S
C264 C259 1.391 1_556 S
C264 C263 1.391 . S
C264 C265 1.399 . S
C265 C264 1.399 . S
C265 C266 1.396 . S
C265 C268 1.453 . S
C265 C269 1.684 . S
C266 C247 1.723 . S
C266 C265 1.396 . S
C266 C267 1.394 . S
C267 C263 1.397 . S
C267 C266 1.394 . S
C267 C277 1.723 1_455 S
C268 C265 1.453 . S
C268 H292 0.982 . S
C268 H293 0.979 . S
C268 H294 0.977 . S
C269 C265 1.684 . S
C269 H295 0.979 . S
C269 H296 0.980 . S
C269 H297 0.983 . S
C270 H246 0.948 . S
C270 C271 1.391 . S
C270 C275 1.391 . S
C271 C270 1.391 . S
C271 C272 1.391 . S
C272 H249 0.947 . S
C272 C271 1.391 . S
C272 C273 1.392 . S
C273 H250 0.948 . S
C273 C272 1.392 . S
C273 C274 1.419 . S
C274 C273 1.419 . S
C274 C275 1.391 . S
C274 C278 1.397 . S
C275 C270 1.391 . S
C275 C274 1.391 . S
C275 C276 1.399 . S
C276 C275 1.399 . S
C276 C277 1.396 . S
C276 C279 1.453 . S
C276 C280 1.684 . S
C277 C267 1.723 1_655 S
C277 C276 1.396 . S
C277 C278 1.394 . S
C278 C248 1.723 1_655 S
C278 C274 1.397 . S
C278 C277 1.394 . S
C279 H251 0.982 . S
C279 H255 0.979 . S
C279 H256 0.977 . S
C279 C276 1.453 . S
C280 H252 0.979 . S
C280 H253 0.980 . S
C280 H254 0.983 . S
C280 C276 1.684 . S
H281 C299 0.948 . S
H282 C240 0.948 . S
H283 C258 0.979 . S
H284 C258 0.980 . S
H285 C258 0.983 . S
H286 C257 0.982 . S
H287 C257 0.979 . S
H288 C257 0.977 1_655 S
H289 C259 0.948 . S
H290 C261 0.947 . S
H291 C262 0.948 . S
H292 C268 0.982 . S
H293 C268 0.979 . S
H294 C268 0.977 . S
H295 C269 0.979 . S
H296 C269 0.980 . S
H297 C269 0.983 . S
H298 C242 0.947 . S
C299 C242 1.392 . S
C299 C243 1.419 . S
C299 H281 0.948 . S
C300 C301 1.391 . S
C300 C304 1.391 . S
C300 H342 0.948 . S
C301 C300 1.391 . S
C301 C302 1.391 . S
C302 C301 1.391 . S
C302 H358 0.947 . S
C302 C359 1.392 . S
C303 C304 1.391 . S
C303 C307 1.397 . S
C303 C359 1.419 . S
C304 C300 1.391 . S
C304 C303 1.391 . S
C304 C305 1.399 . S
C305 C304 1.399 . S
C305 C308 1.396 1_655 S
C305 C317 1.453 1_655 S
C305 C318 1.684 . S
H306 C330 0.948 . S
C307 C303 1.397 . S
C307 C308 1.394 1_655 S
C307 C326 1.723 . S
C308 C305 1.396 1_455 S
C308 C307 1.394 1_455 S
C308 C338 1.723 . S
H309 C332 0.947 . S
H310 C333 0.948 . S
H311 C339 0.982 . S
H312 C340 0.979 . S
H313 C340 0.980 . S
H314 C340 0.983 . S
H315 C339 0.979 . S
H316 C339 0.977 . S
C317 C305 1.453 1_455 S
C317 H346 0.982 . S
C317 H347 0.979 . S
C317 H348 0.977 . S
C318 C305 1.684 . S
C318 H343 0.979 . S
C318 H344 0.980 1_655 S
C318 H345 0.983 . S
C319 C320 1.391 . S
C319 C324 1.391 . S
C319 H349 0.948 . S
C320 C319 1.391 . S
C320 C321 1.391 1_655 S
C321 C320 1.391 1_455 S
C321 C322 1.392 . S
C321 H350 0.947 . S
C322 C321 1.392 . S
C322 C323 1.419 . S
C322 H351 0.948 . S
C323 C322 1.419 . S
C323 C324 1.391 1_455 S
C323 C327 1.397 . S
C324 C319 1.391 . S
C324 C323 1.391 1_655 S
C324 C325 1.399 . S
C325 C324 1.399 . S
C325 C326 1.396 . S
C325 C328 1.453 . S
C325 C329 1.684 . S
C326 C307 1.723 . S
C326 C325 1.396 . S
C326 C327 1.394 1_655 S
C327 C323 1.397 . S
C327 C326 1.394 1_455 S
C327 C337 1.723 . S
C328 C325 1.453 . S
C328 H352 0.982 . S
C328 H353 0.979 . S
C328 H354 0.977 . S
C329 C325 1.684 . S
C329 H355 0.979 . S
C329 H356 0.980 . S
C329 H357 0.983 . S
C330 H306 0.948 . S
C330 C331 1.391 . S
C330 C335 1.391 . S
C331 C330 1.391 . S
C331 C332 1.391 . S
C332 H309 0.947 . S
C332 C331 1.391 . S
C332 C333 1.392 . S
C333 H310 0.948 . S
C333 C332 1.392 . S
C333 C334 1.419 . S
C334 C333 1.419 . S
C334 C335 1.391 . S
C334 C338 1.397 . S
C335 C330 1.391 . S
C335 C334 1.391 . S
C335 C336 1.399 . S
C336 C335 1.399 . S
C336 C337 1.396 . S
C336 C339 1.453 . S
C336 C340 1.684 . S
C337 C327 1.723 . S
C337 C336 1.396 . S
C337 C338 1.394 . S
C338 C308 1.723 . S
C338 C334 1.397 . S
C338 C337 1.394 . S
C339 H311 0.982 . S
C339 H315 0.979 . S
C339 H316 0.977 . S
C339 C336 1.453 . S
C340 H312 0.979 . S
C340 H313 0.980 . S
C340 H314 0.983 . S
C340 C336 1.684 . S
H341 C359 0.948 . S
H342 C300 0.948 . S
H343 C318 0.979 . S
H344 C318 0.980 1_455 S
H345 C318 0.983 . S
H346 C317 0.982 . S
H347 C317 0.979 . S
H348 C317 0.977 . S
H349 C319 0.948 . S
H350 C321 0.947 . S
H351 C322 0.948 . S
H352 C328 0.982 . S
H353 C328 0.979 . S
H354 C328 0.977 . S
H355 C329 0.979 . S
H356 C329 0.980 . S
H357 C329 0.983 . S
H358 C302 0.947 . S
C359 C302 1.392 . S
C359 C303 1.419 . S
C359 H341 0.948 . S
C360 C361 1.391 . S
C360 C364 1.391 . S
C360 H402 0.948 . S
C361 C360 1.391 . S
C361 C362 1.391 . S
C362 C361 1.391 . S
C362 H418 0.947 . S
C362 C419 1.392 . S
C363 C364 1.391 . S
C363 C367 1.397 . S
C363 C419 1.419 . S
C364 C360 1.391 . S
C364 C363 1.391 . S
C364 C365 1.399 . S
C365 C364 1.399 . S
C365 C368 1.396 . S
C365 C377 1.453 . S
C365 C378 1.684 . S
H366 C390 0.948 . S
C367 C363 1.397 . S
C367 C368 1.394 . S
C367 C386 1.723 . S
C368 C365 1.396 . S
C368 C367 1.394 . S
C368 C398 1.723 1_565 S
H369 C392 0.947 . S
H370 C393 0.948 . S
H371 C399 0.982 . S
H372 C400 0.979 . S
H373 C400 0.980 . S
H374 C400 0.983 . S
H375 C399 0.979 . S
H376 C399 0.977 . S
C377 C365 1.453 . S
C377 H406 0.982 . S
C377 H407 0.979 . S
C377 H408 0.977 1_565 S
C378 C365 1.684 . S
C378 H403 0.979 . S
C378 H404 0.980 . S
C378 H405 0.983 . S
C379 C380 1.391 1_565 S
C379 C384 1.391 . S
C379 H409 0.948 . S
C380 C379 1.391 1_545 S
C380 C381 1.391 . S
C381 C380 1.391 . S
C381 C382 1.392 . S
C381 H410 0.947 . S
C382 C381 1.392 . S
C382 C383 1.419 . S
C382 H411 0.948 . S
C383 C382 1.419 . S
C383 C384 1.391 1_545 S
C383 C387 1.397 . S
C384 C379 1.391 . S
C384 C383 1.391 1_565 S
C384 C385 1.399 . S
C385 C384 1.399 . S
C385 C386 1.396 . S
C385 C388 1.453 . S
C385 C389 1.684 . S
C386 C367 1.723 . S
C386 C385 1.396 . S
C386 C387 1.394 1_565 S
C387 C383 1.397 . S
C387 C386 1.394 1_545 S
C387 C397 1.723 . S
C388 C385 1.453 . S
C388 H412 0.982 . S
C388 H413 0.979 . S
C388 H414 0.977 . S
C389 C385 1.684 . S
C389 H415 0.979 . S
C389 H416 0.980 . S
C389 H417 0.983 . S
C390 H366 0.948 . S
C390 C391 1.391 . S
C390 C395 1.391 . S
C391 C390 1.391 . S
C391 C392 1.391 . S
C392 H369 0.947 . S
C392 C391 1.391 . S
C392 C393 1.392 . S
C393 H370 0.948 . S
C393 C392 1.392 . S
C393 C394 1.419 . S
C394 C393 1.419 . S
C394 C395 1.391 . S
C394 C398 1.397 . S
C395 C390 1.391 . S
C395 C394 1.391 . S
C395 C396 1.399 . S
C396 C395 1.399 . S
C396 C397 1.396 . S
C396 C399 1.453 . S
C396 C400 1.684 . S
C397 C387 1.723 . S
C397 C396 1.396 . S
C397 C398 1.394 . S
C398 C368 1.723 1_545 S
C398 C394 1.397 . S
C398 C397 1.394 . S
C399 H371 0.982 . S
C399 H375 0.979 . S
C399 H376 0.977 . S
C399 C396 1.453 . S
C400 H372 0.979 . S
C400 H373 0.980 . S
C400 H374 0.983 . S
C400 C396 1.684 . S
H401 C419 0.948 . S
H402 C360 0.948 . S
H403 C378 0.979 . S
H404 C378 0.980 . S
H405 C378 0.983 . S
H406 C377 0.982 . S
H407 C377 0.979 . S
H408 C377 0.977 1_545 S
H409 C379 0.948 . S
H410 C381 0.947 . S
H411 C382 0.948 . S
H412 C388 0.982 . S
H413 C388 0.979 . S
H414 C388 0.977 . S
H415 C389 0.979 . S
H416 C389 0.980 . S
H417 C389 0.983 . S
H418 C362 0.947 . S
C419 C362 1.392 . S
C419 C363 1.419 . S
C419 H401 0.948 . S
C420 C421 1.391 . S
C420 C424 1.391 . S
C420 H462 0.948 . S
C421 C420 1.391 . S
C421 C422 1.391 . S
C422 C421 1.391 . S
C422 H478 0.947 . S
C422 C479 1.392 . S
C423 C424 1.391 . S
C423 C427 1.397 . S
C423 C479 1.419 . S
C424 C420 1.391 . S
C424 C423 1.391 . S
C424 C425 1.399 . S
C425 C424 1.399 . S
C425 C428 1.396 . S
C425 C437 1.453 . S
C425 C438 1.684 . S
H426 C450 0.948 . S
C427 C423 1.397 . S
C427 C428 1.394 . S
C427 C446 1.723 . S
C428 C425 1.396 . S
C428 C427 1.394 . S
C428 C458 1.723 . S
H429 C452 0.947 . S
H430 C453 0.948 . S
H431 C459 0.982 . S
H432 C460 0.979 . S
H433 C460 0.980 . S
H434 C460 0.983 . S
H435 C459 0.979 . S
H436 C459 0.977 . S
C437 C425 1.453 . S
C437 H466 0.982 . S
C437 H467 0.979 . S
C437 H468 0.977 . S
C438 C425 1.684 . S
C438 H463 0.979 . S
C438 H464 0.980 . S
C438 H465 0.983 . S
C439 C440 1.391 1_554 S
C439 C444 1.391 . S
C439 H469 0.948 . S
C440 C439 1.391 1_556 S
C440 C441 1.391 1_556 S
C441 C440 1.391 1_554 S
C441 C442 1.392 . S
C441 H470 0.947 1_554 S
C442 C441 1.392 . S
C442 C443 1.419 . S
C442 H471 0.948 . S
C443 C442 1.419 . S
C443 C444 1.391 . S
C443 C447 1.397 . S
C444 C439 1.391 . S
C444 C443 1.391 . S
C444 C445 1.399 . S
C445 C444 1.399 . S
C445 C446 1.396 . S
C445 C448 1.453 . S
C445 C449 1.684 . S
C446 C427 1.723 . S
C446 C445 1.396 . S
C446 C447 1.394 . S
C447 C443 1.397 . S
C447 C446 1.394 . S
C447 C457 1.723 . S
C448 C445 1.453 . S
C448 H472 0.982 . S
C448 H473 0.979 . S
C448 H474 0.977 . S
C449 C445 1.684 . S
C449 H475 0.979 . S
C449 H476 0.980 . S
C449 H477 0.983 . S
C450 H426 0.948 . S
C450 C451 1.391 . S
C450 C455 1.391 . S
C451 C450 1.391 . S
C451 C452 1.391 . S
C452 H429 0.947 . S
C452 C451 1.391 . S
C452 C453 1.392 . S
C453 H430 0.948 . S
C453 C452 1.392 . S
C453 C454 1.419 . S
C454 C453 1.419 . S
C454 C455 1.391 . S
C454 C458 1.397 . S
C455 C450 1.391 . S
C455 C454 1.391 . S
C455 C456 1.399 . S
C456 C455 1.399 . S
C456 C457 1.396 . S
C456 C459 1.453 . S
C456 C460 1.684 . S
C457 C447 1.723 . S
C457 C456 1.396 . S
C457 C458 1.394 . S
C458 C428 1.723 . S
C458 C454 1.397 . S
C458 C457 1.394 . S
C459 H431 0.982 . S
C459 H435 0.979 . S
C459 H436 0.977 . S
C459 C456 1.453 . S
C460 H432 0.979 . S
C460 H433 0.980 . S
C460 H434 0.983 . S
C460 C456 1.684 . S
H461 C479 0.948 . S
H462 C420 0.948 . S
H463 C438 0.979 . S
H464 C438 0.980 . S
H465 C438 0.983 . S
H466 C437 0.982 . S
H467 C437 0.979 . S
H468 C437 0.977 . S
H469 C439 0.948 . S
H470 C441 0.947 1_556 S
H471 C442 0.948 . S
H472 C448 0.982 . S
H473 C448 0.979 . S
H474 C448 0.977 . S
H475 C449 0.979 . S
H476 C449 0.980 . S
H477 C449 0.983 . S
H478 C422 0.947 . S
C479 C422 1.392 . S
C479 C423 1.419 . S
C479 H461 0.948 . S
C480 C481 1.369 . S
C480 C482 1.419 . S
C480 H484 0.930 . S
C481 C480 1.369 . S
C481 C490 1.429 . S
C482 C480 1.419 . S
C482 C483 1.363 . S
C482 H485 0.929 . S
C483 C482 1.363 . S
C483 C489 1.428 . S
H484 C480 0.930 . S
H485 C482 0.929 . S
S486 N487 1.613 . S
S486 N488 1.610 . S
N487 S486 1.613 . S
N487 C490 1.350 . S
N488 S486 1.610 . S
N488 C489 1.351 . S
C489 C483 1.428 . S
C489 N488 1.351 . S
C489 C490 1.434 . S
C490 C481 1.429 . S
C490 N487 1.350 . S
C490 C489 1.434 . S
C491 C492 1.369 . S
C491 C493 1.419 . S
C491 H495 0.930 . S
C492 C491 1.369 . S
C492 C501 1.429 . S
C493 C491 1.419 . S
C493 C494 1.363 . S
C493 H496 0.929 . S
C494 C493 1.363 . S
C494 C500 1.428 . S
H495 C491 0.930 . S
H496 C493 0.929 . S
S497 N498 1.613 . S
S497 N499 1.610 . S
N498 S497 1.613 . S
N498 C501 1.350 . S
N499 S497 1.610 . S
N499 C500 1.351 . S
C500 C494 1.428 . S
C500 N499 1.351 . S
C500 C501 1.434 . S
C501 C492 1.429 . S
C501 N498 1.350 . S
C501 C500 1.434 . S
C502 C503 1.369 . S
C502 C504 1.419 . S
C502 H506 0.930 . S
C503 C502 1.369 . S
C503 C512 1.429 . S
C504 C502 1.419 . S
C504 C505 1.363 . S
C504 H507 0.929 . S
C505 C504 1.363 . S
C505 C511 1.428 . S
H506 C502 0.930 . S
H507 C504 0.929 . S
S508 N509 1.613 . S
S508 N510 1.610 . S
N509 S508 1.613 . S
N509 C512 1.350 . S
N510 S508 1.610 . S
N510 C511 1.351 . S
C511 C505 1.428 . S
C511 N510 1.351 . S
C511 C512 1.434 . S
C512 C503 1.429 . S
C512 N509 1.350 . S
C512 C511 1.434 . S
C513 C514 1.369 . S
C513 C515 1.419 . S
C513 H517 0.930 . S
C514 C513 1.369 . S
C514 C523 1.429 . S
C515 C513 1.419 . S
C515 C516 1.363 . S
C515 H518 0.929 . S
C516 C515 1.363 . S
C516 C522 1.428 . S
H517 C513 0.930 . S
H518 C515 0.929 . S
S519 N520 1.613 . S
S519 N521 1.610 . S
N520 S519 1.613 . S
N520 C523 1.350 . S
N521 S519 1.610 . S
N521 C522 1.351 . S
C522 C516 1.428 . S
C522 N521 1.351 . S
C522 C523 1.434 . S
C523 C514 1.429 . S
C523 N520 1.350 . S
C523 C522 1.434 . S
C524 C525 1.369 . S
C524 C526 1.419 . S
C524 H528 0.930 . S
C525 C524 1.369 . S
C525 C534 1.429 . S
C526 C524 1.419 . S
C526 C527 1.363 . S
C526 H529 0.929 . S
C527 C526 1.363 . S
C527 C533 1.428 . S
H528 C524 0.930 . S
H529 C526 0.929 . S
S530 N531 1.613 . S
S530 N532 1.610 . S
N531 S530 1.613 . S
N531 C534 1.350 . S
N532 S530 1.610 . S
N532 C533 1.351 . S
C533 C527 1.428 . S
C533 N532 1.351 . S
C533 C534 1.434 . S
C534 C525 1.429 . S
C534 N531 1.350 . S
C534 C533 1.434 . S
C535 C536 1.369 . S
C535 C537 1.419 . S
C535 H539 0.930 . S
C536 C535 1.369 . S
C536 C545 1.429 . S
C537 C535 1.419 . S
C537 C538 1.363 . S
C537 H540 0.929 . S
C538 C537 1.363 . S
C538 C544 1.428 . S
H539 C535 0.930 . S
H540 C537 0.929 . S
S541 N542 1.613 . S
S541 N543 1.610 . S
N542 S541 1.613 . S
N542 C545 1.350 . S
N543 S541 1.610 . S
N543 C544 1.351 . S
C544 C538 1.428 . S
C544 N543 1.351 . S
C544 C545 1.434 . S
C545 C536 1.429 . S
C545 N542 1.350 . S
C545 C544 1.434 . S
C546 C547 1.369 . S
C546 C548 1.419 . S
C546 H550 0.930 . S
C547 C546 1.369 . S
C547 C556 1.429 . S
C548 C546 1.419 . S
C548 C549 1.363 . S
C548 H551 0.929 . S
C549 C548 1.363 . S
C549 C555 1.428 . S
H550 C546 0.930 . S
H551 C548 0.929 . S
S552 N553 1.613 . S
S552 N554 1.610 . S
N553 S552 1.613 . S
N553 C556 1.350 . S
N554 S552 1.610 . S
N554 C555 1.351 . S
C555 C549 1.428 . S
C555 N554 1.351 . S
C555 C556 1.434 . S
C556 C547 1.429 . S
C556 N553 1.350 . S
C556 C555 1.434 . S
C557 C558 1.369 . S
C557 C559 1.419 . S
C557 H561 0.930 . S
C558 C557 1.369 . S
C558 C567 1.429 . S
C559 C557 1.419 . S
C559 C560 1.363 . S
C559 H562 0.929 . S
C560 C559 1.363 . S
C560 C566 1.428 . S
H561 C557 0.930 . S
H562 C559 0.929 . S
S563 N564 1.613 . S
S563 N565 1.610 . S
N564 S563 1.613 . S
N564 C567 1.350 . S
N565 S563 1.610 . S
N565 C566 1.351 . S
C566 C560 1.428 . S
C566 N565 1.351 . S
C566 C567 1.434 . S
C567 C558 1.429 . S
C567 N564 1.350 . S
C567 C566 1.434 . S
C568 C569 1.369 . S
C568 C570 1.419 . S
C568 H572 0.930 . S
C569 C568 1.369 . S
C569 C578 1.429 . S
C570 C568 1.419 . S
C570 C571 1.363 . S
C570 H573 0.929 . S
C571 C570 1.363 . S
C571 C577 1.428 . S
H572 C568 0.930 . S
H573 C570 0.929 . S
S574 N575 1.613 . S
S574 N576 1.610 . S
N575 S574 1.613 . S
N575 C578 1.350 . S
N576 S574 1.610 . S
N576 C577 1.351 . S
C577 C571 1.428 . S
C577 N576 1.351 . S
C577 C578 1.434 . S
C578 C569 1.429 . S
C578 N575 1.350 . S
C578 C577 1.434 . S
C579 C580 1.369 . S
C579 C581 1.419 . S
C579 H583 0.930 . S
C580 C579 1.369 . S
C580 C589 1.429 . S
C581 C579 1.419 . S
C581 C582 1.363 . S
C581 H584 0.929 . S
C582 C581 1.363 . S
C582 C588 1.428 . S
H583 C579 0.930 . S
H584 C581 0.929 . S
S585 N586 1.613 . S
S585 N587 1.610 . S
N586 S585 1.613 . S
N586 C589 1.350 . S
N587 S585 1.610 . S
N587 C588 1.351 . S
C588 C582 1.428 . S
C588 N587 1.351 . S
C588 C589 1.434 . S
C589 C580 1.429 . S
C589 N586 1.350 . S
C589 C588 1.434 . S
C590 C591 1.369 . S
C590 C592 1.419 . S
C590 H594 0.930 . S
C591 C590 1.369 . S
C591 C600 1.429 . S
C592 C590 1.419 . S
C592 C593 1.363 . S
C592 H595 0.929 . S
C593 C592 1.363 . S
C593 C599 1.428 . S
H594 C590 0.930 . S
H595 C592 0.929 . S
S596 N597 1.613 . S
S596 N598 1.610 . S
N597 S596 1.613 . S
N597 C600 1.350 . S
N598 S596 1.610 . S
N598 C599 1.351 . S
C599 C593 1.428 . S
C599 N598 1.351 . S
C599 C600 1.434 . S
C600 C591 1.429 . S
C600 N597 1.350 . S
C600 C599 1.434 . S
C601 C602 1.369 . S
C601 C603 1.419 . S
C601 H605 0.930 . S
C602 C601 1.369 . S
C602 C611 1.429 . S
C603 C601 1.419 . S
C603 C604 1.363 . S
C603 H606 0.929 . S
C604 C603 1.363 . S
C604 C610 1.428 . S
H605 C601 0.930 . S
H606 C603 0.929 . S
S607 N608 1.613 . S
S607 N609 1.610 . S
N608 S607 1.613 . S
N608 C611 1.350 . S
N609 S607 1.610 . S
N609 C610 1.351 . S
C610 C604 1.428 . S
C610 N609 1.351 . S
C610 C611 1.434 . S
C611 C602 1.429 . S
C611 N608 1.350 . S
C611 C610 1.434 . S
C612 C613 1.369 1_655 S
C612 C614 1.419 . S
C612 H616 0.930 . S
C613 C612 1.369 1_455 S
C613 C622 1.429 . S
C614 C612 1.419 . S
C614 C615 1.363 1_655 S
C614 H617 0.929 . S
C615 C614 1.363 1_455 S
C615 C621 1.428 . S
H616 C612 0.930 . S
H617 C614 0.929 . S
S618 N619 1.613 . S
S618 N620 1.610 . S
N619 S618 1.613 . S
N619 C622 1.350 . S
N620 S618 1.610 . S
N620 C621 1.351 . S
C621 C615 1.428 . S
C621 N620 1.351 . S
C621 C622 1.434 . S
C622 C613 1.429 . S
C622 N619 1.350 . S
C622 C621 1.434 . S
C623 C624 1.369 . S
C623 C625 1.419 . S
C623 H627 0.930 . S
C624 C623 1.369 . S
C624 C633 1.429 1_545 S
C625 C623 1.419 . S
C625 C626 1.363 . S
C625 H628 0.929 . S
C626 C625 1.363 . S
C626 C632 1.428 . S
H627 C623 0.930 . S
H628 C625 0.929 . S
S629 N630 1.613 . S
S629 N631 1.610 . S
N630 S629 1.613 . S
N630 C633 1.350 . S
N631 S629 1.610 . S
N631 C632 1.351 1_565 S
C632 C626 1.428 . S
C632 N631 1.351 1_545 S
C632 C633 1.434 1_545 S
C633 C624 1.429 1_565 S
C633 N630 1.350 . S
C633 C632 1.434 1_565 S
C634 C635 1.369 . S
C634 C636 1.419 . S
C634 H638 0.930 . S
C635 C634 1.369 . S
C635 C644 1.429 . S
C636 C634 1.419 . S
C636 C637 1.363 . S
C636 H639 0.929 . S
C637 C636 1.363 . S
C637 C643 1.428 . S
H638 C634 0.930 . S
H639 C636 0.929 . S
S640 N641 1.613 . S
S640 N642 1.610 . S
N641 S640 1.613 . S
N641 C644 1.350 . S
N642 S640 1.610 . S
N642 C643 1.351 . S
C643 C637 1.428 . S
C643 N642 1.351 . S
C643 C644 1.434 . S
C644 C635 1.429 . S
C644 N641 1.350 . S
C644 C643 1.434 . S
C645 C646 1.369 1_565 S
C645 C647 1.419 . S
C645 H649 0.930 . S
C646 C645 1.369 1_545 S
C646 C655 1.429 . S
C647 C645 1.419 . S
C647 C648 1.363 1_565 S
C647 H650 0.929 . S
C648 C647 1.363 1_545 S
C648 C654 1.428 . S
H649 C645 0.930 . S
H650 C647 0.929 . S
S651 N652 1.613 . S
S651 N653 1.610 . S
N652 S651 1.613 . S
N652 C655 1.350 . S
N653 S651 1.610 . S
N653 C654 1.351 . S
C654 C648 1.428 . S
C654 N653 1.351 . S
C654 C655 1.434 . S
C655 C646 1.429 . S
C655 N652 1.350 . S
C655 C654 1.434 . S
C656 C657 1.369 . S
C656 C658 1.419 . S
C656 H660 0.930 . S
C657 C656 1.369 . S
C657 C666 1.429 . S
C658 C656 1.419 . S
C658 C659 1.363 . S
C658 H661 0.929 . S
C659 C658 1.363 . S
C659 C665 1.428 . S
H660 C656 0.930 . S
H661 C658 0.929 . S
S662 N663 1.613 . S
S662 N664 1.610 . S
N663 S662 1.613 . S
N663 C666 1.350 . S
N664 S662 1.610 . S
N664 C665 1.351 . S
C665 C659 1.428 . S
C665 N664 1.351 . S
C665 C666 1.434 . S
C666 C657 1.429 . S
C666 N663 1.350 . S
C666 C665 1.434 . S
C667 C668 1.369 . S
C667 C669 1.419 . S
C667 H671 0.930 . S
C668 C667 1.369 . S
C668 C677 1.429 1_455 S
C669 C667 1.419 . S
C669 C670 1.363 1_455 S
C669 H672 0.929 . S
C670 C669 1.363 1_655 S
C670 C676 1.428 . S
H671 C667 0.930 . S
H672 C669 0.929 . S
S673 N674 1.613 . S
S673 N675 1.610 . S
N674 S673 1.613 . S
N674 C677 1.350 . S
N675 S673 1.610 . S
N675 C676 1.351 . S
C676 C670 1.428 . S
C676 N675 1.351 . S
C676 C677 1.434 . S
C677 C668 1.429 1_655 S
C677 N674 1.350 . S
C677 C676 1.434 . S
C481 C24 3.046 . S
C483 C451 3.032 . S
C492 C66 1.258 . S
C494 C301 1.326 . S
C503 C93 1.984 . S
C505 C361 1.774 . S
C514 C13 3.186 . S
C516 C421 2.970 . S
C527 C331 1.375 . S
C525 C57 1.365 . S
C538 C391 2.090 . S
C536 C104 2.089 . S
C547 C64 2.056 . S
C549 C181 1.835 . S
C558 C97 0.873 . S
C560 C271 0.897 . S
C569 C17 1.404 . S
C571 C151 1.425 . S
C582 C211 1.960 . S
C580 C53 1.998 . S
C593 C241 0.448 . S
C591 C106 0.627 . S
C602 C26 1.276 . S
C604 C121 1.338 . S
C615 C260 1.044 . S
C613 C2 1.065 . S
C624 C63 1.457 . S
C626 C140 1.462 . S
C635 C82 1.361 . S
C637 C200 1.341 . S
C648 C380 1.389 . S
C646 C42 1.380 . S
C659 C440 1.789 . S
C657 C103 1.760 . S
C668 C23 1.478 . S
C670 C320 1.474 . S
