# Generated by pormake.
# Topology dag, (6,3)-cn, num edge types: 1
# Building blocks:
#     Node 0, Type 0, BuildingBlock: IZENUY_clean_sbu_0, # of connection points: 6
#     Node 1, Type 0, BuildingBlock: IZENUY_clean_sbu_0, # of connection points: 6
#     Node 2, Type 0, BuildingBlock: IZENUY_clean_sbu_0, # of connection points: 6
#     Node 3, Type 0, BuildingBlock: IZENUY_clean_sbu_0, # of connection points: 6
#     Node 4, Type 1, BuildingBlock: BETDIP_clean_linker_0, # of connection points: 3
#     Node 5, Type 1, BuildingBlock: BETDIP_clean_linker_0, # of connection points: 3
#     Node 6, Type 1, BuildingBlock: BETDIP_clean_linker_0, # of connection points: 3
#     Node 7, Type 1, BuildingBlock: BETDIP_clean_linker_0, # of connection points: 3
#     Node 8, Type 1, BuildingBlock: BETDIP_clean_linker_0, # of connection points: 3
#     Node 9, Type 1, BuildingBlock: BETDIP_clean_linker_0, # of connection points: 3
#     Node 10, Type 1, BuildingBlock: BETDIP_clean_linker_0, # of connection points: 3
#     Node 11, Type 1, BuildingBlock: BETDIP_clean_linker_0, # of connection points: 3
#     Edge 12, Type (0, 1), BuildingBlock: MIFKUJ_clean_linker_0, # of connection points: 2
#     Edge 13, Type (0, 1), BuildingBlock: MIFKUJ_clean_linker_0, # of connection points: 2
#     Edge 14, Type (0, 1), BuildingBlock: MIFKUJ_clean_linker_0, # of connection points: 2
#     Edge 15, Type (0, 1), BuildingBlock: MIFKUJ_clean_linker_0, # of connection points: 2
#     Edge 16, Type (0, 1), BuildingBlock: MIFKUJ_clean_linker_0, # of connection points: 2
#     Edge 17, Type (0, 1), BuildingBlock: MIFKUJ_clean_linker_0, # of connection points: 2
#     Edge 18, Type (0, 1), BuildingBlock: MIFKUJ_clean_linker_0, # of connection points: 2
#     Edge 19, Type (0, 1), BuildingBlock: MIFKUJ_clean_linker_0, # of connection points: 2
#     Edge 20, Type (0, 1), BuildingBlock: MIFKUJ_clean_linker_0, # of connection points: 2
#     Edge 21, Type (0, 1), BuildingBlock: MIFKUJ_clean_linker_0, # of connection points: 2
#     Edge 22, Type (0, 1), BuildingBlock: MIFKUJ_clean_linker_0, # of connection points: 2
#     Edge 23, Type (0, 1), BuildingBlock: MIFKUJ_clean_linker_0, # of connection points: 2
#     Edge 24, Type (0, 1), BuildingBlock: MIFKUJ_clean_linker_0, # of connection points: 2
#     Edge 25, Type (0, 1), BuildingBlock: MIFKUJ_clean_linker_0, # of connection points: 2
#     Edge 26, Type (0, 1), BuildingBlock: MIFKUJ_clean_linker_0, # of connection points: 2
#     Edge 27, Type (0, 1), BuildingBlock: MIFKUJ_clean_linker_0, # of connection points: 2
#     Edge 28, Type (0, 1), BuildingBlock: MIFKUJ_clean_linker_0, # of connection points: 2
#     Edge 29, Type (0, 1), BuildingBlock: MIFKUJ_clean_linker_0, # of connection points: 2
#     Edge 30, Type (0, 1), BuildingBlock: MIFKUJ_clean_linker_0, # of connection points: 2
#     Edge 31, Type (0, 1), BuildingBlock: MIFKUJ_clean_linker_0, # of connection points: 2
#     Edge 32, Type (0, 1), BuildingBlock: MIFKUJ_clean_linker_0, # of connection points: 2
#     Edge 33, Type (0, 1), BuildingBlock: MIFKUJ_clean_linker_0, # of connection points: 2
#     Edge 34, Type (0, 1), BuildingBlock: MIFKUJ_clean_linker_0, # of connection points: 2
#     Edge 35, Type (0, 1), BuildingBlock: MIFKUJ_clean_linker_0, # of connection points: 2
# Relax obj value: 0.092
# Max RMSD: 0.098
# Mean RMSD: 0.081
data_MOF--net-dag--node1-IZENUY_clean_sbu_0--node2-BETDIP_clean_linker_0--edge1-MIFKUJ_clean_linker_0
_symmetry_space_group_name_H-M    P1
_symmetry_Int_Tables_number       1
_symmetry_cell_setting            triclinic
loop_
_symmetry_equiv_pos_as_xyz
'x, y, z'
_cell_length_a     52.248189
_cell_length_b     51.289251
_cell_length_c     46.391967
_cell_angle_alpha  86.108403
_cell_angle_beta   89.958868
_cell_angle_gamma 90.086919
loop_
_atom_site_label
_atom_site_type_symbol
_atom_site_fract_x
_atom_site_fract_y
_atom_site_fract_z
_atom_type_partial_charge
Fe0 Fe 0.17594 0.87018 0.98776 0.0
Fe1 Fe 0.12031 0.87921 0.00484 0.0
O2 O 0.14583 0.85751 0.99928 0.0
Fe3 Fe 0.14088 0.82344 0.00526 0.0
O4 O 0.16593 0.8206 0.03202 0.0
O5 O 0.19475 0.84469 0.00793 0.0
O6 O 0.17879 0.88917 0.01918 0.0
C7 C 0.16299 0.9065 0.02508 0.0
C8 C 0.17238 0.82785 0.95512 0.0
O9 O 0.14062 0.90646 0.01471 0.0
C10 C 0.09542 0.83722 0.98032 0.0
O11 O 0.16216 0.8978 0.9652 0.0
O12 O 0.12059 0.89068 0.96717 0.0
O13 O 0.16266 0.81445 0.97635 0.0
O14 O 0.17543 0.85216 0.95574 0.0
C15 C 0.11491 0.84521 0.05194 0.0
O16 O 0.09484 0.8564 0.99603 0.0
O17 O 0.11544 0.82381 0.97863 0.0
C18 C 0.13991 0.90069 0.95435 0.0
O19 O 0.1189 0.86859 0.04273 0.0
O20 O 0.1183 0.82658 0.03559 0.0
C21 C 0.18873 0.82816 0.02838 0.0
Fe22 Fe 0.68426 0.62675 0.55079 0.0
Fe23 Fe 0.64483 0.66935 0.53344 0.0
O24 O 0.6531 0.63593 0.53911 0.0
Fe25 Fe 0.6302 0.61154 0.53315 0.0
O26 O 0.63191 0.59901 0.57043 0.0
O27 O 0.67386 0.59682 0.57202 0.0
O28 O 0.68052 0.64355 0.58341 0.0
C29 C 0.67507 0.66739 0.58431 0.0
C30 C 0.67608 0.59054 0.5118 0.0
O31 O 0.66555 0.68016 0.56251 0.0
C32 C 0.62072 0.64573 0.48688 0.0
O33 O 0.7003 0.65504 0.53197 0.0
O34 O 0.66965 0.67473 0.5065 0.0
O35 O 0.65362 0.58761 0.52178 0.0
O36 O 0.6899 0.60925 0.51872 0.0
C37 C 0.60119 0.65007 0.55925 0.0
O38 O 0.62268 0.66435 0.50343 0.0
O39 O 0.62708 0.62281 0.49551 0.0
C40 C 0.69307 0.67012 0.51077 0.0
O41 O 0.61931 0.66625 0.55998 0.0
O42 O 0.6026 0.63083 0.54361 0.0
C43 C 0.6521 0.59076 0.58269 0.0
Fe44 Fe 0.85755 0.1754 0.03738 0.0
Fe45 Fe 0.8715 0.11764 0.03613 0.0
O46 O 0.84849 0.14211 0.0411 0.0
Fe47 Fe 0.81655 0.13317 0.04985 0.0
O48 O 0.80453 0.15106 0.01772 0.0
O49 O 0.82639 0.18701 0.02333 0.0
O50 O 0.86733 0.17269 0.00011 0.0
C51 C 0.88397 0.15674 0.99254 0.0
C52 C 0.82658 0.17516 0.08482 0.0
O53 O 0.89037 0.13739 0.00937 0.0
C54 C 0.84268 0.0965 0.08351 0.0
O55 O 0.8903 0.1697 0.0511 0.0
O56 O 0.89057 0.12805 0.06572 0.0
O57 O 0.8109 0.16081 0.07228 0.0
O58 O 0.84841 0.18011 0.07423 0.0
C59 C 0.83077 0.09816 0.00796 0.0
O60 O 0.85697 0.09333 0.06201 0.0
O61 O 0.82655 0.11477 0.08269 0.0
C62 C 0.89932 0.15084 0.06706 0.0
O63 O 0.85366 0.10592 0.00629 0.0
O64 O 0.81662 0.10394 0.02883 0.0
C65 C 0.80834 0.17506 0.01156 0.0
Fe66 Fe 0.37142 0.38184 0.50542 0.0
Fe67 Fe 0.31745 0.366 0.4877 0.0
O68 O 0.34895 0.35722 0.49864 0.0
Fe69 Fe 0.35805 0.32391 0.50283 0.0
O70 O 0.36618 0.32637 0.54062 0.0
O71 O 0.38886 0.36221 0.53334 0.0
O72 O 0.35169 0.3936 0.53394 0.0
C73 C 0.32897 0.40148 0.53023 0.0
C74 C 0.40128 0.3488 0.47626 0.0
O75 O 0.31604 0.39501 0.50873 0.0
C76 C 0.32934 0.32383 0.45361 0.0
O77 O 0.35822 0.40615 0.47888 0.0
O78 O 0.32899 0.38505 0.4557 0.0
O79 O 0.39129 0.32979 0.49114 0.0
O80 O 0.39242 0.37161 0.4772 0.0
C81 C 0.30795 0.32411 0.52601 0.0
O82 O 0.31318 0.33845 0.46489 0.0
O83 O 0.35068 0.3191 0.46544 0.0
C84 C 0.34429 0.40401 0.45689 0.0
O85 O 0.30386 0.34789 0.51889 0.0
O86 O 0.32643 0.31213 0.5152 0.0
C87 C 0.38219 0.34245 0.54938 0.0
H88 H 0.15916 0.19976 0.20043 0.0
H89 H 0.22062 0.14724 0.18235 0.0
H90 H 0.14736 0.13995 0.14164 0.0
H91 H 0.24548 0.17513 0.20369 0.0
C92 C 0.23377 0.18659 0.21742 0.0
C93 C 0.16653 0.18363 0.18897 0.0
C94 C 0.15069 0.17114 0.16993 0.0
C95 C 0.19194 0.17559 0.1932 0.0
C96 C 0.20129 0.15417 0.1788 0.0
C97 C 0.18536 0.14131 0.15983 0.0
C98 C 0.16016 0.15014 0.15547 0.0
N99 N 0.20698 0.1891 0.21286 0.0
H100 H 0.27551 0.64555 0.68564 0.0
H101 H 0.34422 0.69 0.69869 0.0
H102 H 0.3438 0.62988 0.63858 0.0
H103 H 0.31728 0.71919 0.71563 0.0
C104 C 0.30106 0.70828 0.7248 0.0
C105 C 0.2953 0.6501 0.68034 0.0
C106 C 0.30825 0.63574 0.66033 0.0
C107 C 0.30776 0.67037 0.69356 0.0
C108 C 0.33387 0.67546 0.68751 0.0
C109 C 0.34713 0.66059 0.66799 0.0
C110 C 0.3339 0.64129 0.65397 0.0
N111 N 0.29369 0.6842 0.71383 0.0
H112 H 0.93299 0.82139 0.30375 0.0
H113 H 0.87227 0.877 0.31258 0.0
H114 H 0.93128 0.89313 0.24974 0.0
H115 H 0.8743 0.85715 0.36078 0.0
C116 C 0.87397 0.8371 0.35457 0.0
C117 C 0.92424 0.84003 0.29735 0.0
C118 C 0.93548 0.85667 0.27554 0.0
C119 C 0.90181 0.84741 0.3113 0.0
C120 C 0.89016 0.87148 0.30291 0.0
C121 C 0.90091 0.88789 0.28077 0.0
C122 C 0.92351 0.88052 0.26734 0.0
N123 N 0.89044 0.82952 0.33226 0.0
H124 H 0.56033 0.30741 0.80686 0.0
H125 H 0.61856 0.367 0.8051 0.0
H126 H 0.55302 0.37654 0.74971 0.0
H127 H 0.62414 0.35086 0.85152 0.0
C128 C 0.62289 0.32996 0.84915 0.0
C129 C 0.56749 0.32634 0.79867 0.0
C130 C 0.55356 0.34132 0.77771 0.0
C131 C 0.59056 0.33579 0.80935 0.0
C132 C 0.60027 0.35997 0.79791 0.0
C133 C 0.58675 0.37493 0.77653 0.0
C134 C 0.56324 0.36557 0.76688 0.0
N135 N 0.6042 0.32004 0.83051 0.0
H136 H 0.66036 0.3054 0.34404 0.0
H137 H 0.72826 0.35086 0.35768 0.0
H138 H 0.65655 0.37328 0.3933 0.0
H139 H 0.74917 0.31808 0.34093 0.0
C140 C 0.73627 0.30704 0.32808 0.0
C141 C 0.66968 0.32168 0.3535 0.0
C142 C 0.65523 0.339 0.36904 0.0
C143 C 0.69604 0.32554 0.34935 0.0
C144 C 0.70809 0.3471 0.36098 0.0
C145 C 0.69392 0.36412 0.37721 0.0
C146 C 0.66758 0.35997 0.38102 0.0
N147 N 0.70935 0.30791 0.33238 0.0
H148 H 0.07247 0.1946 0.75017 0.0
H149 H 0.1242 0.1301 0.7419 0.0
H150 H 0.05231 0.11772 0.7854 0.0
H151 H 0.15356 0.16124 0.73878 0.0
C152 C 0.14459 0.17773 0.72687 0.0
C153 C 0.07693 0.17399 0.75366 0.0
C154 C 0.05931 0.15695 0.7679 0.0
C155 C 0.10055 0.16464 0.74439 0.0
C156 C 0.10637 0.13787 0.74942 0.0
C157 C 0.0891 0.12078 0.76425 0.0
C158 C 0.06545 0.13047 0.77301 0.0
N159 N 0.11798 0.18254 0.73011 0.0
H160 H 0.43071 0.69087 0.23948 0.0
H161 H 0.36634 0.63793 0.24434 0.0
H162 H 0.42605 0.63027 0.30773 0.0
H163 H 0.36123 0.65071 0.19816 0.0
C164 C 0.36704 0.67109 0.19639 0.0
C165 C 0.42081 0.67416 0.24982 0.0
C166 C 0.43069 0.66169 0.27518 0.0
C167 C 0.39778 0.66553 0.23812 0.0
C168 C 0.38467 0.64416 0.2522 0.0
C169 C 0.39469 0.63133 0.27743 0.0
C170 C 0.41779 0.64022 0.28857 0.0
N171 N 0.38759 0.67977 0.21338 0.0
H172 H 0.78381 0.86344 0.8392 0.0
H173 H 0.83912 0.80109 0.84188 0.0
H174 H 0.85502 0.87122 0.88414 0.0
H175 H 0.80431 0.77655 0.83277 0.0
C176 C 0.79275 0.78934 0.81845 0.0
C177 C 0.8021 0.85544 0.84641 0.0
C178 C 0.81862 0.87033 0.8625 0.0
C179 C 0.80911 0.83038 0.83912 0.0
C180 C 0.83312 0.82016 0.84788 0.0
C181 C 0.84963 0.83474 0.86444 0.0
C182 C 0.84224 0.85979 0.87155 0.0
N183 N 0.79197 0.81661 0.82191 0.0
H184 H 0.20217 0.90866 0.06406 0.0
H185 H 0.21639 0.94702 0.08892 0.0
H186 H 0.15837 0.99382 0.04433 0.0
H187 H 0.14365 0.95571 0.02016 0.0
H188 H 0.2128 0.01508 0.04495 0.0
H189 H 0.14356 0.97614 0.10589 0.0
H190 H 0.12469 0.9391 0.13531 0.0
H191 H 0.19108 0.93557 0.18992 0.0
H192 H 0.21052 0.97236 0.16049 0.0
H193 H 0.17615 0.12937 0.10439 0.0
H194 H 0.18319 0.08786 0.0835 0.0
H195 H 0.22211 0.05858 0.16111 0.0
H196 H 0.21361 0.09988 0.18296 0.0
H197 H 0.18919 0.02438 0.14735 0.0
H198 H 0.25436 0.06942 0.09434 0.0
H199 H 0.27544 0.10521 0.0651 0.0
H200 H 0.22195 0.09619 0.99626 0.0
H201 H 0.20029 0.06061 0.02522 0.0
C202 C 0.19249 0.92716 0.05964 0.0
C203 C 0.17173 0.92921 0.04032 0.0
C204 C 0.20064 0.94897 0.07376 0.0
C205 C 0.18846 0.97314 0.06824 0.0
C206 C 0.16804 0.97529 0.04869 0.0
C207 C 0.15955 0.95348 0.0351 0.0
C208 C 0.19618 0.9963 0.08337 0.0
C209 C 0.20776 0.01725 0.06735 0.0
C210 C 0.19052 0.99849 0.11285 0.0
C211 C 0.17862 0.97674 0.13079 0.0
C212 C 0.15422 0.96731 0.12401 0.0
C213 C 0.14341 0.9464 0.14071 0.0
C214 C 0.15672 0.93493 0.1644 0.0
C215 C 0.18083 0.94443 0.17152 0.0
C216 C 0.19174 0.96531 0.15484 0.0
C217 C 0.1864 0.11421 0.11699 0.0
C218 C 0.19406 0.11785 0.14547 0.0
C219 C 0.19076 0.09052 0.10483 0.0
C220 C 0.20349 0.07008 0.12055 0.0
C221 C 0.21233 0.07408 0.14851 0.0
C222 C 0.20768 0.09778 0.16088 0.0
C223 C 0.205 0.04395 0.10863 0.0
C224 C 0.19508 0.02227 0.1252 0.0
C225 C 0.21264 0.04098 0.07972 0.0
C226 C 0.22564 0.06235 0.06205 0.0
C227 C 0.24699 0.07515 0.07304 0.0
C228 C 0.25906 0.0954 0.0565 0.0
C229 C 0.25003 0.10298 0.02885 0.0
C230 C 0.22894 0.09029 0.01767 0.0
C231 C 0.21679 0.07003 0.03412 0.0
H232 H 0.2594 0.11867 0.01609 0.0
H233 H 0.14835 0.91872 0.17726 0.0
H234 H 0.5653 0.61406 0.57638 0.0
H235 H 0.52364 0.62158 0.5979 0.0
H236 H 0.53997 0.70412 0.5972 0.0
H237 H 0.58235 0.69653 0.57644 0.0
H238 H 0.51424 0.6883 0.64524 0.0
H239 H 0.50258 0.68048 0.54465 0.0
H240 H 0.50735 0.66113 0.49771 0.0
H241 H 0.46877 0.59162 0.5314 0.0
H242 H 0.46411 0.61037 0.57868 0.0
H243 H 0.37436 0.70628 0.65758 0.0
H244 H 0.41949 0.71047 0.64255 0.0
H245 H 0.42733 0.62662 0.6511 0.0
H246 H 0.38287 0.62234 0.66662 0.0
H247 H 0.43998 0.65112 0.59542 0.0
H248 H 0.45549 0.65964 0.69786 0.0
H249 H 0.45036 0.68092 0.74361 0.0
H250 H 0.48034 0.75257 0.7037 0.0
H251 H 0.48531 0.73179 0.65757 0.0
C252 C 0.5601 0.63381 0.58093 0.0
C253 C 0.5769 0.65477 0.57432 0.0
C254 C 0.53626 0.6381 0.59318 0.0
C255 C 0.52841 0.66351 0.59844 0.0
C256 C 0.54557 0.68438 0.5931 0.0
C257 C 0.56972 0.68003 0.58121 0.0
C258 C 0.50189 0.66803 0.60845 0.0
C259 C 0.49795 0.68059 0.63408 0.0
C260 C 0.48058 0.65811 0.59381 0.0
C261 C 0.48314 0.6468 0.56529 0.0
C262 C 0.49525 0.661 0.54211 0.0
C263 C 0.49792 0.65014 0.51543 0.0
C264 C 0.4884 0.62515 0.51159 0.0
C265 C 0.47614 0.61098 0.5344 0.0
C266 C 0.47345 0.62173 0.56114 0.0
C267 C 0.38593 0.68884 0.65682 0.0
C268 C 0.375 0.66396 0.66272 0.0
C269 C 0.41161 0.69125 0.6482 0.0
C270 C 0.42655 0.66881 0.64546 0.0
C271 C 0.416 0.64413 0.65281 0.0
C272 C 0.39057 0.64173 0.66153 0.0
C273 C 0.4525 0.67039 0.63272 0.0
C274 C 0.45627 0.65913 0.60635 0.0
C275 C 0.47343 0.68185 0.64645 0.0
C276 C 0.47045 0.69427 0.67418 0.0
C277 C 0.46074 0.68001 0.69876 0.0
C278 C 0.45792 0.69196 0.72478 0.0
C279 C 0.46493 0.7181 0.72653 0.0
C280 C 0.47486 0.73233 0.70229 0.0
C281 C 0.47769 0.72048 0.67621 0.0
H282 H 0.46275 0.72732 0.7467 0.0
H283 H 0.49049 0.61678 0.49091 0.0
H284 H 0.81427 0.09556 0.13353 0.0
H285 H 0.81904 0.06546 0.17663 0.0
H286 H 0.8798 0.02557 0.13469 0.0
H287 H 0.87533 0.05534 0.0919 0.0
H288 H 0.81472 0.01175 0.18429 0.0
H289 H 0.92648 0.01081 0.18215 0.0
H290 H 0.96158 0.04161 0.16916 0.0
H291 H 0.91263 0.10637 0.1846 0.0
H292 H 0.87736 0.07598 0.19819 0.0
H293 H 0.871 0.8936 0.23349 0.0
H294 H 0.85478 0.93443 0.21005 0.0
H295 H 0.8863 0.97714 0.27885 0.0
H296 H 0.90274 0.93599 0.30222 0.0
H297 H 0.90074 0.99853 0.22814 0.0
H298 H 0.82151 0.97418 0.26996 0.0
H299 H 0.78531 0.9455 0.28494 0.0
H300 H 0.76725 0.93555 0.19609 0.0
H301 H 0.80358 0.96385 0.18053 0.0
C302 C 0.82857 0.08031 0.13348 0.0
C303 C 0.84444 0.07789 0.10926 0.0
C304 C 0.83125 0.06316 0.1581 0.0
C305 C 0.85001 0.04356 0.15896 0.0
C306 C 0.86549 0.04085 0.13465 0.0
C307 C 0.8628 0.05784 0.11011 0.0
C308 C 0.85362 0.02555 0.18496 0.0
C309 C 0.83342 0.00897 0.19415 0.0
C310 C 0.87781 0.02265 0.19848 0.0
C311 C 0.89921 0.04105 0.19108 0.0
C312 C 0.92325 0.0316 0.18302 0.0
C313 C 0.94317 0.049 0.17549 0.0
C314 C 0.93932 0.07592 0.17602 0.0
C315 C 0.91557 0.08551 0.18415 0.0
C316 C 0.8956 0.0682 0.19175 0.0
C317 C 0.87384 0.91168 0.24389 0.0
C318 C 0.8878 0.91187 0.26964 0.0
C319 C 0.86453 0.93496 0.2306 0.0
C320 C 0.86907 0.95886 0.24285 0.0
C321 C 0.88243 0.95892 0.26914 0.0
C322 C 0.89169 0.93552 0.28251 0.0
C323 C 0.8622 0.98369 0.22638 0.0
C324 C 0.88184 0.0016 0.21889 0.0
C325 C 0.83735 0.98813 0.21492 0.0
C326 C 0.81538 0.9711 0.22408 0.0
C327 C 0.80993 0.96574 0.25359 0.0
C328 C 0.78937 0.94957 0.2622 0.0
C329 C 0.774 0.93869 0.24148 0.0
C330 C 0.77916 0.944 0.21211 0.0
C331 C 0.79972 0.96016 0.20339 0.0
H332 H 0.75809 0.92617 0.24819 0.0
H333 H 0.95477 0.08934 0.17019 0.0
H334 H 0.37832 0.29902 0.58762 0.0
H335 H 0.40331 0.28975 0.63198 0.0
H336 H 0.44137 0.36423 0.61796 0.0
H337 H 0.41692 0.37353 0.57399 0.0
H338 H 0.47508 0.32536 0.62909 0.0
H339 H 0.39464 0.35491 0.66787 0.0
H340 H 0.34797 0.35269 0.67583 0.0
H341 H 0.35556 0.27539 0.71659 0.0
H342 H 0.40226 0.27703 0.7085 0.0
H343 H 0.50733 0.36544 0.77294 0.0
H344 H 0.47229 0.35457 0.7409 0.0
H345 H 0.51188 0.28437 0.72065 0.0
H346 H 0.54697 0.29516 0.75287 0.0
H347 H 0.43847 0.31248 0.72781 0.0
H348 H 0.51613 0.2901 0.64618 0.0
H349 H 0.56254 0.29675 0.63856 0.0
H350 H 0.55941 0.36718 0.68353 0.0
H351 H 0.51297 0.36124 0.69075 0.0
C352 C 0.39193 0.31344 0.59411 0.0
C353 C 0.39577 0.33692 0.57711 0.0
C354 C 0.40615 0.30813 0.61945 0.0
C355 C 0.42427 0.32626 0.62813 0.0
C356 C 0.42767 0.34986 0.61149 0.0
C357 C 0.41358 0.35516 0.58635 0.0
C358 C 0.44037 0.32093 0.65412 0.0
C359 C 0.46703 0.32212 0.65062 0.0
C360 C 0.42989 0.31684 0.68221 0.0
C361 C 0.40188 0.31597 0.68727 0.0
C362 C 0.38632 0.33736 0.67832 0.0
C363 C 0.35988 0.33622 0.68289 0.0
C364 C 0.3488 0.31388 0.69662 0.0
C365 C 0.36416 0.29266 0.7059 0.0
C366 C 0.39062 0.29369 0.70134 0.0
C367 C 0.50806 0.34721 0.76244 0.0
C368 C 0.52988 0.33126 0.765 0.0
C369 C 0.48797 0.34091 0.74435 0.0
C370 C 0.48965 0.31881 0.72824 0.0
C371 C 0.51027 0.30151 0.73295 0.0
C372 C 0.53028 0.30768 0.75131 0.0
C373 C 0.47302 0.31719 0.70263 0.0
C374 C 0.44641 0.31482 0.70618 0.0
C375 C 0.48342 0.32076 0.67447 0.0
C376 C 0.51119 0.32498 0.66938 0.0
C377 C 0.52536 0.30704 0.6543 0.0
C378 C 0.55166 0.31071 0.65002 0.0
C379 C 0.56394 0.33231 0.66064 0.0
C380 C 0.54992 0.35041 0.67536 0.0
C381 C 0.52361 0.34691 0.67954 0.0
H382 H 0.58431 0.33505 0.6574 0.0
H383 H 0.32833 0.31303 0.70016 0.0
H384 H 0.71514 0.59418 0.47217 0.0
H385 H 0.73328 0.55845 0.44569 0.0
H386 H 0.68138 0.50402 0.49019 0.0
H387 H 0.66282 0.53935 0.51589 0.0
H388 H 0.73703 0.48848 0.48682 0.0
H389 H 0.66322 0.52384 0.42953 0.0
H390 H 0.64158 0.5601 0.40169 0.0
H391 H 0.70684 0.5698 0.34563 0.0
H392 H 0.729 0.53381 0.37347 0.0
H393 H 0.68935 0.37776 0.43238 0.0
H394 H 0.70246 0.41856 0.45175 0.0
H395 H 0.73915 0.44247 0.37079 0.0
H396 H 0.72523 0.40154 0.35093 0.0
H397 H 0.7084 0.47931 0.38606 0.0
H398 H 0.7752 0.43342 0.43375 0.0
H399 H 0.79735 0.39738 0.46126 0.0
H400 H 0.74931 0.40784 0.53468 0.0
H401 H 0.72656 0.44366 0.50753 0.0
C402 C 0.70771 0.57454 0.47625 0.0
C403 C 0.68747 0.56951 0.49588 0.0
C404 C 0.7181 0.55425 0.46124 0.0
C405 C 0.70873 0.5287 0.46625 0.0
C406 C 0.68895 0.52363 0.48626 0.0
C407 C 0.67822 0.54386 0.5007 0.0
C408 C 0.71812 0.50704 0.44977 0.0
C409 C 0.7311 0.4864 0.46469 0.0
C410 C 0.71129 0.50503 0.42058 0.0
C411 C 0.69787 0.52643 0.40378 0.0
C412 C 0.67302 0.53388 0.41143 0.0
C413 C 0.66065 0.55434 0.39563 0.0
C414 C 0.67286 0.56731 0.37197 0.0
C415 C 0.69743 0.55979 0.36401 0.0
C416 C 0.70991 0.53937 0.37979 0.0
C417 C 0.7006 0.39151 0.41887 0.0
C418 C 0.70608 0.38666 0.39011 0.0
C419 C 0.70838 0.41473 0.43005 0.0
C420 C 0.72209 0.43354 0.41285 0.0
C421 C 0.72874 0.42818 0.3845 0.0
C422 C 0.7209 0.4048 0.37324 0.0
C423 C 0.72611 0.45981 0.42364 0.0
C424 C 0.71555 0.48147 0.40773 0.0
C425 C 0.73549 0.46282 0.45186 0.0
C426 C 0.74915 0.44131 0.46852 0.0
C427 C 0.76925 0.42797 0.45572 0.0
C428 C 0.78193 0.40757 0.47126 0.0
C429 C 0.77475 0.40033 0.4997 0.0
C430 C 0.75488 0.4135 0.51267 0.0
C431 C 0.74213 0.43392 0.49722 0.0
H432 H 0.78458 0.38452 0.51169 0.0
H433 H 0.66325 0.58314 0.35975 0.0
H434 H 0.87113 0.19031 0.94607 0.0
H435 H 0.8935 0.196 0.89946 0.0
H436 H 0.95054 0.1402 0.93047 0.0
H437 H 0.92819 0.13395 0.97637 0.0
H438 H 0.94017 0.21232 0.88307 0.0
H439 H 0.96902 0.10241 0.87948 0.0
H440 H 0.95109 0.05918 0.89478 0.0
H441 H 0.87524 0.09136 0.89265 0.0
H442 H 0.89264 0.13469 0.87674 0.0
H443 H 0.05503 0.19091 0.80988 0.0
H444 H 0.01722 0.19784 0.83937 0.0
H445 H 0.97217 0.15129 0.78399 0.0
H446 H 0.01049 0.14327 0.75547 0.0
H447 H 0.96555 0.13315 0.8344 0.0
H448 H 0.95997 0.21914 0.79269 0.0
H449 H 0.97435 0.26306 0.77465 0.0
H450 H 0.99676 0.27998 0.86043 0.0
H451 H 0.98287 0.23604 0.87896 0.0
C452 C 0.88847 0.17932 0.94289 0.0
C453 C 0.89776 0.1615 0.96481 0.0
C454 C 0.90122 0.18261 0.9163 0.0
C455 C 0.9234 0.16814 0.9113 0.0
C456 C 0.9331 0.15107 0.93355 0.0
C457 C 0.92032 0.1476 0.95987 0.0
C458 C 0.93672 0.1705 0.88298 0.0
C459 C 0.94557 0.1951 0.87217 0.0
C460 C 0.94288 0.14811 0.86816 0.0
C461 C 0.93219 0.12189 0.87706 0.0
C462 C 0.9485 0.10025 0.88203 0.0
C463 C 0.93843 0.07572 0.89085 0.0
C464 C 0.91205 0.07254 0.89474 0.0
C465 C 0.89568 0.09386 0.88968 0.0
C466 C 0.90564 0.11842 0.88077 0.0
C467 C 0.03683 0.18295 0.80351 0.0
C468 C 0.0355 0.16666 0.78049 0.0
C469 C 0.01515 0.18697 0.82029 0.0
C470 C 0.99166 0.1752 0.81391 0.0
C471 C 0.99003 0.16051 0.78947 0.0
C472 C 0.01182 0.15606 0.77307 0.0
C473 C 0.97022 0.17492 0.83508 0.0
C474 C 0.95979 0.15059 0.84468 0.0
C475 C 0.96206 0.19766 0.84816 0.0
C476 C 0.97045 0.22419 0.8372 0.0
C477 C 0.96812 0.23215 0.80769 0.0
C478 C 0.97616 0.25707 0.79738 0.0
C479 C 0.98648 0.27429 0.81637 0.0
C480 C 0.98875 0.26663 0.84574 0.0
C481 C 0.98074 0.24173 0.85617 0.0
H482 H 0.9927 0.29357 0.80834 0.0
H483 H 0.9043 0.05355 0.90164 0.0
H484 H 0.36261 0.45301 0.46208 0.0
H485 H 0.36198 0.48995 0.42648 0.0
H486 H 0.32437 0.44282 0.36563 0.0
H487 H 0.32467 0.40524 0.40165 0.0
H488 H 0.36854 0.4728 0.34385 0.0
H489 H 0.28983 0.48579 0.39374 0.0
H490 H 0.26243 0.48878 0.43666 0.0
H491 H 0.30687 0.5536 0.4627 0.0
H492 H 0.33493 0.55064 0.42032 0.0
H493 H 0.37057 0.59038 0.25342 0.0
H494 H 0.35272 0.551 0.27876 0.0
H495 H 0.37208 0.58119 0.36057 0.0
H496 H 0.38866 0.62093 0.33558 0.0
H497 H 0.32817 0.55684 0.36531 0.0
H498 H 0.4115 0.53842 0.32693 0.0
H499 H 0.44386 0.53572 0.28853 0.0
H500 H 0.39611 0.48208 0.24581 0.0
H501 H 0.36328 0.48476 0.28382 0.0
C502 C 0.35416 0.45032 0.44116 0.0
C503 C 0.34369 0.42611 0.43468 0.0
C504 C 0.3537 0.47158 0.42089 0.0
C505 C 0.34288 0.46917 0.39359 0.0
C506 C 0.33264 0.44502 0.38672 0.0
C507 C 0.3328 0.42366 0.40727 0.0
C508 C 0.34329 0.492 0.37231 0.0
C509 C 0.35912 0.49101 0.348 0.0
C510 C 0.33162 0.51589 0.3784 0.0
C511 C 0.31456 0.51793 0.40381 0.0
C512 C 0.29388 0.50058 0.4087 0.0
C513 C 0.27822 0.50228 0.43295 0.0
C514 C 0.28288 0.5214 0.45237 0.0
C515 C 0.30321 0.53888 0.44757 0.0
C516 C 0.31902 0.53718 0.42345 0.0
C517 C 0.37047 0.58886 0.27681 0.0
C518 C 0.38137 0.60864 0.29246 0.0
C519 C 0.36047 0.56625 0.29126 0.0
C520 C 0.36144 0.56294 0.32156 0.0
C521 C 0.37116 0.58323 0.33719 0.0
C522 C 0.38092 0.60584 0.32283 0.0
C523 C 0.35399 0.53786 0.33723 0.0
C524 C 0.33694 0.53845 0.36057 0.0
C525 C 0.36511 0.51376 0.33076 0.0
C526 C 0.38481 0.51206 0.30796 0.0
C527 C 0.40782 0.52622 0.30922 0.0
C528 C 0.42625 0.52466 0.28756 0.0
C529 C 0.422 0.50881 0.26469 0.0
C530 C 0.39934 0.49441 0.2635 0.0
C531 C 0.38081 0.49594 0.28508 0.0
H532 H 0.4363 0.50762 0.24794 0.0
H533 H 0.27077 0.52264 0.47117 0.0
H534 H 0.09029 0.8096 0.93215 0.0
H535 H 0.05016 0.79825 0.90823 0.0
H536 H 0.00705 0.83439 0.97403 0.0
H537 H 0.04677 0.84622 0.99756 0.0
H538 H 0.98812 0.78363 0.95846 0.0
H539 H 0.01652 0.86887 0.91647 0.0
H540 H 0.04815 0.89787 0.89105 0.0
H541 H 0.04696 0.8498 0.81878 0.0
H542 H 0.01564 0.82025 0.84405 0.0
H543 H 0.8694 0.83435 0.91855 0.0
H544 H 0.91284 0.82318 0.93382 0.0
H545 H 0.93045 0.80057 0.8481 0.0
H546 H 0.88678 0.81236 0.83249 0.0
H547 H 0.96584 0.83348 0.8665 0.0
H548 H 0.92898 0.75432 0.90453 0.0
H549 H 0.89759 0.72539 0.93035 0.0
H550 H 0.91462 0.7604 0.00961 0.0
H551 H 0.94584 0.78983 0.98422 0.0
C552 C 0.07221 0.8149 0.94157 0.0
C553 C 0.07159 0.82893 0.96657 0.0
C554 C 0.0494 0.80841 0.92794 0.0
C555 C 0.02576 0.81546 0.93948 0.0
C556 C 0.02514 0.82867 0.96494 0.0
C557 C 0.04784 0.83559 0.9782 0.0
C558 C 0.00148 0.81079 0.92438 0.0
C559 C 0.98317 0.79437 0.93829 0.0
C560 C 0.99551 0.82421 0.89762 0.0
C561 C 0.01403 0.84216 0.88229 0.0
C562 C 0.02319 0.86436 0.89527 0.0
C563 C 0.04103 0.88091 0.88088 0.0
C564 C 0.04963 0.87563 0.85336 0.0
C565 C 0.04034 0.85383 0.84014 0.0
C566 C 0.02255 0.83717 0.85448 0.0
C567 C 0.88243 0.8267 0.90304 0.0
C568 C 0.87482 0.82437 0.87431 0.0
C569 C 0.9072 0.82008 0.91184 0.0
C570 C 0.92486 0.81078 0.89218 0.0
C571 C 0.91707 0.80757 0.86365 0.0
C572 C 0.89214 0.81415 0.85482 0.0
C573 C 0.95192 0.80697 0.90113 0.0
C574 C 0.97085 0.82192 0.88614 0.0
C575 C 0.95847 0.79209 0.92689 0.0
C576 C 0.93974 0.77437 0.94239 0.0
C577 C 0.92593 0.75598 0.92743 0.0
C578 C 0.90817 0.73946 0.942 0.0
C579 C 0.9041 0.74106 0.97159 0.0
C580 C 0.91781 0.75916 0.98669 0.0
C581 C 0.93558 0.77574 0.97222 0.0
H582 H 0.89034 0.72826 0.98283 0.0
H583 H 0.06344 0.88847 0.84225 0.0
H584 H 0.78469 0.07248 0.00805 0.0
H585 H 0.77196 0.03781 0.97726 0.0
H586 H 0.84367 0.04617 0.93133 0.0
H587 H 0.85634 0.08103 0.96149 0.0
H588 H 0.80499 0.03657 0.895 0.0
H589 H 0.83637 0.0011 0.98815 0.0
H590 H 0.83612 0.99549 0.04139 0.0
H591 H 0.7591 0.96626 0.03985 0.0
H592 H 0.7588 0.97206 0.98658 0.0
H593 H 0.84738 0.91449 0.85586 0.0
H594 H 0.83826 0.95694 0.87431 0.0
H595 H 0.76478 0.92854 0.90534 0.0
H596 H 0.77403 0.88571 0.88704 0.0
H597 H 0.79281 0.94974 0.94717 0.0
H598 H 0.7668 0.97612 0.85176 0.0
H599 H 0.76948 0.98075 0.79861 0.0
H600 H 0.8383 0.02602 0.80388 0.0
H601 H 0.83628 0.02136 0.85707 0.0
C602 C 0.79761 0.06717 0.99114 0.0
C603 C 0.82173 0.07919 0.98758 0.0
C604 C 0.79029 0.04737 0.97358 0.0
C605 C 0.80704 0.03917 0.95233 0.0
C606 C 0.83047 0.05216 0.94765 0.0
C607 C 0.83776 0.07197 0.96509 0.0
C608 C 0.80146 0.01563 0.93663 0.0
C609 C 0.80228 0.01756 0.90633 0.0
C610 C 0.79722 0.99096 0.95147 0.0
C611 C 0.79744 0.98734 0.98345 0.0
C612 C 0.81932 0.99367 0.9992 0.0
C613 C 0.81929 0.99043 0.02936 0.0
C614 C 0.79758 0.98061 0.044 0.0
C615 C 0.77588 0.97393 0.02849 0.0
C616 C 0.7758 0.97719 0.99832 0.0
C617 C 0.82914 0.91743 0.86626 0.0
C618 C 0.81147 0.89685 0.87024 0.0
C619 C 0.82383 0.94174 0.87654 0.0
C620 C 0.80074 0.94595 0.89097 0.0
C621 C 0.78263 0.9257 0.89409 0.0
C622 C 0.78788 0.90134 0.88358 0.0
C623 C 0.79714 0.97051 0.90549 0.0
C624 C 0.7947 0.96879 0.93567 0.0
C625 C 0.80014 0.99528 0.89051 0.0
C626 C 0.80142 0.99828 0.85847 0.0
C627 C 0.78261 0.98692 0.8416 0.0
C628 C 0.784 0.98958 0.81145 0.0
C629 C 0.80406 0.00365 0.79788 0.0
C630 C 0.82276 0.01514 0.81443 0.0
C631 C 0.82147 0.01253 0.84459 0.0
H632 H 0.8051 0.00568 0.77453 0.0
H633 H 0.79759 0.9781 0.06735 0.0
H634 H 0.427 0.30287 0.47166 0.0
H635 H 0.46795 0.29641 0.44781 0.0
H636 H 0.47104 0.37851 0.42089 0.0
H637 H 0.42991 0.38519 0.44443 0.0
H638 H 0.48703 0.34789 0.3781 0.0
H639 H 0.50317 0.35549 0.47967 0.0
H640 H 0.49773 0.34375 0.53175 0.0
H641 H 0.52351 0.26576 0.51977 0.0
H642 H 0.52875 0.27696 0.46751 0.0
H643 H 0.61835 0.37621 0.36145 0.0
H644 H 0.57305 0.37222 0.37376 0.0
H645 H 0.58339 0.29016 0.39781 0.0
H646 H 0.62911 0.29422 0.38602 0.0
H647 H 0.55929 0.31476 0.43947 0.0
H648 H 0.5486 0.30944 0.33823 0.0
H649 H 0.55451 0.32207 0.28644 0.0
H650 H 0.5191 0.39621 0.29755 0.0
H651 H 0.5133 0.3842 0.34952 0.0
C652 C 0.43627 0.31957 0.46053 0.0
C653 C 0.42531 0.34463 0.46027 0.0
C654 C 0.45969 0.31581 0.44693 0.0
C655 C 0.47266 0.33704 0.43292 0.0
C656 C 0.46134 0.36188 0.43164 0.0
C657 C 0.43789 0.36568 0.44523 0.0
C658 C 0.4986 0.33365 0.42083 0.0
C659 C 0.5029 0.34079 0.3915 0.0
C660 C 0.51908 0.32369 0.4382 0.0
C661 C 0.51606 0.31697 0.46964 0.0
C662 C 0.50748 0.33578 0.48811 0.0
C663 C 0.50446 0.32923 0.51766 0.0
C664 C 0.51019 0.304 0.52905 0.0
C665 C 0.51903 0.28528 0.51091 0.0
C666 C 0.52203 0.29172 0.48132 0.0
C667 C 0.61092 0.35726 0.36912 0.0
C668 C 0.62726 0.33556 0.37302 0.0
C669 C 0.58498 0.35494 0.37588 0.0
C670 C 0.57479 0.33085 0.3865 0.0
C671 C 0.59088 0.30891 0.38954 0.0
C672 C 0.61691 0.31121 0.38266 0.0
C673 C 0.54791 0.32937 0.39675 0.0
C674 C 0.5434 0.3214 0.42584 0.0
C675 C 0.52729 0.33865 0.37915 0.0
C676 C 0.53066 0.34596 0.34785 0.0
C677 C 0.54224 0.32852 0.32969 0.0
C678 C 0.54554 0.33555 0.30028 0.0
C679 C 0.53723 0.35994 0.28872 0.0
C680 C 0.52554 0.37733 0.30654 0.0
C681 C 0.5222 0.37039 0.33597 0.0
H682 H 0.5398 0.36535 0.26594 0.0
H683 H 0.50786 0.29897 0.55194 0.0
H684 H 0.09675 0.90619 0.92134 0.0
H685 H 0.08881 0.93811 0.88089 0.0
H686 H 0.16547 0.96826 0.88879 0.0
H687 H 0.17376 0.93599 0.92886 0.0
H688 H 0.08766 0.98901 0.88221 0.0
H689 H 0.18672 0.99523 0.82459 0.0
H690 H 0.22233 0.96596 0.81363 0.0
H691 H 0.17111 0.90025 0.81872 0.0
H692 H 0.13513 0.92916 0.82927 0.0
H693 H 0.13495 0.10374 0.78654 0.0
H694 H 0.14434 0.06091 0.81038 0.0
H695 H 0.06939 0.03361 0.78764 0.0
H696 H 0.05989 0.0764 0.76349 0.0
H697 H 0.14418 0.00828 0.79738 0.0
H698 H 0.04438 0.00212 0.84923 0.0
H699 H 0.0084 0.03118 0.85971 0.0
H700 H 0.06062 0.09528 0.86595 0.0
H701 H 0.09691 0.0665 0.85604 0.0
C702 C 0.11203 0.91945 0.9143 0.0
C703 C 0.13585 0.91869 0.92846 0.0
C704 C 0.10745 0.93767 0.89115 0.0
C705 C 0.12656 0.95551 0.88168 0.0
C706 C 0.15056 0.9544 0.89535 0.0
C707 C 0.15524 0.93602 0.91838 0.0
C708 C 0.12078 0.97655 0.85906 0.0
C709 C 0.09973 0.99282 0.86335 0.0
C710 C 0.13678 0.98188 0.83471 0.0
C711 C 0.15826 0.96437 0.82798 0.0
C712 C 0.18302 0.97456 0.82323 0.0
C713 C 0.20328 0.95802 0.81711 0.0
C714 C 0.199 0.93125 0.81556 0.0
C715 C 0.17443 0.92097 0.82003 0.0
C716 C 0.1541 0.93743 0.82612 0.0
C717 C 0.12075 0.08839 0.78578 0.0
C718 C 0.09654 0.09355 0.77347 0.0
C719 C 0.12615 0.06392 0.79946 0.0
C720 C 0.10741 0.04428 0.80116 0.0
C721 C 0.08397 0.04867 0.78689 0.0
C722 C 0.07855 0.07314 0.77322 0.0
C723 C 0.11123 0.0206 0.82076 0.0
C724 C 0.13193 0.00404 0.81601 0.0
C725 C 0.09487 0.01487 0.84469 0.0
C726 C 0.0733 0.03222 0.85153 0.0
C727 C 0.04817 0.02239 0.85298 0.0
C728 C 0.02773 0.03881 0.85881 0.0
C729 C 0.03221 0.06508 0.86337 0.0
C730 C 0.05716 0.07495 0.86231 0.0
C731 C 0.07767 0.05859 0.85658 0.0
H732 H 0.01635 0.07778 0.8678 0.0
H733 H 0.21471 0.91848 0.81085 0.0
H734 H 0.61126 0.61011 0.44679 0.0
H735 H 0.58534 0.61631 0.40308 0.0
H736 H 0.57353 0.6971 0.41994 0.0
H737 H 0.59964 0.69121 0.46349 0.0
H738 H 0.53595 0.6282 0.4015 0.0
H739 H 0.56351 0.7332 0.35651 0.0
H740 H 0.60184 0.76136 0.35255 0.0
H741 H 0.65008 0.69352 0.35594 0.0
H742 H 0.61206 0.66496 0.35947 0.0
H743 H 0.43459 0.68218 0.32695 0.0
H744 H 0.47349 0.68492 0.35585 0.0
H745 H 0.51867 0.66228 0.28385 0.0
H746 H 0.47953 0.65977 0.25465 0.0
H747 H 0.54377 0.69904 0.32351 0.0
H748 H 0.50138 0.61537 0.32251 0.0
H749 H 0.46271 0.58765 0.32459 0.0
H750 H 0.44696 0.60983 0.41041 0.0
H751 H 0.48529 0.63809 0.40861 0.0
C752 C 0.60344 0.62931 0.44103 0.0
C753 C 0.60734 0.65011 0.45883 0.0
C754 C 0.58863 0.6328 0.41602 0.0
C755 C 0.57756 0.65717 0.40819 0.0
C756 C 0.58217 0.67821 0.42533 0.0
C757 C 0.59699 0.67475 0.45034 0.0
C758 C 0.55935 0.66003 0.38368 0.0
C759 C 0.53789 0.64352 0.38432 0.0
C760 C 0.56191 0.6799 0.3611 0.0
C761 C 0.5849 0.69694 0.35849 0.0
C762 C 0.58229 0.72429 0.35625 0.0
C763 C 0.60397 0.74032 0.35411 0.0
C764 C 0.62838 0.72923 0.35407 0.0
C765 C 0.63116 0.70208 0.35607 0.0
C766 C 0.60955 0.68596 0.35818 0.0
C767 C 0.45295 0.67886 0.31697 0.0
C768 C 0.45426 0.67071 0.28876 0.0
C769 C 0.47511 0.68041 0.33344 0.0
C770 C 0.49881 0.67348 0.32203 0.0
C771 C 0.50051 0.66778 0.29291 0.0
C772 C 0.47824 0.66635 0.2763 0.0
C773 C 0.52039 0.66764 0.34198 0.0
C774 C 0.54225 0.68354 0.34052 0.0
C775 C 0.5185 0.64693 0.36363 0.0
C776 C 0.49611 0.62899 0.36534 0.0
C777 C 0.48961 0.61441 0.34178 0.0
C778 C 0.46775 0.59861 0.3429 0.0
C779 C 0.45235 0.59703 0.36759 0.0
C780 C 0.45889 0.6111 0.39128 0.0
C781 C 0.4807 0.62699 0.39024 0.0
H782 H 0.43537 0.58488 0.36836 0.0
H783 H 0.64514 0.74168 0.35245 0.0
H784 H 0.28034 0.42109 0.53084 0.0
H785 H 0.26611 0.46054 0.55302 0.0
H786 H 0.3409 0.46888 0.59053 0.0
H787 H 0.35533 0.42951 0.56864 0.0
H788 H 0.26563 0.4791 0.61034 0.0
H789 H 0.35908 0.53201 0.57014 0.0
H790 H 0.39028 0.52908 0.53053 0.0
H791 H 0.33301 0.49468 0.47865 0.0
H792 H 0.30128 0.49819 0.51749 0.0
H793 H 0.29814 0.58831 0.68677 0.0
H794 H 0.28991 0.54805 0.66303 0.0
H795 H 0.28398 0.5925 0.58081 0.0
H796 H 0.29354 0.63261 0.60462 0.0
H797 H 0.31603 0.55705 0.5754 0.0
H798 H 0.23217 0.55552 0.61278 0.0
H799 H 0.19751 0.55853 0.64845 0.0
H800 H 0.22816 0.4924 0.6986 0.0
H801 H 0.26325 0.48921 0.66347 0.0
C802 C 0.29363 0.43104 0.54427 0.0
C803 C 0.31911 0.42241 0.5476 0.0
C804 C 0.28539 0.45347 0.55702 0.0
C805 C 0.30258 0.4677 0.57302 0.0
C806 C 0.32746 0.45818 0.578 0.0
C807 C 0.33566 0.43568 0.56549 0.0
C808 C 0.29565 0.49386 0.58197 0.0
C809 C 0.27648 0.49627 0.60276 0.0
C810 C 0.30908 0.51629 0.5709 0.0
C811 C 0.32787 0.5151 0.54693 0.0
C812 C 0.35308 0.52404 0.55019 0.0
C813 C 0.37086 0.5223 0.52784 0.0
C814 C 0.36364 0.51166 0.50211 0.0
C815 C 0.33859 0.50288 0.49859 0.0
C816 C 0.3207 0.50478 0.52076 0.0
C817 C 0.29413 0.58947 0.66381 0.0
C818 C 0.29623 0.61335 0.64743 0.0
C819 C 0.28936 0.56649 0.6502 0.0
C820 C 0.28619 0.56715 0.62005 0.0
C821 C 0.28642 0.59143 0.60405 0.0
C822 C 0.29166 0.61434 0.61761 0.0
C823 C 0.2866 0.54246 0.60503 0.0
C824 C 0.30469 0.5402 0.58289 0.0
C825 C 0.27153 0.52044 0.61424 0.0
C826 C 0.25046 0.52222 0.63552 0.0
C827 C 0.23165 0.54173 0.63152 0.0
C828 C 0.21189 0.54345 0.65163 0.0
C829 C 0.21065 0.52569 0.6758 0.0
C830 C 0.22914 0.50614 0.67987 0.0
C831 C 0.24895 0.50434 0.65983 0.0
H832 H 0.19534 0.52705 0.69135 0.0
H833 H 0.37744 0.51023 0.48487 0.0
H834 H 0.10728 0.87986 0.09325 0.0
H835 H 0.0824 0.87329 0.13754 0.0
H836 H 0.0691 0.79289 0.11983 0.0
H837 H 0.09379 0.7994 0.07502 0.0
H838 H 0.02534 0.81735 0.13126 0.0
H839 H 0.10707 0.80839 0.17615 0.0
H840 H 0.15169 0.82026 0.18654 0.0
H841 H 0.12626 0.89174 0.22019 0.0
H842 H 0.08153 0.88063 0.20939 0.0
H843 H 0.94754 0.80875 0.25624 0.0
H844 H 0.98364 0.79824 0.22542 0.0
H845 H 0.01184 0.87715 0.22821 0.0
H846 H 0.97656 0.8874 0.25994 0.0
H847 H 0.0508 0.84415 0.22793 0.0
H848 H 0.9724 0.8586 0.17337 0.0
H849 H 0.92743 0.84991 0.16095 0.0
H850 H 0.94675 0.77104 0.14402 0.0
H851 H 0.99181 0.77919 0.15673 0.0
C852 C 0.09935 0.86066 0.09888 0.0
C853 C 0.10235 0.84021 0.08042 0.0
C854 C 0.08528 0.85687 0.12439 0.0
C855 C 0.07405 0.83253 0.13215 0.0
C856 C 0.07768 0.81181 0.11429 0.0
C857 C 0.09183 0.81557 0.08872 0.0
C858 C 0.0566 0.82965 0.15742 0.0
C859 C 0.0311 0.82253 0.15261 0.0
C860 C 0.06396 0.83701 0.1851 0.0
C861 C 0.09089 0.84371 0.1918 0.0
C862 C 0.11098 0.82674 0.18555 0.0
C863 C 0.13632 0.83334 0.19151 0.0
C864 C 0.14182 0.85677 0.20394 0.0
C865 C 0.12198 0.87362 0.21051 0.0
C866 C 0.09663 0.86717 0.20448 0.0
C867 C 0.9618 0.82365 0.2509 0.0
C868 C 0.95898 0.84904 0.26016 0.0
C869 C 0.98231 0.81768 0.23309 0.0
C870 C 0.00017 0.83706 0.22403 0.0
C871 C 0.99825 0.8619 0.23477 0.0
C872 C 0.9779 0.86782 0.25266 0.0
C873 C 0.01952 0.83249 0.20147 0.0
C874 C 0.04529 0.83829 0.20677 0.0
C875 C 0.0124 0.82428 0.17407 0.0
C876 C 0.98537 0.81939 0.16635 0.0
C877 C 0.96701 0.83935 0.16721 0.0
C878 C 0.94152 0.83453 0.16009 0.0
C879 C 0.93422 0.80991 0.1518 0.0
C880 C 0.95242 0.79008 0.15052 0.0
C881 C 0.97793 0.79478 0.15768 0.0
H882 H 0.91448 0.80622 0.14629 0.0
H883 H 0.16144 0.86186 0.20852 0.0
H884 H 0.60999 0.57958 0.61594 0.0
H885 H 0.60513 0.54522 0.65454 0.0
H886 H 0.68408 0.52315 0.64442 0.0
H887 H 0.68917 0.55763 0.60554 0.0
H888 H 0.65075 0.4813 0.64435 0.0
H889 H 0.66719 0.55186 0.70351 0.0
H890 H 0.66204 0.59613 0.72033 0.0
H891 H 0.58359 0.57931 0.74216 0.0
H892 H 0.58814 0.53506 0.72506 0.0
H893 H 0.63621 0.38432 0.75914 0.0
H894 H 0.65303 0.42328 0.73219 0.0
H895 H 0.57867 0.45949 0.73481 0.0
H896 H 0.56194 0.42098 0.76261 0.0
H897 H 0.61618 0.49473 0.74189 0.0
H898 H 0.5973 0.42824 0.67609 0.0
H899 H 0.60041 0.3845 0.65735 0.0
H900 H 0.68158 0.39421 0.64674 0.0
H901 H 0.67897 0.43798 0.66563 0.0
C902 C 0.62643 0.56759 0.62205 0.0
C903 C 0.64995 0.57125 0.60758 0.0
C904 C 0.62365 0.54806 0.64426 0.0
C905 C 0.6443 0.53177 0.65248 0.0
C906 C 0.66795 0.5356 0.63844 0.0
C907 C 0.67083 0.55533 0.61631 0.0
C908 C 0.64046 0.50973 0.67441 0.0
C909 C 0.64379 0.48423 0.66593 0.0
C910 C 0.63077 0.51361 0.70228 0.0
C911 C 0.62798 0.54017 0.71282 0.0
C912 C 0.64878 0.55765 0.7117 0.0
C913 C 0.64598 0.58274 0.72132 0.0
C914 C 0.62249 0.59054 0.73227 0.0
C915 C 0.60177 0.57324 0.73368 0.0
C916 C 0.60447 0.54814 0.72406 0.0
C917 C 0.62358 0.40081 0.75456 0.0
C918 C 0.59768 0.3995 0.76283 0.0
C919 C 0.63318 0.42297 0.73894 0.0
C920 C 0.61701 0.44412 0.73113 0.0
C921 C 0.59147 0.44336 0.74053 0.0
C922 C 0.58188 0.42126 0.75619 0.0
C923 C 0.62611 0.46633 0.71164 0.0
C924 C 0.62366 0.49183 0.72052 0.0
C925 C 0.63639 0.46249 0.684 0.0
C926 C 0.63799 0.43623 0.67259 0.0
C927 C 0.61584 0.42096 0.66997 0.0
C928 C 0.6175 0.39618 0.65929 0.0
C929 C 0.64118 0.38652 0.651 0.0
C930 C 0.66325 0.40168 0.65324 0.0
C931 C 0.66169 0.42649 0.6639 0.0
H932 H 0.64242 0.36733 0.64274 0.0
H933 H 0.62036 0.60997 0.7397 0.0
H934 H 0.92608 0.11405 0.10016 0.0
H935 H 0.96614 0.12009 0.12594 0.0
H936 H 0.96495 0.2024 0.09978 0.0
H937 H 0.92485 0.19662 0.07393 0.0
H938 H 0.01054 0.13555 0.10238 0.0
H939 H 0.99414 0.23599 0.15215 0.0
H940 H 0.95857 0.2596 0.1737 0.0
H941 H 0.92037 0.18685 0.19612 0.0
H942 H 0.95585 0.16281 0.17527 0.0
H943 H 0.12837 0.18919 0.11995 0.0
H944 H 0.08244 0.19089 0.10984 0.0
H945 H 0.06636 0.1699 0.19967 0.0
H946 H 0.11251 0.1689 0.20996 0.0
H947 H 0.02804 0.2022 0.17269 0.0
H948 H 0.07259 0.12261 0.15902 0.0
H949 H 0.10829 0.09679 0.14107 0.0
H950 H 0.08815 0.12106 0.05364 0.0
H951 H 0.05264 0.1475 0.07111 0.0
C952 C 0.93418 0.1335 0.10007 0.0
C953 C 0.92241 0.15483 0.08467 0.0
C954 C 0.95707 0.13689 0.11486 0.0
C955 C 0.96845 0.16167 0.11484 0.0
C956 C 0.95633 0.18315 0.10033 0.0
C957 C 0.93349 0.17978 0.08542 0.0
C958 C 0.99399 0.16478 0.12796 0.0
C959 C 0.01428 0.15001 0.11788 0.0
C960 C 0.99877 0.18325 0.14866 0.0
C961 C 0.9776 0.19762 0.16187 0.0
C962 C 0.97823 0.22502 0.16184 0.0
C963 C 0.95805 0.23849 0.17393 0.0
C964 C 0.93718 0.22475 0.18622 0.0
C965 C 0.93649 0.1975 0.18655 0.0
C966 C 0.95662 0.18395 0.17457 0.0
C967 C 0.11496 0.18592 0.13766 0.0
C968 C 0.12373 0.17875 0.16563 0.0
C969 C 0.08881 0.18685 0.13191 0.0
C970 C 0.07111 0.18001 0.15393 0.0
C971 C 0.07976 0.17522 0.18243 0.0
C972 C 0.10603 0.17462 0.18827 0.0
C973 C 0.04447 0.17369 0.14618 0.0
C974 C 0.02411 0.18769 0.15732 0.0
C975 C 0.03939 0.15393 0.12706 0.0
C976 C 0.06006 0.13719 0.11639 0.0
C977 C 0.07583 0.12252 0.13597 0.0
C978 C 0.09605 0.1078 0.12589 0.0
C979 C 0.10051 0.10732 0.09624 0.0
C980 C 0.08468 0.12147 0.0766 0.0
C981 C 0.06449 0.13632 0.08658 0.0
H982 H 0.11622 0.09597 0.08848 0.0
H983 H 0.92155 0.2352 0.19551 0.0
H984 H 0.23844 0.84406 0.03498 0.0
H985 H 0.27182 0.82192 0.0645 0.0
H986 H 0.21818 0.76096 0.09149 0.0
H987 H 0.18472 0.78334 0.06311 0.0
H988 H 0.24462 0.77269 0.13551 0.0
H989 H 0.26506 0.75554 0.03676 0.0
H990 H 0.27582 0.76775 0.98583 0.0
H991 H 0.34334 0.80739 0.01237 0.0
H992 H 0.33277 0.79584 0.06351 0.0
H993 H 0.32089 0.66232 0.17285 0.0
H994 H 0.29366 0.69357 0.1449 0.0
H995 H 0.35156 0.75307 0.15007 0.0
H996 H 0.37875 0.72199 0.1786 0.0
H997 H 0.32702 0.7474 0.09213 0.0
H998 H 0.30739 0.76031 0.19133 0.0
H999 H 0.2963 0.74614 0.24164 0.0
H1000 H 0.2265 0.71203 0.21296 0.0
H1001 H 0.23738 0.72563 0.16239 0.0
C1002 C 0.2338 0.82598 0.04731 0.0
C1003 C 0.20896 0.81542 0.04662 0.0
C1004 C 0.25291 0.81329 0.06407 0.0
C1005 C 0.24763 0.78956 0.07994 0.0
C1006 C 0.22275 0.77925 0.07951 0.0
C1007 C 0.20361 0.79207 0.06318 0.0
C1008 C 0.2678 0.77509 0.09693 0.0
C1009 C 0.26255 0.76708 0.12589 0.0
C1010 C 0.29156 0.76829 0.08471 0.0
C1011 C 0.29796 0.77509 0.05396 0.0
C1012 C 0.2821 0.76703 0.03174 0.0
C1013 C 0.28817 0.7738 0.00284 0.0
C1014 C 0.31021 0.78836 0.99588 0.0
C1015 C 0.32625 0.79615 0.0178 0.0
C1016 C 0.32023 0.78951 0.04674 0.0
C1017 C 0.32785 0.68203 0.16787 0.0
C1018 C 0.35178 0.68981 0.17798 0.0
C1019 C 0.31232 0.69982 0.15198 0.0
C1020 C 0.32062 0.72559 0.14563 0.0
C1021 C 0.34489 0.73324 0.15483 0.0
C1022 C 0.36031 0.71552 0.17117 0.0
C1023 C 0.30335 0.74456 0.13018 0.0
C1024 C 0.30919 0.75338 0.10168 0.0
C1025 C 0.27999 0.75189 0.14264 0.0
C1026 C 0.27332 0.74379 0.17304 0.0
C1027 C 0.28979 0.74957 0.19572 0.0
C1028 C 0.28352 0.74169 0.22429 0.0
C1029 C 0.26074 0.72814 0.23049 0.0
C1030 C 0.24415 0.7225 0.20812 0.0
C1031 C 0.25035 0.73032 0.1795 0.0
H1032 H 0.25591 0.72206 0.25262 0.0
H1033 H 0.31487 0.79357 0.97348 0.0
H1034 H 0.67034 0.7195 0.59328 0.0
H1035 H 0.68565 0.74199 0.63485 0.0
H1036 H 0.71251 0.66869 0.67481 0.0
H1037 H 0.69692 0.64603 0.63383 0.0
H1038 H 0.69081 0.6976 0.71398 0.0
H1039 H 0.75314 0.71048 0.63764 0.0
H1040 H 0.76779 0.72422 0.58838 0.0
H1041 H 0.74411 0.80294 0.60012 0.0
H1042 H 0.72896 0.78957 0.64933 0.0
H1043 H 0.78783 0.73807 0.80875 0.0
H1044 H 0.76316 0.71888 0.77054 0.0
H1045 H 0.73785 0.79574 0.73945 0.0
H1046 H 0.76252 0.815 0.77737 0.0
H1047 H 0.75557 0.76771 0.69612 0.0
H1048 H 0.69684 0.75461 0.7751 0.0
H1049 H 0.68302 0.7399 0.82437 0.0
H1050 H 0.7011 0.66061 0.80801 0.0
H1051 H 0.71539 0.67489 0.75875 0.0
C1052 C 0.67933 0.70814 0.61102 0.0
C1053 C 0.68269 0.68102 0.61005 0.0
C1054 C 0.6881 0.72103 0.63471 0.0
C1055 C 0.70053 0.70703 0.6577 0.0
C1056 C 0.70302 0.67986 0.65728 0.0
C1057 C 0.6942 0.66697 0.63371 0.0
C1058 C 0.71208 0.72068 0.68163 0.0
C1059 C 0.70509 0.71282 0.71013 0.0
C1060 C 0.73035 0.74085 0.67651 0.0
C1061 C 0.73966 0.74897 0.64703 0.0
C1062 C 0.75089 0.73068 0.62963 0.0
C1063 C 0.7593 0.73841 0.60174 0.0
C1064 C 0.75682 0.76442 0.59109 0.0
C1065 C 0.74598 0.78279 0.60837 0.0
C1066 C 0.73748 0.77515 0.63627 0.0
C1067 C 0.77685 0.7508 0.79385 0.0
C1068 C 0.77706 0.77794 0.79602 0.0
C1069 C 0.7627 0.73984 0.77215 0.0
C1070 C 0.74851 0.7559 0.75235 0.0
C1071 C 0.74863 0.78303 0.75457 0.0
C1072 C 0.7627 0.79398 0.7763 0.0
C1073 C 0.73448 0.74448 0.72852 0.0
C1074 C 0.74106 0.75272 0.70002 0.0
C1075 C 0.71599 0.72453 0.73368 0.0
C1076 C 0.70741 0.71587 0.7633 0.0
C1077 C 0.69808 0.73407 0.78208 0.0
C1078 C 0.69012 0.7258 0.81 0.0
C1079 C 0.69124 0.69935 0.81934 0.0
C1080 C 0.70027 0.6811 0.80076 0.0
C1081 C 0.70828 0.68927 0.77283 0.0
H1082 H 0.68505 0.69298 0.84096 0.0
H1083 H 0.76334 0.77037 0.56949 0.0
H1084 H 0.85537 0.20607 0.11813 0.0
H1085 H 0.84169 0.22769 0.16086 0.0
H1086 H 0.76619 0.1946 0.15367 0.0
H1087 H 0.77957 0.17309 0.11078 0.0
H1088 H 0.76496 0.24678 0.16173 0.0
H1089 H 0.80752 0.17001 0.20435 0.0
H1090 H 0.84397 0.13974 0.2113 0.0
H1091 H 0.89054 0.2018 0.24042 0.0
H1092 H 0.85447 0.23254 0.23321 0.0
H1093 H 0.71105 0.27337 0.29446 0.0
H1094 H 0.72864 0.25025 0.25474 0.0
H1095 H 0.80316 0.28312 0.26966 0.0
H1096 H 0.78566 0.30603 0.31006 0.0
H1097 H 0.80694 0.23258 0.25744 0.0
H1098 H 0.76596 0.30921 0.21572 0.0
H1099 H 0.73103 0.34107 0.20723 0.0
H1100 H 0.68335 0.28142 0.17479 0.0
H1101 H 0.71789 0.24909 0.18349 0.0
C1102 C 0.83585 0.20336 0.12562 0.0
C1103 C 0.81852 0.18792 0.11096 0.0
C1104 C 0.82812 0.21563 0.15014 0.0
C1105 C 0.80299 0.21257 0.1605 0.0
C1106 C 0.78568 0.19718 0.14597 0.0
C1107 C 0.79338 0.18487 0.1215 0.0
C1108 C 0.79446 0.22596 0.18607 0.0
C1109 C 0.77389 0.24342 0.18276 0.0
C1110 C 0.80679 0.22222 0.21318 0.0
C1111 C 0.82835 0.20363 0.21801 0.0
C1112 C 0.82558 0.17724 0.21207 0.0
C1113 C 0.84617 0.15999 0.21607 0.0
C1114 C 0.86957 0.16885 0.22624 0.0
C1115 C 0.8724 0.19496 0.23253 0.0
C1116 C 0.85189 0.21231 0.22851 0.0
C1117 C 0.73121 0.27561 0.28943 0.0
C1118 C 0.747 0.29172 0.30513 0.0
C1119 C 0.74123 0.26242 0.26666 0.0
C1120 C 0.7671 0.26535 0.25892 0.0
C1121 C 0.78312 0.28069 0.27522 0.0
C1122 C 0.77312 0.29379 0.29817 0.0
C1123 C 0.77708 0.25304 0.23322 0.0
C1124 C 0.79799 0.23593 0.23643 0.0
C1125 C 0.76525 0.25727 0.20586 0.0
C1126 C 0.74444 0.27667 0.20052 0.0
C1127 C 0.74795 0.30284 0.20699 0.0
C1128 C 0.72824 0.32099 0.20211 0.0
C1129 C 0.70496 0.31326 0.19055 0.0
C1130 C 0.70138 0.28737 0.18378 0.0
C1131 C 0.72103 0.26913 0.18866 0.0
H1132 H 0.68972 0.32734 0.18677 0.0
H1133 H 0.8855 0.15548 0.22928 0.0
H1134 H 0.26339 0.34166 0.54908 0.0
H1135 H 0.23483 0.3179 0.58336 0.0
H1136 H 0.28421 0.25052 0.58385 0.0
H1137 H 0.31259 0.2739 0.54915 0.0
H1138 H 0.23594 0.236 0.5807 0.0
H1139 H 0.28433 0.29097 0.63943 0.0
H1140 H 0.30257 0.33246 0.6539 0.0
H1141 H 0.22695 0.36279 0.66529 0.0
H1142 H 0.20823 0.32164 0.6503 0.0
H1143 H 0.19282 0.16795 0.70991 0.0
H1144 H 0.21955 0.19433 0.6757 0.0
H1145 H 0.15958 0.25188 0.66534 0.0
H1146 H 0.13254 0.22534 0.69928 0.0
H1147 H 0.21171 0.27219 0.67343 0.0
H1148 H 0.16438 0.21461 0.6148 0.0
H1149 H 0.14833 0.17178 0.60163 0.0
H1150 H 0.22546 0.14475 0.59249 0.0
H1151 H 0.24198 0.18732 0.60604 0.0
C1152 C 0.26816 0.32176 0.55641 0.0
C1153 C 0.29028 0.30967 0.54634 0.0
C1154 C 0.25187 0.30825 0.57612 0.0
C1155 C 0.25755 0.28254 0.58642 0.0
C1156 C 0.27946 0.27035 0.57618 0.0
C1157 C 0.29568 0.28377 0.55636 0.0
C1158 C 0.2406 0.26823 0.60774 0.0
C1159 C 0.23089 0.24383 0.60109 0.0
C1160 C 0.23368 0.2786 0.63419 0.0
C1161 C 0.24487 0.30331 0.64344 0.0
C1162 C 0.27158 0.30656 0.64479 0.0
C1163 C 0.28201 0.33 0.65313 0.0
C1164 C 0.26593 0.35026 0.66048 0.0
C1165 C 0.23938 0.34709 0.65955 0.0
C1166 C 0.22884 0.32371 0.65114 0.0
C1167 C 0.18539 0.18627 0.70038 0.0
C1168 C 0.16062 0.19454 0.70705 0.0
C1169 C 0.20063 0.20127 0.68089 0.0
C1170 C 0.19143 0.22493 0.66796 0.0
C1171 C 0.16695 0.23364 0.67515 0.0
C1172 C 0.15152 0.21843 0.6944 0.0
C1173 C 0.20724 0.24008 0.6463 0.0
C1174 C 0.21672 0.26455 0.65293 0.0
C1175 C 0.2143 0.22962 0.62003 0.0
C1176 C 0.20441 0.20407 0.61171 0.0
C1177 C 0.17792 0.19946 0.61023 0.0
C1178 C 0.16873 0.17524 0.60264 0.0
C1179 C 0.18586 0.15553 0.5963 0.0
C1180 C 0.21222 0.16003 0.59745 0.0
C1181 C 0.2215 0.1842 0.60505 0.0
H1182 H 0.17872 0.1368 0.59043 0.0
H1183 H 0.27405 0.3684 0.66694 0.0
H1184 H 0.68531 0.69739 0.4589 0.0
H1185 H 0.71653 0.72301 0.42977 0.0
H1186 H 0.77512 0.70246 0.49277 0.0
H1187 H 0.74416 0.67617 0.52159 0.0
H1188 H 0.74155 0.76448 0.44029 0.0
H1189 H 0.83337 0.70173 0.46113 0.0
H1190 H 0.84511 0.65525 0.46947 0.0
H1191 H 0.777 0.63283 0.42562 0.0
H1192 H 0.76506 0.67916 0.41663 0.0
H1193 H 0.84834 0.84324 0.40433 0.0
H1194 H 0.81844 0.81274 0.42945 0.0
H1195 H 0.8301 0.75797 0.36401 0.0
H1196 H 0.86082 0.78799 0.33956 0.0
H1197 H 0.82717 0.73213 0.41344 0.0
H1198 H 0.77604 0.79822 0.36487 0.0
H1199 H 0.76169 0.84301 0.3505 0.0
H1200 H 0.74378 0.85551 0.43885 0.0
H1201 H 0.75834 0.81089 0.4538 0.0
C1202 C 0.70489 0.69817 0.46647 0.0
C1203 C 0.71226 0.68475 0.49258 0.0
C1204 C 0.72271 0.71287 0.44981 0.0
C1205 C 0.74824 0.71456 0.45894 0.0
C1206 C 0.75567 0.70108 0.48497 0.0
C1207 C 0.73791 0.68613 0.5015 0.0
C1208 C 0.7668 0.73124 0.44182 0.0
C1209 C 0.76025 0.75736 0.43439 0.0
C1210 C 0.791 0.72185 0.43349 0.0
C1211 C 0.79821 0.69393 0.43847 0.0
C1212 C 0.82096 0.68689 0.45316 0.0
C1213 C 0.82764 0.66057 0.45801 0.0
C1214 C 0.81177 0.6411 0.44816 0.0
C1215 C 0.78923 0.64792 0.43333 0.0
C1216 C 0.78249 0.67421 0.42838 0.0
C1217 C 0.84462 0.82459 0.39549 0.0
C1218 C 0.85681 0.81798 0.37005 0.0
C1219 C 0.82743 0.80724 0.40972 0.0
C1220 C 0.82161 0.78322 0.39834 0.0
C1221 C 0.83423 0.77638 0.3732 0.0
C1222 C 0.85175 0.79357 0.35921 0.0
C1223 C 0.80207 0.76549 0.41241 0.0
C1224 C 0.80845 0.7392 0.4193 0.0
C1225 C 0.77734 0.77446 0.41938 0.0
C1226 C 0.7685 0.80129 0.41048 0.0
C1227 C 0.7692 0.81059 0.38126 0.0
C1228 C 0.76101 0.83593 0.37301 0.0
C1229 C 0.75188 0.85212 0.39376 0.0
C1230 C 0.75088 0.84296 0.4228 0.0
C1231 C 0.75908 0.81764 0.43118 0.0
H1232 H 0.74555 0.87174 0.38733 0.0
H1233 H 0.81696 0.62074 0.45197 0.0
H1234 H 0.7705 0.15587 0.97809 0.0
H1235 H 0.73841 0.1808 0.94947 0.0
H1236 H 0.77169 0.25279 0.97471 0.0
H1237 H 0.80386 0.22812 0.00332 0.0
H1238 H 0.71882 0.25054 0.98171 0.0
H1239 H 0.78168 0.23499 0.90882 0.0
H1240 H 0.80989 0.20765 0.8808 0.0
H1241 H 0.74453 0.16647 0.85082 0.0
H1242 H 0.71594 0.19332 0.87904 0.0
H1243 H 0.65989 0.34414 0.88552 0.0
H1244 H 0.69041 0.31597 0.91267 0.0
H1245 H 0.65652 0.24815 0.87768 0.0
H1246 H 0.62615 0.27634 0.85009 0.0
H1247 H 0.70793 0.24585 0.87594 0.0
H1248 H 0.6448 0.26151 0.94695 0.0
H1249 H 0.61596 0.28762 0.97563 0.0
H1250 H 0.6806 0.32696 0.00995 0.0
H1251 H 0.70984 0.30134 0.98115 0.0
C1252 C 0.77107 0.17702 0.97745 0.0
C1253 C 0.7897 0.19002 0.99305 0.0
C1254 C 0.75277 0.19121 0.96102 0.0
C1255 C 0.75275 0.21861 0.95997 0.0
C1256 C 0.7714 0.23164 0.97532 0.0
C1257 C 0.78982 0.2175 0.99155 0.0
C1258 C 0.73289 0.23377 0.94348 0.0
C1259 C 0.7166 0.24978 0.95853 0.0
C1260 C 0.72954 0.23202 0.91343 0.0
C1261 C 0.74669 0.21598 0.89629 0.0
C1262 C 0.77333 0.21996 0.89645 0.0
C1263 C 0.78939 0.20458 0.8805 0.0
C1264 C 0.77902 0.18529 0.86411 0.0
C1265 C 0.75255 0.18139 0.86357 0.0
C1266 C 0.7364 0.1967 0.87952 0.0
C1267 C 0.65891 0.3232 0.88374 0.0
C1268 C 0.64063 0.31241 0.86587 0.0
C1269 C 0.67627 0.30713 0.8993 0.0
C1270 C 0.67553 0.27993 0.89747 0.0
C1271 C 0.65737 0.26909 0.87945 0.0
C1272 C 0.63998 0.2852 0.8638 0.0
C1273 C 0.69402 0.26297 0.91411 0.0
C1274 C 0.71003 0.24655 0.89914 0.0
C1275 C 0.69701 0.26419 0.94431 0.0
C1276 C 0.6795 0.27966 0.96168 0.0
C1277 C 0.65286 0.27588 0.96043 0.0
C1278 C 0.63644 0.29056 0.97674 0.0
C1279 C 0.64644 0.30898 0.99454 0.0
C1280 C 0.67288 0.31271 0.99612 0.0
C1281 C 0.68939 0.29809 0.97983 0.0
H1282 H 0.63369 0.32032 0.00716 0.0
H1283 H 0.79148 0.1734 0.85177 0.0
H1284 H 0.35989 0.29435 0.42048 0.0
H1285 H 0.347 0.27013 0.37912 0.0
H1286 H 0.26959 0.29778 0.38733 0.0
H1287 H 0.28219 0.322 0.42854 0.0
H1288 H 0.27265 0.2443 0.38307 0.0
H1289 H 0.30633 0.32344 0.33473 0.0
H1290 H 0.33942 0.35691 0.32343 0.0
H1291 H 0.38954 0.29838 0.29311 0.0
H1292 H 0.35685 0.26448 0.30464 0.0
H1293 H 0.21105 0.21828 0.2551 0.0
H1294 H 0.23126 0.24007 0.29415 0.0
H1295 H 0.30441 0.20803 0.27192 0.0
H1296 H 0.28417 0.1862 0.23218 0.0
H1297 H 0.30783 0.25988 0.28398 0.0
H1298 H 0.27342 0.1812 0.32892 0.0
H1299 H 0.24065 0.14742 0.34034 0.0
H1300 H 0.19277 0.20418 0.37769 0.0
H1301 H 0.22509 0.23841 0.36611 0.0
C1302 C 0.34014 0.29535 0.41341 0.0
C1303 C 0.32203 0.31001 0.42788 0.0
C1304 C 0.33285 0.28159 0.38974 0.0
C1305 C 0.30737 0.28224 0.38022 0.0
C1306 C 0.28935 0.29702 0.39444 0.0
C1307 C 0.29662 0.3109 0.41793 0.0
C1308 C 0.29911 0.26694 0.35597 0.0
C1309 C 0.28017 0.24784 0.36134 0.0
C1310 C 0.30965 0.271 0.32793 0.0
C1311 C 0.32926 0.29138 0.32087 0.0
C1312 C 0.32449 0.31767 0.3259 0.0
C1313 C 0.34316 0.33673 0.31941 0.0
C1314 C 0.3666 0.32977 0.30764 0.0
C1315 C 0.37139 0.30374 0.30227 0.0
C1316 C 0.35279 0.28459 0.30877 0.0
C1317 C 0.23144 0.21583 0.25839 0.0
C1318 C 0.24607 0.20037 0.24071 0.0
C1319 C 0.24295 0.22827 0.28081 0.0
C1320 C 0.26924 0.22533 0.28619 0.0
C1321 C 0.28406 0.21043 0.26817 0.0
C1322 C 0.27251 0.19795 0.24561 0.0
C1323 C 0.28089 0.23769 0.31096 0.0
C1324 C 0.3005 0.25614 0.30576 0.0
C1325 C 0.27108 0.23298 0.33928 0.0
C1326 C 0.25162 0.21242 0.34645 0.0
C1327 C 0.25582 0.18653 0.33938 0.0
C1328 C 0.23734 0.16729 0.34591 0.0
C1329 C 0.21462 0.17366 0.35968 0.0
C1330 C 0.21037 0.19927 0.36701 0.0
C1331 C 0.22878 0.2186 0.3605 0.0
H1332 H 0.20034 0.15874 0.36472 0.0
H1333 H 0.38103 0.34455 0.30262 0.0
H1334 H 0.15987 0.77956 0.93735 0.0
H1335 H 0.17807 0.75793 0.89653 0.0
H1336 H 0.22734 0.82447 0.87708 0.0
H1337 H 0.2085 0.84651 0.91677 0.0
H1338 H 0.20991 0.80897 0.82953 0.0
H1339 H 0.24707 0.7648 0.91527 0.0
H1340 H 0.2456 0.73946 0.96241 0.0
H1341 H 0.20632 0.67713 0.92371 0.0
H1342 H 0.20714 0.70226 0.87644 0.0
H1343 H 0.30863 0.75487 0.74771 0.0
H1344 H 0.2836 0.77413 0.78556 0.0
H1345 H 0.2339 0.70671 0.7909 0.0
H1346 H 0.25895 0.68728 0.75335 0.0
H1347 H 0.24786 0.72046 0.84388 0.0
H1348 H 0.21381 0.76356 0.75746 0.0
H1349 H 0.21551 0.7889 0.71039 0.0
H1350 H 0.24973 0.8534 0.75055 0.0
H1351 H 0.24858 0.82831 0.79782 0.0
C1352 C 0.17454 0.78954 0.92427 0.0
C1353 C 0.18282 0.81468 0.93032 0.0
C1354 C 0.18501 0.77714 0.90104 0.0
C1355 C 0.20441 0.78938 0.88397 0.0
C1356 C 0.2124 0.81461 0.88986 0.0
C1357 C 0.20163 0.82718 0.91264 0.0
C1358 C 0.2167 0.77613 0.86006 0.0
C1359 C 0.21843 0.78972 0.8328 0.0
C1360 C 0.22719 0.75068 0.864 0.0
C1361 C 0.22693 0.73552 0.89239 0.0
C1362 C 0.23797 0.74577 0.91686 0.0
C1363 C 0.23728 0.73144 0.94359 0.0
C1364 C 0.22585 0.70674 0.94606 0.0
C1365 C 0.21514 0.69628 0.92178 0.0
C1366 C 0.2157 0.71055 0.89502 0.0
C1367 C 0.29232 0.74423 0.75695 0.0
C1368 C 0.28569 0.71969 0.74754 0.0
C1369 C 0.27799 0.75526 0.77845 0.0
C1370 C 0.25671 0.74196 0.7908 0.0
C1371 C 0.2502 0.71731 0.78159 0.0
C1372 C 0.26451 0.70629 0.76008 0.0
C1373 C 0.24155 0.75359 0.81369 0.0
C1374 C 0.23922 0.73966 0.84066 0.0
C1375 C 0.23063 0.77879 0.80955 0.0
C1376 C 0.23131 0.79395 0.78114 0.0
C1377 C 0.22189 0.78306 0.75622 0.0
C1378 C 0.22272 0.7974 0.72951 0.0
C1379 C 0.23278 0.82272 0.72747 0.0
C1380 C 0.24197 0.83378 0.75216 0.0
C1381 C 0.24121 0.81951 0.77892 0.0
H1382 H 0.2334 0.83379 0.70677 0.0
H1383 H 0.22535 0.6957 0.96677 0.0
loop_
_geom_bond_atom_site_label_1
_geom_bond_atom_site_label_2
_geom_bond_distance
_geom_bond_site_symmetry_2
_ccdc_geom_bond_type
Fe0 O2 1.918 . S
Fe0 O5 1.997 1_556 S
Fe0 O6 2.002 1_556 S
Fe0 O11 1.976 . S
Fe0 O14 1.996 . S
Fe1 O2 1.918 1_554 S
Fe1 O9 1.997 . S
Fe1 O12 1.996 1_554 S
Fe1 O16 1.976 1_554 S
Fe1 O19 2.002 . S
O2 Fe0 1.918 . S
O2 Fe1 1.918 1_556 S
O2 Fe3 1.918 1_556 S
Fe3 O2 1.918 1_554 S
Fe3 O4 2.002 . S
Fe3 O13 1.976 1_554 S
Fe3 O17 1.996 1_554 S
Fe3 O20 1.997 . S
O4 Fe3 2.002 . S
O4 C21 1.295 . S
O5 Fe0 1.997 1_554 S
O5 C21 1.235 . S
O6 Fe0 2.002 1_554 S
O6 C7 1.295 . S
C7 O6 1.295 . S
C7 O9 1.235 . S
C8 O13 1.287 . S
C8 O14 1.255 . S
O9 Fe1 1.997 . S
O9 C7 1.235 . S
C10 O16 1.287 . S
C10 O17 1.255 . S
O11 Fe0 1.976 . S
O11 C18 1.287 . S
O12 Fe1 1.996 1_556 S
O12 C18 1.255 . S
O13 Fe3 1.976 1_556 S
O13 C8 1.287 . S
O14 Fe0 1.996 . S
O14 C8 1.255 . S
C15 O19 1.295 . S
C15 O20 1.235 . S
O16 Fe1 1.976 1_556 S
O16 C10 1.287 . S
O17 Fe3 1.996 1_556 S
O17 C10 1.255 . S
C18 O11 1.287 . S
C18 O12 1.255 . S
O19 Fe1 2.002 . S
O19 C15 1.295 . S
O20 Fe3 1.997 . S
O20 C15 1.235 . S
C21 O4 1.295 . S
C21 O5 1.235 . S
Fe22 O24 1.918 . S
Fe22 O27 1.997 . S
Fe22 O28 2.002 . S
Fe22 O33 1.976 . S
Fe22 O36 1.996 . S
Fe23 O24 1.918 . S
Fe23 O31 1.997 . S
Fe23 O34 1.996 . S
Fe23 O38 1.976 . S
Fe23 O41 2.002 . S
O24 Fe22 1.918 . S
O24 Fe23 1.918 . S
O24 Fe25 1.918 . S
Fe25 O24 1.918 . S
Fe25 O26 2.002 . S
Fe25 O35 1.976 . S
Fe25 O39 1.996 . S
Fe25 O42 1.997 . S
O26 Fe25 2.002 . S
O26 C43 1.295 . S
O27 Fe22 1.997 . S
O27 C43 1.235 . S
O28 Fe22 2.002 . S
O28 C29 1.295 . S
C29 O28 1.295 . S
C29 O31 1.235 . S
C30 O35 1.287 . S
C30 O36 1.255 . S
O31 Fe23 1.997 . S
O31 C29 1.235 . S
C32 O38 1.287 . S
C32 O39 1.255 . S
O33 Fe22 1.976 . S
O33 C40 1.287 . S
O34 Fe23 1.996 . S
O34 C40 1.255 . S
O35 Fe25 1.976 . S
O35 C30 1.287 . S
O36 Fe22 1.996 . S
O36 C30 1.255 . S
C37 O41 1.295 . S
C37 O42 1.235 . S
O38 Fe23 1.976 . S
O38 C32 1.287 . S
O39 Fe25 1.996 . S
O39 C32 1.255 . S
C40 O33 1.287 . S
C40 O34 1.255 . S
O41 Fe23 2.002 . S
O41 C37 1.295 . S
O42 Fe25 1.997 . S
O42 C37 1.235 . S
C43 O26 1.295 . S
C43 O27 1.235 . S
Fe44 O46 1.918 . S
Fe44 O49 1.997 . S
Fe44 O50 1.999 . S
Fe44 O55 1.976 . S
Fe44 O58 1.996 . S
Fe45 O46 1.918 . S
Fe45 O53 1.997 . S
Fe45 O56 1.996 . S
Fe45 O60 1.976 . S
Fe45 O63 2.002 . S
O46 Fe44 1.918 . S
O46 Fe45 1.918 . S
O46 Fe47 1.918 . S
Fe47 O46 1.918 . S
Fe47 O48 2.002 . S
Fe47 O57 1.976 . S
Fe47 O61 1.996 . S
Fe47 O64 1.997 . S
O48 Fe47 2.002 . S
O48 C65 1.295 . S
O49 Fe44 1.997 . S
O49 C65 1.235 . S
O50 Fe44 1.999 . S
O50 C51 1.297 1_554 S
C51 O50 1.297 1_556 S
C51 O53 1.235 1_556 S
C52 O57 1.287 . S
C52 O58 1.255 . S
O53 Fe45 1.997 . S
O53 C51 1.235 1_554 S
C54 O60 1.287 . S
C54 O61 1.255 . S
O55 Fe44 1.976 . S
O55 C62 1.287 . S
O56 Fe45 1.996 . S
O56 C62 1.255 . S
O57 Fe47 1.976 . S
O57 C52 1.287 . S
O58 Fe44 1.996 . S
O58 C52 1.255 . S
C59 O63 1.295 . S
C59 O64 1.235 . S
O60 Fe45 1.976 . S
O60 C54 1.287 . S
O61 Fe47 1.996 . S
O61 C54 1.255 . S
C62 O55 1.287 . S
C62 O56 1.255 . S
O63 Fe45 2.002 . S
O63 C59 1.295 . S
O64 Fe47 1.997 . S
O64 C59 1.235 . S
C65 O48 1.295 . S
C65 O49 1.235 . S
Fe66 O68 1.918 . S
Fe66 O71 1.997 . S
Fe66 O72 2.002 . S
Fe66 O77 1.976 . S
Fe66 O80 1.996 . S
Fe67 O68 1.918 . S
Fe67 O75 1.997 . S
Fe67 O78 1.996 . S
Fe67 O82 1.976 . S
Fe67 O85 2.002 . S
O68 Fe66 1.918 . S
O68 Fe67 1.918 . S
O68 Fe69 1.918 . S
Fe69 O68 1.918 . S
Fe69 O70 2.002 . S
Fe69 O79 1.976 . S
Fe69 O83 1.996 . S
Fe69 O86 1.997 . S
O70 Fe69 2.002 . S
O70 C87 1.295 . S
O71 Fe66 1.997 . S
O71 C87 1.235 . S
O72 Fe66 2.002 . S
O72 C73 1.295 . S
C73 O72 1.295 . S
C73 O75 1.235 . S
C74 O79 1.287 . S
C74 O80 1.255 . S
O75 Fe67 1.997 . S
O75 C73 1.235 . S
C76 O82 1.287 . S
C76 O83 1.255 . S
O77 Fe66 1.976 . S
O77 C84 1.287 . S
O78 Fe67 1.996 . S
O78 C84 1.255 . S
O79 Fe69 1.976 . S
O79 C74 1.287 . S
O80 Fe66 1.996 . S
O80 C74 1.255 . S
C81 O85 1.295 . S
C81 O86 1.235 . S
O82 Fe67 1.976 . S
O82 C76 1.287 . S
O83 Fe69 1.996 . S
O83 C76 1.255 . S
C84 O77 1.287 . S
C84 O78 1.255 . S
O85 Fe67 2.002 . S
O85 C81 1.295 . S
O86 Fe69 1.997 . S
O86 C81 1.235 . S
C87 O70 1.295 . S
C87 O71 1.235 . S
H88 C93 0.930 . S
H89 C96 0.930 . S
H90 C98 0.930 . S
H91 C92 1.016 . S
C92 H91 1.016 . S
C92 N99 1.286 . S
C93 H88 0.930 . S
C93 C94 1.397 . S
C93 C95 1.361 . S
C94 C93 1.397 . S
C94 C98 1.390 . S
C95 C93 1.361 . S
C95 C96 1.393 . S
C95 N99 1.413 . S
C96 H89 0.930 . S
C96 C95 1.393 . S
C96 C97 1.399 . S
C97 C96 1.399 . S
C97 C98 1.381 . S
C98 H90 0.930 . S
C98 C94 1.390 . S
C98 C97 1.381 . S
N99 C92 1.286 . S
N99 C95 1.413 . S
H100 C105 0.930 . S
H101 C108 0.930 . S
H102 C110 0.930 . S
H103 C104 1.016 . S
C104 H103 1.016 . S
C104 N111 1.286 . S
C105 H100 0.930 . S
C105 C106 1.397 . S
C105 C107 1.361 . S
C106 C105 1.397 . S
C106 C110 1.390 . S
C107 C105 1.361 . S
C107 C108 1.393 . S
C107 N111 1.413 . S
C108 H101 0.930 . S
C108 C107 1.393 . S
C108 C109 1.399 . S
C109 C108 1.399 . S
C109 C110 1.381 . S
C110 H102 0.930 . S
C110 C106 1.390 . S
C110 C109 1.381 . S
N111 C104 1.286 . S
N111 C107 1.413 . S
H112 C117 0.930 . S
H113 C120 0.930 . S
H114 C122 0.930 . S
H115 C116 1.016 . S
C116 H115 1.016 . S
C116 N123 1.286 . S
C117 H112 0.930 . S
C117 C118 1.397 . S
C117 C119 1.361 . S
C118 C117 1.397 . S
C118 C122 1.390 . S
C119 C117 1.361 . S
C119 C120 1.393 . S
C119 N123 1.413 . S
C120 H113 0.930 . S
C120 C119 1.393 . S
C120 C121 1.399 . S
C121 C120 1.399 . S
C121 C122 1.381 . S
C122 H114 0.930 . S
C122 C118 1.390 . S
C122 C121 1.381 . S
N123 C116 1.286 . S
N123 C119 1.413 . S
H124 C129 0.930 . S
H125 C132 0.930 . S
H126 C134 0.930 . S
H127 C128 1.016 . S
C128 H127 1.016 . S
C128 N135 1.286 . S
C129 H124 0.930 . S
C129 C130 1.397 . S
C129 C131 1.361 . S
C130 C129 1.397 . S
C130 C134 1.390 . S
C131 C129 1.361 . S
C131 C132 1.393 . S
C131 N135 1.413 . S
C132 H125 0.930 . S
C132 C131 1.393 . S
C132 C133 1.399 . S
C133 C132 1.399 . S
C133 C134 1.381 . S
C134 H126 0.930 . S
C134 C130 1.390 . S
C134 C133 1.381 . S
N135 C128 1.286 . S
N135 C131 1.413 . S
H136 C141 0.930 . S
H137 C144 0.930 . S
H138 C146 0.930 . S
H139 C140 1.016 . S
C140 H139 1.016 . S
C140 N147 1.286 . S
C141 H136 0.930 . S
C141 C142 1.397 . S
C141 C143 1.361 . S
C142 C141 1.397 . S
C142 C146 1.390 . S
C143 C141 1.361 . S
C143 C144 1.393 . S
C143 N147 1.413 . S
C144 H137 0.930 . S
C144 C143 1.393 . S
C144 C145 1.399 . S
C145 C144 1.399 . S
C145 C146 1.381 . S
C146 H138 0.930 . S
C146 C142 1.390 . S
C146 C145 1.381 . S
N147 C140 1.286 . S
N147 C143 1.413 . S
H148 C153 0.930 . S
H149 C156 0.930 . S
H150 C158 0.930 . S
H151 C152 1.016 . S
C152 H151 1.016 . S
C152 N159 1.286 . S
C153 H148 0.930 . S
C153 C154 1.397 . S
C153 C155 1.361 . S
C154 C153 1.397 . S
C154 C158 1.390 . S
C155 C153 1.361 . S
C155 C156 1.393 . S
C155 N159 1.413 . S
C156 H149 0.930 . S
C156 C155 1.393 . S
C156 C157 1.399 . S
C157 C156 1.399 . S
C157 C158 1.381 . S
C158 H150 0.930 . S
C158 C154 1.390 . S
C158 C157 1.381 . S
N159 C152 1.286 . S
N159 C155 1.413 . S
H160 C165 0.930 . S
H161 C168 0.930 . S
H162 C170 0.930 . S
H163 C164 1.016 . S
C164 H163 1.016 . S
C164 N171 1.286 . S
C165 H160 0.930 . S
C165 C166 1.397 . S
C165 C167 1.361 . S
C166 C165 1.397 . S
C166 C170 1.390 . S
C167 C165 1.361 . S
C167 C168 1.393 . S
C167 N171 1.413 . S
C168 H161 0.930 . S
C168 C167 1.393 . S
C168 C169 1.399 . S
C169 C168 1.399 . S
C169 C170 1.381 . S
C170 H162 0.930 . S
C170 C166 1.390 . S
C170 C169 1.381 . S
N171 C164 1.286 . S
N171 C167 1.413 . S
H172 C177 0.930 . S
H173 C180 0.930 . S
H174 C182 0.930 . S
H175 C176 1.016 . S
C176 H175 1.016 . S
C176 N183 1.286 . S
C177 H172 0.930 . S
C177 C178 1.397 . S
C177 C179 1.361 . S
C178 C177 1.397 . S
C178 C182 1.390 . S
C179 C177 1.361 . S
C179 C180 1.393 . S
C179 N183 1.413 . S
C180 H173 0.930 . S
C180 C179 1.393 . S
C180 C181 1.399 . S
C181 C180 1.399 . S
C181 C182 1.381 . S
C182 H174 0.930 . S
C182 C178 1.390 . S
C182 C181 1.381 . S
N183 C176 1.286 . S
N183 C179 1.413 . S
H184 C202 0.951 . S
H185 C204 0.951 . S
H186 C206 0.950 1_545 S
H187 C207 0.950 . S
H188 C209 0.950 . S
H189 C212 0.950 . S
H190 C213 0.950 . S
H191 C215 0.950 . S
H192 C216 0.950 . S
H193 C217 0.951 . S
H194 C219 0.951 . S
H195 C221 0.950 . S
H196 C222 0.950 . S
H197 C224 0.950 . S
H198 C227 0.950 . S
H199 C228 0.950 . S
H200 C230 0.950 . S
H201 C231 0.950 . S
C202 H184 0.951 . S
C202 C203 1.366 . S
C202 C204 1.388 . S
C203 C202 1.366 . S
C203 C207 1.385 . S
C204 H185 0.951 . S
C204 C202 1.388 . S
C204 C205 1.366 . S
C205 C204 1.366 . S
C205 C206 1.414 . S
C205 C208 1.499 1_565 S
C206 H186 0.950 1_565 S
C206 C205 1.414 . S
C206 C207 1.374 . S
C207 H187 0.950 . S
C207 C203 1.385 . S
C207 C206 1.374 . S
C208 C205 1.499 1_545 S
C208 C209 1.373 . S
C208 C210 1.389 . S
C209 H188 0.950 . S
C209 C208 1.373 . S
C209 C225 1.377 . S
C210 C208 1.389 . S
C210 C211 1.524 1_545 S
C210 C224 1.377 . S
C211 C210 1.524 1_565 S
C211 C212 1.397 . S
C211 C216 1.363 . S
C212 H189 0.950 . S
C212 C211 1.397 . S
C212 C213 1.334 . S
C213 H190 0.950 . S
C213 C212 1.334 . S
C213 C214 1.287 . S
C214 C213 1.287 . S
C214 C215 1.524 . S
C214 H233 0.913 . S
C215 H191 0.950 . S
C215 C214 1.524 . S
C215 C216 1.415 . S
C216 H192 0.950 . S
C216 C211 1.363 . S
C216 C215 1.415 . S
C217 H193 0.951 . S
C217 C218 1.366 . S
C217 C219 1.388 . S
C218 C217 1.366 . S
C218 C222 1.385 . S
C219 H194 0.951 . S
C219 C217 1.388 . S
C219 C220 1.366 . S
C220 C219 1.366 . S
C220 C221 1.414 . S
C220 C223 1.499 . S
C221 H195 0.950 . S
C221 C220 1.414 . S
C221 C222 1.374 . S
C222 H196 0.950 . S
C222 C218 1.385 . S
C222 C221 1.374 . S
C223 C220 1.499 . S
C223 C224 1.373 . S
C223 C225 1.389 . S
C224 H197 0.950 . S
C224 C210 1.377 . S
C224 C223 1.373 . S
C225 C209 1.377 . S
C225 C223 1.389 . S
C225 C226 1.524 . S
C226 C225 1.524 . S
C226 C227 1.397 . S
C226 C231 1.363 . S
C227 H198 0.950 . S
C227 C226 1.397 . S
C227 C228 1.334 . S
C228 H199 0.950 . S
C228 C227 1.334 . S
C228 C229 1.287 . S
C229 C228 1.287 . S
C229 C230 1.524 . S
C229 H232 0.999 . S
C230 H200 0.950 . S
C230 C229 1.524 . S
C230 C231 1.415 . S
C231 H201 0.950 . S
C231 C226 1.363 . S
C231 C230 1.415 . S
H232 C229 0.999 . S
H233 C214 0.913 . S
H234 C252 0.951 . S
H235 C254 0.951 . S
H236 C256 0.950 . S
H237 C257 0.950 . S
H238 C259 0.950 . S
H239 C262 0.950 . S
H240 C263 0.950 . S
H241 C265 0.950 . S
H242 C266 0.950 . S
H243 C267 0.951 . S
H244 C269 0.951 . S
H245 C271 0.950 . S
H246 C272 0.950 . S
H247 C274 0.950 . S
H248 C277 0.950 . S
H249 C278 0.950 . S
H250 C280 0.950 . S
H251 C281 0.950 . S
C252 H234 0.951 . S
C252 C253 1.366 . S
C252 C254 1.388 . S
C253 C252 1.366 . S
C253 C257 1.385 . S
C254 H235 0.951 . S
C254 C252 1.388 . S
C254 C255 1.366 . S
C255 C254 1.366 . S
C255 C256 1.414 . S
C255 C258 1.499 . S
C256 H236 0.950 . S
C256 C255 1.414 . S
C256 C257 1.374 . S
C257 H237 0.950 . S
C257 C253 1.385 . S
C257 C256 1.374 . S
C258 C255 1.499 . S
C258 C259 1.373 . S
C258 C260 1.389 . S
C259 H238 0.950 . S
C259 C258 1.373 . S
C259 C275 1.377 . S
C260 C258 1.389 . S
C260 C261 1.524 . S
C260 C274 1.377 . S
C261 C260 1.524 . S
C261 C262 1.397 . S
C261 C266 1.363 . S
C262 H239 0.950 . S
C262 C261 1.397 . S
C262 C263 1.334 . S
C263 H240 0.950 . S
C263 C262 1.334 . S
C263 C264 1.287 . S
C264 C263 1.287 . S
C264 C265 1.524 . S
C264 H283 0.913 . S
C265 H241 0.950 . S
C265 C264 1.524 . S
C265 C266 1.415 . S
C266 H242 0.950 . S
C266 C261 1.363 . S
C266 C265 1.415 . S
C267 H243 0.951 . S
C267 C268 1.366 . S
C267 C269 1.388 . S
C268 C267 1.366 . S
C268 C272 1.385 . S
C269 H244 0.951 . S
C269 C267 1.388 . S
C269 C270 1.366 . S
C270 C269 1.366 . S
C270 C271 1.414 . S
C270 C273 1.499 . S
C271 H245 0.950 . S
C271 C270 1.414 . S
C271 C272 1.374 . S
C272 H246 0.950 . S
C272 C268 1.385 . S
C272 C271 1.374 . S
C273 C270 1.499 . S
C273 C274 1.373 . S
C273 C275 1.389 . S
C274 H247 0.950 . S
C274 C260 1.377 . S
C274 C273 1.373 . S
C275 C259 1.377 . S
C275 C273 1.389 . S
C275 C276 1.524 . S
C276 C275 1.524 . S
C276 C277 1.397 . S
C276 C281 1.363 . S
C277 H248 0.950 . S
C277 C276 1.397 . S
C277 C278 1.334 . S
C278 H249 0.950 . S
C278 C277 1.334 . S
C278 C279 1.287 . S
C279 C278 1.287 . S
C279 C280 1.524 . S
C279 H282 0.999 . S
C280 H250 0.950 . S
C280 C279 1.524 . S
C280 C281 1.415 . S
C281 H251 0.950 . S
C281 C276 1.363 . S
C281 C280 1.415 . S
H282 C279 0.999 . S
H283 C264 0.913 . S
H284 C302 0.951 . S
H285 C304 0.951 . S
H286 C306 0.972 . S
H287 C307 0.950 . S
H288 C309 0.950 . S
H289 C312 0.944 1_565 S
H290 C313 0.950 . S
H291 C315 0.950 . S
H292 C316 0.950 . S
H293 C317 0.951 . S
H294 C319 0.951 . S
H295 C321 0.950 . S
H296 C322 0.950 . S
H297 C324 0.950 . S
H298 C327 0.950 . S
H299 C328 0.950 . S
H300 C330 0.950 . S
H301 C331 0.950 . S
C302 H284 0.951 . S
C302 C303 1.366 . S
C302 C304 1.388 . S
C303 C302 1.366 . S
C303 C307 1.385 . S
C304 H285 0.951 . S
C304 C302 1.388 . S
C304 C305 1.366 . S
C305 C304 1.366 . S
C305 C306 1.414 . S
C305 C308 1.499 1_545 S
C306 H286 0.972 . S
C306 C305 1.414 . S
C306 C307 1.374 . S
C307 H287 0.950 . S
C307 C303 1.385 . S
C307 C306 1.374 . S
C308 C305 1.499 1_565 S
C308 C309 1.373 . S
C308 C310 1.389 . S
C309 H288 0.950 . S
C309 C308 1.373 . S
C309 C325 1.377 . S
C310 C308 1.389 . S
C310 C311 1.518 1_565 S
C310 C324 1.377 . S
C311 C310 1.518 1_545 S
C311 C312 1.396 . S
C311 C316 1.369 . S
C312 H289 0.944 1_545 S
C312 C311 1.396 . S
C312 C313 1.338 . S
C313 H290 0.950 . S
C313 C312 1.338 . S
C313 C314 1.287 . S
C314 C313 1.287 . S
C314 C315 1.524 . S
C314 H333 0.913 . S
C315 H291 0.950 . S
C315 C314 1.524 . S
C315 C316 1.415 . S
C316 H292 0.950 . S
C316 C311 1.369 . S
C316 C315 1.415 . S
C317 H293 0.951 . S
C317 C318 1.366 . S
C317 C319 1.388 . S
C318 C317 1.366 . S
C318 C322 1.385 . S
C319 H294 0.951 . S
C319 C317 1.388 . S
C319 C320 1.366 . S
C320 C319 1.366 . S
C320 C321 1.414 . S
C320 C323 1.499 . S
C321 H295 0.950 . S
C321 C320 1.414 . S
C321 C322 1.374 . S
C322 H296 0.950 . S
C322 C318 1.385 . S
C322 C321 1.374 . S
C323 C320 1.499 . S
C323 C324 1.373 . S
C323 C325 1.389 . S
C324 H297 0.950 . S
C324 C310 1.377 . S
C324 C323 1.373 . S
C325 C309 1.377 . S
C325 C323 1.389 . S
C325 C326 1.524 . S
C326 C325 1.524 . S
C326 C327 1.397 . S
C326 C331 1.363 . S
C327 H298 0.950 . S
C327 C326 1.397 . S
C327 C328 1.334 . S
C328 H299 0.950 . S
C328 C327 1.334 . S
C328 C329 1.287 . S
C329 C328 1.287 . S
C329 C330 1.524 . S
C329 H332 0.999 . S
C330 H300 0.950 . S
C330 C329 1.524 . S
C330 C331 1.415 . S
C331 H301 0.950 . S
C331 C326 1.363 . S
C331 C330 1.415 . S
H332 C329 0.999 . S
H333 C314 0.913 . S
H334 C352 0.951 . S
H335 C354 0.951 . S
H336 C356 0.950 . S
H337 C357 0.950 . S
H338 C359 0.950 . S
H339 C362 0.950 . S
H340 C363 0.950 . S
H341 C365 0.950 . S
H342 C366 0.950 . S
H343 C367 0.951 . S
H344 C369 0.951 . S
H345 C371 0.950 . S
H346 C372 0.950 . S
H347 C374 0.950 . S
H348 C377 0.950 . S
H349 C378 0.950 . S
H350 C380 0.950 . S
H351 C381 0.950 . S
C352 H334 0.951 . S
C352 C353 1.366 . S
C352 C354 1.388 . S
C353 C352 1.366 . S
C353 C357 1.385 . S
C354 H335 0.951 . S
C354 C352 1.388 . S
C354 C355 1.366 . S
C355 C354 1.366 . S
C355 C356 1.414 . S
C355 C358 1.499 . S
C356 H336 0.950 . S
C356 C355 1.414 . S
C356 C357 1.374 . S
C357 H337 0.950 . S
C357 C353 1.385 . S
C357 C356 1.374 . S
C358 C355 1.499 . S
C358 C359 1.373 . S
C358 C360 1.389 . S
C359 H338 0.950 . S
C359 C358 1.373 . S
C359 C375 1.377 . S
C360 C358 1.389 . S
C360 C361 1.524 . S
C360 C374 1.377 . S
C361 C360 1.524 . S
C361 C362 1.397 . S
C361 C366 1.363 . S
C362 H339 0.950 . S
C362 C361 1.397 . S
C362 C363 1.334 . S
C363 H340 0.950 . S
C363 C362 1.334 . S
C363 C364 1.287 . S
C364 C363 1.287 . S
C364 C365 1.524 . S
C364 H383 0.913 . S
C365 H341 0.950 . S
C365 C364 1.524 . S
C365 C366 1.415 . S
C366 H342 0.950 . S
C366 C361 1.363 . S
C366 C365 1.415 . S
C367 H343 0.951 . S
C367 C368 1.366 . S
C367 C369 1.388 . S
C368 C367 1.366 . S
C368 C372 1.385 . S
C369 H344 0.951 . S
C369 C367 1.388 . S
C369 C370 1.366 . S
C370 C369 1.366 . S
C370 C371 1.414 . S
C370 C373 1.499 . S
C371 H345 0.950 . S
C371 C370 1.414 . S
C371 C372 1.374 . S
C372 H346 0.950 . S
C372 C368 1.385 . S
C372 C371 1.374 . S
C373 C370 1.499 . S
C373 C374 1.373 . S
C373 C375 1.389 . S
C374 H347 0.950 . S
C374 C360 1.377 . S
C374 C373 1.373 . S
C375 C359 1.377 . S
C375 C373 1.389 . S
C375 C376 1.524 . S
C376 C375 1.524 . S
C376 C377 1.397 . S
C376 C381 1.363 . S
C377 H348 0.950 . S
C377 C376 1.397 . S
C377 C378 1.334 . S
C378 H349 0.950 . S
C378 C377 1.334 . S
C378 C379 1.287 . S
C379 C378 1.287 . S
C379 C380 1.524 . S
C379 H382 0.999 . S
C380 H350 0.950 . S
C380 C379 1.524 . S
C380 C381 1.415 . S
C381 H351 0.950 . S
C381 C376 1.363 . S
C381 C380 1.415 . S
H382 C379 0.999 . S
H383 C364 0.913 . S
H384 C402 0.951 . S
H385 C404 0.951 . S
H386 C406 0.950 . S
H387 C407 0.950 . S
H388 C409 0.950 . S
H389 C412 0.950 . S
H390 C413 0.950 . S
H391 C415 0.950 . S
H392 C416 0.950 . S
H393 C417 0.951 . S
H394 C419 0.951 . S
H395 C421 0.950 . S
H396 C422 0.950 . S
H397 C424 0.950 . S
H398 C427 0.950 . S
H399 C428 0.950 . S
H400 C430 0.950 . S
H401 C431 0.950 . S
C402 H384 0.951 . S
C402 C403 1.366 . S
C402 C404 1.388 . S
C403 C402 1.366 . S
C403 C407 1.385 . S
C404 H385 0.951 . S
C404 C402 1.388 . S
C404 C405 1.366 . S
C405 C404 1.366 . S
C405 C406 1.414 . S
C405 C408 1.499 . S
C406 H386 0.950 . S
C406 C405 1.414 . S
C406 C407 1.374 . S
C407 H387 0.950 . S
C407 C403 1.385 . S
C407 C406 1.374 . S
C408 C405 1.499 . S
C408 C409 1.373 . S
C408 C410 1.389 . S
C409 H388 0.950 . S
C409 C408 1.373 . S
C409 C425 1.377 . S
C410 C408 1.389 . S
C410 C411 1.524 . S
C410 C424 1.377 . S
C411 C410 1.524 . S
C411 C412 1.397 . S
C411 C416 1.363 . S
C412 H389 0.950 . S
C412 C411 1.397 . S
C412 C413 1.334 . S
C413 H390 0.950 . S
C413 C412 1.334 . S
C413 C414 1.287 . S
C414 C413 1.287 . S
C414 C415 1.524 . S
C414 H433 0.913 . S
C415 H391 0.950 . S
C415 C414 1.524 . S
C415 C416 1.415 . S
C416 H392 0.950 . S
C416 C411 1.363 . S
C416 C415 1.415 . S
C417 H393 0.951 . S
C417 C418 1.366 . S
C417 C419 1.388 . S
C418 C417 1.366 . S
C418 C422 1.385 . S
C419 H394 0.951 . S
C419 C417 1.388 . S
C419 C420 1.366 . S
C420 C419 1.366 . S
C420 C421 1.414 . S
C420 C423 1.499 . S
C421 H395 0.950 . S
C421 C420 1.414 . S
C421 C422 1.374 . S
C422 H396 0.950 . S
C422 C418 1.385 . S
C422 C421 1.374 . S
C423 C420 1.499 . S
C423 C424 1.373 . S
C423 C425 1.389 . S
C424 H397 0.950 . S
C424 C410 1.377 . S
C424 C423 1.373 . S
C425 C409 1.377 . S
C425 C423 1.389 . S
C425 C426 1.524 . S
C426 C425 1.524 . S
C426 C427 1.397 . S
C426 C431 1.363 . S
C427 H398 0.950 . S
C427 C426 1.397 . S
C427 C428 1.334 . S
C428 H399 0.950 . S
C428 C427 1.334 . S
C428 C429 1.287 . S
C429 C428 1.287 . S
C429 C430 1.524 . S
C429 H432 0.999 . S
C430 H400 0.950 . S
C430 C429 1.524 . S
C430 C431 1.415 . S
C431 H401 0.950 . S
C431 C426 1.363 . S
C431 C430 1.415 . S
H432 C429 0.999 . S
H433 C414 0.913 . S
H434 C452 0.951 . S
H435 C454 0.951 . S
H436 C456 0.950 . S
H437 C457 0.950 . S
H438 C459 0.950 . S
H439 C462 0.950 . S
H440 C463 0.950 . S
H441 C465 0.950 . S
H442 C466 0.950 . S
H443 C467 0.951 . S
H444 C469 0.951 . S
H445 C471 0.950 1_655 S
H446 C472 0.950 . S
H447 C474 0.950 . S
H448 C477 0.950 . S
H449 C478 0.945 1_655 S
H450 C480 0.950 . S
H451 C481 0.950 . S
C452 H434 0.951 . S
C452 C453 1.366 . S
C452 C454 1.388 . S
C453 C452 1.366 . S
C453 C457 1.385 . S
C454 H435 0.951 . S
C454 C452 1.388 . S
C454 C455 1.366 . S
C455 C454 1.366 . S
C455 C456 1.414 . S
C455 C458 1.499 . S
C456 H436 0.950 . S
C456 C455 1.414 . S
C456 C457 1.374 . S
C457 H437 0.950 . S
C457 C453 1.385 . S
C457 C456 1.374 . S
C458 C455 1.499 . S
C458 C459 1.373 . S
C458 C460 1.389 . S
C459 H438 0.950 . S
C459 C458 1.373 . S
C459 C475 1.377 . S
C460 C458 1.389 . S
C460 C461 1.524 . S
C460 C474 1.377 . S
C461 C460 1.524 . S
C461 C462 1.397 . S
C461 C466 1.363 . S
C462 H439 0.950 . S
C462 C461 1.397 . S
C462 C463 1.334 . S
C463 H440 0.950 . S
C463 C462 1.334 . S
C463 C464 1.287 . S
C464 C463 1.287 . S
C464 C465 1.524 . S
C464 H483 0.913 . S
C465 H441 0.950 . S
C465 C464 1.524 . S
C465 C466 1.415 . S
C466 H442 0.950 . S
C466 C461 1.363 . S
C466 C465 1.415 . S
C467 H443 0.951 . S
C467 C468 1.366 . S
C467 C469 1.388 . S
C468 C467 1.366 . S
C468 C472 1.385 . S
C469 H444 0.951 . S
C469 C467 1.388 . S
C469 C470 1.366 . S
C470 C469 1.366 . S
C470 C471 1.414 . S
C470 C473 1.481 1_455 S
C471 H445 0.950 1_455 S
C471 C470 1.414 . S
C471 C472 1.374 . S
C472 H446 0.950 . S
C472 C468 1.385 . S
C472 C471 1.374 . S
C473 C470 1.481 1_655 S
C473 C474 1.384 . S
C473 C475 1.396 . S
C474 H447 0.950 . S
C474 C460 1.377 . S
C474 C473 1.384 . S
C475 C459 1.377 . S
C475 C473 1.396 . S
C475 C476 1.524 1_655 S
C476 C475 1.524 1_455 S
C476 C477 1.397 1_455 S
C476 C481 1.363 . S
C477 H448 0.950 . S
C477 C476 1.397 1_655 S
C477 C478 1.326 1_655 S
C478 H449 0.945 1_455 S
C478 C477 1.326 1_455 S
C478 C479 1.303 . S
C479 C478 1.303 . S
C479 C480 1.524 . S
C479 H482 0.999 . S
C480 H450 0.950 . S
C480 C479 1.524 . S
C480 C481 1.415 . S
C481 H451 0.950 . S
C481 C476 1.363 . S
C481 C480 1.415 . S
H482 C479 0.999 . S
H483 C464 0.913 . S
H484 C502 0.951 . S
H485 C504 0.951 . S
H486 C506 0.950 . S
H487 C507 0.950 . S
H488 C509 0.950 . S
H489 C512 0.950 . S
H490 C513 0.950 . S
H491 C515 0.950 . S
H492 C516 0.950 . S
H493 C517 0.951 . S
H494 C519 0.951 . S
H495 C521 0.950 . S
H496 C522 0.950 . S
H497 C524 0.950 . S
H498 C527 0.950 . S
H499 C528 0.950 . S
H500 C530 0.950 . S
H501 C531 0.950 . S
C502 H484 0.951 . S
C502 C503 1.366 . S
C502 C504 1.388 . S
C503 C502 1.366 . S
C503 C507 1.385 . S
C504 H485 0.951 . S
C504 C502 1.388 . S
C504 C505 1.366 . S
C505 C504 1.366 . S
C505 C506 1.414 . S
C505 C508 1.499 . S
C506 H486 0.950 . S
C506 C505 1.414 . S
C506 C507 1.374 . S
C507 H487 0.950 . S
C507 C503 1.385 . S
C507 C506 1.374 . S
C508 C505 1.499 . S
C508 C509 1.373 . S
C508 C510 1.389 . S
C509 H488 0.950 . S
C509 C508 1.373 . S
C509 C525 1.377 . S
C510 C508 1.389 . S
C510 C511 1.524 . S
C510 C524 1.377 . S
C511 C510 1.524 . S
C511 C512 1.397 . S
C511 C516 1.363 . S
C512 H489 0.950 . S
C512 C511 1.397 . S
C512 C513 1.334 . S
C513 H490 0.950 . S
C513 C512 1.334 . S
C513 C514 1.287 . S
C514 C513 1.287 . S
C514 C515 1.524 . S
C514 H533 0.913 . S
C515 H491 0.950 . S
C515 C514 1.524 . S
C515 C516 1.415 . S
C516 H492 0.950 . S
C516 C511 1.363 . S
C516 C515 1.415 . S
C517 H493 0.951 . S
C517 C518 1.366 . S
C517 C519 1.388 . S
C518 C517 1.366 . S
C518 C522 1.385 . S
C519 H494 0.951 . S
C519 C517 1.388 . S
C519 C520 1.366 . S
C520 C519 1.366 . S
C520 C521 1.414 . S
C520 C523 1.499 . S
C521 H495 0.950 . S
C521 C520 1.414 . S
C521 C522 1.374 . S
C522 H496 0.950 . S
C522 C518 1.385 . S
C522 C521 1.374 . S
C523 C520 1.499 . S
C523 C524 1.373 . S
C523 C525 1.389 . S
C524 H497 0.950 . S
C524 C510 1.377 . S
C524 C523 1.373 . S
C525 C509 1.377 . S
C525 C523 1.389 . S
C525 C526 1.524 . S
C526 C525 1.524 . S
C526 C527 1.397 . S
C526 C531 1.363 . S
C527 H498 0.950 . S
C527 C526 1.397 . S
C527 C528 1.334 . S
C528 H499 0.950 . S
C528 C527 1.334 . S
C528 C529 1.287 . S
C529 C528 1.287 . S
C529 C530 1.524 . S
C529 H532 0.999 . S
C530 H500 0.950 . S
C530 C529 1.524 . S
C530 C531 1.415 . S
C531 H501 0.950 . S
C531 C526 1.363 . S
C531 C530 1.415 . S
H532 C529 0.999 . S
H533 C514 0.913 . S
H534 C552 0.951 . S
H535 C554 0.951 . S
H536 C556 0.968 . S
H537 C557 0.926 1_554 S
H538 C559 0.950 . S
H539 C562 0.950 . S
H540 C563 0.950 1_455 S
H541 C565 0.950 . S
H542 C566 0.950 . S
H543 C567 0.951 . S
H544 C569 0.951 . S
H545 C571 0.950 . S
H546 C572 0.950 . S
H547 C574 0.950 . S
H548 C577 0.950 . S
H549 C578 0.950 . S
H550 C580 0.950 1_554 S
H551 C581 0.950 . S
C552 H534 0.951 . S
C552 C553 1.366 . S
C552 C554 1.388 . S
C553 C552 1.366 . S
C553 C557 1.385 . S
C554 H535 0.951 . S
C554 C552 1.388 . S
C554 C555 1.366 . S
C555 C554 1.366 . S
C555 C556 1.414 . S
C555 C558 1.499 1_455 S
C556 H536 0.968 . S
C556 C555 1.414 . S
C556 C557 1.374 . S
C557 H537 0.926 1_556 S
C557 C553 1.385 . S
C557 C556 1.374 . S
C558 C555 1.499 1_655 S
C558 C559 1.373 . S
C558 C560 1.389 . S
C559 H538 0.950 . S
C559 C558 1.373 . S
C559 C575 1.377 . S
C560 C558 1.389 . S
C560 C561 1.524 . S
C560 C574 1.377 . S
C561 C560 1.524 . S
C561 C562 1.397 . S
C561 C566 1.363 . S
C562 H539 0.950 . S
C562 C561 1.397 . S
C562 C563 1.334 . S
C563 H540 0.950 1_655 S
C563 C562 1.334 . S
C563 C564 1.286 1_655 S
C564 C563 1.286 1_455 S
C564 C565 1.522 1_455 S
C564 H583 0.917 . S
C565 H541 0.950 . S
C565 C564 1.522 1_655 S
C565 C566 1.415 . S
C566 H542 0.950 . S
C566 C561 1.363 . S
C566 C565 1.415 . S
C567 H543 0.951 . S
C567 C568 1.366 . S
C567 C569 1.388 . S
C568 C567 1.366 . S
C568 C572 1.385 . S
C569 H544 0.951 . S
C569 C567 1.388 . S
C569 C570 1.366 . S
C570 C569 1.366 . S
C570 C571 1.414 . S
C570 C573 1.499 . S
C571 H545 0.950 . S
C571 C570 1.414 . S
C571 C572 1.374 . S
C572 H546 0.950 . S
C572 C568 1.385 . S
C572 C571 1.374 . S
C573 C570 1.499 . S
C573 C574 1.373 . S
C573 C575 1.389 . S
C574 H547 0.950 . S
C574 C560 1.377 . S
C574 C573 1.373 . S
C575 C559 1.377 . S
C575 C573 1.389 . S
C575 C576 1.524 . S
C576 C575 1.524 . S
C576 C577 1.397 . S
C576 C581 1.363 . S
C577 H548 0.950 . S
C577 C576 1.397 . S
C577 C578 1.334 . S
C578 H549 0.950 . S
C578 C577 1.334 . S
C578 C579 1.287 . S
C579 C578 1.287 . S
C579 C580 1.524 . S
C579 H582 0.999 . S
C580 H550 0.950 1_556 S
C580 C579 1.524 . S
C580 C581 1.415 . S
C581 H551 0.950 . S
C581 C576 1.363 . S
C581 C580 1.415 . S
H582 C579 0.999 . S
H583 C564 0.917 . S
H584 C602 0.951 1_554 S
H585 C604 0.951 . S
H586 C606 0.950 . S
H587 C607 0.950 . S
H588 C609 0.950 1_545 S
H589 C612 0.950 . S
H590 C613 0.950 . S
H591 C615 0.950 . S
H592 C616 0.950 . S
H593 C617 0.951 . S
H594 C619 0.951 . S
H595 C621 0.950 . S
H596 C622 0.950 . S
H597 C624 0.950 . S
H598 C627 0.950 . S
H599 C628 0.950 . S
H600 C630 0.950 . S
H601 C631 0.950 . S
C602 H584 0.951 1_556 S
C602 C603 1.366 . S
C602 C604 1.388 . S
C603 C602 1.366 . S
C603 C607 1.385 . S
C604 H585 0.951 . S
C604 C602 1.388 . S
C604 C605 1.366 . S
C605 C604 1.366 . S
C605 C606 1.414 . S
C605 C608 1.499 1_545 S
C606 H586 0.950 . S
C606 C605 1.414 . S
C606 C607 1.374 . S
C607 H587 0.950 . S
C607 C603 1.385 . S
C607 C606 1.374 . S
C608 C605 1.499 1_565 S
C608 C609 1.373 . S
C608 C610 1.389 . S
C609 H588 0.950 1_565 S
C609 C608 1.373 . S
C609 C625 1.377 . S
C610 C608 1.389 . S
C610 C611 1.524 1_556 S
C610 C624 1.377 . S
C611 C610 1.524 1_554 S
C611 C612 1.397 . S
C611 C616 1.363 . S
C612 H589 0.950 . S
C612 C611 1.397 . S
C612 C613 1.334 . S
C613 H590 0.950 . S
C613 C612 1.334 . S
C613 C614 1.287 . S
C614 C613 1.287 . S
C614 C615 1.524 . S
C614 H633 0.913 . S
C615 H591 0.950 . S
C615 C614 1.524 . S
C615 C616 1.415 . S
C616 H592 0.950 . S
C616 C611 1.363 . S
C616 C615 1.415 . S
C617 H593 0.951 . S
C617 C618 1.366 . S
C617 C619 1.388 . S
C618 C617 1.366 . S
C618 C622 1.385 . S
C619 H594 0.951 . S
C619 C617 1.388 . S
C619 C620 1.366 . S
C620 C619 1.366 . S
C620 C621 1.414 . S
C620 C623 1.499 . S
C621 H595 0.950 . S
C621 C620 1.414 . S
C621 C622 1.374 . S
C622 H596 0.950 . S
C622 C618 1.385 . S
C622 C621 1.374 . S
C623 C620 1.499 . S
C623 C624 1.373 . S
C623 C625 1.389 . S
C624 H597 0.950 . S
C624 C610 1.377 . S
C624 C623 1.373 . S
C625 C609 1.377 . S
C625 C623 1.389 . S
C625 C626 1.524 . S
C626 C625 1.524 . S
C626 C627 1.397 . S
C626 C631 1.363 . S
C627 H598 0.950 . S
C627 C626 1.397 . S
C627 C628 1.334 . S
C628 H599 0.950 . S
C628 C627 1.334 . S
C628 C629 1.287 . S
C629 C628 1.287 . S
C629 C630 1.524 . S
C629 H632 0.999 . S
C630 H600 0.950 . S
C630 C629 1.524 . S
C630 C631 1.415 . S
C631 H601 0.950 . S
C631 C626 1.363 . S
C631 C630 1.415 . S
H632 C629 0.999 . S
H633 C614 0.913 . S
H634 C652 0.951 . S
H635 C654 0.951 . S
H636 C656 0.950 . S
H637 C657 0.950 . S
H638 C659 0.950 . S
H639 C662 0.950 . S
H640 C663 0.950 . S
H641 C665 0.950 . S
H642 C666 0.950 . S
H643 C667 0.951 . S
H644 C669 0.951 . S
H645 C671 0.950 . S
H646 C672 0.950 . S
H647 C674 0.950 . S
H648 C677 0.950 . S
H649 C678 0.950 . S
H650 C680 0.950 . S
H651 C681 0.950 . S
C652 H634 0.951 . S
C652 C653 1.366 . S
C652 C654 1.388 . S
C653 C652 1.366 . S
C653 C657 1.385 . S
C654 H635 0.951 . S
C654 C652 1.388 . S
C654 C655 1.366 . S
C655 C654 1.366 . S
C655 C656 1.414 . S
C655 C658 1.499 . S
C656 H636 0.950 . S
C656 C655 1.414 . S
C656 C657 1.374 . S
C657 H637 0.950 . S
C657 C653 1.385 . S
C657 C656 1.374 . S
C658 C655 1.499 . S
C658 C659 1.373 . S
C658 C660 1.389 . S
C659 H638 0.950 . S
C659 C658 1.373 . S
C659 C675 1.377 . S
C660 C658 1.389 . S
C660 C661 1.524 . S
C660 C674 1.377 . S
C661 C660 1.524 . S
C661 C662 1.397 . S
C661 C666 1.363 . S
C662 H639 0.950 . S
C662 C661 1.397 . S
C662 C663 1.334 . S
C663 H640 0.950 . S
C663 C662 1.334 . S
C663 C664 1.287 . S
C664 C663 1.287 . S
C664 C665 1.524 . S
C664 H683 0.913 . S
C665 H641 0.950 . S
C665 C664 1.524 . S
C665 C666 1.415 . S
C666 H642 0.950 . S
C666 C661 1.363 . S
C666 C665 1.415 . S
C667 H643 0.951 . S
C667 C668 1.366 . S
C667 C669 1.388 . S
C668 C667 1.366 . S
C668 C672 1.385 . S
C669 H644 0.951 . S
C669 C667 1.388 . S
C669 C670 1.366 . S
C670 C669 1.366 . S
C670 C671 1.414 . S
C670 C673 1.499 . S
C671 H645 0.950 . S
C671 C670 1.414 . S
C671 C672 1.374 . S
C672 H646 0.950 . S
C672 C668 1.385 . S
C672 C671 1.374 . S
C673 C670 1.499 . S
C673 C674 1.373 . S
C673 C675 1.389 . S
C674 H647 0.950 . S
C674 C660 1.377 . S
C674 C673 1.373 . S
C675 C659 1.377 . S
C675 C673 1.389 . S
C675 C676 1.524 . S
C676 C675 1.524 . S
C676 C677 1.397 . S
C676 C681 1.363 . S
C677 H648 0.950 . S
C677 C676 1.397 . S
C677 C678 1.334 . S
C678 H649 0.950 . S
C678 C677 1.334 . S
C678 C679 1.287 . S
C679 C678 1.287 . S
C679 C680 1.524 . S
C679 H682 0.999 . S
C680 H650 0.950 . S
C680 C679 1.524 . S
C680 C681 1.415 . S
C681 H651 0.950 . S
C681 C676 1.363 . S
C681 C680 1.415 . S
H682 C679 0.999 . S
H683 C664 0.913 . S
H684 C702 0.951 . S
H685 C704 0.951 . S
H686 C706 0.950 1_545 S
H687 C707 0.950 . S
H688 C709 0.950 . S
H689 C712 0.950 . S
H690 C713 0.950 . S
H691 C715 0.950 . S
H692 C716 0.950 . S
H693 C717 0.951 . S
H694 C719 0.951 . S
H695 C721 0.950 . S
H696 C722 0.950 . S
H697 C724 0.950 . S
H698 C727 0.950 . S
H699 C728 0.950 . S
H700 C730 0.950 . S
H701 C731 0.950 . S
C702 H684 0.951 . S
C702 C703 1.366 . S
C702 C704 1.388 . S
C703 C702 1.366 . S
C703 C707 1.385 . S
C704 H685 0.951 . S
C704 C702 1.388 . S
C704 C705 1.366 . S
C705 C704 1.366 . S
C705 C706 1.414 . S
C705 C708 1.499 1_565 S
C706 H686 0.950 1_565 S
C706 C705 1.414 . S
C706 C707 1.374 . S
C707 H687 0.950 . S
C707 C703 1.385 . S
C707 C706 1.374 . S
C708 C705 1.499 1_545 S
C708 C709 1.373 . S
C708 C710 1.389 . S
C709 H688 0.950 . S
C709 C708 1.373 . S
C709 C725 1.377 . S
C710 C708 1.389 . S
C710 C711 1.524 1_545 S
C710 C724 1.377 . S
C711 C710 1.524 1_565 S
C711 C712 1.397 . S
C711 C716 1.363 . S
C712 H689 0.950 . S
C712 C711 1.397 . S
C712 C713 1.334 . S
C713 H690 0.950 . S
C713 C712 1.334 . S
C713 C714 1.287 . S
C714 C713 1.287 . S
C714 C715 1.524 . S
C714 H733 0.913 . S
C715 H691 0.950 . S
C715 C714 1.524 . S
C715 C716 1.415 . S
C716 H692 0.950 . S
C716 C711 1.363 . S
C716 C715 1.415 . S
C717 H693 0.951 . S
C717 C718 1.366 . S
C717 C719 1.388 . S
C718 C717 1.366 . S
C718 C722 1.385 . S
C719 H694 0.951 . S
C719 C717 1.388 . S
C719 C720 1.366 . S
C720 C719 1.366 . S
C720 C721 1.414 . S
C720 C723 1.499 . S
C721 H695 0.950 . S
C721 C720 1.414 . S
C721 C722 1.374 . S
C722 H696 0.950 . S
C722 C718 1.385 . S
C722 C721 1.374 . S
C723 C720 1.499 . S
C723 C724 1.373 . S
C723 C725 1.389 . S
C724 H697 0.950 . S
C724 C710 1.377 . S
C724 C723 1.373 . S
C725 C709 1.377 . S
C725 C723 1.389 . S
C725 C726 1.524 . S
C726 C725 1.524 . S
C726 C727 1.397 . S
C726 C731 1.363 . S
C727 H698 0.950 . S
C727 C726 1.397 . S
C727 C728 1.334 . S
C728 H699 0.950 . S
C728 C727 1.334 . S
C728 C729 1.287 . S
C729 C728 1.287 . S
C729 C730 1.524 . S
C729 H732 0.999 . S
C730 H700 0.950 . S
C730 C729 1.524 . S
C730 C731 1.415 . S
C731 H701 0.950 . S
C731 C726 1.363 . S
C731 C730 1.415 . S
H732 C729 0.999 . S
H733 C714 0.913 . S
H734 C752 0.951 . S
H735 C754 0.951 . S
H736 C756 0.950 . S
H737 C757 0.950 . S
H738 C759 0.950 . S
H739 C762 0.950 . S
H740 C763 0.950 . S
H741 C765 0.950 . S
H742 C766 0.950 . S
H743 C767 0.951 . S
H744 C769 0.951 . S
H745 C771 0.950 . S
H746 C772 0.950 . S
H747 C774 0.950 . S
H748 C777 0.950 . S
H749 C778 0.950 . S
H750 C780 0.950 . S
H751 C781 0.950 . S
C752 H734 0.951 . S
C752 C753 1.366 . S
C752 C754 1.388 . S
C753 C752 1.366 . S
C753 C757 1.385 . S
C754 H735 0.951 . S
C754 C752 1.388 . S
C754 C755 1.366 . S
C755 C754 1.366 . S
C755 C756 1.414 . S
C755 C758 1.499 . S
C756 H736 0.950 . S
C756 C755 1.414 . S
C756 C757 1.374 . S
C757 H737 0.950 . S
C757 C753 1.385 . S
C757 C756 1.374 . S
C758 C755 1.499 . S
C758 C759 1.373 . S
C758 C760 1.389 . S
C759 H738 0.950 . S
C759 C758 1.373 . S
C759 C775 1.377 . S
C760 C758 1.389 . S
C760 C761 1.524 . S
C760 C774 1.377 . S
C761 C760 1.524 . S
C761 C762 1.397 . S
C761 C766 1.363 . S
C762 H739 0.950 . S
C762 C761 1.397 . S
C762 C763 1.334 . S
C763 H740 0.950 . S
C763 C762 1.334 . S
C763 C764 1.287 . S
C764 C763 1.287 . S
C764 C765 1.524 . S
C764 H783 0.913 . S
C765 H741 0.950 . S
C765 C764 1.524 . S
C765 C766 1.415 . S
C766 H742 0.950 . S
C766 C761 1.363 . S
C766 C765 1.415 . S
C767 H743 0.951 . S
C767 C768 1.366 . S
C767 C769 1.388 . S
C768 C767 1.366 . S
C768 C772 1.385 . S
C769 H744 0.951 . S
C769 C767 1.388 . S
C769 C770 1.366 . S
C770 C769 1.366 . S
C770 C771 1.414 . S
C770 C773 1.499 . S
C771 H745 0.950 . S
C771 C770 1.414 . S
C771 C772 1.374 . S
C772 H746 0.950 . S
C772 C768 1.385 . S
C772 C771 1.374 . S
C773 C770 1.499 . S
C773 C774 1.373 . S
C773 C775 1.389 . S
C774 H747 0.950 . S
C774 C760 1.377 . S
C774 C773 1.373 . S
C775 C759 1.377 . S
C775 C773 1.389 . S
C775 C776 1.524 . S
C776 C775 1.524 . S
C776 C777 1.397 . S
C776 C781 1.363 . S
C777 H748 0.950 . S
C777 C776 1.397 . S
C777 C778 1.334 . S
C778 H749 0.950 . S
C778 C777 1.334 . S
C778 C779 1.287 . S
C779 C778 1.287 . S
C779 C780 1.524 . S
C779 H782 0.999 . S
C780 H750 0.950 . S
C780 C779 1.524 . S
C780 C781 1.415 . S
C781 H751 0.950 . S
C781 C776 1.363 . S
C781 C780 1.415 . S
H782 C779 0.999 . S
H783 C764 0.913 . S
H784 C802 0.951 . S
H785 C804 0.951 . S
H786 C806 0.950 . S
H787 C807 0.950 . S
H788 C809 0.950 . S
H789 C812 0.950 . S
H790 C813 0.950 . S
H791 C815 0.950 . S
H792 C816 0.950 . S
H793 C817 0.951 . S
H794 C819 0.951 . S
H795 C821 0.950 . S
H796 C822 0.950 . S
H797 C824 0.950 . S
H798 C827 0.950 . S
H799 C828 0.950 . S
H800 C830 0.950 . S
H801 C831 0.950 . S
C802 H784 0.951 . S
C802 C803 1.366 . S
C802 C804 1.388 . S
C803 C802 1.366 . S
C803 C807 1.385 . S
C804 H785 0.951 . S
C804 C802 1.388 . S
C804 C805 1.366 . S
C805 C804 1.366 . S
C805 C806 1.414 . S
C805 C808 1.499 . S
C806 H786 0.950 . S
C806 C805 1.414 . S
C806 C807 1.374 . S
C807 H787 0.950 . S
C807 C803 1.385 . S
C807 C806 1.374 . S
C808 C805 1.499 . S
C808 C809 1.373 . S
C808 C810 1.389 . S
C809 H788 0.950 . S
C809 C808 1.373 . S
C809 C825 1.377 . S
C810 C808 1.389 . S
C810 C811 1.524 . S
C810 C824 1.377 . S
C811 C810 1.524 . S
C811 C812 1.397 . S
C811 C816 1.363 . S
C812 H789 0.950 . S
C812 C811 1.397 . S
C812 C813 1.334 . S
C813 H790 0.950 . S
C813 C812 1.334 . S
C813 C814 1.287 . S
C814 C813 1.287 . S
C814 C815 1.524 . S
C814 H833 0.913 . S
C815 H791 0.950 . S
C815 C814 1.524 . S
C815 C816 1.415 . S
C816 H792 0.950 . S
C816 C811 1.363 . S
C816 C815 1.415 . S
C817 H793 0.951 . S
C817 C818 1.366 . S
C817 C819 1.388 . S
C818 C817 1.366 . S
C818 C822 1.385 . S
C819 H794 0.951 . S
C819 C817 1.388 . S
C819 C820 1.366 . S
C820 C819 1.366 . S
C820 C821 1.414 . S
C820 C823 1.499 . S
C821 H795 0.950 . S
C821 C820 1.414 . S
C821 C822 1.374 . S
C822 H796 0.950 . S
C822 C818 1.385 . S
C822 C821 1.374 . S
C823 C820 1.499 . S
C823 C824 1.373 . S
C823 C825 1.389 . S
C824 H797 0.950 . S
C824 C810 1.377 . S
C824 C823 1.373 . S
C825 C809 1.377 . S
C825 C823 1.389 . S
C825 C826 1.524 . S
C826 C825 1.524 . S
C826 C827 1.397 . S
C826 C831 1.363 . S
C827 H798 0.950 . S
C827 C826 1.397 . S
C827 C828 1.334 . S
C828 H799 0.950 . S
C828 C827 1.334 . S
C828 C829 1.287 . S
C829 C828 1.287 . S
C829 C830 1.524 . S
C829 H832 0.999 . S
C830 H800 0.950 . S
C830 C829 1.524 . S
C830 C831 1.415 . S
C831 H801 0.950 . S
C831 C826 1.363 . S
C831 C830 1.415 . S
H832 C829 0.999 . S
H833 C814 0.913 . S
H834 C852 0.951 . S
H835 C854 0.951 . S
H836 C856 0.950 . S
H837 C857 0.950 . S
H838 C859 0.950 . S
H839 C862 0.950 . S
H840 C863 0.950 . S
H841 C865 0.950 . S
H842 C866 0.950 . S
H843 C867 0.951 . S
H844 C869 0.951 . S
H845 C871 0.950 . S
H846 C872 0.950 . S
H847 C874 0.950 . S
H848 C877 0.950 . S
H849 C878 0.950 . S
H850 C880 0.950 . S
H851 C881 0.950 . S
C852 H834 0.951 . S
C852 C853 1.366 . S
C852 C854 1.388 . S
C853 C852 1.366 . S
C853 C857 1.385 . S
C854 H835 0.951 . S
C854 C852 1.388 . S
C854 C855 1.366 . S
C855 C854 1.366 . S
C855 C856 1.414 . S
C855 C858 1.499 . S
C856 H836 0.950 . S
C856 C855 1.414 . S
C856 C857 1.374 . S
C857 H837 0.950 . S
C857 C853 1.385 . S
C857 C856 1.374 . S
C858 C855 1.499 . S
C858 C859 1.373 . S
C858 C860 1.389 . S
C859 H838 0.950 . S
C859 C858 1.373 . S
C859 C875 1.377 1_455 S
C860 C858 1.389 . S
C860 C861 1.524 . S
C860 C874 1.377 . S
C861 C860 1.524 . S
C861 C862 1.397 . S
C861 C866 1.363 . S
C862 H839 0.950 . S
C862 C861 1.397 . S
C862 C863 1.334 . S
C863 H840 0.950 . S
C863 C862 1.334 . S
C863 C864 1.287 . S
C864 C863 1.287 . S
C864 C865 1.524 . S
C864 H883 0.913 . S
C865 H841 0.950 . S
C865 C864 1.524 . S
C865 C866 1.415 . S
C866 H842 0.950 . S
C866 C861 1.363 . S
C866 C865 1.415 . S
C867 H843 0.951 . S
C867 C868 1.366 . S
C867 C869 1.388 . S
C868 C867 1.366 . S
C868 C872 1.385 . S
C869 H844 0.951 . S
C869 C867 1.388 . S
C869 C870 1.366 . S
C870 C869 1.366 . S
C870 C871 1.414 . S
C870 C873 1.499 . S
C871 H845 0.950 . S
C871 C870 1.414 . S
C871 C872 1.374 . S
C872 H846 0.950 . S
C872 C868 1.385 . S
C872 C871 1.374 . S
C873 C870 1.499 . S
C873 C874 1.373 1_655 S
C873 C875 1.389 . S
C874 H847 0.950 . S
C874 C860 1.377 . S
C874 C873 1.373 1_455 S
C875 C859 1.377 1_655 S
C875 C873 1.389 . S
C875 C876 1.524 . S
C876 C875 1.524 . S
C876 C877 1.397 . S
C876 C881 1.363 . S
C877 H848 0.950 . S
C877 C876 1.397 . S
C877 C878 1.334 . S
C878 H849 0.950 . S
C878 C877 1.334 . S
C878 C879 1.287 . S
C879 C878 1.287 . S
C879 C880 1.524 . S
C879 H882 0.999 . S
C880 H850 0.950 . S
C880 C879 1.524 . S
C880 C881 1.415 . S
C881 H851 0.950 . S
C881 C876 1.363 . S
C881 C880 1.415 . S
H882 C879 0.999 . S
H883 C864 0.913 . S
H884 C902 0.951 . S
H885 C904 0.951 . S
H886 C906 0.950 . S
H887 C907 0.950 . S
H888 C909 0.950 . S
H889 C912 0.950 . S
H890 C913 0.950 . S
H891 C915 0.950 . S
H892 C916 0.950 . S
H893 C917 0.951 . S
H894 C919 0.951 . S
H895 C921 0.950 . S
H896 C922 0.950 . S
H897 C924 0.950 . S
H898 C927 0.950 . S
H899 C928 0.950 . S
H900 C930 0.950 . S
H901 C931 0.950 . S
C902 H884 0.951 . S
C902 C903 1.366 . S
C902 C904 1.388 . S
C903 C902 1.366 . S
C903 C907 1.385 . S
C904 H885 0.951 . S
C904 C902 1.388 . S
C904 C905 1.366 . S
C905 C904 1.366 . S
C905 C906 1.414 . S
C905 C908 1.499 . S
C906 H886 0.950 . S
C906 C905 1.414 . S
C906 C907 1.374 . S
C907 H887 0.950 . S
C907 C903 1.385 . S
C907 C906 1.374 . S
C908 C905 1.499 . S
C908 C909 1.373 . S
C908 C910 1.389 . S
C909 H888 0.950 . S
C909 C908 1.373 . S
C909 C925 1.377 . S
C910 C908 1.389 . S
C910 C911 1.524 . S
C910 C924 1.377 . S
C911 C910 1.524 . S
C911 C912 1.397 . S
C911 C916 1.363 . S
C912 H889 0.950 . S
C912 C911 1.397 . S
C912 C913 1.334 . S
C913 H890 0.950 . S
C913 C912 1.334 . S
C913 C914 1.287 . S
C914 C913 1.287 . S
C914 C915 1.524 . S
C914 H933 0.913 . S
C915 H891 0.950 . S
C915 C914 1.524 . S
C915 C916 1.415 . S
C916 H892 0.950 . S
C916 C911 1.363 . S
C916 C915 1.415 . S
C917 H893 0.951 . S
C917 C918 1.366 . S
C917 C919 1.388 . S
C918 C917 1.366 . S
C918 C922 1.385 . S
C919 H894 0.951 . S
C919 C917 1.388 . S
C919 C920 1.366 . S
C920 C919 1.366 . S
C920 C921 1.414 . S
C920 C923 1.499 . S
C921 H895 0.950 . S
C921 C920 1.414 . S
C921 C922 1.374 . S
C922 H896 0.950 . S
C922 C918 1.385 . S
C922 C921 1.374 . S
C923 C920 1.499 . S
C923 C924 1.373 . S
C923 C925 1.389 . S
C924 H897 0.950 . S
C924 C910 1.377 . S
C924 C923 1.373 . S
C925 C909 1.377 . S
C925 C923 1.389 . S
C925 C926 1.524 . S
C926 C925 1.524 . S
C926 C927 1.397 . S
C926 C931 1.363 . S
C927 H898 0.950 . S
C927 C926 1.397 . S
C927 C928 1.334 . S
C928 H899 0.950 . S
C928 C927 1.334 . S
C928 C929 1.287 . S
C929 C928 1.287 . S
C929 C930 1.524 . S
C929 H932 0.999 . S
C930 H900 0.950 . S
C930 C929 1.524 . S
C930 C931 1.415 . S
C931 H901 0.950 . S
C931 C926 1.363 . S
C931 C930 1.415 . S
H932 C929 0.999 . S
H933 C914 0.913 . S
H934 C952 0.951 . S
H935 C954 0.951 . S
H936 C956 0.950 . S
H937 C957 0.950 . S
H938 C959 0.950 . S
H939 C962 0.950 . S
H940 C963 0.950 . S
H941 C965 0.950 . S
H942 C966 0.950 . S
H943 C967 0.951 . S
H944 C969 0.951 . S
H945 C971 0.950 . S
H946 C972 0.950 . S
H947 C974 0.950 . S
H948 C977 0.950 . S
H949 C978 0.950 . S
H950 C980 0.950 . S
H951 C981 0.950 . S
C952 H934 0.951 . S
C952 C953 1.366 . S
C952 C954 1.388 . S
C953 C952 1.366 . S
C953 C957 1.385 . S
C954 H935 0.951 . S
C954 C952 1.388 . S
C954 C955 1.366 . S
C955 C954 1.366 . S
C955 C956 1.414 . S
C955 C958 1.499 1_655 S
C956 H936 0.950 . S
C956 C955 1.414 . S
C956 C957 1.374 . S
C957 H937 0.950 . S
C957 C953 1.385 . S
C957 C956 1.374 . S
C958 C955 1.499 1_455 S
C958 C959 1.373 . S
C958 C960 1.389 . S
C959 H938 0.950 . S
C959 C958 1.373 . S
C959 C975 1.377 . S
C960 C958 1.389 . S
C960 C961 1.524 . S
C960 C974 1.377 . S
C961 C960 1.524 . S
C961 C962 1.397 1_455 S
C961 C966 1.363 . S
C962 H939 0.950 . S
C962 C961 1.397 1_655 S
C962 C963 1.334 . S
C963 H940 0.950 . S
C963 C962 1.334 . S
C963 C964 1.287 . S
C964 C963 1.287 . S
C964 C965 1.524 . S
C964 H983 0.913 . S
C965 H941 0.950 . S
C965 C964 1.524 . S
C965 C966 1.415 1_655 S
C966 H942 0.950 . S
C966 C961 1.363 . S
C966 C965 1.415 1_455 S
C967 H943 0.951 . S
C967 C968 1.366 . S
C967 C969 1.388 . S
C968 C967 1.366 . S
C968 C972 1.385 . S
C969 H944 0.951 . S
C969 C967 1.388 . S
C969 C970 1.366 . S
C970 C969 1.366 . S
C970 C971 1.414 . S
C970 C973 1.499 . S
C971 H945 0.950 . S
C971 C970 1.414 . S
C971 C972 1.374 . S
C972 H946 0.950 . S
C972 C968 1.385 . S
C972 C971 1.374 . S
C973 C970 1.499 . S
C973 C974 1.373 . S
C973 C975 1.389 . S
C974 H947 0.950 . S
C974 C960 1.377 . S
C974 C973 1.373 . S
C975 C959 1.377 . S
C975 C973 1.389 . S
C975 C976 1.524 . S
C976 C975 1.524 . S
C976 C977 1.397 . S
C976 C981 1.363 . S
C977 H948 0.950 . S
C977 C976 1.397 . S
C977 C978 1.334 . S
C978 H949 0.950 . S
C978 C977 1.334 . S
C978 C979 1.287 . S
C979 C978 1.287 . S
C979 C980 1.524 . S
C979 H982 0.999 . S
C980 H950 0.950 . S
C980 C979 1.524 . S
C980 C981 1.415 . S
C981 H951 0.950 . S
C981 C976 1.363 . S
C981 C980 1.415 . S
H982 C979 0.999 . S
H983 C964 0.913 . S
H984 C1002 0.951 . S
H985 C1004 0.951 . S
H986 C1006 0.950 . S
H987 C1007 0.950 . S
H988 C1009 0.950 . S
H989 C1012 0.950 . S
H990 C1013 0.950 1_556 S
H991 C1015 0.950 . S
H992 C1016 0.950 . S
H993 C1017 0.951 . S
H994 C1019 0.951 . S
H995 C1021 0.950 . S
H996 C1022 0.950 . S
H997 C1024 0.950 . S
H998 C1027 0.950 . S
H999 C1028 0.950 . S
H1000 C1030 0.950 . S
H1001 C1031 0.950 . S
C1002 H984 0.951 . S
C1002 C1003 1.366 . S
C1002 C1004 1.388 . S
C1003 C1002 1.366 . S
C1003 C1007 1.385 . S
C1004 H985 0.951 . S
C1004 C1002 1.388 . S
C1004 C1005 1.366 . S
C1005 C1004 1.366 . S
C1005 C1006 1.414 . S
C1005 C1008 1.499 . S
C1006 H986 0.950 . S
C1006 C1005 1.414 . S
C1006 C1007 1.374 . S
C1007 H987 0.950 . S
C1007 C1003 1.385 . S
C1007 C1006 1.374 . S
C1008 C1005 1.499 . S
C1008 C1009 1.373 . S
C1008 C1010 1.389 . S
C1009 H988 0.950 . S
C1009 C1008 1.373 . S
C1009 C1025 1.377 . S
C1010 C1008 1.389 . S
C1010 C1011 1.524 . S
C1010 C1024 1.377 . S
C1011 C1010 1.524 . S
C1011 C1012 1.397 . S
C1011 C1016 1.363 . S
C1012 H989 0.950 . S
C1012 C1011 1.397 . S
C1012 C1013 1.334 . S
C1013 H990 0.950 1_554 S
C1013 C1012 1.334 . S
C1013 C1014 1.291 . S
C1014 C1013 1.291 . S
C1014 C1015 1.531 . S
C1014 H1033 0.900 1_554 S
C1015 H991 0.950 . S
C1015 C1014 1.531 . S
C1015 C1016 1.415 . S
C1016 H992 0.950 . S
C1016 C1011 1.363 . S
C1016 C1015 1.415 . S
C1017 H993 0.951 . S
C1017 C1018 1.366 . S
C1017 C1019 1.388 . S
C1018 C1017 1.366 . S
C1018 C1022 1.385 . S
C1019 H994 0.951 . S
C1019 C1017 1.388 . S
C1019 C1020 1.366 . S
C1020 C1019 1.366 . S
C1020 C1021 1.414 . S
C1020 C1023 1.499 . S
C1021 H995 0.950 . S
C1021 C1020 1.414 . S
C1021 C1022 1.374 . S
C1022 H996 0.950 . S
C1022 C1018 1.385 . S
C1022 C1021 1.374 . S
C1023 C1020 1.499 . S
C1023 C1024 1.373 . S
C1023 C1025 1.389 . S
C1024 H997 0.950 . S
C1024 C1010 1.377 . S
C1024 C1023 1.373 . S
C1025 C1009 1.377 . S
C1025 C1023 1.389 . S
C1025 C1026 1.524 . S
C1026 C1025 1.524 . S
C1026 C1027 1.397 . S
C1026 C1031 1.363 . S
C1027 H998 0.950 . S
C1027 C1026 1.397 . S
C1027 C1028 1.334 . S
C1028 H999 0.950 . S
C1028 C1027 1.334 . S
C1028 C1029 1.287 . S
C1029 C1028 1.287 . S
C1029 C1030 1.524 . S
C1029 H1032 0.999 . S
C1030 H1000 0.950 . S
C1030 C1029 1.524 . S
C1030 C1031 1.415 . S
C1031 H1001 0.950 . S
C1031 C1026 1.363 . S
C1031 C1030 1.415 . S
H1032 C1029 0.999 . S
H1033 C1014 0.900 1_556 S
H1034 C1052 0.951 . S
H1035 C1054 0.951 . S
H1036 C1056 0.950 . S
H1037 C1057 0.950 . S
H1038 C1059 0.950 . S
H1039 C1062 0.950 . S
H1040 C1063 0.950 . S
H1041 C1065 0.950 . S
H1042 C1066 0.950 . S
H1043 C1067 0.951 . S
H1044 C1069 0.951 . S
H1045 C1071 0.950 . S
H1046 C1072 0.950 . S
H1047 C1074 0.950 . S
H1048 C1077 0.950 . S
H1049 C1078 0.950 . S
H1050 C1080 0.950 . S
H1051 C1081 0.950 . S
C1052 H1034 0.951 . S
C1052 C1053 1.366 . S
C1052 C1054 1.388 . S
C1053 C1052 1.366 . S
C1053 C1057 1.385 . S
C1054 H1035 0.951 . S
C1054 C1052 1.388 . S
C1054 C1055 1.366 . S
C1055 C1054 1.366 . S
C1055 C1056 1.414 . S
C1055 C1058 1.499 . S
C1056 H1036 0.950 . S
C1056 C1055 1.414 . S
C1056 C1057 1.374 . S
C1057 H1037 0.950 . S
C1057 C1053 1.385 . S
C1057 C1056 1.374 . S
C1058 C1055 1.499 . S
C1058 C1059 1.373 . S
C1058 C1060 1.389 . S
C1059 H1038 0.950 . S
C1059 C1058 1.373 . S
C1059 C1075 1.377 . S
C1060 C1058 1.389 . S
C1060 C1061 1.524 . S
C1060 C1074 1.377 . S
C1061 C1060 1.524 . S
C1061 C1062 1.397 . S
C1061 C1066 1.363 . S
C1062 H1039 0.950 . S
C1062 C1061 1.397 . S
C1062 C1063 1.334 . S
C1063 H1040 0.950 . S
C1063 C1062 1.334 . S
C1063 C1064 1.287 . S
C1064 C1063 1.287 . S
C1064 C1065 1.524 . S
C1064 H1083 0.913 . S
C1065 H1041 0.950 . S
C1065 C1064 1.524 . S
C1065 C1066 1.415 . S
C1066 H1042 0.950 . S
C1066 C1061 1.363 . S
C1066 C1065 1.415 . S
C1067 H1043 0.951 . S
C1067 C1068 1.366 . S
C1067 C1069 1.388 . S
C1068 C1067 1.366 . S
C1068 C1072 1.385 . S
C1069 H1044 0.951 . S
C1069 C1067 1.388 . S
C1069 C1070 1.366 . S
C1070 C1069 1.366 . S
C1070 C1071 1.414 . S
C1070 C1073 1.499 . S
C1071 H1045 0.950 . S
C1071 C1070 1.414 . S
C1071 C1072 1.374 . S
C1072 H1046 0.950 . S
C1072 C1068 1.385 . S
C1072 C1071 1.374 . S
C1073 C1070 1.499 . S
C1073 C1074 1.373 . S
C1073 C1075 1.389 . S
C1074 H1047 0.950 . S
C1074 C1060 1.377 . S
C1074 C1073 1.373 . S
C1075 C1059 1.377 . S
C1075 C1073 1.389 . S
C1075 C1076 1.524 . S
C1076 C1075 1.524 . S
C1076 C1077 1.397 . S
C1076 C1081 1.363 . S
C1077 H1048 0.950 . S
C1077 C1076 1.397 . S
C1077 C1078 1.334 . S
C1078 H1049 0.950 . S
C1078 C1077 1.334 . S
C1078 C1079 1.287 . S
C1079 C1078 1.287 . S
C1079 C1080 1.524 . S
C1079 H1082 0.999 . S
C1080 H1050 0.950 . S
C1080 C1079 1.524 . S
C1080 C1081 1.415 . S
C1081 H1051 0.950 . S
C1081 C1076 1.363 . S
C1081 C1080 1.415 . S
H1082 C1079 0.999 . S
H1083 C1064 0.913 . S
H1084 C1102 0.951 . S
H1085 C1104 0.951 . S
H1086 C1106 0.950 . S
H1087 C1107 0.950 . S
H1088 C1109 0.950 . S
H1089 C1112 0.950 . S
H1090 C1113 0.950 . S
H1091 C1115 0.950 . S
H1092 C1116 0.950 . S
H1093 C1117 0.951 . S
H1094 C1119 0.951 . S
H1095 C1121 0.950 . S
H1096 C1122 0.950 . S
H1097 C1124 0.950 . S
H1098 C1127 0.950 . S
H1099 C1128 0.950 . S
H1100 C1130 0.950 . S
H1101 C1131 0.950 . S
C1102 H1084 0.951 . S
C1102 C1103 1.366 . S
C1102 C1104 1.388 . S
C1103 C1102 1.366 . S
C1103 C1107 1.385 . S
C1104 H1085 0.951 . S
C1104 C1102 1.388 . S
C1104 C1105 1.366 . S
C1105 C1104 1.366 . S
C1105 C1106 1.414 . S
C1105 C1108 1.499 . S
C1106 H1086 0.950 . S
C1106 C1105 1.414 . S
C1106 C1107 1.374 . S
C1107 H1087 0.950 . S
C1107 C1103 1.385 . S
C1107 C1106 1.374 . S
C1108 C1105 1.499 . S
C1108 C1109 1.373 . S
C1108 C1110 1.389 . S
C1109 H1088 0.950 . S
C1109 C1108 1.373 . S
C1109 C1125 1.377 . S
C1110 C1108 1.389 . S
C1110 C1111 1.524 . S
C1110 C1124 1.377 . S
C1111 C1110 1.524 . S
C1111 C1112 1.397 . S
C1111 C1116 1.363 . S
C1112 H1089 0.950 . S
C1112 C1111 1.397 . S
C1112 C1113 1.334 . S
C1113 H1090 0.950 . S
C1113 C1112 1.334 . S
C1113 C1114 1.287 . S
C1114 C1113 1.287 . S
C1114 C1115 1.524 . S
C1114 H1133 0.913 . S
C1115 H1091 0.950 . S
C1115 C1114 1.524 . S
C1115 C1116 1.415 . S
C1116 H1092 0.950 . S
C1116 C1111 1.363 . S
C1116 C1115 1.415 . S
C1117 H1093 0.951 . S
C1117 C1118 1.366 . S
C1117 C1119 1.388 . S
C1118 C1117 1.366 . S
C1118 C1122 1.385 . S
C1119 H1094 0.951 . S
C1119 C1117 1.388 . S
C1119 C1120 1.366 . S
C1120 C1119 1.366 . S
C1120 C1121 1.414 . S
C1120 C1123 1.499 . S
C1121 H1095 0.950 . S
C1121 C1120 1.414 . S
C1121 C1122 1.374 . S
C1122 H1096 0.950 . S
C1122 C1118 1.385 . S
C1122 C1121 1.374 . S
C1123 C1120 1.499 . S
C1123 C1124 1.373 . S
C1123 C1125 1.389 . S
C1124 H1097 0.950 . S
C1124 C1110 1.377 . S
C1124 C1123 1.373 . S
C1125 C1109 1.377 . S
C1125 C1123 1.389 . S
C1125 C1126 1.524 . S
C1126 C1125 1.524 . S
C1126 C1127 1.397 . S
C1126 C1131 1.363 . S
C1127 H1098 0.950 . S
C1127 C1126 1.397 . S
C1127 C1128 1.334 . S
C1128 H1099 0.950 . S
C1128 C1127 1.334 . S
C1128 C1129 1.287 . S
C1129 C1128 1.287 . S
C1129 C1130 1.524 . S
C1129 H1132 0.999 . S
C1130 H1100 0.950 . S
C1130 C1129 1.524 . S
C1130 C1131 1.415 . S
C1131 H1101 0.950 . S
C1131 C1126 1.363 . S
C1131 C1130 1.415 . S
H1132 C1129 0.999 . S
H1133 C1114 0.913 . S
H1134 C1152 0.951 . S
H1135 C1154 0.951 . S
H1136 C1156 0.950 . S
H1137 C1157 0.950 . S
H1138 C1159 0.950 . S
H1139 C1162 0.950 . S
H1140 C1163 0.950 . S
H1141 C1165 0.950 . S
H1142 C1166 0.950 . S
H1143 C1167 0.951 . S
H1144 C1169 0.951 . S
H1145 C1171 0.950 . S
H1146 C1172 0.950 . S
H1147 C1174 0.950 . S
H1148 C1177 0.950 . S
H1149 C1178 0.950 . S
H1150 C1180 0.950 . S
H1151 C1181 0.950 . S
C1152 H1134 0.951 . S
C1152 C1153 1.366 . S
C1152 C1154 1.388 . S
C1153 C1152 1.366 . S
C1153 C1157 1.385 . S
C1154 H1135 0.951 . S
C1154 C1152 1.388 . S
C1154 C1155 1.366 . S
C1155 C1154 1.366 . S
C1155 C1156 1.414 . S
C1155 C1158 1.499 . S
C1156 H1136 0.950 . S
C1156 C1155 1.414 . S
C1156 C1157 1.374 . S
C1157 H1137 0.950 . S
C1157 C1153 1.385 . S
C1157 C1156 1.374 . S
C1158 C1155 1.499 . S
C1158 C1159 1.373 . S
C1158 C1160 1.389 . S
C1159 H1138 0.950 . S
C1159 C1158 1.373 . S
C1159 C1175 1.377 . S
C1160 C1158 1.389 . S
C1160 C1161 1.524 . S
C1160 C1174 1.377 . S
C1161 C1160 1.524 . S
C1161 C1162 1.397 . S
C1161 C1166 1.363 . S
C1162 H1139 0.950 . S
C1162 C1161 1.397 . S
C1162 C1163 1.334 . S
C1163 H1140 0.950 . S
C1163 C1162 1.334 . S
C1163 C1164 1.287 . S
C1164 C1163 1.287 . S
C1164 C1165 1.524 . S
C1164 H1183 0.913 . S
C1165 H1141 0.950 . S
C1165 C1164 1.524 . S
C1165 C1166 1.415 . S
C1166 H1142 0.950 . S
C1166 C1161 1.363 . S
C1166 C1165 1.415 . S
C1167 H1143 0.951 . S
C1167 C1168 1.366 . S
C1167 C1169 1.388 . S
C1168 C1167 1.366 . S
C1168 C1172 1.385 . S
C1169 H1144 0.951 . S
C1169 C1167 1.388 . S
C1169 C1170 1.366 . S
C1170 C1169 1.366 . S
C1170 C1171 1.414 . S
C1170 C1173 1.499 . S
C1171 H1145 0.950 . S
C1171 C1170 1.414 . S
C1171 C1172 1.374 . S
C1172 H1146 0.950 . S
C1172 C1168 1.385 . S
C1172 C1171 1.374 . S
C1173 C1170 1.499 . S
C1173 C1174 1.373 . S
C1173 C1175 1.389 . S
C1174 H1147 0.950 . S
C1174 C1160 1.377 . S
C1174 C1173 1.373 . S
C1175 C1159 1.377 . S
C1175 C1173 1.389 . S
C1175 C1176 1.524 . S
C1176 C1175 1.524 . S
C1176 C1177 1.397 . S
C1176 C1181 1.363 . S
C1177 H1148 0.950 . S
C1177 C1176 1.397 . S
C1177 C1178 1.334 . S
C1178 H1149 0.950 . S
C1178 C1177 1.334 . S
C1178 C1179 1.287 . S
C1179 C1178 1.287 . S
C1179 C1180 1.524 . S
C1179 H1182 0.999 . S
C1180 H1150 0.950 . S
C1180 C1179 1.524 . S
C1180 C1181 1.415 . S
C1181 H1151 0.950 . S
C1181 C1176 1.363 . S
C1181 C1180 1.415 . S
H1182 C1179 0.999 . S
H1183 C1164 0.913 . S
H1184 C1202 0.951 . S
H1185 C1204 0.951 . S
H1186 C1206 0.950 . S
H1187 C1207 0.950 . S
H1188 C1209 0.950 . S
H1189 C1212 0.950 . S
H1190 C1213 0.950 . S
H1191 C1215 0.950 . S
H1192 C1216 0.950 . S
H1193 C1217 0.951 . S
H1194 C1219 0.951 . S
H1195 C1221 0.950 . S
H1196 C1222 0.950 . S
H1197 C1224 0.950 . S
H1198 C1227 0.950 . S
H1199 C1228 0.950 . S
H1200 C1230 0.950 . S
H1201 C1231 0.950 . S
C1202 H1184 0.951 . S
C1202 C1203 1.366 . S
C1202 C1204 1.388 . S
C1203 C1202 1.366 . S
C1203 C1207 1.385 . S
C1204 H1185 0.951 . S
C1204 C1202 1.388 . S
C1204 C1205 1.366 . S
C1205 C1204 1.366 . S
C1205 C1206 1.414 . S
C1205 C1208 1.499 . S
C1206 H1186 0.950 . S
C1206 C1205 1.414 . S
C1206 C1207 1.374 . S
C1207 H1187 0.950 . S
C1207 C1203 1.385 . S
C1207 C1206 1.374 . S
C1208 C1205 1.499 . S
C1208 C1209 1.373 . S
C1208 C1210 1.389 . S
C1209 H1188 0.950 . S
C1209 C1208 1.373 . S
C1209 C1225 1.377 . S
C1210 C1208 1.389 . S
C1210 C1211 1.524 . S
C1210 C1224 1.377 . S
C1211 C1210 1.524 . S
C1211 C1212 1.397 . S
C1211 C1216 1.363 . S
C1212 H1189 0.950 . S
C1212 C1211 1.397 . S
C1212 C1213 1.334 . S
C1213 H1190 0.950 . S
C1213 C1212 1.334 . S
C1213 C1214 1.287 . S
C1214 C1213 1.287 . S
C1214 C1215 1.524 . S
C1214 H1233 0.913 . S
C1215 H1191 0.950 . S
C1215 C1214 1.524 . S
C1215 C1216 1.415 . S
C1216 H1192 0.950 . S
C1216 C1211 1.363 . S
C1216 C1215 1.415 . S
C1217 H1193 0.951 . S
C1217 C1218 1.366 . S
C1217 C1219 1.388 . S
C1218 C1217 1.366 . S
C1218 C1222 1.385 . S
C1219 H1194 0.951 . S
C1219 C1217 1.388 . S
C1219 C1220 1.366 . S
C1220 C1219 1.366 . S
C1220 C1221 1.414 . S
C1220 C1223 1.499 . S
C1221 H1195 0.950 . S
C1221 C1220 1.414 . S
C1221 C1222 1.374 . S
C1222 H1196 0.950 . S
C1222 C1218 1.385 . S
C1222 C1221 1.374 . S
C1223 C1220 1.499 . S
C1223 C1224 1.373 . S
C1223 C1225 1.389 . S
C1224 H1197 0.950 . S
C1224 C1210 1.377 . S
C1224 C1223 1.373 . S
C1225 C1209 1.377 . S
C1225 C1223 1.389 . S
C1225 C1226 1.524 . S
C1226 C1225 1.524 . S
C1226 C1227 1.397 . S
C1226 C1231 1.363 . S
C1227 H1198 0.950 . S
C1227 C1226 1.397 . S
C1227 C1228 1.334 . S
C1228 H1199 0.950 . S
C1228 C1227 1.334 . S
C1228 C1229 1.287 . S
C1229 C1228 1.287 . S
C1229 C1230 1.524 . S
C1229 H1232 0.999 . S
C1230 H1200 0.950 . S
C1230 C1229 1.524 . S
C1230 C1231 1.415 . S
C1231 H1201 0.950 . S
C1231 C1226 1.363 . S
C1231 C1230 1.415 . S
H1232 C1229 0.999 . S
H1233 C1214 0.913 . S
H1234 C1252 0.951 . S
H1235 C1254 0.951 . S
H1236 C1256 0.950 . S
H1237 C1257 0.950 1_554 S
H1238 C1259 0.950 . S
H1239 C1262 0.950 . S
H1240 C1263 0.950 . S
H1241 C1265 0.950 . S
H1242 C1266 0.950 . S
H1243 C1267 0.951 . S
H1244 C1269 0.951 . S
H1245 C1271 0.950 . S
H1246 C1272 0.950 . S
H1247 C1274 0.950 . S
H1248 C1277 0.950 . S
H1249 C1278 0.950 . S
H1250 C1280 0.950 1_554 S
H1251 C1281 0.950 . S
C1252 H1234 0.951 . S
C1252 C1253 1.366 . S
C1252 C1254 1.388 . S
C1253 C1252 1.366 . S
C1253 C1257 1.385 . S
C1254 H1235 0.951 . S
C1254 C1252 1.388 . S
C1254 C1255 1.366 . S
C1255 C1254 1.366 . S
C1255 C1256 1.414 . S
C1255 C1258 1.499 . S
C1256 H1236 0.950 . S
C1256 C1255 1.414 . S
C1256 C1257 1.374 . S
C1257 H1237 0.950 1_556 S
C1257 C1253 1.385 . S
C1257 C1256 1.374 . S
C1258 C1255 1.499 . S
C1258 C1259 1.373 . S
C1258 C1260 1.389 . S
C1259 H1238 0.950 . S
C1259 C1258 1.373 . S
C1259 C1275 1.377 . S
C1260 C1258 1.389 . S
C1260 C1261 1.524 . S
C1260 C1274 1.377 . S
C1261 C1260 1.524 . S
C1261 C1262 1.397 . S
C1261 C1266 1.363 . S
C1262 H1239 0.950 . S
C1262 C1261 1.397 . S
C1262 C1263 1.334 . S
C1263 H1240 0.950 . S
C1263 C1262 1.334 . S
C1263 C1264 1.287 . S
C1264 C1263 1.287 . S
C1264 C1265 1.524 . S
C1264 H1283 0.913 . S
C1265 H1241 0.950 . S
C1265 C1264 1.524 . S
C1265 C1266 1.415 . S
C1266 H1242 0.950 . S
C1266 C1261 1.363 . S
C1266 C1265 1.415 . S
C1267 H1243 0.951 . S
C1267 C1268 1.366 . S
C1267 C1269 1.388 . S
C1268 C1267 1.366 . S
C1268 C1272 1.385 . S
C1269 H1244 0.951 . S
C1269 C1267 1.388 . S
C1269 C1270 1.366 . S
C1270 C1269 1.366 . S
C1270 C1271 1.414 . S
C1270 C1273 1.499 . S
C1271 H1245 0.950 . S
C1271 C1270 1.414 . S
C1271 C1272 1.374 . S
C1272 H1246 0.950 . S
C1272 C1268 1.385 . S
C1272 C1271 1.374 . S
C1273 C1270 1.499 . S
C1273 C1274 1.373 . S
C1273 C1275 1.389 . S
C1274 H1247 0.950 . S
C1274 C1260 1.377 . S
C1274 C1273 1.373 . S
C1275 C1259 1.377 . S
C1275 C1273 1.389 . S
C1275 C1276 1.524 . S
C1276 C1275 1.524 . S
C1276 C1277 1.397 . S
C1276 C1281 1.363 . S
C1277 H1248 0.950 . S
C1277 C1276 1.397 . S
C1277 C1278 1.334 . S
C1278 H1249 0.950 . S
C1278 C1277 1.334 . S
C1278 C1279 1.287 . S
C1279 C1278 1.287 . S
C1279 C1280 1.524 . S
C1279 H1282 0.999 . S
C1280 H1250 0.950 1_556 S
C1280 C1279 1.524 . S
C1280 C1281 1.415 . S
C1281 H1251 0.950 . S
C1281 C1276 1.363 . S
C1281 C1280 1.415 . S
H1282 C1279 0.999 . S
H1283 C1264 0.913 . S
H1284 C1302 0.951 . S
H1285 C1304 0.951 . S
H1286 C1306 0.950 . S
H1287 C1307 0.950 . S
H1288 C1309 0.950 . S
H1289 C1312 0.950 . S
H1290 C1313 0.950 . S
H1291 C1315 0.950 . S
H1292 C1316 0.950 . S
H1293 C1317 0.951 . S
H1294 C1319 0.951 . S
H1295 C1321 0.950 . S
H1296 C1322 0.950 . S
H1297 C1324 0.950 . S
H1298 C1327 0.950 . S
H1299 C1328 0.950 . S
H1300 C1330 0.950 . S
H1301 C1331 0.950 . S
C1302 H1284 0.951 . S
C1302 C1303 1.366 . S
C1302 C1304 1.388 . S
C1303 C1302 1.366 . S
C1303 C1307 1.385 . S
C1304 H1285 0.951 . S
C1304 C1302 1.388 . S
C1304 C1305 1.366 . S
C1305 C1304 1.366 . S
C1305 C1306 1.414 . S
C1305 C1308 1.499 . S
C1306 H1286 0.950 . S
C1306 C1305 1.414 . S
C1306 C1307 1.374 . S
C1307 H1287 0.950 . S
C1307 C1303 1.385 . S
C1307 C1306 1.374 . S
C1308 C1305 1.499 . S
C1308 C1309 1.373 . S
C1308 C1310 1.389 . S
C1309 H1288 0.950 . S
C1309 C1308 1.373 . S
C1309 C1325 1.377 . S
C1310 C1308 1.389 . S
C1310 C1311 1.524 . S
C1310 C1324 1.377 . S
C1311 C1310 1.524 . S
C1311 C1312 1.397 . S
C1311 C1316 1.363 . S
C1312 H1289 0.950 . S
C1312 C1311 1.397 . S
C1312 C1313 1.334 . S
C1313 H1290 0.950 . S
C1313 C1312 1.334 . S
C1313 C1314 1.287 . S
C1314 C1313 1.287 . S
C1314 C1315 1.524 . S
C1314 H1333 0.913 . S
C1315 H1291 0.950 . S
C1315 C1314 1.524 . S
C1315 C1316 1.415 . S
C1316 H1292 0.950 . S
C1316 C1311 1.363 . S
C1316 C1315 1.415 . S
C1317 H1293 0.951 . S
C1317 C1318 1.366 . S
C1317 C1319 1.388 . S
C1318 C1317 1.366 . S
C1318 C1322 1.385 . S
C1319 H1294 0.951 . S
C1319 C1317 1.388 . S
C1319 C1320 1.366 . S
C1320 C1319 1.366 . S
C1320 C1321 1.414 . S
C1320 C1323 1.499 . S
C1321 H1295 0.950 . S
C1321 C1320 1.414 . S
C1321 C1322 1.374 . S
C1322 H1296 0.950 . S
C1322 C1318 1.385 . S
C1322 C1321 1.374 . S
C1323 C1320 1.499 . S
C1323 C1324 1.373 . S
C1323 C1325 1.389 . S
C1324 H1297 0.950 . S
C1324 C1310 1.377 . S
C1324 C1323 1.373 . S
C1325 C1309 1.377 . S
C1325 C1323 1.389 . S
C1325 C1326 1.524 . S
C1326 C1325 1.524 . S
C1326 C1327 1.397 . S
C1326 C1331 1.363 . S
C1327 H1298 0.950 . S
C1327 C1326 1.397 . S
C1327 C1328 1.334 . S
C1328 H1299 0.950 . S
C1328 C1327 1.334 . S
C1328 C1329 1.287 . S
C1329 C1328 1.287 . S
C1329 C1330 1.524 . S
C1329 H1332 0.999 . S
C1330 H1300 0.950 . S
C1330 C1329 1.524 . S
C1330 C1331 1.415 . S
C1331 H1301 0.950 . S
C1331 C1326 1.363 . S
C1331 C1330 1.415 . S
H1332 C1329 0.999 . S
H1333 C1314 0.913 . S
H1334 C1352 0.951 . S
H1335 C1354 0.951 . S
H1336 C1356 0.950 . S
H1337 C1357 0.950 . S
H1338 C1359 0.950 . S
H1339 C1362 0.950 . S
H1340 C1363 0.950 . S
H1341 C1365 0.950 . S
H1342 C1366 0.950 . S
H1343 C1367 0.951 . S
H1344 C1369 0.951 . S
H1345 C1371 0.950 . S
H1346 C1372 0.950 . S
H1347 C1374 0.950 . S
H1348 C1377 0.950 . S
H1349 C1378 0.950 . S
H1350 C1380 0.950 . S
H1351 C1381 0.950 . S
C1352 H1334 0.951 . S
C1352 C1353 1.366 . S
C1352 C1354 1.388 . S
C1353 C1352 1.366 . S
C1353 C1357 1.385 . S
C1354 H1335 0.951 . S
C1354 C1352 1.388 . S
C1354 C1355 1.366 . S
C1355 C1354 1.366 . S
C1355 C1356 1.414 . S
C1355 C1358 1.499 . S
C1356 H1336 0.950 . S
C1356 C1355 1.414 . S
C1356 C1357 1.374 . S
C1357 H1337 0.950 . S
C1357 C1353 1.385 . S
C1357 C1356 1.374 . S
C1358 C1355 1.499 . S
C1358 C1359 1.373 . S
C1358 C1360 1.389 . S
C1359 H1338 0.950 . S
C1359 C1358 1.373 . S
C1359 C1375 1.377 . S
C1360 C1358 1.389 . S
C1360 C1361 1.524 . S
C1360 C1374 1.377 . S
C1361 C1360 1.524 . S
C1361 C1362 1.397 . S
C1361 C1366 1.363 . S
C1362 H1339 0.950 . S
C1362 C1361 1.397 . S
C1362 C1363 1.334 . S
C1363 H1340 0.950 . S
C1363 C1362 1.334 . S
C1363 C1364 1.287 . S
C1364 C1363 1.287 . S
C1364 C1365 1.524 . S
C1364 H1383 0.913 . S
C1365 H1341 0.950 . S
C1365 C1364 1.524 . S
C1365 C1366 1.415 . S
C1366 H1342 0.950 . S
C1366 C1361 1.363 . S
C1366 C1365 1.415 . S
C1367 H1343 0.951 . S
C1367 C1368 1.366 . S
C1367 C1369 1.388 . S
C1368 C1367 1.366 . S
C1368 C1372 1.385 . S
C1369 H1344 0.951 . S
C1369 C1367 1.388 . S
C1369 C1370 1.366 . S
C1370 C1369 1.366 . S
C1370 C1371 1.414 . S
C1370 C1373 1.499 . S
C1371 H1345 0.950 . S
C1371 C1370 1.414 . S
C1371 C1372 1.374 . S
C1372 H1346 0.950 . S
C1372 C1368 1.385 . S
C1372 C1371 1.374 . S
C1373 C1370 1.499 . S
C1373 C1374 1.373 . S
C1373 C1375 1.389 . S
C1374 H1347 0.950 . S
C1374 C1360 1.377 . S
C1374 C1373 1.373 . S
C1375 C1359 1.377 . S
C1375 C1373 1.389 . S
C1375 C1376 1.524 . S
C1376 C1375 1.524 . S
C1376 C1377 1.397 . S
C1376 C1381 1.363 . S
C1377 H1348 0.950 . S
C1377 C1376 1.397 . S
C1377 C1378 1.334 . S
C1378 H1349 0.950 . S
C1378 C1377 1.334 . S
C1378 C1379 1.287 . S
C1379 C1378 1.287 . S
C1379 C1380 1.524 . S
C1379 H1382 0.999 . S
C1380 H1350 0.950 . S
C1380 C1379 1.524 . S
C1380 C1381 1.415 . S
C1381 H1351 0.950 . S
C1381 C1376 1.363 . S
C1381 C1380 1.415 . S
H1382 C1379 0.999 . S
H1383 C1364 0.913 . S
C203 C7 1.330 . S
C218 C97 1.276 . S
C253 C37 1.381 . S
C268 C109 1.352 . S
C303 C54 1.301 . S
C318 C121 1.258 . S
C368 C130 1.197 . S
C353 C87 1.223 . S
C418 C145 1.231 . S
C403 C30 1.293 . S
C453 C51 1.232 . S
C468 C154 1.205 . S
C503 C84 1.314 . S
C518 C169 1.274 . S
C553 C10 1.382 . S
C568 C181 1.341 . S
C603 C59 1.246 1_556 S
C618 C178 1.231 . S
C668 C142 1.204 . S
C653 C74 1.211 . S
C718 C157 1.274 . S
C703 C18 1.307 . S
C753 C32 1.205 . S
C768 C166 1.166 . S
C818 C106 1.183 . S
C803 C73 1.196 . S
C853 C15 1.244 . S
C868 C118 1.206 . S
C918 C133 1.317 . S
C903 C43 1.339 . S
C968 C94 1.195 . S
C953 C62 1.201 . S
C1018 C164 1.321 . S
C1003 C21 1.328 . S
C1068 C176 1.374 . S
C1053 C29 1.391 . S
C1103 C52 1.322 . S
C1118 C140 1.312 . S
C1168 C152 1.329 . S
C1153 C81 1.347 . S
C1218 C116 1.331 . S
C1203 C40 1.348 . S
C1253 C65 1.348 1_556 S
C1268 C128 1.330 . S
C1318 C92 1.327 . S
C1303 C76 1.338 . S
C1368 C104 1.334 . S
C1353 C8 1.353 . S
