# Generated by pormake.
# Topology zzz, (3,6)-cn, num edge types: 1
# Building blocks:
#     Node 0, Type 0, BuildingBlock: MIDCAF_clean_linker_0, # of connection points: 3
#     Node 1, Type 0, BuildingBlock: MIDCAF_clean_linker_0, # of connection points: 3
#     Node 2, Type 0, BuildingBlock: MIDCAF_clean_linker_0, # of connection points: 3
#     Node 3, Type 0, BuildingBlock: MIDCAF_clean_linker_0, # of connection points: 3
#     Node 4, Type 0, BuildingBlock: MIDCAF_clean_linker_0, # of connection points: 3
#     Node 5, Type 0, BuildingBlock: MIDCAF_clean_linker_0, # of connection points: 3
#     Node 6, Type 0, BuildingBlock: MIDCAF_clean_linker_0, # of connection points: 3
#     Node 7, Type 0, BuildingBlock: MIDCAF_clean_linker_0, # of connection points: 3
#     Node 8, Type 1, BuildingBlock: GEDQOX_clean_sbu_0, # of connection points: 6
#     Node 9, Type 1, BuildingBlock: GEDQOX_clean_sbu_0, # of connection points: 6
#     Node 10, Type 1, BuildingBlock: GEDQOX_clean_sbu_0, # of connection points: 6
#     Node 11, Type 1, BuildingBlock: GEDQOX_clean_sbu_0, # of connection points: 6
#     Edge 12, Type (0, 1), BuildingBlock: XIVTED_clean_linker_0, # of connection points: 2
#     Edge 13, Type (0, 1), BuildingBlock: XIVTED_clean_linker_0, # of connection points: 2
#     Edge 14, Type (0, 1), BuildingBlock: XIVTED_clean_linker_0, # of connection points: 2
#     Edge 15, Type (0, 1), BuildingBlock: XIVTED_clean_linker_0, # of connection points: 2
#     Edge 16, Type (0, 1), BuildingBlock: XIVTED_clean_linker_0, # of connection points: 2
#     Edge 17, Type (0, 1), BuildingBlock: XIVTED_clean_linker_0, # of connection points: 2
#     Edge 18, Type (0, 1), BuildingBlock: XIVTED_clean_linker_0, # of connection points: 2
#     Edge 19, Type (0, 1), BuildingBlock: XIVTED_clean_linker_0, # of connection points: 2
#     Edge 20, Type (0, 1), BuildingBlock: XIVTED_clean_linker_0, # of connection points: 2
#     Edge 21, Type (0, 1), BuildingBlock: XIVTED_clean_linker_0, # of connection points: 2
#     Edge 22, Type (0, 1), BuildingBlock: XIVTED_clean_linker_0, # of connection points: 2
#     Edge 23, Type (0, 1), BuildingBlock: XIVTED_clean_linker_0, # of connection points: 2
#     Edge 24, Type (0, 1), BuildingBlock: XIVTED_clean_linker_0, # of connection points: 2
#     Edge 25, Type (0, 1), BuildingBlock: XIVTED_clean_linker_0, # of connection points: 2
#     Edge 26, Type (0, 1), BuildingBlock: XIVTED_clean_linker_0, # of connection points: 2
#     Edge 27, Type (0, 1), BuildingBlock: XIVTED_clean_linker_0, # of connection points: 2
#     Edge 28, Type (0, 1), BuildingBlock: XIVTED_clean_linker_0, # of connection points: 2
#     Edge 29, Type (0, 1), BuildingBlock: XIVTED_clean_linker_0, # of connection points: 2
#     Edge 30, Type (0, 1), BuildingBlock: XIVTED_clean_linker_0, # of connection points: 2
#     Edge 31, Type (0, 1), BuildingBlock: XIVTED_clean_linker_0, # of connection points: 2
#     Edge 32, Type (0, 1), BuildingBlock: XIVTED_clean_linker_0, # of connection points: 2
#     Edge 33, Type (0, 1), BuildingBlock: XIVTED_clean_linker_0, # of connection points: 2
#     Edge 34, Type (0, 1), BuildingBlock: XIVTED_clean_linker_0, # of connection points: 2
#     Edge 35, Type (0, 1), BuildingBlock: XIVTED_clean_linker_0, # of connection points: 2
# Relax obj value: 0.310
# Max RMSD: 0.266
# Mean RMSD: 0.199
data_MOF--net-zzz--node1-GEDQOX_clean_sbu_0--node2-MIDCAF_clean_linker_0--edge1-XIVTED_clean_linker_0
_symmetry_space_group_name_H-M    P1
_symmetry_Int_Tables_number       1
_symmetry_cell_setting            triclinic
loop_
_symmetry_equiv_pos_as_xyz
'x, y, z'
_cell_length_a     62.498904
_cell_length_b     58.389706
_cell_length_c     22.003845
_cell_angle_alpha  81.764419
_cell_angle_beta   90.950452
_cell_angle_gamma 102.10739
loop_
_atom_site_label
_atom_site_type_symbol
_atom_site_fract_x
_atom_site_fract_y
_atom_site_fract_z
_atom_type_partial_charge
C0 C 0.806 0.44601 0.34144 0.0
C1 C 0.8016 0.46612 0.36282 0.0
C2 C 0.78554 0.47722 0.33345 0.0
C3 C 0.77463 0.46881 0.28236 0.0
H4 H 0.71715 0.4648 0.17711 0.0
H5 H 0.68374 0.47583 0.13666 0.0
H6 H 0.69288 0.4485 0.96881 0.0
H7 H 0.72659 0.43776 0.00866 0.0
H8 H 0.77194 0.42279 0.98637 0.0
H9 H 0.79972 0.41546 0.91937 0.0
H10 H 0.84059 0.40426 0.07666 0.0
H11 H 0.81277 0.41071 0.14331 0.0
H12 H 0.79971 0.42278 0.27355 0.0
H13 H 0.81843 0.43721 0.36272 0.0
H14 H 0.78175 0.49266 0.34924 0.0
H15 H 0.76283 0.47815 0.25949 0.0
N16 N 0.75222 0.44851 0.17744 0.0
N17 N 0.75701 0.43294 0.08706 0.0
N18 N 0.78258 0.43181 0.16582 0.0
C19 C 0.745 0.44353 0.1211 0.0
C20 C 0.77582 0.42696 0.10926 0.0
C21 C 0.77095 0.44254 0.20016 0.0
C22 C 0.72461 0.45029 0.0963 0.0
C23 C 0.71213 0.46113 0.1315 0.0
C24 C 0.69287 0.46738 0.10846 0.0
C25 C 0.6856 0.46297 0.04962 0.0
C26 C 0.69816 0.45236 0.01408 0.0
C27 C 0.71743 0.44605 0.03717 0.0
C28 C 0.79031 0.41792 0.07009 0.0
C29 C 0.78661 0.41816 0.00679 0.0
C30 C 0.8026 0.41407 0.96832 0.0
C31 C 0.82261 0.40968 0.99233 0.0
C32 C 0.82541 0.40743 0.05629 0.0
C33 C 0.80945 0.41143 0.09463 0.0
C34 C 0.7799 0.44942 0.25917 0.0
C35 C 0.79536 0.43784 0.29004 0.0
C36 C 0.92961 0.75495 0.41159 0.0
C37 C 0.94682 0.75775 0.45362 0.0
C38 C 0.96246 0.74352 0.45381 0.0
C39 C 0.96189 0.72829 0.40964 0.0
H40 H 0.93801 0.647 0.27005 0.0
H41 H 0.94669 0.6134 0.22752 0.0
H42 H 0.01056 0.65548 0.17115 0.0
H43 H 0.00142 0.68902 0.21164 0.0
H44 H 0.98047 0.73294 0.09826 0.0
H45 H 0.98825 0.7669 0.01705 0.0
H46 H 0.93894 0.79686 0.09318 0.0
H47 H 0.93127 0.76315 0.17471 0.0
H48 H 0.91675 0.73974 0.33229 0.0
H49 H 0.91739 0.76571 0.40972 0.0
H50 H 0.9758 0.74509 0.48605 0.0
H51 H 0.97506 0.71893 0.40783 0.0
N52 N 0.95622 0.69789 0.30482 0.0
N53 N 0.96084 0.70748 0.19746 0.0
N54 N 0.9481 0.73314 0.25314 0.0
C55 C 0.96165 0.69227 0.24976 0.0
C56 C 0.95392 0.72784 0.19872 0.0
C57 C 0.94927 0.71848 0.30624 0.0
C58 C 0.96914 0.6704 0.24441 0.0
C59 C 0.95418 0.64862 0.25073 0.0
C60 C 0.95915 0.62946 0.226 0.0
C61 C 0.97916 0.6319 0.19464 0.0
C62 C 0.99479 0.65316 0.19352 0.0
C63 C 0.98973 0.67226 0.21757 0.0
C64 C 0.95545 0.74558 0.14324 0.0
C65 C 0.97089 0.74647 0.09676 0.0
C66 C 0.97543 0.7659 0.05045 0.0
C67 C 0.96429 0.78447 0.04929 0.0
C68 C 0.94766 0.78267 0.0929 0.0
C69 C 0.94338 0.76347 0.13975 0.0
C70 C 0.94583 0.72732 0.36416 0.0
C71 C 0.92922 0.74004 0.36716 0.0
C72 C 0.71803 0.03255 0.3123 0.0
C73 C 0.71807 0.00907 0.33764 0.0
C74 C 0.7304 0.99615 0.30831 0.0
C75 C 0.742 0.00638 0.25373 0.0
H76 H 0.80524 0.01906 0.14786 0.0
H77 H 0.83786 0.00962 0.10723 0.0
H78 H 0.82111 0.03726 0.92389 0.0
H79 H 0.78894 0.04733 0.96452 0.0
H80 H 0.75167 0.07536 0.94407 0.0
H81 H 0.72508 0.08943 0.87398 0.0
H82 H 0.68448 0.09208 0.02892 0.0
H83 H 0.71116 0.07888 0.0985 0.0
H84 H 0.72823 0.06044 0.23801 0.0
H85 H 0.70852 0.04287 0.33348 0.0
H86 H 0.73075 0.97804 0.32705 0.0
H87 H 0.75084 0.99584 0.23102 0.0
N88 N 0.76788 0.03271 0.14295 0.0
N89 N 0.7643 0.05537 0.04747 0.0
N90 N 0.73974 0.05385 0.12761 0.0
C91 C 0.77517 0.04096 0.08423 0.0
C92 C 0.74661 0.06195 0.06886 0.0
C93 C 0.75019 0.03927 0.1649 0.0
C94 C 0.79451 0.03412 0.05964 0.0
C95 C 0.80846 0.02304 0.09886 0.0
C96 C 0.82713 0.0175 0.07545 0.0
C97 C 0.8322 0.02276 0.01222 0.0
C98 C 0.81797 0.03337 0.97293 0.0
C99 C 0.79942 0.03905 0.99633 0.0
C100 C 0.73326 0.07532 0.02694 0.0
C101 C 0.73735 0.07957 0.96322 0.0
C102 C 0.72207 0.08758 0.92295 0.0
C103 C 0.70241 0.09145 0.94562 0.0
C104 C 0.69944 0.08944 0.00953 0.0
C105 C 0.7147 0.08153 0.04967 0.0
C106 C 0.74103 0.0295 0.22701 0.0
C107 C 0.72924 0.04257 0.25743 0.0
C108 C 0.62485 0.7233 0.23184 0.0
C109 C 0.61401 0.7274 0.17613 0.0
C110 C 0.60971 0.75 0.15722 0.0
C111 C 0.61304 0.76684 0.19737 0.0
H112 H 0.61959 0.83968 0.24914 0.0
H113 H 0.60517 0.87241 0.19789 0.0
H114 H 0.54974 0.85383 0.32352 0.0
H115 H 0.56411 0.81993 0.37399 0.0
H116 H 0.56591 0.76342 0.48291 0.0
H117 H 0.55464 0.7299 0.56468 0.0
H118 H 0.61653 0.70945 0.54491 0.0
H119 H 0.62785 0.74313 0.46681 0.0
H120 H 0.6343 0.7354 0.31744 0.0
H121 H 0.62902 0.70629 0.24673 0.0
H122 H 0.60151 0.75385 0.11438 0.0
H123 H 0.60741 0.78314 0.18386 0.0
N124 N 0.6093 0.79497 0.29267 0.0
N125 N 0.59585 0.79211 0.39349 0.0
N126 N 0.61212 0.7624 0.36437 0.0
C127 C 0.59989 0.80442 0.33557 0.0
C128 C 0.60255 0.77116 0.40819 0.0
C129 C 0.6154 0.77398 0.30652 0.0
C130 C 0.5929 0.82703 0.31532 0.0
C131 C 0.60448 0.84272 0.26668 0.0
C132 C 0.59624 0.86175 0.23743 0.0
C133 C 0.57615 0.86589 0.25606 0.0
C134 C 0.56511 0.85101 0.30726 0.0
C135 C 0.57345 0.83177 0.33679 0.0
C136 C 0.59769 0.75582 0.4682 0.0
C137 C 0.57734 0.75224 0.49808 0.0
C138 C 0.57078 0.73274 0.54419 0.0
C139 C 0.58444 0.71647 0.56108 0.0
C140 C 0.60548 0.72142 0.53426 0.0
C141 C 0.612 0.74081 0.48885 0.0
C142 C 0.62045 0.76116 0.25718 0.0
C143 C 0.62796 0.74002 0.27224 0.0
C144 C 0.21756 0.56624 0.34069 0.0
C145 C 0.21868 0.54427 0.32337 0.0
C146 C 0.23506 0.53268 0.3486 0.0
C147 C 0.24884 0.54199 0.39397 0.0
H148 H 0.31047 0.54707 0.48541 0.0
H149 H 0.344 0.53494 0.52066 0.0
H150 H 0.33817 0.56101 0.6924 0.0
H151 H 0.30435 0.57284 0.65777 0.0
H152 H 0.25674 0.58343 0.68985 0.0
H153 H 0.22826 0.58802 0.75895 0.0
H154 H 0.19082 0.60975 0.6023 0.0
H155 H 0.21938 0.60604 0.53403 0.0
H156 H 0.22902 0.59175 0.40073 0.0
H157 H 0.20553 0.57594 0.32085 0.0
H158 H 0.23634 0.51573 0.33616 0.0
H159 H 0.2604 0.53197 0.41542 0.0
N160 N 0.27579 0.56359 0.49153 0.0
N161 N 0.27295 0.57884 0.58371 0.0
N162 N 0.24625 0.58086 0.50845 0.0
C163 C 0.28411 0.56827 0.54712 0.0
C164 C 0.25402 0.5853 0.56438 0.0
C165 C 0.25693 0.57005 0.47181 0.0
C166 C 0.30464 0.561 0.56862 0.0
C167 C 0.31626 0.55024 0.53074 0.0
C168 C 0.33559 0.54338 0.55081 0.0
C169 C 0.34379 0.54707 0.60926 0.0
C170 C 0.33215 0.55769 0.64737 0.0
C171 C 0.31282 0.56461 0.62726 0.0
C172 C 0.24006 0.59374 0.60637 0.0
C173 C 0.24275 0.58994 0.67031 0.0
C174 C 0.22634 0.5924 0.70993 0.0
C175 C 0.20696 0.59871 0.68631 0.0
C176 C 0.20545 0.60491 0.62249 0.0
C177 C 0.22181 0.60251 0.58306 0.0
C178 C 0.2463 0.56291 0.41499 0.0
C179 C 0.23111 0.57538 0.38621 0.0
C180 C 0.10053 0.25386 0.21861 0.0
C181 C 0.07983 0.24829 0.19196 0.0
C182 C 0.0635 0.26004 0.20675 0.0
C183 C 0.06715 0.2752 0.25164 0.0
H184 H 0.09064 0.35555 0.37535 0.0
H185 H 0.08054 0.38761 0.42207 0.0
H186 H 0.03575 0.3358 0.54542 0.0
H187 H 0.04668 0.3042 0.50085 0.0
H188 H 0.08717 0.27178 0.5752 0.0
H189 H 0.08265 0.23665 0.65215 0.0
H190 H 0.09627 0.19608 0.51295 0.0
H191 H 0.10195 0.23106 0.43789 0.0
H192 H 0.11952 0.27092 0.28755 0.0
H193 H 0.11346 0.2451 0.20877 0.0
H194 H 0.04747 0.25639 0.18639 0.0
H195 H 0.05368 0.28229 0.2661 0.0
N196 N 0.08018 0.30461 0.35769 0.0
N197 N 0.08421 0.29221 0.46323 0.0
N198 N 0.09385 0.27045 0.39113 0.0
C199 C 0.07866 0.30804 0.41745 0.0
C200 C 0.09194 0.27343 0.45047 0.0
C201 C 0.0881 0.28575 0.34462 0.0
C202 C 0.06952 0.32751 0.43489 0.0
C203 C 0.07832 0.35122 0.41159 0.0
C204 C 0.07254 0.36952 0.4385 0.0
C205 C 0.05769 0.36432 0.48865 0.0
C206 C 0.04778 0.34053 0.50844 0.0
C207 C 0.05382 0.32239 0.48241 0.0
C208 C 0.09435 0.25413 0.49994 0.0
C209 C 0.0898 0.25548 0.56156 0.0
C210 C 0.08702 0.23526 0.60562 0.0
C211 C 0.0885 0.21328 0.58875 0.0
C212 C 0.09508 0.21257 0.52831 0.0
C213 C 0.09815 0.23277 0.48468 0.0
C214 C 0.08709 0.27862 0.28279 0.0
C215 C 0.10406 0.26876 0.26373 0.0
C216 C 0.3335 0.00984 0.41337 0.0
C217 C 0.323 0.01794 0.36024 0.0
C218 C 0.3 0.01408 0.36025 0.0
C219 C 0.28778 1.00218 0.41262 0.0
H220 H 0.22756 0.99356 0.51966 0.0
H221 H 0.19295 1.00102 0.55271 0.0
H222 H 0.20273 0.96735 0.73621 0.0
H223 H 0.2368 0.95915 0.70274 0.0
H224 H 0.27728 0.93447 0.73157 0.0
H225 H 0.30165 0.91675 0.80282 0.0
H226 H 0.34532 0.91795 0.65142 0.0
H227 H 0.32086 0.93466 0.58093 0.0
H228 H 0.33011 0.99142 0.50469 0.0
H229 H 0.35117 0.01226 0.4145 0.0
H230 H 0.29152 0.02016 0.31976 0.0
H231 H 0.27009 0.99919 0.41149 0.0
N232 N 0.26619 0.98295 0.53559 0.0
N233 N 0.26595 0.95566 0.62555 0.0
N234 N 0.29554 0.96397 0.55667 0.0
C235 C 0.25604 0.97105 0.58876 0.0
C236 C 0.28561 0.95182 0.6093 0.0
C237 C 0.28609 0.97952 0.51964 0.0
C238 C 0.23494 0.97565 0.60838 0.0
C239 C 0.2223 0.98772 0.56703 0.0
C240 C 0.2025 0.99214 0.58614 0.0
C241 C 0.19498 0.9848 0.64722 0.0
C242 C 0.20775 0.97288 0.68858 0.0
C243 C 0.22739 0.96826 0.66935 0.0
C244 C 0.29744 0.93659 0.6508 0.0
C245 C 0.29178 0.93028 0.71343 0.0
C246 C 0.3058 0.92021 0.75432 0.0
C247 C 0.32571 0.91629 0.73325 0.0
C248 C 0.33015 0.9205 0.66971 0.0
C249 C 0.31619 0.93047 0.62908 0.0
C250 C 0.2984 0.99349 0.46503 0.0
C251 C 0.32138 0.99767 0.46489 0.0
C252 C 0.41393 0.28601 0.41897 0.0
C253 C 0.41479 0.27723 0.48171 0.0
C254 C 0.41203 0.25267 0.49931 0.0
C255 C 0.41161 0.23769 0.45496 0.0
H256 H 0.41816 0.17111 0.42989 0.0
H257 H 0.43052 0.13773 0.48534 0.0
H258 H 0.48199 0.14604 0.35013 0.0
H259 H 0.46995 0.18061 0.29509 0.0
H260 H 0.48108 0.25735 0.23013 0.0
H261 H 0.49281 0.29255 0.1536 0.0
H262 H 0.42859 0.28084 0.07389 0.0
H263 H 0.41676 0.24608 0.15161 0.0
H264 H 0.41473 0.27883 0.3268 0.0
H265 H 0.41592 0.30481 0.40352 0.0
H266 H 0.41197 0.24527 0.54736 0.0
H267 H 0.41141 0.21917 0.47025 0.0
N268 N 0.42602 0.21207 0.36739 0.0
N269 N 0.44444 0.21298 0.27446 0.0
N270 N 0.42793 0.24437 0.29058 0.0
C271 C 0.43726 0.20149 0.33135 0.0
C272 C 0.43919 0.23427 0.25358 0.0
C273 C 0.42135 0.2335 0.34771 0.0
C274 C 0.4432 0.17882 0.35821 0.0
C275 C 0.43203 0.16583 0.41132 0.0
C276 C 0.43902 0.14637 0.44306 0.0
C277 C 0.45734 0.13905 0.42258 0.0
C278 C 0.468 0.15135 0.3678 0.0
C279 C 0.46097 0.17103 0.33583 0.0
C280 C 0.44817 0.2488 0.19582 0.0
C281 C 0.46984 0.26168 0.1944 0.0
C282 C 0.47644 0.28196 0.15118 0.0
C283 C 0.46155 0.28946 0.10812 0.0
C284 C 0.44045 0.27535 0.10619 0.0
C285 C 0.43372 0.25537 0.15028 0.0
C286 C 0.41395 0.24707 0.39228 0.0
C287 C 0.41342 0.27105 0.37468 0.0
Nd288 Nd 0.00147 0.9986 0.76534 0.0
Nd289 Nd 0.02332 0.00649 0.88415 0.0
C290 C 0.97611 0.98062 0.67893 0.0
C291 C 0.97108 0.957 0.6582 0.0
C292 C 0.9601 0.93674 0.69678 0.0
C293 C 0.95713 0.91432 0.67828 0.0
C294 C 0.96514 0.91164 0.62093 0.0
C295 C 0.97561 0.93197 0.58182 0.0
C296 C 0.97847 0.95438 0.60016 0.0
C297 C 0.04616 0.00465 0.75973 0.0
C298 C 0.00798 0.95295 0.8663 0.0
C299 C 0.04851 0.02457 0.97058 0.0
C300 C 0.0535 0.04844 0.9896 0.0
C301 C 0.05949 0.06893 0.94619 0.0
C302 C 0.06246 0.09142 0.96414 0.0
C303 C 0.0594 0.09395 0.02582 0.0
C304 C 0.05373 0.07342 0.06928 0.0
C305 C 0.05085 0.05092 0.05134 0.0
C306 C 0.97869 0.99996 0.88974 0.0
C307 C 0.01781 0.05216 0.78142 0.0
O308 O 0.96871 0.98227 0.7331 0.0
O309 O 0.9961 0.99275 0.66832 0.0
O310 O 0.03465 0.01377 0.71704 0.0
O311 O 0.03409 0.99226 0.80285 0.0
O312 O 0.99608 0.96147 0.82208 0.0
O313 O 0.02311 0.96709 0.89374 0.0
O314 O 0.05603 0.02258 0.91682 0.0
O315 O 0.02846 0.0126 0.9812 0.0
O316 O 0.99028 0.99052 0.93173 0.0
O317 O 0.99063 0.01276 0.84676 0.0
O318 O 0.0286 0.04369 0.82834 0.0
O319 O 0.00328 0.03826 0.75174 0.0
H320 H 0.95416 0.93809 0.7418 0.0
H321 H 0.94911 0.89901 0.70964 0.0
H322 H 0.98165 0.93057 0.53694 0.0
H323 H 0.98686 0.96967 0.56933 0.0
H324 H 0.06149 0.06765 0.89809 0.0
H325 H 0.06658 0.10683 0.92936 0.0
H326 H 0.05152 0.07473 0.11728 0.0
H327 H 0.04618 0.03542 0.08562 0.0
Nd328 Nd 0.52347 0.98297 0.80489 0.0
Nd329 Nd 0.50441 0.01632 0.86998 0.0
C330 C 0.54079 0.95086 0.7616 0.0
C331 C 0.56096 0.95353 0.72546 0.0
C332 C 0.56731 0.93387 0.70728 0.0
C333 C 0.58645 0.93688 0.67202 0.0
C334 C 0.59952 0.95962 0.6547 0.0
C335 C 0.59298 0.9792 0.67336 0.0
C336 C 0.57392 0.97618 0.70831 0.0
C337 C 0.51125 0.01931 0.72785 0.0
C338 C 0.5557 0.03151 0.8248 0.0
C339 C 0.48869 0.05008 0.9107 0.0
C340 C 0.47023 0.05153 0.95044 0.0
C341 C 0.44949 0.05254 0.9257 0.0
C342 C 0.43196 0.05313 0.96379 0.0
C343 C 0.43481 0.05286 0.0274 0.0
C344 C 0.45568 0.05241 0.05181 0.0
C345 C 0.47319 0.05185 0.01378 0.0
C346 C 0.51701 0.98027 0.94732 0.0
C347 C 0.47215 0.96744 0.85197 0.0
O348 O 0.54363 0.95562 0.81787 0.0
O349 O 0.52547 0.9603 0.7334 0.0
O350 O 0.52895 0.01174 0.72022 0.0
O351 O 0.5004 0.00744 0.77388 0.0
O352 O 0.55481 0.00917 0.81953 0.0
O353 O 0.53794 0.0392 0.83584 0.0
O354 O 0.48383 0.04325 0.8571 0.0
O355 O 0.50453 0.04108 0.93747 0.0
O356 O 0.49941 0.98795 0.95563 0.0
O357 O 0.52767 0.9921 0.9009 0.0
O358 O 0.47308 0.98955 0.85995 0.0
O359 O 0.48968 0.95999 0.83711 0.0
H360 H 0.55747 0.91625 0.72017 0.0
H361 H 0.59109 0.92142 0.65871 0.0
H362 H 0.60235 0.997 0.65989 0.0
H363 H 0.56918 0.9916 0.72151 0.0
H364 H 0.44671 0.05269 0.87694 0.0
H365 H 0.41618 0.05381 0.94337 0.0
H366 H 0.45843 0.0519 0.10066 0.0
H367 H 0.48899 0.05134 0.03428 0.0
Nd368 Nd 0.50192 0.50939 0.86921 0.0
Nd369 Nd 0.52624 0.49383 0.77353 0.0
C370 C 0.48213 0.53392 0.93316 0.0
C371 C 0.49213 0.55692 0.95134 0.0
C372 C 0.48208 0.56698 0.99419 0.0
C373 C 0.49331 0.58774 0.01515 0.0
C374 C 0.51456 0.59862 0.99295 0.0
C375 C 0.52419 0.58869 0.9489 0.0
C376 C 0.51318 0.56797 0.92885 0.0
C377 C 0.54219 0.50124 0.90619 0.0
C378 C 0.53258 0.54907 0.76719 0.0
C379 C 0.54748 0.47037 0.71065 0.0
C380 C 0.5394 0.44693 0.6911 0.0
C381 C 0.53308 0.4266 0.73489 0.0
C382 C 0.52009 0.40603 0.71799 0.0
C383 C 0.51314 0.40543 0.65714 0.0
C384 C 0.52109 0.42501 0.61246 0.0
C385 C 0.53418 0.44554 0.62926 0.0
C386 C 0.48611 0.50218 0.73665 0.0
C387 C 0.49441 0.45384 0.87464 0.0
O388 O 0.47945 0.53392 0.8741 0.0
O389 O 0.49087 0.51652 0.95852 0.0
O390 O 0.52491 0.49574 0.94101 0.0
O391 O 0.53837 0.51181 0.85445 0.0
O392 O 0.51419 0.5431 0.79958 0.0
O393 O 0.54368 0.53289 0.75876 0.0
O394 O 0.55011 0.47079 0.7697 0.0
O395 O 0.53793 0.4871 0.68463 0.0
O396 O 0.50341 0.50778 0.70165 0.0
O397 O 0.48986 0.49144 0.78831 0.0
O398 O 0.51155 0.45895 0.83696 0.0
O399 O 0.48471 0.47052 0.88813 0.0
H400 H 0.46594 0.55849 0.01258 0.0
H401 H 0.48557 0.59506 0.04933 0.0
H402 H 0.54073 0.59628 0.93212 0.0
H403 H 0.52155 0.56007 0.89749 0.0
H404 H 0.53689 0.42699 0.78298 0.0
H405 H 0.5143 0.39117 0.75338 0.0
H406 H 0.51642 0.4248 0.56487 0.0
H407 H 0.53898 0.46086 0.59452 0.0
Nd408 Nd 0.00649 0.51752 0.78752 0.0
Nd409 Nd 0.02154 0.48073 0.87519 0.0
C410 C 0.98263 0.54577 0.72866 0.0
C411 C 0.96209 0.53993 0.69539 0.0
C412 C 0.94923 0.55677 0.67916 0.0
C413 C 0.92931 0.55058 0.64928 0.0
C414 C 0.92197 0.52739 0.63565 0.0
C415 C 0.93505 0.51066 0.65208 0.0
C416 C 0.95487 0.51686 0.68167 0.0
C417 C 0.02311 0.48587 0.73087 0.0
C418 C 0.97183 0.46758 0.83944 0.0
C419 C 0.04531 0.45302 0.93643 0.0
C420 C 0.06412 0.45988 0.97558 0.0
C421 C 0.07751 0.4441 0.99751 0.0
C422 C 0.09526 0.45125 0.03523 0.0
C423 C 0.09965 0.4742 0.05158 0.0
C424 C 0.0864 0.49002 0.02821 0.0
C425 C 0.06885 0.48294 0.99062 0.0
C426 C 0.00512 0.51263 0.9318 0.0
C427 C 0.05637 0.53055 0.82297 0.0
O428 O 0.98116 0.53902 0.788 0.0
O429 O -0.00024 0.54091 0.70408 0.0
O430 O 0.02623 0.50829 0.71061 0.0
O431 O 0.01072 0.48056 0.77761 0.0
O432 O 0.97476 0.49044 0.81914 0.0
O433 O 0.98855 0.45779 0.85628 0.0
O434 O 0.04848 0.46117 0.87804 0.0
O435 O 0.02662 0.4557 0.95709 0.0
O436 O 0.00172 0.49017 0.9516 0.0
O437 O 0.01757 0.51777 0.88519 0.0
O438 O 0.05335 0.50776 0.8441 0.0
O439 O 0.03975 0.54034 0.80484 0.0
H440 H 0.95451 0.57461 0.68989 0.0
H441 H 0.91955 0.56382 0.6376 0.0
H442 H 0.93013 0.49278 0.64134 0.0
H443 H 0.96458 0.50358 0.694 0.0
H444 H 0.07415 0.42629 0.98588 0.0
H445 H 0.10522 0.43872 0.05273 0.0
H446 H 0.08961 0.50794 0.03903 0.0
H447 H 0.05883 0.49547 0.97347 0.0
H448 H 0.17721 0.02397 0.61301 0.0
H449 H 0.07005 0.97567 0.82586 0.0
H450 H 0.16444 0.95606 0.72843 0.0
H451 H 0.07457 0.03144 0.67219 0.0
H452 H 0.10735 0.97208 0.80266 0.0
H453 H 0.14195 0.03039 0.64503 0.0
C454 C 0.16701 0.01035 0.64487 0.0
C455 C 0.17385 0.98935 0.66767 0.0
C456 C 0.1002 0.98518 0.77426 0.0
C457 C 0.13362 0.99688 0.7055 0.0
C458 C 0.07899 0.98731 0.78764 0.0
C459 C 0.06923 0.00373 0.75047 0.0
C460 C 0.11173 0.99976 0.7238 0.0
C461 C 0.08149 0.01841 0.7016 0.0
C462 C 0.14694 0.01413 0.66344 0.0
C463 C 0.16007 0.97265 0.7101 0.0
N464 N 0.1021 0.01605 0.68955 0.0
N465 N 0.14063 0.97676 0.72754 0.0
H466 H 0.50019 0.1353 0.44345 0.0
H467 H 0.47037 0.02943 0.72052 0.0
H468 H 0.43383 0.0985 0.49038 0.0
H469 H 0.53392 0.04862 0.63186 0.0
H470 H 0.45724 0.05741 0.6423 0.0
H471 H 0.51347 0.10566 0.51579 0.0
C472 C 0.48838 0.12086 0.46813 0.0
C473 C 0.46579 0.11965 0.46091 0.0
C474 C 0.47405 0.05545 0.63988 0.0
C475 C 0.48097 0.08599 0.54529 0.0
C476 C 0.48156 0.03959 0.68467 0.0
C477 C 0.50323 0.03669 0.68245 0.0
C478 C 0.4884 0.06875 0.59306 0.0
C479 C 0.51706 0.05029 0.63503 0.0
C480 C 0.496 0.10404 0.50988 0.0
C481 C 0.45136 0.1006 0.49524 0.0
N482 N 0.50945 0.06581 0.59236 0.0
N483 N 0.45918 0.08472 0.53625 0.0
H484 H 0.35342 0.52562 0.72296 0.0
H485 H 0.476 0.52408 0.62592 0.0
H486 H 0.38157 0.55279 0.54253 0.0
H487 H 0.44829 0.49399 0.80517 0.0
H488 H 0.44134 0.53487 0.59544 0.0
H489 H 0.38792 0.51433 0.75516 0.0
C490 C 0.36688 0.52931 0.6902 0.0
C491 C 0.36457 0.54012 0.62988 0.0
C492 C 0.44275 0.52586 0.64142 0.0
C493 C 0.404 0.52709 0.66627 0.0
C494 C 0.46254 0.51967 0.65882 0.0
C495 C 0.46494 0.50807 0.71804 0.0
C496 C 0.42518 0.52047 0.68363 0.0
C497 C 0.44703 0.50285 0.75894 0.0
C498 C 0.38651 0.52274 0.70852 0.0
C499 C 0.38247 0.5442 0.5892 0.0
N500 N 0.42786 0.50913 0.74099 0.0
N501 N 0.40139 0.53771 0.60815 0.0
H502 H 0.05419 0.41012 0.44367 0.0
H503 H 0.01957 0.43862 0.76843 0.0
H504 H 0.05185 0.36183 0.6128 0.0
H505 H 0.04035 0.49311 0.61453 0.0
H506 H 0.02865 0.40944 0.70919 0.0
H507 H 0.04681 0.44028 0.50264 0.0
C508 C 0.05221 0.40583 0.49305 0.0
C509 C 0.05339 0.3832 0.52299 0.0
C510 C 0.0313 0.42779 0.68839 0.0
C511 C 0.04468 0.41757 0.59059 0.0
C512 C 0.02608 0.44442 0.72216 0.0
C513 C 0.0292 0.46826 0.69625 0.0
C514 C 0.03947 0.43501 0.62797 0.0
C515 C 0.03773 0.47487 0.63618 0.0
C516 C 0.04792 0.42305 0.52665 0.0
C517 C 0.0505 0.37872 0.58721 0.0
N518 N 0.04245 0.4583 0.60386 0.0
N519 N 0.04619 0.39565 0.61864 0.0
H520 H 0.85985 0.04985 0.92133 0.0
H521 H 0.95074 0.97201 0.97637 0.0
H522 H 0.85112 0.98447 0.04683 0.0
H523 H 0.95428 0.02937 0.82721 0.0
H524 H 0.91377 0.97571 1.00094 0.0
H525 H 0.89391 0.04223 0.88434 0.0
C526 C 0.86492 0.03374 0.94068 0.0
C527 C 0.85255 0.01782 0.98757 0.0
C528 C 0.92251 0.98737 0.96248 0.0
C529 C 0.89185 0.00922 0.94595 0.0
C530 C 0.94362 0.98527 0.94847 0.0
C531 C 0.95559 1.00055 0.90008 0.0
C532 C 0.91338 0.00507 0.92824 0.0
C533 C 0.94559 0.01731 0.86508 0.0
C534 C 0.88446 0.02947 0.91965 0.0
C535 C 0.86025 0.99748 0.01148 0.0
N536 N 0.92511 0.01931 0.88029 0.0
N537 N 0.87945 0.99385 0.99068 0.0
H538 H 0.5327 0.86485 0.22867 0.0
H539 H 0.55875 0.97269 0.95746 0.0
H540 H 0.59714 0.90941 0.19645 0.0
H541 H 0.49465 0.94989 0.04223 0.0
H542 H 0.57277 0.94604 0.03733 0.0
H543 H 0.51788 0.89314 0.15572 0.0
C544 C 0.54373 0.88069 0.20721 0.0
C545 C 0.56633 0.88447 0.21856 0.0
C546 C 0.55564 0.94691 0.0385 0.0
C547 C 0.54945 0.91654 0.13333 0.0
C548 C 0.54762 0.96199 0.99275 0.0
C549 C 0.52554 0.96353 0.99347 0.0
C550 C 0.5414 0.93294 0.08463 0.0
C551 C 0.51182 0.94928 0.04026 0.0
C552 C 0.53524 0.89674 0.16508 0.0
C553 C 0.57973 0.90528 0.18824 0.0
N554 N 0.51993 0.93446 0.08381 0.0
N555 N 0.57115 0.92031 0.14658 0.0
H556 H 0.67667 0.48295 0.93348 0.0
H557 H 0.55203 0.48054 0.0183 0.0
H558 H 0.64692 0.45653 0.11236 0.0
H559 H 0.58072 0.51025 0.83991 0.0
H560 H 0.58694 0.47139 0.05223 0.0
H561 H 0.64192 0.4926 0.89679 0.0
C562 C 0.66282 0.4791 0.96496 0.0
C563 C 0.66474 0.46899 0.02619 0.0
C564 C 0.58571 0.47995 0.00566 0.0
C565 C 0.62504 0.48011 0.98465 0.0
C566 C 0.56576 0.4852 0.98627 0.0
C567 C 0.56355 0.49623 0.9263 0.0
C568 C 0.60367 0.4857 0.96478 0.0
C569 C 0.58182 0.5018 0.88664 0.0
C570 C 0.64304 0.48473 0.94407 0.0
C571 C 0.64633 0.46463 0.06509 0.0
N572 N 0.60118 0.49645 0.90658 0.0
N573 N 0.62731 0.47018 0.04366 0.0
H574 H 0.9682 0.58319 0.22316 0.0
H575 H 0.01521 0.56083 0.90428 0.0
H576 H 0.9981 0.63886 0.08048 0.0
H577 H 0.98401 0.50441 0.04308 0.0
H578 H 0.00865 0.58966 0.96845 0.0
H579 H 0.97353 0.55391 0.15843 0.0
C580 C 0.9759 0.58927 0.17838 0.0
C581 C 0.98291 0.61357 0.15767 0.0
C582 C 0.00317 0.57098 0.98491 0.0
C583 C 0.98905 0.58017 0.08329 0.0
C584 C 0.00689 0.55454 0.9482 0.0
C585 C 0.00021 0.53024 0.96854 0.0
C586 C 0.99271 0.56308 0.0425 0.0
C587 C 0.98947 0.52302 0.02577 0.0
C588 C 0.97898 0.57255 0.14147 0.0
C589 C 0.99287 0.62037 0.09919 0.0
N590 N 0.98611 0.53936 0.06086 0.0
N591 N 0.99562 0.60381 0.06423 0.0
H592 H 0.10331 0.17164 0.59833 0.0
H593 H 0.02766 0.08891 0.84752 0.0
H594 H 0.05481 0.20312 0.67396 0.0
H595 H 0.02493 0.07208 0.66259 0.0
H596 H 0.04593 0.12989 0.808 0.0
H597 H 0.0841 0.13283 0.64833 0.0
C598 C 0.08883 0.17055 0.62583 0.0
C599 C 0.08041 0.19076 0.63039 0.0
C600 C 0.04099 0.1172 0.77635 0.0
C601 C 0.05907 0.14659 0.68927 0.0
C602 C 0.03055 0.09402 0.79855 0.0
C603 C 0.02464 0.07738 0.75788 0.0
C604 C 0.04615 0.12324 0.71368 0.0
C605 C 0.02894 0.08458 0.69506 0.0
C606 C 0.078 0.14843 0.65437 0.0
C607 C 0.06202 0.18819 0.66896 0.0
N608 N 0.03987 0.10697 0.67486 0.0
N609 N 0.05185 0.16641 0.6968 0.0
H610 H 0.33584 0.93449 0.84072 0.0
H611 H 0.45899 0.92614 0.80264 0.0
H612 H 0.35689 0.88958 0.72428 0.0
H613 H 0.436 0.97185 0.91262 0.0
H614 H 0.42122 0.90419 0.79578 0.0
H615 H 0.37082 0.93845 0.89172 0.0
C616 C 0.3475 0.9248 0.82695 0.0
C617 C 0.34357 0.91231 0.7765 0.0
C618 C 0.42452 0.91872 0.82246 0.0
C619 C 0.38426 0.91767 0.83345 0.0
C620 C 0.44608 0.93123 0.82641 0.0
C621 C 0.45051 0.95121 0.85684 0.0
C622 C 0.40743 0.9263 0.84925 0.0
C623 C 0.43322 0.95693 0.88728 0.0
C624 C 0.36769 0.92733 0.85581 0.0
C625 C 0.35951 0.90019 0.7613 0.0
N626 N 0.41244 0.94477 0.88195 0.0
N627 N 0.3794 0.9037 0.78846 0.0
H628 H 0.40511 0.32069 0.48957 0.0
H629 H 0.51031 0.35787 0.69344 0.0
H630 H 0.44424 0.27219 0.57323 0.0
H631 H 0.47711 0.40746 0.58657 0.0
H632 H 0.48199 0.32528 0.66612 0.0
H633 H 0.4266 0.35151 0.54323 0.0
C634 C 0.4179 0.31637 0.52012 0.0
C635 C 0.42308 0.2939 0.52595 0.0
C636 C 0.48086 0.34331 0.64889 0.0
C637 C 0.4478 0.32908 0.58709 0.0
C638 C 0.49702 0.36188 0.66442 0.0
C639 C 0.49627 0.38536 0.64129 0.0
C640 C 0.46378 0.34828 0.61026 0.0
C641 C 0.47864 0.38959 0.60406 0.0
C642 C 0.4302 0.33398 0.55062 0.0
C643 C 0.43956 0.28918 0.56722 0.0
N644 N 0.46317 0.37123 0.58945 0.0
N645 N 0.45155 0.30673 0.5954 0.0
H646 H 0.17474 0.62493 0.68008 0.0
H647 H 0.09269 0.51849 0.87745 0.0
H648 H 0.19322 0.56322 0.78153 0.0
H649 H 0.07157 0.57506 0.75964 0.0
H650 H 0.13049 0.53968 0.86086 0.0
H651 H 0.1382 0.61201 0.7271 0.0
C652 C 0.17129 0.60891 0.71302 0.0
C653 C 0.18704 0.59491 0.72575 0.0
C654 C 0.11762 0.54762 0.83905 0.0
C655 C 0.14528 0.58012 0.77983 0.0
C656 C 0.09599 0.53549 0.84837 0.0
C657 C 0.07896 0.54481 0.81886 0.0
C658 C 0.12237 0.56918 0.79939 0.0
C659 C 0.08422 0.56712 0.78272 0.0
C660 C 0.15042 0.60158 0.73988 0.0
C661 C 0.18175 0.57467 0.77006 0.0
N662 N 0.10552 0.57841 0.77322 0.0
N663 N 0.16126 0.56772 0.79468 0.0
H664 H 0.93956 0.81028 0.97573 0.0
H665 H 0.03212 0.92695 0.94262 0.0
H666 H 0.00593 0.81013 0.03239 0.0
H667 H 0.9737 0.92013 0.83324 0.0
H668 H 0.02293 0.8842 0.977 0.0
H669 H 0.95174 0.85065 0.92244 0.0
C670 C 0.95675 0.81867 0.976 0.0
C671 C 0.97178 0.807 0.00837 0.0
C672 C 0.01228 0.8921 0.94496 0.0
C673 C 0.98574 0.85312 0.94897 0.0
C674 C 0.01745 0.91648 0.92564 0.0
C675 C 0.00358 0.92713 0.88544 0.0
C676 C 0.99297 0.87845 0.92454 0.0
C677 C 0.98485 0.9127 0.86443 0.0
C678 C 0.96371 0.84164 0.94567 0.0
C679 C 0.99388 0.81852 0.00747 0.0
N680 N 0.97998 0.88915 0.88474 0.0
N681 N 0.00017 0.84113 0.97903 0.0
H682 H 0.67092 0.11792 0.95138 0.0
H683 H 0.56629 0.07666 0.85458 0.0
H684 H 0.69023 0.06815 0.84719 0.0
H685 H 0.5945 0.02349 0.78731 0.0
H686 H 0.60296 0.10032 0.86371 0.0
H687 H 0.63504 0.11066 0.90514 0.0
C688 C 0.66778 0.10589 0.91756 0.0
C689 C 0.68348 0.09315 0.90461 0.0
C690 C 0.60128 0.08352 0.84699 0.0
C691 C 0.64225 0.08472 0.85054 0.0
C692 C 0.58021 0.07005 0.84129 0.0
C693 C 0.57735 0.04774 0.82192 0.0
C694 C 0.61955 0.07445 0.83359 0.0
C695 C 0.59591 0.04029 0.80409 0.0
C696 C 0.64717 0.10177 0.8907 0.0
C697 C 0.6787 0.07831 0.85916 0.0
N698 N 0.61617 0.05345 0.81114 0.0
N699 N 0.65841 0.07416 0.83486 0.0
H700 H 0.60883 0.72511 0.05213 0.0
H701 H 0.51925 0.60412 0.11377 0.0
H702 H 0.59264 0.68408 0.23091 0.0
H703 H 0.54055 0.63869 0.93175 0.0
H704 H 0.54507 0.63485 0.15702 0.0
H705 H 0.584 0.69413 0.00591 0.0
C706 C 0.60036 0.70945 0.08151 0.0
C707 C 0.60289 0.7072 0.14546 0.0
C708 C 0.54406 0.63579 0.10757 0.0
C709 C 0.57426 0.67201 0.09324 0.0
C710 C 0.5291 0.61843 0.08292 0.0
C711 C 0.52778 0.61889 0.01917 0.0
C712 C 0.55776 0.65381 0.06817 0.0
C713 C 0.54122 0.63762 0.98125 0.0
C714 C 0.58615 0.69184 0.05518 0.0
C715 C 0.59155 0.68649 0.18135 0.0
N716 N 0.55571 0.65433 0.00634 0.0
N717 N 0.57761 0.66985 0.15481 0.0
H718 H 0.83414 0.43936 0.88457 0.0
H719 H 0.95719 0.42326 0.90421 0.0
H720 H 0.85508 0.38382 0.00708 0.0
H721 H 0.9349 0.47973 0.78923 0.0
H722 H 0.91897 0.4033 0.92618 0.0
H723 H 0.86933 0.44818 0.83174 0.0
C724 C 0.84587 0.42854 0.8995 0.0
C725 C 0.8417 0.4111 0.95137 0.0
C726 C 0.92249 0.41987 0.89536 0.0
C727 C 0.88256 0.42179 0.89201 0.0
C728 C 0.94429 0.43125 0.88276 0.0
C729 C 0.94923 0.45341 0.84582 0.0
C730 C 0.90558 0.43076 0.87072 0.0
C731 C 0.93188 0.46289 0.81892 0.0
C732 C 0.86616 0.4338 0.86957 0.0
C733 C 0.85779 0.3979 0.96849 0.0
N734 N 0.91087 0.45166 0.83247 0.0
N735 N 0.87767 0.40381 0.93967 0.0
H736 H 0.04287 0.21317 0.20015 0.0
H737 H 0.09073 0.13408 0.98902 0.0
H738 H 0.1052 0.23624 0.10514 0.0
H739 H 0.03324 0.10848 0.10499 0.0
H740 H 0.0943 0.17311 0.02146 0.0
H741 H 0.03681 0.17669 0.15453 0.0
C742 C 0.0551 0.21083 0.16863 0.0
C743 C 0.07461 0.22789 0.1566 0.0
C744 C 0.08088 0.15896 0.03969 0.0
C745 C 0.06796 0.18568 0.10516 0.0
C746 C 0.07878 0.13669 0.02102 0.0
C747 C 0.06173 0.11788 0.04458 0.0
C748 C 0.06573 0.16257 0.08196 0.0
C749 C 0.04684 0.1223 0.08636 0.0
C750 C 0.05173 0.18981 0.14315 0.0
C751 C 0.09002 0.22351 0.11627 0.0
N752 N 0.04919 0.14413 0.10366 0.0
N753 N 0.08643 0.20282 0.0923 0.0
H754 H 0.36004 0.05277 0.35132 0.0
H755 H 0.39254 0.02785 0.02206 0.0
H756 H 0.31663 0.0076 0.2429 0.0
H757 H 0.43414 0.07603 0.1273 0.0
H758 H 0.36286 0.02395 0.09612 0.0
H759 H 0.38547 0.06534 0.26401 0.0
C760 C 0.35574 0.04577 0.3087 0.0
C761 C 0.33633 0.02894 0.30445 0.0
C762 C 0.37841 0.03556 0.10269 0.0
C763 C 0.36548 0.043 0.20446 0.0
C764 C 0.39536 0.0379 0.0602 0.0
C765 C 0.416 0.05209 0.06874 0.0
C766 C 0.3821 0.04741 0.15433 0.0
C767 C 0.41869 0.06448 0.11951 0.0
C768 C 0.37026 0.05293 0.25886 0.0
C769 C 0.33142 0.02064 0.24803 0.0
N770 N 0.40203 0.06168 0.16058 0.0
N771 N 0.34606 0.02748 0.20047 0.0
H772 H 0.47618 0.33139 0.15053 0.0
H773 H 0.49585 0.41312 0.82863 0.0
H774 H 0.45834 0.30205 0.98332 0.0
H775 H 0.4769 0.43846 0.98995 0.0
H776 H 0.48733 0.3725 0.88361 0.0
H777 H 0.48251 0.37124 0.09195 0.0
C778 C 0.47388 0.33336 0.10129 0.0
C779 C 0.4669 0.31342 0.07156 0.0
C780 C 0.48488 0.38696 0.90669 0.0
C781 C 0.47408 0.35894 0.00439 0.0
C782 C 0.48978 0.41009 0.87548 0.0
C783 C 0.48707 0.42913 0.90483 0.0
C784 C 0.47779 0.38296 0.96822 0.0
C785 C 0.47905 0.42426 0.9655 0.0
C786 C 0.47727 0.35608 0.06807 0.0
C787 C 0.46378 0.31699 0.00783 0.0
N788 N 0.47499 0.40169 0.9955 0.0
N789 N 0.46759 0.33933 0.97615 0.0
H790 H 0.17493 0.54247 0.33012 0.0
H791 H 0.14225 0.46833 0.05098 0.0
H792 H 0.22276 0.51888 0.22881 0.0
H793 H 0.09753 0.49739 0.14925 0.0
H794 H 0.17179 0.48392 0.11875 0.0
H795 H 0.1463 0.52376 0.26665 0.0
C796 C 0.17947 0.53355 0.29395 0.0
C797 C 0.20137 0.53263 0.28411 0.0
C798 C 0.15548 0.48678 0.12548 0.0
C799 C 0.16837 0.5106 0.21145 0.0
C800 C 0.13863 0.47779 0.08713 0.0
C801 C 0.11749 0.48181 0.0942 0.0
C802 C 0.15102 0.49969 0.17129 0.0
C803 C 0.11367 0.49425 0.14148 0.0
C804 C 0.16303 0.52266 0.25794 0.0
C805 C 0.20609 0.52007 0.23785 0.0
N806 N 0.13024 0.50277 0.17796 0.0
N807 N 0.18971 0.50962 0.20292 0.0
H808 H 0.91573 0.77251 0.51688 0.0
H809 H 0.99604 0.8943 0.56538 0.0
H810 H 0.98475 0.78896 0.47264 0.0
H811 H 0.92954 0.87439 0.6344 0.0
H812 H 0.99217 0.85541 0.53271 0.0
H813 H 0.92046 0.80895 0.56321 0.0
C814 C 0.93192 0.78363 0.51756 0.0
C815 C 0.94986 0.77763 0.49068 0.0
C816 C 0.97843 0.85946 0.55524 0.0
C817 C 0.95536 0.81954 0.54309 0.0
C818 C 0.98058 0.88176 0.57349 0.0
C819 C 0.96303 0.88773 0.60229 0.0
C820 C 0.95852 0.84293 0.56531 0.0
C821 C 0.94353 0.87055 0.61263 0.0
C822 C 0.93462 0.80443 0.54404 0.0
C823 C 0.97049 0.79266 0.49334 0.0
N824 N 0.94174 0.84901 0.59376 0.0
N825 N 0.97262 0.81299 0.51839 0.0
H826 H 0.68949 0.96607 0.35396 0.0
H827 H 0.63891 0.98991 0.66515 0.0
H828 H 0.71419 0.02701 0.44416 0.0
H829 H 0.60592 0.93775 0.55568 0.0
H830 H 0.67015 0.99906 0.59434 0.0
H831 H 0.66259 0.95075 0.43762 0.0
C832 C 0.68953 0.97599 0.39199 0.0
C833 C 0.70398 0.99792 0.392 0.0
C834 C 0.65615 0.98548 0.58601 0.0
C835 C 0.67318 0.98065 0.48734 0.0
C836 C 0.63824 0.98031 0.6263 0.0
C837 C 0.61957 0.96329 0.61589 0.0
C838 C 0.6555 0.97354 0.53478 0.0
C839 C 0.61995 0.95098 0.56564 0.0
C840 C 0.67407 0.96734 0.43942 0.0
C841 C 0.70316 0.01017 0.44203 0.0
N842 N 0.63754 0.9565 0.52662 0.0
N843 N 0.68795 1.00144 0.48746 0.0
H844 H 0.60775 0.69047 0.64219 0.0
H845 H 0.50814 0.58283 0.74392 0.0
H846 H 0.54261 0.68887 0.57137 0.0
H847 H 0.57416 0.57266 0.72893 0.0
H848 H 0.52042 0.62433 0.69946 0.0
H849 H 0.59541 0.64995 0.69355 0.0
C850 C 0.59085 0.68177 0.63736 0.0
C851 C 0.57635 0.69328 0.60112 0.0
C852 C 0.5322 0.61301 0.70595 0.0
C853 C 0.56206 0.64688 0.66173 0.0
C854 C 0.52526 0.58933 0.73144 0.0
C855 C 0.54015 0.57419 0.73987 0.0
C856 C 0.55431 0.62185 0.68989 0.0
C857 C 0.56211 0.58365 0.72276 0.0
C858 C 0.58385 0.6586 0.66697 0.0
C859 C 0.55445 0.68107 0.5989 0.0
N860 N 0.56858 0.60694 0.69892 0.0
N861 N 0.54801 0.65859 0.62861 0.0
H862 H 0.81325 0.44299 0.47147 0.0
H863 H 0.90505 0.55313 0.53926 0.0
H864 H 0.82113 0.51248 0.36588 0.0
H865 H 0.8912 0.48601 0.65779 0.0
H866 H 0.87248 0.53978 0.48017 0.0
H867 H 0.83982 0.45935 0.54493 0.0
C868 C 0.82042 0.46176 0.46417 0.0
C869 C 0.81511 0.47637 0.4123 0.0
C870 C 0.87645 0.52806 0.51947 0.0
C871 C 0.8457 0.49523 0.49584 0.0
C872 C 0.895 0.53572 0.55344 0.0
C873 C 0.90106 0.52056 0.60312 0.0
C874 C 0.86391 0.50503 0.5351 0.0
C875 C 0.88747 0.4981 0.61898 0.0
C876 C 0.83556 0.47112 0.50614 0.0
C877 C 0.82468 0.50061 0.40541 0.0
N878 N 0.86969 0.49095 0.58476 0.0
N879 N 0.83973 0.50924 0.44625 0.0
loop_
_geom_bond_atom_site_label_1
_geom_bond_atom_site_label_2
_geom_bond_distance
_geom_bond_site_symmetry_2
_ccdc_geom_bond_type
C0 C1 1.384 . S
C0 H13 0.947 . S
C0 C35 1.382 . S
C1 C0 1.384 . S
C1 C2 1.378 . S
C2 C1 1.378 . S
C2 C3 1.378 . S
C2 H14 0.952 . S
C3 C2 1.378 . S
C3 H15 0.950 . S
C3 C34 1.383 . S
H4 C23 0.947 . S
H5 C24 0.946 . S
H6 C26 0.953 . S
H7 C27 0.945 . S
H8 C29 0.952 . S
H9 C30 0.949 . S
H10 C32 0.950 . S
H11 C33 0.948 1_554 S
H12 C35 0.951 . S
H13 C0 0.947 . S
H14 C2 0.952 . S
H15 C3 0.950 . S
N16 C19 1.382 . S
N16 C21 1.363 . S
N17 C19 1.371 . S
N17 C20 1.372 . S
N18 C20 1.361 . S
N18 C21 1.377 . S
C19 N16 1.382 . S
C19 N17 1.371 . S
C19 C22 1.480 . S
C20 N17 1.372 . S
C20 N18 1.361 . S
C20 C28 1.457 1_554 S
C21 N16 1.363 . S
C21 N18 1.377 . S
C21 C34 1.479 . S
C22 C19 1.480 . S
C22 C23 1.383 . S
C22 C27 1.385 1_554 S
C23 H4 0.947 . S
C23 C22 1.383 . S
C23 C24 1.388 . S
C24 H5 0.946 . S
C24 C23 1.388 . S
C24 C25 1.384 . S
C25 C24 1.384 . S
C25 C26 1.377 1_554 S
C26 H6 0.953 . S
C26 C25 1.377 1_556 S
C26 C27 1.369 . S
C27 H7 0.945 . S
C27 C22 1.385 1_556 S
C27 C26 1.369 . S
C28 C20 1.457 1_556 S
C28 C29 1.372 . S
C28 C33 1.364 . S
C29 H8 0.952 . S
C29 C28 1.372 . S
C29 C30 1.389 . S
C30 H9 0.949 . S
C30 C29 1.389 . S
C30 C31 1.387 . S
C31 C30 1.387 . S
C31 C32 1.372 . S
C32 H10 0.950 . S
C32 C31 1.372 . S
C32 C33 1.379 . S
C33 H11 0.948 1_556 S
C33 C28 1.364 . S
C33 C32 1.379 . S
C34 C3 1.383 . S
C34 C21 1.479 . S
C34 C35 1.398 . S
C35 C0 1.382 . S
C35 H12 0.951 . S
C35 C34 1.398 . S
C36 C37 1.384 . S
C36 H49 0.947 . S
C36 C71 1.382 . S
C37 C36 1.384 . S
C37 C38 1.378 . S
C38 C37 1.378 . S
C38 C39 1.378 . S
C38 H50 0.952 . S
C39 C38 1.378 . S
C39 H51 0.950 . S
C39 C70 1.383 . S
H40 C59 0.947 . S
H41 C60 0.946 . S
H42 C62 0.953 . S
H43 C63 0.945 . S
H44 C65 0.952 . S
H45 C66 0.949 . S
H46 C68 0.950 . S
H47 C69 0.948 1_554 S
H48 C71 0.951 . S
H49 C36 0.947 . S
H50 C38 0.952 . S
H51 C39 0.950 . S
N52 C55 1.382 . S
N52 C57 1.363 . S
N53 C55 1.371 . S
N53 C56 1.372 . S
N54 C56 1.361 . S
N54 C57 1.377 . S
C55 N52 1.382 . S
C55 N53 1.371 . S
C55 C58 1.480 . S
C56 N53 1.372 . S
C56 N54 1.361 . S
C56 C64 1.457 1_554 S
C57 N52 1.363 . S
C57 N54 1.377 . S
C57 C70 1.479 . S
C58 C55 1.480 . S
C58 C59 1.383 . S
C58 C63 1.385 1_554 S
C59 H40 0.947 . S
C59 C58 1.383 . S
C59 C60 1.388 . S
C60 H41 0.946 . S
C60 C59 1.388 . S
C60 C61 1.384 . S
C61 C60 1.384 . S
C61 C62 1.377 1_554 S
C62 H42 0.953 . S
C62 C61 1.377 1_556 S
C62 C63 1.369 . S
C63 H43 0.945 . S
C63 C58 1.385 1_556 S
C63 C62 1.369 . S
C64 C56 1.457 1_556 S
C64 C65 1.372 . S
C64 C69 1.364 . S
C65 H44 0.952 . S
C65 C64 1.372 . S
C65 C66 1.389 . S
C66 H45 0.949 . S
C66 C65 1.389 . S
C66 C67 1.387 . S
C67 C66 1.387 . S
C67 C68 1.372 . S
C68 H46 0.950 . S
C68 C67 1.372 . S
C68 C69 1.379 . S
C69 H47 0.948 1_556 S
C69 C64 1.364 . S
C69 C68 1.379 . S
C70 C39 1.383 . S
C70 C57 1.479 . S
C70 C71 1.398 . S
C71 C36 1.382 . S
C71 H48 0.951 . S
C71 C70 1.398 . S
C72 C73 1.384 1_565 S
C72 H85 0.946 . S
C72 C107 1.383 1_565 S
C73 C72 1.384 1_545 S
C73 C74 1.378 . S
C74 C73 1.378 . S
C74 C75 1.378 . S
C74 H86 0.952 . S
C75 C74 1.378 . S
C75 H87 0.950 . S
C75 C106 1.383 . S
H76 C95 0.947 . S
H77 C96 0.957 . S
H78 C98 0.953 . S
H79 C99 0.945 . S
H80 C101 0.944 1_565 S
H81 C102 0.965 . S
H82 C104 0.950 . S
H83 C105 0.948 . S
H84 C107 0.951 1_565 S
H85 C72 0.946 . S
H86 C74 0.952 . S
H87 C75 0.950 . S
N88 C91 1.382 1_554 S
N88 C93 1.363 . S
N89 C91 1.371 . S
N89 C92 1.372 . S
N90 C92 1.361 1_554 S
N90 C93 1.377 . S
C91 N88 1.382 1_556 S
C91 N89 1.371 . S
C91 C94 1.480 . S
C92 N89 1.372 . S
C92 N90 1.361 1_556 S
C92 C100 1.457 . S
C93 N88 1.363 . S
C93 N90 1.377 . S
C93 C106 1.479 . S
C94 C91 1.480 . S
C94 C95 1.383 1_556 S
C94 C99 1.385 . S
C95 H76 0.947 . S
C95 C94 1.383 1_554 S
C95 C96 1.380 1_545 S
C96 H77 0.957 . S
C96 C95 1.380 1_565 S
C96 C97 1.381 1_564 S
C97 C96 1.381 1_546 S
C97 C98 1.377 . S
C98 H78 0.953 . S
C98 C97 1.377 . S
C98 C99 1.369 . S
C99 H79 0.945 . S
C99 C94 1.385 . S
C99 C98 1.369 . S
C100 C92 1.457 . S
C100 C101 1.381 . S
C100 C105 1.364 . S
C101 H80 0.944 1_545 S
C101 C100 1.381 . S
C101 C102 1.389 1_545 S
C102 H81 0.965 . S
C102 C101 1.389 1_565 S
C102 C103 1.372 1_565 S
C103 C102 1.372 1_545 S
C103 C104 1.372 . S
C104 H82 0.950 . S
C104 C103 1.372 . S
C104 C105 1.379 . S
C105 H83 0.948 . S
C105 C100 1.364 . S
C105 C104 1.379 . S
C106 C75 1.383 . S
C106 C93 1.479 . S
C106 C107 1.398 . S
C107 C72 1.383 1_545 S
C107 H84 0.951 1_545 S
C107 C106 1.398 . S
C108 C109 1.384 . S
C108 H121 0.947 . S
C108 C143 1.382 . S
C109 C108 1.384 . S
C109 C110 1.378 . S
C110 C109 1.378 . S
C110 C111 1.378 . S
C110 H122 0.952 . S
C111 C110 1.378 . S
C111 H123 0.950 . S
C111 C142 1.383 . S
H112 C131 0.947 . S
H113 C132 0.946 . S
H114 C134 0.953 . S
H115 C135 0.945 . S
H116 C137 0.952 . S
H117 C138 0.949 . S
H118 C140 0.950 . S
H119 C141 0.948 . S
H120 C143 0.951 . S
H121 C108 0.947 . S
H122 C110 0.952 . S
H123 C111 0.950 . S
N124 C127 1.382 . S
N124 C129 1.363 . S
N125 C127 1.371 . S
N125 C128 1.372 . S
N126 C128 1.361 . S
N126 C129 1.377 . S
C127 N124 1.382 . S
C127 N125 1.371 . S
C127 C130 1.480 . S
C128 N125 1.372 . S
C128 N126 1.361 . S
C128 C136 1.457 . S
C129 N124 1.363 . S
C129 N126 1.377 . S
C129 C142 1.479 . S
C130 C127 1.480 . S
C130 C131 1.383 . S
C130 C135 1.385 . S
C131 H112 0.947 . S
C131 C130 1.383 . S
C131 C132 1.388 . S
C132 H113 0.946 . S
C132 C131 1.388 . S
C132 C133 1.384 . S
C133 C132 1.384 . S
C133 C134 1.377 . S
C134 H114 0.953 . S
C134 C133 1.377 . S
C134 C135 1.369 . S
C135 H115 0.945 . S
C135 C130 1.385 . S
C135 C134 1.369 . S
C136 C128 1.457 . S
C136 C137 1.372 . S
C136 C141 1.364 . S
C137 H116 0.952 . S
C137 C136 1.372 . S
C137 C138 1.389 . S
C138 H117 0.949 . S
C138 C137 1.389 . S
C138 C139 1.387 . S
C139 C138 1.387 . S
C139 C140 1.372 . S
C140 H118 0.950 . S
C140 C139 1.372 . S
C140 C141 1.379 . S
C141 H119 0.948 . S
C141 C136 1.364 . S
C141 C140 1.379 . S
C142 C111 1.383 . S
C142 C129 1.479 . S
C142 C143 1.398 . S
C143 C108 1.382 . S
C143 H120 0.951 . S
C143 C142 1.398 . S
C144 C145 1.384 . S
C144 H157 0.947 . S
C144 C179 1.382 . S
C145 C144 1.384 . S
C145 C146 1.378 . S
C146 C145 1.378 . S
C146 C147 1.378 . S
C146 H158 0.952 . S
C147 C146 1.378 . S
C147 H159 0.950 . S
C147 C178 1.383 . S
H148 C167 0.947 . S
H149 C168 0.946 . S
H150 C170 0.953 . S
H151 C171 0.945 . S
H152 C173 0.952 . S
H153 C174 0.949 . S
H154 C176 0.950 . S
H155 C177 0.948 . S
H156 C179 0.951 . S
H157 C144 0.947 . S
H158 C146 0.952 . S
H159 C147 0.950 . S
N160 C163 1.382 . S
N160 C165 1.363 . S
N161 C163 1.371 . S
N161 C164 1.372 . S
N162 C164 1.361 . S
N162 C165 1.377 . S
C163 N160 1.382 . S
C163 N161 1.371 . S
C163 C166 1.480 . S
C164 N161 1.372 . S
C164 N162 1.361 . S
C164 C172 1.457 . S
C165 N160 1.363 . S
C165 N162 1.377 . S
C165 C178 1.479 . S
C166 C163 1.480 . S
C166 C167 1.383 . S
C166 C171 1.385 . S
C167 H148 0.947 . S
C167 C166 1.383 . S
C167 C168 1.388 . S
C168 H149 0.946 . S
C168 C167 1.388 . S
C168 C169 1.384 . S
C169 C168 1.384 . S
C169 C170 1.377 . S
C170 H150 0.953 . S
C170 C169 1.377 . S
C170 C171 1.369 . S
C171 H151 0.945 . S
C171 C166 1.385 . S
C171 C170 1.369 . S
C172 C164 1.457 . S
C172 C173 1.372 . S
C172 C177 1.364 . S
C173 H152 0.952 . S
C173 C172 1.372 . S
C173 C174 1.389 . S
C174 H153 0.949 . S
C174 C173 1.389 . S
C174 C175 1.387 . S
C175 C174 1.387 . S
C175 C176 1.372 . S
C176 H154 0.950 . S
C176 C175 1.372 . S
C176 C177 1.379 . S
C177 H155 0.948 . S
C177 C172 1.364 . S
C177 C176 1.379 . S
C178 C147 1.383 . S
C178 C165 1.479 . S
C178 C179 1.398 . S
C179 C144 1.382 . S
C179 H156 0.951 . S
C179 C178 1.398 . S
C180 C181 1.384 . S
C180 H193 0.947 . S
C180 C215 1.382 . S
C181 C180 1.384 . S
C181 C182 1.378 . S
C182 C181 1.378 . S
C182 C183 1.378 . S
C182 H194 0.952 . S
C183 C182 1.378 . S
C183 H195 0.950 . S
C183 C214 1.383 . S
H184 C203 0.947 . S
H185 C204 0.946 . S
H186 C206 0.953 . S
H187 C207 0.945 . S
H188 C209 0.952 . S
H189 C210 0.949 . S
H190 C212 0.950 . S
H191 C213 0.948 . S
H192 C215 0.951 . S
H193 C180 0.947 . S
H194 C182 0.952 . S
H195 C183 0.950 . S
N196 C199 1.382 . S
N196 C201 1.363 . S
N197 C199 1.371 . S
N197 C200 1.372 . S
N198 C200 1.361 . S
N198 C201 1.377 . S
C199 N196 1.382 . S
C199 N197 1.371 . S
C199 C202 1.480 . S
C200 N197 1.372 . S
C200 N198 1.361 . S
C200 C208 1.457 . S
C201 N196 1.363 . S
C201 N198 1.377 . S
C201 C214 1.479 . S
C202 C199 1.480 . S
C202 C203 1.383 . S
C202 C207 1.385 . S
C203 H184 0.947 . S
C203 C202 1.383 . S
C203 C204 1.388 . S
C204 H185 0.946 . S
C204 C203 1.388 . S
C204 C205 1.384 . S
C205 C204 1.384 . S
C205 C206 1.377 . S
C206 H186 0.953 . S
C206 C205 1.377 . S
C206 C207 1.369 . S
C207 H187 0.945 . S
C207 C202 1.385 . S
C207 C206 1.369 . S
C208 C200 1.457 . S
C208 C209 1.372 . S
C208 C213 1.364 . S
C209 H188 0.952 . S
C209 C208 1.372 . S
C209 C210 1.389 . S
C210 H189 0.949 . S
C210 C209 1.389 . S
C210 C211 1.387 . S
C211 C210 1.387 . S
C211 C212 1.372 . S
C212 H190 0.950 . S
C212 C211 1.372 . S
C212 C213 1.379 . S
C213 H191 0.948 . S
C213 C208 1.364 . S
C213 C212 1.379 . S
C214 C183 1.383 . S
C214 C201 1.479 . S
C214 C215 1.398 . S
C215 C180 1.382 . S
C215 H192 0.951 . S
C215 C214 1.398 . S
C216 C217 1.383 . S
C216 H229 0.949 1_545 S
C216 C251 1.378 . S
C217 C216 1.383 . S
C217 C218 1.378 . S
C218 C217 1.378 . S
C218 C219 1.378 . S
C218 H230 0.952 . S
C219 C218 1.378 . S
C219 H231 0.950 . S
C219 C250 1.383 . S
H220 C239 0.947 . S
H221 C240 0.949 . S
H222 C242 0.953 . S
H223 C243 0.945 . S
H224 C245 0.955 1_565 S
H225 C246 0.948 . S
H226 C248 0.950 . S
H227 C249 0.948 . S
H228 C251 0.950 1_565 S
H229 C216 0.949 1_565 S
H230 C218 0.952 . S
H231 C219 0.950 . S
N232 C235 1.382 . S
N232 C237 1.363 . S
N233 C235 1.371 . S
N233 C236 1.372 . S
N234 C236 1.361 . S
N234 C237 1.377 . S
C235 N232 1.382 . S
C235 N233 1.371 . S
C235 C238 1.480 . S
C236 N233 1.372 . S
C236 N234 1.361 . S
C236 C244 1.457 . S
C237 N232 1.363 . S
C237 N234 1.377 . S
C237 C250 1.479 . S
C238 C235 1.480 . S
C238 C239 1.383 . S
C238 C243 1.385 . S
C239 H220 0.947 . S
C239 C238 1.383 . S
C239 C240 1.391 1_545 S
C240 H221 0.949 . S
C240 C239 1.391 1_565 S
C240 C241 1.379 1_565 S
C241 C240 1.379 1_545 S
C241 C242 1.377 . S
C242 H222 0.953 . S
C242 C241 1.377 . S
C242 C243 1.369 . S
C243 H223 0.945 . S
C243 C238 1.385 . S
C243 C242 1.369 . S
C244 C236 1.457 . S
C244 C245 1.372 . S
C244 C249 1.364 . S
C245 H224 0.955 1_545 S
C245 C244 1.372 . S
C245 C246 1.384 1_545 S
C246 H225 0.948 . S
C246 C245 1.384 1_565 S
C246 C247 1.391 1_565 S
C247 C246 1.391 1_545 S
C247 C248 1.372 . S
C248 H226 0.950 . S
C248 C247 1.372 . S
C248 C249 1.379 . S
C249 H227 0.948 . S
C249 C244 1.364 . S
C249 C248 1.379 . S
C250 C219 1.383 . S
C250 C237 1.479 . S
C250 C251 1.402 . S
C251 C216 1.378 . S
C251 H228 0.950 1_545 S
C251 C250 1.402 . S
C252 C253 1.384 . S
C252 H265 0.947 . S
C252 C287 1.382 . S
C253 C252 1.384 . S
C253 C254 1.378 . S
C254 C253 1.378 . S
C254 C255 1.378 . S
C254 H266 0.952 . S
C255 C254 1.378 . S
C255 H267 0.950 . S
C255 C286 1.383 . S
H256 C275 0.947 . S
H257 C276 0.946 . S
H258 C278 0.953 . S
H259 C279 0.945 . S
H260 C281 0.952 . S
H261 C282 0.949 . S
H262 C284 0.950 . S
H263 C285 0.948 . S
H264 C287 0.951 . S
H265 C252 0.947 . S
H266 C254 0.952 . S
H267 C255 0.950 . S
N268 C271 1.382 . S
N268 C273 1.363 . S
N269 C271 1.371 . S
N269 C272 1.372 . S
N270 C272 1.361 . S
N270 C273 1.377 . S
C271 N268 1.382 . S
C271 N269 1.371 . S
C271 C274 1.480 . S
C272 N269 1.372 . S
C272 N270 1.361 . S
C272 C280 1.457 . S
C273 N268 1.363 . S
C273 N270 1.377 . S
C273 C286 1.479 . S
C274 C271 1.480 . S
C274 C275 1.383 . S
C274 C279 1.385 . S
C275 H256 0.947 . S
C275 C274 1.383 . S
C275 C276 1.388 . S
C276 H257 0.946 . S
C276 C275 1.388 . S
C276 C277 1.384 . S
C277 C276 1.384 . S
C277 C278 1.377 . S
C278 H258 0.953 . S
C278 C277 1.377 . S
C278 C279 1.369 . S
C279 H259 0.945 . S
C279 C274 1.385 . S
C279 C278 1.369 . S
C280 C272 1.457 . S
C280 C281 1.372 . S
C280 C285 1.364 . S
C281 H260 0.952 . S
C281 C280 1.372 . S
C281 C282 1.389 . S
C282 H261 0.949 . S
C282 C281 1.389 . S
C282 C283 1.387 . S
C283 C282 1.387 . S
C283 C284 1.372 . S
C284 H262 0.950 . S
C284 C283 1.372 . S
C284 C285 1.379 . S
C285 H263 0.948 . S
C285 C280 1.364 . S
C285 C284 1.379 . S
C286 C255 1.383 . S
C286 C273 1.479 . S
C286 C287 1.398 . S
C287 C252 1.382 . S
C287 H264 0.951 . S
C287 C286 1.398 . S
Nd288 C290 2.836 1_455 S
Nd288 O308 2.500 1_455 S
Nd288 O309 2.492 . S
Nd288 O310 2.487 . S
Nd288 O311 2.682 1_565 S
Nd288 O312 2.410 . S
Nd288 O317 2.431 1_455 S
Nd288 O319 2.424 1_565 S
Nd289 C299 2.836 . S
Nd289 O311 2.414 . S
Nd289 O313 2.424 1_545 S
Nd289 O314 2.500 . S
Nd289 O315 2.492 . S
Nd289 O316 2.487 1_455 S
Nd289 O317 2.678 1_445 S
Nd289 O318 2.410 . S
C290 Nd288 2.836 1_655 S
C290 C291 1.498 . S
C290 O308 1.258 . S
C290 O309 1.239 1_655 S
C291 C290 1.498 . S
C291 C292 1.366 . S
C291 C296 1.407 . S
C292 C291 1.366 . S
C292 C293 1.392 . S
C292 H320 0.930 . S
C293 C292 1.392 . S
C293 C294 1.398 . S
C293 H321 0.929 . S
C294 C293 1.398 . S
C294 C295 1.352 . S
C295 C294 1.352 . S
C295 C296 1.384 . S
C295 H322 0.930 . S
C296 C291 1.407 . S
C296 C295 1.384 . S
C296 H323 0.929 1_655 S
C297 O310 1.241 . S
C297 O311 1.273 1_565 S
C298 O312 1.268 . S
C298 O313 1.272 . S
C299 Nd289 2.836 . S
C299 C300 1.498 1_556 S
C299 O314 1.258 . S
C299 O315 1.239 . S
C300 C299 1.498 1_554 S
C300 C301 1.366 . S
C300 C305 1.407 . S
C301 C300 1.366 . S
C301 C302 1.392 . S
C301 H324 0.930 1_554 S
C302 C301 1.392 . S
C302 C303 1.398 . S
C302 H325 0.929 . S
C303 C302 1.398 . S
C303 C304 1.352 . S
C304 C303 1.352 . S
C304 C305 1.384 . S
C304 H326 0.930 . S
C305 C300 1.407 . S
C305 C304 1.384 . S
C305 H327 0.929 . S
C306 O316 1.241 . S
C306 O317 1.249 1_545 S
C307 O318 1.251 . S
C307 O319 1.268 . S
O308 Nd288 2.500 1_655 S
O308 C290 1.258 . S
O309 Nd288 2.492 . S
O309 C290 1.239 1_455 S
O310 Nd288 2.487 . S
O310 C297 1.241 . S
O311 Nd288 2.682 1_545 S
O311 Nd289 2.414 . S
O311 C297 1.273 1_545 S
O312 Nd288 2.410 . S
O312 C298 1.268 . S
O313 Nd289 2.424 1_565 S
O313 C298 1.272 . S
O314 Nd289 2.500 . S
O314 C299 1.258 . S
O315 Nd289 2.492 . S
O315 C299 1.239 . S
O316 Nd289 2.487 1_655 S
O316 C306 1.241 . S
O317 Nd288 2.431 1_655 S
O317 Nd289 2.678 1_665 S
O317 C306 1.249 1_565 S
O318 Nd289 2.410 . S
O318 C307 1.251 . S
O319 Nd288 2.424 1_545 S
O319 C307 1.268 . S
H320 C292 0.930 . S
H321 C293 0.929 . S
H322 C295 0.930 . S
H323 C296 0.929 1_455 S
H324 C301 0.930 1_556 S
H325 C302 0.929 . S
H326 C304 0.930 . S
H327 C305 0.929 . S
Nd328 C330 2.836 . S
Nd328 O348 2.500 . S
Nd328 O349 2.492 . S
Nd328 O350 2.487 1_565 S
Nd328 O351 2.682 1_565 S
Nd328 O352 2.410 1_565 S
Nd328 O357 2.414 . S
Nd328 O359 2.424 . S
Nd329 C339 2.836 . S
Nd329 O351 2.414 . S
Nd329 O353 2.424 . S
Nd329 O354 2.500 . S
Nd329 O355 2.492 1_556 S
Nd329 O356 2.487 1_545 S
Nd329 O357 2.682 1_545 S
Nd329 O358 2.410 1_545 S
C330 Nd328 2.836 . S
C330 C331 1.498 . S
C330 O348 1.258 . S
C330 O349 1.239 . S
C331 C330 1.498 . S
C331 C332 1.366 . S
C331 C336 1.407 . S
C332 C331 1.366 . S
C332 C333 1.392 . S
C332 H360 0.930 . S
C333 C332 1.392 . S
C333 C334 1.398 . S
C333 H361 0.929 . S
C334 C333 1.398 . S
C334 C335 1.352 . S
C335 C334 1.352 . S
C335 C336 1.384 . S
C335 H362 0.930 . S
C336 C331 1.407 . S
C336 C335 1.384 . S
C336 H363 0.929 1_565 S
C337 O350 1.241 . S
C337 O351 1.273 . S
C338 O352 1.251 . S
C338 O353 1.268 . S
C339 Nd329 2.836 . S
C339 C340 1.498 1_556 S
C339 O354 1.258 . S
C339 O355 1.239 1_556 S
C340 C339 1.498 1_554 S
C340 C341 1.366 1_554 S
C340 C345 1.407 . S
C341 C340 1.366 1_556 S
C341 C342 1.392 1_556 S
C341 H364 0.930 . S
C342 C341 1.392 1_554 S
C342 C343 1.398 . S
C342 H365 0.929 . S
C343 C342 1.398 . S
C343 C344 1.352 . S
C344 C343 1.352 . S
C344 C345 1.384 . S
C344 H366 0.930 . S
C345 C340 1.407 . S
C345 C344 1.384 . S
C345 H367 0.929 1_545 S
C346 O356 1.241 . S
C346 O357 1.273 . S
C347 O358 1.251 . S
C347 O359 1.268 . S
O348 Nd328 2.500 . S
O348 C330 1.258 . S
O349 Nd328 2.492 . S
O349 C330 1.239 . S
O350 Nd328 2.487 1_545 S
O350 C337 1.241 . S
O351 Nd328 2.682 1_545 S
O351 Nd329 2.414 . S
O351 C337 1.273 . S
O352 Nd328 2.410 1_545 S
O352 C338 1.251 . S
O353 Nd329 2.424 . S
O353 C338 1.268 . S
O354 Nd329 2.500 . S
O354 C339 1.258 . S
O355 Nd329 2.492 1_554 S
O355 C339 1.239 1_554 S
O356 Nd329 2.487 1_565 S
O356 C346 1.241 . S
O357 Nd328 2.414 . S
O357 Nd329 2.682 1_565 S
O357 C346 1.273 . S
O358 Nd329 2.410 1_565 S
O358 C347 1.251 . S
O359 Nd328 2.424 . S
O359 C347 1.268 . S
H360 C332 0.930 . S
H361 C333 0.929 . S
H362 C335 0.930 . S
H363 C336 0.929 1_545 S
H364 C341 0.930 . S
H365 C342 0.929 . S
H366 C344 0.930 . S
H367 C345 0.929 1_565 S
Nd368 C370 2.836 . S
Nd368 O388 2.500 . S
Nd368 O389 2.492 . S
Nd368 O390 2.487 . S
Nd368 O391 2.682 . S
Nd368 O392 2.410 . S
Nd368 O397 2.414 . S
Nd368 O399 2.424 . S
Nd369 C379 2.836 . S
Nd369 O391 2.414 . S
Nd369 O393 2.424 . S
Nd369 O394 2.500 . S
Nd369 O395 2.492 . S
Nd369 O396 2.487 . S
Nd369 O397 2.682 . S
Nd369 O398 2.410 . S
C370 Nd368 2.836 . S
C370 C371 1.498 . S
C370 O388 1.258 . S
C370 O389 1.239 . S
C371 C370 1.498 . S
C371 C372 1.366 . S
C371 C376 1.407 1_556 S
C372 C371 1.366 . S
C372 C373 1.392 . S
C372 H400 0.930 . S
C373 C372 1.392 . S
C373 C374 1.400 . S
C373 H401 0.929 . S
C374 C373 1.400 . S
C374 C375 1.352 1_556 S
C375 C374 1.352 1_554 S
C375 C376 1.384 . S
C375 H402 0.930 . S
C376 C371 1.407 1_554 S
C376 C375 1.384 . S
C376 H403 0.929 . S
C377 O390 1.241 . S
C377 O391 1.273 . S
C378 O392 1.251 . S
C378 O393 1.268 . S
C379 Nd369 2.836 . S
C379 C380 1.498 . S
C379 O394 1.258 . S
C379 O395 1.239 . S
C380 C379 1.498 . S
C380 C381 1.366 . S
C380 C385 1.407 . S
C381 C380 1.366 . S
C381 C382 1.392 . S
C381 H404 0.930 . S
C382 C381 1.392 . S
C382 C383 1.398 . S
C382 H405 0.929 . S
C383 C382 1.398 . S
C383 C384 1.352 . S
C384 C383 1.352 . S
C384 C385 1.384 . S
C384 H406 0.930 . S
C385 C380 1.407 . S
C385 C384 1.384 . S
C385 H407 0.929 . S
C386 O396 1.241 . S
C386 O397 1.273 . S
C387 O398 1.251 . S
C387 O399 1.268 . S
O388 Nd368 2.500 . S
O388 C370 1.258 . S
O389 Nd368 2.492 . S
O389 C370 1.239 . S
O390 Nd368 2.487 . S
O390 C377 1.241 . S
O391 Nd368 2.682 . S
O391 Nd369 2.414 . S
O391 C377 1.273 . S
O392 Nd368 2.410 . S
O392 C378 1.251 . S
O393 Nd369 2.424 . S
O393 C378 1.268 . S
O394 Nd369 2.500 . S
O394 C379 1.258 . S
O395 Nd369 2.492 . S
O395 C379 1.239 . S
O396 Nd369 2.487 . S
O396 C386 1.241 . S
O397 Nd368 2.414 . S
O397 Nd369 2.682 . S
O397 C386 1.273 . S
O398 Nd369 2.410 . S
O398 C387 1.251 . S
O399 Nd368 2.424 . S
O399 C387 1.268 . S
H400 C372 0.930 . S
H401 C373 0.929 . S
H402 C375 0.930 . S
H403 C376 0.929 . S
H404 C381 0.930 . S
H405 C382 0.929 . S
H406 C384 0.930 . S
H407 C385 0.929 . S
Nd408 C410 2.836 1_455 S
Nd408 O428 2.500 1_455 S
Nd408 O429 2.492 1_455 S
Nd408 O430 2.487 . S
Nd408 O431 2.682 . S
Nd408 O432 2.410 1_455 S
Nd408 O437 2.414 . S
Nd408 O439 2.424 . S
Nd409 C419 2.836 . S
Nd409 O431 2.414 . S
Nd409 O433 2.424 1_455 S
Nd409 O434 2.500 . S
Nd409 O435 2.492 . S
Nd409 O436 2.487 . S
Nd409 O437 2.682 . S
Nd409 O438 2.410 . S
C410 Nd408 2.836 1_655 S
C410 C411 1.498 . S
C410 O428 1.258 . S
C410 O429 1.239 . S
C411 C410 1.498 . S
C411 C412 1.366 . S
C411 C416 1.407 . S
C412 C411 1.366 . S
C412 C413 1.392 . S
C412 H440 0.930 . S
C413 C412 1.392 . S
C413 C414 1.398 . S
C413 H441 0.929 . S
C414 C413 1.398 . S
C414 C415 1.352 . S
C415 C414 1.352 . S
C415 C416 1.384 . S
C415 H442 0.930 . S
C416 C411 1.407 . S
C416 C415 1.384 . S
C416 H443 0.929 . S
C417 O430 1.241 . S
C417 O431 1.273 . S
C418 O432 1.251 . S
C418 O433 1.268 . S
C419 Nd409 2.836 . S
C419 C420 1.498 1_556 S
C419 O434 1.258 . S
C419 O435 1.239 . S
C420 C419 1.498 1_554 S
C420 C421 1.366 . S
C420 C425 1.407 . S
C421 C420 1.366 . S
C421 C422 1.392 . S
C421 H444 0.930 1_554 S
C422 C421 1.392 . S
C422 C423 1.398 . S
C422 H445 0.929 . S
C423 C422 1.398 . S
C423 C424 1.352 . S
C424 C423 1.352 . S
C424 C425 1.384 . S
C424 H446 0.930 . S
C425 C420 1.407 . S
C425 C424 1.384 . S
C425 H447 0.929 . S
C426 O436 1.241 . S
C426 O437 1.273 . S
C427 O438 1.251 . S
C427 O439 1.268 . S
O428 Nd408 2.500 1_655 S
O428 C410 1.258 . S
O429 Nd408 2.492 1_655 S
O429 C410 1.239 . S
O430 Nd408 2.487 . S
O430 C417 1.241 . S
O431 Nd408 2.682 . S
O431 Nd409 2.414 . S
O431 C417 1.273 . S
O432 Nd408 2.410 1_655 S
O432 C418 1.251 . S
O433 Nd409 2.424 1_655 S
O433 C418 1.268 . S
O434 Nd409 2.500 . S
O434 C419 1.258 . S
O435 Nd409 2.492 . S
O435 C419 1.239 . S
O436 Nd409 2.487 . S
O436 C426 1.241 . S
O437 Nd408 2.414 . S
O437 Nd409 2.682 . S
O437 C426 1.273 . S
O438 Nd409 2.410 . S
O438 C427 1.251 . S
O439 Nd408 2.424 . S
O439 C427 1.268 . S
H440 C412 0.930 . S
H441 C413 0.929 . S
H442 C415 0.930 . S
H443 C416 0.929 . S
H444 C421 0.930 1_556 S
H445 C422 0.929 . S
H446 C424 0.930 . S
H447 C425 0.929 . S
H448 C454 0.930 . S
H449 C458 0.930 . S
H450 C463 0.929 . S
H451 C461 0.929 . S
H452 C456 0.929 . S
H453 C462 0.929 . S
C454 H448 0.930 . S
C454 C455 1.373 . S
C454 C462 1.378 . S
C455 C454 1.373 . S
C455 C463 1.429 1_545 S
C456 H452 0.929 . S
C456 C458 1.378 . S
C456 C460 1.350 . S
C457 C460 1.454 . S
C457 C462 1.334 1_565 S
C457 N465 1.455 . S
C458 H449 0.930 . S
C458 C456 1.378 . S
C458 C459 1.367 . S
C459 C458 1.367 . S
C459 C461 1.433 1_565 S
C460 C456 1.350 . S
C460 C457 1.454 . S
C460 N464 1.427 1_565 S
C461 H451 0.929 . S
C461 C459 1.433 1_545 S
C461 N464 1.384 . S
C462 H453 0.929 . S
C462 C454 1.378 . S
C462 C457 1.334 1_545 S
C463 H450 0.929 . S
C463 C455 1.429 1_565 S
C463 N465 1.384 . S
N464 C460 1.427 1_545 S
N464 C461 1.384 . S
N465 C457 1.455 . S
N465 C463 1.384 . S
H466 C472 0.930 . S
H467 C476 0.930 . S
H468 C481 0.929 . S
H469 C479 0.929 . S
H470 C474 0.929 . S
H471 C480 0.929 . S
C472 H466 0.930 . S
C472 C473 1.367 . S
C472 C480 1.378 . S
C473 C472 1.367 . S
C473 C481 1.433 . S
C474 H470 0.929 . S
C474 C476 1.378 . S
C474 C478 1.350 . S
C475 C478 1.463 . S
C475 C480 1.350 . S
C475 N483 1.427 . S
C476 H467 0.930 . S
C476 C474 1.378 . S
C476 C477 1.367 . S
C477 C476 1.367 . S
C477 C479 1.433 . S
C478 C474 1.350 . S
C478 C475 1.463 . S
C478 N482 1.427 . S
C479 H469 0.929 . S
C479 C477 1.433 . S
C479 N482 1.384 . S
C480 H471 0.929 . S
C480 C472 1.378 . S
C480 C475 1.350 . S
C481 H468 0.929 . S
C481 C473 1.433 . S
C481 N483 1.384 . S
N482 C478 1.427 . S
N482 C479 1.384 . S
N483 C475 1.427 . S
N483 C481 1.384 . S
H484 C490 0.930 . S
H485 C494 0.930 . S
H486 C499 0.929 . S
H487 C497 0.929 . S
H488 C492 0.929 . S
H489 C498 0.929 . S
C490 H484 0.930 . S
C490 C491 1.367 . S
C490 C498 1.378 . S
C491 C490 1.367 . S
C491 C499 1.433 . S
C492 H488 0.929 . S
C492 C494 1.378 . S
C492 C496 1.350 . S
C493 C496 1.463 . S
C493 C498 1.350 . S
C493 N501 1.427 . S
C494 H485 0.930 . S
C494 C492 1.378 . S
C494 C495 1.367 . S
C495 C494 1.367 . S
C495 C497 1.433 . S
C496 C492 1.350 . S
C496 C493 1.463 . S
C496 N500 1.427 . S
C497 H487 0.929 . S
C497 C495 1.433 . S
C497 N500 1.384 . S
C498 H489 0.929 . S
C498 C490 1.378 . S
C498 C493 1.350 . S
C499 H486 0.929 . S
C499 C491 1.433 . S
C499 N501 1.384 . S
N500 C496 1.427 . S
N500 C497 1.384 . S
N501 C493 1.427 . S
N501 C499 1.384 . S
H502 C508 0.930 . S
H503 C512 0.930 . S
H504 C517 0.929 . S
H505 C515 0.929 . S
H506 C510 0.929 . S
H507 C516 0.929 . S
C508 H502 0.930 . S
C508 C509 1.367 . S
C508 C516 1.378 . S
C509 C508 1.367 . S
C509 C517 1.433 . S
C510 H506 0.929 . S
C510 C512 1.378 . S
C510 C514 1.350 . S
C511 C514 1.463 . S
C511 C516 1.350 . S
C511 N519 1.427 . S
C512 H503 0.930 . S
C512 C510 1.378 . S
C512 C513 1.367 . S
C513 C512 1.367 . S
C513 C515 1.433 . S
C514 C510 1.350 . S
C514 C511 1.463 . S
C514 N518 1.427 . S
C515 H505 0.929 . S
C515 C513 1.433 . S
C515 N518 1.384 . S
C516 H507 0.929 . S
C516 C508 1.378 . S
C516 C511 1.350 . S
C517 H504 0.929 . S
C517 C509 1.433 . S
C517 N519 1.384 . S
N518 C514 1.427 . S
N518 C515 1.384 . S
N519 C511 1.427 . S
N519 C517 1.384 . S
H520 C526 0.930 . S
H521 C530 0.930 . S
H522 C535 0.929 . S
H523 C533 0.929 . S
H524 C528 0.929 . S
H525 C534 0.929 . S
C526 H520 0.930 . S
C526 C527 1.393 . S
C526 C534 1.378 . S
C527 C526 1.393 . S
C527 C535 1.400 1_545 S
C528 H524 0.929 . S
C528 C530 1.378 . S
C528 C532 1.350 1_565 S
C529 C532 1.463 . S
C529 C534 1.350 . S
C529 N537 1.427 1_545 S
C530 H521 0.930 . S
C530 C528 1.378 . S
C530 C531 1.367 1_565 S
C531 C530 1.367 1_545 S
C531 C533 1.433 . S
C532 C528 1.350 1_545 S
C532 C529 1.463 . S
C532 N536 1.427 . S
C533 H523 0.929 . S
C533 C531 1.433 . S
C533 N536 1.384 . S
C534 H525 0.929 . S
C534 C526 1.378 . S
C534 C529 1.350 . S
C535 H522 0.929 . S
C535 C527 1.400 1_565 S
C535 N537 1.384 . S
N536 C532 1.427 . S
N536 C533 1.384 . S
N537 C529 1.427 1_565 S
N537 C535 1.384 . S
H538 C544 0.930 . S
H539 C548 0.930 . S
H540 C553 0.929 . S
H541 C551 0.929 . S
H542 C546 0.929 . S
H543 C552 0.929 . S
C544 H538 0.930 . S
C544 C545 1.367 . S
C544 C552 1.378 . S
C545 C544 1.367 . S
C545 C553 1.433 . S
C546 H542 0.929 . S
C546 C548 1.378 1_554 S
C546 C550 1.350 . S
C547 C550 1.463 . S
C547 C552 1.350 . S
C547 N555 1.427 . S
C548 H539 0.930 . S
C548 C546 1.378 1_556 S
C548 C549 1.367 . S
C549 C548 1.367 . S
C549 C551 1.433 . S
C550 C546 1.350 . S
C550 C547 1.463 . S
C550 N554 1.427 . S
C551 H541 0.929 . S
C551 C549 1.433 . S
C551 N554 1.384 1_556 S
C552 H543 0.929 . S
C552 C544 1.378 . S
C552 C547 1.350 . S
C553 H540 0.929 . S
C553 C545 1.433 . S
C553 N555 1.384 . S
N554 C550 1.427 . S
N554 C551 1.384 1_554 S
N555 C547 1.427 . S
N555 C553 1.384 . S
H556 C562 0.930 . S
H557 C566 0.930 . S
H558 C571 0.929 1_554 S
H559 C569 0.929 . S
H560 C564 0.929 . S
H561 C570 0.929 . S
C562 H556 0.930 . S
C562 C563 1.367 . S
C562 C570 1.378 . S
C563 C562 1.367 . S
C563 C571 1.433 . S
C564 H560 0.929 . S
C564 C566 1.378 . S
C564 C568 1.350 . S
C565 C568 1.463 . S
C565 C570 1.350 . S
C565 N573 1.427 . S
C566 H557 0.930 . S
C566 C564 1.378 . S
C566 C567 1.367 . S
C567 C566 1.367 . S
C567 C569 1.433 . S
C568 C564 1.350 . S
C568 C565 1.463 . S
C568 N572 1.427 . S
C569 H559 0.929 . S
C569 C567 1.433 . S
C569 N572 1.384 . S
C570 H561 0.929 . S
C570 C562 1.378 . S
C570 C565 1.350 . S
C571 H558 0.929 1_556 S
C571 C563 1.433 . S
C571 N573 1.384 . S
N572 C568 1.427 . S
N572 C569 1.384 . S
N573 C565 1.427 . S
N573 C571 1.384 . S
H574 C580 0.930 . S
H575 C584 0.930 . S
H576 C589 0.929 . S
H577 C587 0.929 . S
H578 C582 0.929 . S
H579 C588 0.929 . S
C580 H574 0.930 . S
C580 C581 1.367 1_554 S
C580 C588 1.378 . S
C581 C580 1.367 1_556 S
C581 C589 1.433 . S
C582 H578 0.929 . S
C582 C584 1.378 . S
C582 C586 1.350 . S
C583 C586 1.463 . S
C583 C588 1.350 1_556 S
C583 N591 1.427 . S
C584 H575 0.930 . S
C584 C582 1.378 . S
C584 C585 1.367 . S
C585 C584 1.367 . S
C585 C587 1.433 . S
C586 C582 1.350 . S
C586 C583 1.463 . S
C586 N590 1.427 . S
C587 H577 0.929 . S
C587 C585 1.433 . S
C587 N590 1.384 . S
C588 H579 0.929 . S
C588 C580 1.378 . S
C588 C583 1.350 1_554 S
C589 H576 0.929 . S
C589 C581 1.433 . S
C589 N591 1.384 . S
N590 C586 1.427 . S
N590 C587 1.384 . S
N591 C583 1.427 . S
N591 C589 1.384 . S
H592 C598 0.930 . S
H593 C602 0.930 . S
H594 C607 0.929 . S
H595 C605 0.929 . S
H596 C600 0.929 . S
H597 C606 0.929 . S
C598 H592 0.930 . S
C598 C599 1.367 . S
C598 C606 1.378 . S
C599 C598 1.367 . S
C599 C607 1.433 . S
C600 H596 0.929 . S
C600 C602 1.378 . S
C600 C604 1.350 . S
C601 C604 1.463 . S
C601 C606 1.350 . S
C601 N609 1.427 . S
C602 H593 0.930 . S
C602 C600 1.378 . S
C602 C603 1.367 . S
C603 C602 1.367 . S
C603 C605 1.433 . S
C604 C600 1.350 . S
C604 C601 1.463 . S
C604 N608 1.427 . S
C605 H595 0.929 . S
C605 C603 1.433 . S
C605 N608 1.384 . S
C606 H597 0.929 . S
C606 C598 1.378 . S
C606 C601 1.350 . S
C607 H594 0.929 . S
C607 C599 1.433 . S
C607 N609 1.384 . S
N608 C604 1.427 . S
N608 C605 1.384 . S
N609 C601 1.427 . S
N609 C607 1.384 . S
H610 C616 0.930 . S
H611 C620 0.930 . S
H612 C625 0.929 . S
H613 C623 0.929 . S
H614 C618 0.929 . S
H615 C624 0.929 . S
C616 H610 0.930 . S
C616 C617 1.371 . S
C616 C624 1.378 . S
C617 C616 1.371 . S
C617 C625 1.436 1_565 S
C618 H614 0.929 . S
C618 C620 1.378 . S
C618 C622 1.350 . S
C619 C622 1.463 . S
C619 C624 1.350 . S
C619 N627 1.427 . S
C620 H611 0.930 . S
C620 C618 1.378 . S
C620 C621 1.367 . S
C621 C620 1.367 . S
C621 C623 1.433 . S
C622 C618 1.350 . S
C622 C619 1.463 . S
C622 N626 1.427 . S
C623 H613 0.929 . S
C623 C621 1.433 . S
C623 N626 1.384 . S
C624 H615 0.929 . S
C624 C616 1.378 . S
C624 C619 1.350 . S
C625 H612 0.929 . S
C625 C617 1.436 1_545 S
C625 N627 1.384 1_545 S
N626 C622 1.427 . S
N626 C623 1.384 . S
N627 C619 1.427 . S
N627 C625 1.384 1_565 S
H628 C634 0.930 . S
H629 C638 0.930 . S
H630 C643 0.929 . S
H631 C641 0.929 . S
H632 C636 0.929 . S
H633 C642 0.929 . S
C634 H628 0.930 . S
C634 C635 1.367 . S
C634 C642 1.378 . S
C635 C634 1.367 . S
C635 C643 1.433 . S
C636 H632 0.929 . S
C636 C638 1.378 . S
C636 C640 1.350 . S
C637 C640 1.463 . S
C637 C642 1.350 . S
C637 N645 1.427 . S
C638 H629 0.930 . S
C638 C636 1.378 . S
C638 C639 1.367 . S
C639 C638 1.367 . S
C639 C641 1.433 . S
C640 C636 1.350 . S
C640 C637 1.463 . S
C640 N644 1.427 . S
C641 H631 0.929 . S
C641 C639 1.433 . S
C641 N644 1.384 . S
C642 H633 0.929 . S
C642 C634 1.378 . S
C642 C637 1.350 . S
C643 H630 0.929 . S
C643 C635 1.433 . S
C643 N645 1.384 . S
N644 C640 1.427 . S
N644 C641 1.384 . S
N645 C637 1.427 . S
N645 C643 1.384 . S
H646 C652 0.930 . S
H647 C656 0.930 . S
H648 C661 0.929 . S
H649 C659 0.929 . S
H650 C654 0.929 . S
H651 C660 0.929 . S
C652 H646 0.930 . S
C652 C653 1.367 . S
C652 C660 1.378 . S
C653 C652 1.367 . S
C653 C661 1.433 . S
C654 H650 0.929 . S
C654 C656 1.378 . S
C654 C658 1.350 . S
C655 C658 1.463 . S
C655 C660 1.350 . S
C655 N663 1.427 . S
C656 H647 0.930 . S
C656 C654 1.378 . S
C656 C657 1.367 . S
C657 C656 1.367 . S
C657 C659 1.433 . S
C658 C654 1.350 . S
C658 C655 1.463 . S
C658 N662 1.427 . S
C659 H649 0.929 . S
C659 C657 1.433 . S
C659 N662 1.384 . S
C660 H651 0.929 . S
C660 C652 1.378 . S
C660 C655 1.350 . S
C661 H648 0.929 . S
C661 C653 1.433 . S
C661 N663 1.384 . S
N662 C658 1.427 . S
N662 C659 1.384 . S
N663 C655 1.427 . S
N663 C661 1.384 . S
H664 C670 0.930 . S
H665 C674 0.930 . S
H666 C679 0.929 . S
H667 C677 0.929 . S
H668 C672 0.929 . S
H669 C678 0.929 . S
C670 H664 0.930 . S
C670 C671 1.367 . S
C670 C678 1.378 . S
C671 C670 1.367 . S
C671 C679 1.433 . S
C672 H668 0.929 . S
C672 C674 1.378 . S
C672 C676 1.350 . S
C673 C676 1.463 . S
C673 C678 1.350 . S
C673 N681 1.427 . S
C674 H665 0.930 . S
C674 C672 1.378 . S
C674 C675 1.367 . S
C675 C674 1.367 . S
C675 C677 1.433 . S
C676 C672 1.350 . S
C676 C673 1.463 . S
C676 N680 1.427 . S
C677 H667 0.929 . S
C677 C675 1.433 . S
C677 N680 1.384 . S
C678 H669 0.929 . S
C678 C670 1.378 . S
C678 C673 1.350 . S
C679 H666 0.929 . S
C679 C671 1.433 . S
C679 N681 1.384 . S
N680 C676 1.427 . S
N680 C677 1.384 . S
N681 C673 1.427 . S
N681 C679 1.384 . S
H682 C688 0.930 . S
H683 C692 0.930 . S
H684 C697 0.929 . S
H685 C695 0.929 . S
H686 C690 0.929 . S
H687 C696 0.929 . S
C688 H682 0.930 . S
C688 C689 1.367 . S
C688 C696 1.378 . S
C689 C688 1.367 . S
C689 C697 1.433 1_545 S
C690 H686 0.929 . S
C690 C692 1.378 . S
C690 C694 1.350 1_565 S
C691 C694 1.463 . S
C691 C696 1.350 . S
C691 N699 1.427 1_545 S
C692 H683 0.930 . S
C692 C690 1.378 . S
C692 C693 1.367 1_565 S
C693 C692 1.367 1_545 S
C693 C695 1.433 . S
C694 C690 1.350 1_545 S
C694 C691 1.463 . S
C694 N698 1.427 . S
C695 H685 0.929 . S
C695 C693 1.433 . S
C695 N698 1.384 . S
C696 H687 0.929 . S
C696 C688 1.378 . S
C696 C691 1.350 . S
C697 H684 0.929 . S
C697 C689 1.433 1_565 S
C697 N699 1.384 . S
N698 C694 1.427 . S
N698 C695 1.384 . S
N699 C691 1.427 1_565 S
N699 C697 1.384 . S
H700 C706 0.930 . S
H701 C710 0.930 . S
H702 C715 0.929 . S
H703 C713 0.929 . S
H704 C708 0.929 . S
H705 C714 0.929 . S
C706 H700 0.930 . S
C706 C707 1.367 . S
C706 C714 1.378 . S
C707 C706 1.367 . S
C707 C715 1.433 . S
C708 H704 0.929 . S
C708 C710 1.378 . S
C708 C712 1.350 . S
C709 C712 1.463 . S
C709 C714 1.350 . S
C709 N717 1.427 . S
C710 H701 0.930 . S
C710 C708 1.378 . S
C710 C711 1.367 . S
C711 C710 1.367 . S
C711 C713 1.433 1_554 S
C712 C708 1.350 . S
C712 C709 1.463 . S
C712 N716 1.427 . S
C713 H703 0.929 . S
C713 C711 1.433 1_556 S
C713 N716 1.384 1_556 S
C714 H705 0.929 . S
C714 C706 1.378 . S
C714 C709 1.350 . S
C715 H702 0.929 . S
C715 C707 1.433 . S
C715 N717 1.384 . S
N716 C712 1.427 . S
N716 C713 1.384 1_554 S
N717 C709 1.427 . S
N717 C715 1.384 . S
H718 C724 0.930 . S
H719 C728 0.930 . S
H720 C733 0.929 . S
H721 C731 0.929 . S
H722 C726 0.929 . S
H723 C732 0.929 . S
C724 H718 0.930 . S
C724 C725 1.367 . S
C724 C732 1.378 . S
C725 C724 1.367 . S
C725 C733 1.433 . S
C726 H722 0.929 . S
C726 C728 1.378 . S
C726 C730 1.350 . S
C727 C730 1.463 . S
C727 C732 1.350 . S
C727 N735 1.427 . S
C728 H719 0.930 . S
C728 C726 1.378 . S
C728 C729 1.367 . S
C729 C728 1.367 . S
C729 C731 1.433 . S
C730 C726 1.350 . S
C730 C727 1.463 . S
C730 N734 1.427 . S
C731 H721 0.929 . S
C731 C729 1.433 . S
C731 N734 1.384 . S
C732 H723 0.929 . S
C732 C724 1.378 . S
C732 C727 1.350 . S
C733 H720 0.929 . S
C733 C725 1.433 . S
C733 N735 1.384 . S
N734 C730 1.427 . S
N734 C731 1.384 . S
N735 C727 1.427 . S
N735 C733 1.384 . S
H736 C742 0.930 . S
H737 C746 0.930 . S
H738 C751 0.929 . S
H739 C749 0.929 . S
H740 C744 0.929 . S
H741 C750 0.929 . S
C742 H736 0.930 . S
C742 C743 1.367 . S
C742 C750 1.378 . S
C743 C742 1.367 . S
C743 C751 1.433 . S
C744 H740 0.929 . S
C744 C746 1.378 . S
C744 C748 1.350 . S
C745 C748 1.463 . S
C745 C750 1.350 . S
C745 N753 1.427 . S
C746 H737 0.930 . S
C746 C744 1.378 . S
C746 C747 1.367 . S
C747 C746 1.367 . S
C747 C749 1.433 . S
C748 C744 1.350 . S
C748 C745 1.463 . S
C748 N752 1.427 . S
C749 H739 0.929 . S
C749 C747 1.433 . S
C749 N752 1.384 . S
C750 H741 0.929 . S
C750 C742 1.378 . S
C750 C745 1.350 . S
C751 H738 0.929 . S
C751 C743 1.433 . S
C751 N753 1.384 . S
N752 C748 1.427 . S
N752 C749 1.384 . S
N753 C745 1.427 . S
N753 C751 1.384 . S
H754 C760 0.930 . S
H755 C764 0.930 . S
H756 C769 0.929 . S
H757 C767 0.929 . S
H758 C762 0.929 . S
H759 C768 0.929 . S
C760 H754 0.930 . S
C760 C761 1.367 . S
C760 C768 1.378 . S
C761 C760 1.367 . S
C761 C769 1.433 1_545 S
C762 H758 0.929 . S
C762 C764 1.378 . S
C762 C766 1.350 . S
C763 C766 1.463 . S
C763 C768 1.350 . S
C763 N771 1.433 . S
C764 H755 0.930 . S
C764 C762 1.378 . S
C764 C765 1.367 . S
C765 C764 1.367 . S
C765 C767 1.433 . S
C766 C762 1.350 . S
C766 C763 1.463 . S
C766 N770 1.427 . S
C767 H757 0.929 . S
C767 C765 1.433 . S
C767 N770 1.384 . S
C768 H759 0.929 . S
C768 C760 1.378 . S
C768 C763 1.350 . S
C769 H756 0.929 . S
C769 C761 1.433 1_565 S
C769 N771 1.386 1_565 S
N770 C766 1.427 . S
N770 C767 1.384 . S
N771 C763 1.433 . S
N771 C769 1.386 1_545 S
H772 C778 0.930 . S
H773 C782 0.930 . S
H774 C787 0.929 . S
H775 C785 0.929 . S
H776 C780 0.929 . S
H777 C786 0.929 . S
C778 H772 0.930 . S
C778 C779 1.367 . S
C778 C786 1.378 . S
C779 C778 1.367 . S
C779 C787 1.433 1_554 S
C780 H776 0.929 . S
C780 C782 1.378 . S
C780 C784 1.350 . S
C781 C784 1.463 . S
C781 C786 1.350 1_556 S
C781 N789 1.427 . S
C782 H773 0.930 . S
C782 C780 1.378 . S
C782 C783 1.367 . S
C783 C782 1.367 . S
C783 C785 1.433 . S
C784 C780 1.350 . S
C784 C781 1.463 . S
C784 N788 1.427 . S
C785 H775 0.929 . S
C785 C783 1.433 . S
C785 N788 1.384 . S
C786 H777 0.929 . S
C786 C778 1.378 . S
C786 C781 1.350 1_554 S
C787 H774 0.929 . S
C787 C779 1.433 1_556 S
C787 N789 1.384 . S
N788 C784 1.427 . S
N788 C785 1.384 . S
N789 C781 1.427 . S
N789 C787 1.384 . S
H790 C796 0.930 . S
H791 C800 0.930 . S
H792 C805 0.929 . S
H793 C803 0.929 . S
H794 C798 0.929 . S
H795 C804 0.929 . S
C796 H790 0.930 . S
C796 C797 1.367 . S
C796 C804 1.378 . S
C797 C796 1.367 . S
C797 C805 1.433 . S
C798 H794 0.929 . S
C798 C800 1.378 . S
C798 C802 1.350 . S
C799 C802 1.463 . S
C799 C804 1.350 . S
C799 N807 1.427 . S
C800 H791 0.930 . S
C800 C798 1.378 . S
C800 C801 1.367 . S
C801 C800 1.367 . S
C801 C803 1.433 . S
C802 C798 1.350 . S
C802 C799 1.463 . S
C802 N806 1.427 . S
C803 H793 0.929 . S
C803 C801 1.433 . S
C803 N806 1.384 . S
C804 H795 0.929 . S
C804 C796 1.378 . S
C804 C799 1.350 . S
C805 H792 0.929 . S
C805 C797 1.433 . S
C805 N807 1.384 . S
N806 C802 1.427 . S
N806 C803 1.384 . S
N807 C799 1.427 . S
N807 C805 1.384 . S
H808 C814 0.930 . S
H809 C818 0.930 . S
H810 C823 0.929 . S
H811 C821 0.929 . S
H812 C816 0.929 . S
H813 C822 0.929 . S
C814 H808 0.930 . S
C814 C815 1.367 . S
C814 C822 1.378 . S
C815 C814 1.367 . S
C815 C823 1.433 . S
C816 H812 0.929 . S
C816 C818 1.378 . S
C816 C820 1.350 . S
C817 C820 1.463 . S
C817 C822 1.350 . S
C817 N825 1.427 . S
C818 H809 0.930 . S
C818 C816 1.378 . S
C818 C819 1.367 . S
C819 C818 1.367 . S
C819 C821 1.433 . S
C820 C816 1.350 . S
C820 C817 1.463 . S
C820 N824 1.427 . S
C821 H811 0.929 . S
C821 C819 1.433 . S
C821 N824 1.384 . S
C822 H813 0.929 . S
C822 C814 1.378 . S
C822 C817 1.350 . S
C823 H810 0.929 . S
C823 C815 1.433 . S
C823 N825 1.384 . S
N824 C820 1.427 . S
N824 C821 1.384 . S
N825 C817 1.427 . S
N825 C823 1.384 . S
H826 C832 0.930 . S
H827 C836 0.930 1_545 S
H828 C841 0.929 . S
H829 C839 0.929 . S
H830 C834 0.929 . S
H831 C840 0.929 . S
C832 H826 0.930 . S
C832 C833 1.367 . S
C832 C840 1.378 . S
C833 C832 1.367 . S
C833 C841 1.433 1_565 S
C834 H830 0.929 . S
C834 C836 1.378 1_545 S
C834 C838 1.350 1_545 S
C835 C838 1.463 . S
C835 C840 1.350 . S
C835 N843 1.427 1_565 S
C836 H827 0.930 1_565 S
C836 C834 1.378 1_565 S
C836 C837 1.367 . S
C837 C836 1.367 . S
C837 C839 1.433 . S
C838 C834 1.350 1_565 S
C838 C835 1.463 . S
C838 N842 1.427 . S
C839 H829 0.929 . S
C839 C837 1.433 . S
C839 N842 1.384 . S
C840 H831 0.929 . S
C840 C832 1.378 . S
C840 C835 1.350 . S
C841 H828 0.929 . S
C841 C833 1.433 1_545 S
C841 N843 1.384 . S
N842 C838 1.427 . S
N842 C839 1.384 . S
N843 C835 1.427 1_545 S
N843 C841 1.384 . S
H844 C850 0.930 . S
H845 C854 0.930 . S
H846 C859 0.929 . S
H847 C857 0.929 . S
H848 C852 0.929 . S
H849 C858 0.929 . S
C850 H844 0.930 . S
C850 C851 1.367 . S
C850 C858 1.378 . S
C851 C850 1.367 . S
C851 C859 1.433 . S
C852 H848 0.929 . S
C852 C854 1.378 . S
C852 C856 1.350 . S
C853 C856 1.463 . S
C853 C858 1.350 . S
C853 N861 1.427 . S
C854 H845 0.930 . S
C854 C852 1.378 . S
C854 C855 1.367 . S
C855 C854 1.367 . S
C855 C857 1.433 . S
C856 C852 1.350 . S
C856 C853 1.463 . S
C856 N860 1.427 . S
C857 H847 0.929 . S
C857 C855 1.433 . S
C857 N860 1.384 . S
C858 H849 0.929 . S
C858 C850 1.378 . S
C858 C853 1.350 . S
C859 H846 0.929 . S
C859 C851 1.433 . S
C859 N861 1.384 . S
N860 C856 1.427 . S
N860 C857 1.384 . S
N861 C853 1.427 . S
N861 C859 1.384 . S
H862 C868 0.930 . S
H863 C872 0.930 . S
H864 C877 0.929 . S
H865 C875 0.929 . S
H866 C870 0.929 . S
H867 C876 0.929 . S
C868 H862 0.930 . S
C868 C869 1.367 . S
C868 C876 1.378 . S
C869 C868 1.367 . S
C869 C877 1.433 . S
C870 H866 0.929 . S
C870 C872 1.378 . S
C870 C874 1.350 . S
C871 C874 1.463 . S
C871 C876 1.350 . S
C871 N879 1.427 . S
C872 H863 0.930 . S
C872 C870 1.378 . S
C872 C873 1.367 . S
C873 C872 1.367 . S
C873 C875 1.433 . S
C874 C870 1.350 . S
C874 C871 1.463 . S
C874 N878 1.427 . S
C875 H865 0.929 . S
C875 C873 1.433 . S
C875 N878 1.384 . S
C876 H867 0.929 . S
C876 C868 1.378 . S
C876 C871 1.350 . S
C877 H864 0.929 . S
C877 C869 1.433 . S
C877 N879 1.384 . S
N878 C874 1.427 . S
N878 C875 1.384 . S
N879 C871 1.427 . S
N879 C877 1.384 . S
C455 C241 0.941 . S
C459 C297 0.927 . S
C477 C337 1.957 . S
C473 C277 1.962 . S
C495 C386 1.673 . S
C491 C169 1.630 . S
C513 C417 2.192 . S
C509 C205 2.225 . S
C531 C306 0.918 . S
C527 C97 0.945 . S
C545 C133 2.047 . S
C549 C346 1.958 . S
C563 C25 1.695 1_556 S
C567 C377 1.678 . S
C581 C61 2.130 1_556 S
C585 C426 2.192 1_655 S
C603 C307 1.487 . S
C599 C211 1.282 . S
C621 C347 0.948 . S
C617 C247 0.888 1_565 S
C639 C383 0.639 . S
C635 C253 0.664 . S
C653 C175 1.331 . S
C657 C427 1.562 . S
C671 C67 1.221 . S
C675 C298 1.472 1_655 S
C693 C338 0.941 . S
C689 C103 0.870 . S
C711 C374 0.623 1_554 S
C707 C109 0.640 . S
C725 C31 1.383 . S
C729 C418 1.558 . S
C743 C181 2.116 . S
C747 C303 2.203 . S
C761 C217 1.693 . S
C765 C343 1.730 . S
C783 C387 2.926 . S
C779 C283 2.545 . S
C801 C423 1.802 . S
C797 C145 1.703 . S
C815 C37 2.075 . S
C819 C294 2.210 . S
C837 C334 1.724 . S
C833 C73 1.714 1_565 S
C855 C378 2.928 . S
C851 C139 2.615 . S
C869 C1 1.760 . S
C873 C414 1.807 . S
