# Generated by pormake.
# Topology anh, (6,3)-cn, num edge types: 1
# Building blocks:
#     Node 0, Type 0, BuildingBlock: BETGAK_clean_sbu_0, # of connection points: 6
#     Node 1, Type 0, BuildingBlock: BETGAK_clean_sbu_0, # of connection points: 6
#     Node 2, Type 0, BuildingBlock: BETGAK_clean_sbu_0, # of connection points: 6
#     Node 3, Type 1, BuildingBlock: KAKCAD_clean_linker_0, # of connection points: 3
#     Node 4, Type 1, BuildingBlock: KAKCAD_clean_linker_0, # of connection points: 3
#     Node 5, Type 1, BuildingBlock: KAKCAD_clean_linker_0, # of connection points: 3
#     Node 6, Type 1, BuildingBlock: KAKCAD_clean_linker_0, # of connection points: 3
#     Node 7, Type 1, BuildingBlock: KAKCAD_clean_linker_0, # of connection points: 3
#     Node 8, Type 1, BuildingBlock: KAKCAD_clean_linker_0, # of connection points: 3
#     Edge 9, Type (0, 1), None
#     Edge 10, Type (0, 1), None
#     Edge 11, Type (0, 1), None
#     Edge 12, Type (0, 1), None
#     Edge 13, Type (0, 1), None
#     Edge 14, Type (0, 1), None
#     Edge 15, Type (0, 1), None
#     Edge 16, Type (0, 1), None
#     Edge 17, Type (0, 1), None
#     Edge 18, Type (0, 1), None
#     Edge 19, Type (0, 1), None
#     Edge 20, Type (0, 1), None
#     Edge 21, Type (0, 1), None
#     Edge 22, Type (0, 1), None
#     Edge 23, Type (0, 1), None
#     Edge 24, Type (0, 1), None
#     Edge 25, Type (0, 1), None
#     Edge 26, Type (0, 1), None
# Relax obj value: 0.290
# Max RMSD: 0.258
# Mean RMSD: 0.182
data_MOF--net-anh--node1-BETGAK_clean_sbu_0--node2-KAKCAD_clean_linker_0--edge1-none
_symmetry_space_group_name_H-M    P1
_symmetry_Int_Tables_number       1
_symmetry_cell_setting            triclinic
loop_
_symmetry_equiv_pos_as_xyz
'x, y, z'
_cell_length_a     21.141474
_cell_length_b     26.62584
_cell_length_c     37.478274
_cell_angle_alpha  91.978138
_cell_angle_beta   89.070678
_cell_angle_gamma 133.63485
loop_
_atom_site_label
_atom_site_type_symbol
_atom_site_fract_x
_atom_site_fract_y
_atom_site_fract_z
_atom_type_partial_charge
La0 La 0.22959 0.58191 0.15737 0.0
La1 La 1.12162 0.6112 0.16739 0.0
C2 C 0.31401 0.55522 0.13405 0.0
C3 C 0.36367 0.53948 0.12021 0.0
C4 C 0.39363 0.52114 0.14473 0.0
C5 C 0.3995 0.47375 0.1345 0.0
C6 C 0.3772 0.44544 0.09944 0.0
C7 C 0.35914 0.4715 0.07386 0.0
C8 C 0.35262 0.51851 0.08419 0.0
C9 C 0.17509 0.56682 0.22365 0.0
C10 C 0.32703 0.74133 0.16353 0.0
C11 C 1.02957 0.63288 0.18832 0.0
C12 C 0.93316 0.57899 0.186 0.0
C13 C 0.89227 0.57547 0.15557 0.0
C14 C 0.81355 0.51167 0.14328 0.0
C15 C 0.77385 0.45126 0.16178 0.0
C16 C 0.80664 0.45623 0.19511 0.0
C17 C 0.88605 0.52004 0.20732 0.0
C18 C 1.1258 0.576 0.1005 0.0
C19 C 1.02609 0.45422 0.16521 0.0
O20 O 0.33355 0.58883 0.16471 0.0
O21 O 0.25158 0.5418 0.11543 0.0
O22 O 0.18484 0.52863 0.20804 0.0
O23 O 0.20156 0.61428 0.20305 0.0
O24 O 0.33596 0.69664 0.15929 0.0
O25 O 0.24862 0.71912 0.1669 0.0
O26 O 1.0697 0.65403 0.1575 0.0
O27 O 1.06423 0.61988 0.21018 0.0
O28 O 1.05646 0.55555 0.11601 0.0
O29 O 0.18894 0.61569 0.12205 0.0
O30 O 1.02491 0.49996 0.17892 0.0
O31 O 1.09785 0.47638 0.14962 0.0
H32 H 0.40192 0.53636 0.17273 0.0
H33 H 0.41471 0.45529 0.15475 0.0
H34 H 0.34534 0.45269 0.04632 0.0
H35 H 0.32997 0.53254 0.06479 0.0
H36 H 0.92599 0.62007 0.13896 0.0
H37 H 0.78711 0.50857 0.11786 0.0
H38 H 0.77498 0.4101 0.21011 0.0
H39 H 0.91472 0.52115 0.2314 0.0
La40 La 0.73563 0.07344 0.47354 0.0
La41 La 0.61773 0.09328 0.4704 0.0
C42 C 0.81556 0.03804 0.48911 0.0
C43 C 0.79317 0.97667 0.50267 0.0
C44 C 0.85733 0.97451 0.50359 0.0
C45 C 0.83758 0.91665 0.51659 0.0
C46 C 0.75292 0.85969 0.5286 0.0
C47 C 0.68849 0.86198 0.52731 0.0
C48 C 0.7087 0.92029 0.51464 0.0
C49 C 0.71598 0.0981 0.40909 0.0
C50 C 0.52885 0.94063 0.46557 0.0
C51 C 0.54727 0.13774 0.45899 0.0
C52 C 0.56694 0.19727 0.47675 0.0
C53 C 0.59683 0.21542 0.51232 0.0
C54 C 0.61951 0.2735 0.52913 0.0
C55 C 0.6144 0.31559 0.51057 0.0
C56 C 0.58567 0.29785 0.47469 0.0
C57 C 0.56199 0.23901 0.45793 0.0
C58 C 0.63873 0.07137 0.53564 0.0
C59 C 0.82634 0.22842 0.47313 0.0
O60 O 0.78602 0.03083 0.45714 0.0
O61 O 0.80508 0.0707 0.51135 0.0
O62 O 0.78812 0.11967 0.42158 0.0
O63 O 0.65614 0.05938 0.43137 0.0
O64 O 0.60431 0.96604 0.47894 0.0
O65 O 0.52363 0.98383 0.45358 0.0
O66 O 0.51318 0.08554 0.4794 0.0
O67 O 0.61012 0.15332 0.43933 0.0
O68 O 0.56709 0.0501 0.52295 0.0
O69 O 0.698 0.10841 0.51281 0.0
O70 O 0.74599 0.20219 0.46926 0.0
O71 O 0.83916 0.18704 0.47807 0.0
H72 H 0.92298 1.0179 0.49455 0.0
H73 H 0.88922 0.91724 0.51788 0.0
H74 H 0.62248 0.81877 0.536 0.0
H75 H 0.6586 0.92144 0.5144 0.0
H76 H 0.60283 0.18467 0.5272 0.0
H77 H 0.63992 0.28473 0.55688 0.0
H78 H 0.58232 0.32977 0.45943 0.0
H79 H 0.54078 0.22653 0.43025 0.0
La80 La 0.72235 0.62672 0.86447 0.0
La81 La 0.58924 0.47652 0.85884 0.0
C82 C 0.80987 0.75151 0.85003 0.0
C83 C 0.78895 0.78979 0.83507 0.0
C84 C 0.77784 0.82655 0.85758 0.0
C85 C 0.75944 0.86337 0.84329 0.0
C86 C 0.75207 0.86463 0.80611 0.0
C87 C 0.76326 0.82782 0.78368 0.0
C88 C 0.78155 0.79108 0.79792 0.0
C89 C 0.67765 0.56408 0.92502 0.0
C90 C 0.51026 0.54678 0.86728 0.0
C91 C 0.50837 0.35043 0.8633 0.0
C92 C 0.5316 0.3128 0.84805 0.0
C93 C 0.55843 0.32183 0.81236 0.0
C94 C 0.58439 0.28922 0.79828 0.0
C95 C 0.58561 0.24733 0.81955 0.0
C96 C 0.55903 0.23849 0.85537 0.0
C97 C 0.53238 0.27096 0.86945 0.0
C98 C 0.63186 0.53726 0.79753 0.0
C99 C 0.80237 0.55705 0.86354 0.0
O100 O 0.78179 0.7273 0.88214 0.0
O101 O 0.79989 0.70686 0.82826 0.0
O102 O 0.75798 0.61895 0.91736 0.0
O103 O 0.62776 0.54853 0.89993 0.0
O104 O 0.59484 0.60471 0.86073 0.0
O105 O 0.49381 0.48858 0.87185 0.0
O106 O 0.48812 0.37343 0.8403 0.0
O107 O 0.56038 0.397 0.88853 0.0
O108 O 0.55356 0.4816 0.80588 0.0
O109 O 0.68378 0.55459 0.82227 0.0
O110 O 0.71625 0.49794 0.86186 0.0
O111 O 0.8216 0.61695 0.86366 0.0
H112 H 0.78351 0.82698 0.88628 0.0
H113 H 0.75041 0.89048 0.86144 0.0
H114 H 0.75969 0.82848 0.75493 0.0
H115 H 0.79052 0.76405 0.77964 0.0
H116 H 0.5599 0.35452 0.79518 0.0
H117 H 0.60269 0.29643 0.77046 0.0
H118 H 0.56006 0.20737 0.87271 0.0
H119 H 0.51338 0.26408 0.89719 0.0
C120 C 0.70817 0.14517 0.35496 0.0
C121 C 0.70063 0.09428 0.37064 0.0
C122 C 0.70192 0.14528 0.31783 0.0
C123 C 0.68856 0.09465 0.29576 0.0
C124 C 0.67961 0.04304 0.31191 0.0
C125 C 0.68564 0.04294 0.34899 0.0
C126 C 0.6856 0.0962 0.25609 0.0
C127 C 0.74293 0.15947 0.23853 0.0
C128 C 0.74229 0.16221 0.20111 0.0
C129 C 0.68167 0.09852 0.18084 0.0
C130 C 0.62278 0.03393 0.19839 0.0
C131 C 0.62606 0.03422 0.23576 0.0
C132 C 0.55388 0.9642 0.17988 0.0
C133 C 0.46996 0.93803 0.17398 0.0
C134 C 0.5637 0.91692 0.17746 0.0
C135 C 0.4914 0.84537 0.17042 0.0
C136 C 0.40649 0.81855 0.16629 0.0
C137 C 0.80588 0.23331 0.18525 0.0
C138 C 0.80632 0.28423 0.19747 0.0
C139 C 0.876 0.25513 0.16379 0.0
C140 C 0.94609 0.32616 0.15618 0.0
C141 C 0.948 0.37744 0.16976 0.0
C142 C 0.87575 0.3547 0.18984 0.0
C143 C 0.39755 0.86651 0.16726 0.0
H144 H 0.72037 0.18548 0.37138 0.0
H145 H 0.70781 0.18515 0.3064 0.0
H146 H 0.67044 1.0038 0.29584 0.0
H147 H 0.68065 1.0037 0.36073 0.0
H148 H 0.79015 0.2074 0.25412 0.0
H149 H 0.5802 0.98528 0.24918 0.0
H150 H 0.6795 0.09927 0.15203 0.0
H151 H 0.45927 0.97232 0.17684 0.0
H152 H 0.62675 0.93481 0.18305 0.0
H153 H 0.50152 0.81065 0.17003 0.0
H154 H 0.7543 0.2698 0.21446 0.0
H155 H 0.87907 0.21788 0.15453 0.0
H156 H 0.33372 0.84851 0.1642 0.0
H157 H 0.87435 0.39187 0.20106 0.0
H158 H 1.00022 0.34113 0.14065 0.0
C159 C 0.60021 0.55816 0.73964 0.0
C160 C 0.65637 0.56033 0.76063 0.0
C161 C 0.61546 0.57082 0.70326 0.0
C162 C 0.68584 0.58402 0.68711 0.0
C163 C 0.74346 0.58787 0.70821 0.0
C164 C 0.72953 0.5771 0.74496 0.0
C165 C 0.6948 0.58936 0.64796 0.0
C166 C 0.70094 0.63857 0.63089 0.0
C167 C 0.69947 0.63921 0.59344 0.0
C168 C 0.6903 0.58907 0.57324 0.0
C169 C 0.68472 0.53989 0.59 0.0
C170 C 0.68843 0.54095 0.62743 0.0
C171 C 0.67018 0.48512 0.56839 0.0
C172 C 0.60389 0.4465 0.54218 0.0
C173 C 0.72101 0.47018 0.57426 0.0
C174 C 0.70492 0.41674 0.55463 0.0
C175 C 0.63665 0.37639 0.52914 0.0
C176 C 0.70799 0.69235 0.57546 0.0
C177 C 0.66788 0.71408 0.58959 0.0
C178 C 0.75845 0.72314 0.54449 0.0
C179 C 0.77051 0.77577 0.52861 0.0
C180 C 0.73334 0.79945 0.54356 0.0
C181 C 0.68075 0.76728 0.57391 0.0
C182 C 0.58701 0.39249 0.52287 0.0
H183 H 0.5433 0.54511 0.75126 0.0
H184 H 0.57007 0.56734 0.68741 0.0
H185 H 0.79815 0.59804 0.69616 0.0
H186 H 0.77315 0.57834 0.7607 0.0
H187 H 0.7074 0.67656 0.64697 0.0
H188 H 0.68144 0.50175 0.64061 0.0
H189 H 0.68669 0.58778 0.54436 0.0
H190 H 0.56329 0.45672 0.53737 0.0
H191 H 0.77329 0.49994 0.594 0.0
H192 H 0.74577 0.40685 0.5596 0.0
H193 H 0.62714 0.69045 0.61299 0.0
H194 H 0.79071 0.70797 0.53301 0.0
H195 H 0.53319 0.36199 0.50387 0.0
H196 H 0.65155 0.78452 0.58625 0.0
H197 H 0.80999 0.79853 0.50483 0.0
C198 C 0.21427 0.60297 0.0453 0.0
C199 C 0.13264 0.56614 0.06162 0.0
C200 C 0.22016 0.59719 0.00812 0.0
C201 C 0.14449 0.55426 0.9863 0.0
C202 C 1.0628 0.51514 0.00311 0.0
C203 C 1.05703 0.52122 0.04011 0.0
C204 C 0.14991 0.55343 0.94613 0.0
C205 C 0.20871 0.55182 0.92882 0.0
C206 C 0.21687 0.55135 0.89126 0.0
C207 C 0.15688 0.55244 0.87094 0.0
C208 C 1.09353 0.55387 0.88855 0.0
C209 C 1.0953 0.55486 0.92598 0.0
C210 C 1.02272 0.55461 0.87308 0.0
C211 C 1.03832 0.61639 0.87297 0.0
C212 C 0.9308 0.49349 0.86987 0.0
C213 C 0.86247 0.49409 0.86607 0.0
C214 C 0.87843 0.55601 0.8659 0.0
C215 C 0.28775 0.54783 0.87795 0.0
C216 C 0.37591 0.6065 0.86744 0.0
C217 C 0.277 0.48944 0.88467 0.0
C218 C 0.34543 0.48887 0.88059 0.0
C219 C 0.43352 0.54738 0.87028 0.0
C220 C 0.44493 0.60618 0.86362 0.0
C221 C 0.97018 0.61712 0.86914 0.0
H222 H 0.27386 0.63779 0.06114 0.0
H223 H 0.2842 0.62834 0.99633 0.0
H224 H 1.00283 0.48028 0.98752 0.0
H225 H 0.99309 0.49137 0.05181 0.0
H226 H 0.24905 0.5503 0.94525 0.0
H227 H 1.05262 0.55762 0.94019 0.0
H228 H 0.15898 0.55164 0.84209 0.0
H229 H 1.10473 0.66578 0.87732 0.0
H230 H 0.91033 0.44354 0.8717 0.0
H231 H 0.79537 0.44452 0.86418 0.0
H232 H 0.39338 0.65479 0.86323 0.0
H233 H 0.21424 0.44294 0.89429 0.0
H234 H 0.99027 0.66712 0.86977 0.0
H235 H 0.5091 0.65381 0.85585 0.0
H236 H 0.32884 0.44149 0.8866 0.0
C237 C 1.0938 0.5225 0.28095 0.0
C238 C 0.17236 0.57177 0.26271 0.0
C239 C 1.09266 0.52442 0.31838 0.0
C240 C 0.1706 0.57477 0.33826 0.0
C241 C 0.24922 0.62361 0.31948 0.0
C242 C 0.24984 0.62252 0.28217 0.0
C243 C 0.17072 0.57687 0.37828 0.0
C244 C 1.11313 0.51564 0.39766 0.0
C245 C 1.11376 0.51733 0.43524 0.0
C246 C 0.17609 0.58274 0.45387 0.0
C247 C 0.23468 0.64519 0.43462 0.0
C248 C 0.22966 0.64083 0.39719 0.0
C249 C 0.30214 0.71703 0.45137 0.0
C250 C 0.29645 0.76575 0.44538 0.0
C251 C 0.38183 0.74226 0.46481 0.0
C252 C 0.45462 0.81433 0.47062 0.0
C253 C 0.44998 0.86329 0.46284 0.0
C254 C 1.04592 0.44915 0.45325 0.0
C255 C 0.96049 0.42107 0.45752 0.0
C256 C 1.05965 0.40509 0.45841 0.0
C257 C 0.98962 0.33461 0.46661 0.0
C258 C 0.90326 0.30562 0.46938 0.0
C259 C 0.89045 0.35067 0.46554 0.0
C260 C 0.36877 0.8374 0.45108 0.0
H261 H 1.03336 0.48256 0.26624 0.0
H262 H 1.0306 0.4866 0.33162 0.0
H263 H 0.31105 0.66207 0.33351 0.0
H264 H 0.31139 0.66014 0.26849 0.0
H265 H 1.06748 0.46578 0.38353 0.0
H266 H 0.27265 0.68855 0.38267 0.0
H267 H 0.1779 0.58506 0.48278 0.0
H268 H 0.23693 0.74852 0.43428 0.0
H269 H 0.38954 0.70662 0.46876 0.0
H270 H 0.51555 0.83173 0.47978 0.0
H271 H 0.94697 0.45282 0.45276 0.0
H272 H 1.12397 0.4243 0.45429 0.0
H273 H 0.36157 0.87272 0.44503 0.0
H274 H 0.82543 0.33095 0.46736 0.0
H275 H 1.0027 0.30208 0.46911 0.0
C276 C 0.58044 0.0372 0.59733 0.0
C277 C 0.65116 0.06828 0.5741 0.0
C278 C 0.59031 0.03628 0.63396 0.0
C279 C 0.67069 0.06528 0.64832 0.0
C280 C 0.74113 0.09454 0.6252 0.0
C281 C 0.73166 0.09659 0.58833 0.0
C282 C 0.68061 0.06799 0.68765 0.0
C283 C 0.69552 1.03016 0.70393 0.0
C284 C 0.69595 1.02752 0.74151 0.0
C285 C 0.68271 0.06458 0.76253 0.0
C286 C 0.66957 0.10383 0.7465 0.0
C287 C 0.66823 0.10479 0.70908 0.0
C288 C 0.65461 0.14259 0.7683 0.0
C289 C 0.59137 0.11002 0.79525 0.0
C290 C 0.69979 0.21149 0.76052 0.0
C291 C 0.67991 0.24618 0.77821 0.0
C292 C 0.61328 0.21261 0.80385 0.0
C293 C 0.7085 0.98507 0.75872 0.0
C294 C 0.66782 0.91905 0.74446 0.0
C295 C 0.76124 1.01011 0.7895 0.0
C296 C 0.77427 0.97076 0.80518 0.0
C297 C 0.73478 0.90521 0.79054 0.0
C298 C 0.68065 0.87965 0.76017 0.0
C299 C 0.57065 0.14453 0.81274 0.0
H300 H 0.51739 1.01459 0.5873 0.0
H301 H 0.53505 1.01331 0.65123 0.0
H302 H 0.80393 0.11755 0.63578 0.0
H303 H 0.78732 0.12101 0.57113 0.0
H304 H 0.70522 1.00189 0.68728 0.0
H305 H 0.6556 0.13324 0.69645 0.0
H306 H 0.68199 0.06259 0.79138 0.0
H307 H 0.5552 0.0568 0.8017 0.0
H308 H 0.74991 0.23833 0.7403 0.0
H309 H 0.71613 0.2992 0.77134 0.0
H310 H 0.62525 0.8974 0.72126 0.0
H311 H 0.79423 0.06096 0.80105 0.0
H312 H 0.51872 0.11675 0.83215 0.0
H313 H 0.64764 0.82885 0.74855 0.0
H314 H 0.81723 0.99262 0.82825 0.0
C315 C 0.68628 0.4852 0.95311 0.0
C316 C 0.64971 0.51345 0.95168 0.0
C317 C 0.64354 0.42416 0.97162 0.0
C318 C 0.5647 0.39159 0.98939 0.0
C319 C 0.53282 0.42385 0.98992 0.0
C320 C 0.57375 0.48304 0.97066 0.0
C321 C 0.51753 0.32692 0.00953 0.0
C322 C 0.56378 0.32152 0.03291 0.0
C323 C 0.52067 0.27483 0.06139 0.0
C324 C 0.43008 0.23327 0.06511 0.0
C325 C 0.39086 0.25047 0.04618 0.0
C326 C 0.42658 0.28101 0.01323 0.0
C327 C 0.3692 0.28497 0.06736 0.0
C328 C 0.30257 0.28072 0.05612 0.0
C329 C 0.43283 0.33886 0.09178 0.0
C330 C 0.43344 0.38927 0.1029 0.0
C331 C 0.37051 0.38766 0.08998 0.0
C332 C 0.57434 0.28993 0.09296 0.0
C333 C 0.65971 0.31858 0.08775 0.0
C334 C 0.55206 0.29698 0.12734 0.0
C335 C 0.61737 0.34488 0.15238 0.0
C336 C 0.70458 0.38381 0.14377 0.0
C337 C 0.72496 0.36634 0.11286 0.0
C338 C 0.30305 0.33165 0.06746 0.0
H339 H 0.7444 0.50753 0.93809 0.0
H340 H 0.67067 0.40146 0.97115 0.0
H341 H 0.47535 0.40315 0.00496 0.0
H342 H 0.54456 0.50409 0.96977 0.0
H343 H 0.63448 0.36048 0.03199 0.0
H344 H 0.39086 0.28672 0.99631 0.0
H345 H 0.39742 0.20301 0.08874 0.0
H346 H 0.25414 0.24109 0.03667 0.0
H347 H 0.48836 0.34717 0.09953 0.0
H348 H 0.48694 0.43215 0.11978 0.0
H349 H 0.67842 0.31168 0.06234 0.0
H350 H 0.48668 0.27382 0.13351 0.0
H351 H 0.25247 0.32853 0.05767 0.0
H352 H 0.79242 0.39504 0.10637 0.0
H353 H 0.60064 0.35696 0.17653 0.0
loop_
_geom_bond_atom_site_label_1
_geom_bond_atom_site_label_2
_geom_bond_distance
_geom_bond_site_symmetry_2
_ccdc_geom_bond_type
La0 C2 2.928 . S
La0 O20 2.521 . S
La0 O21 2.628 . S
La0 O22 2.554 . S
La0 O23 2.757 . S
La0 O24 2.470 . S
La0 O29 2.482 . S
La0 O31 2.503 1_455 S
La1 C11 2.928 . S
La1 O23 2.482 1_655 S
La1 O25 2.503 1_655 S
La1 O26 2.521 . S
La1 O27 2.628 . S
La1 O28 2.554 . S
La1 O29 2.757 1_655 S
La1 O30 2.470 . S
C2 La0 2.928 . S
C2 C3 1.503 . S
C2 O20 1.261 . S
C2 O21 1.243 . S
C3 C2 1.503 . S
C3 C4 1.394 . S
C3 C8 1.373 . S
C4 C3 1.394 . S
C4 C5 1.380 . S
C4 H32 0.930 . S
C5 C4 1.380 . S
C5 C6 1.376 . S
C5 H33 0.930 . S
C6 C5 1.376 . S
C6 C7 1.370 . S
C7 C6 1.370 . S
C7 C8 1.396 . S
C7 H34 0.929 . S
C8 C3 1.373 . S
C8 C7 1.396 . S
C8 H35 0.929 . S
C9 O22 1.240 . S
C9 O23 1.289 . S
C10 O24 1.258 . S
C10 O25 1.256 . S
C11 La1 2.928 . S
C11 C12 1.503 . S
C11 O26 1.261 . S
C11 O27 1.243 . S
C12 C11 1.503 . S
C12 C13 1.394 . S
C12 C17 1.373 . S
C13 C12 1.394 . S
C13 C14 1.380 . S
C13 H36 0.930 . S
C14 C13 1.380 . S
C14 C15 1.376 . S
C14 H37 0.930 . S
C15 C14 1.376 . S
C15 C16 1.370 . S
C16 C15 1.370 . S
C16 C17 1.396 . S
C16 H38 0.929 . S
C17 C12 1.373 . S
C17 C16 1.396 . S
C17 H39 0.929 . S
C18 O28 1.240 1_455 S
C18 O29 1.289 . S
C19 O30 1.258 . S
C19 O31 1.256 . S
O20 La0 2.521 . S
O20 C2 1.261 . S
O21 La0 2.628 . S
O21 C2 1.243 . S
O22 La0 2.554 . S
O22 C9 1.240 . S
O23 La0 2.757 . S
O23 La1 2.482 1_455 S
O23 C9 1.289 . S
O24 La0 2.470 . S
O24 C10 1.258 . S
O25 La1 2.503 1_455 S
O25 C10 1.256 . S
O26 La1 2.521 . S
O26 C11 1.261 . S
O27 La1 2.628 . S
O27 C11 1.243 . S
O28 La1 2.554 . S
O28 C18 1.240 1_655 S
O29 La0 2.482 . S
O29 La1 2.757 1_455 S
O29 C18 1.289 . S
O30 La1 2.470 . S
O30 C19 1.258 . S
O31 La0 2.503 1_655 S
O31 C19 1.256 . S
H32 C4 0.930 . S
H33 C5 0.930 . S
H34 C7 0.929 . S
H35 C8 0.929 . S
H36 C13 0.930 . S
H37 C14 0.930 . S
H38 C16 0.929 . S
H39 C17 0.929 . S
La40 C42 2.928 . S
La40 O60 2.521 . S
La40 O61 2.628 . S
La40 O62 2.554 . S
La40 O63 2.757 1_565 S
La40 O64 2.470 . S
La40 O69 2.482 . S
La40 O71 2.503 1_565 S
La41 C51 2.928 . S
La41 O63 2.482 . S
La41 O65 2.503 1_545 S
La41 O66 2.521 . S
La41 O67 2.628 . S
La41 O68 2.554 . S
La41 O69 2.757 1_545 S
La41 O70 2.470 . S
C42 La40 2.928 . S
C42 C43 1.503 . S
C42 O60 1.261 . S
C42 O61 1.243 . S
C43 C42 1.503 . S
C43 C44 1.394 . S
C43 C48 1.373 . S
C44 C43 1.394 . S
C44 C45 1.380 . S
C44 H72 0.930 . S
C45 C44 1.380 . S
C45 C46 1.376 . S
C45 H73 0.930 . S
C46 C45 1.376 . S
C46 C47 1.370 . S
C47 C46 1.370 . S
C47 C48 1.396 . S
C47 H74 0.929 . S
C48 C43 1.373 . S
C48 C47 1.396 . S
C48 H75 0.929 . S
C49 O62 1.240 1_545 S
C49 O63 1.289 . S
C50 O64 1.258 . S
C50 O65 1.256 . S
C51 La41 2.928 . S
C51 C52 1.503 . S
C51 O66 1.261 . S
C51 O67 1.243 . S
C52 C51 1.503 . S
C52 C53 1.394 . S
C52 C57 1.373 . S
C53 C52 1.394 . S
C53 C54 1.380 . S
C53 H76 0.930 . S
C54 C53 1.380 . S
C54 C55 1.376 . S
C54 H77 0.930 . S
C55 C54 1.376 . S
C55 C56 1.370 . S
C56 C55 1.370 . S
C56 C57 1.396 . S
C56 H78 0.929 . S
C57 C52 1.373 . S
C57 C56 1.396 . S
C57 H79 0.929 . S
C58 O68 1.240 . S
C58 O69 1.289 1_545 S
C59 O70 1.258 . S
C59 O71 1.256 . S
O60 La40 2.521 . S
O60 C42 1.261 . S
O61 La40 2.628 . S
O61 C42 1.243 . S
O62 La40 2.554 . S
O62 C49 1.240 1_565 S
O63 La40 2.757 1_545 S
O63 La41 2.482 . S
O63 C49 1.289 . S
O64 La40 2.470 . S
O64 C50 1.258 . S
O65 La41 2.503 1_565 S
O65 C50 1.256 . S
O66 La41 2.521 . S
O66 C51 1.261 . S
O67 La41 2.628 . S
O67 C51 1.243 . S
O68 La41 2.554 . S
O68 C58 1.240 . S
O69 La40 2.482 . S
O69 La41 2.757 1_565 S
O69 C58 1.289 1_565 S
O70 La41 2.470 . S
O70 C59 1.258 . S
O71 La40 2.503 1_545 S
O71 C59 1.256 . S
H72 C44 0.930 . S
H73 C45 0.930 . S
H74 C47 0.929 . S
H75 C48 0.929 . S
H76 C53 0.930 . S
H77 C54 0.930 . S
H78 C56 0.929 . S
H79 C57 0.929 . S
La80 C82 2.928 . S
La80 O100 2.521 . S
La80 O101 2.628 . S
La80 O102 2.554 . S
La80 O103 2.757 . S
La80 O104 2.470 . S
La80 O109 2.482 . S
La80 O111 2.503 . S
La81 C91 2.928 . S
La81 O103 2.482 . S
La81 O105 2.503 . S
La81 O106 2.521 . S
La81 O107 2.628 . S
La81 O108 2.554 . S
La81 O109 2.757 . S
La81 O110 2.470 . S
C82 La80 2.928 . S
C82 C83 1.503 . S
C82 O100 1.261 . S
C82 O101 1.243 . S
C83 C82 1.503 . S
C83 C84 1.394 . S
C83 C88 1.373 . S
C84 C83 1.394 . S
C84 C85 1.380 . S
C84 H112 0.930 . S
C85 C84 1.380 . S
C85 C86 1.376 . S
C85 H113 0.930 . S
C86 C85 1.376 . S
C86 C87 1.370 . S
C87 C86 1.370 . S
C87 C88 1.396 . S
C87 H114 0.929 . S
C88 C83 1.373 . S
C88 C87 1.396 . S
C88 H115 0.929 . S
C89 O102 1.240 . S
C89 O103 1.289 . S
C90 O104 1.258 . S
C90 O105 1.256 . S
C91 La81 2.928 . S
C91 C92 1.503 . S
C91 O106 1.261 . S
C91 O107 1.243 . S
C92 C91 1.503 . S
C92 C93 1.394 . S
C92 C97 1.373 . S
C93 C92 1.394 . S
C93 C94 1.380 . S
C93 H116 0.930 . S
C94 C93 1.380 . S
C94 C95 1.376 . S
C94 H117 0.930 . S
C95 C94 1.376 . S
C95 C96 1.370 . S
C96 C95 1.370 . S
C96 C97 1.396 . S
C96 H118 0.929 . S
C97 C92 1.373 . S
C97 C96 1.396 . S
C97 H119 0.929 . S
C98 O108 1.240 . S
C98 O109 1.289 . S
C99 O110 1.258 . S
C99 O111 1.256 . S
O100 La80 2.521 . S
O100 C82 1.261 . S
O101 La80 2.628 . S
O101 C82 1.243 . S
O102 La80 2.554 . S
O102 C89 1.240 . S
O103 La80 2.757 . S
O103 La81 2.482 . S
O103 C89 1.289 . S
O104 La80 2.470 . S
O104 C90 1.258 . S
O105 La81 2.503 . S
O105 C90 1.256 . S
O106 La81 2.521 . S
O106 C91 1.261 . S
O107 La81 2.628 . S
O107 C91 1.243 . S
O108 La81 2.554 . S
O108 C98 1.240 . S
O109 La80 2.482 . S
O109 La81 2.757 . S
O109 C98 1.289 . S
O110 La81 2.470 . S
O110 C99 1.258 . S
O111 La80 2.503 . S
O111 C99 1.256 . S
H112 C84 0.930 . S
H113 C85 0.930 . S
H114 C87 0.929 . S
H115 C88 0.929 . S
H116 C93 0.930 . S
H117 C94 0.930 . S
H118 C96 0.929 . S
H119 C97 0.929 . S
C120 C121 1.386 . S
C120 C122 1.397 . S
C120 H144 0.931 . S
C121 C120 1.386 . S
C121 C125 1.397 1_545 S
C122 C120 1.397 . S
C122 C123 1.384 . S
C122 H145 0.930 . S
C123 C122 1.384 . S
C123 C124 1.377 1_545 S
C123 C126 1.481 . S
C124 C123 1.377 1_565 S
C124 C125 1.389 . S
C124 H146 0.929 . S
C125 C121 1.397 1_565 S
C125 C124 1.389 . S
C125 H147 0.931 . S
C126 C123 1.481 . S
C126 C127 1.387 . S
C126 C131 1.390 1_545 S
C127 C126 1.387 . S
C127 C128 1.401 . S
C127 H148 0.930 . S
C128 C127 1.401 . S
C128 C129 1.376 . S
C128 C137 1.511 . S
C129 C128 1.376 . S
C129 C130 1.392 1_545 S
C129 H150 0.931 . S
C130 C129 1.392 1_565 S
C130 C131 1.361 . S
C130 C132 1.500 . S
C131 C126 1.390 1_565 S
C131 C130 1.361 . S
C131 H149 0.931 . S
C132 C130 1.500 . S
C132 C133 1.371 . S
C132 C134 1.365 . S
C133 C132 1.371 . S
C133 C143 1.386 . S
C133 H151 0.931 . S
C134 C132 1.365 . S
C134 C135 1.409 . S
C134 H152 0.929 . S
C135 C134 1.409 . S
C135 C136 1.380 . S
C135 H153 0.930 . S
C136 C135 1.380 . S
C136 C143 1.357 . S
C137 C128 1.511 . S
C137 C138 1.341 . S
C137 C139 1.371 . S
C138 C137 1.341 . S
C138 C142 1.394 . S
C138 H154 0.930 . S
C139 C137 1.371 . S
C139 C140 1.392 . S
C139 H155 0.931 . S
C140 C139 1.392 . S
C140 C141 1.331 . S
C140 H158 0.932 . S
C141 C140 1.331 . S
C141 C142 1.336 . S
C142 C138 1.394 . S
C142 C141 1.336 . S
C142 H157 0.929 . S
C143 C133 1.386 . S
C143 C136 1.357 . S
C143 H156 0.928 . S
H144 C120 0.931 . S
H145 C122 0.930 . S
H146 C124 0.929 . S
H147 C125 0.931 . S
H148 C127 0.930 . S
H149 C131 0.931 . S
H150 C129 0.931 . S
H151 C133 0.931 . S
H152 C134 0.929 . S
H153 C135 0.930 . S
H154 C138 0.930 . S
H155 C139 0.931 . S
H156 C143 0.928 . S
H157 C142 0.929 . S
H158 C140 0.932 . S
C159 C160 1.386 . S
C159 C161 1.397 . S
C159 H183 0.931 . S
C160 C159 1.386 . S
C160 C164 1.397 . S
C161 C159 1.397 . S
C161 C162 1.384 . S
C161 H184 0.930 . S
C162 C161 1.384 . S
C162 C163 1.377 . S
C162 C165 1.481 . S
C163 C162 1.377 . S
C163 C164 1.389 . S
C163 H185 0.929 . S
C164 C160 1.397 . S
C164 C163 1.389 . S
C164 H186 0.931 . S
C165 C162 1.481 . S
C165 C166 1.387 . S
C165 C170 1.390 . S
C166 C165 1.387 . S
C166 C167 1.401 . S
C166 H187 0.930 . S
C167 C166 1.401 . S
C167 C168 1.376 . S
C167 C176 1.511 . S
C168 C167 1.376 . S
C168 C169 1.392 . S
C168 H189 0.931 . S
C169 C168 1.392 . S
C169 C170 1.361 . S
C169 C171 1.500 . S
C170 C165 1.390 . S
C170 C169 1.361 . S
C170 H188 0.931 . S
C171 C169 1.500 . S
C171 C172 1.371 . S
C171 C173 1.365 . S
C172 C171 1.371 . S
C172 C182 1.386 . S
C172 H190 0.931 . S
C173 C171 1.365 . S
C173 C174 1.409 . S
C173 H191 0.929 . S
C174 C173 1.409 . S
C174 C175 1.380 . S
C174 H192 0.930 . S
C175 C174 1.380 . S
C175 C182 1.357 . S
C176 C167 1.511 . S
C176 C177 1.341 . S
C176 C178 1.371 . S
C177 C176 1.341 . S
C177 C181 1.394 . S
C177 H193 0.930 . S
C178 C176 1.371 . S
C178 C179 1.392 . S
C178 H194 0.931 . S
C179 C178 1.392 . S
C179 C180 1.331 . S
C179 H197 0.932 . S
C180 C179 1.331 . S
C180 C181 1.336 . S
C181 C177 1.394 . S
C181 C180 1.336 . S
C181 H196 0.929 . S
C182 C172 1.386 . S
C182 C175 1.357 . S
C182 H195 0.928 . S
H183 C159 0.931 . S
H184 C161 0.930 . S
H185 C163 0.929 . S
H186 C164 0.931 . S
H187 C166 0.930 . S
H188 C170 0.931 . S
H189 C168 0.931 . S
H190 C172 0.931 . S
H191 C173 0.929 . S
H192 C174 0.930 . S
H193 C177 0.930 . S
H194 C178 0.931 . S
H195 C182 0.928 . S
H196 C181 0.929 . S
H197 C179 0.932 . S
C198 C199 1.386 . S
C198 C200 1.397 . S
C198 H222 0.931 . S
C199 C198 1.386 . S
C199 C203 1.397 1_455 S
C200 C198 1.397 . S
C200 C201 1.384 1_554 S
C200 H223 0.930 1_554 S
C201 C200 1.384 1_556 S
C201 C202 1.377 1_455 S
C201 C204 1.481 . S
C202 C201 1.377 1_655 S
C202 C203 1.389 1_556 S
C202 H224 0.929 . S
C203 C199 1.397 1_655 S
C203 C202 1.389 1_554 S
C203 H225 0.931 . S
C204 C201 1.481 . S
C204 C205 1.387 . S
C204 C209 1.390 . S
C205 C204 1.387 . S
C205 C206 1.401 . S
C205 H226 0.930 . S
C206 C205 1.401 . S
C206 C207 1.376 . S
C206 C215 1.511 . S
C207 C206 1.376 . S
C207 C208 1.392 . S
C207 H228 0.931 . S
C208 C207 1.392 . S
C208 C209 1.361 . S
C208 C210 1.500 1_455 S
C209 C204 1.390 . S
C209 C208 1.361 . S
C209 H227 0.931 1_455 S
C210 C208 1.500 1_655 S
C210 C211 1.371 . S
C210 C212 1.365 . S
C211 C210 1.371 . S
C211 C221 1.386 . S
C211 H229 0.931 1_655 S
C212 C210 1.365 . S
C212 C213 1.409 . S
C212 H230 0.929 . S
C213 C212 1.409 . S
C213 C214 1.380 . S
C213 H231 0.930 . S
C214 C213 1.380 . S
C214 C221 1.357 . S
C215 C206 1.511 . S
C215 C216 1.341 . S
C215 C217 1.371 . S
C216 C215 1.341 . S
C216 C220 1.394 . S
C216 H232 0.930 . S
C217 C215 1.371 . S
C217 C218 1.392 . S
C217 H233 0.931 . S
C218 C217 1.392 . S
C218 C219 1.331 . S
C218 H236 0.932 . S
C219 C218 1.331 . S
C219 C220 1.336 . S
C220 C216 1.394 . S
C220 C219 1.336 . S
C220 H235 0.929 . S
C221 C211 1.386 . S
C221 C214 1.357 . S
C221 H234 0.928 . S
H222 C198 0.931 . S
H223 C200 0.930 1_556 S
H224 C202 0.929 . S
H225 C203 0.931 . S
H226 C205 0.930 . S
H227 C209 0.931 1_655 S
H228 C207 0.931 . S
H229 C211 0.931 1_455 S
H230 C212 0.929 . S
H231 C213 0.930 . S
H232 C216 0.930 . S
H233 C217 0.931 . S
H234 C221 0.928 . S
H235 C220 0.929 . S
H236 C218 0.932 . S
C237 C238 1.386 1_655 S
C237 C239 1.397 . S
C237 H261 0.931 . S
C238 C237 1.386 1_455 S
C238 C242 1.397 . S
C239 C237 1.397 . S
C239 C240 1.384 . S
C239 H262 0.930 . S
C240 C239 1.384 . S
C240 C241 1.377 1_655 S
C240 C243 1.481 . S
C241 C240 1.377 1_455 S
C241 C242 1.389 . S
C241 H263 0.929 . S
C242 C238 1.397 . S
C242 C241 1.389 . S
C242 H264 0.931 . S
C243 C240 1.481 . S
C243 C244 1.387 . S
C243 C248 1.390 1_655 S
C244 C243 1.387 . S
C244 C245 1.401 . S
C244 H265 0.930 . S
C245 C244 1.401 . S
C245 C246 1.376 . S
C245 C254 1.511 . S
C246 C245 1.376 . S
C246 C247 1.392 1_655 S
C246 H267 0.931 . S
C247 C246 1.392 1_455 S
C247 C248 1.361 . S
C247 C249 1.500 . S
C248 C243 1.390 1_455 S
C248 C247 1.361 . S
C248 H266 0.931 . S
C249 C247 1.500 . S
C249 C250 1.371 . S
C249 C251 1.365 . S
C250 C249 1.371 . S
C250 C260 1.386 . S
C250 H268 0.931 . S
C251 C249 1.365 . S
C251 C252 1.409 . S
C251 H269 0.929 . S
C252 C251 1.409 . S
C252 C253 1.380 . S
C252 H270 0.930 . S
C253 C252 1.380 . S
C253 C260 1.357 . S
C254 C245 1.511 . S
C254 C255 1.341 . S
C254 C256 1.371 . S
C255 C254 1.341 . S
C255 C259 1.394 . S
C255 H271 0.930 . S
C256 C254 1.371 . S
C256 C257 1.392 . S
C256 H272 0.931 . S
C257 C256 1.392 . S
C257 C258 1.331 . S
C257 H275 0.932 . S
C258 C257 1.331 . S
C258 C259 1.336 . S
C259 C255 1.394 . S
C259 C258 1.336 . S
C259 H274 0.929 . S
C260 C250 1.386 . S
C260 C253 1.357 . S
C260 H273 0.928 . S
H261 C237 0.931 . S
H262 C239 0.930 . S
H263 C241 0.929 . S
H264 C242 0.931 . S
H265 C244 0.930 . S
H266 C248 0.931 . S
H267 C246 0.931 . S
H268 C250 0.931 . S
H269 C251 0.929 . S
H270 C252 0.930 . S
H271 C255 0.930 . S
H272 C256 0.931 . S
H273 C260 0.928 . S
H274 C259 0.929 . S
H275 C257 0.932 . S
C276 C277 1.386 . S
C276 C278 1.397 . S
C276 H300 0.931 . S
C277 C276 1.386 . S
C277 C281 1.397 1_565 S
C278 C276 1.397 . S
C278 C279 1.384 . S
C278 H301 0.930 . S
C279 C278 1.384 . S
C279 C280 1.377 1_565 S
C279 C282 1.481 . S
C280 C279 1.377 1_545 S
C280 C281 1.389 . S
C280 H302 0.929 . S
C281 C277 1.397 1_545 S
C281 C280 1.389 . S
C281 H303 0.931 . S
C282 C279 1.481 . S
C282 C283 1.387 . S
C282 C287 1.390 1_565 S
C283 C282 1.387 . S
C283 C284 1.401 . S
C283 H304 0.930 . S
C284 C283 1.401 . S
C284 C285 1.376 1_565 S
C284 C293 1.511 . S
C285 C284 1.376 1_545 S
C285 C286 1.392 . S
C285 H306 0.931 . S
C286 C285 1.392 . S
C286 C287 1.361 . S
C286 C288 1.500 . S
C287 C282 1.390 1_545 S
C287 C286 1.361 . S
C287 H305 0.931 . S
C288 C286 1.500 . S
C288 C289 1.371 . S
C288 C290 1.365 . S
C289 C288 1.371 . S
C289 C299 1.386 . S
C289 H307 0.931 . S
C290 C288 1.365 . S
C290 C291 1.409 . S
C290 H308 0.929 . S
C291 C290 1.409 . S
C291 C292 1.380 . S
C291 H309 0.930 . S
C292 C291 1.380 . S
C292 C299 1.357 . S
C293 C284 1.511 . S
C293 C294 1.341 . S
C293 C295 1.371 . S
C294 C293 1.341 . S
C294 C298 1.394 . S
C294 H310 0.930 . S
C295 C293 1.371 . S
C295 C296 1.392 . S
C295 H311 0.931 . S
C296 C295 1.392 . S
C296 C297 1.331 . S
C296 H314 0.932 . S
C297 C296 1.331 . S
C297 C298 1.336 . S
C298 C294 1.394 . S
C298 C297 1.336 . S
C298 H313 0.929 . S
C299 C289 1.386 . S
C299 C292 1.357 . S
C299 H312 0.928 . S
H300 C276 0.931 . S
H301 C278 0.930 . S
H302 C280 0.929 . S
H303 C281 0.931 . S
H304 C283 0.930 . S
H305 C287 0.931 . S
H306 C285 0.931 . S
H307 C289 0.931 . S
H308 C290 0.929 . S
H309 C291 0.930 . S
H310 C294 0.930 . S
H311 C295 0.931 . S
H312 C299 0.928 . S
H313 C298 0.929 . S
H314 C296 0.932 . S
C315 C316 1.386 . S
C315 C317 1.397 . S
C315 H339 0.931 . S
C316 C315 1.386 . S
C316 C320 1.397 . S
C317 C315 1.397 . S
C317 C318 1.384 . S
C317 H340 0.930 . S
C318 C317 1.384 . S
C318 C319 1.377 . S
C318 C321 1.481 1_556 S
C319 C318 1.377 . S
C319 C320 1.389 . S
C319 H341 0.929 . S
C320 C316 1.397 . S
C320 C319 1.389 . S
C320 H342 0.931 . S
C321 C318 1.481 1_554 S
C321 C322 1.387 . S
C321 C326 1.390 . S
C322 C321 1.387 . S
C322 C323 1.401 . S
C322 H343 0.930 . S
C323 C322 1.401 . S
C323 C324 1.376 . S
C323 C332 1.511 . S
C324 C323 1.376 . S
C324 C325 1.392 . S
C324 H345 0.931 . S
C325 C324 1.392 . S
C325 C326 1.361 . S
C325 C327 1.500 . S
C326 C321 1.390 . S
C326 C325 1.361 . S
C326 H344 0.931 . S
C327 C325 1.500 . S
C327 C328 1.371 . S
C327 C329 1.365 . S
C328 C327 1.371 . S
C328 C338 1.386 . S
C328 H346 0.931 . S
C329 C327 1.365 . S
C329 C330 1.409 . S
C329 H347 0.929 . S
C330 C329 1.409 . S
C330 C331 1.380 . S
C330 H348 0.930 . S
C331 C330 1.380 . S
C331 C338 1.357 . S
C332 C323 1.511 . S
C332 C333 1.341 . S
C332 C334 1.371 . S
C333 C332 1.341 . S
C333 C337 1.394 . S
C333 H349 0.930 . S
C334 C332 1.371 . S
C334 C335 1.392 . S
C334 H350 0.931 . S
C335 C334 1.392 . S
C335 C336 1.331 . S
C335 H353 0.932 . S
C336 C335 1.331 . S
C336 C337 1.336 . S
C337 C333 1.394 . S
C337 C336 1.336 . S
C337 H352 0.929 . S
C338 C328 1.386 . S
C338 C331 1.357 . S
C338 H351 0.928 . S
H339 C315 0.931 . S
H340 C317 0.930 . S
H341 C319 0.929 . S
H342 C320 0.931 . S
H343 C322 0.930 . S
H344 C326 0.931 . S
H345 C324 0.931 . S
H346 C328 0.931 . S
H347 C329 0.929 . S
H348 C330 0.930 . S
H349 C333 0.930 . S
H350 C334 0.931 . S
H351 C338 0.928 . S
H352 C337 0.929 . S
H353 C335 0.932 . S
C6 C331 3.333 . S
C59 C258 2.820 . S
C86 C297 2.510 . S
C15 C336 1.792 . S
C253 C50 3.220 . S
C292 C95 1.625 . S
C46 C180 1.708 . S
C99 C214 5.052 . S
C10 C136 3.358 . S
C175 C55 1.831 . S
C219 C90 4.990 . S
C19 C141 2.861 . S
C199 C18 2.041 . S
C49 C121 1.172 . S
C98 C160 1.449 . S
C277 C58 1.446 1_565 S
C316 C89 1.653 . S
C9 C238 1.156 . S
