# Generated by pormake.
# Topology pyr, (3,6)-cn, num edge types: 1
# Building blocks:
#     Node 0, Type 0, BuildingBlock: ESEHIV_clean_linker_0, # of connection points: 3
#     Node 1, Type 0, BuildingBlock: ESEHIV_clean_linker_0, # of connection points: 3
#     Node 2, Type 0, BuildingBlock: ESEHIV_clean_linker_0, # of connection points: 3
#     Node 3, Type 0, BuildingBlock: ESEHIV_clean_linker_0, # of connection points: 3
#     Node 4, Type 0, BuildingBlock: ESEHIV_clean_linker_0, # of connection points: 3
#     Node 5, Type 0, BuildingBlock: ESEHIV_clean_linker_0, # of connection points: 3
#     Node 6, Type 0, BuildingBlock: ESEHIV_clean_linker_0, # of connection points: 3
#     Node 7, Type 0, BuildingBlock: ESEHIV_clean_linker_0, # of connection points: 3
#     Node 8, Type 1, BuildingBlock: BETDIP_clean_sbu_0, # of connection points: 6
#     Node 9, Type 1, BuildingBlock: BETDIP_clean_sbu_0, # of connection points: 6
#     Node 10, Type 1, BuildingBlock: BETDIP_clean_sbu_0, # of connection points: 6
#     Node 11, Type 1, BuildingBlock: BETDIP_clean_sbu_0, # of connection points: 6
#     Edge 12, Type (0, 1), BuildingBlock: UVAHIK_clean_linker_0, # of connection points: 2
#     Edge 13, Type (0, 1), BuildingBlock: UVAHIK_clean_linker_0, # of connection points: 2
#     Edge 14, Type (0, 1), BuildingBlock: UVAHIK_clean_linker_0, # of connection points: 2
#     Edge 15, Type (0, 1), BuildingBlock: UVAHIK_clean_linker_0, # of connection points: 2
#     Edge 16, Type (0, 1), BuildingBlock: UVAHIK_clean_linker_0, # of connection points: 2
#     Edge 17, Type (0, 1), BuildingBlock: UVAHIK_clean_linker_0, # of connection points: 2
#     Edge 18, Type (0, 1), BuildingBlock: UVAHIK_clean_linker_0, # of connection points: 2
#     Edge 19, Type (0, 1), BuildingBlock: UVAHIK_clean_linker_0, # of connection points: 2
#     Edge 20, Type (0, 1), BuildingBlock: UVAHIK_clean_linker_0, # of connection points: 2
#     Edge 21, Type (0, 1), BuildingBlock: UVAHIK_clean_linker_0, # of connection points: 2
#     Edge 22, Type (0, 1), BuildingBlock: UVAHIK_clean_linker_0, # of connection points: 2
#     Edge 23, Type (0, 1), BuildingBlock: UVAHIK_clean_linker_0, # of connection points: 2
#     Edge 24, Type (0, 1), BuildingBlock: UVAHIK_clean_linker_0, # of connection points: 2
#     Edge 25, Type (0, 1), BuildingBlock: UVAHIK_clean_linker_0, # of connection points: 2
#     Edge 26, Type (0, 1), BuildingBlock: UVAHIK_clean_linker_0, # of connection points: 2
#     Edge 27, Type (0, 1), BuildingBlock: UVAHIK_clean_linker_0, # of connection points: 2
#     Edge 28, Type (0, 1), BuildingBlock: UVAHIK_clean_linker_0, # of connection points: 2
#     Edge 29, Type (0, 1), BuildingBlock: UVAHIK_clean_linker_0, # of connection points: 2
#     Edge 30, Type (0, 1), BuildingBlock: UVAHIK_clean_linker_0, # of connection points: 2
#     Edge 31, Type (0, 1), BuildingBlock: UVAHIK_clean_linker_0, # of connection points: 2
#     Edge 32, Type (0, 1), BuildingBlock: UVAHIK_clean_linker_0, # of connection points: 2
#     Edge 33, Type (0, 1), BuildingBlock: UVAHIK_clean_linker_0, # of connection points: 2
#     Edge 34, Type (0, 1), BuildingBlock: UVAHIK_clean_linker_0, # of connection points: 2
#     Edge 35, Type (0, 1), BuildingBlock: UVAHIK_clean_linker_0, # of connection points: 2
# Relax obj value: 0.117
# Max RMSD: 0.192
# Mean RMSD: 0.086
data_MOF--net-pyr--node1-BETDIP_clean_sbu_0--node2-ESEHIV_clean_linker_0--edge1-UVAHIK_clean_linker_0
_symmetry_space_group_name_H-M    P1
_symmetry_Int_Tables_number       1
_symmetry_cell_setting            triclinic
loop_
_symmetry_equiv_pos_as_xyz
'x, y, z'
_cell_length_a     45.313992
_cell_length_b     48.14839
_cell_length_c     45.816386
_cell_angle_alpha  89.043833
_cell_angle_beta   92.877095
_cell_angle_gamma 103.7615
loop_
_atom_site_label
_atom_site_type_symbol
_atom_site_fract_x
_atom_site_fract_y
_atom_site_fract_z
_atom_type_partial_charge
H0 H 0.29734 0.3148 0.25707 0.0
H1 H 0.34547 0.24905 0.27456 0.0
H2 H 0.35463 0.2948 0.19265 0.0
C3 C 0.31359 0.30303 0.25064 0.0
C4 C 0.32549 0.30753 0.22281 0.0
C5 C 0.32083 0.28212 0.26951 0.0
C6 C 0.34101 0.26615 0.26063 0.0
C7 C 0.35314 0.27036 0.23279 0.0
C8 C 0.34558 0.29144 0.21422 0.0
H9 H 0.13183 0.78516 0.76799 0.0
H10 H 0.19711 0.73396 0.76212 0.0
H11 H 0.13771 0.74243 0.68798 0.0
C12 C 0.14163 0.77068 0.75594 0.0
C13 C 0.13255 0.7654 0.72645 0.0
C14 C 0.16499 0.75945 0.76916 0.0
C15 C 0.17789 0.74131 0.75276 0.0
C16 C 0.16804 0.73461 0.72352 0.0
C17 C 0.14512 0.74668 0.71066 0.0
H18 H 0.66125 0.33636 0.91234 0.0
H19 H 0.66928 0.40696 0.85251 0.0
H20 H 0.58975 0.33665 0.84721 0.0
C21 C 0.65228 0.34654 0.89378 0.0
C22 C 0.62408 0.33296 0.88039 0.0
C23 C 0.66841 0.37351 0.88428 0.0
C24 C 0.65617 0.38674 0.86059 0.0
C25 C 0.62775 0.37384 0.84683 0.0
C26 C 0.61175 0.34689 0.85717 0.0
H27 H 0.82751 0.71818 0.40283 0.0
H28 H 0.8944 0.72407 0.33818 0.0
H29 H 0.82016 0.64929 0.3423 0.0
C30 C 0.83614 0.70901 0.38456 0.0
C31 C 0.82081 0.68174 0.37445 0.0
C32 C 0.86255 0.72459 0.37165 0.0
C33 C 0.874 0.71229 0.34828 0.0
C34 C 0.8585 0.68528 0.33715 0.0
C35 C 0.83179 0.6703 0.35028 0.0
H36 H 0.6368 0.81426 0.84919 0.0
H37 H 0.70039 0.761 0.86013 0.0
H38 H 0.63435 0.75925 0.92453 0.0
C39 C 0.64514 0.79797 0.86134 0.0
C40 C 0.63228 0.78775 0.8879 0.0
C41 C 0.66971 0.78849 0.85104 0.0
C42 C 0.6807 0.76771 0.86719 0.0
C43 C 0.66805 0.75714 0.89366 0.0
C44 C 0.64387 0.76721 0.90392 0.0
H45 H 0.79481 0.30976 0.33366 0.0
H46 H 0.86551 0.26438 0.34489 0.0
H47 H 0.83681 0.30288 0.41897 0.0
C48 C 0.8118 0.3029 0.34756 0.0
C49 C 0.81406 0.30913 0.3776 0.0
C50 C 0.8298 0.28631 0.33563 0.0
C51 C 0.85173 0.27748 0.35379 0.0
C52 C 0.85443 0.28344 0.38382 0.0
C53 C 0.83554 0.29927 0.39561 0.0
H54 H 0.33349 0.7189 0.19714 0.0
H55 H 0.33033 0.64778 0.2553 0.0
H56 H 0.4057 0.72172 0.26265 0.0
C57 C 0.34402 0.70888 0.2148 0.0
C58 C 0.37174 0.72377 0.22827 0.0
C59 C 0.32924 0.68133 0.22394 0.0
C60 C 0.34185 0.66892 0.24799 0.0
C61 C 0.36931 0.68339 0.26244 0.0
C62 C 0.3841 0.71086 0.25235 0.0
H63 H 0.09655 0.33178 0.76594 0.0
H64 H 0.16184 0.34038 0.69928 0.0
H65 H 0.16825 0.40852 0.75992 0.0
C66 C 0.11636 0.34412 0.75541 0.0
C67 C 0.13143 0.37133 0.76664 0.0
C68 C 0.12675 0.33281 0.73065 0.0
C69 C 0.15269 0.34914 0.71746 0.0
C70 C 0.16766 0.37642 0.72768 0.0
C71 C 0.15703 0.38724 0.75237 0.0
Tb72 Tb 0.96712 1.01569 0.56019 0.0
Tb73 Tb 0.03498 0.03898 0.54311 0.0
C74 C 0.91412 0.98519 0.56203 0.0
C75 C 0.89475 0.96915 0.58449 0.0
C76 C 0.90562 0.95097 0.60441 0.0
C77 C 0.88656 0.93551 0.62511 0.0
C78 C 0.85645 0.9382 0.62645 0.0
C79 C 0.84578 0.95668 0.60674 0.0
C80 C 0.86475 0.97192 0.58586 0.0
C81 C -0.00273 0.05763 0.59567 0.0
C82 C 0.02011 0.99155 0.59167 0.0
C83 C 0.08797 0.06589 0.53279 0.0
C84 C 0.10583 0.09371 0.52313 0.0
C85 C 0.09201 0.11516 0.51228 0.0
C86 C 0.10956 0.13975 0.49931 0.0
C87 C 0.14112 0.14311 0.49701 0.0
C88 C 0.15484 0.12198 0.50919 0.0
C89 C 0.13734 0.09757 0.52212 0.0
C90 C 0.00438 0.9909 0.51809 0.0
C91 C 0.98314 0.06851 0.51795 0.0
O92 O 0.93756 0.97537 0.55523 0.0
O93 O 0.92065 1.01314 0.56423 0.0
O94 O 0.00604 0.0462 0.5745 0.0
O95 O 0.96926 0.04385 0.59881 0.0
O96 O 0.99063 0.98756 0.58475 0.0
O97 O 0.04112 1.01274 0.58088 0.0
O98 O 0.07686 0.06445 0.55885 0.0
O99 O 0.06883 0.05116 0.51308 0.0
O100 O -0.00611 1.01219 0.52376 0.0
O101 O 0.03326 0.99705 0.52482 0.0
O102 O 0.01257 0.07096 0.52405 0.0
O103 O 0.96186 0.04623 0.52617 0.0
H104 H 0.92878 0.94862 0.60399 0.0
H105 H 0.89546 0.92167 0.64027 0.0
H106 H 0.82259 0.95897 0.60714 0.0
H107 H 0.85594 0.98581 0.57067 0.0
H108 H 0.06765 0.11247 0.51299 0.0
H109 H 0.09833 0.15575 0.49044 0.0
H110 H 0.17891 0.1235 0.50741 0.0
H111 H 0.1483 0.08107 0.53024 0.0
Tb112 Tb 0.52426 0.04093 0.05942 0.0
Tb113 Tb 0.45341 1.0188 1.0469 0.0
C114 C 0.57729 0.07142 0.05764 0.0
C115 C 0.60069 0.0887 0.07772 0.0
C116 C 0.59393 0.10944 0.0958 0.0
C117 C 0.61697 0.12721 0.11285 0.0
C118 C 0.6471 0.12439 0.11238 0.0
C119 C 0.65367 0.10308 0.09498 0.0
C120 C 0.63066 0.08549 0.07765 0.0
C121 C 0.49956 0.99763 0.09454 0.0
C122 C 0.47733 0.06261 0.09744 0.0
C123 C 0.39903 0.9922 1.03849 0.0
C124 C 0.38068 0.96447 1.02818 0.0
C125 C 0.3927 0.94683 1.01039 0.0
C126 C 0.37347 0.92283 0.99705 0.0
C127 C 0.34202 0.91636 1.0012 0.0
C128 C 0.3305 0.93321 1.02041 0.0
C129 C 0.34971 0.95706 1.03377 0.0
C130 C 0.48073 0.06742 1.02188 0.0
C131 C 0.49983 0.99013 1.01581 0.0
O132 O 0.55277 0.081 1.05209 0.0
O133 O 0.57129 0.04356 0.06125 0.0
O134 O 0.48778 1.00998 0.0746 0.0
O135 O 0.52811 1.01098 0.09647 0.0
O136 O 0.50512 0.06801 0.08735 0.0
O137 O 0.45465 0.04169 0.0874 0.0
O138 O 0.414 0.99262 0.06382 0.0
O139 O 0.41489 1.00843 1.01873 0.0
O140 O 0.49124 0.04559 1.02583 0.0
O141 O 0.45326 0.0619 1.03083 0.0
O142 O 0.47199 0.98725 1.02504 0.0
O143 O 0.52273 1.01202 1.02315 0.0
H144 H 0.57096 0.11226 0.09646 0.0
H145 H 0.61124 0.1432 0.12642 0.0
H146 H 0.67674 0.10055 0.09416 0.0
H147 H 0.63635 0.0697 0.06379 0.0
H148 H 0.41658 0.95233 1.00575 0.0
H149 H 0.38293 0.91032 0.98222 0.0
H150 H 0.30643 0.9285 1.02429 0.0
H151 H 0.3401 0.97046 1.04748 0.0
Tb152 Tb 0.49717 0.55824 0.56796 0.0
Tb153 Tb 0.49776 0.49757 0.54491 0.0
C154 C 0.48381 0.60361 0.58236 0.0
C155 C 0.45562 0.61205 0.58833 0.0
C156 C 0.42816 0.60033 0.57266 0.0
C157 C 0.40149 0.60817 0.57938 0.0
C158 C 0.40181 0.62766 0.60202 0.0
C159 C 0.42941 0.63902 0.6178 0.0
C160 C 0.45603 0.63135 0.61092 0.0
C161 C 0.52636 0.527 0.60108 0.0
C162 C 0.43973 0.50503 0.57591 0.0
C163 C 0.51361 0.45121 0.54407 0.0
C164 C 0.53448 0.43917 0.52752 0.0
C165 C 0.55067 0.42129 0.54217 0.0
C166 C 0.57383 0.41268 0.52854 0.0
C167 C 0.58104 0.42165 0.49991 0.0
C168 C 0.5641 0.4388 0.48483 0.0
C169 C 0.54112 0.44775 0.49866 0.0
C170 C 0.47609 0.52796 0.50349 0.0
C171 C 0.55079 0.55246 0.52958 0.0
O172 O 0.48729 0.59715 0.55529 0.0
O173 O 0.49179 0.58572 0.60122 0.0
O174 O 0.5019 0.51837 0.58614 0.0
O175 O 0.53501 0.55459 0.59846 0.0
O176 O 0.45058 0.53323 0.57485 0.0
O177 O 0.45537 0.48678 0.56742 0.0
O178 O 0.52721 0.47289 0.56061 0.0
O179 O 0.48879 0.45517 0.5302 0.0
O180 O 0.48542 0.53473 0.52931 0.0
O181 O 0.47847 0.50183 0.50009 0.0
O182 O 0.5418 0.52419 0.53227 0.0
O183 O 0.53533 0.57012 0.53974 0.0
H184 H 0.42729 0.58512 0.5553 0.0
H185 H 0.38073 0.59919 0.56664 0.0
H186 H 0.43041 0.65357 0.63579 0.0
H187 H 0.47695 0.64029 0.62348 0.0
H188 H 0.54606 0.41475 0.56456 0.0
H189 H 0.58638 0.39925 0.54051 0.0
H190 H 0.5694 0.44613 0.46279 0.0
H191 H 0.52923 0.46201 0.48718 0.0
Tb192 Tb -0.00576 0.55217 1.03435 0.0
Tb193 Tb 0.0022 0.50474 0.07441 0.0
C194 C 0.97277 0.58765 1.00466 0.0
C195 C 0.94456 0.59779 1.00481 0.0
C196 C 0.91601 0.57845 1.00616 0.0
C197 C 0.88942 0.58837 1.00476 0.0
C198 C 0.89092 0.61779 1.00246 0.0
C199 C 0.91952 0.63715 1.00212 0.0
C200 C 0.94612 0.6272 1.00313 0.0
C201 C 0.04926 0.55933 0.05968 0.0
C202 C 0.97126 0.54942 0.09944 0.0
C203 C 0.02387 0.46938 0.10401 0.0
C204 C 0.05208 0.45945 0.10294 0.0
C205 C 0.07994 0.47875 0.09778 0.0
C206 C 0.10676 0.46925 0.09811 0.0
C207 C 0.10609 0.44026 0.10308 0.0
C208 C 0.07806 0.42084 0.1072 0.0
C209 C 0.05128 0.43042 0.10727 0.0
C210 C 0.94716 0.49767 1.04924 0.0
C211 C 0.02522 0.5075 1.00912 0.0
O212 O 0.96975 0.56104 0.99692 0.0
O213 O 0.9919 0.59485 1.02714 0.0
O214 O 0.02434 0.54869 0.07093 0.0
O215 O 0.04377 0.56863 1.03375 0.0
O216 O 0.96682 0.55678 0.07181 0.0
O217 O 0.98787 0.53095 0.10641 0.0
O218 O 0.02715 0.49606 0.11159 0.0
O219 O 0.00418 0.46203 0.08199 0.0
O220 O 0.97208 0.50818 1.03789 0.0
O221 O 0.95268 0.48852 0.07524 0.0
O222 O 0.02892 0.49947 1.03666 0.0
O223 O 0.00935 0.5266 1.00227 0.0
H224 H 0.91415 0.55565 1.0079 0.0
H225 H 0.86765 0.57305 1.00532 0.0
H226 H 0.92127 0.65993 1.00011 0.0
H227 H 0.96791 0.64245 1.00218 0.0
H228 H 0.08108 0.50122 0.09387 0.0
H229 H 0.12806 0.48458 0.09464 0.0
H230 H 0.077 0.39841 0.11132 0.0
H231 H 0.02998 0.41522 0.11109 0.0
C232 C 0.32004 0.27021 0.32314 0.0
C233 C 0.30448 0.27465 0.29686 0.0
C234 C 0.30407 0.26176 0.34842 0.0
C235 C 0.22809 0.25484 0.37995 0.0
H236 H 0.25195 0.1957 0.42739 0.0
C237 C 0.14758 0.17504 0.45274 0.0
C238 C 0.15943 0.16684 0.47962 0.0
C239 C 0.16631 0.19374 0.43399 0.0
C240 C 0.24529 0.21257 0.41468 0.0
H241 H 0.26005 0.27342 0.27628 0.0
H242 H 0.23221 0.25818 0.31993 0.0
H243 H 0.28332 0.21753 0.38771 0.0
H244 H 0.19968 0.1738 0.50885 0.0
H245 H 0.23247 0.20601 0.47579 0.0
H246 H 0.18918 0.24869 0.40623 0.0
C247 C 0.25677 0.26205 0.32149 0.0
C248 C 0.26332 0.22516 0.39192 0.0
C249 C 0.27273 0.27071 0.29638 0.0
C250 C 0.18998 0.17917 0.48804 0.0
C251 C 0.20876 0.19766 0.46917 0.0
C252 C 0.20989 0.24201 0.40253 0.0
C253 C 0.27217 0.25727 0.34782 0.0
C254 C 0.25468 0.2461 0.37392 0.0
C255 C 0.19731 0.20449 0.44163 0.0
C256 C 0.21808 0.22044 0.41983 0.0
H257 H 0.34453 0.27325 0.32412 0.0
H258 H 0.31672 0.25864 0.3684 0.0
H259 H 0.22105 0.27131 0.36693 0.0
H260 H 0.1243 0.16573 0.44536 0.0
H261 H 0.15692 0.19845 0.41278 0.0
C262 C 0.18087 0.79787 0.80717 0.0
C263 C 0.17844 0.76941 0.79865 0.0
C264 C 0.1953 0.80802 0.83379 0.0
C265 C 0.25658 0.80189 0.88319 0.0
H266 H 0.21977 0.84379 0.93669 0.0
C267 C 0.32677 0.86724 0.97894 0.0
C268 C 0.32084 0.89417 0.98331 0.0
C269 C 0.30726 0.84718 0.96065 0.0
C270 C 0.23049 0.83231 0.92192 0.0
H271 H 0.18899 0.72924 0.81218 0.0
H272 H 0.21567 0.7477 0.85823 0.0
H273 H 0.18892 0.8174 0.89642 0.0
H274 H 0.29023 0.92141 0.97162 0.0
H275 H 0.25685 0.88706 0.93944 0.0
H276 H 0.29863 0.81832 0.90726 0.0
C277 C 0.20583 0.76179 0.84418 0.0
C278 C 0.21272 0.81703 0.89905 0.0
C279 C 0.19073 0.75136 0.81775 0.0
C280 C 0.29503 0.9006 0.96921 0.0
C281 C 0.27579 0.88078 0.9508 0.0
C282 C 0.27453 0.81759 0.90581 0.0
C283 C 0.20827 0.79023 0.85231 0.0
C284 C 0.22578 0.80229 0.8791 0.0
C285 C 0.28163 0.85382 0.94616 0.0
C286 C 0.26188 0.83369 0.92494 0.0
H287 H 0.17266 0.8128 0.79288 0.0
H288 H 0.19738 0.8302 0.8394 0.0
H289 H 0.26716 0.79083 0.86787 0.0
H290 H 0.34648 0.86172 0.98964 0.0
H291 H 0.31232 0.82655 0.95781 0.0
C292 C 0.59836 0.37312 0.79807 0.0
C293 C 0.61524 0.38864 0.82167 0.0
C294 C 0.58783 0.38724 0.77411 0.0
C295 C 0.57638 0.45928 0.75008 0.0
H296 H 0.57163 0.42674 0.67266 0.0
C297 C 0.56155 0.52328 0.64426 0.0
C298 C 0.53784 0.51004 0.62451 0.0
C299 C 0.57082 0.50789 0.66781 0.0
C300 C 0.57273 0.43601 0.69418 0.0
H301 H 0.63318 0.43157 0.8385 0.0
H302 H 0.61667 0.45592 0.79646 0.0
H303 H 0.58771 0.4012 0.7147 0.0
H304 H 0.50536 0.47017 0.61396 0.0
H305 H 0.52242 0.44302 0.65441 0.0
H306 H 0.56242 0.49457 0.72917 0.0
C307 C 0.6108 0.43278 0.79654 0.0
C308 C 0.58176 0.42128 0.71842 0.0
C309 C 0.62087 0.41869 0.82064 0.0
C310 C 0.52405 0.48089 0.62848 0.0
C311 C 0.53373 0.46535 0.6517 0.0
C312 C 0.56793 0.4742 0.7258 0.0
C313 C 0.59413 0.41735 0.7728 0.0
C314 C 0.58379 0.43269 0.74682 0.0
C315 C 0.55693 0.47878 0.67187 0.0
C316 C 0.56602 0.46277 0.69757 0.0
H317 H 0.5937 0.35001 0.79775 0.0
H318 H 0.57465 0.37441 0.75664 0.0
H319 H 0.5768 0.46861 0.77146 0.0
H320 H 0.57255 0.54572 0.64189 0.0
H321 H 0.58889 0.51877 0.68289 0.0
C322 C 0.85083 0.66234 0.28745 0.0
C323 C 0.87011 0.6725 0.3119 0.0
C324 C 0.86148 0.64987 0.2639 0.0
C325 C 0.93381 0.63967 0.23254 0.0
H326 H 0.87735 0.58191 0.18629 0.0
C327 C 0.97155 0.56419 0.15184 0.0
C328 C 0.95838 0.56296 0.12326 0.0
C329 C 0.96059 0.57799 0.17417 0.0
C330 C 0.89334 0.59814 0.19891 0.0
H331 H 0.91562 0.67711 0.33099 0.0
H332 H 0.93392 0.65416 0.2909 0.0
H333 H 0.85902 0.60441 0.2267 0.0
H334 H 0.92291 0.57497 0.09597 0.0
H335 H 0.90302 0.59822 0.13537 0.0
H336 H 0.96831 0.63211 0.20531 0.0
C337 C 0.91082 0.65671 0.28906 0.0
C338 C 0.88284 0.6113 0.22209 0.0
C339 C 0.90031 0.66977 0.3123 0.0
C340 C 0.93358 0.57551 0.11772 0.0
C341 C 0.92214 0.58876 0.14028 0.0
C342 C 0.94437 0.62602 0.20978 0.0
C343 C 0.89162 0.64653 0.26433 0.0
C344 C 0.90286 0.6324 0.23935 0.0
C345 C 0.93573 0.59041 0.16871 0.0
C346 C 0.92428 0.60515 0.19265 0.0
H347 H 0.8275 0.66439 0.28638 0.0
H348 H 0.84598 0.64312 0.24524 0.0
H349 H 0.95005 0.65616 0.24453 0.0
H350 H 0.9908 0.55495 0.1569 0.0
H351 H 0.97142 0.57876 0.19586 0.0
C352 C 0.36425 0.23965 0.19324 0.0
C353 C 0.37056 0.2505 0.22175 0.0
C354 C 0.37867 0.21936 0.18326 0.0
C355 C 0.44418 0.18713 0.19598 0.0
H356 H 0.39202 0.12476 0.15186 0.0
C357 C 0.48808 0.11009 0.12247 0.0
C358 C 0.47038 0.08196 0.11938 0.0
C359 C 0.4785 0.12969 0.13973 0.0
C360 C 0.4069 0.14174 0.16451 0.0
H361 H 0.39768 0.24908 0.26187 0.0
H362 H 0.42271 0.21307 0.24443 0.0
H363 H 0.37033 0.16119 0.17217 0.0
H364 H 0.43036 0.05158 0.13401 0.0
H365 H 0.41411 0.08546 0.16457 0.0
H366 H 0.4808 0.16738 0.18823 0.0
C367 C 0.40669 0.22056 0.22981 0.0
C368 C 0.39451 0.16288 0.17579 0.0
C369 C 0.3922 0.24097 0.23986 0.0
C370 C 0.44419 0.07326 0.13553 0.0
C371 C 0.43482 0.09271 0.15296 0.0
C372 C 0.45667 0.16586 0.18461 0.0
C373 C 0.39964 0.2092 0.20156 0.0
C374 C 0.41303 0.18605 0.19126 0.0
C375 C 0.4512 0.12142 0.15437 0.0
C376 C 0.43816 0.14305 0.16852 0.0
H377 H 0.34739 0.24614 0.17883 0.0
H378 H 0.37309 0.21134 0.16122 0.0
H379 H 0.45901 0.20478 0.20778 0.0
H380 H 0.50839 0.11742 0.1103 0.0
H381 H 0.49158 0.15167 0.14024 0.0
C382 C 0.12599 0.79911 0.68625 0.0
C383 C 0.11447 0.78357 0.7111 0.0
C384 C 0.11282 0.82054 0.67476 0.0
C385 C 0.04633 0.84886 0.66712 0.0
H386 H 0.10324 0.92315 0.66759 0.0
C387 C 0.00933 0.95048 0.62702 0.0
C388 C 0.03016 0.96993 0.61039 0.0
C389 C 0.01826 0.9282 0.64227 0.0
C390 C 0.08709 0.90257 0.66693 0.0
H391 H 0.07911 0.77706 0.74237 0.0
H392 H 0.05537 0.81432 0.72152 0.0
H393 H 0.11995 0.88146 0.68615 0.0
H394 H 0.07677 0.98148 0.59703 0.0
H395 H 0.09204 0.94237 0.62266 0.0
H396 H 0.01381 0.86952 0.64658 0.0
C397 C 0.07482 0.80994 0.7113 0.0
C398 C 0.09667 0.87876 0.67773 0.0
C399 C 0.08835 0.78873 0.72318 0.0
C400 C 0.06024 0.96707 0.6099 0.0
C401 C 0.06904 0.94461 0.62477 0.0
C402 C 0.03684 0.87264 0.65576 0.0
C403 C 0.08762 0.82658 0.68761 0.0
C404 C 0.0765 0.8517 0.67758 0.0
C405 C 0.04811 0.92467 0.64092 0.0
C406 C 0.05726 0.89976 0.65515 0.0
H407 H 0.14634 0.7959 0.67674 0.0
H408 H 0.12292 0.83308 0.65636 0.0
H409 H 0.03046 0.82811 0.66681 0.0
H410 H 0.98601 0.95223 0.62796 0.0
H411 H 0.00167 0.91362 0.65491 0.0
C412 C 0.70418 0.41743 0.90589 0.0
C413 C 0.69775 0.38803 0.89959 0.0
C414 C 0.73101 0.43074 0.92158 0.0
C415 C 0.79036 0.41426 0.97297 0.0
H416 H 0.83555 0.49072 0.95344 0.0
C417 C 0.89154 0.4743 1.04673 0.0
C418 C 0.9176 0.48886 1.03265 0.0
C419 C 0.86413 0.46383 1.03071 0.0
C420 C 0.82328 0.46931 0.95911 0.0
H421 H 0.71518 0.34988 0.90398 0.0
H422 H 0.76191 0.37304 0.9312 0.0
H423 H 0.78979 0.46835 0.92415 0.0
H424 H 0.93525 0.50464 0.99089 0.0
H425 H 0.88749 0.48632 0.96285 0.0
H426 H 0.82411 0.41487 1.00746 0.0
C427 C 0.74593 0.38573 0.92454 0.0
C428 C 0.79686 0.45658 0.94248 0.0
C429 C 0.71912 0.37243 0.90888 0.0
C430 C 0.91549 0.49356 1.00236 0.0
C431 C 0.88807 0.48313 0.98631 0.0
C432 C 0.8167 0.42698 0.98959 0.0
C433 C 0.7521 0.41499 0.93137 0.0
C434 C 0.78013 0.42882 0.94912 0.0
C435 C 0.86214 0.4677 1.00021 0.0
C436 C 0.83358 0.45464 0.98286 0.0
H437 H 0.68806 0.43003 0.89939 0.0
H438 H 0.73482 0.45323 0.9267 0.0
H439 H 0.77788 0.39303 0.97899 0.0
H440 H 0.89246 0.47053 0.0701 0.0
H441 H 0.8445 0.45252 1.04222 0.0
C442 C 0.76703 0.65112 0.37407 0.0
C443 C 0.79366 0.6654 0.38974 0.0
C444 C 0.741 0.63757 0.38881 0.0
C445 C 0.70574 0.63856 0.46023 0.0
H446 H 0.65212 0.56737 0.4336 0.0
C447 C 0.58853 0.59442 0.50916 0.0
C448 C 0.57894 0.56475 0.51377 0.0
C449 C 0.61458 0.60599 0.49373 0.0
C450 C 0.66697 0.58715 0.44149 0.0
H451 H 0.81424 0.67519 0.43325 0.0
H452 H 0.76925 0.6515 0.4588 0.0
H453 H 0.69803 0.58792 0.40749 0.0
H454 H 0.58953 0.52399 0.50558 0.0
H455 H 0.63515 0.54421 0.4791 0.0
H456 H 0.67517 0.6376 0.49452 0.0
C457 C 0.76804 0.65139 0.43514 0.0
C458 C 0.69314 0.59912 0.42628 0.0
C459 C 0.79392 0.66495 0.42046 0.0
C460 C 0.59616 0.54695 0.50251 0.0
C461 C 0.62226 0.55854 0.48709 0.0
C462 C 0.67964 0.62662 0.47539 0.0
C463 C 0.74102 0.6379 0.41957 0.0
C464 C 0.71295 0.62498 0.43549 0.0
C465 C 0.63186 0.58824 0.48249 0.0
C466 C 0.65983 0.60076 0.46626 0.0
H467 H 0.76601 0.65119 0.3504 0.0
H468 H 0.72058 0.62759 0.37605 0.0
H469 H 0.72014 0.65868 0.46779 0.0
H470 H 0.5758 0.60884 0.51726 0.0
H471 H 0.62093 0.6289 0.49027 0.0
C472 C 0.3098 0.35295 0.21007 0.0
C473 C 0.31351 0.32614 0.20157 0.0
C474 C 0.2936 0.36817 0.19179 0.0
C475 C 0.22985 0.35295 0.1394 0.0
H476 H 0.24694 0.43523 0.1292 0.0
C477 C 0.1374 0.40586 0.09131 0.0
C478 C 0.13469 0.43052 0.10579 0.0
C479 C 0.16338 0.39525 0.09615 0.0
C480 C 0.24175 0.41223 0.13196 0.0
H481 H 0.3046 0.29492 0.16669 0.0
H482 H 0.27625 0.32152 0.13479 0.0
H483 H 0.28643 0.41316 0.15044 0.0
H484 H 0.15712 0.46386 0.13606 0.0
H485 H 0.20191 0.44494 0.14536 0.0
H486 H 0.18479 0.35184 0.12283 0.0
C487 C 0.28589 0.33073 0.15557 0.0
C488 C 0.26444 0.39963 0.14397 0.0
C489 C 0.30231 0.31564 0.17373 0.0
C490 C 0.1588 0.44494 0.12441 0.0
C491 C 0.18456 0.43413 0.12959 0.0
C492 C 0.20709 0.36552 0.12778 0.0
C493 C 0.28058 0.3567 0.16482 0.0
C494 C 0.25847 0.36993 0.14833 0.0
C495 C 0.18695 0.40882 0.11597 0.0
C496 C 0.2125 0.39538 0.12452 0.0
H497 H 0.31837 0.36158 0.23136 0.0
H498 H 0.28968 0.38805 0.19956 0.0
H499 H 0.22444 0.33003 0.14292 0.0
H500 H 0.11923 0.39458 0.07655 0.0
H501 H 0.16469 0.37607 0.0848 0.0
C502 C 0.57701 0.29912 0.89843 0.0
C503 C 0.60769 0.30439 0.89137 0.0
C504 C 0.56265 0.27308 0.91132 0.0
C505 C 0.56742 0.19788 0.92232 0.0
H506 H 0.52175 0.2009 0.99099 0.0
C507 C 0.52374 0.09716 0.99394 0.0
C508 C 0.49575 0.09428 1.00695 0.0
C509 C 0.53738 0.12261 0.97956 0.0
C510 C 0.53398 0.19948 0.97158 0.0
H511 H 0.64695 0.28604 0.89123 0.0
H512 H 0.62184 0.24056 0.9133 0.0
H513 H 0.54411 0.24492 0.96519 0.0
H514 H 0.45979 0.11556 1.01454 0.0
H515 H 0.48281 0.15934 0.98879 0.0
H516 H 0.55695 0.15246 0.92828 0.0
C517 C 0.60889 0.25656 0.90906 0.0
C518 C 0.54687 0.22483 0.95681 0.0
C519 C 0.62334 0.28268 0.89657 0.0
C520 C 0.48152 0.1172 1.00496 0.0
C521 C 0.49492 0.14248 0.99035 0.0
C522 C 0.55423 0.17245 0.93689 0.0
C523 C 0.57851 0.25156 0.91702 0.0
C524 C 0.56385 0.22439 0.93205 0.0
C525 C 0.52312 0.14567 0.97746 0.0
C526 C 0.53735 0.17283 0.96183 0.0
H527 H 0.56441 0.31548 0.89485 0.0
H528 H 0.53913 0.26981 0.91695 0.0
H529 H 0.58014 0.19675 0.90316 0.0
H530 H 0.53509 0.07972 0.99478 0.0
H531 H 0.55924 0.12422 0.97031 0.0
C532 C 0.86033 0.77335 0.38893 0.0
C533 C 0.87774 0.75361 0.38311 0.0
C534 C 0.87376 0.79959 0.40224 0.0
C535 C 0.93919 0.83404 0.4506 0.0
H536 H 0.91799 0.90465 0.42632 0.0
C537 C 0.00368 0.94254 0.49915 0.0
C538 C 0.98802 0.96397 0.50336 0.0
C539 C 0.98955 0.91727 0.48452 0.0
C540 C 0.92386 0.88509 0.43374 0.0
H541 H 0.92316 0.7464 0.38617 0.0
H542 H 0.94674 0.79231 0.40952 0.0
H543 H 0.89562 0.86052 0.39971 0.0
H544 H 0.94505 0.97565 0.49539 0.0
H545 H 0.91981 0.93097 0.47041 0.0
H546 H 0.96689 0.85821 0.48492 0.0
C547 C 0.92257 0.78734 0.40387 0.0
C548 C 0.91111 0.85976 0.41833 0.0
C549 C 0.90915 0.76116 0.39023 0.0
C550 C 0.95765 0.95944 0.49267 0.0
C551 C 0.94333 0.93392 0.47809 0.0
C552 C 0.9517 0.85925 0.46614 0.0
C553 C 0.90497 0.80677 0.41036 0.0
C554 C 0.91877 0.83392 0.42644 0.0
C555 C 0.95913 0.91245 0.47375 0.0
C556 C 0.94447 0.88527 0.45784 0.0
H557 H 0.8361 0.76829 0.38352 0.0
H558 H 0.85945 0.81388 0.40702 0.0
H559 H 0.94512 0.81446 0.45787 0.0
H560 H 0.02717 0.94538 0.50695 0.0
H561 H 0.00282 0.90173 0.48119 0.0
C562 C 0.19029 0.72529 0.67643 0.0
C563 C 0.18423 0.71781 0.70572 0.0
C564 C 0.20852 0.7118 0.66078 0.0
C565 C 0.24804 0.65163 0.66387 0.0
H566 H 0.30481 0.70342 0.6158 0.0
C567 C 0.34536 0.61624 0.60883 0.0
C568 C 0.37363 0.63623 0.60933 0.0
C569 C 0.31917 0.62431 0.61674 0.0
C570 C 0.28928 0.68867 0.62928 0.0
H571 H 0.19114 0.6888 0.74077 0.0
H572 H 0.22439 0.6666 0.71418 0.0
H573 H 0.26432 0.71988 0.63717 0.0
H574 H 0.39624 0.68062 0.61771 0.0
H575 H 0.35121 0.69427 0.63273 0.0
H576 H 0.27451 0.62108 0.65756 0.0
C577 C 0.21453 0.68245 0.70298 0.0
C578 C 0.2656 0.69796 0.64117 0.0
C579 C 0.19581 0.69556 0.71847 0.0
C580 C 0.37498 0.66452 0.61751 0.0
C581 C 0.34895 0.67249 0.62567 0.0
C582 C 0.27206 0.64245 0.6523 0.0
C583 C 0.22175 0.69089 0.67414 0.0
C584 C 0.24492 0.67976 0.65905 0.0
C585 C 0.3207 0.6525 0.62548 0.0
C586 C 0.29335 0.66107 0.63534 0.0
H587 H 0.18212 0.74247 0.66582 0.0
H588 H 0.21292 0.71842 0.6384 0.0
H589 H 0.23226 0.6368 0.67707 0.0
H590 H 0.34352 0.59419 0.6029 0.0
H591 H 0.29776 0.60842 0.61603 0.0
C592 C 0.69052 0.8318 0.82045 0.0
C593 C 0.68568 0.80211 0.82499 0.0
C594 C 0.70707 0.84502 0.79707 0.0
C595 C 0.76682 0.83738 0.74976 0.0
H596 H 0.73992 0.89476 0.70201 0.0
C597 C 0.83449 0.89241 0.65262 0.0
C598 C 0.83614 0.92166 0.64824 0.0
C599 C 0.81506 0.87673 0.6729 0.0
C600 C 0.74795 0.87904 0.71535 0.0
H601 H 0.69396 0.76301 0.80795 0.0
H602 H 0.72353 0.78635 0.76738 0.0
H603 H 0.70738 0.86913 0.73939 0.0
H604 H 0.81927 0.95762 0.66199 0.0
H605 H 0.78586 0.93051 0.69789 0.0
H606 H 0.80776 0.84779 0.72647 0.0
C607 C 0.71444 0.79926 0.78208 0.0
C608 C 0.72923 0.86428 0.73665 0.0
C609 C 0.69757 0.78595 0.80532 0.0
C610 C 0.81814 0.935 0.66466 0.0
C611 C 0.79892 0.91941 0.68514 0.0
C612 C 0.78569 0.85233 0.72865 0.0
C613 C 0.71948 0.82895 0.77786 0.0
C614 C 0.73856 0.84344 0.75417 0.0
C615 C 0.79704 0.89004 0.68945 0.0
C616 C 0.77658 0.87349 0.71131 0.0
H617 H 0.68237 0.84507 0.8355 0.0
H618 H 0.71101 0.86801 0.79459 0.0
H619 H 0.77475 0.82168 0.76325 0.0
H620 H 0.84786 0.88152 0.63997 0.0
H621 H 0.81386 0.85409 0.67531 0.0
C622 C 0.81284 0.29115 0.28299 0.0
C623 C 0.82227 0.27463 0.30561 0.0
C624 C 0.80008 0.27841 0.25663 0.0
C625 C 0.78756 0.21276 0.21202 0.0
H626 H 0.70769 0.22676 0.19489 0.0
C627 C 0.69268 0.13329 0.14728 0.0
C628 C 0.6716 0.14399 0.1297 0.0
C629 C 0.71493 0.15176 0.16459 0.0
C630 C 0.73017 0.22296 0.19882 0.0
H631 H 0.82726 0.23204 0.31743 0.0
H632 H 0.80575 0.21018 0.27142 0.0
H633 H 0.7418 0.25567 0.23124 0.0
H634 H 0.65806 0.1824 0.11527 0.0
H635 H 0.69724 0.21476 0.14496 0.0
H636 H 0.7757 0.17966 0.17993 0.0
C637 C 0.80827 0.23296 0.27401 0.0
C638 C 0.74974 0.2396 0.2197 0.0
C639 C 0.82073 0.24559 0.30041 0.0
C640 C 0.67373 0.17356 0.12904 0.0
C641 C 0.69616 0.19206 0.14608 0.0
C642 C 0.76806 0.19624 0.19091 0.0
C643 C 0.79682 0.249 0.25228 0.0
C644 C 0.77836 0.23426 0.22698 0.0
C645 C 0.71675 0.18136 0.16443 0.0
C646 C 0.73884 0.20072 0.18454 0.0
H647 H 0.8142 0.31368 0.28609 0.0
H648 H 0.79178 0.29135 0.24005 0.0
H649 H 0.80962 0.20835 0.21708 0.0
H650 H 0.69139 0.11054 0.14832 0.0
H651 H 0.73005 0.14268 0.1788 0.0
C652 C 0.39581 0.68479 0.31265 0.0
C653 C 0.38266 0.6693 0.28754 0.0
C654 C 0.40724 0.67113 0.33649 0.0
C655 C 0.43289 0.60483 0.35657 0.0
H656 H 0.41865 0.62359 0.43581 0.0
C657 C 0.45196 0.53277 0.45407 0.0
C658 C 0.46532 0.54572 0.48032 0.0
C659 C 0.44275 0.549 0.43128 0.0
C660 C 0.42315 0.6183 0.41385 0.0
H661 H 0.37221 0.62726 0.26775 0.0
H662 H 0.39142 0.60351 0.30917 0.0
H663 H 0.40162 0.64987 0.39473 0.0
H664 H 0.47995 0.58604 0.50285 0.0
H665 H 0.46358 0.61458 0.46325 0.0
H666 H 0.45415 0.57316 0.37554 0.0
C667 C 0.39316 0.62628 0.31052 0.0
C668 C 0.41339 0.63342 0.39023 0.0
C669 C 0.38173 0.63989 0.2868 0.0
C670 C 0.46911 0.57536 0.48328 0.0
C671 C 0.4598 0.5917 0.46045 0.0
C672 C 0.44255 0.58973 0.38011 0.0
C673 C 0.40603 0.64162 0.33579 0.0
C674 C 0.4178 0.62667 0.3612 0.0
C675 C 0.44671 0.57875 0.43399 0.0
C676 C 0.43753 0.59597 0.40909 0.0
H677 H 0.39677 0.70742 0.31412 0.0
H678 H 0.41724 0.68376 0.35539 0.0
H679 H 0.43737 0.5994 0.33466 0.0
H680 H 0.44868 0.50995 0.45104 0.0
H681 H 0.43232 0.53812 0.41151 0.0
C682 C 0.08912 0.37961 0.79724 0.0
C683 C 0.1204 0.38353 0.79288 0.0
C684 C 0.07899 0.39202 0.8212 0.0
C685 C 0.10504 0.42594 0.89415 0.0
H686 H 0.03286 0.45553 0.88319 0.0
C687 C 0.05163 0.47083 0.99085 0.0
C688 C 0.03813 0.49398 0.98518 0.0
C689 C 0.06195 0.45707 0.96797 0.0
C690 C 0.05325 0.44768 0.88669 0.0
H691 H 0.16544 0.40316 0.81132 0.0
H692 H 0.14793 0.42534 0.85228 0.0
H693 H 0.05011 0.43245 0.84273 0.0
H694 H 0.02572 0.52111 0.95074 0.0
H695 H 0.04421 0.49774 0.91122 0.0
H696 H 0.10869 0.442 0.93787 0.0
C697 C 0.13107 0.41238 0.8374 0.0
C698 C 0.06294 0.43395 0.86346 0.0
C699 C 0.14118 0.39992 0.81353 0.0
C700 C 0.03581 0.5033 0.95606 0.0
C701 C 0.04622 0.48965 0.93323 0.0
C702 C 0.0954 0.43976 0.91737 0.0
C703 C 0.0998 0.40881 0.84158 0.0
C704 C 0.08905 0.42292 0.86673 0.0
C705 C 0.05918 0.4661 0.93872 0.0
C706 C 0.0694 0.45097 0.91402 0.0
H707 H 0.07232 0.3674 0.7818 0.0
H708 H 0.05474 0.38834 0.82374 0.0
H709 H 0.12501 0.41747 0.89783 0.0
H710 H 0.05371 0.46291 1.01294 0.0
H711 H 0.07144 0.43888 0.97321 0.0
C712 C 0.58642 0.80851 0.88155 0.0
C713 C 0.60898 0.80085 0.90003 0.0
C714 C 0.56762 0.82485 0.8921 0.0
C715 C 0.55377 0.87915 0.9152 0.0
H716 H 0.52005 0.86966 0.99189 0.0
C717 C 0.53263 0.97188 0.98216 0.0
C718 C 0.506 0.96717 0.99781 0.0
C719 C 0.53975 0.94952 0.96717 0.0
C720 C 0.52897 0.87239 0.97025 0.0
H721 H 0.62834 0.80317 0.94449 0.0
H722 H 0.59517 0.83116 0.96294 0.0
H723 H 0.54111 0.83199 0.97219 0.0
H724 H 0.46564 0.9354 1.00954 0.0
H725 H 0.47829 0.89628 0.98346 0.0
H726 H 0.5426 0.91996 0.91368 0.0
C727 C 0.59201 0.82447 0.94031 0.0
C728 C 0.54119 0.85095 0.9591 0.0
C729 C 0.61099 0.80835 0.92972 0.0
C730 C 0.48624 0.93979 0.99753 0.0
C731 C 0.49355 0.91733 0.98279 0.0
C732 C 0.54184 0.9007 0.92647 0.0
C733 C 0.57077 0.83359 0.92141 0.0
C734 C 0.55422 0.85436 0.9317 0.0
C735 C 0.52056 0.92192 0.96777 0.0
C736 C 0.52986 0.89777 0.95434 0.0
H737 H 0.58389 0.80259 0.8587 0.0
H738 H 0.55114 0.83128 0.87717 0.0
H739 H 0.56393 0.88248 0.89413 0.0
H740 H 0.54828 0.99275 0.9819 0.0
H741 H 0.56089 0.95359 0.956 0.0
C742 C 0.90379 0.26996 0.39572 0.0
C743 C 0.87394 0.26946 0.40301 0.0
C744 C 0.92027 0.25265 0.41078 0.0
C745 C 0.91899 0.20425 0.47572 0.0
H746 H 0.96257 0.16487 0.42602 0.0
C747 C 0.94335 0.09541 0.50564 0.0
C748 C 0.97335 0.09267 0.50336 0.0
C749 C 0.93456 0.1195 0.49449 0.0
C750 C 0.9508 0.17595 0.44022 0.0
H751 H 0.83826 0.2513 0.43233 0.0
H752 H 0.86654 0.22069 0.45818 0.0
H753 H 0.94193 0.20388 0.40593 0.0
H754 H 0.01739 0.1127 0.48672 0.0
H755 H 0.00166 0.15465 0.46651 0.0
H756 H 0.92665 0.17515 0.50955 0.0
C757 C 0.87771 0.23487 0.44137 0.0
C758 C 0.9391 0.19845 0.42881 0.0
C759 C 0.86141 0.25242 0.42654 0.0
C760 C -0.00585 0.11422 0.48889 0.0
C761 C 0.98518 0.13818 0.47731 0.0
C762 C 0.93032 0.18151 0.48697 0.0
C763 C 0.90706 0.23417 0.43317 0.0
C764 C 0.92255 0.21256 0.44627 0.0
C765 C 0.95543 0.14122 0.48046 0.0
C766 C 0.94586 0.16685 0.46918 0.0
H767 H 0.91401 0.28309 0.37774 0.0
H768 H 0.94305 0.25317 0.4043 0.0
H769 H 0.90698 0.21498 0.49 0.0
H770 H 0.92678 0.07931 0.51679 0.0
H771 H 0.91137 0.12116 0.49684 0.0
C772 C 0.29903 0.6667 0.17689 0.0
C773 C 0.30103 0.66555 0.20761 0.0
C774 C 0.27232 0.65323 0.16127 0.0
C775 C 0.20007 0.598 0.16637 0.0
H776 H 0.17396 0.64003 0.10105 0.0
C777 C 0.08085 0.56316 0.10664 0.0
C778 C 0.07885 0.5678 0.07631 0.0
C779 C 0.10838 0.57314 0.1227 0.0
C780 C 0.18108 0.62775 0.11893 0.0
H781 H 0.27649 0.64864 0.24592 0.0
H782 H 0.22968 0.62503 0.21858 0.0
H783 H 0.22067 0.66098 0.12914 0.0
H784 H 0.10428 0.58555 1.03885 0.0
H785 H 0.15241 0.60269 0.0667 0.0
H786 H 0.16027 0.56477 0.1561 0.0
C787 C 0.24898 0.63628 0.20659 0.0
C788 C 0.20792 0.63983 0.13512 0.0
C789 C 0.27581 0.64983 0.22228 0.0
C790 C 0.1051 0.58186 0.06224 0.0
C791 C 0.13263 0.59183 0.07826 0.0
C792 C 0.17316 0.58586 0.15011 0.0
C793 C 0.24677 0.63815 0.17588 0.0
C794 C 0.21787 0.62511 0.15899 0.0
C795 C 0.13454 0.58803 0.1088 0.0
C796 C 0.16335 0.60056 0.12609 0.0
H797 H 0.31822 0.67805 0.16481 0.0
H798 H 0.27174 0.65459 0.13764 0.0
H799 H 0.20719 0.58593 0.18443 0.0
H800 H 0.06094 0.55248 0.11811 0.0
H801 H 0.10886 0.57001 0.14616 0.0
C802 C 0.22111 0.40765 0.72732 0.0
C803 C 0.19425 0.39337 0.71202 0.0
C804 C 0.24673 0.42158 0.7122 0.0
C805 C 0.28043 0.42162 0.63982 0.0
H806 H 0.33539 0.49173 0.66739 0.0
C807 C 0.39876 0.46372 0.59264 0.0
C808 C 0.4099 0.4934 0.5892 0.0
C809 C 0.37185 0.45267 0.60693 0.0
C810 C 0.32014 0.47229 0.65919 0.0
H811 H 0.17277 0.38402 0.6688 0.0
H812 H 0.21701 0.40847 0.64256 0.0
H813 H 0.28957 0.47133 0.69367 0.0
H814 H 0.40086 0.53472 0.59786 0.0
H815 H 0.35367 0.51539 0.62239 0.0
H816 H 0.31057 0.42273 0.60513 0.0
C817 C 0.21875 0.40827 0.66622 0.0
C818 C 0.29401 0.46038 0.67451 0.0
C819 C 0.19329 0.39429 0.68129 0.0
C820 C 0.39306 0.51173 0.60007 0.0
C821 C 0.36607 0.50065 0.61439 0.0
C822 C 0.30647 0.4335 0.62454 0.0
C823 C 0.24604 0.42169 0.6814 0.0
C824 C 0.27379 0.43483 0.66506 0.0
C825 C 0.35518 0.47095 0.61819 0.0
C826 C 0.32682 0.45893 0.63406 0.0
H827 H 0.22268 0.40721 0.75099 0.0
H828 H 0.26738 0.43146 0.72468 0.0
H829 H 0.26571 0.40174 0.63202 0.0
H830 H 0.41111 0.44888 0.58476 0.0
H831 H 0.36451 0.42973 0.60976 0.0
C832 C 0.69223 0.74478 0.9408 0.0
C833 C 0.68235 0.73771 0.91173 0.0
C834 C 0.70989 0.72895 0.9565 0.0
C835 C 0.73446 0.66134 0.95892 0.0
H836 H 0.81225 0.70805 0.98724 0.0
C837 C 0.8402 0.61589 0.97755 0.0
C838 C 0.86277 0.62822 0.99871 0.0
C839 C 0.81482 0.6272 0.97203 0.0
C840 C 0.79044 0.69457 0.98018 0.0
H841 H 0.6815 0.70775 0.8768 0.0
H842 H 0.71199 0.67973 0.90441 0.0
H843 H 0.77248 0.73087 0.96913 0.0
H844 H 0.87588 0.66104 1.03176 0.0
H845 H 0.83102 0.68034 1.02288 0.0
H846 H 0.75235 0.62501 0.96981 0.0
C847 C 0.70619 0.69753 0.91501 0.0
C848 C 0.76766 0.70772 0.9697 0.0
C849 C 0.68893 0.71361 0.89918 0.0
C850 C 0.85893 0.65138 1.01507 0.0
C851 C 0.83329 0.66247 1.00987 0.0
C852 C 0.7571 0.64813 0.96981 0.0
C853 C 0.71754 0.70554 0.94351 0.0
C854 C 0.73975 0.69127 0.95833 0.0
C855 C 0.8112 0.6509 0.98784 0.0
C856 C 0.78569 0.66461 0.97985 0.0
H857 H 0.68763 0.76342 0.95087 0.0
H858 H 0.71829 0.73547 0.97848 0.0
H859 H 0.713 0.64819 0.95049 0.0
H860 H 0.8428 0.5982 0.96439 0.0
H861 H 0.79869 0.61801 0.95453 0.0
C862 C 0.38536 0.75832 0.18626 0.0
C863 C 0.38745 0.7525 0.21648 0.0
C864 C 0.39756 0.78561 0.17511 0.0
C865 C 0.45561 0.85109 0.1858 0.0
H866 H 0.40106 0.88685 0.13904 0.0
C867 C 0.49787 0.96505 0.13781 0.0
C868 C 0.48506 0.97152 0.11079 0.0
C869 C 0.48544 0.93948 0.15248 0.0
C870 C 0.41688 0.87715 0.15157 0.0
H871 H 0.40564 0.77119 0.25834 0.0
H872 H 0.42825 0.81868 0.23844 0.0
H873 H 0.38174 0.83997 0.16082 0.0
H874 H 0.44966 0.95611 0.07751 0.0
H875 H 0.42865 0.91109 0.10218 0.0
H876 H 0.49115 0.88728 0.17549 0.0
C877 C 0.41643 0.80193 0.22365 0.0
C878 C 0.40563 0.8503 0.1643 0.0
C879 C 0.4036 0.77464 0.23499 0.0
C880 C 0.45957 0.95195 0.09864 0.0
C881 C 0.4475 0.92608 0.11296 0.0
C882 C 0.46706 0.87771 0.17256 0.0
C883 C 0.41296 0.80779 0.19366 0.0
C884 C 0.42487 0.83693 0.18145 0.0
C885 C 0.46028 0.91931 0.14013 0.0
C886 C 0.44791 0.89118 0.15508 0.0
H887 H 0.37413 0.74177 0.17101 0.0
H888 H 0.39507 0.78936 0.15184 0.0
H889 H 0.471 0.84115 0.1987 0.0
H890 H 0.51756 0.97982 0.14766 0.0
H891 H 0.49567 0.93565 0.17355 0.0
C892 C 0.09809 0.28079 0.73621 0.0
C893 C 0.11112 0.30405 0.71818 0.0
C894 C 0.08559 0.25356 0.72427 0.0
C895 C 0.09244 0.20834 0.66277 0.0
H896 H 0.01062 0.16569 0.67737 0.0
C897 C 0.03603 0.10466 0.5985 0.0
C898 C 0.01335 0.08387 0.61158 0.0
C899 C 0.04859 0.13085 0.61249 0.0
C900 C 0.03378 0.17685 0.67343 0.0
H901 H 0.11916 0.31666 0.67292 0.0
H902 H 0.09877 0.26924 0.65265 0.0
H903 H 0.03075 0.21192 0.70063 0.0
H904 H 0.98675 0.07368 0.64988 0.0
H905 H 0.00973 0.11825 0.6751 0.0
H906 H 0.0962 0.17324 0.63642 0.0
C907 C 0.0985 0.27208 0.67604 0.0
C908 C 0.0452 0.20356 0.68672 0.0
C909 C 0.11038 0.2993 0.68781 0.0
C910 C 0.00418 0.08938 0.63927 0.0
C911 C 0.01716 0.11522 0.65355 0.0
C912 C 0.0813 0.18139 0.64996 0.0
C913 C 0.08623 0.24881 0.6941 0.0
C914 C 0.07453 0.21975 0.68128 0.0
C915 C 0.03919 0.13672 0.64021 0.0
C916 C 0.05163 0.16522 0.6548 0.0
H917 H 0.09834 0.28335 0.75966 0.0
H918 H 0.07625 0.23599 0.73874 0.0
H919 H 0.11527 0.22022 0.65839 0.0
H920 H 0.04312 0.10121 0.57691 0.0
H921 H 0.06497 0.14676 0.60101 0.0
C922 C 0.80125 0.34342 0.41327 0.0
C923 C 0.79216 0.32374 0.39028 0.0
C924 C 0.78033 0.35678 0.42513 0.0
C925 C 0.70842 0.37698 0.40803 0.0
H926 H 0.69803 0.37296 0.49156 0.0
C927 C 0.60345 0.40167 0.45847 0.0
C928 C 0.60692 0.41387 0.48639 0.0
C929 C 0.62763 0.39311 0.44648 0.0
C930 C 0.70095 0.37483 0.46825 0.0
H931 H 0.75346 0.30205 0.36256 0.0
H932 H 0.71759 0.32608 0.3825 0.0
H933 H 0.73818 0.35438 0.47134 0.0
H934 H 0.63859 0.42793 0.52317 0.0
H935 H 0.6811 0.41394 0.50197 0.0
H936 H 0.67156 0.39769 0.40476 0.0
C937 C 0.74095 0.33136 0.39109 0.0
C938 C 0.72393 0.36408 0.45671 0.0
C939 C 0.76164 0.31772 0.37958 0.0
C940 C 0.63522 0.41814 0.50176 0.0
C941 C 0.65951 0.40999 0.48964 0.0
C942 C 0.68572 0.38811 0.41958 0.0
C943 C 0.75005 0.35098 0.41397 0.0
C944 C 0.72755 0.36465 0.42646 0.0
C945 C 0.65595 0.39699 0.462 0.0
C946 C 0.68135 0.38678 0.44981 0.0
H947 H 0.82458 0.34873 0.42191 0.0
H948 H 0.78788 0.3719 0.44277 0.0
H949 H 0.71099 0.37794 0.38463 0.0
H950 H 0.58177 0.39801 0.44628 0.0
H951 H 0.62382 0.38278 0.42536 0.0
loop_
_geom_bond_atom_site_label_1
_geom_bond_atom_site_label_2
_geom_bond_distance
_geom_bond_site_symmetry_2
_ccdc_geom_bond_type
H0 C3 0.931 . S
H1 C6 0.928 . S
H2 C8 0.930 . S
C3 H0 0.931 . S
C3 C4 1.413 . S
C3 C5 1.360 . S
C4 C3 1.413 . S
C4 C8 1.429 . S
C5 C3 1.360 . S
C5 C6 1.372 . S
C6 H1 0.928 . S
C6 C5 1.372 . S
C6 C7 1.404 . S
C7 C6 1.404 . S
C7 C8 1.391 . S
C8 H2 0.930 . S
C8 C4 1.429 . S
C8 C7 1.391 . S
H9 C12 0.931 . S
H10 C15 0.928 . S
H11 C17 0.930 . S
C12 H9 0.931 . S
C12 C13 1.413 . S
C12 C14 1.360 . S
C13 C12 1.413 . S
C13 C17 1.429 . S
C14 C12 1.360 . S
C14 C15 1.372 . S
C15 H10 0.928 . S
C15 C14 1.372 . S
C15 C16 1.404 . S
C16 C15 1.404 . S
C16 C17 1.391 . S
C17 H11 0.930 . S
C17 C13 1.429 . S
C17 C16 1.391 . S
H18 C21 0.931 . S
H19 C24 0.928 . S
H20 C26 0.930 . S
C21 H18 0.931 . S
C21 C22 1.413 . S
C21 C23 1.360 . S
C22 C21 1.413 . S
C22 C26 1.429 . S
C23 C21 1.360 . S
C23 C24 1.372 . S
C24 H19 0.928 . S
C24 C23 1.372 . S
C24 C25 1.404 . S
C25 C24 1.404 . S
C25 C26 1.391 . S
C26 H20 0.930 . S
C26 C22 1.429 . S
C26 C25 1.391 . S
H27 C30 0.931 . S
H28 C33 0.928 . S
H29 C35 0.930 . S
C30 H27 0.931 . S
C30 C31 1.413 . S
C30 C32 1.360 . S
C31 C30 1.413 . S
C31 C35 1.429 . S
C32 C30 1.360 . S
C32 C33 1.372 . S
C33 H28 0.928 . S
C33 C32 1.372 . S
C33 C34 1.404 . S
C34 C33 1.404 . S
C34 C35 1.391 . S
C35 H29 0.930 . S
C35 C31 1.429 . S
C35 C34 1.391 . S
H36 C39 0.931 . S
H37 C42 0.928 . S
H38 C44 0.930 . S
C39 H36 0.931 . S
C39 C40 1.413 . S
C39 C41 1.360 . S
C40 C39 1.413 . S
C40 C44 1.429 . S
C41 C39 1.360 . S
C41 C42 1.372 . S
C42 H37 0.928 . S
C42 C41 1.372 . S
C42 C43 1.404 . S
C43 C42 1.404 . S
C43 C44 1.391 . S
C44 H38 0.930 . S
C44 C40 1.429 . S
C44 C43 1.391 . S
H45 C48 0.931 . S
H46 C51 0.928 . S
H47 C53 0.930 . S
C48 H45 0.931 . S
C48 C49 1.413 . S
C48 C50 1.360 . S
C49 C48 1.413 . S
C49 C53 1.429 . S
C50 C48 1.360 . S
C50 C51 1.372 . S
C51 H46 0.928 . S
C51 C50 1.372 . S
C51 C52 1.404 . S
C52 C51 1.404 . S
C52 C53 1.391 . S
C53 H47 0.930 . S
C53 C49 1.429 . S
C53 C52 1.391 . S
H54 C57 0.931 . S
H55 C60 0.928 . S
H56 C62 0.930 . S
C57 H54 0.931 . S
C57 C58 1.413 . S
C57 C59 1.360 . S
C58 C57 1.413 . S
C58 C62 1.429 . S
C59 C57 1.360 . S
C59 C60 1.372 . S
C60 H55 0.928 . S
C60 C59 1.372 . S
C60 C61 1.404 . S
C61 C60 1.404 . S
C61 C62 1.391 . S
C62 H56 0.930 . S
C62 C58 1.429 . S
C62 C61 1.391 . S
H63 C66 0.931 . S
H64 C69 0.928 . S
H65 C71 0.930 . S
C66 H63 0.931 . S
C66 C67 1.413 . S
C66 C68 1.360 . S
C67 C66 1.413 . S
C67 C71 1.429 . S
C68 C66 1.360 . S
C68 C69 1.372 . S
C69 H64 0.928 . S
C69 C68 1.372 . S
C69 C70 1.404 . S
C70 C69 1.404 . S
C70 C71 1.391 . S
C71 H65 0.930 . S
C71 C67 1.429 . S
C71 C70 1.391 . S
Tb72 C74 2.809 1_545 S
Tb72 O92 2.484 1_545 S
Tb72 O93 2.440 1_545 S
Tb72 O94 2.659 1_655 S
Tb72 O95 2.409 . S
Tb72 O96 2.378 1_645 S
Tb72 O100 2.324 1_545 S
Tb72 O103 2.342 . S
Tb73 C83 2.809 . S
Tb73 O94 2.325 . S
Tb73 O97 2.341 1_545 S
Tb73 O98 2.484 . S
Tb73 O99 2.440 . S
Tb73 O100 2.658 1_445 S
Tb73 O101 2.409 1_545 S
Tb73 O102 2.350 1_455 S
C74 Tb72 2.809 1_565 S
C74 C75 1.514 . S
C74 O92 1.248 . S
C74 O93 1.266 . S
C75 C74 1.514 . S
C75 C76 1.359 . S
C75 C80 1.348 . S
C76 C75 1.359 . S
C76 C77 1.380 . S
C76 H104 0.929 . S
C77 C76 1.380 . S
C77 C78 1.347 . S
C77 H105 0.931 . S
C78 C77 1.347 . S
C78 C79 1.369 . S
C79 C78 1.369 . S
C79 C80 1.408 . S
C79 H106 0.930 . S
C80 C75 1.348 . S
C80 C79 1.408 . S
C80 H107 0.930 . S
C81 O94 1.281 . S
C81 O95 1.254 1_455 S
C82 O96 1.236 . S
C82 O97 1.266 . S
C83 Tb73 2.809 . S
C83 C84 1.514 . S
C83 O98 1.248 . S
C83 O99 1.266 . S
C84 C83 1.514 . S
C84 C85 1.359 . S
C84 C89 1.348 . S
C85 C84 1.359 . S
C85 C86 1.380 . S
C85 H108 0.929 . S
C86 C85 1.380 . S
C86 C87 1.347 . S
C86 H109 0.931 . S
C87 C86 1.347 . S
C87 C88 1.369 . S
C88 C87 1.369 . S
C88 C89 1.408 . S
C88 H110 0.930 . S
C89 C84 1.348 . S
C89 C88 1.408 . S
C89 H111 0.930 . S
C90 O100 1.281 . S
C90 O101 1.254 1_655 S
C91 O102 1.266 . S
C91 O103 1.266 . S
O92 Tb72 2.484 1_565 S
O92 C74 1.248 . S
O93 Tb72 2.440 1_565 S
O93 C74 1.266 . S
O94 Tb72 2.659 1_455 S
O94 Tb73 2.325 . S
O94 C81 1.281 . S
O95 Tb72 2.409 . S
O95 C81 1.254 1_655 S
O96 Tb72 2.378 1_465 S
O96 C82 1.236 . S
O97 Tb73 2.341 1_565 S
O97 C82 1.266 . S
O98 Tb73 2.484 . S
O98 C83 1.248 . S
O99 Tb73 2.440 . S
O99 C83 1.266 . S
O100 Tb72 2.324 1_565 S
O100 Tb73 2.658 1_665 S
O100 C90 1.281 . S
O101 Tb73 2.409 1_565 S
O101 C90 1.254 1_455 S
O102 Tb73 2.350 1_655 S
O102 C91 1.266 . S
O103 Tb72 2.342 . S
O103 C91 1.266 . S
H104 C76 0.929 . S
H105 C77 0.931 . S
H106 C79 0.930 . S
H107 C80 0.930 . S
H108 C85 0.929 . S
H109 C86 0.931 . S
H110 C88 0.930 . S
H111 C89 0.930 . S
Tb112 C114 2.809 . S
Tb112 O132 2.484 . S
Tb112 O133 2.440 . S
Tb112 O134 2.658 1_545 S
Tb112 O135 2.409 1_545 S
Tb112 O136 2.378 . S
Tb112 O140 2.325 1_554 S
Tb112 O143 2.341 1_544 S
Tb113 C123 2.809 . S
Tb113 O134 2.325 1_556 S
Tb113 O137 2.341 1_566 S
Tb113 O138 2.484 . S
Tb113 O139 2.440 . S
Tb113 O140 2.658 1_565 S
Tb113 O141 2.409 1_565 S
Tb113 O142 2.378 . S
C114 Tb112 2.809 . S
C114 C115 1.514 . S
C114 O132 1.248 . S
C114 O133 1.266 . S
C115 C114 1.514 . S
C115 C116 1.359 . S
C115 C120 1.348 . S
C116 C115 1.359 . S
C116 C117 1.380 . S
C116 H144 0.929 . S
C117 C116 1.380 . S
C117 C118 1.347 . S
C117 H145 0.931 . S
C118 C117 1.347 . S
C118 C119 1.369 . S
C119 C118 1.369 . S
C119 C120 1.408 . S
C119 H146 0.930 . S
C120 C115 1.348 . S
C120 C119 1.408 . S
C120 H147 0.930 . S
C121 O134 1.281 . S
C121 O135 1.254 . S
C122 O136 1.236 . S
C122 O137 1.266 . S
C123 Tb113 2.809 . S
C123 C124 1.514 . S
C123 O138 1.248 . S
C123 O139 1.266 . S
C124 C123 1.514 . S
C124 C125 1.359 . S
C124 C129 1.348 . S
C125 C124 1.359 . S
C125 C126 1.380 . S
C125 H148 0.929 . S
C126 C125 1.380 . S
C126 C127 1.347 . S
C126 H149 0.931 . S
C127 C126 1.347 . S
C127 C128 1.369 . S
C128 C127 1.369 . S
C128 C129 1.408 . S
C128 H150 0.930 . S
C129 C124 1.348 . S
C129 C128 1.408 . S
C129 H151 0.930 . S
C130 O140 1.281 . S
C130 O141 1.254 . S
C131 O142 1.236 . S
C131 O143 1.266 . S
O132 Tb112 2.484 . S
O132 C114 1.248 . S
O133 Tb112 2.440 . S
O133 C114 1.266 . S
O134 Tb112 2.658 1_565 S
O134 Tb113 2.325 1_554 S
O134 C121 1.281 . S
O135 Tb112 2.409 1_565 S
O135 C121 1.254 . S
O136 Tb112 2.378 . S
O136 C122 1.236 . S
O137 Tb113 2.341 1_544 S
O137 C122 1.266 . S
O138 Tb113 2.484 . S
O138 C123 1.248 . S
O139 Tb113 2.440 . S
O139 C123 1.266 . S
O140 Tb112 2.325 1_556 S
O140 Tb113 2.658 1_545 S
O140 C130 1.281 . S
O141 Tb113 2.409 1_545 S
O141 C130 1.254 . S
O142 Tb113 2.378 . S
O142 C131 1.236 . S
O143 Tb112 2.341 1_566 S
O143 C131 1.266 . S
H144 C116 0.929 . S
H145 C117 0.931 . S
H146 C119 0.930 . S
H147 C120 0.930 . S
H148 C125 0.929 . S
H149 C126 0.931 . S
H150 C128 0.930 . S
H151 C129 0.930 . S
Tb152 C154 2.809 . S
Tb152 O172 2.484 . S
Tb152 O173 2.440 . S
Tb152 O174 2.658 . S
Tb152 O175 2.409 . S
Tb152 O176 2.378 . S
Tb152 O180 2.325 . S
Tb152 O183 2.341 . S
Tb153 C163 2.809 . S
Tb153 O174 2.325 . S
Tb153 O177 2.341 . S
Tb153 O178 2.484 . S
Tb153 O179 2.440 . S
Tb153 O180 2.658 . S
Tb153 O181 2.409 . S
Tb153 O182 2.378 . S
C154 Tb152 2.809 . S
C154 C155 1.514 . S
C154 O172 1.248 . S
C154 O173 1.266 . S
C155 C154 1.514 . S
C155 C156 1.359 . S
C155 C160 1.348 . S
C156 C155 1.359 . S
C156 C157 1.380 . S
C156 H184 0.929 . S
C157 C156 1.380 . S
C157 C158 1.347 . S
C157 H185 0.931 . S
C158 C157 1.347 . S
C158 C159 1.369 . S
C159 C158 1.369 . S
C159 C160 1.408 . S
C159 H186 0.930 . S
C160 C155 1.348 . S
C160 C159 1.408 . S
C160 H187 0.930 . S
C161 O174 1.281 . S
C161 O175 1.254 . S
C162 O176 1.236 . S
C162 O177 1.266 . S
C163 Tb153 2.809 . S
C163 C164 1.514 . S
C163 O178 1.248 . S
C163 O179 1.266 . S
C164 C163 1.514 . S
C164 C165 1.359 . S
C164 C169 1.348 . S
C165 C164 1.359 . S
C165 C166 1.380 . S
C165 H188 0.929 . S
C166 C165 1.380 . S
C166 C167 1.347 . S
C166 H189 0.931 . S
C167 C166 1.347 . S
C167 C168 1.369 . S
C168 C167 1.369 . S
C168 C169 1.408 . S
C168 H190 0.930 . S
C169 C164 1.348 . S
C169 C168 1.408 . S
C169 H191 0.930 . S
C170 O180 1.281 . S
C170 O181 1.254 . S
C171 O182 1.236 . S
C171 O183 1.266 . S
O172 Tb152 2.484 . S
O172 C154 1.248 . S
O173 Tb152 2.440 . S
O173 C154 1.266 . S
O174 Tb152 2.658 . S
O174 Tb153 2.325 . S
O174 C161 1.281 . S
O175 Tb152 2.409 . S
O175 C161 1.254 . S
O176 Tb152 2.378 . S
O176 C162 1.236 . S
O177 Tb153 2.341 . S
O177 C162 1.266 . S
O178 Tb153 2.484 . S
O178 C163 1.248 . S
O179 Tb153 2.440 . S
O179 C163 1.266 . S
O180 Tb152 2.325 . S
O180 Tb153 2.658 . S
O180 C170 1.281 . S
O181 Tb153 2.409 . S
O181 C170 1.254 . S
O182 Tb153 2.378 . S
O182 C171 1.236 . S
O183 Tb152 2.341 . S
O183 C171 1.266 . S
H184 C156 0.929 . S
H185 C157 0.931 . S
H186 C159 0.930 . S
H187 C160 0.930 . S
H188 C165 0.929 . S
H189 C166 0.931 . S
H190 C168 0.930 . S
H191 C169 0.930 . S
Tb192 C194 2.800 1_455 S
Tb192 O212 2.473 1_455 S
Tb192 O213 2.436 1_455 S
Tb192 O214 2.665 1_556 S
Tb192 O215 2.417 1_556 S
Tb192 O216 2.373 1_456 S
Tb192 O220 2.320 1_455 S
Tb192 O223 2.349 . S
Tb193 C203 2.809 . S
Tb193 O214 2.325 . S
Tb193 O217 2.341 1_455 S
Tb193 O218 2.484 . S
Tb193 O219 2.440 . S
Tb193 O220 2.658 1_454 S
Tb193 O221 2.409 1_455 S
Tb193 O222 2.378 1_554 S
C194 Tb192 2.800 1_655 S
C194 C195 1.514 . S
C194 O212 1.248 . S
C194 O213 1.266 . S
C195 C194 1.514 . S
C195 C196 1.359 . S
C195 C200 1.348 . S
C196 C195 1.359 . S
C196 C197 1.380 . S
C196 H224 0.929 . S
C197 C196 1.380 . S
C197 C198 1.347 . S
C197 H225 0.931 . S
C198 C197 1.347 . S
C198 C199 1.369 . S
C199 C198 1.369 . S
C199 C200 1.408 . S
C199 H226 0.930 . S
C200 C195 1.348 . S
C200 C199 1.408 . S
C200 H227 0.930 . S
C201 O214 1.281 . S
C201 O215 1.254 . S
C202 O216 1.236 . S
C202 O217 1.266 . S
C203 Tb193 2.809 . S
C203 C204 1.514 . S
C203 O218 1.248 . S
C203 O219 1.266 . S
C204 C203 1.514 . S
C204 C205 1.359 . S
C204 C209 1.348 . S
C205 C204 1.359 . S
C205 C206 1.380 . S
C205 H228 0.929 . S
C206 C205 1.380 . S
C206 C207 1.347 . S
C206 H229 0.931 . S
C207 C206 1.347 . S
C207 C208 1.369 . S
C208 C207 1.369 . S
C208 C209 1.408 . S
C208 H230 0.930 . S
C209 C204 1.348 . S
C209 C208 1.408 . S
C209 H231 0.930 . S
C210 O220 1.281 . S
C210 O221 1.254 1_556 S
C211 O222 1.236 . S
C211 O223 1.266 . S
O212 Tb192 2.473 1_655 S
O212 C194 1.248 . S
O213 Tb192 2.436 1_655 S
O213 C194 1.266 . S
O214 Tb192 2.665 1_554 S
O214 Tb193 2.325 . S
O214 C201 1.281 . S
O215 Tb192 2.417 1_554 S
O215 C201 1.254 . S
O216 Tb192 2.373 1_654 S
O216 C202 1.236 . S
O217 Tb193 2.341 1_655 S
O217 C202 1.266 . S
O218 Tb193 2.484 . S
O218 C203 1.248 . S
O219 Tb193 2.440 . S
O219 C203 1.266 . S
O220 Tb192 2.320 1_655 S
O220 Tb193 2.658 1_656 S
O220 C210 1.281 . S
O221 Tb193 2.409 1_655 S
O221 C210 1.254 1_554 S
O222 Tb193 2.378 1_556 S
O222 C211 1.236 . S
O223 Tb192 2.349 . S
O223 C211 1.266 . S
H224 C196 0.929 . S
H225 C197 0.931 . S
H226 C199 0.930 . S
H227 C200 0.930 . S
H228 C205 0.929 . S
H229 C206 0.931 . S
H230 C208 0.930 . S
H231 C209 0.930 . S
C232 C233 1.349 . S
C232 C234 1.327 . S
C232 H257 0.950 . S
C233 C232 1.349 . S
C233 C249 1.349 . S
C234 C232 1.327 . S
C234 C253 1.429 . S
C234 H258 0.950 . S
C235 C252 1.574 . S
C235 C254 1.368 . S
C235 H259 0.949 . S
H236 C240 0.949 . S
C237 C238 1.349 . S
C237 C239 1.327 . S
C237 H260 0.950 . S
C238 C237 1.349 . S
C238 C250 1.349 . S
C239 C237 1.327 . S
C239 C255 1.429 . S
C239 H261 0.950 . S
C240 H236 0.949 . S
C240 C248 1.574 . S
C240 C256 1.368 . S
H241 C249 0.950 . S
H242 C247 0.950 . S
H243 C248 0.949 . S
H244 C250 0.950 . S
H245 C251 0.950 . S
H246 C252 0.949 . S
C247 H242 0.950 . S
C247 C249 1.327 . S
C247 C253 1.429 . S
C248 C240 1.574 . S
C248 H243 0.949 . S
C248 C254 1.368 . S
C249 C233 1.349 . S
C249 H241 0.950 . S
C249 C247 1.327 . S
C250 C238 1.349 . S
C250 H244 0.950 . S
C250 C251 1.327 . S
C251 H245 0.950 . S
C251 C250 1.327 . S
C251 C255 1.429 . S
C252 C235 1.574 . S
C252 H246 0.949 . S
C252 C256 1.368 . S
C253 C234 1.429 . S
C253 C247 1.429 . S
C253 C254 1.523 . S
C254 C235 1.368 . S
C254 C248 1.368 . S
C254 C253 1.523 . S
C255 C239 1.429 . S
C255 C251 1.429 . S
C255 C256 1.523 . S
C256 C240 1.368 . S
C256 C252 1.368 . S
C256 C255 1.523 . S
H257 C232 0.950 . S
H258 C234 0.950 . S
H259 C235 0.949 . S
H260 C237 0.950 . S
H261 C239 0.950 . S
C262 C263 1.349 . S
C262 C264 1.327 . S
C262 H287 0.950 . S
C263 C262 1.349 . S
C263 C279 1.349 . S
C264 C262 1.327 . S
C264 C283 1.429 . S
C264 H288 0.950 . S
C265 C282 1.574 . S
C265 C284 1.368 . S
C265 H289 0.949 . S
H266 C270 0.949 . S
C267 C268 1.349 . S
C267 C269 1.327 . S
C267 H290 0.950 . S
C268 C267 1.349 . S
C268 C280 1.349 . S
C269 C267 1.327 . S
C269 C285 1.429 . S
C269 H291 0.950 . S
C270 H266 0.949 . S
C270 C278 1.574 . S
C270 C286 1.368 . S
H271 C279 0.950 . S
H272 C277 0.950 . S
H273 C278 0.949 . S
H274 C280 0.950 . S
H275 C281 0.950 . S
H276 C282 0.949 . S
C277 H272 0.950 . S
C277 C279 1.327 . S
C277 C283 1.429 . S
C278 C270 1.574 . S
C278 H273 0.949 . S
C278 C284 1.368 . S
C279 C263 1.349 . S
C279 H271 0.950 . S
C279 C277 1.327 . S
C280 C268 1.349 . S
C280 H274 0.950 . S
C280 C281 1.327 . S
C281 H275 0.950 . S
C281 C280 1.327 . S
C281 C285 1.429 . S
C282 C265 1.574 . S
C282 H276 0.949 . S
C282 C286 1.368 . S
C283 C264 1.429 . S
C283 C277 1.429 . S
C283 C284 1.523 . S
C284 C265 1.368 . S
C284 C278 1.368 . S
C284 C283 1.523 . S
C285 C269 1.429 . S
C285 C281 1.429 . S
C285 C286 1.523 . S
C286 C270 1.368 . S
C286 C282 1.368 . S
C286 C285 1.523 . S
H287 C262 0.950 . S
H288 C264 0.950 . S
H289 C265 0.949 . S
H290 C267 0.950 . S
H291 C269 0.950 . S
C292 C293 1.349 . S
C292 C294 1.327 . S
C292 H317 0.950 . S
C293 C292 1.349 . S
C293 C309 1.349 . S
C294 C292 1.327 . S
C294 C313 1.429 . S
C294 H318 0.950 . S
C295 C312 1.574 . S
C295 C314 1.368 . S
C295 H319 0.949 . S
H296 C300 0.949 . S
C297 C298 1.349 . S
C297 C299 1.327 . S
C297 H320 0.950 . S
C298 C297 1.349 . S
C298 C310 1.349 . S
C299 C297 1.327 . S
C299 C315 1.429 . S
C299 H321 0.950 . S
C300 H296 0.949 . S
C300 C308 1.574 . S
C300 C316 1.368 . S
H301 C309 0.950 . S
H302 C307 0.950 . S
H303 C308 0.949 . S
H304 C310 0.950 . S
H305 C311 0.950 . S
H306 C312 0.949 . S
C307 H302 0.950 . S
C307 C309 1.327 . S
C307 C313 1.429 . S
C308 C300 1.574 . S
C308 H303 0.949 . S
C308 C314 1.368 . S
C309 C293 1.349 . S
C309 H301 0.950 . S
C309 C307 1.327 . S
C310 C298 1.349 . S
C310 H304 0.950 . S
C310 C311 1.327 . S
C311 H305 0.950 . S
C311 C310 1.327 . S
C311 C315 1.429 . S
C312 C295 1.574 . S
C312 H306 0.949 . S
C312 C316 1.368 . S
C313 C294 1.429 . S
C313 C307 1.429 . S
C313 C314 1.523 . S
C314 C295 1.368 . S
C314 C308 1.368 . S
C314 C313 1.523 . S
C315 C299 1.429 . S
C315 C311 1.429 . S
C315 C316 1.523 . S
C316 C300 1.368 . S
C316 C312 1.368 . S
C316 C315 1.523 . S
H317 C292 0.950 . S
H318 C294 0.950 . S
H319 C295 0.949 . S
H320 C297 0.950 . S
H321 C299 0.950 . S
C322 C323 1.349 . S
C322 C324 1.327 . S
C322 H347 0.950 . S
C323 C322 1.349 . S
C323 C339 1.349 . S
C324 C322 1.327 . S
C324 C343 1.429 . S
C324 H348 0.950 . S
C325 C342 1.574 . S
C325 C344 1.368 . S
C325 H349 0.949 . S
H326 C330 0.949 . S
C327 C328 1.349 . S
C327 C329 1.327 . S
C327 H350 0.950 . S
C328 C327 1.349 . S
C328 C340 1.349 . S
C329 C327 1.327 . S
C329 C345 1.429 . S
C329 H351 0.950 . S
C330 H326 0.949 . S
C330 C338 1.574 . S
C330 C346 1.368 . S
H331 C339 0.950 . S
H332 C337 0.950 . S
H333 C338 0.949 . S
H334 C340 0.950 . S
H335 C341 0.950 . S
H336 C342 0.949 . S
C337 H332 0.950 . S
C337 C339 1.327 . S
C337 C343 1.429 . S
C338 C330 1.574 . S
C338 H333 0.949 . S
C338 C344 1.368 . S
C339 C323 1.349 . S
C339 H331 0.950 . S
C339 C337 1.327 . S
C340 C328 1.349 . S
C340 H334 0.950 . S
C340 C341 1.327 . S
C341 H335 0.950 . S
C341 C340 1.327 . S
C341 C345 1.429 . S
C342 C325 1.574 . S
C342 H336 0.949 . S
C342 C346 1.368 . S
C343 C324 1.429 . S
C343 C337 1.429 . S
C343 C344 1.523 . S
C344 C325 1.368 . S
C344 C338 1.368 . S
C344 C343 1.523 . S
C345 C329 1.429 . S
C345 C341 1.429 . S
C345 C346 1.523 . S
C346 C330 1.368 . S
C346 C342 1.368 . S
C346 C345 1.523 . S
H347 C322 0.950 . S
H348 C324 0.950 . S
H349 C325 0.949 . S
H350 C327 0.950 . S
H351 C329 0.950 . S
C352 C353 1.349 . S
C352 C354 1.327 . S
C352 H377 0.950 . S
C353 C352 1.349 . S
C353 C369 1.349 . S
C354 C352 1.327 . S
C354 C373 1.429 . S
C354 H378 0.950 . S
C355 C372 1.574 . S
C355 C374 1.368 . S
C355 H379 0.949 . S
H356 C360 0.949 . S
C357 C358 1.349 . S
C357 C359 1.327 . S
C357 H380 0.950 . S
C358 C357 1.349 . S
C358 C370 1.349 . S
C359 C357 1.327 . S
C359 C375 1.429 . S
C359 H381 0.950 . S
C360 H356 0.949 . S
C360 C368 1.574 . S
C360 C376 1.368 . S
H361 C369 0.950 . S
H362 C367 0.950 . S
H363 C368 0.949 . S
H364 C370 0.950 . S
H365 C371 0.950 . S
H366 C372 0.949 . S
C367 H362 0.950 . S
C367 C369 1.327 . S
C367 C373 1.429 . S
C368 C360 1.574 . S
C368 H363 0.949 . S
C368 C374 1.368 . S
C369 C353 1.349 . S
C369 H361 0.950 . S
C369 C367 1.327 . S
C370 C358 1.349 . S
C370 H364 0.950 . S
C370 C371 1.327 . S
C371 H365 0.950 . S
C371 C370 1.327 . S
C371 C375 1.429 . S
C372 C355 1.574 . S
C372 H366 0.949 . S
C372 C376 1.368 . S
C373 C354 1.429 . S
C373 C367 1.429 . S
C373 C374 1.523 . S
C374 C355 1.368 . S
C374 C368 1.368 . S
C374 C373 1.523 . S
C375 C359 1.429 . S
C375 C371 1.429 . S
C375 C376 1.523 . S
C376 C360 1.368 . S
C376 C372 1.368 . S
C376 C375 1.523 . S
H377 C352 0.950 . S
H378 C354 0.950 . S
H379 C355 0.949 . S
H380 C357 0.950 . S
H381 C359 0.950 . S
C382 C383 1.349 . S
C382 C384 1.327 . S
C382 H407 0.950 . S
C383 C382 1.349 . S
C383 C399 1.349 . S
C384 C382 1.327 . S
C384 C403 1.429 . S
C384 H408 0.950 . S
C385 C402 1.574 . S
C385 C404 1.368 . S
C385 H409 0.949 . S
H386 C390 0.949 . S
C387 C388 1.349 . S
C387 C389 1.327 . S
C387 H410 0.950 1_455 S
C388 C387 1.349 . S
C388 C400 1.349 . S
C389 C387 1.327 . S
C389 C405 1.429 . S
C389 H411 0.950 . S
C390 H386 0.949 . S
C390 C398 1.574 . S
C390 C406 1.368 . S
H391 C399 0.950 . S
H392 C397 0.950 . S
H393 C398 0.949 . S
H394 C400 0.950 . S
H395 C401 0.950 . S
H396 C402 0.949 . S
C397 H392 0.950 . S
C397 C399 1.327 . S
C397 C403 1.429 . S
C398 C390 1.574 . S
C398 H393 0.949 . S
C398 C404 1.368 . S
C399 C383 1.349 . S
C399 H391 0.950 . S
C399 C397 1.327 . S
C400 C388 1.349 . S
C400 H394 0.950 . S
C400 C401 1.327 . S
C401 H395 0.950 . S
C401 C400 1.327 . S
C401 C405 1.429 . S
C402 C385 1.574 . S
C402 H396 0.949 . S
C402 C406 1.368 . S
C403 C384 1.429 . S
C403 C397 1.429 . S
C403 C404 1.523 . S
C404 C385 1.368 . S
C404 C398 1.368 . S
C404 C403 1.523 . S
C405 C389 1.429 . S
C405 C401 1.429 . S
C405 C406 1.523 . S
C406 C390 1.368 . S
C406 C402 1.368 . S
C406 C405 1.523 . S
H407 C382 0.950 . S
H408 C384 0.950 . S
H409 C385 0.949 . S
H410 C387 0.950 1_655 S
H411 C389 0.950 . S
C412 C413 1.349 . S
C412 C414 1.327 . S
C412 H437 0.950 . S
C413 C412 1.349 . S
C413 C429 1.349 . S
C414 C412 1.327 . S
C414 C433 1.429 . S
C414 H438 0.950 . S
C415 C432 1.574 . S
C415 C434 1.368 . S
C415 H439 0.949 . S
H416 C420 0.949 . S
C417 C418 1.349 . S
C417 C419 1.327 . S
C417 H440 0.950 . S
C418 C417 1.349 . S
C418 C430 1.349 . S
C419 C417 1.327 . S
C419 C435 1.429 . S
C419 H441 0.950 . S
C420 H416 0.949 . S
C420 C428 1.574 . S
C420 C436 1.368 . S
H421 C429 0.950 . S
H422 C427 0.950 . S
H423 C428 0.949 . S
H424 C430 0.950 . S
H425 C431 0.950 . S
H426 C432 0.949 . S
C427 H422 0.950 . S
C427 C429 1.327 . S
C427 C433 1.429 . S
C428 C420 1.574 . S
C428 H423 0.949 . S
C428 C434 1.368 . S
C429 C413 1.349 . S
C429 H421 0.950 . S
C429 C427 1.327 . S
C430 C418 1.349 . S
C430 H424 0.950 . S
C430 C431 1.327 . S
C431 H425 0.950 . S
C431 C430 1.327 . S
C431 C435 1.429 . S
C432 C415 1.574 . S
C432 H426 0.949 . S
C432 C436 1.368 . S
C433 C414 1.429 . S
C433 C427 1.429 . S
C433 C434 1.523 . S
C434 C415 1.368 . S
C434 C428 1.368 . S
C434 C433 1.523 . S
C435 C419 1.429 . S
C435 C431 1.429 . S
C435 C436 1.523 . S
C436 C420 1.368 . S
C436 C432 1.368 . S
C436 C435 1.523 . S
H437 C412 0.950 . S
H438 C414 0.950 . S
H439 C415 0.949 . S
H440 C417 0.950 . S
H441 C419 0.950 . S
C442 C443 1.349 . S
C442 C444 1.327 . S
C442 H467 0.950 . S
C443 C442 1.349 . S
C443 C459 1.349 . S
C444 C442 1.327 . S
C444 C463 1.429 . S
C444 H468 0.950 . S
C445 C462 1.574 . S
C445 C464 1.368 . S
C445 H469 0.949 . S
H446 C450 0.949 . S
C447 C448 1.349 . S
C447 C449 1.327 . S
C447 H470 0.950 . S
C448 C447 1.349 . S
C448 C460 1.349 . S
C449 C447 1.327 . S
C449 C465 1.429 . S
C449 H471 0.950 . S
C450 H446 0.949 . S
C450 C458 1.574 . S
C450 C466 1.368 . S
H451 C459 0.950 . S
H452 C457 0.950 . S
H453 C458 0.949 . S
H454 C460 0.950 . S
H455 C461 0.950 . S
H456 C462 0.949 . S
C457 H452 0.950 . S
C457 C459 1.327 . S
C457 C463 1.429 . S
C458 C450 1.574 . S
C458 H453 0.949 . S
C458 C464 1.368 . S
C459 C443 1.349 . S
C459 H451 0.950 . S
C459 C457 1.327 . S
C460 C448 1.349 . S
C460 H454 0.950 . S
C460 C461 1.327 . S
C461 H455 0.950 . S
C461 C460 1.327 . S
C461 C465 1.429 . S
C462 C445 1.574 . S
C462 H456 0.949 . S
C462 C466 1.368 . S
C463 C444 1.429 . S
C463 C457 1.429 . S
C463 C464 1.523 . S
C464 C445 1.368 . S
C464 C458 1.368 . S
C464 C463 1.523 . S
C465 C449 1.429 . S
C465 C461 1.429 . S
C465 C466 1.523 . S
C466 C450 1.368 . S
C466 C462 1.368 . S
C466 C465 1.523 . S
H467 C442 0.950 . S
H468 C444 0.950 . S
H469 C445 0.949 . S
H470 C447 0.950 . S
H471 C449 0.950 . S
C472 C473 1.349 . S
C472 C474 1.327 . S
C472 H497 0.950 . S
C473 C472 1.349 . S
C473 C489 1.349 . S
C474 C472 1.327 . S
C474 C493 1.429 . S
C474 H498 0.950 . S
C475 C492 1.574 . S
C475 C494 1.368 . S
C475 H499 0.949 . S
H476 C480 0.949 . S
C477 C478 1.349 . S
C477 C479 1.327 . S
C477 H500 0.950 . S
C478 C477 1.349 . S
C478 C490 1.349 . S
C479 C477 1.327 . S
C479 C495 1.429 . S
C479 H501 0.950 . S
C480 H476 0.949 . S
C480 C488 1.574 . S
C480 C496 1.368 . S
H481 C489 0.950 . S
H482 C487 0.950 . S
H483 C488 0.949 . S
H484 C490 0.950 . S
H485 C491 0.950 . S
H486 C492 0.949 . S
C487 H482 0.950 . S
C487 C489 1.327 . S
C487 C493 1.429 . S
C488 C480 1.574 . S
C488 H483 0.949 . S
C488 C494 1.368 . S
C489 C473 1.349 . S
C489 H481 0.950 . S
C489 C487 1.327 . S
C490 C478 1.349 . S
C490 H484 0.950 . S
C490 C491 1.327 . S
C491 H485 0.950 . S
C491 C490 1.327 . S
C491 C495 1.429 . S
C492 C475 1.574 . S
C492 H486 0.949 . S
C492 C496 1.368 . S
C493 C474 1.429 . S
C493 C487 1.429 . S
C493 C494 1.523 . S
C494 C475 1.368 . S
C494 C488 1.368 . S
C494 C493 1.523 . S
C495 C479 1.429 . S
C495 C491 1.429 . S
C495 C496 1.523 . S
C496 C480 1.368 . S
C496 C492 1.368 . S
C496 C495 1.523 . S
H497 C472 0.950 . S
H498 C474 0.950 . S
H499 C475 0.949 . S
H500 C477 0.950 . S
H501 C479 0.950 . S
C502 C503 1.349 . S
C502 C504 1.327 . S
C502 H527 0.950 . S
C503 C502 1.349 . S
C503 C519 1.349 . S
C504 C502 1.327 . S
C504 C523 1.429 . S
C504 H528 0.950 . S
C505 C522 1.574 . S
C505 C524 1.368 . S
C505 H529 0.949 . S
H506 C510 0.949 . S
C507 C508 1.349 . S
C507 C509 1.327 . S
C507 H530 0.950 . S
C508 C507 1.349 . S
C508 C520 1.349 . S
C509 C507 1.327 . S
C509 C525 1.429 . S
C509 H531 0.950 . S
C510 H506 0.949 . S
C510 C518 1.574 . S
C510 C526 1.368 . S
H511 C519 0.950 . S
H512 C517 0.950 . S
H513 C518 0.949 . S
H514 C520 0.950 . S
H515 C521 0.950 . S
H516 C522 0.949 . S
C517 H512 0.950 . S
C517 C519 1.327 . S
C517 C523 1.429 . S
C518 C510 1.574 . S
C518 H513 0.949 . S
C518 C524 1.368 . S
C519 C503 1.349 . S
C519 H511 0.950 . S
C519 C517 1.327 . S
C520 C508 1.349 . S
C520 H514 0.950 . S
C520 C521 1.327 . S
C521 H515 0.950 . S
C521 C520 1.327 . S
C521 C525 1.429 . S
C522 C505 1.574 . S
C522 H516 0.949 . S
C522 C526 1.368 . S
C523 C504 1.429 . S
C523 C517 1.429 . S
C523 C524 1.523 . S
C524 C505 1.368 . S
C524 C518 1.368 . S
C524 C523 1.523 . S
C525 C509 1.429 . S
C525 C521 1.429 . S
C525 C526 1.523 . S
C526 C510 1.368 . S
C526 C522 1.368 . S
C526 C525 1.523 . S
H527 C502 0.950 . S
H528 C504 0.950 . S
H529 C505 0.949 . S
H530 C507 0.950 . S
H531 C509 0.950 . S
C532 C533 1.349 . S
C532 C534 1.327 . S
C532 H557 0.950 . S
C533 C532 1.349 . S
C533 C549 1.349 . S
C534 C532 1.327 . S
C534 C553 1.429 . S
C534 H558 0.950 . S
C535 C552 1.574 . S
C535 C554 1.368 . S
C535 H559 0.949 . S
H536 C540 0.949 . S
C537 C538 1.349 . S
C537 C539 1.327 . S
C537 H560 0.950 . S
C538 C537 1.349 . S
C538 C550 1.349 . S
C539 C537 1.327 . S
C539 C555 1.429 . S
C539 H561 0.950 . S
C540 H536 0.949 . S
C540 C548 1.574 . S
C540 C556 1.368 . S
H541 C549 0.950 . S
H542 C547 0.950 . S
H543 C548 0.949 . S
H544 C550 0.950 . S
H545 C551 0.950 . S
H546 C552 0.949 . S
C547 H542 0.950 . S
C547 C549 1.327 . S
C547 C553 1.429 . S
C548 C540 1.574 . S
C548 H543 0.949 . S
C548 C554 1.368 . S
C549 C533 1.349 . S
C549 H541 0.950 . S
C549 C547 1.327 . S
C550 C538 1.349 . S
C550 H544 0.950 . S
C550 C551 1.327 . S
C551 H545 0.950 . S
C551 C550 1.327 . S
C551 C555 1.429 . S
C552 C535 1.574 . S
C552 H546 0.949 . S
C552 C556 1.368 . S
C553 C534 1.429 . S
C553 C547 1.429 . S
C553 C554 1.523 . S
C554 C535 1.368 . S
C554 C548 1.368 . S
C554 C553 1.523 . S
C555 C539 1.429 . S
C555 C551 1.429 . S
C555 C556 1.523 . S
C556 C540 1.368 . S
C556 C552 1.368 . S
C556 C555 1.523 . S
H557 C532 0.950 . S
H558 C534 0.950 . S
H559 C535 0.949 . S
H560 C537 0.950 . S
H561 C539 0.950 . S
C562 C563 1.349 . S
C562 C564 1.327 . S
C562 H587 0.950 . S
C563 C562 1.349 . S
C563 C579 1.349 . S
C564 C562 1.327 . S
C564 C583 1.429 . S
C564 H588 0.950 . S
C565 C582 1.574 . S
C565 C584 1.368 . S
C565 H589 0.949 . S
H566 C570 0.949 . S
C567 C568 1.349 . S
C567 C569 1.327 . S
C567 H590 0.950 . S
C568 C567 1.349 . S
C568 C580 1.349 . S
C569 C567 1.327 . S
C569 C585 1.429 . S
C569 H591 0.950 . S
C570 H566 0.949 . S
C570 C578 1.574 . S
C570 C586 1.368 . S
H571 C579 0.950 . S
H572 C577 0.950 . S
H573 C578 0.949 . S
H574 C580 0.950 . S
H575 C581 0.950 . S
H576 C582 0.949 . S
C577 H572 0.950 . S
C577 C579 1.327 . S
C577 C583 1.429 . S
C578 C570 1.574 . S
C578 H573 0.949 . S
C578 C584 1.368 . S
C579 C563 1.349 . S
C579 H571 0.950 . S
C579 C577 1.327 . S
C580 C568 1.349 . S
C580 H574 0.950 . S
C580 C581 1.327 . S
C581 H575 0.950 . S
C581 C580 1.327 . S
C581 C585 1.429 . S
C582 C565 1.574 . S
C582 H576 0.949 . S
C582 C586 1.368 . S
C583 C564 1.429 . S
C583 C577 1.429 . S
C583 C584 1.523 . S
C584 C565 1.368 . S
C584 C578 1.368 . S
C584 C583 1.523 . S
C585 C569 1.429 . S
C585 C581 1.429 . S
C585 C586 1.523 . S
C586 C570 1.368 . S
C586 C582 1.368 . S
C586 C585 1.523 . S
H587 C562 0.950 . S
H588 C564 0.950 . S
H589 C565 0.949 . S
H590 C567 0.950 . S
H591 C569 0.950 . S
C592 C593 1.349 . S
C592 C594 1.327 . S
C592 H617 0.950 . S
C593 C592 1.349 . S
C593 C609 1.349 . S
C594 C592 1.327 . S
C594 C613 1.429 . S
C594 H618 0.950 . S
C595 C612 1.574 . S
C595 C614 1.368 . S
C595 H619 0.949 . S
H596 C600 0.949 . S
C597 C598 1.349 . S
C597 C599 1.327 . S
C597 H620 0.950 . S
C598 C597 1.349 . S
C598 C610 1.349 . S
C599 C597 1.327 . S
C599 C615 1.429 . S
C599 H621 0.950 . S
C600 H596 0.949 . S
C600 C608 1.574 . S
C600 C616 1.368 . S
H601 C609 0.950 . S
H602 C607 0.950 . S
H603 C608 0.949 . S
H604 C610 0.950 . S
H605 C611 0.950 . S
H606 C612 0.949 . S
C607 H602 0.950 . S
C607 C609 1.327 . S
C607 C613 1.429 . S
C608 C600 1.574 . S
C608 H603 0.949 . S
C608 C614 1.368 . S
C609 C593 1.349 . S
C609 H601 0.950 . S
C609 C607 1.327 . S
C610 C598 1.349 . S
C610 H604 0.950 . S
C610 C611 1.327 . S
C611 H605 0.950 . S
C611 C610 1.327 . S
C611 C615 1.429 . S
C612 C595 1.574 . S
C612 H606 0.949 . S
C612 C616 1.368 . S
C613 C594 1.429 . S
C613 C607 1.429 . S
C613 C614 1.523 . S
C614 C595 1.368 . S
C614 C608 1.368 . S
C614 C613 1.523 . S
C615 C599 1.429 . S
C615 C611 1.429 . S
C615 C616 1.523 . S
C616 C600 1.368 . S
C616 C612 1.368 . S
C616 C615 1.523 . S
H617 C592 0.950 . S
H618 C594 0.950 . S
H619 C595 0.949 . S
H620 C597 0.950 . S
H621 C599 0.950 . S
C622 C623 1.349 . S
C622 C624 1.327 . S
C622 H647 0.950 . S
C623 C622 1.349 . S
C623 C639 1.349 . S
C624 C622 1.327 . S
C624 C643 1.429 . S
C624 H648 0.950 . S
C625 C642 1.574 . S
C625 C644 1.368 . S
C625 H649 0.949 . S
H626 C630 0.949 . S
C627 C628 1.349 . S
C627 C629 1.327 . S
C627 H650 0.950 . S
C628 C627 1.349 . S
C628 C640 1.349 . S
C629 C627 1.327 . S
C629 C645 1.429 . S
C629 H651 0.950 . S
C630 H626 0.949 . S
C630 C638 1.574 . S
C630 C646 1.368 . S
H631 C639 0.950 . S
H632 C637 0.950 . S
H633 C638 0.949 . S
H634 C640 0.950 . S
H635 C641 0.950 . S
H636 C642 0.949 . S
C637 H632 0.950 . S
C637 C639 1.327 . S
C637 C643 1.429 . S
C638 C630 1.574 . S
C638 H633 0.949 . S
C638 C644 1.368 . S
C639 C623 1.349 . S
C639 H631 0.950 . S
C639 C637 1.327 . S
C640 C628 1.349 . S
C640 H634 0.950 . S
C640 C641 1.327 . S
C641 H635 0.950 . S
C641 C640 1.327 . S
C641 C645 1.429 . S
C642 C625 1.574 . S
C642 H636 0.949 . S
C642 C646 1.368 . S
C643 C624 1.429 . S
C643 C637 1.429 . S
C643 C644 1.523 . S
C644 C625 1.368 . S
C644 C638 1.368 . S
C644 C643 1.523 . S
C645 C629 1.429 . S
C645 C641 1.429 . S
C645 C646 1.523 . S
C646 C630 1.368 . S
C646 C642 1.368 . S
C646 C645 1.523 . S
H647 C622 0.950 . S
H648 C624 0.950 . S
H649 C625 0.949 . S
H650 C627 0.950 . S
H651 C629 0.950 . S
C652 C653 1.349 . S
C652 C654 1.327 . S
C652 H677 0.950 . S
C653 C652 1.349 . S
C653 C669 1.349 . S
C654 C652 1.327 . S
C654 C673 1.429 . S
C654 H678 0.950 . S
C655 C672 1.574 . S
C655 C674 1.368 . S
C655 H679 0.949 . S
H656 C660 0.949 . S
C657 C658 1.349 . S
C657 C659 1.327 . S
C657 H680 0.950 . S
C658 C657 1.349 . S
C658 C670 1.349 . S
C659 C657 1.327 . S
C659 C675 1.429 . S
C659 H681 0.950 . S
C660 H656 0.949 . S
C660 C668 1.574 . S
C660 C676 1.368 . S
H661 C669 0.950 . S
H662 C667 0.950 . S
H663 C668 0.949 . S
H664 C670 0.950 . S
H665 C671 0.950 . S
H666 C672 0.949 . S
C667 H662 0.950 . S
C667 C669 1.327 . S
C667 C673 1.429 . S
C668 C660 1.574 . S
C668 H663 0.949 . S
C668 C674 1.368 . S
C669 C653 1.349 . S
C669 H661 0.950 . S
C669 C667 1.327 . S
C670 C658 1.349 . S
C670 H664 0.950 . S
C670 C671 1.327 . S
C671 H665 0.950 . S
C671 C670 1.327 . S
C671 C675 1.429 . S
C672 C655 1.574 . S
C672 H666 0.949 . S
C672 C676 1.368 . S
C673 C654 1.429 . S
C673 C667 1.429 . S
C673 C674 1.523 . S
C674 C655 1.368 . S
C674 C668 1.368 . S
C674 C673 1.523 . S
C675 C659 1.429 . S
C675 C671 1.429 . S
C675 C676 1.523 . S
C676 C660 1.368 . S
C676 C672 1.368 . S
C676 C675 1.523 . S
H677 C652 0.950 . S
H678 C654 0.950 . S
H679 C655 0.949 . S
H680 C657 0.950 . S
H681 C659 0.950 . S
C682 C683 1.349 . S
C682 C684 1.327 . S
C682 H707 0.950 . S
C683 C682 1.349 . S
C683 C699 1.349 . S
C684 C682 1.327 . S
C684 C703 1.429 . S
C684 H708 0.950 . S
C685 C702 1.574 . S
C685 C704 1.368 . S
C685 H709 0.949 . S
H686 C690 0.949 . S
C687 C688 1.349 . S
C687 C689 1.327 . S
C687 H710 0.950 . S
C688 C687 1.349 . S
C688 C700 1.349 . S
C689 C687 1.327 . S
C689 C705 1.429 . S
C689 H711 0.950 . S
C690 H686 0.949 . S
C690 C698 1.574 . S
C690 C706 1.368 . S
H691 C699 0.950 . S
H692 C697 0.950 . S
H693 C698 0.949 . S
H694 C700 0.950 . S
H695 C701 0.950 . S
H696 C702 0.949 . S
C697 H692 0.950 . S
C697 C699 1.327 . S
C697 C703 1.429 . S
C698 C690 1.574 . S
C698 H693 0.949 . S
C698 C704 1.368 . S
C699 C683 1.349 . S
C699 H691 0.950 . S
C699 C697 1.327 . S
C700 C688 1.349 . S
C700 H694 0.950 . S
C700 C701 1.327 . S
C701 H695 0.950 . S
C701 C700 1.327 . S
C701 C705 1.429 . S
C702 C685 1.574 . S
C702 H696 0.949 . S
C702 C706 1.368 . S
C703 C684 1.429 . S
C703 C697 1.429 . S
C703 C704 1.523 . S
C704 C685 1.368 . S
C704 C698 1.368 . S
C704 C703 1.523 . S
C705 C689 1.429 . S
C705 C701 1.429 . S
C705 C706 1.523 . S
C706 C690 1.368 . S
C706 C702 1.368 . S
C706 C705 1.523 . S
H707 C682 0.950 . S
H708 C684 0.950 . S
H709 C685 0.949 . S
H710 C687 0.950 . S
H711 C689 0.950 . S
C712 C713 1.349 . S
C712 C714 1.327 . S
C712 H737 0.950 . S
C713 C712 1.349 . S
C713 C729 1.349 . S
C714 C712 1.327 . S
C714 C733 1.429 . S
C714 H738 0.950 . S
C715 C732 1.574 . S
C715 C734 1.368 . S
C715 H739 0.949 . S
H716 C720 0.949 . S
C717 C718 1.349 . S
C717 C719 1.327 . S
C717 H740 0.950 . S
C718 C717 1.349 . S
C718 C730 1.349 . S
C719 C717 1.327 . S
C719 C735 1.429 . S
C719 H741 0.950 . S
C720 H716 0.949 . S
C720 C728 1.574 . S
C720 C736 1.368 . S
H721 C729 0.950 . S
H722 C727 0.950 . S
H723 C728 0.949 . S
H724 C730 0.950 . S
H725 C731 0.950 . S
H726 C732 0.949 . S
C727 H722 0.950 . S
C727 C729 1.327 . S
C727 C733 1.429 . S
C728 C720 1.574 . S
C728 H723 0.949 . S
C728 C734 1.368 . S
C729 C713 1.349 . S
C729 H721 0.950 . S
C729 C727 1.327 . S
C730 C718 1.349 . S
C730 H724 0.950 . S
C730 C731 1.327 . S
C731 H725 0.950 . S
C731 C730 1.327 . S
C731 C735 1.429 . S
C732 C715 1.574 . S
C732 H726 0.949 . S
C732 C736 1.368 . S
C733 C714 1.429 . S
C733 C727 1.429 . S
C733 C734 1.523 . S
C734 C715 1.368 . S
C734 C728 1.368 . S
C734 C733 1.523 . S
C735 C719 1.429 . S
C735 C731 1.429 . S
C735 C736 1.523 . S
C736 C720 1.368 . S
C736 C732 1.368 . S
C736 C735 1.523 . S
H737 C712 0.950 . S
H738 C714 0.950 . S
H739 C715 0.949 . S
H740 C717 0.950 . S
H741 C719 0.950 . S
C742 C743 1.349 . S
C742 C744 1.327 . S
C742 H767 0.950 . S
C743 C742 1.349 . S
C743 C759 1.349 . S
C744 C742 1.327 . S
C744 C763 1.429 . S
C744 H768 0.950 . S
C745 C762 1.574 . S
C745 C764 1.368 . S
C745 H769 0.949 . S
H746 C750 0.949 . S
C747 C748 1.349 . S
C747 C749 1.327 . S
C747 H770 0.950 . S
C748 C747 1.349 . S
C748 C760 1.349 . S
C749 C747 1.327 . S
C749 C765 1.429 . S
C749 H771 0.950 . S
C750 H746 0.949 . S
C750 C758 1.574 . S
C750 C766 1.368 . S
H751 C759 0.950 . S
H752 C757 0.950 . S
H753 C758 0.949 . S
H754 C760 0.950 . S
H755 C761 0.950 . S
H756 C762 0.949 . S
C757 H752 0.950 . S
C757 C759 1.327 . S
C757 C763 1.429 . S
C758 C750 1.574 . S
C758 H753 0.949 . S
C758 C764 1.368 . S
C759 C743 1.349 . S
C759 H751 0.950 . S
C759 C757 1.327 . S
C760 C748 1.349 . S
C760 H754 0.950 . S
C760 C761 1.327 . S
C761 H755 0.950 . S
C761 C760 1.327 . S
C761 C765 1.429 . S
C762 C745 1.574 . S
C762 H756 0.949 . S
C762 C766 1.368 . S
C763 C744 1.429 . S
C763 C757 1.429 . S
C763 C764 1.523 . S
C764 C745 1.368 . S
C764 C758 1.368 . S
C764 C763 1.523 . S
C765 C749 1.429 . S
C765 C761 1.429 . S
C765 C766 1.523 . S
C766 C750 1.368 . S
C766 C762 1.368 . S
C766 C765 1.523 . S
H767 C742 0.950 . S
H768 C744 0.950 . S
H769 C745 0.949 . S
H770 C747 0.950 . S
H771 C749 0.950 . S
C772 C773 1.349 . S
C772 C774 1.327 . S
C772 H797 0.950 . S
C773 C772 1.349 . S
C773 C789 1.349 . S
C774 C772 1.327 . S
C774 C793 1.429 . S
C774 H798 0.950 . S
C775 C792 1.574 . S
C775 C794 1.368 . S
C775 H799 0.949 . S
H776 C780 0.949 . S
C777 C778 1.349 . S
C777 C779 1.327 . S
C777 H800 0.950 . S
C778 C777 1.349 . S
C778 C790 1.349 . S
C779 C777 1.327 . S
C779 C795 1.429 . S
C779 H801 0.950 . S
C780 H776 0.949 . S
C780 C788 1.574 . S
C780 C796 1.368 . S
H781 C789 0.950 . S
H782 C787 0.950 . S
H783 C788 0.949 . S
H784 C790 0.950 . S
H785 C791 0.950 . S
H786 C792 0.949 . S
C787 H782 0.950 . S
C787 C789 1.327 . S
C787 C793 1.429 . S
C788 C780 1.574 . S
C788 H783 0.949 . S
C788 C794 1.368 . S
C789 C773 1.349 . S
C789 H781 0.950 . S
C789 C787 1.327 . S
C790 C778 1.349 . S
C790 H784 0.950 . S
C790 C791 1.327 . S
C791 H785 0.950 . S
C791 C790 1.327 . S
C791 C795 1.429 . S
C792 C775 1.574 . S
C792 H786 0.949 . S
C792 C796 1.368 . S
C793 C774 1.429 . S
C793 C787 1.429 . S
C793 C794 1.523 . S
C794 C775 1.368 . S
C794 C788 1.368 . S
C794 C793 1.523 . S
C795 C779 1.429 . S
C795 C791 1.429 . S
C795 C796 1.523 . S
C796 C780 1.368 . S
C796 C792 1.368 . S
C796 C795 1.523 . S
H797 C772 0.950 . S
H798 C774 0.950 . S
H799 C775 0.949 . S
H800 C777 0.950 . S
H801 C779 0.950 . S
C802 C803 1.349 . S
C802 C804 1.327 . S
C802 H827 0.950 . S
C803 C802 1.349 . S
C803 C819 1.349 . S
C804 C802 1.327 . S
C804 C823 1.429 . S
C804 H828 0.950 . S
C805 C822 1.574 . S
C805 C824 1.368 . S
C805 H829 0.949 . S
H806 C810 0.949 . S
C807 C808 1.349 . S
C807 C809 1.327 . S
C807 H830 0.950 . S
C808 C807 1.349 . S
C808 C820 1.349 . S
C809 C807 1.327 . S
C809 C825 1.429 . S
C809 H831 0.950 . S
C810 H806 0.949 . S
C810 C818 1.574 . S
C810 C826 1.368 . S
H811 C819 0.950 . S
H812 C817 0.950 . S
H813 C818 0.949 . S
H814 C820 0.950 . S
H815 C821 0.950 . S
H816 C822 0.949 . S
C817 H812 0.950 . S
C817 C819 1.327 . S
C817 C823 1.429 . S
C818 C810 1.574 . S
C818 H813 0.949 . S
C818 C824 1.368 . S
C819 C803 1.349 . S
C819 H811 0.950 . S
C819 C817 1.327 . S
C820 C808 1.349 . S
C820 H814 0.950 . S
C820 C821 1.327 . S
C821 H815 0.950 . S
C821 C820 1.327 . S
C821 C825 1.429 . S
C822 C805 1.574 . S
C822 H816 0.949 . S
C822 C826 1.368 . S
C823 C804 1.429 . S
C823 C817 1.429 . S
C823 C824 1.523 . S
C824 C805 1.368 . S
C824 C818 1.368 . S
C824 C823 1.523 . S
C825 C809 1.429 . S
C825 C821 1.429 . S
C825 C826 1.523 . S
C826 C810 1.368 . S
C826 C822 1.368 . S
C826 C825 1.523 . S
H827 C802 0.950 . S
H828 C804 0.950 . S
H829 C805 0.949 . S
H830 C807 0.950 . S
H831 C809 0.950 . S
C832 C833 1.349 . S
C832 C834 1.327 . S
C832 H857 0.950 . S
C833 C832 1.349 . S
C833 C849 1.349 . S
C834 C832 1.327 . S
C834 C853 1.429 . S
C834 H858 0.950 . S
C835 C852 1.574 . S
C835 C854 1.368 . S
C835 H859 0.949 . S
H836 C840 0.949 . S
C837 C838 1.349 . S
C837 C839 1.327 . S
C837 H860 0.950 . S
C838 C837 1.349 . S
C838 C850 1.349 . S
C839 C837 1.327 . S
C839 C855 1.429 . S
C839 H861 0.950 . S
C840 H836 0.949 . S
C840 C848 1.574 . S
C840 C856 1.368 . S
H841 C849 0.950 . S
H842 C847 0.950 . S
H843 C848 0.949 . S
H844 C850 0.950 . S
H845 C851 0.950 . S
H846 C852 0.949 . S
C847 H842 0.950 . S
C847 C849 1.327 . S
C847 C853 1.429 . S
C848 C840 1.574 . S
C848 H843 0.949 . S
C848 C854 1.368 . S
C849 C833 1.349 . S
C849 H841 0.950 . S
C849 C847 1.327 . S
C850 C838 1.349 . S
C850 H844 0.950 . S
C850 C851 1.327 . S
C851 H845 0.950 . S
C851 C850 1.327 . S
C851 C855 1.429 . S
C852 C835 1.574 . S
C852 H846 0.949 . S
C852 C856 1.368 . S
C853 C834 1.429 . S
C853 C847 1.429 . S
C853 C854 1.523 . S
C854 C835 1.368 . S
C854 C848 1.368 . S
C854 C853 1.523 . S
C855 C839 1.429 . S
C855 C851 1.429 . S
C855 C856 1.523 . S
C856 C840 1.368 . S
C856 C852 1.368 . S
C856 C855 1.523 . S
H857 C832 0.950 . S
H858 C834 0.950 . S
H859 C835 0.949 . S
H860 C837 0.950 . S
H861 C839 0.950 . S
C862 C863 1.349 . S
C862 C864 1.327 . S
C862 H887 0.950 . S
C863 C862 1.349 . S
C863 C879 1.349 . S
C864 C862 1.327 . S
C864 C883 1.429 . S
C864 H888 0.950 . S
C865 C882 1.574 . S
C865 C884 1.368 . S
C865 H889 0.949 . S
H866 C870 0.949 . S
C867 C868 1.349 . S
C867 C869 1.327 . S
C867 H890 0.950 . S
C868 C867 1.349 . S
C868 C880 1.349 . S
C869 C867 1.327 . S
C869 C885 1.429 . S
C869 H891 0.950 . S
C870 H866 0.949 . S
C870 C878 1.574 . S
C870 C886 1.368 . S
H871 C879 0.950 . S
H872 C877 0.950 . S
H873 C878 0.949 . S
H874 C880 0.950 . S
H875 C881 0.950 . S
H876 C882 0.949 . S
C877 H872 0.950 . S
C877 C879 1.327 . S
C877 C883 1.429 . S
C878 C870 1.574 . S
C878 H873 0.949 . S
C878 C884 1.368 . S
C879 C863 1.349 . S
C879 H871 0.950 . S
C879 C877 1.327 . S
C880 C868 1.349 . S
C880 H874 0.950 . S
C880 C881 1.327 . S
C881 H875 0.950 . S
C881 C880 1.327 . S
C881 C885 1.429 . S
C882 C865 1.574 . S
C882 H876 0.949 . S
C882 C886 1.368 . S
C883 C864 1.429 . S
C883 C877 1.429 . S
C883 C884 1.523 . S
C884 C865 1.368 . S
C884 C878 1.368 . S
C884 C883 1.523 . S
C885 C869 1.429 . S
C885 C881 1.429 . S
C885 C886 1.523 . S
C886 C870 1.368 . S
C886 C882 1.368 . S
C886 C885 1.523 . S
H887 C862 0.950 . S
H888 C864 0.950 . S
H889 C865 0.949 . S
H890 C867 0.950 . S
H891 C869 0.950 . S
C892 C893 1.349 . S
C892 C894 1.327 . S
C892 H917 0.950 . S
C893 C892 1.349 . S
C893 C909 1.349 . S
C894 C892 1.327 . S
C894 C913 1.429 . S
C894 H918 0.950 . S
C895 C912 1.574 . S
C895 C914 1.368 . S
C895 H919 0.949 . S
H896 C900 0.949 . S
C897 C898 1.349 . S
C897 C899 1.327 . S
C897 H920 0.950 . S
C898 C897 1.349 . S
C898 C910 1.349 . S
C899 C897 1.327 . S
C899 C915 1.429 . S
C899 H921 0.950 . S
C900 H896 0.949 . S
C900 C908 1.574 . S
C900 C916 1.368 . S
H901 C909 0.950 . S
H902 C907 0.950 . S
H903 C908 0.949 . S
H904 C910 0.950 . S
H905 C911 0.950 . S
H906 C912 0.949 . S
C907 H902 0.950 . S
C907 C909 1.327 . S
C907 C913 1.429 . S
C908 C900 1.574 . S
C908 H903 0.949 . S
C908 C914 1.368 . S
C909 C893 1.349 . S
C909 H901 0.950 . S
C909 C907 1.327 . S
C910 C898 1.349 . S
C910 H904 0.950 . S
C910 C911 1.327 . S
C911 H905 0.950 . S
C911 C910 1.327 . S
C911 C915 1.429 . S
C912 C895 1.574 . S
C912 H906 0.949 . S
C912 C916 1.368 . S
C913 C894 1.429 . S
C913 C907 1.429 . S
C913 C914 1.523 . S
C914 C895 1.368 . S
C914 C908 1.368 . S
C914 C913 1.523 . S
C915 C899 1.429 . S
C915 C911 1.429 . S
C915 C916 1.523 . S
C916 C900 1.368 . S
C916 C912 1.368 . S
C916 C915 1.523 . S
H917 C892 0.950 . S
H918 C894 0.950 . S
H919 C895 0.949 . S
H920 C897 0.950 . S
H921 C899 0.950 . S
C922 C923 1.349 . S
C922 C924 1.327 . S
C922 H947 0.950 . S
C923 C922 1.349 . S
C923 C939 1.349 . S
C924 C922 1.327 . S
C924 C943 1.429 . S
C924 H948 0.950 . S
C925 C942 1.574 . S
C925 C944 1.368 . S
C925 H949 0.949 . S
H926 C930 0.949 . S
C927 C928 1.349 . S
C927 C929 1.327 . S
C927 H950 0.950 . S
C928 C927 1.349 . S
C928 C940 1.349 . S
C929 C927 1.327 . S
C929 C945 1.429 . S
C929 H951 0.950 . S
C930 H926 0.949 . S
C930 C938 1.574 . S
C930 C946 1.368 . S
H931 C939 0.950 . S
H932 C937 0.950 . S
H933 C938 0.949 . S
H934 C940 0.950 . S
H935 C941 0.950 . S
H936 C942 0.949 . S
C937 H932 0.950 . S
C937 C939 1.327 . S
C937 C943 1.429 . S
C938 C930 1.574 . S
C938 H933 0.949 . S
C938 C944 1.368 . S
C939 C923 1.349 . S
C939 H931 0.950 . S
C939 C937 1.327 . S
C940 C928 1.349 . S
C940 H934 0.950 . S
C940 C941 1.327 . S
C941 H935 0.950 . S
C941 C940 1.327 . S
C941 C945 1.429 . S
C942 C925 1.574 . S
C942 H936 0.949 . S
C942 C946 1.368 . S
C943 C924 1.429 . S
C943 C937 1.429 . S
C943 C944 1.523 . S
C944 C925 1.368 . S
C944 C938 1.368 . S
C944 C943 1.523 . S
C945 C929 1.429 . S
C945 C941 1.429 . S
C945 C946 1.523 . S
C946 C930 1.368 . S
C946 C942 1.368 . S
C946 C945 1.523 . S
H947 C922 0.950 . S
H948 C924 0.950 . S
H949 C925 0.949 . S
H950 C927 0.950 . S
H951 C929 0.950 . S
C233 C5 1.168 . S
C238 C87 1.170 . S
C263 C14 0.987 . S
C268 C127 1.002 . S
C298 C161 2.211 . S
C293 C25 2.242 . S
C323 C34 2.632 . S
C328 C202 2.572 . S
C358 C122 1.253 . S
C353 C7 1.245 . S
C388 C82 1.853 . S
C383 C13 1.804 . S
C418 C210 1.514 . S
C413 C23 1.527 . S
C448 C171 1.744 . S
C443 C31 1.793 . S
C473 C4 1.112 . S
C478 C207 1.117 . S
C508 C130 1.949 . S
C503 C22 1.996 . S
C533 C32 2.420 . S
C538 C90 2.345 . S
C563 C16 1.356 . S
C568 C158 1.383 . S
C598 C78 1.156 . S
C593 C41 1.152 . S
C623 C50 0.997 . S
C628 C118 1.012 . S
C653 C61 2.239 . S
C658 C170 2.206 . S
C683 C67 2.644 . S
C688 C211 2.586 . S
C713 C40 1.272 . S
C718 C131 1.279 . S
C748 C91 1.828 . S
C743 C52 1.774 . S
C778 C201 1.520 . S
C773 C59 1.536 . S
C808 C162 1.742 . S
C803 C70 1.788 . S
C833 C43 1.104 . S
C838 C198 1.109 . S
C868 C121 1.964 . S
C863 C58 2.013 . S
C898 C81 2.327 . S
C893 C68 2.397 . S
C923 C49 1.367 . S
C928 C167 1.390 . S
