# Generated by pormake.
# Topology sqc, (4,8)-cn, num edge types: 1
# Building blocks:
#     Node 0, Type 0, BuildingBlock: MIFKUJ_clean_linker_1, # of connection points: 4
#     Node 1, Type 0, BuildingBlock: MIFKUJ_clean_linker_1, # of connection points: 4
#     Node 2, Type 0, BuildingBlock: MIFKUJ_clean_linker_1, # of connection points: 4
#     Node 3, Type 0, BuildingBlock: MIFKUJ_clean_linker_1, # of connection points: 4
#     Node 4, Type 0, BuildingBlock: MIFKUJ_clean_linker_1, # of connection points: 4
#     Node 5, Type 0, BuildingBlock: MIFKUJ_clean_linker_1, # of connection points: 4
#     Node 6, Type 0, BuildingBlock: MIFKUJ_clean_linker_1, # of connection points: 4
#     Node 7, Type 0, BuildingBlock: MIFKUJ_clean_linker_1, # of connection points: 4
#     Node 8, Type 1, BuildingBlock: VETTIZ_charged_sbu_0, # of connection points: 8
#     Node 9, Type 1, BuildingBlock: VETTIZ_charged_sbu_0, # of connection points: 8
#     Node 10, Type 1, BuildingBlock: VETTIZ_charged_sbu_0, # of connection points: 8
#     Node 11, Type 1, BuildingBlock: VETTIZ_charged_sbu_0, # of connection points: 8
#     Edge 12, Type (0, 1), BuildingBlock: AJUNOK_clean_linker_0, # of connection points: 2
#     Edge 13, Type (0, 1), BuildingBlock: AJUNOK_clean_linker_0, # of connection points: 2
#     Edge 14, Type (0, 1), BuildingBlock: AJUNOK_clean_linker_0, # of connection points: 2
#     Edge 15, Type (0, 1), BuildingBlock: AJUNOK_clean_linker_0, # of connection points: 2
#     Edge 16, Type (0, 1), BuildingBlock: AJUNOK_clean_linker_0, # of connection points: 2
#     Edge 17, Type (0, 1), BuildingBlock: AJUNOK_clean_linker_0, # of connection points: 2
#     Edge 18, Type (0, 1), BuildingBlock: AJUNOK_clean_linker_0, # of connection points: 2
#     Edge 19, Type (0, 1), BuildingBlock: AJUNOK_clean_linker_0, # of connection points: 2
#     Edge 20, Type (0, 1), BuildingBlock: AJUNOK_clean_linker_0, # of connection points: 2
#     Edge 21, Type (0, 1), BuildingBlock: AJUNOK_clean_linker_0, # of connection points: 2
#     Edge 22, Type (0, 1), BuildingBlock: AJUNOK_clean_linker_0, # of connection points: 2
#     Edge 23, Type (0, 1), BuildingBlock: AJUNOK_clean_linker_0, # of connection points: 2
#     Edge 24, Type (0, 1), BuildingBlock: AJUNOK_clean_linker_0, # of connection points: 2
#     Edge 25, Type (0, 1), BuildingBlock: AJUNOK_clean_linker_0, # of connection points: 2
#     Edge 26, Type (0, 1), BuildingBlock: AJUNOK_clean_linker_0, # of connection points: 2
#     Edge 27, Type (0, 1), BuildingBlock: AJUNOK_clean_linker_0, # of connection points: 2
#     Edge 28, Type (0, 1), BuildingBlock: AJUNOK_clean_linker_0, # of connection points: 2
#     Edge 29, Type (0, 1), BuildingBlock: AJUNOK_clean_linker_0, # of connection points: 2
#     Edge 30, Type (0, 1), BuildingBlock: AJUNOK_clean_linker_0, # of connection points: 2
#     Edge 31, Type (0, 1), BuildingBlock: AJUNOK_clean_linker_0, # of connection points: 2
#     Edge 32, Type (0, 1), BuildingBlock: AJUNOK_clean_linker_0, # of connection points: 2
#     Edge 33, Type (0, 1), BuildingBlock: AJUNOK_clean_linker_0, # of connection points: 2
#     Edge 34, Type (0, 1), BuildingBlock: AJUNOK_clean_linker_0, # of connection points: 2
#     Edge 35, Type (0, 1), BuildingBlock: AJUNOK_clean_linker_0, # of connection points: 2
#     Edge 36, Type (0, 1), BuildingBlock: AJUNOK_clean_linker_0, # of connection points: 2
#     Edge 37, Type (0, 1), BuildingBlock: AJUNOK_clean_linker_0, # of connection points: 2
#     Edge 38, Type (0, 1), BuildingBlock: AJUNOK_clean_linker_0, # of connection points: 2
#     Edge 39, Type (0, 1), BuildingBlock: AJUNOK_clean_linker_0, # of connection points: 2
#     Edge 40, Type (0, 1), BuildingBlock: AJUNOK_clean_linker_0, # of connection points: 2
#     Edge 41, Type (0, 1), BuildingBlock: AJUNOK_clean_linker_0, # of connection points: 2
#     Edge 42, Type (0, 1), BuildingBlock: AJUNOK_clean_linker_0, # of connection points: 2
#     Edge 43, Type (0, 1), BuildingBlock: AJUNOK_clean_linker_0, # of connection points: 2
# Relax obj value: 0.137
# Max RMSD: 0.270
# Mean RMSD: 0.176
data_MOF--net-sqc--node1-VETTIZ_charged_sbu_0--node2-MIFKUJ_clean_linker_1--edge1-AJUNOK_clean_linker_0
_symmetry_space_group_name_H-M    P1
_symmetry_Int_Tables_number       1
_symmetry_cell_setting            triclinic
loop_
_symmetry_equiv_pos_as_xyz
'x, y, z'
_cell_length_a     22.384778
_cell_length_b     22.264772
_cell_length_c     64.672245
_cell_angle_alpha  89.542778
_cell_angle_beta   89.975389
_cell_angle_gamma 91.495466
loop_
_atom_site_label
_atom_site_type_symbol
_atom_site_fract_x
_atom_site_fract_y
_atom_site_fract_z
_atom_type_partial_charge
H0 H 0.90458 0.87858 0.49481 0.0
H1 H 0.81529 0.85775 0.47388 0.0
H2 H 0.78816 0.04828 0.46725 0.0
H3 H 0.87695 0.06883 0.48827 0.0
H4 H 1.00846 0.93485 0.48656 0.0
H5 H 0.8779 0.9584 0.547 0.0
H6 H 0.80518 0.99508 0.57181 0.0
H7 H 0.82778 0.17417 0.54615 0.0
H8 H 0.90317 0.1376 0.52226 0.0
H9 H 0.10292 0.13366 0.53167 0.0
H10 H 0.18116 0.16743 0.55553 0.0
H11 H 0.20902 0.98351 0.57413 0.0
H12 H 0.13091 0.94971 0.54986 0.0
H13 H 1.00179 0.07258 0.54635 0.0
H14 H 0.15503 0.04436 0.49517 0.0
H15 H 0.24822 1.00597 0.48152 0.0
H16 H 0.18743 0.82466 0.49604 0.0
H17 H 0.09309 0.86346 0.50906 0.0
C18 C 0.89705 0.97522 0.49341 0.0
C19 C 0.87926 0.91584 0.48893 0.0
C20 C 0.82829 0.90404 0.47696 0.0
C21 C 0.79427 0.95142 0.46913 0.0
C22 C 0.81246 1.01083 0.47349 0.0
C23 C 0.8633 0.02257 0.4855 0.0
C24 C 0.95177 0.98827 0.50576 0.0
C25 C 1.00673 0.96434 0.4998 0.0
C26 C 0.95059 0.0269 0.52291 0.0
C27 C 0.89505 0.04533 0.53276 0.0
C28 C 0.86583 1.0052 0.5464 0.0
C29 C 0.82489 0.02633 0.56068 0.0
C30 C 0.8124 0.08782 0.56134 0.0
C31 C 0.83842 0.127 0.54654 0.0
C32 C 0.88024 0.10604 0.53255 0.0
C33 C 0.11141 0.03926 0.53898 0.0
C34 C 0.12637 0.10056 0.54071 0.0
C35 C 0.17038 0.11982 0.55455 0.0
C36 C 0.19975 0.07816 0.5671 0.0
C37 C 0.18651 0.01651 0.56476 0.0
C38 C 0.14242 0.99717 0.55081 0.0
C39 C 0.05816 0.02078 0.52688 0.0
C40 C 1.00351 0.04339 0.53299 0.0
C41 C 0.05996 0.98009 0.51029 0.0
C42 C 0.1172 0.95664 0.50295 0.0
C43 C 0.16198 0.99638 0.49553 0.0
C44 C 0.21534 0.97441 0.48789 0.0
C45 C 0.22492 0.91228 0.48758 0.0
C46 C 0.18077 0.87266 0.49571 0.0
C47 C 0.12702 0.89469 0.50316 0.0
H48 H 0.24831 0.86425 0.81086 0.0
H49 H 0.21613 0.95721 0.82661 0.0
H50 H 0.13772 1.01178 0.76865 0.0
H51 H 0.16784 0.91714 0.75311 0.0
H52 H 0.19288 0.77252 0.79588 0.0
H53 H 0.32569 0.91948 0.77055 0.0
H54 H 0.3647 1.01159 0.75444 0.0
H55 H 0.30463 0.94751 0.69486 0.0
H56 H 0.25918 0.85911 0.71139 0.0
H57 H 0.20288 0.68159 0.71696 0.0
H58 H 0.21794 0.58921 0.6975 0.0
H59 H 0.35037 0.53562 0.74212 0.0
H60 H 0.33399 0.62742 0.76176 0.0
H61 H 0.29666 0.7704 0.72822 0.0
H62 H 0.17672 0.60839 0.75988 0.0
H63 H 0.16619 0.51572 0.77935 0.0
H64 H 0.22993 0.60793 0.83405 0.0
H65 H 0.25232 0.69659 0.81337 0.0
C66 C 0.21108 0.88377 0.78073 0.0
C67 C 0.22411 0.89606 0.80151 0.0
C68 C 0.20651 0.94975 0.81041 0.0
C69 C 0.17579 0.99262 0.7987 0.0
C70 C 0.16191 0.97993 0.77798 0.0
C71 C 0.17929 0.92598 0.76909 0.0
C72 C 0.23083 0.82693 0.77124 0.0
C73 C 0.21635 0.77196 0.78122 0.0
C74 C 0.26266 0.8266 0.7523 0.0
C75 C 0.28756 0.88269 0.74238 0.0
C76 C 0.31895 0.92607 0.75412 0.0
C77 C 0.34236 0.97844 0.74479 0.0
C78 C 0.33689 0.98793 0.72335 0.0
C79 C 0.30762 0.9433 0.7115 0.0
C80 C 0.28247 0.89188 0.72094 0.0
C81 C 0.26727 0.66103 0.74078 0.0
C82 C 0.23518 0.64983 0.7225 0.0
C83 C 0.24379 0.59719 0.71141 0.0
C84 C 0.28531 0.55529 0.71828 0.0
C85 C 0.31745 0.56677 0.73661 0.0
C86 C 0.30862 0.61929 0.74775 0.0
C87 C 0.25662 0.71654 0.75244 0.0
C88 C 0.27335 0.77126 0.74292 0.0
C89 C 0.23021 0.71632 0.7724 0.0
C90 C 0.21803 0.65976 0.78467 0.0
C91 C 0.19183 0.60806 0.77575 0.0
C92 C 0.18419 0.55485 0.78723 0.0
C93 C 0.19819 0.55265 0.80849 0.0
C94 C 0.2216 0.60552 0.81762 0.0
C95 C 0.23271 0.65757 0.80581 0.0
H96 H 0.41634 0.07384 0.06455 0.0
H97 H 0.32484 0.05042 0.08404 0.0
H98 H 0.28847 0.89876 0.04424 0.0
H99 H 0.37763 0.92574 0.02385 0.0
H100 H 0.51786 0.97672 0.05262 0.0
H101 H 0.37151 0.11955 0.02838 0.0
H102 H 0.27515 0.14746 0.01389 0.0
H103 H 0.31379 0.04705 0.95875 0.0
H104 H 0.40751 0.01544 0.974 0.0
H105 H 0.59156 1.0021 0.96831 0.0
H106 H 0.67908 0.03216 0.94725 0.0
H107 H 0.74005 0.15044 0.9958 0.0
H108 H 0.65342 0.11924 0.01705 0.0
H109 H 0.50323 0.08092 0.98477 0.0
H110 H 0.6468 0.93993 1.0063 0.0
H111 H 0.7432 0.90579 0.01904 0.0
H112 H 0.71255 0.9954 0.07693 0.0
H113 H 0.61798 0.03211 0.06373 0.0
C114 C 0.40417 1.00107 0.04293 0.0
C115 C 0.38857 0.03556 0.06007 0.0
C116 C 0.33626 0.02184 0.07125 0.0
C117 C 0.29955 0.97176 0.06607 0.0
C118 C 0.31516 0.93784 0.04866 0.0
C119 C 0.36662 0.95264 0.03714 0.0
C120 C 0.45848 0.01699 0.0306 0.0
C121 C 0.51489 1.00018 0.03791 0.0
C122 C 0.45432 0.04607 0.01117 0.0
C123 C 0.39619 0.06427 1.00247 0.0
C124 C 0.35851 0.10234 0.0134 0.0
C125 C 0.30393 0.11926 1.00492 0.0
C126 C 0.28688 0.09969 0.98513 0.0
C127 C 0.32516 0.06222 0.97416 0.0
C128 C 0.37905 0.04453 0.98277 0.0
C129 C 0.61617 0.0583 0.99426 0.0
C130 C 0.62398 0.03423 0.97445 0.0
C131 C 0.67389 0.05116 0.9625 0.0
C132 C 0.71592 0.09353 0.96997 0.0
C133 C 0.70805 0.11772 0.98975 0.0
C134 C 0.65879 0.09991 1.00187 0.0
C135 C 0.56268 0.04117 1.00679 0.0
C136 C 0.5064 0.05765 0.99952 0.0
C137 C 0.56714 1.01124 0.0261 0.0
C138 C 0.62545 0.98967 0.0339 0.0
C139 C 0.66147 0.95346 0.02156 0.0
C140 C 0.71643 0.93357 0.02889 0.0
C141 C 0.73634 0.94905 0.0488 0.0
C142 C 0.69969 0.98444 0.06124 0.0
C143 C 0.64504 1.00469 0.05384 0.0
H144 H 0.25249 0.16342 0.31538 0.0
H145 H 0.28762 0.06858 0.32922 0.0
H146 H 0.3726 0.032 0.2708 0.0
H147 H 0.34075 0.12923 0.25747 0.0
H148 H 0.30582 0.26149 0.30311 0.0
H149 H 0.18187 0.11214 0.27173 0.0
H150 H 0.15724 0.02148 0.25236 0.0
H151 H 0.23063 0.10409 0.19698 0.0
H152 H 0.25955 0.19361 0.21689 0.0
H153 H 0.26127 0.37476 0.22544 0.0
H154 H 0.22887 0.47079 0.21149 0.0
H155 H 0.12446 0.49927 0.26653 0.0
H156 H 0.15615 0.40194 0.28036 0.0
H157 H 0.1976 0.27388 0.23636 0.0
H158 H 0.33584 0.4158 0.27088 0.0
H159 H 0.36508 0.50187 0.29223 0.0
H160 H 0.25019 0.43376 0.34124 0.0
H161 H 0.2234 0.3464 0.3201 0.0
C162 C 0.29366 0.15353 0.28535 0.0
C163 C 0.27926 0.1354 0.3056 0.0
C164 C 0.29867 0.08066 0.31339 0.0
C165 C 0.3327 0.04249 0.30108 0.0
C166 C 0.3471 0.0606 0.28077 0.0
C167 C 0.3284 0.11595 0.27307 0.0
C168 C 0.27123 0.21125 0.2771 0.0
C169 C 0.28157 0.26394 0.28862 0.0
C170 C 0.24007 0.2146 0.25803 0.0
C171 C 0.22327 0.15984 0.2459 0.0
C172 C 0.19361 0.11067 0.2555 0.0
C173 C 0.17871 0.05898 0.2443 0.0
C174 C 0.19094 0.05587 0.22299 0.0
C175 C 0.22071 0.10499 0.21336 0.0
C176 C 0.23664 0.15645 0.22469 0.0
C177 C 0.21173 0.38156 0.25402 0.0
C178 C 0.23137 0.40154 0.23451 0.0
C179 C 0.2133 0.45663 0.22667 0.0
C180 C 0.17523 0.49292 0.23817 0.0
C181 C 0.1543 0.47234 0.25749 0.0
C182 C 0.17258 0.41705 0.2654 0.0
C183 C 0.23262 0.32358 0.26234 0.0
C184 C 0.22193 0.27101 0.25082 0.0
C185 C 0.26286 0.3201 0.28147 0.0
C186 C 0.27755 0.37454 0.29391 0.0
C187 C 0.31649 0.4198 0.28615 0.0
C188 C 0.33258 0.46949 0.29831 0.0
C189 C 0.3094 0.47545 0.31843 0.0
C190 C 0.2691 0.43066 0.32588 0.0
C191 C 0.25375 0.38061 0.31383 0.0
H192 H 0.73105 0.34566 0.21616 0.0
H193 H 0.75839 0.43386 0.19475 0.0
H194 H 0.87643 0.49807 0.24293 0.0
H195 H 0.84875 0.41024 0.26435 0.0
H196 H 0.80395 0.25706 0.23191 0.0
H197 H 0.67754 0.40789 0.25647 0.0
H198 H 0.64719 0.50337 0.27088 0.0
H199 H 0.73874 0.46109 0.32779 0.0
H200 H 0.77327 0.3683 0.31268 0.0
H201 H 0.79425 0.18286 0.31696 0.0
H202 H 0.77065 0.09313 0.33793 0.0
H203 H 0.64646 0.03151 0.29108 0.0
H204 H 0.67183 0.12005 0.26997 0.0
H205 H 0.71621 0.27298 0.30202 0.0
H206 H 0.85165 0.12726 0.27479 0.0
H207 H 0.88432 0.0344 0.25839 0.0
H208 H 0.76544 0.06671 0.20721 0.0
H209 H 0.73278 0.159 0.22354 0.0
C210 C 0.78754 0.3715 0.24193 0.0
C211 C 0.76265 0.37885 0.22214 0.0
C212 C 0.77792 0.42937 0.20999 0.0
C213 C 0.81914 0.47294 0.21727 0.0
C214 C 0.84444 0.46521 0.23698 0.0
C215 C 0.82855 0.41518 0.24923 0.0
C216 C 0.77146 0.3177 0.25481 0.0
C217 C 0.78409 0.26069 0.24714 0.0
C218 C 0.7464 0.32233 0.27485 0.0
C219 C 0.72839 0.38097 0.28338 0.0
C220 C 0.69244 0.41984 0.27186 0.0
C221 C 0.67421 0.47407 0.28024 0.0
C222 C 0.68997 0.48966 0.30057 0.0
C223 C 0.72635 0.45088 0.31199 0.0
C224 C 0.74553 0.39734 0.30346 0.0
C225 C 0.73492 0.15821 0.29188 0.0
C226 C 0.7623 0.14973 0.31116 0.0
C227 C 0.74892 0.09826 0.32308 0.0
C228 C 0.70733 0.05437 0.31609 0.0
C229 C 0.68014 0.06308 0.29671 0.0
C230 C 0.694 0.11423 0.28471 0.0
C231 C 0.74935 0.21275 0.27913 0.0
C232 C 0.73627 0.26975 0.28682 0.0
C233 C 0.77364 0.20841 0.25907 0.0
C234 C 0.79001 0.15001 0.25028 0.0
C235 C 0.83186 0.11367 0.26023 0.0
C236 C 0.85034 0.06075 0.25095 0.0
C237 C 0.82749 0.0441 0.23159 0.0
C238 C 0.78387 0.07918 0.22211 0.0
C239 C 0.76544 0.13183 0.23135 0.0
H240 H 0.64489 0.86603 0.7457 0.0
H241 H 0.60398 0.95522 0.72916 0.0
H242 H 0.77906 0.04126 0.72978 0.0
H243 H 0.81999 0.9518 0.74634 0.0
H244 H 0.72835 0.79549 0.72943 0.0
H245 H 0.70832 0.91057 0.79345 0.0
H246 H 0.72457 1.00099 0.81458 0.0
H247 H 0.91471 0.98994 0.80495 0.0
H248 H 0.89846 0.89931 0.78416 0.0
H249 H 0.91401 0.69985 0.78317 0.0
H250 H 0.93919 0.60385 0.79948 0.0
H251 H 0.75563 0.54213 0.7935 0.0
H252 H 0.73022 0.63855 0.77797 0.0
H253 H 0.83792 0.78626 0.79598 0.0
H254 H 0.8553 0.66236 0.73434 0.0
H255 H 0.83476 0.57538 0.7119 0.0
H256 H 0.64561 0.60609 0.71693 0.0
H257 H 0.66625 0.69308 0.73863 0.0
C258 C 0.73545 0.90231 0.74731 0.0
C259 C 0.67443 0.90422 0.74239 0.0
C260 C 0.65118 0.95497 0.73285 0.0
C261 C 0.68861 1.00462 0.72793 0.0
C262 C 0.74931 1.00351 0.73344 0.0
C263 C 0.77264 0.95259 0.74296 0.0
C264 C 0.76046 0.846 0.7556 0.0
C265 C 0.75191 0.7934 0.74407 0.0
C266 C 0.79282 0.84381 0.77435 0.0
C267 C 0.80225 0.89817 0.78727 0.0
C268 C 0.75348 0.9277 0.7959 0.0
C269 C 0.76271 0.97926 0.80792 0.0
C270 C 0.82081 1.00256 0.81125 0.0
C271 C 0.86942 0.97323 0.80243 0.0
C272 C 0.86026 0.92124 0.79072 0.0
C273 C 0.82031 0.67644 0.77926 0.0
C274 C 0.87926 0.66561 0.78535 0.0
C275 C 0.89369 0.61055 0.79444 0.0
C276 C 0.84931 0.56558 0.79777 0.0
C277 C 0.79063 0.57609 0.79127 0.0
C278 C 0.7762 0.63108 0.78228 0.0
C279 C 0.80413 0.7352 0.77003 0.0
C280 C 0.8148 0.78841 0.78127 0.0
C281 C 0.77357 0.73824 0.75094 0.0
C282 C 0.76225 0.68451 0.73795 0.0
C283 C 0.80947 0.65027 0.73049 0.0
C284 C 0.79779 0.60076 0.7177 0.0
C285 C 0.73875 0.58508 0.71216 0.0
C286 C 0.69172 0.61846 0.72023 0.0
C287 C 0.70337 0.66794 0.73278 0.0
H288 H 0.41917 0.37242 0.99869 0.0
H289 H 0.33384 0.34858 0.97639 0.0
H290 H 0.30991 0.53798 0.96514 0.0
H291 H 0.39421 0.56152 0.98813 0.0
H292 H 0.52593 0.4361 0.99002 0.0
H293 H 0.35351 0.45304 0.03308 0.0
H294 H 0.25837 0.48863 0.04608 0.0
H295 H 0.3352 0.66788 0.05109 0.0
H296 H 0.42914 0.63294 0.03682 0.0
H297 H 0.60728 0.62364 0.04349 0.0
H298 H 0.69913 0.6516 0.06207 0.0
H299 H 0.7339 0.46434 0.07295 0.0
H300 H 0.64203 0.43626 0.05407 0.0
H301 H 0.50366 0.55859 0.05316 0.0
H302 H 0.66948 0.54993 0.00948 0.0
H303 H 0.76664 0.52345 0.99623 0.0
H304 H 0.70309 0.3401 0.98827 0.0
H305 H 0.60747 0.3656 1.00382 0.0
C306 C 0.41305 0.46873 0.99515 0.0
C307 C 0.39576 0.4088 0.99133 0.0
C308 C 0.34716 0.39525 0.97841 0.0
C309 C 0.31546 0.44135 0.96864 0.0
C310 C 0.33315 0.5014 0.97243 0.0
C311 C 0.38141 0.51493 0.98554 0.0
C312 C 0.46413 0.48275 0.00922 0.0
C313 C 0.52085 0.46181 1.00406 0.0
C314 C 0.45778 0.51835 0.02712 0.0
C315 C 0.3987 0.5403 0.03389 0.0
C316 C 0.34953 0.50033 0.03644 0.0
C317 C 0.29527 0.52059 0.04411 0.0
C318 C 0.28949 0.58091 0.04988 0.0
C319 C 0.33807 0.62122 0.04666 0.0
C320 C 0.39206 0.60113 0.03875 0.0
C321 C 0.61762 0.52785 0.04735 0.0
C322 C 0.63416 0.58854 0.05008 0.0
C323 C 0.68698 0.60444 0.06049 0.0
C324 C 0.72385 0.56008 0.06876 0.0
C325 C 0.70634 0.49936 0.06668 0.0
C326 C 0.65385 0.48338 0.05596 0.0
C327 C 0.56529 0.5114 0.03406 0.0
C328 C 0.50851 0.53213 0.03928 0.0
C329 C 0.57166 0.47653 0.01599 0.0
C330 C 0.63136 0.4595 1.00822 0.0
C331 C 0.67702 0.50343 1.00576 0.0
C332 C 0.7325 0.48836 0.99788 0.0
C333 C 0.74299 0.42952 0.99134 0.0
C334 C 0.69729 0.3854 0.99375 0.0
C335 C 0.64215 0.40019 1.00228 0.0
H336 H 0.93533 0.54807 0.47822 0.0
H337 H 0.84657 0.58411 0.46063 0.0
H338 H 0.79077 0.67068 0.51663 0.0
H339 H 0.8806 0.6351 0.5343 0.0
H340 H 0.02654 0.60338 0.4937 0.0
H341 H 0.87568 0.47187 0.51899 0.0
H342 H 0.7836 0.4336 0.53508 0.0
H343 H 0.84007 0.5085 0.59349 0.0
H344 H 0.93118 0.54945 0.57704 0.0
H345 H 0.12084 0.55706 0.57433 0.0
H346 H 0.20907 0.51675 0.59151 0.0
H347 H 0.24278 0.40774 0.53803 0.0
H348 H 0.15387 0.44693 0.52116 0.0
H349 H 0.02026 0.49331 0.56059 0.0
H350 H 0.189 0.60162 0.53077 0.0
H351 H 0.28159 0.61271 0.51156 0.0
H352 H 0.18884 0.56229 0.45545 0.0
H353 H 0.09835 0.54153 0.47546 0.0
C354 C 0.9149 0.58893 0.50758 0.0
C355 C 0.9044 0.5752 0.48673 0.0
C356 C 0.8537 0.59583 0.47669 0.0
C357 C 0.81238 0.63084 0.48723 0.0
C358 C 0.82209 0.64385 0.50819 0.0
C359 C 0.87326 0.62345 0.51825 0.0
C360 C 0.96978 0.56733 0.51791 0.0
C361 C 0.0253 0.57853 0.50819 0.0
C362 C 0.96771 0.53542 0.53694 0.0
C363 C 0.91021 0.51461 0.54666 0.0
C364 C 0.86773 0.48154 0.53513 0.0
C365 C 0.81524 0.4591 0.54441 0.0
C366 C 0.80415 0.46838 0.56555 0.0
C367 C 0.84651 0.5017 0.57709 0.0
C368 C 0.89897 0.52457 0.56774 0.0
C369 C 0.13108 0.50527 0.54642 0.0
C370 C 0.14741 0.52458 0.56631 0.0
C371 C 0.19813 0.50215 0.576 0.0
C372 C 0.23312 0.45972 0.566 0.0
C373 C 0.21664 0.44052 0.54608 0.0
C374 C 0.16599 0.4629 0.53641 0.0
C375 C 0.07704 0.52895 0.53629 0.0
C376 C 0.02162 0.51828 0.54611 0.0
C377 C 0.07916 0.55872 0.51678 0.0
C378 C 0.13607 0.5694 0.50485 0.0
C379 C 0.18862 0.59095 0.51448 0.0
C380 C 0.24167 0.59919 0.50322 0.0
C381 C 0.24296 0.59028 0.48166 0.0
C382 C 0.19015 0.56937 0.47199 0.0
C383 C 0.13779 0.55842 0.48344 0.0
Fe384 Fe 1.00568 0.7667 0.16681 0.0
O385 O 0.05881 0.73429 0.14504 0.0
Fe386 Fe 0.87365 0.79058 0.14078 0.0
Fe387 Fe 0.14604 0.74199 0.14634 0.0
O388 O 0.96111 0.79936 0.14263 0.0
O389 O 0.96161 0.79962 0.14032 0.0
O390 O 0.05886 0.73369 0.14283 0.0
Fe391 Fe 0.0134 0.76472 0.11835 0.0
C392 C 0.11047 0.84941 0.17366 0.0
O393 O 0.05889 0.7252 0.18947 0.0
O394 O 0.13431 0.68295 0.17056 0.0
O395 O 0.96102 0.68587 0.11724 0.0
O396 O 0.87018 0.7246 0.11918 0.0
O397 O 0.86553 0.72494 0.16395 0.0
O398 O 0.95628 0.68822 0.16613 0.0
O399 O 0.14316 0.68133 0.12235 0.0
O400 O 0.07561 0.72174 0.0992 0.0
C401 C 0.9004 0.68293 0.16907 0.0
O402 O 0.95631 0.8042 0.09613 0.0
O403 O 0.88362 0.84872 0.11605 0.0
O404 O 0.05561 0.845 0.16872 0.0
O405 O 0.14757 0.80949 0.16861 0.0
C406 C 0.10336 0.68907 0.18732 0.0
C407 C 0.11892 0.68594 0.10413 0.0
C408 C 0.12369 0.84625 0.11604 0.0
O409 O 0.15615 0.80603 0.12382 0.0
O410 O 0.06655 0.84312 0.1166 0.0
C411 C 0.90461 0.68279 0.11426 0.0
O412 O 0.87851 0.85204 0.16383 0.0
O413 O 0.94412 0.80827 0.18656 0.0
C414 C 0.91219 0.84086 0.09882 0.0
C415 C 0.90466 0.84798 0.18159 0.0
Fe416 Fe 0.51425 0.76824 0.41906 0.0
O417 O 0.54783 0.71898 0.39656 0.0
Fe418 Fe 0.47319 0.89873 0.39508 0.0
Fe419 Fe 0.54869 0.63133 0.3982 0.0
O420 O 0.47315 0.81056 0.39608 0.0
O421 O 0.47285 0.81032 0.39392 0.0
O422 O 0.54812 0.71908 0.39455 0.0
Fe423 Fe 0.50975 0.76328 0.37113 0.0
C424 C 0.60758 0.68186 0.43685 0.0
O425 O 0.44212 0.71153 0.42226 0.0
O426 O 0.48695 0.62369 0.42261 0.0
O427 O 0.46427 0.81826 0.34998 0.0
O428 O 0.41472 0.88549 0.37069 0.0
O429 O 0.41463 0.88513 0.419 0.0
O430 O 0.47059 0.82423 0.44004 0.0
O431 O 0.48053 0.61603 0.37775 0.0
O432 O 0.43681 0.70323 0.37054 0.0
C433 C 0.42542 0.85848 0.43642 0.0
O434 O 0.58302 0.8229 0.36897 0.0
O435 O 0.53735 0.91028 0.37292 0.0
O436 O 0.56489 0.71902 0.4405 0.0
O437 O 0.61241 0.64982 0.4203 0.0
C438 C 0.44405 0.65706 0.42789 0.0
C439 C 0.43794 0.64577 0.37011 0.0
C440 C 0.59214 0.66408 0.35439 0.0
O441 O 0.60307 0.63956 0.3723 0.0
O442 O 0.55381 0.70611 0.35082 0.0
C443 C 0.42538 0.86004 0.35307 0.0
O444 O 0.53938 0.91087 0.41766 0.0
O445 O 0.58657 0.82494 0.41639 0.0
C446 C 0.58128 0.88002 0.36687 0.0
C447 C 0.586 0.88021 0.42065 0.0
Fe448 Fe 0.51898 0.31839 0.69161 0.0
O449 O 0.51911 0.31902 0.66101 0.0
Fe450 Fe 0.44627 0.27715 0.64566 0.0
Fe451 Fe 0.58506 0.28229 0.64494 0.0
O452 O 0.51291 0.31825 0.66116 0.0
O453 O 0.51242 0.23967 0.63012 0.0
O454 O 0.51832 0.23981 0.63012 0.0
Fe455 Fe 0.51391 0.23366 0.60002 0.0
C456 C 0.63354 0.37798 0.67602 0.0
O457 O 0.5882 0.25972 0.69476 0.0
O458 O 0.58712 0.21084 0.66516 0.0
O459 O 0.44411 0.17357 0.60558 0.0
O460 O 0.38512 0.22754 0.6275 0.0
O461 O 0.44491 0.20517 0.66543 0.0
O462 O 0.45922 0.24708 0.6963 0.0
O463 O 0.64495 0.23523 0.62634 0.0
O464 O 0.58359 0.17757 0.60517 0.0
C465 C 0.44188 0.20352 0.68499 0.0
O466 O 0.44855 0.29556 0.59574 0.0
O467 O 0.44288 0.34793 0.62489 0.0
O468 O 0.58408 0.3825 0.6863 0.0
O469 O 0.64564 0.33541 0.66291 0.0
C470 C 0.59691 0.21256 0.68444 0.0
C471 C 0.63508 0.19148 0.61333 0.0
C472 C 0.59975 0.34425 0.60466 0.0
O473 O 0.58733 0.35238 0.62367 0.0
O474 O 0.57957 0.29858 0.59492 0.0
C475 C 0.39326 0.18471 0.61423 0.0
O476 O 0.38562 0.32305 0.66438 0.0
O477 O 0.44586 0.37135 0.68854 0.0
C478 C 0.4304 0.3404 0.60584 0.0
C479 C 0.39564 0.36218 0.67895 0.0
Fe480 Fe 0.01308 0.27499 0.91756 0.0
O481 O 0.0414 0.22496 0.8943 0.0
Fe482 Fe 0.99409 0.41415 0.89521 0.0
Fe483 Fe 0.02887 0.13752 0.89413 0.0
O484 O 0.98145 0.32684 0.89508 0.0
O485 O 0.98039 0.32657 0.89295 0.0
O486 O 0.04155 0.22524 0.89214 0.0
Fe487 Fe 1.00921 0.27689 0.86936 0.0
C488 C 0.08772 0.17078 0.93486 0.0
O489 O 0.93275 0.2293 0.91851 0.0
O490 O 0.96357 0.13558 0.91715 0.0
O491 O 0.96938 0.3402 0.84916 0.0
O492 O 0.93317 0.4122 0.87133 0.0
O493 O 0.93529 0.40747 0.91942 0.0
O494 O 0.97645 0.33331 0.93937 0.0
O495 O 0.96294 0.13506 0.87241 0.0
O496 O 0.92901 0.22798 0.86847 0.0
C497 C 0.93952 0.37684 0.93646 0.0
O498 O 0.08946 0.32544 0.86757 0.0
O499 O 0.05715 0.41825 0.87238 0.0
O500 O 0.05222 0.21491 0.93842 0.0
O501 O 0.09044 0.14172 0.91761 0.0
C502 C 0.92421 0.17359 0.92189 0.0
C503 C 0.92373 0.17117 0.86621 0.0
C504 C 0.07991 0.16966 0.85159 0.0
O505 O 0.08663 0.14207 0.86924 0.0
O506 O 0.04574 0.21559 0.84822 0.0
C507 C 0.9361 0.38613 0.85343 0.0
O508 O 0.06175 0.41412 0.91737 0.0
O509 O 0.09369 0.32065 0.91735 0.0
C510 C 0.09494 0.38224 0.86527 0.0
C511 C 0.10211 0.37609 0.92098 0.0
C512 C 0.33522 0.91715 0.48067 0.0
C513 C 0.27872 0.8896 0.47712 0.0
C514 C 0.38465 0.90389 0.46832 0.0
C515 C 0.37882 0.86272 0.45213 0.0
H516 H 0.34062 0.95094 0.49253 0.0
H517 H 0.42663 0.92813 0.47074 0.0
S518 S 0.24317 0.77454 0.43743 0.0
N519 N 0.2216 0.81624 0.45693 0.0
N520 N 0.31469 0.79153 0.43389 0.0
C521 C 0.32381 0.83265 0.44907 0.0
C522 C 0.27368 0.84579 0.46162 0.0
C523 C 0.41861 0.06742 0.71991 0.0
C524 C 0.36265 0.04366 0.71342 0.0
C525 C 0.44374 0.11981 0.71091 0.0
C526 C 0.41447 0.14958 0.69478 0.0
H527 H 0.4437 0.04501 0.73188 0.0
H528 H 0.48693 0.13636 0.71627 0.0
S529 S 0.26632 0.10916 0.67266 0.0
N530 N 0.27735 0.05737 0.69058 0.0
N531 N 0.32659 0.15346 0.67293 0.0
C532 C 0.35889 0.12669 0.68806 0.0
C533 C 0.3325 0.07432 0.69754 0.0
C534 C 0.19506 0.07553 0.96464 0.0
C535 C 0.23 0.11828 0.97545 0.0
C536 C 0.14663 0.09268 0.95254 0.0
C537 C 0.13053 0.15314 0.95101 0.0
H538 H 0.20656 0.02856 0.96492 0.0
H539 H 0.12284 0.05849 0.94371 0.0
S540 S 0.20303 0.28191 0.97799 0.0
N541 N 0.24248 0.22348 0.98496 0.0
N542 N 0.14979 0.25532 0.96266 0.0
C543 C 0.16213 0.19588 0.9629 0.0
C544 C 0.21227 0.17854 0.97503 0.0
C545 C 0.20917 0.97458 0.19682 0.0
C546 C 0.17041 1.00261 0.21071 0.0
C547 C 0.19009 0.92426 0.18526 0.0
C548 C 0.13096 0.9013 0.18656 0.0
H549 H 0.25488 0.99105 0.19512 0.0
H550 H 0.22187 0.90342 0.17517 0.0
S551 S 0.0142 0.95457 0.22232 0.0
N552 N 0.07143 1.00117 0.22605 0.0
N553 N 0.03578 0.90723 0.20445 0.0
C554 C 0.09235 0.92814 0.20077 0.0
C555 C 0.11197 0.97863 0.21274 0.0
C556 C 0.3024 0.0747 0.58198 0.0
C557 C 0.24541 0.09945 0.58209 0.0
C558 C 0.34898 0.10007 0.59369 0.0
C559 C 0.34038 0.15122 0.60597 0.0
H560 H 0.31197 0.03748 0.57192 0.0
H561 H 0.3928 0.08097 0.59229 0.0
S562 S 0.19618 0.22641 0.61417 0.0
N563 N 0.18039 0.1726 0.59747 0.0
N564 N 0.268 0.22093 0.6194 0.0
C565 C 0.28219 0.17333 0.60749 0.0
C566 C 0.23477 0.14746 0.5955 0.0
C567 C 0.09504 0.06497 0.80691 0.0
C568 C 0.15522 0.04846 0.80865 0.0
C569 C 0.07183 0.11017 0.8194 0.0
C570 C 0.10808 0.14009 0.83398 0.0
H571 H 0.06466 0.03994 0.79696 0.0
H572 H 0.02427 0.11799 0.81889 0.0
S573 S 0.27041 0.12172 0.84186 0.0
N574 N 0.25229 0.0724 0.82383 0.0
N575 N 0.20798 0.1557 0.84772 0.0
C576 C 0.16912 0.12761 0.83462 0.0
C577 C 0.19289 0.08219 0.82183 0.0
C578 C 0.19421 0.92893 0.07075 0.0
C579 C 0.24791 0.95189 0.0795 0.0
C580 C 0.14943 0.90065 0.08304 0.0
C581 C 0.15669 0.89447 0.10453 0.0
H582 H 0.18792 0.93029 0.05415 0.0
H583 H 0.11136 0.8793 0.07548 0.0
S584 S 0.28526 0.95112 0.13548 0.0
N585 N 0.30298 0.96935 0.11144 0.0
N586 N 0.21859 0.91797 0.13423 0.0
C587 C 0.20776 0.92116 0.11359 0.0
C588 C 0.2534 0.94941 0.10119 0.0
C589 C 0.31639 0.9497 0.32271 0.0
C590 C 0.35468 0.98546 0.31011 0.0
C591 C 0.33863 0.90365 0.33516 0.0
C592 C 0.39965 0.89069 0.33506 0.0
H593 H 0.26945 0.95982 0.32393 0.0
H594 H 0.30866 0.88079 0.34597 0.0
S595 S 0.51784 0.96626 0.30344 0.0
N596 N 0.45623 1.00152 0.29732 0.0
N597 N 0.49726 0.91325 0.32016 0.0
C598 C 0.43747 0.9221 0.32117 0.0
C599 C 0.41516 0.96993 0.30878 0.0
C600 C 0.7177 0.08029 0.58151 0.0
C601 C 0.77203 0.11091 0.57738 0.0
C602 C 0.6757 0.10439 0.59482 0.0
C603 C 0.68619 0.16029 0.60437 0.0
H604 H 0.70611 0.03887 0.57361 0.0
H605 H 0.63323 0.08049 0.59671 0.0
S606 S 0.82577 0.25348 0.60124 0.0
N607 N 0.83792 0.19572 0.58609 0.0
N608 N 0.75779 0.24226 0.61065 0.0
C609 C 0.74226 0.18914 0.60166 0.0
C610 C 0.78533 0.16432 0.58816 0.0
C611 C 0.67359 0.01547 0.35074 0.0
C612 C 0.68729 1.00358 0.32995 0.0
C613 C 0.64477 0.97219 0.36331 0.0
C614 C 0.62852 0.91498 0.35573 0.0
H615 H 0.68139 0.05994 0.35702 0.0
H616 H 0.6314 0.98504 0.37873 0.0
S617 S 0.66228 0.85746 0.30356 0.0
N618 N 0.68919 0.9273 0.30319 0.0
N619 N 0.6338 0.8463 0.32689 0.0
C620 C 0.64627 0.9005 0.3356 0.0
C621 C 0.67567 0.94479 0.32267 0.0
C622 C 0.80383 0.86274 0.05578 0.0
C623 C 0.79265 0.92458 0.05735 0.0
C624 C 0.84935 0.83625 0.0674 0.0
C625 C 0.88508 0.87075 0.08092 0.0
H626 H 0.77429 0.83373 0.04683 0.0
H627 H 0.85264 0.78778 0.06731 0.0
S628 S 0.88187 0.03562 0.08766 0.0
N629 N 0.8278 0.02076 0.07095 0.0
N630 N 0.91167 0.97039 0.09328 0.0
C631 C 0.87807 0.93316 0.08115 0.0
C632 C 0.83224 0.96024 0.06924 0.0
C633 C 0.8664 0.10493 0.81733 0.0
C634 C 0.83207 0.0554 0.82474 0.0
C635 C 0.88886 0.14911 0.83086 0.0
C636 C 0.87849 0.14469 0.85227 0.0
H637 H 0.87912 0.10746 0.80118 0.0
H638 H 0.91963 0.18332 0.82481 0.0
S639 S 0.78679 0.02736 0.87918 0.0
N640 N 0.78406 1.00791 0.85458 0.0
N641 N 0.82786 0.09002 0.88001 0.0
C642 C 0.84049 0.09809 0.8596 0.0
C643 C 0.81689 0.05359 0.84583 0.0
C644 C 0.74515 0.89681 0.43979 0.0
C645 C 0.74111 0.93848 0.45592 0.0
C646 C 0.69522 0.8808 0.42784 0.0
C647 C 0.63907 0.90579 0.43146 0.0
H648 H 0.78721 0.87585 0.43651 0.0
H649 H 0.70043 0.84756 0.41587 0.0
S650 S 0.60455 0.01756 0.47164 0.0
N651 N 0.67645 1.00518 0.47473 0.0
N652 N 0.58254 0.97529 0.45205 0.0
C653 C 0.63467 0.94906 0.44705 0.0
C654 C 0.68566 0.96528 0.45934 0.0
C655 C 0.85018 0.93475 0.22781 0.0
C656 C 0.85306 0.99405 0.22005 0.0
C657 C 0.86973 0.88666 0.21577 0.0
C658 C 0.89257 0.89718 0.19579 0.0
H659 H 0.83084 0.9254 0.24289 0.0
H660 H 0.86478 0.84119 0.22172 0.0
S661 S 0.91786 0.04496 0.16998 0.0
N662 N 0.88657 0.06098 0.19232 0.0
N663 N 0.92272 0.97113 0.16972 0.0
C664 C 0.89833 0.95654 0.18842 0.0
C665 C 0.87879 1.00496 0.20058 0.0
C666 C 0.81128 0.07349 0.95119 0.0
C667 C 0.76717 0.11387 0.95695 0.0
C668 C 0.86132 0.09284 0.93954 0.0
C669 C 0.86879 0.15323 0.93305 0.0
H670 H 0.80766 0.0269 0.95609 0.0
H671 H 0.89476 0.06028 0.93589 0.0
S672 S 0.76077 0.27461 0.94221 0.0
N673 N 0.73121 0.21533 0.95425 0.0
N674 N 0.82382 0.25196 0.93197 0.0
C675 C 0.82324 0.19341 0.93811 0.0
C676 C 0.77288 0.17369 0.95017 0.0
C677 C 0.67442 0.11532 0.72422 0.0
C678 C 0.66472 0.05694 0.71661 0.0
C679 C 0.65211 0.16537 0.71377 0.0
C680 C 0.62014 0.15894 0.69513 0.0
H681 H 0.69888 0.1223 0.73849 0.0
H682 H 0.66052 0.20949 0.72026 0.0
S683 S 0.58304 0.01536 0.6687 0.0
N684 N 0.62132 0.99531 0.68933 0.0
N685 N 0.57937 0.08924 0.66966 0.0
C686 C 0.61031 0.10069 0.68734 0.0
C687 C 0.63254 0.04974 0.69809 0.0
C688 C 0.81791 0.45814 0.96434 0.0
C689 C 0.79836 0.41689 0.97961 0.0
C690 C 0.86593 0.44601 0.95145 0.0
C691 C 0.89643 0.39166 0.95299 0.0
H692 H 0.79435 0.49935 0.96163 0.0
H693 H 0.87766 0.47898 0.93962 0.0
S694 S 0.86651 0.27051 0.99172 0.0
N695 N 0.81631 0.32144 0.99681 0.0
N696 N 0.90619 0.29765 0.97206 0.0
C697 C 0.87946 0.35103 0.96888 0.0
C698 C 0.83032 0.36368 0.98219 0.0
C699 C 0.89848 0.53621 0.19983 0.0
C700 C 0.83765 0.52539 0.20415 0.0
C701 C 0.91766 0.58601 0.18796 0.0
C702 C 0.87707 0.62825 0.1803 0.0
H703 H 0.93162 0.50568 0.20561 0.0
H704 H 0.96506 0.59161 0.18497 0.0
S705 S 0.71215 0.61881 0.18681 0.0
N706 N 0.73636 0.5592 0.1993 0.0
N707 N 0.77228 0.65391 0.17741 0.0
C708 C 0.81578 0.61728 0.18426 0.0
C709 C 0.79616 0.5657 0.19608 0.0
C710 C 0.70119 0.63952 0.48324 0.0
C711 C 0.75946 0.65324 0.47606 0.0
C712 C 0.65091 0.65229 0.47106 0.0
C713 C 0.65781 0.67905 0.45143 0.0
H714 H 0.69464 0.61601 0.49783 0.0
H715 H 0.6069 0.6383 0.4765 0.0
S716 S 0.79963 0.73194 0.42707 0.0
N717 N 0.8202 0.70164 0.44926 0.0
N718 N 0.72609 0.72429 0.42629 0.0
C719 C 0.71536 0.69627 0.44473 0.0
C720 C 0.76617 0.68375 0.45708 0.0
C721 C 0.7464 0.47581 0.70319 0.0
C722 C 0.72481 0.53323 0.69848 0.0
C723 C 0.72193 0.42412 0.69367 0.0
C724 C 0.67578 0.42867 0.67906 0.0
H725 H 0.77858 0.47029 0.71552 0.0
H726 H 0.7352 0.38033 0.69915 0.0
S727 S 0.609 0.56871 0.65964 0.0
N728 N 0.66002 0.59172 0.67642 0.0
N729 N 0.61295 0.49479 0.65919 0.0
C730 C 0.6578 0.48604 0.67297 0.0
C731 C 0.68265 0.53834 0.68251 0.0
C732 C 0.82224 0.61647 0.0697 0.0
C733 C 0.77999 0.57824 0.07966 0.0
C734 C 0.8696 0.64379 0.08071 0.0
C735 C 0.87614 0.63425 0.1021 0.0
H736 H 0.81659 0.62809 0.05353 0.0
H737 H 0.89778 0.67705 0.07284 0.0
S738 S 0.78065 0.53453 0.13509 0.0
N739 N 0.75082 0.52842 0.11181 0.0
N740 N 0.83902 0.58096 0.13252 0.0
C741 C 0.83679 0.5929 0.1119 0.0
C742 C 0.7889 0.56455 0.10068 0.0
C743 C 0.70342 0.57898 0.32358 0.0
C744 C 0.6661 0.54398 0.31061 0.0
C745 C 0.67987 0.62245 0.33659 0.0
C746 C 0.61848 0.63364 0.33665 0.0
H747 H 0.75077 0.57044 0.32453 0.0
H748 H 0.70932 0.6451 0.34749 0.0
S749 S 0.50191 0.5583 0.30473 0.0
N750 N 0.56457 0.52597 0.29808 0.0
N751 N 0.52121 0.60974 0.32189 0.0
C752 C 0.58132 0.60269 0.32264 0.0
C753 C 0.60494 0.55737 0.30972 0.0
C754 C 0.73644 0.37875 0.57152 0.0
C755 C 0.75068 0.43933 0.57564 0.0
C756 C 0.68704 0.34953 0.58073 0.0
C757 C 0.64965 0.37922 0.59469 0.0
H758 H 0.76434 0.35317 0.56132 0.0
H759 H 0.67907 0.30251 0.5772 0.0
S760 S 0.66484 0.5392 0.60959 0.0
N761 N 0.72154 0.52918 0.59376 0.0
N762 N 0.62902 0.47352 0.61151 0.0
C763 C 0.66301 0.4399 0.59891 0.0
C764 C 0.71336 0.47005 0.58931 0.0
C765 C 0.91353 0.47647 0.80456 0.0
C766 C 0.86348 0.51039 0.8097 0.0
C767 C 0.93312 0.43026 0.81766 0.0
C768 C 0.90431 0.41768 0.8366 0.0
H769 H 0.93909 0.48733 0.79074 0.0
H770 H 0.97338 0.40746 0.81359 0.0
S771 S 0.76621 0.48742 0.8557 0.0
N772 N 0.78157 0.52328 0.83383 0.0
N773 N 0.81858 0.43712 0.85839 0.0
C774 C 0.85129 0.44778 0.84096 0.0
C775 C 0.83099 0.49416 0.82758 0.0
C776 C 0.20982 0.65629 0.05633 0.0
C777 C 0.23584 0.60098 0.06127 0.0
C778 C 0.16677 0.68134 0.06929 0.0
C779 C 0.1488 0.6521 0.08769 0.0
H780 H 0.22495 0.68172 0.04288 0.0
H781 H 0.15103 0.72583 0.06569 0.0
S782 S 0.19799 0.50367 0.10655 0.0
N783 N 0.23643 0.51576 0.08506 0.0
N784 N 0.1553 0.56248 0.10912 0.0
C785 C 0.17107 0.59489 0.09197 0.0
C786 C 0.21465 0.56939 0.07884 0.0
C787 C 0.13077 0.46283 0.81629 0.0
C788 C 0.1821 0.4979 0.82136 0.0
C789 C 0.10814 0.41812 0.82967 0.0
C790 C 0.13412 0.40774 0.84902 0.0
H791 H 0.10482 0.47236 0.80261 0.0
H792 H 0.06672 0.39508 0.82569 0.0
S793 S 0.27531 0.47613 0.86841 0.0
N794 N 0.26519 0.50888 0.8457 0.0
N795 N 0.21765 0.42923 0.87174 0.0
C796 C 0.18768 0.43832 0.85378 0.0
C797 C 0.21269 0.48238 0.83976 0.0
C798 C 0.28739 0.36883 0.57708 0.0
C799 C 0.28402 0.43173 0.57677 0.0
C800 C 0.33497 0.34042 0.58666 0.0
C801 C 0.38092 0.3736 0.59652 0.0
H802 H 0.25279 0.34117 0.56991 0.0
H803 H 0.33556 0.29177 0.58641 0.0
S804 S 0.39501 0.5393 0.59928 0.0
N805 N 0.33192 0.52669 0.58657 0.0
N806 N 0.4212 0.4725 0.60509 0.0
C807 C 0.37812 0.43642 0.5966 0.0
C808 C 0.32968 0.46568 0.58659 0.0
C809 C 0.34868 0.50938 0.35282 0.0
C810 C 0.33212 0.52418 0.33244 0.0
C811 C 0.37809 0.55123 0.36555 0.0
C812 C 0.39228 0.60994 0.35858 0.0
H813 H 0.34211 0.46396 0.35865 0.0
H814 H 0.39287 0.53636 0.38067 0.0
S815 S 0.35238 0.67431 0.30754 0.0
N816 N 0.32653 0.60417 0.30667 0.0
N817 N 0.38306 0.68252 0.33061 0.0
C818 C 0.37246 0.62689 0.33881 0.0
C819 C 0.34241 0.58405 0.32572 0.0
C820 C 0.20975 0.4588 0.95711 0.0
C821 C 0.263 0.42691 0.95508 0.0
C822 C 0.15857 0.44359 0.9455 0.0
C823 C 0.15832 0.39546 0.93152 0.0
H824 H 0.20694 0.49471 0.96824 0.0
H825 H 0.11826 0.46838 0.94806 0.0
S826 S 0.28772 0.30179 0.91867 0.0
N827 N 0.31359 0.34847 0.93644 0.0
N828 N 0.21708 0.3188 0.91517 0.0
C829 C 0.21175 0.36453 0.9288 0.0
C830 C 0.26406 0.38047 0.94042 0.0
C831 C 0.30309 0.44519 0.71615 0.0
C832 C 0.29795 0.50098 0.70604 0.0
C833 C 0.32795 0.39632 0.7061 0.0
C834 C 0.34788 0.40144 0.68555 0.0
H835 H 0.29143 0.44043 0.73236 0.0
H836 H 0.33639 0.35595 0.71499 0.0
S837 S 0.33807 0.53488 0.65145 0.0
N838 N 0.30978 0.55655 0.67367 0.0
N839 N 0.35591 0.46394 0.65479 0.0
C840 C 0.33795 0.45488 0.67467 0.0
C841 C 0.31302 0.50494 0.68492 0.0
C842 C 0.31361 0.56858 0.45211 0.0
C843 C 0.29806 0.6047 0.4691 0.0
C844 C 0.36268 0.58375 0.43924 0.0
C845 C 0.39805 0.63556 0.4429 0.0
H846 H 0.28729 0.52851 0.44854 0.0
H847 H 0.37166 0.55598 0.42597 0.0
S848 S 0.3819 0.74178 0.48631 0.0
N849 N 0.32522 0.6936 0.48911 0.0
N850 N 0.41848 0.71958 0.4657 0.0
C851 C 0.38501 0.67037 0.46028 0.0
C852 C 0.33491 0.65558 0.47319 0.0
C853 C 0.09591 0.56401 0.22703 0.0
C854 C 0.15685 0.55132 0.22944 0.0
C855 C 0.07808 0.61314 0.21492 0.0
C856 C 0.12074 0.65022 0.20475 0.0
H857 H 0.06187 0.53366 0.23337 0.0
H858 H 0.03091 0.61941 0.21232 0.0
S859 S 0.28536 0.64394 0.21012 0.0
N860 N 0.25941 0.58604 0.22382 0.0
N861 N 0.226 0.67713 0.20071 0.0
C862 C 0.18155 0.64133 0.20877 0.0
C863 C 0.1996 0.59205 0.22119 0.0
loop_
_geom_bond_atom_site_label_1
_geom_bond_atom_site_label_2
_geom_bond_distance
_geom_bond_site_symmetry_2
_ccdc_geom_bond_type
H0 C19 0.949 . S
H1 C20 0.950 . S
H2 C22 0.950 1_545 S
H3 C23 0.950 . S
H4 C25 0.950 . S
H5 C28 0.950 1_565 S
H6 C29 0.950 . S
H7 C31 0.951 . S
H8 C32 0.949 . S
H9 C34 0.949 . S
H10 C35 0.950 . S
H11 C37 0.950 . S
H12 C38 0.950 1_565 S
H13 C40 0.950 . S
H14 C43 0.950 . S
H15 C44 0.950 1_545 S
H16 C46 0.951 . S
H17 C47 0.949 . S
C18 C19 1.376 . S
C18 C23 1.386 1_565 S
C18 C24 1.483 . S
C19 H0 0.949 . S
C19 C18 1.376 . S
C19 C20 1.397 . S
C20 H1 0.950 . S
C20 C19 1.397 . S
C20 C21 1.391 . S
C21 C20 1.391 . S
C21 C22 1.405 . S
C22 H2 0.950 1_565 S
C22 C21 1.405 . S
C22 C23 1.367 1_565 S
C23 H3 0.950 . S
C23 C18 1.386 1_545 S
C23 C22 1.367 1_545 S
C24 C18 1.483 . S
C24 C25 1.382 . S
C24 C26 1.403 1_565 S
C25 H4 0.950 . S
C25 C24 1.382 . S
C25 C41 1.411 1_655 S
C26 C24 1.403 1_545 S
C26 C27 1.489 . S
C26 C40 1.411 1_655 S
C27 C26 1.489 . S
C27 C28 1.383 . S
C27 C32 1.382 . S
C28 H5 0.950 1_545 S
C28 C27 1.383 . S
C28 C29 1.395 . S
C29 H6 0.950 . S
C29 C28 1.395 . S
C29 C30 1.288 . S
C30 C29 1.288 . S
C30 C31 1.392 . S
C31 H7 0.951 . S
C31 C30 1.392 . S
C31 C32 1.392 . S
C32 H8 0.949 . S
C32 C27 1.382 . S
C32 C31 1.392 . S
C33 C34 1.376 . S
C33 C38 1.386 . S
C33 C39 1.483 . S
C34 H9 0.949 . S
C34 C33 1.376 . S
C34 C35 1.397 . S
C35 H10 0.950 . S
C35 C34 1.397 . S
C35 C36 1.391 . S
C36 C35 1.391 . S
C36 C37 1.405 . S
C37 H11 0.950 . S
C37 C36 1.405 . S
C37 C38 1.367 . S
C38 H12 0.950 1_545 S
C38 C33 1.386 . S
C38 C37 1.367 . S
C39 C33 1.483 . S
C39 C40 1.382 . S
C39 C41 1.403 1_545 S
C40 H13 0.950 . S
C40 C26 1.411 1_455 S
C40 C39 1.382 . S
C41 C25 1.411 1_455 S
C41 C39 1.403 1_565 S
C41 C42 1.489 . S
C42 C41 1.489 . S
C42 C43 1.383 1_565 S
C42 C47 1.382 . S
C43 H14 0.950 . S
C43 C42 1.383 1_545 S
C43 C44 1.395 1_545 S
C44 H15 0.950 1_565 S
C44 C43 1.395 1_565 S
C44 C45 1.288 . S
C45 C44 1.288 . S
C45 C46 1.392 . S
C46 H16 0.951 . S
C46 C45 1.392 . S
C46 C47 1.392 . S
C47 H17 0.949 . S
C47 C42 1.382 . S
C47 C46 1.392 . S
H48 C67 0.949 . S
H49 C68 0.950 . S
H50 C70 0.950 . S
H51 C71 0.950 . S
H52 C73 0.950 . S
H53 C76 0.950 . S
H54 C77 0.950 . S
H55 C79 0.951 . S
H56 C80 0.949 . S
H57 C82 0.949 . S
H58 C83 0.950 . S
H59 C85 0.950 . S
H60 C86 0.950 . S
H61 C88 0.950 . S
H62 C91 0.950 . S
H63 C92 0.950 . S
H64 C94 0.951 . S
H65 C95 0.949 . S
C66 C67 1.376 . S
C66 C71 1.386 . S
C66 C72 1.483 . S
C67 H48 0.949 . S
C67 C66 1.376 . S
C67 C68 1.397 . S
C68 H49 0.950 . S
C68 C67 1.397 . S
C68 C69 1.391 . S
C69 C68 1.391 . S
C69 C70 1.405 . S
C70 H50 0.950 . S
C70 C69 1.405 . S
C70 C71 1.367 . S
C71 H51 0.950 . S
C71 C66 1.386 . S
C71 C70 1.367 . S
C72 C66 1.483 . S
C72 C73 1.382 . S
C72 C74 1.403 . S
C73 H52 0.950 . S
C73 C72 1.382 . S
C73 C89 1.411 . S
C74 C72 1.403 . S
C74 C75 1.489 . S
C74 C88 1.411 . S
C75 C74 1.489 . S
C75 C76 1.383 . S
C75 C80 1.382 . S
C76 H53 0.950 . S
C76 C75 1.383 . S
C76 C77 1.395 . S
C77 H54 0.950 . S
C77 C76 1.395 . S
C77 C78 1.288 . S
C78 C77 1.288 . S
C78 C79 1.392 . S
C79 H55 0.951 . S
C79 C78 1.392 . S
C79 C80 1.392 . S
C80 H56 0.949 . S
C80 C75 1.382 . S
C80 C79 1.392 . S
C81 C82 1.376 . S
C81 C86 1.386 . S
C81 C87 1.483 . S
C82 H57 0.949 . S
C82 C81 1.376 . S
C82 C83 1.397 . S
C83 H58 0.950 . S
C83 C82 1.397 . S
C83 C84 1.391 . S
C84 C83 1.391 . S
C84 C85 1.405 . S
C85 H59 0.950 . S
C85 C84 1.405 . S
C85 C86 1.367 . S
C86 H60 0.950 . S
C86 C81 1.386 . S
C86 C85 1.367 . S
C87 C81 1.483 . S
C87 C88 1.382 . S
C87 C89 1.403 . S
C88 H61 0.950 . S
C88 C74 1.411 . S
C88 C87 1.382 . S
C89 C73 1.411 . S
C89 C87 1.403 . S
C89 C90 1.489 . S
C90 C89 1.489 . S
C90 C91 1.383 . S
C90 C95 1.382 . S
C91 H62 0.950 . S
C91 C90 1.383 . S
C91 C92 1.395 . S
C92 H63 0.950 . S
C92 C91 1.395 . S
C92 C93 1.288 . S
C93 C92 1.288 . S
C93 C94 1.392 . S
C94 H64 0.951 . S
C94 C93 1.392 . S
C94 C95 1.392 . S
C95 H65 0.949 . S
C95 C90 1.382 . S
C95 C94 1.392 . S
H96 C115 0.949 1_545 S
H97 C116 0.950 . S
H98 C118 0.950 . S
H99 C119 0.950 . S
H100 C121 0.950 . S
H101 C124 0.898 1_554 S
H102 C125 0.950 . S
H103 C127 0.951 . S
H104 C128 0.949 . S
H105 C130 0.949 1_565 S
H106 C131 0.950 . S
H107 C133 0.950 . S
H108 C134 0.977 . S
H109 C136 0.950 . S
H110 C139 0.950 . S
H111 C140 0.950 . S
H112 C142 0.951 . S
H113 C143 0.956 . S
C114 C115 1.376 . S
C114 C119 1.386 . S
C114 C120 1.483 . S
C115 H96 0.949 1_565 S
C115 C114 1.376 . S
C115 C116 1.397 . S
C116 H97 0.950 . S
C116 C115 1.397 . S
C116 C117 1.391 . S
C117 C116 1.391 . S
C117 C118 1.405 . S
C118 H98 0.950 . S
C118 C117 1.405 . S
C118 C119 1.367 . S
C119 H99 0.950 . S
C119 C114 1.386 . S
C119 C118 1.367 . S
C120 C114 1.483 . S
C120 C121 1.382 . S
C120 C122 1.400 1_564 S
C121 H100 0.950 . S
C121 C120 1.382 . S
C121 C137 1.411 . S
C122 C120 1.400 1_546 S
C122 C123 1.490 . S
C122 C136 1.413 . S
C123 C122 1.490 . S
C123 C124 1.409 . S
C123 C128 1.382 . S
C124 H101 0.898 1_556 S
C124 C123 1.409 . S
C124 C125 1.423 . S
C125 H102 0.950 . S
C125 C124 1.423 . S
C125 C126 1.288 . S
C126 C125 1.288 . S
C126 C127 1.392 . S
C127 H103 0.951 . S
C127 C126 1.392 . S
C127 C128 1.392 . S
C128 H104 0.949 . S
C128 C123 1.382 . S
C128 C127 1.392 . S
C129 C130 1.376 . S
C129 C134 1.373 1_556 S
C129 C135 1.471 1_556 S
C130 H105 0.949 1_545 S
C130 C129 1.376 . S
C130 C131 1.397 . S
C131 H106 0.950 . S
C131 C130 1.397 . S
C131 C132 1.391 . S
C132 C131 1.391 . S
C132 C133 1.405 . S
C133 H107 0.950 . S
C133 C132 1.405 . S
C133 C134 1.354 1_556 S
C134 H108 0.977 . S
C134 C129 1.373 1_554 S
C134 C133 1.354 1_554 S
C135 C129 1.471 1_554 S
C135 C136 1.369 1_554 S
C135 C137 1.428 1_545 S
C136 H109 0.950 . S
C136 C122 1.413 . S
C136 C135 1.369 1_556 S
C137 C121 1.411 . S
C137 C135 1.428 1_565 S
C137 C138 1.489 . S
C138 C137 1.489 . S
C138 C139 1.383 . S
C138 C143 1.382 . S
C139 H110 0.950 . S
C139 C138 1.383 . S
C139 C140 1.395 . S
C140 H111 0.950 . S
C140 C139 1.395 . S
C140 C141 1.288 . S
C141 C140 1.288 . S
C141 C142 1.392 . S
C142 H112 0.951 . S
C142 C141 1.392 . S
C142 C143 1.392 . S
C143 H113 0.956 . S
C143 C138 1.382 . S
C143 C142 1.392 . S
H144 C163 0.949 . S
H145 C164 0.950 . S
H146 C166 0.950 . S
H147 C167 0.950 . S
H148 C169 0.950 . S
H149 C172 0.950 . S
H150 C173 0.950 . S
H151 C175 0.951 . S
H152 C176 0.949 . S
H153 C178 0.949 . S
H154 C179 0.950 . S
H155 C181 0.950 . S
H156 C182 0.950 . S
H157 C184 0.950 . S
H158 C187 0.950 . S
H159 C188 0.950 . S
H160 C190 0.951 . S
H161 C191 0.949 . S
C162 C163 1.376 . S
C162 C167 1.386 . S
C162 C168 1.483 . S
C163 H144 0.949 . S
C163 C162 1.376 . S
C163 C164 1.397 . S
C164 H145 0.950 . S
C164 C163 1.397 . S
C164 C165 1.391 . S
C165 C164 1.391 . S
C165 C166 1.405 . S
C166 H146 0.950 . S
C166 C165 1.405 . S
C166 C167 1.367 . S
C167 H147 0.950 . S
C167 C162 1.386 . S
C167 C166 1.367 . S
C168 C162 1.483 . S
C168 C169 1.382 . S
C168 C170 1.403 . S
C169 H148 0.950 . S
C169 C168 1.382 . S
C169 C185 1.411 . S
C170 C168 1.403 . S
C170 C171 1.489 . S
C170 C184 1.411 . S
C171 C170 1.489 . S
C171 C172 1.383 . S
C171 C176 1.382 . S
C172 H149 0.950 . S
C172 C171 1.383 . S
C172 C173 1.395 . S
C173 H150 0.950 . S
C173 C172 1.395 . S
C173 C174 1.288 . S
C174 C173 1.288 . S
C174 C175 1.392 . S
C175 H151 0.951 . S
C175 C174 1.392 . S
C175 C176 1.392 . S
C176 H152 0.949 . S
C176 C171 1.382 . S
C176 C175 1.392 . S
C177 C178 1.376 . S
C177 C182 1.386 . S
C177 C183 1.483 . S
C178 H153 0.949 . S
C178 C177 1.376 . S
C178 C179 1.397 . S
C179 H154 0.950 . S
C179 C178 1.397 . S
C179 C180 1.391 . S
C180 C179 1.391 . S
C180 C181 1.405 . S
C181 H155 0.950 . S
C181 C180 1.405 . S
C181 C182 1.367 . S
C182 H156 0.950 . S
C182 C177 1.386 . S
C182 C181 1.367 . S
C183 C177 1.483 . S
C183 C184 1.382 . S
C183 C185 1.403 . S
C184 H157 0.950 . S
C184 C170 1.411 . S
C184 C183 1.382 . S
C185 C169 1.411 . S
C185 C183 1.403 . S
C185 C186 1.489 . S
C186 C185 1.489 . S
C186 C187 1.383 . S
C186 C191 1.382 . S
C187 H158 0.950 . S
C187 C186 1.383 . S
C187 C188 1.395 . S
C188 H159 0.950 . S
C188 C187 1.395 . S
C188 C189 1.288 . S
C189 C188 1.288 . S
C189 C190 1.392 . S
C190 H160 0.951 . S
C190 C189 1.392 . S
C190 C191 1.392 . S
C191 H161 0.949 . S
C191 C186 1.382 . S
C191 C190 1.392 . S
H192 C211 0.949 . S
H193 C212 0.950 . S
H194 C214 0.950 . S
H195 C215 0.950 . S
H196 C217 0.950 . S
H197 C220 0.950 . S
H198 C221 0.950 . S
H199 C223 0.951 . S
H200 C224 0.949 . S
H201 C226 0.949 . S
H202 C227 0.950 . S
H203 C229 0.950 . S
H204 C230 0.950 . S
H205 C232 0.950 . S
H206 C235 0.950 . S
H207 C236 0.950 . S
H208 C238 0.951 . S
H209 C239 0.949 . S
C210 C211 1.376 . S
C210 C215 1.386 . S
C210 C216 1.483 . S
C211 H192 0.949 . S
C211 C210 1.376 . S
C211 C212 1.397 . S
C212 H193 0.950 . S
C212 C211 1.397 . S
C212 C213 1.391 . S
C213 C212 1.391 . S
C213 C214 1.405 . S
C214 H194 0.950 . S
C214 C213 1.405 . S
C214 C215 1.367 . S
C215 H195 0.950 . S
C215 C210 1.386 . S
C215 C214 1.367 . S
C216 C210 1.483 . S
C216 C217 1.382 . S
C216 C218 1.403 . S
C217 H196 0.950 . S
C217 C216 1.382 . S
C217 C233 1.411 . S
C218 C216 1.403 . S
C218 C219 1.489 . S
C218 C232 1.411 . S
C219 C218 1.489 . S
C219 C220 1.383 . S
C219 C224 1.382 . S
C220 H197 0.950 . S
C220 C219 1.383 . S
C220 C221 1.395 . S
C221 H198 0.950 . S
C221 C220 1.395 . S
C221 C222 1.288 . S
C222 C221 1.288 . S
C222 C223 1.392 . S
C223 H199 0.951 . S
C223 C222 1.392 . S
C223 C224 1.392 . S
C224 H200 0.949 . S
C224 C219 1.382 . S
C224 C223 1.392 . S
C225 C226 1.376 . S
C225 C230 1.386 . S
C225 C231 1.483 . S
C226 H201 0.949 . S
C226 C225 1.376 . S
C226 C227 1.397 . S
C227 H202 0.950 . S
C227 C226 1.397 . S
C227 C228 1.391 . S
C228 C227 1.391 . S
C228 C229 1.405 . S
C229 H203 0.950 . S
C229 C228 1.405 . S
C229 C230 1.367 . S
C230 H204 0.950 . S
C230 C225 1.386 . S
C230 C229 1.367 . S
C231 C225 1.483 . S
C231 C232 1.382 . S
C231 C233 1.403 . S
C232 H205 0.950 . S
C232 C218 1.411 . S
C232 C231 1.382 . S
C233 C217 1.411 . S
C233 C231 1.403 . S
C233 C234 1.489 . S
C234 C233 1.489 . S
C234 C235 1.383 . S
C234 C239 1.382 . S
C235 H206 0.950 . S
C235 C234 1.383 . S
C235 C236 1.395 . S
C236 H207 0.950 . S
C236 C235 1.395 . S
C236 C237 1.288 . S
C237 C236 1.288 . S
C237 C238 1.392 . S
C238 H208 0.951 . S
C238 C237 1.392 . S
C238 C239 1.392 . S
C239 H209 0.949 . S
C239 C234 1.382 . S
C239 C238 1.392 . S
H240 C259 0.949 . S
H241 C260 0.950 . S
H242 C262 0.950 . S
H243 C263 0.950 . S
H244 C265 0.950 . S
H245 C268 0.950 . S
H246 C269 0.950 . S
H247 C271 0.951 . S
H248 C272 0.949 . S
H249 C274 0.949 . S
H250 C275 0.950 . S
H251 C277 0.950 . S
H252 C278 0.950 . S
H253 C280 0.950 . S
H254 C283 0.950 . S
H255 C284 0.950 . S
H256 C286 0.951 . S
H257 C287 0.949 . S
C258 C259 1.376 . S
C258 C263 1.386 . S
C258 C264 1.483 . S
C259 H240 0.949 . S
C259 C258 1.376 . S
C259 C260 1.397 . S
C260 H241 0.950 . S
C260 C259 1.397 . S
C260 C261 1.391 . S
C261 C260 1.391 . S
C261 C262 1.405 . S
C262 H242 0.950 . S
C262 C261 1.405 . S
C262 C263 1.367 . S
C263 H243 0.950 . S
C263 C258 1.386 . S
C263 C262 1.367 . S
C264 C258 1.483 . S
C264 C265 1.382 . S
C264 C266 1.403 . S
C265 H244 0.950 . S
C265 C264 1.382 . S
C265 C281 1.411 . S
C266 C264 1.403 . S
C266 C267 1.489 . S
C266 C280 1.411 . S
C267 C266 1.489 . S
C267 C268 1.383 . S
C267 C272 1.382 . S
C268 H245 0.950 . S
C268 C267 1.383 . S
C268 C269 1.395 . S
C269 H246 0.950 . S
C269 C268 1.395 . S
C269 C270 1.288 . S
C270 C269 1.288 . S
C270 C271 1.392 . S
C271 H247 0.951 . S
C271 C270 1.392 . S
C271 C272 1.392 . S
C272 H248 0.949 . S
C272 C267 1.382 . S
C272 C271 1.392 . S
C273 C274 1.376 . S
C273 C278 1.386 . S
C273 C279 1.483 . S
C274 H249 0.949 . S
C274 C273 1.376 . S
C274 C275 1.397 . S
C275 H250 0.950 . S
C275 C274 1.397 . S
C275 C276 1.391 . S
C276 C275 1.391 . S
C276 C277 1.405 . S
C277 H251 0.950 . S
C277 C276 1.405 . S
C277 C278 1.367 . S
C278 H252 0.950 . S
C278 C273 1.386 . S
C278 C277 1.367 . S
C279 C273 1.483 . S
C279 C280 1.382 . S
C279 C281 1.403 . S
C280 H253 0.950 . S
C280 C266 1.411 . S
C280 C279 1.382 . S
C281 C265 1.411 . S
C281 C279 1.403 . S
C281 C282 1.489 . S
C282 C281 1.489 . S
C282 C283 1.383 . S
C282 C287 1.382 . S
C283 H254 0.950 . S
C283 C282 1.383 . S
C283 C284 1.395 . S
C284 H255 0.950 . S
C284 C283 1.395 . S
C284 C285 1.288 . S
C285 C284 1.288 . S
C285 C286 1.392 . S
C286 H256 0.951 . S
C286 C285 1.392 . S
C286 C287 1.392 . S
C287 H257 0.949 . S
C287 C282 1.382 . S
C287 C286 1.392 . S
H288 C307 0.949 . S
H289 C308 0.950 . S
H290 C310 0.950 . S
H291 C311 0.950 . S
H292 C313 0.950 . S
H293 C316 0.950 . S
H294 C317 0.950 . S
H295 C319 0.951 . S
H296 C320 0.949 . S
H297 C322 0.949 . S
H298 C323 0.950 . S
H299 C325 0.950 . S
H300 C326 0.950 . S
H301 C328 0.950 . S
H302 C331 0.950 . S
H303 C332 0.950 . S
H304 C334 0.951 . S
H305 C335 0.949 . S
C306 C307 1.376 . S
C306 C311 1.386 . S
C306 C312 1.483 1_556 S
C307 H288 0.949 . S
C307 C306 1.376 . S
C307 C308 1.397 . S
C308 H289 0.950 . S
C308 C307 1.397 . S
C308 C309 1.391 . S
C309 C308 1.391 . S
C309 C310 1.405 . S
C310 H290 0.950 . S
C310 C309 1.405 . S
C310 C311 1.367 . S
C311 H291 0.950 . S
C311 C306 1.386 . S
C311 C310 1.367 . S
C312 C306 1.483 1_554 S
C312 C313 1.382 1_554 S
C312 C314 1.403 . S
C313 H292 0.950 . S
C313 C312 1.382 1_556 S
C313 C329 1.411 1_556 S
C314 C312 1.403 . S
C314 C315 1.489 . S
C314 C328 1.411 . S
C315 C314 1.489 . S
C315 C316 1.383 . S
C315 C320 1.382 . S
C316 H293 0.950 . S
C316 C315 1.383 . S
C316 C317 1.395 . S
C317 H294 0.950 . S
C317 C316 1.395 . S
C317 C318 1.288 . S
C318 C317 1.288 . S
C318 C319 1.392 . S
C319 H295 0.951 . S
C319 C318 1.392 . S
C319 C320 1.392 . S
C320 H296 0.949 . S
C320 C315 1.382 . S
C320 C319 1.392 . S
C321 C322 1.376 . S
C321 C326 1.386 . S
C321 C327 1.483 . S
C322 H297 0.949 . S
C322 C321 1.376 . S
C322 C323 1.397 . S
C323 H298 0.950 . S
C323 C322 1.397 . S
C323 C324 1.391 . S
C324 C323 1.391 . S
C324 C325 1.405 . S
C325 H299 0.950 . S
C325 C324 1.405 . S
C325 C326 1.367 . S
C326 H300 0.950 . S
C326 C321 1.386 . S
C326 C325 1.367 . S
C327 C321 1.483 . S
C327 C328 1.382 . S
C327 C329 1.403 . S
C328 H301 0.950 . S
C328 C314 1.411 . S
C328 C327 1.382 . S
C329 C313 1.411 1_554 S
C329 C327 1.403 . S
C329 C330 1.489 1_554 S
C330 C329 1.489 1_556 S
C330 C331 1.383 . S
C330 C335 1.382 . S
C331 H302 0.950 . S
C331 C330 1.383 . S
C331 C332 1.395 . S
C332 H303 0.950 . S
C332 C331 1.395 . S
C332 C333 1.288 . S
C333 C332 1.288 . S
C333 C334 1.392 . S
C334 H304 0.951 . S
C334 C333 1.392 . S
C334 C335 1.392 . S
C335 H305 0.949 . S
C335 C330 1.382 . S
C335 C334 1.392 . S
H336 C355 0.949 . S
H337 C356 0.950 . S
H338 C358 0.950 . S
H339 C359 0.950 . S
H340 C361 0.950 . S
H341 C364 0.950 . S
H342 C365 0.950 . S
H343 C367 0.951 . S
H344 C368 0.949 . S
H345 C370 0.949 . S
H346 C371 0.950 . S
H347 C373 0.950 . S
H348 C374 0.950 . S
H349 C376 0.950 . S
H350 C379 0.950 . S
H351 C380 0.950 . S
H352 C382 0.951 . S
H353 C383 0.949 . S
C354 C355 1.376 . S
C354 C359 1.386 . S
C354 C360 1.483 . S
C355 H336 0.949 . S
C355 C354 1.376 . S
C355 C356 1.397 . S
C356 H337 0.950 . S
C356 C355 1.397 . S
C356 C357 1.391 . S
C357 C356 1.391 . S
C357 C358 1.405 . S
C358 H338 0.950 . S
C358 C357 1.405 . S
C358 C359 1.367 . S
C359 H339 0.950 . S
C359 C354 1.386 . S
C359 C358 1.367 . S
C360 C354 1.483 . S
C360 C361 1.382 . S
C360 C362 1.403 . S
C361 H340 0.950 . S
C361 C360 1.382 . S
C361 C377 1.411 1_655 S
C362 C360 1.403 . S
C362 C363 1.489 . S
C362 C376 1.411 1_655 S
C363 C362 1.489 . S
C363 C364 1.383 . S
C363 C368 1.382 . S
C364 H341 0.950 . S
C364 C363 1.383 . S
C364 C365 1.395 . S
C365 H342 0.950 . S
C365 C364 1.395 . S
C365 C366 1.288 . S
C366 C365 1.288 . S
C366 C367 1.392 . S
C367 H343 0.951 . S
C367 C366 1.392 . S
C367 C368 1.392 . S
C368 H344 0.949 . S
C368 C363 1.382 . S
C368 C367 1.392 . S
C369 C370 1.376 . S
C369 C374 1.386 . S
C369 C375 1.483 . S
C370 H345 0.949 . S
C370 C369 1.376 . S
C370 C371 1.397 . S
C371 H346 0.950 . S
C371 C370 1.397 . S
C371 C372 1.391 . S
C372 C371 1.391 . S
C372 C373 1.405 . S
C373 H347 0.950 . S
C373 C372 1.405 . S
C373 C374 1.367 . S
C374 H348 0.950 . S
C374 C369 1.386 . S
C374 C373 1.367 . S
C375 C369 1.483 . S
C375 C376 1.382 . S
C375 C377 1.403 . S
C376 H349 0.950 . S
C376 C362 1.411 1_455 S
C376 C375 1.382 . S
C377 C361 1.411 1_455 S
C377 C375 1.403 . S
C377 C378 1.489 . S
C378 C377 1.489 . S
C378 C379 1.383 . S
C378 C383 1.382 . S
C379 H350 0.950 . S
C379 C378 1.383 . S
C379 C380 1.395 . S
C380 H351 0.950 . S
C380 C379 1.395 . S
C380 C381 1.288 . S
C381 C380 1.288 . S
C381 C382 1.392 . S
C382 H352 0.951 . S
C382 C381 1.392 . S
C382 C383 1.392 . S
C383 H353 0.949 . S
C383 C378 1.382 . S
C383 C382 1.392 . S
Fe384 O385 1.886 . S
Fe384 O388 1.715 1_455 S
Fe384 O393 2.077 . S
Fe384 O398 1.935 1_455 S
Fe384 O404 2.077 . S
Fe384 O413 1.935 1_455 S
O385 Fe384 1.886 . S
O385 Fe387 1.715 . S
Fe386 O388 1.886 . S
Fe386 O389 1.715 . S
Fe386 O396 1.935 . S
Fe386 O397 2.077 . S
Fe386 O403 1.935 . S
Fe386 O412 2.077 . S
Fe387 O385 1.715 . S
Fe387 O390 1.886 . S
Fe387 O394 1.935 . S
Fe387 O399 2.077 . S
Fe387 O405 1.935 . S
Fe387 O409 2.077 . S
O388 Fe384 1.715 1_655 S
O388 Fe386 1.886 . S
O389 Fe386 1.715 . S
O389 Fe391 1.886 . S
O390 Fe387 1.886 . S
O390 Fe391 1.715 1_455 S
Fe391 O389 1.886 . S
Fe391 O390 1.715 1_655 S
Fe391 O395 2.077 . S
Fe391 O400 1.935 1_655 S
Fe391 O402 2.077 . S
Fe391 O410 1.935 1_655 S
C392 O404 1.381 . S
C392 O405 1.421 . S
O393 Fe384 2.077 . S
O393 C406 1.381 . S
O394 Fe387 1.935 . S
O394 C406 1.421 . S
O395 Fe391 2.077 . S
O395 C411 1.381 . S
O396 Fe386 1.935 . S
O396 C411 1.421 . S
O397 Fe386 2.077 . S
O397 C401 1.381 . S
O398 Fe384 1.935 1_655 S
O398 C401 1.421 . S
O399 Fe387 2.077 . S
O399 C407 1.381 . S
O400 Fe391 1.935 1_455 S
O400 C407 1.421 . S
C401 O397 1.381 . S
C401 O398 1.421 . S
O402 Fe391 2.077 . S
O402 C414 1.381 . S
O403 Fe386 1.935 . S
O403 C414 1.421 . S
O404 Fe384 2.077 . S
O404 C392 1.381 . S
O405 Fe387 1.935 . S
O405 C392 1.421 . S
C406 O393 1.381 . S
C406 O394 1.421 . S
C407 O399 1.381 . S
C407 O400 1.421 . S
C408 O409 1.381 . S
C408 O410 1.421 . S
O409 Fe387 2.077 . S
O409 C408 1.381 . S
O410 Fe391 1.935 1_455 S
O410 C408 1.421 . S
C411 O395 1.381 . S
C411 O396 1.421 . S
O412 Fe386 2.077 . S
O412 C415 1.381 . S
O413 Fe384 1.935 1_655 S
O413 C415 1.421 . S
C414 O402 1.381 . S
C414 O403 1.421 . S
C415 O412 1.381 . S
C415 O413 1.421 . S
Fe416 O417 1.886 . S
Fe416 O420 1.715 . S
Fe416 O425 2.077 . S
Fe416 O430 1.935 . S
Fe416 O436 2.077 . S
Fe416 O445 1.935 . S
O417 Fe416 1.886 . S
O417 Fe419 1.715 . S
Fe418 O420 1.886 . S
Fe418 O421 1.715 . S
Fe418 O428 1.935 . S
Fe418 O429 2.077 . S
Fe418 O435 1.935 . S
Fe418 O444 2.077 . S
Fe419 O417 1.715 . S
Fe419 O422 1.886 . S
Fe419 O426 1.935 . S
Fe419 O431 2.077 . S
Fe419 O437 1.935 . S
Fe419 O441 2.077 . S
O420 Fe416 1.715 . S
O420 Fe418 1.886 . S
O421 Fe418 1.715 . S
O421 Fe423 1.886 . S
O422 Fe419 1.886 . S
O422 Fe423 1.715 . S
Fe423 O421 1.886 . S
Fe423 O422 1.715 . S
Fe423 O427 2.077 . S
Fe423 O432 1.935 . S
Fe423 O434 2.077 . S
Fe423 O442 1.935 . S
C424 O436 1.381 . S
C424 O437 1.421 . S
O425 Fe416 2.077 . S
O425 C438 1.381 . S
O426 Fe419 1.935 . S
O426 C438 1.421 . S
O427 Fe423 2.077 . S
O427 C443 1.381 . S
O428 Fe418 1.935 . S
O428 C443 1.421 . S
O429 Fe418 2.077 . S
O429 C433 1.381 . S
O430 Fe416 1.935 . S
O430 C433 1.421 . S
O431 Fe419 2.077 . S
O431 C439 1.381 . S
O432 Fe423 1.935 . S
O432 C439 1.421 . S
C433 O429 1.381 . S
C433 O430 1.421 . S
O434 Fe423 2.077 . S
O434 C446 1.381 . S
O435 Fe418 1.935 . S
O435 C446 1.421 . S
O436 Fe416 2.077 . S
O436 C424 1.381 . S
O437 Fe419 1.935 . S
O437 C424 1.421 . S
C438 O425 1.381 . S
C438 O426 1.421 . S
C439 O431 1.381 . S
C439 O432 1.421 . S
C440 O441 1.381 . S
C440 O442 1.421 . S
O441 Fe419 2.077 . S
O441 C440 1.381 . S
O442 Fe423 1.935 . S
O442 C440 1.421 . S
C443 O427 1.381 . S
C443 O428 1.421 . S
O444 Fe418 2.077 . S
O444 C447 1.381 . S
O445 Fe416 1.935 . S
O445 C447 1.421 . S
C446 O434 1.381 . S
C446 O435 1.421 . S
C447 O444 1.381 . S
C447 O445 1.421 . S
Fe448 O449 1.886 . S
Fe448 O452 1.715 . S
Fe448 O457 2.077 . S
Fe448 O462 1.935 . S
Fe448 O468 2.077 . S
Fe448 O477 1.935 . S
O449 Fe448 1.886 . S
O449 Fe451 1.715 . S
Fe450 O452 1.886 . S
Fe450 O453 1.715 . S
Fe450 O460 1.935 . S
Fe450 O461 2.077 . S
Fe450 O467 1.935 . S
Fe450 O476 2.077 . S
Fe451 O449 1.715 . S
Fe451 O454 1.886 . S
Fe451 O458 1.935 . S
Fe451 O463 2.077 . S
Fe451 O469 1.935 . S
Fe451 O473 2.077 . S
O452 Fe448 1.715 . S
O452 Fe450 1.886 . S
O453 Fe450 1.715 . S
O453 Fe455 1.886 . S
O454 Fe451 1.886 . S
O454 Fe455 1.715 . S
Fe455 O453 1.886 . S
Fe455 O454 1.715 . S
Fe455 O459 2.077 . S
Fe455 O464 1.935 . S
Fe455 O466 2.077 . S
Fe455 O474 1.935 . S
C456 O468 1.381 . S
C456 O469 1.421 . S
O457 Fe448 2.077 . S
O457 C470 1.381 . S
O458 Fe451 1.935 . S
O458 C470 1.421 . S
O459 Fe455 2.077 . S
O459 C475 1.381 . S
O460 Fe450 1.935 . S
O460 C475 1.421 . S
O461 Fe450 2.077 . S
O461 C465 1.381 . S
O462 Fe448 1.935 . S
O462 C465 1.421 . S
O463 Fe451 2.077 . S
O463 C471 1.381 . S
O464 Fe455 1.935 . S
O464 C471 1.421 . S
C465 O461 1.381 . S
C465 O462 1.421 . S
O466 Fe455 2.077 . S
O466 C478 1.381 . S
O467 Fe450 1.935 . S
O467 C478 1.421 . S
O468 Fe448 2.077 . S
O468 C456 1.381 . S
O469 Fe451 1.935 . S
O469 C456 1.421 . S
C470 O457 1.381 . S
C470 O458 1.421 . S
C471 O463 1.381 . S
C471 O464 1.421 . S
C472 O473 1.381 . S
C472 O474 1.421 . S
O473 Fe451 2.077 . S
O473 C472 1.381 . S
O474 Fe455 1.935 . S
O474 C472 1.421 . S
C475 O459 1.381 . S
C475 O460 1.421 . S
O476 Fe450 2.077 . S
O476 C479 1.381 . S
O477 Fe448 1.935 . S
O477 C479 1.421 . S
C478 O466 1.381 . S
C478 O467 1.421 . S
C479 O476 1.381 . S
C479 O477 1.421 . S
Fe480 O481 1.886 . S
Fe480 O484 1.715 . S
Fe480 O489 2.076 1_455 S
Fe480 O494 1.934 1_455 S
Fe480 O500 2.078 . S
Fe480 O509 1.937 . S
O481 Fe480 1.886 . S
O481 Fe483 1.715 . S
Fe482 O484 1.886 . S
Fe482 O485 1.715 . S
Fe482 O492 1.934 1_455 S
Fe482 O493 2.076 1_455 S
Fe482 O499 1.936 . S
Fe482 O508 2.078 . S
Fe483 O481 1.715 . S
Fe483 O486 1.886 . S
Fe483 O490 1.934 1_455 S
Fe483 O495 2.076 1_455 S
Fe483 O501 1.936 . S
Fe483 O505 2.078 . S
O484 Fe480 1.715 . S
O484 Fe482 1.886 . S
O485 Fe482 1.715 . S
O485 Fe487 1.886 . S
O486 Fe483 1.886 . S
O486 Fe487 1.715 . S
Fe487 O485 1.886 . S
Fe487 O486 1.715 . S
Fe487 O491 2.077 1_455 S
Fe487 O496 1.935 1_455 S
Fe487 O498 2.077 . S
Fe487 O506 1.936 . S
C488 O500 1.381 . S
C488 O501 1.421 . S
O489 Fe480 2.076 1_655 S
O489 C502 1.381 . S
O490 Fe483 1.934 1_655 S
O490 C502 1.421 . S
O491 Fe487 2.077 1_655 S
O491 C507 1.381 . S
O492 Fe482 1.934 1_655 S
O492 C507 1.421 . S
O493 Fe482 2.076 1_655 S
O493 C497 1.381 . S
O494 Fe480 1.934 1_655 S
O494 C497 1.421 . S
O495 Fe483 2.076 1_655 S
O495 C503 1.381 . S
O496 Fe487 1.935 1_655 S
O496 C503 1.421 . S
C497 O493 1.381 . S
C497 O494 1.421 . S
O498 Fe487 2.077 . S
O498 C510 1.381 . S
O499 Fe482 1.936 . S
O499 C510 1.421 . S
O500 Fe480 2.078 . S
O500 C488 1.381 . S
O501 Fe483 1.936 . S
O501 C488 1.421 . S
C502 O489 1.381 . S
C502 O490 1.421 . S
C503 O495 1.381 . S
C503 O496 1.421 . S
C504 O505 1.381 . S
C504 O506 1.421 . S
O505 Fe483 2.078 . S
O505 C504 1.381 . S
O506 Fe487 1.936 . S
O506 C504 1.421 . S
C507 O491 1.381 . S
C507 O492 1.421 . S
O508 Fe482 2.078 . S
O508 C511 1.381 . S
O509 Fe480 1.937 . S
O509 C511 1.421 . S
C510 O498 1.381 . S
C510 O499 1.421 . S
C511 O508 1.381 . S
C511 O509 1.421 . S
C512 C513 1.369 . S
C512 C514 1.419 . S
C512 H516 0.930 . S
C513 C512 1.369 . S
C513 C522 1.429 . S
C514 C512 1.419 . S
C514 C515 1.363 . S
C514 H517 0.929 . S
C515 C514 1.363 . S
C515 C521 1.428 . S
H516 C512 0.930 . S
H517 C514 0.929 . S
S518 N519 1.613 . S
S518 N520 1.610 . S
N519 S518 1.613 . S
N519 C522 1.350 . S
N520 S518 1.610 . S
N520 C521 1.351 . S
C521 C515 1.428 . S
C521 N520 1.351 . S
C521 C522 1.434 . S
C522 C513 1.429 . S
C522 N519 1.350 . S
C522 C521 1.434 . S
C523 C524 1.369 . S
C523 C525 1.419 . S
C523 H527 0.930 . S
C524 C523 1.369 . S
C524 C533 1.429 . S
C525 C523 1.419 . S
C525 C526 1.363 . S
C525 H528 0.929 . S
C526 C525 1.363 . S
C526 C532 1.428 . S
H527 C523 0.930 . S
H528 C525 0.929 . S
S529 N530 1.613 . S
S529 N531 1.610 . S
N530 S529 1.613 . S
N530 C533 1.350 . S
N531 S529 1.610 . S
N531 C532 1.351 . S
C532 C526 1.428 . S
C532 N531 1.351 . S
C532 C533 1.434 . S
C533 C524 1.429 . S
C533 N530 1.350 . S
C533 C532 1.434 . S
C534 C535 1.369 . S
C534 C536 1.419 . S
C534 H538 0.930 . S
C535 C534 1.369 . S
C535 C544 1.429 . S
C536 C534 1.419 . S
C536 C537 1.363 . S
C536 H539 0.929 . S
C537 C536 1.363 . S
C537 C543 1.428 . S
H538 C534 0.930 . S
H539 C536 0.929 . S
S540 N541 1.613 . S
S540 N542 1.610 . S
N541 S540 1.613 . S
N541 C544 1.350 . S
N542 S540 1.610 . S
N542 C543 1.351 . S
C543 C537 1.428 . S
C543 N542 1.351 . S
C543 C544 1.434 . S
C544 C535 1.429 . S
C544 N541 1.350 . S
C544 C543 1.434 . S
C545 C546 1.369 . S
C545 C547 1.419 . S
C545 H549 0.930 . S
C546 C545 1.369 . S
C546 C555 1.429 . S
C547 C545 1.419 . S
C547 C548 1.363 . S
C547 H550 0.929 . S
C548 C547 1.363 . S
C548 C554 1.428 . S
H549 C545 0.930 . S
H550 C547 0.929 . S
S551 N552 1.613 1_665 S
S551 N553 1.610 1_655 S
N552 S551 1.613 1_445 S
N552 C555 1.350 1_545 S
N553 S551 1.610 1_455 S
N553 C554 1.351 . S
C554 C548 1.428 . S
C554 N553 1.351 . S
C554 C555 1.434 . S
C555 C546 1.429 . S
C555 N552 1.350 1_565 S
C555 C554 1.434 . S
C556 C557 1.369 . S
C556 C558 1.419 . S
C556 H560 0.930 . S
C557 C556 1.369 . S
C557 C566 1.429 . S
C558 C556 1.419 . S
C558 C559 1.363 . S
C558 H561 0.929 . S
C559 C558 1.363 . S
C559 C565 1.428 . S
H560 C556 0.930 . S
H561 C558 0.929 . S
S562 N563 1.613 . S
S562 N564 1.610 . S
N563 S562 1.613 . S
N563 C566 1.350 . S
N564 S562 1.610 . S
N564 C565 1.351 . S
C565 C559 1.428 . S
C565 N564 1.351 . S
C565 C566 1.434 . S
C566 C557 1.429 . S
C566 N563 1.350 . S
C566 C565 1.434 . S
C567 C568 1.369 . S
C567 C569 1.419 . S
C567 H571 0.930 . S
C568 C567 1.369 . S
C568 C577 1.429 . S
C569 C567 1.419 . S
C569 C570 1.363 . S
C569 H572 0.929 . S
C570 C569 1.363 . S
C570 C576 1.428 . S
H571 C567 0.930 . S
H572 C569 0.929 . S
S573 N574 1.613 . S
S573 N575 1.610 . S
N574 S573 1.613 . S
N574 C577 1.350 . S
N575 S573 1.610 . S
N575 C576 1.351 . S
C576 C570 1.428 . S
C576 N575 1.351 . S
C576 C577 1.434 . S
C577 C568 1.429 . S
C577 N574 1.350 . S
C577 C576 1.434 . S
C578 C579 1.369 . S
C578 C580 1.419 . S
C578 H582 0.930 . S
C579 C578 1.369 . S
C579 C588 1.429 . S
C580 C578 1.419 . S
C580 C581 1.363 . S
C580 H583 0.929 . S
C581 C580 1.363 . S
C581 C587 1.428 . S
H582 C578 0.930 . S
H583 C580 0.929 . S
S584 N585 1.613 . S
S584 N586 1.610 . S
N585 S584 1.613 . S
N585 C588 1.350 . S
N586 S584 1.610 . S
N586 C587 1.351 . S
C587 C581 1.428 . S
C587 N586 1.351 . S
C587 C588 1.434 . S
C588 C579 1.429 . S
C588 N585 1.350 . S
C588 C587 1.434 . S
C589 C590 1.369 . S
C589 C591 1.419 . S
C589 H593 0.930 . S
C590 C589 1.369 . S
C590 C599 1.429 . S
C591 C589 1.419 . S
C591 C592 1.363 . S
C591 H594 0.929 . S
C592 C591 1.363 . S
C592 C598 1.428 . S
H593 C589 0.930 . S
H594 C591 0.929 . S
S595 N596 1.613 . S
S595 N597 1.610 . S
N596 S595 1.613 . S
N596 C599 1.350 . S
N597 S595 1.610 . S
N597 C598 1.351 . S
C598 C592 1.428 . S
C598 N597 1.351 . S
C598 C599 1.434 . S
C599 C590 1.429 . S
C599 N596 1.350 . S
C599 C598 1.434 . S
C600 C601 1.369 . S
C600 C602 1.419 . S
C600 H604 0.930 . S
C601 C600 1.369 . S
C601 C610 1.429 . S
C602 C600 1.419 . S
C602 C603 1.363 . S
C602 H605 0.929 . S
C603 C602 1.363 . S
C603 C609 1.428 . S
H604 C600 0.930 . S
H605 C602 0.929 . S
S606 N607 1.613 . S
S606 N608 1.610 . S
N607 S606 1.613 . S
N607 C610 1.350 . S
N608 S606 1.610 . S
N608 C609 1.351 . S
C609 C603 1.428 . S
C609 N608 1.351 . S
C609 C610 1.434 . S
C610 C601 1.429 . S
C610 N607 1.350 . S
C610 C609 1.434 . S
C611 C612 1.369 1_545 S
C611 C613 1.419 1_545 S
C611 H615 0.930 . S
C612 C611 1.369 1_565 S
C612 C621 1.429 . S
C613 C611 1.419 1_565 S
C613 C614 1.363 . S
C613 H616 0.929 . S
C614 C613 1.363 . S
C614 C620 1.428 . S
H615 C611 0.930 . S
H616 C613 0.929 . S
S617 N618 1.613 . S
S617 N619 1.610 . S
N618 S617 1.613 . S
N618 C621 1.350 . S
N619 S617 1.610 . S
N619 C620 1.351 . S
C620 C614 1.428 . S
C620 N619 1.351 . S
C620 C621 1.434 . S
C621 C612 1.429 . S
C621 N618 1.350 . S
C621 C620 1.434 . S
C622 C623 1.369 . S
C622 C624 1.419 . S
C622 H626 0.930 . S
C623 C622 1.369 . S
C623 C632 1.429 . S
C624 C622 1.419 . S
C624 C625 1.363 . S
C624 H627 0.929 . S
C625 C624 1.363 . S
C625 C631 1.428 . S
H626 C622 0.930 . S
H627 C624 0.929 . S
S628 N629 1.613 1_545 S
S628 N630 1.610 1_545 S
N629 S628 1.613 1_565 S
N629 C632 1.350 . S
N630 S628 1.610 1_565 S
N630 C631 1.351 . S
C631 C625 1.428 . S
C631 N630 1.351 . S
C631 C632 1.434 . S
C632 C623 1.429 . S
C632 N629 1.350 . S
C632 C631 1.434 . S
C633 C634 1.369 . S
C633 C635 1.419 . S
C633 H637 0.930 . S
C634 C633 1.369 . S
C634 C643 1.429 . S
C635 C633 1.419 . S
C635 C636 1.363 . S
C635 H638 0.929 . S
C636 C635 1.363 . S
C636 C642 1.428 . S
H637 C633 0.930 . S
H638 C635 0.929 . S
S639 N640 1.613 . S
S639 N641 1.610 . S
N640 S639 1.613 . S
N640 C643 1.350 . S
N641 S639 1.610 . S
N641 C642 1.351 . S
C642 C636 1.428 . S
C642 N641 1.351 . S
C642 C643 1.434 . S
C643 C634 1.429 . S
C643 N640 1.350 . S
C643 C642 1.434 . S
C644 C645 1.369 . S
C644 C646 1.419 . S
C644 H648 0.930 . S
C645 C644 1.369 . S
C645 C654 1.429 . S
C646 C644 1.419 . S
C646 C647 1.363 . S
C646 H649 0.929 . S
C647 C646 1.363 . S
C647 C653 1.428 . S
H648 C644 0.930 . S
H649 C646 0.929 . S
S650 N651 1.613 . S
S650 N652 1.610 . S
N651 S650 1.613 . S
N651 C654 1.350 . S
N652 S650 1.610 . S
N652 C653 1.351 . S
C653 C647 1.428 . S
C653 N652 1.351 . S
C653 C654 1.434 . S
C654 C645 1.429 . S
C654 N651 1.350 . S
C654 C653 1.434 . S
C655 C656 1.369 . S
C655 C657 1.419 . S
C655 H659 0.930 . S
C656 C655 1.369 . S
C656 C665 1.429 1_565 S
C657 C655 1.419 . S
C657 C658 1.363 . S
C657 H660 0.929 . S
C658 C657 1.363 . S
C658 C664 1.428 . S
H659 C655 0.930 . S
H660 C657 0.929 . S
S661 N662 1.613 . S
S661 N663 1.610 1_545 S
N662 S661 1.613 . S
N662 C665 1.350 . S
N663 S661 1.610 1_565 S
N663 C664 1.351 . S
C664 C658 1.428 . S
C664 N663 1.351 . S
C664 C665 1.434 1_565 S
C665 C656 1.429 1_545 S
C665 N662 1.350 . S
C665 C664 1.434 1_545 S
C666 C667 1.369 . S
C666 C668 1.419 . S
C666 H670 0.930 . S
C667 C666 1.369 . S
C667 C676 1.429 . S
C668 C666 1.419 . S
C668 C669 1.363 . S
C668 H671 0.929 . S
C669 C668 1.363 . S
C669 C675 1.428 . S
H670 C666 0.930 . S
H671 C668 0.929 . S
S672 N673 1.613 . S
S672 N674 1.610 . S
N673 S672 1.613 . S
N673 C676 1.350 . S
N674 S672 1.610 . S
N674 C675 1.351 . S
C675 C669 1.428 . S
C675 N674 1.351 . S
C675 C676 1.434 . S
C676 C667 1.429 . S
C676 N673 1.350 . S
C676 C675 1.434 . S
C677 C678 1.369 . S
C677 C679 1.419 . S
C677 H681 0.930 . S
C678 C677 1.369 . S
C678 C687 1.429 . S
C679 C677 1.419 . S
C679 C680 1.363 . S
C679 H682 0.929 . S
C680 C679 1.363 . S
C680 C686 1.428 . S
H681 C677 0.930 . S
H682 C679 0.929 . S
S683 N684 1.613 . S
S683 N685 1.610 1_565 S
N684 S683 1.613 . S
N684 C687 1.350 1_565 S
N685 S683 1.610 1_545 S
N685 C686 1.351 . S
C686 C680 1.428 . S
C686 N685 1.351 . S
C686 C687 1.434 . S
C687 C678 1.429 . S
C687 N684 1.350 1_545 S
C687 C686 1.434 . S
C688 C689 1.369 . S
C688 C690 1.419 . S
C688 H692 0.930 . S
C689 C688 1.369 . S
C689 C698 1.429 . S
C690 C688 1.419 . S
C690 C691 1.363 . S
C690 H693 0.929 . S
C691 C690 1.363 . S
C691 C697 1.428 . S
H692 C688 0.930 . S
H693 C690 0.929 . S
S694 N695 1.613 . S
S694 N696 1.610 . S
N695 S694 1.613 . S
N695 C698 1.350 . S
N696 S694 1.610 . S
N696 C697 1.351 . S
C697 C691 1.428 . S
C697 N696 1.351 . S
C697 C698 1.434 . S
C698 C689 1.429 . S
C698 N695 1.350 . S
C698 C697 1.434 . S
C699 C700 1.369 . S
C699 C701 1.419 . S
C699 H703 0.930 . S
C700 C699 1.369 . S
C700 C709 1.429 . S
C701 C699 1.419 . S
C701 C702 1.363 . S
C701 H704 0.929 . S
C702 C701 1.363 . S
C702 C708 1.428 . S
H703 C699 0.930 . S
H704 C701 0.929 . S
S705 N706 1.613 . S
S705 N707 1.610 . S
N706 S705 1.613 . S
N706 C709 1.350 . S
N707 S705 1.610 . S
N707 C708 1.351 . S
C708 C702 1.428 . S
C708 N707 1.351 . S
C708 C709 1.434 . S
C709 C700 1.429 . S
C709 N706 1.350 . S
C709 C708 1.434 . S
C710 C711 1.369 . S
C710 C712 1.419 . S
C710 H714 0.930 . S
C711 C710 1.369 . S
C711 C720 1.429 . S
C712 C710 1.419 . S
C712 C713 1.363 . S
C712 H715 0.929 . S
C713 C712 1.363 . S
C713 C719 1.428 . S
H714 C710 0.930 . S
H715 C712 0.929 . S
S716 N717 1.613 . S
S716 N718 1.610 . S
N717 S716 1.613 . S
N717 C720 1.350 . S
N718 S716 1.610 . S
N718 C719 1.351 . S
C719 C713 1.428 . S
C719 N718 1.351 . S
C719 C720 1.434 . S
C720 C711 1.429 . S
C720 N717 1.350 . S
C720 C719 1.434 . S
C721 C722 1.369 . S
C721 C723 1.419 . S
C721 H725 0.930 . S
C722 C721 1.369 . S
C722 C731 1.429 . S
C723 C721 1.419 . S
C723 C724 1.363 . S
C723 H726 0.929 . S
C724 C723 1.363 . S
C724 C730 1.428 . S
H725 C721 0.930 . S
H726 C723 0.929 . S
S727 N728 1.613 . S
S727 N729 1.610 . S
N728 S727 1.613 . S
N728 C731 1.350 . S
N729 S727 1.610 . S
N729 C730 1.351 . S
C730 C724 1.428 . S
C730 N729 1.351 . S
C730 C731 1.434 . S
C731 C722 1.429 . S
C731 N728 1.350 . S
C731 C730 1.434 . S
C732 C733 1.369 . S
C732 C734 1.419 . S
C732 H736 0.930 . S
C733 C732 1.369 . S
C733 C742 1.429 . S
C734 C732 1.419 . S
C734 C735 1.363 . S
C734 H737 0.929 . S
C735 C734 1.363 . S
C735 C741 1.428 . S
H736 C732 0.930 . S
H737 C734 0.929 . S
S738 N739 1.613 . S
S738 N740 1.610 . S
N739 S738 1.613 . S
N739 C742 1.350 . S
N740 S738 1.610 . S
N740 C741 1.351 . S
C741 C735 1.428 . S
C741 N740 1.351 . S
C741 C742 1.434 . S
C742 C733 1.429 . S
C742 N739 1.350 . S
C742 C741 1.434 . S
C743 C744 1.369 . S
C743 C745 1.419 . S
C743 H747 0.930 . S
C744 C743 1.369 . S
C744 C753 1.429 . S
C745 C743 1.419 . S
C745 C746 1.363 . S
C745 H748 0.929 . S
C746 C745 1.363 . S
C746 C752 1.428 . S
H747 C743 0.930 . S
H748 C745 0.929 . S
S749 N750 1.613 . S
S749 N751 1.610 . S
N750 S749 1.613 . S
N750 C753 1.350 . S
N751 S749 1.610 . S
N751 C752 1.351 . S
C752 C746 1.428 . S
C752 N751 1.351 . S
C752 C753 1.434 . S
C753 C744 1.429 . S
C753 N750 1.350 . S
C753 C752 1.434 . S
C754 C755 1.369 . S
C754 C756 1.419 . S
C754 H758 0.930 . S
C755 C754 1.369 . S
C755 C764 1.429 . S
C756 C754 1.419 . S
C756 C757 1.363 . S
C756 H759 0.929 . S
C757 C756 1.363 . S
C757 C763 1.428 . S
H758 C754 0.930 . S
H759 C756 0.929 . S
S760 N761 1.613 . S
S760 N762 1.610 . S
N761 S760 1.613 . S
N761 C764 1.350 . S
N762 S760 1.610 . S
N762 C763 1.351 . S
C763 C757 1.428 . S
C763 N762 1.351 . S
C763 C764 1.434 . S
C764 C755 1.429 . S
C764 N761 1.350 . S
C764 C763 1.434 . S
C765 C766 1.369 . S
C765 C767 1.419 . S
C765 H769 0.930 . S
C766 C765 1.369 . S
C766 C775 1.429 . S
C767 C765 1.419 . S
C767 C768 1.363 . S
C767 H770 0.929 . S
C768 C767 1.363 . S
C768 C774 1.428 . S
H769 C765 0.930 . S
H770 C767 0.929 . S
S771 N772 1.613 . S
S771 N773 1.610 . S
N772 S771 1.613 . S
N772 C775 1.350 . S
N773 S771 1.610 . S
N773 C774 1.351 . S
C774 C768 1.428 . S
C774 N773 1.351 . S
C774 C775 1.434 . S
C775 C766 1.429 . S
C775 N772 1.350 . S
C775 C774 1.434 . S
C776 C777 1.369 . S
C776 C778 1.419 . S
C776 H780 0.930 . S
C777 C776 1.369 . S
C777 C786 1.429 . S
C778 C776 1.419 . S
C778 C779 1.363 . S
C778 H781 0.929 . S
C779 C778 1.363 . S
C779 C785 1.428 . S
H780 C776 0.930 . S
H781 C778 0.929 . S
S782 N783 1.613 . S
S782 N784 1.610 . S
N783 S782 1.613 . S
N783 C786 1.350 . S
N784 S782 1.610 . S
N784 C785 1.351 . S
C785 C779 1.428 . S
C785 N784 1.351 . S
C785 C786 1.434 . S
C786 C777 1.429 . S
C786 N783 1.350 . S
C786 C785 1.434 . S
C787 C788 1.369 . S
C787 C789 1.419 . S
C787 H791 0.930 . S
C788 C787 1.369 . S
C788 C797 1.429 . S
C789 C787 1.419 . S
C789 C790 1.363 . S
C789 H792 0.929 . S
C790 C789 1.363 . S
C790 C796 1.428 . S
H791 C787 0.930 . S
H792 C789 0.929 . S
S793 N794 1.613 . S
S793 N795 1.610 . S
N794 S793 1.613 . S
N794 C797 1.350 . S
N795 S793 1.610 . S
N795 C796 1.351 . S
C796 C790 1.428 . S
C796 N795 1.351 . S
C796 C797 1.434 . S
C797 C788 1.429 . S
C797 N794 1.350 . S
C797 C796 1.434 . S
C798 C799 1.369 . S
C798 C800 1.419 . S
C798 H802 0.930 . S
C799 C798 1.369 . S
C799 C808 1.429 . S
C800 C798 1.419 . S
C800 C801 1.363 . S
C800 H803 0.929 . S
C801 C800 1.363 . S
C801 C807 1.428 . S
H802 C798 0.930 . S
H803 C800 0.929 . S
S804 N805 1.613 . S
S804 N806 1.610 . S
N805 S804 1.613 . S
N805 C808 1.350 . S
N806 S804 1.610 . S
N806 C807 1.351 . S
C807 C801 1.428 . S
C807 N806 1.351 . S
C807 C808 1.434 . S
C808 C799 1.429 . S
C808 N805 1.350 . S
C808 C807 1.434 . S
C809 C810 1.369 . S
C809 C811 1.419 . S
C809 H813 0.930 . S
C810 C809 1.369 . S
C810 C819 1.429 . S
C811 C809 1.419 . S
C811 C812 1.363 . S
C811 H814 0.929 . S
C812 C811 1.363 . S
C812 C818 1.428 . S
H813 C809 0.930 . S
H814 C811 0.929 . S
S815 N816 1.613 . S
S815 N817 1.610 . S
N816 S815 1.613 . S
N816 C819 1.350 . S
N817 S815 1.610 . S
N817 C818 1.351 . S
C818 C812 1.428 . S
C818 N817 1.351 . S
C818 C819 1.434 . S
C819 C810 1.429 . S
C819 N816 1.350 . S
C819 C818 1.434 . S
C820 C821 1.369 . S
C820 C822 1.419 . S
C820 H824 0.930 . S
C821 C820 1.369 . S
C821 C830 1.429 . S
C822 C820 1.419 . S
C822 C823 1.363 . S
C822 H825 0.929 . S
C823 C822 1.363 . S
C823 C829 1.428 . S
H824 C820 0.930 . S
H825 C822 0.929 . S
S826 N827 1.613 . S
S826 N828 1.610 . S
N827 S826 1.613 . S
N827 C830 1.350 . S
N828 S826 1.610 . S
N828 C829 1.351 . S
C829 C823 1.428 . S
C829 N828 1.351 . S
C829 C830 1.434 . S
C830 C821 1.429 . S
C830 N827 1.350 . S
C830 C829 1.434 . S
C831 C832 1.369 . S
C831 C833 1.419 . S
C831 H835 0.930 . S
C832 C831 1.369 . S
C832 C841 1.429 . S
C833 C831 1.419 . S
C833 C834 1.363 . S
C833 H836 0.929 . S
C834 C833 1.363 . S
C834 C840 1.428 . S
H835 C831 0.930 . S
H836 C833 0.929 . S
S837 N838 1.613 . S
S837 N839 1.610 . S
N838 S837 1.613 . S
N838 C841 1.350 . S
N839 S837 1.610 . S
N839 C840 1.351 . S
C840 C834 1.428 . S
C840 N839 1.351 . S
C840 C841 1.434 . S
C841 C832 1.429 . S
C841 N838 1.350 . S
C841 C840 1.434 . S
C842 C843 1.369 . S
C842 C844 1.419 . S
C842 H846 0.930 . S
C843 C842 1.369 . S
C843 C852 1.429 . S
C844 C842 1.419 . S
C844 C845 1.363 . S
C844 H847 0.929 . S
C845 C844 1.363 . S
C845 C851 1.428 . S
H846 C842 0.930 . S
H847 C844 0.929 . S
S848 N849 1.613 . S
S848 N850 1.610 . S
N849 S848 1.613 . S
N849 C852 1.350 . S
N850 S848 1.610 . S
N850 C851 1.351 . S
C851 C845 1.428 . S
C851 N850 1.351 . S
C851 C852 1.434 . S
C852 C843 1.429 . S
C852 N849 1.350 . S
C852 C851 1.434 . S
C853 C854 1.369 . S
C853 C855 1.419 . S
C853 H857 0.930 . S
C854 C853 1.369 . S
C854 C863 1.429 . S
C855 C853 1.419 . S
C855 C856 1.363 . S
C855 H858 0.929 . S
C856 C855 1.363 . S
C856 C862 1.428 . S
H857 C853 0.930 . S
H858 C855 0.929 . S
S859 N860 1.613 . S
S859 N861 1.610 . S
N860 S859 1.613 . S
N860 C863 1.350 . S
N861 S859 1.610 . S
N861 C862 1.351 . S
C862 C856 1.428 . S
C862 N861 1.351 . S
C862 C863 1.434 . S
C863 C854 1.429 . S
C863 N860 1.350 . S
C863 C862 1.434 . S
C515 C433 1.537 . S
C513 C45 1.558 . S
C524 C78 1.541 1_545 S
C526 C465 1.536 . S
C535 C126 1.545 . S
C537 C488 1.548 . S
C548 C392 1.551 . S
C546 C174 1.547 1_565 S
C559 C475 1.375 . S
C557 C36 1.541 . S
C570 C504 1.397 . S
C568 C69 1.533 1_545 S
C581 C408 1.392 . S
C579 C117 1.534 . S
C592 C443 1.376 . S
C590 C165 1.534 1_565 S
C601 C30 1.539 . S
C603 C471 1.391 . S
C612 C228 1.534 1_565 S
C614 C446 1.379 . S
C623 C141 1.514 . S
C625 C414 1.383 . S
C636 C503 1.393 . S
C634 C270 1.538 1_545 S
C647 C447 1.534 . S
C645 C21 1.562 . S
C656 C237 1.543 1_565 S
C658 C415 1.538 . S
C667 C132 1.559 . S
C669 C502 1.556 . S
C680 C470 1.556 . S
C678 C261 1.564 1_545 S
C689 C333 1.556 . S
C691 C497 1.532 . S
C700 C213 1.556 . S
C702 C401 1.539 . S
C711 C357 1.557 . S
C713 C424 1.554 . S
C722 C285 1.556 . S
C724 C456 1.551 . S
C735 C411 1.386 . S
C733 C324 1.542 . S
C744 C222 1.521 . S
C746 C440 1.385 . S
C755 C366 1.515 . S
C757 C472 1.391 . S
C768 C507 1.383 . S
C766 C276 1.542 . S
C777 C318 1.537 . S
C779 C407 1.392 . S
C788 C93 1.516 . S
C790 C510 1.383 . S
C799 C372 1.531 . S
C801 C478 1.386 . S
C812 C439 1.388 . S
C810 C189 1.521 . S
C823 C511 1.541 . S
C821 C309 1.565 . S
C834 C479 1.541 . S
C832 C84 1.559 . S
C845 C438 1.551 . S
C843 C381 1.547 . S
C856 C406 1.553 . S
C854 C180 1.556 . S
