# Generated by pormake.
# Topology zzz, (3,6)-cn, num edge types: 1
# Building blocks:
#     Node 0, Type 0, BuildingBlock: ESEHIV_clean_linker_0, # of connection points: 3
#     Node 1, Type 0, BuildingBlock: ESEHIV_clean_linker_0, # of connection points: 3
#     Node 2, Type 0, BuildingBlock: ESEHIV_clean_linker_0, # of connection points: 3
#     Node 3, Type 0, BuildingBlock: ESEHIV_clean_linker_0, # of connection points: 3
#     Node 4, Type 0, BuildingBlock: ESEHIV_clean_linker_0, # of connection points: 3
#     Node 5, Type 0, BuildingBlock: ESEHIV_clean_linker_0, # of connection points: 3
#     Node 6, Type 0, BuildingBlock: ESEHIV_clean_linker_0, # of connection points: 3
#     Node 7, Type 0, BuildingBlock: ESEHIV_clean_linker_0, # of connection points: 3
#     Node 8, Type 1, BuildingBlock: KUMBOL_clean_sbu_1, # of connection points: 6
#     Node 9, Type 1, BuildingBlock: KUMBOL_clean_sbu_1, # of connection points: 6
#     Node 10, Type 1, BuildingBlock: KUMBOL_clean_sbu_1, # of connection points: 6
#     Node 11, Type 1, BuildingBlock: KUMBOL_clean_sbu_1, # of connection points: 6
#     Edge 12, Type (0, 1), BuildingBlock: OJICUG_clean_linker_0, # of connection points: 2
#     Edge 13, Type (0, 1), BuildingBlock: OJICUG_clean_linker_0, # of connection points: 2
#     Edge 14, Type (0, 1), BuildingBlock: OJICUG_clean_linker_0, # of connection points: 2
#     Edge 15, Type (0, 1), BuildingBlock: OJICUG_clean_linker_0, # of connection points: 2
#     Edge 16, Type (0, 1), BuildingBlock: OJICUG_clean_linker_0, # of connection points: 2
#     Edge 17, Type (0, 1), BuildingBlock: OJICUG_clean_linker_0, # of connection points: 2
#     Edge 18, Type (0, 1), BuildingBlock: OJICUG_clean_linker_0, # of connection points: 2
#     Edge 19, Type (0, 1), BuildingBlock: OJICUG_clean_linker_0, # of connection points: 2
#     Edge 20, Type (0, 1), BuildingBlock: OJICUG_clean_linker_0, # of connection points: 2
#     Edge 21, Type (0, 1), BuildingBlock: OJICUG_clean_linker_0, # of connection points: 2
#     Edge 22, Type (0, 1), BuildingBlock: OJICUG_clean_linker_0, # of connection points: 2
#     Edge 23, Type (0, 1), BuildingBlock: OJICUG_clean_linker_0, # of connection points: 2
#     Edge 24, Type (0, 1), BuildingBlock: OJICUG_clean_linker_0, # of connection points: 2
#     Edge 25, Type (0, 1), BuildingBlock: OJICUG_clean_linker_0, # of connection points: 2
#     Edge 26, Type (0, 1), BuildingBlock: OJICUG_clean_linker_0, # of connection points: 2
#     Edge 27, Type (0, 1), BuildingBlock: OJICUG_clean_linker_0, # of connection points: 2
#     Edge 28, Type (0, 1), BuildingBlock: OJICUG_clean_linker_0, # of connection points: 2
#     Edge 29, Type (0, 1), BuildingBlock: OJICUG_clean_linker_0, # of connection points: 2
#     Edge 30, Type (0, 1), BuildingBlock: OJICUG_clean_linker_0, # of connection points: 2
#     Edge 31, Type (0, 1), BuildingBlock: OJICUG_clean_linker_0, # of connection points: 2
#     Edge 32, Type (0, 1), BuildingBlock: OJICUG_clean_linker_0, # of connection points: 2
#     Edge 33, Type (0, 1), BuildingBlock: OJICUG_clean_linker_0, # of connection points: 2
#     Edge 34, Type (0, 1), BuildingBlock: OJICUG_clean_linker_0, # of connection points: 2
#     Edge 35, Type (0, 1), BuildingBlock: OJICUG_clean_linker_0, # of connection points: 2
# Relax obj value: 0.450
# Max RMSD: 0.197
# Mean RMSD: 0.188
data_MOF--net-zzz--node1-KUMBOL_clean_sbu_1--node2-ESEHIV_clean_linker_0--edge1-OJICUG_clean_linker_0
_symmetry_space_group_name_H-M    P1
_symmetry_Int_Tables_number       1
_symmetry_cell_setting            triclinic
loop_
_symmetry_equiv_pos_as_xyz
'x, y, z'
_cell_length_a     30.684387
_cell_length_b     30.692702
_cell_length_c     11.432057
_cell_angle_alpha  89.781286
_cell_angle_beta   89.940646
_cell_angle_gamma 90.499987
loop_
_atom_site_label
_atom_site_type_symbol
_atom_site_fract_x
_atom_site_fract_y
_atom_site_fract_z
_atom_type_partial_charge
H0 H 0.83891 0.51324 0.25845 0.0
H1 H 0.72756 0.55003 0.06526 0.0
H2 H 0.72548 0.5607 0.44315 0.0
C3 C 0.80698 0.52799 0.26037 0.0
C4 C 0.78838 0.54092 0.36708 0.0
C5 C 0.78421 0.53044 0.15532 0.0
C6 C 0.74389 0.54936 0.14979 0.0
C7 C 0.72043 0.55794 0.25079 0.0
C8 C 0.74293 0.55444 0.36277 0.0
H9 H 0.96004 0.83724 0.30165 0.0
H10 H 0.94684 0.71081 0.15562 0.0
H11 H 0.05356 0.74028 0.38952 0.0
C12 C 0.96965 0.80374 0.29754 0.0
C13 C 1.00298 0.79041 0.37329 0.0
C14 C 0.95467 0.77713 0.20553 0.0
C15 C 0.96371 0.73291 0.21429 0.0
C16 C 1.00377 0.72048 0.26139 0.0
C17 C 0.02367 0.74944 0.34607 0.0
H18 H 0.69946 0.9692 0.28203 0.0
H19 H 0.81706 0.95046 0.09441 0.0
H20 H 0.8178 0.02825 0.41024 0.0
C21 C 0.73465 0.97263 0.27805 0.0
C22 C 0.75545 0.996 0.36727 0.0
C23 C 0.75656 0.96161 0.17443 0.0
C24 C 0.80161 0.96181 0.17404 0.0
C25 C 0.82482 0.98888 0.25069 0.0
C26 C 0.80122 1.00677 0.34965 0.0
H27 H 0.60396 0.72834 0.31283 0.0
H28 H 0.50499 0.82281 0.3834 0.0
H29 H 0.61284 0.85275 0.1523 0.0
C30 C 0.59205 0.76114 0.30392 0.0
C31 C 0.60607 0.78667 0.20858 0.0
C32 C 0.55659 0.77355 0.37382 0.0
C33 C 0.5357 0.81418 0.3434 0.0
C34 C 0.55652 0.84372 0.26086 0.0
C35 C 0.59667 0.83111 0.21411 0.0
H36 H 0.21371 0.45374 0.13461 0.0
H37 H 0.31156 0.45353 0.38508 0.0
H38 H 0.32371 0.54057 0.08683 0.0
C39 C 0.24556 0.46512 0.15941 0.0
C40 C 0.26548 0.49762 0.09043 0.0
C41 C 0.25623 0.46278 0.27776 0.0
C42 C 0.30051 0.46548 0.301 0.0
C43 C 0.32621 0.49596 0.23924 0.0
C44 C 0.30691 0.51478 0.13388 0.0
H45 H 0.02311 0.20865 0.23266 0.0
H46 H 0.05505 0.32075 0.43173 0.0
H47 H 0.05482 0.32938 0.05424 0.0
C48 C 0.03549 0.2419 0.23329 0.0
C49 C 0.04354 0.26375 0.12743 0.0
C50 C 0.03779 0.26355 0.33997 0.0
C51 C 0.0543 0.30533 0.34632 0.0
C52 C 0.05786 0.33109 0.24652 0.0
C53 C 0.0528 0.31016 0.13367 0.0
H54 H 0.33486 0.01964 0.25308 0.0
H55 H 0.21884 0.04443 0.4399 0.0
H56 H 0.2201 0.06127 0.06452 0.0
C57 C 0.30185 0.03191 0.25006 0.0
C58 C 0.28304 0.04377 0.14229 0.0
C59 C 0.27731 0.02966 0.35289 0.0
C60 C 0.23644 0.04709 0.35765 0.0
C61 C 0.21424 0.0579 0.25603 0.0
C62 C 0.23737 0.05572 0.14528 0.0
H63 H 0.49196 0.35523 0.19921 0.0
H64 H 0.49108 0.22851 1.04018 0.0
H65 H 0.47486 0.24438 0.41303 0.0
C66 C 0.48423 0.32084 0.20467 0.0
C67 C 0.48835 0.3009 0.31295 0.0
C68 C 0.4856 0.29625 0.10233 0.0
C69 C 0.48568 0.24906 0.11545 0.0
C70 C 0.47975 0.22966 0.23088 0.0
C71 C 0.47589 0.25783 0.32552 0.0
C72 C 0.15045 0.0862 0.8841 0.0
C73 C 0.13008 0.12647 0.05772 0.0
C74 C 0.12166 0.09334 0.97563 0.0
C75 C 0.16849 0.15143 0.04858 0.0
C76 C 0.18919 0.11102 0.87494 0.0
C77 C 0.19808 0.14359 0.95777 0.0
N78 N 0.1402 0.05552 0.80303 0.0
C79 C 0.16833 0.04657 0.71369 0.0
C80 C 0.21797 0.1022 0.78325 0.0
C81 C 0.20772 0.06952 0.70316 0.0
Gd82 Gd 0.96842 0.03866 0.66533 0.0
Gd83 Gd 0.07394 1.01795 0.83119 0.0
N84 N 0.08419 0.0694 0.98057 0.0
C85 C 0.09907 0.13421 0.14491 0.0
C86 C 0.0559 0.07424 0.07166 0.0
C87 C 0.06234 0.10728 0.15358 0.0
H88 H 0.02839 0.05284 0.08231 0.0
H89 H 0.03913 0.11178 0.22376 0.0
H90 H 1.01302 0.03231 0.39201 0.0
H91 H 0.16107 0.02091 0.65208 0.0
H92 H 0.01803 0.97745 0.23791 0.0
H93 H 0.10376 0.16012 0.20786 0.0
H94 H 0.17556 0.17692 0.1112 0.0
H95 H 0.89239 1.00069 0.85452 0.0
H96 H 0.24834 0.12016 0.77405 0.0
H97 H 0.23038 0.06188 0.63397 0.0
H98 H 0.90192 0.87754 0.33011 0.0
H99 H 0.22771 0.16293 0.95222 0.0
H100 H 0.82898 0.8916 0.69658 0.0
H101 H 0.83771 0.94182 0.86378 0.0
N102 N 0.91743 0.98191 0.68909 0.0
C103 C 0.912 0.95583 0.59409 0.0
C104 C 0.89079 0.97756 0.78432 0.0
C105 C 0.85375 0.91695 0.69326 0.0
C106 C 0.85885 0.94491 0.78826 0.0
C107 C 0.88049 0.92212 0.59485 0.0
H108 H 0.85246 0.86873 0.49629 0.0
N109 N 0.96957 0.99474 0.49815 0.0
C110 C 0.9398 0.96144 0.4982 0.0
C111 C 0.96904 0.93579 0.3155 0.0
C112 C 0.93809 0.93169 0.405 0.0
C113 C 0.99478 1.00254 0.40187 0.0
C114 C 0.99648 0.97217 0.31178 0.0
O115 O 0.06183 0.09096 0.80011 0.0
O116 O 0.98756 0.09617 0.78607 0.0
O117 O 0.94137 0.07962 0.52875 0.0
O118 O 0.9006 0.05709 0.67055 0.0
O119 O 1.00778 0.99955 0.92247 0.0
O120 O 0.96032 0.05093 0.85785 0.0
O121 O 0.98791 0.96695 0.70651 0.0
O122 O 0.06095 0.96757 0.68727 0.0
O123 O 0.08214 0.97765 0.98477 0.0
O124 O 0.13153 0.97768 0.84989 0.0
O125 O 0.03083 0.06581 0.57401 0.0
O126 O 0.08106 1.01571 0.63401 0.0
C127 C 0.02588 0.11364 0.81317 0.0
C128 C 0.97235 0.02352 0.93888 0.0
C129 C 0.89088 0.128 0.61212 0.0
C130 C 0.91103 0.20357 0.64093 0.0
C131 C 0.83566 0.18062 0.6633 0.0
C132 C 0.84726 0.13783 0.63601 0.0
C133 C 0.86729 0.21374 0.6629 0.0
C134 C 0.92264 0.16034 0.62188 0.0
C135 C 0.90427 0.08379 0.58363 0.0
C136 C 0.90569 0.89904 0.40404 0.0
C137 C 0.87693 0.89438 0.49825 0.0
H138 H 0.97036 0.9126 0.24496 0.0
C139 C 0.02362 0.94742 0.6699 0.0
C140 C 0.06882 0.04604 0.56005 0.0
C141 C 0.11002 0.91066 0.92776 0.0
C142 C 0.05945 0.84952 0.91492 0.0
C143 C 0.13759 0.83728 0.93454 0.0
C144 C 0.14509 0.88221 0.93854 0.0
C145 C 0.09499 0.82088 0.92577 0.0
C146 C 0.06814 0.89412 0.907 0.0
C147 C 0.11567 0.95768 0.94069 0.0
H148 H 0.80188 0.18844 0.6795 0.0
H149 H 0.82237 0.11262 0.63278 0.0
H150 H 0.85743 0.2473 0.67284 0.0
H151 H 0.95633 0.15252 0.60275 0.0
H152 H 0.16458 0.8151 0.94433 0.0
H153 H 0.17785 0.89467 0.95161 0.0
H154 H 0.09002 0.78607 0.93436 0.0
H155 H 0.04154 0.91649 0.89378 0.0
C156 C 0.52208 0.88318 0.66092 0.0
C157 C 0.45792 0.84569 0.73799 0.0
C158 C 0.47947 0.88447 0.70251 0.0
C159 C 0.47901 0.80577 0.72736 0.0
C160 C 0.54393 0.84297 0.65564 0.0
C161 C 0.52224 0.80464 0.6898 0.0
N162 N 0.54162 0.92066 0.62239 0.0
C163 C 0.58195 0.91894 0.5711 0.0
C164 C 0.58655 0.84213 0.61281 0.0
C165 C 0.60537 0.88017 0.56873 0.0
Gd166 Gd 0.52741 0.0804 0.8126 0.0
Gd167 Gd 0.49606 0.98244 0.61833 0.0
N168 N 0.45914 0.92355 0.70961 0.0
C169 C 0.41594 0.8481 0.78477 0.0
C170 C 0.41784 0.92574 0.75483 0.0
C171 C 0.396 0.88842 0.79425 0.0
H172 H 0.40024 0.95554 0.75614 0.0
H173 H 0.36328 0.89072 0.82903 0.0
H174 H 0.63517 0.10258 0.75155 0.0
H175 H 0.59571 0.94636 0.52526 0.0
H176 H 0.67703 0.15825 0.64689 0.0
H177 H 0.39871 0.81907 0.81402 0.0
H178 H 0.46291 0.77567 0.753 0.0
H179 H 0.42988 0.12409 0.85999 0.0
H180 H 0.60454 0.81201 0.6088 0.0
H181 H 0.63739 0.87938 0.52901 0.0
H182 H 0.5736 0.2673 0.55904 0.0
H183 H 0.5389 0.77392 0.69157 0.0
H184 H 0.42695 0.24779 0.68897 0.0
H185 H 0.38992 0.19035 0.80512 0.0
N186 N 0.48578 0.14028 0.75875 0.0
C187 C 0.50779 0.17219 0.6991 0.0
C188 C 0.44495 0.14733 0.80177 0.0
C189 C 0.44381 0.21771 0.70792 0.0
C190 C 0.42274 0.18538 0.77332 0.0
C191 C 0.48721 0.21198 0.67357 0.0
H192 H 0.496 0.27696 0.60465 0.0
N193 N 0.57292 0.12951 0.70919 0.0
C194 C 0.55211 0.16639 0.67207 0.0
C195 C 0.62094 0.19683 0.60573 0.0
C196 C 0.57595 0.20103 0.62063 0.0
C197 C 0.61752 0.12781 0.70664 0.0
C198 C 0.64187 0.16041 0.65079 0.0
O199 O 0.49906 0.96445 0.8126 0.0
O200 O 0.54421 1.01459 0.90084 0.0
O201 O 0.52337 0.08685 1.00296 0.0
O202 O 0.55046 0.13841 0.90069 0.0
O203 O 0.43641 0.01923 0.70103 0.0
O204 O 0.46281 0.05128 0.87022 0.0
O205 O 0.4843 0.08856 0.64885 0.0
O206 O 0.51916 0.04437 0.52657 0.0
O207 O 0.44575 0.98575 0.48561 0.0
O208 O 0.5001 0.94238 0.46305 0.0
O209 O 0.58852 0.04329 0.74788 0.0
O210 O 0.56406 1.01113 0.57901 0.0
C211 C 0.52276 0.97688 0.90266 0.0
C212 C 0.43018 0.03551 0.80852 0.0
C213 C 0.58898 0.12024 0.05955 0.0
C214 C 0.65893 0.08454 0.0541 0.0
C215 C 0.65209 0.15589 0.14374 0.0
C216 C 0.60798 0.15659 0.1132 0.0
C217 C 0.67762 0.11985 0.11487 0.0
C218 C 0.61494 0.08537 1.02766 0.0
C219 C 0.54673 0.12241 1.00374 0.0
C220 C 0.55512 0.24025 0.59432 0.0
C221 C 0.51112 0.24583 0.62137 0.0
H222 H 0.64016 0.22278 0.56623 0.0
C223 C 0.49908 0.08108 0.54306 0.0
C224 C 0.59648 0.02528 0.64487 0.0
C225 C 0.43473 0.92212 0.374 0.0
C226 C 0.36373 0.89316 0.4117 0.0
C227 C 0.39062 0.89856 0.21142 0.0
C228 C 0.42779 0.91984 0.25341 0.0
C229 C 0.35772 0.88625 0.29033 0.0
C230 C 0.40655 0.89968 0.44912 0.0
C231 C 0.46361 0.95585 0.42053 0.0
H232 H 0.66672 0.18368 0.18703 0.0
H233 H 0.58953 0.18608 0.12523 0.0
H234 H 0.71162 0.11963 0.14001 0.0
H235 H 0.60137 0.05964 0.97506 0.0
H236 H 0.38494 0.89666 0.11815 0.0
H237 H 0.44939 0.93664 0.19311 0.0
H238 H 0.32611 0.8778 0.25485 0.0
H239 H 0.41266 0.90055 0.54098 0.0
C240 C 0.39835 0.48061 0.91993 0.0
C241 C 0.425 0.44279 0.09195 0.0
C242 C 0.4295 0.4759 1.00723 0.0
C243 C 0.38846 0.41494 0.08917 0.0
C244 C 0.36167 0.45269 0.91671 0.0
C245 C 0.35673 0.42007 1.00231 0.0
N246 N 0.40513 0.51105 0.83489 0.0
C247 C 0.37518 0.51704 0.74827 0.0
C248 C 0.33162 0.4577 0.82581 0.0
C249 C 0.33813 0.49035 0.74211 0.0
Gd250 Gd 0.57041 0.52535 0.67765 0.0
Gd251 Gd 0.46934 0.55271 0.85074 0.0
N252 N 0.46527 0.50244 1.00588 0.0
C253 C 0.45746 0.43867 0.17704 0.0
C254 C 0.49433 0.50133 0.09598 0.0
C255 C 0.49163 0.46879 0.18106 0.0
H256 H 0.51863 0.5262 0.10585 0.0
H257 H 0.51523 0.46765 0.25131 0.0
H258 H 0.52333 0.53903 0.40953 0.0
H259 H 0.37948 0.54262 0.68415 0.0
H260 H 0.52725 0.59168 0.24912 0.0
H261 H 0.45474 0.41429 0.24519 0.0
H262 H 0.3845 0.38927 0.1537 0.0
H263 H 0.65453 0.55007 0.8564 0.0
H264 H 0.3035 0.43634 0.81896 0.0
H265 H 0.31477 0.49483 0.67244 0.0
H266 H 0.65613 0.67508 0.33088 0.0
H267 H 0.32873 0.39833 1.00131 0.0
H268 H 0.73132 0.64892 0.68977 0.0
H269 H 0.71769 0.59977 0.85805 0.0
N270 N 0.63016 0.5731 0.69346 0.0
C271 C 0.63796 0.59855 0.59793 0.0
C272 C 0.65864 0.57286 0.78532 0.0
C273 C 0.70294 0.62768 0.68965 0.0
C274 C 0.69519 0.60027 0.78518 0.0
C275 C 0.67422 0.62711 0.59461 0.0
H276 H 0.70839 0.67628 0.49277 0.0
N277 N 0.57402 0.56908 0.50908 0.0
C278 C 0.60865 0.5972 0.50469 0.0
C279 C 0.583 0.62528 0.32009 0.0
C280 C 0.61423 0.62576 0.40908 0.0
C281 C 0.54681 0.56501 0.41523 0.0
C282 C 0.54988 0.59401 0.32145 0.0
O283 O 0.47751 0.47916 0.80741 0.0
O284 O 0.55101 0.47029 0.8039 0.0
O285 O 0.58645 0.48037 0.53952 0.0
O286 O 0.63429 0.49532 0.67624 0.0
O287 O 0.53623 0.57291 0.93223 0.0
O288 O 0.57988 0.51776 0.87297 0.0
O289 O 0.55896 0.59839 0.71211 0.0
O290 O 0.48549 0.60493 0.71143 0.0
O291 O 0.45656 0.58787 1.01003 0.0
O292 O 0.41277 0.59475 0.8638 0.0
O293 O 0.50374 0.50631 0.5912 0.0
O294 O 0.45736 0.55908 0.65632 0.0
C295 C 0.51181 0.45399 0.82307 0.0
C296 C 0.57127 0.54862 0.94805 0.0
C297 C 0.65737 0.44613 0.52448 0.0
C298 C 0.64724 0.37405 0.45526 0.0
C299 C 0.70973 0.39047 0.57581 0.0
C300 C 0.6951 0.4335 0.58522 0.0
C301 C 0.68398 0.35978 0.51655 0.0
C302 C 0.64028 0.41846 0.44047 0.0
C303 C 0.62582 0.47489 0.5801 0.0
C304 C 0.65058 0.65385 0.40523 0.0
C305 C 0.68057 0.65435 0.49725 0.0
H306 H 0.5851 0.64774 0.24759 0.0
C307 C 0.52411 0.62098 0.68409 0.0
C308 C 0.4677 0.52984 0.578 0.0
C309 C 0.43325 0.65748 0.96525 0.0
C310 C 0.48631 0.71679 0.96887 0.0
C311 C 0.40889 0.73098 0.99782 0.0
C312 C 0.3995 0.68658 0.98709 0.0
C313 C 0.45203 0.74597 0.99126 0.0
C314 C 0.47596 0.67303 0.94986 0.0
C315 C 0.42547 0.61056 0.96329 0.0
H316 H 0.73756 0.3799 0.62619 0.0
H317 H 0.71011 0.45493 0.64888 0.0
H318 H 0.69042 0.32533 0.52666 0.0
H319 H 0.61193 0.4287 0.39078 0.0
H320 H 0.38291 0.75363 1.01576 0.0
H321 H 0.36628 0.67494 0.99744 0.0
H322 H 0.45838 0.78006 1.00785 0.0
H323 H 0.50162 0.65043 0.92868 0.0
C324 C 0.09542 0.41293 0.87465 0.0
C325 C 0.12474 0.43254 0.06427 0.0
C326 C 0.09581 0.44056 0.97142 0.0
C327 C 0.15219 0.39618 0.06066 0.0
C328 C 0.12361 0.37688 0.87008 0.0
C329 C 0.15189 0.36869 0.96358 0.0
N330 N 0.06718 0.42107 0.78563 0.0
C331 C 0.06419 0.39317 0.6928 0.0
C332 C 0.12197 0.34947 0.77274 0.0
C333 C 0.09195 0.35753 0.68412 0.0
Gd334 Gd 0.03591 0.58267 0.63475 0.0
Gd335 Gd 0.01976 0.47977 0.81683 0.0
N336 N 0.06785 0.4749 0.97537 0.0
C337 C 0.12475 0.46088 0.15945 0.0
C338 C 0.06539 0.50016 0.07319 0.0
C339 C 0.09466 0.49446 0.16484 0.0
H340 H 0.04027 0.52382 0.08437 0.0
H341 H 0.09309 0.51507 0.24134 0.0
H342 H 0.01904 0.52834 0.37579 0.0
H343 H 0.03872 0.39664 0.62884 0.0
H344 H 0.95839 0.51571 0.24174 0.0
H345 H 0.14658 0.45578 0.23219 0.0
H346 H 0.17365 0.38879 0.13308 0.0
H347 H 1.00583 0.66671 0.80314 0.0
H348 H 0.14299 0.32139 0.7665 0.0
H349 H 0.08943 0.33556 0.61075 0.0
H350 H 0.86286 0.6342 0.3202 0.0
H351 H 0.17338 0.34087 0.9622 0.0
H352 H 0.89644 0.72778 0.6418 0.0
H353 H 0.95113 0.72535 0.79754 0.0
N354 N 0.9818 0.63597 0.64962 0.0
C355 C 0.95235 0.63731 0.5607 0.0
C356 C 0.98157 0.66691 0.73501 0.0
C357 C 0.92024 0.70191 0.64271 0.0
C358 C 0.95101 0.70039 0.73202 0.0
C359 C 0.92022 0.66986 0.55642 0.0
H360 H 0.86384 0.69384 0.46314 0.0
N361 N 0.98568 0.57483 0.4793 0.0
C362 C 0.95293 0.60456 0.47707 0.0
C363 C 0.92044 0.56831 0.31086 0.0
C364 C 0.91956 0.6022 0.39214 0.0
C365 C 0.98945 0.54573 0.39009 0.0
C366 C 0.95571 0.54001 0.30968 0.0
O367 O 0.09106 0.494 0.77054 0.0
O368 O 0.09472 0.56783 0.75949 0.0
O369 O 0.06914 0.60676 0.47973 0.0
O370 O 0.06286 0.64828 0.63006 0.0
O371 O 1.00639 0.54621 0.91331 0.0
O372 O 0.05071 0.59657 0.82227 0.0
O373 O 0.96525 0.56661 0.69858 0.0
O374 O 0.96369 0.49312 0.6889 0.0
O375 O 0.96961 0.46523 0.9457 0.0
O376 O 1.00021 0.41318 0.85117 0.0
O377 O 0.06205 0.51884 0.55213 0.0
O378 O 1.01066 0.47136 0.62146 0.0
C379 C 0.1129 0.53028 0.78887 0.0
C380 C 0.02839 0.58412 0.91397 0.0
C381 C 0.1302 0.64574 0.54142 0.0
C382 C 0.19763 0.60633 0.53868 0.0
C383 C 0.19821 0.68502 0.51688 0.0
C384 C 0.1526 0.68511 0.52375 0.0
C385 C 0.22067 0.64541 0.51963 0.0
C386 C 0.15333 0.60762 0.56164 0.0
C387 C 0.08302 0.64186 0.53247 0.0
C388 C 0.88796 0.63494 0.38675 0.0
C389 C 0.8886 0.66895 0.46788 0.0
H390 H 0.89584 0.56572 0.24349 0.0
C391 C 0.94317 0.53036 0.67586 0.0
C392 C 0.04105 0.48097 0.54451 0.0
C393 C 0.92624 0.40553 0.8804 0.0
C394 C 0.84926 0.41538 0.84387 0.0
C395 C 0.88124 0.34407 0.82047 0.0
C396 C 0.92184 0.36108 0.85354 0.0
C397 C 0.84469 0.37095 0.81806 0.0
C398 C 0.89047 0.4326 0.86914 0.0
C399 C 0.96816 0.42398 0.91747 0.0
H400 H 0.21577 0.71513 0.50019 0.0
H401 H 0.13497 0.71521 0.51164 0.0
H402 H 0.25498 0.64489 0.49731 0.0
H403 H 0.13583 0.57694 0.5713 0.0
H404 H 0.87776 0.30967 0.80221 0.0
H405 H 0.94957 0.33957 0.85928 0.0
H406 H 0.81271 0.3568 0.80324 0.0
H407 H 0.8938 0.46673 0.89216 0.0
C408 C 0.15223 0.09769 0.34913 0.0
C409 C 0.166 0.06185 0.28084 0.0
H410 H 0.11056 0.12157 0.48681 0.0
C411 C 0.14193 0.02269 0.29487 0.0
H412 H 0.17097 0.12775 0.34656 0.0
C413 C 0.10899 1.01841 0.38099 0.0
C414 C 0.09707 0.05364 0.45293 0.0
H415 H 0.15262 0.99355 0.2504 0.0
H416 H 0.09444 0.98659 0.39589 0.0
C417 C 0.11796 0.09391 0.43194 0.0
C418 C 0.52657 0.1698 0.31448 0.0
C419 C 0.48545 0.18264 0.2706 0.0
H420 H 0.56332 0.12767 0.42859 0.0
C421 C 0.44893 0.15944 0.3152 0.0
H422 H 0.55501 0.18956 0.29562 0.0
C423 C 0.45325 0.1263 0.4014 0.0
C424 C 0.4944 0.11408 0.44469 0.0
H425 H 0.41646 0.16973 0.29123 0.0
H426 H 0.42411 0.11103 0.43678 0.0
C427 C 0.5311 0.13532 0.39622 0.0
C428 C 0.39387 0.47355 0.35184 0.0
C429 C 0.36911 0.50766 0.30124 0.0
H430 H 0.4442 0.45316 0.47079 0.0
C431 C 0.37939 0.55015 0.33992 0.0
H432 H 0.38588 0.44004 0.33132 0.0
C433 C 0.41204 0.5575 0.42669 0.0
C434 C 0.43641 0.52284 0.47611 0.0
H435 H 0.36022 0.57738 0.30948 0.0
H436 H 0.41745 0.59041 0.45755 0.0
C437 C 0.42728 0.48091 0.43439 0.0
C438 C 0.0174 0.39972 0.29497 0.0
C439 C 0.05792 0.37918 0.27726 0.0
H440 H 0.98006 0.44592 0.39442 0.0
C441 C 0.0936 0.39616 0.34187 0.0
H442 H 0.98838 0.38619 0.25467 0.0
C443 C 0.0891 0.43154 0.42035 0.0
C444 C 0.04811 0.45 0.44271 0.0
H445 H 0.12477 0.37993 0.33752 0.0
H446 H 0.11719 0.44214 0.47036 0.0
C447 C 1.01246 0.43368 0.37757 0.0
C448 C 0.88214 0.04319 0.17066 0.0
C449 C 0.87052 1.00045 0.20569 0.0
H450 H 0.92292 0.08406 0.06028 0.0
C451 C 0.89629 0.96656 0.15895 0.0
H452 H 0.86226 0.0703 0.19794 0.0
C453 C 0.93058 0.97435 0.07922 0.0
C454 C 0.94134 1.01646 0.04141 0.0
H455 H 0.88747 0.93297 0.17672 0.0
H456 H 0.94642 0.9469 1.04008 0.0
C457 C 0.91674 0.05099 0.08963 0.0
C458 C 0.50958 0.87349 0.09811 0.0
C459 C 0.53615 0.882 0.19601 0.0
H460 H 0.48439 0.89521 0.93384 0.0
C461 C 0.55527 0.92414 0.20119 0.0
H462 H 0.49501 0.84153 0.08806 0.0
C463 C 0.54911 0.95559 0.11087 0.0
C464 C 0.5256 0.94561 1.00802 0.0
H465 H 0.57702 0.93208 0.27271 0.0
H466 H 0.56356 0.98753 0.12088 0.0
C467 C 0.50446 0.90439 1.00683 0.0
C468 C 0.64729 0.52344 0.20926 0.0
C469 C 0.67215 0.5622 0.22227 0.0
H470 H 0.59787 0.48836 0.11248 0.0
C471 C 0.65906 0.59796 0.15174 0.0
H472 H 0.65737 0.4942 0.25476 0.0
C473 C 0.62453 0.59463 0.06952 0.0
C474 C 0.60191 0.55508 0.0518 0.0
H475 H 0.67851 0.62757 0.15201 0.0
H476 H 0.61804 0.62211 1.01283 0.0
C477 C 0.61355 0.51977 0.12474 0.0
C478 C 0.05149 0.68647 0.10433 0.0
C479 C 0.02321 0.68095 0.20071 0.0
H480 H 0.07572 0.66116 0.94164 0.0
C481 C 0.99969 0.6414 0.20439 0.0
H482 H 0.06851 0.71722 0.09222 0.0
C483 C 1.00186 0.60963 0.11513 0.0
C484 C 0.0287 0.61562 1.01732 0.0
H485 H 0.9757 0.63796 0.27068 0.0
H486 H 0.98041 0.58164 0.11827 0.0
C487 C 0.05459 0.65432 1.0155 0.0
C488 C 0.01833 0.24081 0.54248 0.0
C489 C 1.00587 0.2529 0.42955 0.0
H490 H 0.9956 0.21837 0.70884 0.0
C491 C 0.96224 0.26244 0.40506 0.0
H492 H 0.05234 0.23592 0.56383 0.0
C493 C 0.93042 0.25482 0.48859 0.0
C494 C 0.94187 0.23608 0.59591 0.0
H495 H 0.95267 0.27458 0.31971 0.0
H496 H 0.89658 0.25793 0.46301 0.0
C497 C 0.98622 0.23262 0.6262 0.0
C498 C 0.32211 0.99538 0.50517 0.0
C499 C 0.28588 0.99387 0.43311 0.0
H500 H 0.37358 0.96015 0.57474 0.0
C501 C 0.26481 0.95381 0.41146 0.0
H502 H 0.33786 0.02616 0.52586 0.0
C503 C 0.2863 0.9151 0.43655 0.0
C504 C 0.32936 0.91743 0.47718 0.0
H505 H 0.23548 0.95244 0.35872 0.0
H506 H 0.27323 0.885 0.40143 0.0
C507 C 0.34242 0.95661 0.53348 0.0
C508 C 0.56817 0.29607 0.32418 0.0
C509 C 0.52895 0.31229 0.37128 0.0
H510 H 0.63762 0.30338 0.31525 0.0
C511 C 0.52979 0.34306 0.46006 0.0
H512 H 0.56771 0.2723 0.25437 0.0
C513 C 0.56971 0.35919 0.49771 0.0
C514 C 0.60869 0.34635 0.44193 0.0
H515 H 0.49983 0.35577 0.49621 0.0
H516 H 0.56997 0.38452 0.56356 0.0
C517 C 0.60801 0.31336 0.3589 0.0
C518 C 0.20225 0.522 0.30957 0.0
C519 C 0.22942 0.48993 0.35859 0.0
H520 H 0.17561 0.5852 0.32491 0.0
C521 C 0.24097 0.49404 0.47798 0.0
H522 H 0.1904 0.5205 0.22087 0.0
C523 C 0.23202 0.53249 0.53869 0.0
C524 C 0.21113 0.56656 0.48055 0.0
H525 H 0.25987 0.46917 0.52137 0.0
H526 H 0.24212 0.53601 0.62894 0.0
C527 C 0.19455 0.56016 0.36816 0.0
C528 C 0.97003 0.77204 0.99139 0.0
C529 C 0.95177 0.79616 0.08439 0.0
H530 H 0.02055 0.77042 0.86248 0.0
C531 C 0.95259 0.84157 0.07195 0.0
H532 H 0.9669 0.73704 0.98731 0.0
C533 C 0.98599 0.8606 1.00612 0.0
C534 C 1.0141 0.83445 0.93901 0.0
H535 H 0.93435 0.86185 0.13113 0.0
H536 H 0.99333 0.89439 1.02228 0.0
C537 C 1.00189 0.79105 0.92022 0.0
C538 C 0.69039 0.9672 0.05522 0.0
C539 C 0.7354 0.97365 0.06266 0.0
H540 H 0.63018 0.99991 0.05925 0.0
C541 C 0.75335 1.01096 1.00685 0.0
H542 H 0.67559 0.93754 0.0891 0.0
C543 C 0.72763 0.04775 0.99442 0.0
C544 C 0.68362 0.0451 1.02497 0.0
H545 H 0.78828 1.01561 0.99908 0.0
H546 H 0.74285 0.07874 0.97271 0.0
C547 C 0.66436 1.00362 0.04121 0.0
C548 C 0.60149 0.72023 0.08351 0.0
C549 C 0.60609 0.76583 0.0893 0.0
H550 H 0.55573 0.66877 0.05307 0.0
C551 C 0.58516 0.78932 0.99959 0.0
H552 H 0.62182 0.69954 0.13682 0.0
C553 C 0.54584 0.77323 0.95689 0.0
C554 C 0.53271 0.73041 0.98187 0.0
H555 H 0.59181 0.82358 0.98514 0.0
H556 H 0.52409 0.79592 0.91648 0.0
C557 C 0.56331 0.70263 1.03533 0.0
C558 C 0.80323 0.51563 0.94817 0.0
C559 C 0.79416 0.50053 0.06125 0.0
H560 H 0.82463 0.49749 0.77748 0.0
C561 C 0.78747 0.456 0.08206 0.0
H562 H 0.8058 0.55023 0.92997 0.0
C563 C 0.79572 0.42622 0.99435 0.0
C564 C 0.81273 0.44086 0.88726 0.0
H565 H 0.77744 0.44423 0.16761 0.0
H566 H 0.79544 0.39188 1.0169 0.0
C567 C 0.81192 0.48565 0.86019 0.0
C568 C 0.99638 0.21375 1.00216 0.0
C569 C 0.03678 0.23571 1.01839 0.0
H570 H 0.96114 0.15934 0.92823 0.0
C571 C 0.0725 0.21944 0.9546 0.0
H572 H 0.96818 0.224 0.05171 0.0
C573 C 0.06837 0.18184 0.88268 0.0
C574 C 0.02865 0.15813 0.87357 0.0
H575 H 0.1045 0.23388 0.96678 0.0
H576 H 0.09715 0.17005 0.83854 0.0
C577 C 0.99239 0.17594 0.93182 0.0
C578 C 0.341 1.00174 1.02884 0.0
C579 C 0.31256 0.03798 1.03384 0.0
H580 H 0.4 0.97384 0.96245 0.0
C581 C 0.31999 0.07088 0.94884 0.0
H582 H 0.33697 0.97506 0.09029 0.0
C583 C 0.35562 0.06854 0.86808 0.0
C584 C 0.38584 0.03372 0.87062 0.0
H585 H 0.29993 0.09972 0.94917 0.0
H586 H 0.36076 0.09531 0.80767 0.0
C587 C 0.37731 1.00045 0.95284 0.0
C588 C 0.45975 0.34552 0.93731 0.0
C589 C 0.49464 0.32433 0.9941 0.0
H590 H 0.43746 0.40075 0.83709 0.0
C591 C 0.5361 0.34464 0.98229 0.0
H592 H 0.42696 0.33278 0.94795 0.0
C593 C 0.54186 0.38512 0.92312 0.0
C594 C 0.50645 0.40752 0.87238 0.0
H595 H 0.56364 0.33123 1.029 0.0
H596 H 0.57394 0.4001 0.92328 0.0
C597 C 0.46564 0.38568 0.87632 0.0
C598 C 0.2134 0.55306 0.99244 0.0
C599 C 0.23686 0.51342 0.98793 0.0
H600 H 0.15712 0.58998 0.93533 0.0
C601 C 0.22068 0.48217 0.90763 0.0
H602 H 0.22263 0.57743 0.05626 0.0
C603 C 0.18269 0.48902 0.83975 0.0
C604 C 0.15797 0.52749 0.84815 0.0
H605 H 0.2354 0.4503 0.90462 0.0
H606 H 0.17145 0.46279 0.78407 0.0
C607 C 0.17501 0.56005 0.92359 0.0
C608 C 0.98381 0.83496 0.55332 0.0
C609 C 1.01533 0.82355 0.46824 0.0
H610 H 0.96164 0.88077 0.68282 0.0
C611 C 0.05115 0.85251 0.4561 0.0
H612 H 0.95484 0.81486 0.5634 0.0
C613 C 0.05469 0.89127 0.52424 0.0
C614 C 0.0221 0.90343 0.60577 0.0
H615 H 0.07529 0.84655 0.389 0.0
H616 H 0.08215 0.91293 0.50869 0.0
C617 C 0.98725 0.87361 0.62081 0.0
C618 C 0.71053 0.98214 0.55298 0.0
C619 C 0.72447 1.01151 0.46419 0.0
H620 H 0.66136 0.96362 0.68022 0.0
C621 C 0.69695 0.04764 0.44424 0.0
H622 H 0.72869 0.9525 0.56741 0.0
C623 C 0.65716 0.0533 0.5068 0.0
C624 C 0.64292 0.02345 0.59383 0.0
H625 H 0.70448 0.06991 0.37316 0.0
H626 H 0.63636 0.08019 0.4827 0.0
C627 C 0.67114 0.98825 0.61715 0.0
C628 C 0.50212 0.71942 0.47439 0.0
C629 C 0.54338 0.74026 0.46831 0.0
H630 H 0.46349 0.66591 0.54488 0.0
C631 C 0.57635 0.7228 0.54096 0.0
H632 H 0.47599 0.73055 0.41847 0.0
C633 C 0.569 0.68655 0.61486 0.0
C634 C 0.52886 0.66404 0.61661 0.0
H635 H 0.6088 0.73695 0.53901 0.0
H636 H 0.59567 0.67527 0.66847 0.0
C637 C 0.49505 0.68194 0.54701 0.0
C638 C 0.83125 0.57014 0.54808 0.0
C639 C 0.8185 0.53527 0.4746 0.0
H640 H 0.87864 0.59603 0.67088 0.0
C641 C 0.84396 0.49697 0.4847 0.0
H642 H 0.81345 0.60041 0.54432 0.0
C643 C 0.88247 0.49514 0.55292 0.0
C644 C 0.89765 0.53121 0.61783 0.0
H645 H 0.83575 0.46879 0.4321 0.0
H646 H 0.90164 0.46571 0.54973 0.0
C647 C 0.86966 0.56791 0.61927 0.0
loop_
_geom_bond_atom_site_label_1
_geom_bond_atom_site_label_2
_geom_bond_distance
_geom_bond_site_symmetry_2
_ccdc_geom_bond_type
H0 C3 0.931 . S
H1 C6 0.928 . S
H2 C8 0.930 . S
C3 H0 0.931 . S
C3 C4 1.413 . S
C3 C5 1.360 . S
C4 C3 1.413 . S
C4 C8 1.429 . S
C5 C3 1.360 . S
C5 C6 1.372 . S
C6 H1 0.928 . S
C6 C5 1.372 . S
C6 C7 1.404 . S
C7 C6 1.404 . S
C7 C8 1.391 . S
C8 H2 0.930 . S
C8 C4 1.429 . S
C8 C7 1.391 . S
H9 C12 0.931 . S
H10 C15 0.928 . S
H11 C17 0.930 . S
C12 H9 0.931 . S
C12 C13 1.413 . S
C12 C14 1.360 . S
C13 C12 1.413 . S
C13 C17 1.429 . S
C14 C12 1.360 . S
C14 C15 1.372 . S
C15 H10 0.928 . S
C15 C14 1.372 . S
C15 C16 1.404 . S
C16 C15 1.404 . S
C16 C17 1.391 . S
C17 H11 0.930 . S
C17 C13 1.429 . S
C17 C16 1.391 . S
H18 C21 0.931 . S
H19 C24 0.928 . S
H20 C26 0.930 . S
C21 H18 0.931 . S
C21 C22 1.413 . S
C21 C23 1.360 . S
C22 C21 1.413 . S
C22 C26 1.429 . S
C23 C21 1.360 . S
C23 C24 1.372 . S
C24 H19 0.928 . S
C24 C23 1.372 . S
C24 C25 1.404 . S
C25 C24 1.404 . S
C25 C26 1.391 . S
C26 H20 0.930 . S
C26 C22 1.429 . S
C26 C25 1.391 . S
H27 C30 0.931 . S
H28 C33 0.928 . S
H29 C35 0.930 . S
C30 H27 0.931 . S
C30 C31 1.413 . S
C30 C32 1.360 . S
C31 C30 1.413 . S
C31 C35 1.429 . S
C32 C30 1.360 . S
C32 C33 1.372 . S
C33 H28 0.928 . S
C33 C32 1.372 . S
C33 C34 1.404 . S
C34 C33 1.404 . S
C34 C35 1.391 . S
C35 H29 0.930 . S
C35 C31 1.429 . S
C35 C34 1.391 . S
H36 C39 0.931 . S
H37 C42 0.928 . S
H38 C44 0.930 . S
C39 H36 0.931 . S
C39 C40 1.413 . S
C39 C41 1.360 1_556 S
C40 C39 1.413 . S
C40 C44 1.429 . S
C41 C39 1.360 1_554 S
C41 C42 1.372 . S
C42 H37 0.928 . S
C42 C41 1.372 . S
C42 C43 1.404 . S
C43 C42 1.404 . S
C43 C44 1.391 1_554 S
C44 H38 0.930 . S
C44 C40 1.429 . S
C44 C43 1.391 1_556 S
H45 C48 0.931 . S
H46 C51 0.928 . S
H47 C53 0.930 . S
C48 H45 0.931 . S
C48 C49 1.413 . S
C48 C50 1.360 1_556 S
C49 C48 1.413 . S
C49 C53 1.429 . S
C50 C48 1.360 1_554 S
C50 C51 1.372 . S
C51 H46 0.928 . S
C51 C50 1.372 . S
C51 C52 1.404 . S
C52 C51 1.404 . S
C52 C53 1.391 1_554 S
C53 H47 0.930 . S
C53 C49 1.429 . S
C53 C52 1.391 1_556 S
H54 C57 0.931 . S
H55 C60 0.928 . S
H56 C62 0.930 . S
C57 H54 0.931 . S
C57 C58 1.413 . S
C57 C59 1.360 1_556 S
C58 C57 1.413 . S
C58 C62 1.429 . S
C59 C57 1.360 1_554 S
C59 C60 1.372 . S
C60 H55 0.928 . S
C60 C59 1.372 . S
C60 C61 1.404 . S
C61 C60 1.404 . S
C61 C62 1.391 1_554 S
C62 H56 0.930 . S
C62 C58 1.429 . S
C62 C61 1.391 1_556 S
H63 C66 0.931 . S
H64 C69 0.928 . S
H65 C71 0.930 . S
C66 H63 0.931 . S
C66 C67 1.413 1_556 S
C66 C68 1.360 . S
C67 C66 1.413 1_554 S
C67 C71 1.429 . S
C68 C66 1.360 . S
C68 C69 1.372 . S
C69 H64 0.928 . S
C69 C68 1.372 . S
C69 C70 1.404 1_556 S
C70 C69 1.404 1_554 S
C70 C71 1.391 . S
C71 H65 0.930 . S
C71 C67 1.429 . S
C71 C70 1.391 . S
C72 C74 1.422 1_556 S
C72 C76 1.415 . S
C72 N78 1.369 . S
C73 C74 1.421 . S
C73 C75 1.417 . S
C73 C85 1.422 . S
C74 C72 1.422 1_554 S
C74 C73 1.421 . S
C74 N84 1.359 1_554 S
C75 C73 1.417 . S
C75 C77 1.329 . S
C75 H94 0.930 . S
C76 C72 1.415 . S
C76 C77 1.437 1_556 S
C76 C80 1.413 . S
C77 C75 1.329 . S
C77 C76 1.437 1_554 S
C77 H99 0.929 . S
N78 C72 1.369 . S
N78 C79 1.341 . S
N78 Gd83 2.622 1_545 S
C79 N78 1.341 . S
C79 C81 1.388 . S
C79 H91 0.916 1_545 S
C80 C76 1.413 . S
C80 C81 1.348 . S
C80 H96 0.931 . S
C81 C79 1.388 . S
C81 C80 1.348 . S
C81 H97 0.930 . S
Gd82 N102 2.622 . S
Gd82 N109 2.570 . S
Gd82 O116 2.353 . S
Gd82 O117 2.468 . S
Gd82 O118 2.427 . S
Gd82 O120 2.388 . S
Gd82 O121 2.386 1_545 S
Gd82 O125 2.307 1_655 S
Gd82 C135 2.805 . S
Gd83 N78 2.622 1_565 S
Gd83 N84 2.570 1_565 S
Gd83 O115 2.386 1_565 S
Gd83 O119 2.307 1_455 S
Gd83 O122 2.353 . S
Gd83 O123 2.468 . S
Gd83 O124 2.427 . S
Gd83 O126 2.388 . S
Gd83 C147 2.805 . S
N84 C74 1.359 1_556 S
N84 Gd83 2.570 1_545 S
N84 C86 1.343 1_556 S
C85 C73 1.422 . S
C85 C87 1.321 . S
C85 H93 0.931 . S
C86 N84 1.343 1_554 S
C86 C87 1.390 . S
C86 H88 0.931 . S
C87 C85 1.321 . S
C87 C86 1.390 . S
C87 H89 0.930 . S
H88 C86 0.931 . S
H89 C87 0.930 . S
H90 C113 0.931 1_445 S
H91 C79 0.916 1_565 S
H92 C114 0.930 . S
H93 C85 0.931 . S
H94 C75 0.930 . S
H95 C104 0.929 . S
H96 C80 0.931 . S
H97 C81 0.930 . S
H98 C136 0.930 . S
H99 C77 0.929 . S
H100 C105 0.931 . S
H101 C106 0.930 1_545 S
N102 Gd82 2.622 . S
N102 C103 1.369 1_545 S
N102 C104 1.338 . S
C103 N102 1.369 1_565 S
C103 C107 1.415 . S
C103 C110 1.422 . S
C104 H95 0.929 . S
C104 N102 1.338 . S
C104 C106 1.378 1_545 S
C105 H100 0.931 . S
C105 C106 1.348 . S
C105 C107 1.413 . S
C106 H101 0.930 1_565 S
C106 C104 1.378 1_565 S
C106 C105 1.348 . S
C107 C103 1.415 . S
C107 C105 1.413 . S
C107 C137 1.437 . S
H108 C137 0.929 . S
N109 Gd82 2.570 . S
N109 C110 1.359 1_545 S
N109 C113 1.343 1_545 S
C110 C103 1.422 . S
C110 N109 1.359 1_565 S
C110 C112 1.421 . S
C111 C112 1.422 . S
C111 C114 1.321 . S
C111 H138 0.931 . S
C112 C110 1.421 . S
C112 C111 1.422 . S
C112 C136 1.417 . S
C113 H90 0.931 1_665 S
C113 N109 1.343 1_565 S
C113 C114 1.390 . S
C114 H92 0.930 . S
C114 C111 1.321 . S
C114 C113 1.390 . S
O115 Gd83 2.386 1_545 S
O115 C127 1.265 . S
O116 Gd82 2.353 . S
O116 C127 1.242 1_655 S
O117 Gd82 2.468 . S
O117 C135 1.263 . S
O118 Gd82 2.427 . S
O118 C135 1.252 . S
O119 Gd83 2.307 1_655 S
O119 C128 1.261 1_565 S
O120 Gd82 2.388 . S
O120 C128 1.252 . S
O121 Gd82 2.386 1_565 S
O121 C139 1.265 . S
O122 Gd83 2.353 . S
O122 C139 1.242 1_455 S
O123 Gd83 2.468 . S
O123 C147 1.263 . S
O124 Gd83 2.427 . S
O124 C147 1.252 . S
O125 Gd82 2.307 1_455 S
O125 C140 1.261 . S
O126 Gd83 2.388 . S
O126 C140 1.252 1_565 S
C127 O115 1.265 . S
C127 O116 1.242 1_455 S
C128 O119 1.261 1_545 S
C128 O120 1.252 . S
C129 C132 1.394 . S
C129 C134 1.370 . S
C129 C135 1.500 . S
C130 C133 1.383 . S
C130 C134 1.395 . S
C131 C132 1.396 . S
C131 C133 1.365 . S
C131 H148 0.929 . S
C132 C129 1.394 . S
C132 C131 1.396 . S
C132 H149 0.930 . S
C133 C130 1.383 . S
C133 C131 1.365 . S
C133 H150 0.931 . S
C134 C129 1.370 . S
C134 C130 1.395 . S
C134 H151 0.930 . S
C135 Gd82 2.805 . S
C135 O117 1.263 . S
C135 O118 1.252 . S
C135 C129 1.500 . S
C136 H98 0.930 . S
C136 C112 1.417 . S
C136 C137 1.329 . S
C137 C107 1.437 . S
C137 H108 0.929 . S
C137 C136 1.329 . S
H138 C111 0.931 . S
C139 O121 1.265 . S
C139 O122 1.242 1_655 S
C140 O125 1.261 . S
C140 O126 1.252 1_545 S
C141 C144 1.394 . S
C141 C146 1.370 1_556 S
C141 C147 1.500 . S
C142 C145 1.383 . S
C142 C146 1.395 . S
C143 C144 1.396 1_554 S
C143 C145 1.365 . S
C143 H152 0.929 1_554 S
C144 C141 1.394 . S
C144 C143 1.396 1_556 S
C144 H153 0.930 . S
C145 C142 1.383 . S
C145 C143 1.365 . S
C145 H154 0.931 . S
C146 C141 1.370 1_554 S
C146 C142 1.395 . S
C146 H155 0.930 . S
C147 Gd83 2.805 . S
C147 O123 1.263 . S
C147 O124 1.252 . S
C147 C141 1.500 . S
H148 C131 0.929 . S
H149 C132 0.930 . S
H150 C133 0.931 . S
H151 C134 0.930 . S
H152 C143 0.929 1_556 S
H153 C144 0.930 . S
H154 C145 0.931 . S
H155 C146 0.930 . S
C156 C158 1.422 . S
C156 C160 1.415 . S
C156 N162 1.369 . S
C157 C158 1.421 . S
C157 C159 1.417 . S
C157 C169 1.422 . S
C158 C156 1.422 . S
C158 C157 1.421 . S
C158 N168 1.359 . S
C159 C157 1.417 . S
C159 C161 1.329 . S
C159 H178 0.930 . S
C160 C156 1.415 . S
C160 C161 1.437 . S
C160 C164 1.413 . S
C161 C159 1.329 . S
C161 C160 1.437 . S
C161 H183 0.929 . S
N162 C156 1.369 . S
N162 C163 1.338 . S
N162 Gd167 2.622 . S
C163 N162 1.338 . S
C163 C165 1.378 . S
C163 H175 0.929 . S
C164 C160 1.413 . S
C164 C165 1.348 . S
C164 H180 0.931 . S
C165 C163 1.378 . S
C165 C164 1.348 . S
C165 H181 0.930 . S
Gd166 N186 2.622 . S
Gd166 N193 2.570 . S
Gd166 O200 2.353 1_545 S
Gd166 O201 2.468 . S
Gd166 O202 2.427 . S
Gd166 O204 2.388 . S
Gd166 O205 2.386 . S
Gd166 O209 2.307 . S
Gd166 C219 2.805 . S
Gd167 N162 2.622 . S
Gd167 N168 2.570 . S
Gd167 O199 2.386 . S
Gd167 O203 2.307 . S
Gd167 O206 2.353 1_565 S
Gd167 O207 2.468 . S
Gd167 O208 2.427 . S
Gd167 O210 2.388 . S
Gd167 C231 2.805 . S
N168 C158 1.359 . S
N168 Gd167 2.570 . S
N168 C170 1.343 . S
C169 C157 1.422 . S
C169 C171 1.321 . S
C169 H177 0.931 . S
C170 N168 1.343 . S
C170 C171 1.390 . S
C170 H172 0.931 . S
C171 C169 1.321 . S
C171 C170 1.390 . S
C171 H173 0.930 . S
H172 C170 0.931 . S
H173 C171 0.930 . S
H174 C197 0.931 . S
H175 C163 0.929 . S
H176 C198 0.930 . S
H177 C169 0.931 . S
H178 C159 0.930 . S
H179 C188 0.929 . S
H180 C164 0.931 . S
H181 C165 0.930 . S
H182 C220 0.930 . S
H183 C161 0.929 . S
H184 C189 0.931 . S
H185 C190 0.930 . S
N186 Gd166 2.622 . S
N186 C187 1.369 . S
N186 C188 1.338 . S
C187 N186 1.369 . S
C187 C191 1.415 . S
C187 C194 1.422 . S
C188 H179 0.929 . S
C188 N186 1.338 . S
C188 C190 1.378 . S
C189 H184 0.931 . S
C189 C190 1.348 . S
C189 C191 1.413 . S
C190 H185 0.930 . S
C190 C188 1.378 . S
C190 C189 1.348 . S
C191 C187 1.415 . S
C191 C189 1.413 . S
C191 C221 1.437 . S
H192 C221 0.929 . S
N193 Gd166 2.570 . S
N193 C194 1.359 . S
N193 C197 1.343 . S
C194 C187 1.422 . S
C194 N193 1.359 . S
C194 C196 1.421 . S
C195 C196 1.422 . S
C195 C198 1.321 . S
C195 H222 0.931 . S
C196 C194 1.421 . S
C196 C195 1.422 . S
C196 C220 1.417 . S
C197 H174 0.931 . S
C197 N193 1.343 . S
C197 C198 1.390 . S
C198 H176 0.930 . S
C198 C195 1.321 . S
C198 C197 1.390 . S
O199 Gd167 2.386 . S
O199 C211 1.265 . S
O200 Gd166 2.353 1_565 S
O200 C211 1.242 . S
O201 Gd166 2.468 . S
O201 C219 1.263 . S
O202 Gd166 2.427 . S
O202 C219 1.252 . S
O203 Gd167 2.307 . S
O203 C212 1.261 1_565 S
O204 Gd166 2.388 . S
O204 C212 1.252 . S
O205 Gd166 2.386 . S
O205 C223 1.265 . S
O206 Gd167 2.353 1_545 S
O206 C223 1.242 . S
O207 Gd167 2.468 . S
O207 C231 1.263 . S
O208 Gd167 2.427 . S
O208 C231 1.252 . S
O209 Gd166 2.307 . S
O209 C224 1.261 1_545 S
O210 Gd167 2.388 . S
O210 C224 1.252 . S
C211 O199 1.265 . S
C211 O200 1.242 . S
C212 O203 1.261 1_545 S
C212 O204 1.252 . S
C213 C216 1.394 . S
C213 C218 1.370 . S
C213 C219 1.500 1_554 S
C214 C217 1.383 . S
C214 C218 1.395 . S
C215 C216 1.396 . S
C215 C217 1.365 . S
C215 H232 0.929 . S
C216 C213 1.394 . S
C216 C215 1.396 . S
C216 H233 0.930 . S
C217 C214 1.383 . S
C217 C215 1.365 . S
C217 H234 0.931 . S
C218 C213 1.370 . S
C218 C214 1.395 . S
C218 H235 0.930 . S
C219 Gd166 2.805 . S
C219 O201 1.263 . S
C219 O202 1.252 . S
C219 C213 1.500 1_556 S
C220 H182 0.930 . S
C220 C196 1.417 . S
C220 C221 1.329 . S
C221 C191 1.437 . S
C221 H192 0.929 . S
C221 C220 1.329 . S
H222 C195 0.931 . S
C223 O205 1.265 . S
C223 O206 1.242 . S
C224 O209 1.261 1_565 S
C224 O210 1.252 . S
C225 C228 1.394 . S
C225 C230 1.370 . S
C225 C231 1.500 . S
C226 C229 1.383 . S
C226 C230 1.395 . S
C227 C228 1.396 . S
C227 C229 1.365 . S
C227 H236 0.929 . S
C228 C225 1.394 . S
C228 C227 1.396 . S
C228 H237 0.930 . S
C229 C226 1.383 . S
C229 C227 1.365 . S
C229 H238 0.931 . S
C230 C225 1.370 . S
C230 C226 1.395 . S
C230 H239 0.930 . S
C231 Gd167 2.805 . S
C231 O207 1.263 . S
C231 O208 1.252 . S
C231 C225 1.500 . S
H232 C215 0.929 . S
H233 C216 0.930 . S
H234 C217 0.931 . S
H235 C218 0.930 . S
H236 C227 0.929 . S
H237 C228 0.930 . S
H238 C229 0.931 . S
H239 C230 0.930 . S
C240 C242 1.422 1_556 S
C240 C244 1.415 . S
C240 N246 1.369 . S
C241 C242 1.421 . S
C241 C243 1.417 . S
C241 C253 1.422 . S
C242 C240 1.422 1_554 S
C242 C241 1.421 . S
C242 N252 1.359 1_554 S
C243 C241 1.417 . S
C243 C245 1.329 . S
C243 H262 0.930 . S
C244 C240 1.415 . S
C244 C245 1.437 1_556 S
C244 C248 1.413 . S
C245 C243 1.329 . S
C245 C244 1.437 1_554 S
C245 H267 0.929 . S
N246 C240 1.369 . S
N246 C247 1.338 . S
N246 Gd251 2.622 . S
C247 N246 1.338 . S
C247 C249 1.378 . S
C247 H259 0.929 . S
C248 C244 1.413 . S
C248 C249 1.348 . S
C248 H264 0.931 . S
C249 C247 1.378 . S
C249 C248 1.348 . S
C249 H265 0.930 . S
Gd250 N270 2.622 . S
Gd250 N277 2.570 . S
Gd250 O284 2.353 . S
Gd250 O285 2.468 . S
Gd250 O286 2.427 . S
Gd250 O288 2.388 . S
Gd250 O289 2.386 . S
Gd250 O293 2.307 . S
Gd250 C303 2.805 . S
Gd251 N246 2.622 . S
Gd251 N252 2.570 . S
Gd251 O283 2.386 . S
Gd251 O287 2.307 . S
Gd251 O290 2.353 . S
Gd251 O291 2.468 . S
Gd251 O292 2.427 . S
Gd251 O294 2.388 . S
Gd251 C315 2.805 . S
N252 C242 1.359 1_556 S
N252 Gd251 2.570 . S
N252 C254 1.343 1_556 S
C253 C241 1.422 . S
C253 C255 1.321 . S
C253 H261 0.931 . S
C254 N252 1.343 1_554 S
C254 C255 1.390 . S
C254 H256 0.931 . S
C255 C253 1.321 . S
C255 C254 1.390 . S
C255 H257 0.930 . S
H256 C254 0.931 . S
H257 C255 0.930 . S
H258 C281 0.931 . S
H259 C247 0.929 . S
H260 C282 0.930 . S
H261 C253 0.931 . S
H262 C243 0.930 . S
H263 C272 0.929 . S
H264 C248 0.931 . S
H265 C249 0.930 . S
H266 C304 0.930 . S
H267 C245 0.929 . S
H268 C273 0.931 . S
H269 C274 0.930 . S
N270 Gd250 2.622 . S
N270 C271 1.369 . S
N270 C272 1.338 . S
C271 N270 1.369 . S
C271 C275 1.415 . S
C271 C278 1.422 . S
C272 H263 0.929 . S
C272 N270 1.338 . S
C272 C274 1.378 . S
C273 H268 0.931 . S
C273 C274 1.348 . S
C273 C275 1.413 . S
C274 H269 0.930 . S
C274 C272 1.378 . S
C274 C273 1.348 . S
C275 C271 1.415 . S
C275 C273 1.413 . S
C275 C305 1.437 . S
H276 C305 0.929 . S
N277 Gd250 2.570 . S
N277 C278 1.359 . S
N277 C281 1.343 . S
C278 C271 1.422 . S
C278 N277 1.359 . S
C278 C280 1.421 . S
C279 C280 1.422 . S
C279 C282 1.321 . S
C279 H306 0.931 . S
C280 C278 1.421 . S
C280 C279 1.422 . S
C280 C304 1.417 . S
C281 H258 0.931 . S
C281 N277 1.343 . S
C281 C282 1.390 . S
C282 H260 0.930 . S
C282 C279 1.321 . S
C282 C281 1.390 . S
O283 Gd251 2.386 . S
O283 C295 1.265 . S
O284 Gd250 2.353 . S
O284 C295 1.242 . S
O285 Gd250 2.468 . S
O285 C303 1.263 . S
O286 Gd250 2.427 . S
O286 C303 1.252 . S
O287 Gd251 2.307 . S
O287 C296 1.261 . S
O288 Gd250 2.388 . S
O288 C296 1.252 . S
O289 Gd250 2.386 . S
O289 C307 1.265 . S
O290 Gd251 2.353 . S
O290 C307 1.242 . S
O291 Gd251 2.468 . S
O291 C315 1.263 . S
O292 Gd251 2.427 . S
O292 C315 1.252 . S
O293 Gd250 2.307 . S
O293 C308 1.261 . S
O294 Gd251 2.388 . S
O294 C308 1.252 . S
C295 O283 1.265 . S
C295 O284 1.242 . S
C296 O287 1.261 . S
C296 O288 1.252 . S
C297 C300 1.394 . S
C297 C302 1.370 . S
C297 C303 1.500 . S
C298 C301 1.383 . S
C298 C302 1.395 . S
C299 C300 1.396 . S
C299 C301 1.365 . S
C299 H316 0.929 . S
C300 C297 1.394 . S
C300 C299 1.396 . S
C300 H317 0.930 . S
C301 C298 1.383 . S
C301 C299 1.365 . S
C301 H318 0.931 . S
C302 C297 1.370 . S
C302 C298 1.395 . S
C302 H319 0.930 . S
C303 Gd250 2.805 . S
C303 O285 1.263 . S
C303 O286 1.252 . S
C303 C297 1.500 . S
C304 H266 0.930 . S
C304 C280 1.417 . S
C304 C305 1.329 . S
C305 C275 1.437 . S
C305 H276 0.929 . S
C305 C304 1.329 . S
H306 C279 0.931 . S
C307 O289 1.265 . S
C307 O290 1.242 . S
C308 O293 1.261 . S
C308 O294 1.252 . S
C309 C312 1.394 . S
C309 C314 1.370 1_556 S
C309 C315 1.500 . S
C310 C313 1.383 . S
C310 C314 1.395 . S
C311 C312 1.396 1_554 S
C311 C313 1.365 . S
C311 H320 0.929 1_554 S
C312 C309 1.394 . S
C312 C311 1.396 1_556 S
C312 H321 0.930 . S
C313 C310 1.383 . S
C313 C311 1.365 . S
C313 H322 0.931 . S
C314 C309 1.370 1_554 S
C314 C310 1.395 . S
C314 H323 0.930 . S
C315 Gd251 2.805 . S
C315 O291 1.263 . S
C315 O292 1.252 . S
C315 C309 1.500 . S
H316 C299 0.929 . S
H317 C300 0.930 . S
H318 C301 0.931 . S
H319 C302 0.930 . S
H320 C311 0.929 1_556 S
H321 C312 0.930 . S
H322 C313 0.931 . S
H323 C314 0.930 . S
C324 C326 1.422 1_556 S
C324 C328 1.415 . S
C324 N330 1.366 1_455 S
C325 C326 1.421 . S
C325 C327 1.417 . S
C325 C337 1.422 . S
C326 C324 1.422 1_554 S
C326 C325 1.421 . S
C326 N336 1.359 1_554 S
C327 C325 1.417 . S
C327 C329 1.329 . S
C327 H346 0.930 . S
C328 C324 1.415 . S
C328 C329 1.437 1_556 S
C328 C332 1.413 . S
C329 C327 1.329 . S
C329 C328 1.437 1_554 S
C329 H351 0.929 . S
N330 C324 1.366 1_655 S
N330 C331 1.338 . S
N330 Gd335 2.623 . S
C331 N330 1.338 . S
C331 C333 1.378 1_655 S
C331 H343 0.929 . S
C332 C328 1.413 . S
C332 C333 1.348 . S
C332 H348 0.931 . S
C333 C331 1.378 1_455 S
C333 C332 1.348 . S
C333 H349 0.930 . S
Gd334 N354 2.622 . S
Gd334 N361 2.570 . S
Gd334 O368 2.353 . S
Gd334 O369 2.468 . S
Gd334 O370 2.427 . S
Gd334 O372 2.388 . S
Gd334 O373 2.386 1_455 S
Gd334 O377 2.307 . S
Gd334 C387 2.805 . S
Gd335 N330 2.623 . S
Gd335 N336 2.570 1_655 S
Gd335 O367 2.386 1_655 S
Gd335 O371 2.307 . S
Gd335 O374 2.353 . S
Gd335 O375 2.468 . S
Gd335 O376 2.427 . S
Gd335 O378 2.388 . S
Gd335 C399 2.805 . S
N336 C326 1.359 1_556 S
N336 Gd335 2.570 1_455 S
N336 C338 1.343 1_556 S
C337 C325 1.422 . S
C337 C339 1.321 . S
C337 H345 0.931 . S
C338 N336 1.343 1_554 S
C338 C339 1.390 . S
C338 H340 0.931 . S
C339 C337 1.321 . S
C339 C338 1.390 . S
C339 H341 0.930 . S
H340 C338 0.931 . S
H341 C339 0.930 . S
H342 C365 0.931 1_455 S
H343 C331 0.929 . S
H344 C366 0.930 . S
H345 C337 0.931 . S
H346 C327 0.930 . S
H347 C356 0.929 . S
H348 C332 0.931 . S
H349 C333 0.930 . S
H350 C388 0.930 . S
H351 C329 0.929 . S
H352 C357 0.931 . S
H353 C358 0.929 1_455 S
N354 Gd334 2.622 . S
N354 C355 1.369 1_455 S
N354 C356 1.338 . S
C355 N354 1.369 1_655 S
C355 C359 1.415 . S
C355 C362 1.422 . S
C356 H347 0.929 . S
C356 N354 1.338 . S
C356 C358 1.377 1_455 S
C357 H352 0.931 . S
C357 C358 1.349 . S
C357 C359 1.413 . S
C358 H353 0.929 1_655 S
C358 C356 1.377 1_655 S
C358 C357 1.349 . S
C359 C355 1.415 . S
C359 C357 1.413 . S
C359 C389 1.437 . S
H360 C389 0.929 . S
N361 Gd334 2.570 . S
N361 C362 1.359 1_455 S
N361 C365 1.343 1_455 S
C362 C355 1.422 . S
C362 N361 1.359 1_655 S
C362 C364 1.421 . S
C363 C364 1.422 . S
C363 C366 1.321 . S
C363 H390 0.931 . S
C364 C362 1.421 . S
C364 C363 1.422 . S
C364 C388 1.417 . S
C365 H342 0.931 1_655 S
C365 N361 1.343 1_655 S
C365 C366 1.390 . S
C366 H344 0.930 . S
C366 C363 1.321 . S
C366 C365 1.390 . S
O367 Gd335 2.386 1_455 S
O367 C379 1.265 . S
O368 Gd334 2.353 . S
O368 C379 1.242 . S
O369 Gd334 2.468 . S
O369 C387 1.263 . S
O370 Gd334 2.427 . S
O370 C387 1.252 . S
O371 Gd335 2.307 . S
O371 C380 1.261 1_655 S
O372 Gd334 2.388 . S
O372 C380 1.252 . S
O373 Gd334 2.386 1_655 S
O373 C391 1.265 . S
O374 Gd335 2.353 . S
O374 C391 1.242 . S
O375 Gd335 2.468 . S
O375 C399 1.263 . S
O376 Gd335 2.427 . S
O376 C399 1.252 . S
O377 Gd334 2.307 . S
O377 C392 1.261 . S
O378 Gd335 2.388 . S
O378 C392 1.252 1_655 S
C379 O367 1.265 . S
C379 O368 1.242 . S
C380 O371 1.261 1_455 S
C380 O372 1.252 . S
C381 C384 1.394 . S
C381 C386 1.370 . S
C381 C387 1.500 . S
C382 C385 1.383 . S
C382 C386 1.395 . S
C383 C384 1.396 . S
C383 C385 1.365 . S
C383 H400 0.929 . S
C384 C381 1.394 . S
C384 C383 1.396 . S
C384 H401 0.930 . S
C385 C382 1.383 . S
C385 C383 1.365 . S
C385 H402 0.931 . S
C386 C381 1.370 . S
C386 C382 1.395 . S
C386 H403 0.930 . S
C387 Gd334 2.805 . S
C387 O369 1.263 . S
C387 O370 1.252 . S
C387 C381 1.500 . S
C388 H350 0.930 . S
C388 C364 1.417 . S
C388 C389 1.329 . S
C389 C359 1.437 . S
C389 H360 0.929 . S
C389 C388 1.329 . S
H390 C363 0.931 . S
C391 O373 1.265 . S
C391 O374 1.242 . S
C392 O377 1.261 . S
C392 O378 1.252 1_455 S
C393 C396 1.394 . S
C393 C398 1.370 1_556 S
C393 C399 1.500 . S
C394 C397 1.383 . S
C394 C398 1.395 . S
C395 C396 1.396 1_554 S
C395 C397 1.365 . S
C395 H404 0.929 1_554 S
C396 C393 1.394 . S
C396 C395 1.396 1_556 S
C396 H405 0.930 . S
C397 C394 1.383 . S
C397 C395 1.365 . S
C397 H406 0.931 . S
C398 C393 1.370 1_554 S
C398 C394 1.395 . S
C398 H407 0.930 . S
C399 Gd335 2.805 . S
C399 O375 1.263 . S
C399 O376 1.252 . S
C399 C393 1.500 . S
H400 C383 0.929 . S
H401 C384 0.930 . S
H402 C385 0.931 . S
H403 C386 0.930 . S
H404 C395 0.929 1_556 S
H405 C396 0.930 . S
H406 C397 0.931 . S
H407 C398 0.930 . S
C408 C409 1.387 . S
C408 H412 0.950 . S
C408 C417 1.390 . S
C409 C408 1.387 . S
C409 C411 1.387 1_545 S
H410 C417 0.950 . S
C411 C409 1.387 1_565 S
C411 C413 1.390 . S
C411 H415 0.950 . S
H412 C408 0.950 . S
C413 C411 1.390 . S
C413 C414 1.387 1_565 S
C413 H416 0.950 . S
C414 C413 1.387 1_545 S
C414 C417 1.387 . S
H415 C411 0.950 . S
H416 C413 0.950 . S
C417 C408 1.390 . S
C417 H410 0.950 . S
C417 C414 1.387 . S
C418 C419 1.387 . S
C418 H422 0.950 . S
C418 C427 1.390 . S
C419 C418 1.387 . S
C419 C421 1.387 . S
H420 C427 0.950 . S
C421 C419 1.387 . S
C421 C423 1.390 . S
C421 H425 0.950 . S
H422 C418 0.950 . S
C423 C421 1.390 . S
C423 C424 1.387 . S
C423 H426 0.950 . S
C424 C423 1.387 . S
C424 C427 1.387 . S
H425 C421 0.950 . S
H426 C423 0.950 . S
C427 C418 1.390 . S
C427 H420 0.950 . S
C427 C424 1.387 . S
C428 C429 1.387 . S
C428 H432 0.950 . S
C428 C437 1.390 . S
C429 C428 1.387 . S
C429 C431 1.387 . S
H430 C437 0.950 . S
C431 C429 1.387 . S
C431 C433 1.390 . S
C431 H435 0.950 . S
H432 C428 0.950 . S
C433 C431 1.390 . S
C433 C434 1.387 . S
C433 H436 0.950 . S
C434 C433 1.387 . S
C434 C437 1.387 . S
H435 C431 0.950 . S
H436 C433 0.950 . S
C437 C428 1.390 . S
C437 H430 0.950 . S
C437 C434 1.387 . S
C438 C439 1.387 . S
C438 H442 0.950 . S
C438 C447 1.390 . S
C439 C438 1.387 . S
C439 C441 1.387 . S
H440 C447 0.950 1_655 S
C441 C439 1.387 . S
C441 C443 1.390 . S
C441 H445 0.950 . S
H442 C438 0.950 . S
C443 C441 1.390 . S
C443 C444 1.387 . S
C443 H446 0.950 . S
C444 C443 1.387 . S
C444 C447 1.387 . S
H445 C441 0.950 . S
H446 C443 0.950 . S
C447 C438 1.390 . S
C447 H440 0.950 1_455 S
C447 C444 1.387 . S
C448 C449 1.387 1_545 S
C448 H452 0.950 . S
C448 C457 1.390 . S
C449 C448 1.387 1_565 S
C449 C451 1.387 . S
H450 C457 0.950 . S
C451 C449 1.387 . S
C451 C453 1.390 . S
C451 H455 0.950 . S
H452 C448 0.950 . S
C453 C451 1.390 . S
C453 C454 1.387 1_554 S
C453 H456 0.950 . S
C454 C453 1.387 1_556 S
C454 C457 1.387 1_566 S
H455 C451 0.950 . S
H456 C453 0.950 . S
C457 C448 1.390 . S
C457 H450 0.950 . S
C457 C454 1.387 1_544 S
C458 C459 1.387 . S
C458 H462 0.950 . S
C458 C467 1.390 . S
C459 C458 1.387 . S
C459 C461 1.387 . S
H460 C467 0.950 . S
C461 C459 1.387 . S
C461 C463 1.390 . S
C461 H465 0.950 . S
H462 C458 0.950 . S
C463 C461 1.390 . S
C463 C464 1.387 . S
C463 H466 0.950 . S
C464 C463 1.387 . S
C464 C467 1.387 . S
H465 C461 0.950 . S
H466 C463 0.950 . S
C467 C458 1.390 . S
C467 H460 0.950 . S
C467 C464 1.387 . S
C468 C469 1.387 . S
C468 H472 0.950 . S
C468 C477 1.390 . S
C469 C468 1.387 . S
C469 C471 1.387 . S
H470 C477 0.950 . S
C471 C469 1.387 . S
C471 C473 1.390 . S
C471 H475 0.950 . S
H472 C468 0.950 . S
C473 C471 1.390 . S
C473 C474 1.387 1_554 S
C473 H476 0.950 . S
C474 C473 1.387 1_556 S
C474 C477 1.387 1_556 S
H475 C471 0.950 . S
H476 C473 0.950 . S
C477 C468 1.390 . S
C477 H470 0.950 . S
C477 C474 1.387 1_554 S
C478 C479 1.387 . S
C478 H482 0.950 . S
C478 C487 1.390 . S
C479 C478 1.387 . S
C479 C481 1.387 . S
H480 C487 0.950 1_556 S
C481 C479 1.387 . S
C481 C483 1.390 . S
C481 H485 0.950 . S
H482 C478 0.950 . S
C483 C481 1.390 . S
C483 C484 1.387 1_554 S
C483 H486 0.950 . S
C484 C483 1.387 1_556 S
C484 C487 1.387 1_556 S
H485 C481 0.950 . S
H486 C483 0.950 . S
C487 C478 1.390 . S
C487 H480 0.950 1_554 S
C487 C484 1.387 1_554 S
C488 C489 1.387 . S
C488 H492 0.950 . S
C488 C497 1.390 . S
C489 C488 1.387 . S
C489 C491 1.387 1_455 S
H490 C497 0.950 . S
C491 C489 1.387 1_655 S
C491 C493 1.390 . S
C491 H495 0.950 . S
H492 C488 0.950 . S
C493 C491 1.390 . S
C493 C494 1.387 . S
C493 H496 0.950 . S
C494 C493 1.387 . S
C494 C497 1.387 1_655 S
H495 C491 0.950 . S
H496 C493 0.950 . S
C497 C488 1.390 . S
C497 H490 0.950 . S
C497 C494 1.387 1_455 S
C498 C499 1.387 . S
C498 H502 0.950 . S
C498 C507 1.390 . S
C499 C498 1.387 . S
C499 C501 1.387 1_545 S
H500 C507 0.950 . S
C501 C499 1.387 1_565 S
C501 C503 1.390 . S
C501 H505 0.950 . S
H502 C498 0.950 . S
C503 C501 1.390 . S
C503 C504 1.387 . S
C503 H506 0.950 . S
C504 C503 1.387 . S
C504 C507 1.387 1_565 S
H505 C501 0.950 . S
H506 C503 0.950 . S
C507 C498 1.390 . S
C507 H500 0.950 . S
C507 C504 1.387 1_545 S
C508 C509 1.387 . S
C508 H512 0.950 . S
C508 C517 1.390 . S
C509 C508 1.387 . S
C509 C511 1.387 . S
H510 C517 0.950 . S
C511 C509 1.387 . S
C511 C513 1.390 . S
C511 H515 0.950 . S
H512 C508 0.950 . S
C513 C511 1.390 . S
C513 C514 1.387 . S
C513 H516 0.950 . S
C514 C513 1.387 . S
C514 C517 1.387 . S
H515 C511 0.950 . S
H516 C513 0.950 . S
C517 C508 1.390 . S
C517 H510 0.950 . S
C517 C514 1.387 . S
C518 C519 1.387 . S
C518 H522 0.950 . S
C518 C527 1.390 . S
C519 C518 1.387 . S
C519 C521 1.387 . S
H520 C527 0.950 . S
C521 C519 1.387 . S
C521 C523 1.390 . S
C521 H525 0.950 . S
H522 C518 0.950 . S
C523 C521 1.390 . S
C523 C524 1.387 . S
C523 H526 0.950 . S
C524 C523 1.387 . S
C524 C527 1.387 . S
H525 C521 0.950 . S
H526 C523 0.950 . S
C527 C518 1.390 . S
C527 H520 0.950 . S
C527 C524 1.387 . S
C528 C529 1.387 . S
C528 H532 0.950 . S
C528 C537 1.390 1_655 S
C529 C528 1.387 . S
C529 C531 1.387 1_655 S
H530 C537 0.950 . S
C531 C529 1.387 1_455 S
C531 C533 1.390 . S
C531 H535 0.950 1_455 S
H532 C528 0.950 . S
C533 C531 1.390 . S
C533 C534 1.387 . S
C533 H536 0.950 . S
C534 C533 1.387 . S
C534 C537 1.387 . S
H535 C531 0.950 1_655 S
H536 C533 0.950 . S
C537 C528 1.390 1_455 S
C537 H530 0.950 . S
C537 C534 1.387 . S
C538 C539 1.387 . S
C538 H542 0.950 . S
C538 C547 1.390 1_565 S
C539 C538 1.387 . S
C539 C541 1.387 1_565 S
H540 C547 0.950 . S
C541 C539 1.387 1_545 S
C541 C543 1.390 . S
C541 H545 0.950 . S
H542 C538 0.950 . S
C543 C541 1.390 . S
C543 C544 1.387 . S
C543 H546 0.950 . S
C544 C543 1.387 . S
C544 C547 1.387 . S
H545 C541 0.950 . S
H546 C543 0.950 . S
C547 C538 1.390 1_545 S
C547 H540 0.950 . S
C547 C544 1.387 . S
C548 C549 1.387 . S
C548 H552 0.950 . S
C548 C557 1.390 . S
C549 C548 1.387 . S
C549 C551 1.387 . S
H550 C557 0.950 . S
C551 C549 1.387 . S
C551 C553 1.390 . S
C551 H555 0.950 . S
H552 C548 0.950 . S
C553 C551 1.390 . S
C553 C554 1.387 . S
C553 H556 0.950 . S
C554 C553 1.387 . S
C554 C557 1.387 . S
H555 C551 0.950 . S
H556 C553 0.950 . S
C557 C548 1.390 . S
C557 H550 0.950 . S
C557 C554 1.387 . S
C558 C559 1.387 . S
C558 H562 0.950 . S
C558 C567 1.390 . S
C559 C558 1.387 . S
C559 C561 1.387 . S
H560 C567 0.950 . S
C561 C559 1.387 . S
C561 C563 1.390 . S
C561 H565 0.950 . S
H562 C558 0.950 . S
C563 C561 1.390 . S
C563 C564 1.387 . S
C563 H566 0.950 . S
C564 C563 1.387 . S
C564 C567 1.387 . S
H565 C561 0.950 . S
H566 C563 0.950 . S
C567 C558 1.390 . S
C567 H560 0.950 . S
C567 C564 1.387 . S
C568 C569 1.387 1_655 S
C568 H572 0.950 . S
C568 C577 1.390 . S
C569 C568 1.387 1_455 S
C569 C571 1.387 . S
H570 C577 0.950 . S
C571 C569 1.387 . S
C571 C573 1.390 . S
C571 H575 0.950 . S
H572 C568 0.950 . S
C573 C571 1.390 . S
C573 C574 1.387 . S
C573 H576 0.950 . S
C574 C573 1.387 . S
C574 C577 1.387 1_455 S
H575 C571 0.950 . S
H576 C573 0.950 . S
C577 C568 1.390 . S
C577 H570 0.950 . S
C577 C574 1.387 1_655 S
C578 C579 1.387 1_565 S
C578 H582 0.950 . S
C578 C587 1.390 . S
C579 C578 1.387 1_545 S
C579 C581 1.387 . S
H580 C587 0.950 . S
C581 C579 1.387 . S
C581 C583 1.390 . S
C581 H585 0.950 . S
H582 C578 0.950 . S
C583 C581 1.390 . S
C583 C584 1.387 . S
C583 H586 0.950 . S
C584 C583 1.387 . S
C584 C587 1.387 1_545 S
H585 C581 0.950 . S
H586 C583 0.950 . S
C587 C578 1.390 . S
C587 H580 0.950 . S
C587 C584 1.387 1_565 S
C588 C589 1.387 . S
C588 H592 0.950 . S
C588 C597 1.390 . S
C589 C588 1.387 . S
C589 C591 1.387 . S
H590 C597 0.950 . S
C591 C589 1.387 . S
C591 C593 1.390 . S
C591 H595 0.950 . S
H592 C588 0.950 . S
C593 C591 1.390 . S
C593 C594 1.387 . S
C593 H596 0.950 . S
C594 C593 1.387 . S
C594 C597 1.387 . S
H595 C591 0.950 . S
H596 C593 0.950 . S
C597 C588 1.390 . S
C597 H590 0.950 . S
C597 C594 1.387 . S
C598 C599 1.387 . S
C598 H602 0.950 . S
C598 C607 1.390 . S
C599 C598 1.387 . S
C599 C601 1.387 . S
H600 C607 0.950 . S
C601 C599 1.387 . S
C601 C603 1.390 . S
C601 H605 0.950 . S
H602 C598 0.950 . S
C603 C601 1.390 . S
C603 C604 1.387 . S
C603 H606 0.950 . S
C604 C603 1.387 . S
C604 C607 1.387 . S
H605 C601 0.950 . S
H606 C603 0.950 . S
C607 C598 1.390 . S
C607 H600 0.950 . S
C607 C604 1.387 . S
C608 C609 1.387 . S
C608 H612 0.950 . S
C608 C617 1.390 . S
C609 C608 1.387 . S
C609 C611 1.387 1_655 S
H610 C617 0.950 . S
C611 C609 1.387 1_455 S
C611 C613 1.390 . S
C611 H615 0.950 . S
H612 C608 0.950 . S
C613 C611 1.390 . S
C613 C614 1.387 1_455 S
C613 H616 0.950 . S
C614 C613 1.387 1_655 S
C614 C617 1.387 . S
H615 C611 0.950 . S
H616 C613 0.950 . S
C617 C608 1.390 . S
C617 H610 0.950 . S
C617 C614 1.387 . S
C618 C619 1.387 . S
C618 H622 0.950 . S
C618 C627 1.390 . S
C619 C618 1.387 . S
C619 C621 1.387 1_565 S
H620 C627 0.950 . S
C621 C619 1.387 1_545 S
C621 C623 1.390 . S
C621 H625 0.950 . S
H622 C618 0.950 . S
C623 C621 1.390 . S
C623 C624 1.387 1_545 S
C623 H626 0.950 . S
C624 C623 1.387 1_565 S
C624 C627 1.387 . S
H625 C621 0.950 . S
H626 C623 0.950 . S
C627 C618 1.390 . S
C627 H620 0.950 . S
C627 C624 1.387 . S
C628 C629 1.387 . S
C628 H632 0.950 . S
C628 C637 1.390 . S
C629 C628 1.387 . S
C629 C631 1.387 . S
H630 C637 0.950 . S
C631 C629 1.387 . S
C631 C633 1.390 . S
C631 H635 0.950 . S
H632 C628 0.950 . S
C633 C631 1.390 . S
C633 C634 1.387 . S
C633 H636 0.950 . S
C634 C633 1.387 . S
C634 C637 1.387 . S
H635 C631 0.950 . S
H636 C633 0.950 . S
C637 C628 1.390 . S
C637 H630 0.950 . S
C637 C634 1.387 . S
C638 C639 1.387 . S
C638 H642 0.950 . S
C638 C647 1.390 . S
C639 C638 1.387 . S
C639 C641 1.387 . S
H640 C647 0.950 . S
C641 C639 1.387 . S
C641 C643 1.390 . S
C641 H645 0.950 . S
H642 C638 0.950 . S
C643 C641 1.390 . S
C643 C644 1.387 . S
C643 H646 0.950 . S
C644 C643 1.387 . S
C644 C647 1.387 . S
H645 C641 0.950 . S
H646 C643 0.950 . S
C647 C638 1.390 . S
C647 H640 0.950 . S
C647 C644 1.387 . S
C409 C61 2.008 . S
C414 C140 2.219 . S
C424 C223 2.229 . S
C419 C70 2.029 . S
C434 C308 2.219 . S
C429 C43 2.006 . S
C444 C392 2.208 . S
C439 C52 2.000 . S
C454 C128 2.219 1_565 S
C449 C25 2.010 . S
C459 C34 2.026 . S
C464 C211 2.229 1_554 S
C469 C7 2.008 . S
C474 C296 2.220 . S
C479 C16 2.001 . S
C484 C380 2.207 1_655 S
C494 C130 0.784 . S
C489 C50 0.779 . S
C504 C226 0.768 . S
C499 C59 0.766 . S
C514 C298 0.800 . S
C509 C67 0.790 . S
C519 C41 0.769 . S
C524 C382 0.779 . S
C529 C14 0.777 . S
C534 C142 0.786 . S
C544 C214 0.761 . S
C539 C23 0.763 . S
C554 C310 0.798 . S
C549 C31 0.792 . S
C559 C5 0.772 . S
C564 C394 0.779 . S
C569 C49 2.058 . S
C574 C127 2.343 . S
C579 C58 2.058 . S
C584 C212 2.362 . S
C594 C295 2.357 . S
C589 C68 2.071 . S
C604 C379 2.360 . S
C599 C40 2.074 . S
C609 C13 2.058 . S
C614 C139 2.343 . S
C624 C224 2.362 . S
C619 C22 2.057 . S
C634 C307 2.357 . S
C629 C32 2.071 . S
C639 C4 2.074 . S
C644 C391 2.360 . S
