# Generated by pormake.
# Topology pyr, (3,6)-cn, num edge types: 1
# Building blocks:
#     Node 0, Type 0, BuildingBlock: BELTOD_clean_linker_0, # of connection points: 3
#     Node 1, Type 0, BuildingBlock: BELTOD_clean_linker_0, # of connection points: 3
#     Node 2, Type 0, BuildingBlock: BELTOD_clean_linker_0, # of connection points: 3
#     Node 3, Type 0, BuildingBlock: BELTOD_clean_linker_0, # of connection points: 3
#     Node 4, Type 0, BuildingBlock: BELTOD_clean_linker_0, # of connection points: 3
#     Node 5, Type 0, BuildingBlock: BELTOD_clean_linker_0, # of connection points: 3
#     Node 6, Type 0, BuildingBlock: BELTOD_clean_linker_0, # of connection points: 3
#     Node 7, Type 0, BuildingBlock: BELTOD_clean_linker_0, # of connection points: 3
#     Node 8, Type 1, BuildingBlock: FUNLAD_clean_sbu_0, # of connection points: 6
#     Node 9, Type 1, BuildingBlock: FUNLAD_clean_sbu_0, # of connection points: 6
#     Node 10, Type 1, BuildingBlock: FUNLAD_clean_sbu_0, # of connection points: 6
#     Node 11, Type 1, BuildingBlock: FUNLAD_clean_sbu_0, # of connection points: 6
#     Edge 12, Type (0, 1), BuildingBlock: OJICUG_clean_linker_0, # of connection points: 2
#     Edge 13, Type (0, 1), BuildingBlock: OJICUG_clean_linker_0, # of connection points: 2
#     Edge 14, Type (0, 1), BuildingBlock: OJICUG_clean_linker_0, # of connection points: 2
#     Edge 15, Type (0, 1), BuildingBlock: OJICUG_clean_linker_0, # of connection points: 2
#     Edge 16, Type (0, 1), BuildingBlock: OJICUG_clean_linker_0, # of connection points: 2
#     Edge 17, Type (0, 1), BuildingBlock: OJICUG_clean_linker_0, # of connection points: 2
#     Edge 18, Type (0, 1), BuildingBlock: OJICUG_clean_linker_0, # of connection points: 2
#     Edge 19, Type (0, 1), BuildingBlock: OJICUG_clean_linker_0, # of connection points: 2
#     Edge 20, Type (0, 1), BuildingBlock: OJICUG_clean_linker_0, # of connection points: 2
#     Edge 21, Type (0, 1), BuildingBlock: OJICUG_clean_linker_0, # of connection points: 2
#     Edge 22, Type (0, 1), BuildingBlock: OJICUG_clean_linker_0, # of connection points: 2
#     Edge 23, Type (0, 1), BuildingBlock: OJICUG_clean_linker_0, # of connection points: 2
#     Edge 24, Type (0, 1), BuildingBlock: OJICUG_clean_linker_0, # of connection points: 2
#     Edge 25, Type (0, 1), BuildingBlock: OJICUG_clean_linker_0, # of connection points: 2
#     Edge 26, Type (0, 1), BuildingBlock: OJICUG_clean_linker_0, # of connection points: 2
#     Edge 27, Type (0, 1), BuildingBlock: OJICUG_clean_linker_0, # of connection points: 2
#     Edge 28, Type (0, 1), BuildingBlock: OJICUG_clean_linker_0, # of connection points: 2
#     Edge 29, Type (0, 1), BuildingBlock: OJICUG_clean_linker_0, # of connection points: 2
#     Edge 30, Type (0, 1), BuildingBlock: OJICUG_clean_linker_0, # of connection points: 2
#     Edge 31, Type (0, 1), BuildingBlock: OJICUG_clean_linker_0, # of connection points: 2
#     Edge 32, Type (0, 1), BuildingBlock: OJICUG_clean_linker_0, # of connection points: 2
#     Edge 33, Type (0, 1), BuildingBlock: OJICUG_clean_linker_0, # of connection points: 2
#     Edge 34, Type (0, 1), BuildingBlock: OJICUG_clean_linker_0, # of connection points: 2
#     Edge 35, Type (0, 1), BuildingBlock: OJICUG_clean_linker_0, # of connection points: 2
# Relax obj value: 0.105
# Max RMSD: 0.080
# Mean RMSD: 0.042
data_MOF--net-pry--node1-FUNLAD_clean_sbu_0--node2-BELTOD_clean_linker_0--edge1-OJICUG_clean_linker_0
_symmetry_space_group_name_H-M    P1
_symmetry_Int_Tables_number       1
_symmetry_cell_setting            triclinic
loop_
_symmetry_equiv_pos_as_xyz
'x, y, z'
_cell_length_a     31.253598
_cell_length_b     33.878944
_cell_length_c     33.581687
_cell_angle_alpha  89.921125
_cell_angle_beta   90.333806
_cell_angle_gamma 81.132175
loop_
_atom_site_label
_atom_site_type_symbol
_atom_site_fract_x
_atom_site_fract_y
_atom_site_fract_z
_atom_type_partial_charge
P0 P 0.17592 0.19673 0.22698 0.0
H1 H 0.22265 0.21453 0.15695 0.0
H2 H 0.27434 0.17478 0.11416 0.0
H3 H 0.24993 0.06754 0.17438 0.0
H4 H 0.19988 0.10839 0.21899 0.0
H5 H 0.15717 0.28154 0.24684 0.0
H6 H 0.12723 0.34047 0.20862 0.0
H7 H 0.09382 0.26492 0.11332 0.0
H8 H 0.12543 0.20576 0.15169 0.0
H9 H 0.1678 0.20627 0.31282 0.0
H10 H 0.1176 0.13455 0.22318 0.0
O11 O 0.21447 0.21527 0.25223 0.0
H12 H 0.13349 0.1725 0.36451 0.0
H13 H 0.08174 0.10059 0.27549 0.0
C14 C 0.20614 0.16455 0.19053 0.0
C15 C 0.22747 0.18235 0.16036 0.0
C16 C 0.25721 0.15931 0.13563 0.0
C17 C 0.26654 0.11753 0.1402 0.0
C18 C 0.24417 0.09957 0.16996 0.0
C19 C 0.21475 0.12291 0.19521 0.0
C20 C 0.14405 0.23912 0.20207 0.0
C21 C 0.14284 0.27751 0.21798 0.0
C22 C 0.12544 0.31141 0.19594 0.0
C23 C 0.10827 0.30787 0.15742 0.0
C24 C 0.10748 0.26908 0.14243 0.0
C25 C 0.12507 0.23509 0.16459 0.0
C26 C 0.14612 0.1726 0.26393 0.0
C27 C 0.14916 0.18327 0.30409 0.0
C28 C 0.12905 0.16398 0.33387 0.0
C29 C 0.10461 0.13359 0.32453 0.0
C30 C 0.10073 0.12341 0.28402 0.0
C31 C 0.121 0.14298 0.25399 0.0
P32 P 0.37685 0.88093 0.67608 0.0
H33 H 0.45504 0.86416 0.72618 0.0
H34 H 0.47311 0.88689 0.79251 0.0
H35 H 0.34233 0.94796 0.80534 0.0
H36 H 0.32366 0.92367 0.74001 0.0
H37 H 0.34166 0.84181 0.60862 0.0
H38 H 0.35674 0.77534 0.58048 0.0
H39 H 0.44838 0.7396 0.67565 0.0
H40 H 0.43038 0.80567 0.70533 0.0
H41 H 0.34534 0.95925 0.64021 0.0
H42 H 0.29031 0.85762 0.68147 0.0
O43 O 0.41255 0.90204 0.64993 0.0
H44 H 0.27408 0.99067 0.6162 0.0
H45 H 0.21881 0.8889 0.65761 0.0
C46 C 0.38761 0.891 0.72812 0.0
C47 C 0.42966 0.88096 0.74382 0.0
C48 C 0.44016 0.89442 0.78164 0.0
C49 C 0.40917 0.91933 0.80413 0.0
C50 C 0.36694 0.92894 0.78867 0.0
C51 C 0.35621 0.91471 0.75126 0.0
C52 C 0.38392 0.82901 0.65988 0.0
C53 C 0.364 0.81943 0.62432 0.0
C54 C 0.37346 0.78126 0.60762 0.0
C55 C 0.40437 0.75158 0.6252 0.0
C56 C 0.42397 0.76111 0.66123 0.0
C57 C 0.41384 0.7993 0.67832 0.0
C58 C 0.32336 0.90557 0.66165 0.0
C59 C 0.31788 0.94373 0.64425 0.0
C60 C 0.27701 0.96184 0.63079 0.0
C61 C 0.24079 0.9421 0.6345 0.0
C62 C 0.24617 0.90459 0.6536 0.0
C63 C 0.28698 0.88669 0.66734 0.0
P64 P 0.72336 0.36053 0.92392 0.0
H65 H 0.77592 0.34887 0.99579 0.0
H66 H 0.81853 0.39373 0.02945 0.0
H67 H 0.75064 0.49326 0.96252 0.0
H68 H 0.70863 0.44853 0.92877 0.0
H69 H 0.69799 0.28761 0.89631 0.0
H70 H 0.63489 0.25563 0.90862 0.0
H71 H 0.59088 0.34469 0.99741 0.0
H72 H 0.65491 0.37703 0.9846 0.0
H73 H 0.75689 0.36234 0.84259 0.0
H74 H 0.64208 0.41204 0.90694 0.0
O75 O 0.7668 0.32733 0.91269 0.0
H76 H 0.7233 0.38978 0.78043 0.0
H77 H 0.60819 0.43897 0.84509 0.0
C78 C 0.74005 0.39512 0.95903 0.0
C79 C 0.76898 0.3806 0.98956 0.0
C80 C 0.79313 0.40632 1.00896 0.0
C81 C 0.78842 0.44678 0.99789 0.0
C82 C 0.75526 0.46205 0.97112 0.0
C83 C 0.73125 0.43633 0.95172 0.0
C84 C 0.68163 0.33386 0.94039 0.0
C85 C 0.67523 0.2999 0.91897 0.0
C86 C 0.63864 0.28219 0.92539 0.0
C87 C 0.60752 0.29825 0.95334 0.0
C88 C 0.61429 0.33198 0.97548 0.0
C89 C 0.65102 0.35004 0.96865 0.0
C90 C 0.70181 0.38505 0.8792 0.0
C91 C 0.72467 0.37945 0.8434 0.0
C92 C 0.70537 0.3949 0.80793 0.0
C93 C 0.66306 0.41626 0.80796 0.0
C94 C 0.64096 0.42295 0.8442 0.0
C95 C 0.66019 0.40741 0.87951 0.0
P96 P 0.81996 0.70201 0.43207 0.0
H97 H 0.82527 0.75036 0.50291 0.0
H98 H 0.88872 0.76978 0.5347 0.0
H99 H 0.97032 0.67405 0.47426 0.0
H100 H 0.90626 0.65393 0.44342 0.0
H101 H 0.85753 0.74894 0.37254 0.0
H102 H 0.9022 0.72986 0.3139 0.0
H103 H 0.88895 0.60622 0.33387 0.0
H104 H 0.8458 0.62532 0.39278 0.0
H105 H 0.79028 0.67012 0.50656 0.0
H106 H 0.76293 0.66498 0.3808 0.0
O107 O 0.79264 0.74817 0.42746 0.0
H108 H 0.73119 0.63245 0.52048 0.0
H109 H 0.70589 0.62559 0.39408 0.0
C110 C 0.86137 0.70214 0.46932 0.0
C111 C 0.85651 0.73228 0.49801 0.0
C112 C 0.89302 0.74315 0.51644 0.0
C113 C 0.93471 0.72415 0.50587 0.0
C114 C 0.93865 0.68963 0.48229 0.0
C115 C 0.90195 0.67839 0.46438 0.0
C116 C 0.84725 0.68867 0.38609 0.0
C117 C 0.86371 0.71785 0.36377 0.0
C118 C 0.88933 0.70692 0.33045 0.0
C119 C 0.89919 0.66656 0.31943 0.0
C120 C 0.88242 0.63751 0.34193 0.0
C121 C 0.85701 0.64845 0.37517 0.0
C122 C 0.78154 0.66942 0.44264 0.0
C123 C 0.77234 0.65993 0.48193 0.0
C124 C 0.73869 0.63829 0.48979 0.0
C125 C 0.71377 0.62607 0.45836 0.0
C126 C 0.72397 0.63502 0.419 0.0
C127 C 0.75703 0.65707 0.41132 0.0
P128 P 0.88272 0.87927 0.86859 0.0
H129 H 0.85164 0.88956 0.95005 0.0
H130 H 0.78067 0.91292 0.97915 0.0
H131 H 0.72446 0.92709 0.86128 0.0
H132 H 0.79558 0.90295 0.83231 0.0
H133 H 0.96635 0.8274 0.85949 0.0
H134 H 0.99386 0.75969 0.88332 0.0
H135 H 0.86591 0.74742 0.92407 0.0
H136 H 0.83833 0.81437 0.8993 0.0
H137 H 0.85517 0.95677 0.83169 0.0
H138 H 0.92293 0.84247 0.79446 0.0
O139 O 0.91638 0.90238 0.89554 0.0
H140 H 0.86842 0.98534 0.76719 0.0
H141 H 0.93837 0.87129 0.73029 0.0
C142 C 0.82921 0.89524 0.88898 0.0
C143 C 0.82405 0.89764 0.93043 0.0
C144 C 0.78339 0.91081 0.94706 0.0
C145 C 0.74691 0.92219 0.92255 0.0
C146 C 0.75202 0.91913 0.88096 0.0
C147 C 0.7927 0.9053 0.86435 0.0
C148 C 0.90015 0.8262 0.87725 0.0
C149 C 0.94389 0.80969 0.87239 0.0
C150 C 0.95967 0.771 0.88622 0.0
C151 C 0.93218 0.74828 0.90599 0.0
C152 C 0.88804 0.76429 0.9094 0.0
C153 C 0.87218 0.80267 0.89498 0.0
C154 C 0.88736 0.89724 0.81798 0.0
C155 C 0.87246 0.93758 0.80939 0.0
C156 C 0.88072 0.95412 0.77249 0.0
C157 C 0.905 0.93095 0.74323 0.0
C158 C 0.91917 0.89016 0.75166 0.0
C159 C 0.91049 0.87354 0.78862 0.0
P160 P 0.65538 0.19263 0.32185 0.0
H161 H 0.66025 0.27803 0.31566 0.0
H162 H 0.62633 0.33681 0.35148 0.0
H163 H 0.55355 0.26352 0.42124 0.0
H164 H 0.58714 0.20405 0.38409 0.0
H165 H 0.73329 0.13663 0.30524 0.0
H166 H 0.79005 0.10008 0.34712 0.0
H167 H 0.72023 0.14593 0.4521 0.0
H168 H 0.66374 0.18281 0.40997 0.0
H169 H 0.58143 0.21373 0.26833 0.0
H170 H 0.65746 0.10532 0.3123 0.0
O171 O 0.68516 0.20996 0.28667 0.0
H172 H 0.54912 0.17536 0.21785 0.0
H173 H 0.62656 0.06701 0.26119 0.0
C174 C 0.62632 0.23629 0.34695 0.0
C175 C 0.63661 0.27427 0.3382 0.0
C176 C 0.61712 0.30814 0.35881 0.0
C177 C 0.58724 0.30499 0.38931 0.0
C178 C 0.57667 0.26694 0.39808 0.0
C179 C 0.59567 0.23297 0.37674 0.0
C180 C 0.69425 0.16281 0.35426 0.0
C181 C 0.72994 0.13859 0.33729 0.0
C182 C 0.76231 0.11741 0.36133 0.0
C183 C 0.75986 0.12007 0.40307 0.0
C184 C 0.72342 0.14356 0.42006 0.0
C185 C 0.69086 0.1646 0.39589 0.0
C186 C 0.62175 0.16267 0.29451 0.0
C187 C 0.59034 0.18154 0.26791 0.0
C188 C 0.57239 0.15951 0.23854 0.0
C189 C 0.5858 0.11798 0.2347 0.0
C190 C 0.61524 0.0988 0.2631 0.0
C191 C 0.63308 0.1209 0.29254 0.0
P192 P 0.44075 0.56027 0.04076 0.0
H193 H 0.39046 0.50635 0.99922 0.0
H194 H 0.3127 0.50457 0.99532 0.0
H195 H 0.28794 0.61587 0.06013 0.0
H196 H 0.36571 0.61675 0.06486 0.0
H197 H 0.52591 0.58415 0.04514 0.0
H198 H 0.5476 0.65038 0.04085 0.0
H199 H 0.42149 0.69743 0.9925 0.0
H200 H 0.40083 0.6314 0.99558 0.0
H201 H 0.43916 0.49877 0.10136 0.0
H202 H 0.44742 0.6248 0.09769 0.0
O203 O 0.46925 0.5185 0.0227 0.0
H204 H 0.43522 0.50197 0.17435 0.0
H205 H 0.44484 0.62765 0.16986 0.0
C206 C 0.38375 0.56189 0.03191 0.0
C207 C 0.36825 0.53064 0.01203 0.0
C208 C 0.32375 0.52973 1.0098 0.0
C209 C 0.29408 0.56008 0.02751 0.0
C210 C 0.30988 0.59178 0.04666 0.0
C211 C 0.35431 0.59254 0.049 0.0
C212 C 0.46144 0.60312 0.02165 0.0
C213 C 0.50367 0.60845 0.03205 0.0
C214 C 0.5158 0.6464 0.03012 0.0
C215 C 0.48587 0.67934 0.01738 0.0
C216 C 0.44534 0.67278 1.00262 0.0
C217 C 0.43328 0.63489 1.00463 0.0
C218 C 0.44529 0.56108 0.09409 0.0
C219 C 0.44131 0.52677 0.11621 0.0
C220 C 0.4386 0.52872 0.15771 0.0
C221 C 0.44001 0.56503 0.17747 0.0
C222 C 0.4444 0.5992 0.15527 0.0
C223 C 0.44635 0.59738 0.11392 0.0
P224 P 0.1685 0.33527 0.59495 0.0
H225 H 0.13471 0.30764 0.5212 0.0
H226 H 0.06127 0.29869 0.50504 0.0
H227 H 0.01339 0.3786 0.6006 0.0
H228 H 0.08747 0.38774 0.61629 0.0
H229 H 0.2615 0.31597 0.59108 0.0
H230 H 0.31756 0.3557 0.57436 0.0
H231 H 0.21915 0.45388 0.53955 0.0
H232 H 0.1629 0.4134 0.55584 0.0
H233 H 0.13145 0.29547 0.66008 0.0
H234 H 0.18912 0.40209 0.64337 0.0
O235 O 0.18565 0.28631 0.59071 0.0
H236 H 0.1135 0.31554 0.72879 0.0
H237 H 0.17092 0.4224 0.71123 0.0
C238 C 0.11648 0.34641 0.57123 0.0
C239 C 0.10829 0.3248 0.53741 0.0
C240 C 0.06591 0.32005 0.52801 0.0
C241 C 0.03152 0.33655 0.55283 0.0
C242 C 0.03936 0.36457 0.58175 0.0
C243 C 0.08186 0.36947 0.59096 0.0
C244 C 0.2083 0.36161 0.574 0.0
C245 C 0.252 0.34564 0.57884 0.0
C246 C 0.28394 0.36854 0.56978 0.0
C247 C 0.27258 0.40801 0.55621 0.0
C248 C 0.2287 0.42345 0.54979 0.0
C249 C 0.19664 0.40037 0.55889 0.0
C250 C 0.16231 0.34686 0.64691 0.0
C251 C 0.14107 0.3227 0.67147 0.0
C252 C 0.13047 0.33438 0.7105 0.0
C253 C 0.14094 0.37047 0.72538 0.0
C254 C 0.16316 0.39406 0.70087 0.0
C255 C 0.17355 0.38246 0.6619 0.0
C256 C 0.03099 0.05603 0.45819 0.0
N257 N 0.98636 0.11497 0.56311 0.0
C258 C 0.0196 0.13539 0.55571 0.0
C259 C 0.0131 0.17682 0.55805 0.0
C260 C 0.97214 0.19721 0.56814 0.0
C261 C 0.9392 0.17559 0.57849 0.0
C262 C 0.94711 0.13393 0.57573 0.0
Zn263 Zn 0.99232 0.0581 0.54273 0.0
C264 C 0.91294 0.05103 0.49222 0.0
N265 N 0.99964 0.94305 0.49239 0.0
C266 C 0.03843 0.91963 0.48542 0.0
C267 C 0.96286 0.92689 0.4975 0.0
C268 C 0.96472 0.88578 0.49925 0.0
C269 C 0.00472 0.86104 0.49568 0.0
C270 C 0.04171 0.87794 0.48683 0.0
Zn271 Zn 0.99592 1.00033 0.51165 0.0
O272 O 0.01975 0.07716 0.48878 0.0
C273 C 0.07538 1.00731 0.56194 0.0
O274 O 0.02609 0.01935 0.4585 0.0
H275 H 0.93258 0.94579 0.50383 0.0
H276 H 0.0503 0.11976 0.54537 0.0
H277 H 0.06735 0.93312 0.48181 0.0
O278 O 0.05594 0.0425 0.56879 0.0
O279 O 0.05729 0.98468 0.53938 0.0
H280 H 0.92108 0.117 0.58115 0.0
O281 O 0.96608 0.98175 0.56548 0.0
O282 O 0.96517 0.03878 0.59609 0.0
O283 O 0.934 0.01698 0.4837 0.0
O284 O 0.92945 0.07305 0.51664 0.0
C285 C 0.95767 1.00296 0.59652 0.0
H286 H 0.03926 0.19298 0.55034 0.0
H287 H 0.90741 0.19073 0.58671 0.0
H288 H 0.93546 0.87341 0.50542 0.0
H289 H 0.07292 0.85936 0.48343 0.0
C290 C 0.58008 0.98293 0.99334 0.0
N291 N 0.5025 0.09527 0.9886 0.0
C292 C 0.54138 0.10645 0.99756 0.0
C293 C 0.54761 0.14573 0.99285 0.0
C294 C 0.51374 0.17403 0.97842 0.0
C295 C 0.47444 0.16181 0.96738 0.0
C296 C 0.46927 0.12181 0.97326 0.0
Zn297 Zn 0.49696 0.03939 1.00779 0.0
C298 C 0.46314 0.98769 0.95184 0.0
N299 N 0.49479 0.92541 0.05821 0.0
C300 C 0.53101 0.9001 0.06946 0.0
C301 C 0.45744 0.91156 0.04875 0.0
C302 C 0.45673 0.8707 0.04635 0.0
C303 C 0.49478 0.8439 0.0538 0.0
C304 C 0.53167 0.85877 0.06757 0.0
Zn305 Zn 0.49862 0.98184 0.03937 0.0
O306 O 0.56001 0.01728 0.98413 0.0
C307 C 0.53221 0.03448 0.09506 0.0
O308 O 0.56229 0.9614 0.01723 0.0
H309 H 0.42921 0.93207 0.03935 0.0
H310 H 0.56732 0.08519 1.01002 0.0
H311 H 0.56045 0.91177 0.07656 0.0
O312 O 0.52421 0.0549 0.06337 0.0
O313 O 0.52507 0.99847 0.09529 0.0
H314 H 0.43849 0.1123 0.96676 0.0
O315 O 0.43508 1.00345 0.06206 0.0
O316 O 0.43429 0.06041 0.03073 0.0
O317 O 0.47231 0.96573 0.98248 0.0
O318 O 0.46914 0.02396 0.95319 0.0
C319 C 0.41595 0.03847 0.0538 0.0
H320 H 0.57872 0.15402 1.00071 0.0
H321 H 0.44794 0.18303 0.95554 0.0
H322 H 0.42743 0.86022 0.03637 0.0
H323 H 0.56156 0.83887 0.07373 0.0
C324 C 0.52038 0.4511 0.475 0.0
N325 N 0.53074 0.49286 0.59175 0.0
C326 C 0.52901 0.45536 0.60543 0.0
C327 C 0.54994 0.4422 0.64092 0.0
C328 C 0.57262 0.46801 0.66237 0.0
C329 C 0.5734 0.50666 0.64771 0.0
C330 C 0.55217 0.51851 0.61217 0.0
Zn331 Zn 0.50318 0.51183 0.53907 0.0
C332 C 0.56276 0.55319 0.49161 0.0
N333 N 0.44741 0.55492 0.42922 0.0
C334 C 0.42921 0.52774 0.40777 0.0
C335 C 0.45434 0.59011 0.41288 0.0
C336 C 0.44589 0.59764 0.37249 0.0
C337 C 0.43068 0.56843 0.34882 0.0
C338 C 0.42071 0.53383 0.36736 0.0
Zn339 Zn 0.47328 0.53676 0.48291 0.0
O340 O 0.52766 0.45512 0.51197 0.0
C341 C 0.41388 0.49514 0.53019 0.0
O342 O 0.49919 0.48044 0.45619 0.0
H343 H 0.46883 0.61126 0.43057 0.0
H344 H 0.5117 0.43556 0.58864 0.0
H345 H 0.42412 0.49989 0.42132 0.0
O346 O 0.44601 0.49007 0.55399 0.0
O347 O 0.41635 0.51421 0.49793 0.0
H348 H 0.55336 0.5481 0.60059 0.0
O349 O 0.44845 0.59292 0.50987 0.0
O350 O 0.47807 0.56864 0.56581 0.0
O351 O 0.53022 0.55912 0.46841 0.0
O352 O 0.56058 0.53356 0.52351 0.0
C353 C 0.45644 0.59759 0.54665 0.0
H354 H 0.54824 0.41228 0.65155 0.0
H355 H 0.591 0.52726 0.6631 0.0
H356 H 0.45316 0.62514 0.35959 0.0
H357 H 0.40943 0.51024 0.35044 0.0
C358 C 0.00137 0.59799 0.98435 0.0
N359 N 0.00892 0.56838 0.10583 0.0
C360 C 0.01668 0.6063 0.11228 0.0
C361 C 0.00468 0.62542 0.14823 0.0
C362 C 0.98532 0.60485 0.1777 0.0
C363 C 0.97851 0.56556 0.17049 0.0
C364 C 0.9903 0.54792 0.13407 0.0
Zn365 Zn 0.02279 0.54098 0.05296 0.0
C366 C 0.94666 0.5088 0.01981 0.0
N367 N 0.05096 0.48287 0.94262 0.0
C368 C 0.0743 0.50077 0.91588 0.0
C369 C 0.04008 0.44612 0.93567 0.0
C370 C 0.0538 0.42541 0.90097 0.0
C371 C 0.0791 0.44274 0.87352 0.0
C372 C 0.08878 0.48113 0.881 0.0
Zn373 Zn 0.03643 0.51078 0.99525 0.0
O374 O -7e-05 0.59555 0.0221 0.0
C375 C 0.113 0.54272 0.02703 0.0
O376 O 0.01658 0.56696 0.96462 0.0
H377 H 0.0216 0.43247 0.95748 0.0
H378 H 0.03158 0.62191 0.08932 0.0
H379 H 0.08252 0.53002 0.92201 0.0
O380 O 0.08716 0.55546 0.05493 0.0
O381 O 0.09974 0.52271 0.99895 0.0
H382 H 0.9838 0.51805 0.12812 0.0
O383 O 0.05584 0.45453 0.02683 0.0
O384 O 0.0448 0.48639 0.08331 0.0
O385 O 0.9729 0.49936 0.99147 0.0
O386 O 0.95898 0.52589 0.05052 0.0
C387 C 0.05604 0.45385 0.06477 0.0
H388 H 0.01026 0.65584 0.15292 0.0
H389 H 0.96288 0.5491 0.19232 0.0
H390 H 0.04579 0.39578 0.89624 0.0
H391 H 0.10754 0.4958 0.86017 0.0
C392 C 0.06606 0.13528 0.39051 0.0
C393 C 0.08358 0.11323 0.35733 0.0
H394 H 0.03636 0.13489 0.44761 0.0
C395 C 0.08236 0.07177 0.35697 0.0
H396 H 0.06534 0.16731 0.39174 0.0
C397 C 0.06513 0.05292 0.38935 0.0
C398 C 0.04872 0.07506 0.4229 0.0
H399 H 0.09573 0.05366 0.33216 0.0
H400 H 0.06521 0.02096 0.38832 0.0
C401 C 0.04914 0.11656 0.4227 0.0
C402 C 0.41278 0.9782 0.84921 0.0
C403 C 0.42145 0.93671 0.84263 0.0
H404 H 0.41964 0.02694 0.88841 0.0
C405 C 0.44298 0.91218 0.87262 0.0
H406 H 0.39651 0.9979 0.82653 0.0
C407 C 0.45546 0.9287 0.90835 0.0
C408 C 0.44768 0.9703 0.91463 0.0
H409 H 0.45 0.88014 0.86847 0.0
H410 H 0.47208 0.90888 0.93077 0.0
C411 C 0.42618 0.99484 0.88458 0.0
C412 C 0.61616 0.46814 0.76762 0.0
C413 C 0.64111 0.43003 0.77025 0.0
H414 H 0.57443 0.50979 0.73155 0.0
C415 C 0.64346 0.40446 0.73718 0.0
H416 H 0.61399 0.48851 0.79262 0.0
C417 C 0.62099 0.41669 0.70218 0.0
C418 C 0.5959 0.45475 0.69961 0.0
H419 H 0.66202 0.37472 0.73859 0.0
H420 H 0.62356 0.3965 0.67703 0.0
C421 C 0.59379 0.48039 0.73262 0.0
C422 C 0.95705 0.6194 0.28584 0.0
C423 C 0.92638 0.65437 0.28436 0.0
H424 H 0.00035 0.57656 0.25293 0.0
C425 C 0.91973 0.6758 0.24842 0.0
H426 H 0.96365 0.60284 0.31338 0.0
C427 C 0.94124 0.66099 0.21396 0.0
C428 C 0.96945 0.62451 0.21501 0.0
H429 H 0.89619 0.70277 0.2464 0.0
H430 H 0.9338 0.67675 0.18607 0.0
C431 C 0.97824 0.60451 0.25141 0.0
C432 C 0.32843 0.06023 0.13212 0.0
C433 C 0.30159 0.09373 0.11587 0.0
H434 H 0.38503 0.01619 0.12505 0.0
C435 C 0.31075 0.10609 0.07712 0.0
H436 H 0.32314 0.04988 0.16192 0.0
C437 C 0.34709 0.08737 0.05648 0.0
C438 C 0.37466 0.05502 0.07348 0.0
H439 H 0.29036 0.13087 0.06283 0.0
H440 H 0.35398 0.09867 0.0274 0.0
C441 C 0.36423 0.04091 0.11102 0.0
C442 C 0.18154 1.00034 0.62017 0.0
C443 C 0.19817 0.95942 0.61662 0.0
H444 H 0.12956 0.04772 0.60604 0.0
C445 C 0.17421 0.93491 0.59482 0.0
H446 H 0.19913 0.02001 0.6369 0.0
C447 C 0.13478 0.95073 0.57701 0.0
C448 C 0.11786 0.99155 0.58067 0.0
H449 H 0.18632 0.90345 0.59091 0.0
H450 H 0.11745 0.93073 0.56042 0.0
C451 C 0.14165 0.0162 0.60258 0.0
C452 C 0.84352 0.48636 0.97398 0.0
C453 C 0.82397 0.46979 1.00624 0.0
H454 H 0.89798 0.5114 0.95324 0.0
C455 C 0.84286 0.47016 0.0443 0.0
H456 H 0.83015 0.48588 0.94417 0.0
C457 C 0.88173 0.48536 0.04955 0.0
C458 C 0.90255 0.49924 0.01656 0.0
H459 H 0.82847 0.45733 0.06954 0.0
H460 H 0.89677 0.48402 0.07877 0.0
C461 C 0.88258 0.50059 0.97904 0.0
C462 C 0.63757 0.6163 0.44377 0.0
C463 C 0.67569 0.60619 0.46641 0.0
H464 H 0.57229 0.60725 0.43374 0.0
C465 C 0.67664 0.57774 0.49702 0.0
H466 H 0.63538 0.63873 0.42053 0.0
C467 C 0.64006 0.56009 0.50502 0.0
C468 C 0.60202 0.57039 0.48236 0.0
H469 H 0.70565 0.56899 0.51469 0.0
H470 H 0.64157 0.53846 0.52898 0.0
C471 C 0.60126 0.59842 0.45148 0.0
C472 C 0.09947 0.34516 0.09135 0.0
C473 C 0.09282 0.34455 0.13287 0.0
H474 H 0.0933 0.37977 0.03729 0.0
C475 C 0.07286 0.38002 0.15111 0.0
H476 H 0.11518 0.31875 0.07613 0.0
C477 C 0.06104 0.41509 0.12893 0.0
C478 C 0.06833 0.4159 0.08764 0.0
H479 H 0.0662 0.38083 0.18272 0.0
H480 H 0.04603 0.4417 0.14433 0.0
C481 C 0.08724 0.38032 0.06902 0.0
C482 C 0.54884 0.26179 0.92901 0.0
C483 C 0.57045 0.27709 0.96103 0.0
H484 H 0.51227 0.21663 0.90983 0.0
C485 C 0.56248 0.26523 0.99995 0.0
H486 H 0.55396 0.27106 0.89874 0.0
C487 C 0.53836 0.23444 1.00622 0.0
C488 C 0.52191 0.21537 0.97366 0.0
H489 H 0.57863 0.27659 0.02513 0.0
H490 H 0.53644 0.22272 0.03609 0.0
C491 C 0.52465 0.23101 0.93531 0.0
C492 C 0.99158 0.75644 0.47367 0.0
C493 C 0.971 0.74735 0.50902 0.0
H494 H 0.01934 0.80104 0.44173 0.0
C495 C 0.97524 0.77031 0.54316 0.0
H496 H 0.98888 0.73933 0.44679 0.0
C497 C 0.99266 0.80568 0.54006 0.0
C498 C 0.0063 0.81807 0.50293 0.0
H499 H 0.96013 0.7637 0.57084 0.0
H500 H 0.99063 0.8256 0.56543 0.0
C501 C 0.00898 0.79188 0.47059 0.0
C502 C 0.43013 0.67657 0.62754 0.0
C503 C 0.41698 0.71168 0.60522 0.0
H504 H 0.45282 0.61344 0.62684 0.0
C505 C 0.41652 0.70838 0.56331 0.0
H506 H 0.43041 0.67735 0.65975 0.0
C507 C 0.42845 0.67141 0.54447 0.0
C508 C 0.44198 0.63658 0.56682 0.0
H509 H 0.40776 0.73451 0.54471 0.0
H510 H 0.42793 0.67033 0.51224 0.0
C511 C 0.44271 0.63967 0.60862 0.0
C512 C 0.92004 0.92845 0.66888 0.0
C513 C 0.91687 0.94977 0.70503 0.0
H514 H 0.93493 0.92834 0.60656 0.0
C515 C 0.92599 0.98927 0.70455 0.0
H516 H 0.91278 0.89824 0.66769 0.0
C517 C 0.93812 1.00674 0.6693 0.0
C518 C 0.94187 0.98523 0.63339 0.0
H519 H 0.92484 1.0066 0.73168 0.0
H520 H 0.94545 0.03695 0.67045 0.0
C521 C 0.93244 0.94589 0.63362 0.0
C522 C 0.56367 0.05602 0.20243 0.0
C523 C 0.57201 0.0957 0.19939 0.0
H524 H 0.54463 1.00537 0.17219 0.0
C525 C 0.56853 0.11391 0.1616 0.0
H526 H 0.56591 0.04095 0.23099 0.0
C527 C 0.55648 0.09361 0.12814 0.0
C528 C 0.54751 0.05423 0.1311 0.0
H529 H 0.57575 0.14392 0.1576 0.0
H530 H 0.55407 0.10909 0.09977 0.0
C531 C 0.55148 0.03556 0.1687 0.0
C532 C 0.46636 0.58512 0.24347 0.0
C533 C 0.43617 0.5677 0.22113 0.0
H534 H 0.48869 0.59852 0.30128 0.0
C535 C 0.40218 0.55321 0.24064 0.0
H536 H 0.49292 0.59639 0.22896 0.0
C537 C 0.39897 0.55535 0.28204 0.0
C538 C 0.43014 0.57141 0.30472 0.0
H539 H 0.37807 0.54033 0.22385 0.0
H540 H 0.37241 0.54389 0.29629 0.0
C541 C 0.46357 0.58672 0.28486 0.0
C542 C 0.08407 0.38312 0.77802 0.0
C543 C 0.12648 0.38506 0.76532 0.0
H544 H 0.03563 0.40025 0.8222 0.0
C545 C 0.15396 0.40369 0.78978 0.0
H546 H 0.06201 0.36935 0.75954 0.0
C547 C 0.13881 0.42151 0.82541 0.0
C548 C 0.09589 0.421 0.83735 0.0
H549 H 0.18702 0.40503 0.78106 0.0
H550 H 0.16057 0.43608 0.84347 0.0
C551 C 0.06892 0.40089 0.81378 0.0
C552 C 0.6886 0.91821 0.97334 0.0
C553 C 0.70394 0.93757 0.94046 0.0
H554 H 0.63759 0.91703 0.01555 0.0
C555 C 0.67828 0.97216 0.92532 0.0
H556 H 0.70742 0.89136 0.98556 0.0
C557 C 0.63846 0.98719 0.94281 0.0
C558 C 0.62298 0.96768 0.97554 0.0
H559 H 0.68933 0.988 0.90028 0.0
H560 H 0.61961 1.01395 0.93043 0.0
C561 C 0.6485 0.9329 0.99047 0.0
C562 C 0.81135 0.12076 0.46085 0.0
C563 C 0.79647 0.10036 0.42839 0.0
H564 H 0.85943 0.12126 0.50638 0.0
C565 C 0.81858 0.06212 0.41894 0.0
H566 H 0.7955 0.1504 0.46875 0.0
C567 C 0.85547 0.04534 0.44055 0.0
C568 C 0.87125 0.06649 0.472 0.0
H569 H 0.80769 0.04534 0.39446 0.0
H570 H 0.87227 0.01629 0.43186 0.0
C571 C 0.84827 0.10409 0.48231 0.0
C572 C 0.22134 0.56826 0.06084 0.0
C573 C 0.24698 0.55801 0.02694 0.0
H574 H 0.15869 0.57165 0.08753 0.0
C575 C 0.22753 0.54465 0.99277 0.0
H576 H 0.23546 0.57826 0.08782 0.0
C577 C 0.18386 0.54053 0.99278 0.0
C578 C 0.15845 0.54985 0.02691 0.0
H579 H 0.2461 0.53726 0.96594 0.0
H580 H 0.17011 0.52968 0.96599 0.0
C581 C 0.17743 0.56433 0.06078 0.0
C582 C 0.3074 0.45688 0.51649 0.0
C583 C 0.30663 0.43321 0.55072 0.0
H584 H 0.34215 0.49528 0.4831 0.0
C585 C 0.33945 0.43272 0.57954 0.0
H586 H 0.28244 0.45774 0.49385 0.0
C587 C 0.3735 0.45407 0.5735 0.0
C588 C 0.37539 0.47639 0.53849 0.0
H589 H 0.33907 0.41538 0.60664 0.0
H590 H 0.39886 0.45226 0.59586 0.0
C591 C 0.34159 0.47827 0.51037 0.0
C592 C 0.93921 0.70205 0.96512 0.0
C593 C 0.94984 0.70938 0.92543 0.0
H594 H 0.94751 0.66182 0.0148 0.0
C595 C 0.97799 0.67973 0.90517 0.0
H596 H 0.91807 0.7244 0.98176 0.0
C597 C 0.99455 0.64343 0.92402 0.0
C598 C 0.98412 0.63632 0.96387 0.0
H599 H 0.98678 0.68444 0.87457 0.0
H600 H 0.01584 0.6211 0.9075 0.0
C601 C 0.95638 0.66622 0.98416 0.0
C602 C 0.47931 0.75112 0.99678 0.0
C603 C 0.49415 0.72074 0.02425 0.0
H604 H 0.46809 0.81385 0.98476 0.0
C605 C 0.51237 0.73099 0.06056 0.0
H606 H 0.46579 0.74417 0.96834 0.0
C607 C 0.51383 0.77097 0.0699 0.0
C608 C 0.49669 0.80132 0.0433 0.0
H609 H 0.52354 0.70835 0.08263 0.0
H610 H 0.52665 0.77823 0.09855 0.0
C611 C 0.48046 0.79098 1.00626 0.0
C612 C 0.97865 0.29596 0.52411 0.0
C613 C 0.99461 0.31416 0.55748 0.0
H614 H 0.95832 0.24262 0.50174 0.0
C615 C 0.98701 0.29947 0.59569 0.0
H616 H 0.98316 0.30708 0.49441 0.0
C617 C 0.97259 0.26272 0.59983 0.0
C618 C 0.96495 0.24096 0.56589 0.0
H619 H 0.99848 0.31281 0.6222 0.0
H620 H 0.97313 0.24907 0.62907 0.0
C621 C 0.96438 0.25912 0.52828 0.0
C622 C 0.56734 0.34216 0.45363 0.0
C623 C 0.56788 0.34155 0.41171 0.0
H624 H 0.5527 0.37719 0.50658 0.0
C625 C 0.55181 0.37695 0.39108 0.0
H626 H 0.57978 0.31549 0.47042 0.0
C627 C 0.53601 0.41209 0.41168 0.0
C628 C 0.5364 0.4131 0.45359 0.0
H629 H 0.55148 0.3775 0.35883 0.0
H630 H 0.52405 0.43871 0.39461 0.0
C631 C 0.55212 0.3776 0.47433 0.0
loop_
_geom_bond_atom_site_label_1
_geom_bond_atom_site_label_2
_geom_bond_distance
_geom_bond_site_symmetry_2
_ccdc_geom_bond_type
P0 O11 1.490 . S
P0 C14 1.812 . S
P0 C20 1.803 . S
P0 C26 1.819 . S
H1 C15 0.941 . S
H2 C16 0.939 . S
H3 C18 0.940 . S
H4 C19 0.940 . S
H5 C21 0.939 . S
H6 C22 0.942 . S
H7 C24 0.940 . S
H8 C25 0.939 . S
H9 C27 0.941 . S
H10 C31 0.939 . S
O11 P0 1.490 . S
H12 C28 0.939 . S
H13 C30 0.940 . S
C14 P0 1.812 . S
C14 C15 1.389 . S
C14 C19 1.391 . S
C15 H1 0.941 . S
C15 C14 1.389 . S
C15 C16 1.397 . S
C16 H2 0.939 . S
C16 C15 1.397 . S
C16 C17 1.378 . S
C17 C16 1.378 . S
C17 C18 1.378 . S
C18 H3 0.940 . S
C18 C17 1.378 . S
C18 C19 1.396 . S
C19 H4 0.940 . S
C19 C14 1.391 . S
C19 C18 1.396 . S
C20 P0 1.803 . S
C20 C21 1.378 . S
C20 C25 1.400 . S
C21 H5 0.939 . S
C21 C20 1.378 . S
C21 C22 1.361 . S
C22 H6 0.942 . S
C22 C21 1.361 . S
C22 C23 1.369 . S
C23 C22 1.369 . S
C23 C24 1.404 . S
C24 H7 0.940 . S
C24 C23 1.404 . S
C24 C25 1.389 . S
C25 H8 0.939 . S
C25 C20 1.400 . S
C25 C24 1.389 . S
C26 P0 1.819 . S
C26 C27 1.391 . S
C26 C31 1.391 . S
C27 H9 0.941 . S
C27 C26 1.391 . S
C27 C28 1.396 . S
C28 H12 0.939 . S
C28 C27 1.396 . S
C28 C29 1.397 . S
C29 C28 1.397 . S
C29 C30 1.385 . S
C30 H13 0.940 . S
C30 C29 1.385 . S
C30 C31 1.388 . S
C31 H10 0.939 . S
C31 C26 1.391 . S
C31 C30 1.388 . S
P32 O43 1.490 . S
P32 C46 1.812 . S
P32 C52 1.803 . S
P32 C58 1.819 . S
H33 C47 0.941 . S
H34 C48 0.939 . S
H35 C50 0.940 . S
H36 C51 0.940 . S
H37 C53 0.939 . S
H38 C54 0.942 . S
H39 C56 0.940 . S
H40 C57 0.939 . S
H41 C59 0.941 . S
H42 C63 0.939 . S
O43 P32 1.490 . S
H44 C60 0.939 . S
H45 C62 0.940 . S
C46 P32 1.812 . S
C46 C47 1.389 . S
C46 C51 1.391 . S
C47 H33 0.941 . S
C47 C46 1.389 . S
C47 C48 1.397 . S
C48 H34 0.939 . S
C48 C47 1.397 . S
C48 C49 1.378 . S
C49 C48 1.378 . S
C49 C50 1.378 . S
C50 H35 0.940 . S
C50 C49 1.378 . S
C50 C51 1.396 . S
C51 H36 0.940 . S
C51 C46 1.391 . S
C51 C50 1.396 . S
C52 P32 1.803 . S
C52 C53 1.378 . S
C52 C57 1.400 . S
C53 H37 0.939 . S
C53 C52 1.378 . S
C53 C54 1.361 . S
C54 H38 0.942 . S
C54 C53 1.361 . S
C54 C55 1.369 . S
C55 C54 1.369 . S
C55 C56 1.404 . S
C56 H39 0.940 . S
C56 C55 1.404 . S
C56 C57 1.389 . S
C57 H40 0.939 . S
C57 C52 1.400 . S
C57 C56 1.389 . S
C58 P32 1.819 . S
C58 C59 1.391 . S
C58 C63 1.391 . S
C59 H41 0.941 . S
C59 C58 1.391 . S
C59 C60 1.396 . S
C60 H44 0.939 . S
C60 C59 1.396 . S
C60 C61 1.397 . S
C61 C60 1.397 . S
C61 C62 1.385 . S
C62 H45 0.940 . S
C62 C61 1.385 . S
C62 C63 1.388 . S
C63 H42 0.939 . S
C63 C58 1.391 . S
C63 C62 1.388 . S
P64 O75 1.490 . S
P64 C78 1.812 . S
P64 C84 1.803 . S
P64 C90 1.819 . S
H65 C79 0.941 . S
H66 C80 0.939 . S
H67 C82 0.940 . S
H68 C83 0.940 . S
H69 C85 0.939 . S
H70 C86 0.942 . S
H71 C88 0.940 . S
H72 C89 0.939 . S
H73 C91 0.941 . S
H74 C95 0.939 . S
O75 P64 1.490 . S
H76 C92 0.939 . S
H77 C94 0.940 . S
C78 P64 1.812 . S
C78 C79 1.389 . S
C78 C83 1.391 . S
C79 H65 0.941 . S
C79 C78 1.389 . S
C79 C80 1.397 . S
C80 H66 0.939 . S
C80 C79 1.397 . S
C80 C81 1.378 . S
C81 C80 1.378 . S
C81 C82 1.378 . S
C82 H67 0.940 . S
C82 C81 1.378 . S
C82 C83 1.396 . S
C83 H68 0.940 . S
C83 C78 1.391 . S
C83 C82 1.396 . S
C84 P64 1.803 . S
C84 C85 1.378 . S
C84 C89 1.400 . S
C85 H69 0.939 . S
C85 C84 1.378 . S
C85 C86 1.361 . S
C86 H70 0.942 . S
C86 C85 1.361 . S
C86 C87 1.369 . S
C87 C86 1.369 . S
C87 C88 1.404 . S
C88 H71 0.940 . S
C88 C87 1.404 . S
C88 C89 1.389 . S
C89 H72 0.939 . S
C89 C84 1.400 . S
C89 C88 1.389 . S
C90 P64 1.819 . S
C90 C91 1.391 . S
C90 C95 1.391 . S
C91 H73 0.941 . S
C91 C90 1.391 . S
C91 C92 1.396 . S
C92 H76 0.939 . S
C92 C91 1.396 . S
C92 C93 1.397 . S
C93 C92 1.397 . S
C93 C94 1.385 . S
C94 H77 0.940 . S
C94 C93 1.385 . S
C94 C95 1.388 . S
C95 H74 0.939 . S
C95 C90 1.391 . S
C95 C94 1.388 . S
P96 O107 1.490 . S
P96 C110 1.812 . S
P96 C116 1.803 . S
P96 C122 1.819 . S
H97 C111 0.941 . S
H98 C112 0.939 . S
H99 C114 0.940 . S
H100 C115 0.940 . S
H101 C117 0.939 . S
H102 C118 0.942 . S
H103 C120 0.940 . S
H104 C121 0.939 . S
H105 C123 0.941 . S
H106 C127 0.939 . S
O107 P96 1.490 . S
H108 C124 0.939 . S
H109 C126 0.940 . S
C110 P96 1.812 . S
C110 C111 1.389 . S
C110 C115 1.391 . S
C111 H97 0.941 . S
C111 C110 1.389 . S
C111 C112 1.397 . S
C112 H98 0.939 . S
C112 C111 1.397 . S
C112 C113 1.378 . S
C113 C112 1.378 . S
C113 C114 1.378 . S
C114 H99 0.940 . S
C114 C113 1.378 . S
C114 C115 1.396 . S
C115 H100 0.940 . S
C115 C110 1.391 . S
C115 C114 1.396 . S
C116 P96 1.803 . S
C116 C117 1.378 . S
C116 C121 1.400 . S
C117 H101 0.939 . S
C117 C116 1.378 . S
C117 C118 1.361 . S
C118 H102 0.942 . S
C118 C117 1.361 . S
C118 C119 1.369 . S
C119 C118 1.369 . S
C119 C120 1.404 . S
C120 H103 0.940 . S
C120 C119 1.404 . S
C120 C121 1.389 . S
C121 H104 0.939 . S
C121 C116 1.400 . S
C121 C120 1.389 . S
C122 P96 1.819 . S
C122 C123 1.391 . S
C122 C127 1.391 . S
C123 H105 0.941 . S
C123 C122 1.391 . S
C123 C124 1.396 . S
C124 H108 0.939 . S
C124 C123 1.396 . S
C124 C125 1.397 . S
C125 C124 1.397 . S
C125 C126 1.385 . S
C126 H109 0.940 . S
C126 C125 1.385 . S
C126 C127 1.388 . S
C127 H106 0.939 . S
C127 C122 1.391 . S
C127 C126 1.388 . S
P128 O139 1.490 . S
P128 C142 1.812 . S
P128 C148 1.803 . S
P128 C154 1.819 . S
H129 C143 0.941 . S
H130 C144 0.939 . S
H131 C146 0.940 . S
H132 C147 0.940 . S
H133 C149 0.939 . S
H134 C150 0.942 1_455 S
H135 C152 0.940 . S
H136 C153 0.939 . S
H137 C155 0.941 . S
H138 C159 0.939 . S
O139 P128 1.490 . S
H140 C156 0.939 . S
H141 C158 0.940 . S
C142 P128 1.812 . S
C142 C143 1.389 . S
C142 C147 1.391 . S
C143 H129 0.941 . S
C143 C142 1.389 . S
C143 C144 1.397 . S
C144 H130 0.939 . S
C144 C143 1.397 . S
C144 C145 1.378 . S
C145 C144 1.378 . S
C145 C146 1.378 . S
C146 H131 0.940 . S
C146 C145 1.378 . S
C146 C147 1.396 . S
C147 H132 0.940 . S
C147 C142 1.391 . S
C147 C146 1.396 . S
C148 P128 1.803 . S
C148 C149 1.378 . S
C148 C153 1.400 . S
C149 H133 0.939 . S
C149 C148 1.378 . S
C149 C150 1.361 . S
C150 H134 0.942 1_655 S
C150 C149 1.361 . S
C150 C151 1.369 . S
C151 C150 1.369 . S
C151 C152 1.404 . S
C152 H135 0.940 . S
C152 C151 1.404 . S
C152 C153 1.389 . S
C153 H136 0.939 . S
C153 C148 1.400 . S
C153 C152 1.389 . S
C154 P128 1.819 . S
C154 C155 1.391 . S
C154 C159 1.391 . S
C155 H137 0.941 . S
C155 C154 1.391 . S
C155 C156 1.396 . S
C156 H140 0.939 . S
C156 C155 1.396 . S
C156 C157 1.397 . S
C157 C156 1.397 . S
C157 C158 1.385 . S
C158 H141 0.940 . S
C158 C157 1.385 . S
C158 C159 1.388 . S
C159 H138 0.939 . S
C159 C154 1.391 . S
C159 C158 1.388 . S
P160 O171 1.490 . S
P160 C174 1.812 . S
P160 C180 1.803 . S
P160 C186 1.819 . S
H161 C175 0.941 . S
H162 C176 0.939 . S
H163 C178 0.940 . S
H164 C179 0.940 . S
H165 C181 0.939 . S
H166 C182 0.942 . S
H167 C184 0.940 . S
H168 C185 0.939 . S
H169 C187 0.941 . S
H170 C191 0.939 . S
O171 P160 1.490 . S
H172 C188 0.939 . S
H173 C190 0.940 . S
C174 P160 1.812 . S
C174 C175 1.389 . S
C174 C179 1.391 . S
C175 H161 0.941 . S
C175 C174 1.389 . S
C175 C176 1.397 . S
C176 H162 0.939 . S
C176 C175 1.397 . S
C176 C177 1.378 . S
C177 C176 1.378 . S
C177 C178 1.378 . S
C178 H163 0.940 . S
C178 C177 1.378 . S
C178 C179 1.396 . S
C179 H164 0.940 . S
C179 C174 1.391 . S
C179 C178 1.396 . S
C180 P160 1.803 . S
C180 C181 1.378 . S
C180 C185 1.400 . S
C181 H165 0.939 . S
C181 C180 1.378 . S
C181 C182 1.361 . S
C182 H166 0.942 . S
C182 C181 1.361 . S
C182 C183 1.369 . S
C183 C182 1.369 . S
C183 C184 1.404 . S
C184 H167 0.940 . S
C184 C183 1.404 . S
C184 C185 1.389 . S
C185 H168 0.939 . S
C185 C180 1.400 . S
C185 C184 1.389 . S
C186 P160 1.819 . S
C186 C187 1.391 . S
C186 C191 1.391 . S
C187 H169 0.941 . S
C187 C186 1.391 . S
C187 C188 1.396 . S
C188 H172 0.939 . S
C188 C187 1.396 . S
C188 C189 1.397 . S
C189 C188 1.397 . S
C189 C190 1.385 . S
C190 H173 0.940 . S
C190 C189 1.385 . S
C190 C191 1.388 . S
C191 H170 0.939 . S
C191 C186 1.391 . S
C191 C190 1.388 . S
P192 O203 1.490 . S
P192 C206 1.812 . S
P192 C212 1.803 . S
P192 C218 1.819 . S
H193 C207 0.941 . S
H194 C208 0.939 1_556 S
H195 C210 0.940 . S
H196 C211 0.940 . S
H197 C213 0.939 . S
H198 C214 0.942 . S
H199 C216 0.940 . S
H200 C217 0.939 . S
H201 C219 0.941 . S
H202 C223 0.939 . S
O203 P192 1.490 . S
H204 C220 0.939 . S
H205 C222 0.940 . S
C206 P192 1.812 . S
C206 C207 1.389 . S
C206 C211 1.391 . S
C207 H193 0.941 . S
C207 C206 1.389 . S
C207 C208 1.397 . S
C208 H194 0.939 1_554 S
C208 C207 1.397 . S
C208 C209 1.378 . S
C209 C208 1.378 . S
C209 C210 1.378 . S
C210 H195 0.940 . S
C210 C209 1.378 . S
C210 C211 1.396 . S
C211 H196 0.940 . S
C211 C206 1.391 . S
C211 C210 1.396 . S
C212 P192 1.803 . S
C212 C213 1.378 . S
C212 C217 1.400 . S
C213 H197 0.939 . S
C213 C212 1.378 . S
C213 C214 1.361 . S
C214 H198 0.942 . S
C214 C213 1.361 . S
C214 C215 1.369 . S
C215 C214 1.369 . S
C215 C216 1.404 . S
C216 H199 0.940 . S
C216 C215 1.404 . S
C216 C217 1.389 . S
C217 H200 0.939 . S
C217 C212 1.400 . S
C217 C216 1.389 . S
C218 P192 1.819 . S
C218 C219 1.391 . S
C218 C223 1.391 . S
C219 H201 0.941 . S
C219 C218 1.391 . S
C219 C220 1.396 . S
C220 H204 0.939 . S
C220 C219 1.396 . S
C220 C221 1.397 . S
C221 C220 1.397 . S
C221 C222 1.385 . S
C222 H205 0.940 . S
C222 C221 1.385 . S
C222 C223 1.388 . S
C223 H202 0.939 . S
C223 C218 1.391 . S
C223 C222 1.388 . S
P224 O235 1.490 . S
P224 C238 1.812 . S
P224 C244 1.803 . S
P224 C250 1.819 . S
H225 C239 0.941 . S
H226 C240 0.939 . S
H227 C242 0.940 . S
H228 C243 0.940 . S
H229 C245 0.939 . S
H230 C246 0.942 . S
H231 C248 0.940 . S
H232 C249 0.939 . S
H233 C251 0.941 . S
H234 C255 0.939 . S
O235 P224 1.490 . S
H236 C252 0.939 . S
H237 C254 0.940 . S
C238 P224 1.812 . S
C238 C239 1.389 . S
C238 C243 1.391 . S
C239 H225 0.941 . S
C239 C238 1.389 . S
C239 C240 1.397 . S
C240 H226 0.939 . S
C240 C239 1.397 . S
C240 C241 1.378 . S
C241 C240 1.378 . S
C241 C242 1.378 . S
C242 H227 0.940 . S
C242 C241 1.378 . S
C242 C243 1.396 . S
C243 H228 0.940 . S
C243 C238 1.391 . S
C243 C242 1.396 . S
C244 P224 1.803 . S
C244 C245 1.378 . S
C244 C249 1.400 . S
C245 H229 0.939 . S
C245 C244 1.378 . S
C245 C246 1.361 . S
C246 H230 0.942 . S
C246 C245 1.361 . S
C246 C247 1.369 . S
C247 C246 1.369 . S
C247 C248 1.404 . S
C248 H231 0.940 . S
C248 C247 1.404 . S
C248 C249 1.389 . S
C249 H232 0.939 . S
C249 C244 1.400 . S
C249 C248 1.389 . S
C250 P224 1.819 . S
C250 C251 1.391 . S
C250 C255 1.391 . S
C251 H233 0.941 . S
C251 C250 1.391 . S
C251 C252 1.396 . S
C252 H236 0.939 . S
C252 C251 1.396 . S
C252 C253 1.397 . S
C253 C252 1.397 . S
C253 C254 1.385 . S
C254 H237 0.940 . S
C254 C253 1.385 . S
C254 C255 1.388 . S
C255 H234 0.939 . S
C255 C250 1.391 . S
C255 C254 1.388 . S
C256 O272 1.251 . S
C256 O274 1.254 1_545 S
N257 C258 1.333 . S
N257 C262 1.307 . S
N257 Zn263 2.020 . S
C258 N257 1.333 . S
C258 C259 1.379 . S
C258 H276 0.952 . S
C259 C258 1.379 . S
C259 C260 1.390 . S
C259 H286 0.949 . S
C260 C259 1.390 . S
C260 C261 1.357 . S
C261 C260 1.357 . S
C261 C262 1.370 . S
C261 H287 0.950 . S
C262 N257 1.307 . S
C262 C261 1.370 . S
C262 H280 0.948 1_455 S
Zn263 N257 2.020 . S
Zn263 O272 2.039 . S
Zn263 O278 2.034 . S
Zn263 O282 2.025 1_455 S
Zn263 O284 2.024 1_455 S
C264 O283 1.246 1_545 S
C264 O284 1.249 . S
N265 C266 1.308 1_655 S
N265 C267 1.333 . S
N265 Zn271 2.020 . S
C266 N265 1.308 1_455 S
C266 C270 1.371 1_455 S
C266 H277 0.947 . S
C267 N265 1.333 . S
C267 C268 1.379 . S
C267 H275 0.952 . S
C268 C267 1.379 . S
C268 C269 1.390 . S
C268 H288 0.949 . S
C269 C268 1.390 . S
C269 C270 1.357 . S
C270 C266 1.371 1_655 S
C270 C269 1.357 . S
C270 H289 0.950 1_655 S
Zn271 N265 2.020 . S
Zn271 O274 2.025 1_655 S
Zn271 O279 2.024 1_655 S
Zn271 O281 2.039 . S
Zn271 O283 2.034 . S
O272 C256 1.251 . S
O272 Zn263 2.039 . S
C273 O278 1.246 1_565 S
C273 O279 1.249 . S
O274 C256 1.254 1_565 S
O274 Zn271 2.025 1_455 S
H275 C267 0.952 . S
H276 C258 0.952 . S
H277 C266 0.947 . S
O278 Zn263 2.034 . S
O278 C273 1.246 1_545 S
O279 Zn271 2.024 1_455 S
O279 C273 1.249 . S
H280 C262 0.948 1_655 S
O281 Zn271 2.039 . S
O281 C285 1.251 . S
O282 Zn263 2.025 1_655 S
O282 C285 1.254 1_545 S
O283 C264 1.246 1_565 S
O283 Zn271 2.034 . S
O284 Zn263 2.024 1_655 S
O284 C264 1.249 . S
C285 O281 1.251 . S
C285 O282 1.254 1_565 S
H286 C259 0.949 . S
H287 C261 0.950 . S
H288 C268 0.949 . S
H289 C270 0.950 1_455 S
C290 O306 1.251 1_565 S
C290 O308 1.254 1_556 S
N291 C292 1.333 . S
N291 C296 1.307 . S
N291 Zn297 2.020 . S
C292 N291 1.333 . S
C292 C293 1.379 . S
C292 H310 0.952 . S
C293 C292 1.379 . S
C293 C294 1.390 . S
C293 H320 0.949 . S
C294 C293 1.390 . S
C294 C295 1.357 . S
C295 C294 1.357 . S
C295 C296 1.370 . S
C295 H321 0.950 . S
C296 N291 1.307 . S
C296 C295 1.370 . S
C296 H314 0.948 . S
Zn297 N291 2.020 . S
Zn297 O306 2.039 . S
Zn297 O312 2.034 1_556 S
Zn297 O316 2.025 1_556 S
Zn297 O318 2.024 . S
C298 O317 1.246 . S
C298 O318 1.249 1_565 S
N299 C300 1.307 . S
N299 C301 1.333 . S
N299 Zn305 2.020 . S
C300 N299 1.307 . S
C300 C304 1.370 . S
C300 H311 0.948 . S
C301 N299 1.333 . S
C301 C302 1.379 . S
C301 H309 0.952 . S
C302 C301 1.379 . S
C302 C303 1.390 . S
C302 H322 0.949 . S
C303 C302 1.390 . S
C303 C304 1.357 . S
C304 C300 1.370 . S
C304 C303 1.357 . S
C304 H323 0.950 . S
Zn305 N299 2.020 . S
Zn305 O308 2.025 . S
Zn305 O313 2.024 . S
Zn305 O315 2.039 . S
Zn305 O317 2.034 1_554 S
O306 C290 1.251 1_545 S
O306 Zn297 2.039 . S
C307 O312 1.246 . S
C307 O313 1.249 1_545 S
O308 C290 1.254 1_554 S
O308 Zn305 2.025 . S
H309 C301 0.952 . S
H310 C292 0.952 . S
H311 C300 0.948 . S
O312 Zn297 2.034 1_554 S
O312 C307 1.246 . S
O313 Zn305 2.024 . S
O313 C307 1.249 1_565 S
H314 C296 0.948 . S
O315 Zn305 2.039 . S
O315 C319 1.251 1_565 S
O316 Zn297 2.025 1_554 S
O316 C319 1.254 . S
O317 C298 1.246 . S
O317 Zn305 2.034 1_556 S
O318 Zn297 2.024 . S
O318 C298 1.249 1_545 S
C319 O315 1.251 1_545 S
C319 O316 1.254 . S
H320 C293 0.949 . S
H321 C295 0.950 . S
H322 C302 0.949 . S
H323 C304 0.950 . S
C324 O340 1.251 . S
C324 O342 1.254 . S
N325 C326 1.333 . S
N325 C330 1.307 . S
N325 Zn331 2.020 . S
C326 N325 1.333 . S
C326 C327 1.379 . S
C326 H344 0.952 . S
C327 C326 1.379 . S
C327 C328 1.390 . S
C327 H354 0.949 . S
C328 C327 1.390 . S
C328 C329 1.357 . S
C329 C328 1.357 . S
C329 C330 1.370 . S
C329 H355 0.950 . S
C330 N325 1.307 . S
C330 C329 1.370 . S
C330 H348 0.948 . S
Zn331 N325 2.020 . S
Zn331 O340 2.039 . S
Zn331 O346 2.034 . S
Zn331 O350 2.025 . S
Zn331 O352 2.024 . S
C332 O351 1.246 . S
C332 O352 1.249 . S
N333 C334 1.307 . S
N333 C335 1.333 . S
N333 Zn339 2.020 . S
C334 N333 1.307 . S
C334 C338 1.370 . S
C334 H345 0.948 . S
C335 N333 1.333 . S
C335 C336 1.379 . S
C335 H343 0.952 . S
C336 C335 1.379 . S
C336 C337 1.390 . S
C336 H356 0.949 . S
C337 C336 1.390 . S
C337 C338 1.357 . S
C338 C334 1.370 . S
C338 C337 1.357 . S
C338 H357 0.950 . S
Zn339 N333 2.020 . S
Zn339 O342 2.025 . S
Zn339 O347 2.024 . S
Zn339 O349 2.039 . S
Zn339 O351 2.034 . S
O340 C324 1.251 . S
O340 Zn331 2.039 . S
C341 O346 1.246 . S
C341 O347 1.249 . S
O342 C324 1.254 . S
O342 Zn339 2.025 . S
H343 C335 0.952 . S
H344 C326 0.952 . S
H345 C334 0.948 . S
O346 Zn331 2.034 . S
O346 C341 1.246 . S
O347 Zn339 2.024 . S
O347 C341 1.249 . S
H348 C330 0.948 . S
O349 Zn339 2.039 . S
O349 C353 1.251 . S
O350 Zn331 2.025 . S
O350 C353 1.254 . S
O351 C332 1.246 . S
O351 Zn339 2.034 . S
O352 Zn331 2.024 . S
O352 C332 1.249 . S
C353 O349 1.251 . S
C353 O350 1.254 . S
H354 C327 0.949 . S
H355 C329 0.950 . S
H356 C336 0.949 . S
H357 C338 0.950 . S
C358 O374 1.251 1_556 S
C358 O376 1.253 . S
N359 C360 1.333 . S
N359 C364 1.307 . S
N359 Zn365 2.020 . S
C360 N359 1.333 . S
C360 C361 1.379 . S
C360 H378 0.952 . S
C361 C360 1.379 . S
C361 C362 1.390 . S
C361 H388 0.949 . S
C362 C361 1.390 . S
C362 C363 1.357 . S
C363 C362 1.357 . S
C363 C364 1.370 . S
C363 H389 0.950 . S
C364 N359 1.307 . S
C364 C363 1.370 . S
C364 H382 0.948 . S
Zn365 N359 2.020 . S
Zn365 O374 2.039 . S
Zn365 O380 2.034 1_655 S
Zn365 O384 2.025 1_655 S
Zn365 O386 2.024 . S
C366 O385 1.246 . S
C366 O386 1.249 1_556 S
N367 C368 1.307 . S
N367 C369 1.333 . S
N367 Zn373 2.020 . S
C368 N367 1.307 . S
C368 C372 1.370 . S
C368 H379 0.948 . S
C369 N367 1.333 . S
C369 C370 1.379 . S
C369 H377 0.952 . S
C370 C369 1.379 . S
C370 C371 1.390 . S
C370 H390 0.949 . S
C371 C370 1.390 . S
C371 C372 1.357 . S
C372 C368 1.370 . S
C372 C371 1.357 . S
C372 H391 0.950 . S
Zn373 N367 2.020 . S
Zn373 O376 2.026 1_455 S
Zn373 O381 2.024 . S
Zn373 O383 2.039 . S
Zn373 O385 2.034 1_455 S
O374 C358 1.251 1_554 S
O374 Zn365 2.039 . S
C375 O380 1.246 . S
C375 O381 1.249 1_554 S
O376 C358 1.253 . S
O376 Zn373 2.026 1_655 S
H377 C369 0.952 . S
H378 C360 0.952 . S
H379 C368 0.948 . S
O380 Zn365 2.034 1_455 S
O380 C375 1.246 . S
O381 Zn373 2.024 . S
O381 C375 1.249 1_556 S
H382 C364 0.948 . S
O383 Zn373 2.039 . S
O383 C387 1.251 1_556 S
O384 Zn365 2.025 1_455 S
O384 C387 1.254 . S
O385 C366 1.246 . S
O385 Zn373 2.034 1_655 S
O386 Zn365 2.024 . S
O386 C366 1.249 1_554 S
C387 O383 1.251 1_554 S
C387 O384 1.254 . S
H388 C361 0.949 . S
H389 C363 0.950 . S
H390 C370 0.949 . S
H391 C372 0.950 . S
C392 C393 1.387 . S
C392 H396 0.950 . S
C392 C401 1.390 . S
C393 C392 1.387 . S
C393 C395 1.387 . S
H394 C401 0.950 . S
C395 C393 1.387 . S
C395 C397 1.390 . S
C395 H399 0.950 . S
H396 C392 0.950 . S
C397 C395 1.390 . S
C397 C398 1.387 . S
C397 H400 0.950 1_545 S
C398 C397 1.387 . S
C398 C401 1.387 . S
H399 C395 0.950 . S
H400 C397 0.950 1_565 S
C401 C392 1.390 . S
C401 H394 0.950 . S
C401 C398 1.387 . S
C402 C403 1.387 . S
C402 H406 0.950 . S
C402 C411 1.390 . S
C403 C402 1.387 . S
C403 C405 1.387 . S
H404 C411 0.950 1_545 S
C405 C403 1.387 . S
C405 C407 1.390 . S
C405 H409 0.950 . S
H406 C402 0.950 . S
C407 C405 1.390 . S
C407 C408 1.387 . S
C407 H410 0.950 . S
C408 C407 1.387 . S
C408 C411 1.387 . S
H409 C405 0.950 . S
H410 C407 0.950 . S
C411 C402 1.390 . S
C411 H404 0.950 1_565 S
C411 C408 1.387 . S
C412 C413 1.387 . S
C412 H416 0.950 . S
C412 C421 1.390 . S
C413 C412 1.387 . S
C413 C415 1.387 . S
H414 C421 0.950 . S
C415 C413 1.387 . S
C415 C417 1.390 . S
C415 H419 0.950 . S
H416 C412 0.950 . S
C417 C415 1.390 . S
C417 C418 1.387 . S
C417 H420 0.950 . S
C418 C417 1.387 . S
C418 C421 1.387 . S
H419 C415 0.950 . S
H420 C417 0.950 . S
C421 C412 1.390 . S
C421 H414 0.950 . S
C421 C418 1.387 . S
C422 C423 1.387 . S
C422 H426 0.950 . S
C422 C431 1.390 . S
C423 C422 1.387 . S
C423 C425 1.387 . S
H424 C431 0.950 . S
C425 C423 1.387 . S
C425 C427 1.390 . S
C425 H429 0.950 . S
H426 C422 0.950 . S
C427 C425 1.390 . S
C427 C428 1.387 . S
C427 H430 0.950 . S
C428 C427 1.387 . S
C428 C431 1.387 . S
H429 C425 0.950 . S
H430 C427 0.950 . S
C431 C422 1.390 . S
C431 H424 0.950 . S
C431 C428 1.387 . S
C432 C433 1.387 . S
C432 H436 0.950 1_545 S
C432 C441 1.390 . S
C433 C432 1.387 . S
C433 C435 1.387 . S
H434 C441 0.950 1_565 S
C435 C433 1.387 . S
C435 C437 1.390 . S
C435 H439 0.950 . S
H436 C432 0.950 1_565 S
C437 C435 1.390 . S
C437 C438 1.387 . S
C437 H440 0.950 . S
C438 C437 1.387 . S
C438 C441 1.387 . S
H439 C435 0.950 . S
H440 C437 0.950 . S
C441 C432 1.390 . S
C441 H434 0.950 1_545 S
C441 C438 1.387 . S
C442 C443 1.387 . S
C442 H446 0.950 1_565 S
C442 C451 1.390 . S
C443 C442 1.387 . S
C443 C445 1.387 . S
H444 C451 0.950 1_545 S
C445 C443 1.387 . S
C445 C447 1.390 . S
C445 H449 0.950 . S
H446 C442 0.950 1_545 S
C447 C445 1.390 . S
C447 C448 1.387 . S
C447 H450 0.950 . S
C448 C447 1.387 . S
C448 C451 1.387 . S
H449 C445 0.950 . S
H450 C447 0.950 . S
C451 C442 1.390 . S
C451 H444 0.950 1_565 S
C451 C448 1.387 . S
C452 C453 1.387 . S
C452 H456 0.950 . S
C452 C461 1.390 . S
C453 C452 1.387 . S
C453 C455 1.387 . S
H454 C461 0.950 . S
C455 C453 1.387 . S
C455 C457 1.390 . S
C455 H459 0.950 1_556 S
H456 C452 0.950 . S
C457 C455 1.390 . S
C457 C458 1.387 . S
C457 H460 0.950 1_556 S
C458 C457 1.387 . S
C458 C461 1.387 . S
H459 C455 0.950 1_554 S
H460 C457 0.950 1_554 S
C461 C452 1.390 . S
C461 H454 0.950 . S
C461 C458 1.387 . S
C462 C463 1.387 . S
C462 H466 0.950 . S
C462 C471 1.390 . S
C463 C462 1.387 . S
C463 C465 1.387 . S
H464 C471 0.950 . S
C465 C463 1.387 . S
C465 C467 1.390 . S
C465 H469 0.950 . S
H466 C462 0.950 . S
C467 C465 1.390 . S
C467 C468 1.387 . S
C467 H470 0.950 . S
C468 C467 1.387 . S
C468 C471 1.387 . S
H469 C465 0.950 . S
H470 C467 0.950 . S
C471 C462 1.390 . S
C471 H464 0.950 . S
C471 C468 1.387 . S
C472 C473 1.387 . S
C472 H476 0.950 . S
C472 C481 1.390 . S
C473 C472 1.387 . S
C473 C475 1.387 . S
H474 C481 0.955 . S
C475 C473 1.387 . S
C475 C477 1.390 . S
C475 H479 0.950 . S
H476 C472 0.950 . S
C477 C475 1.390 . S
C477 C478 1.387 . S
C477 H480 0.950 . S
C478 C477 1.387 . S
C478 C481 1.387 . S
H479 C475 0.950 . S
H480 C477 0.950 . S
C481 C472 1.390 . S
C481 H474 0.955 . S
C481 C478 1.387 . S
C482 C483 1.387 . S
C482 H486 0.950 . S
C482 C491 1.390 . S
C483 C482 1.387 . S
C483 C485 1.387 . S
H484 C491 0.950 . S
C485 C483 1.387 . S
C485 C487 1.390 . S
C485 H489 0.950 1_556 S
H486 C482 0.950 . S
C487 C485 1.390 . S
C487 C488 1.387 . S
C487 H490 0.950 1_556 S
C488 C487 1.387 . S
C488 C491 1.387 . S
H489 C485 0.950 1_554 S
H490 C487 0.950 1_554 S
C491 C482 1.390 . S
C491 H484 0.950 . S
C491 C488 1.387 . S
C492 C493 1.387 . S
C492 H496 0.950 . S
C492 C501 1.390 . S
C493 C492 1.387 . S
C493 C495 1.387 . S
H494 C501 0.950 . S
C495 C493 1.387 . S
C495 C497 1.390 . S
C495 H499 0.950 . S
H496 C492 0.950 . S
C497 C495 1.390 . S
C497 C498 1.387 . S
C497 H500 0.950 . S
C498 C497 1.387 . S
C498 C501 1.387 . S
H499 C495 0.950 . S
H500 C497 0.950 . S
C501 C492 1.390 . S
C501 H494 0.950 . S
C501 C498 1.387 . S
C502 C503 1.387 . S
C502 H506 0.950 . S
C502 C511 1.390 . S
C503 C502 1.387 . S
C503 C505 1.387 . S
H504 C511 0.950 . S
C505 C503 1.387 . S
C505 C507 1.390 . S
C505 H509 0.950 . S
H506 C502 0.950 . S
C507 C505 1.390 . S
C507 C508 1.387 . S
C507 H510 0.950 . S
C508 C507 1.387 . S
C508 C511 1.387 . S
H509 C505 0.950 . S
H510 C507 0.950 . S
C511 C502 1.390 . S
C511 H504 0.950 . S
C511 C508 1.387 . S
C512 C513 1.387 . S
C512 H516 0.950 . S
C512 C521 1.390 . S
C513 C512 1.387 . S
C513 C515 1.387 . S
H514 C521 0.950 . S
C515 C513 1.387 . S
C515 C517 1.390 . S
C515 H519 0.950 1_565 S
H516 C512 0.950 . S
C517 C515 1.390 . S
C517 C518 1.387 . S
C517 H520 0.950 1_565 S
C518 C517 1.387 . S
C518 C521 1.387 . S
H519 C515 0.950 1_545 S
H520 C517 0.950 1_545 S
C521 C512 1.390 . S
C521 H514 0.950 . S
C521 C518 1.387 . S
C522 C523 1.387 . S
C522 H526 0.950 . S
C522 C531 1.390 . S
C523 C522 1.387 . S
C523 C525 1.387 . S
H524 C531 0.950 1_565 S
C525 C523 1.387 . S
C525 C527 1.390 . S
C525 H529 0.950 . S
H526 C522 0.950 . S
C527 C525 1.390 . S
C527 C528 1.387 . S
C527 H530 0.950 . S
C528 C527 1.387 . S
C528 C531 1.387 . S
H529 C525 0.950 . S
H530 C527 0.950 . S
C531 C522 1.390 . S
C531 H524 0.950 1_545 S
C531 C528 1.387 . S
C532 C533 1.387 . S
C532 H536 0.950 . S
C532 C541 1.390 . S
C533 C532 1.387 . S
C533 C535 1.387 . S
H534 C541 0.950 . S
C535 C533 1.387 . S
C535 C537 1.390 . S
C535 H539 0.950 . S
H536 C532 0.950 . S
C537 C535 1.390 . S
C537 C538 1.387 . S
C537 H540 0.950 . S
C538 C537 1.387 . S
C538 C541 1.387 . S
H539 C535 0.950 . S
H540 C537 0.950 . S
C541 C532 1.390 . S
C541 H534 0.950 . S
C541 C538 1.387 . S
C542 C543 1.387 . S
C542 H546 0.950 . S
C542 C551 1.390 . S
C543 C542 1.387 . S
C543 C545 1.387 . S
H544 C551 0.950 . S
C545 C543 1.387 . S
C545 C547 1.390 . S
C545 H549 0.950 . S
H546 C542 0.950 . S
C547 C545 1.390 . S
C547 C548 1.387 . S
C547 H550 0.950 . S
C548 C547 1.387 . S
C548 C551 1.387 . S
H549 C545 0.950 . S
H550 C547 0.950 . S
C551 C542 1.390 . S
C551 H544 0.950 . S
C551 C548 1.387 . S
C552 C553 1.387 . S
C552 H556 0.950 . S
C552 C561 1.390 . S
C553 C552 1.387 . S
C553 C555 1.387 . S
H554 C561 0.950 . S
C555 C553 1.387 . S
C555 C557 1.390 . S
C555 H559 0.950 1_565 S
H556 C552 0.950 . S
C557 C555 1.390 . S
C557 C558 1.387 . S
C557 H560 0.950 1_565 S
C558 C557 1.387 . S
C558 C561 1.387 . S
H559 C555 0.950 1_545 S
H560 C557 0.950 1_545 S
C561 C552 1.390 . S
C561 H554 0.950 . S
C561 C558 1.387 . S
C562 C563 1.387 . S
C562 H566 0.950 . S
C562 C571 1.390 . S
C563 C562 1.387 . S
C563 C565 1.387 . S
H564 C571 0.950 . S
C565 C563 1.387 . S
C565 C567 1.390 . S
C565 H569 0.950 . S
H566 C562 0.950 . S
C567 C565 1.390 . S
C567 C568 1.387 . S
C567 H570 0.950 1_545 S
C568 C567 1.387 . S
C568 C571 1.387 . S
H569 C565 0.950 . S
H570 C567 0.950 1_565 S
C571 C562 1.390 . S
C571 H564 0.950 . S
C571 C568 1.387 . S
C572 C573 1.387 . S
C572 H576 0.950 . S
C572 C581 1.390 . S
C573 C572 1.387 . S
C573 C575 1.387 . S
H574 C581 0.950 . S
C575 C573 1.387 . S
C575 C577 1.390 . S
C575 H579 0.950 1_554 S
H576 C572 0.950 . S
C577 C575 1.390 . S
C577 C578 1.387 . S
C577 H580 0.950 1_554 S
C578 C577 1.387 . S
C578 C581 1.387 . S
H579 C575 0.950 1_556 S
H580 C577 0.950 1_556 S
C581 C572 1.390 . S
C581 H574 0.950 . S
C581 C578 1.387 . S
C582 C583 1.387 . S
C582 H586 0.950 . S
C582 C591 1.390 . S
C583 C582 1.387 . S
C583 C585 1.387 . S
H584 C591 0.950 . S
C585 C583 1.387 . S
C585 C587 1.390 . S
C585 H589 0.950 . S
H586 C582 0.950 . S
C587 C585 1.390 . S
C587 C588 1.387 . S
C587 H590 0.950 . S
C588 C587 1.387 . S
C588 C591 1.387 . S
H589 C585 0.950 . S
H590 C587 0.950 . S
C591 C582 1.390 . S
C591 H584 0.950 . S
C591 C588 1.387 . S
C592 C593 1.387 . S
C592 H596 0.950 . S
C592 C601 1.390 . S
C593 C592 1.387 . S
C593 C595 1.387 . S
H594 C601 0.950 . S
C595 C593 1.387 . S
C595 C597 1.391 . S
C595 H599 0.950 1_655 S
H596 C592 0.950 . S
C597 C595 1.391 . S
C597 C598 1.399 . S
C597 H600 0.937 1_655 S
C598 C597 1.399 . S
C598 C601 1.387 . S
H599 C595 0.950 1_455 S
H600 C597 0.937 1_455 S
C601 C592 1.390 . S
C601 H594 0.950 . S
C601 C598 1.387 . S
C602 C603 1.387 . S
C602 H606 0.950 1_554 S
C602 C611 1.390 . S
C603 C602 1.387 . S
C603 C605 1.387 . S
H604 C611 0.950 . S
C605 C603 1.387 . S
C605 C607 1.390 . S
C605 H609 0.950 . S
H606 C602 0.950 1_556 S
C607 C605 1.390 . S
C607 C608 1.387 . S
C607 H610 0.950 . S
C608 C607 1.387 . S
C608 C611 1.387 . S
H609 C605 0.950 . S
H610 C607 0.950 . S
C611 C602 1.390 . S
C611 H604 0.950 . S
C611 C608 1.387 . S
C612 C613 1.387 . S
C612 H616 0.950 . S
C612 C621 1.390 . S
C613 C612 1.387 . S
C613 C615 1.387 . S
H614 C621 0.950 . S
C615 C613 1.387 . S
C615 C617 1.390 . S
C615 H619 0.950 . S
H616 C612 0.950 . S
C617 C615 1.390 . S
C617 C618 1.387 . S
C617 H620 0.950 . S
C618 C617 1.387 . S
C618 C621 1.387 . S
H619 C615 0.950 . S
H620 C617 0.950 . S
C621 C612 1.390 . S
C621 H614 0.950 . S
C621 C618 1.387 . S
C622 C623 1.387 . S
C622 H626 0.950 . S
C622 C631 1.390 . S
C623 C622 1.387 . S
C623 C625 1.387 . S
H624 C631 0.950 . S
C625 C623 1.387 . S
C625 C627 1.390 . S
C625 H629 0.950 . S
H626 C622 0.950 . S
C627 C625 1.390 . S
C627 C628 1.387 . S
C627 H630 0.950 . S
C628 C627 1.387 . S
C628 C631 1.387 . S
H629 C625 0.950 . S
H630 C627 0.950 . S
C631 C622 1.390 . S
C631 H624 0.950 . S
C631 C628 1.387 . S
C393 C29 2.259 . S
C398 C256 2.376 . S
C403 C49 2.269 . S
C408 C298 2.271 . S
C418 C328 1.091 . S
C413 C93 0.997 . S
C423 C119 1.005 . S
C428 C362 1.096 . S
C438 C319 1.859 . S
C433 C17 1.744 . S
C448 C273 1.886 . S
C443 C61 1.892 . S
C458 C366 1.366 . S
C453 C81 1.241 . S
C468 C332 1.471 . S
C463 C125 1.311 . S
C473 C23 2.084 . S
C478 C387 2.200 . S
C488 C294 1.195 . S
C483 C87 1.118 . S
C493 C113 1.149 . S
C498 C269 1.273 . S
C503 C55 2.194 . S
C508 C353 2.184 . S
C518 C285 2.319 . S
C513 C157 2.316 . S
C523 C189 2.193 . S
C528 C307 2.320 . S
C533 C221 1.102 . S
C538 C337 1.083 . S
C543 C253 1.042 . S
C548 C371 1.131 . S
C553 C145 1.890 . S
C558 C290 1.894 . S
C568 C264 1.823 . S
C563 C183 1.710 . S
C578 C375 1.400 . S
C573 C209 1.408 . S
C588 C341 1.418 . S
C583 C247 1.278 . S
C593 C151 2.220 . S
C598 C358 2.216 . S
C608 C303 1.217 . S
C603 C215 1.246 . S
C618 C260 1.244 . S
C613 C241 1.151 . S
C623 C177 2.117 . S
C628 C324 2.231 . S
