# Generated by pormake.
# Topology dag, (6,3)-cn, num edge types: 1
# Building blocks:
#     Node 0, Type 0, BuildingBlock: OJICUG_clean_sbu_0, # of connection points: 6
#     Node 1, Type 0, BuildingBlock: OJICUG_clean_sbu_0, # of connection points: 6
#     Node 2, Type 0, BuildingBlock: OJICUG_clean_sbu_0, # of connection points: 6
#     Node 3, Type 0, BuildingBlock: OJICUG_clean_sbu_0, # of connection points: 6
#     Node 4, Type 1, BuildingBlock: BETDAH_clean_linker_0, # of connection points: 3
#     Node 5, Type 1, BuildingBlock: BETDAH_clean_linker_0, # of connection points: 3
#     Node 6, Type 1, BuildingBlock: BETDAH_clean_linker_0, # of connection points: 3
#     Node 7, Type 1, BuildingBlock: BETDAH_clean_linker_0, # of connection points: 3
#     Node 8, Type 1, BuildingBlock: BETDAH_clean_linker_0, # of connection points: 3
#     Node 9, Type 1, BuildingBlock: BETDAH_clean_linker_0, # of connection points: 3
#     Node 10, Type 1, BuildingBlock: BETDAH_clean_linker_0, # of connection points: 3
#     Node 11, Type 1, BuildingBlock: BETDAH_clean_linker_0, # of connection points: 3
#     Edge 12, Type (0, 1), BuildingBlock: AJUNOK_clean_linker_0, # of connection points: 2
#     Edge 13, Type (0, 1), BuildingBlock: AJUNOK_clean_linker_0, # of connection points: 2
#     Edge 14, Type (0, 1), BuildingBlock: AJUNOK_clean_linker_0, # of connection points: 2
#     Edge 15, Type (0, 1), BuildingBlock: AJUNOK_clean_linker_0, # of connection points: 2
#     Edge 16, Type (0, 1), BuildingBlock: AJUNOK_clean_linker_0, # of connection points: 2
#     Edge 17, Type (0, 1), BuildingBlock: AJUNOK_clean_linker_0, # of connection points: 2
#     Edge 18, Type (0, 1), BuildingBlock: AJUNOK_clean_linker_0, # of connection points: 2
#     Edge 19, Type (0, 1), BuildingBlock: AJUNOK_clean_linker_0, # of connection points: 2
#     Edge 20, Type (0, 1), BuildingBlock: AJUNOK_clean_linker_0, # of connection points: 2
#     Edge 21, Type (0, 1), BuildingBlock: AJUNOK_clean_linker_0, # of connection points: 2
#     Edge 22, Type (0, 1), BuildingBlock: AJUNOK_clean_linker_0, # of connection points: 2
#     Edge 23, Type (0, 1), BuildingBlock: AJUNOK_clean_linker_0, # of connection points: 2
#     Edge 24, Type (0, 1), BuildingBlock: AJUNOK_clean_linker_0, # of connection points: 2
#     Edge 25, Type (0, 1), BuildingBlock: AJUNOK_clean_linker_0, # of connection points: 2
#     Edge 26, Type (0, 1), BuildingBlock: AJUNOK_clean_linker_0, # of connection points: 2
#     Edge 27, Type (0, 1), BuildingBlock: AJUNOK_clean_linker_0, # of connection points: 2
#     Edge 28, Type (0, 1), BuildingBlock: AJUNOK_clean_linker_0, # of connection points: 2
#     Edge 29, Type (0, 1), BuildingBlock: AJUNOK_clean_linker_0, # of connection points: 2
#     Edge 30, Type (0, 1), BuildingBlock: AJUNOK_clean_linker_0, # of connection points: 2
#     Edge 31, Type (0, 1), BuildingBlock: AJUNOK_clean_linker_0, # of connection points: 2
#     Edge 32, Type (0, 1), BuildingBlock: AJUNOK_clean_linker_0, # of connection points: 2
#     Edge 33, Type (0, 1), BuildingBlock: AJUNOK_clean_linker_0, # of connection points: 2
#     Edge 34, Type (0, 1), BuildingBlock: AJUNOK_clean_linker_0, # of connection points: 2
#     Edge 35, Type (0, 1), BuildingBlock: AJUNOK_clean_linker_0, # of connection points: 2
# Relax obj value: 0.094
# Max RMSD: 0.116
# Mean RMSD: 0.100
data_MOF--net-dag--node1-OJICUG_clean_sbu_0--node2-BETDAH_clean_linker_0--edge1-AJUNOK_clean_linker_0
_symmetry_space_group_name_H-M    P1
_symmetry_Int_Tables_number       1
_symmetry_cell_setting            triclinic
loop_
_symmetry_equiv_pos_as_xyz
'x, y, z'
_cell_length_a     27.058445
_cell_length_b     29.15624
_cell_length_c     28.883402
_cell_angle_alpha  94.697761
_cell_angle_beta   90.083961
_cell_angle_gamma 90.00966
loop_
_atom_site_label
_atom_site_type_symbol
_atom_site_fract_x
_atom_site_fract_y
_atom_site_fract_z
_atom_type_partial_charge
Sc0 Sc 0.10105 0.89681 0.06443 0.0
Sc1 Sc 0.11443 0.77692 0.05912 0.0
Sc2 Sc 0.2155 0.85062 0.09382 0.0
O3 O 0.14374 0.84134 0.07244 0.0
C4 C 0.20428 0.92741 0.02319 0.0
C5 C 0.06772 0.82965 0.97702 0.0
C6 C 0.22343 0.76475 0.01719 0.0
C7 C 0.02377 0.83065 0.10901 0.0
C8 C 0.1613 0.93084 0.15583 0.0
C9 C 0.17839 0.76842 0.15152 0.0
O10 O 0.15764 0.92945 0.02733 0.0
O11 O 0.08045 0.79255 0.99415 0.0
O12 O 0.24164 0.79826 0.04264 0.0
O13 O 0.03977 0.86996 0.10036 0.0
O14 O 0.1986 0.90502 0.14739 0.0
O15 O 0.14436 0.7549 0.12308 0.0
O16 O 0.12376 0.9307 0.12948 0.0
O17 O 0.0462 0.79341 0.0962 0.0
O18 O 0.20662 0.80217 0.14517 0.0
O19 O 0.0734 0.86908 0.99846 0.0
O20 O 0.23142 0.90081 0.04491 0.0
O21 O 0.17829 0.75299 0.01933 0.0
Sc22 Sc 0.71138 0.64417 0.44631 0.0
Sc23 Sc 0.61443 0.7219 0.48274 0.0
Sc24 Sc 0.59458 0.60274 0.47496 0.0
O25 O 0.64022 0.65637 0.46802 0.0
C26 C 0.6537 0.56572 0.38416 0.0
C27 C 0.67731 0.72807 0.38933 0.0
C28 C 0.52088 0.67338 0.43234 0.0
C29 C 0.72428 0.72926 0.52348 0.0
C30 C 0.69592 0.56768 0.51682 0.0
C31 C 0.56497 0.67014 0.56353 0.0
O32 O 0.69213 0.58998 0.39312 0.0
O33 O 0.64504 0.74291 0.41891 0.0
O34 O 0.53515 0.63303 0.43921 0.0
O35 O 0.74067 0.6955 0.49724 0.0
O36 O 0.64929 0.56723 0.5119 0.0
O37 O 0.58019 0.70701 0.54758 0.0
O38 O 0.72456 0.5935 0.49567 0.0
O39 O 0.67962 0.74255 0.52217 0.0
O40 O 0.56807 0.63097 0.54107 0.0
O41 O 0.70417 0.69302 0.39463 0.0
O42 O 0.61561 0.56808 0.40977 0.0
O43 O 0.5449 0.70935 0.44646 0.0
Sc44 Sc 0.88688 0.21776 0.98203 0.0
Sc45 Sc 0.78612 0.14511 0.94414 0.0
Sc46 Sc 0.90011 0.09773 0.97315 0.0
O47 O 0.85761 0.15362 0.96645 0.0
C48 C 0.97769 0.16561 0.93123 0.0
C49 C 0.82457 0.22859 0.88893 0.0
C50 C 0.84094 0.06579 0.88078 0.0
C51 C 0.77754 0.22902 0.02325 0.0
C52 C 0.93185 0.16229 0.06298 0.0
C53 C 0.79621 0.06594 0.01223 0.0
O54 O 0.95541 0.20259 0.94512 0.0
O55 O 0.79595 0.1947 0.8938 0.0
O56 O 0.87855 0.06577 0.907 0.0
O57 O 0.82279 0.2405 0.02185 0.0
O58 O 0.92657 0.12352 0.04014 0.0
O59 O 0.76958 0.09403 0.9919 0.0
O60 O 0.92003 0.2001 0.04675 0.0
O61 O 0.7594 0.19649 0.99638 0.0
O62 O 0.84284 0.06332 0.00806 0.0
O63 O 0.85766 0.24152 0.91858 0.0
O64 O 0.96181 0.12601 0.93896 0.0
O65 O 0.80344 0.09129 0.8898 0.0
Sc66 Sc 0.40302 0.39078 0.56511 0.0
Sc67 Sc 0.28586 0.35001 0.59318 0.0
Sc68 Sc 0.38327 0.27158 0.56009 0.0
O69 O 0.35732 0.33735 0.57276 0.0
C70 C 0.43368 0.32163 0.47837 0.0
C71 C 0.30209 0.42553 0.52206 0.0
C72 C 0.27414 0.26378 0.5174 0.0
C73 C 0.34303 0.42881 0.65505 0.0
C74 C 0.47634 0.32122 0.6102 0.0
C75 C 0.31836 0.26743 0.6525 0.0
O76 O 0.42975 0.3614 0.49947 0.0
O77 O 0.27329 0.39984 0.54312 0.0
O78 O 0.31866 0.25024 0.51983 0.0
O79 O 0.38147 0.42618 0.62987 0.0
O80 O 0.45217 0.28496 0.59731 0.0
O81 O 0.29198 0.30231 0.64563 0.0
O82 O 0.46236 0.3612 0.60163 0.0
O83 O 0.30457 0.40469 0.64586 0.0
O84 O 0.35148 0.25182 0.62411 0.0
O85 O 0.34868 0.42593 0.52732 0.0
O86 O 0.41892 0.28516 0.49545 0.0
O87 O 0.25745 0.29809 0.54264 0.0
H88 H 0.07624 0.08222 0.1901 0.0
H89 H 0.15394 0.12096 0.31709 0.0
H90 H 0.04451 0.21191 0.26533 0.0
C91 C 0.08269 0.10692 0.21969 0.0
C92 C 0.05549 0.14779 0.22405 0.0
C93 C 0.11757 0.09678 0.25317 0.0
C94 C 0.12712 0.12892 0.29106 0.0
C95 C 0.10078 0.17095 0.29522 0.0
C96 C 0.06522 0.18 0.26162 0.0
N97 N 0.10769 0.2047 0.33294 0.0
C98 C 0.1425 0.20306 0.3682 0.0
H99 H 0.42659 0.5855 0.68975 0.0
H100 H 0.44995 0.71622 0.76621 0.0
H101 H 0.34559 0.61947 0.8158 0.0
C102 C 0.41841 0.60964 0.71939 0.0
C103 C 0.38385 0.59749 0.75227 0.0
C104 C 0.44239 0.65224 0.72391 0.0
C105 C 0.43113 0.68331 0.76194 0.0
C106 C 0.39632 0.67204 0.7952 0.0
C107 C 0.37224 0.62886 0.79028 0.0
N108 N 0.38777 0.70501 0.83323 0.0
C109 C 0.35306 0.70174 0.86818 0.0
H110 H 0.84238 0.92061 0.11532 0.0
H111 H 0.78657 0.80295 0.17922 0.0
H112 H 0.68584 0.90028 0.12539 0.0
C113 C 0.81151 0.90085 0.1271 0.0
C114 C 0.76332 0.91549 0.11891 0.0
C115 C 0.82036 0.86001 0.14814 0.0
C116 C 0.78009 0.83448 0.16274 0.0
C117 C 0.73139 0.84943 0.15503 0.0
C118 C 0.72326 0.8892 0.13194 0.0
N119 N 0.68996 0.82508 0.17008 0.0
C120 C 0.69 0.80469 0.21178 0.0
H121 H 0.65082 0.41143 0.6151 0.0
H122 H 0.71716 0.29748 0.67728 0.0
H123 H 0.80866 0.40477 0.62851 0.0
C124 C 0.68352 0.3941 0.62675 0.0
C125 C 0.73011 0.41342 0.62034 0.0
C126 C 0.67847 0.35229 0.64687 0.0
C127 C 0.72083 0.32975 0.66149 0.0
C128 C 0.76797 0.34901 0.65514 0.0
C129 C 0.77242 0.3901 0.63341 0.0
N130 N 0.81143 0.32823 0.67098 0.0
C131 C 0.81275 0.30748 0.71248 0.0
H132 H 0.56795 0.40779 0.34968 0.0
H133 H 0.659 0.37068 0.23056 0.0
H134 H 0.55949 0.2712 0.28256 0.0
C135 C 0.57939 0.38253 0.32209 0.0
C136 C 0.55922 0.33825 0.31989 0.0
C137 C 0.61513 0.39458 0.29017 0.0
C138 C 0.63118 0.36158 0.25512 0.0
C139 C 0.61066 0.31683 0.25233 0.0
C140 C 0.57516 0.30553 0.28495 0.0
N141 N 0.62436 0.28177 0.21775 0.0
C142 C 0.65517 0.28666 0.18001 0.0
H143 H 0.15765 0.07742 0.92416 0.0
H144 H 0.21541 0.19719 0.86623 0.0
H145 H 0.31475 0.09533 0.914 0.0
C146 C 0.18905 0.09712 0.91337 0.0
C147 C 0.23697 0.08114 0.92069 0.0
C148 C 0.18092 0.13883 0.89388 0.0
C149 C 0.22152 0.16477 0.88105 0.0
C150 C 0.26999 0.14872 0.88783 0.0
C151 C 0.27749 0.10753 0.90871 0.0
N152 N 0.31169 0.17284 0.87302 0.0
C153 C 0.31133 0.19378 0.83163 0.0
H154 H 0.34613 0.5836 0.42707 0.0
H155 H 0.2804 0.69866 0.36714 0.0
H156 H 0.18856 0.58849 0.40895 0.0
C157 C 0.31349 0.60077 0.41506 0.0
C158 C 0.26692 0.58086 0.42002 0.0
C159 C 0.31864 0.64307 0.39603 0.0
C160 C 0.27652 0.6657 0.38128 0.0
C161 C 0.22945 0.6456 0.38532 0.0
C162 C 0.22476 0.60382 0.40578 0.0
N163 N 0.18646 0.66621 0.36823 0.0
C164 C 0.18688 0.6885 0.32759 0.0
H165 H 0.92825 0.91274 0.84764 0.0
H166 H 0.95512 0.78146 0.77352 0.0
H167 H 0.8487 0.87486 0.72133 0.0
C168 C 0.92088 0.888 0.81828 0.0
C169 C 0.88614 0.89878 0.78483 0.0
C170 C 0.94578 0.84583 0.81482 0.0
C171 C 0.93556 0.81399 0.77705 0.0
C172 C 0.90069 0.82392 0.74321 0.0
C173 C 0.87551 0.86654 0.74723 0.0
N174 N 0.89314 0.7902 0.70558 0.0
C175 C 0.85789 0.79176 0.67071 0.0
C176 C 0.1949 0.00315 0.19545 0.0
C177 C 0.16182 0.96594 0.1955 0.0
C178 C 0.18432 0.04525 0.22082 0.0
C179 C 0.14078 0.05084 0.24725 0.0
H180 H 0.22594 0.00149 0.1717 0.0
H181 H 0.20725 0.07484 0.21555 0.0
S182 S 0.04723 0.96124 0.26479 0.0
N183 N 0.08769 0.93538 0.22871 0.0
N184 N 0.06842 0.01399 0.27702 0.0
C185 C 0.11095 0.01211 0.25194 0.0
C186 C 0.12125 0.9697 0.22573 0.0
C187 C 0.5452 0.63407 0.63616 0.0
C188 C 0.54029 0.67187 0.60925 0.0
C189 C 0.51565 0.62979 0.67517 0.0
C190 C 0.47946 0.66283 0.68852 0.0
H191 H 0.57073 0.60654 0.62585 0.0
H192 H 0.51962 0.59923 0.69384 0.0
S193 S 0.45362 0.76964 0.63137 0.0
N194 N 0.4987 0.7445 0.60023 0.0
N195 N 0.44208 0.73594 0.67336 0.0
C196 C 0.47595 0.70216 0.66356 0.0
C197 C 0.50661 0.70678 0.62391 0.0
C198 C 0.75421 0.99168 0.02059 0.0
C199 C 0.77293 0.03336 0.04136 0.0
C200 C 0.74602 0.9542 0.04713 0.0
C201 C 0.75652 0.95767 0.09495 0.0
H202 H 0.74973 0.98686 0.98321 0.0
H203 H 0.73541 0.92139 0.0296 0.0
S204 S 0.79903 0.06152 0.16623 0.0
N205 N 0.79644 0.07766 0.11276 0.0
N206 N 0.781 0.00719 0.16274 0.0
C207 C 0.77127 0.00032 0.11653 0.0
C208 C 0.77958 0.03829 0.08961 0.0
C209 C 0.54151 0.3526 0.66442 0.0
C210 C 0.52597 0.31777 0.631 0.0
C211 C 0.59174 0.36001 0.67394 0.0
C212 C 0.62815 0.33302 0.65016 0.0
H213 H 0.51491 0.37664 0.68057 0.0
H214 H 0.60233 0.38968 0.69687 0.0
S215 S 0.60665 0.23384 0.56397 0.0
N216 N 0.55064 0.25271 0.57807 0.0
N217 N 0.64537 0.26713 0.5957 0.0
C218 C 0.61304 0.29525 0.6202 0.0
C219 C 0.56172 0.28747 0.61067 0.0
C220 C 0.61103 0.52142 0.31885 0.0
C221 C 0.65397 0.52883 0.34591 0.0
C222 C 0.60194 0.4788 0.29432 0.0
C223 C 0.63515 0.44193 0.29652 0.0
H224 H 0.58228 0.54736 0.31999 0.0
H225 H 0.56627 0.4731 0.27772 0.0
S226 S 0.75595 0.44566 0.35708 0.0
N227 N 0.73287 0.49781 0.36863 0.0
N228 N 0.71513 0.41718 0.32319 0.0
C229 C 0.68053 0.4504 0.31927 0.0
C230 C 0.6901 0.49408 0.34392 0.0
C231 C 0.06241 0.19954 0.92854 0.0
C232 C 0.0271 0.16773 0.90979 0.0
C233 C 0.11298 0.19309 0.91895 0.0
C234 C 0.12936 0.15493 0.89012 0.0
H235 H 0.05153 0.22695 0.95408 0.0
H236 H 0.13954 0.21554 0.93753 0.0
S237 S 0.05076 0.06808 0.82455 0.0
N238 N 0.01131 0.10144 0.85512 0.0
N239 N 0.10611 0.08965 0.837 0.0
C240 C 0.09394 0.12621 0.86706 0.0
C241 C 0.04278 0.13253 0.87696 0.0
C242 C 0.30441 0.46228 0.44809 0.0
C243 C 0.28162 0.45834 0.4912 0.0
C244 C 0.29548 0.50029 0.4229 0.0
C245 C 0.2641 0.53605 0.44037 0.0
H246 H 0.33158 0.43713 0.43508 0.0
H247 H 0.31591 0.50331 0.39104 0.0
S248 S 0.19196 0.53969 0.54955 0.0
N249 N 0.22292 0.49076 0.54841 0.0
N250 N 0.20688 0.56325 0.50135 0.0
C251 C 0.23807 0.53078 0.48165 0.0
C252 C 0.24676 0.4916 0.50712 0.0
C253 C 0.04736 0.86585 0.90427 0.0
C254 C 0.04278 0.82799 0.93122 0.0
C255 C 0.01787 0.8698 0.865 0.0
C256 C 0.98236 0.83621 0.85117 0.0
H257 H 0.07278 0.89357 0.91453 0.0
H258 H 0.02159 0.90035 0.8463 0.0
S259 S 0.95786 0.72889 0.90787 0.0
N260 N 0.0022 0.75471 0.9396 0.0
N261 N 0.9461 0.76252 0.86586 0.0
C262 C 0.97926 0.79685 0.87614 0.0
C263 C 0.00965 0.79266 0.91616 0.0
C264 C 0.88183 0.02549 0.81248 0.0
C265 C 0.84015 0.03018 0.84148 0.0
C266 C 0.89273 0.98346 0.78755 0.0
C267 C 0.86264 0.94462 0.79131 0.0
H268 H 0.90869 0.05308 0.81263 0.0
H269 H 0.92781 0.97992 0.76953 0.0
S270 S 0.74603 0.94073 0.85771 0.0
N271 N 0.76556 0.9943 0.86806 0.0
N272 N 0.7867 0.91485 0.82181 0.0
C273 C 0.81821 0.95023 0.81615 0.0
C274 C 0.80678 0.99325 0.84119 0.0
C275 C 0.45183 0.35371 0.40323 0.0
C276 C 0.45932 0.31867 0.43315 0.0
C277 C 0.48235 0.35776 0.36476 0.0
C278 C 0.52193 0.32724 0.35499 0.0
H279 H 0.42336 0.37939 0.41072 0.0
H280 H 0.4763 0.38631 0.34364 0.0
S281 S 0.5557 0.22817 0.42136 0.0
N282 N 0.50726 0.25128 0.44912 0.0
N283 N 0.56549 0.2594 0.37703 0.0
C284 C 0.52818 0.29047 0.3831 0.0
C285 C 0.49665 0.28608 0.42218 0.0
C286 C 0.20836 0.9604 0.94748 0.0
C287 C 0.22677 0.95939 0.99282 0.0
C288 C 0.21661 0.99841 0.9221 0.0
C289 C 0.24282 0.03693 0.9416 0.0
H290 H 0.18445 0.93308 0.93285 0.0
H291 H 0.19901 -0.00074 0.88844 0.0
S292 S 0.30281 0.04884 0.05733 0.0
N293 N 0.27635 0.9976 0.05461 0.0
N294 N 0.29114 0.06997 0.00707 0.0
C295 C 0.26505 0.03465 0.98533 0.0
C296 C 0.25706 0.99556 0.01103 0.0
C297 C 0.4554 0.64367 0.3777 0.0
C298 C 0.47109 0.67744 0.41215 0.0
C299 C 0.40514 0.63642 0.36838 0.0
C300 C 0.36888 0.66251 0.39335 0.0
H301 H 0.48195 0.62025 0.3605 0.0
H302 H 0.39442 0.6075 0.3445 0.0
S303 S 0.39072 0.759 0.48254 0.0
N304 N 0.44668 0.74074 0.4674 0.0
N305 N 0.35184 0.72659 0.45007 0.0
C306 C 0.38408 0.69936 0.42444 0.0
C307 C 0.43543 0.70699 0.43379 0.0
C308 C 0.38424 0.47112 0.7224 0.0
C309 C 0.34254 0.46546 0.69343 0.0
C310 C 0.39362 0.5131 0.74804 0.0
C311 C 0.362 0.55101 0.74495 0.0
H312 H 0.41196 0.44426 0.72211 0.0
H313 H 0.42858 0.51749 0.76623 0.0
S314 S 0.24484 0.55207 0.67873 0.0
N315 N 0.26636 0.49929 0.66751 0.0
N316 N 0.28482 0.57879 0.7149 0.0
C317 C 0.31773 0.54436 0.71992 0.0
C318 C 0.30779 0.50133 0.69423 0.0
C319 C 0.95836 0.86712 0.15999 0.0
C320 C 0.97412 0.82927 0.13029 0.0
C321 C 0.90826 0.87419 0.17008 0.0
C322 C 0.87206 0.84375 0.15075 0.0
H323 H 0.98458 0.89324 0.17289 0.0
H324 H 0.8974 0.90563 0.19009 0.0
S325 S 0.89436 0.73621 0.07622 0.0
N326 N 0.95004 0.75813 0.08616 0.0
N327 N 0.85555 0.77179 0.10492 0.0
C328 C 0.88759 0.80346 0.12483 0.0
C329 C 0.9388 0.7961 0.11464 0.0
C330 C 0.7475 0.49934 0.53068 0.0
C331 C 0.71648 0.53536 0.54813 0.0
C332 C 0.75564 0.46098 0.55618 0.0
C333 C 0.73301 0.45799 0.59965 0.0
H334 H 0.76215 0.49905 0.49576 0.0
H335 H 0.77651 0.43213 0.54034 0.0
S336 S 0.65605 0.54719 0.66345 0.0
N337 N 0.6685 0.56847 0.61349 0.0
N338 N 0.68432 0.49688 0.66161 0.0
C339 C 0.70584 0.4958 0.61903 0.0
C340 C 0.69737 0.53442 0.59313 0.0
C341 C 0.98759 0.19888 0.12515 0.0
C342 C 0.95594 0.16261 0.10913 0.0
C343 C 0.01781 0.19535 0.16437 0.0
C344 C 0.01699 0.15559 0.18888 0.0
H345 H 0.99131 0.22891 0.10568 0.0
H346 H 0.04395 0.22266 0.1739 0.0
S347 S 0.93427 0.05478 0.16621 0.0
N348 N 0.92125 0.08832 0.12447 0.0
N349 N 0.97709 0.08229 0.19836 0.0
C350 C 0.98253 0.12094 0.17548 0.0
C351 C 0.95226 0.12427 0.13555 0.0
C352 C 0.14475 0.71765 0.20996 0.0
C353 C 0.18309 0.74607 0.1957 0.0
C354 C 0.14631 0.69913 0.2532 0.0
C355 C 0.18615 0.70834 0.28356 0.0
H356 H 0.11273 0.71031 0.18805 0.0
H357 H 0.11597 0.67768 0.26302 0.0
S358 S 0.29703 0.77813 0.26296 0.0
N359 N 0.26331 0.78064 0.21556 0.0
N360 N 0.26535 0.746 0.29686 0.0
C361 C 0.22505 0.73579 0.26988 0.0
C362 C 0.22373 0.75462 0.22587 0.0
C363 C 0.80953 0.74391 0.5554 0.0
C364 C 0.7582 0.7517 0.55918 0.0
C365 C 0.84203 0.75944 0.59113 0.0
C366 C 0.82453 0.78333 0.6319 0.0
H367 H 0.82472 0.72445 0.52517 0.0
H368 H 0.88095 0.75113 0.58751 0.0
S369 S 0.69489 0.81532 0.65908 0.0
N370 N 0.69215 0.78737 0.60701 0.0
N371 N 0.75386 0.8161 0.67403 0.0
C372 C 0.77402 0.79315 0.63579 0.0
C373 C 0.74069 0.77754 0.59936 0.0
C374 C 0.69475 0.23968 0.06164 0.0
C375 C 0.74536 0.25122 0.0606 0.0
C376 C 0.66498 0.25389 0.0998 0.0
C377 C 0.68447 0.28032 0.13825 0.0
H378 H 0.67824 0.21792 0.0336 0.0
H379 H 0.62689 0.24237 0.10004 0.0
S380 S 0.81243 0.32389 0.15225 0.0
N381 N 0.81229 0.29421 0.10101 0.0
N382 N 0.75566 0.32035 0.17262 0.0
C383 C 0.73387 0.29433 0.13711 0.0
C384 C 0.76445 0.28002 0.09821 0.0
C385 C 0.34894 0.21472 0.71056 0.0
C386 C 0.31329 0.24654 0.69748 0.0
C387 C 0.34797 0.19773 0.75451 0.0
C388 C 0.31143 0.21192 0.78682 0.0
H389 H 0.37856 0.20347 0.68713 0.0
H390 H 0.37626 0.17362 0.76337 0.0
S391 S 0.20805 0.29198 0.77029 0.0
N392 N 0.2388 0.2897 0.72082 0.0
N393 N 0.23792 0.2577 0.80348 0.0
C394 C 0.27502 0.24267 0.77444 0.0
C395 C 0.27571 0.25999 0.72967 0.0
C396 C 0.7203 0.73804 0.31382 0.0
C397 C 0.68166 0.75061 0.34514 0.0
C398 C 0.72314 0.756 0.27031 0.0
C399 C 0.68741 0.78694 0.25671 0.0
H400 H 0.74837 0.71374 0.32263 0.0
H401 H 0.75316 0.74532 0.24709 0.0
S402 S 0.57962 0.83209 0.32459 0.0
N403 N 0.60723 0.79714 0.35864 0.0
N404 N 0.61321 0.83048 0.27682 0.0
C405 C 0.64922 0.8005 0.28737 0.0
C406 C 0.64618 0.78248 0.33168 0.0
C407 C 0.78014 0.24297 0.81525 0.0
C408 C 0.82099 0.25182 0.84513 0.0
C409 C 0.7775 0.26137 0.77197 0.0
C410 C 0.81565 0.28905 0.7571 0.0
H411 H 0.75005 0.22128 0.82507 0.0
H412 H 0.74564 0.2536 0.74994 0.0
S413 S 0.9301 0.32365 0.82093 0.0
N414 N 0.90032 0.29115 0.85591 0.0
N415 N 0.89471 0.3255 0.77449 0.0
C416 C 0.85621 0.29888 0.7863 0.0
C417 C 0.85904 0.28038 0.83043 0.0
C418 C 0.18934 0.24868 0.48478 0.0
C419 C 0.24075 0.24124 0.48134 0.0
C420 C 0.15731 0.23372 0.44848 0.0
C421 C 0.17539 0.21078 0.40745 0.0
H422 H 0.17374 0.26753 0.51518 0.0
H423 H 0.11831 0.2418 0.45187 0.0
S424 S 0.30548 0.17982 0.38107 0.0
N425 N 0.30751 0.20676 0.43364 0.0
N426 N 0.24668 0.17906 0.36551 0.0
C427 C 0.22598 0.20117 0.40393 0.0
C428 C 0.25883 0.2162 0.44096 0.0
C429 C 0.30759 0.74519 0.98563 0.0
C430 C 0.25585 0.74101 0.98122 0.0
C431 C 0.33919 0.72943 0.94938 0.0
C432 C 0.3203 0.70896 0.90746 0.0
H433 H 0.32385 0.76223 0.01674 0.0
H434 H 0.37859 0.73523 0.95346 0.0
S435 S 0.18883 0.68668 0.87844 0.0
N436 N 0.1877 0.71202 0.93174 0.0
N437 N 0.24774 0.68285 0.86366 0.0
C438 C 0.26922 0.7024 0.903 0.0
C439 C 0.23681 0.71822 0.93999 0.0
loop_
_geom_bond_atom_site_label_1
_geom_bond_atom_site_label_2
_geom_bond_distance
_geom_bond_site_symmetry_2
_ccdc_geom_bond_type
Sc0 O3 2.025 . S
Sc0 O10 2.105 1_554 S
Sc0 O13 2.105 . S
Sc0 O16 2.105 . S
Sc0 O19 2.105 1_554 S
Sc1 O3 2.025 . S
Sc1 O11 2.105 1_554 S
Sc1 O15 2.105 . S
Sc1 O17 2.105 . S
Sc1 O21 2.105 1_554 S
Sc2 O3 2.025 . S
Sc2 O12 2.105 . S
Sc2 O14 2.105 . S
Sc2 O18 2.105 . S
Sc2 O20 2.105 . S
O3 Sc0 2.025 . S
O3 Sc1 2.025 . S
O3 Sc2 2.025 . S
C4 O10 1.268 . S
C4 O20 1.268 1_556 S
C5 O11 1.268 . S
C5 O19 1.268 . S
C6 O12 1.268 1_556 S
C6 O21 1.268 . S
C7 O13 1.268 . S
C7 O17 1.268 . S
C8 O14 1.268 . S
C8 O16 1.268 . S
C9 O15 1.268 . S
C9 O18 1.268 . S
O10 Sc0 2.105 1_556 S
O10 C4 1.268 . S
O11 Sc1 2.105 1_556 S
O11 C5 1.268 . S
O12 Sc2 2.105 . S
O12 C6 1.268 1_554 S
O13 Sc0 2.105 . S
O13 C7 1.268 . S
O14 Sc2 2.105 . S
O14 C8 1.268 . S
O15 Sc1 2.105 . S
O15 C9 1.268 . S
O16 Sc0 2.105 . S
O16 C8 1.268 . S
O17 Sc1 2.105 . S
O17 C7 1.268 . S
O18 Sc2 2.105 . S
O18 C9 1.268 . S
O19 Sc0 2.105 1_556 S
O19 C5 1.268 . S
O20 Sc2 2.105 . S
O20 C4 1.268 1_554 S
O21 Sc1 2.105 1_556 S
O21 C6 1.268 . S
Sc22 O25 2.025 . S
Sc22 O32 2.105 . S
Sc22 O35 2.105 . S
Sc22 O38 2.105 . S
Sc22 O41 2.105 . S
Sc23 O25 2.025 . S
Sc23 O33 2.105 . S
Sc23 O37 2.105 . S
Sc23 O39 2.105 . S
Sc23 O43 2.105 . S
Sc24 O25 2.025 . S
Sc24 O34 2.105 . S
Sc24 O36 2.105 . S
Sc24 O40 2.105 . S
Sc24 O42 2.105 . S
O25 Sc22 2.025 . S
O25 Sc23 2.025 . S
O25 Sc24 2.025 . S
C26 O32 1.268 . S
C26 O42 1.268 . S
C27 O33 1.268 . S
C27 O41 1.268 . S
C28 O34 1.268 . S
C28 O43 1.268 . S
C29 O35 1.268 . S
C29 O39 1.268 . S
C30 O36 1.268 . S
C30 O38 1.268 . S
C31 O37 1.268 . S
C31 O40 1.268 . S
O32 Sc22 2.105 . S
O32 C26 1.268 . S
O33 Sc23 2.105 . S
O33 C27 1.268 . S
O34 Sc24 2.105 . S
O34 C28 1.268 . S
O35 Sc22 2.105 . S
O35 C29 1.268 . S
O36 Sc24 2.105 . S
O36 C30 1.268 . S
O37 Sc23 2.105 . S
O37 C31 1.268 . S
O38 Sc22 2.105 . S
O38 C30 1.268 . S
O39 Sc23 2.105 . S
O39 C29 1.268 . S
O40 Sc24 2.105 . S
O40 C31 1.268 . S
O41 Sc22 2.105 . S
O41 C27 1.268 . S
O42 Sc24 2.105 . S
O42 C26 1.268 . S
O43 Sc23 2.105 . S
O43 C28 1.268 . S
Sc44 O47 2.025 . S
Sc44 O54 2.105 1_554 S
Sc44 O57 2.105 . S
Sc44 O60 2.105 . S
Sc44 O63 2.105 1_554 S
Sc45 O47 2.025 1_556 S
Sc45 O55 2.105 . S
Sc45 O59 2.105 1_556 S
Sc45 O61 2.105 1_556 S
Sc45 O65 2.105 . S
Sc46 O47 2.025 . S
Sc46 O56 2.105 1_554 S
Sc46 O58 2.105 . S
Sc46 O62 2.105 . S
Sc46 O64 2.105 1_554 S
O47 Sc44 2.025 . S
O47 Sc45 2.025 1_554 S
O47 Sc46 2.025 . S
C48 O54 1.268 . S
C48 O64 1.268 . S
C49 O55 1.268 . S
C49 O63 1.268 . S
C50 O56 1.268 . S
C50 O65 1.268 . S
C51 O57 1.268 . S
C51 O61 1.268 . S
C52 O58 1.268 . S
C52 O60 1.268 . S
C53 O59 1.268 . S
C53 O62 1.268 . S
O54 Sc44 2.105 1_556 S
O54 C48 1.268 . S
O55 Sc45 2.105 . S
O55 C49 1.268 . S
O56 Sc46 2.105 1_556 S
O56 C50 1.268 . S
O57 Sc44 2.105 . S
O57 C51 1.268 . S
O58 Sc46 2.105 . S
O58 C52 1.268 . S
O59 Sc45 2.105 1_554 S
O59 C53 1.268 . S
O60 Sc44 2.105 . S
O60 C52 1.268 . S
O61 Sc45 2.105 1_554 S
O61 C51 1.268 . S
O62 Sc46 2.105 . S
O62 C53 1.268 . S
O63 Sc44 2.105 1_556 S
O63 C49 1.268 . S
O64 Sc46 2.105 1_556 S
O64 C48 1.268 . S
O65 Sc45 2.105 . S
O65 C50 1.268 . S
Sc66 O69 2.025 . S
Sc66 O76 2.105 . S
Sc66 O79 2.105 . S
Sc66 O82 2.105 . S
Sc66 O85 2.105 . S
Sc67 O69 2.025 . S
Sc67 O77 2.105 . S
Sc67 O81 2.105 . S
Sc67 O83 2.105 . S
Sc67 O87 2.105 . S
Sc68 O69 2.025 . S
Sc68 O78 2.105 . S
Sc68 O80 2.105 . S
Sc68 O84 2.105 . S
Sc68 O86 2.105 . S
O69 Sc66 2.025 . S
O69 Sc67 2.025 . S
O69 Sc68 2.025 . S
C70 O76 1.268 . S
C70 O86 1.268 . S
C71 O77 1.268 . S
C71 O85 1.268 . S
C72 O78 1.268 . S
C72 O87 1.268 . S
C73 O79 1.268 . S
C73 O83 1.268 . S
C74 O80 1.268 . S
C74 O82 1.268 . S
C75 O81 1.268 . S
C75 O84 1.268 . S
O76 Sc66 2.105 . S
O76 C70 1.268 . S
O77 Sc67 2.105 . S
O77 C71 1.268 . S
O78 Sc68 2.105 . S
O78 C72 1.268 . S
O79 Sc66 2.105 . S
O79 C73 1.268 . S
O80 Sc68 2.105 . S
O80 C74 1.268 . S
O81 Sc67 2.105 . S
O81 C75 1.268 . S
O82 Sc66 2.105 . S
O82 C74 1.268 . S
O83 Sc67 2.105 . S
O83 C73 1.268 . S
O84 Sc68 2.105 . S
O84 C75 1.268 . S
O85 Sc66 2.105 . S
O85 C71 1.268 . S
O86 Sc68 2.105 . S
O86 C70 1.268 . S
O87 Sc67 2.105 . S
O87 C72 1.268 . S
H88 C91 0.929 . S
H89 C94 0.929 . S
H90 C96 0.930 . S
C91 H88 0.929 . S
C91 C92 1.398 . S
C91 C93 1.396 . S
C92 C91 1.398 . S
C92 C96 1.407 . S
C93 C91 1.396 . S
C93 C94 1.394 . S
C94 H89 0.929 . S
C94 C93 1.394 . S
C94 C95 1.382 . S
C95 C94 1.382 . S
C95 C96 1.392 . S
C95 N97 1.420 . S
C96 H90 0.930 . S
C96 C92 1.407 . S
C96 C95 1.392 . S
N97 C95 1.420 . S
N97 C98 1.244 . S
C98 N97 1.244 . S
H99 C102 0.929 . S
H100 C105 0.929 . S
H101 C107 0.930 . S
C102 H99 0.929 . S
C102 C103 1.398 . S
C102 C104 1.396 . S
C103 C102 1.398 . S
C103 C107 1.407 . S
C104 C102 1.396 . S
C104 C105 1.394 . S
C105 H100 0.929 . S
C105 C104 1.394 . S
C105 C106 1.382 . S
C106 C105 1.382 . S
C106 C107 1.392 . S
C106 N108 1.420 . S
C107 H101 0.930 . S
C107 C103 1.407 . S
C107 C106 1.392 . S
N108 C106 1.420 . S
N108 C109 1.244 . S
C109 N108 1.244 . S
H110 C113 0.929 . S
H111 C116 0.929 . S
H112 C118 0.930 . S
C113 H110 0.929 . S
C113 C114 1.398 . S
C113 C115 1.396 . S
C114 C113 1.398 . S
C114 C118 1.407 . S
C115 C113 1.396 . S
C115 C116 1.394 . S
C116 H111 0.929 . S
C116 C115 1.394 . S
C116 C117 1.382 . S
C117 C116 1.382 . S
C117 C118 1.392 . S
C117 N119 1.420 . S
C118 H112 0.930 . S
C118 C114 1.407 . S
C118 C117 1.392 . S
N119 C117 1.420 . S
N119 C120 1.244 . S
C120 N119 1.244 . S
H121 C124 0.929 . S
H122 C127 0.929 . S
H123 C129 0.930 . S
C124 H121 0.929 . S
C124 C125 1.398 . S
C124 C126 1.396 . S
C125 C124 1.398 . S
C125 C129 1.407 . S
C126 C124 1.396 . S
C126 C127 1.394 . S
C127 H122 0.929 . S
C127 C126 1.394 . S
C127 C128 1.382 . S
C128 C127 1.382 . S
C128 C129 1.392 . S
C128 N130 1.420 . S
C129 H123 0.930 . S
C129 C125 1.407 . S
C129 C128 1.392 . S
N130 C128 1.420 . S
N130 C131 1.244 . S
C131 N130 1.244 . S
H132 C135 0.929 . S
H133 C138 0.929 . S
H134 C140 0.930 . S
C135 H132 0.929 . S
C135 C136 1.398 . S
C135 C137 1.396 . S
C136 C135 1.398 . S
C136 C140 1.407 . S
C137 C135 1.396 . S
C137 C138 1.394 . S
C138 H133 0.929 . S
C138 C137 1.394 . S
C138 C139 1.382 . S
C139 C138 1.382 . S
C139 C140 1.392 . S
C139 N141 1.420 . S
C140 H134 0.930 . S
C140 C136 1.407 . S
C140 C139 1.392 . S
N141 C139 1.420 . S
N141 C142 1.244 . S
C142 N141 1.244 . S
H143 C146 0.929 . S
H144 C149 0.929 . S
H145 C151 0.930 . S
C146 H143 0.929 . S
C146 C147 1.398 . S
C146 C148 1.396 . S
C147 C146 1.398 . S
C147 C151 1.407 . S
C148 C146 1.396 . S
C148 C149 1.394 . S
C149 H144 0.929 . S
C149 C148 1.394 . S
C149 C150 1.382 . S
C150 C149 1.382 . S
C150 C151 1.392 . S
C150 N152 1.420 . S
C151 H145 0.930 . S
C151 C147 1.407 . S
C151 C150 1.392 . S
N152 C150 1.420 . S
N152 C153 1.244 . S
C153 N152 1.244 . S
H154 C157 0.929 . S
H155 C160 0.929 . S
H156 C162 0.930 . S
C157 H154 0.929 . S
C157 C158 1.398 . S
C157 C159 1.396 . S
C158 C157 1.398 . S
C158 C162 1.407 . S
C159 C157 1.396 . S
C159 C160 1.394 . S
C160 H155 0.929 . S
C160 C159 1.394 . S
C160 C161 1.382 . S
C161 C160 1.382 . S
C161 C162 1.392 . S
C161 N163 1.420 . S
C162 H156 0.930 . S
C162 C158 1.407 . S
C162 C161 1.392 . S
N163 C161 1.420 . S
N163 C164 1.244 . S
C164 N163 1.244 . S
H165 C168 0.929 . S
H166 C171 0.929 . S
H167 C173 0.930 . S
C168 H165 0.929 . S
C168 C169 1.398 . S
C168 C170 1.396 . S
C169 C168 1.398 . S
C169 C173 1.407 . S
C170 C168 1.396 . S
C170 C171 1.394 . S
C171 H166 0.929 . S
C171 C170 1.394 . S
C171 C172 1.382 . S
C172 C171 1.382 . S
C172 C173 1.392 . S
C172 N174 1.420 . S
C173 H167 0.930 . S
C173 C169 1.407 . S
C173 C172 1.392 . S
N174 C172 1.420 . S
N174 C175 1.244 . S
C175 N174 1.244 . S
C176 C177 1.369 . S
C176 C178 1.419 1_565 S
C176 H180 0.930 . S
C177 C176 1.369 . S
C177 C186 1.429 . S
C178 C176 1.419 1_545 S
C178 C179 1.363 . S
C178 H181 0.929 . S
C179 C178 1.363 . S
C179 C185 1.428 . S
H180 C176 0.930 . S
H181 C178 0.929 . S
S182 N183 1.613 . S
S182 N184 1.610 1_565 S
N183 S182 1.613 . S
N183 C186 1.350 . S
N184 S182 1.610 1_545 S
N184 C185 1.351 . S
C185 C179 1.428 . S
C185 N184 1.351 . S
C185 C186 1.434 1_545 S
C186 C177 1.429 . S
C186 N183 1.350 . S
C186 C185 1.434 1_565 S
C187 C188 1.369 . S
C187 C189 1.419 . S
C187 H191 0.930 . S
C188 C187 1.369 . S
C188 C197 1.429 . S
C189 C187 1.419 . S
C189 C190 1.363 . S
C189 H192 0.929 . S
C190 C189 1.363 . S
C190 C196 1.428 . S
H191 C187 0.930 . S
H192 C189 0.929 . S
S193 N194 1.613 . S
S193 N195 1.610 . S
N194 S193 1.613 . S
N194 C197 1.350 . S
N195 S193 1.610 . S
N195 C196 1.351 . S
C196 C190 1.428 . S
C196 N195 1.351 . S
C196 C197 1.434 . S
C197 C188 1.429 . S
C197 N194 1.350 . S
C197 C196 1.434 . S
C198 C199 1.369 1_565 S
C198 C200 1.419 . S
C198 H202 0.930 . S
C199 C198 1.369 1_545 S
C199 C208 1.429 . S
C200 C198 1.419 . S
C200 C201 1.363 . S
C200 H203 0.929 . S
C201 C200 1.363 . S
C201 C207 1.428 . S
H202 C198 0.930 . S
H203 C200 0.929 . S
S204 N205 1.613 . S
S204 N206 1.610 . S
N205 S204 1.613 . S
N205 C208 1.350 . S
N206 S204 1.610 . S
N206 C207 1.351 1_545 S
C207 C201 1.428 . S
C207 N206 1.351 1_565 S
C207 C208 1.434 1_565 S
C208 C199 1.429 . S
C208 N205 1.350 . S
C208 C207 1.434 1_545 S
C209 C210 1.369 . S
C209 C211 1.419 . S
C209 H213 0.930 . S
C210 C209 1.369 . S
C210 C219 1.429 . S
C211 C209 1.419 . S
C211 C212 1.363 . S
C211 H214 0.929 . S
C212 C211 1.363 . S
C212 C218 1.428 . S
H213 C209 0.930 . S
H214 C211 0.929 . S
S215 N216 1.613 . S
S215 N217 1.610 . S
N216 S215 1.613 . S
N216 C219 1.350 . S
N217 S215 1.610 . S
N217 C218 1.351 . S
C218 C212 1.428 . S
C218 N217 1.351 . S
C218 C219 1.434 . S
C219 C210 1.429 . S
C219 N216 1.350 . S
C219 C218 1.434 . S
C220 C221 1.369 . S
C220 C222 1.419 . S
C220 H224 0.930 . S
C221 C220 1.369 . S
C221 C230 1.429 . S
C222 C220 1.419 . S
C222 C223 1.363 . S
C222 H225 0.929 . S
C223 C222 1.363 . S
C223 C229 1.428 . S
H224 C220 0.930 . S
H225 C222 0.929 . S
S226 N227 1.613 . S
S226 N228 1.610 . S
N227 S226 1.613 . S
N227 C230 1.350 . S
N228 S226 1.610 . S
N228 C229 1.351 . S
C229 C223 1.428 . S
C229 N228 1.351 . S
C229 C230 1.434 . S
C230 C221 1.429 . S
C230 N227 1.350 . S
C230 C229 1.434 . S
C231 C232 1.369 . S
C231 C233 1.419 . S
C231 H235 0.930 . S
C232 C231 1.369 . S
C232 C241 1.429 . S
C233 C231 1.419 . S
C233 C234 1.363 . S
C233 H236 0.929 . S
C234 C233 1.363 . S
C234 C240 1.428 . S
H235 C231 0.930 . S
H236 C233 0.929 . S
S237 N238 1.613 . S
S237 N239 1.610 . S
N238 S237 1.613 . S
N238 C241 1.350 . S
N239 S237 1.610 . S
N239 C240 1.351 . S
C240 C234 1.428 . S
C240 N239 1.351 . S
C240 C241 1.434 . S
C241 C232 1.429 . S
C241 N238 1.350 . S
C241 C240 1.434 . S
C242 C243 1.369 . S
C242 C244 1.419 . S
C242 H246 0.930 . S
C243 C242 1.369 . S
C243 C252 1.429 . S
C244 C242 1.419 . S
C244 C245 1.363 . S
C244 H247 0.929 . S
C245 C244 1.363 . S
C245 C251 1.428 . S
H246 C242 0.930 . S
H247 C244 0.929 . S
S248 N249 1.613 . S
S248 N250 1.610 . S
N249 S248 1.613 . S
N249 C252 1.350 . S
N250 S248 1.610 . S
N250 C251 1.351 . S
C251 C245 1.428 . S
C251 N250 1.351 . S
C251 C252 1.434 . S
C252 C243 1.429 . S
C252 N249 1.350 . S
C252 C251 1.434 . S
C253 C254 1.369 . S
C253 C255 1.419 . S
C253 H257 0.930 . S
C254 C253 1.369 . S
C254 C263 1.429 . S
C255 C253 1.419 . S
C255 C256 1.363 1_455 S
C255 H258 0.929 . S
C256 C255 1.363 1_655 S
C256 C262 1.428 . S
H257 C253 0.930 . S
H258 C255 0.929 . S
S259 N260 1.613 . S
S259 N261 1.610 . S
N260 S259 1.613 . S
N260 C263 1.350 1_655 S
N261 S259 1.610 . S
N261 C262 1.351 . S
C262 C256 1.428 . S
C262 N261 1.351 . S
C262 C263 1.434 1_655 S
C263 C254 1.429 . S
C263 N260 1.350 1_455 S
C263 C262 1.434 1_455 S
C264 C265 1.369 . S
C264 C266 1.419 . S
C264 H268 0.930 . S
C265 C264 1.369 . S
C265 C274 1.429 1_545 S
C266 C264 1.419 . S
C266 C267 1.363 1_545 S
C266 H269 0.929 . S
C267 C266 1.363 1_565 S
C267 C273 1.428 . S
H268 C264 0.930 . S
H269 C266 0.929 . S
S270 N271 1.613 . S
S270 N272 1.610 . S
N271 S270 1.613 . S
N271 C274 1.350 . S
N272 S270 1.610 . S
N272 C273 1.351 . S
C273 C267 1.428 . S
C273 N272 1.351 . S
C273 C274 1.434 . S
C274 C265 1.429 1_565 S
C274 N271 1.350 . S
C274 C273 1.434 . S
C275 C276 1.369 . S
C275 C277 1.419 . S
C275 H279 0.930 . S
C276 C275 1.369 . S
C276 C285 1.429 . S
C277 C275 1.419 . S
C277 C278 1.363 . S
C277 H280 0.929 . S
C278 C277 1.363 . S
C278 C284 1.428 . S
H279 C275 0.930 . S
H280 C277 0.929 . S
S281 N282 1.613 . S
S281 N283 1.610 . S
N282 S281 1.613 . S
N282 C285 1.350 . S
N283 S281 1.610 . S
N283 C284 1.351 . S
C284 C278 1.428 . S
C284 N283 1.351 . S
C284 C285 1.434 . S
C285 C276 1.429 . S
C285 N282 1.350 . S
C285 C284 1.434 . S
C286 C287 1.369 . S
C286 C288 1.419 1_565 S
C286 H290 0.930 . S
C287 C286 1.369 . S
C287 C296 1.429 1_565 S
C288 C286 1.419 1_545 S
C288 C289 1.363 . S
C288 H291 0.929 . S
C289 C288 1.363 . S
C289 C295 1.428 . S
H290 C286 0.930 . S
H291 C288 0.929 . S
S292 N293 1.613 1_545 S
S292 N294 1.610 1_554 S
N293 S292 1.613 1_565 S
N293 C296 1.350 1_564 S
N294 S292 1.610 1_556 S
N294 C295 1.351 . S
C295 C289 1.428 . S
C295 N294 1.351 . S
C295 C296 1.434 . S
C296 C287 1.429 1_545 S
C296 N293 1.350 1_546 S
C296 C295 1.434 . S
C297 C298 1.369 . S
C297 C299 1.419 . S
C297 H301 0.930 . S
C298 C297 1.369 . S
C298 C307 1.429 . S
C299 C297 1.419 . S
C299 C300 1.363 . S
C299 H302 0.929 . S
C300 C299 1.363 . S
C300 C306 1.428 . S
H301 C297 0.930 . S
H302 C299 0.929 . S
S303 N304 1.613 . S
S303 N305 1.610 . S
N304 S303 1.613 . S
N304 C307 1.350 . S
N305 S303 1.610 . S
N305 C306 1.351 . S
C306 C300 1.428 . S
C306 N305 1.351 . S
C306 C307 1.434 . S
C307 C298 1.429 . S
C307 N304 1.350 . S
C307 C306 1.434 . S
C308 C309 1.369 . S
C308 C310 1.419 . S
C308 H312 0.930 . S
C309 C308 1.369 . S
C309 C318 1.429 . S
C310 C308 1.419 . S
C310 C311 1.363 . S
C310 H313 0.929 . S
C311 C310 1.363 . S
C311 C317 1.428 . S
H312 C308 0.930 . S
H313 C310 0.929 . S
S314 N315 1.613 . S
S314 N316 1.610 . S
N315 S314 1.613 . S
N315 C318 1.350 . S
N316 S314 1.610 . S
N316 C317 1.351 . S
C317 C311 1.428 . S
C317 N316 1.351 . S
C317 C318 1.434 . S
C318 C309 1.429 . S
C318 N315 1.350 . S
C318 C317 1.434 . S
C319 C320 1.369 . S
C319 C321 1.419 . S
C319 H323 0.930 . S
C320 C319 1.369 . S
C320 C329 1.429 . S
C321 C319 1.419 . S
C321 C322 1.363 . S
C321 H324 0.929 . S
C322 C321 1.363 . S
C322 C328 1.428 . S
H323 C319 0.930 . S
H324 C321 0.929 . S
S325 N326 1.613 . S
S325 N327 1.610 . S
N326 S325 1.613 . S
N326 C329 1.350 . S
N327 S325 1.610 . S
N327 C328 1.351 . S
C328 C322 1.428 . S
C328 N327 1.351 . S
C328 C329 1.434 . S
C329 C320 1.429 . S
C329 N326 1.350 . S
C329 C328 1.434 . S
C330 C331 1.369 . S
C330 C332 1.419 . S
C330 H334 0.930 . S
C331 C330 1.369 . S
C331 C340 1.429 . S
C332 C330 1.419 . S
C332 C333 1.363 . S
C332 H335 0.929 . S
C333 C332 1.363 . S
C333 C339 1.428 . S
H334 C330 0.930 . S
H335 C332 0.929 . S
S336 N337 1.613 . S
S336 N338 1.610 . S
N337 S336 1.613 . S
N337 C340 1.350 . S
N338 S336 1.610 . S
N338 C339 1.351 . S
C339 C333 1.428 . S
C339 N338 1.351 . S
C339 C340 1.434 . S
C340 C331 1.429 . S
C340 N337 1.350 . S
C340 C339 1.434 . S
C341 C342 1.369 . S
C341 C343 1.419 . S
C341 H345 0.930 . S
C342 C341 1.369 . S
C342 C351 1.429 . S
C343 C341 1.419 . S
C343 C344 1.363 1_655 S
C343 H346 0.929 . S
C344 C343 1.363 1_455 S
C344 C350 1.428 1_455 S
H345 C341 0.930 . S
H346 C343 0.929 . S
S347 N348 1.613 . S
S347 N349 1.610 1_655 S
N348 S347 1.613 . S
N348 C351 1.350 . S
N349 S347 1.610 1_455 S
N349 C350 1.351 1_455 S
C350 C344 1.428 1_655 S
C350 N349 1.351 1_655 S
C350 C351 1.434 . S
C351 C342 1.429 . S
C351 N348 1.350 . S
C351 C350 1.434 . S
C352 C353 1.369 . S
C352 C354 1.419 . S
C352 H356 0.930 . S
C353 C352 1.369 . S
C353 C362 1.429 . S
C354 C352 1.419 . S
C354 C355 1.363 . S
C354 H357 0.929 . S
C355 C354 1.363 . S
C355 C361 1.428 . S
H356 C352 0.930 . S
H357 C354 0.929 . S
S358 N359 1.613 . S
S358 N360 1.610 . S
N359 S358 1.613 . S
N359 C362 1.350 . S
N360 S358 1.610 . S
N360 C361 1.351 . S
C361 C355 1.428 . S
C361 N360 1.351 . S
C361 C362 1.434 . S
C362 C353 1.429 . S
C362 N359 1.350 . S
C362 C361 1.434 . S
C363 C364 1.369 . S
C363 C365 1.419 . S
C363 H367 0.930 . S
C364 C363 1.369 . S
C364 C373 1.429 . S
C365 C363 1.419 . S
C365 C366 1.363 . S
C365 H368 0.929 . S
C366 C365 1.363 . S
C366 C372 1.428 . S
H367 C363 0.930 . S
H368 C365 0.929 . S
S369 N370 1.613 . S
S369 N371 1.610 . S
N370 S369 1.613 . S
N370 C373 1.350 . S
N371 S369 1.610 . S
N371 C372 1.351 . S
C372 C366 1.428 . S
C372 N371 1.351 . S
C372 C373 1.434 . S
C373 C364 1.429 . S
C373 N370 1.350 . S
C373 C372 1.434 . S
C374 C375 1.369 . S
C374 C376 1.419 . S
C374 H378 0.930 . S
C375 C374 1.369 . S
C375 C384 1.429 . S
C376 C374 1.419 . S
C376 C377 1.363 . S
C376 H379 0.929 . S
C377 C376 1.363 . S
C377 C383 1.428 . S
H378 C374 0.930 . S
H379 C376 0.929 . S
S380 N381 1.613 . S
S380 N382 1.610 . S
N381 S380 1.613 . S
N381 C384 1.350 . S
N382 S380 1.610 . S
N382 C383 1.351 . S
C383 C377 1.428 . S
C383 N382 1.351 . S
C383 C384 1.434 . S
C384 C375 1.429 . S
C384 N381 1.350 . S
C384 C383 1.434 . S
C385 C386 1.369 . S
C385 C387 1.419 . S
C385 H389 0.930 . S
C386 C385 1.369 . S
C386 C395 1.429 . S
C387 C385 1.419 . S
C387 C388 1.363 . S
C387 H390 0.929 . S
C388 C387 1.363 . S
C388 C394 1.428 . S
H389 C385 0.930 . S
H390 C387 0.929 . S
S391 N392 1.613 . S
S391 N393 1.610 . S
N392 S391 1.613 . S
N392 C395 1.350 . S
N393 S391 1.610 . S
N393 C394 1.351 . S
C394 C388 1.428 . S
C394 N393 1.351 . S
C394 C395 1.434 . S
C395 C386 1.429 . S
C395 N392 1.350 . S
C395 C394 1.434 . S
C396 C397 1.369 . S
C396 C398 1.419 . S
C396 H400 0.930 . S
C397 C396 1.369 . S
C397 C406 1.429 . S
C398 C396 1.419 . S
C398 C399 1.363 . S
C398 H401 0.929 . S
C399 C398 1.363 . S
C399 C405 1.428 . S
H400 C396 0.930 . S
H401 C398 0.929 . S
S402 N403 1.613 . S
S402 N404 1.610 . S
N403 S402 1.613 . S
N403 C406 1.350 . S
N404 S402 1.610 . S
N404 C405 1.351 . S
C405 C399 1.428 . S
C405 N404 1.351 . S
C405 C406 1.434 . S
C406 C397 1.429 . S
C406 N403 1.350 . S
C406 C405 1.434 . S
C407 C408 1.369 . S
C407 C409 1.419 . S
C407 H411 0.930 . S
C408 C407 1.369 . S
C408 C417 1.429 . S
C409 C407 1.419 . S
C409 C410 1.363 . S
C409 H412 0.929 . S
C410 C409 1.363 . S
C410 C416 1.428 . S
H411 C407 0.930 . S
H412 C409 0.929 . S
S413 N414 1.613 . S
S413 N415 1.610 . S
N414 S413 1.613 . S
N414 C417 1.350 . S
N415 S413 1.610 . S
N415 C416 1.351 . S
C416 C410 1.428 . S
C416 N415 1.351 . S
C416 C417 1.434 . S
C417 C408 1.429 . S
C417 N414 1.350 . S
C417 C416 1.434 . S
C418 C419 1.369 . S
C418 C420 1.419 . S
C418 H422 0.930 . S
C419 C418 1.369 . S
C419 C428 1.429 . S
C420 C418 1.419 . S
C420 C421 1.363 . S
C420 H423 0.929 . S
C421 C420 1.363 . S
C421 C427 1.428 . S
H422 C418 0.930 . S
H423 C420 0.929 . S
S424 N425 1.613 . S
S424 N426 1.610 . S
N425 S424 1.613 . S
N425 C428 1.350 . S
N426 S424 1.610 . S
N426 C427 1.351 . S
C427 C421 1.428 . S
C427 N426 1.351 . S
C427 C428 1.434 . S
C428 C419 1.429 . S
C428 N425 1.350 . S
C428 C427 1.434 . S
C429 C430 1.369 . S
C429 C431 1.419 . S
C429 H433 0.930 1_556 S
C430 C429 1.369 . S
C430 C439 1.429 . S
C431 C429 1.419 . S
C431 C432 1.363 . S
C431 H434 0.929 . S
C432 C431 1.363 . S
C432 C438 1.428 . S
H433 C429 0.930 1_554 S
H434 C431 0.929 . S
S435 N436 1.613 . S
S435 N437 1.610 . S
N436 S435 1.613 . S
N436 C439 1.350 . S
N437 S435 1.610 . S
N437 C438 1.351 . S
C438 C432 1.428 . S
C438 N437 1.351 . S
C438 C439 1.434 . S
C439 C430 1.429 . S
C439 N436 1.350 . S
C439 C438 1.434 . S
C177 C8 1.499 . S
C179 C93 1.435 . S
C188 C31 1.469 . S
C190 C104 1.375 . S
C199 C53 1.436 . S
C201 C114 1.377 . S
C212 C126 1.407 . S
C210 C74 1.404 . S
C223 C137 1.427 . S
C221 C26 1.494 . S
C232 C48 1.408 1_455 S
C234 C148 1.403 . S
C243 C71 1.435 . S
C245 C158 1.379 . S
C254 C5 1.469 . S
C256 C170 1.376 . S
C265 C50 1.366 . S
C267 C169 1.335 . S
C278 C136 1.256 . S
C276 C70 1.307 . S
C289 C147 1.363 . S
C287 C4 1.400 . S
C298 C28 1.413 . S
C300 C159 1.408 . S
C311 C103 1.339 . S
C309 C73 1.370 . S
C320 C7 1.415 1_655 S
C322 C115 1.412 . S
C333 C125 1.361 . S
C331 C30 1.407 . S
C344 C92 1.255 . S
C342 C52 1.305 . S
C355 C164 1.462 . S
C353 C9 1.497 . S
C366 C175 1.468 . S
C364 C29 1.459 . S
C375 C51 1.408 . S
C377 C142 1.418 . S
C388 C153 1.423 . S
C386 C75 1.467 . S
C399 C120 1.467 . S
C397 C27 1.499 . S
C408 C49 1.467 . S
C410 C131 1.426 . S
C421 C98 1.417 . S
C419 C72 1.412 . S
C432 C109 1.467 . S
C430 C6 1.459 . S
