# Generated by pormake.
# Topology pyr, (3,6)-cn, num edge types: 1
# Building blocks:
#     Node 0, Type 0, BuildingBlock: CUQRIR_clean_linker_1, # of connection points: 3
#     Node 1, Type 0, BuildingBlock: CUQRIR_clean_linker_1, # of connection points: 3
#     Node 2, Type 0, BuildingBlock: CUQRIR_clean_linker_1, # of connection points: 3
#     Node 3, Type 0, BuildingBlock: CUQRIR_clean_linker_1, # of connection points: 3
#     Node 4, Type 0, BuildingBlock: CUQRIR_clean_linker_1, # of connection points: 3
#     Node 5, Type 0, BuildingBlock: CUQRIR_clean_linker_1, # of connection points: 3
#     Node 6, Type 0, BuildingBlock: CUQRIR_clean_linker_1, # of connection points: 3
#     Node 7, Type 0, BuildingBlock: CUQRIR_clean_linker_1, # of connection points: 3
#     Node 8, Type 1, BuildingBlock: PAMTOO_clean_sbu_0, # of connection points: 6
#     Node 9, Type 1, BuildingBlock: PAMTOO_clean_sbu_0, # of connection points: 6
#     Node 10, Type 1, BuildingBlock: PAMTOO_clean_sbu_0, # of connection points: 6
#     Node 11, Type 1, BuildingBlock: PAMTOO_clean_sbu_0, # of connection points: 6
#     Edge 12, Type (0, 1), BuildingBlock: CIFDUS_clean_linker_0, # of connection points: 2
#     Edge 13, Type (0, 1), BuildingBlock: CIFDUS_clean_linker_0, # of connection points: 2
#     Edge 14, Type (0, 1), BuildingBlock: CIFDUS_clean_linker_0, # of connection points: 2
#     Edge 15, Type (0, 1), BuildingBlock: CIFDUS_clean_linker_0, # of connection points: 2
#     Edge 16, Type (0, 1), BuildingBlock: CIFDUS_clean_linker_0, # of connection points: 2
#     Edge 17, Type (0, 1), BuildingBlock: CIFDUS_clean_linker_0, # of connection points: 2
#     Edge 18, Type (0, 1), BuildingBlock: CIFDUS_clean_linker_0, # of connection points: 2
#     Edge 19, Type (0, 1), BuildingBlock: CIFDUS_clean_linker_0, # of connection points: 2
#     Edge 20, Type (0, 1), BuildingBlock: CIFDUS_clean_linker_0, # of connection points: 2
#     Edge 21, Type (0, 1), BuildingBlock: CIFDUS_clean_linker_0, # of connection points: 2
#     Edge 22, Type (0, 1), BuildingBlock: CIFDUS_clean_linker_0, # of connection points: 2
#     Edge 23, Type (0, 1), BuildingBlock: CIFDUS_clean_linker_0, # of connection points: 2
#     Edge 24, Type (0, 1), BuildingBlock: CIFDUS_clean_linker_0, # of connection points: 2
#     Edge 25, Type (0, 1), BuildingBlock: CIFDUS_clean_linker_0, # of connection points: 2
#     Edge 26, Type (0, 1), BuildingBlock: CIFDUS_clean_linker_0, # of connection points: 2
#     Edge 27, Type (0, 1), BuildingBlock: CIFDUS_clean_linker_0, # of connection points: 2
#     Edge 28, Type (0, 1), BuildingBlock: CIFDUS_clean_linker_0, # of connection points: 2
#     Edge 29, Type (0, 1), BuildingBlock: CIFDUS_clean_linker_0, # of connection points: 2
#     Edge 30, Type (0, 1), BuildingBlock: CIFDUS_clean_linker_0, # of connection points: 2
#     Edge 31, Type (0, 1), BuildingBlock: CIFDUS_clean_linker_0, # of connection points: 2
#     Edge 32, Type (0, 1), BuildingBlock: CIFDUS_clean_linker_0, # of connection points: 2
#     Edge 33, Type (0, 1), BuildingBlock: CIFDUS_clean_linker_0, # of connection points: 2
#     Edge 34, Type (0, 1), BuildingBlock: CIFDUS_clean_linker_0, # of connection points: 2
#     Edge 35, Type (0, 1), BuildingBlock: CIFDUS_clean_linker_0, # of connection points: 2
# Relax obj value: 0.226
# Max RMSD: 0.283
# Mean RMSD: 0.170
data_MOF--net-pyr--node1-PAMTOO_clean_sbu_0--node2-CUQRIR_clean_linker_1--edge1-CIFDUS_clean_linker_0
_symmetry_space_group_name_H-M    P1
_symmetry_Int_Tables_number       1
_symmetry_cell_setting            triclinic
loop_
_symmetry_equiv_pos_as_xyz
'x, y, z'
_cell_length_a     29.80195
_cell_length_b     31.086059
_cell_length_c     30.224514
_cell_angle_alpha  89.591354
_cell_angle_beta   90.93812
_cell_angle_gamma 109.79285
loop_
_atom_site_label
_atom_site_type_symbol
_atom_site_fract_x
_atom_site_fract_y
_atom_site_fract_z
_atom_type_partial_charge
C0 C 0.41386 0.42678 0.24282 0.0
N1 N 0.4343 0.39627 0.25728 0.0
N2 N 0.41029 0.42715 0.19799 0.0
C3 C 0.38976 0.45036 0.27319 0.0
C4 C 0.43508 0.39973 0.18576 0.0
N5 N 0.44943 0.38099 0.22152 0.0
C6 C 0.43964 0.38637 0.13877 0.0
H7 H 0.35044 0.43533 0.2691 0.0
H8 H 0.40072 0.4872 0.26474 0.0
H9 H 0.39957 0.4473 0.30836 0.0
H10 H 0.42501 0.40577 0.115 0.0
H11 H 0.42065 0.34914 0.13456 0.0
H12 H 0.47775 0.39314 0.13139 0.0
C13 C 0.16718 0.82347 0.73476 0.0
N14 N 0.15486 0.85771 0.75237 0.0
N15 N 0.18111 0.79984 0.76669 0.0
C16 C 0.17081 0.81588 0.68604 0.0
C17 C 0.17541 0.82028 0.80456 0.0
N18 N 0.15945 0.85549 0.79602 0.0
C19 C 0.19422 0.81141 0.84901 0.0
H20 H 0.14542 0.82792 0.66663 0.0
H21 H 0.16348 0.77905 0.67935 0.0
H22 H 0.20763 0.83494 0.67521 0.0
H23 H 0.22715 0.84026 0.85751 0.0
H24 H 0.20239 0.77913 0.84898 0.0
H25 H 0.1676 0.80925 0.87489 0.0
C26 C 0.60527 0.39996 0.89913 0.0
N27 N 0.63111 0.39185 0.93397 0.0
N28 N 0.63064 0.43848 0.87685 0.0
C29 C 0.55365 0.37336 0.88957 0.0
C30 C 0.6727 0.45362 0.89948 0.0
N31 N 0.67297 0.42592 0.93434 0.0
C32 C 0.71479 0.49407 0.88572 0.0
H33 H 0.55141 0.34525 0.86628 0.0
H34 H 0.53546 0.39547 0.87386 0.0
H35 H 0.53476 0.35835 0.9203 0.0
H36 H 0.7137 0.52506 0.90298 0.0
H37 H 0.71385 0.49998 0.84952 0.0
H38 H 0.74882 0.48883 0.89475 0.0
C39 C 0.85131 0.69673 0.38181 0.0
N40 N 0.89157 0.73042 0.36822 0.0
N41 N 0.82398 0.71385 0.4069 0.0
C42 C 0.839 0.64678 0.37068 0.0
C43 C 0.84852 0.75928 0.40753 0.0
N44 N 0.88978 0.76982 0.38456 0.0
C45 C 0.83269 0.79387 0.4317 0.0
H46 H 0.83603 0.64227 0.33423 0.0
H47 H 0.80556 0.62489 0.386 0.0
H48 H 0.86781 0.63452 0.38285 0.0
H49 H 0.79412 0.78047 0.43915 0.0
H50 H 0.83937 0.82524 0.4115 0.0
H51 H 0.85343 0.80343 0.4631 0.0
C52 C 0.65238 0.8336 0.97801 0.0
N53 N 0.68387 0.82544 0.95037 0.0
N54 N 0.62794 0.8578 0.9575 0.0
C55 C 0.64811 0.82194 1.02649 0.0
C56 C 0.64429 0.86219 0.9156 0.0
N57 N 0.67842 0.84288 0.91122 0.0
C58 C 0.63461 0.89409 0.88197 0.0
H59 H 0.61052 0.8137 1.03674 0.0
H60 H 0.67008 0.852 1.04599 0.0
H61 H 0.66018 0.79255 1.03391 0.0
H62 H 0.66509 0.92677 0.88191 0.0
H63 H 0.60157 0.90125 0.88973 0.0
H64 H 0.63102 0.87905 0.84839 0.0
C65 C 0.89095 0.3636 0.48993 0.0
N66 N 0.91341 0.345 0.46086 0.0
N67 N 0.85718 0.37693 0.46902 0.0
C68 C 0.90102 0.36763 0.53886 0.0
C69 C 0.85938 0.36504 0.42628 0.0
N70 N 0.89395 0.3463 0.42116 0.0
C71 C 0.82203 0.36391 0.39132 0.0
H72 H 0.87835 0.33599 0.55547 0.0
H73 H 0.89258 0.39698 0.55259 0.0
H74 H 0.93893 0.37185 0.54595 0.0
H75 H 0.7879 0.36311 0.40588 0.0
H76 H 0.81402 0.33336 0.36989 0.0
H77 H 0.83561 0.39484 0.37022 0.0
C78 C 0.34257 0.71069 0.31416 0.0
N79 N 0.38361 0.74279 0.32899 0.0
N80 N 0.32791 0.7235 0.27524 0.0
C81 C 0.31678 0.66655 0.33753 0.0
C82 C 0.36142 0.76417 0.26639 0.0
N83 N 0.39572 0.7761 0.29854 0.0
C84 C 0.35854 0.79419 0.22775 0.0
H85 H 0.34243 0.64962 0.34844 0.0
H86 H 0.28898 0.64288 0.31593 0.0
H87 H 0.29955 0.67398 0.3674 0.0
H88 H 0.34984 0.82398 0.23995 0.0
H89 H 0.33102 0.77551 0.20308 0.0
H90 H 0.39345 0.80732 0.21109 0.0
C91 C 0.10094 0.40081 0.78266 0.0
N92 N 0.1274 0.39294 0.74916 0.0
N93 N 0.12459 0.44067 0.80399 0.0
C94 C 0.05168 0.36984 0.79435 0.0
C95 C 0.16663 0.45665 0.78234 0.0
N96 N 0.16873 0.42766 0.74946 0.0
C97 C 0.20573 0.50107 0.79297 0.0
H98 H 0.02516 0.37943 0.77407 0.0
H99 H 0.04402 0.37322 0.82965 0.0
H100 H 0.04732 0.33364 0.7874 0.0
H101 H 0.23437 0.49369 0.81209 0.0
H102 H 0.19307 0.52411 0.81315 0.0
H103 H 0.22139 0.51894 0.76203 0.0
Dy104 Dy 0.09178 0.09888 0.53304 0.0
Dy105 Dy 0.98579 0.06935 0.57511 0.0
C106 C 0.07015 0.16094 0.6091 0.0
O107 O 0.08549 1.04001 0.57865 0.0
O108 O 0.02628 1.04366 0.62458 0.0
O109 O 0.16768 0.11307 0.54078 0.0
O110 O 0.13576 0.11066 0.47542 0.0
O111 O 0.98923 1.00602 0.54085 0.0
O112 O 0.04215 1.04478 0.48863 0.0
O113 O 0.98808 0.10316 0.50995 0.0
O114 O 0.06219 0.15451 0.51437 0.0
O115 O 0.91018 1.03306 0.56672 0.0
O116 O 0.93663 0.07743 0.62317 0.0
C117 C 0.06194 1.02958 0.61591 0.0
O118 O 0.10173 0.14487 0.59215 0.0
O119 O 0.02412 0.14123 0.60066 0.0
C120 C 0.21427 0.15993 0.48528 0.0
C121 C 0.28007 0.23398 0.4421 0.0
C122 C 0.2413 0.2397 0.46416 0.0
C123 C 0.20851 0.20281 0.48567 0.0
C124 C 0.25525 0.1552 0.46699 0.0
C125 C 0.28821 0.19219 0.4456 0.0
C126 C 0.17522 0.11908 0.49847 0.0
C127 C 1.00931 1.00707 0.50219 0.0
C128 C 1.01692 0.14495 0.50416 0.0
C129 C 0.86994 1.01193 0.63499 0.0
C130 C 0.81795 0.94827 0.69796 0.0
C131 C 0.83564 0.93327 0.66051 0.0
C132 C 0.86188 0.96498 0.62932 0.0
C133 C 0.85085 1.02651 0.67169 0.0
C134 C 0.82532 0.99504 0.70299 0.0
C135 C 0.89998 1.04674 0.60475 0.0
H136 H 0.23441 0.2717 0.46175 0.0
H137 H 0.17705 0.20691 0.49989 0.0
H138 H 0.26008 0.12219 0.46662 0.0
H139 H 0.31755 0.18693 0.42841 0.0
H140 H 0.83026 0.89732 0.65605 0.0
H141 H 0.87644 0.95286 0.60134 0.0
H142 H 0.8565 0.06248 0.6766 0.0
H143 H 0.81138 1.00728 0.73133 0.0
Dy144 Dy 0.46057 0.07405 0.12597 0.0
Dy145 Dy 0.57588 0.10797 0.14806 0.0
C146 C 0.50057 1.01798 0.1956 0.0
O147 O 0.46953 0.12024 0.18338 0.0
O148 O 0.55097 0.15677 0.18691 0.0
O149 O 0.39116 1.02376 0.11371 0.0
O150 O 0.40119 0.09581 0.10754 0.0
O151 O 0.56674 0.16731 0.11275 0.0
O152 O 0.50034 0.12519 0.07348 0.0
O153 O 0.56337 0.07079 0.08369 0.0
O154 O 0.48609 1.02405 0.09156 0.0
O155 O 0.64752 0.12651 0.12353 0.0
O156 O 0.63404 0.11575 0.19409 0.0
C157 C 0.50721 0.15365 0.19725 0.0
O158 O 0.46438 1.03179 0.18597 0.0
O159 O 0.54308 1.03886 0.17934 0.0
C160 C 0.3471 1.04557 1.05823 0.0
C161 C 0.29707 1.02437 0.97685 0.0
C162 C 0.3452 1.0272 0.98025 0.0
C163 C 0.36999 1.03786 1.02051 0.0
C164 C 0.2997 1.04421 1.05494 0.0
C165 C 0.27484 1.03375 1.01454 0.0
C166 C 0.37233 1.05415 0.10108 0.0
C167 C 0.53692 0.16331 0.07955 0.0
C168 C 0.52817 1.03307 0.07417 0.0
C169 C 0.71065 0.16364 0.17293 0.0
C170 C 0.79498 0.22892 0.205 0.0
C171 C 0.75345 0.24036 0.19887 0.0
C172 C 0.71137 0.20777 0.18303 0.0
C173 C 0.75285 0.15331 0.17564 0.0
C174 C 0.79478 0.18571 0.19159 0.0
C175 C 0.66601 0.12669 0.16299 0.0
H176 H 0.3633 1.0194 0.95225 0.0
H177 H 0.40673 1.03899 1.02248 0.0
H178 H 0.28169 1.05051 0.08376 0.0
H179 H 0.23804 1.03235 1.01298 0.0
H180 H 0.75247 0.27321 0.20957 0.0
H181 H 0.67897 0.2162 0.18088 0.0
H182 H 0.75278 0.11936 0.1676 0.0
H183 H 0.82628 0.17611 0.19609 0.0
Dy184 Dy 0.4959 0.53473 0.55901 0.0
Dy185 Dy 0.51529 0.62077 0.62623 0.0
C186 C 0.54574 0.53642 0.65637 0.0
O187 O 0.42312 0.52395 0.58702 0.0
O188 O 0.45127 0.56439 0.65065 0.0
O189 O 0.47351 0.46193 0.5465 0.0
O190 O 0.50253 0.50985 0.49359 0.0
O191 O 0.46344 0.6283 0.57445 0.0
O192 O 0.48505 0.59168 0.51795 0.0
O193 O 0.57851 0.64189 0.58168 0.0
O194 O 0.57456 0.57106 0.55716 0.0
O195 O 0.53252 0.69327 0.63639 0.0
O196 O 0.51614 0.64705 0.6923 0.0
C197 C 0.41711 0.53365 0.62839 0.0
O198 O 0.51759 0.51229 0.62477 0.0
O199 O 0.55778 0.58117 0.65743 0.0
C200 C 0.53322 0.45006 0.50215 0.0
C201 C 0.62157 0.4362 0.49258 0.0
C202 C 0.60141 0.43411 0.53455 0.0
C203 C 0.55787 0.44121 0.53932 0.0
C204 C 0.55197 0.44952 0.45995 0.0
C205 C 0.59576 0.44274 0.4552 0.0
C206 C 0.49375 0.46821 0.5079 0.0
C207 C 0.46663 0.62198 0.53186 0.0
C208 C 0.59708 0.61513 0.56088 0.0
C209 C 0.48547 0.7068 0.69223 0.0
C210 C 0.4128 0.73843 0.72056 0.0
C211 C 0.40572 0.71008 0.68323 0.0
C212 C 0.44163 0.69424 0.66936 0.0
C213 C 0.49299 0.73515 0.72936 0.0
C214 C 0.45687 0.75092 0.74348 0.0
C215 C 0.52203 0.68827 0.67826 0.0
H216 H 0.62048 0.42943 0.56399 0.0
H217 H 0.54487 0.44212 0.57242 0.0
H218 H 0.53397 0.45669 0.43085 0.0
H219 H 0.61006 0.44383 0.42234 0.0
H220 H 0.37259 0.70049 0.66437 0.0
H221 H 0.4351 0.67201 0.64079 0.0
H222 H 0.52651 0.7447 0.74761 0.0
H223 H 0.46321 0.77237 0.7726 0.0
Dy224 Dy 1.01283 0.6182 0.0677 0.0
Dy225 Dy 1.004 0.52554 0.12402 0.0
C226 C 0.97969 0.61189 0.169 0.0
O227 O 0.0765 0.63615 0.11303 0.0
O228 O 0.08117 0.56487 0.11415 0.0
O229 O 0.03131 0.69133 1.05983 0.0
O230 O 1.00729 0.64667 1.00332 0.0
O231 O 1.01261 0.50728 1.05407 0.0
O232 O 0.04922 0.57903 1.02628 0.0
O233 O 0.92757 0.50987 0.1032 0.0
O234 O 0.93734 0.57224 1.05731 0.0
O235 O 0.99568 0.45378 0.13109 0.0
O236 O 1.01834 0.49912 0.18701 0.0
C237 C 0.10015 0.60855 0.12236 0.0
O238 O 0.9773 0.62979 0.12973 0.0
O239 O 0.99266 0.57538 0.17332 0.0
C240 C 0.97975 0.70844 1.0076 0.0
C241 C 0.9027 0.73695 0.98297 0.0
C242 C 0.90913 0.7259 1.02724 0.0
C243 C 0.94712 0.71147 1.03941 0.0
C244 C 0.97413 0.72056 0.9636 0.0
C245 C 0.93578 0.73457 0.95131 0.0
C246 C 1.01608 0.68771 1.01885 0.0
C247 C 0.03779 0.53425 1.02323 0.0
C248 C 0.91087 0.53296 0.07445 0.0
C249 C 0.06281 0.45091 0.17332 0.0
C250 C 0.15833 0.45249 0.17325 0.0
C251 C 0.12764 0.43414 0.13717 0.0
C252 C 0.08043 0.43351 0.1371 0.0
C253 C 0.0927 0.46633 0.21057 0.0
C254 C 0.13998 0.46741 0.21042 0.0
C255 C 1.01737 0.46058 0.16959 0.0
H256 H 0.88383 0.72692 1.0522 0.0
H257 H 0.95012 0.70143 0.07343 0.0
H258 H 0.99863 0.71792 0.93853 0.0
H259 H 0.93176 0.74321 0.91703 0.0
H260 H 0.14076 0.42229 0.10811 0.0
H261 H 0.05856 0.42143 0.10775 0.0
H262 H 0.08027 0.47984 0.23902 0.0
H263 H 0.16254 0.48088 0.23909 0.0
H264 H 0.3435 0.35156 0.27149 0.0
H265 H 0.48394 0.37594 0.3264 0.0
H266 H 0.44885 0.32695 0.39059 0.0
H267 H 0.37627 0.27744 0.4305 0.0
H268 H 0.23718 0.26164 0.37491 0.0
H269 H 0.27353 0.3087 0.31191 0.0
C270 C 0.36636 0.34695 0.29809 0.0
C271 C 0.41587 0.36794 0.29524 0.0
C272 C 0.34604 0.32081 0.33471 0.0
C273 C 0.44559 0.36042 0.32862 0.0
C274 C 0.4255 0.33262 0.36508 0.0
C275 C 0.35428 0.28501 0.40475 0.0
C276 C 0.3042 0.26676 0.40742 0.0
C277 C 0.37556 0.31284 0.36857 0.0
C278 C 0.27574 0.27618 0.37389 0.0
C279 C 0.29643 0.30264 0.3377 0.0
H280 H 0.22843 0.9364 0.79173 0.0
H281 H 0.10893 0.85631 0.86857 0.0
H282 H 0.13804 0.90782 0.9318 0.0
H283 H 0.20583 0.96539 0.96849 0.0
H284 H 0.32648 1.04499 0.89143 0.0
H285 H 0.28856 1.00418 0.82464 0.0
C286 C 0.20778 0.93176 0.82169 0.0
C287 C 0.16677 0.89301 0.82595 0.0
C288 C 0.2257 0.96057 0.85805 0.0
C289 C 0.14048 0.88629 0.86495 0.0
C290 C 0.15747 0.91535 0.90109 0.0
C291 C 0.22322 0.975 0.93692 0.0
C292 C 0.26954 1.00744 0.93525 0.0
C293 C 0.20136 0.95115 0.89867 0.0
C294 C 0.29146 1.01919 0.89391 0.0
C295 C 0.26971 0.99602 0.85564 0.0
H296 H 0.59457 0.40373 0.79663 0.0
H297 H 0.63242 0.52564 0.87589 0.0
H298 H 0.61192 0.56749 0.81438 0.0
H299 H 0.58312 0.56974 0.73776 0.0
H300 H 0.54261 0.44723 0.6586 0.0
H301 H 0.56409 0.40568 0.7197 0.0
C302 C 0.59789 0.43933 0.80035 0.0
C303 C 0.61536 0.46165 0.84074 0.0
C304 C 0.58577 0.46326 0.76461 0.0
C305 C 0.61967 0.5079 0.84504 0.0
C306 C 0.60785 0.53181 0.80985 0.0
C307 C 0.57932 0.53405 0.73364 0.0
C308 C 0.56147 0.51196 0.69318 0.0
C309 C 0.59112 0.51 0.76933 0.0
C310 C 0.5563 0.4654 0.68907 0.0
C311 C 0.56851 0.44145 0.72417 0.0
H312 H 0.94512 0.67545 0.36226 0.0
H313 H 0.89744 0.7705 0.28778 0.0
H314 H 0.92166 0.74383 0.21868 0.0
H315 H 0.94824 0.68663 0.1783 0.0
H316 H 0.98953 0.58782 0.25477 0.0
H317 H 0.97459 0.6213 0.32297 0.0
C318 C 0.94067 0.6908 0.33094 0.0
C319 C 0.91926 0.72503 0.33052 0.0
C320 C 0.95225 0.67336 0.2911 0.0
C321 C 0.91443 0.74476 0.28944 0.0
C322 C 0.92748 0.72876 0.24973 0.0
C323 C 0.95405 0.67238 0.20983 0.0
C324 C 0.96969 0.63397 0.21056 0.0
C325 C 0.94496 0.69189 0.24987 0.0
C326 C 0.97714 0.61673 0.25231 0.0
C327 C 0.96882 0.63614 0.29176 0.0
H328 H 0.40837 0.29328 0.24755 0.0
H329 H 0.53604 0.38791 0.19201 0.0
H330 H 0.56983 0.32635 0.18531 0.0
H331 H 0.55943 0.24409 0.18983 0.0
H332 H 0.4319 0.15088 0.24794 0.0
H333 H 0.40291 0.214 0.26193 0.0
C334 C 0.44423 0.30081 0.23552 0.0
C335 C 0.47004 0.34512 0.22076 0.0
C336 C 0.46365 0.26558 0.23283 0.0
C337 C 0.51569 0.35389 0.20345 0.0
C338 C 0.53502 0.31883 0.19989 0.0
C339 C 0.52617 0.23788 0.20705 0.0
C340 C 0.49787 0.1928 0.21782 0.0
C341 C 0.50902 0.27431 0.21396 0.0
C342 C 0.45437 0.18524 0.23935 0.0
C343 C 0.43749 0.22126 0.24693 0.0
H344 H 0.07867 0.88428 0.75676 0.0
H345 H 0.21518 0.91471 0.69547 0.0
H346 H 0.19897 0.97199 0.64793 0.0
H347 H 0.14378 1.00977 0.62088 0.0
H348 H 1.00731 0.98077 0.6831 0.0
H349 H 0.02555 0.9269 0.7334 0.0
C350 C 0.10477 0.90399 0.73323 0.0
C351 C 0.14734 0.89485 0.72844 0.0
C352 C 0.09508 0.93677 0.70611 0.0
C353 C 0.18159 0.92061 0.69849 0.0
C354 C 0.17239 0.95334 0.67155 0.0
C355 C 0.11806 0.99174 0.64549 0.0
C356 C 0.0741 0.9989 0.64789 0.0
C357 C 0.12881 0.96098 0.6744 0.0
C358 C 0.04144 0.97581 0.68045 0.0
C359 C 0.05177 0.94493 0.70922 0.0
H360 H 0.71099 0.50106 0.98334 0.0
H361 H 0.72143 0.36906 0.95732 0.0
H362 H 0.79375 0.3879 1.00437 0.0
H363 H 0.85928 0.44616 1.04615 0.0
H364 H 0.85033 0.58027 0.06562 0.0
H365 H 0.77262 0.55681 1.02823 0.0
C366 C 0.72904 0.4764 0.98836 0.0
C367 C 0.71135 0.43397 0.96669 0.0
C368 C 0.77114 0.48814 1.01416 0.0
C369 C 0.73447 0.40189 0.97377 0.0
C370 C 0.77592 0.41286 1.00043 0.0
C371 C 0.83963 0.46972 1.04311 0.0
C372 C 0.86039 0.51485 1.05895 0.0
C373 C 0.79536 0.4564 1.01994 0.0
C374 C 0.83504 0.54538 1.0539 0.0
C375 C 0.79067 0.53204 1.03234 0.0
H376 H 0.80633 0.71884 0.49356 0.0
H377 H 0.74229 0.65601 0.37099 0.0
H378 H 0.66745 0.6162 0.40893 0.0
H379 H 0.61907 0.60186 0.4767 0.0
H380 H 0.6793 0.67441 0.59638 0.0
H381 H 0.75643 0.70858 0.5601 0.0
C382 C 0.77584 0.69656 0.47523 0.0
C383 C 0.78008 0.68973 0.42964 0.0
C384 C 0.73219 0.67589 0.49683 0.0
C385 C 0.74025 0.66091 0.40624 0.0
C386 C 0.69738 0.63851 0.42787 0.0
C387 C 0.64927 0.62497 0.4948 0.0
C388 C 0.64385 0.6353 0.53926 0.0
C389 C 0.69281 0.64597 0.47312 0.0
C390 C 0.68279 0.66595 0.56219 0.0
C391 C 0.72682 0.68541 0.54145 0.0
H392 H 0.38146 0.50048 0.19208 0.0
H393 H 0.34159 0.35823 0.15709 0.0
H394 H 0.26055 0.35537 0.14028 0.0
H395 H 0.19756 0.38922 0.14801 0.0
H396 H 0.23438 0.52736 0.19564 0.0
H397 H 0.31889 0.53556 0.19688 0.0
C398 C 0.35513 0.46918 0.18004 0.0
C399 C 0.36787 0.4298 0.17581 0.0
C400 C 0.30732 0.4666 0.17429 0.0
C401 C 0.33338 0.38945 0.15972 0.0
C402 C 0.28656 0.38747 0.15103 0.0
C403 C 0.2242 0.4213 0.15801 0.0
C404 C 0.20974 0.45764 0.17173 0.0
C405 C 0.27261 0.42518 0.16015 0.0
C406 C 0.24463 0.49885 0.18513 0.0
C407 C 0.29297 0.50358 0.18571 0.0
H408 H 0.58684 0.30163 0.91743 0.0
H409 H 0.6388 0.39856 1.02347 0.0
H410 H 0.61509 0.33649 0.07767 0.0
H411 H 0.57972 0.25427 0.09518 0.0
H412 H 0.5193 0.15804 0.99008 0.0
H413 H 0.54444 0.22008 0.93551 0.0
C414 C 0.59237 0.30923 0.95242 0.0
C415 C 0.61554 0.35486 0.96613 0.0
C416 C 0.57663 0.27339 0.98366 0.0
C417 C 0.62261 0.36385 1.01173 0.0
C418 C 0.60848 0.32833 1.04284 0.0
C419 C 0.57183 0.2469 1.06032 0.0
C420 C 0.54792 0.20141 1.04673 0.0
C421 C 0.58564 0.28292 1.02921 0.0
C422 C 0.53744 0.19264 1.0015 0.0
C423 C 0.5521 0.22813 0.97025 0.0
H424 H 0.90741 0.85703 0.3574 0.0
H425 H 0.95889 0.77305 0.44362 0.0
H426 H 1.00176 0.83982 0.48897 0.0
H427 H 1.01448 0.92052 0.51065 0.0
H428 H 0.96413 1.00484 0.42323 0.0
H429 H 0.93035 0.94018 0.37269 0.0
C430 C 0.92997 0.85388 0.38484 0.0
C431 C 0.9302 0.80989 0.3967 0.0
C432 C 0.95305 0.89244 0.41185 0.0
C433 C 0.95887 0.80641 0.43307 0.0
C434 C 0.98241 0.84455 0.45973 0.0
C435 C 0.99636 0.9247 0.48037 0.0
C436 C 0.99104 0.96736 0.47117 0.0
C437 C 0.97798 0.88739 0.45065 0.0
C438 C 0.96826 0.97237 0.43136 0.0
C439 C 0.9491 0.93537 0.4023 0.0
H440 H 0.27402 0.84345 0.77323 0.0
H441 H 0.1686 0.71248 0.74513 0.0
H442 H 0.23199 0.68038 0.73041 0.0
H443 H 0.31741 0.69129 0.72356 0.0
H444 H 0.4223 0.82424 0.74894 0.0
H445 H 0.35916 0.85399 0.76797 0.0
C446 C 0.26536 0.80778 0.76433 0.0
C447 C 0.21741 0.77993 0.76041 0.0
C448 C 0.30171 0.79021 0.75568 0.0
C449 C 0.20563 0.734 0.74841 0.0
C450 C 0.24173 0.71594 0.74002 0.0
C451 C 0.32643 0.72682 0.73307 0.0
C452 C 0.37451 0.75555 0.73467 0.0
C453 C 0.2899 0.74393 0.74314 0.0
C454 C 0.38568 0.80127 0.74792 0.0
C455 C 0.34961 0.81842 0.75846 0.0
H456 H 0.66952 0.81663 0.82639 0.0
H457 H 0.76666 0.90242 0.92226 0.0
H458 H 0.82277 0.93892 0.86391 0.0
H459 H 0.83837 0.95368 0.78509 0.0
H460 H 0.74 0.87105 0.68782 0.0
H461 H 0.69012 0.82547 0.74684 0.0
C462 C 0.70362 0.84248 0.83417 0.0
C463 C 0.71455 0.85684 0.87812 0.0
C464 C 0.73486 0.86419 0.80021 0.0
C465 C 0.75832 0.89059 0.88851 0.0
C466 C 0.78998 0.91171 0.85519 0.0
C467 C 0.80632 0.92523 0.77695 0.0
C468 C 0.79225 0.91596 0.73252 0.0
C469 C 0.77779 0.89991 0.81085 0.0
C470 C 0.75125 0.8787 0.72199 0.0
C471 C 0.7227 0.8529 0.75566 0.0
H472 H 0.91099 0.3775 0.33841 0.0
H473 H 0.88039 0.25599 0.41822 0.0
H474 H 0.86074 0.20855 0.35258 0.0
H475 H 0.831 0.20099 0.27684 0.0
H476 H 0.8436 0.3212 0.19916 0.0
H477 H 0.8906 0.36984 0.25876 0.0
C478 C 0.90173 0.3407 0.34086 0.0
C479 C 0.89768 0.32035 0.38296 0.0
C480 C 0.88537 0.31337 0.30323 0.0
C481 C 0.88521 0.27268 0.38633 0.0
C482 C 0.8728 0.2454 0.3487 0.0
C483 C 0.84566 0.23775 0.27226 0.0
C484 C 0.83385 0.25765 0.23395 0.0
C485 C 0.86969 0.26525 0.30754 0.0
C486 C 0.85217 0.30532 0.22863 0.0
C487 C 0.87881 0.33302 0.26273 0.0
H488 H 0.36268 0.73303 0.41574 0.0
H489 H 0.46791 0.72981 0.32155 0.0
H490 H 0.50352 0.69125 0.37589 0.0
H491 H 0.49921 0.65091 0.44815 0.0
H492 H 0.39483 0.65662 0.54296 0.0
H493 H 0.3641 0.70075 0.49079 0.0
C494 C 0.39446 0.72529 0.40779 0.0
C495 C 0.41303 0.73489 0.36474 0.0
C496 C 0.41394 0.7021 0.43903 0.0
C497 C 0.45367 0.72384 0.35464 0.0
C498 C 0.47341 0.70094 0.38553 0.0
C499 C 0.46973 0.66181 0.45738 0.0
C500 C 0.44884 0.6495 0.49937 0.0
C501 C 0.45289 0.68849 0.4274 0.0
C502 C 0.41138 0.66502 0.51093 0.0
C503 C 0.39384 0.69049 0.48107 0.0
H504 H 0.10597 0.41222 0.88877 0.0
H505 H 0.10576 0.51964 0.79852 0.0
H506 H 0.08123 0.55993 0.85808 0.0
H507 H 0.05937 0.56462 0.93685 0.0
H508 H 0.05543 0.45403 1.02543 0.0
H509 H 0.08163 0.41548 0.96639 0.0
C510 C 0.10011 0.44425 0.8822 0.0
C511 C 0.10781 0.46295 0.83921 0.0
C512 C 0.08532 0.46692 0.91666 0.0
C513 C 0.10026 0.50465 0.83129 0.0
C514 C 0.08626 0.52769 0.86543 0.0
C515 C 0.06447 0.53221 0.94326 0.0
C516 C 0.05537 0.51256 0.98597 0.0
C517 C 0.07875 0.50931 0.90846 0.0
C518 C 0.0618 0.47014 0.99315 0.0
C519 C 0.0769 0.4479 0.95925 0.0
H520 H 0.53994 0.8605 0.97158 0.0
H521 H 0.68967 0.93427 0.99054 0.0
H522 H 0.672 0.99728 1.02553 0.0
H523 H 0.61437 1.03017 1.05207 0.0
H524 H 0.46363 0.9566 1.03629 0.0
H525 H 0.48095 0.89488 0.99813 0.0
C526 C 0.56826 0.89042 0.9837 0.0
C527 C 0.61586 0.89311 0.9793 0.0
C528 C 0.55769 0.92646 1.00383 0.0
C529 C 0.65282 0.93188 0.99441 0.0
C530 C 0.64274 0.96777 1.01407 0.0
C531 C 0.58518 1.00098 1.03982 0.0
C532 C 0.53783 0.99808 1.04685 0.0
C533 C 0.59535 0.96537 1.01903 0.0
C534 C 0.50049 0.95967 1.03121 0.0
C535 C 0.51034 0.92428 1.00956 0.0
H536 H 0.89247 0.27259 0.51414 0.0
H537 H 1.00035 0.35657 0.42785 0.0
H538 H 0.04537 0.30348 0.43555 0.0
H539 H 0.05002 0.22903 0.4628 0.0
H540 H 0.93581 0.14307 0.54312 0.0
H541 H 0.89759 0.20068 0.54222 0.0
C542 C 0.92665 0.27989 0.49832 0.0
C543 C 0.94381 0.31867 0.47134 0.0
C544 C 0.95069 0.24821 0.50118 0.0
C545 C 0.98707 0.32706 0.4493 0.0
C546 C 1.01243 0.29653 0.45341 0.0
C547 C 1.01685 0.22318 0.48006 0.0
C548 C 0.9955 0.18152 0.50238 0.0
C549 C 0.994 0.25629 0.4785 0.0
C550 C 0.95256 0.17438 0.52484 0.0
C551 C 0.93073 0.20747 0.52469 0.0
H552 H 0.30097 0.6526 0.21897 0.0
H553 H 0.25458 0.754 0.28095 0.0
H554 H 0.18023 0.72892 0.23713 0.0
H555 H 0.12935 0.67899 0.18014 0.0
H556 H 0.17377 0.57501 0.11976 0.0
H557 H 0.24862 0.601 0.1626 0.0
C558 C 0.27402 0.66845 0.22308 0.0
C559 C 0.28238 0.70455 0.25323 0.0
C560 C 0.23162 0.65393 0.19751 0.0
C561 C 0.24803 0.7257 0.25819 0.0
C562 C 0.20593 0.71162 0.23296 0.0
C563 C 0.15558 0.66222 0.17618 0.0
C564 C 0.14645 0.62565 0.14636 0.0
C565 C 0.19753 0.67605 0.20221 0.0
C566 C 0.1802 0.60349 0.14229 0.0
C567 C 0.22276 0.61801 0.16708 0.0
H568 H 0.26004 0.4405 0.77011 0.0
H569 H 0.16516 0.43424 0.65991 0.0
H570 H 0.23368 0.46275 0.61021 0.0
H571 H 0.3222 0.49785 0.60014 0.0
H572 H 0.41474 0.5089 0.71399 0.0
H573 H 0.34638 0.47117 0.75992 0.0
C574 C 0.25447 0.44503 0.7351 0.0
C575 C 0.2077 0.43559 0.71876 0.0
C576 C 0.29401 0.4632 0.7074 0.0
C577 C 0.20082 0.44095 0.67321 0.0
C578 C 0.24011 0.45778 0.64494 0.0
C579 C 0.32727 0.49144 0.63485 0.0
C580 C 0.3738 0.5067 0.65353 0.0
C581 C 0.28712 0.47033 0.66187 0.0
C582 C 0.37954 0.49822 0.69871 0.0
C583 C 0.34037 0.47642 0.72513 0.0
H584 H 0.71422 0.7644 0.90962 0.0
H585 H 0.74678 0.86094 1.01691 0.0
H586 H 0.81711 0.84142 1.037 0.0
H587 H 0.87016 0.79776 1.02336 0.0
H588 H 0.84118 0.70419 0.91343 0.0
H589 H 0.7695 0.72239 0.89414 0.0
C590 C 0.73669 0.78065 0.93756 0.0
C591 C 0.72438 0.81248 0.96296 0.0
C592 C 0.77805 0.77035 0.94792 0.0
C593 C 0.75423 0.83456 0.99838 0.0
C594 C 0.79488 0.82399 1.00938 0.0
C595 C 0.84801 0.78127 0.99529 0.0
C596 C 0.8607 0.74961 0.96996 0.0
C597 C 0.80708 0.7919 0.98444 0.0
C598 C 0.83223 0.72898 0.9332 0.0
C599 C 0.79113 0.73913 0.92236 0.0
H600 H 0.47851 0.81737 0.2579 0.0
H601 H 0.37771 0.84077 0.34596 0.0
H602 H 0.40184 0.92093 0.32255 0.0
H603 H 0.44135 0.98041 0.26617 0.0
H604 H 0.54339 0.95592 0.17913 0.0
H605 H 0.52885 0.88079 0.21208 0.0
C606 C 0.46402 0.84082 0.27388 0.0
C607 C 0.42655 0.82306 0.30389 0.0
C608 C 0.47676 0.88643 0.25864 0.0
C609 C 0.40726 0.8537 0.32352 0.0
C610 C 0.42013 0.89931 0.30908 0.0
C611 C 0.46073 0.9588 0.25483 0.0
C612 C 0.49296 0.97383 0.21964 0.0
C613 C 0.45298 0.91541 0.27479 0.0
C614 C 0.51829 0.94547 0.20596 0.0
C615 C 0.51007 0.90232 0.22488 0.0
H616 H 0.17433 0.33399 0.73126 0.0
H617 H 0.04764 0.36496 0.69812 0.0
H618 H 1.01759 0.29555 0.65319 0.0
H619 H 0.02606 0.2242 0.62462 0.0
H620 H 0.15475 0.19498 0.65471 0.0
H621 H 0.18501 0.26473 0.69888 0.0
C622 C 0.14048 0.32574 0.7137 0.0
C623 C 0.11295 0.35441 0.71865 0.0
C624 C 0.12345 0.28557 0.68751 0.0
C625 C 0.06909 0.34313 0.69561 0.0
C626 C 0.05192 0.30338 0.66982 0.0
C627 C 0.06062 0.23292 0.64103 0.0
C628 C 0.08769 0.2037 0.63654 0.0
C629 C 0.0784 0.27386 0.66597 0.0
C630 C 0.13286 0.21641 0.65751 0.0
C631 C 0.15033 0.2565 0.68287 0.0
H632 H 0.83149 0.44839 0.44589 0.0
H633 H 0.79579 0.33112 0.5318 0.0
H634 H 0.72016 0.34124 0.54983 0.0
H635 H 0.65988 0.3776 0.53332 0.0
H636 H 0.69355 0.49135 0.44235 0.0
H637 H 0.77345 0.48784 0.433 0.0
C638 C 0.80751 0.42596 0.46946 0.0
C639 C 0.81917 0.3894 0.48783 0.0
C640 C 0.76303 0.43046 0.47749 0.0
C641 C 0.78791 0.36001 0.51797 0.0
C642 C 0.74432 0.36534 0.5276 0.0
C643 C 0.68491 0.4019 0.51183 0.0
C644 C 0.67049 0.43426 0.48807 0.0
C645 C 0.73079 0.39946 0.50632 0.0
C646 C 0.70332 0.46542 0.46022 0.0
C647 C 0.74919 0.46374 0.45518 0.0
loop_
_geom_bond_atom_site_label_1
_geom_bond_atom_site_label_2
_geom_bond_distance
_geom_bond_site_symmetry_2
_ccdc_geom_bond_type
C0 N1 1.317 . S
C0 N2 1.348 . S
C0 C3 1.485 . S
N1 C0 1.317 . S
N1 N5 1.370 . S
N2 C0 1.348 . S
N2 C4 1.346 . S
C3 C0 1.485 . S
C3 H7 0.960 . S
C3 H8 0.961 . S
C3 H9 0.960 . S
C4 N2 1.346 . S
C4 N5 1.307 . S
C4 C6 1.486 . S
N5 N1 1.370 . S
N5 C4 1.307 . S
C6 C4 1.486 . S
C6 H10 0.960 . S
C6 H11 0.960 . S
C6 H12 0.959 . S
H7 C3 0.960 . S
H8 C3 0.961 . S
H9 C3 0.960 . S
H10 C6 0.960 . S
H11 C6 0.960 . S
H12 C6 0.959 . S
C13 N14 1.317 . S
C13 N15 1.348 . S
C13 C16 1.485 . S
N14 C13 1.317 . S
N14 N18 1.370 . S
N15 C13 1.348 . S
N15 C17 1.346 . S
C16 C13 1.485 . S
C16 H20 0.960 . S
C16 H21 0.961 . S
C16 H22 0.960 . S
C17 N15 1.346 . S
C17 N18 1.307 . S
C17 C19 1.486 . S
N18 N14 1.370 . S
N18 C17 1.307 . S
C19 C17 1.486 . S
C19 H23 0.960 . S
C19 H24 0.960 . S
C19 H25 0.959 . S
H20 C16 0.960 . S
H21 C16 0.961 . S
H22 C16 0.960 . S
H23 C19 0.960 . S
H24 C19 0.960 . S
H25 C19 0.959 . S
C26 N27 1.317 . S
C26 N28 1.348 . S
C26 C29 1.485 . S
N27 C26 1.317 . S
N27 N31 1.370 . S
N28 C26 1.348 . S
N28 C30 1.346 . S
C29 C26 1.485 . S
C29 H33 0.960 . S
C29 H34 0.961 . S
C29 H35 0.960 . S
C30 N28 1.346 . S
C30 N31 1.307 . S
C30 C32 1.486 . S
N31 N27 1.370 . S
N31 C30 1.307 . S
C32 C30 1.486 . S
C32 H36 0.960 . S
C32 H37 0.960 . S
C32 H38 0.959 . S
H33 C29 0.960 . S
H34 C29 0.961 . S
H35 C29 0.960 . S
H36 C32 0.960 . S
H37 C32 0.960 . S
H38 C32 0.959 . S
C39 N40 1.317 . S
C39 N41 1.348 . S
C39 C42 1.485 . S
N40 C39 1.317 . S
N40 N44 1.370 . S
N41 C39 1.348 . S
N41 C43 1.346 . S
C42 C39 1.485 . S
C42 H46 0.960 . S
C42 H47 0.961 . S
C42 H48 0.960 . S
C43 N41 1.346 . S
C43 N44 1.307 . S
C43 C45 1.486 . S
N44 N40 1.370 . S
N44 C43 1.307 . S
C45 C43 1.486 . S
C45 H49 0.960 . S
C45 H50 0.960 . S
C45 H51 0.959 . S
H46 C42 0.960 . S
H47 C42 0.961 . S
H48 C42 0.960 . S
H49 C45 0.960 . S
H50 C45 0.960 . S
H51 C45 0.959 . S
C52 N53 1.317 . S
C52 N54 1.348 . S
C52 C55 1.485 . S
N53 C52 1.317 . S
N53 N57 1.370 . S
N54 C52 1.348 . S
N54 C56 1.346 . S
C55 C52 1.485 . S
C55 H59 0.960 . S
C55 H60 0.961 . S
C55 H61 0.960 . S
C56 N54 1.346 . S
C56 N57 1.307 . S
C56 C58 1.486 . S
N57 N53 1.370 . S
N57 C56 1.307 . S
C58 C56 1.486 . S
C58 H62 0.960 . S
C58 H63 0.960 . S
C58 H64 0.959 . S
H59 C55 0.960 . S
H60 C55 0.961 . S
H61 C55 0.960 . S
H62 C58 0.960 . S
H63 C58 0.960 . S
H64 C58 0.959 . S
C65 N66 1.317 . S
C65 N67 1.348 . S
C65 C68 1.485 . S
N66 C65 1.317 . S
N66 N70 1.370 . S
N67 C65 1.348 . S
N67 C69 1.346 . S
C68 C65 1.485 . S
C68 H72 0.960 . S
C68 H73 0.961 . S
C68 H74 0.960 . S
C69 N67 1.346 . S
C69 N70 1.307 . S
C69 C71 1.486 . S
N70 N66 1.370 . S
N70 C69 1.307 . S
C71 C69 1.486 . S
C71 H75 0.960 . S
C71 H76 0.960 . S
C71 H77 0.959 . S
H72 C68 0.960 . S
H73 C68 0.961 . S
H74 C68 0.960 . S
H75 C71 0.960 . S
H76 C71 0.960 . S
H77 C71 0.959 . S
C78 N79 1.317 . S
C78 N80 1.348 . S
C78 C81 1.485 . S
N79 C78 1.317 . S
N79 N83 1.370 . S
N80 C78 1.348 . S
N80 C82 1.346 . S
C81 C78 1.485 . S
C81 H85 0.960 . S
C81 H86 0.961 . S
C81 H87 0.960 . S
C82 N80 1.346 . S
C82 N83 1.307 . S
C82 C84 1.486 . S
N83 N79 1.370 . S
N83 C82 1.307 . S
C84 C82 1.486 . S
C84 H88 0.960 . S
C84 H89 0.960 . S
C84 H90 0.959 . S
H85 C81 0.960 . S
H86 C81 0.961 . S
H87 C81 0.960 . S
H88 C84 0.960 . S
H89 C84 0.960 . S
H90 C84 0.959 . S
C91 N92 1.317 . S
C91 N93 1.348 . S
C91 C94 1.485 . S
N92 C91 1.317 . S
N92 N96 1.370 . S
N93 C91 1.348 . S
N93 C95 1.346 . S
C94 C91 1.485 . S
C94 H98 0.960 . S
C94 H99 0.961 . S
C94 H100 0.960 . S
C95 N93 1.346 . S
C95 N96 1.307 . S
C95 C97 1.486 . S
N96 N92 1.370 . S
N96 C95 1.307 . S
C97 C95 1.486 . S
C97 H101 0.960 . S
C97 H102 0.960 . S
C97 H103 0.959 . S
H98 C94 0.960 . S
H99 C94 0.961 . S
H100 C94 0.960 . S
H101 C97 0.960 . S
H102 C97 0.960 . S
H103 C97 0.959 . S
Dy104 O107 2.307 1_545 S
Dy104 O109 2.395 . S
Dy104 O110 2.379 . S
Dy104 O112 2.339 1_545 S
Dy104 O114 2.298 . S
Dy104 O118 2.275 . S
Dy104 C126 2.738 . S
Dy105 O108 2.298 1_645 S
Dy105 O111 2.275 1_645 S
Dy105 O113 2.307 . S
Dy105 O115 2.395 1_545 S
Dy105 O116 2.379 1_545 S
Dy105 O119 2.339 1_655 S
Dy105 C135 2.738 1_545 S
C106 O118 1.254 . S
C106 O119 1.257 . S
O107 Dy104 2.307 1_565 S
O107 C117 1.266 . S
O108 Dy105 2.298 1_465 S
O108 C117 1.236 . S
O109 Dy104 2.395 . S
O109 C126 1.255 . S
O110 Dy104 2.379 . S
O110 C126 1.249 . S
O111 Dy105 2.275 1_465 S
O111 C127 1.254 . S
O112 Dy104 2.339 1_565 S
O112 C127 1.257 . S
O113 Dy105 2.307 . S
O113 C128 1.266 1_655 S
O114 Dy104 2.298 . S
O114 C128 1.236 . S
O115 Dy105 2.395 1_565 S
O115 C135 1.255 . S
O116 Dy105 2.379 1_565 S
O116 C135 1.249 . S
C117 O107 1.266 . S
C117 O108 1.236 . S
O118 Dy104 2.275 . S
O118 C106 1.254 . S
O119 Dy105 2.339 1_455 S
O119 C106 1.257 . S
C120 C123 1.344 . S
C120 C124 1.328 . S
C120 C126 1.516 . S
C121 C122 1.304 . S
C121 C125 1.323 . S
C122 C121 1.304 . S
C122 C123 1.371 . S
C122 H136 0.930 . S
C123 C120 1.344 . S
C123 C122 1.371 . S
C123 H137 0.931 . S
C124 C120 1.328 . S
C124 C125 1.433 . S
C124 H138 0.931 . S
C125 C121 1.323 . S
C125 C124 1.433 . S
C125 H139 0.933 . S
C126 Dy104 2.738 . S
C126 O109 1.255 . S
C126 O110 1.249 . S
C126 C120 1.516 . S
C127 O111 1.254 . S
C127 O112 1.257 . S
C128 O113 1.266 1_455 S
C128 O114 1.236 . S
C129 C132 1.344 . S
C129 C133 1.328 . S
C129 C135 1.516 . S
C130 C131 1.304 . S
C130 C134 1.323 . S
C131 C130 1.304 . S
C131 C132 1.371 . S
C131 H140 0.930 . S
C132 C129 1.344 . S
C132 C131 1.371 . S
C132 H141 0.931 . S
C133 C129 1.328 . S
C133 C134 1.433 . S
C133 H142 0.931 . S
C134 C130 1.323 . S
C134 C133 1.433 . S
C134 H143 0.933 . S
C135 Dy105 2.738 1_565 S
C135 O115 1.255 . S
C135 O116 1.249 . S
C135 C129 1.516 . S
H136 C122 0.930 . S
H137 C123 0.931 . S
H138 C124 0.931 . S
H139 C125 0.933 . S
H140 C131 0.930 . S
H141 C132 0.931 . S
H142 C133 0.931 . S
H143 C134 0.933 . S
Dy144 O147 2.307 . S
Dy144 O149 2.395 1_545 S
Dy144 O150 2.379 1_554 S
Dy144 O152 2.339 1_554 S
Dy144 O154 2.299 1_544 S
Dy144 O158 2.275 1_545 S
Dy144 C166 2.738 1_544 S
Dy145 O148 2.298 . S
Dy145 O151 2.275 . S
Dy145 O153 2.307 1_545 S
Dy145 O155 2.395 . S
Dy145 O156 2.379 . S
Dy145 O159 2.339 1_545 S
Dy145 C175 2.738 . S
C146 O158 1.254 . S
C146 O159 1.257 . S
O147 Dy144 2.307 . S
O147 C157 1.266 . S
O148 Dy145 2.298 . S
O148 C157 1.236 . S
O149 Dy144 2.395 1_565 S
O149 C166 1.255 1_554 S
O150 Dy144 2.379 1_556 S
O150 C166 1.249 1_545 S
O151 Dy145 2.275 . S
O151 C167 1.254 . S
O152 Dy144 2.339 1_556 S
O152 C167 1.257 1_556 S
O153 Dy145 2.307 1_565 S
O153 C168 1.266 . S
O154 Dy144 2.299 1_566 S
O154 C168 1.237 1_556 S
O155 Dy145 2.395 . S
O155 C175 1.255 . S
O156 Dy145 2.379 . S
O156 C175 1.249 . S
C157 O147 1.266 . S
C157 O148 1.236 . S
O158 Dy144 2.275 1_565 S
O158 C146 1.254 . S
O159 Dy145 2.339 1_565 S
O159 C146 1.257 . S
C160 C163 1.344 . S
C160 C164 1.328 . S
C160 C166 1.516 . S
C161 C162 1.304 . S
C161 C165 1.323 . S
C162 C161 1.304 . S
C162 C163 1.371 . S
C162 H176 0.930 . S
C163 C160 1.344 . S
C163 C162 1.371 . S
C163 H177 0.931 . S
C164 C160 1.328 . S
C164 C165 1.433 . S
C164 H178 0.931 . S
C165 C161 1.323 . S
C165 C164 1.433 . S
C165 H179 0.933 . S
C166 Dy144 2.738 1_566 S
C166 O149 1.255 1_556 S
C166 O150 1.249 1_565 S
C166 C160 1.516 . S
C167 O151 1.254 . S
C167 O152 1.257 1_554 S
C168 O153 1.266 . S
C168 O154 1.237 1_554 S
C169 C172 1.344 . S
C169 C173 1.328 . S
C169 C175 1.516 . S
C170 C171 1.304 . S
C170 C174 1.323 . S
C171 C170 1.304 . S
C171 C172 1.371 . S
C171 H180 0.930 . S
C172 C169 1.344 . S
C172 C171 1.371 . S
C172 H181 0.931 . S
C173 C169 1.328 . S
C173 C174 1.433 . S
C173 H182 0.931 . S
C174 C170 1.323 . S
C174 C173 1.433 . S
C174 H183 0.933 . S
C175 Dy145 2.738 . S
C175 O155 1.255 . S
C175 O156 1.249 . S
C175 C169 1.516 . S
H176 C162 0.930 . S
H177 C163 0.931 . S
H178 C164 0.931 . S
H179 C165 0.933 . S
H180 C171 0.930 . S
H181 C172 0.931 . S
H182 C173 0.931 . S
H183 C174 0.933 . S
Dy184 O187 2.307 . S
Dy184 O189 2.395 . S
Dy184 O190 2.379 . S
Dy184 O192 2.339 . S
Dy184 O194 2.298 . S
Dy184 O198 2.275 . S
Dy184 C206 2.738 . S
Dy185 O188 2.298 . S
Dy185 O191 2.275 . S
Dy185 O193 2.307 . S
Dy185 O195 2.395 . S
Dy185 O196 2.379 . S
Dy185 O199 2.339 . S
Dy185 C215 2.738 . S
C186 O198 1.254 . S
C186 O199 1.257 . S
O187 Dy184 2.307 . S
O187 C197 1.266 . S
O188 Dy185 2.298 . S
O188 C197 1.236 . S
O189 Dy184 2.395 . S
O189 C206 1.255 . S
O190 Dy184 2.379 . S
O190 C206 1.249 . S
O191 Dy185 2.275 . S
O191 C207 1.254 . S
O192 Dy184 2.339 . S
O192 C207 1.257 . S
O193 Dy185 2.307 . S
O193 C208 1.266 . S
O194 Dy184 2.298 . S
O194 C208 1.236 . S
O195 Dy185 2.395 . S
O195 C215 1.255 . S
O196 Dy185 2.379 . S
O196 C215 1.249 . S
C197 O187 1.266 . S
C197 O188 1.236 . S
O198 Dy184 2.275 . S
O198 C186 1.254 . S
O199 Dy185 2.339 . S
O199 C186 1.257 . S
C200 C203 1.344 . S
C200 C204 1.328 . S
C200 C206 1.516 . S
C201 C202 1.304 . S
C201 C205 1.323 . S
C202 C201 1.304 . S
C202 C203 1.371 . S
C202 H216 0.930 . S
C203 C200 1.344 . S
C203 C202 1.371 . S
C203 H217 0.931 . S
C204 C200 1.328 . S
C204 C205 1.433 . S
C204 H218 0.931 . S
C205 C201 1.323 . S
C205 C204 1.433 . S
C205 H219 0.933 . S
C206 Dy184 2.738 . S
C206 O189 1.255 . S
C206 O190 1.249 . S
C206 C200 1.516 . S
C207 O191 1.254 . S
C207 O192 1.257 . S
C208 O193 1.266 . S
C208 O194 1.236 . S
C209 C212 1.344 . S
C209 C213 1.328 . S
C209 C215 1.516 . S
C210 C211 1.304 . S
C210 C214 1.323 . S
C211 C210 1.304 . S
C211 C212 1.371 . S
C211 H220 0.930 . S
C212 C209 1.344 . S
C212 C211 1.371 . S
C212 H221 0.931 . S
C213 C209 1.328 . S
C213 C214 1.433 . S
C213 H222 0.931 . S
C214 C210 1.323 . S
C214 C213 1.433 . S
C214 H223 0.933 . S
C215 Dy185 2.738 . S
C215 O195 1.255 . S
C215 O196 1.249 . S
C215 C209 1.516 . S
H216 C202 0.930 . S
H217 C203 0.931 . S
H218 C204 0.931 . S
H219 C205 0.933 . S
H220 C211 0.930 . S
H221 C212 0.931 . S
H222 C213 0.931 . S
H223 C214 0.933 . S
Dy224 O227 2.329 1_556 S
Dy224 O229 2.372 1_455 S
Dy224 O230 2.366 1_455 S
Dy224 O232 2.353 . S
Dy224 O234 2.284 1_455 S
Dy224 O238 2.271 1_456 S
Dy224 C246 2.718 1_455 S
Dy225 O228 2.298 . S
Dy225 O231 2.275 1_554 S
Dy225 O233 2.307 1_455 S
Dy225 O235 2.395 . S
Dy225 O236 2.379 . S
Dy225 O239 2.339 1_455 S
Dy225 C255 2.738 . S
C226 O238 1.254 . S
C226 O239 1.257 . S
O227 Dy224 2.329 1_554 S
O227 C237 1.266 . S
O228 Dy225 2.298 . S
O228 C237 1.236 . S
O229 Dy224 2.372 1_655 S
O229 C246 1.255 . S
O230 Dy224 2.366 1_655 S
O230 C246 1.249 . S
O231 Dy225 2.275 1_556 S
O231 C247 1.254 . S
O232 Dy224 2.353 . S
O232 C247 1.257 . S
O233 Dy225 2.307 1_655 S
O233 C248 1.266 1_554 S
O234 Dy224 2.284 1_655 S
O234 C248 1.236 . S
O235 Dy225 2.395 . S
O235 C255 1.255 . S
O236 Dy225 2.379 . S
O236 C255 1.249 . S
C237 O227 1.266 . S
C237 O228 1.236 . S
O238 Dy224 2.271 1_654 S
O238 C226 1.254 . S
O239 Dy225 2.339 1_655 S
O239 C226 1.257 . S
C240 C243 1.344 . S
C240 C244 1.328 . S
C240 C246 1.516 . S
C241 C242 1.304 . S
C241 C245 1.323 . S
C242 C241 1.304 . S
C242 C243 1.371 . S
C242 H256 0.930 . S
C243 C240 1.344 . S
C243 C242 1.371 . S
C243 H257 0.931 . S
C244 C240 1.328 . S
C244 C245 1.433 . S
C244 H258 0.931 . S
C245 C241 1.323 . S
C245 C244 1.433 . S
C245 H259 0.933 . S
C246 Dy224 2.718 1_655 S
C246 O229 1.255 . S
C246 O230 1.249 . S
C246 C240 1.516 . S
C247 O231 1.254 . S
C247 O232 1.257 . S
C248 O233 1.266 1_556 S
C248 O234 1.236 . S
C249 C252 1.344 . S
C249 C253 1.328 . S
C249 C255 1.516 . S
C250 C251 1.304 . S
C250 C254 1.323 . S
C251 C250 1.304 . S
C251 C252 1.371 . S
C251 H260 0.930 . S
C252 C249 1.344 . S
C252 C251 1.371 . S
C252 H261 0.931 . S
C253 C249 1.328 . S
C253 C254 1.433 . S
C253 H262 0.931 . S
C254 C250 1.323 . S
C254 C253 1.433 . S
C254 H263 0.933 . S
C255 Dy225 2.738 . S
C255 O235 1.255 . S
C255 O236 1.249 . S
C255 C249 1.516 . S
H256 C242 0.930 . S
H257 C243 0.931 . S
H258 C244 0.931 . S
H259 C245 0.933 . S
H260 C251 0.930 . S
H261 C252 0.931 . S
H262 C253 0.931 . S
H263 C254 0.933 . S
H264 C270 0.930 . S
H265 C273 0.930 . S
H266 C274 0.930 . S
H267 C275 0.930 . S
H268 C278 0.930 . S
H269 C279 0.930 . S
C270 H264 0.930 . S
C270 C271 1.355 . S
C270 C272 1.415 . S
C271 C270 1.355 . S
C271 C273 1.419 . S
C272 C270 1.415 . S
C272 C277 1.425 . S
C272 C279 1.409 . S
C273 H265 0.930 . S
C273 C271 1.419 . S
C273 C274 1.362 . S
C274 H266 0.930 . S
C274 C273 1.362 . S
C274 C277 1.409 . S
C275 H267 0.930 . S
C275 C276 1.355 . S
C275 C277 1.415 . S
C276 C275 1.355 . S
C276 C278 1.419 . S
C277 C272 1.425 . S
C277 C274 1.409 . S
C277 C275 1.415 . S
C278 H268 0.930 . S
C278 C276 1.419 . S
C278 C279 1.362 . S
C279 H269 0.930 . S
C279 C272 1.409 . S
C279 C278 1.362 . S
H280 C286 0.930 . S
H281 C289 0.930 . S
H282 C290 0.930 . S
H283 C291 0.930 . S
H284 C294 0.930 . S
H285 C295 0.930 . S
C286 H280 0.930 . S
C286 C287 1.355 . S
C286 C288 1.415 . S
C287 C286 1.355 . S
C287 C289 1.419 . S
C288 C286 1.415 . S
C288 C293 1.425 . S
C288 C295 1.409 . S
C289 H281 0.930 . S
C289 C287 1.419 . S
C289 C290 1.362 . S
C290 H282 0.930 . S
C290 C289 1.362 . S
C290 C293 1.409 . S
C291 H283 0.930 . S
C291 C292 1.355 . S
C291 C293 1.415 . S
C292 C291 1.355 . S
C292 C294 1.419 . S
C293 C288 1.425 . S
C293 C290 1.409 . S
C293 C291 1.415 . S
C294 H284 0.930 . S
C294 C292 1.419 . S
C294 C295 1.362 . S
C295 H285 0.930 . S
C295 C288 1.409 . S
C295 C294 1.362 . S
H296 C302 0.930 . S
H297 C305 0.930 . S
H298 C306 0.930 . S
H299 C307 0.930 . S
H300 C310 0.930 . S
H301 C311 0.930 . S
C302 H296 0.930 . S
C302 C303 1.355 . S
C302 C304 1.415 . S
C303 C302 1.355 . S
C303 C305 1.419 . S
C304 C302 1.415 . S
C304 C309 1.425 . S
C304 C311 1.409 . S
C305 H297 0.930 . S
C305 C303 1.419 . S
C305 C306 1.362 . S
C306 H298 0.930 . S
C306 C305 1.362 . S
C306 C309 1.409 . S
C307 H299 0.930 . S
C307 C308 1.355 . S
C307 C309 1.415 . S
C308 C307 1.355 . S
C308 C310 1.419 . S
C309 C304 1.425 . S
C309 C306 1.409 . S
C309 C307 1.415 . S
C310 H300 0.930 . S
C310 C308 1.419 . S
C310 C311 1.362 . S
C311 H301 0.930 . S
C311 C304 1.409 . S
C311 C310 1.362 . S
H312 C318 0.930 . S
H313 C321 0.930 . S
H314 C322 0.930 . S
H315 C323 0.930 . S
H316 C326 0.930 1_455 S
H317 C327 0.930 . S
C318 H312 0.930 . S
C318 C319 1.355 . S
C318 C320 1.415 . S
C319 C318 1.355 . S
C319 C321 1.419 . S
C320 C318 1.415 . S
C320 C325 1.425 . S
C320 C327 1.409 . S
C321 H313 0.930 . S
C321 C319 1.419 . S
C321 C322 1.362 . S
C322 H314 0.930 . S
C322 C321 1.362 . S
C322 C325 1.409 . S
C323 H315 0.930 . S
C323 C324 1.355 . S
C323 C325 1.415 . S
C324 C323 1.355 . S
C324 C326 1.419 . S
C325 C320 1.425 . S
C325 C322 1.409 . S
C325 C323 1.415 . S
C326 H316 0.930 1_655 S
C326 C324 1.419 . S
C326 C327 1.362 . S
C327 H317 0.930 . S
C327 C320 1.409 . S
C327 C326 1.362 . S
H328 C334 0.930 . S
H329 C337 0.930 . S
H330 C338 0.930 . S
H331 C339 0.930 . S
H332 C342 0.930 . S
H333 C343 0.930 . S
C334 H328 0.930 . S
C334 C335 1.355 . S
C334 C336 1.415 . S
C335 C334 1.355 . S
C335 C337 1.419 . S
C336 C334 1.415 . S
C336 C341 1.425 . S
C336 C343 1.409 . S
C337 H329 0.930 . S
C337 C335 1.419 . S
C337 C338 1.362 . S
C338 H330 0.930 . S
C338 C337 1.362 . S
C338 C341 1.409 . S
C339 H331 0.930 . S
C339 C340 1.355 . S
C339 C341 1.415 . S
C340 C339 1.355 . S
C340 C342 1.419 . S
C341 C336 1.425 . S
C341 C338 1.409 . S
C341 C339 1.415 . S
C342 H332 0.930 . S
C342 C340 1.419 . S
C342 C343 1.362 . S
C343 H333 0.930 . S
C343 C336 1.409 . S
C343 C342 1.362 . S
H344 C350 0.930 . S
H345 C353 0.930 . S
H346 C354 0.930 . S
H347 C355 0.930 . S
H348 C358 0.930 . S
H349 C359 0.930 . S
C350 H344 0.930 . S
C350 C351 1.355 . S
C350 C352 1.415 . S
C351 C350 1.355 . S
C351 C353 1.419 . S
C352 C350 1.415 . S
C352 C357 1.425 . S
C352 C359 1.409 . S
C353 H345 0.930 . S
C353 C351 1.419 . S
C353 C354 1.362 . S
C354 H346 0.930 . S
C354 C353 1.362 . S
C354 C357 1.409 . S
C355 H347 0.930 . S
C355 C356 1.355 . S
C355 C357 1.415 . S
C356 C355 1.355 . S
C356 C358 1.419 . S
C357 C352 1.425 . S
C357 C354 1.409 . S
C357 C355 1.415 . S
C358 H348 0.930 . S
C358 C356 1.419 . S
C358 C359 1.362 . S
C359 H349 0.930 . S
C359 C352 1.409 . S
C359 C358 1.362 . S
H360 C366 0.930 . S
H361 C369 0.930 . S
H362 C370 0.930 . S
H363 C371 0.930 . S
H364 C374 0.930 . S
H365 C375 0.930 . S
C366 H360 0.930 . S
C366 C367 1.355 . S
C366 C368 1.415 . S
C367 C366 1.355 . S
C367 C369 1.419 . S
C368 C366 1.415 . S
C368 C373 1.425 . S
C368 C375 1.409 . S
C369 H361 0.930 . S
C369 C367 1.419 . S
C369 C370 1.362 . S
C370 H362 0.930 . S
C370 C369 1.362 . S
C370 C373 1.409 . S
C371 H363 0.930 . S
C371 C372 1.355 . S
C371 C373 1.415 . S
C372 C371 1.355 . S
C372 C374 1.419 . S
C373 C368 1.425 . S
C373 C370 1.409 . S
C373 C371 1.415 . S
C374 H364 0.930 . S
C374 C372 1.419 . S
C374 C375 1.362 . S
C375 H365 0.930 . S
C375 C368 1.409 . S
C375 C374 1.362 . S
H376 C382 0.930 . S
H377 C385 0.930 . S
H378 C386 0.930 . S
H379 C387 0.930 . S
H380 C390 0.930 . S
H381 C391 0.930 . S
C382 H376 0.930 . S
C382 C383 1.355 . S
C382 C384 1.415 . S
C383 C382 1.355 . S
C383 C385 1.419 . S
C384 C382 1.415 . S
C384 C389 1.425 . S
C384 C391 1.409 . S
C385 H377 0.930 . S
C385 C383 1.419 . S
C385 C386 1.362 . S
C386 H378 0.930 . S
C386 C385 1.362 . S
C386 C389 1.409 . S
C387 H379 0.930 . S
C387 C388 1.355 . S
C387 C389 1.415 . S
C388 C387 1.355 . S
C388 C390 1.419 . S
C389 C384 1.425 . S
C389 C386 1.409 . S
C389 C387 1.415 . S
C390 H380 0.930 . S
C390 C388 1.419 . S
C390 C391 1.362 . S
C391 H381 0.930 . S
C391 C384 1.409 . S
C391 C390 1.362 . S
H392 C398 0.930 . S
H393 C401 0.930 . S
H394 C402 0.930 . S
H395 C403 0.930 . S
H396 C406 0.930 . S
H397 C407 0.930 . S
C398 H392 0.930 . S
C398 C399 1.355 . S
C398 C400 1.415 . S
C399 C398 1.355 . S
C399 C401 1.419 . S
C400 C398 1.415 . S
C400 C405 1.425 . S
C400 C407 1.409 . S
C401 H393 0.930 . S
C401 C399 1.419 . S
C401 C402 1.362 . S
C402 H394 0.930 . S
C402 C401 1.362 . S
C402 C405 1.409 . S
C403 H395 0.930 . S
C403 C404 1.355 . S
C403 C405 1.415 . S
C404 C403 1.355 . S
C404 C406 1.419 . S
C405 C400 1.425 . S
C405 C402 1.409 . S
C405 C403 1.415 . S
C406 H396 0.930 . S
C406 C404 1.419 . S
C406 C407 1.362 . S
C407 H397 0.930 . S
C407 C400 1.409 . S
C407 C406 1.362 . S
H408 C414 0.930 . S
H409 C417 0.930 . S
H410 C418 0.930 1_554 S
H411 C419 0.930 1_554 S
H412 C422 0.930 . S
H413 C423 0.930 . S
C414 H408 0.930 . S
C414 C415 1.355 . S
C414 C416 1.415 . S
C415 C414 1.355 . S
C415 C417 1.419 . S
C416 C414 1.415 . S
C416 C421 1.425 . S
C416 C423 1.409 . S
C417 H409 0.930 . S
C417 C415 1.419 . S
C417 C418 1.362 . S
C418 H410 0.930 1_556 S
C418 C417 1.362 . S
C418 C421 1.409 . S
C419 H411 0.930 1_556 S
C419 C420 1.355 . S
C419 C421 1.415 . S
C420 C419 1.355 . S
C420 C422 1.419 . S
C421 C416 1.425 . S
C421 C418 1.409 . S
C421 C419 1.415 . S
C422 H412 0.930 . S
C422 C420 1.419 . S
C422 C423 1.362 . S
C423 H413 0.930 . S
C423 C416 1.409 . S
C423 C422 1.362 . S
H424 C430 0.930 . S
H425 C433 0.930 . S
H426 C434 0.930 1_455 S
H427 C435 0.930 1_455 S
H428 C438 0.930 . S
H429 C439 0.930 . S
C430 H424 0.930 . S
C430 C431 1.355 . S
C430 C432 1.415 . S
C431 C430 1.355 . S
C431 C433 1.419 . S
C432 C430 1.415 . S
C432 C437 1.425 . S
C432 C439 1.409 . S
C433 H425 0.930 . S
C433 C431 1.419 . S
C433 C434 1.362 . S
C434 H426 0.930 1_655 S
C434 C433 1.362 . S
C434 C437 1.409 . S
C435 H427 0.930 1_655 S
C435 C436 1.355 . S
C435 C437 1.415 . S
C436 C435 1.355 . S
C436 C438 1.419 . S
C437 C432 1.425 . S
C437 C434 1.409 . S
C437 C435 1.415 . S
C438 H428 0.930 . S
C438 C436 1.419 . S
C438 C439 1.362 . S
C439 H429 0.930 . S
C439 C432 1.409 . S
C439 C438 1.362 . S
H440 C446 0.930 . S
H441 C449 0.930 . S
H442 C450 0.930 . S
H443 C451 0.930 . S
H444 C454 0.930 . S
H445 C455 0.930 . S
C446 H440 0.930 . S
C446 C447 1.355 . S
C446 C448 1.415 . S
C447 C446 1.355 . S
C447 C449 1.419 . S
C448 C446 1.415 . S
C448 C453 1.425 . S
C448 C455 1.409 . S
C449 H441 0.930 . S
C449 C447 1.419 . S
C449 C450 1.362 . S
C450 H442 0.930 . S
C450 C449 1.362 . S
C450 C453 1.409 . S
C451 H443 0.930 . S
C451 C452 1.355 . S
C451 C453 1.415 . S
C452 C451 1.355 . S
C452 C454 1.419 . S
C453 C448 1.425 . S
C453 C450 1.409 . S
C453 C451 1.415 . S
C454 H444 0.930 . S
C454 C452 1.419 . S
C454 C455 1.362 . S
C455 H445 0.930 . S
C455 C448 1.409 . S
C455 C454 1.362 . S
H456 C462 0.930 . S
H457 C465 0.930 . S
H458 C466 0.930 . S
H459 C467 0.930 . S
H460 C470 0.930 . S
H461 C471 0.930 . S
C462 H456 0.930 . S
C462 C463 1.355 . S
C462 C464 1.415 . S
C463 C462 1.355 . S
C463 C465 1.419 . S
C464 C462 1.415 . S
C464 C469 1.425 . S
C464 C471 1.409 . S
C465 H457 0.930 . S
C465 C463 1.419 . S
C465 C466 1.362 . S
C466 H458 0.930 . S
C466 C465 1.362 . S
C466 C469 1.409 . S
C467 H459 0.930 . S
C467 C468 1.355 . S
C467 C469 1.415 . S
C468 C467 1.355 . S
C468 C470 1.419 . S
C469 C464 1.425 . S
C469 C466 1.409 . S
C469 C467 1.415 . S
C470 H460 0.930 . S
C470 C468 1.419 . S
C470 C471 1.362 . S
C471 H461 0.930 . S
C471 C464 1.409 . S
C471 C470 1.362 . S
H472 C478 0.930 . S
H473 C481 0.930 . S
H474 C482 0.930 . S
H475 C483 0.930 . S
H476 C486 0.930 . S
H477 C487 0.930 . S
C478 H472 0.930 . S
C478 C479 1.355 . S
C478 C480 1.415 . S
C479 C478 1.355 . S
C479 C481 1.419 . S
C480 C478 1.415 . S
C480 C485 1.425 . S
C480 C487 1.409 . S
C481 H473 0.930 . S
C481 C479 1.419 . S
C481 C482 1.362 . S
C482 H474 0.930 . S
C482 C481 1.362 . S
C482 C485 1.409 . S
C483 H475 0.930 . S
C483 C484 1.355 . S
C483 C485 1.415 . S
C484 C483 1.355 . S
C484 C486 1.419 . S
C485 C480 1.425 . S
C485 C482 1.409 . S
C485 C483 1.415 . S
C486 H476 0.930 . S
C486 C484 1.419 . S
C486 C487 1.362 . S
C487 H477 0.930 . S
C487 C480 1.409 . S
C487 C486 1.362 . S
H488 C494 0.930 . S
H489 C497 0.930 . S
H490 C498 0.930 . S
H491 C499 0.930 . S
H492 C502 0.930 . S
H493 C503 0.930 . S
C494 H488 0.930 . S
C494 C495 1.355 . S
C494 C496 1.415 . S
C495 C494 1.355 . S
C495 C497 1.419 . S
C496 C494 1.415 . S
C496 C501 1.425 . S
C496 C503 1.409 . S
C497 H489 0.930 . S
C497 C495 1.419 . S
C497 C498 1.362 . S
C498 H490 0.930 . S
C498 C497 1.362 . S
C498 C501 1.409 . S
C499 H491 0.930 . S
C499 C500 1.355 . S
C499 C501 1.415 . S
C500 C499 1.355 . S
C500 C502 1.419 . S
C501 C496 1.425 . S
C501 C498 1.409 . S
C501 C499 1.415 . S
C502 H492 0.930 . S
C502 C500 1.419 . S
C502 C503 1.362 . S
C503 H493 0.930 . S
C503 C496 1.409 . S
C503 C502 1.362 . S
H504 C510 0.930 . S
H505 C513 0.930 . S
H506 C514 0.930 . S
H507 C515 0.930 . S
H508 C518 0.930 . S
H509 C519 0.930 . S
C510 H504 0.930 . S
C510 C511 1.355 . S
C510 C512 1.415 . S
C511 C510 1.355 . S
C511 C513 1.419 . S
C512 C510 1.415 . S
C512 C517 1.425 . S
C512 C519 1.409 . S
C513 H505 0.930 . S
C513 C511 1.419 . S
C513 C514 1.362 . S
C514 H506 0.930 . S
C514 C513 1.362 . S
C514 C517 1.409 . S
C515 H507 0.930 . S
C515 C516 1.355 . S
C515 C517 1.415 . S
C516 C515 1.355 . S
C516 C518 1.419 . S
C517 C512 1.425 . S
C517 C514 1.409 . S
C517 C515 1.415 . S
C518 H508 0.930 . S
C518 C516 1.419 . S
C518 C519 1.362 . S
C519 H509 0.930 . S
C519 C512 1.409 . S
C519 C518 1.362 . S
H520 C526 0.930 . S
H521 C529 0.930 . S
H522 C530 0.930 . S
H523 C531 0.930 . S
H524 C534 0.930 . S
H525 C535 0.930 . S
C526 H520 0.930 . S
C526 C527 1.355 . S
C526 C528 1.415 . S
C527 C526 1.355 . S
C527 C529 1.419 . S
C528 C526 1.415 . S
C528 C533 1.425 . S
C528 C535 1.409 . S
C529 H521 0.930 . S
C529 C527 1.419 . S
C529 C530 1.362 . S
C530 H522 0.930 . S
C530 C529 1.362 . S
C530 C533 1.409 . S
C531 H523 0.930 . S
C531 C532 1.355 . S
C531 C533 1.415 . S
C532 C531 1.355 . S
C532 C534 1.419 . S
C533 C528 1.425 . S
C533 C530 1.409 . S
C533 C531 1.415 . S
C534 H524 0.930 . S
C534 C532 1.419 . S
C534 C535 1.362 . S
C535 H525 0.930 . S
C535 C528 1.409 . S
C535 C534 1.362 . S
H536 C542 0.930 . S
H537 C545 0.930 . S
H538 C546 0.930 . S
H539 C547 0.930 . S
H540 C550 0.930 1_455 S
H541 C551 0.930 . S
C542 H536 0.930 . S
C542 C543 1.355 . S
C542 C544 1.415 . S
C543 C542 1.355 . S
C543 C545 1.419 . S
C544 C542 1.415 . S
C544 C549 1.425 . S
C544 C551 1.409 . S
C545 H537 0.930 . S
C545 C543 1.419 . S
C545 C546 1.362 . S
C546 H538 0.930 . S
C546 C545 1.362 . S
C546 C549 1.409 . S
C547 H539 0.930 . S
C547 C548 1.355 . S
C547 C549 1.415 . S
C548 C547 1.355 . S
C548 C550 1.419 . S
C549 C544 1.425 . S
C549 C546 1.409 . S
C549 C547 1.415 . S
C550 H540 0.930 1_655 S
C550 C548 1.419 . S
C550 C551 1.362 . S
C551 H541 0.930 . S
C551 C544 1.409 . S
C551 C550 1.362 . S
H552 C558 0.930 . S
H553 C561 0.930 . S
H554 C562 0.930 . S
H555 C563 0.930 . S
H556 C566 0.930 . S
H557 C567 0.930 . S
C558 H552 0.930 . S
C558 C559 1.355 . S
C558 C560 1.415 . S
C559 C558 1.355 . S
C559 C561 1.419 . S
C560 C558 1.415 . S
C560 C565 1.425 . S
C560 C567 1.409 . S
C561 H553 0.930 . S
C561 C559 1.419 . S
C561 C562 1.362 . S
C562 H554 0.930 . S
C562 C561 1.362 . S
C562 C565 1.409 . S
C563 H555 0.930 . S
C563 C564 1.355 . S
C563 C565 1.415 . S
C564 C563 1.355 . S
C564 C566 1.419 . S
C565 C560 1.425 . S
C565 C562 1.409 . S
C565 C563 1.415 . S
C566 H556 0.930 . S
C566 C564 1.419 . S
C566 C567 1.362 . S
C567 H557 0.930 . S
C567 C560 1.409 . S
C567 C566 1.362 . S
H568 C574 0.930 . S
H569 C577 0.930 . S
H570 C578 0.930 . S
H571 C579 0.930 . S
H572 C582 0.930 . S
H573 C583 0.930 . S
C574 H568 0.930 . S
C574 C575 1.355 . S
C574 C576 1.415 . S
C575 C574 1.355 . S
C575 C577 1.419 . S
C576 C574 1.415 . S
C576 C581 1.425 . S
C576 C583 1.409 . S
C577 H569 0.930 . S
C577 C575 1.419 . S
C577 C578 1.362 . S
C578 H570 0.930 . S
C578 C577 1.362 . S
C578 C581 1.409 . S
C579 H571 0.930 . S
C579 C580 1.355 . S
C579 C581 1.415 . S
C580 C579 1.355 . S
C580 C582 1.419 . S
C581 C576 1.425 . S
C581 C578 1.409 . S
C581 C579 1.415 . S
C582 H572 0.930 . S
C582 C580 1.419 . S
C582 C583 1.362 . S
C583 H573 0.930 . S
C583 C576 1.409 . S
C583 C582 1.362 . S
H584 C590 0.930 . S
H585 C593 0.930 . S
H586 C594 0.930 . S
H587 C595 0.930 . S
H588 C598 0.930 . S
H589 C599 0.930 . S
C590 H584 0.930 . S
C590 C591 1.355 . S
C590 C592 1.415 . S
C591 C590 1.355 . S
C591 C593 1.419 . S
C592 C590 1.415 . S
C592 C597 1.425 . S
C592 C599 1.409 . S
C593 H585 0.930 . S
C593 C591 1.419 . S
C593 C594 1.362 . S
C594 H586 0.930 . S
C594 C593 1.362 . S
C594 C597 1.409 . S
C595 H587 0.930 . S
C595 C596 1.355 . S
C595 C597 1.415 . S
C596 C595 1.355 . S
C596 C598 1.419 . S
C597 C592 1.425 . S
C597 C594 1.409 . S
C597 C595 1.415 . S
C598 H588 0.930 . S
C598 C596 1.419 . S
C598 C599 1.362 . S
C599 H589 0.930 . S
C599 C592 1.409 . S
C599 C598 1.362 . S
H600 C606 0.930 . S
H601 C609 0.930 . S
H602 C610 0.930 . S
H603 C611 0.930 . S
H604 C614 0.930 . S
H605 C615 0.930 . S
C606 H600 0.930 . S
C606 C607 1.355 . S
C606 C608 1.415 . S
C607 C606 1.355 . S
C607 C609 1.419 . S
C608 C606 1.415 . S
C608 C613 1.425 . S
C608 C615 1.409 . S
C609 H601 0.930 . S
C609 C607 1.419 . S
C609 C610 1.362 . S
C610 H602 0.930 . S
C610 C609 1.362 . S
C610 C613 1.409 . S
C611 H603 0.930 . S
C611 C612 1.355 . S
C611 C613 1.415 . S
C612 C611 1.355 . S
C612 C614 1.419 . S
C613 C608 1.425 . S
C613 C610 1.409 . S
C613 C611 1.415 . S
C614 H604 0.930 . S
C614 C612 1.419 . S
C614 C615 1.362 . S
C615 H605 0.930 . S
C615 C608 1.409 . S
C615 C614 1.362 . S
H616 C622 0.930 . S
H617 C625 0.930 . S
H618 C626 0.930 . S
H619 C627 0.930 . S
H620 C630 0.930 . S
H621 C631 0.930 . S
C622 H616 0.930 . S
C622 C623 1.355 . S
C622 C624 1.415 . S
C623 C622 1.355 . S
C623 C625 1.419 . S
C624 C622 1.415 . S
C624 C629 1.425 . S
C624 C631 1.409 . S
C625 H617 0.930 . S
C625 C623 1.419 . S
C625 C626 1.362 . S
C626 H618 0.930 . S
C626 C625 1.362 . S
C626 C629 1.409 . S
C627 H619 0.930 . S
C627 C628 1.355 . S
C627 C629 1.415 . S
C628 C627 1.355 . S
C628 C630 1.419 . S
C629 C624 1.425 . S
C629 C626 1.409 . S
C629 C627 1.415 . S
C630 H620 0.930 . S
C630 C628 1.419 . S
C630 C631 1.362 . S
C631 H621 0.930 . S
C631 C624 1.409 . S
C631 C630 1.362 . S
H632 C638 0.930 . S
H633 C641 0.930 . S
H634 C642 0.930 . S
H635 C643 0.930 . S
H636 C646 0.930 . S
H637 C647 0.930 . S
C638 H632 0.930 . S
C638 C639 1.355 . S
C638 C640 1.415 . S
C639 C638 1.355 . S
C639 C641 1.419 . S
C640 C638 1.415 . S
C640 C645 1.425 . S
C640 C647 1.409 . S
C641 H633 0.930 . S
C641 C639 1.419 . S
C641 C642 1.362 . S
C642 H634 0.930 . S
C642 C641 1.362 . S
C642 C645 1.409 . S
C643 H635 0.930 . S
C643 C644 1.355 . S
C643 C645 1.415 . S
C644 C643 1.355 . S
C644 C646 1.419 . S
C645 C640 1.425 . S
C645 C642 1.409 . S
C645 C643 1.415 . S
C646 H636 0.930 . S
C646 C644 1.419 . S
C646 C647 1.362 . S
C647 H637 0.930 . S
C647 C640 1.409 . S
C647 C646 1.362 . S
C271 N1 0.967 . S
C276 C121 0.927 . S
C287 N18 1.115 . S
C292 C161 1.113 . S
C308 C186 2.059 . S
C303 N28 2.109 . S
C319 N40 2.682 . S
C324 C226 2.669 . S
C340 C157 1.836 . S
C335 N5 1.813 . S
C356 C117 1.450 . S
C351 N14 1.322 . S
C372 C248 1.845 . S
C367 N31 1.833 . S
C388 C208 1.581 . S
C383 N41 1.592 . S
C399 N2 1.105 . S
C404 C250 1.143 . S
C420 C167 2.349 1_556 S
C415 N27 2.403 . S
C431 N44 2.369 . S
C436 C127 2.410 1_655 S
C447 N15 1.092 . S
C452 C210 1.115 . S
C468 C130 1.410 . S
C463 N57 1.395 . S
C479 N70 0.830 . S
C484 C170 0.939 . S
C495 N79 2.313 . S
C500 C207 2.347 . S
C511 N93 2.464 . S
C516 C247 2.440 . S
C527 N54 1.445 . S
C532 C168 1.567 1_556 S
C548 C128 2.043 1_655 S
C543 N66 2.034 . S
C564 C237 1.343 . S
C559 N80 1.405 . S
C580 C197 1.730 . S
C575 N96 1.797 . S
C591 N53 1.356 . S
C596 C241 1.388 . S
C612 C146 1.937 . S
C607 N83 1.875 . S
C628 C106 2.419 . S
C623 N92 2.484 . S
C639 N67 1.265 . S
C644 C201 1.286 . S
