# Generated by pormake.
# Topology apo, (3,6)-cn, num edge types: 1
# Building blocks:
#     Node 0, Type 0, BuildingBlock: BETDAH_clean_linker_0, # of connection points: 3
#     Node 1, Type 0, BuildingBlock: BETDAH_clean_linker_0, # of connection points: 3
#     Node 2, Type 0, BuildingBlock: BETDAH_clean_linker_0, # of connection points: 3
#     Node 3, Type 0, BuildingBlock: BETDAH_clean_linker_0, # of connection points: 3
#     Node 4, Type 0, BuildingBlock: BETDAH_clean_linker_0, # of connection points: 3
#     Node 5, Type 0, BuildingBlock: BETDAH_clean_linker_0, # of connection points: 3
#     Node 6, Type 0, BuildingBlock: BETDAH_clean_linker_0, # of connection points: 3
#     Node 7, Type 0, BuildingBlock: BETDAH_clean_linker_0, # of connection points: 3
#     Node 8, Type 1, BuildingBlock: KUMBOL_clean_sbu_1, # of connection points: 6
#     Node 9, Type 1, BuildingBlock: KUMBOL_clean_sbu_1, # of connection points: 6
#     Node 10, Type 1, BuildingBlock: KUMBOL_clean_sbu_1, # of connection points: 6
#     Node 11, Type 1, BuildingBlock: KUMBOL_clean_sbu_1, # of connection points: 6
#     Edge 12, Type (0, 1), BuildingBlock: KIFKEQ_clean_linker_1, # of connection points: 2
#     Edge 13, Type (0, 1), BuildingBlock: KIFKEQ_clean_linker_1, # of connection points: 2
#     Edge 14, Type (0, 1), BuildingBlock: KIFKEQ_clean_linker_1, # of connection points: 2
#     Edge 15, Type (0, 1), BuildingBlock: KIFKEQ_clean_linker_1, # of connection points: 2
#     Edge 16, Type (0, 1), BuildingBlock: KIFKEQ_clean_linker_1, # of connection points: 2
#     Edge 17, Type (0, 1), BuildingBlock: KIFKEQ_clean_linker_1, # of connection points: 2
#     Edge 18, Type (0, 1), BuildingBlock: KIFKEQ_clean_linker_1, # of connection points: 2
#     Edge 19, Type (0, 1), BuildingBlock: KIFKEQ_clean_linker_1, # of connection points: 2
#     Edge 20, Type (0, 1), BuildingBlock: KIFKEQ_clean_linker_1, # of connection points: 2
#     Edge 21, Type (0, 1), BuildingBlock: KIFKEQ_clean_linker_1, # of connection points: 2
#     Edge 22, Type (0, 1), BuildingBlock: KIFKEQ_clean_linker_1, # of connection points: 2
#     Edge 23, Type (0, 1), BuildingBlock: KIFKEQ_clean_linker_1, # of connection points: 2
#     Edge 24, Type (0, 1), BuildingBlock: KIFKEQ_clean_linker_1, # of connection points: 2
#     Edge 25, Type (0, 1), BuildingBlock: KIFKEQ_clean_linker_1, # of connection points: 2
#     Edge 26, Type (0, 1), BuildingBlock: KIFKEQ_clean_linker_1, # of connection points: 2
#     Edge 27, Type (0, 1), BuildingBlock: KIFKEQ_clean_linker_1, # of connection points: 2
#     Edge 28, Type (0, 1), BuildingBlock: KIFKEQ_clean_linker_1, # of connection points: 2
#     Edge 29, Type (0, 1), BuildingBlock: KIFKEQ_clean_linker_1, # of connection points: 2
#     Edge 30, Type (0, 1), BuildingBlock: KIFKEQ_clean_linker_1, # of connection points: 2
#     Edge 31, Type (0, 1), BuildingBlock: KIFKEQ_clean_linker_1, # of connection points: 2
#     Edge 32, Type (0, 1), BuildingBlock: KIFKEQ_clean_linker_1, # of connection points: 2
#     Edge 33, Type (0, 1), BuildingBlock: KIFKEQ_clean_linker_1, # of connection points: 2
#     Edge 34, Type (0, 1), BuildingBlock: KIFKEQ_clean_linker_1, # of connection points: 2
#     Edge 35, Type (0, 1), BuildingBlock: KIFKEQ_clean_linker_1, # of connection points: 2
# Relax obj value: 0.037
# Max RMSD: 0.220
# Mean RMSD: 0.155
data_MOF--net-apo--node1-KUMBOL_clean_sbu_1--node2-BETDAH_clean_linker_0--edge1-KIFKEQ_clean_linker_1
_symmetry_space_group_name_H-M    P1
_symmetry_Int_Tables_number       1
_symmetry_cell_setting            triclinic
loop_
_symmetry_equiv_pos_as_xyz
'x, y, z'
_cell_length_a     27.988196
_cell_length_b     42.606614
_cell_length_c     52.438892
_cell_angle_alpha  89.621868
_cell_angle_beta   89.844596
_cell_angle_gamma 90.460548
loop_
_atom_site_label
_atom_site_type_symbol
_atom_site_fract_x
_atom_site_fract_y
_atom_site_fract_z
_atom_type_partial_charge
H0 H 0.36392 0.43182 0.42487 0.0
H1 H 0.2753 0.37963 0.37282 0.0
H2 H 0.27697 0.35537 0.45263 0.0
C3 C 0.33905 0.41271 0.42129 0.0
C4 C 0.32337 0.39376 0.44161 0.0
C5 C 0.32158 0.40797 0.3965 0.0
C6 C 0.28922 0.38316 0.39185 0.0
C7 C 0.27298 0.36421 0.41231 0.0
C8 C 0.28984 0.36992 0.43697 0.0
N9 N 0.23787 0.34028 0.4095 0.0
C10 C 0.22521 0.32536 0.387 0.0
H11 H 0.14244 0.08998 0.92397 0.0
H12 H 0.23917 0.1329 0.86946 0.0
H13 H 0.25392 0.15158 0.94949 0.0
C14 C 0.17156 0.106 0.91945 0.0
C15 C 0.19497 0.1212 0.93951 0.0
C16 C 0.18712 0.10967 0.89402 0.0
C17 C 0.22645 0.12975 0.88884 0.0
C18 C 0.25053 0.14481 0.90897 0.0
C19 C 0.235 0.14006 0.93411 0.0
N20 N 0.29247 0.16317 0.90507 0.0
C21 C 0.30173 0.18228 0.88401 0.0
H22 H 0.87759 0.09885 0.59556 0.0
H23 H 0.78739 0.14495 0.65062 0.0
H24 H 0.78435 0.17283 0.57181 0.0
C25 C 0.85158 0.1166 0.60032 0.0
C26 C 0.83413 0.13607 0.58086 0.0
C27 C 0.83529 0.11958 0.62567 0.0
C28 C 0.80063 0.14248 0.63131 0.0
C29 C 0.78241 0.1617 0.61172 0.0
C30 C 0.79925 0.15826 0.58679 0.0
N31 N 0.74529 0.18363 0.61569 0.0
C32 C 0.73387 0.19818 0.63853 0.0
H33 H 0.64755 0.4225 0.09796 0.0
H34 H 0.743 0.37918 0.15204 0.0
H35 H 0.74898 0.35378 0.07325 0.0
C36 C 0.6752 0.40569 0.10235 0.0
C37 C 0.69515 0.38808 0.08246 0.0
C38 C 0.69195 0.40275 0.12763 0.0
C39 C 0.72942 0.38171 0.13282 0.0
C40 C 0.75021 0.36453 0.11293 0.0
C41 C 0.73303 0.36783 0.08811 0.0
N42 N 0.79021 0.34489 0.1167 0.0
C43 C 0.79932 0.32747 0.13858 0.0
H44 H 0.6569 0.58731 0.58988 0.0
H45 H 0.72869 0.64033 0.64842 0.0
H46 H 0.74237 0.66818 0.56997 0.0
C47 C 0.67983 0.60671 0.59539 0.0
C48 C 0.69734 0.62751 0.5766 0.0
C49 C 0.69107 0.61095 0.62136 0.0
C50 C 0.7194 0.63698 0.62858 0.0
C51 C 0.73772 0.65762 0.60982 0.0
C52 C 0.72685 0.65252 0.58417 0.0
N53 N 0.76927 0.68292 0.61534 0.0
C54 C 0.77722 0.69678 0.6389 0.0
H55 H 0.86135 0.93245 0.09402 0.0
H56 H 0.76152 0.86233 0.0686 0.0
H57 H 0.7749 0.88145 0.1487 0.0
C58 C 0.83475 0.91453 0.09829 0.0
C59 C 0.82109 0.90894 0.1238 0.0
C60 C 0.81376 0.8978 0.0782 0.0
C61 C 0.77886 0.875 0.08391 0.0
C62 C 0.765 0.86871 0.10914 0.0
C63 C 0.78607 0.88578 0.12918 0.0
N64 N 0.72792 0.84623 0.11311 0.0
C65 C 0.71846 0.82962 0.13552 0.0
H66 H 0.15159 0.92539 0.42257 0.0
H67 H 0.21234 0.86531 0.36571 0.0
H68 H 0.20299 0.83364 0.44334 0.0
C69 C 0.16883 0.90354 0.41775 0.0
C70 C 0.17584 0.88047 0.43665 0.0
C71 C 0.18245 0.89849 0.39229 0.0
C72 C 0.2025 0.86957 0.38538 0.0
C73 C 0.20915 0.84612 0.40399 0.0
C74 C 0.19609 0.85179 0.42931 0.0
N75 N 0.22727 0.81601 0.39815 0.0
C76 C 0.25645 0.80873 0.37757 0.0
H77 H 0.36496 0.59891 0.92284 0.0
H78 H 0.25201 0.66027 0.9462 0.0
H79 H 0.25701 0.62826 0.8692 0.0
C80 C 0.33404 0.61288 0.91814 0.0
C81 C 0.31469 0.61166 0.8933 0.0
C82 C 0.31227 0.63062 0.93743 0.0
C83 C 0.26997 0.64668 0.93172 0.0
C84 C 0.25029 0.64583 0.9073 0.0
C85 C 0.27297 0.62886 0.88798 0.0
N86 N 0.2047 0.65915 0.90356 0.0
C87 C 0.1948 0.68162 0.88508 0.0
C88 C 0.87037 0.07242 0.26859 0.0
C89 C 0.88394 0.01938 0.28394 0.0
C90 C 0.89907 0.05093 0.28139 0.0
C91 C 0.84082 0.0096 0.27274 0.0
C92 C 0.82659 0.06281 0.2578 0.0
C93 C 0.8122 0.03124 0.25977 0.0
N94 N 0.88604 0.1026 0.26603 0.0
C95 C 0.85872 0.12469 0.25417 0.0
C96 C 0.79884 0.08517 0.24508 0.0
C97 C 0.81486 0.11627 0.24339 0.0
Gd98 Gd 0.06501 0.11721 0.2332 0.0
Gd99 Gd 0.95904 0.11452 0.28552 0.0
N100 N 0.94094 0.06098 0.2919 0.0
C101 C 0.91198 0.99875 0.29824 0.0
C102 C 0.96565 0.04167 0.3079 0.0
C103 C 0.9525 0.01011 0.3107 0.0
H104 H 0.99444 0.05065 0.31933 0.0
H105 H 0.97301 0.99477 0.32294 0.0
H106 H 0.04487 0.19446 0.22343 0.0
H107 H 0.87082 0.14878 0.25311 0.0
H108 H 0.08979 0.24418 0.22521 0.0
H109 H 0.9016 0.97435 0.30065 0.0
H110 H 0.82891 0.9854 0.27435 0.0
H111 H 0.14381 0.06052 0.24587 0.0
H112 H 0.76499 0.07869 0.23655 0.0
H113 H 0.79344 0.13375 0.2338 0.0
H114 H 0.24935 0.21337 0.2465 0.0
H115 H 0.77889 0.02336 0.25139 0.0
H116 H 0.27995 0.10386 0.25912 0.0
H117 H 0.22927 0.0561 0.2569 0.0
N118 N 0.1458 0.11025 0.243 0.0
C119 C 0.17313 0.13677 0.24365 0.0
C120 C 0.16538 0.08152 0.24744 0.0
C121 C 0.24239 0.10594 0.2545 0.0
C122 C 0.21387 0.07893 0.25336 0.0
C123 C 0.22219 0.13532 0.24955 0.0
H124 H 0.28714 0.16247 0.25503 0.0
N125 N 0.10389 0.1663 0.23423 0.0
C126 C 0.15175 0.16556 0.23884 0.0
C127 C 0.1562 0.22208 0.23511 0.0
C128 C 0.17901 0.19351 0.23979 0.0
C129 C 0.08193 0.19396 0.22865 0.0
C130 C 0.10755 0.22226 0.22932 0.0
O131 O 0.949 0.09647 0.24494 0.0
O132 O 0.01997 0.07342 0.2358 0.0
O133 O 0.04896 0.12651 0.19337 0.0
O134 O 0.10978 0.09799 0.20342 0.0
O135 O 0.03129 0.09435 0.29654 0.0
O136 O 0.05997 0.07446 0.25865 0.0
O137 O 0.08102 0.14198 0.27021 0.0
O138 O 0.00989 0.15574 0.28992 0.0
O139 O 0.94632 0.1104 0.32704 0.0
O140 O 0.90342 0.14147 0.30312 0.0
O141 O 0.99683 0.1441 0.22492 0.0
O142 O 0.96428 0.15954 0.26341 0.0
C143 C 0.97326 0.07345 0.23479 0.0
C144 C 0.05874 0.07484 0.28375 0.0
C145 C 0.07254 0.08767 0.16419 0.0
C146 C 0.07833 0.07482 0.11895 0.0
C147 C 0.0393 0.03868 0.14879 0.0
C148 C 0.04863 0.05919 0.16885 0.0
C149 C 0.0542 0.04629 0.12402 0.0
C150 C 0.08692 0.0955 0.13931 0.0
C151 C 0.08387 0.10926 0.18503 0.0
C152 C 0.2279 0.19212 0.24561 0.0
C153 C 0.24941 0.16312 0.25049 0.0
H154 H 0.17588 0.24406 0.23571 0.0
C155 C 0.05621 0.15914 0.28612 0.0
C156 C 0.96948 0.16262 0.23865 0.0
C157 C 0.88152 0.14008 0.34765 0.0
C158 C 0.86238 0.14014 0.39309 0.0
C159 C 0.81044 0.16657 0.36301 0.0
C160 C 0.84023 0.15784 0.343 0.0
C161 C 0.82125 0.15766 0.3879 0.0
C162 C 0.89281 0.13147 0.37293 0.0
C163 C 0.91112 0.13019 0.32577 0.0
H164 H 0.02096 0.01664 0.1525 0.0
H165 H 0.03765 0.05275 0.18797 0.0
H166 H 0.04756 0.02954 0.10898 0.0
H167 H 0.10473 0.11783 0.13589 0.0
H168 H 0.77871 0.18017 0.35919 0.0
H169 H 0.83054 0.1648 0.3238 0.0
H170 H 0.7976 0.16462 0.40321 0.0
H171 H 0.92447 0.11781 0.37689 0.0
C172 C 0.66346 0.42498 0.77184 0.0
C173 C 0.66463 0.48191 0.77417 0.0
C174 C 0.64028 0.453 0.77707 0.0
C175 C 0.71235 0.4823 0.76581 0.0
C176 C 0.71145 0.4253 0.76359 0.0
C177 C 0.73568 0.45409 0.76055 0.0
N178 N 0.63886 0.39748 0.77447 0.0
C179 C 0.66059 0.36946 0.77018 0.0
C180 C 0.73362 0.39665 0.75854 0.0
C181 C 0.70814 0.36861 0.762 0.0
Gd182 Gd 0.45443 0.39797 0.73517 0.0
Gd183 Gd 0.55892 0.4016 0.78734 0.0
N184 N 0.5935 0.45197 0.78429 0.0
C185 C 0.64022 0.5096 0.77969 0.0
C186 C 0.57038 0.47875 0.79091 0.0
C187 C 0.59306 0.50797 0.78837 0.0
H188 H 0.53479 0.47778 0.79849 0.0
H189 H 0.57426 0.52919 0.79328 0.0
H190 H 0.48435 0.32297 0.7211 0.0
H191 H 0.64155 0.34771 0.77354 0.0
H192 H 0.4489 0.27031 0.72473 0.0
H193 H 0.65764 0.53228 0.77766 0.0
H194 H 0.73154 0.5043 0.76337 0.0
H195 H 0.36764 0.44805 0.75053 0.0
H196 H 0.77045 0.39591 0.75217 0.0
H197 H 0.72518 0.34633 0.7585 0.0
H198 H 0.28906 0.28857 0.7538 0.0
H199 H 0.77252 0.45479 0.75414 0.0
H200 H 0.24129 0.3948 0.76784 0.0
H201 H 0.2832 0.44599 0.76418 0.0
N202 N 0.37391 0.39861 0.74741 0.0
C203 C 0.35135 0.37028 0.74874 0.0
C204 C 0.35001 0.42561 0.75262 0.0
C205 C 0.27846 0.39558 0.76201 0.0
C206 C 0.30202 0.42451 0.76006 0.0
C207 C 0.30303 0.368 0.75629 0.0
H208 H 0.24386 0.33616 0.76394 0.0
N209 N 0.42397 0.34627 0.73642 0.0
C210 C 0.37703 0.34337 0.74308 0.0
C211 C 0.38134 0.28704 0.7386 0.0
C212 C 0.35471 0.3136 0.74471 0.0
C213 C 0.44904 0.3206 0.72889 0.0
C214 C 0.42851 0.29062 0.73034 0.0
O215 O 0.57181 0.42349 0.74808 0.0
O216 O 0.49901 0.44219 0.73525 0.0
O217 O 0.46429 0.38814 0.69487 0.0
O218 O 0.40641 0.4178 0.70708 0.0
O219 O 0.48843 0.42508 0.79625 0.0
O220 O 0.4554 0.44256 0.75837 0.0
O221 O 0.43982 0.37772 0.7746 0.0
O222 O 0.51174 0.35816 0.78806 0.0
O223 O 0.55045 0.41395 0.82724 0.0
O224 O 0.60586 0.38179 0.81598 0.0
O225 O 0.52601 0.37483 0.72664 0.0
O226 O 0.55436 0.35678 0.76525 0.0
C227 C 0.54581 0.44371 0.73529 0.0
C228 C 0.46115 0.44452 0.78328 0.0
C229 C 0.4398 0.4281 0.66661 0.0
C230 C 0.43572 0.44037 0.62104 0.0
C231 C 0.46829 0.47852 0.65093 0.0
C232 C 0.45997 0.45773 0.67115 0.0
C233 C 0.45599 0.47008 0.62608 0.0
C234 C 0.42831 0.41937 0.64161 0.0
C235 C 0.42947 0.40629 0.68777 0.0
C236 C 0.30666 0.31126 0.75233 0.0
C237 C 0.2809 0.33837 0.75809 0.0
H238 H 0.36554 0.26377 0.73968 0.0
C239 C 0.46478 0.3572 0.78761 0.0
C240 C 0.55299 0.35577 0.74025 0.0
C241 C 0.57138 0.37433 0.85657 0.0
C242 C 0.57368 0.36343 0.90241 0.0
C243 C 0.53729 0.3259 0.87324 0.0
C244 C 0.54794 0.34559 0.85262 0.0
C245 C 0.55029 0.33456 0.89792 0.0
C246 C 0.58371 0.38332 0.88142 0.0
C247 C 0.58375 0.39493 0.83491 0.0
H248 H 0.48364 0.50145 0.65459 0.0
H249 H 0.46867 0.46488 0.69033 0.0
H250 H 0.46144 0.48716 0.61096 0.0
H251 H 0.41352 0.39617 0.63831 0.0
H252 H 0.51947 0.30363 0.87004 0.0
H253 H 0.53838 0.33827 0.83361 0.0
H254 H 0.54285 0.31826 0.91337 0.0
H255 H 0.60107 0.40584 0.88427 0.0
C256 C 0.85476 0.86245 0.78337 0.0
C257 C 0.86613 0.81177 0.80353 0.0
C258 C 0.8835 0.8419 0.79684 0.0
C259 C 0.82041 0.80228 0.7955 0.0
C260 C 0.80808 0.85359 0.77621 0.0
C261 C 0.79139 0.82318 0.78193 0.0
N262 N 0.87233 0.8914 0.77752 0.0
C263 C 0.84429 0.91344 0.76615 0.0
C264 C 0.77957 0.87566 0.76364 0.0
C265 C 0.79761 0.90583 0.75883 0.0
Gd266 Gd 0.05108 0.89742 0.73362 0.0
Gd267 Gd 0.9506 0.90244 0.79029 0.0
N268 N 0.92728 0.852 0.80462 0.0
C269 C 0.89458 0.7925 0.81883 0.0
C270 C 0.95308 0.83436 0.82142 0.0
C271 C 0.93785 0.80409 0.82821 0.0
H272 H 0.98496 0.8437 0.83011 0.0
H273 H 0.95909 0.78995 0.84103 0.0
H274 H 0.05001 0.96686 0.70501 0.0
H275 H 0.85821 0.93677 0.76253 0.0
H276 H 0.10135 0.01437 0.70121 0.0
H277 H 0.88259 0.76918 0.82437 0.0
H278 H 0.80669 0.77911 0.80025 0.0
H279 H 0.12471 0.84072 0.75579 0.0
H280 H 0.74348 0.86978 0.75784 0.0
H281 H 0.77562 0.92319 0.74946 0.0
H282 H 0.23874 0.98985 0.75221 0.0
H283 H 0.75585 0.81576 0.77631 0.0
H284 H 0.25143 0.88464 0.78403 0.0
H285 H 0.20169 0.83702 0.77805 0.0
N286 N 0.12649 0.89059 0.75302 0.0
C287 C 0.15506 0.91651 0.75417 0.0
C288 C 0.14417 0.862 0.75997 0.0
C289 C 0.2166 0.88659 0.7752 0.0
C290 C 0.1886 0.85968 0.77193 0.0
C291 C 0.20073 0.91529 0.76544 0.0
H292 H 0.26499 0.94181 0.7742 0.0
N293 N 0.09724 0.94343 0.73019 0.0
C294 C 0.14046 0.9436 0.74185 0.0
C295 C 0.15613 0.996 0.72585 0.0
C296 C 0.1708 0.97011 0.74038 0.0
C297 C 0.08359 0.96796 0.71507 0.0
C298 C 0.1126 0.99474 0.71286 0.0
O299 O 0.93002 0.8828 0.75166 0.0
O300 O 0.99745 0.85764 0.73785 0.0
O301 O 0.04267 0.90301 0.69238 0.0
O302 O 0.09427 0.87066 0.70745 0.0
O303 O 0.02067 0.87778 0.7984 0.0
O304 O 0.04226 0.85543 0.76017 0.0
O305 O 0.04777 0.94022 0.75925 0.0
O306 O 0.02719 0.91629 0.79641 0.0
O307 O 0.92497 0.90452 0.82968 0.0
O308 O 0.92957 0.94719 0.80628 0.0
O309 O 0.9822 0.92216 0.72382 0.0
O310 O 0.95128 0.94263 0.76151 0.0
C311 C 0.9507 0.85933 0.73999 0.0
C312 C 0.04094 0.8552 0.78526 0.0
C313 C 0.11605 0.89807 0.67012 0.0
C314 C 0.14576 0.90939 0.62702 0.0
C315 C 0.19608 0.91921 0.66404 0.0
C316 C 0.15988 0.9084 0.68013 0.0
C317 C 0.18942 0.91942 0.63773 0.0
C318 C 0.1089 0.89897 0.64359 0.0
C319 C 0.07879 0.88509 0.68725 0.0
C320 C 0.21514 0.96958 0.75282 0.0
C321 C 0.23002 0.94224 0.76541 0.0
H322 H 0.17851 0.01678 0.72416 0.0
C323 C 0.04593 0.94023 0.78423 0.0
C324 C 0.95812 0.94362 0.73651 0.0
C325 C 0.90077 0.95352 0.84985 0.0
C326 C 0.88175 0.9594 0.89517 0.0
C327 C 0.87465 1.00383 0.86611 0.0
C328 C 0.88964 0.98527 0.84587 0.0
C329 C 0.87095 0.99111 0.8906 0.0
C330 C 0.89617 0.94053 0.87459 0.0
C331 C 0.91892 0.93472 0.82834 0.0
H332 H 0.2299 0.92679 0.67196 0.0
H333 H 0.16668 0.90748 0.70038 0.0
H334 H 0.21924 0.92666 0.62584 0.0
H335 H 0.07483 0.89128 0.636 0.0
H336 H 0.86615 0.02827 0.86284 0.0
H337 H 0.89276 0.99586 0.8271 0.0
H338 H 0.85927 1.00605 0.90602 0.0
H339 H 0.90506 0.91615 0.87798 0.0
C340 C 0.65248 0.65655 0.278 0.0
C341 C 0.64105 0.70922 0.29397 0.0
C342 C 0.62348 0.67862 0.28951 0.0
C343 C 0.6876 0.7174 0.28616 0.0
C344 C 0.69954 0.66446 0.27057 0.0
C345 C 0.71681 0.69505 0.27456 0.0
N346 N 0.63425 0.62746 0.27358 0.0
C347 C 0.66175 0.60469 0.26292 0.0
C348 C 0.72766 0.64142 0.25912 0.0
C349 C 0.70874 0.61136 0.25542 0.0
Gd350 Gd 0.46022 0.61505 0.22933 0.0
Gd351 Gd 0.55595 0.61789 0.28766 0.0
N352 N 0.57858 0.66997 0.29689 0.0
C353 C 0.61166 0.73053 0.3066 0.0
C354 C 0.55124 0.69001 0.3108 0.0
C355 C 0.56681 0.72072 0.31536 0.0
H356 H 0.51805 0.68225 0.31916 0.0
H357 H 0.54456 0.73663 0.32606 0.0
H358 H 0.47262 0.54349 0.20579 0.0
H359 H 0.64776 0.58125 0.26051 0.0
H360 H 0.42717 0.49335 0.20407 0.0
H361 H 0.62381 0.75425 0.31036 0.0
H362 H 0.70157 0.74084 0.28931 0.0
H363 H 0.37764 0.67031 0.24344 0.0
H364 H 0.76402 0.64656 0.25318 0.0
H365 H 0.73039 0.59329 0.24688 0.0
H366 H 0.27973 0.51619 0.2471 0.0
H367 H 0.75274 0.70164 0.2688 0.0
H368 H 0.251 0.62328 0.2693 0.0
H369 H 0.2968 0.6724 0.26186 0.0
N370 N 0.38093 0.62043 0.24412 0.0
C371 C 0.35492 0.5934 0.24606 0.0
C372 C 0.3595 0.64865 0.2482 0.0
C373 C 0.28727 0.62218 0.2621 0.0
C374 C 0.31304 0.64995 0.25799 0.0
C375 C 0.30754 0.5935 0.25531 0.0
H376 H 0.24498 0.56487 0.26371 0.0
N377 N 0.41943 0.56689 0.22717 0.0
C378 C 0.37435 0.56593 0.23677 0.0
C379 C 0.36689 0.51141 0.22488 0.0
C380 C 0.34718 0.53794 0.2364 0.0
C381 C 0.4378 0.54174 0.21459 0.0
C382 C 0.41209 0.51349 0.21355 0.0
O383 O 0.57505 0.63822 0.24874 0.0
O384 O 0.50528 0.65909 0.23356 0.0
O385 O 0.48325 0.61045 0.18995 0.0
O386 O 0.41429 0.63009 0.19834 0.0
O387 O 0.48358 0.64055 0.29385 0.0
O388 O 0.45848 0.65848 0.25435 0.0
O389 O 0.46398 0.57426 0.25741 0.0
O390 O 0.48059 0.60065 0.29381 0.0
O391 O 0.57022 0.62246 0.32808 0.0
O392 O 0.58697 0.57909 0.30907 0.0
O393 O 0.53316 0.59373 0.22397 0.0
O394 O 0.55874 0.57427 0.2629 0.0
C395 C 0.55197 0.66031 0.23639 0.0
C396 C 0.45943 0.66036 0.27945 0.0
C397 C 0.45219 0.64685 0.16049 0.0
C398 C 0.44281 0.66219 0.11577 0.0
C399 C 0.47709 0.69873 0.14647 0.0
C400 C 0.47178 0.67641 0.1659 0.0
C401 C 0.4625 0.69183 0.12162 0.0
C402 C 0.4383 0.63972 0.1355 0.0
C403 C 0.44502 0.62326 0.18066 0.0
C404 C 0.30097 0.53757 0.24689 0.0
C405 C 0.28123 0.56528 0.2564 0.0
H406 H 0.34709 0.48948 0.22413 0.0
C407 C 0.46276 0.57611 0.28233 0.0
C408 C 0.55501 0.57232 0.23781 0.0
C409 C 0.63423 0.59392 0.34493 0.0
C410 C 0.67465 0.59886 0.38603 0.0
C411 C 0.72076 0.59213 0.34707 0.0
C412 C 0.67873 0.59102 0.33283 0.0
C413 C 0.71886 0.5962 0.37347 0.0
C414 C 0.63238 0.59751 0.37158 0.0
C415 C 0.58945 0.59495 0.33023 0.0
H416 H 0.49201 0.72161 0.15074 0.0
H417 H 0.48258 0.68222 0.1851 0.0
H418 H 0.46581 0.70997 0.10717 0.0
H419 H 0.42404 0.61654 0.13153 0.0
H420 H 0.75498 0.58998 0.3376 0.0
H421 H 0.6811 0.58809 0.31242 0.0
H422 H 0.75196 0.59699 0.38411 0.0
H423 H 0.59807 0.6001 0.38097 0.0
H424 H 0.13402 0.89416 0.34728 0.0
H425 H 0.21087 0.95951 0.39474 0.0
H426 H 0.10924 0.93737 0.31957 0.0
H427 H 0.18793 1.00264 0.36667 0.0
H428 H 0.08246 0.07402 0.33422 0.0
H429 H 0.1178 0.03121 0.3584 0.0
H430 H 0.12993 0.97691 0.28935 0.0
H431 H 0.09213 0.01913 0.26548 0.0
C432 C 0.14661 0.9177 0.35135 0.0
C433 C 0.174 0.9236 0.37319 0.0
C434 C 0.13253 0.94251 0.33549 0.0
C435 C 0.14605 0.97367 0.34103 0.0
C436 C 0.17579 0.97914 0.36214 0.0
C437 C 0.18931 0.95443 0.37812 0.0
C438 C 0.0929 0.05299 0.3242 0.0
C439 C 0.08441 0.05 0.29796 0.0
C440 C 0.1136 0.02849 0.33801 0.0
C441 C 0.12687 1.00047 0.32587 0.0
C442 C 0.11963 0.99791 0.29943 0.0
C443 C 0.0985 0.02232 0.28566 0.0
H444 H 0.40974 0.59873 0.88557 0.0
H445 H 0.26897 0.5766 0.85652 0.0
H446 H 0.44394 0.55932 0.85755 0.0
H447 H 0.30409 0.53851 0.82754 0.0
H448 H 0.46165 0.45368 0.83472 0.0
H449 H 0.42707 0.49668 0.85855 0.0
H450 H 0.37189 0.53654 0.78892 0.0
H451 H 0.40842 0.49403 0.76452 0.0
C452 C 0.38603 0.58572 0.87316 0.0
C453 C 0.33634 0.5907 0.87372 0.0
C454 C 0.40578 0.56333 0.85698 0.0
C455 C 0.37655 0.54587 0.84054 0.0
C456 C 0.32736 0.55187 0.83996 0.0
C457 C 0.30738 0.57386 0.85652 0.0
C458 C 0.44224 0.4715 0.82431 0.0
C459 C 0.43756 0.47012 0.79762 0.0
C460 C 0.42259 0.49621 0.83804 0.0
C461 C 0.39704 0.51989 0.82553 0.0
C462 C 0.39135 0.51841 0.79896 0.0
C463 C 0.41198 0.49396 0.78507 0.0
H464 H 0.69644 0.54731 0.61828 0.0
H465 H 0.64743 0.62125 0.66751 0.0
H466 H 0.66411 0.50808 0.64781 0.0
H467 H 0.61518 0.58178 0.69735 0.0
H468 H 0.50954 0.50084 0.722 0.0
H469 H 0.548 0.5422 0.6966 0.0
H470 H 0.6759 0.48653 0.69162 0.0
H471 H 0.63708 0.44489 0.71659 0.0
C472 C 0.6789 0.55516 0.63552 0.0
C473 C 0.67416 0.58738 0.64049 0.0
C474 C 0.66075 0.53267 0.65255 0.0
C475 C 0.63702 0.54179 0.67492 0.0
C476 C 0.63298 0.57403 0.68017 0.0
C477 C 0.65171 0.5966 0.66322 0.0
C478 C 0.54583 0.49741 0.71542 0.0
C479 C 0.57002 0.4694 0.72096 0.0
C480 C 0.56806 0.52126 0.70113 0.0
C481 C 0.61494 0.51761 0.69199 0.0
C482 C 0.63955 0.48991 0.69812 0.0
C483 C 0.6174 0.46613 0.71252 0.0
H484 H 0.77515 0.94054 0.16199 0.0
H485 H 0.91532 0.92259 0.13114 0.0
H486 H 0.81004 0.97868 0.19161 0.0
H487 H 0.94997 0.96083 0.16022 0.0
H488 H 0.00439 0.01369 0.22879 0.0
H489 H 0.96612 0.97114 0.20531 0.0
H490 H 0.84784 0.03182 0.18733 0.0
H491 H 0.88669 0.07457 0.21056 0.0
C492 C 0.81347 0.94433 0.16187 0.0
C493 C 0.84249 0.92864 0.14421 0.0
C494 C 0.83337 0.9664 0.1786 0.0
C495 C 0.88276 0.97294 0.17819 0.0
C496 C 0.91189 0.95621 0.16123 0.0
C497 C 0.89201 0.93441 0.14445 0.0
C498 C 0.97016 0.01791 0.21985 0.0
C499 C 0.94846 0.04745 0.22153 0.0
C500 C 0.94822 0.99353 0.20641 0.0
C501 C 0.90394 0.99805 0.19439 0.0
C502 C 0.88165 0.02741 0.19663 0.0
C503 C 0.90386 0.05191 0.20992 0.0
H504 H 0.92714 0.10004 0.6326 0.0
H505 H 0.78489 0.0893 0.66382 0.0
H506 H 0.95538 0.05853 0.66077 0.0
H507 H 0.81371 0.04805 0.69254 0.0
H508 H 0.90255 0.99209 0.75395 0.0
H509 H 0.8724 0.03686 0.72947 0.0
H510 H 0.93789 1.00024 0.66139 0.0
H511 H 0.96749 0.95559 0.68545 0.0
C512 C 0.90191 0.08895 0.64558 0.0
C513 C 0.85353 0.09767 0.6456 0.0
C514 C 0.91815 0.06519 0.66174 0.0
C515 C 0.8866 0.04971 0.67857 0.0
C516 C 0.83884 0.05961 0.67977 0.0
C517 C 0.8224 0.0833 0.66338 0.0
C518 C 0.91033 0.99349 0.73373 0.0
C519 C 0.93777 0.97022 0.72176 0.0
C520 C 0.89295 0.01912 0.71974 0.0
C521 C 0.90325 0.02222 0.69359 0.0
C522 C 0.93005 0.99878 0.68161 0.0
C523 C 0.94684 0.97306 0.69544 0.0
H524 H 0.5983 0.41865 0.13472 0.0
H525 H 0.73891 0.43262 0.16681 0.0
H526 H 0.56628 0.45769 0.16374 0.0
H527 H 0.7061 0.47105 0.1965 0.0
H528 H 0.60651 0.52266 0.25749 0.0
H529 H 0.64011 0.47832 0.2338 0.0
H530 H 0.58641 0.51764 0.1636 0.0
H531 H 0.55416 0.56176 0.18664 0.0
C532 C 0.62236 0.42981 0.14809 0.0
C533 C 0.67142 0.42288 0.14803 0.0
C534 C 0.6039 0.45203 0.16481 0.0
C535 C 0.63384 0.46757 0.18215 0.0
C536 C 0.68224 0.45927 0.18337 0.0
C537 C 0.70093 0.43722 0.16638 0.0
C538 C 0.60212 0.52188 0.23699 0.0
C539 C 0.57723 0.54573 0.22407 0.0
C540 C 0.62135 0.49654 0.22349 0.0
C541 C 0.61522 0.49441 0.19695 0.0
C542 C 0.59096 0.51841 0.1841 0.0
C543 C 0.57261 0.54381 0.1974 0.0
H544 H 0.29942 0.46944 0.39477 0.0
H545 H 0.37554 0.39814 0.35372 0.0
H546 H 0.33017 0.50949 0.36554 0.0
H547 H 0.40848 0.43837 0.32483 0.0
H548 H 0.4359 0.51719 0.26688 0.0
H549 H 0.39602 0.47624 0.29191 0.0
H550 H 0.40336 0.53548 0.35843 0.0
H551 H 0.44011 0.57694 0.33296 0.0
C552 C 0.3225 0.46242 0.37923 0.0
C553 C 0.33516 0.43085 0.37638 0.0
C554 C 0.34064 0.48536 0.36265 0.0
C555 C 0.37264 0.47738 0.34303 0.0
C556 C 0.38372 0.44544 0.33957 0.0
C557 C 0.36497 0.42236 0.35607 0.0
C558 C 0.42794 0.5217 0.28668 0.0
C559 C 0.44013 0.55065 0.29769 0.0
C560 C 0.40574 0.498 0.30118 0.0
C561 C 0.39587 0.50252 0.32722 0.0
C562 C 0.40913 0.53131 0.33831 0.0
C563 C 0.43076 0.55507 0.32374 0.0
H564 H 0.22979 0.08033 0.85334 0.0
H565 H 0.09213 0.09455 0.88889 0.0
H566 H 0.19361 0.04164 0.8248 0.0
H567 H 0.05711 0.05468 0.86135 0.0
H568 H 0.04779 0.94772 0.83601 0.0
H569 H 0.07999 0.99211 0.85992 0.0
H570 H 0.1192 0.03858 0.78953 0.0
H571 H 0.08444 0.99512 0.76553 0.0
C572 C 0.19177 0.07576 0.8548 0.0
C573 C 0.16413 0.0903 0.87376 0.0
C574 C 0.1712 0.05342 0.83857 0.0
C575 C 0.12285 0.04492 0.84126 0.0
C576 C 0.09467 0.06052 0.85922 0.0
C577 C 0.11489 0.08325 0.87504 0.0
C578 C 0.06307 0.9674 0.82556 0.0
C579 C 0.0646 0.96746 0.79875 0.0
C580 C 0.08141 0.99281 0.83928 0.0
C581 C 0.10238 0.01855 0.82651 0.0
C582 C 0.10374 0.0188 0.79979 0.0
C583 C 0.08424 0.99375 0.78606 0.0
H584 H 0.24835 0.10673 0.98148 0.0
H585 H 0.10371 0.12471 0.95751 0.0
H586 H 0.22011 0.09613 0.02474 0.0
H587 H 0.07535 0.11518 1.00089 0.0
H588 H 0.03376 0.06259 0.07342 0.0
H589 H 0.06252 0.07415 0.03058 0.0
H590 H 0.18836 0.11868 0.06199 0.0
H591 H 0.16131 0.1051 0.10473 0.0
C592 C 0.21057 0.10887 0.9856 0.0
C593 C 0.1782 0.11643 0.96614 0.0
C594 C 0.19431 0.10289 0.01042 0.0
C595 C 0.14533 0.10467 0.01641 0.0
C596 C 0.11315 0.11291 0.99695 0.0
C597 C 0.12938 0.11854 0.9721 0.0
C598 C 0.06789 0.07446 0.07123 0.0
C599 C 0.09517 0.08279 0.09266 0.0
C600 C 0.08408 0.08156 0.04659 0.0
C601 C 0.1278 0.09746 0.04271 0.0
C602 C 0.15485 0.10606 0.06415 0.0
C603 C 0.1389 0.09867 0.08877 0.0
H604 H 0.27009 0.40174 0.48453 0.0
H605 H 0.41573 0.39886 0.45765 0.0
H606 H 0.2981 0.41238 0.52755 0.0
H607 H 0.44436 0.4079 0.50094 0.0
H608 H 0.47926 0.45662 0.57563 0.0
H609 H 0.45222 0.44553 0.53268 0.0
H610 H 0.33415 0.39106 0.56338 0.0
H611 H 0.35862 0.40455 0.60622 0.0
C612 C 0.3082 0.40298 0.48799 0.0
C613 C 0.34077 0.39952 0.46784 0.0
C614 C 0.3244 0.40888 0.51269 0.0
C615 C 0.37366 0.41092 0.51794 0.0
C616 C 0.4062 0.40709 0.49767 0.0
C617 C 0.3899 0.40174 0.47287 0.0
C618 C 0.4471 0.44267 0.57328 0.0
C619 C 0.42106 0.43175 0.59461 0.0
C620 C 0.43198 0.43582 0.54852 0.0
C621 C 0.39078 0.41742 0.54435 0.0
C622 C 0.36549 0.40581 0.56569 0.0
C623 C 0.38013 0.4131 0.59042 0.0
H624 H 0.74567 0.3858 0.03754 0.0
H625 H 0.6021 0.39549 0.06685 0.0
H626 H 0.71469 0.38268 0.9946 0.0
H627 H 0.57131 0.39522 0.02353 0.0
H628 H 0.52753 0.3509 0.94777 0.0
H629 H 0.55616 0.36022 0.99066 0.0
H630 H 0.68096 0.40766 0.95991 0.0
H631 H 0.65448 0.39576 0.91705 0.0
C632 C 0.70744 0.38755 0.03486 0.0
C633 C 0.67643 0.39029 0.05587 0.0
C634 C 0.68963 0.38635 0.01003 0.0
C635 C 0.64027 0.3885 1.00537 0.0
C636 C 0.60942 0.39279 0.0263 0.0
C637 C 0.62721 0.39347 0.05122 0.0
C638 C 0.56139 0.36299 0.95009 0.0
C639 C 0.58888 0.37211 0.92874 0.0
C640 C 0.57748 0.3689 0.97483 0.0
C641 C 0.62118 0.38459 0.97898 0.0
C642 C 0.64764 0.39493 0.95761 0.0
C643 C 0.63196 0.38854 0.93288 0.0
H644 H 0.84291 0.08221 0.55308 0.0
H645 H 0.86249 0.18267 0.54822 0.0
H646 H 0.86173 0.07783 0.5076 0.0
H647 H 0.88076 0.17839 0.50287 0.0
H648 H 0.93334 0.16251 0.42357 0.0
H649 H 0.93746 0.15767 0.4702 0.0
H650 H 0.81558 0.09482 0.46925 0.0
H651 H 0.81166 0.09987 0.42288 0.0
C652 C 0.8521 0.10326 0.54239 0.0
C653 C 0.85082 0.13281 0.55411 0.0
C654 C 0.86263 0.10077 0.51636 0.0
C655 C 0.87265 0.12776 0.50164 0.0
C656 C 0.87373 0.15712 0.51371 0.0
C657 C 0.86275 0.15962 0.53962 0.0
C658 C 0.90857 0.1469 0.43338 0.0
C659 C 0.87232 0.13144 0.41984 0.0
C660 C 0.9106 0.14433 0.46 0.0
C661 C 0.87663 0.12603 0.47341 0.0
C662 C 0.84254 0.10884 0.45952 0.0
C663 C 0.84019 0.11173 0.43301 0.0
H664 H 0.83189 0.85656 0.03938 0.0
H665 H 0.82451 0.9555 0.05595 0.0
H666 H 0.85281 0.8689 0.99509 0.0
H667 H 0.84439 0.96789 0.01187 0.0
H668 H 0.92038 0.98418 0.93813 0.0
H669 H 0.90792 0.96729 0.98211 0.0
H670 H 0.82097 0.88965 0.956 0.0
H671 H 0.835 0.90622 0.91178 0.0
C672 C 0.83453 0.88094 0.03352 0.0
C673 C 0.82685 0.90506 0.05123 0.0
C674 C 0.84643 0.88803 1.00813 0.0
C675 C 0.85069 0.91942 0.99983 0.0
C676 C 0.84266 0.94345 0.01761 0.0
C677 C 0.8311 0.93637 0.04294 0.0
C678 C 0.89893 0.96335 0.94182 0.0
C679 C 0.87822 0.94671 0.92157 0.0
C680 C 0.8915 0.95374 0.96704 0.0
C681 C 0.86261 0.92743 0.97275 0.0
C682 C 0.84359 0.90993 0.95238 0.0
C683 C 0.85151 0.91941 0.92703 0.0
H684 H 0.69105 0.57214 0.54993 0.0
H685 H 0.6787 0.67262 0.54054 0.0
H686 H 0.68009 0.56553 0.50405 0.0
H687 H 0.66925 0.66592 0.49471 0.0
H688 H 0.72587 0.64102 0.4139 0.0
H689 H 0.72581 0.64783 0.46011 0.0
H690 H 0.61976 0.57422 0.46784 0.0
H691 H 0.61976 0.56745 0.42139 0.0
C692 C 0.68532 0.59279 0.53822 0.0
C693 C 0.6864 0.62296 0.549 0.0
C694 C 0.67915 0.58897 0.5119 0.0
C695 C 0.67436 0.61524 0.49576 0.0
C696 C 0.67371 0.64527 0.50662 0.0
C697 C 0.67933 0.64908 0.53289 0.0
C698 C 0.70252 0.62632 0.42547 0.0
C699 C 0.67298 0.60362 0.41407 0.0
C700 C 0.7022 0.63038 0.45189 0.0
C701 C 0.67276 0.61156 0.4676 0.0
C702 C 0.64298 0.58893 0.45622 0.0
C703 C 0.64277 0.5852 0.42968 0.0
H704 H 0.26437 0.63176 0.9832 0.0
H705 H 0.40698 0.63248 0.95135 0.0
H706 H 0.29718 0.63859 0.02546 0.0
H707 H 0.44014 0.63669 0.99407 0.0
H708 H 0.48155 0.6817 0.06994 0.0
H709 H 0.45092 0.67255 0.0273 0.0
H710 H 0.33724 0.61498 0.05899 0.0
H711 H 0.36535 0.62635 0.10161 0.0
C712 C 0.30282 0.63324 0.98516 0.0
C713 C 0.33288 0.63202 0.96365 0.0
C714 C 0.32179 0.6366 1.0096 0.0
C715 C 0.37149 0.63825 0.01339 0.0
C716 C 0.40168 0.63606 0.99196 0.0
C717 C 0.38263 0.63315 0.96741 0.0
C718 C 0.44962 0.66744 0.06788 0.0
C719 C 0.42587 0.65501 0.08943 0.0
C720 C 0.43246 0.66171 0.04329 0.0
C721 C 0.39137 0.64306 0.03951 0.0
C722 C 0.36842 0.62995 0.06103 0.0
C723 C 0.38513 0.63606 0.0856 0.0
H724 H 0.17524 0.93688 0.46234 0.0
H725 H 0.14638 0.83778 0.47348 0.0
H726 H 0.15652 0.94623 0.5065 0.0
H727 H 0.13449 0.84654 0.51839 0.0
H728 H 0.09398 0.86731 0.59805 0.0
H729 H 0.09151 0.86326 0.55203 0.0
H730 H 0.18759 0.94308 0.54569 0.0
H731 H 0.18489 0.94949 0.59122 0.0
C732 C 0.16491 0.91694 0.47405 0.0
C733 C 0.16294 0.88642 0.46394 0.0
C734 C 0.15514 0.92228 0.4998 0.0
C735 C 0.14479 0.89717 0.51658 0.0
C736 C 0.14176 0.86674 0.50635 0.0
C737 C 0.14988 0.86155 0.48042 0.0
C738 C 0.11336 0.88465 0.58684 0.0
C739 C 0.14032 0.90844 0.59867 0.0
C740 C 0.1128 0.88191 0.56026 0.0
C741 C 0.14019 0.90236 0.54472 0.0
C742 C 0.16555 0.92689 0.55659 0.0
C743 C 0.16491 0.93018 0.58305 0.0
H744 H 0.25232 0.26599 0.38031 0.0
H745 H 0.15545 0.33632 0.35243 0.0
H746 H 0.21225 0.22632 0.3546 0.0
H747 H 0.11576 0.29689 0.32576 0.0
H748 H 0.01936 0.21087 0.30988 0.0
H749 H 0.06327 0.25266 0.33148 0.0
H750 H 0.19634 0.20687 0.31354 0.0
H751 H 0.15245 0.16436 0.29362 0.0
C752 C 0.22324 0.27304 0.36798 0.0
C753 C 0.20714 0.30405 0.36799 0.0
C754 C 0.20019 0.25035 0.35322 0.0
C755 C 0.16047 0.25826 0.33811 0.0
C756 C 0.14568 0.28981 0.33745 0.0
C757 C 0.16872 0.31249 0.35239 0.0
C758 C 0.05796 0.20963 0.31077 0.0
C759 C 0.08233 0.18432 0.29984 0.0
C760 C 0.08325 0.23385 0.32283 0.0
C761 C 0.13351 0.23335 0.32419 0.0
C762 C 0.15772 0.20801 0.31315 0.0
C763 C 0.13246 0.18373 0.3014 0.0
H764 H 0.36063 0.17484 0.8435 0.0
H765 H 0.28125 0.2435 0.88572 0.0
H766 H 0.39792 0.21687 0.81799 0.0
H767 H 0.3192 0.28564 0.86107 0.0
H768 H 0.37095 0.35511 0.80191 0.0
H769 H 0.32705 0.31157 0.82127 0.0
H770 H 0.45672 0.2572 0.82358 0.0
H771 H 0.49987 0.30016 0.80261 0.0
C772 C 0.35062 0.19897 0.84693 0.0
C773 C 0.31783 0.20615 0.86621 0.0
C774 C 0.37236 0.22307 0.83261 0.0
C775 C 0.36197 0.25479 0.83755 0.0
C776 C 0.32771 0.2616 0.85641 0.0
C777 C 0.30593 0.23751 0.87058 0.0
C778 C 0.38999 0.33373 0.80628 0.0
C779 C 0.43892 0.33112 0.80065 0.0
C780 C 0.36488 0.30881 0.81764 0.0
C781 C 0.38819 0.28073 0.82409 0.0
C782 C 0.43728 0.2782 0.81853 0.0
C783 C 0.46228 0.30305 0.80688 0.0
H784 H 0.6689 0.18459 0.67543 0.0
H785 H 0.75639 0.25891 0.6437 0.0
H786 H 0.62712 0.22284 0.7021 0.0
H787 H 0.71511 0.29719 0.67028 0.0
H788 H 0.58424 0.35711 0.69092 0.0
H789 H 0.6326 0.31813 0.66905 0.0
H790 H 0.63591 0.26158 0.73765 0.0
H791 H 0.58703 0.30048 0.75949 0.0
C792 C 0.67999 0.20901 0.67477 0.0
C793 C 0.71595 0.21898 0.65786 0.0
C794 C 0.65609 0.2309 0.68993 0.0
C795 C 0.66747 0.2631 0.68808 0.0
C796 C 0.70506 0.27265 0.67187 0.0
C797 C 0.72904 0.25076 0.6569 0.0
C798 C 0.59524 0.33635 0.70132 0.0
C799 C 0.58207 0.33196 0.72695 0.0
C800 C 0.62332 0.31415 0.68888 0.0
C801 C 0.63845 0.28688 0.70169 0.0
C802 C 0.62476 0.2823 0.72726 0.0
C803 C 0.597 0.30466 0.73978 0.0
H804 H 0.85338 0.33805 0.18043 0.0
H805 H 0.78221 0.26575 0.13733 0.0
H806 H 0.89217 0.29773 0.20672 0.0
H807 H 0.82059 0.22543 0.16346 0.0
H808 H 0.95258 0.16861 0.18758 0.0
H809 H 0.90607 0.20883 0.16595 0.0
H810 H 0.87734 0.2531 0.23815 0.0
H811 H 0.92406 0.21283 0.25994 0.0
C812 C 0.84517 0.31352 0.17712 0.0
C813 C 0.81481 0.30473 0.15716 0.0
C814 C 0.86732 0.29049 0.19206 0.0
C815 C 0.8598 0.25844 0.18692 0.0
C816 C 0.82757 0.24992 0.16761 0.0
C817 C 0.80527 0.2729 0.15285 0.0
C818 C 0.93648 0.18692 0.19888 0.0
C819 C 0.94206 0.18748 0.22549 0.0
C820 C 0.90947 0.20982 0.1865 0.0
C821 C 0.88776 0.23398 0.2004 0.0
C822 C 0.89376 0.23481 0.22696 0.0
C823 C 0.92039 0.21168 0.23941 0.0
H824 H 0.83128 0.68347 0.68047 0.0
H825 H 0.75925 0.75809 0.64073 0.0
H826 H 0.86879 0.72194 0.70885 0.0
H827 H 0.79773 0.7967 0.668 0.0
H828 H 0.85649 0.86186 0.72635 0.0
H829 H 0.80764 0.8206 0.70755 0.0
H830 H 0.93053 0.75976 0.70602 0.0
H831 H 0.97806 0.80026 0.7267 0.0
C832 C 0.82277 0.7081 0.67825 0.0
C833 C 0.79213 0.71799 0.65877 0.0
C834 C 0.84468 0.73022 0.69421 0.0
C835 C 0.83682 0.76264 0.69067 0.0
C836 C 0.80429 0.77209 0.67172 0.0
C837 C 0.7822 0.74998 0.65599 0.0
C838 C 0.87265 0.83937 0.72267 0.0
C839 C 0.92095 0.83426 0.72838 0.0
C840 C 0.84483 0.81578 0.71148 0.0
C841 C 0.86494 0.78665 0.7051 0.0
C842 C 0.91333 0.78154 0.71101 0.0
C843 C 0.9409 0.805 0.72256 0.0
H844 H 0.65967 0.84007 0.17574 0.0
H845 H 0.73895 0.76843 0.1369 0.0
H846 H 0.62231 0.79993 0.20318 0.0
H847 H 0.70087 0.72815 0.16337 0.0
H848 H 0.64647 0.66144 0.22313 0.0
H849 H 0.69184 0.70418 0.20354 0.0
H850 H 0.56342 0.75971 0.19965 0.0
H851 H 0.51905 0.71772 0.22115 0.0
C852 C 0.66968 0.81573 0.17348 0.0
C853 C 0.70245 0.80718 0.15456 0.0
C854 C 0.64789 0.79267 0.18891 0.0
C855 C 0.65816 0.76061 0.18546 0.0
C856 C 0.69245 0.75248 0.16697 0.0
C857 C 0.71431 0.77553 0.15173 0.0
C858 C 0.62822 0.68309 0.21873 0.0
C859 C 0.57931 0.68629 0.22407 0.0
C860 C 0.65409 0.7075 0.20707 0.0
C861 C 0.63148 0.73558 0.19987 0.0
C862 C 0.58242 0.73876 0.20528 0.0
C863 C 0.55673 0.71447 0.2173 0.0
H864 H 0.24107 0.79214 0.32835 0.0
H865 H 0.34566 0.79187 0.38854 0.0
H866 H 0.29315 0.75858 0.30246 0.0
H867 H 0.39749 0.75839 0.36298 0.0
H868 H 0.42891 0.66084 0.3288 0.0
H869 H 0.38314 0.70113 0.3504 0.0
H870 H 0.37805 0.75555 0.28077 0.0
H871 H 0.42548 0.71548 0.25912 0.0
C872 C 0.27578 0.78557 0.33566 0.0
C873 C 0.28983 0.79455 0.36021 0.0
C874 C 0.30547 0.7664 0.32095 0.0
C875 C 0.3491 0.75565 0.33086 0.0
C876 C 0.36385 0.76605 0.35499 0.0
C877 C 0.33446 0.78537 0.36951 0.0
C878 C 0.41842 0.68146 0.31807 0.0
C879 C 0.43082 0.68489 0.29221 0.0
C880 C 0.39227 0.70458 0.33048 0.0
C881 C 0.3773 0.73155 0.31729 0.0
C882 C 0.38903 0.73492 0.29134 0.0
C883 C 0.416 0.71195 0.27898 0.0
H884 H 0.13964 0.72765 0.9018 0.0
H885 H 0.20942 0.69278 0.83444 0.0
H886 H 0.10455 0.7701 0.87694 0.0
H887 H 0.1752 0.73598 0.80924 0.0
H888 H 0.05689 0.79509 0.7698 0.0
H889 H 0.098 0.75349 0.7932 0.0
H890 H 0.12488 0.8178 0.85503 0.0
H891 H 0.08301 0.85896 0.83186 0.0
C892 C 0.14782 0.72945 0.88162 0.0
C893 C 0.17708 0.70729 0.8699 0.0
C894 C 0.128 0.75382 0.86739 0.0
C895 C 0.13719 0.75659 0.84108 0.0
C896 C 0.16705 0.73435 0.82941 0.0
C897 C 0.18688 0.70982 0.84376 0.0
C898 C 0.07175 0.80024 0.78838 0.0
C899 C 0.06639 0.83011 0.79915 0.0
C900 C 0.09558 0.77652 0.8017 0.0
C901 C 0.11458 0.78223 0.82606 0.0
C902 C 0.10994 0.81239 0.83653 0.0
C903 C 0.08598 0.836 0.82327 0.0
loop_
_geom_bond_atom_site_label_1
_geom_bond_atom_site_label_2
_geom_bond_distance
_geom_bond_site_symmetry_2
_ccdc_geom_bond_type
H0 C3 0.929 . S
H1 C6 0.929 . S
H2 C8 0.930 . S
C3 H0 0.929 . S
C3 C4 1.398 . S
C3 C5 1.396 . S
C4 C3 1.398 . S
C4 C8 1.407 . S
C5 C3 1.396 . S
C5 C6 1.394 . S
C6 H1 0.929 . S
C6 C5 1.394 . S
C6 C7 1.382 . S
C7 C6 1.382 . S
C7 C8 1.392 . S
C7 N9 1.420 . S
C8 H2 0.930 . S
C8 C4 1.407 . S
C8 C7 1.392 . S
N9 C7 1.420 . S
N9 C10 1.244 . S
C10 N9 1.244 . S
H11 C14 0.929 . S
H12 C17 0.929 . S
H13 C19 0.930 . S
C14 H11 0.929 . S
C14 C15 1.398 . S
C14 C16 1.396 . S
C15 C14 1.398 . S
C15 C19 1.407 . S
C16 C14 1.396 . S
C16 C17 1.394 . S
C17 H12 0.929 . S
C17 C16 1.394 . S
C17 C18 1.382 . S
C18 C17 1.382 . S
C18 C19 1.392 . S
C18 N20 1.420 . S
C19 H13 0.930 . S
C19 C15 1.407 . S
C19 C18 1.392 . S
N20 C18 1.420 . S
N20 C21 1.244 . S
C21 N20 1.244 . S
H22 C25 0.929 . S
H23 C28 0.929 . S
H24 C30 0.930 . S
C25 H22 0.929 . S
C25 C26 1.398 . S
C25 C27 1.396 . S
C26 C25 1.398 . S
C26 C30 1.407 . S
C27 C25 1.396 . S
C27 C28 1.394 . S
C28 H23 0.929 . S
C28 C27 1.394 . S
C28 C29 1.382 . S
C29 C28 1.382 . S
C29 C30 1.392 . S
C29 N31 1.420 . S
C30 H24 0.930 . S
C30 C26 1.407 . S
C30 C29 1.392 . S
N31 C29 1.420 . S
N31 C32 1.244 . S
C32 N31 1.244 . S
H33 C36 0.929 . S
H34 C39 0.929 . S
H35 C41 0.930 . S
C36 H33 0.929 . S
C36 C37 1.398 . S
C36 C38 1.396 . S
C37 C36 1.398 . S
C37 C41 1.407 . S
C38 C36 1.396 . S
C38 C39 1.394 . S
C39 H34 0.929 . S
C39 C38 1.394 . S
C39 C40 1.382 . S
C40 C39 1.382 . S
C40 C41 1.392 . S
C40 N42 1.420 . S
C41 H35 0.930 . S
C41 C37 1.407 . S
C41 C40 1.392 . S
N42 C40 1.420 . S
N42 C43 1.244 . S
C43 N42 1.244 . S
H44 C47 0.929 . S
H45 C50 0.929 . S
H46 C52 0.930 . S
C47 H44 0.929 . S
C47 C48 1.398 . S
C47 C49 1.396 . S
C48 C47 1.398 . S
C48 C52 1.407 . S
C49 C47 1.396 . S
C49 C50 1.394 . S
C50 H45 0.929 . S
C50 C49 1.394 . S
C50 C51 1.382 . S
C51 C50 1.382 . S
C51 C52 1.392 . S
C51 N53 1.420 . S
C52 H46 0.930 . S
C52 C48 1.407 . S
C52 C51 1.392 . S
N53 C51 1.420 . S
N53 C54 1.244 . S
C54 N53 1.244 . S
H55 C58 0.929 . S
H56 C61 0.929 . S
H57 C63 0.930 . S
C58 H55 0.929 . S
C58 C59 1.398 . S
C58 C60 1.396 . S
C59 C58 1.398 . S
C59 C63 1.407 . S
C60 C58 1.396 . S
C60 C61 1.394 . S
C61 H56 0.929 . S
C61 C60 1.394 . S
C61 C62 1.382 . S
C62 C61 1.382 . S
C62 C63 1.392 . S
C62 N64 1.420 . S
C63 H57 0.930 . S
C63 C59 1.407 . S
C63 C62 1.392 . S
N64 C62 1.420 . S
N64 C65 1.244 . S
C65 N64 1.244 . S
H66 C69 0.929 . S
H67 C72 0.929 . S
H68 C74 0.930 . S
C69 H66 0.929 . S
C69 C70 1.398 . S
C69 C71 1.396 . S
C70 C69 1.398 . S
C70 C74 1.407 . S
C71 C69 1.396 . S
C71 C72 1.394 . S
C72 H67 0.929 . S
C72 C71 1.394 . S
C72 C73 1.382 . S
C73 C72 1.382 . S
C73 C74 1.392 . S
C73 N75 1.420 . S
C74 H68 0.930 . S
C74 C70 1.407 . S
C74 C73 1.392 . S
N75 C73 1.420 . S
N75 C76 1.244 . S
C76 N75 1.244 . S
H77 C80 0.929 . S
H78 C83 0.929 . S
H79 C85 0.930 . S
C80 H77 0.929 . S
C80 C81 1.398 . S
C80 C82 1.396 . S
C81 C80 1.398 . S
C81 C85 1.407 . S
C82 C80 1.396 . S
C82 C83 1.394 . S
C83 H78 0.929 . S
C83 C82 1.394 . S
C83 C84 1.382 . S
C84 C83 1.382 . S
C84 C85 1.392 . S
C84 N86 1.420 . S
C85 H79 0.930 . S
C85 C81 1.407 . S
C85 C84 1.392 . S
N86 C84 1.420 . S
N86 C87 1.244 . S
C87 N86 1.244 . S
C88 C90 1.422 . S
C88 C92 1.415 . S
C88 N94 1.369 . S
C89 C90 1.421 . S
C89 C91 1.417 . S
C89 C101 1.395 1_545 S
C90 C88 1.422 . S
C90 C89 1.421 . S
C90 N100 1.359 . S
C91 C89 1.417 . S
C91 C93 1.329 . S
C91 H110 0.930 . S
C92 C88 1.415 . S
C92 C93 1.437 . S
C92 C96 1.413 . S
C93 C91 1.329 . S
C93 C92 1.437 . S
C93 H115 0.929 . S
N94 C88 1.369 . S
N94 C95 1.338 . S
N94 Gd99 2.622 . S
C95 N94 1.338 . S
C95 C97 1.378 . S
C95 H107 0.929 . S
C96 C92 1.413 . S
C96 C97 1.348 . S
C96 H112 0.931 . S
C97 C95 1.378 . S
C97 C96 1.348 . S
C97 H113 0.930 . S
Gd98 N118 2.622 . S
Gd98 N125 2.570 . S
Gd98 O132 2.353 . S
Gd98 O133 2.468 . S
Gd98 O134 2.427 . S
Gd98 O136 2.388 . S
Gd98 O137 2.386 . S
Gd98 O141 2.307 . S
Gd98 C151 2.805 . S
Gd99 N94 2.622 . S
Gd99 N100 2.570 . S
Gd99 O131 2.386 . S
Gd99 O135 2.307 1_655 S
Gd99 O138 2.353 1_655 S
Gd99 O139 2.468 . S
Gd99 O140 2.427 . S
Gd99 O142 2.388 . S
Gd99 C163 2.805 . S
N100 C90 1.359 . S
N100 Gd99 2.570 . S
N100 C102 1.343 . S
C101 C89 1.395 1_565 S
C101 C103 1.319 1_565 S
C101 H109 0.961 . S
C102 N100 1.343 . S
C102 C103 1.390 . S
C102 H104 0.931 . S
C103 C101 1.319 1_545 S
C103 C102 1.390 . S
C103 H105 0.930 1_545 S
H104 C102 0.931 . S
H105 C103 0.930 1_565 S
H106 C129 0.931 . S
H107 C95 0.929 . S
H108 C130 0.930 . S
H109 C101 0.961 . S
H110 C91 0.930 . S
H111 C120 0.929 . S
H112 C96 0.931 . S
H113 C97 0.930 . S
H114 C152 0.930 . S
H115 C93 0.929 . S
H116 C121 0.931 . S
H117 C122 0.930 . S
N118 Gd98 2.622 . S
N118 C119 1.369 . S
N118 C120 1.338 . S
C119 N118 1.369 . S
C119 C123 1.415 . S
C119 C126 1.422 . S
C120 H111 0.929 . S
C120 N118 1.338 . S
C120 C122 1.378 . S
C121 H116 0.931 . S
C121 C122 1.348 . S
C121 C123 1.413 . S
C122 H117 0.930 . S
C122 C120 1.378 . S
C122 C121 1.348 . S
C123 C119 1.415 . S
C123 C121 1.413 . S
C123 C153 1.437 . S
H124 C153 0.929 . S
N125 Gd98 2.570 . S
N125 C126 1.359 . S
N125 C129 1.343 . S
C126 C119 1.422 . S
C126 N125 1.359 . S
C126 C128 1.421 . S
C127 C128 1.422 . S
C127 C130 1.321 . S
C127 H154 0.931 . S
C128 C126 1.421 . S
C128 C127 1.422 . S
C128 C152 1.417 . S
C129 H106 0.931 . S
C129 N125 1.343 . S
C129 C130 1.390 . S
C130 H108 0.930 . S
C130 C127 1.321 . S
C130 C129 1.390 . S
O131 Gd99 2.386 . S
O131 C143 1.265 . S
O132 Gd98 2.353 . S
O132 C143 1.242 1_455 S
O133 Gd98 2.468 . S
O133 C151 1.263 . S
O134 Gd98 2.427 . S
O134 C151 1.252 . S
O135 Gd99 2.307 1_455 S
O135 C144 1.261 . S
O136 Gd98 2.388 . S
O136 C144 1.252 . S
O137 Gd98 2.386 . S
O137 C155 1.265 . S
O138 Gd99 2.353 1_455 S
O138 C155 1.242 . S
O139 Gd99 2.468 . S
O139 C163 1.263 . S
O140 Gd99 2.427 . S
O140 C163 1.252 . S
O141 Gd98 2.307 . S
O141 C156 1.261 1_455 S
O142 Gd99 2.388 . S
O142 C156 1.252 . S
C143 O131 1.265 . S
C143 O132 1.242 1_655 S
C144 O135 1.261 . S
C144 O136 1.252 . S
C145 C148 1.394 . S
C145 C150 1.370 . S
C145 C151 1.500 . S
C146 C149 1.383 . S
C146 C150 1.395 . S
C147 C148 1.396 . S
C147 C149 1.365 . S
C147 H164 0.929 . S
C148 C145 1.394 . S
C148 C147 1.396 . S
C148 H165 0.930 . S
C149 C146 1.383 . S
C149 C147 1.365 . S
C149 H166 0.931 . S
C150 C145 1.370 . S
C150 C146 1.395 . S
C150 H167 0.930 . S
C151 Gd98 2.805 . S
C151 O133 1.263 . S
C151 O134 1.252 . S
C151 C145 1.500 . S
C152 H114 0.930 . S
C152 C128 1.417 . S
C152 C153 1.329 . S
C153 C123 1.437 . S
C153 H124 0.929 . S
C153 C152 1.329 . S
H154 C127 0.931 . S
C155 O137 1.265 . S
C155 O138 1.242 . S
C156 O141 1.261 1_655 S
C156 O142 1.252 . S
C157 C160 1.394 . S
C157 C162 1.370 . S
C157 C163 1.500 . S
C158 C161 1.383 . S
C158 C162 1.395 . S
C159 C160 1.396 . S
C159 C161 1.365 . S
C159 H168 0.929 . S
C160 C157 1.394 . S
C160 C159 1.396 . S
C160 H169 0.930 . S
C161 C158 1.383 . S
C161 C159 1.365 . S
C161 H170 0.931 . S
C162 C157 1.370 . S
C162 C158 1.395 . S
C162 H171 0.930 . S
C163 Gd99 2.805 . S
C163 O139 1.263 . S
C163 O140 1.252 . S
C163 C157 1.500 . S
H164 C147 0.929 . S
H165 C148 0.930 . S
H166 C149 0.931 . S
H167 C150 0.930 . S
H168 C159 0.929 . S
H169 C160 0.930 . S
H170 C161 0.931 . S
H171 C162 0.930 . S
C172 C174 1.422 . S
C172 C176 1.415 . S
C172 N178 1.369 . S
C173 C174 1.421 . S
C173 C175 1.417 . S
C173 C185 1.422 . S
C174 C172 1.422 . S
C174 C173 1.421 . S
C174 N184 1.359 . S
C175 C173 1.417 . S
C175 C177 1.329 . S
C175 H194 0.930 . S
C176 C172 1.415 . S
C176 C177 1.437 . S
C176 C180 1.413 . S
C177 C175 1.329 . S
C177 C176 1.437 . S
C177 H199 0.929 . S
N178 C172 1.369 . S
N178 C179 1.338 . S
N178 Gd183 2.622 . S
C179 N178 1.338 . S
C179 C181 1.378 . S
C179 H191 0.929 . S
C180 C176 1.413 . S
C180 C181 1.348 . S
C180 H196 0.931 . S
C181 C179 1.378 . S
C181 C180 1.348 . S
C181 H197 0.930 . S
Gd182 N202 2.622 . S
Gd182 N209 2.570 . S
Gd182 O216 2.353 . S
Gd182 O217 2.468 . S
Gd182 O218 2.427 . S
Gd182 O220 2.388 . S
Gd182 O221 2.386 . S
Gd182 O225 2.307 . S
Gd182 C235 2.805 . S
Gd183 N178 2.622 . S
Gd183 N184 2.570 . S
Gd183 O215 2.386 . S
Gd183 O219 2.307 . S
Gd183 O222 2.353 . S
Gd183 O223 2.468 . S
Gd183 O224 2.427 . S
Gd183 O226 2.388 . S
Gd183 C247 2.805 . S
N184 C174 1.359 . S
N184 Gd183 2.570 . S
N184 C186 1.343 . S
C185 C173 1.422 . S
C185 C187 1.321 . S
C185 H193 0.931 . S
C186 N184 1.343 . S
C186 C187 1.390 . S
C186 H188 0.931 . S
C187 C185 1.321 . S
C187 C186 1.390 . S
C187 H189 0.930 . S
H188 C186 0.931 . S
H189 C187 0.930 . S
H190 C213 0.931 . S
H191 C179 0.929 . S
H192 C214 0.930 . S
H193 C185 0.931 . S
H194 C175 0.930 . S
H195 C204 0.929 . S
H196 C180 0.931 . S
H197 C181 0.930 . S
H198 C236 0.930 . S
H199 C177 0.929 . S
H200 C205 0.931 . S
H201 C206 0.930 . S
N202 Gd182 2.622 . S
N202 C203 1.369 . S
N202 C204 1.338 . S
C203 N202 1.369 . S
C203 C207 1.415 . S
C203 C210 1.422 . S
C204 H195 0.929 . S
C204 N202 1.338 . S
C204 C206 1.378 . S
C205 H200 0.931 . S
C205 C206 1.348 . S
C205 C207 1.413 . S
C206 H201 0.930 . S
C206 C204 1.378 . S
C206 C205 1.348 . S
C207 C203 1.415 . S
C207 C205 1.413 . S
C207 C237 1.437 . S
H208 C237 0.929 . S
N209 Gd182 2.570 . S
N209 C210 1.359 . S
N209 C213 1.343 . S
C210 C203 1.422 . S
C210 N209 1.359 . S
C210 C212 1.421 . S
C211 C212 1.422 . S
C211 C214 1.321 . S
C211 H238 0.931 . S
C212 C210 1.421 . S
C212 C211 1.422 . S
C212 C236 1.417 . S
C213 H190 0.931 . S
C213 N209 1.343 . S
C213 C214 1.390 . S
C214 H192 0.930 . S
C214 C211 1.321 . S
C214 C213 1.390 . S
O215 Gd183 2.386 . S
O215 C227 1.265 . S
O216 Gd182 2.353 . S
O216 C227 1.242 . S
O217 Gd182 2.468 . S
O217 C235 1.263 . S
O218 Gd182 2.427 . S
O218 C235 1.252 . S
O219 Gd183 2.307 . S
O219 C228 1.261 . S
O220 Gd182 2.388 . S
O220 C228 1.252 . S
O221 Gd182 2.386 . S
O221 C239 1.265 . S
O222 Gd183 2.353 . S
O222 C239 1.242 . S
O223 Gd183 2.468 . S
O223 C247 1.263 . S
O224 Gd183 2.427 . S
O224 C247 1.252 . S
O225 Gd182 2.307 . S
O225 C240 1.261 . S
O226 Gd183 2.388 . S
O226 C240 1.252 . S
C227 O215 1.265 . S
C227 O216 1.242 . S
C228 O219 1.261 . S
C228 O220 1.252 . S
C229 C232 1.394 . S
C229 C234 1.370 . S
C229 C235 1.500 . S
C230 C233 1.383 . S
C230 C234 1.395 . S
C231 C232 1.396 . S
C231 C233 1.365 . S
C231 H248 0.929 . S
C232 C229 1.394 . S
C232 C231 1.396 . S
C232 H249 0.930 . S
C233 C230 1.383 . S
C233 C231 1.365 . S
C233 H250 0.931 . S
C234 C229 1.370 . S
C234 C230 1.395 . S
C234 H251 0.930 . S
C235 Gd182 2.805 . S
C235 O217 1.263 . S
C235 O218 1.252 . S
C235 C229 1.500 . S
C236 H198 0.930 . S
C236 C212 1.417 . S
C236 C237 1.329 . S
C237 C207 1.437 . S
C237 H208 0.929 . S
C237 C236 1.329 . S
H238 C211 0.931 . S
C239 O221 1.265 . S
C239 O222 1.242 . S
C240 O225 1.261 . S
C240 O226 1.252 . S
C241 C244 1.394 . S
C241 C246 1.370 . S
C241 C247 1.500 . S
C242 C245 1.383 . S
C242 C246 1.395 . S
C243 C244 1.396 . S
C243 C245 1.365 . S
C243 H252 0.929 . S
C244 C241 1.394 . S
C244 C243 1.396 . S
C244 H253 0.930 . S
C245 C242 1.383 . S
C245 C243 1.365 . S
C245 H254 0.931 . S
C246 C241 1.370 . S
C246 C242 1.395 . S
C246 H255 0.930 . S
C247 Gd183 2.805 . S
C247 O223 1.263 . S
C247 O224 1.252 . S
C247 C241 1.500 . S
H248 C231 0.929 . S
H249 C232 0.930 . S
H250 C233 0.931 . S
H251 C234 0.930 . S
H252 C243 0.929 . S
H253 C244 0.930 . S
H254 C245 0.931 . S
H255 C246 0.930 . S
C256 C258 1.422 . S
C256 C260 1.415 . S
C256 N262 1.369 . S
C257 C258 1.421 . S
C257 C259 1.417 . S
C257 C269 1.422 . S
C258 C256 1.422 . S
C258 C257 1.421 . S
C258 N268 1.359 . S
C259 C257 1.417 . S
C259 C261 1.329 . S
C259 H278 0.930 . S
C260 C256 1.415 . S
C260 C261 1.437 . S
C260 C264 1.413 . S
C261 C259 1.329 . S
C261 C260 1.437 . S
C261 H283 0.929 . S
N262 C256 1.369 . S
N262 C263 1.338 . S
N262 Gd267 2.622 . S
C263 N262 1.338 . S
C263 C265 1.378 . S
C263 H275 0.929 . S
C264 C260 1.413 . S
C264 C265 1.348 . S
C264 H280 0.931 . S
C265 C263 1.378 . S
C265 C264 1.348 . S
C265 H281 0.930 . S
Gd266 N286 2.622 . S
Gd266 N293 2.570 . S
Gd266 O300 2.352 . S
Gd266 O301 2.468 . S
Gd266 O302 2.427 . S
Gd266 O304 2.388 . S
Gd266 O305 2.386 . S
Gd266 O309 2.314 . S
Gd266 C319 2.805 . S
Gd267 N262 2.622 . S
Gd267 N268 2.570 . S
Gd267 O299 2.386 . S
Gd267 O303 2.307 1_655 S
Gd267 O306 2.353 1_655 S
Gd267 O307 2.468 . S
Gd267 O308 2.427 . S
Gd267 O310 2.388 . S
Gd267 C331 2.805 . S
N268 C258 1.359 . S
N268 Gd267 2.570 . S
N268 C270 1.343 . S
C269 C257 1.422 . S
C269 C271 1.321 . S
C269 H277 0.931 . S
C270 N268 1.343 . S
C270 C271 1.390 . S
C270 H272 0.931 . S
C271 C269 1.321 . S
C271 C270 1.390 . S
C271 H273 0.930 . S
H272 C270 0.931 . S
H273 C271 0.930 . S
H274 C297 0.931 . S
H275 C263 0.929 . S
H276 C298 0.961 . S
H277 C269 0.931 . S
H278 C259 0.930 . S
H279 C288 0.929 . S
H280 C264 0.931 . S
H281 C265 0.930 . S
H282 C320 0.930 . S
H283 C261 0.929 . S
H284 C289 0.931 . S
H285 C290 0.930 . S
N286 Gd266 2.622 . S
N286 C287 1.369 . S
N286 C288 1.338 . S
C287 N286 1.369 . S
C287 C291 1.415 . S
C287 C294 1.422 . S
C288 H279 0.929 . S
C288 N286 1.338 . S
C288 C290 1.378 . S
C289 H284 0.931 . S
C289 C290 1.348 . S
C289 C291 1.413 . S
C290 H285 0.930 . S
C290 C288 1.378 . S
C290 C289 1.348 . S
C291 C287 1.415 . S
C291 C289 1.413 . S
C291 C321 1.437 . S
H292 C321 0.929 . S
N293 Gd266 2.570 . S
N293 C294 1.359 . S
N293 C297 1.343 . S
C294 C287 1.422 . S
C294 N293 1.359 . S
C294 C296 1.421 . S
C295 C296 1.422 1_545 S
C295 C298 1.324 . S
C295 H322 0.931 . S
C296 C294 1.421 . S
C296 C295 1.422 1_565 S
C296 C320 1.417 . S
C297 H274 0.931 . S
C297 N293 1.343 . S
C297 C298 1.357 1_565 S
C298 H276 0.961 . S
C298 C295 1.324 . S
C298 C297 1.357 1_545 S
O299 Gd267 2.386 . S
O299 C311 1.265 . S
O300 Gd266 2.352 . S
O300 C311 1.243 1_455 S
O301 Gd266 2.468 . S
O301 C319 1.263 . S
O302 Gd266 2.427 . S
O302 C319 1.252 . S
O303 Gd267 2.307 1_455 S
O303 C312 1.261 . S
O304 Gd266 2.388 . S
O304 C312 1.252 . S
O305 Gd266 2.386 . S
O305 C323 1.265 . S
O306 Gd267 2.353 1_455 S
O306 C323 1.242 . S
O307 Gd267 2.468 . S
O307 C331 1.263 . S
O308 Gd267 2.427 . S
O308 C331 1.252 . S
O309 Gd266 2.314 . S
O309 C324 1.252 1_455 S
O310 Gd267 2.388 . S
O310 C324 1.252 . S
C311 O299 1.265 . S
C311 O300 1.243 1_655 S
C312 O303 1.261 . S
C312 O304 1.252 . S
C313 C316 1.394 . S
C313 C318 1.370 . S
C313 C319 1.500 . S
C314 C317 1.383 . S
C314 C318 1.395 . S
C315 C316 1.396 . S
C315 C317 1.365 . S
C315 H332 0.929 . S
C316 C313 1.394 . S
C316 C315 1.396 . S
C316 H333 0.930 . S
C317 C314 1.383 . S
C317 C315 1.365 . S
C317 H334 0.931 . S
C318 C313 1.370 . S
C318 C314 1.395 . S
C318 H335 0.930 . S
C319 Gd266 2.805 . S
C319 O301 1.263 . S
C319 O302 1.252 . S
C319 C313 1.500 . S
C320 H282 0.930 . S
C320 C296 1.417 . S
C320 C321 1.329 . S
C321 C291 1.437 . S
C321 H292 0.929 . S
C321 C320 1.329 . S
H322 C295 0.931 . S
C323 O305 1.265 . S
C323 O306 1.242 . S
C324 O309 1.252 1_655 S
C324 O310 1.252 . S
C325 C328 1.394 . S
C325 C330 1.370 . S
C325 C331 1.500 . S
C326 C329 1.383 . S
C326 C330 1.395 . S
C327 C328 1.396 . S
C327 C329 1.365 . S
C327 H336 0.929 . S
C328 C325 1.394 . S
C328 C327 1.396 . S
C328 H337 0.930 . S
C329 C326 1.383 . S
C329 C327 1.365 . S
C329 H338 0.931 . S
C330 C325 1.370 . S
C330 C326 1.395 . S
C330 H339 0.930 . S
C331 Gd267 2.805 . S
C331 O307 1.263 . S
C331 O308 1.252 . S
C331 C325 1.500 . S
H332 C315 0.929 . S
H333 C316 0.930 . S
H334 C317 0.931 . S
H335 C318 0.930 . S
H336 C327 0.929 . S
H337 C328 0.930 . S
H338 C329 0.931 . S
H339 C330 0.930 . S
C340 C342 1.422 . S
C340 C344 1.415 . S
C340 N346 1.369 . S
C341 C342 1.421 . S
C341 C343 1.417 . S
C341 C353 1.422 . S
C342 C340 1.422 . S
C342 C341 1.421 . S
C342 N352 1.359 . S
C343 C341 1.417 . S
C343 C345 1.329 . S
C343 H362 0.930 . S
C344 C340 1.415 . S
C344 C345 1.437 . S
C344 C348 1.413 . S
C345 C343 1.329 . S
C345 C344 1.437 . S
C345 H367 0.929 . S
N346 C340 1.369 . S
N346 C347 1.338 . S
N346 Gd351 2.622 . S
C347 N346 1.338 . S
C347 C349 1.378 . S
C347 H359 0.929 . S
C348 C344 1.413 . S
C348 C349 1.348 . S
C348 H364 0.931 . S
C349 C347 1.378 . S
C349 C348 1.348 . S
C349 H365 0.930 . S
Gd350 N370 2.622 . S
Gd350 N377 2.570 . S
Gd350 O384 2.353 . S
Gd350 O385 2.468 . S
Gd350 O386 2.427 . S
Gd350 O388 2.388 . S
Gd350 O389 2.386 . S
Gd350 O393 2.307 . S
Gd350 C403 2.805 . S
Gd351 N346 2.622 . S
Gd351 N352 2.570 . S
Gd351 O383 2.386 . S
Gd351 O387 2.307 . S
Gd351 O390 2.353 . S
Gd351 O391 2.468 . S
Gd351 O392 2.427 . S
Gd351 O394 2.388 . S
Gd351 C415 2.805 . S
N352 C342 1.359 . S
N352 Gd351 2.570 . S
N352 C354 1.343 . S
C353 C341 1.422 . S
C353 C355 1.321 . S
C353 H361 0.931 . S
C354 N352 1.343 . S
C354 C355 1.390 . S
C354 H356 0.931 . S
C355 C353 1.321 . S
C355 C354 1.390 . S
C355 H357 0.930 . S
H356 C354 0.931 . S
H357 C355 0.930 . S
H358 C381 0.931 . S
H359 C347 0.929 . S
H360 C382 0.930 . S
H361 C353 0.931 . S
H362 C343 0.930 . S
H363 C372 0.929 . S
H364 C348 0.931 . S
H365 C349 0.930 . S
H366 C404 0.930 . S
H367 C345 0.929 . S
H368 C373 0.931 . S
H369 C374 0.930 . S
N370 Gd350 2.622 . S
N370 C371 1.369 . S
N370 C372 1.338 . S
C371 N370 1.369 . S
C371 C375 1.415 . S
C371 C378 1.422 . S
C372 H363 0.929 . S
C372 N370 1.338 . S
C372 C374 1.378 . S
C373 H368 0.931 . S
C373 C374 1.348 . S
C373 C375 1.413 . S
C374 H369 0.930 . S
C374 C372 1.378 . S
C374 C373 1.348 . S
C375 C371 1.415 . S
C375 C373 1.413 . S
C375 C405 1.437 . S
H376 C405 0.929 . S
N377 Gd350 2.570 . S
N377 C378 1.359 . S
N377 C381 1.343 . S
C378 C371 1.422 . S
C378 N377 1.359 . S
C378 C380 1.421 . S
C379 C380 1.422 . S
C379 C382 1.321 . S
C379 H406 0.931 . S
C380 C378 1.421 . S
C380 C379 1.422 . S
C380 C404 1.417 . S
C381 H358 0.931 . S
C381 N377 1.343 . S
C381 C382 1.390 . S
C382 H360 0.930 . S
C382 C379 1.321 . S
C382 C381 1.390 . S
O383 Gd351 2.386 . S
O383 C395 1.265 . S
O384 Gd350 2.353 . S
O384 C395 1.242 . S
O385 Gd350 2.468 . S
O385 C403 1.263 . S
O386 Gd350 2.427 . S
O386 C403 1.252 . S
O387 Gd351 2.307 . S
O387 C396 1.261 . S
O388 Gd350 2.388 . S
O388 C396 1.252 . S
O389 Gd350 2.386 . S
O389 C407 1.265 . S
O390 Gd351 2.353 . S
O390 C407 1.242 . S
O391 Gd351 2.468 . S
O391 C415 1.263 . S
O392 Gd351 2.427 . S
O392 C415 1.252 . S
O393 Gd350 2.307 . S
O393 C408 1.261 . S
O394 Gd351 2.388 . S
O394 C408 1.252 . S
C395 O383 1.265 . S
C395 O384 1.242 . S
C396 O387 1.261 . S
C396 O388 1.252 . S
C397 C400 1.394 . S
C397 C402 1.370 . S
C397 C403 1.500 . S
C398 C401 1.383 . S
C398 C402 1.395 . S
C399 C400 1.396 . S
C399 C401 1.365 . S
C399 H416 0.929 . S
C400 C397 1.394 . S
C400 C399 1.396 . S
C400 H417 0.930 . S
C401 C398 1.383 . S
C401 C399 1.365 . S
C401 H418 0.931 . S
C402 C397 1.370 . S
C402 C398 1.395 . S
C402 H419 0.930 . S
C403 Gd350 2.805 . S
C403 O385 1.263 . S
C403 O386 1.252 . S
C403 C397 1.500 . S
C404 H366 0.930 . S
C404 C380 1.417 . S
C404 C405 1.329 . S
C405 C375 1.437 . S
C405 H376 0.929 . S
C405 C404 1.329 . S
H406 C379 0.931 . S
C407 O389 1.265 . S
C407 O390 1.242 . S
C408 O393 1.261 . S
C408 O394 1.252 . S
C409 C412 1.394 . S
C409 C414 1.370 . S
C409 C415 1.500 . S
C410 C413 1.383 . S
C410 C414 1.395 . S
C411 C412 1.396 . S
C411 C413 1.365 . S
C411 H420 0.929 . S
C412 C409 1.394 . S
C412 C411 1.396 . S
C412 H421 0.930 . S
C413 C410 1.383 . S
C413 C411 1.365 . S
C413 H422 0.931 . S
C414 C409 1.370 . S
C414 C410 1.395 . S
C414 H423 0.930 . S
C415 Gd351 2.805 . S
C415 O391 1.263 . S
C415 O392 1.252 . S
C415 C409 1.500 . S
H416 C399 0.929 . S
H417 C400 0.930 . S
H418 C401 0.931 . S
H419 C402 0.930 . S
H420 C411 0.929 . S
H421 C412 0.930 . S
H422 C413 0.931 . S
H423 C414 0.930 . S
H424 C432 0.950 . S
H425 C437 0.950 . S
H426 C434 0.950 . S
H427 C436 0.950 . S
H428 C438 0.950 . S
H429 C440 0.950 . S
H430 C442 0.950 . S
H431 C443 0.950 . S
C432 H424 0.950 . S
C432 C433 1.386 . S
C432 C434 1.391 . S
C433 C432 1.386 . S
C433 C437 1.393 . S
C434 H426 0.950 . S
C434 C432 1.391 . S
C434 C435 1.400 . S
C435 C434 1.400 . S
C435 C436 1.398 . S
C435 C441 1.491 . S
C436 H427 0.950 . S
C436 C435 1.398 . S
C436 C437 1.391 . S
C437 H425 0.950 . S
C437 C433 1.393 . S
C437 C436 1.391 . S
C438 H428 0.950 . S
C438 C439 1.386 . S
C438 C440 1.391 . S
C439 C438 1.386 . S
C439 C443 1.393 . S
C440 H429 0.950 . S
C440 C438 1.391 . S
C440 C441 1.400 1_545 S
C441 C435 1.491 . S
C441 C440 1.400 1_565 S
C441 C442 1.398 . S
C442 H430 0.950 . S
C442 C441 1.398 . S
C442 C443 1.391 1_565 S
C443 H431 0.950 . S
C443 C439 1.393 . S
C443 C442 1.391 1_545 S
H444 C452 0.950 . S
H445 C457 0.950 . S
H446 C454 0.950 . S
H447 C456 0.950 . S
H448 C458 0.950 . S
H449 C460 0.950 . S
H450 C462 0.950 . S
H451 C463 0.950 . S
C452 H444 0.950 . S
C452 C453 1.386 . S
C452 C454 1.391 . S
C453 C452 1.386 . S
C453 C457 1.393 . S
C454 H446 0.950 . S
C454 C452 1.391 . S
C454 C455 1.400 . S
C455 C454 1.400 . S
C455 C456 1.398 . S
C455 C461 1.491 . S
C456 H447 0.950 . S
C456 C455 1.398 . S
C456 C457 1.391 . S
C457 H445 0.950 . S
C457 C453 1.393 . S
C457 C456 1.391 . S
C458 H448 0.950 . S
C458 C459 1.386 . S
C458 C460 1.391 . S
C459 C458 1.386 . S
C459 C463 1.393 . S
C460 H449 0.950 . S
C460 C458 1.391 . S
C460 C461 1.400 . S
C461 C455 1.491 . S
C461 C460 1.400 . S
C461 C462 1.398 . S
C462 H450 0.950 . S
C462 C461 1.398 . S
C462 C463 1.391 . S
C463 H451 0.950 . S
C463 C459 1.393 . S
C463 C462 1.391 . S
H464 C472 0.950 . S
H465 C477 0.950 . S
H466 C474 0.950 . S
H467 C476 0.950 . S
H468 C478 0.950 . S
H469 C480 0.950 . S
H470 C482 0.950 . S
H471 C483 0.950 . S
C472 H464 0.950 . S
C472 C473 1.386 . S
C472 C474 1.391 . S
C473 C472 1.386 . S
C473 C477 1.393 . S
C474 H466 0.950 . S
C474 C472 1.391 . S
C474 C475 1.400 . S
C475 C474 1.400 . S
C475 C476 1.398 . S
C475 C481 1.491 . S
C476 H467 0.950 . S
C476 C475 1.398 . S
C476 C477 1.391 . S
C477 H465 0.950 . S
C477 C473 1.393 . S
C477 C476 1.391 . S
C478 H468 0.950 . S
C478 C479 1.386 . S
C478 C480 1.391 . S
C479 C478 1.386 . S
C479 C483 1.393 . S
C480 H469 0.950 . S
C480 C478 1.391 . S
C480 C481 1.400 . S
C481 C475 1.491 . S
C481 C480 1.400 . S
C481 C482 1.398 . S
C482 H470 0.950 . S
C482 C481 1.398 . S
C482 C483 1.391 . S
C483 H471 0.950 . S
C483 C479 1.393 . S
C483 C482 1.391 . S
H484 C492 0.950 . S
H485 C497 0.950 . S
H486 C494 0.950 . S
H487 C496 0.950 . S
H488 C498 0.950 . S
H489 C500 0.950 . S
H490 C502 0.950 . S
H491 C503 0.950 . S
C492 H484 0.950 . S
C492 C493 1.386 . S
C492 C494 1.391 . S
C493 C492 1.386 . S
C493 C497 1.393 . S
C494 H486 0.950 . S
C494 C492 1.391 . S
C494 C495 1.400 . S
C495 C494 1.400 . S
C495 C496 1.398 . S
C495 C501 1.491 . S
C496 H487 0.950 . S
C496 C495 1.398 . S
C496 C497 1.391 . S
C497 H485 0.950 . S
C497 C493 1.393 . S
C497 C496 1.391 . S
C498 H488 0.950 . S
C498 C499 1.386 . S
C498 C500 1.391 1_545 S
C499 C498 1.386 . S
C499 C503 1.393 . S
C500 H489 0.950 . S
C500 C498 1.391 1_565 S
C500 C501 1.400 . S
C501 C495 1.491 . S
C501 C500 1.400 . S
C501 C502 1.398 1_565 S
C502 H490 0.950 . S
C502 C501 1.398 1_545 S
C502 C503 1.391 . S
C503 H491 0.950 . S
C503 C499 1.393 . S
C503 C502 1.391 . S
H504 C512 0.950 . S
H505 C517 0.950 . S
H506 C514 0.950 . S
H507 C516 0.950 . S
H508 C518 0.950 . S
H509 C520 0.950 . S
H510 C522 0.950 1_545 S
H511 C523 0.950 . S
C512 H504 0.950 . S
C512 C513 1.386 . S
C512 C514 1.391 . S
C513 C512 1.386 . S
C513 C517 1.393 . S
C514 H506 0.950 . S
C514 C512 1.391 . S
C514 C515 1.400 . S
C515 C514 1.400 . S
C515 C516 1.398 . S
C515 C521 1.491 . S
C516 H507 0.950 . S
C516 C515 1.398 . S
C516 C517 1.391 . S
C517 H505 0.950 . S
C517 C513 1.393 . S
C517 C516 1.391 . S
C518 H508 0.950 . S
C518 C519 1.386 . S
C518 C520 1.391 1_565 S
C519 C518 1.386 . S
C519 C523 1.393 . S
C520 H509 0.950 . S
C520 C518 1.391 1_545 S
C520 C521 1.400 . S
C521 C515 1.491 . S
C521 C520 1.400 . S
C521 C522 1.398 1_545 S
C522 H510 0.950 1_565 S
C522 C521 1.398 1_565 S
C522 C523 1.391 . S
C523 H511 0.950 . S
C523 C519 1.393 . S
C523 C522 1.391 . S
H524 C532 0.950 . S
H525 C537 0.950 . S
H526 C534 0.950 . S
H527 C536 0.950 . S
H528 C538 0.950 . S
H529 C540 0.950 . S
H530 C542 0.950 . S
H531 C543 0.950 . S
C532 H524 0.950 . S
C532 C533 1.386 . S
C532 C534 1.391 . S
C533 C532 1.386 . S
C533 C537 1.393 . S
C534 H526 0.950 . S
C534 C532 1.391 . S
C534 C535 1.400 . S
C535 C534 1.400 . S
C535 C536 1.398 . S
C535 C541 1.491 . S
C536 H527 0.950 . S
C536 C535 1.398 . S
C536 C537 1.391 . S
C537 H525 0.950 . S
C537 C533 1.393 . S
C537 C536 1.391 . S
C538 H528 0.950 . S
C538 C539 1.386 . S
C538 C540 1.391 . S
C539 C538 1.386 . S
C539 C543 1.393 . S
C540 H529 0.950 . S
C540 C538 1.391 . S
C540 C541 1.400 . S
C541 C535 1.491 . S
C541 C540 1.400 . S
C541 C542 1.398 . S
C542 H530 0.950 . S
C542 C541 1.398 . S
C542 C543 1.391 . S
C543 H531 0.950 . S
C543 C539 1.393 . S
C543 C542 1.391 . S
H544 C552 0.950 . S
H545 C557 0.950 . S
H546 C554 0.950 . S
H547 C556 0.950 . S
H548 C558 0.950 . S
H549 C560 0.950 . S
H550 C562 0.950 . S
H551 C563 0.950 . S
C552 H544 0.950 . S
C552 C553 1.386 . S
C552 C554 1.391 . S
C553 C552 1.386 . S
C553 C557 1.393 . S
C554 H546 0.950 . S
C554 C552 1.391 . S
C554 C555 1.400 . S
C555 C554 1.400 . S
C555 C556 1.398 . S
C555 C561 1.491 . S
C556 H547 0.950 . S
C556 C555 1.398 . S
C556 C557 1.391 . S
C557 H545 0.950 . S
C557 C553 1.393 . S
C557 C556 1.391 . S
C558 H548 0.950 . S
C558 C559 1.386 . S
C558 C560 1.391 . S
C559 C558 1.386 . S
C559 C563 1.393 . S
C560 H549 0.950 . S
C560 C558 1.391 . S
C560 C561 1.400 . S
C561 C555 1.491 . S
C561 C560 1.400 . S
C561 C562 1.398 . S
C562 H550 0.950 . S
C562 C561 1.398 . S
C562 C563 1.391 . S
C563 H551 0.950 . S
C563 C559 1.393 . S
C563 C562 1.391 . S
H564 C572 0.950 . S
H565 C577 0.950 . S
H566 C574 0.950 . S
H567 C576 0.950 . S
H568 C578 0.950 . S
H569 C580 0.946 1_545 S
H570 C582 0.950 . S
H571 C583 0.950 . S
C572 H564 0.950 . S
C572 C573 1.386 . S
C572 C574 1.391 . S
C573 C572 1.386 . S
C573 C577 1.393 . S
C574 H566 0.950 . S
C574 C572 1.391 . S
C574 C575 1.400 . S
C575 C574 1.400 . S
C575 C576 1.398 . S
C575 C581 1.491 . S
C576 H567 0.950 . S
C576 C575 1.398 . S
C576 C577 1.391 . S
C577 H565 0.950 . S
C577 C573 1.393 . S
C577 C576 1.391 . S
C578 H568 0.950 . S
C578 C579 1.386 . S
C578 C580 1.402 . S
C579 C578 1.386 . S
C579 C583 1.393 . S
C580 H569 0.946 1_565 S
C580 C578 1.402 . S
C580 C581 1.394 1_565 S
C581 C575 1.491 . S
C581 C580 1.394 1_545 S
C581 C582 1.398 . S
C582 H570 0.950 . S
C582 C581 1.398 . S
C582 C583 1.391 1_545 S
C583 H571 0.950 . S
C583 C579 1.393 . S
C583 C582 1.391 1_565 S
H584 C592 0.950 . S
H585 C597 0.950 . S
H586 C594 0.950 . S
H587 C596 0.950 . S
H588 C598 0.950 . S
H589 C600 0.950 . S
H590 C602 0.950 . S
H591 C603 0.950 . S
C592 H584 0.950 . S
C592 C593 1.386 . S
C592 C594 1.391 1_556 S
C593 C592 1.386 . S
C593 C597 1.393 . S
C594 H586 0.950 . S
C594 C592 1.391 1_554 S
C594 C595 1.400 . S
C595 C594 1.400 . S
C595 C596 1.398 1_554 S
C595 C601 1.491 . S
C596 H587 0.950 . S
C596 C595 1.398 1_556 S
C596 C597 1.391 . S
C597 H585 0.950 . S
C597 C593 1.393 . S
C597 C596 1.391 . S
C598 H588 0.950 . S
C598 C599 1.386 . S
C598 C600 1.391 . S
C599 C598 1.386 . S
C599 C603 1.393 . S
C600 H589 0.950 . S
C600 C598 1.391 . S
C600 C601 1.400 . S
C601 C595 1.491 . S
C601 C600 1.400 . S
C601 C602 1.398 . S
C602 H590 0.950 . S
C602 C601 1.398 . S
C602 C603 1.391 . S
C603 H591 0.950 . S
C603 C599 1.393 . S
C603 C602 1.391 . S
H604 C612 0.950 . S
H605 C617 0.950 . S
H606 C614 0.950 . S
H607 C616 0.950 . S
H608 C618 0.950 . S
H609 C620 0.950 . S
H610 C622 0.950 . S
H611 C623 0.950 . S
C612 H604 0.950 . S
C612 C613 1.386 . S
C612 C614 1.391 . S
C613 C612 1.386 . S
C613 C617 1.393 . S
C614 H606 0.950 . S
C614 C612 1.391 . S
C614 C615 1.400 . S
C615 C614 1.400 . S
C615 C616 1.398 . S
C615 C621 1.491 . S
C616 H607 0.950 . S
C616 C615 1.398 . S
C616 C617 1.391 . S
C617 H605 0.950 . S
C617 C613 1.393 . S
C617 C616 1.391 . S
C618 H608 0.950 . S
C618 C619 1.386 . S
C618 C620 1.391 . S
C619 C618 1.386 . S
C619 C623 1.393 . S
C620 H609 0.950 . S
C620 C618 1.391 . S
C620 C621 1.400 . S
C621 C615 1.491 . S
C621 C620 1.400 . S
C621 C622 1.398 . S
C622 H610 0.950 . S
C622 C621 1.398 . S
C622 C623 1.391 . S
C623 H611 0.950 . S
C623 C619 1.393 . S
C623 C622 1.391 . S
H624 C632 0.950 . S
H625 C637 0.950 . S
H626 C634 0.950 . S
H627 C636 0.950 . S
H628 C638 0.950 . S
H629 C640 0.950 . S
H630 C642 0.950 . S
H631 C643 0.950 . S
C632 H624 0.950 . S
C632 C633 1.386 . S
C632 C634 1.391 1_554 S
C633 C632 1.386 . S
C633 C637 1.393 . S
C634 H626 0.950 . S
C634 C632 1.391 1_556 S
C634 C635 1.400 . S
C635 C634 1.400 . S
C635 C636 1.398 1_556 S
C635 C641 1.491 . S
C636 H627 0.950 . S
C636 C635 1.398 1_554 S
C636 C637 1.391 . S
C637 H625 0.950 . S
C637 C633 1.393 . S
C637 C636 1.391 . S
C638 H628 0.950 . S
C638 C639 1.386 . S
C638 C640 1.391 . S
C639 C638 1.386 . S
C639 C643 1.393 . S
C640 H629 0.950 . S
C640 C638 1.391 . S
C640 C641 1.400 . S
C641 C635 1.491 . S
C641 C640 1.400 . S
C641 C642 1.398 . S
C642 H630 0.950 . S
C642 C641 1.398 . S
C642 C643 1.391 . S
C643 H631 0.950 . S
C643 C639 1.393 . S
C643 C642 1.391 . S
H644 C652 0.950 . S
H645 C657 0.950 . S
H646 C654 0.950 . S
H647 C656 0.950 . S
H648 C658 0.950 . S
H649 C660 0.950 . S
H650 C662 0.950 . S
H651 C663 0.950 . S
C652 H644 0.950 . S
C652 C653 1.386 . S
C652 C654 1.391 . S
C653 C652 1.386 . S
C653 C657 1.393 . S
C654 H646 0.950 . S
C654 C652 1.391 . S
C654 C655 1.400 . S
C655 C654 1.400 . S
C655 C656 1.398 . S
C655 C661 1.491 . S
C656 H647 0.950 . S
C656 C655 1.398 . S
C656 C657 1.391 . S
C657 H645 0.950 . S
C657 C653 1.393 . S
C657 C656 1.391 . S
C658 H648 0.950 . S
C658 C659 1.386 . S
C658 C660 1.391 . S
C659 C658 1.386 . S
C659 C663 1.393 . S
C660 H649 0.950 . S
C660 C658 1.391 . S
C660 C661 1.400 . S
C661 C655 1.491 . S
C661 C660 1.400 . S
C661 C662 1.398 . S
C662 H650 0.950 . S
C662 C661 1.398 . S
C662 C663 1.391 . S
C663 H651 0.950 . S
C663 C659 1.393 . S
C663 C662 1.391 . S
H664 C672 0.950 . S
H665 C677 0.950 . S
H666 C674 0.950 1_556 S
H667 C676 0.950 . S
H668 C678 0.950 . S
H669 C680 0.950 . S
H670 C682 0.950 . S
H671 C683 0.950 . S
C672 H664 0.950 . S
C672 C673 1.386 . S
C672 C674 1.391 . S
C673 C672 1.386 . S
C673 C677 1.393 . S
C674 H666 0.950 1_554 S
C674 C672 1.391 . S
C674 C675 1.400 1_554 S
C675 C674 1.400 1_556 S
C675 C676 1.398 1_556 S
C675 C681 1.491 . S
C676 H667 0.950 . S
C676 C675 1.398 1_554 S
C676 C677 1.391 . S
C677 H665 0.950 . S
C677 C673 1.393 . S
C677 C676 1.391 . S
C678 H668 0.950 . S
C678 C679 1.386 . S
C678 C680 1.391 . S
C679 C678 1.386 . S
C679 C683 1.393 . S
C680 H669 0.950 . S
C680 C678 1.391 . S
C680 C681 1.400 . S
C681 C675 1.491 . S
C681 C680 1.400 . S
C681 C682 1.398 . S
C682 H670 0.950 . S
C682 C681 1.398 . S
C682 C683 1.391 . S
C683 H671 0.950 . S
C683 C679 1.393 . S
C683 C682 1.391 . S
H684 C692 0.950 . S
H685 C697 0.950 . S
H686 C694 0.950 . S
H687 C696 0.950 . S
H688 C698 0.950 . S
H689 C700 0.950 . S
H690 C702 0.950 . S
H691 C703 0.950 . S
C692 H684 0.950 . S
C692 C693 1.386 . S
C692 C694 1.391 . S
C693 C692 1.386 . S
C693 C697 1.393 . S
C694 H686 0.950 . S
C694 C692 1.391 . S
C694 C695 1.400 . S
C695 C694 1.400 . S
C695 C696 1.398 . S
C695 C701 1.491 . S
C696 H687 0.950 . S
C696 C695 1.398 . S
C696 C697 1.391 . S
C697 H685 0.950 . S
C697 C693 1.393 . S
C697 C696 1.391 . S
C698 H688 0.950 . S
C698 C699 1.386 . S
C698 C700 1.391 . S
C699 C698 1.386 . S
C699 C703 1.393 . S
C700 H689 0.950 . S
C700 C698 1.391 . S
C700 C701 1.400 . S
C701 C695 1.491 . S
C701 C700 1.400 . S
C701 C702 1.398 . S
C702 H690 0.950 . S
C702 C701 1.398 . S
C702 C703 1.391 . S
C703 H691 0.950 . S
C703 C699 1.393 . S
C703 C702 1.391 . S
H704 C712 0.950 . S
H705 C717 0.950 . S
H706 C714 0.950 1_554 S
H707 C716 0.950 . S
H708 C718 0.950 . S
H709 C720 0.950 . S
H710 C722 0.950 . S
H711 C723 0.950 . S
C712 H704 0.950 . S
C712 C713 1.386 . S
C712 C714 1.391 . S
C713 C712 1.386 . S
C713 C717 1.393 . S
C714 H706 0.950 1_556 S
C714 C712 1.391 . S
C714 C715 1.400 1_556 S
C715 C714 1.400 1_554 S
C715 C716 1.398 1_554 S
C715 C721 1.491 . S
C716 H707 0.950 . S
C716 C715 1.398 1_556 S
C716 C717 1.391 . S
C717 H705 0.950 . S
C717 C713 1.393 . S
C717 C716 1.391 . S
C718 H708 0.950 . S
C718 C719 1.386 . S
C718 C720 1.391 . S
C719 C718 1.386 . S
C719 C723 1.393 . S
C720 H709 0.950 . S
C720 C718 1.391 . S
C720 C721 1.400 . S
C721 C715 1.491 . S
C721 C720 1.400 . S
C721 C722 1.398 . S
C722 H710 0.950 . S
C722 C721 1.398 . S
C722 C723 1.391 . S
C723 H711 0.950 . S
C723 C719 1.393 . S
C723 C722 1.391 . S
H724 C732 0.950 . S
H725 C737 0.950 . S
H726 C734 0.950 . S
H727 C736 0.950 . S
H728 C738 0.950 . S
H729 C740 0.950 . S
H730 C742 0.950 . S
H731 C743 0.950 . S
C732 H724 0.950 . S
C732 C733 1.386 . S
C732 C734 1.391 . S
C733 C732 1.386 . S
C733 C737 1.393 . S
C734 H726 0.950 . S
C734 C732 1.391 . S
C734 C735 1.400 . S
C735 C734 1.400 . S
C735 C736 1.398 . S
C735 C741 1.491 . S
C736 H727 0.950 . S
C736 C735 1.398 . S
C736 C737 1.391 . S
C737 H725 0.950 . S
C737 C733 1.393 . S
C737 C736 1.391 . S
C738 H728 0.950 . S
C738 C739 1.386 . S
C738 C740 1.391 . S
C739 C738 1.386 . S
C739 C743 1.393 . S
C740 H729 0.950 . S
C740 C738 1.391 . S
C740 C741 1.400 . S
C741 C735 1.491 . S
C741 C740 1.400 . S
C741 C742 1.398 . S
C742 H730 0.950 . S
C742 C741 1.398 . S
C742 C743 1.391 . S
C743 H731 0.950 . S
C743 C739 1.393 . S
C743 C742 1.391 . S
H744 C752 0.950 . S
H745 C757 0.950 . S
H746 C754 0.950 . S
H747 C756 0.950 . S
H748 C758 0.950 . S
H749 C760 0.950 . S
H750 C762 0.950 . S
H751 C763 0.950 . S
C752 H744 0.950 . S
C752 C753 1.386 . S
C752 C754 1.391 . S
C753 C752 1.386 . S
C753 C757 1.393 . S
C754 H746 0.950 . S
C754 C752 1.391 . S
C754 C755 1.400 . S
C755 C754 1.400 . S
C755 C756 1.398 . S
C755 C761 1.491 . S
C756 H747 0.950 . S
C756 C755 1.398 . S
C756 C757 1.391 . S
C757 H745 0.950 . S
C757 C753 1.393 . S
C757 C756 1.391 . S
C758 H748 0.950 . S
C758 C759 1.386 . S
C758 C760 1.391 . S
C759 C758 1.386 . S
C759 C763 1.393 . S
C760 H749 0.950 . S
C760 C758 1.391 . S
C760 C761 1.400 . S
C761 C755 1.491 . S
C761 C760 1.400 . S
C761 C762 1.398 . S
C762 H750 0.950 . S
C762 C761 1.398 . S
C762 C763 1.391 . S
C763 H751 0.950 . S
C763 C759 1.393 . S
C763 C762 1.391 . S
H764 C772 0.950 . S
H765 C777 0.950 . S
H766 C774 0.950 . S
H767 C776 0.950 . S
H768 C778 0.950 . S
H769 C780 0.950 . S
H770 C782 0.950 . S
H771 C783 0.950 . S
C772 H764 0.950 . S
C772 C773 1.386 . S
C772 C774 1.391 . S
C773 C772 1.386 . S
C773 C777 1.393 . S
C774 H766 0.950 . S
C774 C772 1.391 . S
C774 C775 1.400 . S
C775 C774 1.400 . S
C775 C776 1.398 . S
C775 C781 1.491 . S
C776 H767 0.950 . S
C776 C775 1.398 . S
C776 C777 1.391 . S
C777 H765 0.950 . S
C777 C773 1.393 . S
C777 C776 1.391 . S
C778 H768 0.950 . S
C778 C779 1.386 . S
C778 C780 1.391 . S
C779 C778 1.386 . S
C779 C783 1.393 . S
C780 H769 0.950 . S
C780 C778 1.391 . S
C780 C781 1.400 . S
C781 C775 1.491 . S
C781 C780 1.400 . S
C781 C782 1.398 . S
C782 H770 0.950 . S
C782 C781 1.398 . S
C782 C783 1.391 . S
C783 H771 0.950 . S
C783 C779 1.393 . S
C783 C782 1.391 . S
H784 C792 0.950 . S
H785 C797 0.950 . S
H786 C794 0.950 . S
H787 C796 0.950 . S
H788 C798 0.950 . S
H789 C800 0.950 . S
H790 C802 0.950 . S
H791 C803 0.950 . S
C792 H784 0.950 . S
C792 C793 1.386 . S
C792 C794 1.391 . S
C793 C792 1.386 . S
C793 C797 1.393 . S
C794 H786 0.950 . S
C794 C792 1.391 . S
C794 C795 1.400 . S
C795 C794 1.400 . S
C795 C796 1.398 . S
C795 C801 1.491 . S
C796 H787 0.950 . S
C796 C795 1.398 . S
C796 C797 1.391 . S
C797 H785 0.950 . S
C797 C793 1.393 . S
C797 C796 1.391 . S
C798 H788 0.950 . S
C798 C799 1.386 . S
C798 C800 1.391 . S
C799 C798 1.386 . S
C799 C803 1.393 . S
C800 H789 0.950 . S
C800 C798 1.391 . S
C800 C801 1.400 . S
C801 C795 1.491 . S
C801 C800 1.400 . S
C801 C802 1.398 . S
C802 H790 0.950 . S
C802 C801 1.398 . S
C802 C803 1.391 . S
C803 H791 0.950 . S
C803 C799 1.393 . S
C803 C802 1.391 . S
H804 C812 0.950 . S
H805 C817 0.950 . S
H806 C814 0.950 . S
H807 C816 0.950 . S
H808 C818 0.950 . S
H809 C820 0.950 . S
H810 C822 0.950 . S
H811 C823 0.950 1_455 S
C812 H804 0.950 . S
C812 C813 1.386 . S
C812 C814 1.391 . S
C813 C812 1.386 . S
C813 C817 1.393 . S
C814 H806 0.950 . S
C814 C812 1.391 . S
C814 C815 1.400 . S
C815 C814 1.400 . S
C815 C816 1.398 . S
C815 C821 1.491 . S
C816 H807 0.950 . S
C816 C815 1.398 . S
C816 C817 1.391 . S
C817 H805 0.950 . S
C817 C813 1.393 . S
C817 C816 1.391 . S
C818 H808 0.950 . S
C818 C819 1.386 . S
C818 C820 1.391 . S
C819 C818 1.386 . S
C819 C823 1.393 . S
C820 H809 0.950 . S
C820 C818 1.391 . S
C820 C821 1.400 . S
C821 C815 1.491 . S
C821 C820 1.400 . S
C821 C822 1.398 . S
C822 H810 0.950 . S
C822 C821 1.398 . S
C822 C823 1.391 . S
C823 H811 0.950 1_655 S
C823 C819 1.393 . S
C823 C822 1.391 . S
H824 C832 0.950 . S
H825 C837 0.950 . S
H826 C834 0.950 . S
H827 C836 0.950 . S
H828 C838 0.950 . S
H829 C840 0.950 . S
H830 C842 0.950 . S
H831 C843 0.950 . S
C832 H824 0.950 . S
C832 C833 1.386 . S
C832 C834 1.391 . S
C833 C832 1.386 . S
C833 C837 1.393 . S
C834 H826 0.950 . S
C834 C832 1.391 . S
C834 C835 1.400 . S
C835 C834 1.400 . S
C835 C836 1.398 . S
C835 C841 1.491 . S
C836 H827 0.950 . S
C836 C835 1.398 . S
C836 C837 1.391 . S
C837 H825 0.950 . S
C837 C833 1.393 . S
C837 C836 1.391 . S
C838 H828 0.950 . S
C838 C839 1.386 . S
C838 C840 1.391 . S
C839 C838 1.386 . S
C839 C843 1.393 . S
C840 H829 0.950 . S
C840 C838 1.391 . S
C840 C841 1.400 . S
C841 C835 1.491 . S
C841 C840 1.400 . S
C841 C842 1.398 . S
C842 H830 0.950 . S
C842 C841 1.398 . S
C842 C843 1.391 . S
C843 H831 0.950 . S
C843 C839 1.393 . S
C843 C842 1.391 . S
H844 C852 0.950 . S
H845 C857 0.950 . S
H846 C854 0.950 . S
H847 C856 0.950 . S
H848 C858 0.950 . S
H849 C860 0.950 . S
H850 C862 0.950 . S
H851 C863 0.950 . S
C852 H844 0.950 . S
C852 C853 1.386 . S
C852 C854 1.391 . S
C853 C852 1.386 . S
C853 C857 1.393 . S
C854 H846 0.950 . S
C854 C852 1.391 . S
C854 C855 1.400 . S
C855 C854 1.400 . S
C855 C856 1.398 . S
C855 C861 1.491 . S
C856 H847 0.950 . S
C856 C855 1.398 . S
C856 C857 1.391 . S
C857 H845 0.950 . S
C857 C853 1.393 . S
C857 C856 1.391 . S
C858 H848 0.950 . S
C858 C859 1.386 . S
C858 C860 1.391 . S
C859 C858 1.386 . S
C859 C863 1.393 . S
C860 H849 0.950 . S
C860 C858 1.391 . S
C860 C861 1.400 . S
C861 C855 1.491 . S
C861 C860 1.400 . S
C861 C862 1.398 . S
C862 H850 0.950 . S
C862 C861 1.398 . S
C862 C863 1.391 . S
C863 H851 0.950 . S
C863 C859 1.393 . S
C863 C862 1.391 . S
H864 C872 0.950 . S
H865 C877 0.950 . S
H866 C874 0.950 . S
H867 C876 0.950 . S
H868 C878 0.950 . S
H869 C880 0.950 . S
H870 C882 0.950 . S
H871 C883 0.950 . S
C872 H864 0.950 . S
C872 C873 1.386 . S
C872 C874 1.391 . S
C873 C872 1.386 . S
C873 C877 1.393 . S
C874 H866 0.950 . S
C874 C872 1.391 . S
C874 C875 1.400 . S
C875 C874 1.400 . S
C875 C876 1.398 . S
C875 C881 1.491 . S
C876 H867 0.950 . S
C876 C875 1.398 . S
C876 C877 1.391 . S
C877 H865 0.950 . S
C877 C873 1.393 . S
C877 C876 1.391 . S
C878 H868 0.950 . S
C878 C879 1.386 . S
C878 C880 1.391 . S
C879 C878 1.386 . S
C879 C883 1.393 . S
C880 H869 0.950 . S
C880 C878 1.391 . S
C880 C881 1.400 . S
C881 C875 1.491 . S
C881 C880 1.400 . S
C881 C882 1.398 . S
C882 H870 0.950 . S
C882 C881 1.398 . S
C882 C883 1.391 . S
C883 H871 0.950 . S
C883 C879 1.393 . S
C883 C882 1.391 . S
H884 C892 0.950 . S
H885 C897 0.950 . S
H886 C894 0.950 . S
H887 C896 0.950 . S
H888 C898 0.950 . S
H889 C900 0.950 . S
H890 C902 0.950 . S
H891 C903 0.950 . S
C892 H884 0.950 . S
C892 C893 1.386 . S
C892 C894 1.391 . S
C893 C892 1.386 . S
C893 C897 1.393 . S
C894 H886 0.950 . S
C894 C892 1.391 . S
C894 C895 1.400 . S
C895 C894 1.400 . S
C895 C896 1.398 . S
C895 C901 1.491 . S
C896 H887 0.950 . S
C896 C895 1.398 . S
C896 C897 1.391 . S
C897 H885 0.950 . S
C897 C893 1.393 . S
C897 C896 1.391 . S
C898 H888 0.950 . S
C898 C899 1.386 . S
C898 C900 1.391 . S
C899 C898 1.386 . S
C899 C903 1.393 . S
C900 H889 0.950 . S
C900 C898 1.391 . S
C900 C901 1.400 . S
C901 C895 1.491 . S
C901 C900 1.400 . S
C901 C902 1.398 . S
C902 H890 0.950 . S
C902 C901 1.398 . S
C902 C903 1.391 . S
C903 H891 0.950 . S
C903 C899 1.393 . S
C903 C902 1.391 . S
C433 C71 1.664 . S
C439 C144 1.642 . S
C459 C228 1.620 . S
C453 C81 1.641 . S
C479 C227 1.658 . S
C473 C49 1.662 . S
C493 C59 1.629 . S
C499 C143 1.628 . S
C519 C324 1.656 . S
C513 C27 1.664 . S
C539 C408 1.695 . S
C533 C38 1.703 . S
C553 C5 1.652 . S
C559 C407 1.655 . S
C573 C16 1.698 . S
C579 C323 1.705 . S
C599 C146 1.381 . S
C593 C15 1.557 . S
C619 C230 1.395 . S
C613 C4 1.571 . S
C639 C242 1.368 . S
C633 C37 1.565 . S
C659 C158 1.396 . S
C653 C26 1.586 . S
C679 C326 1.484 . S
C673 C60 1.615 . S
C693 C48 1.635 . S
C699 C410 1.462 . S
C719 C398 1.393 . S
C713 C82 1.611 . S
C733 C70 1.643 . S
C739 C314 1.408 . S
C759 C155 1.499 . S
C753 C10 1.494 . S
C779 C239 1.548 . S
C773 C21 1.534 . S
C793 C32 1.481 . S
C799 C240 1.471 . S
C819 C156 1.524 . S
C813 C43 1.528 . S
C839 C311 1.593 . S
C833 C54 1.584 . S
C853 C65 1.547 . S
C859 C395 1.546 . S
C873 C76 1.574 . S
C879 C396 1.572 . S
C893 C87 1.538 . S
C899 C312 1.508 . S
