# Generated by pormake.
# Topology ctn, (3,4)-cn, num edge types: 1
# Building blocks:
#     Node 0, Type 0, BuildingBlock: QEWDON_clean_linker_0, # of connection points: 3
#     Node 1, Type 0, BuildingBlock: QEWDON_clean_linker_0, # of connection points: 3
#     Node 2, Type 0, BuildingBlock: QEWDON_clean_linker_0, # of connection points: 3
#     Node 3, Type 0, BuildingBlock: QEWDON_clean_linker_0, # of connection points: 3
#     Node 4, Type 0, BuildingBlock: QEWDON_clean_linker_0, # of connection points: 3
#     Node 5, Type 0, BuildingBlock: QEWDON_clean_linker_0, # of connection points: 3
#     Node 6, Type 0, BuildingBlock: QEWDON_clean_linker_0, # of connection points: 3
#     Node 7, Type 0, BuildingBlock: QEWDON_clean_linker_0, # of connection points: 3
#     Node 8, Type 0, BuildingBlock: QEWDON_clean_linker_0, # of connection points: 3
#     Node 9, Type 0, BuildingBlock: QEWDON_clean_linker_0, # of connection points: 3
#     Node 10, Type 0, BuildingBlock: QEWDON_clean_linker_0, # of connection points: 3
#     Node 11, Type 0, BuildingBlock: QEWDON_clean_linker_0, # of connection points: 3
#     Node 12, Type 0, BuildingBlock: QEWDON_clean_linker_0, # of connection points: 3
#     Node 13, Type 0, BuildingBlock: QEWDON_clean_linker_0, # of connection points: 3
#     Node 14, Type 0, BuildingBlock: QEWDON_clean_linker_0, # of connection points: 3
#     Node 15, Type 0, BuildingBlock: QEWDON_clean_linker_0, # of connection points: 3
#     Node 16, Type 1, BuildingBlock: NAHDIM_clean_sbu_0, # of connection points: 4
#     Node 17, Type 1, BuildingBlock: NAHDIM_clean_sbu_0, # of connection points: 4
#     Node 18, Type 1, BuildingBlock: NAHDIM_clean_sbu_0, # of connection points: 4
#     Node 19, Type 1, BuildingBlock: NAHDIM_clean_sbu_0, # of connection points: 4
#     Node 20, Type 1, BuildingBlock: NAHDIM_clean_sbu_0, # of connection points: 4
#     Node 21, Type 1, BuildingBlock: NAHDIM_clean_sbu_0, # of connection points: 4
#     Node 22, Type 1, BuildingBlock: NAHDIM_clean_sbu_0, # of connection points: 4
#     Node 23, Type 1, BuildingBlock: NAHDIM_clean_sbu_0, # of connection points: 4
#     Node 24, Type 1, BuildingBlock: NAHDIM_clean_sbu_0, # of connection points: 4
#     Node 25, Type 1, BuildingBlock: NAHDIM_clean_sbu_0, # of connection points: 4
#     Node 26, Type 1, BuildingBlock: NAHDIM_clean_sbu_0, # of connection points: 4
#     Node 27, Type 1, BuildingBlock: NAHDIM_clean_sbu_0, # of connection points: 4
#     Edge 28, Type (0, 1), BuildingBlock: XUDNAN_clean_linker_2, # of connection points: 2
#     Edge 29, Type (0, 1), BuildingBlock: XUDNAN_clean_linker_2, # of connection points: 2
#     Edge 30, Type (0, 1), BuildingBlock: XUDNAN_clean_linker_2, # of connection points: 2
#     Edge 31, Type (0, 1), BuildingBlock: XUDNAN_clean_linker_2, # of connection points: 2
#     Edge 32, Type (0, 1), BuildingBlock: XUDNAN_clean_linker_2, # of connection points: 2
#     Edge 33, Type (0, 1), BuildingBlock: XUDNAN_clean_linker_2, # of connection points: 2
#     Edge 34, Type (0, 1), BuildingBlock: XUDNAN_clean_linker_2, # of connection points: 2
#     Edge 35, Type (0, 1), BuildingBlock: XUDNAN_clean_linker_2, # of connection points: 2
#     Edge 36, Type (0, 1), BuildingBlock: XUDNAN_clean_linker_2, # of connection points: 2
#     Edge 37, Type (0, 1), BuildingBlock: XUDNAN_clean_linker_2, # of connection points: 2
#     Edge 38, Type (0, 1), BuildingBlock: XUDNAN_clean_linker_2, # of connection points: 2
#     Edge 39, Type (0, 1), BuildingBlock: XUDNAN_clean_linker_2, # of connection points: 2
#     Edge 40, Type (0, 1), BuildingBlock: XUDNAN_clean_linker_2, # of connection points: 2
#     Edge 41, Type (0, 1), BuildingBlock: XUDNAN_clean_linker_2, # of connection points: 2
#     Edge 42, Type (0, 1), BuildingBlock: XUDNAN_clean_linker_2, # of connection points: 2
#     Edge 43, Type (0, 1), BuildingBlock: XUDNAN_clean_linker_2, # of connection points: 2
#     Edge 44, Type (0, 1), BuildingBlock: XUDNAN_clean_linker_2, # of connection points: 2
#     Edge 45, Type (0, 1), BuildingBlock: XUDNAN_clean_linker_2, # of connection points: 2
#     Edge 46, Type (0, 1), BuildingBlock: XUDNAN_clean_linker_2, # of connection points: 2
#     Edge 47, Type (0, 1), BuildingBlock: XUDNAN_clean_linker_2, # of connection points: 2
#     Edge 48, Type (0, 1), BuildingBlock: XUDNAN_clean_linker_2, # of connection points: 2
#     Edge 49, Type (0, 1), BuildingBlock: XUDNAN_clean_linker_2, # of connection points: 2
#     Edge 50, Type (0, 1), BuildingBlock: XUDNAN_clean_linker_2, # of connection points: 2
#     Edge 51, Type (0, 1), BuildingBlock: XUDNAN_clean_linker_2, # of connection points: 2
#     Edge 52, Type (0, 1), BuildingBlock: XUDNAN_clean_linker_2, # of connection points: 2
#     Edge 53, Type (0, 1), BuildingBlock: XUDNAN_clean_linker_2, # of connection points: 2
#     Edge 54, Type (0, 1), BuildingBlock: XUDNAN_clean_linker_2, # of connection points: 2
#     Edge 55, Type (0, 1), BuildingBlock: XUDNAN_clean_linker_2, # of connection points: 2
#     Edge 56, Type (0, 1), BuildingBlock: XUDNAN_clean_linker_2, # of connection points: 2
#     Edge 57, Type (0, 1), BuildingBlock: XUDNAN_clean_linker_2, # of connection points: 2
#     Edge 58, Type (0, 1), BuildingBlock: XUDNAN_clean_linker_2, # of connection points: 2
#     Edge 59, Type (0, 1), BuildingBlock: XUDNAN_clean_linker_2, # of connection points: 2
#     Edge 60, Type (0, 1), BuildingBlock: XUDNAN_clean_linker_2, # of connection points: 2
#     Edge 61, Type (0, 1), BuildingBlock: XUDNAN_clean_linker_2, # of connection points: 2
#     Edge 62, Type (0, 1), BuildingBlock: XUDNAN_clean_linker_2, # of connection points: 2
#     Edge 63, Type (0, 1), BuildingBlock: XUDNAN_clean_linker_2, # of connection points: 2
#     Edge 64, Type (0, 1), BuildingBlock: XUDNAN_clean_linker_2, # of connection points: 2
#     Edge 65, Type (0, 1), BuildingBlock: XUDNAN_clean_linker_2, # of connection points: 2
#     Edge 66, Type (0, 1), BuildingBlock: XUDNAN_clean_linker_2, # of connection points: 2
#     Edge 67, Type (0, 1), BuildingBlock: XUDNAN_clean_linker_2, # of connection points: 2
#     Edge 68, Type (0, 1), BuildingBlock: XUDNAN_clean_linker_2, # of connection points: 2
#     Edge 69, Type (0, 1), BuildingBlock: XUDNAN_clean_linker_2, # of connection points: 2
#     Edge 70, Type (0, 1), BuildingBlock: XUDNAN_clean_linker_2, # of connection points: 2
#     Edge 71, Type (0, 1), BuildingBlock: XUDNAN_clean_linker_2, # of connection points: 2
#     Edge 72, Type (0, 1), BuildingBlock: XUDNAN_clean_linker_2, # of connection points: 2
#     Edge 73, Type (0, 1), BuildingBlock: XUDNAN_clean_linker_2, # of connection points: 2
#     Edge 74, Type (0, 1), BuildingBlock: XUDNAN_clean_linker_2, # of connection points: 2
#     Edge 75, Type (0, 1), BuildingBlock: XUDNAN_clean_linker_2, # of connection points: 2
# Relax obj value: 0.115
# Max RMSD: 0.275
# Mean RMSD: 0.157
data_MOF--net-ctn--node1-NAHDIM_clean_sbu_0--node2-QEWDON_clean_linker_0--edge1-XUDNAN_clean_linker_2
_symmetry_space_group_name_H-M    P1
_symmetry_Int_Tables_number       1
_symmetry_cell_setting            triclinic
loop_
_symmetry_equiv_pos_as_xyz
'x, y, z'
_cell_length_a     52.576039
_cell_length_b     55.155124
_cell_length_c     58.213037
_cell_angle_alpha  99.48554
_cell_angle_beta   92.032141
_cell_angle_gamma 97.75788
loop_
_atom_site_label
_atom_site_type_symbol
_atom_site_fract_x
_atom_site_fract_y
_atom_site_fract_z
_atom_type_partial_charge
H0 H 0.10868 0.02282 0.05335 0.0
C1 C 0.09372 0.02394 0.06565 0.0
C2 C 0.08657 1.00412 0.07761 0.0
C3 C 0.08264 0.04586 0.07011 0.0
H4 H 0.06256 0.99189 0.10414 0.0
C5 C 0.06799 0.00672 0.09439 0.0
C6 C 0.05729 0.02891 0.09956 0.0
C7 C 0.06435 0.04822 0.08697 0.0
C8 C 0.0923 0.06713 0.05875 0.0
H9 H 0.05644 0.0655 0.09098 0.0
C10 C 0.07575 0.07767 0.04492 0.0
C11 C 0.08563 0.09709 0.03327 0.0
C12 C 0.11861 0.07653 0.06134 0.0
H13 H 0.13162 0.06874 0.072 0.0
C14 C 0.12834 0.09613 0.05036 0.0
H15 H 0.05551 0.07016 0.04258 0.0
C16 C 0.11205 0.10632 0.03639 0.0
H17 H 0.12014 0.12158 0.0281 0.0
H18 H 0.14862 0.10337 0.0526 0.0
H19 H 0.33473 0.75475 0.27847 0.0
C20 C 0.32375 0.73706 0.27063 0.0
C21 C 0.32877 0.71538 0.27843 0.0
C22 C 0.30462 0.73613 0.25293 0.0
H23 H 0.31781 0.67589 0.27515 0.0
C24 C 0.31425 0.69256 0.26871 0.0
C25 C 0.29458 0.69132 0.25134 0.0
C26 C 0.29028 0.71315 0.2431 0.0
C27 C 0.29852 0.75958 0.24623 0.0
H28 H 0.27486 0.7125 0.23005 0.0
C29 C 0.29853 0.76327 0.22284 0.0
C30 C 0.29471 0.78647 0.21731 0.0
C31 C 0.29371 0.77896 0.26374 0.0
H32 H 0.2934 0.77648 0.28181 0.0
C33 C 0.28934 0.80173 0.25814 0.0
H34 H 0.30253 0.7486 0.20921 0.0
C35 C 0.29006 0.80557 0.23509 0.0
H36 H 0.28708 0.82353 0.23109 0.0
H37 H 0.2857 0.81654 0.27175 0.0
H38 H 0.03862 0.47308 0.03521 0.0
C39 C 0.02515 0.48641 0.03694 0.0
C40 C 0.02146 0.49989 0.05908 0.0
C41 C 0.01226 0.49055 0.01676 0.0
H42 H 1.00071 0.52782 0.07747 0.0
C43 C 1.00349 0.5169 0.06074 0.0
C44 C 0.98995 0.52077 0.04062 0.0
C45 C 0.99451 0.50743 0.01882 0.0
C46 C 0.01844 0.47851 0.99329 0.0
H47 H 0.98401 0.51002 1.00325 0.0
C48 C 0.01976 0.45286 0.98826 0.0
C49 C 0.02562 0.44172 0.96585 0.0
C50 C 0.02326 0.49298 0.97574 0.0
H51 H 0.02269 0.5128 0.97922 0.0
C52 C 0.02934 0.48212 0.95365 0.0
H53 H 0.01556 0.44156 1.00159 0.0
C54 C 0.03056 0.45673 0.9487 0.0
H55 H 0.03571 0.4489 0.93148 0.0
H56 H 0.03324 0.49347 0.94034 0.0
H57 H 0.77363 0.80797 0.25074 0.0
C58 C 0.77364 0.80089 0.23222 0.0
C59 C 0.78532 0.81604 0.2172 0.0
C60 C 0.7632 0.77614 0.2236 0.0
H61 H 0.79439 0.81797 0.18162 0.0
C62 C 0.78553 0.80636 0.19331 0.0
C63 C 0.77483 0.78171 0.18444 0.0
C64 C 0.76395 0.76663 0.19979 0.0
C65 C 0.75279 0.75958 0.23954 0.0
H66 H 0.75576 0.74751 0.19323 0.0
C67 C 0.72896 0.76195 0.24924 0.0
C68 C 0.71845 0.74512 0.26339 0.0
C69 C 0.76636 0.7406 0.24429 0.0
H70 H 0.78469 0.73848 0.23683 0.0
C71 C 0.75635 0.7242 0.25863 0.0
H72 H 0.71855 0.77665 0.24547 0.0
C73 C 0.73255 0.72633 0.26806 0.0
H74 H 0.72491 0.71283 0.27852 0.0
H75 H 0.76691 0.70955 0.26219 0.0
H76 H 0.1114 0.96032 0.48364 0.0
C77 C 0.09863 0.96743 0.4722 0.0
C78 C 0.10518 0.99139 0.4667 0.0
C79 C 0.07642 0.95191 0.46183 0.0
H80 H 0.09334 0.01818 0.44679 0.0
C81 C 0.08866 0.99978 0.45108 0.0
C82 C 0.06637 0.98442 0.44054 0.0
C83 C 0.06046 0.96053 0.44605 0.0
C84 C 0.0708 0.92586 0.46574 0.0
H85 H 0.04329 0.94854 0.43807 0.0
C86 C 0.0681 0.92001 0.48832 0.0
C87 C 0.06148 0.89508 0.49135 0.0
C88 C 0.06749 0.9066 0.44636 0.0
H89 H 0.06963 0.91064 0.42888 0.0
C90 C 0.06164 0.88196 0.44932 0.0
H91 H 0.07024 0.93484 0.5033 0.0
C92 C 0.05862 0.87621 0.47157 0.0
H93 H 0.05419 0.85686 0.4733 0.0
H94 H 0.05935 0.86725 0.43428 0.0
H95 H 0.27686 0.66942 0.78612 0.0
C96 C 0.27281 0.68046 0.80241 0.0
C97 C 0.27857 0.6727 0.82357 0.0
C98 C 0.26131 0.70201 0.80203 0.0
H99 H 0.27764 0.68133 0.86101 0.0
C100 C 0.27256 0.68677 0.84458 0.0
C101 C 0.26102 0.70835 0.84462 0.0
C102 C 0.25542 0.71577 0.82323 0.0
C103 C 0.25604 0.7104 0.77951 0.0
H104 H 0.24667 0.73245 0.82311 0.0
C105 C 0.23299 0.71969 0.77501 0.0
C106 C 0.22814 0.7277 0.75368 0.0
C107 C 0.27425 0.70928 0.76239 0.0
H108 H 0.29232 0.70263 0.76543 0.0
C109 C 0.26956 0.71718 0.74128 0.0
H110 H 0.21857 0.72015 0.78786 0.0
C111 C 0.24673 0.72633 0.73691 0.0
H112 H 0.24382 0.7327 0.72051 0.0
H113 H 0.2838 0.71638 0.72829 0.0
H114 H 0.98129 0.58761 0.46755 0.0
C115 C 0.97081 0.57278 0.47504 0.0
C116 C 0.96785 0.57587 0.49924 0.0
C117 C 0.95888 0.55123 0.46023 0.0
H118 H 0.9514 0.55878 0.52711 0.0
C119 C 0.95361 0.55664 0.50848 0.0
C120 C 0.94167 0.53491 0.4939 0.0
C121 C 0.94417 0.53248 0.46971 0.0
C122 C 0.95956 0.54934 0.43465 0.0
H123 H 0.93477 0.51599 0.45819 0.0
C124 C 0.98218 0.54563 0.42311 0.0
C125 C 0.98235 0.54386 0.39864 0.0
C126 C 0.93718 0.55131 0.42167 0.0
H127 H 0.91961 0.55414 0.43028 0.0
C128 C 0.93733 0.54988 0.39755 0.0
H129 H 0.99947 0.54402 0.43312 0.0
C130 C 0.9597 0.5462 0.38608 0.0
H131 H 0.95911 0.54461 0.36726 0.0
H132 H 0.91998 0.55146 0.38766 0.0
H133 H 0.85681 0.81796 0.79056 0.0
C134 C 0.8523 0.80578 0.80314 0.0
C135 C 0.86338 0.78373 0.80207 0.0
C136 C 0.83728 0.81351 0.82168 0.0
H137 H 0.8666 0.75211 0.8192 0.0
C138 C 0.85826 0.76907 0.81959 0.0
C139 C 0.8439 0.77703 0.83861 0.0
C140 C 0.83331 0.79918 0.83935 0.0
C141 C 0.82991 0.83874 0.82513 0.0
H142 H 0.82272 0.80583 0.8542 0.0
C143 C 0.80844 0.84435 0.81288 0.0
C144 C 0.80122 0.86837 0.81768 0.0
C145 C 0.84437 0.85727 0.84171 0.0
H146 H 0.86091 0.85323 0.85128 0.0
C147 C 0.83766 0.8811 0.84611 0.0
H148 H 0.79705 0.82997 0.80029 0.0
C149 C 0.81626 0.88664 0.83426 0.0
H150 H 0.81156 0.90536 0.838 0.0
H151 H 0.84902 0.89532 0.85885 0.0
H152 H 0.34892 0.31016 0.28331 0.0
C153 C 0.34603 0.29995 0.29762 0.0
C154 C 0.35534 0.27707 0.29691 0.0
C155 C 0.3336 0.31013 0.31708 0.0
H156 H 0.35933 0.24706 0.31586 0.0
C157 C 0.35154 0.26428 0.31591 0.0
C158 C 0.33909 0.27428 0.33556 0.0
C159 C 0.33014 0.29724 0.33584 0.0
C160 C 0.32684 0.33555 0.31923 0.0
H161 H 0.32059 0.30535 0.35081 0.0
C162 C 0.30605 0.34094 0.30591 0.0
C163 C 0.2993 0.3652 0.30919 0.0
C164 C 0.34106 0.35451 0.33555 0.0
H165 H 0.35706 0.35067 0.34597 0.0
C166 C 0.33476 0.37851 0.33862 0.0
H167 H 0.29509 0.32625 0.29333 0.0
C168 C 0.31402 0.38384 0.32569 0.0
H169 H 0.30914 0.4025 0.32912 0.0
H170 H 0.34578 0.393 0.35134 0.0
H171 H 0.52877 0.97839 0.53996 0.0
C172 C 0.51493 0.99135 0.54075 0.0
C173 C 0.50806 1.00295 0.56257 0.0
C174 C 0.50512 0.99723 0.51993 0.0
H175 H 0.48546 0.02965 0.57999 0.0
C176 C 0.49106 0.02073 0.56331 0.0
C177 C 0.48086 0.02669 0.54257 0.0
C178 C 0.48796 0.01475 0.52103 0.0
C179 C 0.51362 0.98587 0.49704 0.0
H180 H 0.48046 0.01945 0.505 0.0
C181 C 0.51547 0.9603 0.49207 0.0
C182 C 0.52361 0.94962 0.47038 0.0
C183 C 0.52015 1.00068 0.48007 0.0
H184 H 0.51933 0.02046 0.48351 0.0
C185 C 0.52832 0.99024 0.45861 0.0
H186 H 0.50998 0.94865 0.50487 0.0
C187 C 0.53006 0.96492 0.45376 0.0
H188 H 0.53682 0.9574 0.43707 0.0
H189 H 0.53347 1.00185 0.44573 0.0
H190 H 0.30316 0.30165 0.76306 0.0
C191 C 0.29826 0.29151 0.74551 0.0
C192 C 0.30812 0.3014 0.72645 0.0
C193 C 0.28298 0.26827 0.74226 0.0
H194 H 0.31192 0.29484 0.6894 0.0
C195 C 0.30284 0.28771 0.70383 0.0
C196 C 0.28789 0.26401 0.70021 0.0
C197 C 0.27723 0.25492 0.7196 0.0
C198 C 0.2765 0.25648 0.76275 0.0
H199 H 0.2657 0.23677 0.71732 0.0
C200 C 0.25087 0.24842 0.76715 0.0
C201 C 0.2454 0.23692 0.78665 0.0
C202 C 0.29654 0.253 0.77795 0.0
H203 H 0.31641 0.25898 0.77479 0.0
C204 C 0.29117 0.24146 0.79714 0.0
H205 H 0.23533 0.25114 0.75552 0.0
C206 C 0.2658 0.23343 0.80148 0.0
H207 H 0.26208 0.22486 0.81672 0.0
H208 H 0.30674 0.2388 0.80872 0.0
H209 H 0.84261 0.24069 0.74353 0.0
C210 C 0.82873 0.22397 0.74181 0.0
C211 C 0.83565 0.20294 0.74968 0.0
C212 C 0.80378 0.22364 0.73214 0.0
H213 H 0.82234 0.1659 0.7554 0.0
C214 C 0.8173 0.18179 0.7484 0.0
C215 C 0.79204 0.18152 0.73965 0.0
C216 C 0.78549 0.20227 0.73088 0.0
C217 C 0.79606 0.24676 0.7263 0.0
H218 H 0.76585 0.20245 0.72463 0.0
C219 C 0.79164 0.24967 0.703 0.0
C220 C 0.78516 0.27228 0.6978 0.0
C221 C 0.7937 0.26636 0.74442 0.0
H222 H 0.79707 0.2644 0.76245 0.0
C223 C 0.78679 0.28853 0.73944 0.0
H224 H 0.79399 0.23464 0.68905 0.0
C225 C 0.78253 0.29152 0.71635 0.0
H226 H 0.77695 0.30889 0.71306 0.0
H227 H 0.78476 0.30349 0.75353 0.0
H228 H 0.614 0.54434 0.56435 0.0
C229 C 0.60005 0.54299 0.5775 0.0
C230 C 0.59647 0.52196 0.58855 0.0
C231 C 0.58695 0.56325 0.58445 0.0
H232 H 0.57606 0.50565 0.6152 0.0
C233 C 0.57907 0.52158 0.60648 0.0
C234 C 0.56638 0.54211 0.61405 0.0
C235 C 0.57024 0.56272 0.60262 0.0
C236 C 0.59295 0.58634 0.57481 0.0
H237 H 0.56061 0.57871 0.6081 0.0
C238 C 0.58226 0.58869 0.55293 0.0
C239 C 0.58682 0.61151 0.54469 0.0
C240 C 0.60862 0.60663 0.5883 0.0
H241 H 0.61689 0.60511 0.60524 0.0
C242 C 0.61355 0.62908 0.58016 0.0
H243 H 0.57022 0.57288 0.54259 0.0
C244 C 0.60264 0.63161 0.55865 0.0
H245 H 0.60611 0.6496 0.55328 0.0
H246 H 0.62553 0.64473 0.59075 0.0
H247 H 0.62869 0.46811 0.98682 0.0
C248 C 0.61099 0.47194 0.97893 0.0
C249 C 0.61079 0.49416 0.97016 0.0
C250 C 0.58889 0.45394 0.97641 0.0
H251 H 0.58769 0.51559 0.95243 0.0
C252 C 0.58796 0.49858 0.95944 0.0
C253 C 0.56582 0.4808 0.9565 0.0
C254 C 0.56632 0.45844 0.96508 0.0
C255 C 0.59073 0.42933 0.98299 0.0
H256 H 0.54956 0.44428 0.9622 0.0
C257 C 0.5745 0.41955 0.99907 0.0
C258 C 0.57764 0.39655 0.00575 0.0
C259 C 0.60958 0.41568 0.97324 0.0
H260 H 0.62213 0.42275 0.96074 0.0
C261 C 0.6123 0.39274 0.97929 0.0
H262 H 0.56016 0.43018 0.00689 0.0
C263 C 0.59654 0.38323 0.9954 0.0
H264 H 0.59904 0.36526 0.9996 0.0
H265 H 0.62676 0.38229 0.9715 0.0
H266 H 0.77803 0.20272 0.27843 0.0
C267 C 0.77607 0.21183 0.29613 0.0
C268 C 0.78825 0.20393 0.31488 0.0
C269 C 0.76359 0.23304 0.29995 0.0
H270 H 0.79612 0.21081 0.35209 0.0
C271 C 0.78679 0.21688 0.33756 0.0
C272 C 0.77534 0.23866 0.34159 0.0
C273 C 0.76325 0.24637 0.32269 0.0
C274 C 0.75646 0.24443 0.27987 0.0
H275 H 0.7554 0.26376 0.32533 0.0
C276 C 0.73153 0.23925 0.26895 0.0
C277 C 0.72598 0.24965 0.24912 0.0
C278 C 0.77546 0.26039 0.27123 0.0
H279 H 0.79471 0.26456 0.27949 0.0
C280 C 0.76987 0.2709 0.2518 0.0
H281 H 0.71683 0.22681 0.27546 0.0
C282 C 0.74534 0.26547 0.2407 0.0
H283 H 0.74143 0.27366 0.22549 0.0
H284 H 0.78465 0.28313 0.2452 0.0
H285 H 0.47458 0.08222 0.96788 0.0
C286 C 0.45968 0.06757 0.97071 0.0
C287 C 0.45329 0.06505 0.99353 0.0
C288 C 0.44655 0.05142 0.9515 0.0
H289 H 0.42848 0.04449 0.01452 0.0
C290 C 0.43383 0.04606 0.99695 0.0
C291 C 0.42032 0.02997 0.97787 0.0
C292 C 0.42689 0.03282 0.95518 0.0
C293 C 0.4522 0.05453 0.92738 0.0
H294 H 0.41681 0.02045 0.94026 0.0
C295 C 0.47574 0.0496 0.91821 0.0
C296 C 0.48009 0.05082 0.89461 0.0
C297 C 0.43322 0.06116 0.91304 0.0
H298 H 0.41494 0.0649 0.91981 0.0
C299 C 0.43765 0.063 0.88988 0.0
H300 H 0.49014 0.04392 0.92917 0.0
C301 C 0.46085 0.05782 0.88067 0.0
H302 H 0.46378 0.05945 0.86263 0.0
H303 H 0.42297 0.0683 0.87897 0.0
C304 C 0.20703 0.88729 0.02932 0.0
O305 O 0.21404 0.89017 0.00839 0.0
O306 O 0.24461 0.8327 1.00374 0.0
Zn307 Zn 0.25235 0.86228 0.03003 0.0
O308 O 0.27503 0.89007 0.01864 0.0
C309 C 0.25883 0.83405 0.06661 0.0
O310 O 0.23598 0.82299 0.05797 0.0
O311 O 0.21998 0.87535 0.04125 0.0
C312 C 0.29793 0.89889 0.02631 0.0
O313 O 0.30849 0.88993 0.04328 0.0
C314 C 0.24872 0.83477 0.98268 0.0
O315 O 0.25694 0.85678 0.97775 0.0
O316 O 0.27008 0.85158 0.05731 0.0
C317 C 0.16058 0.44769 0.25391 0.0
O318 O 0.13561 0.44059 0.25139 0.0
O319 O 0.12247 0.49893 0.27587 0.0
Zn320 Zn 0.14606 0.49597 0.24887 0.0
O321 O 0.169 0.52871 0.24892 0.0
C322 C 0.10385 0.49157 0.21211 0.0
O323 O 0.09021 0.50124 0.22879 0.0
O324 O 0.16929 0.47019 0.25309 0.0
C325 C 0.17786 0.53303 0.22969 0.0
O326 O 0.17191 0.51624 0.21082 0.0
C327 C 0.11157 0.51794 0.28242 0.0
O328 O 0.11508 0.53672 0.27106 0.0
O329 O 0.12626 0.48693 0.2172 0.0
C330 C 0.86368 0.6267 1.00387 0.0
O331 O 0.87029 0.63671 0.98559 0.0
O332 O 0.82841 0.67118 0.97792 0.0
Zn333 Zn 0.81543 0.64905 1.00109 0.0
O334 O 0.78379 0.62523 0.98766 0.0
C335 C 0.79534 0.69056 0.02771 0.0
O336 O 0.79065 0.69576 0.00688 0.0
O337 O 0.84214 0.62965 0.01236 0.0
C338 C 0.77163 0.61175 1.0006 0.0
O339 O 0.78015 0.61352 0.02239 0.0
C340 C 0.82317 0.66661 0.95596 0.0
O341 O 0.80977 0.64521 0.94652 0.0
O342 O 0.80563 0.67133 0.0295 0.0
C343 C 0.88243 0.06096 0.27556 0.0
O344 O 0.86842 0.04262 0.2614 0.0
O345 O 0.94418 0.02646 0.30505 0.0
Zn346 Zn 0.92208 0.02736 0.27589 0.0
O347 O 0.89508 0.99667 0.26913 0.0
C348 C 0.94049 0.02254 0.22761 0.0
O349 O 0.91828 0.00888 0.22063 0.0
O350 O 0.90469 0.05812 0.28305 0.0
C351 C 0.89901 0.97559 0.2584 0.0
O352 O 0.92178 0.97299 0.25057 0.0
C353 C 0.95639 0.00869 0.30803 0.0
O354 O 0.95499 0.98925 0.29141 0.0
O355 O 0.94536 0.03137 0.24918 0.0
C356 C 0.35538 0.13795 0.51502 0.0
O357 O 0.35396 0.16075 0.52532 0.0
O358 O 0.31132 0.16906 0.47498 0.0
Zn359 Zn 0.30568 0.14389 0.49703 0.0
O360 O 0.27414 0.11782 0.48797 0.0
C361 C 0.29689 0.18347 0.53714 0.0
O362 O 0.29715 0.19946 0.52271 0.0
O363 O 0.33713 0.12668 0.5006 0.0
C364 C 0.26899 0.1045 0.50358 0.0
O365 O 0.28467 0.10809 0.5223 0.0
C366 C 0.31092 0.16394 0.4528 0.0
O367 O 0.3062 0.1406 0.4425 0.0
O368 O 0.29996 0.16116 0.52952 0.0
C369 C 0.38485 0.5373 0.8064 0.0
O370 O 0.38535 0.51883 0.818 0.0
O371 O 0.44865 0.51984 0.81807 0.0
Zn372 Zn 0.42907 0.51796 0.78696 0.0
O373 O 0.41313 0.48225 0.77696 0.0
C374 C 0.45828 0.514 0.74484 0.0
O375 O 0.44783 0.4906 0.74167 0.0
O376 O 0.40162 0.54054 0.79157 0.0
C377 C 0.39397 0.47336 0.76274 0.0
O378 O 0.38172 0.48839 0.75263 0.0
C379 C 0.45911 0.50144 0.82243 0.0
O380 O 0.45815 0.48177 0.80609 0.0
O381 O 0.45325 0.52873 0.76282 0.0
C382 C 0.7183 0.40943 0.52856 0.0
O383 O 0.72644 0.41482 0.50867 0.0
O384 O 0.75831 0.35743 0.49807 0.0
Zn385 Zn 0.76151 0.37967 0.52978 0.0
O386 O 0.79126 0.40705 0.52883 0.0
C387 C 0.75819 0.33662 0.55242 0.0
O388 O 0.74274 0.32704 0.53399 0.0
O389 O 0.72967 0.39495 0.53888 0.0
C390 C 0.81117 0.41096 0.54272 0.0
O391 O 0.81233 0.39752 0.55928 0.0
C392 C 0.77933 0.34903 0.49373 0.0
O393 O 0.79855 0.35531 0.50959 0.0
O394 O 0.76893 0.35904 0.55445 0.0
C395 C 0.66297 0.95565 0.77063 0.0
O396 O 0.65613 0.969 0.7896 0.0
O397 O 0.61088 0.99379 0.77505 0.0
Zn398 Zn 0.63435 0.98808 0.74813 0.0
O399 O 0.6593 0.0197 0.74987 0.0
C400 C 0.60092 0.99789 0.71126 0.0
O401 O 0.6028 0.0196 0.72496 0.0
O402 O 0.6553 0.95984 0.75084 0.0
C403 C 0.66789 0.03009 0.7332 0.0
O404 O 0.66067 0.01983 0.71155 0.0
C405 C 0.61929 0.0086 0.79375 0.0
O406 O 0.64336 0.01924 0.79559 0.0
O407 O 0.61279 0.98117 0.71751 0.0
C408 C 0.01715 0.18872 0.92028 0.0
O409 O 0.99868 0.20264 0.92184 0.0
O410 O 1.00427 0.20703 0.85864 0.0
Zn411 Zn 0.03438 0.21539 0.88255 0.0
O412 O 0.03564 0.24983 0.90154 0.0
C413 C 0.07699 0.22813 0.85313 0.0
O414 O 0.06631 0.24799 0.85138 0.0
O415 O 0.03333 0.19074 0.90474 0.0
C416 C 0.02901 0.26823 0.89341 0.0
O417 O 0.02104 0.26529 0.87135 0.0
C418 C 0.98272 0.21491 0.86116 0.0
O419 O 0.97858 0.22869 0.88094 0.0
O420 O 0.06686 0.2127 0.86535 0.0
C421 C 0.5246 0.68023 0.41192 0.0
O422 O 0.50217 0.67641 0.40027 0.0
O423 O 0.49914 0.71641 0.37242 0.0
Zn424 Zn 0.53476 0.72392 0.3888 0.0
O425 O 0.53754 0.75765 0.40933 0.0
C426 C 0.55798 0.7314 0.34546 0.0
O427 O 0.53469 0.73505 0.33937 0.0
O428 O 0.54097 0.69865 0.40932 0.0
C429 C 0.53034 0.77572 0.40103 0.0
O430 O 0.52161 0.77208 0.37913 0.0
C431 C 0.48027 0.72248 0.38407 0.0
O432 O 0.48441 0.73173 0.40638 0.0
O433 O 0.56231 0.72583 0.36546 0.0
C434 C 0.02431 0.80246 0.61859 0.0
O435 O 0.00665 0.78353 0.61026 0.0
O436 O 0.00542 0.76871 0.67491 0.0
Zn437 Zn 0.03324 0.77029 0.65153 0.0
O438 O 0.02761 0.74073 0.6252 0.0
C439 C 0.07123 0.7785 0.69028 0.0
O440 O 0.05467 0.792 0.70042 0.0
O441 O 0.03746 0.80177 0.6372 0.0
C442 C 0.00723 0.72516 0.62031 0.0
O443 O 0.98735 0.72765 0.6331 0.0
C444 C 0.9834 0.77589 0.67536 0.0
O445 O 0.97527 0.78613 0.65816 0.0
O446 O 0.06651 0.768 0.66912 0.0
C447 C 0.50156 0.29293 0.11467 0.0
O448 O 0.4775 0.28347 0.11625 0.0
O449 O 0.48609 0.25899 0.16641 0.0
Zn450 Zn 0.51359 0.25512 0.14235 0.0
O451 O 0.50372 0.22343 0.11831 0.0
C452 C 0.55498 0.25547 0.1794 0.0
O453 O 0.53903 0.26288 0.19506 0.0
O454 O 0.51931 0.28428 0.12479 0.0
C455 C 0.512 0.20355 0.12166 0.0
O456 O 0.52601 0.20383 0.14086 0.0
C457 C 0.47285 0.23957 0.17127 0.0
O458 O 0.47722 0.21777 0.16062 0.0
O459 O 0.54797 0.25208 0.15782 0.0
H460 H 0.2689 0.75919 0.85715 0.0
H461 H 0.24075 0.69165 0.88294 0.0
H462 H 0.2329 0.71664 0.92064 0.0
H463 H 0.30159 0.79153 0.90978 0.0
H464 H 0.29337 0.8214 0.90611 0.0
H465 H 0.29577 0.79823 0.88092 0.0
H466 H 0.24931 0.8014 0.86653 0.0
H467 H 0.24678 0.82464 0.89169 0.0
H468 H 0.2234 0.79698 0.88556 0.0
H469 H 0.22953 0.74912 0.95609 0.0
H470 H 0.23128 0.78643 0.98649 0.0
H471 H 0.26087 0.83259 0.93703 0.0
C472 C 0.26069 0.74964 0.87057 0.0
C473 C 0.25541 0.72343 0.86704 0.0
C474 C 0.24519 0.71169 0.8853 0.0
C475 C 0.24051 0.72573 0.90672 0.0
C476 C 0.24606 0.75152 0.90963 0.0
C477 C 0.25588 0.76336 0.89202 0.0
C478 C 0.2609 0.79125 0.89979 0.0
C479 C 0.28961 0.80118 0.89911 0.0
C480 C 0.24409 0.80433 0.88501 0.0
C481 C 0.25263 0.79326 0.92461 0.0
C482 C 0.24403 0.77016 0.92994 0.0
C483 C 0.23608 0.76732 0.95206 0.0
C484 C 0.23715 0.78863 0.96922 0.0
C485 C 0.24613 0.81247 0.96417 0.0
C486 C 0.25372 0.81469 0.94146 0.0
H487 H 1.00294 0.5662 0.36338 0.0
H488 H 0.01366 0.50913 0.40446 0.0
H489 H 0.04916 0.49721 0.38018 0.0
H490 H 0.01276 0.53194 0.30875 0.0
H491 H 0.02973 0.55779 0.29764 0.0
H492 H 0.00663 0.56309 0.31935 0.0
H493 H 0.04126 0.59368 0.34628 0.0
H494 H 0.06444 0.58863 0.32456 0.0
H495 H 0.07119 0.58357 0.35384 0.0
H496 H 0.08081 0.48906 0.34894 0.0
H497 H 0.10827 0.48743 0.31527 0.0
H498 H 0.07741 0.55054 0.29524 0.0
C499 C 0.01294 0.55136 0.36742 0.0
C500 C 0.00554 0.53858 0.38583 0.0
C501 C 0.01919 0.51936 0.39064 0.0
C502 C 0.03927 0.51238 0.37684 0.0
C503 C 0.04566 0.52498 0.35847 0.0
C504 C 0.03311 0.5443 0.35396 0.0
C505 C 0.04323 0.5545 0.33289 0.0
C506 C 0.02181 0.55165 0.31351 0.0
C507 C 0.05578 0.58171 0.33981 0.0
C508 C 0.06308 0.53758 0.32592 0.0
C509 C 0.0642 0.52065 0.34087 0.0
C510 C 0.08031 0.50243 0.33731 0.0
C511 C 0.09576 0.50158 0.31807 0.0
C512 C 0.09513 0.51894 0.30267 0.0
C513 C 0.07858 0.53718 0.30681 0.0
H514 H 0.83009 0.72698 0.83939 0.0
H515 H 0.85536 0.79782 0.88414 0.0
H516 H 0.85444 0.77702 0.91858 0.0
H517 H 0.78605 0.70287 0.87896 0.0
H518 H 0.79283 0.67143 0.87171 0.0
H519 H 0.79629 0.69171 0.85039 0.0
H520 H 0.84344 0.68378 0.84577 0.0
H521 H 0.84015 0.66354 0.86716 0.0
H522 H 0.86548 0.68964 0.87115 0.0
H523 H 0.85121 0.74879 0.94816 0.0
H524 H 0.84292 0.71532 0.9714 0.0
H525 H 0.8183 0.66253 0.90803 0.0
C526 C 0.83549 0.73803 0.85646 0.0
C527 C 0.84269 0.76405 0.85912 0.0
C528 C 0.84947 0.77793 0.88174 0.0
C529 C 0.84919 0.76626 0.90139 0.0
C530 C 0.84195 0.74065 0.89822 0.0
C531 C 0.83501 0.72667 0.87638 0.0
C532 C 0.82711 0.69953 0.87805 0.0
C533 C 0.79889 0.69088 0.86926 0.0
C534 C 0.84512 0.68316 0.86474 0.0
C535 C 0.83067 0.70049 0.9042 0.0
C536 C 0.8395 0.72437 0.91544 0.0
C537 C 0.84426 0.73001 0.93956 0.0
C538 C 0.83956 0.71081 0.95262 0.0
C539 C 0.82994 0.68623 0.94161 0.0
C540 C 0.82565 0.68108 0.91701 0.0
H541 H 0.04525 0.95827 0.39843 0.0
H542 H 0.04986 0.02993 0.44342 0.0
H543 H 0.02219 0.04406 0.4145 0.0
H544 H 0.04721 0.98105 0.34424 0.0
H545 H 0.02487 0.95542 0.32874 0.0
H546 H 0.04484 0.95102 0.35306 0.0
H547 H 1.00432 0.93481 0.37317 0.0
H548 H 0.98421 0.93912 0.3489 0.0
H549 H 0.97897 0.95372 0.37806 0.0
H550 H 0.99349 0.05008 0.38067 0.0
H551 H 0.96697 0.04793 0.3443 0.0
H552 H 0.98148 0.9723 0.3215 0.0
C553 C 0.04026 0.97686 0.40232 0.0
C554 C 0.04966 0.99298 0.42324 0.0
C555 C 0.04305 0.01734 0.42744 0.0
C556 C 0.02725 0.02547 0.41117 0.0
C557 C 0.01829 0.00907 0.39075 0.0
C558 C 0.02462 0.9853 0.38626 0.0
C559 C 0.01275 0.9714 0.36289 0.0
C560 C 0.03367 0.96431 0.34625 0.0
C561 C 0.99395 0.9484 0.36595 0.0
C562 C 0.99871 0.99104 0.3549 0.0
C563 C 1.00206 0.01262 0.37123 0.0
C564 C 0.99077 0.03328 0.36776 0.0
C565 C 0.97571 0.03187 0.34703 0.0
C566 C 0.97214 0.00997 0.32998 0.0
C567 C 0.98386 0.98934 0.3341 0.0
H568 H 0.28441 0.27677 0.6561 0.0
H569 H 0.28903 0.2138 0.69147 0.0
H570 H 0.28898 0.18658 0.65367 0.0
H571 H 0.24452 0.24314 0.60493 0.0
H572 H 0.26163 0.26018 0.58497 0.0
H573 H 0.25949 0.27471 0.61479 0.0
H574 H 0.30917 0.28454 0.61964 0.0
H575 H 0.31147 0.27 0.58988 0.0
H576 H 0.32817 0.25965 0.61321 0.0
H577 H 0.29095 0.16631 0.61273 0.0
H578 H 0.29517 0.15415 0.57064 0.0
H579 H 0.29128 0.23004 0.56092 0.0
C580 C 0.28524 0.25724 0.65593 0.0
C581 C 0.2862 0.24751 0.67697 0.0
C582 C 0.28738 0.22177 0.67578 0.0
C583 C 0.28762 0.20608 0.65432 0.0
C584 C 0.28688 0.21631 0.63406 0.0
C585 C 0.28575 0.24126 0.63458 0.0
C586 C 0.28651 0.24758 0.61017 0.0
C587 C 0.26155 0.25695 0.60331 0.0
C588 C 0.31025 0.26656 0.60811 0.0
C589 C 0.28861 0.22232 0.59597 0.0
C590 C 0.28859 0.20458 0.61017 0.0
C591 C 0.29086 0.17999 0.60138 0.0
C592 C 0.29329 0.17329 0.57739 0.0
C593 C 0.29356 0.19111 0.56238 0.0
C594 C 0.29105 0.21596 0.57187 0.0
H595 H 0.53272 0.50424 0.62684 0.0
H596 H 0.56517 0.58163 0.64918 0.0
H597 H 0.54046 0.58307 0.68441 0.0
H598 H 0.46949 0.50897 0.64797 0.0
H599 H 0.46621 0.47925 0.65743 0.0
H600 H 0.48569 0.4845 0.6334 0.0
H601 H 0.52459 0.47173 0.65471 0.0
H602 H 0.50524 0.46647 0.67881 0.0
H603 H 0.53502 0.48751 0.68383 0.0
H604 H 0.51295 0.57604 0.71776 0.0
H605 H 0.4845 0.56087 0.74678 0.0
H606 H 0.4709 0.48778 0.70347 0.0
C607 C 0.53469 0.52149 0.63914 0.0
C608 C 0.55075 0.54289 0.63499 0.0
C609 C 0.55259 0.56511 0.65157 0.0
C610 C 0.53878 0.56609 0.67179 0.0
C611 C 0.52323 0.54467 0.67534 0.0
C612 C 0.52111 0.52278 0.6595 0.0
C613 C 0.50341 0.5023 0.66774 0.0
C614 C 0.4798 0.49323 0.65061 0.0
C615 C 0.51794 0.48073 0.6715 0.0
C616 C 0.49601 0.5161 0.6907 0.0
C617 C 0.50761 0.54053 0.69472 0.0
C618 C 0.50373 0.55694 0.71479 0.0
C619 C 0.48754 0.54814 0.73119 0.0
C620 C 0.47546 0.52313 0.72747 0.0
C621 C 0.47985 0.50699 0.7069 0.0
H622 H 0.80017 0.31446 0.67949 0.0
H623 H 0.76077 0.23895 0.66054 0.0
H624 H 0.75198 0.24639 0.62047 0.0
H625 H 0.75649 0.34229 0.64833 0.0
H626 H 0.78076 0.36489 0.63977 0.0
H627 H 0.78582 0.3529 0.66626 0.0
H628 H 0.82853 0.33911 0.65175 0.0
H629 H 0.8236 0.35108 0.62519 0.0
H630 H 0.82842 0.31915 0.6239 0.0
H631 H 0.74497 0.2631 0.58321 0.0
H632 H 0.74064 0.28743 0.55166 0.0
H633 H 0.78406 0.35225 0.59536 0.0
C634 C 0.7897 0.29943 0.66695 0.0
C635 C 0.78113 0.27609 0.67324 0.0
C636 C 0.76782 0.25688 0.65612 0.0
C637 C 0.76263 0.26097 0.63334 0.0
C638 C 0.77097 0.28435 0.6279 0.0
C639 C 0.78431 0.30322 0.64422 0.0
C640 C 0.79025 0.32695 0.63429 0.0
C641 C 0.77757 0.34799 0.64798 0.0
C642 C 0.81944 0.33451 0.63375 0.0
C643 C 0.77782 0.31862 0.60991 0.0
C644 C 0.76692 0.29395 0.60652 0.0
C645 C 0.7536 0.28236 0.58563 0.0
C646 C 0.75121 0.29638 0.56781 0.0
C647 C 0.76204 0.32177 0.57098 0.0
C648 C 0.77571 0.33287 0.59229 0.0
H649 H 0.52625 0.03501 0.60308 0.0
H650 H 0.51573 0.95708 0.57146 0.0
H651 H 0.53743 0.94716 0.60632 0.0
H652 H 0.58817 0.03717 0.62962 0.0
H653 H 0.58282 0.05785 0.65581 0.0
H654 H 0.56542 0.05877 0.62884 0.0
H655 H 0.52223 0.05135 0.64844 0.0
H656 H 0.5395 0.05056 0.67554 0.0
H657 H 0.51556 0.02484 0.66286 0.0
H658 H 0.56241 0.94598 0.64374 0.0
H659 H 0.58729 0.95349 0.68167 0.0
H660 H 0.58033 0.03193 0.68947 0.0
C661 C 0.52805 0.01579 0.60364 0.0
C662 C 0.51933 0.99684 0.58442 0.0
C663 C 0.52254 0.97198 0.58578 0.0
C664 C 0.53473 0.96613 0.60557 0.0
C665 C 0.54347 0.98529 0.62401 0.0
C666 C 0.54011 0.00959 0.62331 0.0
C667 C 0.55181 0.02677 0.64527 0.0
C668 C 0.57333 0.04628 0.63953 0.0
C669 C 0.53103 0.0391 0.65883 0.0
C670 C 0.56252 0.00837 0.65829 0.0
C671 C 0.55751 0.98454 0.64572 0.0
C672 C 0.56625 0.96454 0.65383 0.0
C673 C 0.58043 0.969 0.67538 0.0
C674 C 0.58568 0.99326 0.68863 0.0
C675 C 0.57647 0.01312 0.6799 0.0
H676 H 0.85647 0.23356 0.78937 0.0
H677 H 0.87115 0.17237 0.73698 0.0
H678 H 0.91156 0.1698 0.7591 0.0
H679 H 0.92375 0.26227 0.80398 0.0
H680 H 0.91869 0.26986 0.83464 0.0
H681 H 0.89262 0.26856 0.81333 0.0
H682 H 0.86473 0.23674 0.83351 0.0
H683 H 0.89079 0.23771 0.8547 0.0
H684 H 0.8766 0.20845 0.83753 0.0
H685 H 0.94916 0.17276 0.78781 0.0
H686 H 0.98108 0.18048 0.8213 0.0
H687 H 0.94052 0.23834 0.8561 0.0
C688 C 0.86862 0.2201 0.78233 0.0
C689 C 0.86116 0.20344 0.76134 0.0
C690 C 0.8769 0.18545 0.75292 0.0
C691 C 0.89978 0.18387 0.76536 0.0
C692 C 0.90641 0.20025 0.78629 0.0
C693 C 0.8913 0.21802 0.79473 0.0
C694 C 0.90179 0.23217 0.81846 0.0
C695 C 0.90969 0.25985 0.81754 0.0
C696 C 0.88232 0.22854 0.83715 0.0
C697 C 0.92504 0.21945 0.82213 0.0
C698 C 0.9275 0.20127 0.80327 0.0
C699 C 0.94746 0.18698 0.80266 0.0
C700 C 0.96547 0.19148 0.82177 0.0
C701 C 0.96323 0.20992 0.84136 0.0
C702 C 0.94265 0.22399 0.84148 0.0
H703 H 0.50955 0.91778 0.42914 0.0
H704 H 0.54201 0.9204 0.49926 0.0
H705 H 0.54643 0.87585 0.48959 0.0
H706 H 0.474 0.856 0.42213 0.0
H707 H 0.48048 0.84843 0.39179 0.0
H708 H 0.47894 0.88017 0.40466 0.0
H709 H 0.5246 0.89332 0.39148 0.0
H710 H 0.5263 0.86162 0.3786 0.0
H711 H 0.55088 0.87819 0.40001 0.0
H712 H 0.5486 0.83113 0.4716 0.0
H713 H 0.54768 0.7899 0.44701 0.0
H714 H 0.51454 0.81732 0.38865 0.0
C715 C 0.51768 0.90905 0.44248 0.0
C716 C 0.52546 0.92262 0.46497 0.0
C717 C 0.53563 0.91033 0.482 0.0
C718 C 0.53835 0.88507 0.47663 0.0
C719 C 0.53076 0.87236 0.45418 0.0
C720 C 0.52055 0.88394 0.43742 0.0
C721 C 0.51421 0.86631 0.41451 0.0
C722 C 0.48519 0.8625 0.40789 0.0
C723 C 0.52994 0.8754 0.39501 0.0
C724 C 0.52267 0.84301 0.4209 0.0
C725 C 0.53209 0.8468 0.44386 0.0
C726 C 0.5412 0.82794 0.45361 0.0
C727 C 0.54063 0.8046 0.43949 0.0
C728 C 0.53107 0.80036 0.41589 0.0
C729 C 0.52199 0.81991 0.4066 0.0
H730 H 0.20581 0.26469 0.79039 0.0
H731 H 0.22516 0.19203 0.79675 0.0
H732 H 0.18254 0.18076 0.81166 0.0
H733 H 0.17507 0.27411 0.84225 0.0
H734 H 0.15019 0.28971 0.8317 0.0
H735 H 0.18066 0.29104 0.81849 0.0
H736 H 0.15765 0.27327 0.77794 0.0
H737 H 0.12703 0.27213 0.79099 0.0
H738 H 0.13595 0.24447 0.77406 0.0
H739 H 0.14023 0.17897 0.8297 0.0
H740 H 0.10005 0.18615 0.84859 0.0
H741 H 0.10776 0.2601 0.8307 0.0
C742 C 0.2007 0.24617 0.79426 0.0
C743 C 0.21861 0.22913 0.7923 0.0
C744 C 0.21163 0.20529 0.79814 0.0
C745 C 0.18748 0.19873 0.80655 0.0
C746 C 0.17051 0.21619 0.80897 0.0
C747 C 0.17667 0.23936 0.80284 0.0
C748 C 0.15568 0.25529 0.80881 0.0
C749 C 0.16603 0.27893 0.82636 0.0
C750 C 0.14335 0.26166 0.78662 0.0
C751 C 0.13712 0.23769 0.81979 0.0
C752 C 0.14598 0.21517 0.81952 0.0
C753 C 0.1329 0.19639 0.82974 0.0
C754 C 0.11014 0.20071 0.84053 0.0
C755 C 0.10068 0.22366 0.84108 0.0
C756 C 0.11434 0.24227 0.83038 0.0
H757 H 0.60683 0.63961 0.51284 0.0
H758 H 0.53799 0.59207 0.52604 0.0
H759 H 0.5159 0.60135 0.49111 0.0
H760 H 0.57487 0.68687 0.49788 0.0
H761 H 0.59626 0.69453 0.4758 0.0
H762 H 0.60784 0.68134 0.49974 0.0
H763 H 0.62248 0.64575 0.47065 0.0
H764 H 0.61099 0.65889 0.44657 0.0
H765 H 0.5996 0.62709 0.44879 0.0
H766 H 0.50003 0.61881 0.45664 0.0
H767 H 0.49161 0.64336 0.42606 0.0
H768 H 0.57015 0.68113 0.43687 0.0
C769 C 0.58715 0.63097 0.50838 0.0
C770 C 0.57426 0.61501 0.5223 0.0
C771 C 0.54856 0.60396 0.51553 0.0
C772 C 0.53576 0.60925 0.49575 0.0
C773 C 0.54887 0.62561 0.48286 0.0
C774 C 0.57403 0.63625 0.4889 0.0
C775 C 0.58322 0.65466 0.47327 0.0
C776 C 0.59099 0.6809 0.48753 0.0
C777 C 0.60538 0.64607 0.45897 0.0
C778 C 0.55908 0.65321 0.45785 0.0
C779 C 0.53958 0.63608 0.46341 0.0
C780 C 0.51523 0.63211 0.45202 0.0
C781 C 0.51063 0.64618 0.43467 0.0
C782 C 0.5302 0.6642 0.42904 0.0
C783 C 0.55479 0.66747 0.44069 0.0
H784 H 0.86407 0.79156 0.7561 0.0
H785 H 0.9075 0.76335 0.80833 0.0
H786 H 0.94092 0.75593 0.78071 0.0
H787 H 0.88156 0.75051 0.70487 0.0
H788 H 0.88443 0.77449 0.6871 0.0
H789 H 0.86236 0.77537 0.71012 0.0
H790 H 0.88422 0.8197 0.72812 0.0
H791 H 0.90638 0.81894 0.70522 0.0
H792 H 0.91838 0.82514 0.73531 0.0
H793 H 0.97105 0.75369 0.74864 0.0
H794 H 0.99616 0.75716 0.71415 0.0
H795 H 0.93482 0.78865 0.68283 0.0
C796 C 0.8805 0.78368 0.76175 0.0
C797 C 0.88269 0.77769 0.78446 0.0
C798 C 0.90469 0.76742 0.79093 0.0
C799 C 0.92403 0.76333 0.77539 0.0
C800 C 0.92137 0.76972 0.75337 0.0
C801 C 0.90021 0.77969 0.7465 0.0
C802 C 0.90285 0.78615 0.72223 0.0
C803 C 0.88153 0.7707 0.70507 0.0
C804 C 0.90297 0.81414 0.72276 0.0
C805 C 0.92898 0.77857 0.71674 0.0
C806 C 0.93916 0.76894 0.73491 0.0
C807 C 0.96323 0.76107 0.73423 0.0
C808 C 0.97737 0.76316 0.71452 0.0
C809 C 0.96754 0.77317 0.69568 0.0
C810 C 0.9429 0.78086 0.69686 0.0
H811 H 0.02335 0.86109 0.50295 0.0
H812 H 0.0902 0.91318 0.53268 0.0
H813 H 0.08544 0.89811 0.57034 0.0
H814 H 0.98702 0.86374 0.55609 0.0
H815 H 0.97494 0.83104 0.54956 0.0
H816 H 0.98186 0.8482 0.52618 0.0
H817 H 0.01215 0.81706 0.50959 0.0
H818 H 0.00537 0.79986 0.53289 0.0
H819 H 0.03815 0.81145 0.52815 0.0
H820 H 0.07576 0.87377 0.60354 0.0
H821 H 0.06207 0.84309 0.62887 0.0
H822 H 1.00193 0.80701 0.57663 0.0
C823 C 0.03688 0.86954 0.51743 0.0
C824 C 0.05723 0.88828 0.51481 0.0
C825 C 0.07432 0.89899 0.53431 0.0
C826 C 0.0718 0.89047 0.55574 0.0
C827 C 0.05192 0.87142 0.55746 0.0
C828 C 0.03465 0.86127 0.53881 0.0
C829 C 0.01597 0.83998 0.54446 0.0
C830 C 0.98831 0.84612 0.54405 0.0
C831 C 0.01806 0.81566 0.52779 0.0
C832 C 0.02584 0.83915 0.56901 0.0
C833 C 0.0464 0.85757 0.57637 0.0
C834 C 0.05947 0.8595 0.59802 0.0
C835 C 0.05156 0.84197 0.61231 0.0
C836 C 0.03085 0.82265 0.60483 0.0
C837 C 0.01766 0.82163 0.58303 0.0
H838 H 0.1982 0.71887 0.71268 0.0
H839 H 0.20329 0.75916 0.78371 0.0
H840 H 0.16379 0.77664 0.77526 0.0
H841 H 0.17682 0.76685 0.68535 0.0
H842 H 0.15555 0.74559 0.66389 0.0
H843 H 0.18382 0.7358 0.67574 0.0
H844 H 0.15562 0.69857 0.68844 0.0
H845 H 0.12727 0.7082 0.67657 0.0
H846 H 0.12927 0.70416 0.70665 0.0
H847 H 0.12407 0.79033 0.75871 0.0
H848 H 0.08658 0.79823 0.73577 0.0
H849 H 0.10802 0.74942 0.67538 0.0
C850 C 0.19112 0.73148 0.72645 0.0
C851 C 0.2039 0.73764 0.74888 0.0
C852 C 0.1937 0.75391 0.76649 0.0
C853 C 0.17136 0.76407 0.76181 0.0
C854 C 0.15942 0.75776 0.73944 0.0
C855 C 0.1689 0.74177 0.72208 0.0
C856 C 0.15249 0.73795 0.69951 0.0
C857 C 0.1681 0.7471 0.67997 0.0
C858 C 0.14045 0.7106 0.69238 0.0
C859 C 0.13231 0.75437 0.70684 0.0
C860 C 0.13664 0.76564 0.72993 0.0
C861 C 0.12049 0.78159 0.74062 0.0
C862 C 0.09925 0.78599 0.72741 0.0
C863 C 0.09432 0.77449 0.70374 0.0
C864 C 0.11124 0.75857 0.69339 0.0
H865 H 0.94438 0.60143 0.53499 0.0
H866 H 0.01522 0.60391 0.49883 0.0
H867 H 0.03281 0.64285 0.52539 0.0
H868 H 0.94218 0.66719 0.5458 0.0
H869 H 0.92967 0.66712 0.57422 0.0
H870 H 0.9226 0.63986 0.55202 0.0
H871 H 0.94119 0.61355 0.57978 0.0
H872 H 0.9483 0.64071 0.60208 0.0
H873 H 0.97348 0.6229 0.59256 0.0
H874 H 0.04291 0.68107 0.5567 0.0
H875 H 0.04465 0.7157 0.58978 0.0
H876 H 0.96719 0.68764 0.60557 0.0
C877 C 0.96369 0.61001 0.53273 0.0
C878 C 0.97849 0.59951 0.51487 0.0
C879 C 1.00346 0.61169 0.51225 0.0
C880 C 0.01364 0.63374 0.52732 0.0
C881 C 0.99857 0.64342 0.54486 0.0
C882 C 0.97411 0.63196 0.54757 0.0
C883 C 0.96187 0.646 0.56785 0.0
C884 C 0.93765 0.65561 0.55946 0.0
C885 C 0.95587 0.62982 0.58668 0.0
C886 C 0.98335 0.66712 0.57628 0.0
C887 C 1.00434 0.66534 0.56278 0.0
C888 C 0.02656 0.68265 0.56735 0.0
C889 C 0.02736 0.70226 0.58622 0.0
C890 C 0.00605 0.70443 0.60032 0.0
C891 C 0.98379 0.68657 0.59515 0.0
H892 H 0.8329 0.83736 0.20757 0.0
H893 H 0.7672 0.85224 0.24787 0.0
H894 H 0.78896 0.89495 0.2628 0.0
H895 H 0.88123 0.87138 0.25027 0.0
H896 H 0.90175 0.88248 0.22894 0.0
H897 H 0.88083 0.85332 0.22144 0.0
H898 H 0.86052 0.86884 0.18633 0.0
H899 H 0.88137 0.89805 0.19372 0.0
H900 H 0.84702 0.89749 0.19116 0.0
H901 H 0.8178 0.93644 0.27251 0.0
H902 H 0.85204 0.97264 0.27767 0.0
H903 H 0.89898 0.92988 0.23143 0.0
C904 C 0.82299 0.84967 0.2194 0.0
C905 C 0.79828 0.84159 0.22646 0.0
C906 C 0.78618 0.85807 0.24233 0.0
C907 C 0.79833 0.88235 0.2508 0.0
C908 C 0.82265 0.88976 0.24336 0.0
C909 C 0.8349 0.87382 0.22812 0.0
C910 C 0.86115 0.88611 0.22309 0.0
C911 C 0.8825 0.87251 0.23144 0.0
C912 C 0.86259 0.88772 0.19703 0.0
C913 C 0.86178 0.91152 0.23779 0.0
C914 C 0.83937 0.91333 0.24928 0.0
C915 C 0.83545 0.93519 0.26366 0.0
C916 C 0.855 0.95566 0.26645 0.0
C917 C 0.87824 0.9541 0.25502 0.0
C918 C 0.88152 0.93168 0.24051 0.0
H919 H 0.77983 0.15745 0.28676 0.0
H920 H 0.83701 0.20785 0.33356 0.0
H921 H 0.86696 0.17705 0.32808 0.0
H922 H 0.79375 0.10137 0.3056 0.0
H923 H 0.78921 0.08271 0.27688 0.0
H924 H 0.77206 0.10885 0.28398 0.0
H925 H 0.79056 0.12723 0.24886 0.0
H926 H 0.80776 0.10113 0.24166 0.0
H927 H 0.82489 0.13229 0.24645 0.0
H928 H 0.89068 0.1413 0.31827 0.0
H929 H 0.90701 0.10198 0.30467 0.0
H930 H 0.83513 0.07378 0.26395 0.0
C931 C 0.7987 0.16196 0.29574 0.0
C932 C 0.80593 0.18494 0.31085 0.0
C933 C 0.83081 0.19018 0.3223 0.0
C934 C 0.84806 0.17288 0.31918 0.0
C935 C 0.84029 0.15034 0.30447 0.0
C936 C 0.81626 0.14475 0.29289 0.0
C937 C 0.81285 0.11887 0.27836 0.0
C938 C 0.79065 0.10195 0.28671 0.0
C939 C 0.80878 0.11995 0.25228 0.0
C940 C 0.83868 0.1109 0.28369 0.0
C941 C 0.85416 0.12945 0.29874 0.0
C942 C 0.87878 0.12661 0.30643 0.0
C943 C 0.88788 0.10415 0.29859 0.0
C944 C 0.87241 0.08471 0.28322 0.0
C945 C 0.84747 0.08826 0.27565 0.0
H946 H 0.41829 0.99913 0.01068 0.0
H947 H 0.37351 0.01766 0.95359 0.0
H948 H 0.33757 0.9861 0.95968 0.0
H949 H 0.39659 0.93338 0.99919 0.0
H950 H 0.39569 0.93054 0.02956 0.0
H951 H 0.41801 0.9545 0.02063 0.0
H952 H 0.39961 0.98788 0.04943 0.0
H953 H 0.37724 0.96403 0.05846 0.0
H954 H 0.36561 0.98957 0.04768 0.0
H955 H 0.30633 0.95291 0.97216 0.0
H956 H 0.28206 0.91994 0.98985 0.0
H957 H 0.34694 0.92309 0.03911 0.0
C958 C 0.40087 0.99665 0.99954 0.0
C959 C 0.39878 0.01082 0.98157 0.0
C960 C 0.37574 0.00679 0.96722 0.0
C961 C 0.35514 0.98901 0.97064 0.0
C962 C 0.35785 0.97539 0.98848 0.0
C963 C 0.38012 0.97895 1.00269 0.0
C964 C 0.37806 0.96179 0.02058 0.0
C965 C 0.39829 0.944 0.01728 0.0
C966 C 0.38025 0.97671 0.04551 0.0
C967 C 0.35113 0.94804 0.01423 0.0
C968 C 0.33982 0.95621 0.99568 0.0
C969 C 0.31499 0.94636 0.98668 0.0
C970 C 0.30135 0.92763 0.99688 0.0
C971 C 0.31255 0.91888 0.01589 0.0
C972 C 0.3378 0.92932 0.02461 0.0
H973 H 0.29412 0.40798 0.29192 0.0
H974 H 0.25204 0.33638 0.29857 0.0
H975 H 0.21264 0.34843 0.28202 0.0
H976 H 0.24575 0.44292 0.31076 0.0
H977 H 0.25198 0.46491 0.29119 0.0
H978 H 0.27752 0.44947 0.30056 0.0
H979 H 0.28578 0.43333 0.25749 0.0
H980 H 0.26031 0.44885 0.24795 0.0
H981 H 0.25963 0.41601 0.23816 0.0
H982 H 0.17681 0.36996 0.26824 0.0
H983 H 0.14787 0.39872 0.25787 0.0
H984 H 0.21324 0.45671 0.26152 0.0
C985 C 0.2767 0.39468 0.28973 0.0
C986 C 0.2763 0.37116 0.29658 0.0
C987 C 0.25306 0.35433 0.29315 0.0
C988 C 0.2305 0.36108 0.28388 0.0
C989 C 0.23146 0.3847 0.27801 0.0
C990 C 0.25404 0.40118 0.28067 0.0
C991 C 0.24969 0.42599 0.27445 0.0
C992 C 0.25664 0.44705 0.2955 0.0
C993 C 0.26475 0.43135 0.25325 0.0
C994 C 0.22099 0.42115 0.26841 0.0
C995 C 0.21086 0.39715 0.27033 0.0
C996 C 0.1846 0.3887 0.26646 0.0
C997 C 0.16829 0.40523 0.26062 0.0
C998 C 0.17822 0.43001 0.25882 0.0
C999 C 0.20501 0.43788 0.2626 0.0
H1000 H 0.13835 0.02226 0.44479 0.0
H1001 H 0.12769 0.99657 0.51092 0.0
H1002 H 0.16869 0.02192 0.52689 0.0
H1003 H 0.20661 0.02417 0.44479 0.0
H1004 H 0.21202 0.05218 0.43242 0.0
H1005 H 0.182 0.03171 0.4259 0.0
H1006 H 0.15706 0.06807 0.44078 0.0
H1007 H 0.18699 0.0887 0.44723 0.0
H1008 H 0.16474 0.08553 0.46977 0.0
H1009 H 0.21086 0.04957 0.53562 0.0
H1010 H 0.25068 0.07906 0.53728 0.0
H1011 H 0.23337 0.0886 0.46607 0.0
C1012 C 0.14439 0.02216 0.46274 0.0
C1013 C 0.12966 0.00726 0.47655 0.0
C1014 C 0.1387 0.00744 0.49982 0.0
C1015 C 0.16193 0.02191 0.50911 0.0
C1016 C 0.1759 0.03626 0.49499 0.0
C1017 C 0.16743 0.03665 0.47236 0.0
C1018 C 0.186 0.05398 0.46101 0.0
C1019 C 0.19732 0.03965 0.43977 0.0
C1020 C 0.17291 0.07534 0.45431 0.0
C1021 C 0.20627 0.06327 0.48083 0.0
C1022 C 0.20008 0.05267 0.5002 0.0
C1023 C 0.21587 0.05805 0.52059 0.0
C1024 C 0.23852 0.07483 0.52131 0.0
C1025 C 0.24522 0.08623 0.50181 0.0
C1026 C 0.2288 0.08027 0.48128 0.0
H1027 H 0.75935 0.14976 0.70627 0.0
H1028 H 0.78051 0.16672 0.78045 0.0
H1029 H 0.74985 0.1308 0.78682 0.0
H1030 H 0.69084 0.12745 0.71131 0.0
H1031 H 0.68935 0.10296 0.68642 0.0
H1032 H 0.71157 0.13112 0.68774 0.0
H1033 H 0.74922 0.10531 0.68181 0.0
H1034 H 0.72715 0.0771 0.6806 0.0
H1035 H 0.75438 0.08415 0.70149 0.0
H1036 H 0.71881 0.09264 0.78527 0.0
H1037 H 0.68875 0.05368 0.77595 0.0
H1038 H 0.6877 0.05995 0.70249 0.0
C1039 C 0.75713 0.14602 0.72383 0.0
C1040 C 0.77216 0.16091 0.74291 0.0
C1041 C 0.76915 0.15539 0.76565 0.0
C1042 C 0.75178 0.13511 0.76944 0.0
C1043 C 0.73757 0.12047 0.75028 0.0
C1044 C 0.73995 0.12557 0.72792 0.0
C1045 C 0.72312 0.10601 0.71038 0.0
C1046 C 0.70249 0.11758 0.69825 0.0
C1047 C 0.73945 0.09233 0.69252 0.0
C1048 C 0.71124 0.08905 0.7264 0.0
C1049 C 0.71975 0.09794 0.74934 0.0
C1050 C 0.71188 0.0855 0.76738 0.0
C1051 C 0.6948 0.06334 0.76188 0.0
C1052 C 0.68583 0.05369 0.73848 0.0
C1053 C 0.6942 0.06682 0.72054 0.0
H1054 H 0.43671 0.02516 0.51519 0.0
H1055 H 0.48629 0.07222 0.57086 0.0
H1056 H 0.45961 0.10568 0.56977 0.0
H1057 H 0.4266 0.07259 0.48247 0.0
H1058 H 0.39342 0.06043 0.47399 0.0
H1059 H 0.4157 0.03977 0.47978 0.0
H1060 H 0.38626 0.02378 0.51048 0.0
H1061 H 0.36379 0.04426 0.50466 0.0
H1062 H 0.37678 0.0457 0.53401 0.0
H1063 H 0.42884 0.13466 0.56129 0.0
H1064 H 0.39452 0.15632 0.54801 0.0
H1065 H 0.36463 0.09038 0.49781 0.0
C1066 C 0.44192 0.04249 0.5272 0.0
C1067 C 0.46362 0.04607 0.54314 0.0
C1068 C 0.46961 0.06893 0.55871 0.0
C1069 C 0.45467 0.0881 0.5581 0.0
C1070 C 0.43372 0.0841 0.54189 0.0
C1071 C 0.42718 0.06178 0.52687 0.0
C1072 C 0.40374 0.06228 0.51108 0.0
C1073 C 0.41027 0.05855 0.4853 0.0
C1074 C 0.38132 0.04286 0.51532 0.0
C1075 C 0.39823 0.08847 0.51942 0.0
C1076 C 0.41581 0.10073 0.53716 0.0
C1077 C 0.4149 0.1252 0.5475 0.0
C1078 C 0.39533 0.13737 0.53975 0.0
C1079 C 0.3768 0.1251 0.52184 0.0
C1080 C 0.37846 0.10032 0.5115 0.0
H1081 H 0.61515 0.50419 0.54587 0.0
H1082 H 0.6153 0.4937 0.61832 0.0
H1083 H 0.64274 0.46121 0.60951 0.0
H1084 H 0.61797 0.43997 0.51917 0.0
H1085 H 0.64 0.44859 0.4979 0.0
H1086 H 0.61761 0.46906 0.50895 0.0
H1087 H 0.65531 0.50475 0.5216 0.0
H1088 H 0.67779 0.48443 0.51055 0.0
H1089 H 0.68148 0.50005 0.54047 0.0
H1090 H 0.67183 0.43125 0.59377 0.0
H1091 H 0.70304 0.40783 0.57272 0.0
H1092 H 0.68745 0.43982 0.51119 0.0
C1093 C 0.62083 0.4951 0.55995 0.0
C1094 C 0.61239 0.50145 0.58276 0.0
C1095 C 0.62049 0.48883 0.60051 0.0
C1096 C 0.63637 0.47038 0.59574 0.0
C1097 C 0.64441 0.46482 0.57321 0.0
C1098 C 0.63713 0.47692 0.55563 0.0
C1099 C 0.65017 0.46873 0.53338 0.0
C1100 C 0.63024 0.45582 0.51369 0.0
C1101 C 0.6672 0.4908 0.52608 0.0
C1102 C 0.66622 0.45045 0.54138 0.0
C1103 C 0.66223 0.44821 0.56431 0.0
C1104 C 0.67508 0.43278 0.57578 0.0
C1105 C 0.69278 0.41952 0.56362 0.0
C1106 C 0.69779 0.42197 0.54027 0.0
C1107 C 0.68406 0.43749 0.52899 0.0
H1108 H 0.74102 0.2643 0.36761 0.0
H1109 H 0.82056 0.25087 0.36756 0.0
H1110 H 0.82948 0.27744 0.40595 0.0
H1111 H 0.75464 0.32912 0.39558 0.0
H1112 H 0.72675 0.32784 0.41272 0.0
H1113 H 0.72611 0.30762 0.38497 0.0
H1114 H 0.71363 0.26938 0.40488 0.0
H1115 H 0.71426 0.28948 0.43269 0.0
H1116 H 0.73366 0.2647 0.42909 0.0
H1117 H 0.83036 0.30452 0.44389 0.0
H1118 H 0.82333 0.33173 0.48018 0.0
H1119 H 0.74337 0.32924 0.45698 0.0
C1120 C 0.76028 0.26705 0.37572 0.0
C1121 C 0.77997 0.2551 0.36474 0.0
C1122 C 0.80498 0.25925 0.37585 0.0
C1123 C 0.81033 0.27448 0.39761 0.0
C1124 C 0.79054 0.28567 0.40809 0.0
C1125 C 0.76603 0.28231 0.39763 0.0
C1126 C 0.74844 0.29668 0.41306 0.0
C1127 C 0.7384 0.31649 0.40085 0.0
C1128 C 0.72618 0.279 0.42036 0.0
C1129 C 0.76698 0.30849 0.43375 0.0
C1130 C 0.79112 0.3018 0.43034 0.0
C1131 C 0.81157 0.30997 0.44681 0.0
C1132 C 0.80732 0.32543 0.46742 0.0
C1133 C 0.78279 0.33268 0.47151 0.0
C1134 C 0.76234 0.32408 0.45436 0.0
H1135 H 0.48566 0.02355 0.85162 0.0
H1136 H 0.52943 0.0641 0.91403 0.0
H1137 H 0.56979 0.0555 0.89582 0.0
H1138 H 0.52737 0.97604 0.83789 0.0
H1139 H 0.52333 0.9751 0.80687 0.0
H1140 H 0.49793 0.98308 0.82541 0.0
H1141 H 0.4981 0.02425 0.80941 0.0
H1142 H 0.52347 0.01641 0.79083 0.0
H1143 H 0.52768 0.04538 0.811 0.0
H1144 H 0.60538 0.04502 0.8697 0.0
H1145 H 0.63354 0.03265 0.83814 0.0
H1146 H 0.56647 0.99871 0.79276 0.0
C1147 C 0.50372 0.03062 0.8615 0.0
C1148 C 0.50437 0.04457 0.88427 0.0
C1149 C 0.52842 0.05317 0.89669 0.0
C1150 C 0.55145 0.04845 0.88645 0.0
C1151 C 0.55009 0.03495 0.86385 0.0
C1152 C 0.52683 0.02603 0.85159 0.0
C1153 C 0.53063 0.01265 0.82731 0.0
C1154 C 0.51913 0.98508 0.8242 0.0
C1155 C 0.5193 0.02544 0.80853 0.0
C1156 C 0.55971 0.01582 0.82764 0.0
C1157 C 0.57056 0.02867 0.84891 0.0
C1158 C 0.59709 0.03475 0.85306 0.0
C1159 C 0.61293 0.02768 0.83498 0.0
C1160 C 0.60224 0.0146 0.81299 0.0
C1161 C 0.57525 0.00842 0.80944 0.0
H1162 H 0.32661 0.22405 0.33655 0.0
H1163 H 0.34603 0.29565 0.38173 0.0
H1164 H 0.34066 0.27531 0.41622 0.0
H1165 H 0.27861 0.19813 0.37137 0.0
H1166 H 0.28748 0.16734 0.36589 0.0
H1167 H 0.29292 0.18741 0.34455 0.0
H1168 H 0.34116 0.18223 0.34547 0.0
H1169 H 0.33585 0.16207 0.36676 0.0
H1170 H 0.35983 0.18927 0.37293 0.0
H1171 H 0.33271 0.24747 0.44598 0.0
H1172 H 0.32359 0.21383 0.46895 0.0
H1173 H 0.31016 0.15989 0.40484 0.0
C1174 C 0.32994 0.23543 0.35369 0.0
C1175 C 0.3365 0.26156 0.35631 0.0
C1176 C 0.34048 0.27572 0.37914 0.0
C1177 C 0.33765 0.2643 0.3989 0.0
C1178 C 0.33093 0.23862 0.39569 0.0
C1179 C 0.32722 0.22431 0.37368 0.0
C1180 C 0.32008 0.19703 0.37518 0.0
C1181 C 0.29317 0.18689 0.36356 0.0
C1182 C 0.34045 0.18175 0.36445 0.0
C1183 C 0.32028 0.19829 0.40144 0.0
C1184 C 0.32658 0.22249 0.41292 0.0
C1185 C 0.32782 0.22843 0.43718 0.0
C1186 C 0.32257 0.20916 0.4501 0.0
C1187 C 0.31616 0.18414 0.43878 0.0
C1188 C 0.31503 0.17877 0.41408 0.0
H1189 H 0.54369 0.45167 0.91638 0.0
H1190 H 0.53963 0.52057 0.96321 0.0
H1191 H 0.50904 0.53212 0.935 0.0
H1192 H 0.54576 0.47668 0.86595 0.0
H1193 H 0.52659 0.45077 0.8474 0.0
H1194 H 0.54456 0.44579 0.87267 0.0
H1195 H 0.503 0.42503 0.88822 0.0
H1196 H 0.48491 0.42954 0.86276 0.0
H1197 H 0.47552 0.44137 0.89147 0.0
H1198 H 0.48325 0.53841 0.89981 0.0
H1199 H 0.46247 0.53812 0.861 0.0
H1200 H 0.48397 0.46535 0.83674 0.0
C1201 C 0.5355 0.46869 0.92104 0.0
C1202 C 0.54356 0.48506 0.9421 0.0
C1203 C 0.53333 0.50767 0.94727 0.0
C1204 C 0.51603 0.51438 0.93135 0.0
C1205 C 0.50918 0.49828 0.9103 0.0
C1206 C 0.51837 0.47576 0.90521 0.0
C1207 C 0.50982 0.46286 0.88057 0.0
C1208 C 0.53307 0.4588 0.86579 0.0
C1209 C 0.49226 0.43824 0.88077 0.0
C1210 C 0.49497 0.48189 0.87241 0.0
C1211 C 0.49463 0.50209 0.88987 0.0
C1212 C 0.48309 0.52254 0.8861 0.0
C1213 C 0.47144 0.52225 0.86395 0.0
C1214 C 0.47152 0.50171 0.84579 0.0
C1215 C 0.48342 0.48129 0.85024 0.0
H1216 H 0.78821 0.73692 0.16446 0.0
H1217 H 0.76292 0.8039 0.14749 0.0
H1218 H 0.7645 0.7875 0.10547 0.0
H1219 H 0.83251 0.72956 0.11964 0.0
H1220 H 0.82557 0.69614 0.11379 0.0
H1221 H 0.8217 0.71285 0.14245 0.0
H1222 H 0.77436 0.69177 0.14057 0.0
H1223 H 0.77809 0.67497 0.1119 0.0
H1224 H 0.75282 0.69401 0.11646 0.0
H1225 H 0.76906 0.76386 0.06534 0.0
H1226 H 0.7775 0.73527 0.03002 0.0
H1227 H 0.80016 0.68387 0.07332 0.0
C1228 C 0.78273 0.74801 0.15189 0.0
C1229 C 0.77538 0.77166 0.15921 0.0
C1230 C 0.7688 0.78581 0.14224 0.0
C1231 C 0.7695 0.77661 0.11836 0.0
C1232 C 0.7769 0.75325 0.11174 0.0
C1233 C 0.78346 0.73916 0.128 0.0
C1234 C 0.79137 0.71492 0.11632 0.0
C1235 C 0.81946 0.71329 0.12348 0.0
C1236 C 0.77306 0.6926 0.12163 0.0
C1237 C 0.78832 0.7176 0.09093 0.0
C1238 C 0.77982 0.73977 0.08866 0.0
C1239 C 0.7757 0.74643 0.0669 0.0
C1240 C 0.78053 0.73005 0.04694 0.0
C1241 C 0.78951 0.70733 0.04887 0.0
C1242 C 0.79333 0.70109 0.07122 0.0
H1243 H 0.01477 0.99841 0.10995 0.0
H1244 H 0.06358 0.06836 0.13511 0.0
H1245 H 0.03867 0.07455 0.17024 0.0
H1246 H 0.95512 0.01907 0.13054 0.0
H1247 H 0.9428 0.98958 0.13832 0.0
H1248 H 0.96421 0.99081 0.11491 0.0
H1249 H 0.99487 0.96698 0.13547 0.0
H1250 H 0.97362 0.96577 0.15897 0.0
H1251 H 0.0069 0.97905 0.16511 0.0
H1252 H 0.01055 0.07185 0.20378 0.0
H1253 H 0.9785 0.0622 0.23216 0.0
H1254 H 0.94606 0.99518 0.18458 0.0
C1255 C 0.02005 0.01507 0.12282 0.0
C1256 C 0.04102 0.03298 0.1198 0.0
C1257 C 0.04738 0.05459 0.13696 0.0
C1258 C 0.03344 0.05819 0.15702 0.0
C1259 C 0.01299 0.04015 0.15958 0.0
C1260 C 0.00606 0.01916 0.14284 0.0
C1261 C 0.98311 1.00278 0.14986 0.0
C1262 C 0.95994 1.00043 0.13237 0.0
C1263 C 0.99005 0.97713 0.15251 0.0
C1264 C 0.97846 0.01769 0.17327 0.0
C1265 C 0.99608 0.03908 0.1786 0.0
C1266 C 0.99646 0.05531 0.1997 0.0
C1267 C 0.97825 0.04963 0.21574 0.0
C1268 C 0.95968 0.02807 0.2105 0.0
C1269 C 0.9598 0.01197 0.18892 0.0
H1270 H 0.25985 0.77028 0.18015 0.0
H1271 H 0.33317 0.81591 0.20143 0.0
H1272 H 0.33397 0.83021 0.16328 0.0
H1273 H 0.27157 0.75387 0.11681 0.0
H1274 H 0.23886 0.75598 0.10794 0.0
H1275 H 0.24596 0.74656 0.13541 0.0
H1276 H 0.2232 0.7819 0.15677 0.0
H1277 H 0.21625 0.79156 0.12946 0.0
H1278 H 0.23359 0.81348 0.15308 0.0
H1279 H 0.32464 0.84286 0.12484 0.0
H1280 H 0.30605 0.85286 0.08859 0.0
H1281 H 0.2382 0.79955 0.09238 0.0
C1282 C 0.27639 0.78264 0.17635 0.0
C1283 C 0.29672 0.7917 0.19334 0.0
C1284 C 0.31769 0.80854 0.18833 0.0
C1285 C 0.31827 0.81674 0.16677 0.0
C1286 C 0.29765 0.80795 0.15049 0.0
C1287 C 0.27714 0.79116 0.15494 0.0
C1288 C 0.25642 0.78634 0.1353 0.0
C1289 C 0.25301 0.75907 0.12314 0.0
C1290 C 0.23087 0.79377 0.14419 0.0
C1291 C 0.26815 0.80353 0.11947 0.0
C1292 C 0.29206 0.81559 0.12842 0.0
C1293 C 0.30607 0.83329 0.11749 0.0
C1294 C 0.29531 0.8389 0.09694 0.0
C1295 C 0.27069 0.82697 0.08757 0.0
C1296 C 0.25715 0.80887 0.09895 0.0
H1297 H 0.00785 0.50195 0.10506 0.0
H1298 H 0.07196 0.49211 0.06092 0.0
H1299 H 0.09828 0.48593 0.09454 0.0
H1300 H 0.0469 0.53794 0.15437 0.0
H1301 H 0.02782 0.52504 0.17575 0.0
H1302 H 0.01312 0.52703 0.14783 0.0
H1303 H 0.99699 0.47977 0.14111 0.0
H1304 H 0.01182 0.47761 0.16894 0.0
H1305 H 0.01976 0.45835 0.14281 0.0
H1306 H 0.11806 0.48083 0.1326 0.0
H1307 H 0.13136 0.48103 0.17363 0.0
H1308 H 0.05597 0.49707 0.19429 0.0
C1309 C 0.02744 0.4986 0.10241 0.0
C1310 C 0.03744 0.49695 0.07999 0.0
C1311 C 0.06331 0.49258 0.07756 0.0
C1312 C 0.0786 0.48923 0.09665 0.0
C1313 C 0.06804 0.49065 0.11831 0.0
C1314 C 0.0432 0.49555 0.12143 0.0
C1315 C 0.03713 0.49738 0.14692 0.0
C1316 C 0.03088 0.5234 0.1568 0.0
C1317 C 0.01512 0.47706 0.15012 0.0
C1318 C 0.06249 0.49285 0.15756 0.0
C1319 C 0.0799 0.4887 0.14064 0.0
C1320 C 0.10462 0.48409 0.14604 0.0
C1321 C 0.11196 0.48416 0.16944 0.0
C1322 C 0.09476 0.48908 0.18727 0.0
C1323 C 0.06958 0.49322 0.18111 0.0
H1324 H 0.37402 0.69583 0.27744 0.0
H1325 H 0.32696 0.73906 0.32285 0.0
H1326 H 0.35953 0.74317 0.35556 0.0
H1327 H 0.4001 0.6635 0.321 0.0
H1328 H 0.43168 0.66546 0.30975 0.0
H1329 H 0.4038 0.66419 0.29043 0.0
H1330 H 0.42382 0.70501 0.27754 0.0
H1331 H 0.45174 0.7064 0.29679 0.0
H1332 H 0.43379 0.73225 0.29931 0.0
H1333 H 0.39723 0.74332 0.38284 0.0
H1334 H 0.43915 0.7422 0.40263 0.0
H1335 H 0.46325 0.70065 0.33908 0.0
C1336 C 0.37056 0.70586 0.29439 0.0
C1337 C 0.34803 0.71697 0.29789 0.0
C1338 C 0.34415 0.73039 0.32005 0.0
C1339 C 0.36246 0.73273 0.33866 0.0
C1340 C 0.38461 0.72172 0.33469 0.0
C1341 C 0.38888 0.70872 0.31309 0.0
C1342 C 0.4151 0.70013 0.31318 0.0
C1343 C 0.41251 0.67162 0.30831 0.0
C1344 C 0.43211 0.71164 0.29567 0.0
C1345 C 0.42495 0.71051 0.33814 0.0
C1346 C 0.40688 0.72259 0.35029 0.0
C1347 C 0.41154 0.73388 0.37354 0.0
C1348 C 0.43542 0.7331 0.38464 0.0
C1349 C 0.45452 0.72135 0.37243 0.0
C1350 C 0.44905 0.70975 0.3489 0.0
H1351 H 0.00833 0.41005 0.92521 0.0
H1352 H 0.04549 0.41194 0.99342 0.0
H1353 H 0.04895 0.36726 0.98294 0.0
H1354 H 0.97264 0.34818 0.91898 0.0
H1355 H 0.97733 0.34099 0.88822 0.0
H1356 H 0.97632 0.37263 0.90176 0.0
H1357 H 0.02089 0.38598 0.88651 0.0
H1358 H 0.02208 0.35439 0.87297 0.0
H1359 H 0.04772 0.37072 0.89341 0.0
H1360 H 0.04992 0.3226 0.9642 0.0
H1361 H 0.04819 0.28172 0.93886 0.0
H1362 H 0.01174 0.30994 0.88262 0.0
C1363 C 0.01727 0.40115 0.93798 0.0
C1364 C 0.02667 0.41458 0.96015 0.0
C1365 C 0.03784 0.40202 0.97644 0.0
C1366 C 0.04003 0.37667 0.9706 0.0
C1367 C 0.03092 0.36415 0.94843 0.0
C1368 C 0.01972 0.37598 0.93241 0.0
C1369 C 0.01216 0.35861 0.90952 0.0
C1370 C 0.98287 0.35488 0.90432 0.0
C1371 C 0.02658 0.36799 0.88942 0.0
C1372 C 0.02116 0.33518 0.91502 0.0
C1373 C 0.03177 0.33867 0.93759 0.0
C1374 C 0.04159 0.31966 0.94652 0.0
C1375 C 0.04054 0.29651 0.93198 0.0
C1376 C 0.02989 0.29262 0.90873 0.0
C1377 C 0.02006 0.31229 0.90027 0.0
H1378 H 0.70255 0.73755 0.30652 0.0
H1379 H 0.67524 0.75476 0.24063 0.0
H1380 H 0.63146 0.75404 0.25474 0.0
H1381 H 0.64785 0.69436 0.31341 0.0
H1382 H 0.6482 0.70355 0.34462 0.0
H1383 H 0.67771 0.70698 0.32993 0.0
H1384 H 0.68607 0.75381 0.34773 0.0
H1385 H 0.65665 0.7505 0.36258 0.0
H1386 H 0.66185 0.77316 0.34355 0.0
H1387 H 0.59021 0.7496 0.27544 0.0
H1388 H 0.55488 0.743 0.30156 0.0
H1389 H 0.60905 0.72766 0.35352 0.0
C1390 C 0.6874 0.74119 0.29502 0.0
C1391 C 0.69243 0.74629 0.27245 0.0
C1392 C 0.67203 0.75122 0.25812 0.0
C1393 C 0.64703 0.75066 0.26591 0.0
C1394 C 0.64271 0.74517 0.2881 0.0
C1395 C 0.66235 0.74063 0.30249 0.0
C1396 C 0.65254 0.73465 0.32536 0.0
C1397 C 0.65683 0.70832 0.3285 0.0
C1398 C 0.66502 0.7542 0.34602 0.0
C1399 C 0.62424 0.73631 0.32151 0.0
C1400 C 0.61897 0.74246 0.29994 0.0
C1401 C 0.59413 0.74486 0.29241 0.0
C1402 C 0.57417 0.74102 0.30737 0.0
C1403 C 0.57914 0.73479 0.32961 0.0
C1404 C 0.60456 0.73237 0.33665 0.0
H1405 H 0.0964 0.10886 0.99048 0.0
H1406 H 0.0372 0.10949 0.04053 0.0
H1407 H 0.0112 0.13021 0.01543 0.0
H1408 H 0.09328 0.16831 0.97783 0.0
H1409 H 0.09892 0.1603 0.94733 0.0
H1410 H 0.11137 0.14339 0.96807 0.0
H1411 H 0.08771 0.10208 0.94433 0.0
H1412 H 0.0752 0.1189 0.92347 0.0
H1413 H 0.05352 0.09881 0.93777 0.0
H1414 H 0.99363 0.15439 0.98622 0.0
H1415 H 0.98575 0.17896 0.95543 0.0
H1416 H 0.05685 0.16213 0.92498 0.0
C1417 C 0.0779 0.11321 0.99614 0.0
C1418 C 0.06886 0.10764 0.01752 0.0
C1419 C 0.0444 0.11338 0.02412 0.0
C1420 C 0.02956 0.12522 0.01001 0.0
C1421 C 0.03936 0.13095 0.98927 0.0
C1422 C 0.06291 0.12493 0.98231 0.0
C1423 C 0.06979 0.13404 0.95988 0.0
C1424 C 0.09481 0.15261 0.96351 0.0
C1425 C 0.07165 0.11215 0.9402 0.0
C1426 C 0.04672 0.14668 0.95552 0.0
C1427 C 0.02925 0.14459 0.97253 0.0
C1428 C 0.00705 0.15588 0.97268 0.0
C1429 C 1.00275 0.16983 0.95513 0.0
C1430 C 0.02061 0.17242 0.9377 0.0
C1431 C 0.04267 0.16036 0.93786 0.0
H1432 H 0.39221 0.30253 0.2737 0.0
H1433 H 0.35176 0.22874 0.27477 0.0
H1434 H 0.37692 0.21161 0.24254 0.0
H1435 H 0.39597 0.29542 0.21061 0.0
H1436 H 0.42765 0.31307 0.21236 0.0
H1437 H 0.40611 0.31968 0.23523 0.0
H1438 H 0.44046 0.31316 0.26576 0.0
H1439 H 0.46207 0.30645 0.243 0.0
H1440 H 0.45371 0.28437 0.2621 0.0
H1441 H 0.40691 0.20227 0.21094 0.0
H1442 H 0.43966 0.2011 0.18179 0.0
H1443 H 0.46072 0.28105 0.20038 0.0
C1444 C 0.38836 0.28282 0.26695 0.0
C1445 C 0.36992 0.26698 0.27683 0.0
C1446 C 0.36591 0.24121 0.26771 0.0
C1447 C 0.38002 0.23133 0.24931 0.0
C1448 C 0.39811 0.24742 0.24011 0.0
C1449 C 0.40231 0.27262 0.24855 0.0
C1450 C 0.42327 0.28571 0.23578 0.0
C1451 C 0.41261 0.30459 0.22272 0.0
C1452 C 0.44623 0.29815 0.25267 0.0
C1453 C 0.43028 0.2639 0.21891 0.0
C1454 C 0.41546 0.24202 0.22174 0.0
C1455 C 0.41855 0.2193 0.20851 0.0
C1456 C 0.4373 0.21885 0.19198 0.0
C1457 C 0.45283 0.24098 0.18869 0.0
C1458 C 0.44913 0.26382 0.20236 0.0
H1459 H 0.59351 0.37333 0.04078 0.0
H1460 H 0.52552 0.39546 0.01049 0.0
H1461 H 0.49871 0.37399 0.0373 0.0
H1462 H 0.56578 0.31306 0.04523 0.0
H1463 H 0.58292 0.31221 0.07239 0.0
H1464 H 0.59682 0.33159 0.05274 0.0
H1465 H 0.60121 0.37001 0.08567 0.0
H1466 H 0.58739 0.3507 0.10549 0.0
H1467 H 0.57326 0.37763 0.10081 0.0
H1468 H 0.47901 0.34653 0.06515 0.0
H1469 H 0.46833 0.31667 0.09191 0.0
H1470 H 0.5495 0.31239 0.10335 0.0
C1471 C 0.57299 0.37385 0.03985 0.0
C1472 C 0.56162 0.38605 0.02342 0.0
C1473 C 0.53473 0.38649 0.02305 0.0
C1474 C 0.51934 0.37424 0.03815 0.0
C1475 C 0.53116 0.36181 0.05366 0.0
C1476 C 0.55744 0.36174 0.05471 0.0
C1477 C 0.56541 0.34604 0.07201 0.0
C1478 C 0.5785 0.32445 0.05986 0.0
C1479 C 0.58285 0.36206 0.09219 0.0
C1480 C 0.53946 0.33675 0.08023 0.0
C1481 C 0.51993 0.34617 0.0696 0.0
C1482 C 0.49421 0.33929 0.07373 0.0
C1483 C 0.48832 0.32226 0.08896 0.0
C1484 C 0.50805 0.3122 0.09986 0.0
C1485 C 0.53395 0.31986 0.09553 0.0
H1486 H 0.67947 0.26054 0.26483 0.0
H1487 H 0.71571 0.2269 0.20427 0.0
H1488 H 0.67486 0.22224 0.18057 0.0
H1489 H 0.61438 0.22344 0.2507 0.0
H1490 H 0.5982 0.24961 0.26102 0.0
H1491 H 0.62929 0.24742 0.27396 0.0
H1492 H 0.64666 0.29082 0.26484 0.0
H1493 H 0.61576 0.29304 0.25167 0.0
H1494 H 0.64407 0.29639 0.23524 0.0
H1495 H 0.63202 0.22487 0.16265 0.0
H1496 H 0.58891 0.23333 0.1515 0.0
H1497 H 0.57963 0.26584 0.22339 0.0
C1498 C 0.67844 0.25153 0.24676 0.0
C1499 C 0.7005 0.24372 0.23634 0.0
C1500 C 0.69886 0.23273 0.2125 0.0
C1501 C 0.67579 0.23004 0.19895 0.0
C1502 C 0.65453 0.23851 0.2095 0.0
C1503 C 0.65551 0.24889 0.23288 0.0
C1504 C 0.63032 0.25807 0.23935 0.0
C1505 C 0.61728 0.24378 0.25732 0.0
C1506 C 0.63446 0.28625 0.2483 0.0
C1507 C 0.61529 0.25168 0.21588 0.0
C1508 C 0.62963 0.24026 0.19898 0.0
C1509 C 0.62047 0.23355 0.17576 0.0
C1510 C 0.59597 0.23856 0.16959 0.0
C1511 C 0.58079 0.25024 0.18654 0.0
C1512 C 0.59064 0.25674 0.21004 0.0
H1513 H 0.45804 0.11592 1.00111 0.0
H1514 H 0.47635 0.05373 0.03226 0.0
H1515 H 0.49465 0.08267 0.06784 0.0
H1516 H 0.51429 0.16047 0.02627 0.0
H1517 H 0.4963 0.18627 0.031 0.0
H1518 H 0.48654 0.16086 0.00731 0.0
H1519 H 0.44107 0.1547 0.02308 0.0
H1520 H 0.45074 0.17995 0.0469 0.0
H1521 H 0.43772 0.14978 0.05275 0.0
H1522 H 0.50962 0.11791 0.10025 0.0
H1523 H 0.51971 0.15717 0.12806 0.0
H1524 H 0.49019 0.19686 0.07675 0.0
C1525 C 0.46638 0.10852 0.01529 0.0
C1526 C 0.46608 0.08266 0.01395 0.0
C1527 C 0.47653 0.07351 0.033 0.0
C1528 C 0.48697 0.08979 0.05322 0.0
C1529 C 0.48662 0.11516 0.05416 0.0
C1530 C 0.47659 0.12453 0.03575 0.0
C1531 C 0.47736 0.15247 0.04182 0.0
C1532 C 0.49466 0.1658 0.02564 0.0
C1533 C 0.4501 0.15963 0.0411 0.0
C1534 C 0.48922 0.15729 0.06657 0.0
C1535 C 0.49461 0.13551 0.07321 0.0
C1536 C 0.50555 0.1351 0.09524 0.0
C1537 C 0.5112 0.15754 0.11092 0.0
C1538 C 0.50571 0.18013 0.10464 0.0
C1539 C 0.49453 0.17991 0.08212 0.0
H1540 H 0.30302 0.34558 0.71203 0.0
H1541 H 0.35357 0.30969 0.75163 0.0
H1542 H 0.38246 0.34943 0.76296 0.0
H1543 H 0.3539 0.38978 0.69225 0.0
H1544 H 0.33461 0.41464 0.69552 0.0
H1545 H 0.31936 0.38284 0.6883 0.0
H1546 H 0.29175 0.38962 0.72417 0.0
H1547 H 0.30702 0.42134 0.73159 0.0
H1548 H 0.30744 0.40087 0.75271 0.0
H1549 H 0.40386 0.39287 0.77245 0.0
H1550 H 0.41719 0.43806 0.77963 0.0
H1551 H 0.3526 0.44697 0.7346 0.0
C1552 C 0.32051 0.34613 0.72263 0.0
C1553 C 0.32634 0.32471 0.73087 0.0
C1554 C 0.34898 0.326 0.74514 0.0
C1555 C 0.36547 0.34842 0.7516 0.0
C1556 C 0.35897 0.36938 0.74368 0.0
C1557 C 0.33712 0.36852 0.72945 0.0
C1558 C 0.33386 0.39422 0.72476 0.0
C1559 C 0.33554 0.39544 0.69865 0.0
C1560 C 0.30851 0.40196 0.73386 0.0
C1561 C 0.35698 0.40964 0.73896 0.0
C1562 C 0.37127 0.39482 0.74951 0.0
C1563 C 0.39299 0.40469 0.76413 0.0
C1564 C 0.40034 0.43043 0.76815 0.0
C1565 C 0.38597 0.44613 0.75768 0.0
C1566 C 0.36406 0.43549 0.74278 0.0
H1567 H 0.31827 0.65793 0.7976 0.0
H1568 H 0.26729 0.63626 0.85002 0.0
H1569 H 0.28842 0.599 0.85082 0.0
H1570 H 0.31988 0.59585 0.76591 0.0
H1571 H 0.35332 0.60207 0.75994 0.0
H1572 H 0.33398 0.62687 0.76331 0.0
H1573 H 0.36646 0.65222 0.79586 0.0
H1574 H 0.38589 0.6275 0.7926 0.0
H1575 H 0.37454 0.63855 0.82074 0.0
H1576 H 0.31535 0.5643 0.84617 0.0
H1577 H 0.34651 0.53495 0.83689 0.0
H1578 H 0.37977 0.57898 0.78717 0.0
C1579 C 0.31134 0.64521 0.80906 0.0
C1580 C 0.29108 0.65004 0.82376 0.0
C1581 C 0.28294 0.63312 0.8388 0.0
C1582 C 0.29472 0.61182 0.83927 0.0
C1583 C 0.31464 0.60767 0.8246 0.0
C1584 C 0.32291 0.62388 0.80978 0.0
C1585 C 0.34501 0.61532 0.79607 0.0
C1586 C 0.3376 0.60969 0.76975 0.0
C1587 C 0.36942 0.63454 0.80166 0.0
C1588 C 0.34794 0.59179 0.80555 0.0
C1589 C 0.33018 0.58769 0.82194 0.0
C1590 C 0.3293 0.5673 0.83333 0.0
C1591 C 0.34711 0.55071 0.82792 0.0
C1592 C 0.36561 0.55459 0.81128 0.0
C1593 C 0.36585 0.5754 0.79992 0.0
H1594 H 0.89374 0.50977 0.47836 0.0
H1595 H 0.95406 0.51595 0.53273 0.0
H1596 H 0.92718 0.48515 0.5512 0.0
H1597 H 0.84096 0.50429 0.51487 0.0
H1598 H 0.82041 0.48208 0.4936 0.0
H1599 H 0.84465 0.50403 0.48416 0.0
H1600 H 0.86395 0.46795 0.45983 0.0
H1601 H 0.83965 0.44589 0.46905 0.0
H1602 H 0.87319 0.44339 0.47384 0.0
H1603 H 0.89354 0.45424 0.56413 0.0
H1604 H 0.85576 0.42475 0.57026 0.0
H1605 H 0.81716 0.43867 0.50753 0.0
C1606 C 0.90143 0.50437 0.49396 0.0
C1607 C 0.92601 0.51527 0.50412 0.0
C1608 C 0.93519 0.50801 0.52478 0.0
C1609 C 0.92011 0.49048 0.53535 0.0
C1610 C 0.89585 0.48035 0.52507 0.0
C1611 C 0.88657 0.48694 0.5048 0.0
C1612 C 0.85966 0.47355 0.49756 0.0
C1613 C 0.84028 0.4921 0.49756 0.0
C1614 C 0.85909 0.45669 0.47366 0.0
C1615 C 0.85525 0.45845 0.51695 0.0
C1616 C 0.87638 0.46263 0.53261 0.0
C1617 C 0.87689 0.45079 0.55196 0.0
C1618 C 0.8553 0.43409 0.55531 0.0
C1619 C 0.83344 0.42939 0.53942 0.0
C1620 C 0.83349 0.44189 0.52006 0.0
H1621 H 0.76461 0.89419 0.83785 0.0
H1622 H 0.7859 0.85784 0.77092 0.0
H1623 H 0.75028 0.87339 0.75127 0.0
H1624 H 0.6946 0.88451 0.82429 0.0
H1625 H 0.69097 0.91444 0.84066 0.0
H1626 H 0.71617 0.89804 0.84924 0.0
H1627 H 0.74997 0.93621 0.84673 0.0
H1628 H 0.72495 0.95265 0.83805 0.0
H1629 H 0.75169 0.94859 0.81994 0.0
H1630 H 0.71478 0.89704 0.7389 0.0
H1631 H 0.68231 0.92502 0.73516 0.0
H1632 H 0.68501 0.94541 0.81055 0.0
C1633 C 0.76162 0.88923 0.81906 0.0
C1634 C 0.77808 0.87486 0.80589 0.0
C1635 C 0.77338 0.86862 0.78137 0.0
C1636 C 0.75326 0.87747 0.77008 0.0
C1637 C 0.73785 0.89225 0.7836 0.0
C1638 C 0.74169 0.89781 0.80761 0.0
C1639 C 0.72352 0.91503 0.81821 0.0
C1640 C 0.70523 0.90224 0.83403 0.0
C1641 C 0.73843 0.93957 0.83151 0.0
C1642 C 0.70926 0.91895 0.7964 0.0
C1643 C 0.71757 0.90556 0.77658 0.0
C1644 C 0.70793 0.90734 0.75435 0.0
C1645 C 0.68951 0.92331 0.75239 0.0
C1646 C 0.68098 0.93738 0.77254 0.0
C1647 C 0.69088 0.93481 0.79477 0.0
H1648 H 0.64736 0.51193 0.00635 0.0
H1649 H 0.62863 0.51621 0.93405 0.0
H1650 H 0.66782 0.54625 0.93388 0.0
H1651 H 0.67233 0.5763 0.02435 0.0
H1652 H 0.69766 0.57072 0.04364 0.0
H1653 H 0.66834 0.54911 0.03805 0.0
H1654 H 0.69452 0.51328 0.02457 0.0
H1655 H 0.72393 0.53479 0.03016 0.0
H1656 H 0.71645 0.516 1.00171 0.0
H1657 H 0.70867 0.57614 0.94149 0.0
H1658 H 0.74849 0.60416 0.95658 0.0
H1659 H 0.74105 0.58057 0.02392 0.0
C1660 C 0.65164 0.51907 0.99046 0.0
C1661 C 0.6348 0.51188 0.97028 0.0
C1662 C 0.64099 0.52177 0.94985 0.0
C1663 C 0.6633 0.53873 0.94952 0.0
C1664 C 0.67934 0.54562 0.96974 0.0
C1665 C 0.67385 0.53613 0.98984 0.0
C1666 C 0.69418 0.54697 0.00927 0.0
C1667 C 0.68242 0.56165 0.03005 0.0
C1668 C 0.70809 0.52654 0.01687 0.0
C1669 C 0.71185 0.56406 0.99695 0.0
C1670 C 0.70296 0.56293 0.97414 0.0
C1671 C 0.71587 0.57716 0.95932 0.0
C1672 C 0.73849 0.59303 0.96806 0.0
C1673 C 0.74795 0.5946 0.99143 0.0
C1674 C 0.73439 0.57981 0.00597 0.0
H1675 H 0.27136 0.65928 0.27802 0.0
H1676 H 0.27858 0.67008 0.20627 0.0
H1677 H 0.24933 0.63074 0.1929 0.0
H1678 H 0.26963 0.59283 0.26765 0.0
H1679 H 0.24627 0.58782 0.28893 0.0
H1680 H 0.26798 0.61656 0.29264 0.0
H1681 H 0.22921 0.64115 0.29525 0.0
H1682 H 0.20737 0.61248 0.29146 0.0
H1683 H 0.20442 0.63431 0.27197 0.0
H1684 H 0.21997 0.58987 0.18751 0.0
H1685 H 0.19149 0.55121 0.19031 0.0
H1686 H 0.20251 0.56778 0.26584 0.0
C1687 C 0.267 0.65323 0.25947 0.0
C1688 C 0.27739 0.66758 0.24312 0.0
C1689 C 0.27078 0.65935 0.21905 0.0
C1690 C 0.25427 0.63703 0.21132 0.0
C1691 C 0.24438 0.62333 0.22793 0.0
C1692 C 0.2504 0.63117 0.25151 0.0
C1693 C 0.23682 0.6133 0.26581 0.0
C1694 C 0.25634 0.60196 0.27956 0.0
C1695 C 0.21836 0.62608 0.28208 0.0
C1696 C 0.22226 0.59407 0.24659 0.0
C1697 C 0.22698 0.60014 0.22487 0.0
C1698 C 0.21607 0.58499 0.20443 0.0
C1699 C 0.19994 0.56303 0.20622 0.0
C1700 C 0.19469 0.55649 0.2283 0.0
C1701 C 0.20598 0.57234 0.24872 0.0
H1702 H 0.98421 0.5541 0.01137 0.0
H1703 H 0.95273 0.52776 0.07213 0.0
H1704 H 0.91826 0.55409 0.07087 0.0
H1705 H 0.96891 0.61772 0.02506 0.0
H1706 H 0.96105 0.61888 0.9949 0.0
H1707 H 0.98458 0.60008 1.0023 0.0
H1708 H 0.95864 0.56157 0.97599 0.0
H1709 H 0.93495 0.58017 0.96865 0.0
H1710 H 0.92529 0.55267 0.98098 0.0
H1711 H 0.88494 0.5804 0.06052 0.0
H1712 H 0.85665 0.60569 0.04316 0.0
H1713 H 0.90988 0.61409 0.98873 0.0
C1714 C 0.97021 0.55401 0.02457 0.0
C1715 C 0.97112 0.53878 0.04183 0.0
C1716 C 0.95258 0.53944 0.05891 0.0
C1717 C 0.93286 0.55424 0.05823 0.0
C1718 C 0.93209 0.5684 0.04049 0.0
C1719 C 0.95045 0.56856 0.02411 0.0
C1720 C 0.94473 0.58438 0.00614 0.0
C1721 C 0.96609 0.60659 0.00718 0.0
C1722 C 0.94065 0.56876 0.98149 0.0
C1723 C 0.91993 0.59274 0.01464 0.0
C1724 C 0.91302 0.58346 0.03455 0.0
C1725 C 0.89033 0.58796 0.04508 0.0
C1726 C 0.87434 0.6023 0.03502 0.0
C1727 C 0.88103 0.61197 0.01457 0.0
C1728 C 0.90425 0.60714 1.00441 0.0
H1729 H 0.10392 0.98117 0.03654 0.0
H1730 H 0.1014 0.97713 0.11035 0.0
H1731 H 0.12806 0.94341 0.10491 0.0
H1732 H 0.10574 0.91486 0.01474 0.0
H1733 H 0.1283 0.92149 0.99321 0.0
H1734 H 0.10574 0.9426 1.00212 0.0
H1735 H 0.14341 0.97869 0.01302 0.0
H1736 H 0.16605 0.95772 1.00422 0.0
H1737 H 0.16909 0.97567 0.03326 0.0
H1738 H 0.15853 0.91291 0.09231 0.0
H1739 H 0.19094 0.88889 0.07379 0.0
H1740 H 0.1756 0.91458 0.00875 0.0
C1741 C 0.10872 0.97311 0.05158 0.0
C1742 C 0.10027 0.98186 0.07387 0.0
C1743 C 0.107 0.97052 0.09297 0.0
C1744 C 0.12233 0.95139 0.09009 0.0
C1745 C 0.13089 0.94377 0.06803 0.0
C1746 C 0.12429 0.95427 0.0491 0.0
C1747 C 0.13777 0.94431 0.02771 0.0
C1748 C 0.11822 0.92996 0.0083 0.0
C1749 C 0.15511 0.96535 0.01906 0.0
C1750 C 0.1535 0.92702 0.03771 0.0
C1751 C 0.14897 0.92668 0.0609 0.0
C1752 C 0.16204 0.91285 0.0741 0.0
C1753 C 0.18045 0.89926 0.06341 0.0
C1754 C 0.18584 0.89979 0.03979 0.0
C1755 C 0.17186 0.91364 0.02678 0.0
loop_
_geom_bond_atom_site_label_1
_geom_bond_atom_site_label_2
_geom_bond_distance
_geom_bond_site_symmetry_2
_ccdc_geom_bond_type
H0 C1 0.949 . S
C1 H0 0.949 . S
C1 C2 1.395 . S
C1 C3 1.391 . S
C2 C1 1.395 . S
C2 C5 1.390 . S
C3 C1 1.391 . S
C3 C7 1.387 . S
C3 C8 1.491 . S
H4 C5 0.931 1_565 S
C5 C2 1.390 . S
C5 H4 0.931 1_545 S
C5 C6 1.378 . S
C6 C5 1.378 . S
C6 C7 1.409 . S
C7 C3 1.387 . S
C7 C6 1.409 . S
C7 H9 0.951 . S
C8 C3 1.491 . S
C8 C10 1.382 . S
C8 C12 1.404 . S
H9 C7 0.951 . S
C10 C8 1.382 . S
C10 C11 1.390 . S
C10 H15 0.949 . S
C11 C10 1.390 . S
C11 C16 1.399 . S
C12 C8 1.404 . S
C12 H13 0.950 . S
C12 C14 1.375 . S
H13 C12 0.950 . S
C14 C12 1.375 . S
C14 C16 1.382 . S
C14 H18 0.950 . S
H15 C10 0.949 . S
C16 C11 1.399 . S
C16 C14 1.382 . S
C16 H17 0.952 . S
H17 C16 0.952 . S
H18 C14 0.950 . S
H19 C20 0.949 . S
C20 H19 0.949 . S
C20 C21 1.395 . S
C20 C22 1.391 . S
C21 C20 1.395 . S
C21 C24 1.390 . S
C22 C20 1.391 . S
C22 C26 1.387 . S
C22 C27 1.491 . S
H23 C24 0.950 . S
C24 C21 1.390 . S
C24 H23 0.950 . S
C24 C25 1.378 . S
C25 C24 1.378 . S
C25 C26 1.409 . S
C26 C22 1.387 . S
C26 C25 1.409 . S
C26 H28 0.951 . S
C27 C22 1.491 . S
C27 C29 1.382 . S
C27 C31 1.404 . S
H28 C26 0.951 . S
C29 C27 1.382 . S
C29 C30 1.390 . S
C29 H34 0.949 . S
C30 C29 1.390 . S
C30 C35 1.399 . S
C31 C27 1.404 . S
C31 H32 0.950 . S
C31 C33 1.375 . S
H32 C31 0.950 . S
C33 C31 1.375 . S
C33 C35 1.382 . S
C33 H37 0.950 . S
H34 C29 0.949 . S
C35 C30 1.399 . S
C35 C33 1.382 . S
C35 H36 0.952 . S
H36 C35 0.952 . S
H37 C33 0.950 . S
H38 C39 0.949 . S
C39 H38 0.949 . S
C39 C40 1.395 . S
C39 C41 1.391 1_455 S
C40 C39 1.395 . S
C40 C43 1.390 1_455 S
C41 C39 1.391 1_655 S
C41 C45 1.387 . S
C41 C46 1.487 1_654 S
H42 C43 0.950 . S
C43 C40 1.390 1_655 S
C43 H42 0.950 . S
C43 C44 1.378 . S
C44 C43 1.378 . S
C44 C45 1.409 . S
C45 C41 1.387 . S
C45 C44 1.409 . S
C45 H47 0.951 1_554 S
C46 C41 1.487 1_456 S
C46 C48 1.386 . S
C46 C50 1.404 . S
H47 C45 0.951 1_556 S
C48 C46 1.386 . S
C48 C49 1.390 . S
C48 H53 0.949 1_556 S
C49 C48 1.390 . S
C49 C54 1.399 . S
C50 C46 1.404 . S
C50 H51 0.948 1_455 S
C50 C52 1.375 . S
H51 C50 0.948 1_655 S
C52 C50 1.375 . S
C52 C54 1.382 . S
C52 H56 0.950 . S
H53 C48 0.949 1_554 S
C54 C49 1.399 . S
C54 C52 1.382 . S
C54 H55 0.952 . S
H55 C54 0.952 . S
H56 C52 0.950 . S
H57 C58 0.949 . S
C58 H57 0.949 . S
C58 C59 1.395 . S
C58 C60 1.391 . S
C59 C58 1.395 . S
C59 C62 1.390 . S
C60 C58 1.391 . S
C60 C64 1.387 . S
C60 C65 1.491 . S
H61 C62 0.950 . S
C62 C59 1.390 . S
C62 H61 0.950 . S
C62 C63 1.378 . S
C63 C62 1.378 . S
C63 C64 1.409 . S
C64 C60 1.387 . S
C64 C63 1.409 . S
C64 H66 0.951 . S
C65 C60 1.491 . S
C65 C67 1.382 . S
C65 C69 1.404 . S
H66 C64 0.951 . S
C67 C65 1.382 . S
C67 C68 1.390 . S
C67 H72 0.949 . S
C68 C67 1.390 . S
C68 C73 1.399 . S
C69 C65 1.404 . S
C69 H70 0.950 . S
C69 C71 1.375 . S
H70 C69 0.950 . S
C71 C69 1.375 . S
C71 C73 1.382 . S
C71 H75 0.950 . S
H72 C67 0.949 . S
C73 C68 1.399 . S
C73 C71 1.382 . S
C73 H74 0.952 . S
H74 C73 0.952 . S
H75 C71 0.950 . S
H76 C77 0.949 . S
C77 H76 0.949 . S
C77 C78 1.395 . S
C77 C79 1.391 . S
C78 C77 1.395 . S
C78 C81 1.390 . S
C79 C77 1.391 . S
C79 C83 1.387 . S
C79 C84 1.491 . S
H80 C81 0.950 1_545 S
C81 C78 1.390 . S
C81 H80 0.950 1_565 S
C81 C82 1.378 . S
C82 C81 1.378 . S
C82 C83 1.409 . S
C83 C79 1.387 . S
C83 C82 1.409 . S
C83 H85 0.951 . S
C84 C79 1.491 . S
C84 C86 1.382 . S
C84 C88 1.404 . S
H85 C83 0.951 . S
C86 C84 1.382 . S
C86 C87 1.390 . S
C86 H91 0.949 . S
C87 C86 1.390 . S
C87 C92 1.399 . S
C88 C84 1.404 . S
C88 H89 0.950 . S
C88 C90 1.375 . S
H89 C88 0.950 . S
C90 C88 1.375 . S
C90 C92 1.382 . S
C90 H94 0.950 . S
H91 C86 0.949 . S
C92 C87 1.399 . S
C92 C90 1.382 . S
C92 H93 0.952 . S
H93 C92 0.952 . S
H94 C90 0.950 . S
H95 C96 0.949 . S
C96 H95 0.949 . S
C96 C97 1.395 . S
C96 C98 1.391 . S
C97 C96 1.395 . S
C97 C100 1.390 . S
C98 C96 1.391 . S
C98 C102 1.387 . S
C98 C103 1.491 . S
H99 C100 0.950 . S
C100 C97 1.390 . S
C100 H99 0.950 . S
C100 C101 1.378 . S
C101 C100 1.378 . S
C101 C102 1.409 . S
C102 C98 1.387 . S
C102 C101 1.409 . S
C102 H104 0.951 . S
C103 C98 1.491 . S
C103 C105 1.382 . S
C103 C107 1.404 . S
H104 C102 0.951 . S
C105 C103 1.382 . S
C105 C106 1.390 . S
C105 H110 0.949 . S
C106 C105 1.390 . S
C106 C111 1.399 . S
C107 C103 1.404 . S
C107 H108 0.950 . S
C107 C109 1.375 . S
H108 C107 0.950 . S
C109 C107 1.375 . S
C109 C111 1.382 . S
C109 H113 0.950 . S
H110 C105 0.949 . S
C111 C106 1.399 . S
C111 C109 1.382 . S
C111 H112 0.952 . S
H112 C111 0.952 . S
H113 C109 0.950 . S
H114 C115 0.949 . S
C115 H114 0.949 . S
C115 C116 1.395 . S
C115 C117 1.391 . S
C116 C115 1.395 . S
C116 C119 1.390 . S
C117 C115 1.391 . S
C117 C121 1.387 . S
C117 C122 1.491 . S
H118 C119 0.950 . S
C119 C116 1.390 . S
C119 H118 0.950 . S
C119 C120 1.378 . S
C120 C119 1.378 . S
C120 C121 1.409 . S
C121 C117 1.387 . S
C121 C120 1.409 . S
C121 H123 0.951 . S
C122 C117 1.491 . S
C122 C124 1.424 . S
C122 C126 1.404 . S
H123 C121 0.951 . S
C124 C122 1.424 . S
C124 C125 1.375 1_655 S
C124 H129 0.923 1_655 S
C125 C124 1.375 1_455 S
C125 C130 1.399 1_455 S
C126 C122 1.404 . S
C126 H127 0.950 . S
C126 C128 1.375 . S
H127 C126 0.950 . S
C128 C126 1.375 . S
C128 C130 1.382 . S
C128 H132 0.950 . S
H129 C124 0.923 1_455 S
C130 C125 1.399 1_655 S
C130 C128 1.382 . S
C130 H131 0.952 . S
H131 C130 0.952 . S
H132 C128 0.950 . S
H133 C134 0.949 . S
C134 H133 0.949 . S
C134 C135 1.395 . S
C134 C136 1.391 . S
C135 C134 1.395 . S
C135 C138 1.390 . S
C136 C134 1.391 . S
C136 C140 1.387 . S
C136 C141 1.491 . S
H137 C138 0.950 . S
C138 C135 1.390 . S
C138 H137 0.950 . S
C138 C139 1.378 . S
C139 C138 1.378 . S
C139 C140 1.409 . S
C140 C136 1.387 . S
C140 C139 1.409 . S
C140 H142 0.951 . S
C141 C136 1.491 . S
C141 C143 1.382 . S
C141 C145 1.404 . S
H142 C140 0.951 . S
C143 C141 1.382 . S
C143 C144 1.390 . S
C143 H148 0.949 . S
C144 C143 1.390 . S
C144 C149 1.399 . S
C145 C141 1.404 . S
C145 H146 0.950 . S
C145 C147 1.375 . S
H146 C145 0.950 . S
C147 C145 1.375 . S
C147 C149 1.382 . S
C147 H151 0.950 . S
H148 C143 0.949 . S
C149 C144 1.399 . S
C149 C147 1.382 . S
C149 H150 0.952 . S
H150 C149 0.952 . S
H151 C147 0.950 . S
H152 C153 0.949 . S
C153 H152 0.949 . S
C153 C154 1.395 . S
C153 C155 1.391 . S
C154 C153 1.395 . S
C154 C157 1.390 . S
C155 C153 1.391 . S
C155 C159 1.387 . S
C155 C160 1.491 . S
H156 C157 0.950 . S
C157 C154 1.390 . S
C157 H156 0.950 . S
C157 C158 1.378 . S
C158 C157 1.378 . S
C158 C159 1.409 . S
C159 C155 1.387 . S
C159 C158 1.409 . S
C159 H161 0.951 . S
C160 C155 1.491 . S
C160 C162 1.382 . S
C160 C164 1.404 . S
H161 C159 0.951 . S
C162 C160 1.382 . S
C162 C163 1.390 . S
C162 H167 0.949 . S
C163 C162 1.390 . S
C163 C168 1.399 . S
C164 C160 1.404 . S
C164 H165 0.950 . S
C164 C166 1.375 . S
H165 C164 0.950 . S
C166 C164 1.375 . S
C166 C168 1.382 . S
C166 H170 0.950 . S
H167 C162 0.949 . S
C168 C163 1.399 . S
C168 C166 1.382 . S
C168 H169 0.952 . S
H169 C168 0.952 . S
H170 C166 0.950 . S
H171 C172 0.949 . S
C172 H171 0.949 . S
C172 C173 1.395 . S
C172 C174 1.391 . S
C173 C172 1.395 . S
C173 C176 1.390 . S
C174 C172 1.391 . S
C174 C178 1.387 . S
C174 C179 1.491 . S
H175 C176 0.950 1_545 S
C176 C173 1.390 . S
C176 H175 0.950 1_565 S
C176 C177 1.378 . S
C177 C176 1.378 . S
C177 C178 1.409 . S
C178 C174 1.387 . S
C178 C177 1.409 . S
C178 H180 0.951 . S
C179 C174 1.491 . S
C179 C181 1.382 . S
C179 C183 1.404 . S
H180 C178 0.951 . S
C181 C179 1.382 . S
C181 C182 1.390 . S
C181 H186 0.949 . S
C182 C181 1.390 . S
C182 C187 1.399 . S
C183 C179 1.404 . S
C183 H184 0.950 . S
C183 C185 1.375 . S
H184 C183 0.950 . S
C185 C183 1.375 . S
C185 C187 1.382 . S
C185 H189 0.950 . S
H186 C181 0.949 . S
C187 C182 1.399 . S
C187 C185 1.382 . S
C187 H188 0.952 . S
H188 C187 0.952 . S
H189 C185 0.950 . S
H190 C191 0.949 . S
C191 H190 0.949 . S
C191 C192 1.395 . S
C191 C193 1.391 . S
C192 C191 1.395 . S
C192 C195 1.390 . S
C193 C191 1.391 . S
C193 C197 1.387 . S
C193 C198 1.491 . S
H194 C195 0.950 . S
C195 C192 1.390 . S
C195 H194 0.950 . S
C195 C196 1.378 . S
C196 C195 1.378 . S
C196 C197 1.409 . S
C197 C193 1.387 . S
C197 C196 1.409 . S
C197 H199 0.951 . S
C198 C193 1.491 . S
C198 C200 1.382 . S
C198 C202 1.404 . S
H199 C197 0.951 . S
C200 C198 1.382 . S
C200 C201 1.390 . S
C200 H205 0.949 . S
C201 C200 1.390 . S
C201 C206 1.399 . S
C202 C198 1.404 . S
C202 H203 0.950 . S
C202 C204 1.375 . S
H203 C202 0.950 . S
C204 C202 1.375 . S
C204 C206 1.382 . S
C204 H208 0.950 . S
H205 C200 0.949 . S
C206 C201 1.399 . S
C206 C204 1.382 . S
C206 H207 0.952 . S
H207 C206 0.952 . S
H208 C204 0.950 . S
H209 C210 0.949 . S
C210 H209 0.949 . S
C210 C211 1.395 . S
C210 C212 1.391 . S
C211 C210 1.395 . S
C211 C214 1.390 . S
C212 C210 1.391 . S
C212 C216 1.387 . S
C212 C217 1.491 . S
H213 C214 0.950 . S
C214 C211 1.390 . S
C214 H213 0.950 . S
C214 C215 1.378 . S
C215 C214 1.378 . S
C215 C216 1.409 . S
C216 C212 1.387 . S
C216 C215 1.409 . S
C216 H218 0.951 . S
C217 C212 1.491 . S
C217 C219 1.382 . S
C217 C221 1.404 . S
H218 C216 0.951 . S
C219 C217 1.382 . S
C219 C220 1.390 . S
C219 H224 0.949 . S
C220 C219 1.390 . S
C220 C225 1.399 . S
C221 C217 1.404 . S
C221 H222 0.950 . S
C221 C223 1.375 . S
H222 C221 0.950 . S
C223 C221 1.375 . S
C223 C225 1.382 . S
C223 H227 0.950 . S
H224 C219 0.949 . S
C225 C220 1.399 . S
C225 C223 1.382 . S
C225 H226 0.952 . S
H226 C225 0.952 . S
H227 C223 0.950 . S
H228 C229 0.949 . S
C229 H228 0.949 . S
C229 C230 1.395 . S
C229 C231 1.391 . S
C230 C229 1.395 . S
C230 C233 1.390 . S
C231 C229 1.391 . S
C231 C235 1.387 . S
C231 C236 1.491 . S
H232 C233 0.950 . S
C233 C230 1.390 . S
C233 H232 0.950 . S
C233 C234 1.378 . S
C234 C233 1.378 . S
C234 C235 1.409 . S
C235 C231 1.387 . S
C235 C234 1.409 . S
C235 H237 0.951 . S
C236 C231 1.491 . S
C236 C238 1.382 . S
C236 C240 1.404 . S
H237 C235 0.951 . S
C238 C236 1.382 . S
C238 C239 1.390 . S
C238 H243 0.949 . S
C239 C238 1.390 . S
C239 C244 1.399 . S
C240 C236 1.404 . S
C240 H241 0.950 . S
C240 C242 1.375 . S
H241 C240 0.950 . S
C242 C240 1.375 . S
C242 C244 1.382 . S
C242 H246 0.950 . S
H243 C238 0.949 . S
C244 C239 1.399 . S
C244 C242 1.382 . S
C244 H245 0.952 . S
H245 C244 0.952 . S
H246 C242 0.950 . S
H247 C248 0.949 1_554 S
C248 H247 0.949 1_556 S
C248 C249 1.395 . S
C248 C250 1.391 . S
C249 C248 1.395 . S
C249 C252 1.390 . S
C250 C248 1.391 . S
C250 C254 1.387 . S
C250 C255 1.491 . S
H251 C252 0.950 . S
C252 C249 1.390 . S
C252 H251 0.950 . S
C252 C253 1.378 . S
C253 C252 1.378 . S
C253 C254 1.409 . S
C254 C250 1.387 . S
C254 C253 1.409 . S
C254 H256 0.951 . S
C255 C250 1.491 . S
C255 C257 1.382 1_556 S
C255 C259 1.404 . S
H256 C254 0.951 . S
C257 C255 1.382 1_554 S
C257 C258 1.390 . S
C257 H262 0.949 . S
C258 C257 1.390 . S
C258 C263 1.399 . S
C259 C255 1.404 . S
C259 H260 0.950 . S
C259 C261 1.375 . S
H260 C259 0.950 . S
C261 C259 1.375 . S
C261 C263 1.382 1_556 S
C261 H265 0.950 . S
H262 C257 0.949 . S
C263 C258 1.399 . S
C263 C261 1.382 1_554 S
C263 H264 0.952 . S
H264 C263 0.952 . S
H265 C261 0.950 . S
H266 C267 0.949 . S
C267 H266 0.949 . S
C267 C268 1.395 . S
C267 C269 1.391 . S
C268 C267 1.395 . S
C268 C271 1.390 . S
C269 C267 1.391 . S
C269 C273 1.387 . S
C269 C274 1.491 . S
H270 C271 0.950 . S
C271 C268 1.390 . S
C271 H270 0.950 . S
C271 C272 1.378 . S
C272 C271 1.378 . S
C272 C273 1.409 . S
C273 C269 1.387 . S
C273 C272 1.409 . S
C273 H275 0.951 . S
C274 C269 1.491 . S
C274 C276 1.382 . S
C274 C278 1.404 . S
H275 C273 0.951 . S
C276 C274 1.382 . S
C276 C277 1.390 . S
C276 H281 0.949 . S
C277 C276 1.390 . S
C277 C282 1.399 . S
C278 C274 1.404 . S
C278 H279 0.950 . S
C278 C280 1.375 . S
H279 C278 0.950 . S
C280 C278 1.375 . S
C280 C282 1.382 . S
C280 H284 0.950 . S
H281 C276 0.949 . S
C282 C277 1.399 . S
C282 C280 1.382 . S
C282 H283 0.952 . S
H283 C282 0.952 . S
H284 C280 0.950 . S
H285 C286 0.949 . S
C286 H285 0.949 . S
C286 C287 1.395 . S
C286 C288 1.391 . S
C287 C286 1.395 . S
C287 C290 1.390 . S
C288 C286 1.391 . S
C288 C292 1.387 . S
C288 C293 1.491 . S
H289 C290 0.950 1_554 S
C290 C287 1.390 . S
C290 H289 0.950 1_556 S
C290 C291 1.378 . S
C291 C290 1.378 . S
C291 C292 1.409 . S
C292 C288 1.387 . S
C292 C291 1.409 . S
C292 H294 0.951 . S
C293 C288 1.491 . S
C293 C295 1.382 . S
C293 C297 1.404 . S
H294 C292 0.951 . S
C295 C293 1.382 . S
C295 C296 1.390 . S
C295 H300 0.949 . S
C296 C295 1.390 . S
C296 C301 1.399 . S
C297 C293 1.404 . S
C297 H298 0.950 . S
C297 C299 1.375 . S
H298 C297 0.950 . S
C299 C297 1.375 . S
C299 C301 1.382 . S
C299 H303 0.950 . S
H300 C295 0.949 . S
C301 C296 1.399 . S
C301 C299 1.382 . S
C301 H302 0.952 . S
H302 C301 0.952 . S
H303 C299 0.950 . S
C304 O305 1.160 . S
C304 O311 1.185 . S
O305 C304 1.160 . S
O306 Zn307 1.899 . S
O306 C314 1.284 . S
Zn307 O306 1.899 . S
Zn307 O308 2.032 . S
Zn307 O311 2.086 . S
Zn307 O316 1.977 . S
O308 Zn307 2.032 . S
O308 C312 1.278 . S
C309 O310 1.203 . S
C309 O316 1.267 . S
O310 C309 1.203 . S
O311 C304 1.185 . S
O311 Zn307 2.086 . S
C312 O308 1.278 . S
C312 O313 1.211 . S
O313 C312 1.211 . S
C314 O306 1.284 . S
C314 O315 1.273 . S
O315 C314 1.273 . S
O316 Zn307 1.977 . S
O316 C309 1.267 . S
C317 O318 1.160 . S
C317 O324 1.185 . S
O318 C317 1.160 . S
O319 Zn320 1.899 . S
O319 C327 1.284 . S
Zn320 O319 1.899 . S
Zn320 O321 2.032 . S
Zn320 O324 2.086 . S
Zn320 O329 1.977 . S
O321 Zn320 2.032 . S
O321 C325 1.278 . S
C322 O323 1.203 . S
C322 O329 1.267 . S
O323 C322 1.203 . S
O324 C317 1.185 . S
O324 Zn320 2.086 . S
C325 O321 1.278 . S
C325 O326 1.211 . S
O326 C325 1.211 . S
C327 O319 1.284 . S
C327 O328 1.273 . S
O328 C327 1.273 . S
O329 Zn320 1.977 . S
O329 C322 1.267 . S
C330 O331 1.160 . S
C330 O337 1.185 1_556 S
O331 C330 1.160 . S
O332 Zn333 1.899 1_556 S
O332 C340 1.284 . S
Zn333 O332 1.899 1_554 S
Zn333 O334 2.032 1_554 S
Zn333 O337 2.086 . S
Zn333 O342 1.977 . S
O334 Zn333 2.032 1_556 S
O334 C338 1.278 . S
C335 O336 1.203 . S
C335 O342 1.267 . S
O336 C335 1.203 . S
O337 C330 1.185 1_554 S
O337 Zn333 2.086 . S
C338 O334 1.278 . S
C338 O339 1.211 1_556 S
O339 C338 1.211 1_554 S
C340 O332 1.284 . S
C340 O341 1.273 . S
O341 C340 1.273 . S
O342 Zn333 1.977 . S
O342 C335 1.267 . S
C343 O344 1.160 . S
C343 O350 1.185 . S
O344 C343 1.160 . S
O345 Zn346 1.899 . S
O345 C353 1.284 . S
Zn346 O345 1.899 . S
Zn346 O347 2.032 . S
Zn346 O350 2.086 . S
Zn346 O355 1.977 . S
O347 Zn346 2.032 . S
O347 C351 1.278 1_545 S
C348 O349 1.203 . S
C348 O355 1.267 . S
O349 C348 1.203 . S
O350 C343 1.185 . S
O350 Zn346 2.086 . S
C351 O347 1.278 1_565 S
C351 O352 1.211 . S
O352 C351 1.211 . S
C353 O345 1.284 . S
C353 O354 1.273 1_545 S
O354 C353 1.273 1_565 S
O355 Zn346 1.977 . S
O355 C348 1.267 . S
C356 O357 1.160 . S
C356 O363 1.185 . S
O357 C356 1.160 . S
O358 Zn359 1.899 . S
O358 C366 1.284 . S
Zn359 O358 1.899 . S
Zn359 O360 2.032 . S
Zn359 O363 2.086 . S
Zn359 O368 1.977 . S
O360 Zn359 2.032 . S
O360 C364 1.278 . S
C361 O362 1.203 . S
C361 O368 1.267 . S
O362 C361 1.203 . S
O363 C356 1.185 . S
O363 Zn359 2.086 . S
C364 O360 1.278 . S
C364 O365 1.211 . S
O365 C364 1.211 . S
C366 O358 1.284 . S
C366 O367 1.273 . S
O367 C366 1.273 . S
O368 Zn359 1.977 . S
O368 C361 1.267 . S
C369 O370 1.160 . S
C369 O376 1.185 . S
O370 C369 1.160 . S
O371 Zn372 1.899 . S
O371 C379 1.284 . S
Zn372 O371 1.899 . S
Zn372 O373 2.032 . S
Zn372 O376 2.086 . S
Zn372 O381 1.977 . S
O373 Zn372 2.032 . S
O373 C377 1.278 . S
C374 O375 1.203 . S
C374 O381 1.267 . S
O375 C374 1.203 . S
O376 C369 1.185 . S
O376 Zn372 2.086 . S
C377 O373 1.278 . S
C377 O378 1.211 . S
O378 C377 1.211 . S
C379 O371 1.284 . S
C379 O380 1.273 . S
O380 C379 1.273 . S
O381 Zn372 1.977 . S
O381 C374 1.267 . S
C382 O383 1.160 . S
C382 O389 1.185 . S
O383 C382 1.160 . S
O384 Zn385 1.899 . S
O384 C392 1.284 . S
Zn385 O384 1.899 . S
Zn385 O386 2.032 . S
Zn385 O389 2.086 . S
Zn385 O394 1.977 . S
O386 Zn385 2.032 . S
O386 C390 1.278 . S
C387 O388 1.203 . S
C387 O394 1.267 . S
O388 C387 1.203 . S
O389 C382 1.185 . S
O389 Zn385 2.086 . S
C390 O386 1.278 . S
C390 O391 1.211 . S
O391 C390 1.211 . S
C392 O384 1.284 . S
C392 O393 1.273 . S
O393 C392 1.273 . S
O394 Zn385 1.977 . S
O394 C387 1.267 . S
C395 O396 1.160 . S
C395 O402 1.185 . S
O396 C395 1.160 . S
O397 Zn398 1.899 . S
O397 C405 1.284 . S
Zn398 O397 1.899 . S
Zn398 O399 2.032 . S
Zn398 O402 2.086 1_545 S
Zn398 O407 1.977 1_545 S
O399 Zn398 2.032 . S
O399 C403 1.278 . S
C400 O401 1.203 . S
C400 O407 1.267 1_545 S
O401 C400 1.203 . S
O402 C395 1.185 . S
O402 Zn398 2.086 1_565 S
C403 O399 1.278 . S
C403 O404 1.211 . S
O404 C403 1.211 . S
C405 O397 1.284 . S
C405 O406 1.273 . S
O406 C405 1.273 . S
O407 Zn398 1.977 1_565 S
O407 C400 1.267 1_565 S
C408 O409 1.160 1_455 S
C408 O415 1.185 . S
O409 C408 1.160 1_655 S
O410 Zn411 1.899 1_655 S
O410 C418 1.284 . S
Zn411 O410 1.899 1_455 S
Zn411 O412 2.032 . S
Zn411 O415 2.086 . S
Zn411 O420 1.977 . S
O412 Zn411 2.032 . S
O412 C416 1.278 . S
C413 O414 1.203 . S
C413 O420 1.267 . S
O414 C413 1.203 . S
O415 C408 1.185 . S
O415 Zn411 2.086 . S
C416 O412 1.278 . S
C416 O417 1.211 . S
O417 C416 1.211 . S
C418 O410 1.284 . S
C418 O419 1.273 . S
O419 C418 1.273 . S
O420 Zn411 1.977 . S
O420 C413 1.267 . S
C421 O422 1.160 . S
C421 O428 1.185 . S
O422 C421 1.160 . S
O423 Zn424 1.899 . S
O423 C431 1.284 . S
Zn424 O423 1.899 . S
Zn424 O425 2.032 . S
Zn424 O428 2.086 . S
Zn424 O433 1.977 . S
O425 Zn424 2.032 . S
O425 C429 1.278 . S
C426 O427 1.203 . S
C426 O433 1.267 . S
O427 C426 1.203 . S
O428 C421 1.185 . S
O428 Zn424 2.086 . S
C429 O425 1.278 . S
C429 O430 1.211 . S
O430 C429 1.211 . S
C431 O423 1.284 . S
C431 O432 1.273 . S
O432 C431 1.273 . S
O433 Zn424 1.977 . S
O433 C426 1.267 . S
C434 O435 1.160 1_455 S
C434 O441 1.185 . S
O435 C434 1.160 1_655 S
O436 Zn437 1.899 1_655 S
O436 C444 1.284 . S
Zn437 O436 1.899 1_455 S
Zn437 O438 2.032 1_455 S
Zn437 O441 2.086 . S
Zn437 O446 1.977 . S
O438 Zn437 2.032 1_655 S
O438 C442 1.278 . S
C439 O440 1.203 . S
C439 O446 1.267 . S
O440 C439 1.203 . S
O441 C434 1.185 . S
O441 Zn437 2.086 . S
C442 O438 1.278 . S
C442 O443 1.211 1_655 S
O443 C442 1.211 1_455 S
C444 O436 1.284 . S
C444 O445 1.273 . S
O445 C444 1.273 . S
O446 Zn437 1.977 . S
O446 C439 1.267 . S
C447 O448 1.160 . S
C447 O454 1.185 . S
O448 C447 1.160 . S
O449 Zn450 1.899 . S
O449 C457 1.284 . S
Zn450 O449 1.899 . S
Zn450 O451 2.032 . S
Zn450 O454 2.086 . S
Zn450 O459 1.977 . S
O451 Zn450 2.032 . S
O451 C455 1.278 . S
C452 O453 1.203 . S
C452 O459 1.267 . S
O453 C452 1.203 . S
O454 C447 1.185 . S
O454 Zn450 2.086 . S
C455 O451 1.278 . S
C455 O456 1.211 . S
O456 C455 1.211 . S
C457 O449 1.284 . S
C457 O458 1.273 . S
O458 C457 1.273 . S
O459 Zn450 1.977 . S
O459 C452 1.267 . S
H460 C472 0.930 . S
H461 C474 0.930 . S
H462 C475 0.930 . S
H463 C479 0.959 . S
H464 C479 0.959 . S
H465 C479 0.961 . S
H466 C480 0.960 . S
H467 C480 0.961 . S
H468 C480 0.959 . S
H469 C483 0.929 . S
H470 C484 0.931 1_554 S
H471 C486 0.930 . S
C472 H460 0.930 . S
C472 C473 1.399 . S
C472 C477 1.399 . S
C473 C472 1.399 . S
C473 C474 1.376 . S
C474 H461 0.930 . S
C474 C473 1.376 . S
C474 C475 1.388 . S
C475 H462 0.930 . S
C475 C474 1.388 . S
C475 C476 1.390 . S
C476 C475 1.390 . S
C476 C477 1.394 . S
C476 C482 1.465 . S
C477 C472 1.399 . S
C477 C476 1.394 . S
C477 C478 1.516 . S
C478 C477 1.516 . S
C478 C479 1.502 . S
C478 C480 1.561 . S
C478 C481 1.526 . S
C479 H463 0.959 . S
C479 H464 0.959 . S
C479 H465 0.961 . S
C479 C478 1.502 . S
C480 H466 0.960 . S
C480 H467 0.961 . S
C480 H468 0.959 . S
C480 C478 1.561 . S
C481 C478 1.526 . S
C481 C482 1.396 . S
C481 C486 1.390 . S
C482 C476 1.465 . S
C482 C481 1.396 . S
C482 C483 1.399 . S
C483 H469 0.929 . S
C483 C482 1.399 . S
C483 C484 1.385 . S
C484 H470 0.931 1_556 S
C484 C483 1.385 . S
C484 C485 1.389 . S
C485 C484 1.389 . S
C485 C486 1.387 . S
C486 H471 0.930 . S
C486 C481 1.390 . S
C486 C485 1.387 . S
H487 C499 0.930 . S
H488 C501 0.930 . S
H489 C502 0.930 . S
H490 C506 0.959 . S
H491 C506 0.959 . S
H492 C506 0.961 . S
H493 C507 0.960 . S
H494 C507 0.961 . S
H495 C507 0.959 . S
H496 C510 0.929 . S
H497 C511 0.931 . S
H498 C513 0.930 . S
C499 H487 0.930 . S
C499 C500 1.399 . S
C499 C504 1.399 . S
C500 C499 1.399 . S
C500 C501 1.376 . S
C501 H488 0.930 . S
C501 C500 1.376 . S
C501 C502 1.388 . S
C502 H489 0.930 . S
C502 C501 1.388 . S
C502 C503 1.390 . S
C503 C502 1.390 . S
C503 C504 1.394 . S
C503 C509 1.465 . S
C504 C499 1.399 . S
C504 C503 1.394 . S
C504 C505 1.516 . S
C505 C504 1.516 . S
C505 C506 1.502 . S
C505 C507 1.561 . S
C505 C508 1.526 . S
C506 H490 0.959 . S
C506 H491 0.959 . S
C506 H492 0.961 . S
C506 C505 1.502 . S
C507 H493 0.960 . S
C507 H494 0.961 . S
C507 H495 0.959 . S
C507 C505 1.561 . S
C508 C505 1.526 . S
C508 C509 1.396 . S
C508 C513 1.390 . S
C509 C503 1.465 . S
C509 C508 1.396 . S
C509 C510 1.399 . S
C510 H496 0.929 . S
C510 C509 1.399 . S
C510 C511 1.385 . S
C511 H497 0.931 . S
C511 C510 1.385 . S
C511 C512 1.389 . S
C512 C511 1.389 . S
C512 C513 1.387 . S
C513 H498 0.930 . S
C513 C508 1.390 . S
C513 C512 1.387 . S
H514 C526 0.930 . S
H515 C528 0.930 . S
H516 C529 0.930 . S
H517 C533 0.959 . S
H518 C533 0.959 . S
H519 C533 0.961 . S
H520 C534 0.960 . S
H521 C534 0.961 . S
H522 C534 0.959 . S
H523 C537 0.929 . S
H524 C538 0.931 . S
H525 C540 0.930 . S
C526 H514 0.930 . S
C526 C527 1.399 . S
C526 C531 1.399 . S
C527 C526 1.399 . S
C527 C528 1.376 . S
C528 H515 0.930 . S
C528 C527 1.376 . S
C528 C529 1.388 . S
C529 H516 0.930 . S
C529 C528 1.388 . S
C529 C530 1.390 . S
C530 C529 1.390 . S
C530 C531 1.394 . S
C530 C536 1.465 . S
C531 C526 1.399 . S
C531 C530 1.394 . S
C531 C532 1.516 . S
C532 C531 1.516 . S
C532 C533 1.502 . S
C532 C534 1.561 . S
C532 C535 1.526 . S
C533 H517 0.959 . S
C533 H518 0.959 . S
C533 H519 0.961 . S
C533 C532 1.502 . S
C534 H520 0.960 . S
C534 H521 0.961 . S
C534 H522 0.959 . S
C534 C532 1.561 . S
C535 C532 1.526 . S
C535 C536 1.396 . S
C535 C540 1.390 . S
C536 C530 1.465 . S
C536 C535 1.396 . S
C536 C537 1.399 . S
C537 H523 0.929 . S
C537 C536 1.399 . S
C537 C538 1.385 . S
C538 H524 0.931 . S
C538 C537 1.385 . S
C538 C539 1.389 . S
C539 C538 1.389 . S
C539 C540 1.387 . S
C540 H525 0.930 . S
C540 C535 1.390 . S
C540 C539 1.387 . S
H541 C553 0.930 . S
H542 C555 0.930 . S
H543 C556 0.930 . S
H544 C560 0.959 . S
H545 C560 0.959 . S
H546 C560 0.961 . S
H547 C561 0.960 . S
H548 C561 0.961 . S
H549 C561 0.922 1_655 S
H550 C564 0.929 . S
H551 C565 0.931 . S
H552 C567 0.930 1_565 S
C553 H541 0.930 . S
C553 C554 1.399 . S
C553 C558 1.399 . S
C554 C553 1.399 . S
C554 C555 1.376 1_565 S
C555 H542 0.930 . S
C555 C554 1.376 1_545 S
C555 C556 1.388 . S
C556 H543 0.930 . S
C556 C555 1.388 . S
C556 C557 1.390 . S
C557 C556 1.390 . S
C557 C558 1.394 1_545 S
C557 C563 1.465 . S
C558 C553 1.399 . S
C558 C557 1.394 1_565 S
C558 C559 1.516 . S
C559 C558 1.516 . S
C559 C560 1.502 . S
C559 C561 1.561 . S
C559 C562 1.526 . S
C560 H544 0.959 . S
C560 H545 0.959 . S
C560 H546 0.961 . S
C560 C559 1.502 . S
C561 H547 0.960 . S
C561 H548 0.961 . S
C561 H549 0.922 1_455 S
C561 C559 1.561 . S
C562 C559 1.526 . S
C562 C563 1.396 1_565 S
C562 C567 1.390 1_565 S
C563 C557 1.465 . S
C563 C562 1.396 1_545 S
C563 C564 1.399 1_455 S
C564 H550 0.929 . S
C564 C563 1.399 1_655 S
C564 C565 1.385 . S
C565 H551 0.931 . S
C565 C564 1.385 . S
C565 C566 1.389 . S
C566 C565 1.389 . S
C566 C567 1.387 1_655 S
C567 H552 0.930 1_545 S
C567 C562 1.390 1_545 S
C567 C566 1.387 1_455 S
H568 C580 0.930 . S
H569 C582 0.930 . S
H570 C583 0.930 . S
H571 C587 0.959 . S
H572 C587 0.959 . S
H573 C587 0.961 . S
H574 C588 0.960 . S
H575 C588 0.961 . S
H576 C588 0.959 . S
H577 C591 0.929 . S
H578 C592 0.931 . S
H579 C594 0.930 . S
C580 H568 0.930 . S
C580 C581 1.399 . S
C580 C585 1.399 . S
C581 C580 1.399 . S
C581 C582 1.376 . S
C582 H569 0.930 . S
C582 C581 1.376 . S
C582 C583 1.388 . S
C583 H570 0.930 . S
C583 C582 1.388 . S
C583 C584 1.390 . S
C584 C583 1.390 . S
C584 C585 1.394 . S
C584 C590 1.465 . S
C585 C580 1.399 . S
C585 C584 1.394 . S
C585 C586 1.516 . S
C586 C585 1.516 . S
C586 C587 1.502 . S
C586 C588 1.561 . S
C586 C589 1.526 . S
C587 H571 0.959 . S
C587 H572 0.959 . S
C587 H573 0.961 . S
C587 C586 1.502 . S
C588 H574 0.960 . S
C588 H575 0.961 . S
C588 H576 0.959 . S
C588 C586 1.561 . S
C589 C586 1.526 . S
C589 C590 1.396 . S
C589 C594 1.390 . S
C590 C584 1.465 . S
C590 C589 1.396 . S
C590 C591 1.399 . S
C591 H577 0.929 . S
C591 C590 1.399 . S
C591 C592 1.385 . S
C592 H578 0.931 . S
C592 C591 1.385 . S
C592 C593 1.389 . S
C593 C592 1.389 . S
C593 C594 1.387 . S
C594 H579 0.930 . S
C594 C589 1.390 . S
C594 C593 1.387 . S
H595 C607 0.930 . S
H596 C609 0.930 . S
H597 C610 0.930 . S
H598 C614 0.959 . S
H599 C614 0.959 . S
H600 C614 0.961 . S
H601 C615 0.960 . S
H602 C615 0.961 . S
H603 C615 0.959 . S
H604 C618 0.929 . S
H605 C619 0.931 . S
H606 C621 0.930 . S
C607 H595 0.930 . S
C607 C608 1.399 . S
C607 C612 1.399 . S
C608 C607 1.399 . S
C608 C609 1.376 . S
C609 H596 0.930 . S
C609 C608 1.376 . S
C609 C610 1.388 . S
C610 H597 0.930 . S
C610 C609 1.388 . S
C610 C611 1.390 . S
C611 C610 1.390 . S
C611 C612 1.394 . S
C611 C617 1.465 . S
C612 C607 1.399 . S
C612 C611 1.394 . S
C612 C613 1.516 . S
C613 C612 1.516 . S
C613 C614 1.502 . S
C613 C615 1.561 . S
C613 C616 1.526 . S
C614 H598 0.959 . S
C614 H599 0.959 . S
C614 H600 0.961 . S
C614 C613 1.502 . S
C615 H601 0.960 . S
C615 H602 0.961 . S
C615 H603 0.959 . S
C615 C613 1.561 . S
C616 C613 1.526 . S
C616 C617 1.396 . S
C616 C621 1.390 . S
C617 C611 1.465 . S
C617 C616 1.396 . S
C617 C618 1.399 . S
C618 H604 0.929 . S
C618 C617 1.399 . S
C618 C619 1.385 . S
C619 H605 0.931 . S
C619 C618 1.385 . S
C619 C620 1.389 . S
C620 C619 1.389 . S
C620 C621 1.387 . S
C621 H606 0.930 . S
C621 C616 1.390 . S
C621 C620 1.387 . S
H622 C634 0.930 . S
H623 C636 0.930 . S
H624 C637 0.930 . S
H625 C641 0.959 . S
H626 C641 0.959 . S
H627 C641 0.961 . S
H628 C642 0.960 . S
H629 C642 0.961 . S
H630 C642 0.959 . S
H631 C645 0.929 . S
H632 C646 0.931 . S
H633 C648 0.930 . S
C634 H622 0.930 . S
C634 C635 1.399 . S
C634 C639 1.399 . S
C635 C634 1.399 . S
C635 C636 1.376 . S
C636 H623 0.930 . S
C636 C635 1.376 . S
C636 C637 1.388 . S
C637 H624 0.930 . S
C637 C636 1.388 . S
C637 C638 1.390 . S
C638 C637 1.390 . S
C638 C639 1.394 . S
C638 C644 1.465 . S
C639 C634 1.399 . S
C639 C638 1.394 . S
C639 C640 1.516 . S
C640 C639 1.516 . S
C640 C641 1.502 . S
C640 C642 1.561 . S
C640 C643 1.526 . S
C641 H625 0.959 . S
C641 H626 0.959 . S
C641 H627 0.961 . S
C641 C640 1.502 . S
C642 H628 0.960 . S
C642 H629 0.961 . S
C642 H630 0.959 . S
C642 C640 1.561 . S
C643 C640 1.526 . S
C643 C644 1.396 . S
C643 C648 1.390 . S
C644 C638 1.465 . S
C644 C643 1.396 . S
C644 C645 1.399 . S
C645 H631 0.929 . S
C645 C644 1.399 . S
C645 C646 1.385 . S
C646 H632 0.931 . S
C646 C645 1.385 . S
C646 C647 1.389 . S
C647 C646 1.389 . S
C647 C648 1.387 . S
C648 H633 0.930 . S
C648 C643 1.390 . S
C648 C647 1.387 . S
H649 C661 0.930 1_545 S
H650 C663 0.930 . S
H651 C664 0.930 . S
H652 C668 0.959 . S
H653 C668 0.959 . S
H654 C668 0.961 . S
H655 C669 0.960 . S
H656 C669 0.961 . S
H657 C669 0.959 . S
H658 C672 0.929 . S
H659 C673 0.931 . S
H660 C675 0.930 . S
C661 H649 0.930 1_565 S
C661 C662 1.399 . S
C661 C666 1.399 . S
C662 C661 1.399 . S
C662 C663 1.376 . S
C663 H650 0.930 . S
C663 C662 1.376 . S
C663 C664 1.388 . S
C664 H651 0.930 . S
C664 C663 1.388 . S
C664 C665 1.390 . S
C665 C664 1.390 . S
C665 C666 1.394 . S
C665 C671 1.465 . S
C666 C661 1.399 . S
C666 C665 1.394 . S
C666 C667 1.516 1_565 S
C667 C666 1.516 1_545 S
C667 C668 1.502 . S
C667 C669 1.561 . S
C667 C670 1.526 . S
C668 H652 0.959 . S
C668 H653 0.959 . S
C668 H654 0.961 . S
C668 C667 1.502 . S
C669 H655 0.960 . S
C669 H656 0.961 . S
C669 H657 0.959 . S
C669 C667 1.561 . S
C670 C667 1.526 . S
C670 C671 1.396 1_545 S
C670 C675 1.390 . S
C671 C665 1.465 . S
C671 C670 1.396 1_565 S
C671 C672 1.399 . S
C672 H658 0.929 . S
C672 C671 1.399 . S
C672 C673 1.385 . S
C673 H659 0.931 . S
C673 C672 1.385 . S
C673 C674 1.389 . S
C674 C673 1.389 . S
C674 C675 1.387 1_565 S
C675 H660 0.930 . S
C675 C670 1.390 . S
C675 C674 1.387 1_545 S
H676 C688 0.930 . S
H677 C690 0.930 . S
H678 C691 0.930 . S
H679 C695 0.959 . S
H680 C695 0.959 . S
H681 C695 0.961 . S
H682 C696 0.960 . S
H683 C696 0.961 . S
H684 C696 0.959 . S
H685 C699 0.929 . S
H686 C700 0.931 . S
H687 C702 0.930 . S
C688 H676 0.930 . S
C688 C689 1.399 . S
C688 C693 1.399 . S
C689 C688 1.399 . S
C689 C690 1.376 . S
C690 H677 0.930 . S
C690 C689 1.376 . S
C690 C691 1.388 . S
C691 H678 0.930 . S
C691 C690 1.388 . S
C691 C692 1.390 . S
C692 C691 1.390 . S
C692 C693 1.394 . S
C692 C698 1.465 . S
C693 C688 1.399 . S
C693 C692 1.394 . S
C693 C694 1.516 . S
C694 C693 1.516 . S
C694 C695 1.502 . S
C694 C696 1.561 . S
C694 C697 1.526 . S
C695 H679 0.959 . S
C695 H680 0.959 . S
C695 H681 0.961 . S
C695 C694 1.502 . S
C696 H682 0.960 . S
C696 H683 0.961 . S
C696 H684 0.959 . S
C696 C694 1.561 . S
C697 C694 1.526 . S
C697 C698 1.396 . S
C697 C702 1.390 . S
C698 C692 1.465 . S
C698 C697 1.396 . S
C698 C699 1.399 . S
C699 H685 0.929 . S
C699 C698 1.399 . S
C699 C700 1.385 . S
C700 H686 0.931 . S
C700 C699 1.385 . S
C700 C701 1.389 . S
C701 C700 1.389 . S
C701 C702 1.387 . S
C702 H687 0.930 . S
C702 C697 1.390 . S
C702 C701 1.387 . S
H703 C715 0.930 . S
H704 C717 0.930 . S
H705 C718 0.930 . S
H706 C722 0.959 . S
H707 C722 0.959 . S
H708 C722 0.961 . S
H709 C723 0.960 . S
H710 C723 0.961 . S
H711 C723 0.959 . S
H712 C726 0.929 . S
H713 C727 0.931 . S
H714 C729 0.930 . S
C715 H703 0.930 . S
C715 C716 1.399 . S
C715 C720 1.399 . S
C716 C715 1.399 . S
C716 C717 1.376 . S
C717 H704 0.930 . S
C717 C716 1.376 . S
C717 C718 1.388 . S
C718 H705 0.930 . S
C718 C717 1.388 . S
C718 C719 1.390 . S
C719 C718 1.390 . S
C719 C720 1.394 . S
C719 C725 1.465 . S
C720 C715 1.399 . S
C720 C719 1.394 . S
C720 C721 1.516 . S
C721 C720 1.516 . S
C721 C722 1.502 . S
C721 C723 1.561 . S
C721 C724 1.526 . S
C722 H706 0.959 . S
C722 H707 0.959 . S
C722 H708 0.961 . S
C722 C721 1.502 . S
C723 H709 0.960 . S
C723 H710 0.961 . S
C723 H711 0.959 . S
C723 C721 1.561 . S
C724 C721 1.526 . S
C724 C725 1.396 . S
C724 C729 1.390 . S
C725 C719 1.465 . S
C725 C724 1.396 . S
C725 C726 1.399 . S
C726 H712 0.929 . S
C726 C725 1.399 . S
C726 C727 1.385 . S
C727 H713 0.931 . S
C727 C726 1.385 . S
C727 C728 1.389 . S
C728 C727 1.389 . S
C728 C729 1.387 . S
C729 H714 0.930 . S
C729 C724 1.390 . S
C729 C728 1.387 . S
H730 C742 0.930 . S
H731 C744 0.930 . S
H732 C745 0.930 . S
H733 C749 0.959 . S
H734 C749 0.959 . S
H735 C749 0.961 . S
H736 C750 0.960 . S
H737 C750 0.961 . S
H738 C750 0.959 . S
H739 C753 0.929 . S
H740 C754 0.931 . S
H741 C756 0.930 . S
C742 H730 0.930 . S
C742 C743 1.399 . S
C742 C747 1.399 . S
C743 C742 1.399 . S
C743 C744 1.376 . S
C744 H731 0.930 . S
C744 C743 1.376 . S
C744 C745 1.388 . S
C745 H732 0.930 . S
C745 C744 1.388 . S
C745 C746 1.390 . S
C746 C745 1.390 . S
C746 C747 1.394 . S
C746 C752 1.465 . S
C747 C742 1.399 . S
C747 C746 1.394 . S
C747 C748 1.516 . S
C748 C747 1.516 . S
C748 C749 1.502 . S
C748 C750 1.561 . S
C748 C751 1.526 . S
C749 H733 0.959 . S
C749 H734 0.959 . S
C749 H735 0.961 . S
C749 C748 1.502 . S
C750 H736 0.960 . S
C750 H737 0.961 . S
C750 H738 0.959 . S
C750 C748 1.561 . S
C751 C748 1.526 . S
C751 C752 1.396 . S
C751 C756 1.390 . S
C752 C746 1.465 . S
C752 C751 1.396 . S
C752 C753 1.399 . S
C753 H739 0.929 . S
C753 C752 1.399 . S
C753 C754 1.385 . S
C754 H740 0.931 . S
C754 C753 1.385 . S
C754 C755 1.389 . S
C755 C754 1.389 . S
C755 C756 1.387 . S
C756 H741 0.930 . S
C756 C751 1.390 . S
C756 C755 1.387 . S
H757 C769 0.930 . S
H758 C771 0.930 . S
H759 C772 0.930 . S
H760 C776 0.959 . S
H761 C776 0.959 . S
H762 C776 0.961 . S
H763 C777 0.960 . S
H764 C777 0.961 . S
H765 C777 0.959 . S
H766 C780 0.929 . S
H767 C781 0.931 . S
H768 C783 0.930 . S
C769 H757 0.930 . S
C769 C770 1.399 . S
C769 C774 1.399 . S
C770 C769 1.399 . S
C770 C771 1.376 . S
C771 H758 0.930 . S
C771 C770 1.376 . S
C771 C772 1.388 . S
C772 H759 0.930 . S
C772 C771 1.388 . S
C772 C773 1.390 . S
C773 C772 1.390 . S
C773 C774 1.394 . S
C773 C779 1.465 . S
C774 C769 1.399 . S
C774 C773 1.394 . S
C774 C775 1.516 . S
C775 C774 1.516 . S
C775 C776 1.502 . S
C775 C777 1.561 . S
C775 C778 1.526 . S
C776 H760 0.959 . S
C776 H761 0.959 . S
C776 H762 0.961 . S
C776 C775 1.502 . S
C777 H763 0.960 . S
C777 H764 0.961 . S
C777 H765 0.959 . S
C777 C775 1.561 . S
C778 C775 1.526 . S
C778 C779 1.396 . S
C778 C783 1.390 . S
C779 C773 1.465 . S
C779 C778 1.396 . S
C779 C780 1.399 . S
C780 H766 0.929 . S
C780 C779 1.399 . S
C780 C781 1.385 . S
C781 H767 0.931 . S
C781 C780 1.385 . S
C781 C782 1.389 . S
C782 C781 1.389 . S
C782 C783 1.387 . S
C783 H768 0.930 . S
C783 C778 1.390 . S
C783 C782 1.387 . S
H784 C796 0.930 . S
H785 C798 0.930 . S
H786 C799 0.930 . S
H787 C803 0.959 . S
H788 C803 0.959 . S
H789 C803 0.961 . S
H790 C804 0.960 . S
H791 C804 0.961 . S
H792 C804 0.959 . S
H793 C807 0.929 . S
H794 C808 0.931 . S
H795 C810 0.930 . S
C796 H784 0.930 . S
C796 C797 1.399 . S
C796 C801 1.399 . S
C797 C796 1.399 . S
C797 C798 1.376 . S
C798 H785 0.930 . S
C798 C797 1.376 . S
C798 C799 1.388 . S
C799 H786 0.930 . S
C799 C798 1.388 . S
C799 C800 1.390 . S
C800 C799 1.390 . S
C800 C801 1.394 . S
C800 C806 1.465 . S
C801 C796 1.399 . S
C801 C800 1.394 . S
C801 C802 1.516 . S
C802 C801 1.516 . S
C802 C803 1.502 . S
C802 C804 1.561 . S
C802 C805 1.526 . S
C803 H787 0.959 . S
C803 H788 0.959 . S
C803 H789 0.961 . S
C803 C802 1.502 . S
C804 H790 0.960 . S
C804 H791 0.961 . S
C804 H792 0.959 . S
C804 C802 1.561 . S
C805 C802 1.526 . S
C805 C806 1.396 . S
C805 C810 1.390 . S
C806 C800 1.465 . S
C806 C805 1.396 . S
C806 C807 1.399 . S
C807 H793 0.929 . S
C807 C806 1.399 . S
C807 C808 1.385 . S
C808 H794 0.931 . S
C808 C807 1.385 . S
C808 C809 1.389 . S
C809 C808 1.389 . S
C809 C810 1.387 . S
C810 H795 0.930 . S
C810 C805 1.390 . S
C810 C809 1.387 . S
H811 C823 0.930 . S
H812 C825 0.930 . S
H813 C826 0.930 . S
H814 C830 0.959 1_455 S
H815 C830 0.959 . S
H816 C830 0.961 . S
H817 C831 0.960 1_655 S
H818 C831 0.961 1_655 S
H819 C831 0.959 . S
H820 C834 0.929 . S
H821 C835 0.931 . S
H822 C837 0.930 1_655 S
C823 H811 0.930 . S
C823 C824 1.399 . S
C823 C828 1.399 . S
C824 C823 1.399 . S
C824 C825 1.376 . S
C825 H812 0.930 . S
C825 C824 1.376 . S
C825 C826 1.388 . S
C826 H813 0.930 . S
C826 C825 1.388 . S
C826 C827 1.390 . S
C827 C826 1.390 . S
C827 C828 1.394 . S
C827 C833 1.465 . S
C828 C823 1.399 . S
C828 C827 1.394 . S
C828 C829 1.516 . S
C829 C828 1.516 . S
C829 C830 1.502 1_455 S
C829 C831 1.561 . S
C829 C832 1.526 . S
C830 H814 0.959 1_655 S
C830 H815 0.959 . S
C830 H816 0.961 . S
C830 C829 1.502 1_655 S
C831 H817 0.960 1_455 S
C831 H818 0.961 1_455 S
C831 H819 0.959 . S
C831 C829 1.561 . S
C832 C829 1.526 . S
C832 C833 1.396 . S
C832 C837 1.390 . S
C833 C827 1.465 . S
C833 C832 1.396 . S
C833 C834 1.399 . S
C834 H820 0.929 . S
C834 C833 1.399 . S
C834 C835 1.385 . S
C835 H821 0.931 . S
C835 C834 1.385 . S
C835 C836 1.389 . S
C836 C835 1.389 . S
C836 C837 1.387 . S
C837 H822 0.930 1_455 S
C837 C832 1.390 . S
C837 C836 1.387 . S
H838 C850 0.930 . S
H839 C852 0.930 . S
H840 C853 0.930 . S
H841 C857 0.959 . S
H842 C857 0.959 . S
H843 C857 0.961 . S
H844 C858 0.960 . S
H845 C858 0.961 . S
H846 C858 0.959 . S
H847 C861 0.929 . S
H848 C862 0.931 . S
H849 C864 0.930 . S
C850 H838 0.930 . S
C850 C851 1.399 . S
C850 C855 1.399 . S
C851 C850 1.399 . S
C851 C852 1.376 . S
C852 H839 0.930 . S
C852 C851 1.376 . S
C852 C853 1.388 . S
C853 H840 0.930 . S
C853 C852 1.388 . S
C853 C854 1.390 . S
C854 C853 1.390 . S
C854 C855 1.394 . S
C854 C860 1.465 . S
C855 C850 1.399 . S
C855 C854 1.394 . S
C855 C856 1.516 . S
C856 C855 1.516 . S
C856 C857 1.502 . S
C856 C858 1.561 . S
C856 C859 1.526 . S
C857 H841 0.959 . S
C857 H842 0.959 . S
C857 H843 0.961 . S
C857 C856 1.502 . S
C858 H844 0.960 . S
C858 H845 0.961 . S
C858 H846 0.959 . S
C858 C856 1.561 . S
C859 C856 1.526 . S
C859 C860 1.396 . S
C859 C864 1.390 . S
C860 C854 1.465 . S
C860 C859 1.396 . S
C860 C861 1.399 . S
C861 H847 0.929 . S
C861 C860 1.399 . S
C861 C862 1.385 . S
C862 H848 0.931 . S
C862 C861 1.385 . S
C862 C863 1.389 . S
C863 C862 1.389 . S
C863 C864 1.387 . S
C864 H849 0.930 . S
C864 C859 1.390 . S
C864 C863 1.387 . S
H865 C877 0.930 . S
H866 C879 0.930 . S
H867 C880 0.930 . S
H868 C884 0.959 . S
H869 C884 0.959 . S
H870 C884 0.961 . S
H871 C885 0.960 . S
H872 C885 0.961 . S
H873 C885 0.959 . S
H874 C888 0.929 . S
H875 C889 0.931 . S
H876 C891 0.930 . S
C877 H865 0.930 . S
C877 C878 1.399 . S
C877 C882 1.399 . S
C878 C877 1.399 . S
C878 C879 1.376 1_655 S
C879 H866 0.930 . S
C879 C878 1.376 1_455 S
C879 C880 1.388 . S
C880 H867 0.930 . S
C880 C879 1.388 . S
C880 C881 1.390 1_455 S
C881 C880 1.390 1_655 S
C881 C882 1.394 . S
C881 C887 1.465 . S
C882 C877 1.399 . S
C882 C881 1.394 . S
C882 C883 1.516 . S
C883 C882 1.516 . S
C883 C884 1.502 . S
C883 C885 1.561 . S
C883 C886 1.526 . S
C884 H868 0.959 . S
C884 H869 0.959 . S
C884 H870 0.961 . S
C884 C883 1.502 . S
C885 H871 0.960 . S
C885 H872 0.961 . S
C885 H873 0.959 . S
C885 C883 1.561 . S
C886 C883 1.526 . S
C886 C887 1.396 . S
C886 C891 1.390 . S
C887 C881 1.465 . S
C887 C886 1.396 . S
C887 C888 1.399 1_655 S
C888 H874 0.929 . S
C888 C887 1.399 1_455 S
C888 C889 1.385 . S
C889 H875 0.931 . S
C889 C888 1.385 . S
C889 C890 1.389 1_455 S
C890 C889 1.389 1_655 S
C890 C891 1.387 . S
C891 H876 0.930 . S
C891 C886 1.390 . S
C891 C890 1.387 . S
H892 C904 0.930 . S
H893 C906 0.930 . S
H894 C907 0.930 . S
H895 C911 0.959 . S
H896 C911 0.959 . S
H897 C911 0.961 . S
H898 C912 0.960 . S
H899 C912 0.961 . S
H900 C912 0.959 . S
H901 C915 0.929 . S
H902 C916 0.931 . S
H903 C918 0.930 . S
C904 H892 0.930 . S
C904 C905 1.399 . S
C904 C909 1.399 . S
C905 C904 1.399 . S
C905 C906 1.376 . S
C906 H893 0.930 . S
C906 C905 1.376 . S
C906 C907 1.388 . S
C907 H894 0.930 . S
C907 C906 1.388 . S
C907 C908 1.390 . S
C908 C907 1.390 . S
C908 C909 1.394 . S
C908 C914 1.465 . S
C909 C904 1.399 . S
C909 C908 1.394 . S
C909 C910 1.516 . S
C910 C909 1.516 . S
C910 C911 1.502 . S
C910 C912 1.561 . S
C910 C913 1.526 . S
C911 H895 0.959 . S
C911 H896 0.959 . S
C911 H897 0.961 . S
C911 C910 1.502 . S
C912 H898 0.960 . S
C912 H899 0.961 . S
C912 H900 0.959 . S
C912 C910 1.561 . S
C913 C910 1.526 . S
C913 C914 1.396 . S
C913 C918 1.390 . S
C914 C908 1.465 . S
C914 C913 1.396 . S
C914 C915 1.399 . S
C915 H901 0.929 . S
C915 C914 1.399 . S
C915 C916 1.385 . S
C916 H902 0.931 . S
C916 C915 1.385 . S
C916 C917 1.389 . S
C917 C916 1.389 . S
C917 C918 1.387 . S
C918 H903 0.930 . S
C918 C913 1.390 . S
C918 C917 1.387 . S
H919 C931 0.930 . S
H920 C933 0.930 . S
H921 C934 0.930 . S
H922 C938 0.959 . S
H923 C938 0.959 . S
H924 C938 0.961 . S
H925 C939 0.960 . S
H926 C939 0.961 . S
H927 C939 0.959 . S
H928 C942 0.929 . S
H929 C943 0.931 . S
H930 C945 0.930 . S
C931 H919 0.930 . S
C931 C932 1.399 . S
C931 C936 1.399 . S
C932 C931 1.399 . S
C932 C933 1.376 . S
C933 H920 0.930 . S
C933 C932 1.376 . S
C933 C934 1.388 . S
C934 H921 0.930 . S
C934 C933 1.388 . S
C934 C935 1.390 . S
C935 C934 1.390 . S
C935 C936 1.394 . S
C935 C941 1.465 . S
C936 C931 1.399 . S
C936 C935 1.394 . S
C936 C937 1.516 . S
C937 C936 1.516 . S
C937 C938 1.502 . S
C937 C939 1.561 . S
C937 C940 1.526 . S
C938 H922 0.959 . S
C938 H923 0.959 . S
C938 H924 0.961 . S
C938 C937 1.502 . S
C939 H925 0.960 . S
C939 H926 0.961 . S
C939 H927 0.959 . S
C939 C937 1.561 . S
C940 C937 1.526 . S
C940 C941 1.396 . S
C940 C945 1.390 . S
C941 C935 1.465 . S
C941 C940 1.396 . S
C941 C942 1.399 . S
C942 H928 0.929 . S
C942 C941 1.399 . S
C942 C943 1.385 . S
C943 H929 0.931 . S
C943 C942 1.385 . S
C943 C944 1.389 . S
C944 C943 1.389 . S
C944 C945 1.387 . S
C945 H930 0.930 . S
C945 C940 1.390 . S
C945 C944 1.387 . S
H946 C958 0.930 . S
H947 C960 0.930 . S
H948 C961 0.930 . S
H949 C965 0.959 . S
H950 C965 0.959 . S
H951 C965 0.961 . S
H952 C966 0.960 1_545 S
H953 C966 0.961 . S
H954 C966 0.959 1_545 S
H955 C969 0.929 . S
H956 C970 0.931 . S
H957 C972 0.930 . S
C958 H946 0.930 . S
C958 C959 1.398 1_554 S
C958 C963 1.400 1_545 S
C959 C958 1.398 1_556 S
C959 C960 1.376 . S
C960 H947 0.930 . S
C960 C959 1.376 . S
C960 C961 1.388 1_545 S
C961 H948 0.930 . S
C961 C960 1.388 1_565 S
C961 C962 1.390 . S
C962 C961 1.390 . S
C962 C963 1.394 1_556 S
C962 C968 1.465 1_556 S
C963 C958 1.400 1_565 S
C963 C962 1.394 1_554 S
C963 C964 1.516 . S
C964 C963 1.516 . S
C964 C965 1.502 . S
C964 C966 1.561 . S
C964 C967 1.526 . S
C965 H949 0.959 . S
C965 H950 0.959 . S
C965 H951 0.961 . S
C965 C964 1.502 . S
C966 H952 0.960 1_565 S
C966 H953 0.961 . S
C966 H954 0.959 1_565 S
C966 C964 1.561 . S
C967 C964 1.526 . S
C967 C968 1.396 . S
C967 C972 1.390 . S
C968 C962 1.465 1_554 S
C968 C967 1.396 . S
C968 C969 1.399 1_554 S
C969 H955 0.929 . S
C969 C968 1.399 1_556 S
C969 C970 1.385 1_556 S
C970 H956 0.931 . S
C970 C969 1.385 1_554 S
C970 C971 1.389 . S
C971 C970 1.389 . S
C971 C972 1.387 . S
C972 H957 0.930 . S
C972 C967 1.390 . S
C972 C971 1.387 . S
H973 C985 0.930 . S
H974 C987 0.930 . S
H975 C988 0.930 . S
H976 C992 0.959 . S
H977 C992 0.959 . S
H978 C992 0.961 . S
H979 C993 0.960 . S
H980 C993 0.961 . S
H981 C993 0.959 . S
H982 C996 0.929 . S
H983 C997 0.931 . S
H984 C999 0.930 . S
C985 H973 0.930 . S
C985 C986 1.399 . S
C985 C990 1.399 . S
C986 C985 1.399 . S
C986 C987 1.376 . S
C987 H974 0.930 . S
C987 C986 1.376 . S
C987 C988 1.388 . S
C988 H975 0.930 . S
C988 C987 1.388 . S
C988 C989 1.390 . S
C989 C988 1.390 . S
C989 C990 1.394 . S
C989 C995 1.465 . S
C990 C985 1.399 . S
C990 C989 1.394 . S
C990 C991 1.516 . S
C991 C990 1.516 . S
C991 C992 1.502 . S
C991 C993 1.561 . S
C991 C994 1.526 . S
C992 H976 0.959 . S
C992 H977 0.959 . S
C992 H978 0.961 . S
C992 C991 1.502 . S
C993 H979 0.960 . S
C993 H980 0.961 . S
C993 H981 0.959 . S
C993 C991 1.561 . S
C994 C991 1.526 . S
C994 C995 1.396 . S
C994 C999 1.390 . S
C995 C989 1.465 . S
C995 C994 1.396 . S
C995 C996 1.399 . S
C996 H982 0.929 . S
C996 C995 1.399 . S
C996 C997 1.385 . S
C997 H983 0.931 . S
C997 C996 1.385 . S
C997 C998 1.389 . S
C998 C997 1.389 . S
C998 C999 1.387 . S
C999 H984 0.930 . S
C999 C994 1.390 . S
C999 C998 1.387 . S
H1000 C1012 0.930 . S
H1001 C1014 0.930 . S
H1002 C1015 0.930 . S
H1003 C1019 0.959 . S
H1004 C1019 0.959 . S
H1005 C1019 0.961 . S
H1006 C1020 0.960 . S
H1007 C1020 0.961 . S
H1008 C1020 0.959 . S
H1009 C1023 0.929 . S
H1010 C1024 0.931 . S
H1011 C1026 0.930 . S
C1012 H1000 0.930 . S
C1012 C1013 1.399 . S
C1012 C1017 1.399 . S
C1013 C1012 1.399 . S
C1013 C1014 1.376 . S
C1014 H1001 0.930 . S
C1014 C1013 1.376 . S
C1014 C1015 1.388 . S
C1015 H1002 0.930 . S
C1015 C1014 1.388 . S
C1015 C1016 1.390 . S
C1016 C1015 1.390 . S
C1016 C1017 1.394 . S
C1016 C1022 1.465 . S
C1017 C1012 1.399 . S
C1017 C1016 1.394 . S
C1017 C1018 1.516 . S
C1018 C1017 1.516 . S
C1018 C1019 1.502 . S
C1018 C1020 1.561 . S
C1018 C1021 1.526 . S
C1019 H1003 0.959 . S
C1019 H1004 0.959 . S
C1019 H1005 0.961 . S
C1019 C1018 1.502 . S
C1020 H1006 0.960 . S
C1020 H1007 0.961 . S
C1020 H1008 0.959 . S
C1020 C1018 1.561 . S
C1021 C1018 1.526 . S
C1021 C1022 1.396 . S
C1021 C1026 1.390 . S
C1022 C1016 1.465 . S
C1022 C1021 1.396 . S
C1022 C1023 1.399 . S
C1023 H1009 0.929 . S
C1023 C1022 1.399 . S
C1023 C1024 1.385 . S
C1024 H1010 0.931 . S
C1024 C1023 1.385 . S
C1024 C1025 1.389 . S
C1025 C1024 1.389 . S
C1025 C1026 1.387 . S
C1026 H1011 0.930 . S
C1026 C1021 1.390 . S
C1026 C1025 1.387 . S
H1027 C1039 0.930 . S
H1028 C1041 0.930 . S
H1029 C1042 0.930 . S
H1030 C1046 0.959 . S
H1031 C1046 0.959 . S
H1032 C1046 0.961 . S
H1033 C1047 0.960 . S
H1034 C1047 0.961 . S
H1035 C1047 0.959 . S
H1036 C1050 0.929 . S
H1037 C1051 0.931 . S
H1038 C1053 0.930 . S
C1039 H1027 0.930 . S
C1039 C1040 1.399 . S
C1039 C1044 1.399 . S
C1040 C1039 1.399 . S
C1040 C1041 1.376 . S
C1041 H1028 0.930 . S
C1041 C1040 1.376 . S
C1041 C1042 1.388 . S
C1042 H1029 0.930 . S
C1042 C1041 1.388 . S
C1042 C1043 1.390 . S
C1043 C1042 1.390 . S
C1043 C1044 1.394 . S
C1043 C1049 1.465 . S
C1044 C1039 1.399 . S
C1044 C1043 1.394 . S
C1044 C1045 1.516 . S
C1045 C1044 1.516 . S
C1045 C1046 1.502 . S
C1045 C1047 1.561 . S
C1045 C1048 1.526 . S
C1046 H1030 0.959 . S
C1046 H1031 0.959 . S
C1046 H1032 0.961 . S
C1046 C1045 1.502 . S
C1047 H1033 0.960 . S
C1047 H1034 0.961 . S
C1047 H1035 0.959 . S
C1047 C1045 1.561 . S
C1048 C1045 1.526 . S
C1048 C1049 1.396 . S
C1048 C1053 1.390 . S
C1049 C1043 1.465 . S
C1049 C1048 1.396 . S
C1049 C1050 1.399 . S
C1050 H1036 0.929 . S
C1050 C1049 1.399 . S
C1050 C1051 1.385 . S
C1051 H1037 0.931 . S
C1051 C1050 1.385 . S
C1051 C1052 1.389 . S
C1052 C1051 1.389 . S
C1052 C1053 1.387 . S
C1053 H1038 0.930 . S
C1053 C1048 1.390 . S
C1053 C1052 1.387 . S
H1054 C1066 0.930 . S
H1055 C1068 0.930 . S
H1056 C1069 0.930 . S
H1057 C1073 0.959 . S
H1058 C1073 0.959 . S
H1059 C1073 0.961 . S
H1060 C1074 0.960 . S
H1061 C1074 0.961 . S
H1062 C1074 0.959 . S
H1063 C1077 0.929 . S
H1064 C1078 0.931 . S
H1065 C1080 0.930 . S
C1066 H1054 0.930 . S
C1066 C1067 1.399 . S
C1066 C1071 1.399 . S
C1067 C1066 1.399 . S
C1067 C1068 1.376 . S
C1068 H1055 0.930 . S
C1068 C1067 1.376 . S
C1068 C1069 1.388 . S
C1069 H1056 0.930 . S
C1069 C1068 1.388 . S
C1069 C1070 1.390 . S
C1070 C1069 1.390 . S
C1070 C1071 1.394 . S
C1070 C1076 1.465 . S
C1071 C1066 1.399 . S
C1071 C1070 1.394 . S
C1071 C1072 1.516 . S
C1072 C1071 1.516 . S
C1072 C1073 1.502 . S
C1072 C1074 1.561 . S
C1072 C1075 1.526 . S
C1073 H1057 0.959 . S
C1073 H1058 0.959 . S
C1073 H1059 0.961 . S
C1073 C1072 1.502 . S
C1074 H1060 0.960 . S
C1074 H1061 0.961 . S
C1074 H1062 0.959 . S
C1074 C1072 1.561 . S
C1075 C1072 1.526 . S
C1075 C1076 1.396 . S
C1075 C1080 1.390 . S
C1076 C1070 1.465 . S
C1076 C1075 1.396 . S
C1076 C1077 1.399 . S
C1077 H1063 0.929 . S
C1077 C1076 1.399 . S
C1077 C1078 1.385 . S
C1078 H1064 0.931 . S
C1078 C1077 1.385 . S
C1078 C1079 1.389 . S
C1079 C1078 1.389 . S
C1079 C1080 1.387 . S
C1080 H1065 0.930 . S
C1080 C1075 1.390 . S
C1080 C1079 1.387 . S
H1081 C1093 0.930 . S
H1082 C1095 0.930 . S
H1083 C1096 0.930 . S
H1084 C1100 0.959 . S
H1085 C1100 0.959 . S
H1086 C1100 0.961 . S
H1087 C1101 0.960 . S
H1088 C1101 0.961 . S
H1089 C1101 0.959 . S
H1090 C1104 0.929 . S
H1091 C1105 0.931 . S
H1092 C1107 0.930 . S
C1093 H1081 0.930 . S
C1093 C1094 1.399 . S
C1093 C1098 1.399 . S
C1094 C1093 1.399 . S
C1094 C1095 1.376 . S
C1095 H1082 0.930 . S
C1095 C1094 1.376 . S
C1095 C1096 1.388 . S
C1096 H1083 0.930 . S
C1096 C1095 1.388 . S
C1096 C1097 1.390 . S
C1097 C1096 1.390 . S
C1097 C1098 1.394 . S
C1097 C1103 1.465 . S
C1098 C1093 1.399 . S
C1098 C1097 1.394 . S
C1098 C1099 1.516 . S
C1099 C1098 1.516 . S
C1099 C1100 1.502 . S
C1099 C1101 1.561 . S
C1099 C1102 1.526 . S
C1100 H1084 0.959 . S
C1100 H1085 0.959 . S
C1100 H1086 0.961 . S
C1100 C1099 1.502 . S
C1101 H1087 0.960 . S
C1101 H1088 0.961 . S
C1101 H1089 0.959 . S
C1101 C1099 1.561 . S
C1102 C1099 1.526 . S
C1102 C1103 1.396 . S
C1102 C1107 1.390 . S
C1103 C1097 1.465 . S
C1103 C1102 1.396 . S
C1103 C1104 1.399 . S
C1104 H1090 0.929 . S
C1104 C1103 1.399 . S
C1104 C1105 1.385 . S
C1105 H1091 0.931 . S
C1105 C1104 1.385 . S
C1105 C1106 1.389 . S
C1106 C1105 1.389 . S
C1106 C1107 1.387 . S
C1107 H1092 0.930 . S
C1107 C1102 1.390 . S
C1107 C1106 1.387 . S
H1108 C1120 0.930 . S
H1109 C1122 0.930 . S
H1110 C1123 0.930 . S
H1111 C1127 0.959 . S
H1112 C1127 0.959 . S
H1113 C1127 0.961 . S
H1114 C1128 0.960 . S
H1115 C1128 0.961 . S
H1116 C1128 0.959 . S
H1117 C1131 0.929 . S
H1118 C1132 0.931 . S
H1119 C1134 0.930 . S
C1120 H1108 0.930 . S
C1120 C1121 1.399 . S
C1120 C1125 1.399 . S
C1121 C1120 1.399 . S
C1121 C1122 1.376 . S
C1122 H1109 0.930 . S
C1122 C1121 1.376 . S
C1122 C1123 1.388 . S
C1123 H1110 0.930 . S
C1123 C1122 1.388 . S
C1123 C1124 1.390 . S
C1124 C1123 1.390 . S
C1124 C1125 1.394 . S
C1124 C1130 1.465 . S
C1125 C1120 1.399 . S
C1125 C1124 1.394 . S
C1125 C1126 1.516 . S
C1126 C1125 1.516 . S
C1126 C1127 1.502 . S
C1126 C1128 1.561 . S
C1126 C1129 1.526 . S
C1127 H1111 0.959 . S
C1127 H1112 0.959 . S
C1127 H1113 0.961 . S
C1127 C1126 1.502 . S
C1128 H1114 0.960 . S
C1128 H1115 0.961 . S
C1128 H1116 0.959 . S
C1128 C1126 1.561 . S
C1129 C1126 1.526 . S
C1129 C1130 1.396 . S
C1129 C1134 1.390 . S
C1130 C1124 1.465 . S
C1130 C1129 1.396 . S
C1130 C1131 1.399 . S
C1131 H1117 0.929 . S
C1131 C1130 1.399 . S
C1131 C1132 1.385 . S
C1132 H1118 0.931 . S
C1132 C1131 1.385 . S
C1132 C1133 1.389 . S
C1133 C1132 1.389 . S
C1133 C1134 1.387 . S
C1134 H1119 0.930 . S
C1134 C1129 1.390 . S
C1134 C1133 1.387 . S
H1135 C1147 0.930 . S
H1136 C1149 0.930 . S
H1137 C1150 0.930 . S
H1138 C1154 0.994 . S
H1139 C1154 0.932 1_565 S
H1140 C1154 0.942 1_565 S
H1141 C1155 0.960 . S
H1142 C1155 0.961 . S
H1143 C1155 0.959 . S
H1144 C1158 0.929 . S
H1145 C1159 0.931 . S
H1146 C1161 0.930 1_565 S
C1147 H1135 0.930 . S
C1147 C1148 1.399 . S
C1147 C1152 1.399 . S
C1148 C1147 1.399 . S
C1148 C1149 1.376 . S
C1149 H1136 0.930 . S
C1149 C1148 1.376 . S
C1149 C1150 1.388 . S
C1150 H1137 0.930 . S
C1150 C1149 1.388 . S
C1150 C1151 1.390 . S
C1151 C1150 1.390 . S
C1151 C1152 1.394 . S
C1151 C1157 1.465 . S
C1152 C1147 1.399 . S
C1152 C1151 1.394 . S
C1152 C1153 1.516 . S
C1153 C1152 1.516 . S
C1153 C1154 1.517 . S
C1153 C1155 1.561 1_545 S
C1153 C1156 1.526 . S
C1154 H1138 0.994 . S
C1154 H1139 0.932 1_545 S
C1154 H1140 0.942 1_545 S
C1154 C1153 1.517 . S
C1155 H1141 0.960 . S
C1155 H1142 0.961 . S
C1155 H1143 0.959 . S
C1155 C1153 1.561 1_565 S
C1156 C1153 1.526 . S
C1156 C1157 1.396 . S
C1156 C1161 1.390 . S
C1157 C1151 1.465 . S
C1157 C1156 1.396 . S
C1157 C1158 1.399 . S
C1158 H1144 0.929 . S
C1158 C1157 1.399 . S
C1158 C1159 1.385 . S
C1159 H1145 0.931 . S
C1159 C1158 1.385 . S
C1159 C1160 1.389 . S
C1160 C1159 1.389 . S
C1160 C1161 1.387 . S
C1161 H1146 0.930 1_545 S
C1161 C1156 1.390 . S
C1161 C1160 1.387 . S
H1162 C1174 0.930 . S
H1163 C1176 0.930 . S
H1164 C1177 0.930 . S
H1165 C1181 0.959 . S
H1166 C1181 0.959 . S
H1167 C1181 0.961 . S
H1168 C1182 0.960 . S
H1169 C1182 0.961 . S
H1170 C1182 0.959 . S
H1171 C1185 0.929 . S
H1172 C1186 0.931 . S
H1173 C1188 0.930 . S
C1174 H1162 0.930 . S
C1174 C1175 1.399 . S
C1174 C1179 1.399 . S
C1175 C1174 1.399 . S
C1175 C1176 1.376 . S
C1176 H1163 0.930 . S
C1176 C1175 1.376 . S
C1176 C1177 1.388 . S
C1177 H1164 0.930 . S
C1177 C1176 1.388 . S
C1177 C1178 1.390 . S
C1178 C1177 1.390 . S
C1178 C1179 1.394 . S
C1178 C1184 1.465 . S
C1179 C1174 1.399 . S
C1179 C1178 1.394 . S
C1179 C1180 1.516 . S
C1180 C1179 1.516 . S
C1180 C1181 1.502 . S
C1180 C1182 1.561 . S
C1180 C1183 1.526 . S
C1181 H1165 0.959 . S
C1181 H1166 0.959 . S
C1181 H1167 0.961 . S
C1181 C1180 1.502 . S
C1182 H1168 0.960 . S
C1182 H1169 0.961 . S
C1182 H1170 0.959 . S
C1182 C1180 1.561 . S
C1183 C1180 1.526 . S
C1183 C1184 1.396 . S
C1183 C1188 1.390 . S
C1184 C1178 1.465 . S
C1184 C1183 1.396 . S
C1184 C1185 1.399 . S
C1185 H1171 0.929 . S
C1185 C1184 1.399 . S
C1185 C1186 1.385 . S
C1186 H1172 0.931 . S
C1186 C1185 1.385 . S
C1186 C1187 1.389 . S
C1187 C1186 1.389 . S
C1187 C1188 1.387 . S
C1188 H1173 0.930 . S
C1188 C1183 1.390 . S
C1188 C1187 1.387 . S
H1189 C1201 0.930 . S
H1190 C1203 0.930 . S
H1191 C1204 0.930 . S
H1192 C1208 0.959 . S
H1193 C1208 0.959 . S
H1194 C1208 0.961 . S
H1195 C1209 0.960 . S
H1196 C1209 0.961 . S
H1197 C1209 0.959 . S
H1198 C1212 0.929 . S
H1199 C1213 0.931 . S
H1200 C1215 0.930 . S
C1201 H1189 0.930 . S
C1201 C1202 1.399 . S
C1201 C1206 1.399 . S
C1202 C1201 1.399 . S
C1202 C1203 1.376 . S
C1203 H1190 0.930 . S
C1203 C1202 1.376 . S
C1203 C1204 1.388 . S
C1204 H1191 0.930 . S
C1204 C1203 1.388 . S
C1204 C1205 1.390 . S
C1205 C1204 1.390 . S
C1205 C1206 1.394 . S
C1205 C1211 1.465 . S
C1206 C1201 1.399 . S
C1206 C1205 1.394 . S
C1206 C1207 1.516 . S
C1207 C1206 1.516 . S
C1207 C1208 1.502 . S
C1207 C1209 1.561 . S
C1207 C1210 1.526 . S
C1208 H1192 0.959 . S
C1208 H1193 0.959 . S
C1208 H1194 0.961 . S
C1208 C1207 1.502 . S
C1209 H1195 0.960 . S
C1209 H1196 0.961 . S
C1209 H1197 0.959 . S
C1209 C1207 1.561 . S
C1210 C1207 1.526 . S
C1210 C1211 1.396 . S
C1210 C1215 1.390 . S
C1211 C1205 1.465 . S
C1211 C1210 1.396 . S
C1211 C1212 1.399 . S
C1212 H1198 0.929 . S
C1212 C1211 1.399 . S
C1212 C1213 1.385 . S
C1213 H1199 0.931 . S
C1213 C1212 1.385 . S
C1213 C1214 1.389 . S
C1214 C1213 1.389 . S
C1214 C1215 1.387 . S
C1215 H1200 0.930 . S
C1215 C1210 1.390 . S
C1215 C1214 1.387 . S
H1216 C1228 0.930 . S
H1217 C1230 0.930 . S
H1218 C1231 0.930 . S
H1219 C1235 0.959 . S
H1220 C1235 0.959 . S
H1221 C1235 0.961 . S
H1222 C1236 0.960 . S
H1223 C1236 0.961 . S
H1224 C1236 0.959 . S
H1225 C1239 0.929 . S
H1226 C1240 0.931 . S
H1227 C1242 0.930 . S
C1228 H1216 0.930 . S
C1228 C1229 1.399 . S
C1228 C1233 1.399 . S
C1229 C1228 1.399 . S
C1229 C1230 1.376 . S
C1230 H1217 0.930 . S
C1230 C1229 1.376 . S
C1230 C1231 1.388 . S
C1231 H1218 0.930 . S
C1231 C1230 1.388 . S
C1231 C1232 1.390 . S
C1232 C1231 1.390 . S
C1232 C1233 1.394 . S
C1232 C1238 1.465 . S
C1233 C1228 1.399 . S
C1233 C1232 1.394 . S
C1233 C1234 1.516 . S
C1234 C1233 1.516 . S
C1234 C1235 1.502 . S
C1234 C1236 1.561 . S
C1234 C1237 1.526 . S
C1235 H1219 0.959 . S
C1235 H1220 0.959 . S
C1235 H1221 0.961 . S
C1235 C1234 1.502 . S
C1236 H1222 0.960 . S
C1236 H1223 0.961 . S
C1236 H1224 0.959 . S
C1236 C1234 1.561 . S
C1237 C1234 1.526 . S
C1237 C1238 1.396 . S
C1237 C1242 1.390 . S
C1238 C1232 1.465 . S
C1238 C1237 1.396 . S
C1238 C1239 1.399 . S
C1239 H1225 0.929 . S
C1239 C1238 1.399 . S
C1239 C1240 1.385 . S
C1240 H1226 0.931 . S
C1240 C1239 1.385 . S
C1240 C1241 1.389 . S
C1241 C1240 1.389 . S
C1241 C1242 1.387 . S
C1242 H1227 0.930 . S
C1242 C1237 1.390 . S
C1242 C1241 1.387 . S
H1243 C1255 0.930 1_565 S
H1244 C1257 0.930 . S
H1245 C1258 0.930 . S
H1246 C1262 0.959 . S
H1247 C1262 0.959 . S
H1248 C1262 0.961 . S
H1249 C1263 0.960 . S
H1250 C1263 0.961 . S
H1251 C1263 0.959 . S
H1252 C1266 0.929 . S
H1253 C1267 0.931 . S
H1254 C1269 0.930 1_565 S
C1255 H1243 0.930 1_545 S
C1255 C1256 1.399 . S
C1255 C1260 1.399 . S
C1256 C1255 1.399 . S
C1256 C1257 1.376 . S
C1257 H1244 0.930 . S
C1257 C1256 1.376 . S
C1257 C1258 1.388 . S
C1258 H1245 0.930 . S
C1258 C1257 1.388 . S
C1258 C1259 1.390 . S
C1259 C1258 1.390 . S
C1259 C1260 1.394 . S
C1259 C1265 1.465 . S
C1260 C1255 1.399 . S
C1260 C1259 1.394 . S
C1260 C1261 1.516 1_545 S
C1261 C1260 1.516 1_565 S
C1261 C1262 1.502 1_455 S
C1261 C1263 1.561 . S
C1261 C1264 1.519 1_465 S
C1262 H1246 0.959 . S
C1262 H1247 0.959 . S
C1262 H1248 0.961 . S
C1262 C1261 1.502 1_655 S
C1263 H1249 0.960 . S
C1263 H1250 0.961 . S
C1263 H1251 0.959 . S
C1263 C1261 1.561 . S
C1264 C1261 1.519 1_645 S
C1264 C1265 1.388 1_655 S
C1264 C1269 1.402 . S
C1265 C1259 1.465 . S
C1265 C1264 1.388 1_455 S
C1265 C1266 1.399 . S
C1266 H1252 0.929 . S
C1266 C1265 1.399 . S
C1266 C1267 1.385 1_455 S
C1267 H1253 0.931 . S
C1267 C1266 1.385 1_655 S
C1267 C1268 1.389 . S
C1268 C1267 1.389 . S
C1268 C1269 1.387 . S
C1269 H1254 0.930 1_545 S
C1269 C1264 1.402 . S
C1269 C1268 1.387 . S
H1270 C1282 0.930 . S
H1271 C1284 0.930 . S
H1272 C1285 0.930 . S
H1273 C1289 0.959 . S
H1274 C1289 0.959 . S
H1275 C1289 0.961 . S
H1276 C1290 0.960 . S
H1277 C1290 0.961 . S
H1278 C1290 0.959 . S
H1279 C1293 0.929 . S
H1280 C1294 0.931 . S
H1281 C1296 0.930 . S
C1282 H1270 0.930 . S
C1282 C1283 1.399 . S
C1282 C1287 1.399 . S
C1283 C1282 1.399 . S
C1283 C1284 1.376 . S
C1284 H1271 0.930 . S
C1284 C1283 1.376 . S
C1284 C1285 1.388 . S
C1285 H1272 0.930 . S
C1285 C1284 1.388 . S
C1285 C1286 1.390 . S
C1286 C1285 1.390 . S
C1286 C1287 1.394 . S
C1286 C1292 1.465 . S
C1287 C1282 1.399 . S
C1287 C1286 1.394 . S
C1287 C1288 1.516 . S
C1288 C1287 1.516 . S
C1288 C1289 1.502 . S
C1288 C1290 1.561 . S
C1288 C1291 1.526 . S
C1289 H1273 0.959 . S
C1289 H1274 0.959 . S
C1289 H1275 0.961 . S
C1289 C1288 1.502 . S
C1290 H1276 0.960 . S
C1290 H1277 0.961 . S
C1290 H1278 0.959 . S
C1290 C1288 1.561 . S
C1291 C1288 1.526 . S
C1291 C1292 1.396 . S
C1291 C1296 1.390 . S
C1292 C1286 1.465 . S
C1292 C1291 1.396 . S
C1292 C1293 1.399 . S
C1293 H1279 0.929 . S
C1293 C1292 1.399 . S
C1293 C1294 1.385 . S
C1294 H1280 0.931 . S
C1294 C1293 1.385 . S
C1294 C1295 1.389 . S
C1295 C1294 1.389 . S
C1295 C1296 1.387 . S
C1296 H1281 0.930 . S
C1296 C1291 1.390 . S
C1296 C1295 1.387 . S
H1297 C1309 0.930 . S
H1298 C1311 0.930 . S
H1299 C1312 0.930 . S
H1300 C1316 0.959 . S
H1301 C1316 0.959 . S
H1302 C1316 0.961 . S
H1303 C1317 0.960 . S
H1304 C1317 0.961 . S
H1305 C1317 0.959 . S
H1306 C1320 0.929 . S
H1307 C1321 0.931 . S
H1308 C1323 0.930 . S
C1309 H1297 0.930 . S
C1309 C1310 1.399 . S
C1309 C1314 1.399 . S
C1310 C1309 1.399 . S
C1310 C1311 1.376 . S
C1311 H1298 0.930 . S
C1311 C1310 1.376 . S
C1311 C1312 1.388 . S
C1312 H1299 0.930 . S
C1312 C1311 1.388 . S
C1312 C1313 1.390 . S
C1313 C1312 1.390 . S
C1313 C1314 1.394 . S
C1313 C1319 1.465 . S
C1314 C1309 1.399 . S
C1314 C1313 1.394 . S
C1314 C1315 1.516 . S
C1315 C1314 1.516 . S
C1315 C1316 1.502 . S
C1315 C1317 1.561 . S
C1315 C1318 1.526 . S
C1316 H1300 0.959 . S
C1316 H1301 0.959 . S
C1316 H1302 0.961 . S
C1316 C1315 1.502 . S
C1317 H1303 0.960 . S
C1317 H1304 0.961 . S
C1317 H1305 0.959 . S
C1317 C1315 1.561 . S
C1318 C1315 1.526 . S
C1318 C1319 1.396 . S
C1318 C1323 1.390 . S
C1319 C1313 1.465 . S
C1319 C1318 1.396 . S
C1319 C1320 1.399 . S
C1320 H1306 0.929 . S
C1320 C1319 1.399 . S
C1320 C1321 1.385 . S
C1321 H1307 0.931 . S
C1321 C1320 1.385 . S
C1321 C1322 1.389 . S
C1322 C1321 1.389 . S
C1322 C1323 1.387 . S
C1323 H1308 0.930 . S
C1323 C1318 1.390 . S
C1323 C1322 1.387 . S
H1324 C1336 0.930 . S
H1325 C1338 0.930 . S
H1326 C1339 0.930 . S
H1327 C1343 0.959 . S
H1328 C1343 0.959 . S
H1329 C1343 0.961 . S
H1330 C1344 0.960 . S
H1331 C1344 0.961 . S
H1332 C1344 0.959 . S
H1333 C1347 0.929 . S
H1334 C1348 0.931 . S
H1335 C1350 0.930 . S
C1336 H1324 0.930 . S
C1336 C1337 1.399 . S
C1336 C1341 1.399 . S
C1337 C1336 1.399 . S
C1337 C1338 1.376 . S
C1338 H1325 0.930 . S
C1338 C1337 1.376 . S
C1338 C1339 1.388 . S
C1339 H1326 0.930 . S
C1339 C1338 1.388 . S
C1339 C1340 1.390 . S
C1340 C1339 1.390 . S
C1340 C1341 1.394 . S
C1340 C1346 1.465 . S
C1341 C1336 1.399 . S
C1341 C1340 1.394 . S
C1341 C1342 1.516 . S
C1342 C1341 1.516 . S
C1342 C1343 1.502 . S
C1342 C1344 1.561 . S
C1342 C1345 1.526 . S
C1343 H1327 0.959 . S
C1343 H1328 0.959 . S
C1343 H1329 0.961 . S
C1343 C1342 1.502 . S
C1344 H1330 0.960 . S
C1344 H1331 0.961 . S
C1344 H1332 0.959 . S
C1344 C1342 1.561 . S
C1345 C1342 1.526 . S
C1345 C1346 1.396 . S
C1345 C1350 1.390 . S
C1346 C1340 1.465 . S
C1346 C1345 1.396 . S
C1346 C1347 1.399 . S
C1347 H1333 0.929 . S
C1347 C1346 1.399 . S
C1347 C1348 1.385 . S
C1348 H1334 0.931 . S
C1348 C1347 1.385 . S
C1348 C1349 1.389 . S
C1349 C1348 1.389 . S
C1349 C1350 1.387 . S
C1350 H1335 0.930 . S
C1350 C1345 1.390 . S
C1350 C1349 1.387 . S
H1351 C1363 0.930 . S
H1352 C1365 0.930 . S
H1353 C1366 0.930 . S
H1354 C1370 0.959 . S
H1355 C1370 0.959 . S
H1356 C1370 0.961 . S
H1357 C1371 0.976 . S
H1358 C1371 0.961 1_655 S
H1359 C1371 0.959 . S
H1360 C1374 0.929 . S
H1361 C1375 0.931 . S
H1362 C1377 0.930 . S
C1363 H1351 0.930 . S
C1363 C1364 1.399 1_655 S
C1363 C1368 1.391 1_655 S
C1364 C1363 1.399 1_455 S
C1364 C1365 1.376 . S
C1365 H1352 0.930 . S
C1365 C1364 1.376 . S
C1365 C1366 1.388 . S
C1366 H1353 0.930 . S
C1366 C1365 1.388 . S
C1366 C1367 1.390 . S
C1367 C1366 1.390 . S
C1367 C1368 1.410 . S
C1367 C1373 1.465 . S
C1368 C1363 1.391 1_455 S
C1368 C1367 1.410 . S
C1368 C1369 1.511 1_455 S
C1369 C1368 1.511 1_655 S
C1369 C1370 1.502 . S
C1369 C1371 1.561 1_655 S
C1369 C1372 1.508 1_655 S
C1370 H1354 0.959 . S
C1370 H1355 0.959 . S
C1370 H1356 0.961 . S
C1370 C1369 1.502 . S
C1371 H1357 0.976 . S
C1371 H1358 0.961 1_455 S
C1371 H1359 0.959 . S
C1371 C1369 1.561 1_455 S
C1372 C1369 1.508 1_455 S
C1372 C1373 1.418 . S
C1372 C1377 1.390 1_455 S
C1373 C1367 1.465 . S
C1373 C1372 1.418 . S
C1373 C1374 1.399 . S
C1374 H1360 0.929 . S
C1374 C1373 1.399 . S
C1374 C1375 1.385 . S
C1375 H1361 0.931 . S
C1375 C1374 1.385 . S
C1375 C1376 1.389 . S
C1376 C1375 1.389 . S
C1376 C1377 1.387 1_455 S
C1377 H1362 0.930 . S
C1377 C1372 1.390 1_655 S
C1377 C1376 1.387 1_655 S
H1378 C1390 0.930 . S
H1379 C1392 0.930 . S
H1380 C1393 0.930 . S
H1381 C1397 0.959 . S
H1382 C1397 0.959 . S
H1383 C1397 0.961 . S
H1384 C1398 0.960 . S
H1385 C1398 0.961 . S
H1386 C1398 0.959 . S
H1387 C1401 0.929 . S
H1388 C1402 0.931 . S
H1389 C1404 0.930 . S
C1390 H1378 0.930 . S
C1390 C1391 1.399 . S
C1390 C1395 1.399 . S
C1391 C1390 1.399 . S
C1391 C1392 1.376 . S
C1392 H1379 0.930 . S
C1392 C1391 1.376 . S
C1392 C1393 1.388 . S
C1393 H1380 0.930 . S
C1393 C1392 1.388 . S
C1393 C1394 1.390 . S
C1394 C1393 1.390 . S
C1394 C1395 1.394 . S
C1394 C1400 1.465 . S
C1395 C1390 1.399 . S
C1395 C1394 1.394 . S
C1395 C1396 1.516 . S
C1396 C1395 1.516 . S
C1396 C1397 1.502 . S
C1396 C1398 1.561 . S
C1396 C1399 1.526 . S
C1397 H1381 0.959 . S
C1397 H1382 0.959 . S
C1397 H1383 0.961 . S
C1397 C1396 1.502 . S
C1398 H1384 0.960 . S
C1398 H1385 0.961 . S
C1398 H1386 0.959 . S
C1398 C1396 1.561 . S
C1399 C1396 1.526 . S
C1399 C1400 1.396 . S
C1399 C1404 1.390 . S
C1400 C1394 1.465 . S
C1400 C1399 1.396 . S
C1400 C1401 1.399 . S
C1401 H1387 0.929 . S
C1401 C1400 1.399 . S
C1401 C1402 1.385 . S
C1402 H1388 0.931 . S
C1402 C1401 1.385 . S
C1402 C1403 1.389 . S
C1403 C1402 1.389 . S
C1403 C1404 1.387 . S
C1404 H1389 0.930 . S
C1404 C1399 1.390 . S
C1404 C1403 1.387 . S
H1405 C1417 0.930 . S
H1406 C1419 0.930 1_554 S
H1407 C1420 0.930 1_655 S
H1408 C1424 0.959 . S
H1409 C1424 0.959 . S
H1410 C1424 0.961 . S
H1411 C1425 0.960 . S
H1412 C1425 0.961 . S
H1413 C1425 0.959 . S
H1414 C1428 0.929 . S
H1415 C1429 0.931 . S
H1416 C1431 0.930 . S
C1417 H1405 0.930 . S
C1417 C1418 1.399 . S
C1417 C1422 1.399 . S
C1418 C1417 1.399 . S
C1418 C1419 1.376 . S
C1419 H1406 0.930 1_556 S
C1419 C1418 1.376 . S
C1419 C1420 1.388 . S
C1420 H1407 0.930 1_455 S
C1420 C1419 1.388 . S
C1420 C1421 1.390 . S
C1421 C1420 1.390 . S
C1421 C1422 1.394 . S
C1421 C1427 1.465 . S
C1422 C1417 1.399 . S
C1422 C1421 1.394 . S
C1422 C1423 1.516 . S
C1423 C1422 1.516 . S
C1423 C1424 1.502 . S
C1423 C1425 1.561 . S
C1423 C1426 1.526 . S
C1424 H1408 0.959 . S
C1424 H1409 0.959 . S
C1424 H1410 0.961 . S
C1424 C1423 1.502 . S
C1425 H1411 0.960 . S
C1425 H1412 0.961 . S
C1425 H1413 0.959 . S
C1425 C1423 1.561 . S
C1426 C1423 1.526 . S
C1426 C1427 1.396 . S
C1426 C1431 1.390 . S
C1427 C1421 1.465 . S
C1427 C1426 1.396 . S
C1427 C1428 1.399 1_455 S
C1428 H1414 0.929 . S
C1428 C1427 1.399 1_655 S
C1428 C1429 1.385 . S
C1429 H1415 0.931 . S
C1429 C1428 1.385 . S
C1429 C1430 1.389 1_655 S
C1430 C1429 1.389 1_455 S
C1430 C1431 1.387 . S
C1431 H1416 0.930 . S
C1431 C1426 1.390 . S
C1431 C1430 1.387 . S
H1432 C1444 0.930 . S
H1433 C1446 0.930 . S
H1434 C1447 0.930 . S
H1435 C1451 0.959 . S
H1436 C1451 0.959 . S
H1437 C1451 0.961 . S
H1438 C1452 0.960 . S
H1439 C1452 0.961 . S
H1440 C1452 0.959 . S
H1441 C1455 0.929 . S
H1442 C1456 0.931 . S
H1443 C1458 0.930 . S
C1444 H1432 0.930 . S
C1444 C1445 1.399 . S
C1444 C1449 1.399 . S
C1445 C1444 1.399 . S
C1445 C1446 1.376 . S
C1446 H1433 0.930 . S
C1446 C1445 1.376 . S
C1446 C1447 1.388 . S
C1447 H1434 0.930 . S
C1447 C1446 1.388 . S
C1447 C1448 1.390 . S
C1448 C1447 1.390 . S
C1448 C1449 1.394 . S
C1448 C1454 1.465 . S
C1449 C1444 1.399 . S
C1449 C1448 1.394 . S
C1449 C1450 1.516 . S
C1450 C1449 1.516 . S
C1450 C1451 1.502 . S
C1450 C1452 1.561 . S
C1450 C1453 1.526 . S
C1451 H1435 0.959 . S
C1451 H1436 0.959 . S
C1451 H1437 0.961 . S
C1451 C1450 1.502 . S
C1452 H1438 0.960 . S
C1452 H1439 0.961 . S
C1452 H1440 0.959 . S
C1452 C1450 1.561 . S
C1453 C1450 1.526 . S
C1453 C1454 1.396 . S
C1453 C1458 1.390 . S
C1454 C1448 1.465 . S
C1454 C1453 1.396 . S
C1454 C1455 1.399 . S
C1455 H1441 0.929 . S
C1455 C1454 1.399 . S
C1455 C1456 1.385 . S
C1456 H1442 0.931 . S
C1456 C1455 1.385 . S
C1456 C1457 1.389 . S
C1457 C1456 1.389 . S
C1457 C1458 1.387 . S
C1458 H1443 0.930 . S
C1458 C1453 1.390 . S
C1458 C1457 1.387 . S
H1459 C1471 0.930 . S
H1460 C1473 0.930 . S
H1461 C1474 0.930 . S
H1462 C1478 0.959 . S
H1463 C1478 0.959 . S
H1464 C1478 0.961 . S
H1465 C1479 0.960 . S
H1466 C1479 0.961 . S
H1467 C1479 0.959 . S
H1468 C1482 0.929 . S
H1469 C1483 0.931 . S
H1470 C1485 0.930 . S
C1471 H1459 0.930 . S
C1471 C1472 1.399 . S
C1471 C1476 1.399 . S
C1472 C1471 1.399 . S
C1472 C1473 1.376 . S
C1473 H1460 0.930 . S
C1473 C1472 1.376 . S
C1473 C1474 1.388 . S
C1474 H1461 0.930 . S
C1474 C1473 1.388 . S
C1474 C1475 1.390 . S
C1475 C1474 1.390 . S
C1475 C1476 1.394 . S
C1475 C1481 1.465 . S
C1476 C1471 1.399 . S
C1476 C1475 1.394 . S
C1476 C1477 1.516 . S
C1477 C1476 1.516 . S
C1477 C1478 1.502 . S
C1477 C1479 1.561 . S
C1477 C1480 1.526 . S
C1478 H1462 0.959 . S
C1478 H1463 0.959 . S
C1478 H1464 0.961 . S
C1478 C1477 1.502 . S
C1479 H1465 0.960 . S
C1479 H1466 0.961 . S
C1479 H1467 0.959 . S
C1479 C1477 1.561 . S
C1480 C1477 1.526 . S
C1480 C1481 1.396 . S
C1480 C1485 1.390 . S
C1481 C1475 1.465 . S
C1481 C1480 1.396 . S
C1481 C1482 1.399 . S
C1482 H1468 0.929 . S
C1482 C1481 1.399 . S
C1482 C1483 1.385 . S
C1483 H1469 0.931 . S
C1483 C1482 1.385 . S
C1483 C1484 1.389 . S
C1484 C1483 1.389 . S
C1484 C1485 1.387 . S
C1485 H1470 0.930 . S
C1485 C1480 1.390 . S
C1485 C1484 1.387 . S
H1486 C1498 0.930 . S
H1487 C1500 0.930 . S
H1488 C1501 0.930 . S
H1489 C1505 0.959 . S
H1490 C1505 0.959 . S
H1491 C1505 0.961 . S
H1492 C1506 0.960 . S
H1493 C1506 0.961 . S
H1494 C1506 0.959 . S
H1495 C1509 0.929 . S
H1496 C1510 0.931 . S
H1497 C1512 0.930 . S
C1498 H1486 0.930 . S
C1498 C1499 1.399 . S
C1498 C1503 1.399 . S
C1499 C1498 1.399 . S
C1499 C1500 1.376 . S
C1500 H1487 0.930 . S
C1500 C1499 1.376 . S
C1500 C1501 1.388 . S
C1501 H1488 0.930 . S
C1501 C1500 1.388 . S
C1501 C1502 1.390 . S
C1502 C1501 1.390 . S
C1502 C1503 1.394 . S
C1502 C1508 1.465 . S
C1503 C1498 1.399 . S
C1503 C1502 1.394 . S
C1503 C1504 1.516 . S
C1504 C1503 1.516 . S
C1504 C1505 1.502 . S
C1504 C1506 1.561 . S
C1504 C1507 1.526 . S
C1505 H1489 0.959 . S
C1505 H1490 0.959 . S
C1505 H1491 0.961 . S
C1505 C1504 1.502 . S
C1506 H1492 0.960 . S
C1506 H1493 0.961 . S
C1506 H1494 0.959 . S
C1506 C1504 1.561 . S
C1507 C1504 1.526 . S
C1507 C1508 1.396 . S
C1507 C1512 1.390 . S
C1508 C1502 1.465 . S
C1508 C1507 1.396 . S
C1508 C1509 1.399 . S
C1509 H1495 0.929 . S
C1509 C1508 1.399 . S
C1509 C1510 1.385 . S
C1510 H1496 0.931 . S
C1510 C1509 1.385 . S
C1510 C1511 1.389 . S
C1511 C1510 1.389 . S
C1511 C1512 1.387 . S
C1512 H1497 0.930 . S
C1512 C1507 1.390 . S
C1512 C1511 1.387 . S
H1513 C1525 0.930 1_556 S
H1514 C1527 0.930 . S
H1515 C1528 0.930 . S
H1516 C1532 0.959 . S
H1517 C1532 0.959 . S
H1518 C1532 0.961 . S
H1519 C1533 0.960 . S
H1520 C1533 0.961 . S
H1521 C1533 0.959 . S
H1522 C1536 0.929 . S
H1523 C1537 0.931 . S
H1524 C1539 0.930 . S
C1525 H1513 0.930 1_554 S
C1525 C1526 1.399 . S
C1525 C1530 1.399 . S
C1526 C1525 1.399 . S
C1526 C1527 1.376 . S
C1527 H1514 0.930 . S
C1527 C1526 1.376 . S
C1527 C1528 1.388 . S
C1528 H1515 0.930 . S
C1528 C1527 1.388 . S
C1528 C1529 1.390 . S
C1529 C1528 1.390 . S
C1529 C1530 1.394 . S
C1529 C1535 1.465 . S
C1530 C1525 1.399 . S
C1530 C1529 1.394 . S
C1530 C1531 1.516 . S
C1531 C1530 1.516 . S
C1531 C1532 1.502 . S
C1531 C1533 1.561 . S
C1531 C1534 1.526 . S
C1532 H1516 0.959 . S
C1532 H1517 0.959 . S
C1532 H1518 0.961 . S
C1532 C1531 1.502 . S
C1533 H1519 0.960 . S
C1533 H1520 0.961 . S
C1533 H1521 0.959 . S
C1533 C1531 1.561 . S
C1534 C1531 1.526 . S
C1534 C1535 1.396 . S
C1534 C1539 1.390 . S
C1535 C1529 1.465 . S
C1535 C1534 1.396 . S
C1535 C1536 1.399 . S
C1536 H1522 0.929 . S
C1536 C1535 1.399 . S
C1536 C1537 1.385 . S
C1537 H1523 0.931 . S
C1537 C1536 1.385 . S
C1537 C1538 1.389 . S
C1538 C1537 1.389 . S
C1538 C1539 1.387 . S
C1539 H1524 0.930 . S
C1539 C1534 1.390 . S
C1539 C1538 1.387 . S
H1540 C1552 0.930 . S
H1541 C1554 0.930 . S
H1542 C1555 0.930 . S
H1543 C1559 0.959 . S
H1544 C1559 0.959 . S
H1545 C1559 0.961 . S
H1546 C1560 0.960 . S
H1547 C1560 0.961 . S
H1548 C1560 0.959 . S
H1549 C1563 0.929 . S
H1550 C1564 0.931 . S
H1551 C1566 0.930 . S
C1552 H1540 0.930 . S
C1552 C1553 1.399 . S
C1552 C1557 1.399 . S
C1553 C1552 1.399 . S
C1553 C1554 1.376 . S
C1554 H1541 0.930 . S
C1554 C1553 1.376 . S
C1554 C1555 1.388 . S
C1555 H1542 0.930 . S
C1555 C1554 1.388 . S
C1555 C1556 1.390 . S
C1556 C1555 1.390 . S
C1556 C1557 1.394 . S
C1556 C1562 1.465 . S
C1557 C1552 1.399 . S
C1557 C1556 1.394 . S
C1557 C1558 1.516 . S
C1558 C1557 1.516 . S
C1558 C1559 1.502 . S
C1558 C1560 1.561 . S
C1558 C1561 1.526 . S
C1559 H1543 0.959 . S
C1559 H1544 0.959 . S
C1559 H1545 0.961 . S
C1559 C1558 1.502 . S
C1560 H1546 0.960 . S
C1560 H1547 0.961 . S
C1560 H1548 0.959 . S
C1560 C1558 1.561 . S
C1561 C1558 1.526 . S
C1561 C1562 1.396 . S
C1561 C1566 1.390 . S
C1562 C1556 1.465 . S
C1562 C1561 1.396 . S
C1562 C1563 1.399 . S
C1563 H1549 0.929 . S
C1563 C1562 1.399 . S
C1563 C1564 1.385 . S
C1564 H1550 0.931 . S
C1564 C1563 1.385 . S
C1564 C1565 1.389 . S
C1565 C1564 1.389 . S
C1565 C1566 1.387 . S
C1566 H1551 0.930 . S
C1566 C1561 1.390 . S
C1566 C1565 1.387 . S
H1567 C1579 0.930 . S
H1568 C1581 0.930 . S
H1569 C1582 0.930 . S
H1570 C1586 0.959 . S
H1571 C1586 0.959 . S
H1572 C1586 0.961 . S
H1573 C1587 0.960 . S
H1574 C1587 0.961 . S
H1575 C1587 0.959 . S
H1576 C1590 0.929 . S
H1577 C1591 0.931 . S
H1578 C1593 0.930 . S
C1579 H1567 0.930 . S
C1579 C1580 1.399 . S
C1579 C1584 1.399 . S
C1580 C1579 1.399 . S
C1580 C1581 1.376 . S
C1581 H1568 0.930 . S
C1581 C1580 1.376 . S
C1581 C1582 1.388 . S
C1582 H1569 0.930 . S
C1582 C1581 1.388 . S
C1582 C1583 1.390 . S
C1583 C1582 1.390 . S
C1583 C1584 1.394 . S
C1583 C1589 1.465 . S
C1584 C1579 1.399 . S
C1584 C1583 1.394 . S
C1584 C1585 1.516 . S
C1585 C1584 1.516 . S
C1585 C1586 1.502 . S
C1585 C1587 1.561 . S
C1585 C1588 1.526 . S
C1586 H1570 0.959 . S
C1586 H1571 0.959 . S
C1586 H1572 0.961 . S
C1586 C1585 1.502 . S
C1587 H1573 0.960 . S
C1587 H1574 0.961 . S
C1587 H1575 0.959 . S
C1587 C1585 1.561 . S
C1588 C1585 1.526 . S
C1588 C1589 1.396 . S
C1588 C1593 1.390 . S
C1589 C1583 1.465 . S
C1589 C1588 1.396 . S
C1589 C1590 1.399 . S
C1590 H1576 0.929 . S
C1590 C1589 1.399 . S
C1590 C1591 1.385 . S
C1591 H1577 0.931 . S
C1591 C1590 1.385 . S
C1591 C1592 1.389 . S
C1592 C1591 1.389 . S
C1592 C1593 1.387 . S
C1593 H1578 0.930 . S
C1593 C1588 1.390 . S
C1593 C1592 1.387 . S
H1594 C1606 0.930 . S
H1595 C1608 0.930 . S
H1596 C1609 0.930 . S
H1597 C1613 0.959 . S
H1598 C1613 0.959 . S
H1599 C1613 0.961 . S
H1600 C1614 0.960 . S
H1601 C1614 0.961 . S
H1602 C1614 0.959 . S
H1603 C1617 0.929 . S
H1604 C1618 0.931 . S
H1605 C1620 0.930 . S
C1606 H1594 0.930 . S
C1606 C1607 1.399 . S
C1606 C1611 1.399 . S
C1607 C1606 1.399 . S
C1607 C1608 1.376 . S
C1608 H1595 0.930 . S
C1608 C1607 1.376 . S
C1608 C1609 1.388 . S
C1609 H1596 0.930 . S
C1609 C1608 1.388 . S
C1609 C1610 1.390 . S
C1610 C1609 1.390 . S
C1610 C1611 1.394 . S
C1610 C1616 1.465 . S
C1611 C1606 1.399 . S
C1611 C1610 1.394 . S
C1611 C1612 1.516 . S
C1612 C1611 1.516 . S
C1612 C1613 1.502 . S
C1612 C1614 1.561 . S
C1612 C1615 1.526 . S
C1613 H1597 0.959 . S
C1613 H1598 0.959 . S
C1613 H1599 0.961 . S
C1613 C1612 1.502 . S
C1614 H1600 0.960 . S
C1614 H1601 0.961 . S
C1614 H1602 0.959 . S
C1614 C1612 1.561 . S
C1615 C1612 1.526 . S
C1615 C1616 1.396 . S
C1615 C1620 1.390 . S
C1616 C1610 1.465 . S
C1616 C1615 1.396 . S
C1616 C1617 1.399 . S
C1617 H1603 0.929 . S
C1617 C1616 1.399 . S
C1617 C1618 1.385 . S
C1618 H1604 0.931 . S
C1618 C1617 1.385 . S
C1618 C1619 1.389 . S
C1619 C1618 1.389 . S
C1619 C1620 1.387 . S
C1620 H1605 0.930 . S
C1620 C1615 1.390 . S
C1620 C1619 1.387 . S
H1621 C1633 0.930 . S
H1622 C1635 0.930 . S
H1623 C1636 0.930 . S
H1624 C1640 0.959 . S
H1625 C1640 0.959 . S
H1626 C1640 0.961 . S
H1627 C1641 0.960 . S
H1628 C1641 0.961 . S
H1629 C1641 0.959 . S
H1630 C1644 0.929 . S
H1631 C1645 0.931 . S
H1632 C1647 0.930 . S
C1633 H1621 0.930 . S
C1633 C1634 1.399 . S
C1633 C1638 1.399 . S
C1634 C1633 1.399 . S
C1634 C1635 1.376 . S
C1635 H1622 0.930 . S
C1635 C1634 1.376 . S
C1635 C1636 1.388 . S
C1636 H1623 0.930 . S
C1636 C1635 1.388 . S
C1636 C1637 1.390 . S
C1637 C1636 1.390 . S
C1637 C1638 1.394 . S
C1637 C1643 1.465 . S
C1638 C1633 1.399 . S
C1638 C1637 1.394 . S
C1638 C1639 1.516 . S
C1639 C1638 1.516 . S
C1639 C1640 1.502 . S
C1639 C1641 1.561 . S
C1639 C1642 1.526 . S
C1640 H1624 0.959 . S
C1640 H1625 0.959 . S
C1640 H1626 0.961 . S
C1640 C1639 1.502 . S
C1641 H1627 0.960 . S
C1641 H1628 0.961 . S
C1641 H1629 0.959 . S
C1641 C1639 1.561 . S
C1642 C1639 1.526 . S
C1642 C1643 1.396 . S
C1642 C1647 1.390 . S
C1643 C1637 1.465 . S
C1643 C1642 1.396 . S
C1643 C1644 1.399 . S
C1644 H1630 0.929 . S
C1644 C1643 1.399 . S
C1644 C1645 1.385 . S
C1645 H1631 0.931 . S
C1645 C1644 1.385 . S
C1645 C1646 1.389 . S
C1646 C1645 1.389 . S
C1646 C1647 1.387 . S
C1647 H1632 0.930 . S
C1647 C1642 1.390 . S
C1647 C1646 1.387 . S
H1648 C1660 0.930 . S
H1649 C1662 0.930 . S
H1650 C1663 0.930 . S
H1651 C1667 0.959 . S
H1652 C1667 0.959 . S
H1653 C1667 0.961 . S
H1654 C1668 0.960 . S
H1655 C1668 0.961 . S
H1656 C1668 0.959 . S
H1657 C1671 0.929 . S
H1658 C1672 0.931 . S
H1659 C1674 0.930 . S
C1660 H1648 0.930 . S
C1660 C1661 1.399 1_554 S
C1660 C1665 1.399 1_554 S
C1661 C1660 1.399 1_556 S
C1661 C1662 1.376 . S
C1662 H1649 0.930 . S
C1662 C1661 1.376 . S
C1662 C1663 1.388 . S
C1663 H1650 0.930 . S
C1663 C1662 1.388 . S
C1663 C1664 1.390 . S
C1664 C1663 1.390 . S
C1664 C1665 1.394 . S
C1664 C1670 1.465 . S
C1665 C1660 1.399 1_556 S
C1665 C1664 1.394 . S
C1665 C1666 1.516 1_556 S
C1666 C1665 1.516 1_554 S
C1666 C1667 1.502 . S
C1666 C1668 1.561 . S
C1666 C1669 1.543 . S
C1667 H1651 0.959 . S
C1667 H1652 0.959 . S
C1667 H1653 0.961 . S
C1667 C1666 1.502 . S
C1668 H1654 0.960 . S
C1668 H1655 0.961 . S
C1668 H1656 0.959 . S
C1668 C1666 1.561 . S
C1669 C1666 1.543 . S
C1669 C1670 1.376 1_554 S
C1669 C1674 1.391 . S
C1670 C1664 1.465 . S
C1670 C1669 1.376 1_556 S
C1670 C1671 1.399 . S
C1671 H1657 0.929 . S
C1671 C1670 1.399 . S
C1671 C1672 1.385 . S
C1672 H1658 0.931 . S
C1672 C1671 1.385 . S
C1672 C1673 1.389 . S
C1673 C1672 1.389 . S
C1673 C1674 1.387 1_556 S
C1674 H1659 0.930 . S
C1674 C1669 1.391 . S
C1674 C1673 1.387 1_554 S
H1675 C1687 0.930 . S
H1676 C1689 0.930 . S
H1677 C1690 0.930 . S
H1678 C1694 0.959 . S
H1679 C1694 0.959 . S
H1680 C1694 0.961 . S
H1681 C1695 0.960 . S
H1682 C1695 0.961 . S
H1683 C1695 0.959 . S
H1684 C1698 0.929 . S
H1685 C1699 0.931 . S
H1686 C1701 0.930 . S
C1687 H1675 0.930 . S
C1687 C1688 1.399 . S
C1687 C1692 1.399 . S
C1688 C1687 1.399 . S
C1688 C1689 1.376 . S
C1689 H1676 0.930 . S
C1689 C1688 1.376 . S
C1689 C1690 1.388 . S
C1690 H1677 0.930 . S
C1690 C1689 1.388 . S
C1690 C1691 1.390 . S
C1691 C1690 1.390 . S
C1691 C1692 1.394 . S
C1691 C1697 1.465 . S
C1692 C1687 1.399 . S
C1692 C1691 1.394 . S
C1692 C1693 1.516 . S
C1693 C1692 1.516 . S
C1693 C1694 1.502 . S
C1693 C1695 1.561 . S
C1693 C1696 1.526 . S
C1694 H1678 0.959 . S
C1694 H1679 0.959 . S
C1694 H1680 0.961 . S
C1694 C1693 1.502 . S
C1695 H1681 0.960 . S
C1695 H1682 0.961 . S
C1695 H1683 0.959 . S
C1695 C1693 1.561 . S
C1696 C1693 1.526 . S
C1696 C1697 1.396 . S
C1696 C1701 1.390 . S
C1697 C1691 1.465 . S
C1697 C1696 1.396 . S
C1697 C1698 1.399 . S
C1698 H1684 0.929 . S
C1698 C1697 1.399 . S
C1698 C1699 1.385 . S
C1699 H1685 0.931 . S
C1699 C1698 1.385 . S
C1699 C1700 1.389 . S
C1700 C1699 1.389 . S
C1700 C1701 1.387 . S
C1701 H1686 0.930 . S
C1701 C1696 1.390 . S
C1701 C1700 1.387 . S
H1702 C1714 0.930 1_556 S
H1703 C1716 0.930 . S
H1704 C1717 0.930 . S
H1705 C1721 0.959 . S
H1706 C1721 0.959 . S
H1707 C1721 0.961 . S
H1708 C1722 0.960 . S
H1709 C1722 0.961 . S
H1710 C1722 0.959 . S
H1711 C1725 0.929 . S
H1712 C1726 0.931 . S
H1713 C1728 0.930 . S
C1714 H1702 0.930 1_554 S
C1714 C1715 1.399 . S
C1714 C1719 1.399 . S
C1715 C1714 1.399 . S
C1715 C1716 1.376 . S
C1716 H1703 0.930 . S
C1716 C1715 1.376 . S
C1716 C1717 1.388 . S
C1717 H1704 0.930 . S
C1717 C1716 1.388 . S
C1717 C1718 1.390 . S
C1718 C1717 1.390 . S
C1718 C1719 1.394 . S
C1718 C1724 1.465 . S
C1719 C1714 1.399 . S
C1719 C1718 1.394 . S
C1719 C1720 1.516 1_554 S
C1720 C1719 1.516 1_556 S
C1720 C1721 1.502 . S
C1720 C1722 1.561 . S
C1720 C1723 1.529 . S
C1721 H1705 0.959 . S
C1721 H1706 0.959 . S
C1721 H1707 0.961 . S
C1721 C1720 1.502 . S
C1722 H1708 0.960 . S
C1722 H1709 0.961 . S
C1722 H1710 0.959 . S
C1722 C1720 1.561 . S
C1723 C1720 1.529 . S
C1723 C1724 1.388 1_556 S
C1723 C1728 1.393 . S
C1724 C1718 1.465 . S
C1724 C1723 1.388 1_554 S
C1724 C1725 1.399 . S
C1725 H1711 0.929 . S
C1725 C1724 1.399 . S
C1725 C1726 1.385 . S
C1726 H1712 0.931 . S
C1726 C1725 1.385 . S
C1726 C1727 1.389 . S
C1727 C1726 1.389 . S
C1727 C1728 1.387 1_554 S
C1728 H1713 0.930 . S
C1728 C1723 1.393 . S
C1728 C1727 1.387 1_556 S
H1729 C1741 0.930 . S
H1730 C1743 0.930 . S
H1731 C1744 0.929 . S
H1732 C1748 0.959 . S
H1733 C1748 0.965 . S
H1734 C1748 0.961 . S
H1735 C1749 0.957 . S
H1736 C1749 0.961 1_556 S
H1737 C1749 0.959 . S
H1738 C1752 0.929 . S
H1739 C1753 0.931 . S
H1740 C1755 0.930 . S
C1741 H1729 0.930 . S
C1741 C1742 1.399 1_565 S
C1741 C1746 1.399 . S
C1742 C1741 1.399 1_545 S
C1742 C1743 1.376 . S
C1743 H1730 0.930 . S
C1743 C1742 1.376 . S
C1743 C1744 1.388 1_545 S
C1744 H1731 0.929 . S
C1744 C1743 1.388 1_565 S
C1744 C1745 1.390 . S
C1745 C1744 1.390 . S
C1745 C1746 1.394 . S
C1745 C1751 1.465 . S
C1746 C1741 1.399 . S
C1746 C1745 1.394 . S
C1746 C1747 1.516 . S
C1747 C1746 1.516 . S
C1747 C1748 1.502 . S
C1747 C1749 1.561 . S
C1747 C1750 1.526 . S
C1748 H1732 0.959 . S
C1748 H1733 0.965 . S
C1748 H1734 0.961 . S
C1748 C1747 1.502 . S
C1749 H1735 0.957 . S
C1749 H1736 0.961 1_554 S
C1749 H1737 0.959 . S
C1749 C1747 1.561 . S
C1750 C1747 1.526 . S
C1750 C1751 1.396 . S
C1750 C1755 1.390 . S
C1751 C1745 1.465 . S
C1751 C1750 1.396 . S
C1751 C1752 1.399 . S
C1752 H1738 0.929 . S
C1752 C1751 1.399 . S
C1752 C1753 1.385 . S
C1753 H1739 0.931 . S
C1753 C1752 1.385 . S
C1753 C1754 1.389 . S
C1754 C1753 1.389 . S
C1754 C1755 1.387 . S
C1755 H1740 0.930 . S
C1755 C1750 1.390 . S
C1755 C1754 1.387 . S
C485 C314 1.834 1_556 S
C473 C101 1.827 . S
C512 C327 1.194 . S
C500 C125 1.135 . S
C527 C139 1.955 . S
C539 C340 1.942 . S
C566 C353 1.761 . S
C554 C82 1.803 . S
C593 C361 1.542 . S
C581 C196 1.544 . S
C620 C374 1.761 . S
C608 C234 1.755 . S
C635 C220 0.949 . S
C647 C387 0.846 . S
C674 C400 1.666 1_565 S
C662 C173 1.663 . S
C689 C211 1.036 . S
C701 C418 1.099 . S
C728 C429 1.098 . S
C716 C182 1.102 . S
C743 C201 1.172 . S
C755 C413 1.378 . S
C782 C421 1.332 . S
C770 C239 1.304 . S
C797 C135 1.630 . S
C809 C444 1.642 . S
C824 C87 1.754 . S
C836 C434 1.907 . S
C851 C106 1.165 . S
C863 C439 1.306 . S
C878 C116 1.285 . S
C890 C442 1.252 . S
C905 C59 1.834 . S
C917 C351 1.817 . S
C932 C268 2.123 . S
C944 C343 2.133 . S
C971 C312 1.293 . S
C959 C291 1.294 . S
C998 C317 1.394 . S
C986 C163 1.322 . S
C1013 C78 2.059 1_545 S
C1025 C364 2.009 . S
C1052 C403 1.223 . S
C1040 C215 1.219 . S
C1079 C356 1.611 . S
C1067 C177 1.612 1_545 S
C1106 C382 1.754 . S
C1094 C230 1.757 . S
C1133 C392 1.799 . S
C1121 C272 1.837 . S
C1148 C296 1.073 . S
C1160 C405 1.186 . S
C1175 C158 1.954 . S
C1187 C366 1.932 . S
C1214 C379 1.758 . S
C1202 C253 1.803 . S
C1229 C63 1.548 . S
C1241 C335 1.496 . S
C1268 C348 1.763 . S
C1256 C6 1.754 . S
C1295 C309 0.961 . S
C1283 C30 0.808 . S
C1322 C322 1.649 . S
C1310 C40 1.675 . S
C1337 C21 1.113 . S
C1349 C431 0.995 . S
C1364 C49 1.090 . S
C1376 C416 1.088 . S
C1391 C68 1.201 . S
C1403 C426 1.361 . S
C1418 C11 1.212 1_556 S
C1430 C408 1.332 . S
C1457 C457 1.635 . S
C1445 C154 1.631 . S
C1484 C447 1.893 . S
C1472 C258 1.714 . S
C1511 C452 1.347 . S
C1499 C277 1.155 . S
C1526 C287 1.242 1_554 S
C1538 C455 1.265 . S
C1553 C192 1.841 . S
C1565 C377 1.829 . S
C1592 C369 2.128 . S
C1580 C97 2.136 . S
C1619 C390 1.275 . S
C1607 C120 1.276 . S
C1646 C395 1.458 . S
C1634 C144 1.364 . S
C1661 C249 2.057 . S
C1673 C338 2.056 . S
C1700 C325 1.157 . S
C1688 C25 1.201 . S
C1715 C44 1.615 . S
C1727 C330 1.613 1_554 S
C1754 C304 1.752 . S
C1742 C2 1.753 . S
