# Generated by pormake.
# Topology nom, (4,4)-cn, num edge types: 1
# Building blocks:
#     Node 0, Type 0, BuildingBlock: AZAVOO_clean_linker_0, # of connection points: 4
#     Node 1, Type 0, BuildingBlock: AZAVOO_clean_linker_0, # of connection points: 4
#     Node 2, Type 0, BuildingBlock: AZAVOO_clean_linker_0, # of connection points: 4
#     Node 3, Type 0, BuildingBlock: AZAVOO_clean_linker_0, # of connection points: 4
#     Node 4, Type 0, BuildingBlock: AZAVOO_clean_linker_0, # of connection points: 4
#     Node 5, Type 0, BuildingBlock: AZAVOO_clean_linker_0, # of connection points: 4
#     Node 6, Type 1, BuildingBlock: QUQFOY_clean_sbu_3, # of connection points: 4
#     Node 7, Type 1, BuildingBlock: QUQFOY_clean_sbu_3, # of connection points: 4
#     Node 8, Type 1, BuildingBlock: QUQFOY_clean_sbu_3, # of connection points: 4
#     Node 9, Type 1, BuildingBlock: QUQFOY_clean_sbu_3, # of connection points: 4
#     Node 10, Type 1, BuildingBlock: QUQFOY_clean_sbu_3, # of connection points: 4
#     Node 11, Type 1, BuildingBlock: QUQFOY_clean_sbu_3, # of connection points: 4
#     Edge 12, Type (0, 1), BuildingBlock: CIFDUS_clean_linker_0, # of connection points: 2
#     Edge 13, Type (0, 1), BuildingBlock: CIFDUS_clean_linker_0, # of connection points: 2
#     Edge 14, Type (0, 1), BuildingBlock: CIFDUS_clean_linker_0, # of connection points: 2
#     Edge 15, Type (0, 1), BuildingBlock: CIFDUS_clean_linker_0, # of connection points: 2
#     Edge 16, Type (0, 1), BuildingBlock: CIFDUS_clean_linker_0, # of connection points: 2
#     Edge 17, Type (0, 1), BuildingBlock: CIFDUS_clean_linker_0, # of connection points: 2
#     Edge 18, Type (0, 1), BuildingBlock: CIFDUS_clean_linker_0, # of connection points: 2
#     Edge 19, Type (0, 1), BuildingBlock: CIFDUS_clean_linker_0, # of connection points: 2
#     Edge 20, Type (0, 1), BuildingBlock: CIFDUS_clean_linker_0, # of connection points: 2
#     Edge 21, Type (0, 1), BuildingBlock: CIFDUS_clean_linker_0, # of connection points: 2
#     Edge 22, Type (0, 1), BuildingBlock: CIFDUS_clean_linker_0, # of connection points: 2
#     Edge 23, Type (0, 1), BuildingBlock: CIFDUS_clean_linker_0, # of connection points: 2
#     Edge 24, Type (0, 1), BuildingBlock: CIFDUS_clean_linker_0, # of connection points: 2
#     Edge 25, Type (0, 1), BuildingBlock: CIFDUS_clean_linker_0, # of connection points: 2
#     Edge 26, Type (0, 1), BuildingBlock: CIFDUS_clean_linker_0, # of connection points: 2
#     Edge 27, Type (0, 1), BuildingBlock: CIFDUS_clean_linker_0, # of connection points: 2
#     Edge 28, Type (0, 1), BuildingBlock: CIFDUS_clean_linker_0, # of connection points: 2
#     Edge 29, Type (0, 1), BuildingBlock: CIFDUS_clean_linker_0, # of connection points: 2
#     Edge 30, Type (0, 1), BuildingBlock: CIFDUS_clean_linker_0, # of connection points: 2
#     Edge 31, Type (0, 1), BuildingBlock: CIFDUS_clean_linker_0, # of connection points: 2
#     Edge 32, Type (0, 1), BuildingBlock: CIFDUS_clean_linker_0, # of connection points: 2
#     Edge 33, Type (0, 1), BuildingBlock: CIFDUS_clean_linker_0, # of connection points: 2
#     Edge 34, Type (0, 1), BuildingBlock: CIFDUS_clean_linker_0, # of connection points: 2
#     Edge 35, Type (0, 1), BuildingBlock: CIFDUS_clean_linker_0, # of connection points: 2
# Relax obj value: 0.148
# Max RMSD: 0.230
# Mean RMSD: 0.148
data_MOF--net-nom--node1-QUQFOY_clean_sbu_3--node2-AZAVOO_clean_linker_0--edge1-CIFDUS_clean_linker_0
_symmetry_space_group_name_H-M    P1
_symmetry_Int_Tables_number       1
_symmetry_cell_setting            triclinic
loop_
_symmetry_equiv_pos_as_xyz
'x, y, z'
_cell_length_a     42.969769
_cell_length_b     45.641302
_cell_length_c     54.408275
_cell_angle_alpha  89.435987
_cell_angle_beta   90.065994
_cell_angle_gamma 121.39481
loop_
_atom_site_label
_atom_site_type_symbol
_atom_site_fract_x
_atom_site_fract_y
_atom_site_fract_z
_atom_type_partial_charge
H0 H 0.08902 0.43887 0.14653 0.0
H1 H 0.23568 0.65171 0.38624 0.0
H2 H 0.98976 0.41513 0.26427 0.0
H3 H 0.94903 0.38862 0.22902 0.0
H4 H 0.94304 0.47952 0.21947 0.0
H5 H 0.98324 0.50568 0.25482 0.0
H6 H 0.08145 0.45416 0.25265 0.0
H7 H 0.08861 0.44161 0.21008 0.0
H8 H 0.05013 0.5072 0.18447 0.0
H9 H 0.04388 0.52007 0.22702 0.0
H10 H 0.15091 0.51527 0.29236 0.0
H11 H 0.21272 0.56158 0.28089 0.0
H12 H 0.16672 0.60899 0.23687 0.0
H13 H 0.10586 0.56449 0.24967 0.0
H14 H 0.11245 0.49783 0.3426 0.0
H15 H 0.16196 0.53274 0.37119 0.0
H16 H 0.17318 0.62472 0.33881 0.0
H17 H 0.12348 0.58944 0.31044 0.0
H18 H 0.03673 0.46674 0.35785 0.0
H19 H 0.05278 0.48694 0.40014 0.0
H20 H 0.06745 0.58457 0.37831 0.0
H21 H 0.05145 0.5642 0.33601 0.0
H22 H 0.96164 0.43189 0.32601 0.0
H23 H 0.90626 0.4256 0.34463 0.0
H24 H 0.93778 0.5269 0.31782 0.0
H25 H 0.99289 0.53302 0.29977 0.0
O26 O 0.08626 0.44436 0.1632 0.0
O27 O 0.06553 0.47776 0.15104 0.0
O28 O 0.21071 0.58935 0.39012 0.0
O29 O 0.21659 0.63734 0.37479 0.0
C30 C 0.02104 0.4815 0.27845 0.0
C31 C 0.05655 0.49436 0.26883 0.0
C32 C 0.08738 0.51481 0.28359 0.0
C33 C 0.08256 0.51974 0.30854 0.0
C34 C 0.04714 0.50684 0.31807 0.0
C35 C 0.01651 0.48904 0.30278 0.0
C36 C 0.98922 0.46221 0.26213 0.0
C37 C 0.9784 0.42869 0.25518 0.0
C38 C 0.95534 0.41367 0.23507 0.0
C39 C 0.94332 0.43226 0.22157 0.0
C40 C 0.9521 0.46482 0.22965 0.0
C41 C 0.97469 0.47959 0.24994 0.0
C42 C 0.06165 0.4876 0.24292 0.0
C43 C 0.0747 0.46585 0.2378 0.0
C44 C 0.07868 0.45869 0.21348 0.0
C45 C 0.06974 0.47325 0.19387 0.0
C46 C 0.05709 0.49541 0.19912 0.0
C47 C 0.05329 0.50265 0.22342 0.0
C48 C 0.12383 0.53661 0.27201 0.0
C49 C 0.15429 0.53534 0.27985 0.0
C50 C 0.18952 0.56169 0.27322 0.0
C51 C 0.1945 0.58928 0.25844 0.0
C52 C 0.16375 0.58851 0.24877 0.0
C53 C 0.12885 0.56273 0.25574 0.0
C54 C 0.11456 0.54115 0.32444 0.0
C55 C 0.12588 0.52553 0.3416 0.0
C56 C 0.15409 0.54553 0.35792 0.0
C57 C 0.17145 0.58154 0.35734 0.0
C58 C 0.16036 0.59708 0.3398 0.0
C59 C 0.13212 0.57703 0.3235 0.0
C60 C 0.04316 0.5141 0.34396 0.0
C61 C 0.04167 0.49186 0.36246 0.0
C62 C 0.05111 0.50351 0.3865 0.0
C63 C 0.06183 0.53744 0.39228 0.0
C64 C 0.05912 0.55828 0.37431 0.0
C65 C 0.0499 0.54666 0.3502 0.0
C66 C 0.98095 0.48278 0.31145 0.0
C67 C 0.95613 0.45238 0.3239 0.0
C68 C 0.92464 0.44889 0.33448 0.0
C69 C 0.91791 0.47592 0.33288 0.0
C70 C 0.9425 0.50587 0.31973 0.0
C71 C 0.97376 0.50928 0.30919 0.0
C72 C 0.07367 0.46536 0.16806 0.0
C73 C 0.20076 0.60284 0.37508 0.0
H74 H 0.4925 0.05725 0.31168 0.0
H75 H 0.49747 0.19595 0.58856 0.0
H76 H 0.49328 0.99044 0.44892 0.0
H77 H 0.49195 0.95992 0.41188 0.0
H78 H 0.38829 0.94756 0.39225 0.0
H79 H 0.39038 0.97883 0.42905 0.0
H80 H 0.5127 0.05035 0.41738 0.0
H81 H 0.51412 0.0539 0.37247 0.0
H82 H 0.41813 0.06185 0.37367 0.0
H83 H 0.4167 0.05766 0.41863 0.0
H84 H 0.53735 0.11493 0.44169 0.0
H85 H 0.56453 0.17313 0.42499 0.0
H86 H 0.46881 0.17478 0.44701 0.0
H87 H 0.44127 0.11587 0.46288 0.0
H88 H 0.53888 0.11617 0.50426 0.0
H89 H 0.5586 0.16007 0.53594 0.0
H90 H 0.44719 0.13468 0.54482 0.0
H91 H 0.42796 0.09099 0.51306 0.0
H92 H 0.51556 0.04258 0.5223 0.0
H93 H 0.5321 0.05673 0.56515 0.0
H94 H 0.42634 0.04296 0.57981 0.0
H95 H 0.41033 0.02933 0.5364 0.0
H96 H 0.48368 0.98059 0.50195 0.0
H97 H 0.45753 0.92201 0.5182 0.0
H98 H 0.34923 0.9026 0.50467 0.0
H99 H 0.37569 0.96135 0.48902 0.0
O100 O 0.49188 0.05665 0.32946 0.0
O101 O 0.44366 0.06248 0.33107 0.0
O102 O 0.54778 0.19306 0.56923 0.0
O103 O 0.4907 0.17988 0.57522 0.0
C104 C 0.44942 0.0152 0.45832 0.0
C105 C 0.46175 0.04824 0.44827 0.0
C106 C 0.47164 0.07617 0.46393 0.0
C107 C 0.46961 0.07112 0.48961 0.0
C108 C 0.45781 0.03818 0.49961 0.0
C109 C 0.44695 0.01007 0.48399 0.0
C110 C 0.44205 0.98701 0.4415 0.0
C111 C 0.46957 0.97983 0.43715 0.0
C112 C 0.46885 0.96254 0.41589 0.0
C113 C 0.44046 0.95211 0.39885 0.0
C114 C 0.41097 0.95606 0.40476 0.0
C115 C 0.4118 0.97345 0.42592 0.0
C116 C 0.46445 0.0535 0.42118 0.0
C117 C 0.49206 0.05293 0.40789 0.0
C118 C 0.4928 0.05497 0.38225 0.0
C119 C 0.46612 0.05798 0.36947 0.0
C120 C 0.43902 0.05944 0.38294 0.0
C121 C 0.43822 0.05722 0.4086 0.0
C122 C 0.48739 0.11125 0.45348 0.0
C123 C 0.52213 0.12776 0.44267 0.0
C124 C 0.53769 0.16108 0.4333 0.0
C125 C 0.51891 0.17867 0.43478 0.0
C126 C 0.4838 0.16181 0.44534 0.0
C127 C 0.46817 0.12833 0.45461 0.0
C128 C 0.48208 0.10061 0.50636 0.0
C129 C 0.51894 0.1206 0.51278 0.0
C130 C 0.53005 0.14547 0.53098 0.0
C131 C 0.50441 0.15073 0.54304 0.0
C132 C 0.46762 0.13124 0.53597 0.0
C133 C 0.45658 0.10642 0.51775 0.0
C134 C 0.46181 0.03493 0.52633 0.0
C135 C 0.49537 0.04111 0.53499 0.0
C136 C 0.50478 0.0493 0.55955 0.0
C137 C 0.48071 0.05144 0.57589 0.0
C138 C 0.44568 0.04205 0.56759 0.0
C139 C 0.43628 0.03382 0.54292 0.0
C140 C 0.43152 0.9751 0.49442 0.0
C141 C 0.45433 0.96371 0.50277 0.0
C142 C 0.43934 0.93024 0.5119 0.0
C143 C 0.40126 0.90764 0.51278 0.0
C144 C 0.37859 0.91947 0.50464 0.0
C145 C 0.39362 0.9529 0.49552 0.0
C146 C 0.46645 0.05924 0.34219 0.0
C147 C 0.51576 0.17592 0.56321 0.0
H148 H 0.62314 0.58497 0.806 0.0
H149 H 0.59366 0.40568 0.55746 0.0
H150 H 0.58233 0.62529 0.67723 0.0
H151 H 0.57293 0.65291 0.71254 0.0
H152 H 0.46452 0.56478 0.72224 0.0
H153 H 0.47371 0.53749 0.68662 0.0
H154 H 0.62103 0.5847 0.69846 0.0
H155 H 0.633 0.59137 0.7427 0.0
H156 H 0.51933 0.51665 0.75715 0.0
H157 H 0.50782 0.51024 0.71289 0.0
H158 H 0.63387 0.53062 0.6611 0.0
H159 H 0.6495 0.48997 0.67843 0.0
H160 H 0.53962 0.42748 0.70665 0.0
H161 H 0.52438 0.46784 0.68929 0.0
H162 H 0.62263 0.55088 0.60723 0.0
H163 H 0.64168 0.5215 0.57915 0.0
H164 H 0.54908 0.42383 0.60225 0.0
H165 H 0.53028 0.4536 0.63019 0.0
H166 H 0.58339 0.58709 0.59146 0.0
H167 H 0.59228 0.57746 0.54853 0.0
H168 H 0.50377 0.47206 0.55533 0.0
H169 H 0.49499 0.48194 0.59818 0.0
H170 H 0.5376 0.61616 0.62746 0.0
H171 H 0.49174 0.62527 0.60742 0.0
H172 H 0.41599 0.5156 0.60749 0.0
H173 H 0.4615 0.50687 0.62722 0.0
O174 O 0.61786 0.5819 0.78862 0.0
O175 O 0.56 0.54089 0.79498 0.0
O176 O 0.63439 0.46877 0.55765 0.0
O177 O 0.58727 0.41787 0.56889 0.0
C178 C 0.53869 0.55898 0.66435 0.0
C179 C 0.55644 0.54362 0.67573 0.0
C180 C 0.56672 0.5242 0.6617 0.0
C181 C 0.56205 0.52257 0.63603 0.0
C182 C 0.54348 0.5372 0.62483 0.0
C183 C 0.53021 0.55395 0.63916 0.0
C184 C 0.52865 0.57949 0.67947 0.0
C185 C 0.55591 0.61275 0.68621 0.0
C186 C 0.5506 0.62842 0.70633 0.0
C187 C 0.51809 0.61078 0.71987 0.0
C188 C 0.48965 0.57881 0.71179 0.0
C189 C 0.49479 0.56333 0.69148 0.0
C190 C 0.56356 0.54718 0.70255 0.0
C191 C 0.5988 0.56981 0.71124 0.0
C192 C 0.60552 0.57358 0.7365 0.0
C193 C 0.5771 0.55457 0.75346 0.0
C194 C 0.54183 0.53167 0.7446 0.0
C195 C 0.53515 0.52803 0.71935 0.0
C196 C 0.57808 0.50223 0.67411 0.0
C197 C 0.61344 0.50836 0.67132 0.0
C198 C 0.62223 0.48512 0.68113 0.0
C199 C 0.59581 0.45562 0.69398 0.0
C200 C 0.56077 0.45025 0.69727 0.0
C201 C 0.55199 0.47326 0.68734 0.0
C202 C 0.57516 0.50433 0.62074 0.0
C203 C 0.60671 0.52312 0.60634 0.0
C204 C 0.61745 0.50628 0.59028 0.0
C205 C 0.59677 0.47031 0.58835 0.0
C206 C 0.56556 0.45154 0.60323 0.0
C207 C 0.55486 0.46844 0.6193 0.0
C208 C 0.53886 0.53509 0.59786 0.0
C209 C 0.56473 0.56246 0.58329 0.0
C210 C 0.56996 0.55685 0.5589 0.0
C211 C 0.54914 0.52387 0.54889 0.0
C212 C 0.5201 0.49772 0.56261 0.0
C213 C 0.51499 0.50332 0.58705 0.0
C214 C 0.5029 0.56084 0.62853 0.0
C215 C 0.51098 0.59426 0.62325 0.0
C216 C 0.48483 0.59938 0.61188 0.0
C217 C 0.45052 0.57109 0.60558 0.0
C218 C 0.44243 0.53784 0.61163 0.0
C219 C 0.46831 0.53281 0.62299 0.0
C220 C 0.58431 0.55862 0.78027 0.0
C221 C 0.60742 0.45241 0.57071 0.0
H222 H 0.00658 0.39728 0.9678 0.0
H223 H 0.25873 0.52901 0.73273 0.0
H224 H 0.97352 0.44715 0.83338 0.0
H225 H 0.9255 0.42722 0.86422 0.0
H226 H 0.91547 0.32798 0.86575 0.0
H227 H 0.96336 0.3481 0.83418 0.0
H228 H 0.0291 0.45638 0.86886 0.0
H229 H 0.01978 0.44029 0.91246 0.0
H230 H 0.03205 0.35407 0.8969 0.0
H231 H 0.04085 0.37025 0.85326 0.0
H232 H 0.1087 0.49566 0.84782 0.0
H233 H 0.16704 0.51671 0.86853 0.0
H234 H 0.16922 0.42822 0.84338 0.0
H235 H 0.11017 0.40692 0.82325 0.0
H236 H 0.11397 0.51827 0.78727 0.0
H237 H 0.17389 0.55311 0.76772 0.0
H238 H 0.1782 0.46156 0.75664 0.0
H239 H 0.1181 0.42705 0.776 0.0
H240 H 0.03653 0.49315 0.76472 0.0
H241 H 0.0568 0.52302 0.72495 0.0
H242 H 0.08267 0.44809 0.70097 0.0
H243 H 0.06176 0.4182 0.74054 0.0
H244 H 0.96028 0.4438 0.79005 0.0
H245 H 0.89994 0.4132 0.77127 0.0
H246 H 0.92443 0.34034 0.7405 0.0
H247 H 0.98348 0.36968 0.76099 0.0
O248 O 0.01113 0.40361 0.95056 0.0
O249 O 0.01942 0.36063 0.94184 0.0
O250 O 0.23123 0.56207 0.74635 0.0
O251 O 0.23503 0.51587 0.74052 0.0
C252 C 0.00653 0.41419 0.81782 0.0
C253 C 0.03819 0.42263 0.8313 0.0
C254 C 0.07239 0.4395 0.81956 0.0
C255 C 0.07534 0.44928 0.79463 0.0
C256 C 0.04371 0.44074 0.78105 0.0
C257 C 0.00916 0.4224 0.79248 0.0
C258 C 0.97133 0.39885 0.83113 0.0
C259 C 0.95965 0.42055 0.83937 0.0
C260 C 0.9324 0.40918 0.85718 0.0
C261 C 0.9168 0.37605 0.86741 0.0
C262 C 0.92714 0.35366 0.85819 0.0
C263 C 0.95413 0.36496 0.84004 0.0
C264 C 0.03549 0.41438 0.85797 0.0
C265 C 0.02991 0.43412 0.87495 0.0
C266 C 0.02456 0.42484 0.89983 0.0
C267 C 0.025 0.3958 0.90816 0.0
C268 C 0.03146 0.37654 0.89109 0.0
C269 C 0.03665 0.38578 0.8662 0.0
C270 C 0.10566 0.45006 0.83394 0.0
C271 C 0.12158 0.48064 0.84715 0.0
C272 C 0.15488 0.49262 0.85881 0.0
C273 C 0.17283 0.47427 0.85729 0.0
C274 C 0.15589 0.44275 0.84497 0.0
C275 C 0.12242 0.43071 0.83335 0.0
C276 C 0.11188 0.47024 0.78308 0.0
C277 C 0.12797 0.50586 0.78061 0.0
C278 C 0.16215 0.52565 0.76945 0.0
C279 C 0.18087 0.51011 0.76064 0.0
C280 C 0.16458 0.47435 0.76324 0.0
C281 C 0.13033 0.45459 0.77434 0.0
C282 C 0.04765 0.45353 0.75543 0.0
C283 C 0.04547 0.48262 0.75054 0.0
C284 C 0.05747 0.49986 0.72796 0.0
C285 C 0.07168 0.48812 0.70991 0.0
C286 C 0.07156 0.45763 0.71437 0.0
C287 C 0.05964 0.44049 0.73695 0.0
C288 C 0.97568 0.40827 0.77753 0.0
C289 C 0.95247 0.42115 0.77934 0.0
C290 C 0.91818 0.40387 0.76825 0.0
C291 C 0.90694 0.37382 0.75473 0.0
C292 C 0.93167 0.36274 0.75139 0.0
C293 C 0.9656 0.37967 0.76285 0.0
C294 C 0.01843 0.38554 0.9345 0.0
C295 C 0.21719 0.53102 0.74876 0.0
H296 H 0.40682 0.9943 0.81232 0.0
H297 H 0.38568 0.79321 0.04546 0.0
H298 H 0.44269 0.05959 0.93339 0.0
H299 H 0.47495 0.09832 0.89871 0.0
H300 H 0.57411 0.10325 0.92082 0.0
H301 H 0.54151 0.06351 0.95458 0.0
H302 H 0.38934 0.97857 0.91919 0.0
H303 H 0.38572 0.9816 0.8744 0.0
H304 H 0.50023 0.01616 0.86861 0.0
H305 H 0.50329 0.01246 0.91331 0.0
H306 H 0.36574 0.90506 0.95282 0.0
H307 H 0.35233 0.85073 0.93437 0.0
H308 H 0.46663 0.89706 0.9161 0.0
H309 H 0.47923 0.95048 0.9339 0.0
H310 H 0.37468 0.92885 0.01252 0.0
H311 H 0.34984 0.87452 0.0352 0.0
H312 H 0.43869 0.86459 0.0086 0.0
H313 H 0.46345 0.91913 0.98631 0.0
H314 H 0.4214 0.99669 0.0384 0.0
H315 H 0.42512 0.97918 0.08057 0.0
H316 H 0.51039 0.9616 0.05779 0.0
H317 H 0.5069 0.97972 0.01612 0.0
H318 H 0.4603 0.07514 -0.00204 0.0
H319 H 0.50384 0.13065 0.01625 0.0
H320 H 0.58351 0.09999 0.02078 0.0
H321 H 0.53968 0.04473 0.00324 0.0
O322 O 0.40875 0.99296 0.82997 0.0
O323 O 0.46792 0.01151 0.82809 0.0
O324 O 0.34984 0.82114 0.04992 0.0
O325 O 0.39478 0.81466 0.03656 0.0
C326 C 0.46827 0.02556 0.96025 0.0
C327 C 0.44882 0.99475 0.94676 0.0
C328 C 0.43373 0.96275 0.9589 0.0
C329 C 0.43621 0.96132 0.98468 0.0
C330 C 0.4562 0.99195 -0.00188 0.0
C331 C 0.4724 0.02406 0.98595 0.0
C332 C 0.48963 0.05847 0.94642 0.0
C333 C 0.47176 0.07033 0.93141 0.0
C334 C 0.49022 0.09243 0.91158 0.0
C335 C 0.5268 0.10309 0.90681 0.0
C336 C 0.54574 0.09491 0.92389 0.0
C337 C 0.52725 0.0726 0.94347 0.0
C338 C 0.44665 0.99575 0.91949 0.0
C339 C 0.41355 0.98668 0.90818 0.0
C340 C 0.4116 0.9885 0.88261 0.0
C341 C 0.44275 -0.00067 0.86793 0.0
C342 C 0.47578 0.00789 0.87936 0.0
C343 C 0.47763 0.00591 0.9049 0.0
C344 C 0.42337 0.9317 0.94444 0.0
C345 C 0.3875 0.9035 0.94415 0.0
C346 C 0.38 0.87255 0.93375 0.0
C347 C 0.40837 0.86951 0.92364 0.0
C348 C 0.44388 0.89851 0.92306 0.0
C349 C 0.45124 0.92919 0.93333 0.0
C350 C 0.42057 0.92766 -0.00242 0.0
C351 C 0.38859 0.91478 0.01153 0.0
C352 C 0.37452 0.8838 0.02449 0.0
C353 C 0.39225 0.86516 0.02367 0.0
C354 C 0.42431 0.87821 0.00958 0.0
C355 C 0.43841 0.90926 -0.00327 0.0
C356 C 0.46392 0.98949 0.02434 0.0
C357 C 0.44169 0.99019 0.04282 0.0
C358 C 0.44365 0.97988 0.06678 0.0
C359 C 0.46782 0.96868 0.07247 0.0
C360 C 0.49181 0.97045 0.05417 0.0
C361 C 0.48983 0.98074 0.03032 0.0
C362 C 0.4968 0.05591 -0.00049 0.0
C363 C 0.48693 0.0803 0.00345 0.0
C364 C 0.51189 0.11199 0.01374 0.0
C365 C 0.54721 0.11982 0.02 0.0
C366 C 0.55638 0.09467 0.01673 0.0
C367 C 0.53138 0.06303 0.00663 0.0
C368 C 0.44071 0.00167 0.8408 0.0
C369 C 0.37756 0.83235 0.03753 0.0
H370 H 0.59215 0.54254 0.98174 0.0
H371 H 0.76475 0.52902 0.22821 0.0
H372 H 0.54074 0.56423 0.11411 0.0
H373 H 0.51183 0.57651 0.08052 0.0
H374 H 0.61211 0.67367 0.0677 0.0
H375 H 0.63907 0.66261 0.10336 0.0
H376 H 0.5832 0.53138 0.08905 0.0
H377 H 0.5787 0.52596 0.04427 0.0
H378 H 0.66972 0.6303 0.0366 0.0
H379 H 0.67389 0.63528 0.08141 0.0
H380 H 0.63109 0.50812 0.13037 0.0
H381 H 0.66587 0.48498 0.11276 0.0
H382 H 0.74303 0.58523 0.08219 0.0
H383 H 0.70975 0.60859 0.10192 0.0
H384 H 0.61366 0.51497 0.18199 0.0
H385 H 0.64273 0.49215 0.20808 0.0
H386 H 0.74854 0.57917 0.18837 0.0
H387 H 0.71903 0.60203 0.1627 0.0
H388 H 0.56692 0.54498 0.19348 0.0
H389 H 0.56545 0.52744 0.23636 0.0
H390 H 0.67887 0.607 0.24383 0.0
H391 H 0.67976 0.62468 0.20124 0.0
H392 H 0.53835 0.58217 0.15477 0.0
H393 H 0.51156 0.61292 0.17206 0.0
H394 H 0.61728 0.68945 0.20035 0.0
H395 H 0.6443 0.6604 0.18027 0.0
O396 O 0.59467 0.5451 -0.0006 0.0
O397 O 0.64172 0.59877 -0.00353 0.0
O398 O 0.69747 0.49349 0.22779 0.0
O399 O 0.75255 0.53742 0.21797 0.0
C400 C 0.61155 0.60127 0.12712 0.0
C401 C 0.63022 0.58719 0.11553 0.0
C402 C 0.64815 0.5745 0.12973 0.0
C403 C 0.6464 0.57477 0.15559 0.0
C404 C 0.62746 0.5886 0.16723 0.0
C405 C 0.61056 0.60249 0.15305 0.0
C406 C 0.59173 0.6128 0.11145 0.0
C407 C 0.5557 0.589 0.10491 0.0
C408 C 0.53961 0.59573 0.08518 0.0
C409 C 0.55991 0.62564 0.07072 0.0
C410 C 0.59537 0.65047 0.07835 0.0
C411 C 0.61094 0.64423 0.09878 0.0
C412 C 0.62886 0.58368 0.08838 0.0
C413 C 0.60226 0.55292 0.07763 0.0
C414 C 0.59971 0.54995 0.05206 0.0
C415 C 0.62381 0.57772 0.03684 0.0
C416 C 0.65071 0.60843 0.04778 0.0
C417 C 0.6532 0.61134 0.07334 0.0
C418 C 0.66798 0.56003 0.1175 0.0
C419 C 0.65566 0.52506 0.11999 0.0
C420 C 0.67538 0.51182 0.10959 0.0
C421 C 0.70737 0.53316 0.09591 0.0
C422 C 0.71899 0.56809 0.09294 0.0
C423 C 0.69971 0.58145 0.10389 0.0
C424 C 0.66425 0.56026 0.17062 0.0
C425 C 0.6431 0.52911 0.18341 0.0
C426 C 0.65978 0.5161 0.19824 0.0
C427 C 0.69799 0.53388 0.20035 0.0
C428 C 0.71908 0.56487 0.1872 0.0
C429 C 0.70233 0.57794 0.17247 0.0
C430 C 0.62352 0.58591 0.19431 0.0
C431 C 0.59093 0.55953 0.20475 0.0
C432 C 0.5903 0.54925 0.22909 0.0
C433 C 0.62222 0.56541 0.24329 0.0
C434 C 0.65377 0.59412 0.23344 0.0
C435 C 0.65436 0.60435 0.20912 0.0
C436 C 0.59351 0.61965 0.1654 0.0
C437 C 0.55587 0.60609 0.16407 0.0
C438 C 0.54044 0.62343 0.17461 0.0
C439 C 0.56211 0.65412 0.18762 0.0
C440 C 0.59967 0.66662 0.18991 0.0
C441 C 0.61521 0.64979 0.17868 0.0
C442 C 0.62074 0.57463 0.0097 0.0
C443 C 0.71583 0.52027 0.21621 0.0
C444 C 0.7673 0.49941 0.40019 0.0
O445 O 0.77163 0.52537 0.41166 0.0
Cd446 Cd 0.72185 0.53102 0.42541 0.0
O447 O 0.73544 0.4736 0.39669 0.0
Cd448 Cd 0.6711 0.45294 0.40702 0.0
C449 C 0.6748 0.515 0.37069 0.0
O450 O 0.67887 0.47995 0.4468 0.0
O451 O 0.62609 0.45863 0.42968 0.0
O452 O 0.66874 0.40145 0.42073 0.0
C453 C 0.64638 0.47353 0.44796 0.0
O454 O 0.69362 0.53537 0.38786 0.0
C455 C 0.63992 0.38046 0.40935 0.0
O456 O 0.66445 0.48323 0.37181 0.0
O457 O 0.62548 0.39318 0.39595 0.0
C458 C 0.29186 0.59818 0.55731 0.0
O459 O 0.2702 0.5724 0.54445 0.0
Cd460 Cd 0.21314 0.56089 0.52856 0.0
O461 O 0.28507 0.62172 0.56167 0.0
Cd462 Cd 0.23873 0.63687 0.55015 0.0
C463 C 0.17473 0.56781 0.58269 0.0
O464 O 0.22662 0.61295 0.50953 0.0
O465 O 0.1889 0.62724 0.52191 0.0
O466 O 0.291 0.69292 0.54065 0.0
C467 C 0.19916 0.61531 0.5049 0.0
O468 O 0.17543 0.55017 0.56492 0.0
C469 C 0.28002 0.71021 0.55176 0.0
O470 O 0.19645 0.60033 0.58312 0.0
O471 O 0.24971 0.69328 0.56313 0.0
C472 C 0.69918 0.23436 0.72544 0.0
O473 O 0.6842 0.20211 0.7231 0.0
Cd474 Cd 0.61981 0.16369 0.71813 0.0
O475 O 0.68011 0.24836 0.72503 0.0
Cd476 Cd 0.61569 0.23228 0.72051 0.0
C477 C 0.58969 0.18082 0.77144 0.0
O478 O 0.60136 0.19051 0.68839 0.0
O479 O 0.55653 0.19554 0.70059 0.0
O480 O 0.63823 0.28592 0.69762 0.0
C481 C 0.56819 0.18156 0.6863 0.0
O482 O 0.59478 0.1603 0.75886 0.0
C483 C 0.62262 0.29698 0.7112 0.0
O484 O 0.59614 0.20924 0.76229 0.0
O485 O 0.60396 0.27795 0.72918 0.0
C486 C 0.38174 0.58665 0.89603 0.0
O487 O 0.39371 0.56922 0.90613 0.0
Cd488 Cd 0.45679 0.59651 0.91806 0.0
O489 O 0.40227 0.619 0.89323 0.0
Cd490 Cd 0.46259 0.66958 0.90038 0.0
C491 C 0.49473 0.63352 0.86149 0.0
O492 O 0.46683 0.64666 0.93867 0.0
O493 O 0.51425 0.69595 0.92975 0.0
O494 O 0.42717 0.69541 0.90921 0.0
C495 C 0.49822 0.67081 0.94468 0.0
O496 O 0.48737 0.61073 0.87798 0.0
C497 C 0.44569 0.72168 0.89558 0.0
O498 O 0.48805 0.65726 0.86497 0.0
O499 O 0.47274 0.72401 0.88419 0.0
C500 C 0.79513 0.42829 0.04587 0.0
O501 O 0.82634 0.4471 0.03611 0.0
Cd502 Cd 0.86375 0.42462 0.02534 0.0
O503 O 0.78272 0.39662 0.05032 0.0
Cd504 Cd 0.80082 0.35355 0.04595 0.0
C505 C 0.87288 0.39989 0.08332 0.0
O506 O 0.82381 0.37158 0.00466 0.0
O507 O 0.83574 0.33526 0.02099 0.0
O508 O 0.73667 0.31556 0.03771 0.0
C509 C 0.83572 0.35162 0.00201 0.0
O510 O 0.88766 0.42018 0.06504 0.0
C511 C 0.73244 0.29095 0.05124 0.0
O512 O 0.84059 0.37405 0.0818 0.0
O513 O 0.76029 0.2955 0.06285 0.0
C514 C 0.36807 0.77639 0.23644 0.0
O515 O 0.36549 0.80166 0.22936 0.0
Cd516 Cd 0.41401 0.85684 0.21746 0.0
O517 O 0.399 0.77878 0.23771 0.0
Cd518 Cd 0.46485 0.82319 0.2302 0.0
C519 C 0.45883 0.87352 0.27328 0.0
O520 O 0.44972 0.84237 0.19365 0.0
O521 O 0.50625 0.8734 0.20299 0.0
O522 O 0.4662 0.77205 0.21968 0.0
C523 C 0.48086 0.86752 0.18822 0.0
O524 O 0.44132 0.87961 0.25718 0.0
C525 C 0.4989 0.78376 0.2263 0.0
O526 O 0.46953 0.85271 0.26895 0.0
O527 O 0.51575 0.81364 0.23542 0.0
H528 H 0.21093 0.6544 0.26281 0.0
H529 H 0.25999 0.59467 0.24763 0.0
H530 H 0.31927 0.64768 0.24104 0.0
H531 H 0.35608 0.71127 0.23743 0.0
H532 H 0.30423 0.76917 0.25092 0.0
H533 H 0.24693 0.71647 0.26006 0.0
C534 C 0.23447 0.65288 0.25775 0.0
C535 C 0.23096 0.62071 0.25519 0.0
C536 C 0.26792 0.68315 0.25365 0.0
C537 C 0.26201 0.6192 0.24957 0.0
C538 C 0.29581 0.64947 0.24573 0.0
C539 C 0.33227 0.71226 0.24255 0.0
C540 C 0.33435 0.74407 0.24332 0.0
C541 C 0.29897 0.68163 0.24742 0.0
C542 C 0.30328 0.74502 0.24993 0.0
C543 C 0.27048 0.71491 0.25521 0.0
H544 H 0.58907 0.22941 0.44185 0.0
H545 H 0.48852 0.20964 0.40907 0.0
H546 H 0.51761 0.27011 0.39689 0.0
H547 H 0.57129 0.32917 0.39699 0.0
H548 H 0.67123 0.34791 0.4303 0.0
H549 H 0.64291 0.28711 0.44025 0.0
C550 C 0.57362 0.23814 0.43167 0.0
C551 C 0.53669 0.215 0.42637 0.0
C552 C 0.59046 0.2728 0.42475 0.0
C553 C 0.5169 0.227 0.41363 0.0
C554 C 0.53357 0.26153 0.40654 0.0
C555 C 0.58695 0.31983 0.40615 0.0
C556 C 0.62328 0.34306 0.41294 0.0
C557 C 0.57029 0.28475 0.4122 0.0
C558 C 0.64317 0.33062 0.42495 0.0
C559 C 0.627 0.29584 0.4307 0.0
H560 H 0.4286 0.61638 0.61518 0.0
H561 H 0.41086 0.53552 0.56599 0.0
H562 H 0.36117 0.53771 0.54628 0.0
H563 H 0.32069 0.56008 0.54441 0.0
H564 H 0.3376 0.64121 0.59304 0.0
H565 H 0.38993 0.64171 0.61137 0.0
C566 C 0.41416 0.59964 0.59992 0.0
C567 C 0.42305 0.5755 0.59227 0.0
C568 C 0.38536 0.60091 0.58867 0.0
C569 C 0.40406 0.55387 0.57251 0.0
C570 C 0.37571 0.55515 0.56118 0.0
C571 C 0.33582 0.57798 0.55898 0.0
C572 C 0.32497 0.60031 0.5675 0.0
C573 C 0.36571 0.5781 0.5694 0.0
C574 C 0.34528 0.62365 0.58617 0.0
C575 C 0.37518 0.62391 0.5967 0.0
H576 H 0.86448 0.3042 0.7543 0.0
H577 H 0.86306 0.39569 0.73561 0.0
H578 H 0.79873 0.36055 0.72465 0.0
H579 H 0.74243 0.30391 0.72171 0.0
H580 H 0.74522 0.21269 0.73874 0.0
H581 H 0.80992 0.24784 0.74837 0.0
C582 C 0.85049 0.31658 0.74729 0.0
C583 C 0.86875 0.35264 0.74587 0.0
C584 C 0.81371 0.29627 0.74073 0.0
C585 C 0.84965 0.36805 0.73728 0.0
C586 C 0.81288 0.34796 0.73088 0.0
C587 C 0.75723 0.29171 0.72743 0.0
C588 C 0.73891 0.25573 0.72968 0.0
C589 C 0.79453 0.31207 0.73283 0.0
C590 C 0.7586 0.24031 0.73685 0.0
C591 C 0.7956 0.26039 0.74244 0.0
H592 H 0.43931 0.85559 0.88537 0.0
H593 H 0.36522 0.80745 0.94659 0.0
H594 H 0.36671 0.75533 0.94093 0.0
H595 H 0.39629 0.72697 0.92293 0.0
H596 H 0.47557 0.77749 0.86476 0.0
H597 H 0.46547 0.82545 0.86527 0.0
C598 C 0.42328 0.83361 0.89738 0.0
C599 C 0.40265 0.8357 0.91661 0.0
C600 C 0.42585 0.80442 0.89493 0.0
C601 C 0.38117 0.80661 0.93153 0.0
C602 C 0.38241 0.77689 0.92854 0.0
C603 C 0.41106 0.74828 0.91016 0.0
C604 C 0.43702 0.74895 0.89408 0.0
C605 C 0.40581 0.77608 0.91098 0.0
C606 C 0.45577 0.77661 0.87753 0.0
C607 C 0.44996 0.80399 0.87778 0.0
H608 H 0.68201 0.46933 0.07709 0.0
H609 H 0.78174 0.5655 0.09123 0.0
H610 H 0.81722 0.54239 0.07498 0.0
H611 H 0.82035 0.494 0.05881 0.0
H612 H 0.72122 0.39609 0.04901 0.0
H613 H 0.68514 0.42056 0.0621 0.0
C614 C 0.71151 0.48521 0.07696 0.0
C615 C 0.72897 0.51922 0.0854 0.0
C616 C 0.73193 0.47136 0.0685 0.0
C617 C 0.76731 0.53949 0.08445 0.0
C618 C 0.78775 0.52619 0.07537 0.0
C619 C 0.79083 0.47814 0.05936 0.0
C620 C 0.7734 0.4434 0.05289 0.0
C621 C 0.77038 0.49209 0.06756 0.0
C622 C 0.7352 0.42292 0.054 0.0
C623 C 0.71459 0.43689 0.06144 0.0
H624 H 0.34133 0.86916 0.54191 0.0
H625 H 0.42493 0.86432 0.50151 0.0
H626 H 0.39639 0.80357 0.5119 0.0
H627 H 0.34555 0.75102 0.52978 0.0
H628 H 0.26051 0.75465 0.56915 0.0
H629 H 0.29176 0.81667 0.56182 0.0
C630 C 0.35328 0.85478 0.53539 0.0
C631 C 0.38518 0.87131 0.52086 0.0
C632 C 0.33641 0.81963 0.54115 0.0
C633 C 0.40066 0.85243 0.51292 0.0
C634 C 0.3842 0.81758 0.51871 0.0
C635 C 0.33395 0.76537 0.53698 0.0
C636 C 0.3006 0.74816 0.54985 0.0
C637 C 0.35179 0.80083 0.53245 0.0
C638 C 0.28611 0.76724 0.55915 0.0
C639 C 0.30391 0.80268 0.55488 0.0
H640 H 0.63104 0.42999 0.66908 0.0
H641 H 0.57715 0.42132 0.738 0.0
H642 H 0.58223 0.37225 0.74991 0.0
H643 H 0.59804 0.32944 0.73949 0.0
H644 H 0.65214 0.33811 0.67063 0.0
H645 H 0.6514 0.38989 0.66011 0.0
C646 C 0.62114 0.41783 0.68693 0.0
C647 C 0.60351 0.4291 0.70255 0.0
C648 C 0.62391 0.38949 0.69358 0.0
C649 C 0.59038 0.4128 0.7255 0.0
C650 C 0.59331 0.38478 0.73234 0.0
C651 C 0.6099 0.34279 0.72225 0.0
C652 C 0.62479 0.32977 0.70577 0.0
C653 C 0.60929 0.37245 0.71629 0.0
C654 C 0.64036 0.34753 0.68361 0.0
C655 C 0.63991 0.37712 0.67755 0.0
H656 H 0.22793 0.53963 0.85133 0.0
H657 H 0.20204 0.44286 0.88379 0.0
H658 H 0.26488 0.46887 0.89848 0.0
H659 H 0.32705 0.51962 0.90225 0.0
H660 H 0.35111 0.61614 0.86985 0.0
H661 H 0.28888 0.58969 0.85524 0.0
C662 C 0.23587 0.52432 0.86193 0.0
C663 C 0.21039 0.48955 0.86673 0.0
C664 C 0.27169 0.53938 0.8703 0.0
C665 C 0.2213 0.46974 0.87986 0.0
C666 C 0.25712 0.48461 0.8883 0.0
C667 C 0.31865 0.53482 0.89199 0.0
C668 C 0.34376 0.56982 0.88724 0.0
C669 C 0.28257 0.51947 0.88363 0.0
C670 C 0.33241 0.58918 0.87389 0.0
C671 C 0.29679 0.5741 0.86548 0.0
H672 H 0.60053 0.13816 0.05431 0.0
H673 H 0.55844 0.18071 0.00208 0.0
H674 H 0.61022 0.23808 0.00956 0.0
H675 H 0.67068 0.27512 0.02702 0.0
H676 H 0.71542 0.23256 0.07698 0.0
H677 H 0.65952 0.17618 0.07409 0.0
C678 C 0.60261 0.16001 0.04463 0.0
C679 C 0.57571 0.15499 0.0275 0.0
C680 C 0.63317 0.19287 0.04835 0.0
C681 C 0.57843 0.18371 0.01556 0.0
C682 C 0.60829 0.21656 0.01961 0.0
C683 C 0.66811 0.25362 0.03751 0.0
C684 C 0.69731 0.25791 0.05196 0.0
C685 C 0.6363 0.22127 0.03539 0.0
C686 C 0.69341 0.22985 0.06558 0.0
C687 C 0.66149 0.19762 0.0639 0.0
H688 H 0.59454 0.72373 0.19346 0.0
H689 H 0.49254 0.62819 0.20575 0.0
H690 H 0.46425 0.65978 0.21878 0.0
H691 H 0.46758 0.71466 0.22516 0.0
H692 H 0.57091 0.80956 0.21725 0.0
H693 H 0.59987 0.77786 0.20495 0.0
C694 C 0.56638 0.70952 0.19954 0.0
C695 C 0.54577 0.67338 0.19803 0.0
C696 C 0.55045 0.72777 0.20793 0.0
C697 C 0.50904 0.65593 0.20576 0.0
C698 C 0.49279 0.67398 0.21353 0.0
C699 C 0.49652 0.72831 0.22097 0.0
C700 C 0.51706 0.76434 0.22187 0.0
C701 C 0.51308 0.70991 0.21433 0.0
C702 C 0.55458 0.78179 0.21673 0.0
C703 C 0.57109 0.76369 0.20957 0.0
H704 H 0.9173 0.52491 0.36019 0.0
H705 H 0.84729 0.42181 0.33394 0.0
H706 H 0.7946 0.41949 0.35325 0.0
H707 H 0.76827 0.44773 0.37615 0.0
H708 H 0.83874 0.55126 0.40186 0.0
H709 H 0.89139 0.55248 0.38398 0.0
C710 C 0.89046 0.502 0.35856 0.0
C711 C 0.88611 0.4737 0.34544 0.0
C712 C 0.86039 0.50096 0.36953 0.0
C713 C 0.85134 0.44388 0.34401 0.0
C714 C 0.82121 0.44262 0.35493 0.0
C715 C 0.79514 0.47055 0.37793 0.0
C716 C 0.79942 0.49943 0.39025 0.0
C717 C 0.82538 0.47115 0.36754 0.0
C718 C 0.83454 0.52868 0.39245 0.0
C719 C 0.86472 0.52944 0.38221 0.0
H720 H 0.11967 0.53586 0.40881 0.0
H721 H 0.05018 0.57487 0.42622 0.0
H722 H 0.08689 0.60298 0.46284 0.0
H723 H 0.13923 0.61648 0.48961 0.0
H724 H 0.20941 0.57858 0.47037 0.0
H725 H 0.17193 0.55003 0.43466 0.0
C726 C 0.11226 0.55011 0.42085 0.0
C727 C 0.08196 0.55282 0.41523 0.0
C728 C 0.1338 0.56661 0.44135 0.0
C729 C 0.07323 0.57221 0.43045 0.0
C730 C 0.09424 0.5883 0.45127 0.0
C731 C 0.14632 0.60204 0.47755 0.0
C732 C 0.17701 0.59959 0.4827 0.0
C733 C 0.1247 0.58576 0.45685 0.0
C734 C 0.18598 0.58093 0.46684 0.0
C735 C 0.16451 0.56449 0.44643 0.0
H736 H 0.46828 0.09774 0.59779 0.0
H737 H 0.52453 0.04304 0.60813 0.0
H738 H 0.55606 0.07824 0.64374 0.0
H739 H 0.57138 0.12768 0.66975 0.0
H740 H 0.51262 0.18007 0.66107 0.0
H741 H 0.47783 0.14223 0.62708 0.0
C742 C 0.48656 0.09273 0.60824 0.0
C743 C 0.49425 0.06794 0.60013 0.0
C744 C 0.50444 0.11291 0.62878 0.0
C745 C 0.51856 0.06231 0.61372 0.0
C746 C 0.53659 0.08241 0.63409 0.0
C747 C 0.5507 0.13053 0.66051 0.0
C748 C 0.54478 0.15675 0.66756 0.0
C749 C 0.53046 0.10837 0.64137 0.0
C750 C 0.51759 0.16001 0.65584 0.0
C751 C 0.4978 0.13847 0.63642 0.0
H752 H 0.52285 0.58279 0.76178 0.0
H753 H 0.51091 0.66461 0.73306 0.0
H754 H 0.5063 0.68144 0.77509 0.0
H755 H 0.5016 0.6699 0.81967 0.0
H756 H 0.51377 0.58755 0.84783 0.0
H757 H 0.5231 0.57425 0.80626 0.0
C758 C 0.51932 0.60434 0.76487 0.0
C759 C 0.51655 0.6222 0.74472 0.0
C760 C 0.51698 0.6138 0.78885 0.0
C761 C 0.51266 0.65044 0.74854 0.0
C762 C 0.51012 0.66 0.77247 0.0
C763 C 0.50689 0.6494 0.81679 0.0
C764 C 0.50658 0.62953 0.83687 0.0
C765 C 0.51174 0.64152 0.79275 0.0
C766 C 0.5136 0.60312 0.83274 0.0
C767 C 0.51881 0.59538 0.80896 0.0
H768 H 0.92165 0.34694 0.90986 0.0
H769 H 0.8601 0.3858 0.87465 0.0
H770 H 0.82837 0.38011 0.91326 0.0
H771 H 0.82193 0.36872 0.95754 0.0
H772 H 0.88263 0.32924 -0.00693 0.0
H773 H 0.91077 0.33022 0.95367 0.0
C774 C 0.90059 0.35328 0.91051 0.0
C775 C 0.89325 0.36687 0.88948 0.0
C776 C 0.88273 0.35026 0.93283 0.0
C777 C 0.86637 0.37556 0.89066 0.0
C778 C 0.8483 0.37237 0.91271 0.0
C779 C 0.84117 0.36013 0.95663 0.0
C780 C 0.85062 0.34938 0.97816 0.0
C781 C 0.85697 0.36061 0.93402 0.0
C782 C 0.87508 0.33778 0.97671 0.0
C783 C 0.89117 0.33837 0.95422 0.0
H784 H 0.52311 0.9745 0.10112 0.0
H785 H 0.40576 0.92221 0.09658 0.0
H786 H 0.39984 0.88744 0.13249 0.0
H787 H 0.42747 0.86902 0.16327 0.0
H788 H 0.54456 0.91973 0.1681 0.0
H789 H 0.55111 0.95769 0.13369 0.0
C790 C 0.49627 0.95562 0.10811 0.0
C791 C 0.46494 0.95108 0.09619 0.0
C792 C 0.493 0.93512 0.12855 0.0
C793 C 0.43035 0.92674 0.10561 0.0
C794 C 0.4269 0.90652 0.12599 0.0
C795 C 0.45449 0.88838 0.15684 0.0
C796 C 0.4855 0.89135 0.16801 0.0
C797 C 0.45798 0.91005 0.13728 0.0
C798 C 0.52028 0.91687 0.15969 0.0
C799 C 0.52401 0.93856 0.14006 0.0
H800 H 0.6549 0.59855 0.28554 0.0
H801 H 0.59495 0.49772 0.25368 0.0
H802 H 0.60448 0.4728 0.29069 0.0
H803 H 0.63341 0.48019 0.33101 0.0
H804 H 0.69502 0.5816 0.36209 0.0
H805 H 0.68165 0.60563 0.32641 0.0
C806 C 0.64377 0.5711 0.28677 0.0
C807 C 0.62419 0.55006 0.26694 0.0
C808 C 0.65002 0.55703 0.30786 0.0
C809 C 0.6096 0.51446 0.26887 0.0
C810 C 0.61539 0.50021 0.28992 0.0
C811 C 0.64382 0.50752 0.33002 0.0
C812 C 0.66543 0.529 0.34916 0.0
C813 C 0.63611 0.52133 0.30936 0.0
C814 C 0.67847 0.56437 0.34761 0.0
C815 C 0.67082 0.57822 0.3272 0.0
H816 H 0.46372 0.90871 0.38578 0.0
H817 H 0.42601 0.97261 0.35558 0.0
H818 H 0.43115 0.95591 0.31419 0.0
H819 H 0.44408 0.92194 0.28666 0.0
H820 H 0.48195 0.8577 0.31583 0.0
H821 H 0.48013 0.87665 0.35747 0.0
C822 C 0.45677 0.91903 0.37011 0.0
C823 C 0.44365 0.94122 0.37384 0.0
C824 C 0.46014 0.90956 0.34618 0.0
C825 C 0.43499 0.95458 0.35332 0.0
C826 C 0.43832 0.94538 0.3296 0.0
C827 C 0.45224 0.91219 0.30205 0.0
C828 C 0.46286 0.8882 0.29809 0.0
C829 C 0.45049 0.92265 0.32584 0.0
C830 C 0.47367 0.8762 0.31831 0.0
C831 C 0.47239 0.88684 0.34215 0.0
H832 H 0.6171 0.53799 0.54024 0.0
H833 H 0.50957 0.48832 0.50866 0.0
H834 H 0.53048 0.46836 0.47432 0.0
H835 H 0.57891 0.46363 0.45431 0.0
H836 H 0.6858 0.51176 0.48712 0.0
H837 H 0.66541 0.53363 0.52024 0.0
C838 C 0.59844 0.52334 0.52558 0.0
C839 C 0.56205 0.51502 0.52666 0.0
C840 C 0.6104 0.51136 0.50641 0.0
C841 C 0.5378 0.49522 0.50799 0.0
C842 C 0.54971 0.48373 0.48849 0.0
C843 C 0.59777 0.47893 0.4687 0.0
C844 C 0.63382 0.48606 0.46828 0.0
C845 C 0.58585 0.49134 0.48769 0.0
C846 C 0.65789 0.50585 0.48706 0.0
C847 C 0.64631 0.51846 0.50594 0.0
H848 H 0.06585 0.46549 0.66312 0.0
H849 H 0.11811 0.55759 0.70639 0.0
H850 H 0.15266 0.59116 0.67038 0.0
H851 H 0.17175 0.59348 0.62734 0.0
H852 H 0.12046 0.50051 0.58477 0.0
H853 H 0.08218 0.46835 0.61971 0.0
C854 C 0.08471 0.49293 0.66463 0.0
C855 C 0.08946 0.50894 0.68741 0.0
C856 C 0.10499 0.51196 0.644 0.0
C857 C 0.1136 0.54464 0.689 0.0
C858 C 0.13363 0.56383 0.66846 0.0
C859 C 0.15195 0.56627 0.62562 0.0
C860 C 0.14937 0.54948 0.60348 0.0
C861 C 0.13007 0.54765 0.64595 0.0
C862 C 0.12341 0.51416 0.60162 0.0
C863 C 0.1014 0.49564 0.62162 0.0
H864 H 0.52701 0.1544 0.88003 0.0
H865 H 0.56122 0.08074 0.87798 0.0
H866 H 0.58371 0.09845 0.83621 0.0
H867 H 0.59214 0.1333 0.79988 0.0
H868 H 0.55937 0.20799 0.80098 0.0
H869 H 0.53778 0.19142 0.84343 0.0
C870 C 0.53965 0.14251 0.87042 0.0
C871 C 0.54289 0.11665 0.8822 0.0
C872 C 0.55254 0.15279 0.84621 0.0
C873 C 0.55919 0.10129 0.86956 0.0
C874 C 0.57175 0.11114 0.84556 0.0
C875 C 0.58021 0.14596 0.80934 0.0
C876 C 0.57707 0.17161 0.79721 0.0
C877 C 0.56833 0.13664 0.83367 0.0
C878 C 0.56204 0.18809 0.8099 0.0
C879 C 0.54967 0.17862 0.83416 0.0
H880 H 0.57224 0.6846 0.04738 0.0
H881 H 0.51598 0.5744 0.03898 0.0
H882 H 0.49163 0.57898 -4e-05 0.0
H883 H 0.48622 0.61373 0.96792 0.0
H884 H 0.54734 0.72403 0.97316 0.0
H885 H 0.57097 0.71999 0.01334 0.0
C886 C 0.55502 0.66156 0.03697 0.0
C887 C 0.54537 0.62913 0.0467 0.0
C888 C 0.54225 0.66438 0.0138 0.0
C889 C 0.52281 0.59966 0.03272 0.0
C890 C 0.50921 0.60221 0.0101 0.0
C891 C 0.5048 0.63688 0.97786 0.0
C892 C 0.51486 0.66908 0.96785 0.0
C893 C 0.51864 0.63435 0.00053 0.0
C894 C 0.53935 0.69896 0.98061 0.0
C895 C 0.55266 0.69662 0.00357 0.0
H896 H 0.96802 0.4644 0.17811 0.0
H897 H 0.8803 0.37201 0.21127 0.0
H898 H 0.85134 0.35261 0.17091 0.0
H899 H 0.85014 0.36348 0.12651 0.0
H900 H 0.93942 0.45583 0.09377 0.0
H901 H 0.96884 0.47351 0.13364 0.0
C902 C 0.94245 0.44009 0.17642 0.0
C903 C 0.92579 0.41986 0.19747 0.0
C904 C 0.92643 0.42908 0.15329 0.0
C905 C 0.89326 0.38802 0.1952 0.0
C906 C 0.87682 0.377 0.17219 0.0
C907 C 0.87618 0.38733 0.12804 0.0
C908 C 0.89232 0.40839 0.10713 0.0
C909 C 0.89302 0.39749 0.15113 0.0
C910 C 0.92622 0.43911 0.10949 0.0
C911 C 0.94307 0.44937 0.13233 0.0
loop_
_geom_bond_atom_site_label_1
_geom_bond_atom_site_label_2
_geom_bond_distance
_geom_bond_site_symmetry_2
_ccdc_geom_bond_type
H0 O26 0.856 . S
H1 O29 0.854 . S
H2 C37 0.934 . S
H3 C38 0.930 . S
H4 C40 0.930 . S
H5 C41 0.930 . S
H6 C43 0.931 . S
H7 C44 0.930 . S
H8 C46 0.930 . S
H9 C47 0.929 . S
H10 C49 0.930 . S
H11 C50 0.931 . S
H12 C52 0.930 . S
H13 C53 0.929 . S
H14 C55 0.931 . S
H15 C56 0.930 . S
H16 C58 0.930 . S
H17 C59 0.932 . S
H18 C61 0.930 . S
H19 C62 0.929 . S
H20 C64 0.931 . S
H21 C65 0.930 . S
H22 C67 0.929 . S
H23 C68 0.931 . S
H24 C70 0.930 . S
H25 C71 0.925 1_455 S
O26 H0 0.856 . S
O26 C72 1.300 . S
O27 C72 1.209 . S
O28 C73 1.199 . S
O29 H1 0.854 . S
O29 C73 1.297 . S
C30 C31 1.404 . S
C30 C35 1.397 . S
C30 C36 1.492 . S
C31 C30 1.404 . S
C31 C32 1.396 . S
C31 C42 1.492 . S
C32 C31 1.396 . S
C32 C33 1.397 . S
C32 C48 1.509 . S
C33 C32 1.397 . S
C33 C34 1.412 . S
C33 C54 1.485 . S
C34 C33 1.412 . S
C34 C35 1.388 . S
C34 C60 1.490 . S
C35 C30 1.397 . S
C35 C34 1.388 . S
C35 C66 1.519 1_455 S
C36 C30 1.492 . S
C36 C37 1.362 . S
C36 C41 1.390 1_455 S
C37 H2 0.934 . S
C37 C36 1.362 . S
C37 C38 1.370 1_455 S
C38 H3 0.930 . S
C38 C37 1.370 1_655 S
C38 C39 1.383 . S
C39 C38 1.383 . S
C39 C40 1.395 . S
C40 H4 0.930 . S
C40 C39 1.395 . S
C40 C41 1.362 . S
C41 H5 0.930 . S
C41 C36 1.390 1_655 S
C41 C40 1.362 . S
C42 C31 1.492 . S
C42 C43 1.377 . S
C42 C47 1.397 . S
C43 H6 0.931 . S
C43 C42 1.377 . S
C43 C44 1.376 . S
C44 H7 0.930 . S
C44 C43 1.376 . S
C44 C45 1.376 . S
C45 C44 1.376 . S
C45 C46 1.378 . S
C45 C72 1.486 . S
C46 H8 0.930 . S
C46 C45 1.378 . S
C46 C47 1.376 . S
C47 H9 0.929 . S
C47 C42 1.397 . S
C47 C46 1.376 . S
C48 C32 1.509 . S
C48 C49 1.391 . S
C48 C53 1.386 . S
C49 H10 0.930 . S
C49 C48 1.391 . S
C49 C50 1.375 . S
C50 H11 0.931 . S
C50 C49 1.375 . S
C50 C51 1.375 . S
C51 C50 1.375 . S
C51 C52 1.361 . S
C52 H12 0.930 . S
C52 C51 1.361 . S
C52 C53 1.399 . S
C53 H13 0.929 . S
C53 C48 1.386 . S
C53 C52 1.399 . S
C54 C33 1.485 . S
C54 C55 1.394 . S
C54 C59 1.360 . S
C55 H14 0.931 . S
C55 C54 1.394 . S
C55 C56 1.372 . S
C56 H15 0.930 . S
C56 C55 1.372 . S
C56 C57 1.397 . S
C57 C56 1.397 . S
C57 C58 1.390 . S
C57 C73 1.476 . S
C58 H16 0.930 . S
C58 C57 1.390 . S
C58 C59 1.366 . S
C59 H17 0.932 . S
C59 C54 1.360 . S
C59 C58 1.366 . S
C60 C34 1.490 . S
C60 C61 1.380 . S
C60 C65 1.386 . S
C61 H18 0.930 . S
C61 C60 1.380 . S
C61 C62 1.381 . S
C62 H19 0.929 . S
C62 C61 1.381 . S
C62 C63 1.371 . S
C63 C62 1.371 . S
C63 C64 1.380 . S
C64 H20 0.931 . S
C64 C63 1.380 . S
C64 C65 1.387 . S
C65 H21 0.930 . S
C65 C60 1.386 . S
C65 C64 1.387 . S
C66 C35 1.519 1_655 S
C66 C67 1.377 . S
C66 C71 1.361 . S
C67 H22 0.929 . S
C67 C66 1.377 . S
C67 C68 1.386 . S
C68 H23 0.931 . S
C68 C67 1.386 . S
C68 C69 1.363 . S
C69 C68 1.363 . S
C69 C70 1.385 . S
C70 H24 0.930 . S
C70 C69 1.385 . S
C70 C71 1.396 . S
C71 H25 0.925 1_655 S
C71 C66 1.361 . S
C71 C70 1.396 . S
C72 O26 1.300 . S
C72 O27 1.209 . S
C72 C45 1.486 . S
C73 O28 1.199 . S
C73 O29 1.297 . S
C73 C57 1.476 . S
H74 O100 0.856 . S
H75 O103 0.854 . S
H76 C111 0.930 . S
H77 C112 0.930 . S
H78 C114 0.930 . S
H79 C115 0.930 . S
H80 C117 0.931 . S
H81 C118 0.930 . S
H82 C120 0.930 . S
H83 C121 0.929 . S
H84 C123 0.930 . S
H85 C124 0.931 . S
H86 C126 0.930 . S
H87 C127 0.929 . S
H88 C129 0.931 . S
H89 C130 0.930 . S
H90 C132 0.930 . S
H91 C133 0.932 . S
H92 C135 0.930 . S
H93 C136 0.929 . S
H94 C138 0.931 . S
H95 C139 0.930 . S
H96 C141 0.929 . S
H97 C142 0.931 . S
H98 C144 0.930 . S
H99 C145 0.945 . S
O100 H74 0.856 . S
O100 C146 1.300 . S
O101 C146 1.209 . S
O102 C147 1.199 . S
O103 H75 0.854 . S
O103 C147 1.297 . S
C104 C105 1.404 . S
C104 C109 1.397 . S
C104 C110 1.492 . S
C105 C104 1.404 . S
C105 C106 1.396 . S
C105 C116 1.492 . S
C106 C105 1.396 . S
C106 C107 1.397 . S
C106 C122 1.509 . S
C107 C106 1.397 . S
C107 C108 1.412 . S
C107 C128 1.485 . S
C108 C107 1.412 . S
C108 C109 1.388 . S
C108 C134 1.490 . S
C109 C104 1.397 . S
C109 C108 1.388 . S
C109 C140 1.492 1_545 S
C110 C104 1.492 . S
C110 C111 1.363 . S
C110 C115 1.390 1_545 S
C111 H76 0.930 . S
C111 C110 1.363 . S
C111 C112 1.372 1_545 S
C112 H77 0.930 . S
C112 C111 1.372 1_565 S
C112 C113 1.383 . S
C113 C112 1.383 . S
C113 C114 1.395 . S
C114 H78 0.930 . S
C114 C113 1.395 . S
C114 C115 1.362 . S
C115 H79 0.930 . S
C115 C110 1.390 1_565 S
C115 C114 1.362 . S
C116 C105 1.492 . S
C116 C117 1.377 . S
C116 C121 1.397 . S
C117 H80 0.931 . S
C117 C116 1.377 . S
C117 C118 1.376 . S
C118 H81 0.930 . S
C118 C117 1.376 . S
C118 C119 1.376 . S
C119 C118 1.376 . S
C119 C120 1.378 . S
C119 C146 1.486 . S
C120 H82 0.930 . S
C120 C119 1.378 . S
C120 C121 1.376 . S
C121 H83 0.929 . S
C121 C116 1.397 . S
C121 C120 1.376 . S
C122 C106 1.509 . S
C122 C123 1.391 . S
C122 C127 1.386 . S
C123 H84 0.930 . S
C123 C122 1.391 . S
C123 C124 1.375 . S
C124 H85 0.931 . S
C124 C123 1.375 . S
C124 C125 1.375 . S
C125 C124 1.375 . S
C125 C126 1.361 . S
C126 H86 0.930 . S
C126 C125 1.361 . S
C126 C127 1.399 . S
C127 H87 0.929 . S
C127 C122 1.386 . S
C127 C126 1.399 . S
C128 C107 1.485 . S
C128 C129 1.394 . S
C128 C133 1.360 . S
C129 H88 0.931 . S
C129 C128 1.394 . S
C129 C130 1.372 . S
C130 H89 0.930 . S
C130 C129 1.372 . S
C130 C131 1.397 . S
C131 C130 1.397 . S
C131 C132 1.390 . S
C131 C147 1.476 . S
C132 H90 0.930 . S
C132 C131 1.390 . S
C132 C133 1.366 . S
C133 H91 0.932 . S
C133 C128 1.360 . S
C133 C132 1.366 . S
C134 C108 1.490 . S
C134 C135 1.380 . S
C134 C139 1.386 . S
C135 H92 0.930 . S
C135 C134 1.380 . S
C135 C136 1.381 . S
C136 H93 0.929 . S
C136 C135 1.381 . S
C136 C137 1.371 . S
C137 C136 1.371 . S
C137 C138 1.380 . S
C138 H94 0.931 . S
C138 C137 1.380 . S
C138 C139 1.387 . S
C139 H95 0.930 . S
C139 C134 1.386 . S
C139 C138 1.387 . S
C140 C109 1.492 1_565 S
C140 C141 1.407 . S
C140 C145 1.358 . S
C141 H96 0.929 . S
C141 C140 1.407 . S
C141 C142 1.386 . S
C142 H97 0.931 . S
C142 C141 1.386 . S
C142 C143 1.363 . S
C143 C142 1.363 . S
C143 C144 1.385 . S
C144 H98 0.930 . S
C144 C143 1.385 . S
C144 C145 1.396 . S
C145 H99 0.945 . S
C145 C140 1.358 . S
C145 C144 1.396 . S
C146 O100 1.300 . S
C146 O101 1.209 . S
C146 C119 1.486 . S
C147 O102 1.199 . S
C147 O103 1.297 . S
C147 C131 1.476 . S
H148 O174 0.856 . S
H149 O177 0.854 . S
H150 C185 0.930 . S
H151 C186 0.930 . S
H152 C188 0.930 . S
H153 C189 0.930 . S
H154 C191 0.931 . S
H155 C192 0.930 . S
H156 C194 0.930 . S
H157 C195 0.929 . S
H158 C197 0.930 . S
H159 C198 0.931 . S
H160 C200 0.930 . S
H161 C201 0.929 . S
H162 C203 0.931 . S
H163 C204 0.930 . S
H164 C206 0.930 . S
H165 C207 0.932 . S
H166 C209 0.930 . S
H167 C210 0.929 . S
H168 C212 0.931 . S
H169 C213 0.930 . S
H170 C215 0.929 . S
H171 C216 0.931 . S
H172 C218 0.930 . S
H173 C219 0.929 . S
O174 H148 0.856 . S
O174 C220 1.300 . S
O175 C220 1.209 . S
O176 C221 1.199 . S
O177 H149 0.854 . S
O177 C221 1.297 . S
C178 C179 1.404 . S
C178 C183 1.397 . S
C178 C184 1.492 . S
C179 C178 1.404 . S
C179 C180 1.396 . S
C179 C190 1.492 . S
C180 C179 1.396 . S
C180 C181 1.397 . S
C180 C196 1.509 . S
C181 C180 1.397 . S
C181 C182 1.412 . S
C181 C202 1.485 . S
C182 C181 1.412 . S
C182 C183 1.388 . S
C182 C208 1.490 . S
C183 C178 1.397 . S
C183 C182 1.388 . S
C183 C214 1.519 . S
C184 C178 1.492 . S
C184 C185 1.363 . S
C184 C189 1.390 . S
C185 H150 0.930 . S
C185 C184 1.363 . S
C185 C186 1.372 . S
C186 H151 0.930 . S
C186 C185 1.372 . S
C186 C187 1.383 . S
C187 C186 1.383 . S
C187 C188 1.395 . S
C188 H152 0.930 . S
C188 C187 1.395 . S
C188 C189 1.362 . S
C189 H153 0.930 . S
C189 C184 1.390 . S
C189 C188 1.362 . S
C190 C179 1.492 . S
C190 C191 1.377 . S
C190 C195 1.397 . S
C191 H154 0.931 . S
C191 C190 1.377 . S
C191 C192 1.376 . S
C192 H155 0.930 . S
C192 C191 1.376 . S
C192 C193 1.376 . S
C193 C192 1.376 . S
C193 C194 1.378 . S
C193 C220 1.486 . S
C194 H156 0.930 . S
C194 C193 1.378 . S
C194 C195 1.376 . S
C195 H157 0.929 . S
C195 C190 1.397 . S
C195 C194 1.376 . S
C196 C180 1.509 . S
C196 C197 1.391 . S
C196 C201 1.386 . S
C197 H158 0.930 . S
C197 C196 1.391 . S
C197 C198 1.375 . S
C198 H159 0.931 . S
C198 C197 1.375 . S
C198 C199 1.375 . S
C199 C198 1.375 . S
C199 C200 1.361 . S
C200 H160 0.930 . S
C200 C199 1.361 . S
C200 C201 1.399 . S
C201 H161 0.929 . S
C201 C196 1.386 . S
C201 C200 1.399 . S
C202 C181 1.485 . S
C202 C203 1.394 . S
C202 C207 1.360 . S
C203 H162 0.931 . S
C203 C202 1.394 . S
C203 C204 1.372 . S
C204 H163 0.930 . S
C204 C203 1.372 . S
C204 C205 1.397 . S
C205 C204 1.397 . S
C205 C206 1.390 . S
C205 C221 1.476 . S
C206 H164 0.930 . S
C206 C205 1.390 . S
C206 C207 1.366 . S
C207 H165 0.932 . S
C207 C202 1.360 . S
C207 C206 1.366 . S
C208 C182 1.490 . S
C208 C209 1.380 . S
C208 C213 1.386 . S
C209 H166 0.930 . S
C209 C208 1.380 . S
C209 C210 1.381 . S
C210 H167 0.929 . S
C210 C209 1.381 . S
C210 C211 1.371 . S
C211 C210 1.371 . S
C211 C212 1.380 . S
C212 H168 0.931 . S
C212 C211 1.380 . S
C212 C213 1.387 . S
C213 H169 0.930 . S
C213 C208 1.386 . S
C213 C212 1.387 . S
C214 C183 1.519 . S
C214 C215 1.377 . S
C214 C219 1.361 . S
C215 H170 0.929 . S
C215 C214 1.377 . S
C215 C216 1.386 . S
C216 H171 0.931 . S
C216 C215 1.386 . S
C216 C217 1.363 . S
C217 C216 1.363 . S
C217 C218 1.385 . S
C218 H172 0.930 . S
C218 C217 1.385 . S
C218 C219 1.396 . S
C219 H173 0.929 . S
C219 C214 1.361 . S
C219 C218 1.396 . S
C220 O174 1.300 . S
C220 O175 1.209 . S
C220 C193 1.486 . S
C221 O176 1.199 . S
C221 O177 1.297 . S
C221 C205 1.476 . S
H222 O248 0.856 . S
H223 O251 0.854 . S
H224 C259 0.930 1_455 S
H225 C260 0.930 . S
H226 C262 0.930 . S
H227 C263 0.930 . S
H228 C265 0.931 . S
H229 C266 0.930 . S
H230 C268 0.930 . S
H231 C269 0.929 . S
H232 C271 0.930 . S
H233 C272 0.931 . S
H234 C274 0.930 . S
H235 C275 0.929 . S
H236 C277 0.931 . S
H237 C278 0.930 . S
H238 C280 0.930 . S
H239 C281 0.932 . S
H240 C283 0.930 . S
H241 C284 0.929 . S
H242 C286 0.931 . S
H243 C287 0.930 . S
H244 C289 0.929 . S
H245 C290 0.931 . S
H246 C292 0.930 . S
H247 C293 0.929 . S
O248 H222 0.856 . S
O248 C294 1.300 . S
O249 C294 1.209 . S
O250 C295 1.199 . S
O251 H223 0.854 . S
O251 C295 1.297 . S
C252 C253 1.404 . S
C252 C257 1.397 . S
C252 C258 1.492 1_455 S
C253 C252 1.404 . S
C253 C254 1.396 . S
C253 C264 1.492 . S
C254 C253 1.396 . S
C254 C255 1.397 . S
C254 C270 1.509 . S
C255 C254 1.397 . S
C255 C256 1.412 . S
C255 C276 1.485 . S
C256 C255 1.412 . S
C256 C257 1.388 . S
C256 C282 1.490 . S
C257 C252 1.397 . S
C257 C256 1.388 . S
C257 C288 1.519 1_455 S
C258 C252 1.492 1_655 S
C258 C259 1.363 . S
C258 C263 1.390 . S
C259 H224 0.930 1_655 S
C259 C258 1.363 . S
C259 C260 1.372 . S
C260 H225 0.930 . S
C260 C259 1.372 . S
C260 C261 1.383 . S
C261 C260 1.383 . S
C261 C262 1.395 . S
C262 H226 0.930 . S
C262 C261 1.395 . S
C262 C263 1.362 . S
C263 H227 0.930 . S
C263 C258 1.390 . S
C263 C262 1.362 . S
C264 C253 1.492 . S
C264 C265 1.377 . S
C264 C269 1.397 . S
C265 H228 0.931 . S
C265 C264 1.377 . S
C265 C266 1.376 . S
C266 H229 0.930 . S
C266 C265 1.376 . S
C266 C267 1.376 . S
C267 C266 1.376 . S
C267 C268 1.378 . S
C267 C294 1.486 . S
C268 H230 0.930 . S
C268 C267 1.378 . S
C268 C269 1.376 . S
C269 H231 0.929 . S
C269 C264 1.397 . S
C269 C268 1.376 . S
C270 C254 1.509 . S
C270 C271 1.391 . S
C270 C275 1.386 . S
C271 H232 0.930 . S
C271 C270 1.391 . S
C271 C272 1.375 . S
C272 H233 0.931 . S
C272 C271 1.375 . S
C272 C273 1.375 . S
C273 C272 1.375 . S
C273 C274 1.361 . S
C274 H234 0.930 . S
C274 C273 1.361 . S
C274 C275 1.399 . S
C275 H235 0.929 . S
C275 C270 1.386 . S
C275 C274 1.399 . S
C276 C255 1.485 . S
C276 C277 1.394 . S
C276 C281 1.360 . S
C277 H236 0.931 . S
C277 C276 1.394 . S
C277 C278 1.372 . S
C278 H237 0.930 . S
C278 C277 1.372 . S
C278 C279 1.397 . S
C279 C278 1.397 . S
C279 C280 1.390 . S
C279 C295 1.476 . S
C280 H238 0.930 . S
C280 C279 1.390 . S
C280 C281 1.366 . S
C281 H239 0.932 . S
C281 C276 1.360 . S
C281 C280 1.366 . S
C282 C256 1.490 . S
C282 C283 1.380 . S
C282 C287 1.386 . S
C283 H240 0.930 . S
C283 C282 1.380 . S
C283 C284 1.381 . S
C284 H241 0.929 . S
C284 C283 1.381 . S
C284 C285 1.371 . S
C285 C284 1.371 . S
C285 C286 1.380 . S
C286 H242 0.931 . S
C286 C285 1.380 . S
C286 C287 1.387 . S
C287 H243 0.930 . S
C287 C282 1.386 . S
C287 C286 1.387 . S
C288 C257 1.519 1_655 S
C288 C289 1.377 . S
C288 C293 1.361 . S
C289 H244 0.929 . S
C289 C288 1.377 . S
C289 C290 1.386 . S
C290 H245 0.931 . S
C290 C289 1.386 . S
C290 C291 1.363 . S
C291 C290 1.363 . S
C291 C292 1.385 . S
C292 H246 0.930 . S
C292 C291 1.385 . S
C292 C293 1.396 . S
C293 H247 0.929 . S
C293 C288 1.361 . S
C293 C292 1.396 . S
C294 O248 1.300 . S
C294 O249 1.209 . S
C294 C267 1.486 . S
C295 O250 1.199 . S
C295 O251 1.297 . S
C295 C279 1.476 . S
H296 O322 0.856 . S
H297 O325 0.854 . S
H298 C333 0.930 . S
H299 C334 0.930 . S
H300 C336 0.930 . S
H301 C337 0.930 . S
H302 C339 0.931 . S
H303 C340 0.930 . S
H304 C342 0.930 . S
H305 C343 0.929 . S
H306 C345 0.930 . S
H307 C346 0.931 . S
H308 C348 0.930 . S
H309 C349 0.929 . S
H310 C351 0.931 . S
H311 C352 0.930 . S
H312 C354 0.930 . S
H313 C355 0.932 . S
H314 C357 0.930 . S
H315 C358 0.929 1_545 S
H316 C360 0.931 . S
H317 C361 0.930 . S
H318 C363 0.929 1_556 S
H319 C364 0.931 . S
H320 C366 0.930 . S
H321 C367 0.929 . S
O322 H296 0.856 . S
O322 C368 1.300 . S
O323 C368 1.209 . S
O324 C369 1.199 . S
O325 H297 0.854 . S
O325 C369 1.297 . S
C326 C327 1.404 1_545 S
C326 C331 1.397 . S
C326 C332 1.492 . S
C327 C326 1.404 1_565 S
C327 C328 1.396 . S
C327 C338 1.492 . S
C328 C327 1.396 . S
C328 C329 1.445 . S
C328 C344 1.509 . S
C329 C328 1.445 . S
C329 C330 1.395 1_556 S
C329 C350 1.457 1_556 S
C330 C329 1.395 1_554 S
C330 C331 1.388 1_564 S
C330 C356 1.490 . S
C331 C326 1.397 . S
C331 C330 1.388 1_546 S
C331 C362 1.519 1_556 S
C332 C326 1.492 . S
C332 C333 1.363 . S
C332 C337 1.390 . S
C333 H298 0.930 . S
C333 C332 1.363 . S
C333 C334 1.372 . S
C334 H299 0.930 . S
C334 C333 1.372 . S
C334 C335 1.383 . S
C335 C334 1.383 . S
C335 C336 1.395 . S
C336 H300 0.930 . S
C336 C335 1.395 . S
C336 C337 1.362 . S
C337 H301 0.930 . S
C337 C332 1.390 . S
C337 C336 1.362 . S
C338 C327 1.492 . S
C338 C339 1.377 . S
C338 C343 1.397 . S
C339 H302 0.931 . S
C339 C338 1.377 . S
C339 C340 1.376 . S
C340 H303 0.930 . S
C340 C339 1.376 . S
C340 C341 1.376 . S
C341 C340 1.376 . S
C341 C342 1.378 . S
C341 C368 1.486 . S
C342 H304 0.930 . S
C342 C341 1.378 . S
C342 C343 1.376 . S
C343 H305 0.929 . S
C343 C338 1.397 . S
C343 C342 1.376 . S
C344 C328 1.509 . S
C344 C345 1.391 . S
C344 C349 1.386 . S
C345 H306 0.930 . S
C345 C344 1.391 . S
C345 C346 1.375 . S
C346 H307 0.931 . S
C346 C345 1.375 . S
C346 C347 1.375 . S
C347 C346 1.375 . S
C347 C348 1.361 . S
C348 H308 0.930 . S
C348 C347 1.361 . S
C348 C349 1.399 . S
C349 H309 0.929 . S
C349 C344 1.386 . S
C349 C348 1.399 . S
C350 C329 1.457 1_554 S
C350 C351 1.394 . S
C350 C355 1.360 . S
C351 H310 0.931 . S
C351 C350 1.394 . S
C351 C352 1.372 . S
C352 H311 0.930 . S
C352 C351 1.372 . S
C352 C353 1.397 . S
C353 C352 1.397 . S
C353 C354 1.390 . S
C353 C369 1.476 . S
C354 H312 0.930 . S
C354 C353 1.390 . S
C354 C355 1.366 . S
C355 H313 0.932 . S
C355 C350 1.360 . S
C355 C354 1.366 . S
C356 C330 1.490 . S
C356 C357 1.380 . S
C356 C361 1.386 . S
C357 H314 0.930 . S
C357 C356 1.380 . S
C357 C358 1.381 . S
C358 H315 0.929 1_565 S
C358 C357 1.381 . S
C358 C359 1.371 . S
C359 C358 1.371 . S
C359 C360 1.380 . S
C360 H316 0.931 . S
C360 C359 1.380 . S
C360 C361 1.387 . S
C361 H317 0.930 . S
C361 C356 1.386 . S
C361 C360 1.387 . S
C362 C331 1.519 1_554 S
C362 C363 1.377 . S
C362 C367 1.361 . S
C363 H318 0.929 1_554 S
C363 C362 1.377 . S
C363 C364 1.386 . S
C364 H319 0.931 . S
C364 C363 1.386 . S
C364 C365 1.363 . S
C365 C364 1.363 . S
C365 C366 1.385 . S
C366 H320 0.930 . S
C366 C365 1.385 . S
C366 C367 1.396 . S
C367 H321 0.929 . S
C367 C362 1.361 . S
C367 C366 1.396 . S
C368 O322 1.300 . S
C368 O323 1.209 . S
C368 C341 1.486 . S
C369 O324 1.199 . S
C369 O325 1.297 . S
C369 C353 1.476 . S
H370 O396 0.856 . S
H371 O399 0.854 . S
H372 C407 0.930 . S
H373 C408 0.930 . S
H374 C410 0.930 . S
H375 C411 0.930 . S
H376 C413 0.931 . S
H377 C414 0.930 . S
H378 C416 0.930 . S
H379 C417 0.929 . S
H380 C419 0.930 . S
H381 C420 0.931 . S
H382 C422 0.930 . S
H383 C423 0.929 . S
H384 C425 0.931 . S
H385 C426 0.930 . S
H386 C428 0.930 . S
H387 C429 0.932 . S
H388 C431 0.930 . S
H389 C432 0.929 . S
H390 C434 0.931 . S
H391 C435 0.930 . S
H392 C437 0.929 . S
H393 C438 0.931 . S
H394 C440 0.930 . S
H395 C441 0.929 . S
O396 H370 0.856 . S
O396 C442 1.299 . S
O397 C442 1.208 . S
O398 C443 1.199 . S
O399 H371 0.854 . S
O399 C443 1.297 . S
C400 C401 1.404 . S
C400 C405 1.397 . S
C400 C406 1.492 . S
C401 C400 1.404 . S
C401 C402 1.396 . S
C401 C412 1.492 . S
C402 C401 1.396 . S
C402 C403 1.397 . S
C402 C418 1.509 . S
C403 C402 1.397 . S
C403 C404 1.412 . S
C403 C424 1.485 . S
C404 C403 1.412 . S
C404 C405 1.388 . S
C404 C430 1.490 . S
C405 C400 1.397 . S
C405 C404 1.388 . S
C405 C436 1.519 . S
C406 C400 1.492 . S
C406 C407 1.363 . S
C406 C411 1.390 . S
C407 H372 0.930 . S
C407 C406 1.363 . S
C407 C408 1.372 . S
C408 H373 0.930 . S
C408 C407 1.372 . S
C408 C409 1.383 . S
C409 C408 1.383 . S
C409 C410 1.395 . S
C410 H374 0.930 . S
C410 C409 1.395 . S
C410 C411 1.362 . S
C411 H375 0.930 . S
C411 C406 1.390 . S
C411 C410 1.362 . S
C412 C401 1.492 . S
C412 C413 1.377 . S
C412 C417 1.397 . S
C413 H376 0.931 . S
C413 C412 1.377 . S
C413 C414 1.376 . S
C414 H377 0.930 . S
C414 C413 1.376 . S
C414 C415 1.376 . S
C415 C414 1.376 . S
C415 C416 1.378 . S
C415 C442 1.488 1_554 S
C416 H378 0.930 . S
C416 C415 1.378 . S
C416 C417 1.376 . S
C417 H379 0.929 . S
C417 C412 1.397 . S
C417 C416 1.376 . S
C418 C402 1.509 . S
C418 C419 1.391 . S
C418 C423 1.386 . S
C419 H380 0.930 . S
C419 C418 1.391 . S
C419 C420 1.375 . S
C420 H381 0.931 . S
C420 C419 1.375 . S
C420 C421 1.375 . S
C421 C420 1.375 . S
C421 C422 1.361 . S
C422 H382 0.930 . S
C422 C421 1.361 . S
C422 C423 1.399 . S
C423 H383 0.929 . S
C423 C418 1.386 . S
C423 C422 1.399 . S
C424 C403 1.485 . S
C424 C425 1.394 . S
C424 C429 1.360 . S
C425 H384 0.931 . S
C425 C424 1.394 . S
C425 C426 1.372 . S
C426 H385 0.930 . S
C426 C425 1.372 . S
C426 C427 1.397 . S
C427 C426 1.397 . S
C427 C428 1.390 . S
C427 C443 1.476 . S
C428 H386 0.930 . S
C428 C427 1.390 . S
C428 C429 1.366 . S
C429 H387 0.932 . S
C429 C424 1.360 . S
C429 C428 1.366 . S
C430 C404 1.490 . S
C430 C431 1.380 . S
C430 C435 1.386 . S
C431 H388 0.930 . S
C431 C430 1.380 . S
C431 C432 1.381 . S
C432 H389 0.929 . S
C432 C431 1.381 . S
C432 C433 1.371 . S
C433 C432 1.371 . S
C433 C434 1.380 . S
C434 H390 0.931 . S
C434 C433 1.380 . S
C434 C435 1.387 . S
C435 H391 0.930 . S
C435 C430 1.386 . S
C435 C434 1.387 . S
C436 C405 1.519 . S
C436 C437 1.377 . S
C436 C441 1.361 . S
C437 H392 0.929 . S
C437 C436 1.377 . S
C437 C438 1.386 . S
C438 H393 0.931 . S
C438 C437 1.386 . S
C438 C439 1.363 . S
C439 C438 1.363 . S
C439 C440 1.385 . S
C440 H394 0.930 . S
C440 C439 1.385 . S
C440 C441 1.396 . S
C441 H395 0.929 . S
C441 C436 1.361 . S
C441 C440 1.396 . S
C442 O396 1.299 . S
C442 O397 1.208 . S
C442 C415 1.488 1_556 S
C443 O398 1.199 . S
C443 O399 1.297 . S
C443 C427 1.476 . S
C444 O445 1.306 . S
C444 O447 1.160 . S
O445 C444 1.306 . S
O445 Cd446 2.228 . S
Cd446 O445 2.228 . S
Cd446 O450 2.273 . S
Cd446 O454 2.277 . S
O447 C444 1.160 . S
O447 Cd448 2.203 . S
Cd448 O447 2.203 . S
Cd448 O450 2.411 . S
Cd448 O451 2.333 . S
Cd448 O452 2.352 . S
Cd448 O456 2.277 . S
Cd448 O457 2.356 . S
C449 O454 1.209 . S
C449 O456 1.226 . S
O450 Cd446 2.273 . S
O450 Cd448 2.411 . S
O450 C453 1.320 . S
O451 Cd448 2.333 . S
O451 C453 1.214 . S
O452 Cd448 2.352 . S
O452 C455 1.258 . S
C453 O450 1.320 . S
C453 O451 1.214 . S
O454 Cd446 2.277 . S
O454 C449 1.209 . S
C455 O452 1.258 . S
C455 O457 1.282 . S
O456 Cd448 2.277 . S
O456 C449 1.226 . S
O457 Cd448 2.356 . S
O457 C455 1.282 . S
C458 O459 1.306 . S
C458 O461 1.160 . S
O459 C458 1.306 . S
O459 Cd460 2.228 . S
Cd460 O459 2.228 . S
Cd460 O464 2.273 . S
Cd460 O468 2.277 . S
O461 C458 1.160 . S
O461 Cd462 2.203 . S
Cd462 O461 2.203 . S
Cd462 O464 2.411 . S
Cd462 O465 2.333 . S
Cd462 O466 2.352 . S
Cd462 O470 2.277 . S
Cd462 O471 2.356 . S
C463 O468 1.209 . S
C463 O470 1.226 . S
O464 Cd460 2.273 . S
O464 Cd462 2.411 . S
O464 C467 1.320 . S
O465 Cd462 2.333 . S
O465 C467 1.214 . S
O466 Cd462 2.352 . S
O466 C469 1.258 . S
C467 O464 1.320 . S
C467 O465 1.214 . S
O468 Cd460 2.277 . S
O468 C463 1.209 . S
C469 O466 1.258 . S
C469 O471 1.282 . S
O470 Cd462 2.277 . S
O470 C463 1.226 . S
O471 Cd462 2.356 . S
O471 C469 1.282 . S
C472 O473 1.306 . S
C472 O475 1.160 . S
O473 C472 1.306 . S
O473 Cd474 2.228 . S
Cd474 O473 2.228 . S
Cd474 O478 2.273 . S
Cd474 O482 2.277 . S
O475 C472 1.160 . S
O475 Cd476 2.203 . S
Cd476 O475 2.203 . S
Cd476 O478 2.411 . S
Cd476 O479 2.333 . S
Cd476 O480 2.352 . S
Cd476 O484 2.277 . S
Cd476 O485 2.356 . S
C477 O482 1.209 . S
C477 O484 1.226 . S
O478 Cd474 2.273 . S
O478 Cd476 2.411 . S
O478 C481 1.320 . S
O479 Cd476 2.333 . S
O479 C481 1.214 . S
O480 Cd476 2.352 . S
O480 C483 1.258 . S
C481 O478 1.320 . S
C481 O479 1.214 . S
O482 Cd474 2.277 . S
O482 C477 1.209 . S
C483 O480 1.258 . S
C483 O485 1.282 . S
O484 Cd476 2.277 . S
O484 C477 1.226 . S
O485 Cd476 2.356 . S
O485 C483 1.282 . S
C486 O487 1.306 . S
C486 O489 1.160 . S
O487 C486 1.306 . S
O487 Cd488 2.228 . S
Cd488 O487 2.228 . S
Cd488 O492 2.273 . S
Cd488 O496 2.277 . S
O489 C486 1.160 . S
O489 Cd490 2.203 . S
Cd490 O489 2.203 . S
Cd490 O492 2.411 . S
Cd490 O493 2.333 . S
Cd490 O494 2.352 . S
Cd490 O498 2.277 . S
Cd490 O499 2.356 . S
C491 O496 1.209 . S
C491 O498 1.226 . S
O492 Cd488 2.273 . S
O492 Cd490 2.411 . S
O492 C495 1.320 . S
O493 Cd490 2.333 . S
O493 C495 1.214 . S
O494 Cd490 2.352 . S
O494 C497 1.258 . S
C495 O492 1.320 . S
C495 O493 1.214 . S
O496 Cd488 2.277 . S
O496 C491 1.209 . S
C497 O494 1.258 . S
C497 O499 1.282 . S
O498 Cd490 2.277 . S
O498 C491 1.226 . S
O499 Cd490 2.356 . S
O499 C497 1.282 . S
C500 O501 1.306 . S
C500 O503 1.160 . S
O501 C500 1.306 . S
O501 Cd502 2.228 . S
Cd502 O501 2.228 . S
Cd502 O506 2.273 . S
Cd502 O510 2.277 . S
O503 C500 1.160 . S
O503 Cd504 2.203 . S
Cd504 O503 2.203 . S
Cd504 O506 2.411 . S
Cd504 O507 2.333 . S
Cd504 O508 2.352 . S
Cd504 O512 2.277 . S
Cd504 O513 2.356 . S
C505 O510 1.209 . S
C505 O512 1.226 . S
O506 Cd502 2.273 . S
O506 Cd504 2.411 . S
O506 C509 1.320 . S
O507 Cd504 2.333 . S
O507 C509 1.214 . S
O508 Cd504 2.352 . S
O508 C511 1.258 . S
C509 O506 1.320 . S
C509 O507 1.214 . S
O510 Cd502 2.277 . S
O510 C505 1.209 . S
C511 O508 1.258 . S
C511 O513 1.282 . S
O512 Cd504 2.277 . S
O512 C505 1.226 . S
O513 Cd504 2.356 . S
O513 C511 1.282 . S
C514 O515 1.306 . S
C514 O517 1.160 . S
O515 C514 1.306 . S
O515 Cd516 2.228 . S
Cd516 O515 2.228 . S
Cd516 O520 2.273 . S
Cd516 O524 2.277 . S
O517 C514 1.160 . S
O517 Cd518 2.203 . S
Cd518 O517 2.203 . S
Cd518 O520 2.411 . S
Cd518 O521 2.333 . S
Cd518 O522 2.352 . S
Cd518 O526 2.277 . S
Cd518 O527 2.356 . S
C519 O524 1.209 . S
C519 O526 1.226 . S
O520 Cd516 2.273 . S
O520 Cd518 2.411 . S
O520 C523 1.320 . S
O521 Cd518 2.333 . S
O521 C523 1.214 . S
O522 Cd518 2.352 . S
O522 C525 1.258 . S
C523 O520 1.320 . S
C523 O521 1.214 . S
O524 Cd516 2.277 . S
O524 C519 1.209 . S
C525 O522 1.258 . S
C525 O527 1.282 . S
O526 Cd518 2.277 . S
O526 C519 1.226 . S
O527 Cd518 2.356 . S
O527 C525 1.282 . S
H528 C534 0.930 . S
H529 C537 0.930 . S
H530 C538 0.930 . S
H531 C539 0.930 . S
H532 C542 0.930 . S
H533 C543 0.930 . S
C534 H528 0.930 . S
C534 C535 1.355 . S
C534 C536 1.415 . S
C535 C534 1.355 . S
C535 C537 1.419 . S
C536 C534 1.415 . S
C536 C541 1.425 . S
C536 C543 1.409 . S
C537 H529 0.930 . S
C537 C535 1.419 . S
C537 C538 1.362 . S
C538 H530 0.930 . S
C538 C537 1.362 . S
C538 C541 1.409 . S
C539 H531 0.930 . S
C539 C540 1.355 . S
C539 C541 1.415 . S
C540 C539 1.355 . S
C540 C542 1.419 . S
C541 C536 1.425 . S
C541 C538 1.409 . S
C541 C539 1.415 . S
C542 H532 0.930 . S
C542 C540 1.419 . S
C542 C543 1.362 . S
C543 H533 0.930 . S
C543 C536 1.409 . S
C543 C542 1.362 . S
H544 C550 0.930 . S
H545 C553 0.930 . S
H546 C554 0.930 . S
H547 C555 0.930 . S
H548 C558 0.930 . S
H549 C559 0.930 . S
C550 H544 0.930 . S
C550 C551 1.355 . S
C550 C552 1.415 . S
C551 C550 1.355 . S
C551 C553 1.419 . S
C552 C550 1.415 . S
C552 C557 1.425 . S
C552 C559 1.409 . S
C553 H545 0.930 . S
C553 C551 1.419 . S
C553 C554 1.362 . S
C554 H546 0.930 . S
C554 C553 1.362 . S
C554 C557 1.409 . S
C555 H547 0.930 . S
C555 C556 1.355 . S
C555 C557 1.415 . S
C556 C555 1.355 . S
C556 C558 1.419 . S
C557 C552 1.425 . S
C557 C554 1.409 . S
C557 C555 1.415 . S
C558 H548 0.930 . S
C558 C556 1.419 . S
C558 C559 1.362 . S
C559 H549 0.930 . S
C559 C552 1.409 . S
C559 C558 1.362 . S
H560 C566 0.930 . S
H561 C569 0.930 . S
H562 C570 0.930 . S
H563 C571 0.930 . S
H564 C574 0.930 . S
H565 C575 0.930 . S
C566 H560 0.930 . S
C566 C567 1.355 . S
C566 C568 1.415 . S
C567 C566 1.355 . S
C567 C569 1.419 . S
C568 C566 1.415 . S
C568 C573 1.425 . S
C568 C575 1.409 . S
C569 H561 0.930 . S
C569 C567 1.419 . S
C569 C570 1.362 . S
C570 H562 0.930 . S
C570 C569 1.362 . S
C570 C573 1.409 . S
C571 H563 0.930 . S
C571 C572 1.355 . S
C571 C573 1.415 . S
C572 C571 1.355 . S
C572 C574 1.419 . S
C573 C568 1.425 . S
C573 C570 1.409 . S
C573 C571 1.415 . S
C574 H564 0.930 . S
C574 C572 1.419 . S
C574 C575 1.362 . S
C575 H565 0.930 . S
C575 C568 1.409 . S
C575 C574 1.362 . S
H576 C582 0.930 . S
H577 C585 0.930 . S
H578 C586 0.930 . S
H579 C587 0.930 . S
H580 C590 0.930 . S
H581 C591 0.930 . S
C582 H576 0.930 . S
C582 C583 1.355 . S
C582 C584 1.415 . S
C583 C582 1.355 . S
C583 C585 1.419 . S
C584 C582 1.415 . S
C584 C589 1.425 . S
C584 C591 1.409 . S
C585 H577 0.930 . S
C585 C583 1.419 . S
C585 C586 1.362 . S
C586 H578 0.930 . S
C586 C585 1.362 . S
C586 C589 1.409 . S
C587 H579 0.930 . S
C587 C588 1.355 . S
C587 C589 1.415 . S
C588 C587 1.355 . S
C588 C590 1.419 . S
C589 C584 1.425 . S
C589 C586 1.409 . S
C589 C587 1.415 . S
C590 H580 0.930 . S
C590 C588 1.419 . S
C590 C591 1.362 . S
C591 H581 0.930 . S
C591 C584 1.409 . S
C591 C590 1.362 . S
H592 C598 0.930 . S
H593 C601 0.930 . S
H594 C602 0.930 . S
H595 C603 0.930 . S
H596 C606 0.930 . S
H597 C607 0.930 . S
C598 H592 0.930 . S
C598 C599 1.355 . S
C598 C600 1.415 . S
C599 C598 1.355 . S
C599 C601 1.419 . S
C600 C598 1.415 . S
C600 C605 1.425 . S
C600 C607 1.409 . S
C601 H593 0.930 . S
C601 C599 1.419 . S
C601 C602 1.362 . S
C602 H594 0.930 . S
C602 C601 1.362 . S
C602 C605 1.409 . S
C603 H595 0.930 . S
C603 C604 1.355 . S
C603 C605 1.415 . S
C604 C603 1.355 . S
C604 C606 1.419 . S
C605 C600 1.425 . S
C605 C602 1.409 . S
C605 C603 1.415 . S
C606 H596 0.930 . S
C606 C604 1.419 . S
C606 C607 1.362 . S
C607 H597 0.930 . S
C607 C600 1.409 . S
C607 C606 1.362 . S
H608 C614 0.930 . S
H609 C617 0.930 . S
H610 C618 0.930 . S
H611 C619 0.930 . S
H612 C622 0.930 . S
H613 C623 0.930 . S
C614 H608 0.930 . S
C614 C615 1.355 . S
C614 C616 1.415 . S
C615 C614 1.355 . S
C615 C617 1.419 . S
C616 C614 1.415 . S
C616 C621 1.425 . S
C616 C623 1.409 . S
C617 H609 0.930 . S
C617 C615 1.419 . S
C617 C618 1.362 . S
C618 H610 0.930 . S
C618 C617 1.362 . S
C618 C621 1.409 . S
C619 H611 0.930 . S
C619 C620 1.355 . S
C619 C621 1.415 . S
C620 C619 1.355 . S
C620 C622 1.419 . S
C621 C616 1.425 . S
C621 C618 1.409 . S
C621 C619 1.415 . S
C622 H612 0.930 . S
C622 C620 1.419 . S
C622 C623 1.362 . S
C623 H613 0.930 . S
C623 C616 1.409 . S
C623 C622 1.362 . S
H624 C630 0.930 . S
H625 C633 0.930 . S
H626 C634 0.930 . S
H627 C635 0.930 . S
H628 C638 0.930 . S
H629 C639 0.930 . S
C630 H624 0.930 . S
C630 C631 1.355 . S
C630 C632 1.415 . S
C631 C630 1.355 . S
C631 C633 1.419 . S
C632 C630 1.415 . S
C632 C637 1.425 . S
C632 C639 1.409 . S
C633 H625 0.930 . S
C633 C631 1.419 . S
C633 C634 1.362 . S
C634 H626 0.930 . S
C634 C633 1.362 . S
C634 C637 1.409 . S
C635 H627 0.930 . S
C635 C636 1.355 . S
C635 C637 1.415 . S
C636 C635 1.355 . S
C636 C638 1.419 . S
C637 C632 1.425 . S
C637 C634 1.409 . S
C637 C635 1.415 . S
C638 H628 0.930 . S
C638 C636 1.419 . S
C638 C639 1.362 . S
C639 H629 0.930 . S
C639 C632 1.409 . S
C639 C638 1.362 . S
H640 C646 0.930 . S
H641 C649 0.930 . S
H642 C650 0.930 . S
H643 C651 0.930 . S
H644 C654 0.930 . S
H645 C655 0.930 . S
C646 H640 0.930 . S
C646 C647 1.355 . S
C646 C648 1.415 . S
C647 C646 1.355 . S
C647 C649 1.419 . S
C648 C646 1.415 . S
C648 C653 1.425 . S
C648 C655 1.409 . S
C649 H641 0.930 . S
C649 C647 1.419 . S
C649 C650 1.362 . S
C650 H642 0.930 . S
C650 C649 1.362 . S
C650 C653 1.409 . S
C651 H643 0.930 . S
C651 C652 1.355 . S
C651 C653 1.415 . S
C652 C651 1.355 . S
C652 C654 1.419 . S
C653 C648 1.425 . S
C653 C650 1.409 . S
C653 C651 1.415 . S
C654 H644 0.930 . S
C654 C652 1.419 . S
C654 C655 1.362 . S
C655 H645 0.930 . S
C655 C648 1.409 . S
C655 C654 1.362 . S
H656 C662 0.930 . S
H657 C665 0.930 . S
H658 C666 0.930 . S
H659 C667 0.930 . S
H660 C670 0.930 . S
H661 C671 0.930 . S
C662 H656 0.930 . S
C662 C663 1.355 . S
C662 C664 1.415 . S
C663 C662 1.355 . S
C663 C665 1.419 . S
C664 C662 1.415 . S
C664 C669 1.425 . S
C664 C671 1.409 . S
C665 H657 0.930 . S
C665 C663 1.419 . S
C665 C666 1.362 . S
C666 H658 0.930 . S
C666 C665 1.362 . S
C666 C669 1.409 . S
C667 H659 0.930 . S
C667 C668 1.355 . S
C667 C669 1.415 . S
C668 C667 1.355 . S
C668 C670 1.419 . S
C669 C664 1.425 . S
C669 C666 1.409 . S
C669 C667 1.415 . S
C670 H660 0.930 . S
C670 C668 1.419 . S
C670 C671 1.362 . S
C671 H661 0.930 . S
C671 C664 1.409 . S
C671 C670 1.362 . S
H672 C678 0.930 . S
H673 C681 0.930 . S
H674 C682 0.930 . S
H675 C683 0.930 . S
H676 C686 0.930 . S
H677 C687 0.930 . S
C678 H672 0.930 . S
C678 C679 1.355 . S
C678 C680 1.415 . S
C679 C678 1.355 . S
C679 C681 1.419 . S
C680 C678 1.415 . S
C680 C685 1.425 . S
C680 C687 1.409 . S
C681 H673 0.930 . S
C681 C679 1.419 . S
C681 C682 1.362 . S
C682 H674 0.930 . S
C682 C681 1.362 . S
C682 C685 1.409 . S
C683 H675 0.930 . S
C683 C684 1.355 . S
C683 C685 1.415 . S
C684 C683 1.355 . S
C684 C686 1.419 . S
C685 C680 1.425 . S
C685 C682 1.409 . S
C685 C683 1.415 . S
C686 H676 0.930 . S
C686 C684 1.419 . S
C686 C687 1.362 . S
C687 H677 0.930 . S
C687 C680 1.409 . S
C687 C686 1.362 . S
H688 C694 0.930 . S
H689 C697 0.930 . S
H690 C698 0.930 . S
H691 C699 0.930 . S
H692 C702 0.930 . S
H693 C703 0.930 . S
C694 H688 0.930 . S
C694 C695 1.355 . S
C694 C696 1.415 . S
C695 C694 1.355 . S
C695 C697 1.419 . S
C696 C694 1.415 . S
C696 C701 1.425 . S
C696 C703 1.409 . S
C697 H689 0.930 . S
C697 C695 1.419 . S
C697 C698 1.362 . S
C698 H690 0.930 . S
C698 C697 1.362 . S
C698 C701 1.409 . S
C699 H691 0.930 . S
C699 C700 1.355 . S
C699 C701 1.415 . S
C700 C699 1.355 . S
C700 C702 1.419 . S
C701 C696 1.425 . S
C701 C698 1.409 . S
C701 C699 1.415 . S
C702 H692 0.930 . S
C702 C700 1.419 . S
C702 C703 1.362 . S
C703 H693 0.930 . S
C703 C696 1.409 . S
C703 C702 1.362 . S
H704 C710 0.930 . S
H705 C713 0.930 . S
H706 C714 0.930 . S
H707 C715 0.930 . S
H708 C718 0.930 . S
H709 C719 0.930 . S
C710 H704 0.930 . S
C710 C711 1.355 . S
C710 C712 1.415 . S
C711 C710 1.355 . S
C711 C713 1.419 . S
C712 C710 1.415 . S
C712 C717 1.425 . S
C712 C719 1.409 . S
C713 H705 0.930 . S
C713 C711 1.419 . S
C713 C714 1.362 . S
C714 H706 0.930 . S
C714 C713 1.362 . S
C714 C717 1.409 . S
C715 H707 0.930 . S
C715 C716 1.355 . S
C715 C717 1.415 . S
C716 C715 1.355 . S
C716 C718 1.419 . S
C717 C712 1.425 . S
C717 C714 1.409 . S
C717 C715 1.415 . S
C718 H708 0.930 . S
C718 C716 1.419 . S
C718 C719 1.362 . S
C719 H709 0.930 . S
C719 C712 1.409 . S
C719 C718 1.362 . S
H720 C726 0.930 . S
H721 C729 0.930 . S
H722 C730 0.930 . S
H723 C731 0.930 . S
H724 C734 0.930 . S
H725 C735 0.930 . S
C726 H720 0.930 . S
C726 C727 1.355 . S
C726 C728 1.415 . S
C727 C726 1.355 . S
C727 C729 1.419 . S
C728 C726 1.415 . S
C728 C733 1.425 . S
C728 C735 1.409 . S
C729 H721 0.930 . S
C729 C727 1.419 . S
C729 C730 1.362 . S
C730 H722 0.930 . S
C730 C729 1.362 . S
C730 C733 1.409 . S
C731 H723 0.930 . S
C731 C732 1.355 . S
C731 C733 1.415 . S
C732 C731 1.355 . S
C732 C734 1.419 . S
C733 C728 1.425 . S
C733 C730 1.409 . S
C733 C731 1.415 . S
C734 H724 0.930 . S
C734 C732 1.419 . S
C734 C735 1.362 . S
C735 H725 0.930 . S
C735 C728 1.409 . S
C735 C734 1.362 . S
H736 C742 0.930 . S
H737 C745 0.930 . S
H738 C746 0.930 . S
H739 C747 0.930 . S
H740 C750 0.930 . S
H741 C751 0.930 . S
C742 H736 0.930 . S
C742 C743 1.355 . S
C742 C744 1.415 . S
C743 C742 1.355 . S
C743 C745 1.419 . S
C744 C742 1.415 . S
C744 C749 1.425 . S
C744 C751 1.409 . S
C745 H737 0.930 . S
C745 C743 1.419 . S
C745 C746 1.362 . S
C746 H738 0.930 . S
C746 C745 1.362 . S
C746 C749 1.409 . S
C747 H739 0.930 . S
C747 C748 1.355 . S
C747 C749 1.415 . S
C748 C747 1.355 . S
C748 C750 1.419 . S
C749 C744 1.425 . S
C749 C746 1.409 . S
C749 C747 1.415 . S
C750 H740 0.930 . S
C750 C748 1.419 . S
C750 C751 1.362 . S
C751 H741 0.930 . S
C751 C744 1.409 . S
C751 C750 1.362 . S
H752 C758 0.930 . S
H753 C761 0.930 . S
H754 C762 0.930 . S
H755 C763 0.930 . S
H756 C766 0.930 . S
H757 C767 0.930 . S
C758 H752 0.930 . S
C758 C759 1.355 . S
C758 C760 1.415 . S
C759 C758 1.355 . S
C759 C761 1.419 . S
C760 C758 1.415 . S
C760 C765 1.425 . S
C760 C767 1.409 . S
C761 H753 0.930 . S
C761 C759 1.419 . S
C761 C762 1.362 . S
C762 H754 0.930 . S
C762 C761 1.362 . S
C762 C765 1.409 . S
C763 H755 0.930 . S
C763 C764 1.355 . S
C763 C765 1.415 . S
C764 C763 1.355 . S
C764 C766 1.419 . S
C765 C760 1.425 . S
C765 C762 1.409 . S
C765 C763 1.415 . S
C766 H756 0.930 . S
C766 C764 1.419 . S
C766 C767 1.362 . S
C767 H757 0.930 . S
C767 C760 1.409 . S
C767 C766 1.362 . S
H768 C774 0.930 . S
H769 C777 0.930 . S
H770 C778 0.930 . S
H771 C779 0.930 . S
H772 C782 0.930 . S
H773 C783 0.930 . S
C774 H768 0.930 . S
C774 C775 1.355 . S
C774 C776 1.415 . S
C775 C774 1.355 . S
C775 C777 1.419 . S
C776 C774 1.415 . S
C776 C781 1.425 . S
C776 C783 1.409 . S
C777 H769 0.930 . S
C777 C775 1.419 . S
C777 C778 1.362 . S
C778 H770 0.930 . S
C778 C777 1.362 . S
C778 C781 1.409 . S
C779 H771 0.930 . S
C779 C780 1.355 1_556 S
C779 C781 1.415 . S
C780 C779 1.355 1_554 S
C780 C782 1.419 . S
C781 C776 1.425 . S
C781 C778 1.409 . S
C781 C779 1.415 . S
C782 H772 0.930 . S
C782 C780 1.419 . S
C782 C783 1.362 1_554 S
C783 H773 0.930 . S
C783 C776 1.409 . S
C783 C782 1.362 1_556 S
H784 C790 0.930 . S
H785 C793 0.930 . S
H786 C794 0.930 . S
H787 C795 0.930 . S
H788 C798 0.930 . S
H789 C799 0.930 . S
C790 H784 0.930 . S
C790 C791 1.355 . S
C790 C792 1.415 . S
C791 C790 1.355 . S
C791 C793 1.419 . S
C792 C790 1.415 . S
C792 C797 1.425 . S
C792 C799 1.409 . S
C793 H785 0.930 . S
C793 C791 1.419 . S
C793 C794 1.362 . S
C794 H786 0.930 . S
C794 C793 1.362 . S
C794 C797 1.409 . S
C795 H787 0.930 . S
C795 C796 1.355 . S
C795 C797 1.415 . S
C796 C795 1.355 . S
C796 C798 1.419 . S
C797 C792 1.425 . S
C797 C794 1.409 . S
C797 C795 1.415 . S
C798 H788 0.930 . S
C798 C796 1.419 . S
C798 C799 1.362 . S
C799 H789 0.930 . S
C799 C792 1.409 . S
C799 C798 1.362 . S
H800 C806 0.930 . S
H801 C809 0.930 . S
H802 C810 0.930 . S
H803 C811 0.930 . S
H804 C814 0.930 . S
H805 C815 0.930 . S
C806 H800 0.930 . S
C806 C807 1.355 . S
C806 C808 1.415 . S
C807 C806 1.355 . S
C807 C809 1.419 . S
C808 C806 1.415 . S
C808 C813 1.425 . S
C808 C815 1.409 . S
C809 H801 0.930 . S
C809 C807 1.419 . S
C809 C810 1.362 . S
C810 H802 0.930 . S
C810 C809 1.362 . S
C810 C813 1.409 . S
C811 H803 0.930 . S
C811 C812 1.355 . S
C811 C813 1.415 . S
C812 C811 1.355 . S
C812 C814 1.419 . S
C813 C808 1.425 . S
C813 C810 1.409 . S
C813 C811 1.415 . S
C814 H804 0.930 . S
C814 C812 1.419 . S
C814 C815 1.362 . S
C815 H805 0.930 . S
C815 C808 1.409 . S
C815 C814 1.362 . S
H816 C822 0.930 . S
H817 C825 0.930 . S
H818 C826 0.930 . S
H819 C827 0.930 . S
H820 C830 0.930 . S
H821 C831 0.930 . S
C822 H816 0.930 . S
C822 C823 1.355 . S
C822 C824 1.415 . S
C823 C822 1.355 . S
C823 C825 1.419 . S
C824 C822 1.415 . S
C824 C829 1.425 . S
C824 C831 1.409 . S
C825 H817 0.930 . S
C825 C823 1.419 . S
C825 C826 1.362 . S
C826 H818 0.930 . S
C826 C825 1.362 . S
C826 C829 1.409 . S
C827 H819 0.930 . S
C827 C828 1.355 . S
C827 C829 1.415 . S
C828 C827 1.355 . S
C828 C830 1.419 . S
C829 C824 1.425 . S
C829 C826 1.409 . S
C829 C827 1.415 . S
C830 H820 0.930 . S
C830 C828 1.419 . S
C830 C831 1.362 . S
C831 H821 0.930 . S
C831 C824 1.409 . S
C831 C830 1.362 . S
H832 C838 0.930 . S
H833 C841 0.930 . S
H834 C842 0.930 . S
H835 C843 0.930 . S
H836 C846 0.930 . S
H837 C847 0.930 . S
C838 H832 0.930 . S
C838 C839 1.355 . S
C838 C840 1.415 . S
C839 C838 1.355 . S
C839 C841 1.419 . S
C840 C838 1.415 . S
C840 C845 1.425 . S
C840 C847 1.409 . S
C841 H833 0.930 . S
C841 C839 1.419 . S
C841 C842 1.362 . S
C842 H834 0.930 . S
C842 C841 1.362 . S
C842 C845 1.409 . S
C843 H835 0.930 . S
C843 C844 1.355 . S
C843 C845 1.415 . S
C844 C843 1.355 . S
C844 C846 1.419 . S
C845 C840 1.425 . S
C845 C842 1.409 . S
C845 C843 1.415 . S
C846 H836 0.930 . S
C846 C844 1.419 . S
C846 C847 1.362 . S
C847 H837 0.930 . S
C847 C840 1.409 . S
C847 C846 1.362 . S
H848 C854 0.930 . S
H849 C857 0.930 . S
H850 C858 0.930 . S
H851 C859 0.930 . S
H852 C862 0.930 . S
H853 C863 0.930 . S
C854 H848 0.930 . S
C854 C855 1.355 . S
C854 C856 1.415 . S
C855 C854 1.355 . S
C855 C857 1.419 . S
C856 C854 1.415 . S
C856 C861 1.425 . S
C856 C863 1.409 . S
C857 H849 0.930 . S
C857 C855 1.419 . S
C857 C858 1.362 . S
C858 H850 0.930 . S
C858 C857 1.362 . S
C858 C861 1.409 . S
C859 H851 0.930 . S
C859 C860 1.355 . S
C859 C861 1.415 . S
C860 C859 1.355 . S
C860 C862 1.419 . S
C861 C856 1.425 . S
C861 C858 1.409 . S
C861 C859 1.415 . S
C862 H852 0.930 . S
C862 C860 1.419 . S
C862 C863 1.362 . S
C863 H853 0.930 . S
C863 C856 1.409 . S
C863 C862 1.362 . S
H864 C870 0.930 . S
H865 C873 0.930 . S
H866 C874 0.930 . S
H867 C875 0.930 . S
H868 C878 0.930 . S
H869 C879 0.930 . S
C870 H864 0.930 . S
C870 C871 1.355 . S
C870 C872 1.415 . S
C871 C870 1.355 . S
C871 C873 1.419 . S
C872 C870 1.415 . S
C872 C877 1.425 . S
C872 C879 1.409 . S
C873 H865 0.930 . S
C873 C871 1.419 . S
C873 C874 1.362 . S
C874 H866 0.930 . S
C874 C873 1.362 . S
C874 C877 1.409 . S
C875 H867 0.930 . S
C875 C876 1.355 . S
C875 C877 1.415 . S
C876 C875 1.355 . S
C876 C878 1.419 . S
C877 C872 1.425 . S
C877 C874 1.409 . S
C877 C875 1.415 . S
C878 H868 0.930 . S
C878 C876 1.419 . S
C878 C879 1.362 . S
C879 H869 0.930 . S
C879 C872 1.409 . S
C879 C878 1.362 . S
H880 C886 0.930 . S
H881 C889 0.930 . S
H882 C890 0.930 . S
H883 C891 0.930 . S
H884 C894 0.930 . S
H885 C895 0.930 . S
C886 H880 0.930 . S
C886 C887 1.355 . S
C886 C888 1.415 . S
C887 C886 1.355 . S
C887 C889 1.419 . S
C888 C886 1.415 . S
C888 C893 1.425 . S
C888 C895 1.409 1_554 S
C889 H881 0.930 . S
C889 C887 1.419 . S
C889 C890 1.362 . S
C890 H882 0.930 . S
C890 C889 1.362 . S
C890 C893 1.409 . S
C891 H883 0.930 . S
C891 C892 1.355 . S
C891 C893 1.415 1_556 S
C892 C891 1.355 . S
C892 C894 1.419 . S
C893 C888 1.425 . S
C893 C890 1.409 . S
C893 C891 1.415 1_554 S
C894 H884 0.930 . S
C894 C892 1.419 . S
C894 C895 1.362 . S
C895 H885 0.930 . S
C895 C888 1.409 1_556 S
C895 C894 1.362 . S
H896 C902 0.930 . S
H897 C905 0.930 . S
H898 C906 0.930 . S
H899 C907 0.930 . S
H900 C910 0.930 . S
H901 C911 0.930 . S
C902 H896 0.930 . S
C902 C903 1.355 . S
C902 C904 1.415 . S
C903 C902 1.355 . S
C903 C905 1.419 . S
C904 C902 1.415 . S
C904 C909 1.425 . S
C904 C911 1.409 . S
C905 H897 0.930 . S
C905 C903 1.419 . S
C905 C906 1.362 . S
C906 H898 0.930 . S
C906 C905 1.362 . S
C906 C909 1.409 . S
C907 H899 0.930 . S
C907 C908 1.355 . S
C907 C909 1.415 . S
C908 C907 1.355 . S
C908 C910 1.419 . S
C909 C904 1.425 . S
C909 C906 1.409 . S
C909 C907 1.415 . S
C910 H900 0.930 . S
C910 C908 1.419 . S
C910 C911 1.362 . S
C911 H901 0.930 . S
C911 C904 1.409 . S
C911 C910 1.362 . S
C540 C514 1.515 . S
C535 C51 1.487 . S
C551 C125 1.451 . S
C556 C455 1.450 . S
C567 C217 2.579 . S
C572 C458 2.637 . S
C583 C291 1.565 . S
C588 C472 1.562 . S
C604 C497 1.072 . S
C599 C347 1.025 . S
C615 C421 0.988 . S
C620 C500 1.015 . S
C631 C143 2.189 . S
C636 C469 2.191 . S
C647 C199 1.550 . S
C652 C483 1.589 . S
C663 C273 0.677 . S
C668 C486 0.676 . S
C684 C511 1.756 . S
C679 C365 1.727 . S
C700 C525 1.789 . S
C695 C439 1.786 . S
C716 C444 2.503 . S
C711 C69 2.449 . S
C727 C63 1.499 . S
C732 C467 1.571 . S
C743 C137 1.627 . S
C748 C481 1.681 . S
C764 C491 1.461 . S
C759 C187 1.421 . S
C775 C261 1.556 . S
C780 C509 1.576 . S
C796 C523 1.710 . S
C791 C359 1.531 . S
C812 C449 1.299 . S
C807 C433 1.171 . S
C828 C519 1.688 . S
C823 C113 1.652 . S
C839 C211 1.425 . S
C844 C453 1.472 . S
C860 C463 1.713 . S
C855 C285 1.547 . S
C871 C335 1.413 . S
C876 C477 1.527 . S
C887 C409 1.366 . S
C892 C495 1.379 . S
C903 C39 1.634 . S
C908 C505 1.657 . S
