# Generated by pormake.
# Topology ctn, (3,4)-cn, num edge types: 1
# Building blocks:
#     Node 0, Type 0, BuildingBlock: BELTOD_clean_linker_0, # of connection points: 3
#     Node 1, Type 0, BuildingBlock: BELTOD_clean_linker_0, # of connection points: 3
#     Node 2, Type 0, BuildingBlock: BELTOD_clean_linker_0, # of connection points: 3
#     Node 3, Type 0, BuildingBlock: BELTOD_clean_linker_0, # of connection points: 3
#     Node 4, Type 0, BuildingBlock: BELTOD_clean_linker_0, # of connection points: 3
#     Node 5, Type 0, BuildingBlock: BELTOD_clean_linker_0, # of connection points: 3
#     Node 6, Type 0, BuildingBlock: BELTOD_clean_linker_0, # of connection points: 3
#     Node 7, Type 0, BuildingBlock: BELTOD_clean_linker_0, # of connection points: 3
#     Node 8, Type 0, BuildingBlock: BELTOD_clean_linker_0, # of connection points: 3
#     Node 9, Type 0, BuildingBlock: BELTOD_clean_linker_0, # of connection points: 3
#     Node 10, Type 0, BuildingBlock: BELTOD_clean_linker_0, # of connection points: 3
#     Node 11, Type 0, BuildingBlock: BELTOD_clean_linker_0, # of connection points: 3
#     Node 12, Type 0, BuildingBlock: BELTOD_clean_linker_0, # of connection points: 3
#     Node 13, Type 0, BuildingBlock: BELTOD_clean_linker_0, # of connection points: 3
#     Node 14, Type 0, BuildingBlock: BELTOD_clean_linker_0, # of connection points: 3
#     Node 15, Type 0, BuildingBlock: BELTOD_clean_linker_0, # of connection points: 3
#     Node 16, Type 1, BuildingBlock: UXUYUI_clean_sbu_0, # of connection points: 4
#     Node 17, Type 1, BuildingBlock: UXUYUI_clean_sbu_0, # of connection points: 4
#     Node 18, Type 1, BuildingBlock: UXUYUI_clean_sbu_0, # of connection points: 4
#     Node 19, Type 1, BuildingBlock: UXUYUI_clean_sbu_0, # of connection points: 4
#     Node 20, Type 1, BuildingBlock: UXUYUI_clean_sbu_0, # of connection points: 4
#     Node 21, Type 1, BuildingBlock: UXUYUI_clean_sbu_0, # of connection points: 4
#     Node 22, Type 1, BuildingBlock: UXUYUI_clean_sbu_0, # of connection points: 4
#     Node 23, Type 1, BuildingBlock: UXUYUI_clean_sbu_0, # of connection points: 4
#     Node 24, Type 1, BuildingBlock: UXUYUI_clean_sbu_0, # of connection points: 4
#     Node 25, Type 1, BuildingBlock: UXUYUI_clean_sbu_0, # of connection points: 4
#     Node 26, Type 1, BuildingBlock: UXUYUI_clean_sbu_0, # of connection points: 4
#     Node 27, Type 1, BuildingBlock: UXUYUI_clean_sbu_0, # of connection points: 4
#     Edge 28, Type (0, 1), BuildingBlock: CIFDUS_clean_linker_0, # of connection points: 2
#     Edge 29, Type (0, 1), BuildingBlock: CIFDUS_clean_linker_0, # of connection points: 2
#     Edge 30, Type (0, 1), BuildingBlock: CIFDUS_clean_linker_0, # of connection points: 2
#     Edge 31, Type (0, 1), BuildingBlock: CIFDUS_clean_linker_0, # of connection points: 2
#     Edge 32, Type (0, 1), BuildingBlock: CIFDUS_clean_linker_0, # of connection points: 2
#     Edge 33, Type (0, 1), BuildingBlock: CIFDUS_clean_linker_0, # of connection points: 2
#     Edge 34, Type (0, 1), BuildingBlock: CIFDUS_clean_linker_0, # of connection points: 2
#     Edge 35, Type (0, 1), BuildingBlock: CIFDUS_clean_linker_0, # of connection points: 2
#     Edge 36, Type (0, 1), BuildingBlock: CIFDUS_clean_linker_0, # of connection points: 2
#     Edge 37, Type (0, 1), BuildingBlock: CIFDUS_clean_linker_0, # of connection points: 2
#     Edge 38, Type (0, 1), BuildingBlock: CIFDUS_clean_linker_0, # of connection points: 2
#     Edge 39, Type (0, 1), BuildingBlock: CIFDUS_clean_linker_0, # of connection points: 2
#     Edge 40, Type (0, 1), BuildingBlock: CIFDUS_clean_linker_0, # of connection points: 2
#     Edge 41, Type (0, 1), BuildingBlock: CIFDUS_clean_linker_0, # of connection points: 2
#     Edge 42, Type (0, 1), BuildingBlock: CIFDUS_clean_linker_0, # of connection points: 2
#     Edge 43, Type (0, 1), BuildingBlock: CIFDUS_clean_linker_0, # of connection points: 2
#     Edge 44, Type (0, 1), BuildingBlock: CIFDUS_clean_linker_0, # of connection points: 2
#     Edge 45, Type (0, 1), BuildingBlock: CIFDUS_clean_linker_0, # of connection points: 2
#     Edge 46, Type (0, 1), BuildingBlock: CIFDUS_clean_linker_0, # of connection points: 2
#     Edge 47, Type (0, 1), BuildingBlock: CIFDUS_clean_linker_0, # of connection points: 2
#     Edge 48, Type (0, 1), BuildingBlock: CIFDUS_clean_linker_0, # of connection points: 2
#     Edge 49, Type (0, 1), BuildingBlock: CIFDUS_clean_linker_0, # of connection points: 2
#     Edge 50, Type (0, 1), BuildingBlock: CIFDUS_clean_linker_0, # of connection points: 2
#     Edge 51, Type (0, 1), BuildingBlock: CIFDUS_clean_linker_0, # of connection points: 2
#     Edge 52, Type (0, 1), BuildingBlock: CIFDUS_clean_linker_0, # of connection points: 2
#     Edge 53, Type (0, 1), BuildingBlock: CIFDUS_clean_linker_0, # of connection points: 2
#     Edge 54, Type (0, 1), BuildingBlock: CIFDUS_clean_linker_0, # of connection points: 2
#     Edge 55, Type (0, 1), BuildingBlock: CIFDUS_clean_linker_0, # of connection points: 2
#     Edge 56, Type (0, 1), BuildingBlock: CIFDUS_clean_linker_0, # of connection points: 2
#     Edge 57, Type (0, 1), BuildingBlock: CIFDUS_clean_linker_0, # of connection points: 2
#     Edge 58, Type (0, 1), BuildingBlock: CIFDUS_clean_linker_0, # of connection points: 2
#     Edge 59, Type (0, 1), BuildingBlock: CIFDUS_clean_linker_0, # of connection points: 2
#     Edge 60, Type (0, 1), BuildingBlock: CIFDUS_clean_linker_0, # of connection points: 2
#     Edge 61, Type (0, 1), BuildingBlock: CIFDUS_clean_linker_0, # of connection points: 2
#     Edge 62, Type (0, 1), BuildingBlock: CIFDUS_clean_linker_0, # of connection points: 2
#     Edge 63, Type (0, 1), BuildingBlock: CIFDUS_clean_linker_0, # of connection points: 2
#     Edge 64, Type (0, 1), BuildingBlock: CIFDUS_clean_linker_0, # of connection points: 2
#     Edge 65, Type (0, 1), BuildingBlock: CIFDUS_clean_linker_0, # of connection points: 2
#     Edge 66, Type (0, 1), BuildingBlock: CIFDUS_clean_linker_0, # of connection points: 2
#     Edge 67, Type (0, 1), BuildingBlock: CIFDUS_clean_linker_0, # of connection points: 2
#     Edge 68, Type (0, 1), BuildingBlock: CIFDUS_clean_linker_0, # of connection points: 2
#     Edge 69, Type (0, 1), BuildingBlock: CIFDUS_clean_linker_0, # of connection points: 2
#     Edge 70, Type (0, 1), BuildingBlock: CIFDUS_clean_linker_0, # of connection points: 2
#     Edge 71, Type (0, 1), BuildingBlock: CIFDUS_clean_linker_0, # of connection points: 2
#     Edge 72, Type (0, 1), BuildingBlock: CIFDUS_clean_linker_0, # of connection points: 2
#     Edge 73, Type (0, 1), BuildingBlock: CIFDUS_clean_linker_0, # of connection points: 2
#     Edge 74, Type (0, 1), BuildingBlock: CIFDUS_clean_linker_0, # of connection points: 2
#     Edge 75, Type (0, 1), BuildingBlock: CIFDUS_clean_linker_0, # of connection points: 2
# Relax obj value: 0.001
# Max RMSD: 0.018
# Mean RMSD: 0.012
data_MOF--net-ctn--node1-UXUYUI_clean_sbu_0--node2-BELTOD_clean_linker_0--edge1-CIFDUS_clean_linker_0
_symmetry_space_group_name_H-M    P1
_symmetry_Int_Tables_number       1
_symmetry_cell_setting            triclinic
loop_
_symmetry_equiv_pos_as_xyz
'x, y, z'
_cell_length_a     68.720757
_cell_length_b     69.208642
_cell_length_c     68.587565
_cell_angle_alpha  89.357507
_cell_angle_beta   90.102636
_cell_angle_gamma 90.763002
loop_
_atom_site_label
_atom_site_type_symbol
_atom_site_fract_x
_atom_site_fract_y
_atom_site_fract_z
_atom_type_partial_charge
P0 P 0.05997 0.06251 0.06365 0.0
H1 H 0.05683 0.03115 0.09216 0.0
H2 H 0.03013 0.01961 0.11301 0.0
H3 H 0.99138 0.05971 0.0846 0.0
H4 H 0.01807 0.07127 0.06395 0.0
H5 H 0.10153 0.06395 0.05644 0.0
H6 H 0.12466 0.04039 0.04465 0.0
H7 H 0.07777 0.99884 0.0374 0.0
H8 H 0.05464 0.0226 0.04954 0.0
H9 H 0.06914 0.10314 0.05537 0.0
H10 H 0.03557 0.05735 0.02885 0.0
O11 O 0.07205 0.07529 0.08037 0.0
H12 H 0.05912 0.12543 0.02963 0.0
H13 H 0.02546 0.07974 0.00277 0.0
C14 C 0.03939 0.05173 0.07614 0.0
C15 C 0.04248 0.03714 0.09011 0.0
C16 C 0.02726 0.03068 0.10213 0.0
C17 C 0.00865 0.03875 0.10044 0.0
C18 C 0.00547 0.05301 0.08606 0.0
C19 C 0.02076 0.05959 0.07418 0.0
C20 C 0.07647 0.04488 0.05427 0.0
C21 C 0.09622 0.04976 0.05236 0.0
C22 C 0.10942 0.03629 0.04545 0.0
C23 C 0.10311 0.01767 0.04012 0.0
C24 C 0.08316 0.01295 0.04166 0.0
C25 C 0.06992 0.02652 0.04855 0.0
C26 C 0.0529 0.07864 0.04414 0.0
C27 C 0.05963 0.09785 0.04397 0.0
C28 C 0.05399 0.11058 0.02914 0.0
C29 C 0.04149 0.10437 0.01415 0.0
C30 C 0.03495 0.085 0.01423 0.0
C31 C 0.04075 0.0722 0.02904 0.0
P32 P 0.31768 0.69637 0.19571 0.0
H33 H 0.33857 0.71975 0.16711 0.0
H34 H 0.32912 0.74601 0.14531 0.0
H35 H 0.27074 0.74329 0.1686 0.0
H36 H 0.28033 0.7166 0.19029 0.0
H37 H 0.32886 0.6763 0.23138 0.0
H38 H 0.34852 0.68594 0.25944 0.0
H39 H 0.35243 0.74413 0.23615 0.0
H40 H 0.33243 0.73448 0.20837 0.0
H41 H 0.30586 0.66018 0.17756 0.0
H42 H 0.28641 0.69532 0.22506 0.0
O43 O 0.33486 0.68445 0.1838 0.0
H44 H 0.2817 0.63539 0.18618 0.0
H45 H 0.26197 0.67043 0.23376 0.0
C46 C 0.31009 0.716 0.18008 0.0
C47 C 0.32371 0.72473 0.16749 0.0
C48 C 0.31831 0.7399 0.15514 0.0
C49 C 0.29915 0.7468 0.15518 0.0
C50 C 0.28554 0.73816 0.16803 0.0
C51 C 0.29101 0.72294 0.18048 0.0
C52 C 0.32893 0.70469 0.21789 0.0
C53 C 0.33355 0.69124 0.23255 0.0
C54 C 0.34498 0.69673 0.24849 0.0
C55 C 0.35218 0.71578 0.24998 0.0
C56 C 0.34695 0.7294 0.23557 0.0
C57 C 0.33552 0.72387 0.21961 0.0
C58 C 0.29816 0.67942 0.2009 0.0
C59 C 0.29632 0.66262 0.18981 0.0
C60 C 0.28253 0.64841 0.19478 0.0
C61 C 0.27014 0.65085 0.21082 0.0
C62 C 0.27134 0.66816 0.22134 0.0
C63 C 0.28531 0.68234 0.21642 0.0
P64 P 0.98148 0.48237 0.02688 0.0
H65 H 0.97485 0.47215 0.98651 0.0
H66 H 0.97275 0.44127 0.96964 0.0
H67 H 0.97799 0.41105 0.02484 0.0
H68 H 0.97968 0.44207 0.04165 0.0
H69 H 0.97442 0.5236 0.02393 0.0
H70 H 0.94497 0.5428 0.0245 0.0
H71 H 0.91043 0.49068 0.03277 0.0
H72 H 0.94016 0.47147 0.03164 0.0
H73 H 0.01864 0.46758 0.03998 0.0
H74 H 0.96781 0.49197 0.06645 0.0
O75 O 0.99758 0.49471 0.01327 0.0
H76 H 0.03493 0.46691 0.0717 0.0
H77 H 0.98413 0.4917 0.09814 0.0
C78 C 0.97775 0.45939 0.01526 0.0
C79 C 0.97539 0.45886 0.99499 0.0
C80 C 0.97432 0.4412 0.98536 0.0
C81 C 0.97551 0.42367 0.99585 0.0
C82 C 0.97699 0.42427 0.01632 0.0
C83 C 0.97808 0.44201 0.02595 0.0
C84 C 0.95941 0.49611 0.02734 0.0
C85 C 0.9605 0.51628 0.02572 0.0
C86 C 0.94363 0.52727 0.02626 0.0
C87 C 0.92527 0.51832 0.02869 0.0
C88 C 0.92428 0.49803 0.03059 0.0
C89 C 0.94125 0.48703 0.03 0.0
C90 C 0.9921 0.47993 0.05082 0.0
C91 C 0.01095 0.47267 0.05266 0.0
C92 C 0.02028 0.47242 0.07078 0.0
C93 C 0.01092 0.47947 0.08743 0.0
C94 C 0.99171 0.48608 0.08564 0.0
C95 C 0.98238 0.48632 0.06747 0.0
P96 P 0.6956 0.80756 0.19287 0.0
H97 H 0.70179 0.84915 0.18861 0.0
H98 H 0.7275 0.87109 0.1994 0.0
H99 H 0.75639 0.82347 0.22809 0.0
H100 H 0.73057 0.8014 0.21675 0.0
H101 H 0.67964 0.76844 0.18772 0.0
H102 H 0.6904 0.74112 0.16844 0.0
H103 H 0.74266 0.77289 0.15275 0.0
H104 H 0.7319 0.80015 0.17221 0.0
H105 H 0.66077 0.82718 0.20535 0.0
H106 H 0.6935 0.7775 0.22374 0.0
O107 O 0.68358 0.81889 0.17504 0.0
H108 H 0.63639 0.82002 0.23023 0.0
H109 H 0.66867 0.7697 0.24835 0.0
C110 C 0.71447 0.8236 0.20159 0.0
C111 C 0.71365 0.84338 0.19717 0.0
C112 C 0.72832 0.85597 0.20353 0.0
C113 C 0.74405 0.84907 0.21462 0.0
C114 C 0.74462 0.82923 0.21935 0.0
C115 C 0.72987 0.81661 0.21297 0.0
C116 C 0.70528 0.78611 0.18202 0.0
C117 C 0.69374 0.7693 0.18073 0.0
C118 C 0.69986 0.7537 0.16961 0.0
C119 C 0.71741 0.75483 0.15913 0.0
C120 C 0.72906 0.77161 0.16065 0.0
C121 C 0.72301 0.78712 0.17194 0.0
C122 C 0.67858 0.8025 0.21228 0.0
C123 C 0.66262 0.8146 0.21468 0.0
C124 C 0.64862 0.81042 0.22887 0.0
C125 C 0.65028 0.79401 0.24104 0.0
C126 C 0.66687 0.78242 0.23923 0.0
C127 C 0.681 0.78675 0.22506 0.0
P128 P 0.05666 0.9477 0.44801 0.0
H129 H 0.09772 0.94872 0.45808 0.0
H130 H 0.12031 0.97484 0.46644 0.0
H131 H 0.07301 0.01538 0.46434 0.0
H132 H 0.05053 0.98909 0.45555 0.0
H133 H 0.03641 0.91074 0.4486 0.0
H134 H 0.02713 0.8882 0.47472 0.0
H135 H 0.05128 0.92749 0.51721 0.0
H136 H 0.06007 0.95021 0.49096 0.0
H137 H 0.0534 0.96488 0.40934 0.0
H138 H 0.01474 0.95047 0.45691 0.0
O139 O 0.0694 0.93417 0.43276 0.0
H140 H 0.02559 0.97403 0.38917 0.0
H141 H 0.98681 0.95976 0.43688 0.0
C142 C 0.07256 0.96703 0.45586 0.0
C143 C 0.0922 0.96323 0.45948 0.0
C144 C 0.10509 0.97818 0.46442 0.0
C145 C 0.09853 0.99728 0.46597 0.0
C146 C 0.07862 1.00091 0.46294 0.0
C147 C 0.06572 0.98588 0.458 0.0
C148 C 0.04906 0.93204 0.46782 0.0
C149 C 0.03962 0.91452 0.46356 0.0
C150 C 0.03445 0.9016 0.47851 0.0
C151 C 0.03866 0.90591 0.49808 0.0
C152 C 0.04773 0.92375 0.50232 0.0
C153 C 0.05287 0.93672 0.4873 0.0
C154 C 0.03611 0.95666 0.43446 0.0
C155 C 0.03892 0.96389 0.4155 0.0
C156 C 0.023 0.96924 0.40403 0.0
C157 C 0.00393 0.96748 0.41135 0.0
C158 C 1.00127 0.96098 0.4307 0.0
C159 C 0.01724 0.9557 0.44219 0.0
P160 P 0.23347 0.73411 0.77297 0.0
H161 H 0.24441 0.77248 0.78641 0.0
H162 H 0.24394 0.78774 0.81823 0.0
H163 H 0.21946 0.73544 0.84364 0.0
H164 H 0.22022 0.72009 0.81151 0.0
H165 H 0.22848 0.70219 0.74579 0.0
H166 H 0.24382 0.67079 0.74334 0.0
H167 H 0.27503 0.68154 0.79697 0.0
H168 H 0.25901 0.71268 0.79967 0.0
H169 H 0.21609 0.76624 0.75213 0.0
H170 H 0.19883 0.70849 0.76945 0.0
O171 O 0.24962 0.7465 0.75947 0.0
H172 H 0.18549 0.7701 0.73462 0.0
H173 H 0.16846 0.71179 0.75105 0.0
C174 C 0.23279 0.745 0.79671 0.0
C175 C 0.23903 0.76422 0.79882 0.0
C176 C 0.23857 0.77301 0.81703 0.0
C177 C 0.23169 0.76282 0.83353 0.0
C178 C 0.22509 0.74361 0.83128 0.0
C179 C 0.22548 0.73483 0.81296 0.0
C180 C 0.24194 0.70952 0.77332 0.0
C181 C 0.23805 0.69752 0.75741 0.0
C182 C 0.24713 0.67965 0.75586 0.0
C183 C 0.26074 0.67359 0.76993 0.0
C184 C 0.26438 0.68554 0.78605 0.0
C185 C 0.25517 0.70338 0.78764 0.0
C186 C 0.21003 0.73685 0.76148 0.0
C187 C 0.20574 0.7543 0.75201 0.0
C188 C 0.18824 0.75644 0.74189 0.0
C189 C 0.17463 0.74109 0.74094 0.0
C190 C 0.17856 0.72391 0.75138 0.0
C191 C 0.19604 0.72191 0.76175 0.0
P192 P 0.98435 0.52371 0.48438 0.0
H193 H 0.01954 0.50301 0.47382 0.0
H194 H 0.03706 0.49962 0.44324 0.0
H195 H 0.99712 0.53869 0.41498 0.0
H196 H 0.9796 0.54216 0.44594 0.0
H197 H 0.00986 0.54196 0.51273 0.0
H198 H 0.01024 0.57351 0.52802 0.0
H199 H 0.96073 0.59029 0.49303 0.0
H200 H 0.96103 0.55871 0.47714 0.0
H201 H 0.9701 0.49198 0.46071 0.0
H202 H 0.94578 0.53274 0.50068 0.0
O203 O 0.99456 0.50901 0.5008 0.0
H204 H 0.93886 0.47528 0.45864 0.0
H205 H 0.91402 0.51704 0.4976 0.0
C206 C 0.99824 0.52284 0.46215 0.0
C207 C 0.01458 0.51099 0.46114 0.0
C208 C 0.02454 0.50895 0.44357 0.0
C209 C 0.01838 0.51873 0.42662 0.0
C210 C 0.00229 0.53105 0.42781 0.0
C211 C 0.99226 0.53303 0.44545 0.0
C212 C 0.985 0.54775 0.49428 0.0
C213 C 0.99907 0.5524 0.50832 0.0
C214 C 0.99919 0.57047 0.51716 0.0
C215 C 0.9852 0.58434 0.51217 0.0
C216 C 0.97168 0.57996 0.49732 0.0
C217 C 0.97172 0.56186 0.48832 0.0
C218 C 0.9602 0.51402 0.48033 0.0
C219 C 0.95783 0.49778 0.46852 0.0
C220 C 0.93983 0.48824 0.4673 0.0
C221 C 0.92368 0.49478 0.47786 0.0
C222 C 0.92608 0.51135 0.48943 0.0
C223 C 0.94423 0.52065 0.49091 0.0
P224 P 0.80867 0.8121 0.80986 0.0
H225 H 0.82638 0.83028 0.77577 0.0
H226 H 0.84816 0.81825 0.7507 0.0
H227 H 0.83985 0.76014 0.77321 0.0
H228 H 0.81854 0.77238 0.79852 0.0
H229 H 0.8007 0.85164 0.82153 0.0
H230 H 0.77651 0.87517 0.81123 0.0
H231 H 0.75083 0.83327 0.77247 0.0
H232 H 0.77573 0.80976 0.78229 0.0
H233 H 0.82621 0.79241 0.84302 0.0
H234 H 0.77147 0.79006 0.81227 0.0
O235 O 0.82574 0.82449 0.82196 0.0
H236 H 0.81468 0.76737 0.86555 0.0
H237 H 0.75992 0.76455 0.83454 0.0
C238 C 0.82075 0.80226 0.78896 0.0
C239 C 0.82891 0.81489 0.77502 0.0
C240 C 0.84135 0.80796 0.76064 0.0
C241 C 0.84593 0.78821 0.75999 0.0
C242 C 0.83693 0.77547 0.77347 0.0
C243 C 0.82455 0.78245 0.78788 0.0
C244 C 0.79007 0.82893 0.80264 0.0
C245 C 0.78996 0.84743 0.81076 0.0
C246 C 0.77614 0.8609 0.80489 0.0
C247 C 0.76188 0.85601 0.79106 0.0
C248 C 0.76166 0.83732 0.78323 0.0
C249 C 0.77582 0.82393 0.78883 0.0
C250 C 0.79957 0.79346 0.8262 0.0
C251 C 0.81166 0.78653 0.84112 0.0
C252 C 0.8051 0.77201 0.8539 0.0
C253 C 0.78634 0.76391 0.85191 0.0
C254 C 0.77434 0.77067 0.83669 0.0
C255 C 0.78095 0.78526 0.82389 0.0
P256 P 0.31147 0.31278 0.31408 0.0
H257 H 0.35365 0.3099 0.3143 0.0
H258 H 0.37702 0.29716 0.29124 0.0
H259 H 0.32994 0.28079 0.25275 0.0
H260 H 0.30643 0.29364 0.27613 0.0
H261 H 0.27385 0.32454 0.32901 0.0
H262 H 0.25015 0.34789 0.31738 0.0
H263 H 0.28276 0.35507 0.26385 0.0
H264 H 0.30693 0.33256 0.27615 0.0
H265 H 0.32464 0.29807 0.35169 0.0
H266 H 0.27981 0.28406 0.30996 0.0
O267 O 0.32363 0.32842 0.32806 0.0
H268 H 0.31341 0.27179 0.3729 0.0
H269 H 0.26863 0.25722 0.33102 0.0
C270 C 0.32834 0.3032 0.29668 0.0
C271 C 0.3483 0.30368 0.30087 0.0
C272 C 0.36167 0.29622 0.28774 0.0
C273 C 0.35534 0.28803 0.27013 0.0
C274 C 0.33526 0.28725 0.26608 0.0
C275 C 0.32183 0.29457 0.2794 0.0
C276 C 0.2919 0.32633 0.30325 0.0
C277 C 0.27563 0.33078 0.31457 0.0
C278 C 0.26203 0.34418 0.30784 0.0
C279 C 0.26445 0.35349 0.28962 0.0
C280 C 0.2805 0.34846 0.27806 0.0
C281 C 0.29421 0.33525 0.28494 0.0
C282 C 0.3028 0.29326 0.32946 0.0
C283 C 0.31232 0.28933 0.3471 0.0
C284 C 0.30599 0.27412 0.35915 0.0
C285 C 0.2901 0.26233 0.3537 0.0
C286 C 0.28074 0.26616 0.3358 0.0
C287 C 0.28713 0.28144 0.32372 0.0
P288 P 0.48107 0.97955 0.5258 0.0
H289 H 0.47985 0.96957 0.48476 0.0
H290 H 0.47793 0.93879 0.46772 0.0
H291 H 0.47271 0.90862 0.52301 0.0
H292 H 0.47428 0.9396 0.53995 0.0
H293 H 0.47451 0.02023 0.53241 0.0
H294 H 0.44563 0.04034 0.53071 0.0
H295 H 0.41038 0.98984 0.51795 0.0
H296 H 0.43941 0.96972 0.52013 0.0
H297 H 0.51632 0.96075 0.53872 0.0
H298 H 0.46915 0.99125 0.56539 0.0
O299 O 0.49742 0.99229 0.51287 0.0
H300 H 0.53295 0.9588 0.57018 0.0
H301 H 0.48563 0.98922 0.59696 0.0
C302 C 0.47765 0.95682 0.51361 0.0
C303 C 0.4782 0.95633 0.49321 0.0
C304 C 0.4772 0.93872 0.4835 0.0
C305 C 0.4755 0.92121 0.49401 0.0
C306 C 0.47401 0.92183 0.51447 0.0
C307 C 0.47503 0.93952 0.52419 0.0
C308 C 0.45915 0.99356 0.52613 0.0
C309 C 0.46054 0.01347 0.52936 0.0
C310 C 0.44402 0.02496 0.52827 0.0
C311 C 0.42571 0.01676 0.52391 0.0
C312 C 0.42424 0.99662 0.5214 0.0
C313 C 0.44085 0.9851 0.52252 0.0
C314 C 0.49153 0.97614 0.54969 0.0
C315 C 0.50941 0.96677 0.55143 0.0
C316 C 0.51887 0.96561 0.56945 0.0
C317 C 0.51066 0.97392 0.5861 0.0
C318 C 0.49246 0.9829 0.58438 0.0
C319 C 0.48296 0.98398 0.56632 0.0
P320 P 0.19318 0.31245 0.69317 0.0
H321 H 0.22024 0.33815 0.67275 0.0
H322 H 0.2452 0.36093 0.68405 0.0
H323 H 0.23637 0.3406 0.74321 0.0
H324 H 0.21135 0.31794 0.73181 0.0
H325 H 0.16948 0.28407 0.67316 0.0
H326 H 0.17681 0.25885 0.64981 0.0
H327 H 0.23818 0.27213 0.65538 0.0
H328 H 0.23071 0.29709 0.67918 0.0
H329 H 0.16565 0.33276 0.71737 0.0
H330 H 0.18798 0.275 0.71365 0.0
O331 O 0.17972 0.32718 0.67942 0.0
H332 H 0.1435 0.32225 0.74335 0.0
H333 H 0.16588 0.26435 0.73975 0.0
C334 C 0.2138 0.32651 0.70144 0.0
C335 C 0.22391 0.33839 0.68812 0.0
C336 C 0.23823 0.35136 0.6946 0.0
C337 C 0.24265 0.35272 0.71457 0.0
C338 C 0.23308 0.34012 0.72777 0.0
C339 C 0.21882 0.32708 0.72125 0.0
C340 C 0.19951 0.29248 0.67787 0.0
C341 C 0.18453 0.28138 0.66955 0.0
C342 C 0.18875 0.26706 0.65608 0.0
C343 C 0.20807 0.26361 0.65052 0.0
C344 C 0.22315 0.27434 0.65941 0.0
C345 C 0.21889 0.2887 0.67296 0.0
C346 C 0.1781 0.30457 0.7133 0.0
C347 C 0.16583 0.31781 0.72222 0.0
C348 C 0.15328 0.31182 0.73718 0.0
C349 C 0.15281 0.29242 0.74352 0.0
C350 C 0.16566 0.27931 0.73496 0.0
C351 C 0.17831 0.28538 0.72006 0.0
P352 P 0.80499 0.19713 0.70202 0.0
H353 H 0.82286 0.21423 0.66726 0.0
H354 H 0.81264 0.23932 0.64442 0.0
H355 H 0.76169 0.24928 0.67963 0.0
H356 H 0.77186 0.2236 0.70222 0.0
H357 H 0.8187 0.17648 0.73639 0.0
H358 H 0.8401 0.18555 0.76335 0.0
H359 H 0.84403 0.24378 0.74023 0.0
H360 H 0.82254 0.2346 0.71325 0.0
H361 H 0.78112 0.17032 0.67989 0.0
H362 H 0.78193 0.19273 0.73827 0.0
O363 O 0.81965 0.18287 0.68943 0.0
H364 H 0.7541 0.1487 0.68861 0.0
H365 H 0.75553 0.17047 0.74746 0.0
C366 C 0.79793 0.21683 0.68623 0.0
C367 C 0.80949 0.22181 0.67009 0.0
C368 C 0.80369 0.23633 0.6571 0.0
C369 C 0.78627 0.24634 0.66009 0.0
C370 C 0.77501 0.24167 0.67668 0.0
C371 C 0.78084 0.22707 0.68967 0.0
C372 C 0.81867 0.20494 0.72304 0.0
C373 C 0.82383 0.19131 0.73735 0.0
C374 C 0.83606 0.19652 0.75276 0.0
C375 C 0.8437 0.21542 0.75399 0.0
C376 C 0.83843 0.2291 0.73965 0.0
C377 C 0.82603 0.22389 0.72429 0.0
C378 C 0.78389 0.18272 0.70856 0.0
C379 C 0.77551 0.17051 0.69464 0.0
C380 C 0.76014 0.15805 0.6997 0.0
C381 C 0.75285 0.15748 0.71888 0.0
C382 C 0.76072 0.17047 0.73257 0.0
C383 C 0.776 0.18309 0.72739 0.0
P384 P 0.56557 0.56133 0.56726 0.0
H385 H 0.56576 0.5491 0.6078 0.0
H386 H 0.54027 0.53845 0.63034 0.0
H387 H 0.49736 0.54536 0.58473 0.0
H388 H 0.5231 0.55625 0.56223 0.0
H389 H 0.60018 0.55875 0.5432 0.0
H390 H 0.62105 0.5318 0.53456 0.0
H391 H 0.58108 0.49207 0.56324 0.0
H392 H 0.56043 0.51905 0.57195 0.0
H393 H 0.55548 0.60192 0.56608 0.0
H394 H 0.55597 0.55447 0.52592 0.0
O395 O 0.58133 0.57448 0.58026 0.0
H396 H 0.54591 0.62384 0.53978 0.0
H397 H 0.54595 0.57627 0.49946 0.0
C398 C 0.54627 0.55378 0.58348 0.0
C399 C 0.55086 0.54843 0.60268 0.0
C400 C 0.53627 0.54218 0.61549 0.0
C401 C 0.51676 0.54104 0.60933 0.0
C402 C 0.51222 0.5463 0.58998 0.0
C403 C 0.5269 0.55249 0.5771 0.0
C404 C 0.57882 0.54096 0.55829 0.0
C405 C 0.59578 0.54419 0.54734 0.0
C406 C 0.60766 0.52876 0.54237 0.0
C407 C 0.60281 0.50978 0.54834 0.0
C408 C 0.58538 0.50654 0.55868 0.0
C409 C 0.57348 0.52199 0.56359 0.0
C410 C 0.55681 0.57669 0.54786 0.0
C411 C 0.55336 0.5962 0.55159 0.0
C412 C 0.54773 0.6087 0.53653 0.0
C413 C 0.54525 0.60187 0.51743 0.0
C414 C 0.54805 0.58208 0.51391 0.0
C415 C 0.55371 0.56958 0.52904 0.0
P416 P 0.55874 0.44585 0.94902 0.0
H417 H 0.58597 0.44916 0.98158 0.0
H418 H 0.60634 0.47587 0.99322 0.0
H419 H 0.57978 0.51396 0.95078 0.0
H420 H 0.55907 0.48747 0.93981 0.0
H421 H 0.55484 0.4041 0.94691 0.0
H422 H 0.54423 0.37923 0.97012 0.0
H423 H 0.53291 0.42323 0.01272 0.0
H424 H 0.54399 0.44813 0.98934 0.0
H425 H 0.55758 0.45964 0.90886 0.0
H426 H 0.51635 0.44852 0.95506 0.0
O427 O 0.57536 0.4355 0.93499 0.0
H428 H 0.53117 0.46909 0.88712 0.0
H429 H 0.48964 0.45731 0.93317 0.0
C430 C 0.57071 0.46633 0.96008 0.0
C431 C 0.58415 0.4634 0.97518 0.0
C432 C 0.59598 0.47865 0.98164 0.0
C433 C 0.59484 0.4971 0.97287 0.0
C434 C 0.58091 0.50007 0.9581 0.0
C435 C 0.56903 0.48484 0.95175 0.0
C436 C 0.55061 0.4279 0.96656 0.0
C437 C 0.55018 0.40841 0.96128 0.0
C438 C 0.54392 0.3942 0.97453 0.0
C439 C 0.53773 0.3992 0.99333 0.0
C440 C 0.53786 0.41885 0.99847 0.0
C441 C 0.54415 0.4331 0.98513 0.0
C442 C 0.5389 0.45303 0.93344 0.0
C443 C 0.54278 0.45906 0.91426 0.0
C444 C 0.52762 0.46437 0.90181 0.0
C445 C 0.5082 0.4637 0.90826 0.0
C446 C 0.50441 0.45808 0.92771 0.0
C447 C 0.51966 0.45289 0.94022 0.0
P448 P 0.73696 0.23417 0.27603 0.0
H449 H 0.76605 0.23423 0.3067 0.0
H450 H 0.7688 0.25126 0.33757 0.0
H451 H 0.71141 0.27462 0.32878 0.0
H452 H 0.70862 0.25717 0.298 0.0
H453 H 0.75651 0.21174 0.24652 0.0
H454 H 0.77183 0.18013 0.24716 0.0
H455 H 0.75168 0.17086 0.30622 0.0
H456 H 0.7365 0.20272 0.30549 0.0
H457 H 0.72055 0.26322 0.25006 0.0
H458 H 0.70207 0.20884 0.27565 0.0
O459 O 0.75288 0.24748 0.26313 0.0
H460 H 0.69035 0.26474 0.23141 0.0
H461 H 0.67157 0.21028 0.25688 0.0
C462 C 0.73704 0.24419 0.30018 0.0
C463 C 0.75387 0.24266 0.31162 0.0
C464 C 0.7555 0.25258 0.32918 0.0
C465 C 0.74038 0.26443 0.33558 0.0
C466 C 0.72324 0.26546 0.32437 0.0
C467 C 0.72163 0.2555 0.30674 0.0
C468 C 0.74579 0.20975 0.2761 0.0
C469 C 0.75525 0.20284 0.25955 0.0
C470 C 0.76391 0.18469 0.25991 0.0
C471 C 0.76317 0.17302 0.27682 0.0
C472 C 0.75284 0.17964 0.2931 0.0
C473 C 0.7441 0.19782 0.29268 0.0
C474 C 0.71373 0.23571 0.26389 0.0
C475 C 0.70997 0.25159 0.25168 0.0
C476 C 0.6927 0.25243 0.24098 0.0
C477 C 0.67871 0.23748 0.24244 0.0
C478 C 0.68209 0.222 0.25544 0.0
C479 C 0.69952 0.22111 0.26609 0.0
P480 P 0.4759 0.02462 0.98619 0.0
H481 H 0.51712 0.03059 0.9797 0.0
H482 H 0.53764 0.02942 0.95077 0.0
H483 H 0.48658 0.01955 0.91513 0.0
H484 H 0.46609 0.0217 0.94411 0.0
H485 H 0.49732 0.03927 0.01979 0.0
H486 H 0.49903 0.07055 0.03541 0.0
H487 H 0.45794 0.09312 0.9934 0.0
H488 H 0.45705 0.06168 0.97721 0.0
H489 H 0.4616 0.98997 0.96703 0.0
H490 H 0.43692 0.03679 0.99931 0.0
O491 O 0.48695 0.00894 1.00104 0.0
H492 H 0.42967 0.97403 0.96572 0.0
H493 H 0.40502 0.02095 0.99804 0.0
C494 C 0.49015 0.02579 0.96414 0.0
C495 C 0.51033 0.02836 0.96562 0.0
C496 C 0.52207 0.02752 0.94905 0.0
C497 C 0.51385 0.02397 0.9306 0.0
C498 C 0.49345 0.02231 0.92906 0.0
C499 C 0.48168 0.02334 0.94569 0.0
C500 C 0.47665 0.04798 0.99763 0.0
C501 C 0.48857 0.05088 0.01395 0.0
C502 C 0.48944 0.06883 0.02299 0.0
C503 C 0.47833 0.08438 0.01596 0.0
C504 C 0.46673 0.08154 0.99924 0.0
C505 C 0.46606 0.06354 0.99005 0.0
C506 C 0.45162 0.0149 0.98271 0.0
C507 C 0.44923 0.99707 0.97343 0.0
C508 C 0.43101 0.98786 0.97287 0.0
C509 C 0.41479 0.99623 0.98175 0.0
C510 C 0.41715 0.01427 0.99077 0.0
C511 C 0.43544 0.02342 0.99143 0.0
Li512 Li 0.26437 0.88917 1.00088 0.0
Li513 Li 0.24924 0.86364 0.02145 0.0
Li514 Li 0.24316 0.86597 0.98501 0.0
Li515 Li 0.22827 0.88933 0.00726 0.0
C516 C 0.28739 0.85909 0.99757 0.0
N517 N 0.32738 0.85724 0.99436 0.0
C518 C 0.29861 0.85341 0.0136 0.0
C519 C 0.29647 0.86363 0.97986 0.0
C520 C 0.31882 0.85259 0.01169 0.0
C521 C 0.31672 0.86268 0.97855 0.0
C522 C 0.24767 0.89826 0.0446 0.0
C523 C 0.22723 0.9019 0.07283 0.0
N524 N 0.24208 0.91116 0.08214 0.0
C525 C 0.26268 0.90797 0.05437 0.0
C526 C 0.22975 0.89533 0.05384 0.0
C527 C 0.25959 0.91431 0.07338 0.0
C528 C 0.28995 0.91699 0.98283 0.0
N529 N 0.28744 0.90486 0.99839 0.0
C530 C 0.31894 0.91336 0.01072 0.0
C531 C 0.30137 0.90311 0.01237 0.0
C532 C 0.32214 0.92575 0.99464 0.0
C533 C 0.30727 0.92768 0.98069 0.0
H534 H 0.27861 0.91822 0.97197 0.0
H535 H 0.29894 0.89351 0.02469 0.0
C536 C 0.24762 0.82736 0.04034 0.0
N537 N 0.25309 0.84611 0.04287 0.0
C538 C 0.25059 0.81369 0.05517 0.0
C539 C 0.26474 0.83887 0.07499 0.0
C540 C 0.26159 0.85203 0.05974 0.0
C541 C 0.25933 0.81933 0.07281 0.0
H542 H 0.24111 0.823 0.02668 0.0
H543 H 0.26618 0.8669 0.06132 0.0
C544 C 0.2373 0.89786 0.96365 0.0
N545 N 0.22609 0.90324 0.9253 0.0
C546 C 0.21842 0.90378 0.95925 0.0
C547 C 0.25054 0.89485 0.94857 0.0
C548 C 0.21302 0.9064 0.93976 0.0
C549 C 0.24457 0.89758 0.92927 0.0
C550 C 0.20726 0.85273 0.01289 0.0
C551 C 0.19351 0.84608 0.9994 0.0
C552 C 0.2035 0.85069 0.03283 0.0
C553 C 0.17606 0.83785 0.0061 0.0
C554 C 0.18588 0.84237 0.03896 0.0
N555 N 0.17263 0.8362 0.02558 0.0
C556 C 0.25281 0.83854 0.9562 0.0
C557 C 0.22235 0.85348 0.95129 0.0
C558 C 0.25045 0.82798 0.93907 0.0
N559 N 0.23894 0.85113 0.96185 0.0
C560 C 0.21945 0.84331 0.93401 0.0
C561 C 0.23367 0.83043 0.92762 0.0
H562 H 0.26579 0.83679 0.96492 0.0
H563 H 0.21142 0.86339 0.95617 0.0
C564 C 0.21097 0.92443 0.01674 0.0
N565 N 0.2066 0.90583 0.01206 0.0
C566 C 0.19615 0.93744 0.02073 0.0
C567 C 0.17253 0.91199 0.01489 0.0
C568 C 0.18782 0.8995 0.01089 0.0
C569 C 0.17661 0.93125 0.01992 0.0
H570 H 0.22603 0.92911 0.01752 0.0
H571 H 0.1846 0.8848 0.00681 0.0
O572 O 0.26763 0.86038 0.99928 0.0
O573 O 0.2505 0.89198 0.02598 0.0
O574 O 0.24279 0.89503 0.98263 0.0
O575 O 0.22447 0.86072 0.00654 0.0
H576 H 0.29181 0.84984 0.02741 0.0
H577 H 0.28798 0.86804 0.96732 0.0
H578 H 0.32771 0.84833 0.024 0.0
H579 H 0.32396 0.8663 0.96498 0.0
H580 H 0.21342 0.89971 0.08014 0.0
H581 H 0.27659 0.91055 0.04739 0.0
H582 H 0.21784 0.88827 0.04637 0.0
H583 H 0.27111 0.92176 0.08114 0.0
H584 H 0.32989 0.91165 0.02196 0.0
H585 H 0.30917 0.937 0.96802 0.0
H586 H 0.24649 0.79877 0.05263 0.0
H587 H 0.27135 0.84398 0.08835 0.0
H588 H 0.20801 0.90621 0.97075 0.0
H589 H 0.26521 0.89026 0.95174 0.0
H590 H 0.19843 0.91089 0.93613 0.0
H591 H 0.25461 0.89517 0.91745 0.0
H592 H 0.19622 0.84734 0.98393 0.0
H593 H 0.21411 0.85527 0.04352 0.0
H594 H 0.16525 0.83276 0.99582 0.0
H595 H 0.18279 0.84074 0.05435 0.0
H596 H 0.26186 0.81833 0.93462 0.0
H597 H 0.20618 0.84547 0.92579 0.0
H598 H 0.19998 0.9521 0.02473 0.0
H599 H 0.15768 0.90668 0.01383 0.0
Li600 Li 0.11722 0.50774 0.27103 0.0
Li601 Li 0.1426 0.48648 0.25754 0.0
Li602 Li 0.14431 0.52183 0.25095 0.0
Li603 Li 0.11894 0.50037 0.2364 0.0
C604 C 0.15232 0.50782 0.29493 0.0
N605 N 0.1656 0.50703 0.33299 0.0
C606 C 0.15301 0.49034 0.30531 0.0
C607 C 0.1586 0.52486 0.30386 0.0
C608 C 0.1597 0.49025 0.32455 0.0
C609 C 0.1652 0.52417 0.32312 0.0
C610 C 0.09802 0.47273 0.25156 0.0
C611 C 0.08325 0.44981 0.22961 0.0
N612 N 0.06536 0.45489 0.2361 0.0
C613 C 0.0795 0.47768 0.25806 0.0
C614 C 0.09994 0.45862 0.23729 0.0
C615 C 0.06316 0.4685 0.25005 0.0
C616 C 0.08565 0.52494 0.29208 0.0
N617 N 0.10041 0.51203 0.29309 0.0
C618 C 0.09211 0.50415 0.32614 0.0
C619 C 0.10344 0.50137 0.30955 0.0
C620 C 0.07716 0.51781 0.32576 0.0
C621 C 0.0739 0.52816 0.30834 0.0
H622 H 0.0828 0.53266 0.27864 0.0
H623 H 0.11458 0.49056 0.30981 0.0
C624 C 0.17752 0.46758 0.26807 0.0
N625 N 0.15859 0.46456 0.26306 0.0
C626 C 0.18965 0.45193 0.27189 0.0
C627 C 0.16259 0.43033 0.26529 0.0
C628 C 0.15096 0.4464 0.26172 0.0
C629 C 0.18226 0.43293 0.27049 0.0
H630 H 0.18319 0.48219 0.26912 0.0
H631 H 0.13585 0.44438 0.25778 0.0
C632 C 0.11111 0.54465 0.25343 0.0
N633 N 0.10258 0.58223 0.26311 0.0
C634 C 0.09874 0.55554 0.24158 0.0
C635 C 0.11917 0.55286 0.27017 0.0
C636 C 0.0946 0.57452 0.24673 0.0
C637 C 0.11467 0.57188 0.27483 0.0
C638 C 0.16319 0.49034 0.22579 0.0
C639 C 0.18179 0.49868 0.22669 0.0
C640 C 0.16086 0.47153 0.21884 0.0
C641 C 0.19781 0.48799 0.22081 0.0
C642 C 0.17725 0.46129 0.21313 0.0
N643 N 0.19523 0.46966 0.21423 0.0
C644 C 0.17812 0.54512 0.25671 0.0
C645 C 0.15541 0.55785 0.23407 0.0
C646 C 0.19073 0.56085 0.25345 0.0
N647 N 0.16089 0.54389 0.24699 0.0
C648 C 0.16746 0.57393 0.23055 0.0
C649 C 0.18546 0.5755 0.24017 0.0
H650 H 0.1822 0.53372 0.26676 0.0
H651 H 0.14176 0.55639 0.22634 0.0
C652 C 0.08472 0.50243 0.21286 0.0
N653 N 0.10368 0.49702 0.21325 0.0
C654 C 0.07369 0.50041 0.19581 0.0
C655 C 0.10193 0.48737 0.17994 0.0
C656 C 0.11237 0.48962 0.19725 0.0
C657 C 0.08235 0.49293 0.17898 0.0
H658 H 0.07823 0.50847 0.22575 0.0
H659 H 0.12748 0.48564 0.19785 0.0
O660 O 0.14614 0.50817 0.27593 0.0
O661 O 0.11416 0.48188 0.25892 0.0
O662 O 0.11548 0.52614 0.24844 0.0
O663 O 0.14737 0.50043 0.23192 0.0
H664 H 0.14814 0.47701 0.2987 0.0
H665 H 0.15847 0.5385 0.296 0.0
H666 H 0.16018 0.47684 0.33278 0.0
H667 H 0.17006 0.53726 0.33022 0.0
H668 H 0.08451 0.43899 0.21844 0.0
H669 H 0.07773 0.48859 0.26905 0.0
H670 H 0.11415 0.45476 0.23193 0.0
H671 H 0.04873 0.47224 0.25488 0.0
H672 H 0.09522 0.49581 0.3392 0.0
H673 H 0.06223 0.53847 0.30716 0.0
H674 H 0.20459 0.45473 0.27618 0.0
H675 H 0.15627 0.41601 0.26377 0.0
H676 H 0.09245 0.54938 0.22853 0.0
H677 H 0.12868 0.54459 0.2795 0.0
H678 H 0.08505 0.58313 0.2377 0.0
H679 H 0.12078 0.5784 0.28777 0.0
H680 H 0.18388 0.51322 0.23195 0.0
H681 H 0.14661 0.46474 0.21824 0.0
H682 H 0.2123 0.49424 0.22151 0.0
H683 H 0.17567 0.44666 0.20792 0.0
H684 H 0.20444 0.56155 0.26124 0.0
H685 H 0.16297 0.58477 0.22001 0.0
H686 H 0.05873 0.5051 0.19567 0.0
H687 H 0.10915 0.48134 0.16743 0.0
Li688 Li 0.73514 0.61475 0.00189 0.0
Li689 Li 0.74951 0.63868 0.02132 0.0
Li690 Li 0.75481 0.6398 0.98568 0.0
Li691 Li 0.77041 0.61366 0.0083 0.0
C692 C 0.7112 0.645 0.99669 0.0
N693 N 0.67189 0.649 0.98962 0.0
C694 C 0.6978 0.64193 0.01173 0.0
C695 C 0.70467 0.65035 0.97812 0.0
C696 C 0.67796 0.64394 0.00784 0.0
C697 C 0.68472 0.65224 0.97482 0.0
C698 C 0.74744 0.6081 0.0464 0.0
C699 C 0.76205 0.60092 0.07759 0.0
N700 N 0.7445 0.60328 0.08632 0.0
C701 C 0.7295 0.61026 0.05564 0.0
C702 C 0.76383 0.60325 0.05741 0.0
C703 C 0.72833 0.60785 0.07585 0.0
C704 C 0.71278 0.5818 0.01125 0.0
N705 N 0.71327 0.59725 0.99883 0.0
C706 C 0.68499 0.5853 0.98217 0.0
C707 C 0.69976 0.5992 0.98443 0.0
C708 C 0.68434 0.56907 0.99463 0.0
C709 C 0.69842 0.56748 0.00939 0.0
H710 H 0.72384 0.58033 0.02237 0.0
H711 H 0.70073 0.61119 0.97429 0.0
C712 C 0.73459 0.67177 0.0386 0.0
N713 N 0.74585 0.65622 0.04268 0.0
C714 C 0.73185 0.68603 0.05251 0.0
C715 C 0.75215 0.66806 0.07481 0.0
C716 C 0.7547 0.65422 0.06035 0.0
C717 C 0.74071 0.6843 0.07088 0.0
H718 H 0.72801 0.67332 0.02436 0.0
H719 H 0.76416 0.64219 0.06314 0.0
C720 C 0.74797 0.59856 0.97001 0.0
N721 N 0.72921 0.57278 0.94568 0.0
C722 C 0.74872 0.57872 0.9739 0.0
C723 C 0.73779 0.6053 0.9537 0.0
C724 C 0.73909 0.56592 0.96145 0.0
C725 C 0.7284 0.59203 0.94157 0.0
C726 C 0.78363 0.65577 0.01843 0.0
C727 C 0.78025 0.67537 0.01492 0.0
C728 C 0.79546 0.65017 0.03403 0.0
C729 C 0.78869 0.68909 0.02724 0.0
C730 C 0.80367 0.66434 0.04598 0.0
N731 N 0.80012 0.68333 0.04238 0.0
C732 C 0.75265 0.67438 0.96346 0.0
C733 C 0.76997 0.64924 0.94839 0.0
C734 C 0.75688 0.68696 0.9479 0.0
N735 N 0.75934 0.65599 0.96348 0.0
C736 C 0.77449 0.66129 0.9325 0.0
C737 C 0.76813 0.68053 0.93219 0.0
H738 H 0.74432 0.67939 0.97575 0.0
H739 H 0.77516 0.63455 0.94883 0.0
C740 C 0.78936 0.57855 0.01628 0.0
N741 N 0.79238 0.5975 0.01161 0.0
C742 C 0.80511 0.5661 0.01823 0.0
C743 C 0.82679 0.59297 0.01084 0.0
C744 C 0.81061 0.60487 0.00887 0.0
C745 C 0.82414 0.57327 0.01547 0.0
H746 H 0.77468 0.57312 0.01846 0.0
H747 H 0.81257 0.61996 0.00498 0.0
O748 O 0.73067 0.64319 1.00022 0.0
O749 O 0.74884 0.61024 0.02662 0.0
O750 O 0.75682 0.61136 0.98233 0.0
O751 O 0.77503 0.64211 0.00691 0.0
H752 H 0.70267 0.63804 0.02623 0.0
H753 H 0.71489 0.65281 0.96633 0.0
H754 H 0.6674 0.64151 0.01931 0.0
H755 H 0.67943 0.65625 0.96049 0.0
H756 H 0.77464 0.59729 0.08632 0.0
H757 H 0.71663 0.61373 0.04727 0.0
H758 H 0.77782 0.6015 0.05049 0.0
H759 H 0.71457 0.60957 0.08321 0.0
H760 H 0.67461 0.5869 0.97038 0.0
H761 H 0.6984 0.55521 0.01934 0.0
H762 H 0.72284 0.6983 0.04892 0.0
H763 H 0.7595 0.66635 0.08869 0.0
H764 H 0.75645 0.5733 0.98654 0.0
H765 H 0.73691 0.62063 0.9506 0.0
H766 H 0.73941 0.55053 0.96436 0.0
H767 H 0.72037 0.59704 0.92895 0.0
H768 H 0.77103 0.67992 0.00298 0.0
H769 H 0.79803 0.63504 0.03707 0.0
H770 H 0.78609 0.70431 0.02479 0.0
H771 H 0.81277 0.66022 0.05818 0.0
H772 H 0.75189 0.70171 0.94847 0.0
H773 H 0.78297 0.6556 0.92063 0.0
H774 H 0.80243 0.55106 0.02198 0.0
H775 H 0.8412 0.59903 0.00837 0.0
Li776 Li 0.86279 0.02136 0.25724 0.0
Li777 Li 0.88621 1.00008 0.27339 0.0
Li778 Li 0.88875 0.00522 0.23772 0.0
Li779 Li 0.8626 0.98612 0.25225 0.0
C780 C 0.89829 0.0418 0.25134 0.0
N781 N 0.91235 0.07599 0.23528 0.0
C782 C 0.91515 0.05047 0.25882 0.0
C783 C 0.88861 0.05047 0.23565 0.0
C784 C 0.92201 0.06778 0.25052 0.0
C785 C 0.89594 0.06776 0.22775 0.0
C786 C 0.85678 1.00011 0.29631 0.0
C787 C 0.85645 0.98245 0.32681 0.0
N788 N 0.85715 0.99944 0.33658 0.0
C789 C 0.85739 0.0174 0.30664 0.0
C790 C 0.85622 0.98248 0.30644 0.0
C791 C 0.8576 0.01675 0.32701 0.0
C792 C 0.82809 0.04198 0.25344 0.0
N793 N 0.84678 0.04365 0.25976 0.0
C794 C 0.8416 0.07648 0.26886 0.0
C795 C 0.85362 0.06037 0.26767 0.0
C796 C 0.82238 0.07534 0.26186 0.0
C797 C 0.81563 0.05772 0.25423 0.0
H798 H 0.82286 0.02836 0.24781 0.0
H799 H 0.86842 0.06124 0.27297 0.0
C800 C 0.90822 0.97996 0.30234 0.0
N801 N 0.90186 0.99758 0.29639 0.0
C802 C 0.9209 0.97832 0.3182 0.0
C803 C 0.92011 0.013 0.32172 0.0
C804 C 0.90738 0.01395 0.30582 0.0
C805 C 0.92725 0.99501 0.32796 0.0
H806 H 0.90386 0.96719 0.29449 0.0
H807 H 0.90215 0.0278 0.30075 0.0
C808 C 0.85298 0.99918 0.2154 0.0
N809 N 0.83753 0.98277 0.18211 0.0
C810 C 0.86441 0.98743 0.20374 0.0
C811 C 0.83367 0.0026 0.21009 0.0
C812 C 0.85636 0.97926 0.18698 0.0
C813 C 0.82613 0.99416 0.19322 0.0
C814 C 0.89176 0.96144 0.24953 0.0
C815 C 0.89991 0.95463 0.2323 0.0
C816 C 0.88426 0.94828 0.26327 0.0
C817 C 0.90025 0.93474 0.22903 0.0
C818 C 0.88485 0.92851 0.25946 0.0
N819 N 0.89276 0.92221 0.24256 0.0
C820 C 0.92528 1.00185 0.22018 0.0
C821 C 0.903 0.01958 0.20086 0.0
C822 C 0.93992 0.00484 0.20635 0.0
N823 N 0.90727 0.00918 0.21723 0.0
C824 C 0.91727 0.02305 0.18668 0.0
C825 C 0.93611 0.01574 0.18937 0.0
H826 H 0.92829 0.99375 0.2334 0.0
H827 H 0.88859 0.02542 0.19895 0.0
C828 C 0.82902 0.96388 0.26054 0.0
N829 N 0.84454 0.96493 0.24829 0.0
C830 C 0.81468 0.9496 0.25818 0.0
C831 C 0.83254 0.93754 0.23068 0.0
C832 C 0.84654 0.95207 0.23358 0.0
C833 C 0.81622 0.93626 0.24297 0.0
H834 H 0.82762 0.97432 0.27204 0.0
H835 H 0.85889 0.95313 0.22392 0.0
O836 O 0.89155 0.02474 0.25918 0.0
O837 O 0.8572 1.00045 0.27638 0.0
O838 O 0.86061 0.0073 0.2319 0.0
O839 O 0.8913 0.98087 0.25298 0.0
H840 H 0.92286 0.04387 0.2709 0.0
H841 H 0.8756 0.04391 0.2296 0.0
H842 H 0.93504 0.07466 0.25617 0.0
H843 H 0.88859 0.07463 0.21561 0.0
H844 H 0.85612 0.96891 0.33485 0.0
H845 H 0.85797 0.03116 0.29902 0.0
H846 H 0.85572 0.96898 0.29867 0.0
H847 H 0.85819 0.03002 0.33519 0.0
H848 H 0.84742 0.08979 0.2748 0.0
H849 H 0.80081 0.05608 0.24904 0.0
H850 H 0.92624 0.96419 0.32229 0.0
H851 H 0.92446 0.02621 0.32892 0.0
H852 H 0.87926 0.98434 0.20772 0.0
H853 H 0.82456 0.01165 0.21885 0.0
H854 H 0.86505 0.97006 0.1779 0.0
H855 H 0.8112 0.99669 0.18896 0.0
H856 H 0.90586 0.96456 0.22151 0.0
H857 H 0.87773 0.95328 0.27659 0.0
H858 H 0.90645 0.92928 0.21573 0.0
H859 H 0.87895 0.91818 0.26991 0.0
H860 H 0.95408 0.99865 0.20897 0.0
H861 H 0.9137 0.03178 0.174 0.0
H862 H 0.80248 0.94906 0.26815 0.0
H863 H 0.83423 0.92776 0.21861 0.0
Li864 Li 0.25259 0.14006 0.52374 0.0
Li865 Li 0.23703 0.11474 0.50381 0.0
Li866 Li 0.27177 0.11508 0.51059 0.0
Li867 Li 0.25777 0.13997 0.48872 0.0
C868 C 0.25709 0.09836 0.5421 0.0
N869 N 0.27221 0.07029 0.56658 0.0
C870 C 0.24826 0.08008 0.54333 0.0
C871 C 0.27338 0.10246 0.55364 0.0
C872 C 0.25616 0.06606 0.55572 0.0
C873 C 0.28089 0.08805 0.56582 0.0
C874 C 0.21509 0.14817 0.50998 0.0
C875 C 0.18514 0.16587 0.50806 0.0
N876 N 0.17947 0.15794 0.52541 0.0
C877 C 0.20897 0.1402 0.52781 0.0
C878 C 0.2031 0.16113 0.50003 0.0
C879 C 0.19092 0.14533 0.53536 0.0
C880 C 0.24393 0.17583 0.54066 0.0
N881 N 0.24888 0.15734 0.5451 0.0
C882 C 0.24782 0.16412 0.57921 0.0
C883 C 0.2508 0.15128 0.56392 0.0
C884 C 0.24266 0.18333 0.57507 0.0
C885 C 0.2408 0.18912 0.55546 0.0
H886 H 0.2424 0.18025 0.52557 0.0
H887 H 0.25445 0.13645 0.56711 0.0
C888 C 0.22033 0.07843 0.49765 0.0
N889 N 0.21545 0.09732 0.49916 0.0
C890 C 0.20601 0.06423 0.49483 0.0
C891 C 0.18181 0.0892 0.49422 0.0
C892 C 0.19664 0.10294 0.49707 0.0
C893 C 0.18638 0.06949 0.49331 0.0
H894 H 0.23545 0.07438 0.49879 0.0
H895 H 0.19299 0.11802 0.4976 0.0
C896 C 0.28517 0.15925 0.51819 0.0
N897 N 0.29902 0.19212 0.53641 0.0
C898 C 0.28248 0.17743 0.50962 0.0
C899 C 0.29511 0.15778 0.53594 0.0
C900 C 0.28955 0.19388 0.51907 0.0
C901 C 0.30193 0.17456 0.54495 0.0
C902 C 0.25114 0.10676 0.46717 0.0
C903 C 0.25947 0.09203 0.45636 0.0
C904 C 0.23511 0.11665 0.45967 0.0
C905 C 0.25164 0.08743 0.43815 0.0
C906 C 0.22771 0.11163 0.44141 0.0
N907 N 0.23606 0.09725 0.43112 0.0
C908 C 0.29082 0.07908 0.51188 0.0
C909 C 0.31132 0.10605 0.51843 0.0
C910 C 0.30638 0.06647 0.5144 0.0
N911 N 0.29354 0.09844 0.51402 0.0
C912 C 0.32729 0.09398 0.52103 0.0
C913 C 0.32496 0.07388 0.519 0.0
H914 H 0.27653 0.07345 0.50822 0.0
H915 H 0.31312 0.12149 0.51991 0.0
C916 C 0.25188 0.1717 0.46272 0.0
N917 N 0.2623 0.1554 0.4659 0.0
C918 C 0.2564 0.184 0.44701 0.0
C919 C 0.28178 0.1621 0.43773 0.0
C920 C 0.27684 0.1503 0.45367 0.0
C921 C 0.27177 0.17944 0.43441 0.0
H922 H 0.24053 0.1755 0.47282 0.0
H923 H 0.28487 0.13723 0.45656 0.0
O924 O 0.24976 0.11218 0.52978 0.0
O925 O 0.23285 0.14367 0.50239 0.0
O926 O 0.27791 0.14301 0.50937 0.0
O927 O 0.25859 0.11128 0.48508 0.0
H928 H 0.23536 0.07675 0.53493 0.0
H929 H 0.28034 0.11652 0.55297 0.0
H930 H 0.24952 0.05183 0.55672 0.0
H931 H 0.29363 0.09099 0.57463 0.0
H932 H 0.1757 0.17586 0.50049 0.0
H933 H 0.21799 0.13016 0.53577 0.0
H934 H 0.20761 0.16744 0.48623 0.0
H935 H 0.18601 0.13928 0.54913 0.0
H936 H 0.24915 0.15895 0.59411 0.0
H937 H 0.23707 0.20382 0.55155 0.0
H938 H 0.21031 0.04929 0.49373 0.0
H939 H 0.1669 0.09396 0.49309 0.0
H940 H 0.27483 0.1789 0.49593 0.0
H941 H 0.29744 0.14387 0.54278 0.0
H942 H 0.28744 0.20804 0.51264 0.0
H943 H 0.30952 0.17363 0.55876 0.0
H944 H 0.27184 0.08421 0.46201 0.0
H945 H 0.22841 0.12804 0.46785 0.0
H946 H 0.25794 0.07606 0.42962 0.0
H947 H 0.21532 0.11915 0.43543 0.0
H948 H 0.30394 0.05112 0.51245 0.0
H949 H 0.34127 0.10033 0.52477 0.0
H950 H 0.24844 0.1973 0.44524 0.0
H951 H 0.29351 0.15781 0.42826 0.0
Li952 Li 0.3873 0.50066 0.77268 0.0
Li953 Li 0.36397 0.52307 0.76076 0.0
Li954 Li 0.36158 0.48934 0.752 0.0
Li955 Li 0.38752 0.51108 0.73713 0.0
C956 C 0.36065 0.49656 0.79773 0.0
N957 N 0.366 0.48858 0.83696 0.0
C958 C 0.35995 0.51141 0.81136 0.0
C959 C 0.36409 0.47764 0.8041 0.0
C960 C 0.36266 0.50708 0.83111 0.0
C961 C 0.36677 0.47391 0.82397 0.0
C962 C 0.39598 0.54572 0.76409 0.0
C963 C 0.40688 0.57722 0.75291 0.0
N964 N 0.40224 0.58466 0.77055 0.0
C965 C 0.39141 0.55368 0.78213 0.0
C966 C 0.40384 0.55757 0.74937 0.0
C967 C 0.39463 0.5734 0.78509 0.0
C968 C 0.41309 0.47582 0.79263 0.0
N969 N 0.4051 0.49366 0.79322 0.0
C970 C 0.42379 0.50134 0.82167 0.0
C971 C 0.41011 0.50637 0.80742 0.0
C972 C 0.43247 0.48307 0.82126 0.0
C973 C 0.42672 0.47016 0.8066 0.0
H974 H 0.40906 0.46602 0.78115 0.0
H975 H 0.40369 0.5205 0.80758 0.0
C976 C 0.33291 0.54383 0.778 0.0
N977 N 0.34828 0.54551 0.76561 0.0
C978 C 0.3208 0.55957 0.7812 0.0
C979 C 0.3402 0.57837 0.7584 0.0
C980 C 0.35189 0.56228 0.75564 0.0
C981 C 0.32438 0.57718 0.77134 0.0
H982 H 0.32981 0.53015 0.78517 0.0
H983 H 0.36368 0.56313 0.74528 0.0
C984 C 0.38943 0.46697 0.74003 0.0
N985 N 0.38675 0.43168 0.72164 0.0
C986 C 0.39278 0.46574 0.71998 0.0
C987 C 0.38482 0.45021 0.75073 0.0
C988 C 0.39135 0.44777 0.71096 0.0
C989 C 0.38348 0.43253 0.74116 0.0
C990 C 0.34278 0.52143 0.72831 0.0
C991 C 0.3246 0.51558 0.73552 0.0
C992 C 0.34418 0.53735 0.71566 0.0
C993 C 0.30808 0.52584 0.72999 0.0
C994 C 0.32732 0.54723 0.71047 0.0
N995 N 0.30977 0.54133 0.71769 0.0
C996 C 0.33545 0.45753 0.75953 0.0
C997 C 0.34174 0.46446 0.72622 0.0
C998 C 0.32383 0.44161 0.75452 0.0
N999 N 0.34435 0.46839 0.74543 0.0
C1000 C 0.33015 0.44876 0.72055 0.0
C1001 C 0.32111 0.43694 0.73478 0.0
H1002 H 0.3375 0.46109 0.77467 0.0
H1003 H 0.34885 0.47345 0.7153 0.0
C1004 C 0.42326 0.51661 0.71855 0.0
N1005 N 0.40376 0.51655 0.71528 0.0
C1006 C 0.43621 0.52053 0.70332 0.0
C1007 C 0.40877 0.52415 0.68154 0.0
C1008 C 0.39632 0.52009 0.69723 0.0
C1009 C 0.42903 0.52441 0.68449 0.0
H1010 H 0.42872 0.51372 0.73308 0.0
H1011 H 0.38075 0.51965 0.69499 0.0
O1012 O 0.35848 0.50058 0.77826 0.0
O1013 O 0.39293 0.52645 0.76086 0.0
O1014 O 0.39029 0.48453 0.74903 0.0
O1015 O 0.35917 0.51192 0.73406 0.0
H1016 H 0.35756 0.52618 0.80676 0.0
H1017 H 0.36516 0.46602 0.79378 0.0
H1018 H 0.36221 0.51846 0.84179 0.0
H1019 H 0.3696 0.45936 0.82906 0.0
H1020 H 0.41289 0.58656 0.74163 0.0
H1021 H 0.38509 0.54483 0.7936 0.0
H1022 H 0.40744 0.5517 0.7353 0.0
H1023 H 0.39101 0.57977 0.79893 0.0
H1024 H 0.42791 0.51188 0.83253 0.0
H1025 H 0.43277 0.45582 0.80582 0.0
H1026 H 0.30852 0.55783 0.79096 0.0
H1027 H 0.34359 0.59162 0.75051 0.0
H1028 H 0.39628 0.4785 0.71142 0.0
H1029 H 0.38188 0.45088 0.76618 0.0
H1030 H 0.39384 0.44663 0.69545 0.0
H1031 H 0.37975 0.41949 0.74924 0.0
H1032 H 0.3233 0.5034 0.74549 0.0
H1033 H 0.35818 0.54222 0.71017 0.0
H1034 H 0.29393 0.52155 0.73553 0.0
H1035 H 0.32819 0.55966 0.70079 0.0
H1036 H 0.31732 0.43288 0.76604 0.0
H1037 H 0.32821 0.44602 0.70515 0.0
H1038 H 0.45169 0.52084 0.70634 0.0
H1039 H 0.40262 0.52682 0.66723 0.0
Li1040 Li 0.77098 0.39276 0.50108 0.0
Li1041 Li 0.75542 0.36554 0.52192 0.0
Li1042 Li 0.74948 0.36815 0.48704 0.0
Li1043 Li 0.73567 0.39153 0.50785 0.0
C1044 C 0.78208 0.34976 0.48923 0.0
N1045 N 0.79473 0.32043 0.46558 0.0
C1046 C 0.77838 0.33047 0.49438 0.0
C1047 C 0.7923 0.35414 0.47211 0.0
C1048 C 0.78488 0.31584 0.48222 0.0
C1049 C 0.79855 0.3391 0.46033 0.0
C1050 C 0.74834 0.4035 0.5416 0.0
C1051 C 0.7258 0.40368 0.5685 0.0
N1052 N 0.72831 0.42314 0.56991 0.0
C1053 C 0.75074 0.42349 0.54334 0.0
C1054 C 0.73579 0.39348 0.55428 0.0
C1055 C 0.74047 0.43316 0.55774 0.0
C1056 C 0.79061 0.42876 0.50019 0.0
N1057 N 0.79314 0.40941 0.49838 0.0
C1058 C 0.82729 0.41417 0.49322 0.0
C1059 C 0.81101 0.40195 0.49495 0.0
C1060 C 0.82514 0.43414 0.4955 0.0
C1061 C 0.80656 0.44146 0.49904 0.0
H1062 H 0.7762 0.4343 0.50264 0.0
H1063 H 0.81264 0.3865 0.49373 0.0
C1064 C 0.75128 0.33152 0.5456 0.0
N1065 N 0.76018 0.34911 0.54382 0.0
C1066 C 0.75576 0.31928 0.56132 0.0
C1067 C 0.77808 0.34372 0.57325 0.0
C1068 C 0.77323 0.35543 0.5573 0.0
C1069 C 0.76951 0.32525 0.57533 0.0
H1070 H 0.74099 0.32686 0.5346 0.0
H1071 H 0.78003 0.36953 0.55552 0.0
C1072 C 0.74987 0.40455 0.46491 0.0
N1073 N 0.75132 0.42141 0.42821 0.0
C1074 C 0.73281 0.41094 0.45591 0.0
C1075 C 0.7677 0.40705 0.45536 0.0
C1076 C 0.73384 0.41934 0.43732 0.0
C1077 C 0.76812 0.41551 0.43678 0.0
C1078 C 0.71169 0.35952 0.5018 0.0
C1079 C 0.7051 0.36817 0.48456 0.0
C1080 C 0.69929 0.34719 0.5124 0.0
C1081 C 0.68614 0.36434 0.47818 0.0
C1082 C 0.68042 0.34372 0.50554 0.0
N1083 N 0.67429 0.3523 0.48872 0.0
C1084 C 0.73623 0.33461 0.46719 0.0
C1085 C 0.75139 0.35776 0.44637 0.0
C1086 C 0.73305 0.3222 0.45151 0.0
N1087 N 0.74514 0.35211 0.46438 0.0
C1088 C 0.74861 0.34578 0.43033 0.0
C1089 C 0.73932 0.32772 0.43276 0.0
H1090 H 0.73181 0.33015 0.48169 0.0
H1091 H 0.75888 0.37137 0.4444 0.0
C1092 C 0.71667 0.42678 0.50471 0.0
N1093 N 0.71443 0.40855 0.51199 0.0
C1094 C 0.70198 0.4403 0.50693 0.0
C1095 C 0.68292 0.41612 0.5243 0.0
C1096 C 0.69804 0.40304 0.52177 0.0
C1097 C 0.68474 0.43505 0.51676 0.0
H1098 H 0.72999 0.43084 0.49725 0.0
H1099 H 0.69671 0.38853 0.52764 0.0
O1100 O 0.77525 0.36426 0.50062 0.0
O1101 O 0.75767 0.39383 0.52714 0.0
O1102 O 0.74919 0.3967 0.4833 0.0
O1103 O 0.73014 0.36315 0.50845 0.0
H1104 H 0.77038 0.32684 0.50752 0.0
H1105 H 0.79507 0.369 0.46776 0.0
H1106 H 0.78203 0.30085 0.48597 0.0
H1107 H 0.80634 0.34229 0.44696 0.0
H1108 H 0.71596 0.39613 0.57835 0.0
H1109 H 0.76031 0.43148 0.53359 0.0
H1110 H 0.73355 0.37805 0.55295 0.0
H1111 H 0.74212 0.44864 0.55921 0.0
H1112 H 0.84147 0.40807 0.49062 0.0
H1113 H 0.80443 0.45682 0.50079 0.0
H1114 H 0.74894 0.30511 0.56217 0.0
H1115 H 0.7885 0.34909 0.58381 0.0
H1116 H 0.71893 0.40955 0.46324 0.0
H1117 H 0.78105 0.40224 0.46206 0.0
H1118 H 0.72075 0.42427 0.43016 0.0
H1119 H 0.7818 0.41737 0.42916 0.0
H1120 H 0.71454 0.37764 0.47617 0.0
H1121 H 0.70419 0.34042 0.5258 0.0
H1122 H 0.68086 0.37092 0.46485 0.0
H1123 H 0.67065 0.33423 0.5136 0.0
H1124 H 0.72612 0.30827 0.45413 0.0
H1125 H 0.75362 0.35068 0.41613 0.0
H1126 H 0.70425 0.45481 0.50123 0.0
H1127 H 0.66987 0.41137 0.53188 0.0
Li1128 Li 0.63435 0.98201 0.76033 0.0
Li1129 Li 0.61086 0.00422 0.77506 0.0
Li1130 Li 0.61029 0.99766 0.73998 0.0
Li1131 Li 0.63657 0.01719 0.75463 0.0
C1132 C 0.6029 0.96067 0.76757 0.0
N1133 N 0.59918 0.92266 0.77988 0.0
C1134 C 0.59756 0.95635 0.7868 0.0
C1135 C 0.60626 0.94566 0.75457 0.0
C1136 C 0.59575 0.93704 0.79274 0.0
C1137 C 0.60435 0.92654 0.76109 0.0
C1138 C 0.65536 0.01102 0.78751 0.0
C1139 C 0.67154 0.03831 0.80231 0.0
N1140 N 0.68867 0.02871 0.80171 0.0
C1141 C 0.6731 1.00139 0.78712 0.0
C1142 C 0.65452 0.02959 0.79525 0.0
C1143 C 0.68978 0.01059 0.79436 0.0
C1144 C 0.6626 0.95453 0.75014 0.0
N1145 N 0.6498 0.95942 0.76429 0.0
C1146 C 0.66071 0.93342 0.78467 0.0
C1147 C 0.64876 0.94933 0.78141 0.0
C1148 C 0.67422 0.92817 0.77039 0.0
C1149 C 0.67505 0.93893 0.75292 0.0
H1150 H 0.66344 0.963 0.73683 0.0
H1151 H 0.63887 0.95384 0.79267 0.0
C1152 C 0.57515 0.00598 0.79545 0.0
N1153 N 0.5947 0.00875 0.79722 0.0
C1154 C 0.56284 0.00943 0.8112 0.0
C1155 C 0.59104 0.01805 0.83048 0.0
C1156 C 0.60279 0.01458 0.81431 0.0
C1157 C 0.57075 0.01552 0.82904 0.0
H1158 H 0.56912 1.00106 0.78177 0.0
H1159 H 0.61838 0.01652 0.8154 0.0
C1160 C 0.63951 0.99504 0.71584 0.0
N1161 N 0.63907 0.99355 0.67562 0.0
C1162 C 0.64333 0.01172 0.70476 0.0
C1163 C 0.63557 0.97757 0.70649 0.0
C1164 C 0.64303 0.01067 0.68443 0.0
C1165 C 0.63537 0.97713 0.68613 0.0
C1166 C 0.59409 0.03449 0.75919 0.0
C1167 C 0.57515 0.03155 0.75227 0.0
C1168 C 0.59774 0.04869 0.77311 0.0
C1169 C 0.56012 0.04281 0.7595 0.0
C1170 C 0.58231 0.05962 0.78002 0.0
N1171 N 0.56398 0.05648 0.77313 0.0
C1172 C 0.58328 0.97911 0.71429 0.0
C1173 C 0.59322 0.0108 0.70501 0.0
C1174 C 0.57128 0.97775 0.69785 0.0
N1175 N 0.59397 0.99544 0.71749 0.0
C1176 C 0.58147 0.01007 0.68841 0.0
C1177 C 0.57022 0.9934 0.68464 0.0
H1178 H 0.58393 0.96719 0.72456 0.0
H1179 H 0.60179 0.02366 0.708 0.0
C1180 C 0.67357 0.03308 0.74702 0.0
N1181 N 0.65466 0.03788 0.74972 0.0
C1182 C 0.68747 0.0473 0.74248 0.0
C1183 C 0.66219 0.0712 0.74327 0.0
C1184 C 0.64876 0.0565 0.74798 0.0
C1185 C 0.68185 0.06667 0.74028 0.0
H1186 H 0.6778 0.01812 0.74819 0.0
H1187 H 0.63358 0.05988 0.74984 0.0
O1188 O 0.60492 0.97948 0.76151 0.0
O1189 O 0.63893 0.0024 0.78018 0.0
O1190 O 0.63924 0.99586 0.73575 0.0
O1191 O 0.60892 0.02334 0.7526 0.0
H1192 H 0.59497 0.96778 0.79707 0.0
H1193 H 0.61055 0.94875 0.73968 0.0
H1194 H 0.59169 0.93348 0.80759 0.0
H1195 H 0.60703 0.91478 0.75123 0.0
H1196 H 0.67114 0.05273 0.8082 0.0
H1197 H 0.67403 0.98703 0.78116 0.0
H1198 H 0.64094 0.03729 0.79556 0.0
H1199 H 0.70363 0.00335 0.79407 0.0
H1200 H 0.65985 0.92569 0.79847 0.0
H1201 H 0.68526 0.93534 0.74155 0.0
H1202 H 0.54732 0.00703 0.80952 0.0
H1203 H 0.59774 0.02285 0.84392 0.0
H1204 H 0.64628 0.02538 0.71176 0.0
H1205 H 0.6325 0.96455 0.71487 0.0
H1206 H 0.64587 0.02348 0.67566 0.0
H1207 H 0.63223 0.96375 0.67869 0.0
H1208 H 0.57204 0.02054 0.74159 0.0
H1209 H 0.6123 0.05108 0.7787 0.0
H1210 H 0.54538 0.04063 0.75435 0.0
H1211 H 0.5849 0.07056 0.79089 0.0
H1212 H 0.56268 0.96473 0.6957 0.0
H1213 H 0.58133 0.02239 0.67854 0.0
H1214 H 0.70246 0.04309 0.74064 0.0
H1215 H 0.65709 0.08584 0.74143 0.0
Li1216 Li 0.01989 0.25971 0.86764 0.0
Li1217 Li 0.99794 0.27447 0.89254 0.0
Li1218 Li 0.00633 0.23999 0.89279 0.0
Li1219 Li 0.98502 0.25095 0.86767 0.0
C1220 C 0.04229 0.26966 0.89635 0.0
N1221 N 0.07984 0.28428 0.89446 0.0
C1222 C 0.04568 0.28959 0.89716 0.0
C1223 C 0.05799 0.25715 0.89471 0.0
C1224 C 0.06478 0.2967 0.89616 0.0
C1225 C 0.07687 0.26483 0.89374 0.0
C1226 C 0.98726 0.28443 0.84851 0.0
C1227 C 0.95835 0.29959 0.83599 0.0
N1228 N 0.96507 0.29738 0.81751 0.0
C1229 C 0.9939 0.28233 0.82941 0.0
C1230 C 0.96936 0.29315 0.85186 0.0
C1231 C 0.98247 0.28898 0.81394 0.0
C1232 C 0.05304 0.25153 0.84418 0.0
N1233 N 0.04171 0.26577 0.85128 0.0
C1234 C 0.06102 0.28987 0.83485 0.0
C1235 C 0.04539 0.28466 0.84689 0.0
C1236 C 0.07305 0.27549 0.82726 0.0
C1237 C 0.0689 0.25608 0.83218 0.0
H1238 H 0.04977 0.23663 0.84779 0.0
H1239 H 0.03606 0.29568 0.85265 0.0
C1240 C 0.99347 0.29696 0.92677 0.0
N1241 N 0.9935 0.29745 0.90695 0.0
C1242 C 0.99157 0.31403 0.93732 0.0
C1243 C 0.98978 0.33175 0.90684 0.0
C1244 C 0.9917 0.31438 0.89691 0.0
C1245 C 0.98988 0.33179 0.92734 0.0
H1246 H 0.99539 0.28338 0.93441 0.0
H1247 H 0.99216 0.31445 0.88116 0.0
C1248 C 0.01008 0.21459 0.86414 0.0
N1249 N 0.01498 0.17503 0.86376 0.0
C1250 C 0.99464 0.20238 0.85883 0.0
C1251 C 0.02804 0.20668 0.86919 0.0
C1252 C 0.99741 0.18242 0.85873 0.0
C1253 C 0.03021 0.18664 0.86895 0.0
C1254 C 0.97111 0.23859 0.90811 0.0
C1255 C 0.95971 0.22357 0.90051 0.0
C1256 C 0.97399 0.23972 0.92824 0.0
C1257 C 0.95138 0.2099 0.91322 0.0
C1258 C 0.96547 0.22572 0.94046 0.0
N1259 N 0.95443 0.21123 0.93276 0.0
C1260 C 0.026 0.22295 0.92456 0.0
C1261 C 0.00327 0.20148 0.91008 0.0
C1262 C 0.03171 0.20862 0.93779 0.0
N1263 N 0.01221 0.21914 0.91085 0.0
C1264 C 0.00864 0.18666 0.92295 0.0
C1265 C 0.02321 0.19006 0.93696 0.0
H1266 H 0.03264 0.23717 0.92524 0.0
H1267 H 0.99214 0.19875 0.89931 0.0
C1268 C 0.96802 0.24053 0.83203 0.0
N1269 N 0.96365 0.24626 0.85037 0.0
C1270 C 0.95333 0.2382 0.81814 0.0
C1271 C 0.92979 0.24747 0.84233 0.0
C1272 C 0.94499 0.24976 0.85574 0.0
C1273 C 0.93391 0.24177 0.82317 0.0
H1274 H 0.98301 0.23804 0.82812 0.0
H1275 H 0.94197 0.25464 0.87035 0.0
O1276 O 0.02368 0.26244 0.89667 0.0
O1277 O 0.99792 0.27742 0.86381 0.0
O1278 O 0.00767 0.23418 0.86417 0.0
O1279 O 0.97957 0.25198 0.89588 0.0
H1280 H 0.03368 0.29948 0.89831 0.0
H1281 H 0.05559 0.24169 0.894 0.0
H1282 H 0.06762 0.3121 0.89666 0.0
H1283 H 0.08915 0.25533 0.89234 0.0
H1284 H 0.94441 0.30626 0.83835 0.0
H1285 H 0.00762 0.27541 0.82657 0.0
H1286 H 0.9639 0.29465 0.86655 0.0
H1287 H 0.98737 0.28737 0.79907 0.0
H1288 H 0.0634 0.30498 0.83124 0.0
H1289 H 0.07787 0.24451 0.82692 0.0
H1290 H 0.99205 0.31338 0.9531 0.0
H1291 H 0.98834 0.34505 0.89851 0.0
H1292 H 0.9806 0.20821 0.855 0.0
H1293 H 0.04006 0.21587 0.87361 0.0
H1294 H 0.98557 0.1728 0.85472 0.0
H1295 H 0.04398 0.18032 0.87297 0.0
H1296 H 0.95754 0.22231 0.88496 0.0
H1297 H 0.98291 0.25113 0.93435 0.0
H1298 H 0.9426 0.19815 0.90754 0.0
H1299 H 0.96767 0.22635 0.95606 0.0
H1300 H 0.04265 0.21212 0.94862 0.0
H1301 H 1.00171 0.17259 0.92163 0.0
H1302 H 0.95715 0.23358 0.80362 0.0
H1303 H 0.91505 0.25058 0.84675 0.0
Li1304 Li 0.52319 0.7562 0.36954 0.0
Li1305 Li 0.50048 0.77087 0.39304 0.0
Li1306 Li 0.50839 0.73711 0.397 0.0
Li1307 Li 0.48894 0.7479 0.37019 0.0
C1308 C 0.53574 0.77444 0.40767 0.0
N1309 N 0.55224 0.80556 0.42682 0.0
C1310 C 0.53991 0.79162 0.39751 0.0
C1311 C 0.5401 0.77305 0.42755 0.0
C1312 C 0.54821 0.8072 0.40746 0.0
C1313 C 0.54842 0.78894 0.43697 0.0
C1314 C 0.488 0.78067 0.35139 0.0
C1315 C 0.45678 0.79472 0.34443 0.0
N1316 N 0.46046 0.79345 0.32501 0.0
C1317 C 0.49152 0.77959 0.33138 0.0
C1318 C 0.47053 0.78834 0.358 0.0
C1319 C 0.4774 0.78609 0.31827 0.0
C1320 C 0.54316 0.75457 0.33401 0.0
N1321 N 0.54542 0.75946 0.35302 0.0
C1322 C 0.57849 0.76911 0.3472 0.0
C1323 C 0.56277 0.76621 0.35987 0.0
C1324 C 0.57642 0.76478 0.32731 0.0
C1325 C 0.55851 0.7571 0.32086 0.0
H1326 H 0.52938 0.74869 0.32906 0.0
H1327 H 0.56444 0.76946 0.37515 0.0
C1328 C 0.49229 0.79335 0.42648 0.0
N1329 N 0.49545 0.7941 0.40692 0.0
C1330 C 0.49039 0.81041 0.43703 0.0
C1331 C 0.4946 0.82861 0.40702 0.0
C1332 C 0.49645 0.81125 0.39709 0.0
C1333 C 0.4918 0.82839 0.42733 0.0
H1334 H 0.49179 0.7795 0.43395 0.0
H1335 H 0.49921 0.81146 0.38157 0.0
C1336 C 0.52522 0.71667 0.3662 0.0
N1337 N 0.55402 0.68978 0.36078 0.0
C1338 C 0.5224 0.7016 0.35306 0.0
C1339 C 0.54272 0.71809 0.37656 0.0
C1340 C 0.53713 0.68814 0.35053 0.0
C1341 C 0.55709 0.70435 0.37362 0.0
C1342 C 0.46895 0.73512 0.4032 0.0
C1343 C 0.46921 0.71716 0.39406 0.0
C1344 C 0.455 0.73863 0.41748 0.0
C1345 C 0.45548 0.70301 0.39938 0.0
C1346 C 0.44151 0.7241 0.42239 0.0
N1347 N 0.44203 0.70674 0.41331 0.0
C1348 C 0.51311 0.72185 0.43497 0.0
C1349 C 0.51242 0.69787 0.41063 0.0
C1350 C 0.5154 0.70777 0.44954 0.0
N1351 N 0.51198 0.71676 0.41593 0.0
C1352 C 0.51472 0.68331 0.4247 0.0
C1353 C 0.51633 0.68817 0.44448 0.0
H1354 H 0.51202 0.73688 0.43887 0.0
H1355 H 0.5107 0.69399 0.39552 0.0
C1356 C 0.47295 0.73229 0.33613 0.0
N1357 N 0.46803 0.74101 0.35302 0.0
C1358 C 0.45861 0.72695 0.32273 0.0
C1359 C 0.43432 0.73984 0.34426 0.0
C1360 C 0.44916 0.74488 0.3573 0.0
C1361 C 0.43896 0.73065 0.32673 0.0
H1362 H 0.4881 0.72961 0.33301 0.0
H1363 H 0.44566 0.75195 0.37081 0.0
O1364 O 0.52701 0.75927 0.39828 0.0
O1365 O 0.50138 0.77387 0.36446 0.0
O1366 O 0.51091 0.72999 0.36864 0.0
O1367 O 0.48227 0.74925 0.3984 0.0
H1368 H 0.53644 0.79303 0.38217 0.0
H1369 H 0.53714 0.75985 0.43563 0.0
H1370 H 0.55135 0.82063 0.3998 0.0
H1371 H 0.55182 0.78808 0.45235 0.0
H1372 H 0.44314 0.80057 0.34934 0.0
H1373 H 0.50495 0.7737 0.32601 0.0
H1374 H 0.46747 0.78906 0.37345 0.0
H1375 H 0.47989 0.78526 0.30273 0.0
H1376 H 0.59196 0.7751 0.35288 0.0
H1377 H 0.55634 0.75305 0.3058 0.0
H1378 H 0.48848 0.80955 0.45269 0.0
H1379 H 0.49553 0.84209 0.39888 0.0
H1380 H 0.50895 0.70031 0.34491 0.0
H1381 H 0.54523 0.72962 0.38679 0.0
H1382 H 0.53513 0.67639 0.34042 0.0
H1383 H 0.57069 0.70526 0.38155 0.0
H1384 H 0.47985 0.71413 0.38297 0.0
H1385 H 0.45464 0.75244 0.42472 0.0
H1386 H 0.45552 0.68906 0.39242 0.0
H1387 H 0.43064 0.72662 0.43343 0.0
H1388 H 0.51661 0.71223 0.46458 0.0
H1389 H 0.51487 0.66838 0.42015 0.0
H1390 H 0.46289 0.72019 0.30926 0.0
H1391 H 0.41936 0.74285 0.34799 0.0
Li1392 Li 0.00436 0.76735 0.61663 0.0
Li1393 Li 0.98241 0.75428 0.64186 0.0
Li1394 Li 0.0177 0.7488 0.64351 0.0
Li1395 Li 0.99709 0.73251 0.61908 0.0
C1396 C 0.01275 0.78273 0.65967 0.0
N1397 N 0.03179 0.79933 0.69093 0.0
C1398 C 0.0036 0.78359 0.67782 0.0
C1399 C 0.03156 0.79037 0.6574 0.0
C1400 C 0.01347 0.79206 0.69344 0.0
C1401 C 0.04095 0.79866 0.67339 0.0
C1402 C 0.96031 0.75933 0.6113 0.0
C1403 C 0.9259 0.75263 0.61408 0.0
N1404 N 0.92221 0.77148 0.60983 0.0
C1405 C 0.9562 0.77861 0.60691 0.0
C1406 C 0.94507 0.74619 0.61484 0.0
C1407 C 0.93683 0.78447 0.60624 0.0
C1408 C 0.00411 0.78472 0.57942 0.0
N1409 N 0.00897 0.78797 0.59832 0.0
C1410 C 0.02163 0.81935 0.58998 0.0
C1411 C 0.01733 0.80496 0.60386 0.0
C1412 C 0.01726 0.81618 0.57023 0.0
C1413 C 0.00819 0.79864 0.56507 0.0
H1414 H 0.99729 0.77113 0.57546 0.0
H1415 H 0.02091 0.80726 0.619 0.0
C1416 C 0.95058 0.74533 0.66725 0.0
N1417 N 0.95966 0.75967 0.65689 0.0
C1418 C 0.93413 0.7493 0.6784 0.0
C1419 C 0.93669 0.78272 0.66805 0.0
C1420 C 0.95309 0.77811 0.65712 0.0
C1421 C 0.92698 0.76824 0.67897 0.0
H1422 H 0.95616 0.73083 0.66694 0.0
H1423 H 0.96073 0.78928 0.64892 0.0
C1424 C 0.0336 0.75053 0.59968 0.0
N1425 N 0.05417 0.76239 0.56701 0.0
C1426 C 0.0294 0.74246 0.58154 0.0
C1427 C 0.04834 0.76455 0.60123 0.0
C1428 C 0.03997 0.74865 0.56519 0.0
C1429 C 0.05854 0.77039 0.58453 0.0
C1430 C 0.99497 0.71056 0.65061 0.0
C1431 C 0.01135 0.70039 0.65677 0.0
C1432 C 0.97774 0.7005 0.6463 0.0
C1433 C 0.01025 0.68026 0.65839 0.0
C1434 C 0.97725 0.68037 0.64806 0.0
N1435 N 0.99338 0.67075 0.65401 0.0
C1436 C 0.03713 0.74566 0.68018 0.0
C1437 C 0.05749 0.74314 0.65254 0.0
C1438 C 0.05313 0.7438 0.69267 0.0
N1439 N 0.03963 0.74563 0.66052 0.0
C1440 C 0.07385 0.74103 0.66446 0.0
C1441 C 0.07187 0.74154 0.68486 0.0
H1442 H 0.02272 0.74731 0.68618 0.0
H1443 H 0.05904 0.74269 0.63688 0.0
C1444 C 0.97875 0.70622 0.5925 0.0
N1445 N 0.99431 0.70926 0.60442 0.0
C1446 C 0.97712 0.68912 0.58187 0.0
C1447 C 0.00757 0.67874 0.59592 0.0
C1448 C 0.00874 0.69609 0.60605 0.0
C1449 C 0.99158 0.67504 0.58367 0.0
H1450 H 0.96764 0.71706 0.59122 0.0
H1451 H 0.02115 0.69908 0.61529 0.0
O1452 O 0.00343 0.77426 0.64426 0.0
O1453 O 0.97918 0.75342 0.61251 0.0
O1454 O 0.02304 0.74507 0.61575 0.0
O1455 O 0.99586 0.73023 0.64858 0.0
H1456 H 0.98912 0.77764 0.67989 0.0
H1457 H 0.03895 0.7896 0.64353 0.0
H1458 H 0.0066 0.79277 0.70759 0.0
H1459 H 0.05556 0.80449 0.67188 0.0
H1460 H 0.91396 0.74266 0.61692 0.0
H1461 H 0.96783 0.789 0.60427 0.0
H1462 H 0.94802 0.73125 0.61842 0.0
H1463 H 0.93342 0.79937 0.60295 0.0
H1464 H 0.02873 0.83259 0.59459 0.0
H1465 H 0.00427 0.7957 0.55009 0.0
H1466 H 0.92703 0.73764 0.68642 0.0
H1467 H 0.93193 0.79757 0.66827 0.0
H1468 H 0.01795 0.7317 0.58003 0.0
H1469 H 0.05166 0.77107 0.61513 0.0
H1470 H 0.03681 0.7426 0.55104 0.0
H1471 H 0.06987 0.78133 0.58549 0.0
H1472 H 0.02481 0.70792 0.66011 0.0
H1473 H 0.96499 0.70813 0.64133 0.0
H1474 H 0.02284 0.6722 0.66306 0.0
H1475 H 0.96407 0.67239 0.64461 0.0
H1476 H 0.05083 0.74444 0.70826 0.0
H1477 H 0.08786 0.73883 0.65771 0.0
H1478 H 0.96454 0.68679 0.5726 0.0
H1479 H 0.01918 0.6684 0.59748 0.0
Li1480 Li 0.50678 0.26858 0.12095 0.0
Li1481 Li 0.48518 0.25357 0.14558 0.0
Li1482 Li 0.52137 0.24739 0.14662 0.0
Li1483 Li 0.4998 0.23253 0.12194 0.0
C1484 C 0.51533 0.28882 0.1566 0.0
N1485 N 0.53194 0.32251 0.17063 0.0
C1486 C 0.50374 0.30267 0.16542 0.0
C1487 C 0.53541 0.292 0.15519 0.0
C1488 C 0.5124 0.31965 0.17234 0.0
C1489 C 0.54352 0.30914 0.1623 0.0
C1490 C 0.46277 0.25933 0.11463 0.0
C1491 C 0.42856 0.25135 0.11646 0.0
N1492 N 0.42426 0.26992 0.11159 0.0
C1493 C 0.45804 0.2783 0.1095 0.0
C1494 C 0.44794 0.2457 0.118 0.0
C1495 C 0.43847 0.28338 0.10808 0.0
C1496 C 0.51714 0.28713 0.08562 0.0
N1497 N 0.51123 0.29052 0.10416 0.0
C1498 C 0.51212 0.32465 0.09814 0.0
C1499 C 0.50843 0.30883 0.11049 0.0
C1500 C 0.51849 0.32161 0.07898 0.0
C1501 C 0.52087 0.30251 0.07273 0.0
H1502 H 0.5191 0.27242 0.0809 0.0
H1503 H 0.5032 0.31121 0.12508 0.0
C1504 C 0.45608 0.24419 0.17378 0.0
N1505 N 0.46272 0.25818 0.16131 0.0
C1506 C 0.43999 0.24754 0.18568 0.0
C1507 C 0.4378 0.2796 0.17161 0.0
C1508 C 0.45395 0.27565 0.16005 0.0
C1509 C 0.43066 0.26549 0.18475 0.0
H1510 H 0.46338 0.23048 0.17464 0.0
H1511 H 0.45964 0.28661 0.15018 0.0
C1512 C 0.54341 0.24735 0.11053 0.0
N1513 N 0.58072 0.24897 0.09552 0.0
C1514 C 0.55171 0.23086 0.10261 0.0
C1515 C 0.55399 0.26474 0.11049 0.0
C1516 C 0.57061 0.23194 0.0952 0.0
C1517 C 0.57285 0.26525 0.10292 0.0
C1518 C 0.49694 0.20963 0.15359 0.0
C1519 C 0.51258 0.19864 0.16023 0.0
C1520 C 0.47916 0.20054 0.14943 0.0
C1521 C 0.51023 0.17864 0.16235 0.0
C1522 C 0.4774 0.18051 0.1517 0.0
N1523 N 0.49284 0.17006 0.15805 0.0
C1524 C 0.54285 0.25091 0.18167 0.0
C1525 C 0.55926 0.23389 0.157 0.0
C1526 C 0.55874 0.24892 0.19426 0.0
N1527 N 0.54347 0.24364 0.16333 0.0
C1528 C 0.57551 0.23167 0.16905 0.0
C1529 C 0.57545 0.23935 0.18793 0.0
H1530 H 0.53004 0.25844 0.18643 0.0
H1531 H 0.55925 0.22774 0.14262 0.0
C1532 C 0.48157 0.20866 0.09323 0.0
N1533 N 0.49628 0.2098 0.1065 0.0
C1534 C 0.47858 0.19174 0.08256 0.0
C1535 C 0.50595 0.17759 0.09933 0.0
C1536 C 0.50858 0.19482 0.10943 0.0
C1537 C 0.49071 0.17584 0.08578 0.0
H1538 H 0.47207 0.22081 0.09105 0.0
H1539 H 0.52034 0.19617 0.11983 0.0
O1540 O 0.50705 0.27212 0.14975 0.0
O1541 O 0.48183 0.25417 0.1164 0.0
O1542 O 0.52487 0.24651 0.1178 0.0
O1543 O 0.49907 0.22918 0.15114 0.0
H1544 H 0.48822 0.30038 0.16686 0.0
H1545 H 0.54469 0.28125 0.14893 0.0
H1546 H 0.50358 0.33053 0.17909 0.0
H1547 H 0.55904 0.31177 0.16127 0.0
H1548 H 0.41693 0.24098 0.11916 0.0
H1549 H 0.46934 0.28902 0.10681 0.0
H1550 H 0.45137 0.23094 0.1219 0.0
H1551 H 0.43458 0.29803 0.10423 0.0
H1552 H 0.50978 0.33912 0.10345 0.0
H1553 H 0.52589 0.2995 0.05813 0.0
H1554 H 0.43491 0.23619 0.19547 0.0
H1555 H 0.43129 0.29374 0.1706 0.0
H1556 H 0.54368 0.21733 0.10228 0.0
H1557 H 0.54767 0.27779 0.116 0.0
H1558 H 0.57725 0.21925 0.08915 0.0
H1559 H 0.5812 0.27861 0.10284 0.0
H1560 H 0.52643 0.20545 0.16358 0.0
H1561 H 0.4669 0.20884 0.14432 0.0
H1562 H 0.52223 0.16993 0.16738 0.0
H1563 H 0.46376 0.17326 0.14839 0.0
H1564 H 0.5581 0.25516 0.20865 0.0
H1565 H 0.58793 0.22386 0.1637 0.0
H1566 H 0.46663 0.19092 0.07227 0.0
H1567 H 0.51579 0.16576 0.10205 0.0
H1568 H 0.22105 0.79953 0.84205 0.0
H1569 H 0.24264 0.74726 0.8687 0.0
H1570 H 0.24469 0.76332 0.90022 0.0
H1571 H 0.24144 0.79264 0.92001 0.0
H1572 H 0.22047 0.845 0.89298 0.0
H1573 H 0.21715 0.8285 0.86187 0.0
C1574 C 0.22628 0.79166 0.85474 0.0
C1575 C 0.23178 0.77223 0.85295 0.0
C1576 C 0.22758 0.80103 0.87277 0.0
C1577 C 0.23815 0.76216 0.86965 0.0
C1578 C 0.23946 0.77138 0.88767 0.0
C1579 C 0.23623 0.80045 0.90728 0.0
C1580 C 0.23124 0.82005 0.90885 0.0
C1581 C 0.23441 0.79088 0.88936 0.0
C1582 C 0.22421 0.82987 0.89227 0.0
C1583 C 0.22241 0.82047 0.87443 0.0
H1584 H 0.02944 0.54563 0.39914 0.0
H1585 H 0.02985 0.48441 0.41172 0.0
H1586 H 0.04756 0.47871 0.38159 0.0
H1587 H 0.06334 0.49103 0.35191 0.0
H1588 H 0.06381 0.55229 0.33943 0.0
H1589 H 0.04494 0.55796 0.36892 0.0
C1590 C 0.03326 0.53103 0.39517 0.0
C1591 C 0.02845 0.51549 0.40777 0.0
C1592 C 0.04354 0.52784 0.37779 0.0
C1593 C 0.03364 0.49667 0.40247 0.0
C1594 C 0.04369 0.49338 0.38519 0.0
C1595 C 0.05948 0.50566 0.35569 0.0
C1596 C 0.06511 0.52119 0.34344 0.0
C1597 C 0.04887 0.50886 0.37282 0.0
C1598 C 0.05953 0.54 0.34843 0.0
C1599 C 0.04884 0.54329 0.36539 0.0
H1600 H 0.80672 0.73363 0.8669 0.0
H1601 H 0.75018 0.75997 0.86844 0.0
H1602 H 0.73928 0.73606 0.89267 0.0
H1603 H 0.7462 0.7084 0.91439 0.0
H1604 H 0.80334 0.68321 0.91378 0.0
H1605 H 0.81352 0.70591 0.88826 0.0
C1606 C 0.79204 0.73424 0.8726 0.0
C1607 C 0.77936 0.74869 0.86589 0.0
C1608 C 0.78594 0.72063 0.88674 0.0
C1609 C 0.76023 0.74893 0.87317 0.0
C1610 C 0.75401 0.73533 0.88715 0.0
C1611 C 0.76091 0.70793 0.90875 0.0
C1612 C 0.77394 0.69404 0.91606 0.0
C1613 C 0.76681 0.72124 0.8942 0.0
C1614 C 0.79286 0.69349 0.90829 0.0
C1615 C 0.79878 0.70659 0.89377 0.0
H1616 H 0.99944 0.99715 0.38523 0.0
H1617 H 0.97027 0.94626 0.40828 0.0
H1618 H 0.94348 0.9509 0.38536 0.0
H1619 H 0.92914 0.96836 0.35753 0.0
H1620 H 0.95882 0.01867 0.33383 0.0
H1621 H 0.98447 0.01535 0.35825 0.0
C1622 C 0.98722 0.98708 0.38524 0.0
C1623 C 0.98695 0.97134 0.39843 0.0
C1624 C 0.97193 0.9897 0.37185 0.0
C1625 C 0.97081 0.95862 0.39845 0.0
C1626 C 0.95552 0.96117 0.38524 0.0
C1627 C 0.94123 0.97859 0.3577 0.0
C1628 C 0.94205 0.99369 0.34379 0.0
C1629 C 0.95606 0.97649 0.37168 0.0
C1630 C 0.95767 0.00702 0.34446 0.0
C1631 C 0.97244 0.00506 0.35835 0.0
H1632 H 0.23724 0.23705 0.64912 0.0
H1633 H 0.1883 0.25876 0.61641 0.0
H1634 H 0.19452 0.23584 0.59054 0.0
H1635 H 0.21369 0.20961 0.57709 0.0
H1636 H 0.26311 0.18809 0.6091 0.0
H1637 H 0.25683 0.21085 0.63531 0.0
C1638 C 0.22803 0.23684 0.63627 0.0
C1639 C 0.21224 0.24956 0.63482 0.0
C1640 C 0.23173 0.22361 0.62131 0.0
C1641 C 0.20034 0.24894 0.61812 0.0
C1642 C 0.20395 0.2359 0.60322 0.0
C1643 C 0.22323 0.21002 0.5897 0.0
C1644 C 0.23889 0.19718 0.59106 0.0
C1645 C 0.21959 0.22317 0.60466 0.0
C1646 C 0.25084 0.19767 0.60773 0.0
C1647 C 0.24732 0.21076 0.62269 0.0
H1648 H 0.48078 0.55639 0.6147 0.0
H1649 H 0.51822 0.51089 0.63525 0.0
H1650 H 0.4942 0.50141 0.65982 0.0
H1651 H 0.46308 0.50666 0.67622 0.0
H1652 H 0.42562 0.55228 0.65607 0.0
H1653 H 0.44887 0.56076 0.63033 0.0
C1654 C 0.48356 0.54423 0.62438 0.0
C1655 C 0.50137 0.53449 0.62323 0.0
C1656 C 0.46966 0.53886 0.63855 0.0
C1657 C 0.50479 0.51886 0.63602 0.0
C1658 C 0.49102 0.51337 0.65003 0.0
C1659 C 0.46003 0.51851 0.66625 0.0
C1660 C 0.44268 0.52889 0.66818 0.0
C1661 C 0.47354 0.52343 0.65161 0.0
C1662 C 0.43879 0.54395 0.65485 0.0
C1663 C 0.45214 0.54889 0.64019 0.0
H1664 H 0.80847 0.27321 0.64058 0.0
H1665 H 0.74921 0.25263 0.64678 0.0
H1666 H 0.73868 0.27557 0.62172 0.0
H1667 H 0.74646 0.30076 0.59716 0.0
H1668 H 0.80607 0.32001 0.59005 0.0
H1669 H 0.81622 0.29829 0.61623 0.0
C1670 C 0.79325 0.27362 0.63639 0.0
C1671 C 0.7797 0.2611 0.64558 0.0
C1672 C 0.78733 0.28663 0.62173 0.0
C1673 C 0.75997 0.26221 0.64018 0.0
C1674 C 0.75394 0.27523 0.62571 0.0
C1675 C 0.76169 0.30012 0.60125 0.0
C1676 C 0.77544 0.3121 0.5916 0.0
C1677 C 0.76752 0.28738 0.61623 0.0
C1678 C 0.79508 0.31124 0.59735 0.0
C1679 C 0.80095 0.2987 0.61227 0.0
H1680 H 0.51488 0.00361 0.61154 0.0
H1681 H 0.53112 0.94433 0.60279 0.0
H1682 H 0.55074 0.94503 0.63252 0.0
H1683 H 0.56415 0.96281 0.66045 0.0
H1684 H 0.54737 0.02192 0.66944 0.0
H1685 H 0.52714 0.02092 0.64019 0.0
C1686 C 0.52246 0.99074 0.61629 0.0
C1687 C 0.52152 0.97396 0.6049 0.0
C1688 C 0.53376 0.99125 0.63338 0.0
C1689 C 0.53175 0.95752 0.61113 0.0
C1690 C 0.54293 0.95788 0.62818 0.0
C1691 C 0.55589 0.97541 0.65616 0.0
C1692 C 0.55741 0.99245 0.66712 0.0
C1693 C 0.54418 0.97472 0.63933 0.0
C1694 C 0.54677 0.00871 0.66114 0.0
C1695 C 0.53508 0.00812 0.64446 0.0
H1696 H 0.87773 0.23567 0.75033 0.0
H1697 H 0.84157 0.20609 0.79279 0.0
H1698 H 0.86592 0.21221 0.8181 0.0
H1699 H 0.89816 0.22474 0.82786 0.0
H1700 H 0.93433 0.25411 0.78524 0.0
H1701 H 0.90931 0.24936 0.76036 0.0
C1702 C 0.87504 0.23083 0.76518 0.0
C1703 C 0.85786 0.22043 0.76964 0.0
C1704 C 0.88919 0.23424 0.77962 0.0
C1705 C 0.85476 0.21397 0.78892 0.0
C1706 C 0.86865 0.2175 0.80341 0.0
C1707 C 0.90046 0.2303 0.81318 0.0
C1708 C 0.91816 0.23966 0.8084 0.0
C1709 C 0.88603 0.22743 0.79889 0.0
C1710 C 0.92098 0.24659 0.78925 0.0
C1711 C 0.90664 0.24396 0.77502 0.0
H1712 H 0.49941 0.91135 0.46438 0.0
H1713 H 0.45294 0.88875 0.50054 0.0
H1714 H 0.45401 0.85795 0.48339 0.0
H1715 H 0.46781 0.83765 0.45759 0.0
H1716 H 0.5145 0.86061 0.42182 0.0
H1717 H 0.51336 0.89115 0.43906 0.0
C1718 C 0.48936 0.89977 0.46839 0.0
C1719 C 0.47603 0.90243 0.48365 0.0
C1720 C 0.49002 0.88217 0.45845 0.0
C1721 C 0.46343 0.88707 0.48893 0.0
C1722 C 0.46398 0.86948 0.47907 0.0
C1723 C 0.47783 0.84929 0.45367 0.0
C1724 C 0.4911 0.84684 0.43828 0.0
C1725 C 0.47721 0.86687 0.46377 0.0
C1726 C 0.50387 0.86217 0.43332 0.0
C1727 C 0.50333 0.87963 0.44327 0.0
H1728 H 0.14276 0.31032 0.7772 0.0
H1729 H 0.13022 0.25968 0.74303 0.0
H1730 H 0.10495 0.24968 0.76615 0.0
H1731 H 0.08524 0.2562 0.79507 0.0
H1732 H 0.09807 0.30658 0.82961 0.0
H1733 H 0.12403 0.31601 0.80709 0.0
C1734 C 0.13447 0.29711 0.77482 0.0
C1735 C 0.13836 0.2858 0.75837 0.0
C1736 C 0.11986 0.2915 0.78811 0.0
C1737 C 0.12769 0.26856 0.75566 0.0
C1738 C 0.11313 0.2629 0.7688 0.0
C1739 C 0.09389 0.26908 0.79789 0.0
C1740 C 0.08953 0.2807 0.81401 0.0
C1741 C 0.10896 0.27435 0.78498 0.0
C1742 C 0.10078 0.29752 0.81716 0.0
C1743 C 0.11575 0.30288 0.80435 0.0
H1744 H 0.52007 0.63208 0.51786 0.0
H1745 H 0.56019 0.60263 0.48045 0.0
H1746 H 0.55425 0.62619 0.45445 0.0
H1747 H 0.53901 0.65616 0.44289 0.0
H1748 H 0.49923 0.68584 0.48047 0.0
H1749 H 0.50413 0.6615 0.50597 0.0
C1750 C 0.52759 0.63084 0.50405 0.0
C1751 C 0.5406 0.61557 0.5012 0.0
C1752 C 0.52435 0.64463 0.48924 0.0
C1753 C 0.54991 0.61404 0.48303 0.0
C1754 C 0.54665 0.62763 0.46818 0.0
C1755 C 0.53122 0.65719 0.45656 0.0
C1756 C 0.51886 0.67291 0.45975 0.0
C1757 C 0.53405 0.64309 0.47118 0.0
C1758 C 0.50909 0.67411 0.4777 0.0
C1759 C 0.51178 0.66011 0.49227 0.0
H1760 H 0.85224 0.79912 0.72197 0.0
H1761 H 0.87427 0.76181 0.76755 0.0
H1762 H 0.90055 0.75175 0.74632 0.0
H1763 H 0.91846 0.75484 0.71554 0.0
H1764 H 0.89693 0.79244 0.66999 0.0
H1765 H 0.86964 0.80141 0.69065 0.0
C1766 C 0.8628 0.78881 0.72728 0.0
C1767 C 0.86116 0.78124 0.74637 0.0
C1768 C 0.87815 0.78328 0.71508 0.0
C1769 C 0.87489 0.76767 0.75286 0.0
C1770 C 0.89008 0.76202 0.74078 0.0
C1771 C 0.90766 0.76479 0.70999 0.0
C1772 C 0.90984 0.77299 0.69123 0.0
C1773 C 0.89197 0.76987 0.72193 0.0
C1774 C 0.89581 0.7861 0.68447 0.0
C1775 C 0.88013 0.79117 0.69624 0.0
H1776 H 0.04323 0.86694 0.49741 0.0
H1777 H 0.02357 0.9128 0.53433 0.0
H1778 H 0.01561 0.88924 0.56003 0.0
H1779 H 0.01348 0.85543 0.57172 0.0
H1780 H 0.03304 0.80978 0.53445 0.0
H1781 H 0.04132 0.8334 0.50905 0.0
C1782 C 0.03701 0.8718 0.51099 0.0
C1783 C 0.03393 0.89164 0.51385 0.0
C1784 C 0.03232 0.85818 0.52563 0.0
C1785 C 0.02627 0.89766 0.53176 0.0
C1786 C 0.0216 0.88417 0.54644 0.0
C1787 C 0.0197 0.85068 0.5581 0.0
C1788 C 0.02251 0.83082 0.55498 0.0
C1789 C 0.02452 0.86438 0.54352 0.0
C1790 C 0.0304 0.82491 0.53714 0.0
C1791 C 0.03527 0.83843 0.52263 0.0
H1792 H 0.1377 0.72707 0.74814 0.0
H1793 H 0.17161 0.75894 0.70533 0.0
H1794 H 0.14295 0.76239 0.68482 0.0
H1795 H 0.10835 0.75642 0.67879 0.0
H1796 H 0.07463 0.72271 0.72027 0.0
H1797 H 0.10307 0.72003 0.74145 0.0
C1798 C 0.13889 0.73461 0.73425 0.0
C1799 C 0.15687 0.74288 0.72849 0.0
C1800 C 0.12234 0.73629 0.72224 0.0
C1801 C 0.15796 0.75279 0.71047 0.0
C1802 C 0.14157 0.75465 0.69859 0.0
C1803 C 0.10721 0.74825 0.69233 0.0
C1804 C 0.08926 0.73979 0.69782 0.0
C1805 C 0.1237 0.74646 0.70431 0.0
C1806 C 0.08811 0.72964 0.71571 0.0
C1807 C 0.10444 0.72796 0.7278 0.0
H1808 H 0.99124 0.59021 0.5509 0.0
H1809 H 0.97767 0.62063 0.49741 0.0
H1810 H 0.97743 0.65121 0.51493 0.0
H1811 H 0.98242 0.66953 0.54533 0.0
H1812 H 0.99734 0.63887 0.59827 0.0
H1813 H 0.99612 0.60824 0.58097 0.0
C1814 C 0.98845 0.60352 0.54296 0.0
C1815 C 0.98462 0.60304 0.52278 0.0
C1816 C 0.98869 0.62107 0.55303 0.0
C1817 C 0.98051 0.62047 0.51294 0.0
C1818 C 0.98049 0.63801 0.52294 0.0
C1819 C 0.98523 0.6561 0.55308 0.0
C1820 C 0.99004 0.65648 0.57305 0.0
C1821 C 0.98469 0.6385 0.54297 0.0
C1822 C 0.99384 0.63899 0.58286 0.0
C1823 C 0.99307 0.62147 0.573 0.0
H1824 H 0.74045 0.88563 0.22836 0.0
H1825 H 0.78337 0.84292 0.21471 0.0
H1826 H 0.80944 0.86578 0.22295 0.0
H1827 H 0.82009 0.89839 0.23283 0.0
H1828 H 0.77694 0.94132 0.24517 0.0
H1829 H 0.751 0.91791 0.23862 0.0
C1830 C 0.75551 0.88133 0.22708 0.0
C1831 C 0.7599 0.86259 0.2208 0.0
C1832 C 0.77043 0.89462 0.23159 0.0
C1833 C 0.77952 0.85717 0.21966 0.0
C1834 C 0.79446 0.87029 0.22424 0.0
C1835 C 0.80501 0.90265 0.23399 0.0
C1836 C 0.80053 0.92163 0.2395 0.0
C1837 C 0.79009 0.88914 0.23001 0.0
C1838 C 0.78087 0.92678 0.24123 0.0
C1839 C 0.766 0.91342 0.23736 0.0
H1840 H 0.76565 0.14555 0.24874 0.0
H1841 H 0.78527 0.15901 0.30688 0.0
H1842 H 0.80492 0.12987 0.30761 0.0
H1843 H 0.81755 0.10111 0.29126 0.0
H1844 H 0.79832 0.08807 0.2329 0.0
H1845 H 0.77764 0.11647 0.23272 0.0
C1846 C 0.77426 0.14213 0.26156 0.0
C1847 C 0.77399 0.15451 0.2777 0.0
C1848 C 0.78569 0.12544 0.26182 0.0
C1849 C 0.78499 0.14966 0.29432 0.0
C1850 C 0.79638 0.13306 0.2947 0.0
C1851 C 0.80889 0.10455 0.27848 0.0
C1852 C 0.80954 0.09249 0.26211 0.0
C1853 C 0.79701 0.12095 0.27846 0.0
C1854 C 0.79798 0.09698 0.24577 0.0
C1855 C 0.7862 0.11328 0.24561 0.0
H1856 H 0.40843 0.95828 0.99042 0.0
H1857 H 0.37841 0.01066 0.97515 0.0
H1858 H 0.34711 0.99348 0.9774 0.0
H1859 H 0.32823 0.96358 0.98428 0.0
H1860 H 0.35853 0.91142 0.99986 0.0
H1861 H 0.38973 0.92847 0.99685 0.0
C1862 C 0.39506 0.96589 0.98735 0.0
C1863 C 0.39578 0.98571 0.98253 0.0
C1864 C 0.37714 0.95597 0.98881 0.0
C1865 C 0.37826 0.99543 0.979 0.0
C1866 C 0.36037 0.9856 0.98023 0.0
C1867 C 0.34168 0.95593 0.98685 0.0
C1868 C 0.34104 0.93627 0.99235 0.0
C1869 C 0.35962 0.96587 0.9852 0.0
C1870 C 0.3586 0.92661 0.99586 0.0
C1871 C 0.37645 0.93633 0.99405 0.0
H1872 H 0.2251 0.35602 0.29555 0.0
H1873 H 0.27385 0.38698 0.26986 0.0
H1874 H 0.25268 0.41355 0.26088 0.0
H1875 H 0.22063 0.42866 0.26123 0.0
H1876 H 0.17239 0.39892 0.28914 0.0
H1877 H 0.19308 0.37138 0.29632 0.0
C1878 C 0.23117 0.36862 0.28811 0.0
C1879 C 0.25113 0.36931 0.28337 0.0
C1880 C 0.21899 0.38418 0.28339 0.0
C1881 C 0.25853 0.38571 0.2734 0.0
C1882 C 0.24646 0.40108 0.26841 0.0
C1883 C 0.21464 0.41626 0.26906 0.0
C1884 C 0.19491 0.41599 0.27462 0.0
C1885 C 0.22671 0.40056 0.27349 0.0
C1886 C 0.1874 0.39953 0.2844 0.0
C1887 C 0.19928 0.38377 0.28865 0.0
H1888 H 0.12906 0.99724 0.49148 0.0
H1889 H 0.09976 0.03346 0.44938 0.0
H1890 H 0.12385 0.05916 0.45455 0.0
H1891 H 0.15418 0.0708 0.46985 0.0
H1892 H 0.18358 0.03433 0.51166 0.0
H1893 H 0.15882 0.00915 0.50736 0.0
C1894 C 0.12797 0.01072 0.48336 0.0
C1895 C 0.11259 0.01333 0.47002 0.0
C1896 C 0.14204 0.02535 0.48618 0.0
C1897 C 0.11126 0.03108 0.45992 0.0
C1898 C 0.12514 0.04575 0.46274 0.0
C1899 C 0.15506 0.05744 0.47819 0.0
C1900 C 0.17085 0.05446 0.49096 0.0
C1901 C 0.1407 0.04299 0.47571 0.0
C1902 C 0.17183 0.03692 0.50147 0.0
C1903 C 0.15759 0.02254 0.49912 0.0
H1904 H 0.7497 0.1201 0.70722 0.0
H1905 H 0.72194 0.16188 0.74383 0.0
H1906 H 0.6978 0.13754 0.75392 0.0
H1907 H 0.68468 0.10423 0.75247 0.0
H1908 H 0.71164 0.06332 0.71421 0.0
H1909 H 0.73587 0.08754 0.70464 0.0
C1910 C 0.7382 0.12405 0.71716 0.0
C1911 C 0.73769 0.14289 0.72468 0.0
C1912 C 0.72423 0.11007 0.72271 0.0
C1913 C 0.7229 0.14747 0.73795 0.0
C1914 C 0.70899 0.13357 0.74365 0.0
C1915 C 0.69571 0.10065 0.74188 0.0
C1916 C 0.69635 0.08183 0.73427 0.0
C1917 C 0.70953 0.1148 0.73615 0.0
C1918 C 0.71096 0.07749 0.72071 0.0
C1919 C 0.72478 0.0914 0.71507 0.0
H1920 H 0.3884 0.01032 0.53667 0.0
H1921 H 0.42424 0.05157 0.50497 0.0
H1922 H 0.39647 0.07276 0.50084 0.0
H1923 H 0.36199 0.07961 0.50592 0.0
H1924 H 0.32587 0.03861 0.53757 0.0
H1925 H 0.35361 0.01716 0.5416 0.0
C1926 C 0.39009 0.02388 0.52873 0.0
C1927 C 0.40846 0.02937 0.52129 0.0
C1928 C 0.37397 0.03603 0.5263 0.0
C1929 C 0.41039 0.0471 0.51119 0.0
C1930 C 0.39447 0.0592 0.50869 0.0
C1931 C 0.3602 0.06607 0.51388 0.0
C1932 C 0.34185 0.06079 0.52146 0.0
C1933 C 0.37622 0.05386 0.51624 0.0
C1934 C 0.33976 0.04298 0.53139 0.0
C1935 C 0.35565 0.03074 0.5338 0.0
H1936 H 0.62327 0.50238 0.51522 0.0
H1937 H 0.61325 0.48107 0.57376 0.0
H1938 H 0.63705 0.4557 0.56896 0.0
H1939 H 0.66196 0.44058 0.54877 0.0
H1940 H 0.67188 0.46175 0.49014 0.0
H1941 H 0.64722 0.48635 0.49452 0.0
C1942 C 0.62632 0.49219 0.52693 0.0
C1943 C 0.61647 0.49367 0.54482 0.0
C1944 C 0.64016 0.47771 0.52414 0.0
C1945 C 0.62041 0.48016 0.55975 0.0
C1946 C 0.63414 0.46571 0.55707 0.0
C1947 C 0.65855 0.45038 0.53684 0.0
C1948 C 0.66893 0.44935 0.5192 0.0
C1949 C 0.64424 0.46445 0.5394 0.0
C1950 C 0.66442 0.46239 0.50401 0.0
C1951 C 0.65022 0.47642 0.50645 0.0
H1952 H 0.71434 0.27113 0.36484 0.0
H1953 H 0.77264 0.28533 0.3457 0.0
H1954 H 0.77753 0.3057 0.37408 0.0
H1955 H 0.76528 0.31982 0.40418 0.0
H1956 H 0.70693 0.30623 0.42344 0.0
H1957 H 0.70207 0.28527 0.3953 0.0
C1958 C 0.72807 0.27876 0.36686 0.0
C1959 C 0.74312 0.2766 0.35317 0.0
C1960 C 0.7308 0.29055 0.38326 0.0
C1961 C 0.7609 0.28645 0.35613 0.0
C1962 C 0.76369 0.29822 0.37231 0.0
C1963 C 0.75144 0.3124 0.40214 0.0
C1964 C 0.73647 0.31468 0.41585 0.0
C1965 C 0.74874 0.30042 0.38594 0.0
C1966 C 0.71876 0.30462 0.41319 0.0
C1967 C 0.71593 0.29271 0.39704 0.0
H1968 H 0.50803 0.03614 0.89283 0.0
H1969 H 0.5485 0.00509 0.92939 0.0
H1970 H 0.56972 1.00032 0.90154 0.0
H1971 H 0.57667 0.00427 0.86667 0.0
H1972 H 0.536 0.03438 0.82969 0.0
H1973 H 0.51484 0.03977 0.85769 0.0
C1974 C 0.5214 0.0282 0.8947 0.0
C1975 C 0.52665 0.02117 0.91332 0.0
C1976 C 0.53351 0.02521 0.87849 0.0
C1977 C 0.54421 0.01107 0.9154 0.0
C1978 C 0.55633 0.00817 0.89942 0.0
C1979 C 0.56326 0.01217 0.86477 0.0
C1980 C 0.55797 0.01894 0.84611 0.0
C1981 C 0.55114 0.01517 0.88091 0.0
C1982 C 0.54035 0.02886 0.84385 0.0
C1983 C 0.52828 0.03202 0.85988 0.0
H1984 H 0.31235 0.23719 0.37457 0.0
H1985 H 0.25257 0.25144 0.36244 0.0
H1986 H 0.24155 0.22646 0.38553 0.0
H1987 H 0.24897 0.2015 0.4103 0.0
H1988 H 0.30895 0.18862 0.42331 0.0
H1989 H 0.31973 0.21207 0.39877 0.0
C1990 C 0.2969 0.23493 0.37703 0.0
C1991 C 0.28333 0.24632 0.36685 0.0
C1992 C 0.29067 0.22075 0.39053 0.0
C1993 C 0.26335 0.24282 0.36993 0.0
C1994 C 0.25704 0.22861 0.38325 0.0
C1995 C 0.2644 0.20386 0.40782 0.0
C1996 C 0.27808 0.1932 0.41869 0.0
C1997 C 0.27057 0.21765 0.39382 0.0
C1998 C 0.29803 0.19631 0.41501 0.0
C1999 C 0.30425 0.20987 0.40106 0.0
H2000 H 0.50495 0.45442 0.86993 0.0
H2001 H 0.47496 0.48394 0.91587 0.0
H2002 H 0.44871 0.4921 0.89327 0.0
H2003 H 0.43446 0.49121 0.86024 0.0
H2004 H 0.46566 0.46304 0.81418 0.0
H2005 H 0.49121 0.45411 0.83706 0.0
C2006 C 0.49281 0.46284 0.875 0.0
C2007 C 0.49204 0.4686 0.89461 0.0
C2008 C 0.4779 0.46771 0.86189 0.0
C2009 C 0.47589 0.47911 0.90094 0.0
C2010 C 0.46091 0.48391 0.88798 0.0
C2011 C 0.44692 0.48326 0.85516 0.0
C2012 C 0.44799 0.47773 0.83548 0.0
C2013 C 0.4618 0.47835 0.86838 0.0
C2014 C 0.46418 0.46719 0.82928 0.0
C2015 C 0.47892 0.46218 0.84233 0.0
H2016 H 0.72971 0.75884 0.12175 0.0
H2017 H 0.71657 0.71577 0.16587 0.0
H2018 H 0.7234 0.69006 0.14271 0.0
H2019 H 0.73192 0.67987 0.10944 0.0
H2020 H 0.74412 0.7232 0.06529 0.0
H2021 H 0.73895 0.74875 0.08893 0.0
C2022 C 0.72863 0.74382 0.12638 0.0
C2023 C 0.72274 0.73921 0.14552 0.0
C2024 C 0.73229 0.72917 0.11293 0.0
C2025 C 0.72101 0.71968 0.15118 0.0
C2026 C 0.72493 0.70499 0.13796 0.0
C2027 C 0.73363 0.69491 0.10508 0.0
C2028 C 0.73831 0.69964 0.08563 0.0
C2029 C 0.7304 0.70956 0.11873 0.0
C2030 C 0.74028 0.71919 0.08012 0.0
C2031 C 0.7374 0.7338 0.09364 0.0
H2032 H 0.01154 0.03534 0.13976 0.0
H2033 H 0.97046 0.03022 0.09245 0.0
H2034 H 0.94441 0.02244 0.11567 0.0
H2035 H 0.93334 0.01725 0.14951 0.0
H2036 H 0.97448 0.02382 0.19673 0.0
H2037 H 1.00048 0.03045 0.17344 0.0
C2038 C 0.99693 0.03229 0.13452 0.0
C2039 C 0.99296 0.03324 0.11441 0.0
C2040 C 0.98202 0.02804 0.14794 0.0
C2041 C 0.97387 0.02965 0.10787 0.0
C2042 C 0.95899 0.02516 0.12114 0.0
C2043 C 0.94795 0.02029 0.15474 0.0
C2044 C 0.95187 0.01988 0.17492 0.0
C2045 C 0.96287 0.02442 0.14123 0.0
C2046 C 0.97101 0.02363 0.18132 0.0
C2047 C 0.98592 0.02758 0.168 0.0
H2048 H 0.26585 0.75002 0.13358 0.0
H2049 H 0.32002 0.77959 0.14629 0.0
H2050 H 0.31239 0.8046 0.12225 0.0
H2051 H 0.29112 0.81735 0.09663 0.0
H2052 H 0.23637 0.78857 0.08451 0.0
H2053 H 0.24352 0.764 0.10922 0.0
C2054 C 0.27585 0.76209 0.1313 0.0
C2055 C 0.29357 0.76279 0.14164 0.0
C2056 C 0.27137 0.7765 0.11742 0.0
C2057 C 0.30644 0.77846 0.13832 0.0
C2058 C 0.30206 0.79284 0.12462 0.0
C2059 C 0.28056 0.80591 0.09957 0.0
C2060 C 0.26325 0.80485 0.08858 0.0
C2061 C 0.28468 0.79189 0.11392 0.0
C2062 C 0.24997 0.78964 0.09246 0.0
C2063 C 0.25398 0.77561 0.1067 0.0
H2064 H 0.04827 0.49131 0.09337 0.0
H2065 H 0.99724 0.47064 0.12408 0.0
H2066 H 0.01463 0.47322 0.15513 0.0
H2067 H 0.04461 0.48099 0.17352 0.0
H2068 H 0.09538 0.50183 0.14238 0.0
H2069 H 0.07794 0.49913 0.11155 0.0
C2070 C 0.041 0.48714 0.10682 0.0
C2071 C 0.0215 0.48069 0.10636 0.0
C2072 C 0.05108 0.48862 0.12457 0.0
C2073 C 0.01219 0.47578 0.12401 0.0
C2074 C 0.02216 0.47717 0.14177 0.0
C2075 C 0.0518 0.48508 0.16 0.0
C2076 C 0.07135 0.49148 0.16031 0.0
C2077 C 0.04162 0.4836 0.14223 0.0
C2078 C 0.08048 0.49654 0.1426 0.0
C2079 C 0.07048 0.49511 0.12494 0.0
H2080 H 0.38257 0.69479 0.26352 0.0
H2081 H 0.35334 0.74888 0.27165 0.0
H2082 H 0.37733 0.75814 0.29636 0.0
H2083 H 0.4072 0.75116 0.31505 0.0
H2084 H 0.436 0.69682 0.30685 0.0
H2085 H 0.41153 0.68735 0.28287 0.0
C2086 C 0.38123 0.70848 0.27091 0.0
C2087 C 0.36611 0.72108 0.26576 0.0
C2088 C 0.39509 0.71372 0.28503 0.0
C2089 C 0.36491 0.73896 0.2752 0.0
C2090 C 0.37859 0.74424 0.28939 0.0
C2091 C 0.40799 0.73716 0.30817 0.0
C2092 C 0.4235 0.72477 0.31269 0.0
C2093 C 0.39383 0.73178 0.29433 0.0
C2094 C 0.42442 0.70677 0.30345 0.0
C2095 C 0.41036 0.70129 0.2898 0.0
H2096 H 0.99543 0.4156 0.96282 0.0
H2097 H 0.95683 0.38957 0.00544 0.0
H2098 H 0.95797 0.35883 0.98821 0.0
H2099 H 0.96964 0.33946 0.96068 0.0
H2100 H 0.00843 0.36585 0.91837 0.0
H2101 H 0.00712 0.3964 0.93559 0.0
C2102 C 0.98707 0.40328 0.96824 0.0
C2103 C 0.97598 0.40495 0.98536 0.0
C2104 C 0.98775 0.3857 0.95824 0.0
C2105 C 0.96561 0.38867 0.99239 0.0
C2106 C 0.96618 0.3711 0.98248 0.0
C2107 C 0.97791 0.35186 0.9553 0.0
C2108 C 0.98901 0.35033 0.93814 0.0
C2109 C 0.97722 0.36944 0.96539 0.0
C2110 C 0.99948 0.36664 0.93131 0.0
C2111 C 0.99886 0.38412 0.94123 0.0
H2112 H 0.6535 0.77957 0.27832 0.0
H2113 H 0.61112 0.79655 0.23507 0.0
H2114 H 0.58485 0.7892 0.25782 0.0
H2115 H 0.57377 0.77853 0.29005 0.0
H2116 H 0.61569 0.75992 0.33303 0.0
H2117 H 0.64218 0.76736 0.31035 0.0
C2118 C 0.63852 0.78148 0.27379 0.0
C2119 C 0.6344 0.78884 0.25502 0.0
C2120 C 0.62335 0.777 0.28693 0.0
C2121 C 0.61483 0.79135 0.24953 0.0
C2122 C 0.59974 0.787 0.2625 0.0
C2123 C 0.58866 0.77579 0.29442 0.0
C2124 C 0.59263 0.76867 0.31329 0.0
C2125 C 0.60382 0.77991 0.28125 0.0
C2126 C 0.61213 0.76564 0.31873 0.0
C2127 C 0.62732 0.76979 0.3057 0.0
H2128 H 0.06377 0.13079 0.99444 0.0
H2129 H 0.0048 0.10921 0.99945 0.0
H2130 H 0.99395 0.13346 0.97573 0.0
H2131 H 1.001 0.16182 0.95478 0.0
H2132 H 0.06025 0.1828 0.94945 0.0
H2133 H 0.07105 0.15808 0.97242 0.0
C2134 C 0.04853 0.13142 0.99037 0.0
C2135 C 0.03511 0.11827 0.99879 0.0
C2136 C 0.04239 0.14545 0.97683 0.0
C2137 C 0.01547 0.11906 0.99308 0.0
C2138 C 0.00923 0.13301 0.97962 0.0
C2139 C 0.01632 0.16086 0.95843 0.0
C2140 C 0.02972 0.17438 0.95048 0.0
C2141 C 0.02253 0.1464 0.97153 0.0
C2142 C 0.04949 0.17294 0.95562 0.0
C2143 C 0.05574 0.15868 0.96866 0.0
H2144 H 0.35674 0.29401 0.23077 0.0
H2145 H 0.38667 0.26548 0.2781 0.0
H2146 H 0.41215 0.25539 0.25579 0.0
H2147 H 0.42684 0.25611 0.22323 0.0
H2148 H 0.39713 0.28466 0.17575 0.0
H2149 H 0.37073 0.29332 0.19769 0.0
C2150 C 0.3687 0.28534 0.23612 0.0
C2151 C 0.36985 0.28059 0.2561 0.0
C2152 C 0.38344 0.27974 0.22321 0.0
C2153 C 0.38556 0.26954 0.26285 0.0
C2154 C 0.40012 0.26373 0.25009 0.0
C2155 C 0.41445 0.26397 0.21759 0.0
C2156 C 0.41403 0.26976 0.19786 0.0
C2157 C 0.39935 0.26896 0.2303 0.0
C2158 C 0.39798 0.28023 0.19092 0.0
C2159 C 0.38282 0.28511 0.20344 0.0
H2160 H 0.5458 0.39656 0.03231 0.0
H2161 H 0.51527 0.36718 0.986 0.0
H2162 H 0.50662 0.34076 0.0083 0.0
H2163 H 0.50825 0.32558 0.04079 0.0
H2164 H 0.53835 0.355 0.08728 0.0
H2165 H 0.54626 0.38195 0.06522 0.0
C2166 C 0.53702 0.38451 0.02715 0.0
C2167 C 0.53136 0.38383 0.00742 0.0
C2168 C 0.53201 0.36934 0.0401 0.0
C2169 C 0.52016 0.36796 1.00099 0.0
C2170 C 0.51511 0.35286 0.01377 0.0
C2171 C 0.51662 0.33785 0.04607 0.0
C2172 C 0.52277 0.33822 0.06564 0.0
C2173 C 0.52113 0.35329 0.0333 0.0
C2174 C 0.5333 0.35441 0.07233 0.0
C2175 C 0.53791 0.36979 0.05969 0.0
H2176 H 0.64081 0.2303 0.25271 0.0
H2177 H 0.67724 0.2455 0.20358 0.0
H2178 H 0.6487 0.24715 0.18246 0.0
H2179 H 0.61337 0.24493 0.17795 0.0
H2180 H 0.57657 0.23007 0.22687 0.0
H2181 H 0.60517 0.22772 0.24804 0.0
C2182 C 0.64247 0.23383 0.23735 0.0
C2183 C 0.66112 0.23786 0.22976 0.0
C2184 C 0.62591 0.23491 0.22526 0.0
C2185 C 0.66303 0.24258 0.20985 0.0
C2186 C 0.64672 0.24346 0.19773 0.0
C2187 C 0.61161 0.24098 0.1932 0.0
C2188 C 0.59285 0.23764 0.20079 0.0
C2189 C 0.62809 0.23975 0.20528 0.0
C2190 C 0.59083 0.23289 0.22068 0.0
C2191 C 0.60719 0.23145 0.23278 0.0
H2192 H 0.48049 0.0907 0.05509 0.0
H2193 H 0.47772 0.12094 0.99977 0.0
H2194 H 0.48013 0.15187 0.01649 0.0
H2195 H 0.48466 0.17039 0.04684 0.0
H2196 H 0.48927 0.13972 0.10172 0.0
H2197 H 0.48497 0.10893 0.0851 0.0
C2198 C 0.48063 0.10401 0.04659 0.0
C2199 C 0.47904 0.10336 0.02612 0.0
C2200 C 0.4825 0.12173 0.05625 0.0
C2201 C 0.47871 0.12089 0.01553 0.0
C2202 C 0.48024 0.13863 0.02508 0.0
C2203 C 0.48456 0.15695 0.05513 0.0
C2204 C 0.48736 0.15732 0.07547 0.0
C2205 C 0.48232 0.13923 0.04543 0.0
C2206 C 0.48737 0.1398 0.08603 0.0
C2207 C 0.48484 0.1222 0.07655 0.0
H2208 H 0.27756 0.3642 0.69902 0.0
H2209 H 0.23789 0.37604 0.74597 0.0
H2210 H 0.25875 0.40274 0.75658 0.0
H2211 H 0.28736 0.42375 0.7516 0.0
H2212 H 0.32747 0.41162 0.70506 0.0
H2213 H 0.30706 0.38441 0.69495 0.0
C2214 C 0.27349 0.37264 0.71157 0.0
C2215 C 0.25617 0.36809 0.72167 0.0
C2216 C 0.2855 0.3881 0.71754 0.0
C2217 C 0.25125 0.37903 0.73806 0.0
C2218 C 0.2631 0.39442 0.74406 0.0
C2219 C 0.29183 0.41502 0.73942 0.0
C2220 C 0.30892 0.41992 0.72906 0.0
C2221 C 0.28016 0.39919 0.73381 0.0
C2222 C 0.31423 0.40851 0.7131 0.0
C2223 C 0.30263 0.39281 0.70738 0.0
H2224 H 0.2716 0.64671 0.7974 0.0
H2225 H 0.27573 0.66009 0.73589 0.0
H2226 H 0.29499 0.63131 0.73088 0.0
H2227 H 0.31132 0.60269 0.74389 0.0
H2228 H 0.3086 0.5898 0.80553 0.0
H2229 H 0.28816 0.61795 0.81049 0.0
C2230 C 0.27679 0.64339 0.78291 0.0
C2231 C 0.27206 0.65559 0.76705 0.0
C2232 C 0.28816 0.62687 0.78012 0.0
C2233 C 0.27876 0.65085 0.74834 0.0
C2234 C 0.28995 0.63445 0.74546 0.0
C2235 C 0.30643 0.60611 0.75845 0.0
C2236 C 0.31161 0.59414 0.77431 0.0
C2237 C 0.29484 0.62242 0.76124 0.0
C2238 C 0.30472 0.59862 0.79301 0.0
C2239 C 0.29311 0.61479 0.79589 0.0
H2240 H 0.89748 0.48953 0.50762 0.0
H2241 H 0.90714 0.47494 0.44733 0.0
H2242 H 0.87794 0.45461 0.44763 0.0
H2243 H 0.84985 0.44029 0.46522 0.0
H2244 H 0.83871 0.45714 0.52438 0.0
H2245 H 0.86804 0.47765 0.52417 0.0
C2246 C 0.89308 0.4823 0.49436 0.0
C2247 C 0.90482 0.48372 0.47755 0.0
C2248 C 0.87594 0.47098 0.49443 0.0
C2249 C 0.89881 0.47383 0.46068 0.0
C2250 C 0.88197 0.46227 0.46076 0.0
C2251 C 0.85389 0.44854 0.47799 0.0
C2252 C 0.84234 0.4472 0.49484 0.0
C2253 C 0.87054 0.46057 0.47761 0.0
C2254 C 0.84746 0.45804 0.51127 0.0
C2255 C 0.86422 0.46971 0.51115 0.0
H2256 H 0.72235 0.85364 0.79278 0.0
H2257 H 0.76976 0.89138 0.77544 0.0
H2258 H 0.74677 0.91671 0.76658 0.0
H2259 H 0.71331 0.92864 0.76509 0.0
H2260 H 0.66583 0.8918 0.78417 0.0
H2261 H 0.68861 0.86566 0.79113 0.0
C2262 C 0.72754 0.86736 0.78687 0.0
C2263 C 0.74765 0.87069 0.78467 0.0
C2264 C 0.71424 0.88205 0.78228 0.0
C2265 C 0.75432 0.88858 0.77727 0.0
C2266 C 0.7412 0.90304 0.77222 0.0
C2267 C 0.70795 0.91481 0.77057 0.0
C2268 C 0.68793 0.91211 0.77404 0.0
C2269 C 0.72115 0.90001 0.77485 0.0
C2270 C 0.6812 0.89424 0.78148 0.0
C2271 C 0.69421 0.87928 0.7854 0.0
H2272 H 0.63351 0.49379 0.98092 0.0
H2273 H 0.58791 0.53591 0.97635 0.0
H2274 H 0.6115 0.56185 0.9825 0.0
H2275 H 0.6453 0.57269 0.98862 0.0
H2276 H 0.69051 0.53031 0.99403 0.0
H2277 H 0.66678 0.50436 0.98852 0.0
C2278 C 0.62861 0.50859 0.98162 0.0
C2279 C 0.6089 0.51281 0.97812 0.0
C2280 C 0.64221 0.52343 0.98531 0.0
C2281 C 0.603 0.53219 0.97871 0.0
C2282 C 0.61647 0.54706 0.98231 0.0
C2283 C 0.64992 0.55776 0.98856 0.0
C2284 C 0.66963 0.55343 0.99173 0.0
C2285 C 0.63616 0.54287 0.98545 0.0
C2286 C 0.6754 0.53402 0.99182 0.0
C2287 C 0.66185 0.51917 0.98859 0.0
H2288 H 0.23159 0.65308 0.22016 0.0
H2289 H 0.27865 0.61281 0.21519 0.0
H2290 H 0.25683 0.58614 0.22438 0.0
H2291 H 0.22425 0.57404 0.23304 0.0
H2292 H 0.1768 0.6139 0.23736 0.0
H2293 H 0.19882 0.64089 0.22922 0.0
C2294 C 0.23705 0.63847 0.22124 0.0
C2295 C 0.25668 0.63492 0.21692 0.0
C2296 C 0.22434 0.62312 0.22635 0.0
C2297 C 0.26354 0.61589 0.2182 0.0
C2298 C 0.2511 0.60064 0.22353 0.0
C2299 C 0.21878 0.58867 0.23242 0.0
C2300 C 0.19894 0.59197 0.23586 0.0
C2301 C 0.23146 0.60405 0.22753 0.0
C2302 C 0.19199 0.61097 0.23464 0.0
C2303 C 0.20458 0.62641 0.23005 0.0
H2304 H 0.88998 0.5104 0.01192 0.0
H2305 H 0.92024 0.55311 0.04641 0.0
H2306 H 0.89178 0.57376 0.04536 0.0
H2307 H 0.85846 0.58006 0.03417 0.0
H2308 H 0.82786 0.53718 1.0003 0.0
H2309 H 0.85609 0.51608 0.00196 0.0
C2310 C 0.89027 0.52409 0.01945 0.0
C2311 C 0.90736 0.53022 0.02907 0.0
C2312 C 0.87376 0.53589 0.01892 0.0
C2313 C 0.90747 0.54815 0.03856 0.0
C2314 C 0.89114 0.55995 0.03807 0.0
C2315 C 0.85801 0.56612 0.0271 0.0
C2316 C 0.84112 0.56025 0.01706 0.0
C2317 C 0.87428 0.55407 0.02813 0.0
C2318 C 0.84063 0.542 0.00825 0.0
C2319 C 0.8568 0.52996 0.00911 0.0
H2320 H 0.10493 0.97928 0.04961 0.0
H2321 H 0.13367 0.02375 0.01524 0.0
H2322 H 0.1587 1.00101 0.00585 0.0
H2323 H 0.17298 0.96871 0.00802 0.0
H2324 H 0.14427 0.9241 0.04218 0.0
H2325 H 0.11852 0.94652 0.05067 0.0
C2326 C 0.11651 0.98393 0.03985 0.0
C2327 C 0.11746 0.00328 0.03329 0.0
C2328 C 0.1309 0.97073 0.03446 0.0
C2329 C 0.13273 0.00906 0.02079 0.0
C2330 C 0.14703 0.99603 0.01534 0.0
C2331 C 0.16112 0.96392 0.01739 0.0
C2332 C 0.16062 0.94477 0.02451 0.0
C2333 C 0.1464 0.9769 0.02227 0.0
C2334 C 0.14495 0.9387 0.03636 0.0
C2335 C 0.13026 0.95155 0.04131 0.0
loop_
_geom_bond_atom_site_label_1
_geom_bond_atom_site_label_2
_geom_bond_distance
_geom_bond_site_symmetry_2
_ccdc_geom_bond_type
P0 O11 1.490 . S
P0 C14 1.812 . S
P0 C20 1.803 . S
P0 C26 1.819 . S
H1 C15 0.941 . S
H2 C16 0.939 . S
H3 C18 0.940 . S
H4 C19 0.940 . S
H5 C21 0.939 . S
H6 C22 0.942 . S
H7 C24 0.940 . S
H8 C25 0.939 . S
H9 C27 0.941 . S
H10 C31 0.939 . S
O11 P0 1.490 . S
H12 C28 0.939 . S
H13 C30 0.940 . S
C14 P0 1.812 . S
C14 C15 1.389 . S
C14 C19 1.391 . S
C15 H1 0.941 . S
C15 C14 1.389 . S
C15 C16 1.397 . S
C16 H2 0.939 . S
C16 C15 1.397 . S
C16 C17 1.378 1_455 S
C17 C16 1.378 1_655 S
C17 C18 1.378 . S
C18 H3 0.940 . S
C18 C17 1.378 . S
C18 C19 1.396 1_655 S
C19 H4 0.940 . S
C19 C14 1.391 . S
C19 C18 1.396 1_455 S
C20 P0 1.803 . S
C20 C21 1.378 . S
C20 C25 1.400 . S
C21 H5 0.939 . S
C21 C20 1.378 . S
C21 C22 1.361 . S
C22 H6 0.942 . S
C22 C21 1.361 . S
C22 C23 1.369 1_545 S
C23 C22 1.369 1_565 S
C23 C24 1.404 . S
C24 H7 0.940 . S
C24 C23 1.404 . S
C24 C25 1.389 1_565 S
C25 H8 0.939 . S
C25 C20 1.400 . S
C25 C24 1.389 1_545 S
C26 P0 1.819 . S
C26 C27 1.391 . S
C26 C31 1.391 . S
C27 H9 0.941 . S
C27 C26 1.391 . S
C27 C28 1.396 . S
C28 H12 0.939 . S
C28 C27 1.396 . S
C28 C29 1.397 . S
C29 C28 1.397 . S
C29 C30 1.385 1_554 S
C30 H13 0.940 . S
C30 C29 1.385 1_556 S
C30 C31 1.388 1_556 S
C31 H10 0.939 . S
C31 C26 1.391 . S
C31 C30 1.388 1_554 S
P32 O43 1.490 . S
P32 C46 1.812 . S
P32 C52 1.803 . S
P32 C58 1.819 . S
H33 C47 0.941 . S
H34 C48 0.939 . S
H35 C50 0.940 . S
H36 C51 0.940 . S
H37 C53 0.939 . S
H38 C54 0.942 . S
H39 C56 0.940 . S
H40 C57 0.939 . S
H41 C59 0.941 . S
H42 C63 0.939 . S
O43 P32 1.490 . S
H44 C60 0.939 . S
H45 C62 0.940 . S
C46 P32 1.812 . S
C46 C47 1.389 . S
C46 C51 1.391 . S
C47 H33 0.941 . S
C47 C46 1.389 . S
C47 C48 1.397 . S
C48 H34 0.939 . S
C48 C47 1.397 . S
C48 C49 1.378 . S
C49 C48 1.378 . S
C49 C50 1.378 . S
C50 H35 0.940 . S
C50 C49 1.378 . S
C50 C51 1.396 . S
C51 H36 0.940 . S
C51 C46 1.391 . S
C51 C50 1.396 . S
C52 P32 1.803 . S
C52 C53 1.378 . S
C52 C57 1.400 . S
C53 H37 0.939 . S
C53 C52 1.378 . S
C53 C54 1.361 . S
C54 H38 0.942 . S
C54 C53 1.361 . S
C54 C55 1.369 . S
C55 C54 1.369 . S
C55 C56 1.404 . S
C56 H39 0.940 . S
C56 C55 1.404 . S
C56 C57 1.389 . S
C57 H40 0.939 . S
C57 C52 1.400 . S
C57 C56 1.389 . S
C58 P32 1.819 . S
C58 C59 1.391 . S
C58 C63 1.391 . S
C59 H41 0.941 . S
C59 C58 1.391 . S
C59 C60 1.396 . S
C60 H44 0.939 . S
C60 C59 1.396 . S
C60 C61 1.397 . S
C61 C60 1.397 . S
C61 C62 1.385 . S
C62 H45 0.940 . S
C62 C61 1.385 . S
C62 C63 1.388 . S
C63 H42 0.939 . S
C63 C58 1.391 . S
C63 C62 1.388 . S
P64 O75 1.524 . S
P64 C78 1.812 . S
P64 C84 1.803 . S
P64 C90 1.819 . S
H65 C79 0.941 . S
H66 C80 0.939 . S
H67 C82 0.940 . S
H68 C83 0.940 . S
H69 C85 0.939 . S
H70 C86 0.942 . S
H71 C88 0.940 . S
H72 C89 0.939 . S
H73 C91 0.941 . S
H74 C95 0.939 . S
O75 P64 1.524 . S
H76 C92 0.939 . S
H77 C94 0.940 . S
C78 P64 1.812 . S
C78 C79 1.389 1_554 S
C78 C83 1.391 . S
C79 H65 0.941 . S
C79 C78 1.389 1_556 S
C79 C80 1.397 . S
C80 H66 0.939 . S
C80 C79 1.397 . S
C80 C81 1.378 . S
C81 C80 1.378 . S
C81 C82 1.378 1_556 S
C82 H67 0.940 . S
C82 C81 1.378 1_554 S
C82 C83 1.396 . S
C83 H68 0.940 . S
C83 C78 1.391 . S
C83 C82 1.396 . S
C84 P64 1.803 . S
C84 C85 1.378 . S
C84 C89 1.400 . S
C85 H69 0.939 . S
C85 C84 1.378 . S
C85 C86 1.361 . S
C86 H70 0.942 . S
C86 C85 1.361 . S
C86 C87 1.369 . S
C87 C86 1.369 . S
C87 C88 1.404 . S
C88 H71 0.940 . S
C88 C87 1.404 . S
C88 C89 1.389 . S
C89 H72 0.939 . S
C89 C84 1.400 . S
C89 C88 1.389 . S
C90 P64 1.819 . S
C90 C91 1.391 1_655 S
C90 C95 1.391 . S
C91 H73 0.941 . S
C91 C90 1.391 1_455 S
C91 C92 1.396 . S
C92 H76 0.939 . S
C92 C91 1.396 . S
C92 C93 1.397 . S
C93 C92 1.397 . S
C93 C94 1.385 1_455 S
C94 H77 0.940 . S
C94 C93 1.385 1_655 S
C94 C95 1.388 . S
C95 H74 0.939 . S
C95 C90 1.391 . S
C95 C94 1.388 . S
P96 O107 1.490 . S
P96 C110 1.812 . S
P96 C116 1.803 . S
P96 C122 1.819 . S
H97 C111 0.941 . S
H98 C112 0.939 . S
H99 C114 0.940 . S
H100 C115 0.940 . S
H101 C117 0.939 . S
H102 C118 0.942 . S
H103 C120 0.940 . S
H104 C121 0.939 . S
H105 C123 0.941 . S
H106 C127 0.939 . S
O107 P96 1.490 . S
H108 C124 0.939 . S
H109 C126 0.940 . S
C110 P96 1.812 . S
C110 C111 1.389 . S
C110 C115 1.391 . S
C111 H97 0.941 . S
C111 C110 1.389 . S
C111 C112 1.397 . S
C112 H98 0.939 . S
C112 C111 1.397 . S
C112 C113 1.378 . S
C113 C112 1.378 . S
C113 C114 1.378 . S
C114 H99 0.940 . S
C114 C113 1.378 . S
C114 C115 1.396 . S
C115 H100 0.940 . S
C115 C110 1.391 . S
C115 C114 1.396 . S
C116 P96 1.803 . S
C116 C117 1.378 . S
C116 C121 1.400 . S
C117 H101 0.939 . S
C117 C116 1.378 . S
C117 C118 1.361 . S
C118 H102 0.942 . S
C118 C117 1.361 . S
C118 C119 1.369 . S
C119 C118 1.369 . S
C119 C120 1.404 . S
C120 H103 0.940 . S
C120 C119 1.404 . S
C120 C121 1.389 . S
C121 H104 0.939 . S
C121 C116 1.400 . S
C121 C120 1.389 . S
C122 P96 1.819 . S
C122 C123 1.391 . S
C122 C127 1.391 . S
C123 H105 0.941 . S
C123 C122 1.391 . S
C123 C124 1.396 . S
C124 H108 0.939 . S
C124 C123 1.396 . S
C124 C125 1.397 . S
C125 C124 1.397 . S
C125 C126 1.385 . S
C126 H109 0.940 . S
C126 C125 1.385 . S
C126 C127 1.388 . S
C127 H106 0.939 . S
C127 C122 1.391 . S
C127 C126 1.388 . S
P128 O139 1.490 . S
P128 C142 1.812 . S
P128 C148 1.803 . S
P128 C154 1.819 . S
H129 C143 0.941 . S
H130 C144 0.939 . S
H131 C146 0.940 . S
H132 C147 0.940 . S
H133 C149 0.939 . S
H134 C150 0.942 . S
H135 C152 0.940 . S
H136 C153 0.939 . S
H137 C155 0.941 . S
H138 C159 0.939 . S
O139 P128 1.490 . S
H140 C156 0.939 . S
H141 C158 0.940 . S
C142 P128 1.812 . S
C142 C143 1.389 . S
C142 C147 1.391 . S
C143 H129 0.941 . S
C143 C142 1.389 . S
C143 C144 1.397 . S
C144 H130 0.939 . S
C144 C143 1.397 . S
C144 C145 1.378 1_565 S
C145 C144 1.378 1_545 S
C145 C146 1.378 . S
C146 H131 0.940 . S
C146 C145 1.378 . S
C146 C147 1.396 1_545 S
C147 H132 0.940 . S
C147 C142 1.391 . S
C147 C146 1.396 1_565 S
C148 P128 1.803 . S
C148 C149 1.378 . S
C148 C153 1.400 . S
C149 H133 0.939 . S
C149 C148 1.378 . S
C149 C150 1.361 . S
C150 H134 0.942 . S
C150 C149 1.361 . S
C150 C151 1.369 . S
C151 C150 1.369 . S
C151 C152 1.404 . S
C152 H135 0.940 . S
C152 C151 1.404 . S
C152 C153 1.389 . S
C153 H136 0.939 . S
C153 C148 1.400 . S
C153 C152 1.389 . S
C154 P128 1.819 . S
C154 C155 1.391 . S
C154 C159 1.391 . S
C155 H137 0.941 . S
C155 C154 1.391 . S
C155 C156 1.396 . S
C156 H140 0.939 . S
C156 C155 1.396 . S
C156 C157 1.397 1_455 S
C157 C156 1.397 1_655 S
C157 C158 1.385 . S
C158 H141 0.940 . S
C158 C157 1.385 . S
C158 C159 1.388 1_655 S
C159 H138 0.939 . S
C159 C154 1.391 . S
C159 C158 1.388 1_455 S
P160 O171 1.490 . S
P160 C174 1.812 . S
P160 C180 1.803 . S
P160 C186 1.819 . S
H161 C175 0.941 . S
H162 C176 0.939 . S
H163 C178 0.940 . S
H164 C179 0.940 . S
H165 C181 0.939 . S
H166 C182 0.942 . S
H167 C184 0.940 . S
H168 C185 0.939 . S
H169 C187 0.941 . S
H170 C191 0.939 . S
O171 P160 1.490 . S
H172 C188 0.939 . S
H173 C190 0.940 . S
C174 P160 1.812 . S
C174 C175 1.389 . S
C174 C179 1.391 . S
C175 H161 0.941 . S
C175 C174 1.389 . S
C175 C176 1.397 . S
C176 H162 0.939 . S
C176 C175 1.397 . S
C176 C177 1.378 . S
C177 C176 1.378 . S
C177 C178 1.378 . S
C178 H163 0.940 . S
C178 C177 1.378 . S
C178 C179 1.396 . S
C179 H164 0.940 . S
C179 C174 1.391 . S
C179 C178 1.396 . S
C180 P160 1.803 . S
C180 C181 1.378 . S
C180 C185 1.400 . S
C181 H165 0.939 . S
C181 C180 1.378 . S
C181 C182 1.361 . S
C182 H166 0.942 . S
C182 C181 1.361 . S
C182 C183 1.369 . S
C183 C182 1.369 . S
C183 C184 1.404 . S
C184 H167 0.940 . S
C184 C183 1.404 . S
C184 C185 1.389 . S
C185 H168 0.939 . S
C185 C180 1.400 . S
C185 C184 1.389 . S
C186 P160 1.819 . S
C186 C187 1.391 . S
C186 C191 1.391 . S
C187 H169 0.941 . S
C187 C186 1.391 . S
C187 C188 1.396 . S
C188 H172 0.939 . S
C188 C187 1.396 . S
C188 C189 1.397 . S
C189 C188 1.397 . S
C189 C190 1.385 . S
C190 H173 0.940 . S
C190 C189 1.385 . S
C190 C191 1.388 . S
C191 H170 0.939 . S
C191 C186 1.391 . S
C191 C190 1.388 . S
P192 O203 1.492 . S
P192 C206 1.812 . S
P192 C212 1.803 . S
P192 C218 1.819 . S
H193 C207 0.941 . S
H194 C208 0.939 . S
H195 C210 0.940 . S
H196 C211 0.940 . S
H197 C213 0.939 . S
H198 C214 0.942 . S
H199 C216 0.940 . S
H200 C217 0.939 . S
H201 C219 0.941 . S
H202 C223 0.939 . S
O203 P192 1.492 . S
H204 C220 0.939 . S
H205 C222 0.940 . S
C206 P192 1.812 . S
C206 C207 1.389 1_655 S
C206 C211 1.391 . S
C207 H193 0.941 . S
C207 C206 1.389 1_455 S
C207 C208 1.397 . S
C208 H194 0.939 . S
C208 C207 1.397 . S
C208 C209 1.378 . S
C209 C208 1.378 . S
C209 C210 1.378 1_455 S
C210 H195 0.940 . S
C210 C209 1.378 1_655 S
C210 C211 1.396 . S
C211 H196 0.940 . S
C211 C206 1.391 . S
C211 C210 1.396 . S
C212 P192 1.803 . S
C212 C213 1.378 . S
C212 C217 1.400 . S
C213 H197 0.939 . S
C213 C212 1.378 . S
C213 C214 1.361 . S
C214 H198 0.942 . S
C214 C213 1.361 . S
C214 C215 1.369 . S
C215 C214 1.369 . S
C215 C216 1.404 . S
C216 H199 0.940 . S
C216 C215 1.404 . S
C216 C217 1.389 . S
C217 H200 0.939 . S
C217 C212 1.400 . S
C217 C216 1.389 . S
C218 P192 1.819 . S
C218 C219 1.391 . S
C218 C223 1.391 . S
C219 H201 0.941 . S
C219 C218 1.391 . S
C219 C220 1.396 . S
C220 H204 0.939 . S
C220 C219 1.396 . S
C220 C221 1.397 . S
C221 C220 1.397 . S
C221 C222 1.385 . S
C222 H205 0.940 . S
C222 C221 1.385 . S
C222 C223 1.388 . S
C223 H202 0.939 . S
C223 C218 1.391 . S
C223 C222 1.388 . S
P224 O235 1.490 . S
P224 C238 1.812 . S
P224 C244 1.803 . S
P224 C250 1.819 . S
H225 C239 0.941 . S
H226 C240 0.939 . S
H227 C242 0.940 . S
H228 C243 0.940 . S
H229 C245 0.939 . S
H230 C246 0.942 . S
H231 C248 0.940 . S
H232 C249 0.939 . S
H233 C251 0.941 . S
H234 C255 0.939 . S
O235 P224 1.490 . S
H236 C252 0.939 . S
H237 C254 0.940 . S
C238 P224 1.812 . S
C238 C239 1.389 . S
C238 C243 1.391 . S
C239 H225 0.941 . S
C239 C238 1.389 . S
C239 C240 1.397 . S
C240 H226 0.939 . S
C240 C239 1.397 . S
C240 C241 1.378 . S
C241 C240 1.378 . S
C241 C242 1.378 . S
C242 H227 0.940 . S
C242 C241 1.378 . S
C242 C243 1.396 . S
C243 H228 0.940 . S
C243 C238 1.391 . S
C243 C242 1.396 . S
C244 P224 1.803 . S
C244 C245 1.378 . S
C244 C249 1.400 . S
C245 H229 0.939 . S
C245 C244 1.378 . S
C245 C246 1.361 . S
C246 H230 0.942 . S
C246 C245 1.361 . S
C246 C247 1.369 . S
C247 C246 1.369 . S
C247 C248 1.404 . S
C248 H231 0.940 . S
C248 C247 1.404 . S
C248 C249 1.389 . S
C249 H232 0.939 . S
C249 C244 1.400 . S
C249 C248 1.389 . S
C250 P224 1.819 . S
C250 C251 1.391 . S
C250 C255 1.391 . S
C251 H233 0.941 . S
C251 C250 1.391 . S
C251 C252 1.396 . S
C252 H236 0.939 . S
C252 C251 1.396 . S
C252 C253 1.397 . S
C253 C252 1.397 . S
C253 C254 1.385 . S
C254 H237 0.940 . S
C254 C253 1.385 . S
C254 C255 1.388 . S
C255 H234 0.939 . S
C255 C250 1.391 . S
C255 C254 1.388 . S
P256 O267 1.490 . S
P256 C270 1.812 . S
P256 C276 1.803 . S
P256 C282 1.819 . S
H257 C271 0.941 . S
H258 C272 0.939 . S
H259 C274 0.940 . S
H260 C275 0.940 . S
H261 C277 0.939 . S
H262 C278 0.942 . S
H263 C280 0.940 . S
H264 C281 0.939 . S
H265 C283 0.941 . S
H266 C287 0.939 . S
O267 P256 1.490 . S
H268 C284 0.939 . S
H269 C286 0.940 . S
C270 P256 1.812 . S
C270 C271 1.389 . S
C270 C275 1.391 . S
C271 H257 0.941 . S
C271 C270 1.389 . S
C271 C272 1.397 . S
C272 H258 0.939 . S
C272 C271 1.397 . S
C272 C273 1.378 . S
C273 C272 1.378 . S
C273 C274 1.378 . S
C274 H259 0.940 . S
C274 C273 1.378 . S
C274 C275 1.396 . S
C275 H260 0.940 . S
C275 C270 1.391 . S
C275 C274 1.396 . S
C276 P256 1.803 . S
C276 C277 1.378 . S
C276 C281 1.400 . S
C277 H261 0.939 . S
C277 C276 1.378 . S
C277 C278 1.361 . S
C278 H262 0.942 . S
C278 C277 1.361 . S
C278 C279 1.369 . S
C279 C278 1.369 . S
C279 C280 1.404 . S
C280 H263 0.940 . S
C280 C279 1.404 . S
C280 C281 1.389 . S
C281 H264 0.939 . S
C281 C276 1.400 . S
C281 C280 1.389 . S
C282 P256 1.819 . S
C282 C283 1.391 . S
C282 C287 1.391 . S
C283 H265 0.941 . S
C283 C282 1.391 . S
C283 C284 1.396 . S
C284 H268 0.939 . S
C284 C283 1.396 . S
C284 C285 1.397 . S
C285 C284 1.397 . S
C285 C286 1.385 . S
C286 H269 0.940 . S
C286 C285 1.385 . S
C286 C287 1.388 . S
C287 H266 0.939 . S
C287 C282 1.391 . S
C287 C286 1.388 . S
P288 O299 1.462 1_565 S
P288 C302 1.812 . S
P288 C308 1.803 . S
P288 C314 1.819 . S
H289 C303 0.941 . S
H290 C304 0.939 . S
H291 C306 0.940 . S
H292 C307 0.940 . S
H293 C309 0.939 . S
H294 C310 0.942 . S
H295 C312 0.940 . S
H296 C313 0.939 . S
H297 C315 0.941 . S
H298 C319 0.939 . S
O299 P288 1.462 1_545 S
H300 C316 0.939 . S
H301 C318 0.940 . S
C302 P288 1.812 . S
C302 C303 1.389 . S
C302 C307 1.391 . S
C303 H289 0.941 . S
C303 C302 1.389 . S
C303 C304 1.397 . S
C304 H290 0.939 . S
C304 C303 1.397 . S
C304 C305 1.378 . S
C305 C304 1.378 . S
C305 C306 1.378 . S
C306 H291 0.940 . S
C306 C305 1.378 . S
C306 C307 1.396 . S
C307 H292 0.940 . S
C307 C302 1.391 . S
C307 C306 1.396 . S
C308 P288 1.803 . S
C308 C309 1.378 1_565 S
C308 C313 1.400 . S
C309 H293 0.939 . S
C309 C308 1.378 1_545 S
C309 C310 1.361 . S
C310 H294 0.942 . S
C310 C309 1.361 . S
C310 C311 1.369 . S
C311 C310 1.369 . S
C311 C312 1.404 1_545 S
C312 H295 0.940 . S
C312 C311 1.404 1_565 S
C312 C313 1.389 . S
C313 H296 0.939 . S
C313 C308 1.400 . S
C313 C312 1.389 . S
C314 P288 1.819 . S
C314 C315 1.391 . S
C314 C319 1.391 . S
C315 H297 0.941 . S
C315 C314 1.391 . S
C315 C316 1.396 . S
C316 H300 0.939 . S
C316 C315 1.396 . S
C316 C317 1.397 . S
C317 C316 1.397 . S
C317 C318 1.385 . S
C318 H301 0.940 . S
C318 C317 1.385 . S
C318 C319 1.388 . S
C319 H298 0.939 . S
C319 C314 1.391 . S
C319 C318 1.388 . S
P320 O331 1.490 . S
P320 C334 1.812 . S
P320 C340 1.803 . S
P320 C346 1.819 . S
H321 C335 0.941 . S
H322 C336 0.939 . S
H323 C338 0.940 . S
H324 C339 0.940 . S
H325 C341 0.939 . S
H326 C342 0.942 . S
H327 C344 0.940 . S
H328 C345 0.939 . S
H329 C347 0.941 . S
H330 C351 0.939 . S
O331 P320 1.490 . S
H332 C348 0.939 . S
H333 C350 0.940 . S
C334 P320 1.812 . S
C334 C335 1.389 . S
C334 C339 1.391 . S
C335 H321 0.941 . S
C335 C334 1.389 . S
C335 C336 1.397 . S
C336 H322 0.939 . S
C336 C335 1.397 . S
C336 C337 1.378 . S
C337 C336 1.378 . S
C337 C338 1.378 . S
C338 H323 0.940 . S
C338 C337 1.378 . S
C338 C339 1.396 . S
C339 H324 0.940 . S
C339 C334 1.391 . S
C339 C338 1.396 . S
C340 P320 1.803 . S
C340 C341 1.378 . S
C340 C345 1.400 . S
C341 H325 0.939 . S
C341 C340 1.378 . S
C341 C342 1.361 . S
C342 H326 0.942 . S
C342 C341 1.361 . S
C342 C343 1.369 . S
C343 C342 1.369 . S
C343 C344 1.404 . S
C344 H327 0.940 . S
C344 C343 1.404 . S
C344 C345 1.389 . S
C345 H328 0.939 . S
C345 C340 1.400 . S
C345 C344 1.389 . S
C346 P320 1.819 . S
C346 C347 1.391 . S
C346 C351 1.391 . S
C347 H329 0.941 . S
C347 C346 1.391 . S
C347 C348 1.396 . S
C348 H332 0.939 . S
C348 C347 1.396 . S
C348 C349 1.397 . S
C349 C348 1.397 . S
C349 C350 1.385 . S
C350 H333 0.940 . S
C350 C349 1.385 . S
C350 C351 1.388 . S
C351 H330 0.939 . S
C351 C346 1.391 . S
C351 C350 1.388 . S
P352 O363 1.490 . S
P352 C366 1.812 . S
P352 C372 1.803 . S
P352 C378 1.819 . S
H353 C367 0.941 . S
H354 C368 0.939 . S
H355 C370 0.940 . S
H356 C371 0.940 . S
H357 C373 0.939 . S
H358 C374 0.942 . S
H359 C376 0.940 . S
H360 C377 0.939 . S
H361 C379 0.941 . S
H362 C383 0.939 . S
O363 P352 1.490 . S
H364 C380 0.939 . S
H365 C382 0.940 . S
C366 P352 1.812 . S
C366 C367 1.389 . S
C366 C371 1.391 . S
C367 H353 0.941 . S
C367 C366 1.389 . S
C367 C368 1.397 . S
C368 H354 0.939 . S
C368 C367 1.397 . S
C368 C369 1.378 . S
C369 C368 1.378 . S
C369 C370 1.378 . S
C370 H355 0.940 . S
C370 C369 1.378 . S
C370 C371 1.396 . S
C371 H356 0.940 . S
C371 C366 1.391 . S
C371 C370 1.396 . S
C372 P352 1.803 . S
C372 C373 1.378 . S
C372 C377 1.400 . S
C373 H357 0.939 . S
C373 C372 1.378 . S
C373 C374 1.361 . S
C374 H358 0.942 . S
C374 C373 1.361 . S
C374 C375 1.369 . S
C375 C374 1.369 . S
C375 C376 1.404 . S
C376 H359 0.940 . S
C376 C375 1.404 . S
C376 C377 1.389 . S
C377 H360 0.939 . S
C377 C372 1.400 . S
C377 C376 1.389 . S
C378 P352 1.819 . S
C378 C379 1.391 . S
C378 C383 1.391 . S
C379 H361 0.941 . S
C379 C378 1.391 . S
C379 C380 1.396 . S
C380 H364 0.939 . S
C380 C379 1.396 . S
C380 C381 1.397 . S
C381 C380 1.397 . S
C381 C382 1.385 . S
C382 H365 0.940 . S
C382 C381 1.385 . S
C382 C383 1.388 . S
C383 H362 0.939 . S
C383 C378 1.391 . S
C383 C382 1.388 . S
P384 O395 1.490 . S
P384 C398 1.812 . S
P384 C404 1.803 . S
P384 C410 1.819 . S
H385 C399 0.941 . S
H386 C400 0.939 . S
H387 C402 0.940 . S
H388 C403 0.940 . S
H389 C405 0.939 . S
H390 C406 0.942 . S
H391 C408 0.940 . S
H392 C409 0.939 . S
H393 C411 0.941 . S
H394 C415 0.939 . S
O395 P384 1.490 . S
H396 C412 0.939 . S
H397 C414 0.940 . S
C398 P384 1.812 . S
C398 C399 1.389 . S
C398 C403 1.391 . S
C399 H385 0.941 . S
C399 C398 1.389 . S
C399 C400 1.397 . S
C400 H386 0.939 . S
C400 C399 1.397 . S
C400 C401 1.378 . S
C401 C400 1.378 . S
C401 C402 1.378 . S
C402 H387 0.940 . S
C402 C401 1.378 . S
C402 C403 1.396 . S
C403 H388 0.940 . S
C403 C398 1.391 . S
C403 C402 1.396 . S
C404 P384 1.803 . S
C404 C405 1.378 . S
C404 C409 1.400 . S
C405 H389 0.939 . S
C405 C404 1.378 . S
C405 C406 1.361 . S
C406 H390 0.942 . S
C406 C405 1.361 . S
C406 C407 1.369 . S
C407 C406 1.369 . S
C407 C408 1.404 . S
C408 H391 0.940 . S
C408 C407 1.404 . S
C408 C409 1.389 . S
C409 H392 0.939 . S
C409 C404 1.400 . S
C409 C408 1.389 . S
C410 P384 1.819 . S
C410 C411 1.391 . S
C410 C415 1.391 . S
C411 H393 0.941 . S
C411 C410 1.391 . S
C411 C412 1.396 . S
C412 H396 0.939 . S
C412 C411 1.396 . S
C412 C413 1.397 . S
C413 C412 1.397 . S
C413 C414 1.385 . S
C414 H397 0.940 . S
C414 C413 1.385 . S
C414 C415 1.388 . S
C415 H394 0.939 . S
C415 C410 1.391 . S
C415 C414 1.388 . S
P416 O427 1.490 . S
P416 C430 1.812 . S
P416 C436 1.803 . S
P416 C442 1.819 . S
H417 C431 0.941 . S
H418 C432 0.939 . S
H419 C434 0.940 . S
H420 C435 0.940 . S
H421 C437 0.939 . S
H422 C438 0.942 . S
H423 C440 0.940 . S
H424 C441 0.939 . S
H425 C443 0.941 . S
H426 C447 0.939 . S
O427 P416 1.490 . S
H428 C444 0.939 . S
H429 C446 0.940 . S
C430 P416 1.812 . S
C430 C431 1.389 . S
C430 C435 1.391 . S
C431 H417 0.941 . S
C431 C430 1.389 . S
C431 C432 1.397 . S
C432 H418 0.939 . S
C432 C431 1.397 . S
C432 C433 1.378 . S
C433 C432 1.378 . S
C433 C434 1.378 . S
C434 H419 0.940 . S
C434 C433 1.378 . S
C434 C435 1.396 . S
C435 H420 0.940 . S
C435 C430 1.391 . S
C435 C434 1.396 . S
C436 P416 1.803 . S
C436 C437 1.378 . S
C436 C441 1.400 . S
C437 H421 0.939 . S
C437 C436 1.378 . S
C437 C438 1.361 . S
C438 H422 0.942 . S
C438 C437 1.361 . S
C438 C439 1.369 1_556 S
C439 C438 1.369 1_554 S
C439 C440 1.404 . S
C440 H423 0.940 . S
C440 C439 1.404 . S
C440 C441 1.389 1_554 S
C441 H424 0.939 . S
C441 C436 1.400 . S
C441 C440 1.389 1_556 S
C442 P416 1.819 . S
C442 C443 1.391 . S
C442 C447 1.391 . S
C443 H425 0.941 . S
C443 C442 1.391 . S
C443 C444 1.396 . S
C444 H428 0.939 . S
C444 C443 1.396 . S
C444 C445 1.397 . S
C445 C444 1.397 . S
C445 C446 1.385 . S
C446 H429 0.940 . S
C446 C445 1.385 . S
C446 C447 1.388 . S
C447 H426 0.939 . S
C447 C442 1.391 . S
C447 C446 1.388 . S
P448 O459 1.490 . S
P448 C462 1.812 . S
P448 C468 1.803 . S
P448 C474 1.819 . S
H449 C463 0.941 . S
H450 C464 0.939 . S
H451 C466 0.940 . S
H452 C467 0.940 . S
H453 C469 0.939 . S
H454 C470 0.942 . S
H455 C472 0.940 . S
H456 C473 0.939 . S
H457 C475 0.941 . S
H458 C479 0.939 . S
O459 P448 1.490 . S
H460 C476 0.939 . S
H461 C478 0.940 . S
C462 P448 1.812 . S
C462 C463 1.389 . S
C462 C467 1.391 . S
C463 H449 0.941 . S
C463 C462 1.389 . S
C463 C464 1.397 . S
C464 H450 0.939 . S
C464 C463 1.397 . S
C464 C465 1.378 . S
C465 C464 1.378 . S
C465 C466 1.378 . S
C466 H451 0.940 . S
C466 C465 1.378 . S
C466 C467 1.396 . S
C467 H452 0.940 . S
C467 C462 1.391 . S
C467 C466 1.396 . S
C468 P448 1.803 . S
C468 C469 1.378 . S
C468 C473 1.400 . S
C469 H453 0.939 . S
C469 C468 1.378 . S
C469 C470 1.361 . S
C470 H454 0.942 . S
C470 C469 1.361 . S
C470 C471 1.369 . S
C471 C470 1.369 . S
C471 C472 1.404 . S
C472 H455 0.940 . S
C472 C471 1.404 . S
C472 C473 1.389 . S
C473 H456 0.939 . S
C473 C468 1.400 . S
C473 C472 1.389 . S
C474 P448 1.819 . S
C474 C475 1.391 . S
C474 C479 1.391 . S
C475 H457 0.941 . S
C475 C474 1.391 . S
C475 C476 1.396 . S
C476 H460 0.939 . S
C476 C475 1.396 . S
C476 C477 1.397 . S
C477 C476 1.397 . S
C477 C478 1.385 . S
C478 H461 0.940 . S
C478 C477 1.385 . S
C478 C479 1.388 . S
C479 H458 0.939 . S
C479 C474 1.391 . S
C479 C478 1.388 . S
P480 O491 1.523 . S
P480 C494 1.812 . S
P480 C500 1.803 . S
P480 C506 1.819 . S
H481 C495 0.941 . S
H482 C496 0.939 . S
H483 C498 0.940 . S
H484 C499 0.940 . S
H485 C501 0.939 . S
H486 C502 0.942 . S
H487 C504 0.940 . S
H488 C505 0.939 . S
H489 C507 0.941 . S
H490 C511 0.939 . S
O491 P480 1.523 . S
H492 C508 0.939 . S
H493 C510 0.940 . S
C494 P480 1.812 . S
C494 C495 1.389 . S
C494 C499 1.391 . S
C495 H481 0.941 . S
C495 C494 1.389 . S
C495 C496 1.397 . S
C496 H482 0.939 . S
C496 C495 1.397 . S
C496 C497 1.378 . S
C497 C496 1.378 . S
C497 C498 1.378 . S
C498 H483 0.940 . S
C498 C497 1.378 . S
C498 C499 1.396 . S
C499 H484 0.940 . S
C499 C494 1.391 . S
C499 C498 1.396 . S
C500 P480 1.803 . S
C500 C501 1.378 1_556 S
C500 C505 1.400 . S
C501 H485 0.939 . S
C501 C500 1.378 1_554 S
C501 C502 1.361 . S
C502 H486 0.942 . S
C502 C501 1.361 . S
C502 C503 1.369 . S
C503 C502 1.369 . S
C503 C504 1.404 1_554 S
C504 H487 0.940 . S
C504 C503 1.404 1_556 S
C504 C505 1.389 . S
C505 H488 0.939 . S
C505 C500 1.400 . S
C505 C504 1.389 . S
C506 P480 1.819 . S
C506 C507 1.391 1_545 S
C506 C511 1.391 . S
C507 H489 0.941 . S
C507 C506 1.391 1_565 S
C507 C508 1.396 . S
C508 H492 0.939 . S
C508 C507 1.396 . S
C508 C509 1.397 . S
C509 C508 1.397 . S
C509 C510 1.385 1_565 S
C510 H493 0.940 . S
C510 C509 1.385 1_545 S
C510 C511 1.388 . S
C511 H490 0.939 . S
C511 C506 1.391 . S
C511 C510 1.388 . S
Li512 N529 1.990 . S
Li512 O572 1.956 . S
Li512 O573 1.970 1_556 S
Li512 O574 1.961 . S
Li513 N537 1.990 . S
Li513 O572 1.970 1_554 S
Li513 O573 1.956 . S
Li513 O575 1.961 . S
Li514 N559 1.990 . S
Li514 O572 1.961 . S
Li514 O574 1.956 . S
Li514 O575 1.970 1_556 S
Li515 N565 1.990 . S
Li515 O573 1.961 . S
Li515 O574 1.970 1_554 S
Li515 O575 1.956 . S
C516 C518 1.348 1_556 S
C516 C519 1.356 . S
C516 O572 1.325 . S
N517 C520 1.314 1_556 S
N517 C521 1.279 . S
C518 C516 1.348 1_554 S
C518 C520 1.353 . S
C518 H576 0.929 . S
C519 C516 1.356 . S
C519 C521 1.358 . S
C519 H577 0.930 . S
C520 N517 1.314 1_554 S
C520 C518 1.353 . S
C520 H578 0.930 . S
C521 N517 1.279 . S
C521 C519 1.358 . S
C521 H579 0.930 . S
C522 C525 1.348 . S
C522 C526 1.356 . S
C522 O573 1.325 . S
C523 N524 1.279 . S
C523 C526 1.358 . S
C523 H580 0.930 . S
N524 C523 1.279 . S
N524 C527 1.314 . S
C525 C522 1.348 . S
C525 C527 1.353 . S
C525 H581 0.929 . S
C526 C522 1.356 . S
C526 C523 1.358 . S
C526 H582 0.930 . S
C527 N524 1.314 . S
C527 C525 1.353 . S
C527 H583 0.930 . S
C528 N529 1.314 . S
C528 C533 1.353 . S
C528 H534 0.930 . S
N529 Li512 1.990 . S
N529 C528 1.314 . S
N529 C531 1.279 . S
C530 C531 1.358 . S
C530 C532 1.356 . S
C530 H584 0.930 . S
C531 N529 1.279 . S
C531 C530 1.358 . S
C531 H535 0.930 . S
C532 C530 1.356 . S
C532 C533 1.348 . S
C533 C528 1.353 . S
C533 C532 1.348 . S
C533 H585 0.929 . S
H534 C528 0.930 . S
H535 C531 0.930 . S
C536 N537 1.314 . S
C536 C538 1.353 . S
C536 H542 0.930 . S
N537 Li513 1.990 . S
N537 C536 1.314 . S
N537 C540 1.279 . S
C538 C536 1.353 . S
C538 C541 1.348 . S
C538 H586 0.929 . S
C539 C540 1.358 . S
C539 C541 1.356 . S
C539 H587 0.930 . S
C540 N537 1.279 . S
C540 C539 1.358 . S
C540 H543 0.930 . S
C541 C538 1.348 . S
C541 C539 1.356 . S
H542 C536 0.930 . S
H543 C540 0.930 . S
C544 C546 1.348 . S
C544 C547 1.356 . S
C544 O574 1.325 . S
N545 C548 1.314 . S
N545 C549 1.279 . S
C546 C544 1.348 . S
C546 C548 1.353 . S
C546 H588 0.929 . S
C547 C544 1.356 . S
C547 C549 1.358 . S
C547 H589 0.930 . S
C548 N545 1.314 . S
C548 C546 1.353 . S
C548 H590 0.930 . S
C549 N545 1.279 . S
C549 C547 1.358 . S
C549 H591 0.930 . S
C550 C551 1.348 1_554 S
C550 C552 1.356 . S
C550 O575 1.325 . S
C551 C550 1.348 1_556 S
C551 C553 1.353 . S
C551 H592 0.929 . S
C552 C550 1.356 . S
C552 C554 1.358 . S
C552 H593 0.930 . S
C553 C551 1.353 . S
C553 N555 1.314 1_556 S
C553 H594 0.930 . S
C554 C552 1.358 . S
C554 N555 1.279 . S
C554 H595 0.930 . S
N555 C553 1.314 1_554 S
N555 C554 1.279 . S
C556 C558 1.353 . S
C556 N559 1.314 . S
C556 H562 0.930 . S
C557 N559 1.279 . S
C557 C560 1.358 . S
C557 H563 0.930 . S
C558 C556 1.353 . S
C558 C561 1.348 . S
C558 H596 0.929 . S
N559 Li514 1.990 . S
N559 C556 1.314 . S
N559 C557 1.279 . S
C560 C557 1.358 . S
C560 C561 1.356 . S
C560 H597 0.930 . S
C561 C558 1.348 . S
C561 C560 1.356 . S
H562 C556 0.930 . S
H563 C557 0.930 . S
C564 N565 1.314 . S
C564 C566 1.353 . S
C564 H570 0.930 . S
N565 Li515 1.990 . S
N565 C564 1.314 . S
N565 C568 1.279 . S
C566 C564 1.353 . S
C566 C569 1.348 . S
C566 H598 0.929 . S
C567 C568 1.358 . S
C567 C569 1.356 . S
C567 H599 0.930 . S
C568 N565 1.279 . S
C568 C567 1.358 . S
C568 H571 0.930 . S
C569 C566 1.348 . S
C569 C567 1.356 . S
H570 C564 0.930 . S
H571 C568 0.930 . S
O572 Li512 1.956 . S
O572 Li513 1.970 1_556 S
O572 Li514 1.961 . S
O572 C516 1.325 . S
O573 Li512 1.970 1_554 S
O573 Li513 1.956 . S
O573 Li515 1.961 . S
O573 C522 1.325 . S
O574 Li512 1.961 . S
O574 Li514 1.956 . S
O574 Li515 1.970 1_556 S
O574 C544 1.325 . S
O575 Li513 1.961 . S
O575 Li514 1.970 1_554 S
O575 Li515 1.956 . S
O575 C550 1.325 . S
H576 C518 0.929 . S
H577 C519 0.930 . S
H578 C520 0.930 . S
H579 C521 0.930 . S
H580 C523 0.930 . S
H581 C525 0.929 . S
H582 C526 0.930 . S
H583 C527 0.930 . S
H584 C530 0.930 . S
H585 C533 0.929 . S
H586 C538 0.929 . S
H587 C539 0.930 . S
H588 C546 0.929 . S
H589 C547 0.930 . S
H590 C548 0.930 . S
H591 C549 0.930 . S
H592 C551 0.929 . S
H593 C552 0.930 . S
H594 C553 0.930 . S
H595 C554 0.930 . S
H596 C558 0.929 . S
H597 C560 0.930 . S
H598 C566 0.929 . S
H599 C567 0.930 . S
Li600 N617 1.990 . S
Li600 O660 1.956 . S
Li600 O661 1.970 . S
Li600 O662 1.961 . S
Li601 N625 1.990 . S
Li601 O660 1.970 . S
Li601 O661 1.956 . S
Li601 O663 1.961 . S
Li602 N647 1.990 . S
Li602 O660 1.961 . S
Li602 O662 1.956 . S
Li602 O663 1.970 . S
Li603 N653 1.990 . S
Li603 O661 1.961 . S
Li603 O662 1.970 . S
Li603 O663 1.956 . S
C604 C606 1.348 . S
C604 C607 1.356 . S
C604 O660 1.325 . S
N605 C608 1.314 . S
N605 C609 1.279 . S
C606 C604 1.348 . S
C606 C608 1.353 . S
C606 H664 0.929 . S
C607 C604 1.356 . S
C607 C609 1.358 . S
C607 H665 0.930 . S
C608 N605 1.314 . S
C608 C606 1.353 . S
C608 H666 0.930 . S
C609 N605 1.279 . S
C609 C607 1.358 . S
C609 H667 0.930 . S
C610 C613 1.348 . S
C610 C614 1.356 . S
C610 O661 1.325 . S
C611 N612 1.279 . S
C611 C614 1.358 . S
C611 H668 0.930 . S
N612 C611 1.279 . S
N612 C615 1.314 . S
C613 C610 1.348 . S
C613 C615 1.353 . S
C613 H669 0.929 . S
C614 C610 1.356 . S
C614 C611 1.358 . S
C614 H670 0.930 . S
C615 N612 1.314 . S
C615 C613 1.353 . S
C615 H671 0.930 . S
C616 N617 1.314 . S
C616 C621 1.353 . S
C616 H622 0.930 . S
N617 Li600 1.990 . S
N617 C616 1.314 . S
N617 C619 1.279 . S
C618 C619 1.358 . S
C618 C620 1.356 . S
C618 H672 0.930 . S
C619 N617 1.279 . S
C619 C618 1.358 . S
C619 H623 0.930 . S
C620 C618 1.356 . S
C620 C621 1.348 . S
C621 C616 1.353 . S
C621 C620 1.348 . S
C621 H673 0.929 . S
H622 C616 0.930 . S
H623 C619 0.930 . S
C624 N625 1.314 . S
C624 C626 1.353 . S
C624 H630 0.930 . S
N625 Li601 1.990 . S
N625 C624 1.314 . S
N625 C628 1.279 . S
C626 C624 1.353 . S
C626 C629 1.348 . S
C626 H674 0.929 . S
C627 C628 1.358 . S
C627 C629 1.356 . S
C627 H675 0.930 . S
C628 N625 1.279 . S
C628 C627 1.358 . S
C628 H631 0.930 . S
C629 C626 1.348 . S
C629 C627 1.356 . S
H630 C624 0.930 . S
H631 C628 0.930 . S
C632 C634 1.348 . S
C632 C635 1.356 . S
C632 O662 1.325 . S
N633 C636 1.314 . S
N633 C637 1.279 . S
C634 C632 1.348 . S
C634 C636 1.353 . S
C634 H676 0.929 . S
C635 C632 1.356 . S
C635 C637 1.358 . S
C635 H677 0.930 . S
C636 N633 1.314 . S
C636 C634 1.353 . S
C636 H678 0.930 . S
C637 N633 1.279 . S
C637 C635 1.358 . S
C637 H679 0.930 . S
C638 C639 1.348 . S
C638 C640 1.356 . S
C638 O663 1.325 . S
C639 C638 1.348 . S
C639 C641 1.353 . S
C639 H680 0.929 . S
C640 C638 1.356 . S
C640 C642 1.358 . S
C640 H681 0.930 . S
C641 C639 1.353 . S
C641 N643 1.314 . S
C641 H682 0.930 . S
C642 C640 1.358 . S
C642 N643 1.279 . S
C642 H683 0.930 . S
N643 C641 1.314 . S
N643 C642 1.279 . S
C644 C646 1.353 . S
C644 N647 1.314 . S
C644 H650 0.930 . S
C645 N647 1.279 . S
C645 C648 1.358 . S
C645 H651 0.930 . S
C646 C644 1.353 . S
C646 C649 1.348 . S
C646 H684 0.929 . S
N647 Li602 1.990 . S
N647 C644 1.314 . S
N647 C645 1.279 . S
C648 C645 1.358 . S
C648 C649 1.356 . S
C648 H685 0.930 . S
C649 C646 1.348 . S
C649 C648 1.356 . S
H650 C644 0.930 . S
H651 C645 0.930 . S
C652 N653 1.314 . S
C652 C654 1.353 . S
C652 H658 0.930 . S
N653 Li603 1.990 . S
N653 C652 1.314 . S
N653 C656 1.279 . S
C654 C652 1.353 . S
C654 C657 1.348 . S
C654 H686 0.929 . S
C655 C656 1.358 . S
C655 C657 1.356 . S
C655 H687 0.930 . S
C656 N653 1.279 . S
C656 C655 1.358 . S
C656 H659 0.930 . S
C657 C654 1.348 . S
C657 C655 1.356 . S
H658 C652 0.930 . S
H659 C656 0.930 . S
O660 Li600 1.956 . S
O660 Li601 1.970 . S
O660 Li602 1.961 . S
O660 C604 1.325 . S
O661 Li600 1.970 . S
O661 Li601 1.956 . S
O661 Li603 1.961 . S
O661 C610 1.325 . S
O662 Li600 1.961 . S
O662 Li602 1.956 . S
O662 Li603 1.970 . S
O662 C632 1.325 . S
O663 Li601 1.961 . S
O663 Li602 1.970 . S
O663 Li603 1.956 . S
O663 C638 1.325 . S
H664 C606 0.929 . S
H665 C607 0.930 . S
H666 C608 0.930 . S
H667 C609 0.930 . S
H668 C611 0.930 . S
H669 C613 0.929 . S
H670 C614 0.930 . S
H671 C615 0.930 . S
H672 C618 0.930 . S
H673 C621 0.929 . S
H674 C626 0.929 . S
H675 C627 0.930 . S
H676 C634 0.929 . S
H677 C635 0.930 . S
H678 C636 0.930 . S
H679 C637 0.930 . S
H680 C639 0.929 . S
H681 C640 0.930 . S
H682 C641 0.930 . S
H683 C642 0.930 . S
H684 C646 0.929 . S
H685 C648 0.930 . S
H686 C654 0.929 . S
H687 C655 0.930 . S
Li688 N705 1.990 . S
Li688 O748 1.956 . S
Li688 O749 1.970 1_556 S
Li688 O750 1.961 . S
Li689 N713 1.990 . S
Li689 O748 1.970 1_554 S
Li689 O749 1.956 . S
Li689 O751 1.961 . S
Li690 N735 1.990 . S
Li690 O748 1.961 . S
Li690 O750 1.956 . S
Li690 O751 1.970 1_556 S
Li691 N741 1.990 . S
Li691 O749 1.961 . S
Li691 O750 1.970 1_554 S
Li691 O751 1.956 . S
C692 C694 1.348 1_556 S
C692 C695 1.356 . S
C692 O748 1.325 . S
N693 C696 1.314 1_556 S
N693 C697 1.279 . S
C694 C692 1.348 1_554 S
C694 C696 1.353 . S
C694 H752 0.929 . S
C695 C692 1.356 . S
C695 C697 1.358 . S
C695 H753 0.930 . S
C696 N693 1.314 1_554 S
C696 C694 1.353 . S
C696 H754 0.930 . S
C697 N693 1.279 . S
C697 C695 1.358 . S
C697 H755 0.930 . S
C698 C701 1.348 . S
C698 C702 1.356 . S
C698 O749 1.325 . S
C699 N700 1.279 . S
C699 C702 1.358 . S
C699 H756 0.930 . S
N700 C699 1.279 . S
N700 C703 1.314 . S
C701 C698 1.348 . S
C701 C703 1.353 . S
C701 H757 0.929 . S
C702 C698 1.356 . S
C702 C699 1.358 . S
C702 H758 0.930 . S
C703 N700 1.314 . S
C703 C701 1.353 . S
C703 H759 0.930 . S
C704 N705 1.314 . S
C704 C709 1.353 . S
C704 H710 0.930 . S
N705 Li688 1.990 . S
N705 C704 1.314 . S
N705 C707 1.279 . S
C706 C707 1.358 . S
C706 C708 1.356 . S
C706 H760 0.930 . S
C707 N705 1.279 . S
C707 C706 1.358 . S
C707 H711 0.930 . S
C708 C706 1.356 . S
C708 C709 1.348 . S
C709 C704 1.353 . S
C709 C708 1.348 . S
C709 H761 0.929 . S
H710 C704 0.930 . S
H711 C707 0.930 . S
C712 N713 1.314 . S
C712 C714 1.353 . S
C712 H718 0.930 . S
N713 Li689 1.990 . S
N713 C712 1.314 . S
N713 C716 1.279 . S
C714 C712 1.353 . S
C714 C717 1.348 . S
C714 H762 0.929 . S
C715 C716 1.358 . S
C715 C717 1.356 . S
C715 H763 0.930 . S
C716 N713 1.279 . S
C716 C715 1.358 . S
C716 H719 0.930 . S
C717 C714 1.348 . S
C717 C715 1.356 . S
H718 C712 0.930 . S
H719 C716 0.930 . S
C720 C722 1.348 . S
C720 C723 1.356 . S
C720 O750 1.325 . S
N721 C724 1.314 . S
N721 C725 1.279 . S
C722 C720 1.348 . S
C722 C724 1.353 . S
C722 H764 0.929 . S
C723 C720 1.356 . S
C723 C725 1.358 . S
C723 H765 0.930 . S
C724 N721 1.314 . S
C724 C722 1.353 . S
C724 H766 0.930 . S
C725 N721 1.279 . S
C725 C723 1.358 . S
C725 H767 0.930 . S
C726 C727 1.348 1_554 S
C726 C728 1.356 . S
C726 O751 1.325 . S
C727 C726 1.348 1_556 S
C727 C729 1.353 . S
C727 H768 0.929 . S
C728 C726 1.356 . S
C728 C730 1.358 . S
C728 H769 0.930 . S
C729 C727 1.353 . S
C729 N731 1.314 1_556 S
C729 H770 0.930 . S
C730 C728 1.358 . S
C730 N731 1.279 . S
C730 H771 0.930 . S
N731 C729 1.314 1_554 S
N731 C730 1.279 . S
C732 C734 1.353 . S
C732 N735 1.314 . S
C732 H738 0.930 . S
C733 N735 1.279 . S
C733 C736 1.358 . S
C733 H739 0.930 . S
C734 C732 1.353 . S
C734 C737 1.348 . S
C734 H772 0.929 . S
N735 Li690 1.990 . S
N735 C732 1.314 . S
N735 C733 1.279 . S
C736 C733 1.358 . S
C736 C737 1.356 . S
C736 H773 0.930 . S
C737 C734 1.348 . S
C737 C736 1.356 . S
H738 C732 0.930 . S
H739 C733 0.930 . S
C740 N741 1.314 . S
C740 C742 1.353 . S
C740 H746 0.930 . S
N741 Li691 1.990 . S
N741 C740 1.314 . S
N741 C744 1.279 . S
C742 C740 1.353 . S
C742 C745 1.348 . S
C742 H774 0.929 . S
C743 C744 1.358 . S
C743 C745 1.356 . S
C743 H775 0.930 . S
C744 N741 1.279 . S
C744 C743 1.358 . S
C744 H747 0.930 . S
C745 C742 1.348 . S
C745 C743 1.356 . S
H746 C740 0.930 . S
H747 C744 0.930 . S
O748 Li688 1.956 . S
O748 Li689 1.970 1_556 S
O748 Li690 1.961 . S
O748 C692 1.325 . S
O749 Li688 1.970 1_554 S
O749 Li689 1.956 . S
O749 Li691 1.961 . S
O749 C698 1.325 . S
O750 Li688 1.961 . S
O750 Li690 1.956 . S
O750 Li691 1.970 1_556 S
O750 C720 1.325 . S
O751 Li689 1.961 . S
O751 Li690 1.970 1_554 S
O751 Li691 1.956 . S
O751 C726 1.325 . S
H752 C694 0.929 . S
H753 C695 0.930 . S
H754 C696 0.930 . S
H755 C697 0.930 . S
H756 C699 0.930 . S
H757 C701 0.929 . S
H758 C702 0.930 . S
H759 C703 0.930 . S
H760 C706 0.930 . S
H761 C709 0.929 . S
H762 C714 0.929 . S
H763 C715 0.930 . S
H764 C722 0.929 . S
H765 C723 0.930 . S
H766 C724 0.930 . S
H767 C725 0.930 . S
H768 C727 0.929 . S
H769 C728 0.930 . S
H770 C729 0.930 . S
H771 C730 0.930 . S
H772 C734 0.929 . S
H773 C736 0.930 . S
H774 C742 0.929 . S
H775 C743 0.930 . S
Li776 N793 1.990 . S
Li776 O836 1.956 . S
Li776 O837 1.970 1_545 S
Li776 O838 1.961 . S
Li777 N801 1.992 . S
Li777 O836 1.961 1_565 S
Li777 O837 1.956 . S
Li777 O839 1.968 . S
Li778 N823 1.990 . S
Li778 O836 1.961 . S
Li778 O838 1.956 . S
Li778 O839 1.970 1_545 S
Li779 N829 1.990 . S
Li779 O837 1.961 . S
Li779 O838 1.970 1_565 S
Li779 O839 1.956 . S
C780 C782 1.348 . S
C780 C783 1.356 . S
C780 O836 1.325 . S
N781 C784 1.314 . S
N781 C785 1.279 . S
C782 C780 1.348 . S
C782 C784 1.353 . S
C782 H840 0.929 . S
C783 C780 1.356 . S
C783 C785 1.358 . S
C783 H841 0.930 . S
C784 N781 1.314 . S
C784 C782 1.353 . S
C784 H842 0.930 . S
C785 N781 1.279 . S
C785 C783 1.358 . S
C785 H843 0.930 . S
C786 C789 1.348 1_565 S
C786 C790 1.356 . S
C786 O837 1.325 . S
C787 N788 1.279 . S
C787 C790 1.358 . S
C787 H844 0.930 . S
N788 C787 1.279 . S
N788 C791 1.314 1_565 S
C789 C786 1.348 1_545 S
C789 C791 1.353 . S
C789 H845 0.929 . S
C790 C786 1.356 . S
C790 C787 1.358 . S
C790 H846 0.930 . S
C791 N788 1.314 1_545 S
C791 C789 1.353 . S
C791 H847 0.930 . S
C792 N793 1.314 . S
C792 C797 1.353 . S
C792 H798 0.930 . S
N793 Li776 1.990 . S
N793 C792 1.314 . S
N793 C795 1.279 . S
C794 C795 1.358 . S
C794 C796 1.356 . S
C794 H848 0.930 . S
C795 N793 1.279 . S
C795 C794 1.358 . S
C795 H799 0.930 . S
C796 C794 1.356 . S
C796 C797 1.348 . S
C797 C792 1.353 . S
C797 C796 1.348 . S
C797 H849 0.929 . S
H798 C792 0.930 . S
H799 C795 0.930 . S
C800 N801 1.314 . S
C800 C802 1.353 . S
C800 H806 0.930 . S
N801 Li777 1.992 . S
N801 C800 1.314 . S
N801 C804 1.279 . S
C802 C800 1.353 . S
C802 C805 1.348 . S
C802 H850 0.929 . S
C803 C804 1.358 . S
C803 C805 1.356 . S
C803 H851 0.930 . S
C804 N801 1.279 . S
C804 C803 1.358 . S
C804 H807 0.936 . S
C805 C802 1.348 . S
C805 C803 1.356 . S
H806 C800 0.930 . S
H807 C804 0.936 . S
C808 C810 1.348 1_545 S
C808 C811 1.356 . S
C808 O838 1.325 . S
N809 C812 1.314 1_545 S
N809 C813 1.279 . S
C810 C808 1.348 1_565 S
C810 C812 1.353 . S
C810 H852 0.929 . S
C811 C808 1.356 . S
C811 C813 1.358 . S
C811 H853 0.930 . S
C812 N809 1.314 1_565 S
C812 C810 1.353 . S
C812 H854 0.930 . S
C813 N809 1.279 . S
C813 C811 1.358 . S
C813 H855 0.930 . S
C814 C815 1.348 . S
C814 C816 1.356 . S
C814 O839 1.325 . S
C815 C814 1.348 . S
C815 C817 1.353 . S
C815 H856 0.929 . S
C816 C814 1.356 . S
C816 C818 1.358 . S
C816 H857 0.930 . S
C817 C815 1.353 . S
C817 N819 1.314 . S
C817 H858 0.930 . S
C818 C816 1.358 . S
C818 N819 1.279 . S
C818 H859 0.930 . S
N819 C817 1.314 . S
N819 C818 1.279 . S
C820 C822 1.353 . S
C820 N823 1.314 . S
C820 H826 0.930 . S
C821 N823 1.279 . S
C821 C824 1.358 . S
C821 H827 0.930 . S
C822 C820 1.353 . S
C822 C825 1.348 . S
C822 H860 0.929 . S
N823 Li778 1.990 . S
N823 C820 1.314 . S
N823 C821 1.279 . S
C824 C821 1.358 . S
C824 C825 1.356 . S
C824 H861 0.930 . S
C825 C822 1.348 . S
C825 C824 1.356 . S
H826 C820 0.930 . S
H827 C821 0.930 . S
C828 N829 1.314 . S
C828 C830 1.353 . S
C828 H834 0.930 . S
N829 Li779 1.990 . S
N829 C828 1.314 . S
N829 C832 1.279 . S
C830 C828 1.353 . S
C830 C833 1.348 . S
C830 H862 0.929 . S
C831 C832 1.358 . S
C831 C833 1.356 . S
C831 H863 0.930 . S
C832 N829 1.279 . S
C832 C831 1.358 . S
C832 H835 0.930 . S
C833 C830 1.348 . S
C833 C831 1.356 . S
H834 C828 0.930 . S
H835 C832 0.930 . S
O836 Li776 1.956 . S
O836 Li777 1.961 1_545 S
O836 Li778 1.961 . S
O836 C780 1.325 . S
O837 Li776 1.970 1_565 S
O837 Li777 1.956 . S
O837 Li779 1.961 . S
O837 C786 1.325 . S
O838 Li776 1.961 . S
O838 Li778 1.956 . S
O838 Li779 1.970 1_545 S
O838 C808 1.325 . S
O839 Li777 1.968 . S
O839 Li778 1.970 1_565 S
O839 Li779 1.956 . S
O839 C814 1.325 . S
H840 C782 0.929 . S
H841 C783 0.930 . S
H842 C784 0.930 . S
H843 C785 0.930 . S
H844 C787 0.930 . S
H845 C789 0.929 . S
H846 C790 0.930 . S
H847 C791 0.930 . S
H848 C794 0.930 . S
H849 C797 0.929 . S
H850 C802 0.929 . S
H851 C803 0.930 . S
H852 C810 0.929 . S
H853 C811 0.930 . S
H854 C812 0.930 . S
H855 C813 0.930 . S
H856 C815 0.929 . S
H857 C816 0.930 . S
H858 C817 0.930 . S
H859 C818 0.930 . S
H860 C822 0.929 . S
H861 C824 0.930 . S
H862 C830 0.929 . S
H863 C831 0.930 . S
Li864 N881 1.990 . S
Li864 O924 1.956 . S
Li864 O925 1.970 . S
Li864 O926 1.961 . S
Li865 N889 1.990 . S
Li865 O924 1.970 . S
Li865 O925 1.956 . S
Li865 O927 1.961 . S
Li866 N911 1.990 . S
Li866 O924 1.961 . S
Li866 O926 1.956 . S
Li866 O927 1.970 . S
Li867 N917 1.990 . S
Li867 O925 1.961 . S
Li867 O926 1.970 . S
Li867 O927 1.956 . S
C868 C870 1.348 . S
C868 C871 1.356 . S
C868 O924 1.325 . S
N869 C872 1.314 . S
N869 C873 1.279 . S
C870 C868 1.348 . S
C870 C872 1.353 . S
C870 H928 0.929 . S
C871 C868 1.356 . S
C871 C873 1.358 . S
C871 H929 0.930 . S
C872 N869 1.314 . S
C872 C870 1.353 . S
C872 H930 0.930 . S
C873 N869 1.279 . S
C873 C871 1.358 . S
C873 H931 0.930 . S
C874 C877 1.348 . S
C874 C878 1.356 . S
C874 O925 1.325 . S
C875 N876 1.279 . S
C875 C878 1.358 . S
C875 H932 0.930 . S
N876 C875 1.279 . S
N876 C879 1.314 . S
C877 C874 1.348 . S
C877 C879 1.353 . S
C877 H933 0.929 . S
C878 C874 1.356 . S
C878 C875 1.358 . S
C878 H934 0.930 . S
C879 N876 1.314 . S
C879 C877 1.353 . S
C879 H935 0.930 . S
C880 N881 1.314 . S
C880 C885 1.353 . S
C880 H886 0.930 . S
N881 Li864 1.990 . S
N881 C880 1.314 . S
N881 C883 1.279 . S
C882 C883 1.358 . S
C882 C884 1.356 . S
C882 H936 0.930 . S
C883 N881 1.279 . S
C883 C882 1.358 . S
C883 H887 0.930 . S
C884 C882 1.356 . S
C884 C885 1.348 . S
C885 C880 1.353 . S
C885 C884 1.348 . S
C885 H937 0.929 . S
H886 C880 0.930 . S
H887 C883 0.930 . S
C888 N889 1.314 . S
C888 C890 1.353 . S
C888 H894 0.930 . S
N889 Li865 1.990 . S
N889 C888 1.314 . S
N889 C892 1.279 . S
C890 C888 1.353 . S
C890 C893 1.348 . S
C890 H938 0.929 . S
C891 C892 1.358 . S
C891 C893 1.356 . S
C891 H939 0.930 . S
C892 N889 1.279 . S
C892 C891 1.358 . S
C892 H895 0.930 . S
C893 C890 1.348 . S
C893 C891 1.356 . S
H894 C888 0.930 . S
H895 C892 0.930 . S
C896 C898 1.348 . S
C896 C899 1.356 . S
C896 O926 1.325 . S
N897 C900 1.314 . S
N897 C901 1.279 . S
C898 C896 1.348 . S
C898 C900 1.353 . S
C898 H940 0.929 . S
C899 C896 1.356 . S
C899 C901 1.358 . S
C899 H941 0.930 . S
C900 N897 1.314 . S
C900 C898 1.353 . S
C900 H942 0.930 . S
C901 N897 1.279 . S
C901 C899 1.358 . S
C901 H943 0.930 . S
C902 C903 1.348 . S
C902 C904 1.356 . S
C902 O927 1.325 . S
C903 C902 1.348 . S
C903 C905 1.353 . S
C903 H944 0.929 . S
C904 C902 1.356 . S
C904 C906 1.358 . S
C904 H945 0.930 . S
C905 C903 1.353 . S
C905 N907 1.314 . S
C905 H946 0.930 . S
C906 C904 1.358 . S
C906 N907 1.279 . S
C906 H947 0.930 . S
N907 C905 1.314 . S
N907 C906 1.279 . S
C908 C910 1.353 . S
C908 N911 1.314 . S
C908 H914 0.930 . S
C909 N911 1.279 . S
C909 C912 1.358 . S
C909 H915 0.930 . S
C910 C908 1.353 . S
C910 C913 1.348 . S
C910 H948 0.929 . S
N911 Li866 1.990 . S
N911 C908 1.314 . S
N911 C909 1.279 . S
C912 C909 1.358 . S
C912 C913 1.356 . S
C912 H949 0.930 . S
C913 C910 1.348 . S
C913 C912 1.356 . S
H914 C908 0.930 . S
H915 C909 0.930 . S
C916 N917 1.314 . S
C916 C918 1.353 . S
C916 H922 0.930 . S
N917 Li867 1.990 . S
N917 C916 1.314 . S
N917 C920 1.279 . S
C918 C916 1.353 . S
C918 C921 1.348 . S
C918 H950 0.929 . S
C919 C920 1.358 . S
C919 C921 1.356 . S
C919 H951 0.930 . S
C920 N917 1.279 . S
C920 C919 1.358 . S
C920 H923 0.930 . S
C921 C918 1.348 . S
C921 C919 1.356 . S
H922 C916 0.930 . S
H923 C920 0.930 . S
O924 Li864 1.956 . S
O924 Li865 1.970 . S
O924 Li866 1.961 . S
O924 C868 1.325 . S
O925 Li864 1.970 . S
O925 Li865 1.956 . S
O925 Li867 1.961 . S
O925 C874 1.325 . S
O926 Li864 1.961 . S
O926 Li866 1.956 . S
O926 Li867 1.970 . S
O926 C896 1.325 . S
O927 Li865 1.961 . S
O927 Li866 1.970 . S
O927 Li867 1.956 . S
O927 C902 1.325 . S
H928 C870 0.929 . S
H929 C871 0.930 . S
H930 C872 0.930 . S
H931 C873 0.930 . S
H932 C875 0.930 . S
H933 C877 0.929 . S
H934 C878 0.930 . S
H935 C879 0.930 . S
H936 C882 0.930 . S
H937 C885 0.929 . S
H938 C890 0.929 . S
H939 C891 0.930 . S
H940 C898 0.929 . S
H941 C899 0.930 . S
H942 C900 0.930 . S
H943 C901 0.930 . S
H944 C903 0.929 . S
H945 C904 0.930 . S
H946 C905 0.930 . S
H947 C906 0.930 . S
H948 C910 0.929 . S
H949 C912 0.930 . S
H950 C918 0.929 . S
H951 C919 0.930 . S
Li952 N969 1.990 . S
Li952 O1012 1.956 . S
Li952 O1013 1.970 . S
Li952 O1014 1.961 . S
Li953 N977 1.990 . S
Li953 O1012 1.970 . S
Li953 O1013 1.956 . S
Li953 O1015 1.961 . S
Li954 N999 1.990 . S
Li954 O1012 1.961 . S
Li954 O1014 1.956 . S
Li954 O1015 1.970 . S
Li955 N1005 1.990 . S
Li955 O1013 1.961 . S
Li955 O1014 1.970 . S
Li955 O1015 1.956 . S
C956 C958 1.348 . S
C956 C959 1.356 . S
C956 O1012 1.325 . S
N957 C960 1.314 . S
N957 C961 1.279 . S
C958 C956 1.348 . S
C958 C960 1.353 . S
C958 H1016 0.929 . S
C959 C956 1.356 . S
C959 C961 1.358 . S
C959 H1017 0.930 . S
C960 N957 1.314 . S
C960 C958 1.353 . S
C960 H1018 0.930 . S
C961 N957 1.279 . S
C961 C959 1.358 . S
C961 H1019 0.930 . S
C962 C965 1.348 . S
C962 C966 1.356 . S
C962 O1013 1.325 . S
C963 N964 1.279 . S
C963 C966 1.358 . S
C963 H1020 0.930 . S
N964 C963 1.279 . S
N964 C967 1.314 . S
C965 C962 1.348 . S
C965 C967 1.353 . S
C965 H1021 0.929 . S
C966 C962 1.356 . S
C966 C963 1.358 . S
C966 H1022 0.930 . S
C967 N964 1.314 . S
C967 C965 1.353 . S
C967 H1023 0.930 . S
C968 N969 1.314 . S
C968 C973 1.353 . S
C968 H974 0.930 . S
N969 Li952 1.990 . S
N969 C968 1.314 . S
N969 C971 1.279 . S
C970 C971 1.358 . S
C970 C972 1.356 . S
C970 H1024 0.930 . S
C971 N969 1.279 . S
C971 C970 1.358 . S
C971 H975 0.930 . S
C972 C970 1.356 . S
C972 C973 1.348 . S
C973 C968 1.353 . S
C973 C972 1.348 . S
C973 H1025 0.929 . S
H974 C968 0.930 . S
H975 C971 0.930 . S
C976 N977 1.314 . S
C976 C978 1.353 . S
C976 H982 0.930 . S
N977 Li953 1.990 . S
N977 C976 1.314 . S
N977 C980 1.279 . S
C978 C976 1.353 . S
C978 C981 1.348 . S
C978 H1026 0.929 . S
C979 C980 1.358 . S
C979 C981 1.356 . S
C979 H1027 0.930 . S
C980 N977 1.279 . S
C980 C979 1.358 . S
C980 H983 0.930 . S
C981 C978 1.348 . S
C981 C979 1.356 . S
H982 C976 0.930 . S
H983 C980 0.930 . S
C984 C986 1.348 . S
C984 C987 1.356 . S
C984 O1014 1.325 . S
N985 C988 1.314 . S
N985 C989 1.279 . S
C986 C984 1.348 . S
C986 C988 1.353 . S
C986 H1028 0.929 . S
C987 C984 1.356 . S
C987 C989 1.358 . S
C987 H1029 0.930 . S
C988 N985 1.314 . S
C988 C986 1.353 . S
C988 H1030 0.930 . S
C989 N985 1.279 . S
C989 C987 1.358 . S
C989 H1031 0.930 . S
C990 C991 1.348 . S
C990 C992 1.356 . S
C990 O1015 1.325 . S
C991 C990 1.348 . S
C991 C993 1.353 . S
C991 H1032 0.929 . S
C992 C990 1.356 . S
C992 C994 1.358 . S
C992 H1033 0.930 . S
C993 C991 1.353 . S
C993 N995 1.314 . S
C993 H1034 0.930 . S
C994 C992 1.358 . S
C994 N995 1.279 . S
C994 H1035 0.930 . S
N995 C993 1.314 . S
N995 C994 1.279 . S
C996 C998 1.353 . S
C996 N999 1.314 . S
C996 H1002 0.930 . S
C997 N999 1.279 . S
C997 C1000 1.358 . S
C997 H1003 0.930 . S
C998 C996 1.353 . S
C998 C1001 1.348 . S
C998 H1036 0.929 . S
N999 Li954 1.990 . S
N999 C996 1.314 . S
N999 C997 1.279 . S
C1000 C997 1.358 . S
C1000 C1001 1.356 . S
C1000 H1037 0.930 . S
C1001 C998 1.348 . S
C1001 C1000 1.356 . S
H1002 C996 0.930 . S
H1003 C997 0.930 . S
C1004 N1005 1.314 . S
C1004 C1006 1.353 . S
C1004 H1010 0.930 . S
N1005 Li955 1.990 . S
N1005 C1004 1.314 . S
N1005 C1008 1.279 . S
C1006 C1004 1.353 . S
C1006 C1009 1.348 . S
C1006 H1038 0.929 . S
C1007 C1008 1.358 . S
C1007 C1009 1.356 . S
C1007 H1039 0.930 . S
C1008 N1005 1.279 . S
C1008 C1007 1.358 . S
C1008 H1011 0.930 . S
C1009 C1006 1.348 . S
C1009 C1007 1.356 . S
H1010 C1004 0.930 . S
H1011 C1008 0.930 . S
O1012 Li952 1.956 . S
O1012 Li953 1.970 . S
O1012 Li954 1.961 . S
O1012 C956 1.325 . S
O1013 Li952 1.970 . S
O1013 Li953 1.956 . S
O1013 Li955 1.961 . S
O1013 C962 1.325 . S
O1014 Li952 1.961 . S
O1014 Li954 1.956 . S
O1014 Li955 1.970 . S
O1014 C984 1.325 . S
O1015 Li953 1.961 . S
O1015 Li954 1.970 . S
O1015 Li955 1.956 . S
O1015 C990 1.325 . S
H1016 C958 0.929 . S
H1017 C959 0.930 . S
H1018 C960 0.930 . S
H1019 C961 0.930 . S
H1020 C963 0.930 . S
H1021 C965 0.929 . S
H1022 C966 0.930 . S
H1023 C967 0.930 . S
H1024 C970 0.930 . S
H1025 C973 0.929 . S
H1026 C978 0.929 . S
H1027 C979 0.930 . S
H1028 C986 0.929 . S
H1029 C987 0.930 . S
H1030 C988 0.930 . S
H1031 C989 0.930 . S
H1032 C991 0.929 . S
H1033 C992 0.930 . S
H1034 C993 0.930 . S
H1035 C994 0.930 . S
H1036 C998 0.929 . S
H1037 C1000 0.930 . S
H1038 C1006 0.929 . S
H1039 C1007 0.930 . S
Li1040 N1057 1.990 . S
Li1040 O1100 1.956 . S
Li1040 O1101 1.970 . S
Li1040 O1102 1.961 . S
Li1041 N1065 1.990 . S
Li1041 O1100 1.970 . S
Li1041 O1101 1.956 . S
Li1041 O1103 1.961 . S
Li1042 N1087 1.990 . S
Li1042 O1100 1.961 . S
Li1042 O1102 1.956 . S
Li1042 O1103 1.970 . S
Li1043 N1093 1.990 . S
Li1043 O1101 1.961 . S
Li1043 O1102 1.970 . S
Li1043 O1103 1.956 . S
C1044 C1046 1.348 . S
C1044 C1047 1.356 . S
C1044 O1100 1.325 . S
N1045 C1048 1.314 . S
N1045 C1049 1.279 . S
C1046 C1044 1.348 . S
C1046 C1048 1.353 . S
C1046 H1104 0.929 . S
C1047 C1044 1.356 . S
C1047 C1049 1.358 . S
C1047 H1105 0.930 . S
C1048 N1045 1.314 . S
C1048 C1046 1.353 . S
C1048 H1106 0.930 . S
C1049 N1045 1.279 . S
C1049 C1047 1.358 . S
C1049 H1107 0.930 . S
C1050 C1053 1.348 . S
C1050 C1054 1.356 . S
C1050 O1101 1.325 . S
C1051 N1052 1.279 . S
C1051 C1054 1.358 . S
C1051 H1108 0.930 . S
N1052 C1051 1.279 . S
N1052 C1055 1.314 . S
C1053 C1050 1.348 . S
C1053 C1055 1.353 . S
C1053 H1109 0.929 . S
C1054 C1050 1.356 . S
C1054 C1051 1.358 . S
C1054 H1110 0.930 . S
C1055 N1052 1.314 . S
C1055 C1053 1.353 . S
C1055 H1111 0.930 . S
C1056 N1057 1.314 . S
C1056 C1061 1.353 . S
C1056 H1062 0.930 . S
N1057 Li1040 1.990 . S
N1057 C1056 1.314 . S
N1057 C1059 1.279 . S
C1058 C1059 1.358 . S
C1058 C1060 1.356 . S
C1058 H1112 0.930 . S
C1059 N1057 1.279 . S
C1059 C1058 1.358 . S
C1059 H1063 0.930 . S
C1060 C1058 1.356 . S
C1060 C1061 1.348 . S
C1061 C1056 1.353 . S
C1061 C1060 1.348 . S
C1061 H1113 0.929 . S
H1062 C1056 0.930 . S
H1063 C1059 0.930 . S
C1064 N1065 1.314 . S
C1064 C1066 1.353 . S
C1064 H1070 0.930 . S
N1065 Li1041 1.990 . S
N1065 C1064 1.314 . S
N1065 C1068 1.279 . S
C1066 C1064 1.353 . S
C1066 C1069 1.348 . S
C1066 H1114 0.929 . S
C1067 C1068 1.358 . S
C1067 C1069 1.356 . S
C1067 H1115 0.930 . S
C1068 N1065 1.279 . S
C1068 C1067 1.358 . S
C1068 H1071 0.930 . S
C1069 C1066 1.348 . S
C1069 C1067 1.356 . S
H1070 C1064 0.930 . S
H1071 C1068 0.930 . S
C1072 C1074 1.348 . S
C1072 C1075 1.356 . S
C1072 O1102 1.325 . S
N1073 C1076 1.314 . S
N1073 C1077 1.279 . S
C1074 C1072 1.348 . S
C1074 C1076 1.353 . S
C1074 H1116 0.929 . S
C1075 C1072 1.356 . S
C1075 C1077 1.358 . S
C1075 H1117 0.930 . S
C1076 N1073 1.314 . S
C1076 C1074 1.353 . S
C1076 H1118 0.930 . S
C1077 N1073 1.279 . S
C1077 C1075 1.358 . S
C1077 H1119 0.930 . S
C1078 C1079 1.348 . S
C1078 C1080 1.356 . S
C1078 O1103 1.325 . S
C1079 C1078 1.348 . S
C1079 C1081 1.353 . S
C1079 H1120 0.929 . S
C1080 C1078 1.356 . S
C1080 C1082 1.358 . S
C1080 H1121 0.930 . S
C1081 C1079 1.353 . S
C1081 N1083 1.314 . S
C1081 H1122 0.930 . S
C1082 C1080 1.358 . S
C1082 N1083 1.279 . S
C1082 H1123 0.930 . S
N1083 C1081 1.314 . S
N1083 C1082 1.279 . S
C1084 C1086 1.353 . S
C1084 N1087 1.314 . S
C1084 H1090 0.930 . S
C1085 N1087 1.279 . S
C1085 C1088 1.358 . S
C1085 H1091 0.930 . S
C1086 C1084 1.353 . S
C1086 C1089 1.348 . S
C1086 H1124 0.929 . S
N1087 Li1042 1.990 . S
N1087 C1084 1.314 . S
N1087 C1085 1.279 . S
C1088 C1085 1.358 . S
C1088 C1089 1.356 . S
C1088 H1125 0.930 . S
C1089 C1086 1.348 . S
C1089 C1088 1.356 . S
H1090 C1084 0.930 . S
H1091 C1085 0.930 . S
C1092 N1093 1.314 . S
C1092 C1094 1.353 . S
C1092 H1098 0.930 . S
N1093 Li1043 1.990 . S
N1093 C1092 1.314 . S
N1093 C1096 1.279 . S
C1094 C1092 1.353 . S
C1094 C1097 1.348 . S
C1094 H1126 0.929 . S
C1095 C1096 1.358 . S
C1095 C1097 1.356 . S
C1095 H1127 0.930 . S
C1096 N1093 1.279 . S
C1096 C1095 1.358 . S
C1096 H1099 0.930 . S
C1097 C1094 1.348 . S
C1097 C1095 1.356 . S
H1098 C1092 0.930 . S
H1099 C1096 0.930 . S
O1100 Li1040 1.956 . S
O1100 Li1041 1.970 . S
O1100 Li1042 1.961 . S
O1100 C1044 1.325 . S
O1101 Li1040 1.970 . S
O1101 Li1041 1.956 . S
O1101 Li1043 1.961 . S
O1101 C1050 1.325 . S
O1102 Li1040 1.961 . S
O1102 Li1042 1.956 . S
O1102 Li1043 1.970 . S
O1102 C1072 1.325 . S
O1103 Li1041 1.961 . S
O1103 Li1042 1.970 . S
O1103 Li1043 1.956 . S
O1103 C1078 1.325 . S
H1104 C1046 0.929 . S
H1105 C1047 0.930 . S
H1106 C1048 0.930 . S
H1107 C1049 0.930 . S
H1108 C1051 0.930 . S
H1109 C1053 0.929 . S
H1110 C1054 0.930 . S
H1111 C1055 0.930 . S
H1112 C1058 0.930 . S
H1113 C1061 0.929 . S
H1114 C1066 0.929 . S
H1115 C1067 0.930 . S
H1116 C1074 0.929 . S
H1117 C1075 0.930 . S
H1118 C1076 0.930 . S
H1119 C1077 0.930 . S
H1120 C1079 0.929 . S
H1121 C1080 0.930 . S
H1122 C1081 0.930 . S
H1123 C1082 0.930 . S
H1124 C1086 0.929 . S
H1125 C1088 0.930 . S
H1126 C1094 0.929 . S
H1127 C1095 0.930 . S
Li1128 N1145 1.990 . S
Li1128 O1188 1.956 . S
Li1128 O1189 1.970 1_565 S
Li1128 O1190 1.968 . S
Li1129 N1153 1.990 . S
Li1129 O1188 1.970 1_545 S
Li1129 O1189 1.956 . S
Li1129 O1191 1.961 . S
Li1130 N1175 1.997 . S
Li1130 O1188 1.986 . S
Li1130 O1190 1.956 . S
Li1130 O1191 1.937 1_565 S
Li1131 N1181 1.990 . S
Li1131 O1189 1.961 . S
Li1131 O1190 1.961 1_545 S
Li1131 O1191 1.956 . S
C1132 C1134 1.348 . S
C1132 C1135 1.356 . S
C1132 O1188 1.325 . S
N1133 C1136 1.314 . S
N1133 C1137 1.279 . S
C1134 C1132 1.348 . S
C1134 C1136 1.353 . S
C1134 H1192 0.929 . S
C1135 C1132 1.356 . S
C1135 C1137 1.358 . S
C1135 H1193 0.930 . S
C1136 N1133 1.314 . S
C1136 C1134 1.353 . S
C1136 H1194 0.930 . S
C1137 N1133 1.279 . S
C1137 C1135 1.358 . S
C1137 H1195 0.930 . S
C1138 C1141 1.348 1_545 S
C1138 C1142 1.356 . S
C1138 O1189 1.325 . S
C1139 N1140 1.279 . S
C1139 C1142 1.358 . S
C1139 H1196 0.930 . S
N1140 C1139 1.279 . S
N1140 C1143 1.314 1_545 S
C1141 C1138 1.348 1_565 S
C1141 C1143 1.353 . S
C1141 H1197 0.929 . S
C1142 C1138 1.356 . S
C1142 C1139 1.358 . S
C1142 H1198 0.930 . S
C1143 N1140 1.314 1_565 S
C1143 C1141 1.353 . S
C1143 H1199 0.930 . S
C1144 N1145 1.314 . S
C1144 C1149 1.353 . S
C1144 H1150 0.930 . S
N1145 Li1128 1.990 . S
N1145 C1144 1.314 . S
N1145 C1147 1.279 . S
C1146 C1147 1.358 . S
C1146 C1148 1.356 . S
C1146 H1200 0.930 . S
C1147 N1145 1.279 . S
C1147 C1146 1.358 . S
C1147 H1151 0.930 . S
C1148 C1146 1.356 . S
C1148 C1149 1.348 . S
C1149 C1144 1.353 . S
C1149 C1148 1.348 . S
C1149 H1201 0.929 . S
H1150 C1144 0.930 . S
H1151 C1147 0.930 . S
C1152 N1153 1.314 . S
C1152 C1154 1.353 . S
C1152 H1158 0.930 . S
N1153 Li1129 1.990 . S
N1153 C1152 1.314 . S
N1153 C1156 1.279 . S
C1154 C1152 1.353 . S
C1154 C1157 1.348 . S
C1154 H1202 0.929 . S
C1155 C1156 1.358 . S
C1155 C1157 1.356 . S
C1155 H1203 0.930 . S
C1156 N1153 1.279 . S
C1156 C1155 1.358 . S
C1156 H1159 0.930 . S
C1157 C1154 1.348 . S
C1157 C1155 1.356 . S
H1158 C1152 0.930 . S
H1159 C1156 0.930 . S
C1160 C1162 1.348 1_565 S
C1160 C1163 1.356 . S
C1160 O1190 1.326 . S
N1161 C1164 1.314 1_565 S
N1161 C1165 1.279 . S
C1162 C1160 1.348 1_545 S
C1162 C1164 1.353 . S
C1162 H1204 0.929 . S
C1163 C1160 1.356 . S
C1163 C1165 1.358 . S
C1163 H1205 0.930 . S
C1164 N1161 1.314 1_545 S
C1164 C1162 1.353 . S
C1164 H1206 0.930 . S
C1165 N1161 1.279 . S
C1165 C1163 1.358 . S
C1165 H1207 0.930 . S
C1166 C1167 1.348 . S
C1166 C1168 1.356 . S
C1166 O1191 1.325 . S
C1167 C1166 1.348 . S
C1167 C1169 1.353 . S
C1167 H1208 0.929 . S
C1168 C1166 1.356 . S
C1168 C1170 1.358 . S
C1168 H1209 0.930 . S
C1169 C1167 1.353 . S
C1169 N1171 1.314 . S
C1169 H1210 0.930 . S
C1170 C1168 1.358 . S
C1170 N1171 1.279 . S
C1170 H1211 0.930 . S
N1171 C1169 1.314 . S
N1171 C1170 1.279 . S
C1172 C1174 1.353 . S
C1172 N1175 1.314 . S
C1172 H1178 0.930 . S
C1173 N1175 1.279 . S
C1173 C1176 1.358 . S
C1173 H1179 0.931 . S
C1174 C1172 1.353 . S
C1174 C1177 1.348 . S
C1174 H1212 0.929 . S
N1175 Li1130 1.997 . S
N1175 C1172 1.314 . S
N1175 C1173 1.279 . S
C1176 C1173 1.358 . S
C1176 C1177 1.356 . S
C1176 H1213 0.930 . S
C1177 C1174 1.348 . S
C1177 C1176 1.356 . S
H1178 C1172 0.930 . S
H1179 C1173 0.931 . S
C1180 N1181 1.314 . S
C1180 C1182 1.353 . S
C1180 H1186 0.930 . S
N1181 Li1131 1.990 . S
N1181 C1180 1.314 . S
N1181 C1184 1.279 . S
C1182 C1180 1.353 . S
C1182 C1185 1.348 . S
C1182 H1214 0.929 . S
C1183 C1184 1.358 . S
C1183 C1185 1.356 . S
C1183 H1215 0.930 . S
C1184 N1181 1.279 . S
C1184 C1183 1.358 . S
C1184 H1187 0.930 . S
C1185 C1182 1.348 . S
C1185 C1183 1.356 . S
H1186 C1180 0.930 . S
H1187 C1184 0.930 . S
O1188 Li1128 1.956 . S
O1188 Li1129 1.970 1_565 S
O1188 Li1130 1.986 . S
O1188 C1132 1.325 . S
O1189 Li1128 1.970 1_545 S
O1189 Li1129 1.956 . S
O1189 Li1131 1.961 . S
O1189 C1138 1.325 . S
O1190 Li1128 1.968 . S
O1190 Li1130 1.956 . S
O1190 Li1131 1.961 1_565 S
O1190 C1160 1.326 . S
O1191 Li1129 1.961 . S
O1191 Li1130 1.937 1_545 S
O1191 Li1131 1.956 . S
O1191 C1166 1.325 . S
H1192 C1134 0.929 . S
H1193 C1135 0.930 . S
H1194 C1136 0.930 . S
H1195 C1137 0.930 . S
H1196 C1139 0.930 . S
H1197 C1141 0.929 . S
H1198 C1142 0.930 . S
H1199 C1143 0.930 . S
H1200 C1146 0.930 . S
H1201 C1149 0.929 . S
H1202 C1154 0.929 . S
H1203 C1155 0.930 . S
H1204 C1162 0.929 . S
H1205 C1163 0.930 . S
H1206 C1164 0.930 . S
H1207 C1165 0.930 . S
H1208 C1167 0.929 . S
H1209 C1168 0.930 . S
H1210 C1169 0.930 . S
H1211 C1170 0.930 . S
H1212 C1174 0.929 . S
H1213 C1176 0.930 . S
H1214 C1182 0.929 . S
H1215 C1183 0.930 . S
Li1216 N1233 1.990 . S
Li1216 O1276 1.956 . S
Li1216 O1277 1.970 . S
Li1216 O1278 1.961 . S
Li1217 N1241 1.990 1_455 S
Li1217 O1276 1.970 . S
Li1217 O1277 1.956 . S
Li1217 O1279 1.961 1_455 S
Li1218 N1263 1.990 . S
Li1218 O1276 1.961 . S
Li1218 O1278 1.956 . S
Li1218 O1279 1.970 1_455 S
Li1219 N1269 1.990 . S
Li1219 O1277 1.961 1_655 S
Li1219 O1278 1.970 1_655 S
Li1219 O1279 1.956 . S
C1220 C1222 1.348 . S
C1220 C1223 1.356 . S
C1220 O1276 1.325 . S
N1221 C1224 1.314 . S
N1221 C1225 1.279 . S
C1222 C1220 1.348 . S
C1222 C1224 1.353 . S
C1222 H1280 0.929 . S
C1223 C1220 1.356 . S
C1223 C1225 1.358 . S
C1223 H1281 0.930 . S
C1224 N1221 1.314 . S
C1224 C1222 1.353 . S
C1224 H1282 0.930 . S
C1225 N1221 1.279 . S
C1225 C1223 1.358 . S
C1225 H1283 0.930 . S
C1226 C1229 1.344 1_655 S
C1226 C1230 1.361 . S
C1226 O1277 1.324 1_655 S
C1227 N1228 1.279 . S
C1227 C1230 1.358 . S
C1227 H1284 0.930 . S
N1228 C1227 1.279 . S
N1228 C1231 1.314 1_655 S
C1229 C1226 1.344 1_455 S
C1229 C1231 1.353 . S
C1229 H1285 0.929 . S
C1230 C1226 1.361 . S
C1230 C1227 1.358 . S
C1230 H1286 0.930 . S
C1231 N1228 1.314 1_455 S
C1231 C1229 1.353 . S
C1231 H1287 0.930 . S
C1232 N1233 1.314 . S
C1232 C1237 1.353 . S
C1232 H1238 0.930 . S
N1233 Li1216 1.990 . S
N1233 C1232 1.314 . S
N1233 C1235 1.279 . S
C1234 C1235 1.358 . S
C1234 C1236 1.356 . S
C1234 H1288 0.930 . S
C1235 N1233 1.279 . S
C1235 C1234 1.358 . S
C1235 H1239 0.930 . S
C1236 C1234 1.356 . S
C1236 C1237 1.348 . S
C1237 C1232 1.353 . S
C1237 C1236 1.348 . S
C1237 H1289 0.929 . S
H1238 C1232 0.930 . S
H1239 C1235 0.930 . S
C1240 N1241 1.314 . S
C1240 C1242 1.353 . S
C1240 H1246 0.930 . S
N1241 Li1217 1.990 1_655 S
N1241 C1240 1.314 . S
N1241 C1244 1.285 . S
C1242 C1240 1.353 . S
C1242 C1245 1.348 . S
C1242 H1290 0.929 . S
C1243 C1244 1.364 . S
C1243 C1245 1.356 . S
C1243 H1291 0.930 . S
C1244 N1241 1.285 . S
C1244 C1243 1.364 . S
C1244 H1247 0.921 1_655 S
C1245 C1242 1.348 . S
C1245 C1243 1.356 . S
H1246 C1240 0.930 . S
H1247 C1244 0.921 1_455 S
C1248 C1250 1.348 1_455 S
C1248 C1251 1.356 . S
C1248 O1278 1.325 . S
N1249 C1252 1.268 1_455 S
N1249 C1253 1.279 . S
C1250 C1248 1.348 1_655 S
C1250 C1252 1.365 . S
C1250 H1292 0.929 . S
C1251 C1248 1.356 . S
C1251 C1253 1.358 . S
C1251 H1293 0.930 . S
C1252 N1249 1.268 1_655 S
C1252 C1250 1.365 . S
C1252 H1294 0.971 . S
C1253 N1249 1.279 . S
C1253 C1251 1.358 . S
C1253 H1295 0.930 . S
C1254 C1255 1.348 . S
C1254 C1256 1.356 . S
C1254 O1279 1.325 . S
C1255 C1254 1.348 . S
C1255 C1257 1.353 . S
C1255 H1296 0.929 . S
C1256 C1254 1.356 . S
C1256 C1258 1.358 . S
C1256 H1297 0.930 . S
C1257 C1255 1.353 . S
C1257 N1259 1.314 . S
C1257 H1298 0.930 . S
C1258 C1256 1.358 . S
C1258 N1259 1.279 . S
C1258 H1299 0.930 . S
N1259 C1257 1.314 . S
N1259 C1258 1.279 . S
C1260 C1262 1.353 . S
C1260 N1263 1.314 . S
C1260 H1266 0.930 . S
C1261 N1263 1.279 . S
C1261 C1264 1.358 . S
C1261 H1267 0.930 . S
C1262 C1260 1.353 . S
C1262 C1265 1.348 . S
C1262 H1300 0.929 . S
N1263 Li1218 1.990 . S
N1263 C1260 1.314 . S
N1263 C1261 1.279 . S
C1264 C1261 1.358 . S
C1264 C1265 1.356 . S
C1264 H1301 0.930 . S
C1265 C1262 1.348 . S
C1265 C1264 1.356 . S
H1266 C1260 0.930 . S
H1267 C1261 0.930 . S
C1268 N1269 1.314 . S
C1268 C1270 1.353 . S
C1268 H1274 0.930 . S
N1269 Li1219 1.990 . S
N1269 C1268 1.314 . S
N1269 C1272 1.279 . S
C1270 C1268 1.353 . S
C1270 C1273 1.348 . S
C1270 H1302 0.929 . S
C1271 C1272 1.358 . S
C1271 C1273 1.356 . S
C1271 H1303 0.930 . S
C1272 N1269 1.279 . S
C1272 C1271 1.358 . S
C1272 H1275 0.930 . S
C1273 C1270 1.348 . S
C1273 C1271 1.356 . S
H1274 C1268 0.930 . S
H1275 C1272 0.930 . S
O1276 Li1216 1.956 . S
O1276 Li1217 1.970 . S
O1276 Li1218 1.961 . S
O1276 C1220 1.325 . S
O1277 Li1216 1.970 . S
O1277 Li1217 1.956 . S
O1277 Li1219 1.961 1_455 S
O1277 C1226 1.324 1_455 S
O1278 Li1216 1.961 . S
O1278 Li1218 1.956 . S
O1278 Li1219 1.970 1_455 S
O1278 C1248 1.325 . S
O1279 Li1217 1.961 1_655 S
O1279 Li1218 1.970 1_655 S
O1279 Li1219 1.956 . S
O1279 C1254 1.325 . S
H1280 C1222 0.929 . S
H1281 C1223 0.930 . S
H1282 C1224 0.930 . S
H1283 C1225 0.930 . S
H1284 C1227 0.930 . S
H1285 C1229 0.929 . S
H1286 C1230 0.930 . S
H1287 C1231 0.930 . S
H1288 C1234 0.930 . S
H1289 C1237 0.929 . S
H1290 C1242 0.929 . S
H1291 C1243 0.930 . S
H1292 C1250 0.929 . S
H1293 C1251 0.930 . S
H1294 C1252 0.971 . S
H1295 C1253 0.930 . S
H1296 C1255 0.929 . S
H1297 C1256 0.930 . S
H1298 C1257 0.930 . S
H1299 C1258 0.930 . S
H1300 C1262 0.929 . S
H1301 C1264 0.930 . S
H1302 C1270 0.929 . S
H1303 C1271 0.930 . S
Li1304 N1321 1.990 . S
Li1304 O1364 1.956 . S
Li1304 O1365 1.970 . S
Li1304 O1366 1.961 . S
Li1305 N1329 1.990 . S
Li1305 O1364 1.970 . S
Li1305 O1365 1.956 . S
Li1305 O1367 1.961 . S
Li1306 N1351 1.990 . S
Li1306 O1364 1.961 . S
Li1306 O1366 1.956 . S
Li1306 O1367 1.970 . S
Li1307 N1357 1.990 . S
Li1307 O1365 1.961 . S
Li1307 O1366 1.970 . S
Li1307 O1367 1.956 . S
C1308 C1310 1.348 . S
C1308 C1311 1.356 . S
C1308 O1364 1.325 . S
N1309 C1312 1.314 . S
N1309 C1313 1.279 . S
C1310 C1308 1.348 . S
C1310 C1312 1.353 . S
C1310 H1368 0.929 . S
C1311 C1308 1.356 . S
C1311 C1313 1.358 . S
C1311 H1369 0.930 . S
C1312 N1309 1.314 . S
C1312 C1310 1.353 . S
C1312 H1370 0.930 . S
C1313 N1309 1.279 . S
C1313 C1311 1.358 . S
C1313 H1371 0.930 . S
C1314 C1317 1.348 . S
C1314 C1318 1.356 . S
C1314 O1365 1.325 . S
C1315 N1316 1.279 . S
C1315 C1318 1.358 . S
C1315 H1372 0.930 . S
N1316 C1315 1.279 . S
N1316 C1319 1.314 . S
C1317 C1314 1.348 . S
C1317 C1319 1.353 . S
C1317 H1373 0.929 . S
C1318 C1314 1.356 . S
C1318 C1315 1.358 . S
C1318 H1374 0.930 . S
C1319 N1316 1.314 . S
C1319 C1317 1.353 . S
C1319 H1375 0.930 . S
C1320 N1321 1.314 . S
C1320 C1325 1.353 . S
C1320 H1326 0.930 . S
N1321 Li1304 1.990 . S
N1321 C1320 1.314 . S
N1321 C1323 1.279 . S
C1322 C1323 1.358 . S
C1322 C1324 1.356 . S
C1322 H1376 0.930 . S
C1323 N1321 1.279 . S
C1323 C1322 1.358 . S
C1323 H1327 0.930 . S
C1324 C1322 1.356 . S
C1324 C1325 1.348 . S
C1325 C1320 1.353 . S
C1325 C1324 1.348 . S
C1325 H1377 0.929 . S
H1326 C1320 0.930 . S
H1327 C1323 0.930 . S
C1328 N1329 1.314 . S
C1328 C1330 1.353 . S
C1328 H1334 0.930 . S
N1329 Li1305 1.990 . S
N1329 C1328 1.314 . S
N1329 C1332 1.279 . S
C1330 C1328 1.353 . S
C1330 C1333 1.348 . S
C1330 H1378 0.929 . S
C1331 C1332 1.358 . S
C1331 C1333 1.356 . S
C1331 H1379 0.930 . S
C1332 N1329 1.279 . S
C1332 C1331 1.358 . S
C1332 H1335 0.930 . S
C1333 C1330 1.348 . S
C1333 C1331 1.356 . S
H1334 C1328 0.930 . S
H1335 C1332 0.930 . S
C1336 C1338 1.348 . S
C1336 C1339 1.356 . S
C1336 O1366 1.325 . S
N1337 C1340 1.314 . S
N1337 C1341 1.279 . S
C1338 C1336 1.348 . S
C1338 C1340 1.353 . S
C1338 H1380 0.929 . S
C1339 C1336 1.356 . S
C1339 C1341 1.358 . S
C1339 H1381 0.930 . S
C1340 N1337 1.314 . S
C1340 C1338 1.353 . S
C1340 H1382 0.930 . S
C1341 N1337 1.279 . S
C1341 C1339 1.358 . S
C1341 H1383 0.930 . S
C1342 C1343 1.348 . S
C1342 C1344 1.356 . S
C1342 O1367 1.325 . S
C1343 C1342 1.348 . S
C1343 C1345 1.353 . S
C1343 H1384 0.929 . S
C1344 C1342 1.356 . S
C1344 C1346 1.358 . S
C1344 H1385 0.930 . S
C1345 C1343 1.353 . S
C1345 N1347 1.314 . S
C1345 H1386 0.930 . S
C1346 C1344 1.358 . S
C1346 N1347 1.279 . S
C1346 H1387 0.930 . S
N1347 C1345 1.314 . S
N1347 C1346 1.279 . S
C1348 C1350 1.353 . S
C1348 N1351 1.314 . S
C1348 H1354 0.930 . S
C1349 N1351 1.279 . S
C1349 C1352 1.358 . S
C1349 H1355 0.930 . S
C1350 C1348 1.353 . S
C1350 C1353 1.348 . S
C1350 H1388 0.929 . S
N1351 Li1306 1.990 . S
N1351 C1348 1.314 . S
N1351 C1349 1.279 . S
C1352 C1349 1.358 . S
C1352 C1353 1.356 . S
C1352 H1389 0.930 . S
C1353 C1350 1.348 . S
C1353 C1352 1.356 . S
H1354 C1348 0.930 . S
H1355 C1349 0.930 . S
C1356 N1357 1.314 . S
C1356 C1358 1.353 . S
C1356 H1362 0.930 . S
N1357 Li1307 1.990 . S
N1357 C1356 1.314 . S
N1357 C1360 1.279 . S
C1358 C1356 1.353 . S
C1358 C1361 1.348 . S
C1358 H1390 0.929 . S
C1359 C1360 1.358 . S
C1359 C1361 1.356 . S
C1359 H1391 0.930 . S
C1360 N1357 1.279 . S
C1360 C1359 1.358 . S
C1360 H1363 0.930 . S
C1361 C1358 1.348 . S
C1361 C1359 1.356 . S
H1362 C1356 0.930 . S
H1363 C1360 0.930 . S
O1364 Li1304 1.956 . S
O1364 Li1305 1.970 . S
O1364 Li1306 1.961 . S
O1364 C1308 1.325 . S
O1365 Li1304 1.970 . S
O1365 Li1305 1.956 . S
O1365 Li1307 1.961 . S
O1365 C1314 1.325 . S
O1366 Li1304 1.961 . S
O1366 Li1306 1.956 . S
O1366 Li1307 1.970 . S
O1366 C1336 1.325 . S
O1367 Li1305 1.961 . S
O1367 Li1306 1.970 . S
O1367 Li1307 1.956 . S
O1367 C1342 1.325 . S
H1368 C1310 0.929 . S
H1369 C1311 0.930 . S
H1370 C1312 0.930 . S
H1371 C1313 0.930 . S
H1372 C1315 0.930 . S
H1373 C1317 0.929 . S
H1374 C1318 0.930 . S
H1375 C1319 0.930 . S
H1376 C1322 0.930 . S
H1377 C1325 0.929 . S
H1378 C1330 0.929 . S
H1379 C1331 0.930 . S
H1380 C1338 0.929 . S
H1381 C1339 0.930 . S
H1382 C1340 0.930 . S
H1383 C1341 0.930 . S
H1384 C1343 0.929 . S
H1385 C1344 0.930 . S
H1386 C1345 0.930 . S
H1387 C1346 0.930 . S
H1388 C1350 0.929 . S
H1389 C1352 0.930 . S
H1390 C1358 0.929 . S
H1391 C1359 0.930 . S
Li1392 N1409 1.990 . S
Li1392 O1452 1.956 . S
Li1392 O1453 1.970 1_455 S
Li1392 O1454 1.961 . S
Li1393 N1417 1.990 . S
Li1393 O1452 1.970 1_655 S
Li1393 O1453 1.956 . S
Li1393 O1455 1.961 . S
Li1394 N1439 1.990 . S
Li1394 O1452 1.961 . S
Li1394 O1454 1.956 . S
Li1394 O1455 1.970 1_455 S
Li1395 N1445 1.990 . S
Li1395 O1453 1.961 . S
Li1395 O1454 1.970 1_655 S
Li1395 O1455 1.956 . S
C1396 C1398 1.348 1_455 S
C1396 C1399 1.356 . S
C1396 O1452 1.325 . S
N1397 C1400 1.314 1_455 S
N1397 C1401 1.279 . S
C1398 C1396 1.348 1_655 S
C1398 C1400 1.353 . S
C1398 H1456 0.929 . S
C1399 C1396 1.356 . S
C1399 C1401 1.358 . S
C1399 H1457 0.930 . S
C1400 N1397 1.314 1_655 S
C1400 C1398 1.353 . S
C1400 H1458 0.930 . S
C1401 N1397 1.279 . S
C1401 C1399 1.358 . S
C1401 H1459 0.930 . S
C1402 C1405 1.348 . S
C1402 C1406 1.356 . S
C1402 O1453 1.325 . S
C1403 N1404 1.279 . S
C1403 C1406 1.358 . S
C1403 H1460 0.930 . S
N1404 C1403 1.279 . S
N1404 C1407 1.314 . S
C1405 C1402 1.348 . S
C1405 C1407 1.353 . S
C1405 H1461 0.929 . S
C1406 C1402 1.356 . S
C1406 C1403 1.358 . S
C1406 H1462 0.930 . S
C1407 N1404 1.314 . S
C1407 C1405 1.353 . S
C1407 H1463 0.930 . S
C1408 N1409 1.314 . S
C1408 C1413 1.353 . S
C1408 H1414 0.930 . S
N1409 Li1392 1.990 . S
N1409 C1408 1.314 . S
N1409 C1411 1.279 . S
C1410 C1411 1.358 . S
C1410 C1412 1.356 . S
C1410 H1464 0.930 . S
C1411 N1409 1.279 . S
C1411 C1410 1.358 . S
C1411 H1415 0.930 . S
C1412 C1410 1.356 . S
C1412 C1413 1.348 . S
C1413 C1408 1.353 . S
C1413 C1412 1.348 . S
C1413 H1465 0.929 . S
H1414 C1408 0.930 . S
H1415 C1411 0.930 . S
C1416 N1417 1.314 . S
C1416 C1418 1.353 . S
C1416 H1422 0.930 . S
N1417 Li1393 1.990 . S
N1417 C1416 1.314 . S
N1417 C1420 1.279 . S
C1418 C1416 1.353 . S
C1418 C1421 1.348 . S
C1418 H1466 0.929 . S
C1419 C1420 1.358 . S
C1419 C1421 1.356 . S
C1419 H1467 0.930 . S
C1420 N1417 1.279 . S
C1420 C1419 1.358 . S
C1420 H1423 0.930 . S
C1421 C1418 1.348 . S
C1421 C1419 1.356 . S
H1422 C1416 0.930 . S
H1423 C1420 0.930 . S
C1424 C1426 1.348 . S
C1424 C1427 1.356 . S
C1424 O1454 1.325 . S
N1425 C1428 1.314 . S
N1425 C1429 1.279 . S
C1426 C1424 1.348 . S
C1426 C1428 1.353 . S
C1426 H1468 0.929 . S
C1427 C1424 1.356 . S
C1427 C1429 1.358 . S
C1427 H1469 0.930 . S
C1428 N1425 1.314 . S
C1428 C1426 1.353 . S
C1428 H1470 0.930 . S
C1429 N1425 1.279 . S
C1429 C1427 1.358 . S
C1429 H1471 0.930 . S
C1430 C1431 1.348 1_655 S
C1430 C1432 1.356 . S
C1430 O1455 1.325 . S
C1431 C1430 1.348 1_455 S
C1431 C1433 1.353 . S
C1431 H1472 0.929 . S
C1432 C1430 1.356 . S
C1432 C1434 1.358 . S
C1432 H1473 0.930 . S
C1433 C1431 1.353 . S
C1433 N1435 1.314 1_455 S
C1433 H1474 0.930 . S
C1434 C1432 1.358 . S
C1434 N1435 1.279 . S
C1434 H1475 0.930 . S
N1435 C1433 1.314 1_655 S
N1435 C1434 1.279 . S
C1436 C1438 1.353 . S
C1436 N1439 1.314 . S
C1436 H1442 0.930 . S
C1437 N1439 1.279 . S
C1437 C1440 1.358 . S
C1437 H1443 0.930 . S
C1438 C1436 1.353 . S
C1438 C1441 1.348 . S
C1438 H1476 0.929 . S
N1439 Li1394 1.990 . S
N1439 C1436 1.314 . S
N1439 C1437 1.279 . S
C1440 C1437 1.358 . S
C1440 C1441 1.356 . S
C1440 H1477 0.930 . S
C1441 C1438 1.348 . S
C1441 C1440 1.356 . S
H1442 C1436 0.930 . S
H1443 C1437 0.930 . S
C1444 N1445 1.314 . S
C1444 C1446 1.353 . S
C1444 H1450 0.930 . S
N1445 Li1395 1.990 . S
N1445 C1444 1.314 . S
N1445 C1448 1.279 . S
C1446 C1444 1.353 . S
C1446 C1449 1.348 . S
C1446 H1478 0.929 . S
C1447 C1448 1.358 . S
C1447 C1449 1.356 . S
C1447 H1479 0.930 . S
C1448 N1445 1.279 . S
C1448 C1447 1.358 . S
C1448 H1451 0.930 . S
C1449 C1446 1.348 . S
C1449 C1447 1.356 . S
H1450 C1444 0.930 . S
H1451 C1448 0.930 . S
O1452 Li1392 1.956 . S
O1452 Li1393 1.970 1_455 S
O1452 Li1394 1.961 . S
O1452 C1396 1.325 . S
O1453 Li1392 1.970 1_655 S
O1453 Li1393 1.956 . S
O1453 Li1395 1.961 . S
O1453 C1402 1.325 . S
O1454 Li1392 1.961 . S
O1454 Li1394 1.956 . S
O1454 Li1395 1.970 1_455 S
O1454 C1424 1.325 . S
O1455 Li1393 1.961 . S
O1455 Li1394 1.970 1_655 S
O1455 Li1395 1.956 . S
O1455 C1430 1.325 . S
H1456 C1398 0.929 . S
H1457 C1399 0.930 . S
H1458 C1400 0.930 . S
H1459 C1401 0.930 . S
H1460 C1403 0.930 . S
H1461 C1405 0.929 . S
H1462 C1406 0.930 . S
H1463 C1407 0.930 . S
H1464 C1410 0.930 . S
H1465 C1413 0.929 . S
H1466 C1418 0.929 . S
H1467 C1419 0.930 . S
H1468 C1426 0.929 . S
H1469 C1427 0.930 . S
H1470 C1428 0.930 . S
H1471 C1429 0.930 . S
H1472 C1431 0.929 . S
H1473 C1432 0.930 . S
H1474 C1433 0.930 . S
H1475 C1434 0.930 . S
H1476 C1438 0.929 . S
H1477 C1440 0.930 . S
H1478 C1446 0.929 . S
H1479 C1447 0.930 . S
Li1480 N1497 1.990 . S
Li1480 O1540 1.956 . S
Li1480 O1541 1.970 . S
Li1480 O1542 1.961 . S
Li1481 N1505 1.990 . S
Li1481 O1540 1.970 . S
Li1481 O1541 1.956 . S
Li1481 O1543 1.961 . S
Li1482 N1527 1.990 . S
Li1482 O1540 1.961 . S
Li1482 O1542 1.956 . S
Li1482 O1543 1.970 . S
Li1483 N1533 1.990 . S
Li1483 O1541 1.961 . S
Li1483 O1542 1.970 . S
Li1483 O1543 1.956 . S
C1484 C1486 1.348 . S
C1484 C1487 1.356 . S
C1484 O1540 1.325 . S
N1485 C1488 1.314 . S
N1485 C1489 1.279 . S
C1486 C1484 1.348 . S
C1486 C1488 1.353 . S
C1486 H1544 0.929 . S
C1487 C1484 1.356 . S
C1487 C1489 1.358 . S
C1487 H1545 0.930 . S
C1488 N1485 1.314 . S
C1488 C1486 1.353 . S
C1488 H1546 0.930 . S
C1489 N1485 1.279 . S
C1489 C1487 1.358 . S
C1489 H1547 0.930 . S
C1490 C1493 1.348 . S
C1490 C1494 1.356 . S
C1490 O1541 1.325 . S
C1491 N1492 1.279 . S
C1491 C1494 1.358 . S
C1491 H1548 0.930 . S
N1492 C1491 1.279 . S
N1492 C1495 1.314 . S
C1493 C1490 1.348 . S
C1493 C1495 1.353 . S
C1493 H1549 0.929 . S
C1494 C1490 1.356 . S
C1494 C1491 1.358 . S
C1494 H1550 0.930 . S
C1495 N1492 1.314 . S
C1495 C1493 1.353 . S
C1495 H1551 0.930 . S
C1496 N1497 1.314 . S
C1496 C1501 1.353 . S
C1496 H1502 0.930 . S
N1497 Li1480 1.990 . S
N1497 C1496 1.314 . S
N1497 C1499 1.279 . S
C1498 C1499 1.358 . S
C1498 C1500 1.356 . S
C1498 H1552 0.930 . S
C1499 N1497 1.279 . S
C1499 C1498 1.358 . S
C1499 H1503 0.930 . S
C1500 C1498 1.356 . S
C1500 C1501 1.348 . S
C1501 C1496 1.353 . S
C1501 C1500 1.348 . S
C1501 H1553 0.929 . S
H1502 C1496 0.930 . S
H1503 C1499 0.930 . S
C1504 N1505 1.314 . S
C1504 C1506 1.353 . S
C1504 H1510 0.930 . S
N1505 Li1481 1.990 . S
N1505 C1504 1.314 . S
N1505 C1508 1.279 . S
C1506 C1504 1.353 . S
C1506 C1509 1.348 . S
C1506 H1554 0.929 . S
C1507 C1508 1.358 . S
C1507 C1509 1.356 . S
C1507 H1555 0.930 . S
C1508 N1505 1.279 . S
C1508 C1507 1.358 . S
C1508 H1511 0.930 . S
C1509 C1506 1.348 . S
C1509 C1507 1.356 . S
H1510 C1504 0.930 . S
H1511 C1508 0.930 . S
C1512 C1514 1.348 . S
C1512 C1515 1.356 . S
C1512 O1542 1.325 . S
N1513 C1516 1.314 . S
N1513 C1517 1.279 . S
C1514 C1512 1.348 . S
C1514 C1516 1.353 . S
C1514 H1556 0.929 . S
C1515 C1512 1.356 . S
C1515 C1517 1.358 . S
C1515 H1557 0.930 . S
C1516 N1513 1.314 . S
C1516 C1514 1.353 . S
C1516 H1558 0.930 . S
C1517 N1513 1.279 . S
C1517 C1515 1.358 . S
C1517 H1559 0.930 . S
C1518 C1519 1.348 . S
C1518 C1520 1.356 . S
C1518 O1543 1.325 . S
C1519 C1518 1.348 . S
C1519 C1521 1.353 . S
C1519 H1560 0.929 . S
C1520 C1518 1.356 . S
C1520 C1522 1.358 . S
C1520 H1561 0.930 . S
C1521 C1519 1.353 . S
C1521 N1523 1.314 . S
C1521 H1562 0.930 . S
C1522 C1520 1.358 . S
C1522 N1523 1.279 . S
C1522 H1563 0.930 . S
N1523 C1521 1.314 . S
N1523 C1522 1.279 . S
C1524 C1526 1.353 . S
C1524 N1527 1.314 . S
C1524 H1530 0.930 . S
C1525 N1527 1.279 . S
C1525 C1528 1.358 . S
C1525 H1531 0.930 . S
C1526 C1524 1.353 . S
C1526 C1529 1.348 . S
C1526 H1564 0.929 . S
N1527 Li1482 1.990 . S
N1527 C1524 1.314 . S
N1527 C1525 1.279 . S
C1528 C1525 1.358 . S
C1528 C1529 1.356 . S
C1528 H1565 0.930 . S
C1529 C1526 1.348 . S
C1529 C1528 1.356 . S
H1530 C1524 0.930 . S
H1531 C1525 0.930 . S
C1532 N1533 1.314 . S
C1532 C1534 1.353 . S
C1532 H1538 0.930 . S
N1533 Li1483 1.990 . S
N1533 C1532 1.314 . S
N1533 C1536 1.279 . S
C1534 C1532 1.353 . S
C1534 C1537 1.348 . S
C1534 H1566 0.929 . S
C1535 C1536 1.358 . S
C1535 C1537 1.356 . S
C1535 H1567 0.930 . S
C1536 N1533 1.279 . S
C1536 C1535 1.358 . S
C1536 H1539 0.930 . S
C1537 C1534 1.348 . S
C1537 C1535 1.356 . S
H1538 C1532 0.930 . S
H1539 C1536 0.930 . S
O1540 Li1480 1.956 . S
O1540 Li1481 1.970 . S
O1540 Li1482 1.961 . S
O1540 C1484 1.325 . S
O1541 Li1480 1.970 . S
O1541 Li1481 1.956 . S
O1541 Li1483 1.961 . S
O1541 C1490 1.325 . S
O1542 Li1480 1.961 . S
O1542 Li1482 1.956 . S
O1542 Li1483 1.970 . S
O1542 C1512 1.325 . S
O1543 Li1481 1.961 . S
O1543 Li1482 1.970 . S
O1543 Li1483 1.956 . S
O1543 C1518 1.325 . S
H1544 C1486 0.929 . S
H1545 C1487 0.930 . S
H1546 C1488 0.930 . S
H1547 C1489 0.930 . S
H1548 C1491 0.930 . S
H1549 C1493 0.929 . S
H1550 C1494 0.930 . S
H1551 C1495 0.930 . S
H1552 C1498 0.930 . S
H1553 C1501 0.929 . S
H1554 C1506 0.929 . S
H1555 C1507 0.930 . S
H1556 C1514 0.929 . S
H1557 C1515 0.930 . S
H1558 C1516 0.930 . S
H1559 C1517 0.930 . S
H1560 C1519 0.929 . S
H1561 C1520 0.930 . S
H1562 C1521 0.930 . S
H1563 C1522 0.930 . S
H1564 C1526 0.929 . S
H1565 C1528 0.930 . S
H1566 C1534 0.929 . S
H1567 C1535 0.930 . S
H1568 C1574 0.930 . S
H1569 C1577 0.930 . S
H1570 C1578 0.930 . S
H1571 C1579 0.930 . S
H1572 C1582 0.930 . S
H1573 C1583 0.930 . S
C1574 H1568 0.930 . S
C1574 C1575 1.355 . S
C1574 C1576 1.415 . S
C1575 C1574 1.355 . S
C1575 C1577 1.419 . S
C1576 C1574 1.415 . S
C1576 C1581 1.425 . S
C1576 C1583 1.409 . S
C1577 H1569 0.930 . S
C1577 C1575 1.419 . S
C1577 C1578 1.362 . S
C1578 H1570 0.930 . S
C1578 C1577 1.362 . S
C1578 C1581 1.409 . S
C1579 H1571 0.930 . S
C1579 C1580 1.355 . S
C1579 C1581 1.415 . S
C1580 C1579 1.355 . S
C1580 C1582 1.419 . S
C1581 C1576 1.425 . S
C1581 C1578 1.409 . S
C1581 C1579 1.415 . S
C1582 H1572 0.930 . S
C1582 C1580 1.419 . S
C1582 C1583 1.362 . S
C1583 H1573 0.930 . S
C1583 C1576 1.409 . S
C1583 C1582 1.362 . S
H1584 C1590 0.930 . S
H1585 C1593 0.930 . S
H1586 C1594 0.930 . S
H1587 C1595 0.930 . S
H1588 C1598 0.930 . S
H1589 C1599 0.930 . S
C1590 H1584 0.930 . S
C1590 C1591 1.355 . S
C1590 C1592 1.415 . S
C1591 C1590 1.355 . S
C1591 C1593 1.419 . S
C1592 C1590 1.415 . S
C1592 C1597 1.425 . S
C1592 C1599 1.409 . S
C1593 H1585 0.930 . S
C1593 C1591 1.419 . S
C1593 C1594 1.362 . S
C1594 H1586 0.930 . S
C1594 C1593 1.362 . S
C1594 C1597 1.409 . S
C1595 H1587 0.930 . S
C1595 C1596 1.355 . S
C1595 C1597 1.415 . S
C1596 C1595 1.355 . S
C1596 C1598 1.419 . S
C1597 C1592 1.425 . S
C1597 C1594 1.409 . S
C1597 C1595 1.415 . S
C1598 H1588 0.930 . S
C1598 C1596 1.419 . S
C1598 C1599 1.362 . S
C1599 H1589 0.930 . S
C1599 C1592 1.409 . S
C1599 C1598 1.362 . S
H1600 C1606 0.930 . S
H1601 C1609 0.930 . S
H1602 C1610 0.930 . S
H1603 C1611 0.930 . S
H1604 C1614 0.930 . S
H1605 C1615 0.930 . S
C1606 H1600 0.930 . S
C1606 C1607 1.355 . S
C1606 C1608 1.415 . S
C1607 C1606 1.355 . S
C1607 C1609 1.419 . S
C1608 C1606 1.415 . S
C1608 C1613 1.425 . S
C1608 C1615 1.409 . S
C1609 H1601 0.930 . S
C1609 C1607 1.419 . S
C1609 C1610 1.362 . S
C1610 H1602 0.930 . S
C1610 C1609 1.362 . S
C1610 C1613 1.409 . S
C1611 H1603 0.930 . S
C1611 C1612 1.355 . S
C1611 C1613 1.415 . S
C1612 C1611 1.355 . S
C1612 C1614 1.419 . S
C1613 C1608 1.425 . S
C1613 C1610 1.409 . S
C1613 C1611 1.415 . S
C1614 H1604 0.930 . S
C1614 C1612 1.419 . S
C1614 C1615 1.362 . S
C1615 H1605 0.930 . S
C1615 C1608 1.409 . S
C1615 C1614 1.362 . S
H1616 C1622 0.930 1_545 S
H1617 C1625 0.930 . S
H1618 C1626 0.930 . S
H1619 C1627 0.930 . S
H1620 C1630 0.930 . S
H1621 C1631 0.930 . S
C1622 H1616 0.930 1_565 S
C1622 C1623 1.355 . S
C1622 C1624 1.415 . S
C1623 C1622 1.355 . S
C1623 C1625 1.419 . S
C1624 C1622 1.415 . S
C1624 C1629 1.425 . S
C1624 C1631 1.409 1_565 S
C1625 H1617 0.930 . S
C1625 C1623 1.419 . S
C1625 C1626 1.362 . S
C1626 H1618 0.930 . S
C1626 C1625 1.362 . S
C1626 C1629 1.409 . S
C1627 H1619 0.930 . S
C1627 C1628 1.355 . S
C1627 C1629 1.415 . S
C1628 C1627 1.355 . S
C1628 C1630 1.419 1_565 S
C1629 C1624 1.425 . S
C1629 C1626 1.409 . S
C1629 C1627 1.415 . S
C1630 H1620 0.930 . S
C1630 C1628 1.419 1_545 S
C1630 C1631 1.362 . S
C1631 H1621 0.930 . S
C1631 C1624 1.409 1_545 S
C1631 C1630 1.362 . S
H1632 C1638 0.930 . S
H1633 C1641 0.930 . S
H1634 C1642 0.930 . S
H1635 C1643 0.930 . S
H1636 C1646 0.930 . S
H1637 C1647 0.930 . S
C1638 H1632 0.930 . S
C1638 C1639 1.355 . S
C1638 C1640 1.415 . S
C1639 C1638 1.355 . S
C1639 C1641 1.419 . S
C1640 C1638 1.415 . S
C1640 C1645 1.425 . S
C1640 C1647 1.409 . S
C1641 H1633 0.930 . S
C1641 C1639 1.419 . S
C1641 C1642 1.362 . S
C1642 H1634 0.930 . S
C1642 C1641 1.362 . S
C1642 C1645 1.409 . S
C1643 H1635 0.930 . S
C1643 C1644 1.355 . S
C1643 C1645 1.415 . S
C1644 C1643 1.355 . S
C1644 C1646 1.419 . S
C1645 C1640 1.425 . S
C1645 C1642 1.409 . S
C1645 C1643 1.415 . S
C1646 H1636 0.930 . S
C1646 C1644 1.419 . S
C1646 C1647 1.362 . S
C1647 H1637 0.930 . S
C1647 C1640 1.409 . S
C1647 C1646 1.362 . S
H1648 C1654 0.930 . S
H1649 C1657 0.930 . S
H1650 C1658 0.930 . S
H1651 C1659 0.930 . S
H1652 C1662 0.930 . S
H1653 C1663 0.930 . S
C1654 H1648 0.930 . S
C1654 C1655 1.355 . S
C1654 C1656 1.415 . S
C1655 C1654 1.355 . S
C1655 C1657 1.419 . S
C1656 C1654 1.415 . S
C1656 C1661 1.425 . S
C1656 C1663 1.409 . S
C1657 H1649 0.930 . S
C1657 C1655 1.419 . S
C1657 C1658 1.362 . S
C1658 H1650 0.930 . S
C1658 C1657 1.362 . S
C1658 C1661 1.409 . S
C1659 H1651 0.930 . S
C1659 C1660 1.355 . S
C1659 C1661 1.415 . S
C1660 C1659 1.355 . S
C1660 C1662 1.419 . S
C1661 C1656 1.425 . S
C1661 C1658 1.409 . S
C1661 C1659 1.415 . S
C1662 H1652 0.930 . S
C1662 C1660 1.419 . S
C1662 C1663 1.362 . S
C1663 H1653 0.930 . S
C1663 C1656 1.409 . S
C1663 C1662 1.362 . S
H1664 C1670 0.930 . S
H1665 C1673 0.930 . S
H1666 C1674 0.930 . S
H1667 C1675 0.930 . S
H1668 C1678 0.930 . S
H1669 C1679 0.930 . S
C1670 H1664 0.930 . S
C1670 C1671 1.355 . S
C1670 C1672 1.415 . S
C1671 C1670 1.355 . S
C1671 C1673 1.419 . S
C1672 C1670 1.415 . S
C1672 C1677 1.425 . S
C1672 C1679 1.409 . S
C1673 H1665 0.930 . S
C1673 C1671 1.419 . S
C1673 C1674 1.362 . S
C1674 H1666 0.930 . S
C1674 C1673 1.362 . S
C1674 C1677 1.409 . S
C1675 H1667 0.930 . S
C1675 C1676 1.355 . S
C1675 C1677 1.415 . S
C1676 C1675 1.355 . S
C1676 C1678 1.419 . S
C1677 C1672 1.425 . S
C1677 C1674 1.409 . S
C1677 C1675 1.415 . S
C1678 H1668 0.930 . S
C1678 C1676 1.419 . S
C1678 C1679 1.362 . S
C1679 H1669 0.930 . S
C1679 C1672 1.409 . S
C1679 C1678 1.362 . S
H1680 C1686 0.930 1_545 S
H1681 C1689 0.930 . S
H1682 C1690 0.930 . S
H1683 C1691 0.930 . S
H1684 C1694 0.930 . S
H1685 C1695 0.930 . S
C1686 H1680 0.930 1_565 S
C1686 C1687 1.355 . S
C1686 C1688 1.415 . S
C1687 C1686 1.355 . S
C1687 C1689 1.419 . S
C1688 C1686 1.415 . S
C1688 C1693 1.425 . S
C1688 C1695 1.409 1_565 S
C1689 H1681 0.930 . S
C1689 C1687 1.419 . S
C1689 C1690 1.362 . S
C1690 H1682 0.930 . S
C1690 C1689 1.362 . S
C1690 C1693 1.409 . S
C1691 H1683 0.930 . S
C1691 C1692 1.355 . S
C1691 C1693 1.415 . S
C1692 C1691 1.355 . S
C1692 C1694 1.419 1_565 S
C1693 C1688 1.425 . S
C1693 C1690 1.409 . S
C1693 C1691 1.415 . S
C1694 H1684 0.930 . S
C1694 C1692 1.419 1_545 S
C1694 C1695 1.362 . S
C1695 H1685 0.930 . S
C1695 C1688 1.409 1_545 S
C1695 C1694 1.362 . S
H1696 C1702 0.930 . S
H1697 C1705 0.930 . S
H1698 C1706 0.930 . S
H1699 C1707 0.930 . S
H1700 C1710 0.930 . S
H1701 C1711 0.930 . S
C1702 H1696 0.930 . S
C1702 C1703 1.355 . S
C1702 C1704 1.415 . S
C1703 C1702 1.355 . S
C1703 C1705 1.419 . S
C1704 C1702 1.415 . S
C1704 C1709 1.425 . S
C1704 C1711 1.409 . S
C1705 H1697 0.930 . S
C1705 C1703 1.419 . S
C1705 C1706 1.362 . S
C1706 H1698 0.930 . S
C1706 C1705 1.362 . S
C1706 C1709 1.409 . S
C1707 H1699 0.930 . S
C1707 C1708 1.355 . S
C1707 C1709 1.415 . S
C1708 C1707 1.355 . S
C1708 C1710 1.419 . S
C1709 C1704 1.425 . S
C1709 C1706 1.409 . S
C1709 C1707 1.415 . S
C1710 H1700 0.930 . S
C1710 C1708 1.419 . S
C1710 C1711 1.362 . S
C1711 H1701 0.930 . S
C1711 C1704 1.409 . S
C1711 C1710 1.362 . S
H1712 C1718 0.930 . S
H1713 C1721 0.930 . S
H1714 C1722 0.930 . S
H1715 C1723 0.930 . S
H1716 C1726 0.930 . S
H1717 C1727 0.930 . S
C1718 H1712 0.930 . S
C1718 C1719 1.355 . S
C1718 C1720 1.415 . S
C1719 C1718 1.355 . S
C1719 C1721 1.419 . S
C1720 C1718 1.415 . S
C1720 C1725 1.425 . S
C1720 C1727 1.409 . S
C1721 H1713 0.930 . S
C1721 C1719 1.419 . S
C1721 C1722 1.362 . S
C1722 H1714 0.930 . S
C1722 C1721 1.362 . S
C1722 C1725 1.409 . S
C1723 H1715 0.930 . S
C1723 C1724 1.355 . S
C1723 C1725 1.415 . S
C1724 C1723 1.355 . S
C1724 C1726 1.419 . S
C1725 C1720 1.425 . S
C1725 C1722 1.409 . S
C1725 C1723 1.415 . S
C1726 H1716 0.930 . S
C1726 C1724 1.419 . S
C1726 C1727 1.362 . S
C1727 H1717 0.930 . S
C1727 C1720 1.409 . S
C1727 C1726 1.362 . S
H1728 C1734 0.930 . S
H1729 C1737 0.930 . S
H1730 C1738 0.930 . S
H1731 C1739 0.930 . S
H1732 C1742 0.930 . S
H1733 C1743 0.930 . S
C1734 H1728 0.930 . S
C1734 C1735 1.355 . S
C1734 C1736 1.415 . S
C1735 C1734 1.355 . S
C1735 C1737 1.419 . S
C1736 C1734 1.415 . S
C1736 C1741 1.425 . S
C1736 C1743 1.409 . S
C1737 H1729 0.930 . S
C1737 C1735 1.419 . S
C1737 C1738 1.362 . S
C1738 H1730 0.930 . S
C1738 C1737 1.362 . S
C1738 C1741 1.409 . S
C1739 H1731 0.930 . S
C1739 C1740 1.355 . S
C1739 C1741 1.415 . S
C1740 C1739 1.355 . S
C1740 C1742 1.419 . S
C1741 C1736 1.425 . S
C1741 C1738 1.409 . S
C1741 C1739 1.415 . S
C1742 H1732 0.930 . S
C1742 C1740 1.419 . S
C1742 C1743 1.362 . S
C1743 H1733 0.930 . S
C1743 C1736 1.409 . S
C1743 C1742 1.362 . S
H1744 C1750 0.930 . S
H1745 C1753 0.930 . S
H1746 C1754 0.930 . S
H1747 C1755 0.930 . S
H1748 C1758 0.930 . S
H1749 C1759 0.930 . S
C1750 H1744 0.930 . S
C1750 C1751 1.355 . S
C1750 C1752 1.415 . S
C1751 C1750 1.355 . S
C1751 C1753 1.419 . S
C1752 C1750 1.415 . S
C1752 C1757 1.425 . S
C1752 C1759 1.409 . S
C1753 H1745 0.930 . S
C1753 C1751 1.419 . S
C1753 C1754 1.362 . S
C1754 H1746 0.930 . S
C1754 C1753 1.362 . S
C1754 C1757 1.409 . S
C1755 H1747 0.930 . S
C1755 C1756 1.355 . S
C1755 C1757 1.415 . S
C1756 C1755 1.355 . S
C1756 C1758 1.419 . S
C1757 C1752 1.425 . S
C1757 C1754 1.409 . S
C1757 C1755 1.415 . S
C1758 H1748 0.930 . S
C1758 C1756 1.419 . S
C1758 C1759 1.362 . S
C1759 H1749 0.930 . S
C1759 C1752 1.409 . S
C1759 C1758 1.362 . S
H1760 C1766 0.930 . S
H1761 C1769 0.930 . S
H1762 C1770 0.930 . S
H1763 C1771 0.930 . S
H1764 C1774 0.930 . S
H1765 C1775 0.930 . S
C1766 H1760 0.930 . S
C1766 C1767 1.355 . S
C1766 C1768 1.415 . S
C1767 C1766 1.355 . S
C1767 C1769 1.419 . S
C1768 C1766 1.415 . S
C1768 C1773 1.425 . S
C1768 C1775 1.409 . S
C1769 H1761 0.930 . S
C1769 C1767 1.419 . S
C1769 C1770 1.362 . S
C1770 H1762 0.930 . S
C1770 C1769 1.362 . S
C1770 C1773 1.409 . S
C1771 H1763 0.930 . S
C1771 C1772 1.355 . S
C1771 C1773 1.415 . S
C1772 C1771 1.355 . S
C1772 C1774 1.419 . S
C1773 C1768 1.425 . S
C1773 C1770 1.409 . S
C1773 C1771 1.415 . S
C1774 H1764 0.930 . S
C1774 C1772 1.419 . S
C1774 C1775 1.362 . S
C1775 H1765 0.930 . S
C1775 C1768 1.409 . S
C1775 C1774 1.362 . S
H1776 C1782 0.930 . S
H1777 C1785 0.930 . S
H1778 C1786 0.930 1_655 S
H1779 C1787 0.930 . S
H1780 C1790 0.930 . S
H1781 C1791 0.930 . S
C1782 H1776 0.930 . S
C1782 C1783 1.355 . S
C1782 C1784 1.415 . S
C1783 C1782 1.355 . S
C1783 C1785 1.419 . S
C1784 C1782 1.415 . S
C1784 C1789 1.425 . S
C1784 C1791 1.409 . S
C1785 H1777 0.930 . S
C1785 C1783 1.419 . S
C1785 C1786 1.362 . S
C1786 H1778 0.930 1_455 S
C1786 C1785 1.362 . S
C1786 C1789 1.409 . S
C1787 H1779 0.930 . S
C1787 C1788 1.355 . S
C1787 C1789 1.415 . S
C1788 C1787 1.355 . S
C1788 C1790 1.419 . S
C1789 C1784 1.425 . S
C1789 C1786 1.409 . S
C1789 C1787 1.415 . S
C1790 H1780 0.930 . S
C1790 C1788 1.419 . S
C1790 C1791 1.362 . S
C1791 H1781 0.930 . S
C1791 C1784 1.409 . S
C1791 C1790 1.362 . S
H1792 C1798 0.930 . S
H1793 C1801 0.930 . S
H1794 C1802 0.930 . S
H1795 C1803 0.930 . S
H1796 C1806 0.930 . S
H1797 C1807 0.930 . S
C1798 H1792 0.930 . S
C1798 C1799 1.355 . S
C1798 C1800 1.415 . S
C1799 C1798 1.355 . S
C1799 C1801 1.419 . S
C1800 C1798 1.415 . S
C1800 C1805 1.425 . S
C1800 C1807 1.409 . S
C1801 H1793 0.930 . S
C1801 C1799 1.419 . S
C1801 C1802 1.362 . S
C1802 H1794 0.930 . S
C1802 C1801 1.362 . S
C1802 C1805 1.409 . S
C1803 H1795 0.930 . S
C1803 C1804 1.355 . S
C1803 C1805 1.415 . S
C1804 C1803 1.355 . S
C1804 C1806 1.419 . S
C1805 C1800 1.425 . S
C1805 C1802 1.409 . S
C1805 C1803 1.415 . S
C1806 H1796 0.930 . S
C1806 C1804 1.419 . S
C1806 C1807 1.362 . S
C1807 H1797 0.930 . S
C1807 C1800 1.409 . S
C1807 C1806 1.362 . S
H1808 C1814 0.930 . S
H1809 C1817 0.928 1_455 S
H1810 C1818 0.930 1_455 S
H1811 C1819 0.930 1_455 S
H1812 C1822 0.930 . S
H1813 C1823 0.930 . S
C1814 H1808 0.930 . S
C1814 C1815 1.355 . S
C1814 C1816 1.415 . S
C1815 C1814 1.355 . S
C1815 C1817 1.419 . S
C1816 C1814 1.415 . S
C1816 C1821 1.425 . S
C1816 C1823 1.409 . S
C1817 H1809 0.928 1_655 S
C1817 C1815 1.419 . S
C1817 C1818 1.362 . S
C1818 H1810 0.930 1_655 S
C1818 C1817 1.362 . S
C1818 C1821 1.409 . S
C1819 H1811 0.930 1_655 S
C1819 C1820 1.355 . S
C1819 C1821 1.415 . S
C1820 C1819 1.355 . S
C1820 C1822 1.419 . S
C1821 C1816 1.425 . S
C1821 C1818 1.409 . S
C1821 C1819 1.415 . S
C1822 H1812 0.930 . S
C1822 C1820 1.419 . S
C1822 C1823 1.362 . S
C1823 H1813 0.930 . S
C1823 C1816 1.409 . S
C1823 C1822 1.362 . S
H1824 C1830 0.930 . S
H1825 C1833 0.930 . S
H1826 C1834 0.930 . S
H1827 C1835 0.930 . S
H1828 C1838 0.930 . S
H1829 C1839 0.930 . S
C1830 H1824 0.930 . S
C1830 C1831 1.355 . S
C1830 C1832 1.415 . S
C1831 C1830 1.355 . S
C1831 C1833 1.419 . S
C1832 C1830 1.415 . S
C1832 C1837 1.425 . S
C1832 C1839 1.409 . S
C1833 H1825 0.930 . S
C1833 C1831 1.419 . S
C1833 C1834 1.362 . S
C1834 H1826 0.930 . S
C1834 C1833 1.362 . S
C1834 C1837 1.409 . S
C1835 H1827 0.930 . S
C1835 C1836 1.355 . S
C1835 C1837 1.415 . S
C1836 C1835 1.355 . S
C1836 C1838 1.419 . S
C1837 C1832 1.425 . S
C1837 C1834 1.409 . S
C1837 C1835 1.415 . S
C1838 H1828 0.930 . S
C1838 C1836 1.419 . S
C1838 C1839 1.362 . S
C1839 H1829 0.930 . S
C1839 C1832 1.409 . S
C1839 C1838 1.362 . S
H1840 C1846 0.930 . S
H1841 C1849 0.930 . S
H1842 C1850 0.930 . S
H1843 C1851 0.930 . S
H1844 C1854 0.930 . S
H1845 C1855 0.930 . S
C1846 H1840 0.930 . S
C1846 C1847 1.355 . S
C1846 C1848 1.415 . S
C1847 C1846 1.355 . S
C1847 C1849 1.419 . S
C1848 C1846 1.415 . S
C1848 C1853 1.425 . S
C1848 C1855 1.409 . S
C1849 H1841 0.930 . S
C1849 C1847 1.419 . S
C1849 C1850 1.362 . S
C1850 H1842 0.930 . S
C1850 C1849 1.362 . S
C1850 C1853 1.409 . S
C1851 H1843 0.930 . S
C1851 C1852 1.355 . S
C1851 C1853 1.415 . S
C1852 C1851 1.355 . S
C1852 C1854 1.419 . S
C1853 C1848 1.425 . S
C1853 C1850 1.409 . S
C1853 C1851 1.415 . S
C1854 H1844 0.930 . S
C1854 C1852 1.419 . S
C1854 C1855 1.362 . S
C1855 H1845 0.930 . S
C1855 C1848 1.409 . S
C1855 C1854 1.362 . S
H1856 C1862 0.930 . S
H1857 C1865 0.930 1_545 S
H1858 C1866 0.930 . S
H1859 C1867 0.930 . S
H1860 C1870 0.930 . S
H1861 C1871 0.930 . S
C1862 H1856 0.930 . S
C1862 C1863 1.355 . S
C1862 C1864 1.415 . S
C1863 C1862 1.355 . S
C1863 C1865 1.419 . S
C1864 C1862 1.415 . S
C1864 C1869 1.425 . S
C1864 C1871 1.409 . S
C1865 H1857 0.930 1_565 S
C1865 C1863 1.419 . S
C1865 C1866 1.362 . S
C1866 H1858 0.930 . S
C1866 C1865 1.362 . S
C1866 C1869 1.409 . S
C1867 H1859 0.930 . S
C1867 C1868 1.355 . S
C1867 C1869 1.415 . S
C1868 C1867 1.355 . S
C1868 C1870 1.419 . S
C1869 C1864 1.425 . S
C1869 C1866 1.409 . S
C1869 C1867 1.415 . S
C1870 H1860 0.930 . S
C1870 C1868 1.419 . S
C1870 C1871 1.362 . S
C1871 H1861 0.930 . S
C1871 C1864 1.409 . S
C1871 C1870 1.362 . S
H1872 C1878 0.930 . S
H1873 C1881 0.930 . S
H1874 C1882 0.930 . S
H1875 C1883 0.930 . S
H1876 C1886 0.930 . S
H1877 C1887 0.930 . S
C1878 H1872 0.930 . S
C1878 C1879 1.355 . S
C1878 C1880 1.415 . S
C1879 C1878 1.355 . S
C1879 C1881 1.419 . S
C1880 C1878 1.415 . S
C1880 C1885 1.425 . S
C1880 C1887 1.409 . S
C1881 H1873 0.930 . S
C1881 C1879 1.419 . S
C1881 C1882 1.362 . S
C1882 H1874 0.930 . S
C1882 C1881 1.362 . S
C1882 C1885 1.409 . S
C1883 H1875 0.930 . S
C1883 C1884 1.355 . S
C1883 C1885 1.415 . S
C1884 C1883 1.355 . S
C1884 C1886 1.419 . S
C1885 C1880 1.425 . S
C1885 C1882 1.409 . S
C1885 C1883 1.415 . S
C1886 H1876 0.930 . S
C1886 C1884 1.419 . S
C1886 C1887 1.362 . S
C1887 H1877 0.930 . S
C1887 C1880 1.409 . S
C1887 C1886 1.362 . S
H1888 C1894 0.930 . S
H1889 C1897 0.930 . S
H1890 C1898 0.930 . S
H1891 C1899 0.930 . S
H1892 C1902 0.930 . S
H1893 C1903 0.930 . S
C1894 H1888 0.930 . S
C1894 C1895 1.355 . S
C1894 C1896 1.415 . S
C1895 C1894 1.355 . S
C1895 C1897 1.419 . S
C1896 C1894 1.415 . S
C1896 C1901 1.425 . S
C1896 C1903 1.409 . S
C1897 H1889 0.930 . S
C1897 C1895 1.419 . S
C1897 C1898 1.362 . S
C1898 H1890 0.930 . S
C1898 C1897 1.362 . S
C1898 C1901 1.409 . S
C1899 H1891 0.930 . S
C1899 C1900 1.355 . S
C1899 C1901 1.415 . S
C1900 C1899 1.355 . S
C1900 C1902 1.419 . S
C1901 C1896 1.425 . S
C1901 C1898 1.409 . S
C1901 C1899 1.415 . S
C1902 H1892 0.930 . S
C1902 C1900 1.419 . S
C1902 C1903 1.362 . S
C1903 H1893 0.930 . S
C1903 C1896 1.409 . S
C1903 C1902 1.362 . S
H1904 C1910 0.930 . S
H1905 C1913 0.930 . S
H1906 C1914 0.930 . S
H1907 C1915 0.930 . S
H1908 C1918 0.930 . S
H1909 C1919 0.930 . S
C1910 H1904 0.930 . S
C1910 C1911 1.355 . S
C1910 C1912 1.415 . S
C1911 C1910 1.355 . S
C1911 C1913 1.419 . S
C1912 C1910 1.415 . S
C1912 C1917 1.425 . S
C1912 C1919 1.409 . S
C1913 H1905 0.930 . S
C1913 C1911 1.419 . S
C1913 C1914 1.362 . S
C1914 H1906 0.930 . S
C1914 C1913 1.362 . S
C1914 C1917 1.409 . S
C1915 H1907 0.930 . S
C1915 C1916 1.355 . S
C1915 C1917 1.415 . S
C1916 C1915 1.355 . S
C1916 C1918 1.419 . S
C1917 C1912 1.425 . S
C1917 C1914 1.409 . S
C1917 C1915 1.415 . S
C1918 H1908 0.930 . S
C1918 C1916 1.419 . S
C1918 C1919 1.362 . S
C1919 H1909 0.930 . S
C1919 C1912 1.409 . S
C1919 C1918 1.362 . S
H1920 C1926 0.930 . S
H1921 C1929 0.930 . S
H1922 C1930 0.930 . S
H1923 C1931 0.930 . S
H1924 C1934 0.930 . S
H1925 C1935 0.930 . S
C1926 H1920 0.930 . S
C1926 C1927 1.355 . S
C1926 C1928 1.415 . S
C1927 C1926 1.355 . S
C1927 C1929 1.419 . S
C1928 C1926 1.415 . S
C1928 C1933 1.425 . S
C1928 C1935 1.409 . S
C1929 H1921 0.930 . S
C1929 C1927 1.419 . S
C1929 C1930 1.362 . S
C1930 H1922 0.930 . S
C1930 C1929 1.362 . S
C1930 C1933 1.409 . S
C1931 H1923 0.930 . S
C1931 C1932 1.355 . S
C1931 C1933 1.415 . S
C1932 C1931 1.355 . S
C1932 C1934 1.419 . S
C1933 C1928 1.425 . S
C1933 C1930 1.409 . S
C1933 C1931 1.415 . S
C1934 H1924 0.930 . S
C1934 C1932 1.419 . S
C1934 C1935 1.362 . S
C1935 H1925 0.930 . S
C1935 C1928 1.409 . S
C1935 C1934 1.362 . S
H1936 C1942 0.930 . S
H1937 C1945 0.930 . S
H1938 C1946 0.930 . S
H1939 C1947 0.930 . S
H1940 C1950 0.930 . S
H1941 C1951 0.930 . S
C1942 H1936 0.930 . S
C1942 C1943 1.355 . S
C1942 C1944 1.415 . S
C1943 C1942 1.355 . S
C1943 C1945 1.419 . S
C1944 C1942 1.415 . S
C1944 C1949 1.425 . S
C1944 C1951 1.409 . S
C1945 H1937 0.930 . S
C1945 C1943 1.419 . S
C1945 C1946 1.362 . S
C1946 H1938 0.930 . S
C1946 C1945 1.362 . S
C1946 C1949 1.409 . S
C1947 H1939 0.930 . S
C1947 C1948 1.355 . S
C1947 C1949 1.415 . S
C1948 C1947 1.355 . S
C1948 C1950 1.419 . S
C1949 C1944 1.425 . S
C1949 C1946 1.409 . S
C1949 C1947 1.415 . S
C1950 H1940 0.930 . S
C1950 C1948 1.419 . S
C1950 C1951 1.362 . S
C1951 H1941 0.930 . S
C1951 C1944 1.409 . S
C1951 C1950 1.362 . S
H1952 C1958 0.930 . S
H1953 C1961 0.930 . S
H1954 C1962 0.930 . S
H1955 C1963 0.930 . S
H1956 C1966 0.930 . S
H1957 C1967 0.930 . S
C1958 H1952 0.930 . S
C1958 C1959 1.355 . S
C1958 C1960 1.415 . S
C1959 C1958 1.355 . S
C1959 C1961 1.419 . S
C1960 C1958 1.415 . S
C1960 C1965 1.425 . S
C1960 C1967 1.409 . S
C1961 H1953 0.930 . S
C1961 C1959 1.419 . S
C1961 C1962 1.362 . S
C1962 H1954 0.930 . S
C1962 C1961 1.362 . S
C1962 C1965 1.409 . S
C1963 H1955 0.930 . S
C1963 C1964 1.355 . S
C1963 C1965 1.415 . S
C1964 C1963 1.355 . S
C1964 C1966 1.419 . S
C1965 C1960 1.425 . S
C1965 C1962 1.409 . S
C1965 C1963 1.415 . S
C1966 H1956 0.930 . S
C1966 C1964 1.419 . S
C1966 C1967 1.362 . S
C1967 H1957 0.930 . S
C1967 C1960 1.409 . S
C1967 C1966 1.362 . S
H1968 C1974 0.930 . S
H1969 C1977 0.930 . S
H1970 C1978 0.930 . S
H1971 C1979 0.930 . S
H1972 C1982 0.930 . S
H1973 C1983 0.930 . S
C1974 H1968 0.930 . S
C1974 C1975 1.355 . S
C1974 C1976 1.415 . S
C1975 C1974 1.355 . S
C1975 C1977 1.419 . S
C1976 C1974 1.415 . S
C1976 C1981 1.425 . S
C1976 C1983 1.409 . S
C1977 H1969 0.930 . S
C1977 C1975 1.419 . S
C1977 C1978 1.362 . S
C1978 H1970 0.930 . S
C1978 C1977 1.362 . S
C1978 C1981 1.409 . S
C1979 H1971 0.930 . S
C1979 C1980 1.355 . S
C1979 C1981 1.415 . S
C1980 C1979 1.355 . S
C1980 C1982 1.419 . S
C1981 C1976 1.425 . S
C1981 C1978 1.409 . S
C1981 C1979 1.415 . S
C1982 H1972 0.930 . S
C1982 C1980 1.419 . S
C1982 C1983 1.362 . S
C1983 H1973 0.930 . S
C1983 C1976 1.409 . S
C1983 C1982 1.362 . S
H1984 C1990 0.930 . S
H1985 C1993 0.930 . S
H1986 C1994 0.930 . S
H1987 C1995 0.930 . S
H1988 C1998 0.930 . S
H1989 C1999 0.930 . S
C1990 H1984 0.930 . S
C1990 C1991 1.355 . S
C1990 C1992 1.415 . S
C1991 C1990 1.355 . S
C1991 C1993 1.419 . S
C1992 C1990 1.415 . S
C1992 C1997 1.425 . S
C1992 C1999 1.409 . S
C1993 H1985 0.930 . S
C1993 C1991 1.419 . S
C1993 C1994 1.362 . S
C1994 H1986 0.930 . S
C1994 C1993 1.362 . S
C1994 C1997 1.409 . S
C1995 H1987 0.930 . S
C1995 C1996 1.355 . S
C1995 C1997 1.415 . S
C1996 C1995 1.355 . S
C1996 C1998 1.419 . S
C1997 C1992 1.425 . S
C1997 C1994 1.409 . S
C1997 C1995 1.415 . S
C1998 H1988 0.930 . S
C1998 C1996 1.419 . S
C1998 C1999 1.362 . S
C1999 H1989 0.930 . S
C1999 C1992 1.409 . S
C1999 C1998 1.362 . S
H2000 C2006 0.930 . S
H2001 C2009 0.930 . S
H2002 C2010 0.930 . S
H2003 C2011 0.930 . S
H2004 C2014 0.930 . S
H2005 C2015 0.930 . S
C2006 H2000 0.930 . S
C2006 C2007 1.355 . S
C2006 C2008 1.415 . S
C2007 C2006 1.355 . S
C2007 C2009 1.419 . S
C2008 C2006 1.415 . S
C2008 C2013 1.425 . S
C2008 C2015 1.409 . S
C2009 H2001 0.930 . S
C2009 C2007 1.419 . S
C2009 C2010 1.362 . S
C2010 H2002 0.930 . S
C2010 C2009 1.362 . S
C2010 C2013 1.409 . S
C2011 H2003 0.930 . S
C2011 C2012 1.355 . S
C2011 C2013 1.415 . S
C2012 C2011 1.355 . S
C2012 C2014 1.419 . S
C2013 C2008 1.425 . S
C2013 C2010 1.409 . S
C2013 C2011 1.415 . S
C2014 H2004 0.930 . S
C2014 C2012 1.419 . S
C2014 C2015 1.362 . S
C2015 H2005 0.930 . S
C2015 C2008 1.409 . S
C2015 C2014 1.362 . S
H2016 C2022 0.930 . S
H2017 C2025 0.930 . S
H2018 C2026 0.930 . S
H2019 C2027 0.930 . S
H2020 C2030 0.930 . S
H2021 C2031 0.930 . S
C2022 H2016 0.930 . S
C2022 C2023 1.355 . S
C2022 C2024 1.415 . S
C2023 C2022 1.355 . S
C2023 C2025 1.419 . S
C2024 C2022 1.415 . S
C2024 C2029 1.425 . S
C2024 C2031 1.409 . S
C2025 H2017 0.930 . S
C2025 C2023 1.419 . S
C2025 C2026 1.362 . S
C2026 H2018 0.930 . S
C2026 C2025 1.362 . S
C2026 C2029 1.409 . S
C2027 H2019 0.930 . S
C2027 C2028 1.355 . S
C2027 C2029 1.415 . S
C2028 C2027 1.355 . S
C2028 C2030 1.419 . S
C2029 C2024 1.425 . S
C2029 C2026 1.409 . S
C2029 C2027 1.415 . S
C2030 H2020 0.930 . S
C2030 C2028 1.419 . S
C2030 C2031 1.362 . S
C2031 H2021 0.930 . S
C2031 C2024 1.409 . S
C2031 C2030 1.362 . S
H2032 C2038 0.930 . S
H2033 C2041 0.930 1_565 S
H2034 C2042 0.930 . S
H2035 C2043 0.930 1_565 S
H2036 C2046 0.930 . S
H2037 C2047 0.930 . S
C2038 H2032 0.930 . S
C2038 C2039 1.355 . S
C2038 C2040 1.415 . S
C2039 C2038 1.355 . S
C2039 C2041 1.419 . S
C2040 C2038 1.415 . S
C2040 C2045 1.425 . S
C2040 C2047 1.409 . S
C2041 H2033 0.930 1_545 S
C2041 C2039 1.419 . S
C2041 C2042 1.362 1_545 S
C2042 H2034 0.930 . S
C2042 C2041 1.362 1_565 S
C2042 C2045 1.409 1_565 S
C2043 H2035 0.930 1_545 S
C2043 C2044 1.355 . S
C2043 C2045 1.415 . S
C2044 C2043 1.355 . S
C2044 C2046 1.419 . S
C2045 C2040 1.425 . S
C2045 C2042 1.409 1_545 S
C2045 C2043 1.415 . S
C2046 H2036 0.930 . S
C2046 C2044 1.419 . S
C2046 C2047 1.362 . S
C2047 H2037 0.930 . S
C2047 C2040 1.409 . S
C2047 C2046 1.362 . S
H2048 C2054 0.930 . S
H2049 C2057 0.930 . S
H2050 C2058 0.930 . S
H2051 C2059 0.930 . S
H2052 C2062 0.930 . S
H2053 C2063 0.930 . S
C2054 H2048 0.930 . S
C2054 C2055 1.355 . S
C2054 C2056 1.415 . S
C2055 C2054 1.355 . S
C2055 C2057 1.419 . S
C2056 C2054 1.415 . S
C2056 C2061 1.425 . S
C2056 C2063 1.409 . S
C2057 H2049 0.930 . S
C2057 C2055 1.419 . S
C2057 C2058 1.362 . S
C2058 H2050 0.930 . S
C2058 C2057 1.362 . S
C2058 C2061 1.409 . S
C2059 H2051 0.930 . S
C2059 C2060 1.355 . S
C2059 C2061 1.415 . S
C2060 C2059 1.355 . S
C2060 C2062 1.419 . S
C2061 C2056 1.425 . S
C2061 C2058 1.409 . S
C2061 C2059 1.415 . S
C2062 H2052 0.930 . S
C2062 C2060 1.419 . S
C2062 C2063 1.362 . S
C2063 H2053 0.930 . S
C2063 C2056 1.409 . S
C2063 C2062 1.362 . S
H2064 C2070 0.930 . S
H2065 C2073 0.930 1_655 S
H2066 C2074 0.930 . S
H2067 C2075 0.930 . S
H2068 C2078 0.930 . S
H2069 C2079 0.930 . S
C2070 H2064 0.930 . S
C2070 C2071 1.355 . S
C2070 C2072 1.415 . S
C2071 C2070 1.355 . S
C2071 C2073 1.419 . S
C2072 C2070 1.415 . S
C2072 C2077 1.425 . S
C2072 C2079 1.409 . S
C2073 H2065 0.930 1_455 S
C2073 C2071 1.419 . S
C2073 C2074 1.362 . S
C2074 H2066 0.930 . S
C2074 C2073 1.362 . S
C2074 C2077 1.409 . S
C2075 H2067 0.930 . S
C2075 C2076 1.355 . S
C2075 C2077 1.415 . S
C2076 C2075 1.355 . S
C2076 C2078 1.419 . S
C2077 C2072 1.425 . S
C2077 C2074 1.409 . S
C2077 C2075 1.415 . S
C2078 H2068 0.930 . S
C2078 C2076 1.419 . S
C2078 C2079 1.362 . S
C2079 H2069 0.930 . S
C2079 C2072 1.409 . S
C2079 C2078 1.362 . S
H2080 C2086 0.930 . S
H2081 C2089 0.930 . S
H2082 C2090 0.930 . S
H2083 C2091 0.930 . S
H2084 C2094 0.930 . S
H2085 C2095 0.930 . S
C2086 H2080 0.930 . S
C2086 C2087 1.355 . S
C2086 C2088 1.415 . S
C2087 C2086 1.355 . S
C2087 C2089 1.419 . S
C2088 C2086 1.415 . S
C2088 C2093 1.425 . S
C2088 C2095 1.409 . S
C2089 H2081 0.930 . S
C2089 C2087 1.419 . S
C2089 C2090 1.362 . S
C2090 H2082 0.930 . S
C2090 C2089 1.362 . S
C2090 C2093 1.409 . S
C2091 H2083 0.930 . S
C2091 C2092 1.355 . S
C2091 C2093 1.415 . S
C2092 C2091 1.355 . S
C2092 C2094 1.419 . S
C2093 C2088 1.425 . S
C2093 C2090 1.409 . S
C2093 C2091 1.415 . S
C2094 H2084 0.930 . S
C2094 C2092 1.419 . S
C2094 C2095 1.362 . S
C2095 H2085 0.930 . S
C2095 C2088 1.409 . S
C2095 C2094 1.362 . S
H2096 C2102 0.930 1_455 S
H2097 C2105 0.930 . S
H2098 C2106 0.930 . S
H2099 C2107 0.930 . S
H2100 C2110 0.930 . S
H2101 C2111 0.930 . S
C2102 H2096 0.930 1_655 S
C2102 C2103 1.355 . S
C2102 C2104 1.415 . S
C2103 C2102 1.355 . S
C2103 C2105 1.419 . S
C2104 C2102 1.415 . S
C2104 C2109 1.425 . S
C2104 C2111 1.409 1_655 S
C2105 H2097 0.930 . S
C2105 C2103 1.419 . S
C2105 C2106 1.362 . S
C2106 H2098 0.930 . S
C2106 C2105 1.362 . S
C2106 C2109 1.409 . S
C2107 H2099 0.930 . S
C2107 C2108 1.355 . S
C2107 C2109 1.415 . S
C2108 C2107 1.355 . S
C2108 C2110 1.419 1_655 S
C2109 C2104 1.425 . S
C2109 C2106 1.409 . S
C2109 C2107 1.415 . S
C2110 H2100 0.930 . S
C2110 C2108 1.419 1_455 S
C2110 C2111 1.362 . S
C2111 H2101 0.930 . S
C2111 C2104 1.409 1_455 S
C2111 C2110 1.362 . S
H2112 C2118 0.930 . S
H2113 C2121 0.930 . S
H2114 C2122 0.930 . S
H2115 C2123 0.930 . S
H2116 C2126 0.930 . S
H2117 C2127 0.930 . S
C2118 H2112 0.930 . S
C2118 C2119 1.355 . S
C2118 C2120 1.415 . S
C2119 C2118 1.355 . S
C2119 C2121 1.419 . S
C2120 C2118 1.415 . S
C2120 C2125 1.425 . S
C2120 C2127 1.409 . S
C2121 H2113 0.930 . S
C2121 C2119 1.419 . S
C2121 C2122 1.362 . S
C2122 H2114 0.930 . S
C2122 C2121 1.362 . S
C2122 C2125 1.409 . S
C2123 H2115 0.930 . S
C2123 C2124 1.355 . S
C2123 C2125 1.415 . S
C2124 C2123 1.355 . S
C2124 C2126 1.419 . S
C2125 C2120 1.425 . S
C2125 C2122 1.409 . S
C2125 C2123 1.415 . S
C2126 H2116 0.930 . S
C2126 C2124 1.419 . S
C2126 C2127 1.362 . S
C2127 H2117 0.930 . S
C2127 C2120 1.409 . S
C2127 C2126 1.362 . S
H2128 C2134 0.930 1_554 S
H2129 C2137 0.930 . S
H2130 C2138 0.911 1_655 S
H2131 C2139 0.930 . S
H2132 C2142 0.930 . S
H2133 C2143 0.930 . S
C2134 H2128 0.930 1_556 S
C2134 C2135 1.355 . S
C2134 C2136 1.415 . S
C2135 C2134 1.355 . S
C2135 C2137 1.419 . S
C2136 C2134 1.415 . S
C2136 C2141 1.425 . S
C2136 C2143 1.409 . S
C2137 H2129 0.930 . S
C2137 C2135 1.419 . S
C2137 C2138 1.362 . S
C2138 H2130 0.911 1_455 S
C2138 C2137 1.362 . S
C2138 C2141 1.409 . S
C2139 H2131 0.930 . S
C2139 C2140 1.355 . S
C2139 C2141 1.415 . S
C2140 C2139 1.355 . S
C2140 C2142 1.419 . S
C2141 C2136 1.425 . S
C2141 C2138 1.409 . S
C2141 C2139 1.415 . S
C2142 H2132 0.930 . S
C2142 C2140 1.419 . S
C2142 C2143 1.362 . S
C2143 H2133 0.930 . S
C2143 C2136 1.409 . S
C2143 C2142 1.362 . S
H2144 C2150 0.930 . S
H2145 C2153 0.930 . S
H2146 C2154 0.930 . S
H2147 C2155 0.930 . S
H2148 C2158 0.930 . S
H2149 C2159 0.930 . S
C2150 H2144 0.930 . S
C2150 C2151 1.355 . S
C2150 C2152 1.415 . S
C2151 C2150 1.355 . S
C2151 C2153 1.419 . S
C2152 C2150 1.415 . S
C2152 C2157 1.425 . S
C2152 C2159 1.409 . S
C2153 H2145 0.930 . S
C2153 C2151 1.419 . S
C2153 C2154 1.362 . S
C2154 H2146 0.930 . S
C2154 C2153 1.362 . S
C2154 C2157 1.409 . S
C2155 H2147 0.930 . S
C2155 C2156 1.355 . S
C2155 C2157 1.415 . S
C2156 C2155 1.355 . S
C2156 C2158 1.419 . S
C2157 C2152 1.425 . S
C2157 C2154 1.409 . S
C2157 C2155 1.415 . S
C2158 H2148 0.930 . S
C2158 C2156 1.419 . S
C2158 C2159 1.362 . S
C2159 H2149 0.930 . S
C2159 C2152 1.409 . S
C2159 C2158 1.362 . S
H2160 C2166 0.930 . S
H2161 C2169 0.930 1_556 S
H2162 C2170 0.930 . S
H2163 C2171 0.930 . S
H2164 C2174 0.930 . S
H2165 C2175 0.930 . S
C2166 H2160 0.930 . S
C2166 C2167 1.355 . S
C2166 C2168 1.415 . S
C2167 C2166 1.355 . S
C2167 C2169 1.419 . S
C2168 C2166 1.415 . S
C2168 C2173 1.425 . S
C2168 C2175 1.409 . S
C2169 H2161 0.930 1_554 S
C2169 C2167 1.419 . S
C2169 C2170 1.362 . S
C2170 H2162 0.930 . S
C2170 C2169 1.362 . S
C2170 C2173 1.409 . S
C2171 H2163 0.930 . S
C2171 C2172 1.355 . S
C2171 C2173 1.415 . S
C2172 C2171 1.355 . S
C2172 C2174 1.419 . S
C2173 C2168 1.425 . S
C2173 C2170 1.409 . S
C2173 C2171 1.415 . S
C2174 H2164 0.930 . S
C2174 C2172 1.419 . S
C2174 C2175 1.362 . S
C2175 H2165 0.930 . S
C2175 C2168 1.409 . S
C2175 C2174 1.362 . S
H2176 C2182 0.930 . S
H2177 C2185 0.930 . S
H2178 C2186 0.930 . S
H2179 C2187 0.930 . S
H2180 C2190 0.930 . S
H2181 C2191 0.930 . S
C2182 H2176 0.930 . S
C2182 C2183 1.355 . S
C2182 C2184 1.415 . S
C2183 C2182 1.355 . S
C2183 C2185 1.419 . S
C2184 C2182 1.415 . S
C2184 C2189 1.425 . S
C2184 C2191 1.409 . S
C2185 H2177 0.930 . S
C2185 C2183 1.419 . S
C2185 C2186 1.362 . S
C2186 H2178 0.930 . S
C2186 C2185 1.362 . S
C2186 C2189 1.409 . S
C2187 H2179 0.930 . S
C2187 C2188 1.355 . S
C2187 C2189 1.415 . S
C2188 C2187 1.355 . S
C2188 C2190 1.419 . S
C2189 C2184 1.425 . S
C2189 C2186 1.409 . S
C2189 C2187 1.415 . S
C2190 H2180 0.930 . S
C2190 C2188 1.419 . S
C2190 C2191 1.362 . S
C2191 H2181 0.930 . S
C2191 C2184 1.409 . S
C2191 C2190 1.362 . S
H2192 C2198 0.930 . S
H2193 C2201 0.930 1_556 S
H2194 C2202 0.930 . S
H2195 C2203 0.930 . S
H2196 C2206 0.930 . S
H2197 C2207 0.930 . S
C2198 H2192 0.930 . S
C2198 C2199 1.355 . S
C2198 C2200 1.415 . S
C2199 C2198 1.355 . S
C2199 C2201 1.419 . S
C2200 C2198 1.415 . S
C2200 C2205 1.425 . S
C2200 C2207 1.409 . S
C2201 H2193 0.930 1_554 S
C2201 C2199 1.419 . S
C2201 C2202 1.362 . S
C2202 H2194 0.930 . S
C2202 C2201 1.362 . S
C2202 C2205 1.409 . S
C2203 H2195 0.930 . S
C2203 C2204 1.355 . S
C2203 C2205 1.415 . S
C2204 C2203 1.355 . S
C2204 C2206 1.419 . S
C2205 C2200 1.425 . S
C2205 C2202 1.409 . S
C2205 C2203 1.415 . S
C2206 H2196 0.930 . S
C2206 C2204 1.419 . S
C2206 C2207 1.362 . S
C2207 H2197 0.930 . S
C2207 C2200 1.409 . S
C2207 C2206 1.362 . S
H2208 C2214 0.930 . S
H2209 C2217 0.930 . S
H2210 C2218 0.930 . S
H2211 C2219 0.930 . S
H2212 C2222 0.930 . S
H2213 C2223 0.930 . S
C2214 H2208 0.930 . S
C2214 C2215 1.355 . S
C2214 C2216 1.415 . S
C2215 C2214 1.355 . S
C2215 C2217 1.419 . S
C2216 C2214 1.415 . S
C2216 C2221 1.425 . S
C2216 C2223 1.409 . S
C2217 H2209 0.930 . S
C2217 C2215 1.419 . S
C2217 C2218 1.362 . S
C2218 H2210 0.930 . S
C2218 C2217 1.362 . S
C2218 C2221 1.409 . S
C2219 H2211 0.930 . S
C2219 C2220 1.355 . S
C2219 C2221 1.415 . S
C2220 C2219 1.355 . S
C2220 C2222 1.419 . S
C2221 C2216 1.425 . S
C2221 C2218 1.409 . S
C2221 C2219 1.415 . S
C2222 H2212 0.930 . S
C2222 C2220 1.419 . S
C2222 C2223 1.362 . S
C2223 H2213 0.930 . S
C2223 C2216 1.409 . S
C2223 C2222 1.362 . S
H2224 C2230 0.930 . S
H2225 C2233 0.930 . S
H2226 C2234 0.930 . S
H2227 C2235 0.930 . S
H2228 C2238 0.930 . S
H2229 C2239 0.930 . S
C2230 H2224 0.930 . S
C2230 C2231 1.355 . S
C2230 C2232 1.415 . S
C2231 C2230 1.355 . S
C2231 C2233 1.419 . S
C2232 C2230 1.415 . S
C2232 C2237 1.425 . S
C2232 C2239 1.409 . S
C2233 H2225 0.930 . S
C2233 C2231 1.419 . S
C2233 C2234 1.362 . S
C2234 H2226 0.930 . S
C2234 C2233 1.362 . S
C2234 C2237 1.409 . S
C2235 H2227 0.930 . S
C2235 C2236 1.355 . S
C2235 C2237 1.415 . S
C2236 C2235 1.355 . S
C2236 C2238 1.419 . S
C2237 C2232 1.425 . S
C2237 C2234 1.409 . S
C2237 C2235 1.415 . S
C2238 H2228 0.930 . S
C2238 C2236 1.419 . S
C2238 C2239 1.362 . S
C2239 H2229 0.930 . S
C2239 C2232 1.409 . S
C2239 C2238 1.362 . S
H2240 C2246 0.930 . S
H2241 C2249 0.930 . S
H2242 C2250 0.930 . S
H2243 C2251 0.930 . S
H2244 C2254 0.930 . S
H2245 C2255 0.930 . S
C2246 H2240 0.930 . S
C2246 C2247 1.355 . S
C2246 C2248 1.415 . S
C2247 C2246 1.355 . S
C2247 C2249 1.419 . S
C2248 C2246 1.415 . S
C2248 C2253 1.425 . S
C2248 C2255 1.409 . S
C2249 H2241 0.930 . S
C2249 C2247 1.419 . S
C2249 C2250 1.362 . S
C2250 H2242 0.930 . S
C2250 C2249 1.362 . S
C2250 C2253 1.409 . S
C2251 H2243 0.930 . S
C2251 C2252 1.355 . S
C2251 C2253 1.415 . S
C2252 C2251 1.355 . S
C2252 C2254 1.419 . S
C2253 C2248 1.425 . S
C2253 C2250 1.409 . S
C2253 C2251 1.415 . S
C2254 H2244 0.930 . S
C2254 C2252 1.419 . S
C2254 C2255 1.362 . S
C2255 H2245 0.930 . S
C2255 C2248 1.409 . S
C2255 C2254 1.362 . S
H2256 C2262 0.930 . S
H2257 C2265 0.930 . S
H2258 C2266 0.930 . S
H2259 C2267 0.930 . S
H2260 C2270 0.930 . S
H2261 C2271 0.930 . S
C2262 H2256 0.930 . S
C2262 C2263 1.355 . S
C2262 C2264 1.415 . S
C2263 C2262 1.355 . S
C2263 C2265 1.419 . S
C2264 C2262 1.415 . S
C2264 C2269 1.425 . S
C2264 C2271 1.409 . S
C2265 H2257 0.930 . S
C2265 C2263 1.419 . S
C2265 C2266 1.362 . S
C2266 H2258 0.930 . S
C2266 C2265 1.362 . S
C2266 C2269 1.409 . S
C2267 H2259 0.930 . S
C2267 C2268 1.355 . S
C2267 C2269 1.415 . S
C2268 C2267 1.355 . S
C2268 C2270 1.419 . S
C2269 C2264 1.425 . S
C2269 C2266 1.409 . S
C2269 C2267 1.415 . S
C2270 H2260 0.930 . S
C2270 C2268 1.419 . S
C2270 C2271 1.362 . S
C2271 H2261 0.930 . S
C2271 C2264 1.409 . S
C2271 C2270 1.362 . S
H2272 C2278 0.930 . S
H2273 C2281 0.930 1_554 S
H2274 C2282 0.930 . S
H2275 C2283 0.930 1_554 S
H2276 C2286 0.930 . S
H2277 C2287 0.930 . S
C2278 H2272 0.930 . S
C2278 C2279 1.355 . S
C2278 C2280 1.415 . S
C2279 C2278 1.355 . S
C2279 C2281 1.419 . S
C2280 C2278 1.415 . S
C2280 C2285 1.425 . S
C2280 C2287 1.409 . S
C2281 H2273 0.930 1_556 S
C2281 C2279 1.419 . S
C2281 C2282 1.362 1_556 S
C2282 H2274 0.930 . S
C2282 C2281 1.362 1_554 S
C2282 C2285 1.409 1_554 S
C2283 H2275 0.930 1_556 S
C2283 C2284 1.355 . S
C2283 C2285 1.415 . S
C2284 C2283 1.355 . S
C2284 C2286 1.419 . S
C2285 C2280 1.425 . S
C2285 C2282 1.409 1_556 S
C2285 C2283 1.415 . S
C2286 H2276 0.930 . S
C2286 C2284 1.419 . S
C2286 C2287 1.362 . S
C2287 H2277 0.930 . S
C2287 C2280 1.409 . S
C2287 C2286 1.362 . S
H2288 C2294 0.930 . S
H2289 C2297 0.930 . S
H2290 C2298 0.930 . S
H2291 C2299 0.930 . S
H2292 C2302 0.930 . S
H2293 C2303 0.930 . S
C2294 H2288 0.930 . S
C2294 C2295 1.355 . S
C2294 C2296 1.415 . S
C2295 C2294 1.355 . S
C2295 C2297 1.419 . S
C2296 C2294 1.415 . S
C2296 C2301 1.425 . S
C2296 C2303 1.409 . S
C2297 H2289 0.930 . S
C2297 C2295 1.419 . S
C2297 C2298 1.362 . S
C2298 H2290 0.930 . S
C2298 C2297 1.362 . S
C2298 C2301 1.409 . S
C2299 H2291 0.930 . S
C2299 C2300 1.355 . S
C2299 C2301 1.415 . S
C2300 C2299 1.355 . S
C2300 C2302 1.419 . S
C2301 C2296 1.425 . S
C2301 C2298 1.409 . S
C2301 C2299 1.415 . S
C2302 H2292 0.930 . S
C2302 C2300 1.419 . S
C2302 C2303 1.362 . S
C2303 H2293 0.930 . S
C2303 C2296 1.409 . S
C2303 C2302 1.362 . S
H2304 C2310 0.930 . S
H2305 C2313 0.930 . S
H2306 C2314 0.930 . S
H2307 C2315 0.930 . S
H2308 C2318 0.930 1_556 S
H2309 C2319 0.930 1_556 S
C2310 H2304 0.930 . S
C2310 C2311 1.355 . S
C2310 C2312 1.415 . S
C2311 C2310 1.355 . S
C2311 C2313 1.419 . S
C2312 C2310 1.415 . S
C2312 C2317 1.425 . S
C2312 C2319 1.409 . S
C2313 H2305 0.930 . S
C2313 C2311 1.419 . S
C2313 C2314 1.362 . S
C2314 H2306 0.930 . S
C2314 C2313 1.362 . S
C2314 C2317 1.409 . S
C2315 H2307 0.930 . S
C2315 C2316 1.355 . S
C2315 C2317 1.415 . S
C2316 C2315 1.355 . S
C2316 C2318 1.419 . S
C2317 C2312 1.425 . S
C2317 C2314 1.409 . S
C2317 C2315 1.415 . S
C2318 H2308 0.930 1_554 S
C2318 C2316 1.419 . S
C2318 C2319 1.362 . S
C2319 H2309 0.930 1_554 S
C2319 C2312 1.409 . S
C2319 C2318 1.362 . S
H2320 C2326 0.930 . S
H2321 C2329 0.930 1_545 S
H2322 C2330 0.930 . S
H2323 C2331 0.930 . S
H2324 C2334 0.930 . S
H2325 C2335 0.930 . S
C2326 H2320 0.930 . S
C2326 C2327 1.355 . S
C2326 C2328 1.415 . S
C2327 C2326 1.355 . S
C2327 C2329 1.419 . S
C2328 C2326 1.415 . S
C2328 C2333 1.425 . S
C2328 C2335 1.409 . S
C2329 H2321 0.930 1_565 S
C2329 C2327 1.419 . S
C2329 C2330 1.362 . S
C2330 H2322 0.930 . S
C2330 C2329 1.362 . S
C2330 C2333 1.409 . S
C2331 H2323 0.930 . S
C2331 C2332 1.355 . S
C2331 C2333 1.415 . S
C2332 C2331 1.355 . S
C2332 C2334 1.419 . S
C2333 C2328 1.425 . S
C2333 C2330 1.409 . S
C2333 C2331 1.415 . S
C2334 H2324 0.930 . S
C2334 C2332 1.419 . S
C2334 C2335 1.362 . S
C2335 H2325 0.930 . S
C2335 C2328 1.409 . S
C2335 C2334 1.362 . S
C1580 C561 1.461 . S
C1575 C177 1.470 . S
C1596 C620 1.528 . S
C1591 C209 1.514 . S
C1607 C253 1.407 . S
C1612 C737 1.464 . S
C1628 C805 1.528 . S
C1623 C157 1.453 . S
C1644 C884 1.514 . S
C1639 C343 1.444 . S
C1660 C1009 1.497 . S
C1655 C401 1.430 . S
C1671 C369 1.497 . S
C1676 C1069 1.521 . S
C1692 C1177 1.513 . S
C1687 C317 1.504 . S
C1703 C375 1.477 . S
C1708 C1273 1.512 . S
C1724 C1333 1.549 . S
C1719 C305 1.557 . S
C1735 C349 1.469 . S
C1740 C1236 1.536 . S
C1756 C1353 1.519 . S
C1751 C413 1.465 . S
C1767 C241 1.437 . S
C1772 C1421 1.475 . S
C1783 C151 1.475 . S
C1788 C1412 1.492 . S
C1799 C189 1.471 . S
C1804 C1441 1.512 . S
C1815 C215 1.502 . S
C1820 C1449 1.506 . S
C1831 C113 1.452 . S
C1836 C833 1.493 . S
C1847 C471 1.467 . S
C1852 C796 1.481 . S
C1868 C532 1.515 . S
C1863 C509 1.519 . S
C1884 C629 1.502 . S
C1879 C279 1.451 . S
C1895 C145 1.464 . S
C1900 C893 1.477 . S
C1916 C1185 1.553 . S
C1911 C381 1.532 . S
C1932 C913 1.534 . S
C1927 C311 1.501 . S
C1948 C1097 1.496 . S
C1943 C407 1.460 . S
C1964 C1089 1.470 . S
C1959 C465 1.439 . S
C1975 C497 1.501 . S
C1980 C1157 1.532 . S
C1991 C285 1.404 . S
C1996 C921 1.463 . S
C2012 C972 1.530 . S
C2007 C445 1.506 . S
C2023 C119 1.471 . S
C2028 C717 1.518 . S
C2044 C825 1.502 . S
C2039 C17 1.467 . S
C2060 C541 1.515 . S
C2055 C49 1.453 . S
C2076 C657 1.507 . S
C2071 C93 1.514 . S
C2087 C55 1.503 . S
C2092 C1361 1.517 . S
C2103 C81 1.551 . S
C2108 C1245 1.553 . S
C2119 C125 1.456 . S
C2124 C1324 1.533 . S
C2135 C29 1.498 1_556 S
C2140 C1265 1.518 . S
C2156 C1509 1.473 . S
C2151 C273 1.421 . S
C2172 C1500 1.482 . S
C2167 C439 1.409 . S
C2188 C1529 1.514 . S
C2183 C477 1.471 . S
C2199 C503 1.512 . S
C2204 C1537 1.505 . S
C2215 C337 1.447 . S
C2220 C1001 1.489 . S
C2236 C981 1.488 . S
C2231 C183 1.450 . S
C2252 C1060 1.524 . S
C2247 C221 1.493 . S
C2268 C1148 1.500 . S
C2263 C247 1.439 . S
C2279 C433 1.457 . S
C2284 C708 1.474 . S
C2300 C649 1.543 . S
C2295 C61 1.466 . S
C2311 C87 1.510 . S
C2316 C745 1.535 . S
C2332 C569 1.491 . S
C2327 C23 1.429 . S
