# Generated by pormake.
# Topology anh, (6,3)-cn, num edge types: 1
# Building blocks:
#     Node 0, Type 0, BuildingBlock: BETDAH_clean_sbu_0, # of connection points: 6
#     Node 1, Type 0, BuildingBlock: BETDAH_clean_sbu_0, # of connection points: 6
#     Node 2, Type 0, BuildingBlock: BETDAH_clean_sbu_0, # of connection points: 6
#     Node 3, Type 1, BuildingBlock: KAKCAD_clean_linker_0, # of connection points: 3
#     Node 4, Type 1, BuildingBlock: KAKCAD_clean_linker_0, # of connection points: 3
#     Node 5, Type 1, BuildingBlock: KAKCAD_clean_linker_0, # of connection points: 3
#     Node 6, Type 1, BuildingBlock: KAKCAD_clean_linker_0, # of connection points: 3
#     Node 7, Type 1, BuildingBlock: KAKCAD_clean_linker_0, # of connection points: 3
#     Node 8, Type 1, BuildingBlock: KAKCAD_clean_linker_0, # of connection points: 3
#     Edge 9, Type (0, 1), BuildingBlock: MIFKUJ_clean_linker_0, # of connection points: 2
#     Edge 10, Type (0, 1), BuildingBlock: MIFKUJ_clean_linker_0, # of connection points: 2
#     Edge 11, Type (0, 1), BuildingBlock: MIFKUJ_clean_linker_0, # of connection points: 2
#     Edge 12, Type (0, 1), BuildingBlock: MIFKUJ_clean_linker_0, # of connection points: 2
#     Edge 13, Type (0, 1), BuildingBlock: MIFKUJ_clean_linker_0, # of connection points: 2
#     Edge 14, Type (0, 1), BuildingBlock: MIFKUJ_clean_linker_0, # of connection points: 2
#     Edge 15, Type (0, 1), BuildingBlock: MIFKUJ_clean_linker_0, # of connection points: 2
#     Edge 16, Type (0, 1), BuildingBlock: MIFKUJ_clean_linker_0, # of connection points: 2
#     Edge 17, Type (0, 1), BuildingBlock: MIFKUJ_clean_linker_0, # of connection points: 2
#     Edge 18, Type (0, 1), BuildingBlock: MIFKUJ_clean_linker_0, # of connection points: 2
#     Edge 19, Type (0, 1), BuildingBlock: MIFKUJ_clean_linker_0, # of connection points: 2
#     Edge 20, Type (0, 1), BuildingBlock: MIFKUJ_clean_linker_0, # of connection points: 2
#     Edge 21, Type (0, 1), BuildingBlock: MIFKUJ_clean_linker_0, # of connection points: 2
#     Edge 22, Type (0, 1), BuildingBlock: MIFKUJ_clean_linker_0, # of connection points: 2
#     Edge 23, Type (0, 1), BuildingBlock: MIFKUJ_clean_linker_0, # of connection points: 2
#     Edge 24, Type (0, 1), BuildingBlock: MIFKUJ_clean_linker_0, # of connection points: 2
#     Edge 25, Type (0, 1), BuildingBlock: MIFKUJ_clean_linker_0, # of connection points: 2
#     Edge 26, Type (0, 1), BuildingBlock: MIFKUJ_clean_linker_0, # of connection points: 2
# Relax obj value: 0.163
# Max RMSD: 0.200
# Mean RMSD: 0.150
data_MOF--net-anh--node1-BETDAH_clean_sbu_0--node2-KAKCAD_clean_linker_0--edge1-MIFKUJ_clean_linker_0
_symmetry_space_group_name_H-M    P1
_symmetry_Int_Tables_number       1
_symmetry_cell_setting            triclinic
loop_
_symmetry_equiv_pos_as_xyz
'x, y, z'
_cell_length_a     46.77473
_cell_length_b     52.918648
_cell_length_c     82.551468
_cell_angle_alpha  92.974953
_cell_angle_beta   89.501859
_cell_angle_gamma 127.32593
loop_
_atom_site_label
_atom_site_type_symbol
_atom_site_fract_x
_atom_site_fract_y
_atom_site_fract_z
_atom_type_partial_charge
Ho0 Ho 0.07448 0.50898 0.14743 0.0
Ho1 Ho 0.0366 0.53654 0.16026 0.0
C2 C 0.12109 0.58598 0.15653 0.0
C3 C 0.11623 0.50055 0.13209 0.0
C4 C 0.15316 0.51295 0.13681 0.0
C5 C 0.18213 0.53394 0.12702 0.0
C6 C 0.21741 0.54738 0.13207 0.0
C7 C 0.22424 0.53998 0.14698 0.0
C8 C 0.19515 0.51933 0.15682 0.0
C9 C 0.16012 0.5061 0.15184 0.0
C10 C 0.0667 0.50728 0.17974 0.0
C11 C 0.99157 0.46 0.15316 0.0
C12 C 0.99972 0.54993 0.17681 0.0
C13 C 0.96919 0.5323 0.18756 0.0
C14 C 0.95669 0.54766 0.1956 0.0
C15 C 0.92489 0.53009 0.20419 0.0
C16 C 0.9053 0.4969 0.20485 0.0
C17 C 0.91969 0.4822 0.19788 0.0
C18 C 0.95114 0.49969 0.18919 0.0
C19 C 0.04632 0.53808 0.12783 0.0
O20 O 0.11958 0.56229 0.1492 0.0
O21 O 0.09266 0.58153 0.16311 0.0
O22 O 0.09066 0.47928 0.14129 0.0
O23 O 0.11229 0.52199 0.12826 0.0
O24 O 0.0699 0.48791 0.17127 0.0
O25 O 0.07316 0.52905 0.17114 0.0
O26 O 0.99556 0.48333 0.16229 0.0
O27 O 1.01734 0.46532 0.14359 0.0
O28 O 0.99281 0.53986 0.16151 0.0
O29 O 1.0297 0.55622 0.18222 0.0
O30 O 0.04819 0.56022 0.13654 0.0
O31 O 0.03723 0.51559 0.13654 0.0
H32 H 0.17748 0.54005 0.11552 0.0
H33 H 0.23927 0.56329 0.12424 0.0
H34 H 0.19919 0.51243 0.16819 0.0
H35 H 0.13854 0.49042 0.15984 0.0
H36 H 0.97052 0.57291 0.19458 0.0
H37 H 0.91439 0.54215 0.20926 0.0
H38 H 0.9055 0.4568 0.19829 0.0
H39 H 0.96035 0.48735 0.18318 0.0
Ho40 Ho 0.57227 0.00839 0.485 0.0
Ho41 Ho 0.52586 0.03 0.4802 0.0
C42 C 0.48517 0.95547 0.47842 0.0
C43 C 0.60078 0.98239 0.49503 0.0
C44 C 0.59194 0.95092 0.49761 0.0
C45 C 0.56304 0.92852 0.50709 0.0
C46 C 0.55711 0.89985 0.51012 0.0
C47 C 0.57997 0.89305 0.50377 0.0
C48 C 0.60833 0.91529 0.49401 0.0
C49 C 0.61426 0.94386 0.49103 0.0
C50 C 0.56721 0.02082 0.45436 0.0
C51 C 0.6136 0.08314 0.4854 0.0
C52 C 0.49975 0.05848 0.47099 0.0
C53 C 0.5097 0.09064 0.47386 0.0
C54 C 0.49263 0.0999 0.46478 0.0
C55 C 0.50054 0.12981 0.46795 0.0
C56 C 0.52572 0.15107 0.48028 0.0
C57 C 0.54352 0.14194 0.48905 0.0
C58 C 0.53554 0.11199 0.48588 0.0
C59 C 0.53171 0.01852 0.51094 0.0
O60 O 0.51521 0.96208 0.48472 0.0
O61 O 0.48404 0.97818 0.47336 0.0
O62 O 0.60162 0.98937 0.47999 0.0
O63 O 0.58671 0.99234 0.50471 0.0
O64 O 0.59627 0.02713 0.46077 0.0
O65 O 0.54184 0.00664 0.46412 0.0
O66 O 0.58241 0.07654 0.48108 0.0
O67 O 0.61632 0.06069 0.48921 0.0
O68 O 0.48876 0.04121 0.48364 0.0
O69 O 0.52188 0.0564 0.46233 0.0
O70 O 0.50263 0.01225 0.50464 0.0
O71 O 0.55676 0.03234 0.50101 0.0
H72 H 0.54539 0.93333 0.51236 0.0
H73 H 0.53519 0.88342 0.51778 0.0
H74 H 0.62607 0.91066 0.48866 0.0
H75 H 0.63671 0.96073 0.48369 0.0
H76 H 0.47281 0.08381 0.45538 0.0
H77 H 0.48679 0.13623 0.46077 0.0
H78 H 0.56279 0.15751 0.49872 0.0
H79 H 0.549 0.10524 0.49302 0.0
Ho80 Ho 0.59765 0.56476 0.84585 0.0
Ho81 Ho 0.54925 0.49375 0.84857 0.0
C82 C 0.51009 0.52718 0.84915 0.0
C83 C 0.62846 0.62306 0.83865 0.0
C84 C 0.61807 0.64347 0.83464 0.0
C85 C 0.58959 0.63295 0.82365 0.0
C86 C 0.58118 0.65331 0.81981 0.0
C87 C 0.60084 0.68446 0.82699 0.0
C88 C 0.62899 0.69466 0.83814 0.0
C89 C 0.63752 0.67442 0.84188 0.0
C90 C 0.58952 0.54484 0.87607 0.0
C91 C 0.63817 0.53242 0.84716 0.0
C92 C 0.51976 0.43589 0.85603 0.0
C93 C 0.52384 0.41083 0.85112 0.0
C94 C 0.53606 0.40032 0.86255 0.0
C95 C 0.53962 0.37641 0.8582 0.0
C96 C 0.53049 0.36209 0.84237 0.0
C97 C 0.51821 0.37258 0.83094 0.0
C98 C 0.51503 0.39672 0.83524 0.0
C99 C 0.55732 0.51195 0.8178 0.0
O100 O 0.54066 0.55137 0.84294 0.0
O101 O 0.50862 0.5033 0.85481 0.0
O102 O 0.62314 0.61407 0.85352 0.0
O103 O 0.62028 0.60029 0.82798 0.0
O104 O 0.61989 0.5689 0.87081 0.0
O105 O 0.56506 0.53346 0.86536 0.0
O106 O 0.60582 0.50609 0.85049 0.0
O107 O 0.64162 0.55825 0.84326 0.0
O108 O 0.50622 0.44333 0.84515 0.0
O109 O 0.54645 0.46092 0.86447 0.0
O110 O 0.52856 0.48637 0.82302 0.0
O111 O 0.5818 0.52488 0.82868 0.0
H112 H 0.57393 0.60908 0.81797 0.0
H113 H 0.55911 0.6446 0.8113 0.0
H114 H 0.64497 0.71859 0.84374 0.0
H115 H 0.65963 0.68307 0.85036 0.0
H116 H 0.54262 0.41048 0.8749 0.0
H117 H 0.54882 0.36866 0.86734 0.0
H118 H 0.51134 0.36231 0.8186 0.0
H119 H 0.50557 0.4042 0.82609 0.0
C120 C 0.56737 0.05891 0.27318 0.0
C121 C 0.5572 0.03256 0.28181 0.0
C122 C 0.56875 0.05771 0.25622 0.0
C123 C 0.56063 0.03032 0.24756 0.0
C124 C 0.55116 0.00425 0.25637 0.0
C125 C 0.54911 0.00525 0.27325 0.0
C126 C 0.56167 0.02866 0.22945 0.0
C127 C 0.58726 0.05563 0.22103 0.0
C128 C 0.58836 0.0542 0.20396 0.0
C129 C 0.56392 0.0246 0.19524 0.0
C130 C 0.53826 0.99708 0.20353 0.0
C131 C 0.53702 0.99981 0.22052 0.0
C132 C 0.51197 0.96504 0.19504 0.0
C133 C 0.49183 0.96082 0.18118 0.0
C134 C 0.50404 0.93778 0.20202 0.0
C135 C 0.47511 0.90728 0.19618 0.0
C136 C 0.45359 0.90302 0.18299 0.0
C137 C 0.61557 0.08409 0.19573 0.0
C138 C 0.62158 0.11273 0.20097 0.0
C139 C 0.63769 0.08507 0.18372 0.0
C140 C 0.6661 0.11423 0.17765 0.0
C141 C 0.67285 0.14306 0.18335 0.0
C142 C 0.64975 0.1417 0.19491 0.0
C143 C 0.46294 0.93004 0.17518 0.0
H144 H 0.57358 0.0802 0.27953 0.0
H145 H 0.57562 0.07809 0.24993 0.0
H146 H 0.54562 0.98304 0.25026 0.0
H147 H 0.54174 0.9848 0.27967 0.0
H148 H 0.60705 0.07786 0.2278 0.0
H149 H 0.51613 0.97921 0.22684 0.0
H150 H 0.56484 0.02303 0.18213 0.0
H151 H 0.49713 0.98125 0.17554 0.0
H152 H 0.51947 0.94005 0.21246 0.0
H153 H 0.46898 0.88693 0.20227 0.0
H154 H 0.60487 0.11285 0.21009 0.0
H155 H 0.6339 0.06349 0.17947 0.0
H156 H 0.4468 0.92743 0.16496 0.0
H157 H 0.65412 0.16323 0.19977 0.0
H158 H 0.68299 0.11422 0.1686 0.0
C159 C 0.54589 0.53516 0.63667 0.0
C160 C 0.56723 0.52873 0.64449 0.0
C161 C 0.54398 0.53425 0.61972 0.0
C162 C 0.5637 0.52724 0.61017 0.0
C163 C 0.58528 0.52107 0.61806 0.0
C164 C 0.58684 0.52162 0.63499 0.0
C165 C 0.56188 0.52642 0.59207 0.0
C166 C 0.55974 0.54819 0.58423 0.0
C167 C 0.5583 0.54779 0.5672 0.0
C168 C 0.55961 0.52544 0.5579 0.0
C169 C 0.56179 0.50338 0.5655 0.0
C170 C 0.56251 0.50395 0.58256 0.0
C171 C 0.56305 0.47945 0.55583 0.0
C172 C 0.54081 0.46296 0.54192 0.0
C173 C 0.58567 0.472 0.5609 0.0
C174 C 0.58533 0.44812 0.55259 0.0
C175 C 0.56249 0.43105 0.5389 0.0
C176 C 0.55589 0.57117 0.55933 0.0
C177 C 0.53204 0.57718 0.5651 0.0
C178 C 0.57839 0.58866 0.54655 0.0
C179 C 0.57782 0.61232 0.54006 0.0
C180 C 0.55445 0.61875 0.54608 0.0
C181 C 0.53124 0.60058 0.55853 0.0
C182 C 0.54049 0.43903 0.53357 0.0
H183 H 0.53013 0.54033 0.64368 0.0
H184 H 0.52658 0.53859 0.61412 0.0
H185 H 0.60142 0.51621 0.61117 0.0
H186 H 0.60387 0.51695 0.64069 0.0
H187 H 0.56014 0.56617 0.59138 0.0
H188 H 0.56279 0.4863 0.58847 0.0
H189 H 0.55894 0.52523 0.54477 0.0
H190 H 0.5229 0.46794 0.53772 0.0
H191 H 0.60354 0.4845 0.57142 0.0
H192 H 0.60236 0.44249 0.55719 0.0
H193 H 0.51414 0.56392 0.57483 0.0
H194 H 0.59719 0.58471 0.5419 0.0
H195 H 0.52288 0.42668 0.52296 0.0
H196 H 0.51313 0.60508 0.56354 0.0
H197 H 0.59582 0.6257 0.53038 0.0
C198 C 0.0966 0.54794 0.94537 0.0
C199 C 0.06328 0.52776 0.95283 0.0
C200 C 0.09867 0.54824 0.92845 0.0
C201 C 0.06751 0.52841 0.91848 0.0
C202 C 0.03418 0.50822 0.9259 0.0
C203 C 1.0321 0.50788 0.94285 0.0
C204 C 0.06992 0.52913 0.90041 0.0
C205 C 0.09769 0.53057 0.8927 0.0
C206 C 0.10252 0.53308 0.8758 0.0
C207 C 0.07634 0.53281 0.86637 0.0
C208 C 0.04708 0.53072 0.87411 0.0
C209 C 0.045 0.52904 0.89106 0.0
C210 C 1.01743 0.53017 0.86584 0.0
C211 C 1.02232 0.55858 0.86276 0.0
C212 C 0.98143 0.50223 0.86558 0.0
C213 C 0.95181 0.50265 0.8627 0.0
C214 C 0.95639 0.53118 0.86013 0.0
C215 C 0.13579 0.53635 0.86945 0.0
C216 C 0.16852 0.55505 0.87876 0.0
C217 C 0.13484 0.51802 0.85603 0.0
C218 C 0.16455 0.51741 0.85269 0.0
C219 C 0.19617 0.53462 0.86279 0.0
C220 C 0.1975 0.55386 0.87568 0.0
C221 C 0.99262 0.55906 0.85986 0.0
H222 H 0.12111 0.56401 0.95262 0.0
H223 H 0.12473 0.56449 0.92317 0.0
H224 H 1.0097 0.49236 0.91861 0.0
H225 H 1.00603 0.49168 0.94813 0.0
H226 H 0.11575 0.52934 0.90012 0.0
H227 H 1.02381 0.52824 0.89712 0.0
H228 H 0.07885 0.53449 0.85336 0.0
H229 H 0.04918 0.58093 0.86352 0.0
H230 H 0.97598 0.47995 0.86842 0.0
H231 H 0.92505 0.48032 0.8628 0.0
H232 H 0.17143 0.57016 0.88901 0.0
H233 H 0.11057 0.50301 0.84852 0.0
H234 H 0.99826 0.58182 0.85818 0.0
H235 H 0.22118 0.56809 0.88362 0.0
H236 H 0.16209 0.50231 0.84256 0.0
C237 C 1.00337 0.49165 0.36204 0.0
C238 C 0.03533 0.50538 0.35345 0.0
C239 C 1.00408 0.4937 0.37903 0.0
C240 C 0.03672 0.50922 0.38794 0.0
C241 C 0.0686 0.52276 0.37933 0.0
C242 C 0.06796 0.52113 0.36238 0.0
C243 C 0.03772 0.51135 0.40609 0.0
C244 C 1.0099 0.48613 0.41486 0.0
C245 C 1.01108 0.48765 0.43194 0.0
C246 C 0.04106 0.51501 0.44038 0.0
C247 C 0.06929 0.54057 0.43178 0.0
C248 C 0.06698 0.53851 0.41474 0.0
C249 C 0.10171 0.56984 0.4401 0.0
C250 C 0.09864 0.58792 0.45206 0.0
C251 C 0.13618 0.5817 0.43473 0.0
C252 C 0.16668 0.61138 0.44066 0.0
C253 C 0.16365 0.63025 0.45209 0.0
C254 C 0.98094 0.45988 0.44054 0.0
C255 C 0.9451 0.44649 0.43629 0.0
C256 C 0.98741 0.44468 0.45177 0.0
C257 C 0.95868 0.41597 0.45805 0.0
C258 C 0.92282 0.40214 0.45345 0.0
C259 C 0.91644 0.41815 0.44273 0.0
C260 C 0.12927 0.61791 0.45791 0.0
H261 H 0.97762 0.47895 0.35566 0.0
H262 H 0.97898 0.48331 0.38516 0.0
H263 H 0.09424 0.53445 0.38567 0.0
H264 H 0.09327 0.53253 0.35631 0.0
H265 H 0.98758 0.46466 0.40838 0.0
H266 H 0.08807 0.5586 0.40818 0.0
H267 H 0.04247 0.51633 0.45353 0.0
H268 H 0.07244 0.57952 0.45634 0.0
H269 H 0.13945 0.5683 0.42555 0.0
H270 H 0.19252 0.62009 0.43575 0.0
H271 H 0.93926 0.45765 0.42766 0.0
H272 H 1.01472 0.45427 0.45517 0.0
H273 H 0.12596 0.63163 0.46684 0.0
H274 H 0.88927 0.40813 0.43882 0.0
H275 H 0.96452 0.40441 0.46639 0.0
C276 C 0.5372 0.98844 0.69199 0.0
C277 C 0.56086 0.0169 0.68415 0.0
C278 C 0.53652 0.98848 0.70892 0.0
C279 C 0.55944 0.01697 0.71849 0.0
C280 C 0.58309 0.04546 0.71069 0.0
C281 C 0.58383 0.04542 0.69372 0.0
C282 C 0.55854 0.0168 0.73653 0.0
C283 C 0.55569 0.99253 0.74443 0.0
C284 C 0.55375 0.99134 0.76142 0.0
C285 C 0.5548 0.01513 0.7706 0.0
C286 C 0.55799 0.03987 0.76289 0.0
C287 C 0.55999 0.04052 0.74588 0.0
C288 C 0.55837 0.06482 0.77232 0.0
C289 C 0.53109 0.0565 0.78325 0.0
C290 C 0.58477 0.09716 0.76959 0.0
C291 C 0.58359 0.12064 0.77737 0.0
C292 C 0.55562 0.11229 0.78787 0.0
C293 C 0.55132 0.96534 0.76925 0.0
C294 C 0.52886 0.934 0.76235 0.0
C295 C 0.57327 0.97186 0.78282 0.0
C296 C 0.57401 0.94792 0.78882 0.0
C297 C 0.55277 0.91692 0.78138 0.0
C298 C 0.52958 0.91014 0.76832 0.0
C299 C 0.52954 0.07997 0.79083 0.0
H300 H 0.51863 0.96613 0.68503 0.0
H301 H 0.51753 0.96619 0.71452 0.0
H302 H 0.60143 0.06776 0.71769 0.0
H303 H 0.60271 0.06772 0.68811 0.0
H304 H 0.55581 0.97481 0.73731 0.0
H305 H 0.5615 0.05903 0.73989 0.0
H306 H 0.55313 0.01443 0.78369 0.0
H307 H 0.51026 0.03175 0.78549 0.0
H308 H 0.60615 0.10426 0.76125 0.0
H309 H 0.60393 0.14528 0.77476 0.0
H310 H 0.51109 0.928 0.75208 0.0
H311 H 0.59106 0.99579 0.78836 0.0
H312 H 0.5078 0.07285 0.79894 0.0
H313 H 0.5122 0.8864 0.76254 0.0
H314 H 0.59232 0.95403 0.79885 0.0
C315 C 0.5382 0.41918 0.04454 0.0
C316 C 0.52762 0.43566 0.03705 0.0
C317 C 0.53178 0.41297 0.061 0.0
C318 C 0.5152 0.42361 0.07032 0.0
C319 C 0.50537 0.44067 0.06274 0.0
C320 C 0.51118 0.44632 0.04631 0.0
C321 C 0.50871 0.41778 0.08792 0.0
C322 C 0.53395 0.41937 0.09803 0.0
C323 C 0.52932 0.417 0.11488 0.0
C324 C 0.49933 0.41316 0.12156 0.0
C325 C 0.47409 0.41184 0.1118 0.0
C326 C 0.47831 0.41296 0.09493 0.0
C327 C 0.44646 0.41368 0.1195 0.0
C328 C 0.43147 0.39981 0.13436 0.0
C329 C 0.43849 0.43298 0.11311 0.0
C330 C 0.41782 0.43961 0.12174 0.0
C331 C 0.40519 0.42755 0.13703 0.0
C332 C 0.55627 0.41992 0.12585 0.0
C333 C 0.57109 0.40397 0.12191 0.0
C334 C 0.56582 0.4374 0.14086 0.0
C335 C 0.58814 0.43763 0.15201 0.0
C336 C 0.60201 0.42091 0.14829 0.0
C337 C 0.59394 0.40459 0.13303 0.0
C338 C 0.41149 0.40714 0.14319 0.0
H339 H 0.55092 0.41071 0.0376 0.0
H340 H 0.53949 0.39959 0.06635 0.0
H341 H 0.49366 0.45021 0.06955 0.0
H342 H 0.50342 0.45963 0.04087 0.0
H343 H 0.55802 0.42396 0.09295 0.0
H344 H 0.4582 0.41085 0.08727 0.0
H345 H 0.49643 0.41235 0.13459 0.0
H346 H 0.43629 0.38424 0.1395 0.0
H347 H 0.44996 0.44461 0.10191 0.0
H348 H 0.41342 0.45569 0.11689 0.0
H349 H 0.56415 0.39023 0.11047 0.0
H350 H 0.55575 0.45075 0.14408 0.0
H351 H 0.4017 0.39753 0.15496 0.0
H352 H 0.60454 0.39164 0.1299 0.0
H353 H 0.59474 0.45104 0.16354 0.0
H354 H 0.27288 0.54293 0.12705 0.0
H355 H 0.32076 0.54056 0.13543 0.0
H356 H 0.30487 0.55528 0.18555 0.0
H357 H 0.25742 0.55885 0.1772 0.0
H358 H 0.3837 0.56863 0.15608 0.0
H359 H 0.28559 0.49102 0.20241 0.0
H360 H 0.22317 0.46656 0.21042 0.0
H361 H 0.19025 0.45269 0.16031 0.0
H362 H 0.25238 0.47676 0.15206 0.0
H363 H 0.43274 0.46586 0.16455 0.0
H364 H 0.41263 0.49573 0.17694 0.0
H365 H 0.32119 0.44576 0.14353 0.0
H366 H 0.34165 0.41654 0.131 0.0
H367 H 0.3066 0.45908 0.17544 0.0
H368 H 0.39481 0.50997 0.13171 0.0
H369 H 0.45461 0.53237 0.12078 0.0
H370 H 0.50512 0.59789 0.16253 0.0
H371 H 0.44552 0.57546 0.17381 0.0
C372 C 0.28073 0.54742 0.13979 0.0
C373 C 0.26049 0.54992 0.15151 0.0
C374 C 0.30828 0.54612 0.14458 0.0
C375 C 0.31568 0.547 0.16112 0.0
C376 C 0.29921 0.55421 0.17273 0.0
C377 C 0.27183 0.55584 0.16793 0.0
C378 C 0.33243 0.53203 0.16576 0.0
C379 C 0.36743 0.54518 0.16088 0.0
C380 C 0.31102 0.50129 0.17188 0.0
C381 C 0.27349 0.48582 0.17667 0.0
C382 C 0.26493 0.48258 0.19314 0.0
C383 C 0.22965 0.46882 0.19771 0.0
C384 C 0.20278 0.45813 0.18588 0.0
C385 C 0.21107 0.46098 0.16945 0.0
C386 C 0.24628 0.47465 0.16483 0.0
C387 C 0.40768 0.46057 0.16031 0.0
C388 C 0.38853 0.43905 0.14691 0.0
C389 C 0.39632 0.4776 0.16734 0.0
C390 C 0.36554 0.47292 0.1611 0.0
C391 C 0.34486 0.44947 0.14859 0.0
C392 C 0.35651 0.43287 0.14141 0.0
C393 C 0.35759 0.49542 0.16545 0.0
C394 C 0.32397 0.48343 0.17178 0.0
C395 C 0.38021 0.5271 0.16057 0.0
C396 C 0.41586 0.54085 0.15367 0.0
C397 C 0.4187 0.52903 0.13859 0.0
C398 C 0.45253 0.54172 0.13233 0.0
C399 C 0.48365 0.56649 0.14098 0.0
C400 C 0.481 0.57866 0.15587 0.0
C401 C 0.44722 0.56596 0.1622 0.0
H402 H 0.50983 0.5763 0.13612 0.0
H403 H 0.17552 0.44762 0.18945 0.0
H404 H 0.61878 0.1372 0.49086 0.0
H405 H 0.67189 0.19235 0.48873 0.0
H406 H 0.73546 0.16021 0.47672 0.0
H407 H 0.68274 0.10508 0.47986 0.0
H408 H 0.77506 0.21326 0.49444 0.0
H409 H 0.69589 0.18027 0.44709 0.0
H410 H 0.63611 0.1574 0.43515 0.0
H411 H 0.63949 0.23399 0.45802 0.0
H412 H 0.69911 0.25702 0.47033 0.0
H413 H 0.91806 0.34806 0.45491 0.0
H414 H 0.8665 0.29536 0.46242 0.0
H415 H 0.80645 0.3317 0.47244 0.0
H416 H 0.85771 0.38427 0.46448 0.0
H417 H 0.76435 0.27758 0.45695 0.0
H418 H 0.84285 0.31264 0.50324 0.0
H419 H 0.89941 0.33417 0.51822 0.0
H420 H 0.89582 0.2549 0.49973 0.0
H421 H 0.83946 0.2331 0.48446 0.0
C422 C 0.64417 0.14192 0.48794 0.0
C423 C 0.64647 0.11673 0.48541 0.0
C424 C 0.67457 0.17352 0.4866 0.0
C425 C 0.70771 0.18065 0.48205 0.0
C426 C 0.7103 0.15553 0.48013 0.0
C427 C 0.68009 0.12395 0.48191 0.0
C428 C 0.7392 0.21394 0.47864 0.0
C429 C 0.7728 0.22715 0.48608 0.0
C430 C 0.73628 0.23271 0.46812 0.0
C431 C 0.70184 0.22026 0.45969 0.0
C432 C 0.68395 0.1923 0.4495 0.0
C433 C 0.65005 0.17927 0.4427 0.0
C434 C 0.63399 0.19423 0.44583 0.0
C435 C 0.65198 0.22244 0.45561 0.0
C436 C 0.68584 0.23552 0.46248 0.0
C437 C 0.89405 0.34494 0.45893 0.0
C438 C 0.89215 0.3705 0.45915 0.0
C439 C 0.86448 0.31471 0.46326 0.0
C440 C 0.83244 0.30934 0.46826 0.0
C441 C 0.83066 0.33497 0.46862 0.0
C442 C 0.86006 0.36511 0.46408 0.0
C443 C 0.8005 0.2769 0.47262 0.0
C444 C 0.76677 0.2638 0.46532 0.0
C445 C 0.80324 0.25839 0.48341 0.0
C446 C 0.8371 0.27139 0.49259 0.0
C447 C 0.85426 0.29992 0.50228 0.0
C448 C 0.88626 0.31215 0.51083 0.0
C449 C 0.90124 0.29596 0.50989 0.0
C450 C 0.8842 0.26744 0.50043 0.0
C451 C 0.85221 0.25512 0.49183 0.0
H452 H 0.92602 0.30547 0.51653 0.0
H453 H 0.60757 0.18394 0.44072 0.0
H454 H 0.58624 0.69417 0.79683 0.0
H455 H 0.57609 0.73254 0.78967 0.0
H456 H 0.58761 0.76363 0.84012 0.0
H457 H 0.59724 0.72497 0.8474 0.0
H458 H 0.53152 0.75747 0.8248 0.0
H459 H 0.65621 0.80736 0.81551 0.0
H460 H 0.70764 0.81144 0.80406 0.0
H461 H 0.66782 0.80272 0.75582 0.0
H462 H 0.61584 0.79813 0.76699 0.0
H463 H 0.55885 0.90363 0.81245 0.0
H464 H 0.56521 0.86338 0.82067 0.0
H465 H 0.55976 0.83356 0.77044 0.0
H466 H 0.55438 0.87414 0.76215 0.0
H467 H 0.61289 0.83921 0.78619 0.0
H468 H 0.48825 0.78919 0.79519 0.0
H469 H 0.43615 0.78427 0.8064 0.0
H470 H 0.47497 0.79255 0.85481 0.0
H471 H 0.52761 0.79798 0.84388 0.0
C472 C 0.58617 0.70889 0.80643 0.0
C473 C 0.59274 0.70659 0.82269 0.0
C474 C 0.58064 0.73099 0.8023 0.0
C475 C 0.5815 0.75126 0.81433 0.0
C476 C 0.58696 0.74836 0.83062 0.0
C477 C 0.59272 0.7264 0.83474 0.0
C478 C 0.57756 0.77596 0.80989 0.0
C479 C 0.54958 0.77561 0.81652 0.0
C480 C 0.60068 0.79926 0.79884 0.0
C481 C 0.63194 0.80207 0.79209 0.0
C482 C 0.65825 0.80605 0.80246 0.0
C483 C 0.68753 0.8085 0.79602 0.0
C484 C 0.69094 0.80725 0.77923 0.0
C485 C 0.66512 0.80363 0.76883 0.0
C486 C 0.63575 0.80113 0.77521 0.0
C487 C 0.55914 0.88858 0.80315 0.0
C488 C 0.55588 0.89206 0.78663 0.0
C489 C 0.56246 0.86537 0.80788 0.0
C490 C 0.5626 0.84515 0.79619 0.0
C491 C 0.5596 0.84875 0.7797 0.0
C492 C 0.55619 0.87183 0.77498 0.0
C493 C 0.56667 0.82069 0.80101 0.0
C494 C 0.59477 0.82111 0.79447 0.0
C495 C 0.5436 0.79743 0.81211 0.0
C496 C 0.51209 0.79436 0.81872 0.0
C497 C 0.48587 0.79027 0.80823 0.0
C498 C 0.4562 0.78732 0.81453 0.0
C499 C 0.45231 0.78819 0.8313 0.0
C500 C 0.47805 0.79194 0.84181 0.0
C501 C 0.5078 0.79494 0.83558 0.0
H502 H 0.4293 0.78588 0.83616 0.0
H503 H 0.71364 0.80917 0.77426 0.0
H504 H 0.87584 0.50785 0.23073 0.0
H505 H 0.81194 0.48373 0.23358 0.0
H506 H 0.78599 0.41903 0.19227 0.0
H507 H 0.84865 0.44237 0.18955 0.0
H508 H 0.78105 0.49174 0.21128 0.0
H509 H 0.70474 0.35879 0.18737 0.0
H510 H 0.70568 0.31399 0.19288 0.0
H511 H 0.74852 0.35462 0.24097 0.0
H512 H 0.74743 0.39951 0.23586 0.0
H513 H 0.66784 0.4353 0.14356 0.0
H514 H 0.70849 0.43971 0.16403 0.0
H515 H 0.62929 0.4112 0.20055 0.0
H516 H 0.58857 0.40723 0.18013 0.0
H517 H 0.67355 0.38142 0.19659 0.0
H518 H 0.68021 0.47485 0.20902 0.0
H519 H 0.68292 0.52095 0.20192 0.0
H520 H 0.78149 0.55936 0.17725 0.0
H521 H 0.77902 0.5132 0.18396 0.0
C522 C 0.85622 0.48771 0.22266 0.0
C523 C 0.86734 0.4773 0.2098 0.0
C524 C 0.81976 0.47385 0.22434 0.0
C525 C 0.79402 0.44949 0.21317 0.0
C526 C 0.80494 0.43718 0.20133 0.0
C527 C 0.84114 0.45079 0.19972 0.0
C528 C 0.75809 0.44196 0.21119 0.0
C529 C 0.75722 0.46751 0.20863 0.0
C530 C 0.72675 0.41036 0.20784 0.0
C531 C 0.72585 0.38255 0.21124 0.0
C532 C 0.71387 0.35799 0.19921 0.0
C533 C 0.71461 0.33263 0.20223 0.0
C534 C 0.72711 0.33144 0.21726 0.0
C535 C 0.73883 0.35557 0.22933 0.0
C536 C 0.7382 0.38101 0.22637 0.0
C537 C 0.65895 0.42958 0.1559 0.0
C538 C 0.62525 0.42104 0.16033 0.0
C539 C 0.68211 0.43214 0.16755 0.0
C540 C 0.67171 0.4258 0.18371 0.0
C541 C 0.63759 0.41613 0.1881 0.0
C542 C 0.61458 0.41405 0.17648 0.0
C543 C 0.6979 0.43124 0.19594 0.0
C544 C 0.69686 0.4054 0.20019 0.0
C545 C 0.72754 0.46253 0.20092 0.0
C546 C 0.7293 0.49047 0.19693 0.0
C547 C 0.70229 0.49299 0.20196 0.0
C548 C 0.70382 0.51916 0.19803 0.0
C549 C 0.73234 0.54305 0.18913 0.0
C550 C 0.75942 0.54084 0.18415 0.0
C551 C 0.75799 0.5147 0.18803 0.0
H552 H 0.73348 0.5633 0.1861 0.0
H553 H 0.72779 0.31185 0.21955 0.0
H554 H 0.41595 0.93319 0.47164 0.0
H555 H 0.36188 0.87784 0.46874 0.0
H556 H 0.42529 0.8457 0.47806 0.0
H557 H 0.47957 0.90108 0.48117 0.0
H558 H 0.3773 0.81272 0.45131 0.0
H559 H 0.37424 0.8418 0.50688 0.0
H560 H 0.37552 0.87491 0.52944 0.0
H561 H 0.28075 0.85856 0.50949 0.0
H562 H 0.27923 0.82573 0.48665 0.0
H563 H 0.23208 0.65046 0.45926 0.0
H564 H 0.2862 0.70495 0.46501 0.0
H565 H 0.22344 0.73949 0.46191 0.0
H566 H 0.16909 0.68493 0.45624 0.0
H567 H 0.27188 0.77133 0.486 0.0
H568 H 0.27534 0.74427 0.43016 0.0
H569 H 0.27379 0.71206 0.407 0.0
H570 H 0.3673 0.7257 0.42658 0.0
H571 H 0.3691 0.75763 0.44999 0.0
C572 C 0.41849 0.9144 0.47309 0.0
C573 C 0.45224 0.92171 0.47664 0.0
C574 C 0.38745 0.88271 0.47149 0.0
C575 C 0.38939 0.85751 0.47327 0.0
C576 C 0.42307 0.86468 0.47665 0.0
C577 C 0.45409 0.89641 0.47846 0.0
C578 C 0.35631 0.82375 0.47143 0.0
C579 C 0.35447 0.80353 0.45906 0.0
C580 C 0.32607 0.8119 0.48123 0.0
C581 C 0.32685 0.83157 0.49496 0.0
C582 C 0.35386 0.84549 0.50722 0.0
C583 C 0.35459 0.86417 0.52007 0.0
C584 C 0.32829 0.8689 0.52087 0.0
C585 C 0.30114 0.85491 0.50884 0.0
C586 C 0.30032 0.83625 0.49594 0.0
C587 C 0.22972 0.66962 0.45981 0.0
C588 C 0.19612 0.6632 0.45714 0.0
C589 C 0.26078 0.70086 0.46309 0.0
C590 C 0.25922 0.7266 0.4636 0.0
C591 C 0.22551 0.72016 0.46155 0.0
C592 C 0.19435 0.68886 0.45836 0.0
C593 C 0.29278 0.76018 0.46585 0.0
C594 C 0.29472 0.78043 0.47827 0.0
C595 C 0.32306 0.77216 0.456 0.0
C596 C 0.32213 0.75306 0.44191 0.0
C597 C 0.29541 0.74019 0.42959 0.0
C598 C 0.29451 0.72202 0.41641 0.0
C599 C 0.32037 0.71676 0.41534 0.0
C600 C 0.34725 0.72974 0.42743 0.0
C601 C 0.34824 0.7479 0.44066 0.0
H602 H 0.31963 0.70269 0.40512 0.0
H603 H 0.32889 0.88336 0.53084 0.0
H604 H 0.58574 0.35934 0.84943 0.0
H605 H 0.59056 0.31677 0.84148 0.0
H606 H 0.48673 0.26358 0.81702 0.0
H607 H 0.48166 0.30593 0.82498 0.0
H608 H 0.49526 0.22611 0.83604 0.0
H609 H 0.56023 0.30312 0.79529 0.0
H610 H 0.60652 0.35665 0.78585 0.0
H611 H 0.68924 0.35714 0.80842 0.0
H612 H 0.64336 0.30376 0.81819 0.0
H613 H 0.49663 0.11142 0.78863 0.0
H614 H 0.49303 0.15348 0.79906 0.0
H615 H 0.605 0.21133 0.81417 0.0
H616 H 0.60892 0.16967 0.80316 0.0
H617 H 0.59382 0.24731 0.80122 0.0
H618 H 0.53199 0.17139 0.84161 0.0
H619 H 0.48747 0.11888 0.85252 0.0
H620 H 0.40146 0.1171 0.83297 0.0
H621 H 0.44548 0.16944 0.82175 0.0
C622 C 0.56384 0.33848 0.84244 0.0
C623 C 0.53338 0.3361 0.83778 0.0
C624 C 0.56672 0.31426 0.83783 0.0
C625 C 0.5391 0.28705 0.82856 0.0
C626 C 0.50839 0.28435 0.82415 0.0
C627 C 0.50566 0.30869 0.82861 0.0
C628 C 0.54229 0.26153 0.82328 0.0
C629 C 0.51657 0.23061 0.82828 0.0
C630 C 0.57075 0.26762 0.81359 0.0
C631 C 0.59834 0.29959 0.80761 0.0
C632 C 0.58827 0.31474 0.79835 0.0
C633 C 0.61443 0.34504 0.79292 0.0
C634 C 0.65079 0.36032 0.79657 0.0
C635 C 0.66106 0.3453 0.80562 0.0
C636 C 0.635 0.31501 0.8111 0.0
C637 C 0.52036 0.13297 0.79435 0.0
C638 C 0.55301 0.13716 0.79514 0.0
C639 C 0.51828 0.15704 0.80037 0.0
C640 C 0.54859 0.18558 0.8077 0.0
C641 C 0.58119 0.18965 0.80859 0.0
C642 C 0.58342 0.16579 0.80232 0.0
C643 C 0.5466 0.21154 0.81391 0.0
C644 C 0.57255 0.24264 0.80906 0.0
C645 C 0.51863 0.20569 0.82396 0.0
C646 C 0.49206 0.17422 0.83071 0.0
C647 C 0.50359 0.1597 0.83953 0.0
C648 C 0.47844 0.12998 0.84579 0.0
C649 C 0.44166 0.11463 0.8434 0.0
C650 C 0.42996 0.129 0.83479 0.0
C651 C 0.45499 0.15871 0.82849 0.0
H652 H 0.42223 0.09162 0.84826 0.0
H653 H 0.67101 0.38378 0.79236 0.0
H654 H 0.63205 0.88626 0.51074 0.0
H655 H 0.62448 0.83773 0.51629 0.0
H656 H 0.50936 0.78388 0.5113 0.0
H657 H 0.51673 0.83249 0.50554 0.0
H658 H 0.52806 0.76745 0.53748 0.0
H659 H 0.55638 0.77915 0.48131 0.0
H660 H 0.59112 0.8071 0.45733 0.0
H661 H 0.6838 0.82042 0.47777 0.0
H662 H 0.64977 0.79294 0.50199 0.0
H663 H 0.49716 0.61834 0.53852 0.0
H664 H 0.49854 0.66263 0.52993 0.0
H665 H 0.61455 0.72317 0.5314 0.0
H666 H 0.61329 0.67885 0.53976 0.0
H667 H 0.59145 0.73394 0.5056 0.0
H668 H 0.56444 0.72539 0.56245 0.0
H669 H 0.53005 0.69782 0.58658 0.0
H670 H 0.43521 0.67892 0.56495 0.0
H671 H 0.46895 0.70602 0.54059 0.0
C672 C 0.60509 0.86407 0.51061 0.0
C673 C 0.57501 0.86332 0.50752 0.0
C674 C 0.6008 0.8363 0.51383 0.0
C675 C 0.56637 0.80701 0.51398 0.0
C676 C 0.53621 0.80618 0.51121 0.0
C677 C 0.54047 0.83403 0.50797 0.0
C678 C 0.56208 0.77745 0.51722 0.0
C679 C 0.54143 0.75981 0.53034 0.0
C680 C 0.58006 0.76777 0.50811 0.0
C681 C 0.60059 0.78421 0.49353 0.0
C682 C 0.58425 0.78825 0.48075 0.0
C683 C 0.6038 0.80398 0.4671 0.0
C684 C 0.63967 0.81559 0.46604 0.0
C685 C 0.65603 0.81144 0.47862 0.0
C686 C 0.63661 0.79576 0.4923 0.0
C687 C 0.52297 0.6411 0.53701 0.0
C688 C 0.55513 0.64509 0.5399 0.0
C689 C 0.52373 0.66644 0.53212 0.0
C690 C 0.55667 0.69649 0.53027 0.0
C691 C 0.58879 0.70028 0.53274 0.0
C692 C 0.58804 0.67487 0.53749 0.0
C693 C 0.55784 0.72416 0.52602 0.0
C694 C 0.57789 0.74144 0.51269 0.0
C695 C 0.53936 0.73355 0.53496 0.0
C696 C 0.51912 0.71744 0.54964 0.0
C697 C 0.53619 0.71516 0.5628 0.0
C698 C 0.51682 0.69964 0.57652 0.0
C699 C 0.48044 0.68655 0.57728 0.0
C700 C 0.46337 0.68902 0.56433 0.0
C701 C 0.48261 0.70448 0.55057 0.0
H702 H 0.46549 0.67454 0.58791 0.0
H703 H 0.65476 0.82776 0.45547 0.0
H704 H 0.6451 0.48924 0.86071 0.0
H705 H 0.69782 0.48985 0.86264 0.0
H706 H 0.76017 0.57659 0.83752 0.0
H707 H 0.70745 0.57628 0.83574 0.0
H708 H 0.77776 0.53851 0.82635 0.0
H709 H 0.77066 0.57489 0.87897 0.0
H710 H 0.74357 0.57419 0.90484 0.0
H711 H 0.72697 0.48782 0.91587 0.0
H712 H 0.75313 0.48756 0.88987 0.0
H713 H 0.94965 0.57235 0.8433 0.0
H714 H 0.89839 0.57358 0.84103 0.0
H715 H 0.83621 0.49254 0.8703 0.0
H716 H 0.88767 0.49187 0.87313 0.0
H717 H 0.81898 0.52887 0.87916 0.0
H718 H 0.82455 0.49178 0.8259 0.0
H719 H 0.85236 0.49322 0.8001 0.0
H720 H 0.87267 0.58168 0.7904 0.0
H721 H 0.84536 0.58096 0.81625 0.0
C722 C 0.66991 0.50856 0.85555 0.0
C723 C 0.67124 0.53273 0.84806 0.0
C724 C 0.70052 0.50898 0.85674 0.0
C725 C 0.73404 0.53341 0.85037 0.0
C726 C 0.73524 0.55729 0.84262 0.0
C727 C 0.70473 0.55714 0.84165 0.0
C728 C 0.76743 0.5341 0.85187 0.0
C729 C 0.78685 0.5368 0.83799 0.0
C730 C 0.77994 0.53132 0.86687 0.0
C731 C 0.76351 0.53101 0.88237 0.0
C732 C 0.76081 0.55552 0.88681 0.0
C733 C 0.74565 0.55532 0.90151 0.0
C734 C 0.73346 0.53095 0.91198 0.0
C735 C 0.7363 0.50665 0.90774 0.0
C736 C 0.75126 0.50663 0.89301 0.0
C737 C 0.9253 0.55474 0.84939 0.0
C738 C 0.92385 0.53183 0.85835 0.0
C739 C 0.89532 0.55524 0.84789 0.0
C740 C 0.8621 0.53281 0.85521 0.0
C741 C 0.86077 0.51023 0.86433 0.0
C742 C 0.89066 0.50967 0.86581 0.0
C743 C 0.82923 0.53298 0.85361 0.0
C744 C 0.80989 0.53048 0.8675 0.0
C745 C 0.8168 0.53594 0.83861 0.0
C746 C 0.83328 0.53649 0.82309 0.0
C747 C 0.8352 0.51166 0.81832 0.0
C748 C 0.85082 0.51232 0.80368 0.0
C749 C 0.86437 0.53757 0.79364 0.0
C750 C 0.86223 0.56217 0.7982 0.0
C751 C 0.84666 0.56163 0.81284 0.0
H752 H 0.87645 0.53804 0.78231 0.0
H753 H 0.72198 0.53101 0.9234 0.0
H754 H 0.17891 0.61133 0.13678 0.0
H755 H 0.23589 0.66513 0.13884 0.0
H756 H 0.1999 0.68694 0.18192 0.0
H757 H 0.14229 0.63397 0.1793 0.0
H758 H 0.23145 0.73506 0.16563 0.0
H759 H 0.26412 0.66897 0.18099 0.0
H760 H 0.26821 0.62468 0.17733 0.0
H761 H 0.33102 0.66565 0.135 0.0
H762 H 0.32686 0.70995 0.13825 0.0
H763 H 0.40034 0.86155 0.20285 0.0
H764 H 0.3453 0.80805 0.19586 0.0
H765 H 0.37614 0.81712 0.14591 0.0
H766 H 0.43124 0.87133 0.15282 0.0
H767 H 0.34947 0.75486 0.163 0.0
H768 H 0.31747 0.82305 0.14981 0.0
H769 H 0.3135 0.86702 0.15555 0.0
H770 H 0.24965 0.82081 0.19699 0.0
H771 H 0.25373 0.77679 0.19164 0.0
C772 C 0.18321 0.62765 0.14668 0.0
C773 C 0.15605 0.61836 0.15787 0.0
C774 C 0.21597 0.65842 0.14793 0.0
C775 C 0.22279 0.68026 0.16072 0.0
C776 C 0.19556 0.67082 0.1719 0.0
C777 C 0.16255 0.6404 0.17042 0.0
C778 C 0.25785 0.71306 0.16244 0.0
C779 C 0.25713 0.73913 0.16518 0.0
C780 C 0.29175 0.71892 0.16156 0.0
C781 C 0.29487 0.69262 0.15977 0.0
C782 C 0.27865 0.66845 0.17085 0.0
C783 C 0.28097 0.64334 0.16885 0.0
C784 C 0.29977 0.64231 0.15592 0.0
C785 C 0.31641 0.66646 0.145 0.0
C786 C 0.3141 0.69158 0.14692 0.0
C787 C 0.39547 0.85215 0.19038 0.0
C788 C 0.42014 0.87061 0.17838 0.0
C789 C 0.36402 0.82158 0.1864 0.0
C790 C 0.3567 0.80853 0.17039 0.0
C791 C 0.38139 0.8267 0.15836 0.0
C792 C 0.41267 0.85768 0.16229 0.0
C793 C 0.32261 0.77626 0.16637 0.0
C794 C 0.32361 0.75047 0.16327 0.0
C795 C 0.28892 0.77047 0.16724 0.0
C796 C 0.28621 0.79679 0.17041 0.0
C797 C 0.30287 0.82242 0.16023 0.0
C798 C 0.30054 0.84732 0.1634 0.0
C799 C 0.28141 0.84675 0.17665 0.0
C800 C 0.26449 0.82124 0.18674 0.0
C801 C 0.26678 0.7963 0.18364 0.0
H802 H 0.27963 0.86605 0.17908 0.0
H803 H 0.30153 0.62286 0.15438 0.0
H804 H 0.47608 0.16265 0.48187 0.0
H805 H 0.48596 0.21254 0.48967 0.0
H806 H 0.59948 0.25937 0.49642 0.0
H807 H 0.58988 0.20944 0.48841 0.0
H808 H 0.57371 0.27369 0.52163 0.0
H809 H 0.56835 0.27404 0.46403 0.0
H810 H 0.5433 0.2524 0.43629 0.0
H811 H 0.4483 0.24342 0.44874 0.0
H812 H 0.47256 0.26459 0.47665 0.0
H813 H 0.61826 0.42808 0.53274 0.0
H814 H 0.61485 0.38283 0.52117 0.0
H815 H 0.49995 0.3284 0.51462 0.0
H816 H 0.50299 0.37335 0.52643 0.0
H817 H 0.53028 0.32022 0.4883 0.0
H818 H 0.53463 0.31685 0.54636 0.0
H819 H 0.55993 0.33845 0.57408 0.0
H820 H 0.65771 0.35333 0.56044 0.0
H821 H 0.63316 0.33223 0.53255 0.0
C822 C 0.50328 0.18364 0.48473 0.0
C823 C 0.53219 0.18197 0.48444 0.0
C824 C 0.50888 0.2122 0.48924 0.0
C825 C 0.54352 0.23985 0.49349 0.0
C826 C 0.5725 0.23835 0.4932 0.0
C827 C 0.56694 0.20975 0.48867 0.0
C828 C 0.5491 0.26993 0.4988 0.0
C829 C 0.56481 0.28418 0.5142 0.0
C830 C 0.53683 0.28331 0.48927 0.0
C831 C 0.52216 0.27065 0.47248 0.0
C832 C 0.54199 0.26722 0.4609 0.0
C833 C 0.52795 0.25507 0.44513 0.0
C834 C 0.49419 0.24647 0.44077 0.0
C835 C 0.47444 0.25007 0.45215 0.0
C836 C 0.48834 0.26217 0.46794 0.0
C837 C 0.59221 0.40647 0.5289 0.0
C838 C 0.56086 0.40437 0.53067 0.0
C839 C 0.59034 0.38063 0.52223 0.0
C840 C 0.55709 0.35205 0.5172 0.0
C841 C 0.52592 0.35021 0.51841 0.0
C842 C 0.52774 0.37602 0.52511 0.0
C843 C 0.55462 0.32377 0.51116 0.0
C844 C 0.53945 0.30984 0.49564 0.0
C845 C 0.56745 0.3107 0.52056 0.0
C846 C 0.58221 0.32329 0.53733 0.0
C847 C 0.56164 0.32497 0.54924 0.0
C848 C 0.57583 0.33708 0.56499 0.0
C849 C 0.61045 0.34735 0.56901 0.0
C850 C 0.63092 0.34543 0.5573 0.0
C851 C 0.61688 0.33338 0.54152 0.0
H852 H 0.62138 0.35671 0.58121 0.0
H853 H 0.48337 0.23708 0.42855 0.0
H854 H 0.45377 0.49764 0.87061 0.0
H855 H 0.40278 0.49925 0.87292 0.0
H856 H 0.43895 0.55736 0.83166 0.0
H857 H 0.49172 0.55791 0.83034 0.0
H858 H 0.41105 0.57639 0.84689 0.0
H859 H 0.35631 0.46668 0.83473 0.0
H860 H 0.34256 0.41418 0.83758 0.0
H861 H 0.30321 0.41022 0.8853 0.0
H862 H 0.3171 0.46288 0.8828 0.0
H863 H 0.23259 0.53855 0.83468 0.0
H864 H 0.28454 0.5376 0.83187 0.0
H865 H 0.28257 0.52371 0.88286 0.0
H866 H 0.23173 0.52579 0.88582 0.0
H867 H 0.29114 0.48156 0.86177 0.0
H868 H 0.34525 0.59336 0.87104 0.0
H869 H 0.356 0.64358 0.86498 0.0
H870 H 0.39251 0.63948 0.81771 0.0
H871 H 0.38144 0.58894 0.8234 0.0
C872 C 0.45095 0.51074 0.86196 0.0
C873 C 0.47742 0.5274 0.85019 0.0
C874 C 0.42101 0.51136 0.86314 0.0
C875 C 0.41493 0.52755 0.85216 0.0
C876 C 0.44171 0.5444 0.84043 0.0
C877 C 0.47228 0.54459 0.83958 0.0
C878 C 0.38163 0.52747 0.85303 0.0
C879 C 0.38492 0.55522 0.84989 0.0
C880 C 0.34645 0.50045 0.85707 0.0
C881 C 0.3381 0.46886 0.85864 0.0
C882 C 0.34493 0.45469 0.84587 0.0
C883 C 0.33708 0.4249 0.84742 0.0
C884 C 0.32212 0.40892 0.86163 0.0
C885 C 0.31486 0.42266 0.87431 0.0
C886 C 0.32269 0.45246 0.87283 0.0
C887 C 0.24303 0.53518 0.84533 0.0
C888 C 0.22731 0.53231 0.86052 0.0
C889 C 0.27314 0.53476 0.84371 0.0
C890 C 0.28832 0.5306 0.85713 0.0
C891 C 0.27204 0.52696 0.8722 0.0
C892 C 0.24268 0.52826 0.8739 0.0
C893 C 0.32095 0.53023 0.85561 0.0
C894 C 0.31743 0.50248 0.85867 0.0
C895 C 0.35552 0.55684 0.851 0.0
C896 C 0.36211 0.58717 0.84758 0.0
C897 C 0.35522 0.60298 0.85929 0.0
C898 C 0.36145 0.63155 0.85594 0.0
C899 C 0.37483 0.64467 0.84095 0.0
C900 C 0.38208 0.62927 0.8293 0.0
C901 C 0.37585 0.60067 0.83259 0.0
H902 H 0.37967 0.6668 0.83839 0.0
H903 H 0.31607 0.38586 0.8628 0.0
H904 H 0.92431 0.44195 0.15944 0.0
H905 H 0.86934 0.3883 0.16283 0.0
H906 H 0.92821 0.3503 0.1544 0.0
H907 H 0.98263 0.40382 0.14985 0.0
H908 H 0.86822 0.31107 0.14116 0.0
H909 H 0.90087 0.36523 0.19425 0.0
H910 H 0.9143 0.40605 0.21538 0.0
H911 H 0.80947 0.38182 0.20766 0.0
H912 H 0.79572 0.34145 0.18622 0.0
H913 H 0.74135 0.16252 0.17734 0.0
H914 H 0.79403 0.2154 0.17061 0.0
H915 H 0.72947 0.24845 0.17073 0.0
H916 H 0.67661 0.19562 0.17721 0.0
H917 H 0.79091 0.2895 0.18804 0.0
H918 H 0.75869 0.23551 0.13522 0.0
H919 H 0.74412 0.19291 0.11507 0.0
H920 H 0.84794 0.21554 0.12368 0.0
H921 H 0.86294 0.25802 0.14405 0.0
C922 C 0.92543 0.42208 0.1582 0.0
C923 C 0.95786 0.42714 0.15439 0.0
C924 C 0.89398 0.39133 0.16032 0.0
C925 C 0.89441 0.36491 0.15937 0.0
C926 C 0.92681 0.37001 0.15528 0.0
C927 C 0.95803 0.40069 0.15267 0.0
C928 C 0.8613 0.33204 0.16247 0.0
C929 C 0.85177 0.30648 0.15159 0.0
C930 C 0.83877 0.32563 0.17581 0.0
C931 C 0.84743 0.3505 0.18848 0.0
C932 C 0.88083 0.36884 0.19693 0.0
C933 C 0.88847 0.39188 0.20898 0.0
C934 C 0.86275 0.39651 0.21286 0.0
C935 C 0.82939 0.37823 0.20464 0.0
C936 C 0.82169 0.35532 0.19251 0.0
C937 C 0.73811 0.18081 0.17563 0.0
C938 C 0.70453 0.17461 0.1779 0.0
C939 C 0.76839 0.21117 0.17182 0.0
C940 C 0.76586 0.23607 0.1701 0.0
C941 C 0.73228 0.2298 0.17208 0.0
C942 C 0.70202 0.19948 0.17584 0.0
C943 C 0.79834 0.26891 0.16684 0.0
C944 C 0.8076 0.29433 0.17767 0.0
C945 C 0.82072 0.27518 0.15356 0.0
C946 C 0.8118 0.24974 0.14127 0.0
C947 C 0.7783 0.23124 0.13291 0.0
C948 C 0.76999 0.20714 0.12143 0.0
C949 C 0.79505 0.20147 0.11813 0.0
C950 C 0.82853 0.21994 0.12626 0.0
C951 C 0.83697 0.24404 0.13776 0.0
H952 H 0.78856 0.1828 0.10924 0.0
H953 H 0.8687 0.41433 0.2222 0.0
H954 H 0.06132 0.5833 0.10733 0.0
H955 H 0.06441 0.58116 0.07769 0.0
H956 H 0.04264 0.4895 0.07843 0.0
H957 H 0.03908 0.49139 0.10805 0.0
H958 H 0.1068 0.57808 0.05718 0.0
H959 H 0.99212 0.44407 0.0446 0.0
H960 H 0.93616 0.40062 0.05703 0.0
H961 H 0.92491 0.46849 0.08036 0.0
H962 H 0.98051 0.51227 0.0679 0.0
H963 H 0.10974 0.53203 0.97501 0.0
H964 H 0.10719 0.53368 0.0046 0.0
H965 H 1.00942 0.52471 0.00136 0.0
H966 H 1.01194 0.52338 0.97175 0.0
H967 H 1.0042 0.48721 0.0238 0.0
H968 H 0.08959 0.59651 0.01109 0.0
H969 H 0.14373 0.64193 -0.0014 0.0
H970 H 0.21004 0.62735 0.02575 0.0
H971 H 0.15621 0.58155 0.03823 0.0
C972 C 0.05724 0.56271 0.10116 0.0
C973 C 0.04966 0.53739 0.10999 0.0
C974 C 0.05914 0.56157 0.08422 0.0
C975 C 0.05334 0.53501 0.07576 0.0
C976 C 0.04662 0.51002 0.08463 0.0
C977 C 0.0447 0.51114 0.10157 0.0
C978 C 0.05384 0.53337 0.05768 0.0
C979 C 0.08441 0.55815 0.04991 0.0
C980 C 1.02445 0.50761 0.04809 0.0
C981 C 0.99067 0.48144 0.05545 0.0
C982 C 0.97762 0.44969 0.05233 0.0
C983 C 0.94598 0.42502 0.05939 0.0
C984 C 0.92706 0.4318 0.06952 0.0
C985 C 0.93966 0.46327 0.07256 0.0
C986 C 0.97126 0.48803 0.06552 0.0
C987 C 0.08782 0.53066 0.98056 0.0
C988 C 0.06116 0.52775 0.97092 0.0
C989 C 0.08635 0.53152 0.99752 0.0
C990 C 0.05831 0.52965 0.00526 0.0
C991 C 1.03128 0.52612 0.99569 0.0
C992 C 1.03273 0.52527 0.97873 0.0
C993 C 0.05734 0.53174 0.02332 0.0
C994 C 1.02669 0.50704 0.03109 0.0
C995 C 0.08644 0.5578 0.03289 0.0
C996 C 0.11885 0.58542 0.02547 0.0
C997 C 0.11569 0.60285 0.0143 0.0
C998 C 0.14632 0.62868 0.00724 0.0
C999 C 0.18029 0.63747 0.01135 0.0
C1000 C 0.1837 0.62049 0.02256 0.0
C1001 C 0.15315 0.59461 0.02964 0.0
H1002 H 0.20397 0.65748 0.00587 0.0
H1003 H 0.90259 0.41267 0.07499 0.0
H1004 H 0.62042 0.06001 0.43389 0.0
H1005 H 0.61431 0.06467 0.40493 0.0
H1006 H 0.49916 0.99539 0.40718 0.0
H1007 H 0.50503 0.99128 0.43628 0.0
H1008 H 0.53479 0.98266 0.38236 0.0
H1009 H 0.52591 0.06425 0.40215 0.0
H1010 H 0.54342 0.11334 0.41727 0.0
H1011 H 0.64183 0.16791 0.39142 0.0
H1012 H 0.62524 0.11908 0.37633 0.0
H1013 H 0.50091 0.98972 0.30017 0.0
H1014 H 0.49849 0.98969 0.32979 0.0
H1015 H 0.60731 0.0766 0.33342 0.0
H1016 H 0.60904 0.07737 0.30376 0.0
H1017 H 0.57084 0.07969 0.35583 0.0
H1018 H 0.58416 0.99954 0.33792 0.0
H1019 H 0.56843 0.95155 0.3222 0.0
H1020 H 0.46573 0.89527 0.34462 0.0
H1021 H 0.48067 0.94303 0.36032 0.0
C1022 C 0.59379 0.04607 0.42823 0.0
C1023 C 0.56321 0.02516 0.43724 0.0
C1024 C 0.59034 0.04884 0.41174 0.0
C1025 C 0.55629 0.0304 0.40396 0.0
C1026 C 0.52564 0.00986 0.413 0.0
C1027 C 0.52903 0.00756 0.42959 0.0
C1028 C 0.5531 0.03094 0.38616 0.0
C1029 C 0.54207 0.00368 0.37653 0.0
C1030 C 0.56369 0.05871 0.37863 0.0
C1031 C 0.57443 0.08792 0.38819 0.0
C1032 C 0.55152 0.08663 0.39985 0.0
C1033 C 0.56121 0.11444 0.40836 0.0
C1034 C 0.59363 0.14372 0.40525 0.0
C1035 C 0.61666 0.14522 0.39377 0.0
C1036 C 0.60713 0.11748 0.38524 0.0
C1037 C 0.5242 0.00886 0.30734 0.0
C1038 C 0.55525 0.03343 0.29973 0.0
C1039 C 0.5229 0.00878 0.32426 0.0
C1040 C 0.55302 0.03275 0.33391 0.0
C1041 C 0.58374 0.05777 0.32629 0.0
C1042 C 0.58476 0.05821 0.30935 0.0
C1043 C 0.55286 0.03145 0.3519 0.0
C1044 C 0.56337 0.05857 0.3616 0.0
C1045 C 0.54234 0.00368 0.35953 0.0
C1046 C 0.53339 0.97491 0.35017 0.0
C1047 C 0.55813 0.97696 0.33941 0.0
C1048 C 0.54937 0.9498 0.33052 0.0
C1049 C 0.51606 0.9204 0.33238 0.0
C1050 C 0.49149 0.91807 0.34317 0.0
C1051 C 0.5001 0.94517 0.35208 0.0
H1052 H 0.50933 0.8994 0.32548 0.0
H1053 H 0.60089 0.16528 0.41168 0.0
H1054 H 0.54143 0.46805 0.79384 0.0
H1055 H 0.54835 0.47507 0.76457 0.0
H1056 H 0.59237 0.57372 0.77314 0.0
H1057 H 0.58588 0.56677 0.80248 0.0
H1058 H 0.53349 0.53641 0.7487 0.0
H1059 H 0.64827 0.56214 0.76263 0.0
H1060 H 0.68874 0.55306 0.77519 0.0
H1061 H 0.64026 0.46673 0.74538 0.0
H1062 H 0.59907 0.47503 0.73281 0.0
H1063 H 0.57677 0.57391 0.66648 0.0
H1064 H 0.57931 0.57458 0.6961 0.0
H1065 H 0.56311 0.48501 0.69272 0.0
H1066 H 0.56158 0.48476 0.6631 0.0
H1067 H 0.61133 0.52151 0.71518 0.0
H1068 H 0.49435 0.49159 0.70264 0.0
H1069 H 0.4501 0.49652 0.69046 0.0
H1070 H 0.49764 0.58533 0.7178 0.0
H1071 H 0.54251 0.58114 0.72998 0.0
C1072 C 0.55298 0.49131 0.78946 0.0
C1073 C 0.56372 0.51706 0.80037 0.0
C1074 C 0.55694 0.49529 0.77278 0.0
C1075 C 0.57107 0.52496 0.76672 0.0
C1076 C 0.58165 0.55071 0.77761 0.0
C1077 C 0.57832 0.54684 0.79434 0.0
C1078 C 0.57351 0.52854 0.74897 0.0
C1079 C 0.55097 0.53377 0.74136 0.0
C1080 C 0.59547 0.52402 0.73942 0.0
C1081 C 0.62035 0.51906 0.74689 0.0
C1082 C 0.64601 0.54107 0.75885 0.0
C1083 C 0.66912 0.53609 0.76596 0.0
C1084 C 0.66701 0.5093 0.76112 0.0
C1085 C 0.64184 0.48746 0.74913 0.0
C1086 C 0.61862 0.4923 0.742 0.0
C1087 C 0.57363 0.55432 0.67208 0.0
C1088 C 0.56884 0.52922 0.66248 0.0
C1089 C 0.57501 0.55468 0.68902 0.0
C1090 C 0.57087 0.5296 0.69672 0.0
C1091 C 0.56644 0.50467 0.68711 0.0
C1092 C 0.56555 0.50453 0.67018 0.0
C1093 C 0.57105 0.52921 0.71476 0.0
C1094 C 0.59401 0.52447 0.72246 0.0
C1095 C 0.54897 0.53363 0.72438 0.0
C1096 C 0.52204 0.53622 0.71708 0.0
C1097 C 0.49555 0.5123 0.70595 0.0
C1098 C 0.47032 0.51494 0.69907 0.0
C1099 C 0.47113 0.54127 0.70332 0.0
C1100 C 0.4971 0.56498 0.7145 0.0
C1101 C 0.52242 0.56247 0.7214 0.0
H1102 H 0.45157 0.54326 0.69798 0.0
H1103 H 0.68494 0.50549 0.76663 0.0
H1104 H 0.59408 0.05055 0.52919 0.0
H1105 H 0.60018 0.04824 0.55841 0.0
H1106 H 0.48534 0.9759 0.56053 0.0
H1107 H 0.47913 0.97956 0.53155 0.0
H1108 H 0.50386 0.01497 0.58415 0.0
H1109 H 0.55 0.96095 0.56333 0.0
H1110 H 0.58853 0.95362 0.54648 0.0
H1111 H 0.68264 0.03491 0.57156 0.0
H1112 H 0.64471 0.04308 0.58837 0.0
H1113 H 0.5552 0.97299 0.66234 0.0
H1114 H 0.55126 0.97106 0.63271 0.0
H1115 H 0.56419 0.05911 0.6354 0.0
H1116 H 0.56675 0.06058 0.665 0.0
H1117 H 0.59428 0.00773 0.60949 0.0
H1118 H 0.51155 0.05652 0.60668 0.0
H1119 H 0.46677 0.05628 0.62285 0.0
H1120 H 0.43483 0.97075 0.6443 0.0
H1121 H 0.47901 0.97022 0.62809 0.0
C1122 C 0.57025 0.03403 0.53592 0.0
C1123 C 0.53613 0.01531 0.52819 0.0
C1124 C 0.57373 0.03257 0.55261 0.0
C1125 C 0.54325 0.01166 0.56174 0.0
C1126 C 0.50927 0.99236 0.55384 0.0
C1127 C 0.50573 0.99436 0.53726 0.0
C1128 C 0.54637 0.01081 0.57963 0.0
C1129 C 0.52365 0.01334 0.58963 0.0
C1130 C 0.57162 0.008 0.5869 0.0
C1131 C 0.5945 0.00277 0.57703 0.0
C1132 C 0.57892 0.97737 0.5652 0.0
C1133 C 0.60066 0.97307 0.55565 0.0
C1134 C 0.63801 0.99382 0.55793 0.0
C1135 C 0.6537 0.01887 0.5698 0.0
C1136 C 0.63209 0.02333 0.57935 0.0
C1137 C 0.557 0.99186 0.65663 0.0
C1138 C 0.56094 0.01678 0.66609 0.0
C1139 C 0.55512 0.99089 0.63968 0.0
C1140 C 0.55701 0.01473 0.63182 0.0
C1141 C 0.56218 0.0402 0.6412 0.0
C1142 C 0.56396 0.04115 0.65814 0.0
C1143 C 0.55217 0.0124 0.61387 0.0
C1144 C 0.57454 0.00932 0.60392 0.0
C1145 C 0.5257 0.01351 0.60658 0.0
C1146 C 0.49889 0.01356 0.6163 0.0
C1147 C 0.49489 0.03762 0.61481 0.0
C1148 C 0.46962 0.03761 0.62399 0.0
C1149 C 0.44806 0.01358 0.63464 0.0
C1150 C 0.45164 0.98943 0.6361 0.0
C1151 C 0.47683 0.98929 0.62694 0.0
H1152 H 0.42853 0.01363 0.64173 0.0
H1153 H 0.6548 0.99047 0.55052 0.0
H1154 H 0.64101 0.55963 0.89839 0.0
H1155 H 0.63156 0.53819 0.92525 0.0
H1156 H 0.51674 0.47983 0.91668 0.0
H1157 H 0.526 0.50081 0.88983 0.0
H1158 H 0.54126 0.51621 0.94657 0.0
H1159 H 0.55839 0.44879 0.91361 0.0
H1160 H 0.59109 0.43641 0.89552 0.0
H1161 H 0.6739 0.47368 0.93226 0.0
H1162 H 0.64291 0.48798 0.95023 0.0
H1163 H 0.47889 0.42295 0.0139 0.0
H1164 H 0.49031 0.43876 0.98587 0.0
H1165 H 0.60254 0.48076 0.99326 0.0
H1166 H 0.59079 0.46385 0.02121 0.0
H1167 H 0.5814 0.45367 0.96393 0.0
H1168 H 0.57156 0.5262 0.99546 0.0
H1169 H 0.54371 0.54259 0.01437 0.0
H1170 H 0.45281 0.49965 0.98152 0.0
H1171 H 0.47989 0.48258 0.96251 0.0
C1172 C 0.6138 0.54217 0.90226 0.0
C1173 C 0.58421 0.53194 0.89213 0.0
C1174 C 0.60846 0.52987 0.91753 0.0
C1175 C 0.57346 0.50738 0.92288 0.0
C1176 C 0.54394 0.49716 0.91274 0.0
C1177 C 0.54926 0.50913 0.89743 0.0
C1178 C 0.56735 0.4953 0.9393 0.0
C1179 C 0.54965 0.5022 0.95031 0.0
C1180 C 0.57952 0.47801 0.94429 0.0
C1181 C 0.59852 0.46997 0.93322 0.0
C1182 C 0.58396 0.45501 0.91773 0.0
C1183 C 0.60223 0.44765 0.90746 0.0
C1184 C 0.63472 0.45452 0.91266 0.0
C1185 C 0.64898 0.46873 0.92814 0.0
C1186 C 0.63116 0.47661 0.93834 0.0
C1187 C 0.5059 0.43528 0.00946 0.0
C1188 C 0.53405 0.44244 0.01969 0.0
C1189 C 0.51246 0.44444 0.99349 0.0
C1190 C 0.54747 0.46166 0.98757 0.0
C1191 C 0.57535 0.46764 0.99758 0.0
C1192 C 0.56866 0.45798 0.01351 0.0
C1193 C 0.55509 0.47441 0.97118 0.0
C1194 C 0.57308 0.46772 0.96019 0.0
C1195 C 0.54393 0.49252 0.96625 0.0
C1196 C 0.5276 0.50285 0.97763 0.0
C1197 C 0.54551 0.52005 0.99232 0.0
C1198 C 0.52988 0.52949 0.00305 0.0
C1199 C 0.49647 0.5221 -0.00083 0.0
C1200 C 0.47866 0.50532 0.98453 0.0
C1201 C 0.49415 0.49577 0.97376 0.0
H1202 H 0.48442 0.52943 0.00749 0.0
H1203 H 0.64873 0.44866 0.90473 0.0
H1204 H 1.01597 0.50735 0.19556 0.0
H1205 H 1.00402 0.50269 0.22456 0.0
H1206 H 0.0934 0.50012 0.23245 0.0
H1207 H 0.1034 0.50257 0.20316 0.0
H1208 H 0.04117 0.4595 0.25019 0.0
H1209 H 0.09578 0.57119 0.2407 0.0
H1210 H 0.09668 0.61112 0.22601 0.0
H1211 H 0.99004 0.57176 0.2416 0.0
H1212 H 0.98852 0.53157 0.25634 0.0
H1213 H 0.07837 0.49932 0.33342 0.0
H1214 H 0.07934 0.49809 0.30398 0.0
H1215 H 0.99058 0.5029 0.30248 0.0
H1216 H 0.99129 0.50676 0.3321 0.0
H1217 H 0.03528 0.53899 0.28121 0.0
H1218 H 0.98087 0.43182 0.2928 0.0
H1219 H 0.97387 0.38762 0.30592 0.0
H1220 H 0.07213 0.41303 0.2853 0.0
H1221 H 0.07999 0.45766 0.27222 0.0
C1222 C 0.03317 0.5062 0.20357 0.0
C1223 C 0.061 0.5061 0.1973 0.0
C1224 C 1.02645 0.50354 0.22015 0.0
C1225 C 0.04848 0.50201 0.23088 0.0
C1226 C 0.07614 0.5015 0.2245 0.0
C1227 C 0.08203 0.50311 0.20782 0.0
C1228 C 0.04292 0.50092 0.24872 0.0
C1229 C 0.04039 0.47715 0.257 0.0
C1230 C 0.04012 0.52298 0.25757 0.0
C1231 C 0.04203 0.54839 0.24958 0.0
C1232 C 0.07263 0.57119 0.24105 0.0
C1233 C 0.07321 0.59381 0.23269 0.0
C1234 C 0.04342 0.59395 0.23286 0.0
C1235 C 1.01311 0.57165 0.2415 0.0
C1236 C 1.01242 0.54903 0.24991 0.0
C1237 C 0.05932 0.50061 0.32693 0.0
C1238 C 0.0348 0.50324 0.3353 0.0
C1239 C 0.05952 0.49933 0.30999 0.0
C1240 C 0.03455 0.49973 0.3009 0.0
C1241 C 1.01 0.50235 0.30917 0.0
C1242 C 1.01017 0.50417 0.32616 0.0
C1243 C 0.03479 0.49818 0.28281 0.0
C1244 C 0.03608 0.52131 0.27445 0.0
C1245 C 0.03584 0.47517 0.27385 0.0
C1246 C 1.03115 0.44825 0.28163 0.0
C1247 C 1.00111 0.42811 0.29115 0.0
C1248 C 0.99697 0.40296 0.29857 0.0
C1249 C 1.02258 0.39756 0.29647 0.0
C1250 C 0.05233 0.41725 0.28692 0.0
C1251 C 0.05662 0.44246 0.27948 0.0
H1252 H 1.01933 0.37807 0.30223 0.0
H1253 H 0.04384 0.61135 0.2263 0.0
loop_
_geom_bond_atom_site_label_1
_geom_bond_atom_site_label_2
_geom_bond_distance
_geom_bond_site_symmetry_2
_ccdc_geom_bond_type
Ho0 C3 2.811 . S
Ho0 O20 2.322 . S
Ho0 O22 2.378 . S
Ho0 O23 2.524 . S
Ho0 O24 2.381 . S
Ho0 O25 2.669 . S
Ho0 O27 2.346 1_455 S
Ho0 O31 2.305 . S
Ho1 C12 2.811 1_455 S
Ho1 O21 2.346 . S
Ho1 O25 2.305 . S
Ho1 O26 2.322 1_455 S
Ho1 O28 2.378 1_455 S
Ho1 O29 2.524 1_455 S
Ho1 O30 2.381 . S
Ho1 O31 2.669 . S
C2 O20 1.259 . S
C2 O21 1.268 . S
C3 Ho0 2.811 . S
C3 C4 1.488 . S
C3 O22 1.215 . S
C3 O23 1.289 . S
C4 C3 1.488 . S
C4 C5 1.348 . S
C4 C9 1.413 . S
C5 C4 1.348 . S
C5 C6 1.442 . S
C5 H32 0.930 . S
C6 C5 1.442 . S
C6 C7 1.381 . S
C6 H33 0.931 . S
C7 C6 1.381 . S
C7 C8 1.321 . S
C8 C7 1.321 . S
C8 C9 1.403 . S
C8 H34 0.934 . S
C9 C4 1.413 . S
C9 C8 1.403 . S
C9 H35 0.930 . S
C10 O24 1.275 . S
C10 O25 1.256 . S
C11 O26 1.259 . S
C11 O27 1.268 . S
C12 Ho1 2.811 1_655 S
C12 C13 1.488 . S
C12 O28 1.215 . S
C12 O29 1.289 . S
C13 C12 1.488 . S
C13 C14 1.348 . S
C13 C18 1.413 . S
C14 C13 1.348 . S
C14 C15 1.442 . S
C14 H36 0.930 . S
C15 C14 1.442 . S
C15 C16 1.381 . S
C15 H37 0.931 . S
C16 C15 1.381 . S
C16 C17 1.321 . S
C17 C16 1.321 . S
C17 C18 1.403 . S
C17 H38 0.934 . S
C18 C13 1.413 . S
C18 C17 1.403 . S
C18 H39 0.930 . S
C19 O30 1.275 . S
C19 O31 1.256 . S
O20 Ho0 2.322 . S
O20 C2 1.259 . S
O21 Ho1 2.346 . S
O21 C2 1.268 . S
O22 Ho0 2.378 . S
O22 C3 1.215 . S
O23 Ho0 2.524 . S
O23 C3 1.289 . S
O24 Ho0 2.381 . S
O24 C10 1.275 . S
O25 Ho0 2.669 . S
O25 Ho1 2.305 . S
O25 C10 1.256 . S
O26 Ho1 2.322 1_655 S
O26 C11 1.259 . S
O27 Ho0 2.346 1_655 S
O27 C11 1.268 . S
O28 Ho1 2.378 1_655 S
O28 C12 1.215 . S
O29 Ho1 2.524 1_655 S
O29 C12 1.289 . S
O30 Ho1 2.381 . S
O30 C19 1.275 . S
O31 Ho0 2.305 . S
O31 Ho1 2.669 . S
O31 C19 1.256 . S
H32 C5 0.930 . S
H33 C6 0.931 . S
H34 C8 0.934 . S
H35 C9 0.930 . S
H36 C14 0.930 . S
H37 C15 0.931 . S
H38 C17 0.934 . S
H39 C18 0.930 . S
Ho40 C43 2.811 . S
Ho40 O60 2.322 . S
Ho40 O62 2.378 . S
Ho40 O63 2.524 . S
Ho40 O64 2.381 . S
Ho40 O65 2.669 1_565 S
Ho40 O67 2.346 1_565 S
Ho40 O71 2.305 1_565 S
Ho41 C52 2.811 . S
Ho41 O61 2.346 1_545 S
Ho41 O65 2.305 . S
Ho41 O66 2.322 . S
Ho41 O68 2.378 . S
Ho41 O69 2.524 . S
Ho41 O70 2.381 . S
Ho41 O71 2.669 . S
C42 O60 1.259 . S
C42 O61 1.268 . S
C43 Ho40 2.811 . S
C43 C44 1.488 . S
C43 O62 1.215 . S
C43 O63 1.289 . S
C44 C43 1.488 . S
C44 C45 1.348 . S
C44 C49 1.413 . S
C45 C44 1.348 . S
C45 C46 1.442 . S
C45 H72 0.930 . S
C46 C45 1.442 . S
C46 C47 1.381 . S
C46 H73 0.931 . S
C47 C46 1.381 . S
C47 C48 1.321 . S
C48 C47 1.321 . S
C48 C49 1.403 . S
C48 H74 0.934 . S
C49 C44 1.413 . S
C49 C48 1.403 . S
C49 H75 0.930 . S
C50 O64 1.275 1_545 S
C50 O65 1.256 . S
C51 O66 1.259 . S
C51 O67 1.268 . S
C52 Ho41 2.811 . S
C52 C53 1.488 . S
C52 O68 1.215 . S
C52 O69 1.289 . S
C53 C52 1.488 . S
C53 C54 1.348 . S
C53 C58 1.413 . S
C54 C53 1.348 . S
C54 C55 1.442 . S
C54 H76 0.930 . S
C55 C54 1.442 . S
C55 C56 1.381 . S
C55 H77 0.931 . S
C56 C55 1.381 . S
C56 C57 1.321 . S
C57 C56 1.321 . S
C57 C58 1.403 . S
C57 H78 0.934 . S
C58 C53 1.413 . S
C58 C57 1.403 . S
C58 H79 0.930 . S
C59 O70 1.275 . S
C59 O71 1.256 . S
O60 Ho40 2.322 . S
O60 C42 1.259 . S
O61 Ho41 2.346 1_565 S
O61 C42 1.268 . S
O62 Ho40 2.378 . S
O62 C43 1.215 . S
O63 Ho40 2.524 . S
O63 C43 1.289 . S
O64 Ho40 2.381 . S
O64 C50 1.275 1_565 S
O65 Ho40 2.669 1_545 S
O65 Ho41 2.305 . S
O65 C50 1.256 . S
O66 Ho41 2.322 . S
O66 C51 1.259 . S
O67 Ho40 2.346 1_545 S
O67 C51 1.268 . S
O68 Ho41 2.378 . S
O68 C52 1.215 . S
O69 Ho41 2.524 . S
O69 C52 1.289 . S
O70 Ho41 2.381 . S
O70 C59 1.275 . S
O71 Ho40 2.305 1_545 S
O71 Ho41 2.669 . S
O71 C59 1.256 . S
H72 C45 0.930 . S
H73 C46 0.931 . S
H74 C48 0.934 . S
H75 C49 0.930 . S
H76 C54 0.930 . S
H77 C55 0.931 . S
H78 C57 0.934 . S
H79 C58 0.930 . S
Ho80 C83 2.811 . S
Ho80 O100 2.322 . S
Ho80 O102 2.378 . S
Ho80 O103 2.524 . S
Ho80 O104 2.381 . S
Ho80 O105 2.669 . S
Ho80 O107 2.346 . S
Ho80 O111 2.305 . S
Ho81 C92 2.811 . S
Ho81 O101 2.346 . S
Ho81 O105 2.305 . S
Ho81 O106 2.322 . S
Ho81 O108 2.378 . S
Ho81 O109 2.524 . S
Ho81 O110 2.381 . S
Ho81 O111 2.669 . S
C82 O100 1.259 . S
C82 O101 1.268 . S
C83 Ho80 2.811 . S
C83 C84 1.488 . S
C83 O102 1.215 . S
C83 O103 1.289 . S
C84 C83 1.488 . S
C84 C85 1.348 . S
C84 C89 1.413 . S
C85 C84 1.348 . S
C85 C86 1.442 . S
C85 H112 0.930 . S
C86 C85 1.442 . S
C86 C87 1.381 . S
C86 H113 0.931 . S
C87 C86 1.381 . S
C87 C88 1.321 . S
C88 C87 1.321 . S
C88 C89 1.403 . S
C88 H114 0.934 . S
C89 C84 1.413 . S
C89 C88 1.403 . S
C89 H115 0.930 . S
C90 O104 1.275 . S
C90 O105 1.256 . S
C91 O106 1.259 . S
C91 O107 1.268 . S
C92 Ho81 2.811 . S
C92 C93 1.488 . S
C92 O108 1.215 . S
C92 O109 1.289 . S
C93 C92 1.488 . S
C93 C94 1.348 . S
C93 C98 1.413 . S
C94 C93 1.348 . S
C94 C95 1.442 . S
C94 H116 0.930 . S
C95 C94 1.442 . S
C95 C96 1.381 . S
C95 H117 0.931 . S
C96 C95 1.381 . S
C96 C97 1.321 . S
C97 C96 1.321 . S
C97 C98 1.403 . S
C97 H118 0.934 . S
C98 C93 1.413 . S
C98 C97 1.403 . S
C98 H119 0.930 . S
C99 O110 1.275 . S
C99 O111 1.256 . S
O100 Ho80 2.322 . S
O100 C82 1.259 . S
O101 Ho81 2.346 . S
O101 C82 1.268 . S
O102 Ho80 2.378 . S
O102 C83 1.215 . S
O103 Ho80 2.524 . S
O103 C83 1.289 . S
O104 Ho80 2.381 . S
O104 C90 1.275 . S
O105 Ho80 2.669 . S
O105 Ho81 2.305 . S
O105 C90 1.256 . S
O106 Ho81 2.322 . S
O106 C91 1.259 . S
O107 Ho80 2.346 . S
O107 C91 1.268 . S
O108 Ho81 2.378 . S
O108 C92 1.215 . S
O109 Ho81 2.524 . S
O109 C92 1.289 . S
O110 Ho81 2.381 . S
O110 C99 1.275 . S
O111 Ho80 2.305 . S
O111 Ho81 2.669 . S
O111 C99 1.256 . S
H112 C85 0.930 . S
H113 C86 0.931 . S
H114 C88 0.934 . S
H115 C89 0.930 . S
H116 C94 0.930 . S
H117 C95 0.931 . S
H118 C97 0.934 . S
H119 C98 0.930 . S
C120 C121 1.386 . S
C120 C122 1.397 . S
C120 H144 0.931 . S
C121 C120 1.386 . S
C121 C125 1.397 1_545 S
C122 C120 1.397 . S
C122 C123 1.384 . S
C122 H145 0.930 . S
C123 C122 1.384 . S
C123 C124 1.377 1_545 S
C123 C126 1.481 . S
C124 C123 1.377 1_565 S
C124 C125 1.389 . S
C124 H146 0.929 . S
C125 C121 1.397 1_565 S
C125 C124 1.389 . S
C125 H147 0.931 . S
C126 C123 1.481 . S
C126 C127 1.387 . S
C126 C131 1.390 1_545 S
C127 C126 1.387 . S
C127 C128 1.401 . S
C127 H148 0.930 . S
C128 C127 1.401 . S
C128 C129 1.376 . S
C128 C137 1.511 . S
C129 C128 1.376 . S
C129 C130 1.392 1_545 S
C129 H150 0.931 . S
C130 C129 1.392 1_565 S
C130 C131 1.361 . S
C130 C132 1.500 . S
C131 C126 1.390 1_565 S
C131 C130 1.361 . S
C131 H149 0.931 . S
C132 C130 1.500 . S
C132 C133 1.371 . S
C132 C134 1.365 . S
C133 C132 1.371 . S
C133 C143 1.386 . S
C133 H151 0.931 . S
C134 C132 1.365 . S
C134 C135 1.409 . S
C134 H152 0.929 . S
C135 C134 1.409 . S
C135 C136 1.380 . S
C135 H153 0.930 . S
C136 C135 1.380 . S
C136 C143 1.357 . S
C137 C128 1.511 . S
C137 C138 1.341 . S
C137 C139 1.371 . S
C138 C137 1.341 . S
C138 C142 1.394 . S
C138 H154 0.930 . S
C139 C137 1.371 . S
C139 C140 1.392 . S
C139 H155 0.931 . S
C140 C139 1.392 . S
C140 C141 1.331 . S
C140 H158 0.932 . S
C141 C140 1.331 . S
C141 C142 1.336 . S
C142 C138 1.394 . S
C142 C141 1.336 . S
C142 H157 0.929 . S
C143 C133 1.386 . S
C143 C136 1.357 . S
C143 H156 0.928 . S
H144 C120 0.931 . S
H145 C122 0.930 . S
H146 C124 0.929 . S
H147 C125 0.931 . S
H148 C127 0.930 . S
H149 C131 0.931 . S
H150 C129 0.931 . S
H151 C133 0.931 . S
H152 C134 0.929 . S
H153 C135 0.930 . S
H154 C138 0.930 . S
H155 C139 0.931 . S
H156 C143 0.928 . S
H157 C142 0.929 . S
H158 C140 0.932 . S
C159 C160 1.386 . S
C159 C161 1.397 . S
C159 H183 0.931 . S
C160 C159 1.386 . S
C160 C164 1.397 . S
C161 C159 1.397 . S
C161 C162 1.384 . S
C161 H184 0.930 . S
C162 C161 1.384 . S
C162 C163 1.377 . S
C162 C165 1.481 . S
C163 C162 1.377 . S
C163 C164 1.389 . S
C163 H185 0.929 . S
C164 C160 1.397 . S
C164 C163 1.389 . S
C164 H186 0.931 . S
C165 C162 1.481 . S
C165 C166 1.387 . S
C165 C170 1.390 . S
C166 C165 1.387 . S
C166 C167 1.401 . S
C166 H187 0.930 . S
C167 C166 1.401 . S
C167 C168 1.376 . S
C167 C176 1.511 . S
C168 C167 1.376 . S
C168 C169 1.392 . S
C168 H189 0.931 . S
C169 C168 1.392 . S
C169 C170 1.361 . S
C169 C171 1.500 . S
C170 C165 1.390 . S
C170 C169 1.361 . S
C170 H188 0.931 . S
C171 C169 1.500 . S
C171 C172 1.371 . S
C171 C173 1.365 . S
C172 C171 1.371 . S
C172 C182 1.386 . S
C172 H190 0.931 . S
C173 C171 1.365 . S
C173 C174 1.409 . S
C173 H191 0.929 . S
C174 C173 1.409 . S
C174 C175 1.380 . S
C174 H192 0.930 . S
C175 C174 1.380 . S
C175 C182 1.357 . S
C176 C167 1.511 . S
C176 C177 1.341 . S
C176 C178 1.371 . S
C177 C176 1.341 . S
C177 C181 1.394 . S
C177 H193 0.930 . S
C178 C176 1.371 . S
C178 C179 1.392 . S
C178 H194 0.931 . S
C179 C178 1.392 . S
C179 C180 1.331 . S
C179 H197 0.932 . S
C180 C179 1.331 . S
C180 C181 1.336 . S
C181 C177 1.394 . S
C181 C180 1.336 . S
C181 H196 0.929 . S
C182 C172 1.386 . S
C182 C175 1.357 . S
C182 H195 0.928 . S
H183 C159 0.931 . S
H184 C161 0.930 . S
H185 C163 0.929 . S
H186 C164 0.931 . S
H187 C166 0.930 . S
H188 C170 0.931 . S
H189 C168 0.931 . S
H190 C172 0.931 . S
H191 C173 0.929 . S
H192 C174 0.930 . S
H193 C177 0.930 . S
H194 C178 0.931 . S
H195 C182 0.928 . S
H196 C181 0.929 . S
H197 C179 0.932 . S
C198 C199 1.386 . S
C198 C200 1.397 . S
C198 H222 0.931 . S
C199 C198 1.386 . S
C199 C203 1.397 . S
C200 C198 1.397 . S
C200 C201 1.384 . S
C200 H223 0.930 . S
C201 C200 1.384 . S
C201 C202 1.377 . S
C201 C204 1.481 . S
C202 C201 1.377 . S
C202 C203 1.389 . S
C202 H224 0.929 1_455 S
C203 C199 1.397 . S
C203 C202 1.389 . S
C203 H225 0.931 1_455 S
C204 C201 1.481 . S
C204 C205 1.387 . S
C204 C209 1.390 . S
C205 C204 1.387 . S
C205 C206 1.401 . S
C205 H226 0.930 . S
C206 C205 1.401 . S
C206 C207 1.376 . S
C206 C215 1.511 . S
C207 C206 1.376 . S
C207 C208 1.392 . S
C207 H228 0.931 . S
C208 C207 1.392 . S
C208 C209 1.361 . S
C208 C210 1.500 1_455 S
C209 C204 1.390 . S
C209 C208 1.361 . S
C209 H227 0.931 . S
C210 C208 1.500 1_655 S
C210 C211 1.371 1_655 S
C210 C212 1.365 . S
C211 C210 1.371 1_455 S
C211 C221 1.386 1_455 S
C211 H229 0.931 . S
C212 C210 1.365 . S
C212 C213 1.409 . S
C212 H230 0.929 . S
C213 C212 1.409 . S
C213 C214 1.380 . S
C213 H231 0.930 . S
C214 C213 1.380 . S
C214 C221 1.357 . S
C215 C206 1.511 . S
C215 C216 1.341 . S
C215 C217 1.371 . S
C216 C215 1.341 . S
C216 C220 1.394 . S
C216 H232 0.930 . S
C217 C215 1.371 . S
C217 C218 1.392 . S
C217 H233 0.931 . S
C218 C217 1.392 . S
C218 C219 1.331 . S
C218 H236 0.932 . S
C219 C218 1.331 . S
C219 C220 1.336 . S
C220 C216 1.394 . S
C220 C219 1.336 . S
C220 H235 0.929 . S
C221 C211 1.386 1_655 S
C221 C214 1.357 . S
C221 H234 0.928 . S
H222 C198 0.931 . S
H223 C200 0.930 . S
H224 C202 0.929 1_655 S
H225 C203 0.931 1_655 S
H226 C205 0.930 . S
H227 C209 0.931 . S
H228 C207 0.931 . S
H229 C211 0.931 . S
H230 C212 0.929 . S
H231 C213 0.930 . S
H232 C216 0.930 . S
H233 C217 0.931 . S
H234 C221 0.928 . S
H235 C220 0.929 . S
H236 C218 0.932 . S
C237 C238 1.408 . S
C237 C239 1.397 . S
C237 H261 0.931 . S
C238 C237 1.408 . S
C238 C242 1.376 1_655 S
C239 C237 1.397 . S
C239 C240 1.384 . S
C239 H262 0.930 . S
C240 C239 1.384 . S
C240 C241 1.377 1_655 S
C240 C243 1.481 . S
C241 C240 1.377 1_455 S
C241 C242 1.389 . S
C241 H263 0.929 . S
C242 C238 1.376 1_455 S
C242 C241 1.389 . S
C242 H264 0.931 . S
C243 C240 1.481 . S
C243 C244 1.387 . S
C243 C248 1.390 1_655 S
C244 C243 1.387 . S
C244 C245 1.401 . S
C244 H265 0.930 . S
C245 C244 1.401 . S
C245 C246 1.386 . S
C245 C254 1.511 . S
C246 C245 1.386 . S
C246 C247 1.381 1_655 S
C246 H267 0.931 . S
C247 C246 1.381 1_455 S
C247 C248 1.361 . S
C247 C249 1.500 . S
C248 C243 1.390 1_455 S
C248 C247 1.361 . S
C248 H266 0.931 . S
C249 C247 1.500 . S
C249 C250 1.371 . S
C249 C251 1.365 . S
C250 C249 1.371 . S
C250 C260 1.386 . S
C250 H268 0.931 . S
C251 C249 1.365 . S
C251 C252 1.409 . S
C251 H269 0.929 . S
C252 C251 1.409 . S
C252 C253 1.380 . S
C252 H270 0.930 . S
C253 C252 1.380 . S
C253 C260 1.357 . S
C254 C245 1.511 . S
C254 C255 1.341 . S
C254 C256 1.371 . S
C255 C254 1.341 . S
C255 C259 1.394 . S
C255 H271 0.930 . S
C256 C254 1.371 . S
C256 C257 1.392 . S
C256 H272 0.931 . S
C257 C256 1.392 . S
C257 C258 1.331 . S
C257 H275 0.932 . S
C258 C257 1.331 . S
C258 C259 1.336 . S
C259 C255 1.394 . S
C259 C258 1.336 . S
C259 H274 0.929 . S
C260 C250 1.386 . S
C260 C253 1.357 . S
C260 H273 0.928 . S
H261 C237 0.931 . S
H262 C239 0.930 . S
H263 C241 0.929 . S
H264 C242 0.931 . S
H265 C244 0.930 . S
H266 C248 0.931 . S
H267 C246 0.931 . S
H268 C250 0.931 . S
H269 C251 0.929 . S
H270 C252 0.930 . S
H271 C255 0.930 . S
H272 C256 0.931 . S
H273 C260 0.928 . S
H274 C259 0.929 . S
H275 C257 0.932 . S
C276 C277 1.386 . S
C276 C278 1.397 . S
C276 H300 0.931 . S
C277 C276 1.386 . S
C277 C281 1.397 1_565 S
C278 C276 1.397 . S
C278 C279 1.386 1_565 S
C278 H301 0.930 . S
C279 C278 1.386 1_545 S
C279 C280 1.376 . S
C279 C282 1.481 . S
C280 C279 1.376 . S
C280 C281 1.389 . S
C280 H302 0.929 . S
C281 C277 1.397 1_545 S
C281 C280 1.389 . S
C281 H303 0.931 . S
C282 C279 1.481 . S
C282 C283 1.387 1_545 S
C282 C287 1.390 . S
C283 C282 1.387 1_565 S
C283 C284 1.401 . S
C283 H304 0.930 . S
C284 C283 1.401 . S
C284 C285 1.376 1_565 S
C284 C293 1.511 . S
C285 C284 1.376 1_545 S
C285 C286 1.392 . S
C285 H306 0.931 . S
C286 C285 1.392 . S
C286 C287 1.361 . S
C286 C288 1.500 . S
C287 C282 1.390 . S
C287 C286 1.361 . S
C287 H305 0.931 . S
C288 C286 1.500 . S
C288 C289 1.371 . S
C288 C290 1.365 . S
C289 C288 1.371 . S
C289 C299 1.386 . S
C289 H307 0.931 . S
C290 C288 1.365 . S
C290 C291 1.409 . S
C290 H308 0.929 . S
C291 C290 1.409 . S
C291 C292 1.380 . S
C291 H309 0.930 . S
C292 C291 1.380 . S
C292 C299 1.357 . S
C293 C284 1.511 . S
C293 C294 1.341 . S
C293 C295 1.371 . S
C294 C293 1.341 . S
C294 C298 1.394 . S
C294 H310 0.930 . S
C295 C293 1.371 . S
C295 C296 1.392 . S
C295 H311 0.931 . S
C296 C295 1.392 . S
C296 C297 1.331 . S
C296 H314 0.932 . S
C297 C296 1.331 . S
C297 C298 1.336 . S
C298 C294 1.394 . S
C298 C297 1.336 . S
C298 H313 0.929 . S
C299 C289 1.386 . S
C299 C292 1.357 . S
C299 H312 0.928 . S
H300 C276 0.931 . S
H301 C278 0.930 . S
H302 C280 0.929 . S
H303 C281 0.931 . S
H304 C283 0.930 . S
H305 C287 0.931 . S
H306 C285 0.931 . S
H307 C289 0.931 . S
H308 C290 0.929 . S
H309 C291 0.930 . S
H310 C294 0.930 . S
H311 C295 0.931 . S
H312 C299 0.928 . S
H313 C298 0.929 . S
H314 C296 0.932 . S
C315 C316 1.386 . S
C315 C317 1.397 . S
C315 H339 0.931 . S
C316 C315 1.386 . S
C316 C320 1.397 . S
C317 C315 1.397 . S
C317 C318 1.384 . S
C317 H340 0.930 . S
C318 C317 1.384 . S
C318 C319 1.377 . S
C318 C321 1.481 . S
C319 C318 1.377 . S
C319 C320 1.389 . S
C319 H341 0.929 . S
C320 C316 1.397 . S
C320 C319 1.389 . S
C320 H342 0.931 . S
C321 C318 1.481 . S
C321 C322 1.387 . S
C321 C326 1.390 . S
C322 C321 1.387 . S
C322 C323 1.401 . S
C322 H343 0.930 . S
C323 C322 1.401 . S
C323 C324 1.376 . S
C323 C332 1.511 . S
C324 C323 1.376 . S
C324 C325 1.392 . S
C324 H345 0.931 . S
C325 C324 1.392 . S
C325 C326 1.361 . S
C325 C327 1.500 . S
C326 C321 1.390 . S
C326 C325 1.361 . S
C326 H344 0.931 . S
C327 C325 1.500 . S
C327 C328 1.371 . S
C327 C329 1.365 . S
C328 C327 1.371 . S
C328 C338 1.386 . S
C328 H346 0.931 . S
C329 C327 1.365 . S
C329 C330 1.409 . S
C329 H347 0.929 . S
C330 C329 1.409 . S
C330 C331 1.380 . S
C330 H348 0.930 . S
C331 C330 1.380 . S
C331 C338 1.357 . S
C332 C323 1.511 . S
C332 C333 1.341 . S
C332 C334 1.371 . S
C333 C332 1.341 . S
C333 C337 1.394 . S
C333 H349 0.930 . S
C334 C332 1.371 . S
C334 C335 1.392 . S
C334 H350 0.931 . S
C335 C334 1.392 . S
C335 C336 1.331 . S
C335 H353 0.932 . S
C336 C335 1.331 . S
C336 C337 1.336 . S
C337 C333 1.394 . S
C337 C336 1.336 . S
C337 H352 0.929 . S
C338 C328 1.386 . S
C338 C331 1.357 . S
C338 H351 0.928 . S
H339 C315 0.931 . S
H340 C317 0.930 . S
H341 C319 0.929 . S
H342 C320 0.931 . S
H343 C322 0.930 . S
H344 C326 0.931 . S
H345 C324 0.931 . S
H346 C328 0.931 . S
H347 C329 0.929 . S
H348 C330 0.930 . S
H349 C333 0.930 . S
H350 C334 0.931 . S
H351 C338 0.928 . S
H352 C337 0.929 . S
H353 C335 0.932 . S
H354 C372 0.951 . S
H355 C374 0.951 . S
H356 C376 0.950 . S
H357 C377 0.950 . S
H358 C379 0.950 . S
H359 C382 0.950 . S
H360 C383 0.950 . S
H361 C385 0.950 . S
H362 C386 0.950 . S
H363 C387 0.951 . S
H364 C389 0.951 . S
H365 C391 0.950 . S
H366 C392 0.950 . S
H367 C394 0.950 . S
H368 C397 0.950 . S
H369 C398 0.950 . S
H370 C400 0.950 . S
H371 C401 0.950 . S
C372 H354 0.951 . S
C372 C373 1.366 . S
C372 C374 1.388 . S
C373 C372 1.366 . S
C373 C377 1.385 . S
C374 H355 0.951 . S
C374 C372 1.388 . S
C374 C375 1.366 . S
C375 C374 1.366 . S
C375 C376 1.414 . S
C375 C378 1.499 . S
C376 H356 0.950 . S
C376 C375 1.414 . S
C376 C377 1.374 . S
C377 H357 0.950 . S
C377 C373 1.385 . S
C377 C376 1.374 . S
C378 C375 1.499 . S
C378 C379 1.373 . S
C378 C380 1.389 . S
C379 H358 0.950 . S
C379 C378 1.373 . S
C379 C395 1.377 . S
C380 C378 1.389 . S
C380 C381 1.524 . S
C380 C394 1.377 . S
C381 C380 1.524 . S
C381 C382 1.397 . S
C381 C386 1.363 . S
C382 H359 0.950 . S
C382 C381 1.397 . S
C382 C383 1.334 . S
C383 H360 0.950 . S
C383 C382 1.334 . S
C383 C384 1.287 . S
C384 C383 1.287 . S
C384 C385 1.524 . S
C384 H403 0.913 . S
C385 H361 0.950 . S
C385 C384 1.524 . S
C385 C386 1.415 . S
C386 H362 0.950 . S
C386 C381 1.363 . S
C386 C385 1.415 . S
C387 H363 0.951 . S
C387 C388 1.366 . S
C387 C389 1.388 . S
C388 C387 1.366 . S
C388 C392 1.385 . S
C389 H364 0.951 . S
C389 C387 1.388 . S
C389 C390 1.366 . S
C390 C389 1.366 . S
C390 C391 1.414 . S
C390 C393 1.499 . S
C391 H365 0.950 . S
C391 C390 1.414 . S
C391 C392 1.374 . S
C392 H366 0.950 . S
C392 C388 1.385 . S
C392 C391 1.374 . S
C393 C390 1.499 . S
C393 C394 1.373 . S
C393 C395 1.389 . S
C394 H367 0.950 . S
C394 C380 1.377 . S
C394 C393 1.373 . S
C395 C379 1.377 . S
C395 C393 1.389 . S
C395 C396 1.524 . S
C396 C395 1.524 . S
C396 C397 1.397 . S
C396 C401 1.363 . S
C397 H368 0.950 . S
C397 C396 1.397 . S
C397 C398 1.334 . S
C398 H369 0.950 . S
C398 C397 1.334 . S
C398 C399 1.287 . S
C399 C398 1.287 . S
C399 C400 1.524 . S
C399 H402 0.999 . S
C400 H370 0.950 . S
C400 C399 1.524 . S
C400 C401 1.415 . S
C401 H371 0.950 . S
C401 C396 1.363 . S
C401 C400 1.415 . S
H402 C399 0.999 . S
H403 C384 0.913 . S
H404 C422 0.951 . S
H405 C424 0.951 . S
H406 C426 0.950 . S
H407 C427 0.950 . S
H408 C429 0.950 . S
H409 C432 0.950 . S
H410 C433 0.950 . S
H411 C435 0.950 . S
H412 C436 0.950 . S
H413 C437 0.951 . S
H414 C439 0.951 . S
H415 C441 0.950 . S
H416 C442 0.950 . S
H417 C444 0.950 . S
H418 C447 0.950 . S
H419 C448 0.950 . S
H420 C450 0.950 . S
H421 C451 0.950 . S
C422 H404 0.951 . S
C422 C423 1.366 . S
C422 C424 1.388 . S
C423 C422 1.366 . S
C423 C427 1.385 . S
C424 H405 0.951 . S
C424 C422 1.388 . S
C424 C425 1.366 . S
C425 C424 1.366 . S
C425 C426 1.414 . S
C425 C428 1.499 . S
C426 H406 0.950 . S
C426 C425 1.414 . S
C426 C427 1.374 . S
C427 H407 0.950 . S
C427 C423 1.385 . S
C427 C426 1.374 . S
C428 C425 1.499 . S
C428 C429 1.373 . S
C428 C430 1.389 . S
C429 H408 0.950 . S
C429 C428 1.373 . S
C429 C445 1.377 . S
C430 C428 1.389 . S
C430 C431 1.524 . S
C430 C444 1.377 . S
C431 C430 1.524 . S
C431 C432 1.397 . S
C431 C436 1.363 . S
C432 H409 0.950 . S
C432 C431 1.397 . S
C432 C433 1.334 . S
C433 H410 0.950 . S
C433 C432 1.334 . S
C433 C434 1.287 . S
C434 C433 1.287 . S
C434 C435 1.524 . S
C434 H453 0.913 . S
C435 H411 0.950 . S
C435 C434 1.524 . S
C435 C436 1.415 . S
C436 H412 0.950 . S
C436 C431 1.363 . S
C436 C435 1.415 . S
C437 H413 0.951 . S
C437 C438 1.366 . S
C437 C439 1.388 . S
C438 C437 1.366 . S
C438 C442 1.385 . S
C439 H414 0.951 . S
C439 C437 1.388 . S
C439 C440 1.366 . S
C440 C439 1.366 . S
C440 C441 1.414 . S
C440 C443 1.499 . S
C441 H415 0.950 . S
C441 C440 1.414 . S
C441 C442 1.374 . S
C442 H416 0.950 . S
C442 C438 1.385 . S
C442 C441 1.374 . S
C443 C440 1.499 . S
C443 C444 1.373 . S
C443 C445 1.389 . S
C444 H417 0.950 . S
C444 C430 1.377 . S
C444 C443 1.373 . S
C445 C429 1.377 . S
C445 C443 1.389 . S
C445 C446 1.524 . S
C446 C445 1.524 . S
C446 C447 1.397 . S
C446 C451 1.363 . S
C447 H418 0.950 . S
C447 C446 1.397 . S
C447 C448 1.334 . S
C448 H419 0.950 . S
C448 C447 1.334 . S
C448 C449 1.287 . S
C449 C448 1.287 . S
C449 C450 1.524 . S
C449 H452 0.999 . S
C450 H420 0.950 . S
C450 C449 1.524 . S
C450 C451 1.415 . S
C451 H421 0.950 . S
C451 C446 1.363 . S
C451 C450 1.415 . S
H452 C449 0.999 . S
H453 C434 0.913 . S
H454 C472 0.951 . S
H455 C474 0.951 . S
H456 C476 0.950 . S
H457 C477 0.950 . S
H458 C479 0.950 . S
H459 C482 0.950 . S
H460 C483 0.950 . S
H461 C485 0.950 . S
H462 C486 0.950 . S
H463 C487 0.951 . S
H464 C489 0.951 . S
H465 C491 0.950 . S
H466 C492 0.950 . S
H467 C494 0.950 . S
H468 C497 0.950 . S
H469 C498 0.950 . S
H470 C500 0.950 . S
H471 C501 0.950 . S
C472 H454 0.951 . S
C472 C473 1.366 . S
C472 C474 1.388 . S
C473 C472 1.366 . S
C473 C477 1.385 . S
C474 H455 0.951 . S
C474 C472 1.388 . S
C474 C475 1.366 . S
C475 C474 1.366 . S
C475 C476 1.414 . S
C475 C478 1.499 . S
C476 H456 0.950 . S
C476 C475 1.414 . S
C476 C477 1.374 . S
C477 H457 0.950 . S
C477 C473 1.385 . S
C477 C476 1.374 . S
C478 C475 1.499 . S
C478 C479 1.373 . S
C478 C480 1.389 . S
C479 H458 0.950 . S
C479 C478 1.373 . S
C479 C495 1.377 . S
C480 C478 1.389 . S
C480 C481 1.524 . S
C480 C494 1.377 . S
C481 C480 1.524 . S
C481 C482 1.397 . S
C481 C486 1.363 . S
C482 H459 0.950 . S
C482 C481 1.397 . S
C482 C483 1.334 . S
C483 H460 0.950 . S
C483 C482 1.334 . S
C483 C484 1.287 . S
C484 C483 1.287 . S
C484 C485 1.524 . S
C484 H503 0.913 . S
C485 H461 0.950 . S
C485 C484 1.524 . S
C485 C486 1.415 . S
C486 H462 0.950 . S
C486 C481 1.363 . S
C486 C485 1.415 . S
C487 H463 0.951 . S
C487 C488 1.366 . S
C487 C489 1.388 . S
C488 C487 1.366 . S
C488 C492 1.385 . S
C489 H464 0.951 . S
C489 C487 1.388 . S
C489 C490 1.366 . S
C490 C489 1.366 . S
C490 C491 1.414 . S
C490 C493 1.499 . S
C491 H465 0.950 . S
C491 C490 1.414 . S
C491 C492 1.374 . S
C492 H466 0.950 . S
C492 C488 1.385 . S
C492 C491 1.374 . S
C493 C490 1.499 . S
C493 C494 1.373 . S
C493 C495 1.389 . S
C494 H467 0.950 . S
C494 C480 1.377 . S
C494 C493 1.373 . S
C495 C479 1.377 . S
C495 C493 1.389 . S
C495 C496 1.524 . S
C496 C495 1.524 . S
C496 C497 1.397 . S
C496 C501 1.363 . S
C497 H468 0.950 . S
C497 C496 1.397 . S
C497 C498 1.334 . S
C498 H469 0.950 . S
C498 C497 1.334 . S
C498 C499 1.287 . S
C499 C498 1.287 . S
C499 C500 1.524 . S
C499 H502 0.999 . S
C500 H470 0.950 . S
C500 C499 1.524 . S
C500 C501 1.415 . S
C501 H471 0.950 . S
C501 C496 1.363 . S
C501 C500 1.415 . S
H502 C499 0.999 . S
H503 C484 0.913 . S
H504 C522 0.951 . S
H505 C524 0.951 . S
H506 C526 0.950 . S
H507 C527 0.950 . S
H508 C529 0.950 . S
H509 C532 0.950 . S
H510 C533 0.950 . S
H511 C535 0.950 . S
H512 C536 0.950 . S
H513 C537 0.951 . S
H514 C539 0.951 . S
H515 C541 0.950 . S
H516 C542 0.950 . S
H517 C544 0.950 . S
H518 C547 0.950 . S
H519 C548 0.950 . S
H520 C550 0.950 . S
H521 C551 0.950 . S
C522 H504 0.951 . S
C522 C523 1.366 . S
C522 C524 1.388 . S
C523 C522 1.366 . S
C523 C527 1.385 . S
C524 H505 0.951 . S
C524 C522 1.388 . S
C524 C525 1.366 . S
C525 C524 1.366 . S
C525 C526 1.414 . S
C525 C528 1.499 . S
C526 H506 0.950 . S
C526 C525 1.414 . S
C526 C527 1.374 . S
C527 H507 0.950 . S
C527 C523 1.385 . S
C527 C526 1.374 . S
C528 C525 1.499 . S
C528 C529 1.373 . S
C528 C530 1.389 . S
C529 H508 0.950 . S
C529 C528 1.373 . S
C529 C545 1.377 . S
C530 C528 1.389 . S
C530 C531 1.524 . S
C530 C544 1.377 . S
C531 C530 1.524 . S
C531 C532 1.397 . S
C531 C536 1.363 . S
C532 H509 0.950 . S
C532 C531 1.397 . S
C532 C533 1.334 . S
C533 H510 0.950 . S
C533 C532 1.334 . S
C533 C534 1.287 . S
C534 C533 1.287 . S
C534 C535 1.524 . S
C534 H553 0.913 . S
C535 H511 0.950 . S
C535 C534 1.524 . S
C535 C536 1.415 . S
C536 H512 0.950 . S
C536 C531 1.363 . S
C536 C535 1.415 . S
C537 H513 0.951 . S
C537 C538 1.366 . S
C537 C539 1.388 . S
C538 C537 1.366 . S
C538 C542 1.385 . S
C539 H514 0.951 . S
C539 C537 1.388 . S
C539 C540 1.366 . S
C540 C539 1.366 . S
C540 C541 1.414 . S
C540 C543 1.499 . S
C541 H515 0.950 . S
C541 C540 1.414 . S
C541 C542 1.374 . S
C542 H516 0.950 . S
C542 C538 1.385 . S
C542 C541 1.374 . S
C543 C540 1.499 . S
C543 C544 1.373 . S
C543 C545 1.389 . S
C544 H517 0.950 . S
C544 C530 1.377 . S
C544 C543 1.373 . S
C545 C529 1.377 . S
C545 C543 1.389 . S
C545 C546 1.524 . S
C546 C545 1.524 . S
C546 C547 1.397 . S
C546 C551 1.363 . S
C547 H518 0.950 . S
C547 C546 1.397 . S
C547 C548 1.334 . S
C548 H519 0.950 . S
C548 C547 1.334 . S
C548 C549 1.287 . S
C549 C548 1.287 . S
C549 C550 1.524 . S
C549 H552 0.999 . S
C550 H520 0.950 . S
C550 C549 1.524 . S
C550 C551 1.415 . S
C551 H521 0.950 . S
C551 C546 1.363 . S
C551 C550 1.415 . S
H552 C549 0.999 . S
H553 C534 0.913 . S
H554 C572 0.951 . S
H555 C574 0.951 . S
H556 C576 0.950 . S
H557 C577 0.950 . S
H558 C579 0.950 . S
H559 C582 0.950 . S
H560 C583 0.950 . S
H561 C585 0.950 . S
H562 C586 0.950 . S
H563 C587 0.951 . S
H564 C589 0.951 . S
H565 C591 0.950 . S
H566 C592 0.950 . S
H567 C594 0.950 . S
H568 C597 0.950 . S
H569 C598 0.950 . S
H570 C600 0.950 . S
H571 C601 0.950 . S
C572 H554 0.951 . S
C572 C573 1.366 . S
C572 C574 1.388 . S
C573 C572 1.366 . S
C573 C577 1.385 . S
C574 H555 0.951 . S
C574 C572 1.388 . S
C574 C575 1.366 . S
C575 C574 1.366 . S
C575 C576 1.414 . S
C575 C578 1.499 . S
C576 H556 0.950 . S
C576 C575 1.414 . S
C576 C577 1.374 . S
C577 H557 0.950 . S
C577 C573 1.385 . S
C577 C576 1.374 . S
C578 C575 1.499 . S
C578 C579 1.373 . S
C578 C580 1.389 . S
C579 H558 0.950 . S
C579 C578 1.373 . S
C579 C595 1.377 . S
C580 C578 1.389 . S
C580 C581 1.524 . S
C580 C594 1.377 . S
C581 C580 1.524 . S
C581 C582 1.397 . S
C581 C586 1.363 . S
C582 H559 0.950 . S
C582 C581 1.397 . S
C582 C583 1.334 . S
C583 H560 0.950 . S
C583 C582 1.334 . S
C583 C584 1.287 . S
C584 C583 1.287 . S
C584 C585 1.524 . S
C584 H603 0.913 . S
C585 H561 0.950 . S
C585 C584 1.524 . S
C585 C586 1.415 . S
C586 H562 0.950 . S
C586 C581 1.363 . S
C586 C585 1.415 . S
C587 H563 0.951 . S
C587 C588 1.366 . S
C587 C589 1.388 . S
C588 C587 1.366 . S
C588 C592 1.385 . S
C589 H564 0.951 . S
C589 C587 1.388 . S
C589 C590 1.366 . S
C590 C589 1.366 . S
C590 C591 1.414 . S
C590 C593 1.499 . S
C591 H565 0.950 . S
C591 C590 1.414 . S
C591 C592 1.374 . S
C592 H566 0.950 . S
C592 C588 1.385 . S
C592 C591 1.374 . S
C593 C590 1.499 . S
C593 C594 1.373 . S
C593 C595 1.389 . S
C594 H567 0.950 . S
C594 C580 1.377 . S
C594 C593 1.373 . S
C595 C579 1.377 . S
C595 C593 1.389 . S
C595 C596 1.524 . S
C596 C595 1.524 . S
C596 C597 1.397 . S
C596 C601 1.363 . S
C597 H568 0.950 . S
C597 C596 1.397 . S
C597 C598 1.334 . S
C598 H569 0.950 . S
C598 C597 1.334 . S
C598 C599 1.287 . S
C599 C598 1.287 . S
C599 C600 1.524 . S
C599 H602 0.999 . S
C600 H570 0.950 . S
C600 C599 1.524 . S
C600 C601 1.415 . S
C601 H571 0.950 . S
C601 C596 1.363 . S
C601 C600 1.415 . S
H602 C599 0.999 . S
H603 C584 0.913 . S
H604 C622 0.951 . S
H605 C624 0.951 . S
H606 C626 0.950 . S
H607 C627 0.950 . S
H608 C629 0.950 . S
H609 C632 0.950 . S
H610 C633 0.950 . S
H611 C635 0.950 . S
H612 C636 0.950 . S
H613 C637 0.951 . S
H614 C639 0.951 . S
H615 C641 0.950 . S
H616 C642 0.950 . S
H617 C644 0.950 . S
H618 C647 0.950 . S
H619 C648 0.950 . S
H620 C650 0.950 . S
H621 C651 0.950 . S
C622 H604 0.951 . S
C622 C623 1.366 . S
C622 C624 1.388 . S
C623 C622 1.366 . S
C623 C627 1.385 . S
C624 H605 0.951 . S
C624 C622 1.388 . S
C624 C625 1.366 . S
C625 C624 1.366 . S
C625 C626 1.414 . S
C625 C628 1.499 . S
C626 H606 0.950 . S
C626 C625 1.414 . S
C626 C627 1.374 . S
C627 H607 0.950 . S
C627 C623 1.385 . S
C627 C626 1.374 . S
C628 C625 1.499 . S
C628 C629 1.373 . S
C628 C630 1.389 . S
C629 H608 0.950 . S
C629 C628 1.373 . S
C629 C645 1.377 . S
C630 C628 1.389 . S
C630 C631 1.524 . S
C630 C644 1.377 . S
C631 C630 1.524 . S
C631 C632 1.397 . S
C631 C636 1.363 . S
C632 H609 0.950 . S
C632 C631 1.397 . S
C632 C633 1.334 . S
C633 H610 0.950 . S
C633 C632 1.334 . S
C633 C634 1.287 . S
C634 C633 1.287 . S
C634 C635 1.524 . S
C634 H653 0.913 . S
C635 H611 0.950 . S
C635 C634 1.524 . S
C635 C636 1.415 . S
C636 H612 0.950 . S
C636 C631 1.363 . S
C636 C635 1.415 . S
C637 H613 0.951 . S
C637 C638 1.366 . S
C637 C639 1.388 . S
C638 C637 1.366 . S
C638 C642 1.385 . S
C639 H614 0.951 . S
C639 C637 1.388 . S
C639 C640 1.366 . S
C640 C639 1.366 . S
C640 C641 1.414 . S
C640 C643 1.499 . S
C641 H615 0.950 . S
C641 C640 1.414 . S
C641 C642 1.374 . S
C642 H616 0.950 . S
C642 C638 1.385 . S
C642 C641 1.374 . S
C643 C640 1.499 . S
C643 C644 1.373 . S
C643 C645 1.389 . S
C644 H617 0.950 . S
C644 C630 1.377 . S
C644 C643 1.373 . S
C645 C629 1.377 . S
C645 C643 1.389 . S
C645 C646 1.524 . S
C646 C645 1.524 . S
C646 C647 1.397 . S
C646 C651 1.363 . S
C647 H618 0.950 . S
C647 C646 1.397 . S
C647 C648 1.334 . S
C648 H619 0.950 . S
C648 C647 1.334 . S
C648 C649 1.287 . S
C649 C648 1.287 . S
C649 C650 1.524 . S
C649 H652 0.999 . S
C650 H620 0.950 . S
C650 C649 1.524 . S
C650 C651 1.415 . S
C651 H621 0.950 . S
C651 C646 1.363 . S
C651 C650 1.415 . S
H652 C649 0.999 . S
H653 C634 0.913 . S
H654 C672 0.951 . S
H655 C674 0.951 . S
H656 C676 0.950 . S
H657 C677 0.950 . S
H658 C679 0.950 . S
H659 C682 0.950 . S
H660 C683 0.950 . S
H661 C685 0.950 . S
H662 C686 0.950 . S
H663 C687 0.951 . S
H664 C689 0.951 . S
H665 C691 0.950 . S
H666 C692 0.950 . S
H667 C694 0.950 . S
H668 C697 0.950 . S
H669 C698 0.950 . S
H670 C700 0.950 . S
H671 C701 0.950 . S
C672 H654 0.951 . S
C672 C673 1.366 . S
C672 C674 1.388 . S
C673 C672 1.366 . S
C673 C677 1.385 . S
C674 H655 0.951 . S
C674 C672 1.388 . S
C674 C675 1.366 . S
C675 C674 1.366 . S
C675 C676 1.414 . S
C675 C678 1.499 . S
C676 H656 0.950 . S
C676 C675 1.414 . S
C676 C677 1.374 . S
C677 H657 0.950 . S
C677 C673 1.385 . S
C677 C676 1.374 . S
C678 C675 1.499 . S
C678 C679 1.373 . S
C678 C680 1.389 . S
C679 H658 0.950 . S
C679 C678 1.373 . S
C679 C695 1.377 . S
C680 C678 1.389 . S
C680 C681 1.524 . S
C680 C694 1.377 . S
C681 C680 1.524 . S
C681 C682 1.397 . S
C681 C686 1.363 . S
C682 H659 0.950 . S
C682 C681 1.397 . S
C682 C683 1.334 . S
C683 H660 0.950 . S
C683 C682 1.334 . S
C683 C684 1.287 . S
C684 C683 1.287 . S
C684 C685 1.524 . S
C684 H703 0.913 . S
C685 H661 0.950 . S
C685 C684 1.524 . S
C685 C686 1.415 . S
C686 H662 0.950 . S
C686 C681 1.363 . S
C686 C685 1.415 . S
C687 H663 0.951 . S
C687 C688 1.366 . S
C687 C689 1.388 . S
C688 C687 1.366 . S
C688 C692 1.385 . S
C689 H664 0.951 . S
C689 C687 1.388 . S
C689 C690 1.366 . S
C690 C689 1.366 . S
C690 C691 1.414 . S
C690 C693 1.499 . S
C691 H665 0.950 . S
C691 C690 1.414 . S
C691 C692 1.374 . S
C692 H666 0.950 . S
C692 C688 1.385 . S
C692 C691 1.374 . S
C693 C690 1.499 . S
C693 C694 1.373 . S
C693 C695 1.389 . S
C694 H667 0.950 . S
C694 C680 1.377 . S
C694 C693 1.373 . S
C695 C679 1.377 . S
C695 C693 1.389 . S
C695 C696 1.524 . S
C696 C695 1.524 . S
C696 C697 1.397 . S
C696 C701 1.363 . S
C697 H668 0.950 . S
C697 C696 1.397 . S
C697 C698 1.334 . S
C698 H669 0.950 . S
C698 C697 1.334 . S
C698 C699 1.287 . S
C699 C698 1.287 . S
C699 C700 1.524 . S
C699 H702 0.999 . S
C700 H670 0.950 . S
C700 C699 1.524 . S
C700 C701 1.415 . S
C701 H671 0.950 . S
C701 C696 1.363 . S
C701 C700 1.415 . S
H702 C699 0.999 . S
H703 C684 0.913 . S
H704 C722 0.951 . S
H705 C724 0.951 . S
H706 C726 0.950 . S
H707 C727 0.950 . S
H708 C729 0.950 . S
H709 C732 0.950 . S
H710 C733 0.950 . S
H711 C735 0.950 . S
H712 C736 0.950 . S
H713 C737 0.951 . S
H714 C739 0.951 . S
H715 C741 0.950 . S
H716 C742 0.950 . S
H717 C744 0.950 . S
H718 C747 0.950 . S
H719 C748 0.950 . S
H720 C750 0.950 . S
H721 C751 0.950 . S
C722 H704 0.951 . S
C722 C723 1.366 . S
C722 C724 1.388 . S
C723 C722 1.366 . S
C723 C727 1.385 . S
C724 H705 0.951 . S
C724 C722 1.388 . S
C724 C725 1.366 . S
C725 C724 1.366 . S
C725 C726 1.414 . S
C725 C728 1.499 . S
C726 H706 0.950 . S
C726 C725 1.414 . S
C726 C727 1.374 . S
C727 H707 0.950 . S
C727 C723 1.385 . S
C727 C726 1.374 . S
C728 C725 1.499 . S
C728 C729 1.373 . S
C728 C730 1.389 . S
C729 H708 0.950 . S
C729 C728 1.373 . S
C729 C745 1.377 . S
C730 C728 1.389 . S
C730 C731 1.524 . S
C730 C744 1.377 . S
C731 C730 1.524 . S
C731 C732 1.397 . S
C731 C736 1.363 . S
C732 H709 0.950 . S
C732 C731 1.397 . S
C732 C733 1.334 . S
C733 H710 0.950 . S
C733 C732 1.334 . S
C733 C734 1.287 . S
C734 C733 1.287 . S
C734 C735 1.524 . S
C734 H753 0.913 . S
C735 H711 0.950 . S
C735 C734 1.524 . S
C735 C736 1.415 . S
C736 H712 0.950 . S
C736 C731 1.363 . S
C736 C735 1.415 . S
C737 H713 0.951 . S
C737 C738 1.366 . S
C737 C739 1.388 . S
C738 C737 1.366 . S
C738 C742 1.385 . S
C739 H714 0.951 . S
C739 C737 1.388 . S
C739 C740 1.366 . S
C740 C739 1.366 . S
C740 C741 1.414 . S
C740 C743 1.499 . S
C741 H715 0.950 . S
C741 C740 1.414 . S
C741 C742 1.374 . S
C742 H716 0.950 . S
C742 C738 1.385 . S
C742 C741 1.374 . S
C743 C740 1.499 . S
C743 C744 1.373 . S
C743 C745 1.389 . S
C744 H717 0.950 . S
C744 C730 1.377 . S
C744 C743 1.373 . S
C745 C729 1.377 . S
C745 C743 1.389 . S
C745 C746 1.524 . S
C746 C745 1.524 . S
C746 C747 1.397 . S
C746 C751 1.363 . S
C747 H718 0.950 . S
C747 C746 1.397 . S
C747 C748 1.334 . S
C748 H719 0.950 . S
C748 C747 1.334 . S
C748 C749 1.287 . S
C749 C748 1.287 . S
C749 C750 1.524 . S
C749 H752 0.999 . S
C750 H720 0.950 . S
C750 C749 1.524 . S
C750 C751 1.415 . S
C751 H721 0.950 . S
C751 C746 1.363 . S
C751 C750 1.415 . S
H752 C749 0.999 . S
H753 C734 0.913 . S
H754 C772 0.951 . S
H755 C774 0.951 . S
H756 C776 0.950 . S
H757 C777 0.950 . S
H758 C779 0.950 . S
H759 C782 0.950 . S
H760 C783 0.950 . S
H761 C785 0.950 . S
H762 C786 0.950 . S
H763 C787 0.951 . S
H764 C789 0.951 . S
H765 C791 0.950 . S
H766 C792 0.950 . S
H767 C794 0.950 . S
H768 C797 0.950 . S
H769 C798 0.950 . S
H770 C800 0.950 . S
H771 C801 0.950 . S
C772 H754 0.951 . S
C772 C773 1.366 . S
C772 C774 1.388 . S
C773 C772 1.366 . S
C773 C777 1.385 . S
C774 H755 0.951 . S
C774 C772 1.388 . S
C774 C775 1.366 . S
C775 C774 1.366 . S
C775 C776 1.414 . S
C775 C778 1.499 . S
C776 H756 0.950 . S
C776 C775 1.414 . S
C776 C777 1.374 . S
C777 H757 0.950 . S
C777 C773 1.385 . S
C777 C776 1.374 . S
C778 C775 1.499 . S
C778 C779 1.373 . S
C778 C780 1.389 . S
C779 H758 0.950 . S
C779 C778 1.373 . S
C779 C795 1.377 . S
C780 C778 1.389 . S
C780 C781 1.524 . S
C780 C794 1.377 . S
C781 C780 1.524 . S
C781 C782 1.397 . S
C781 C786 1.363 . S
C782 H759 0.950 . S
C782 C781 1.397 . S
C782 C783 1.334 . S
C783 H760 0.950 . S
C783 C782 1.334 . S
C783 C784 1.287 . S
C784 C783 1.287 . S
C784 C785 1.524 . S
C784 H803 0.913 . S
C785 H761 0.950 . S
C785 C784 1.524 . S
C785 C786 1.415 . S
C786 H762 0.950 . S
C786 C781 1.363 . S
C786 C785 1.415 . S
C787 H763 0.951 . S
C787 C788 1.366 . S
C787 C789 1.388 . S
C788 C787 1.366 . S
C788 C792 1.385 . S
C789 H764 0.951 . S
C789 C787 1.388 . S
C789 C790 1.366 . S
C790 C789 1.366 . S
C790 C791 1.414 . S
C790 C793 1.499 . S
C791 H765 0.950 . S
C791 C790 1.414 . S
C791 C792 1.374 . S
C792 H766 0.950 . S
C792 C788 1.385 . S
C792 C791 1.374 . S
C793 C790 1.499 . S
C793 C794 1.373 . S
C793 C795 1.389 . S
C794 H767 0.950 . S
C794 C780 1.377 . S
C794 C793 1.373 . S
C795 C779 1.377 . S
C795 C793 1.389 . S
C795 C796 1.524 . S
C796 C795 1.524 . S
C796 C797 1.397 . S
C796 C801 1.363 . S
C797 H768 0.950 . S
C797 C796 1.397 . S
C797 C798 1.334 . S
C798 H769 0.950 . S
C798 C797 1.334 . S
C798 C799 1.287 . S
C799 C798 1.287 . S
C799 C800 1.524 . S
C799 H802 0.999 . S
C800 H770 0.950 . S
C800 C799 1.524 . S
C800 C801 1.415 . S
C801 H771 0.950 . S
C801 C796 1.363 . S
C801 C800 1.415 . S
H802 C799 0.999 . S
H803 C784 0.913 . S
H804 C822 0.951 . S
H805 C824 0.951 . S
H806 C826 0.950 . S
H807 C827 0.950 . S
H808 C829 0.950 . S
H809 C832 0.950 . S
H810 C833 0.950 . S
H811 C835 0.950 . S
H812 C836 0.950 . S
H813 C837 0.951 . S
H814 C839 0.951 . S
H815 C841 0.950 . S
H816 C842 0.950 . S
H817 C844 0.950 . S
H818 C847 0.950 . S
H819 C848 0.950 . S
H820 C850 0.950 . S
H821 C851 0.950 . S
C822 H804 0.951 . S
C822 C823 1.366 . S
C822 C824 1.388 . S
C823 C822 1.366 . S
C823 C827 1.385 . S
C824 H805 0.951 . S
C824 C822 1.388 . S
C824 C825 1.366 . S
C825 C824 1.366 . S
C825 C826 1.414 . S
C825 C828 1.499 . S
C826 H806 0.950 . S
C826 C825 1.414 . S
C826 C827 1.374 . S
C827 H807 0.950 . S
C827 C823 1.385 . S
C827 C826 1.374 . S
C828 C825 1.499 . S
C828 C829 1.373 . S
C828 C830 1.389 . S
C829 H808 0.950 . S
C829 C828 1.373 . S
C829 C845 1.377 . S
C830 C828 1.389 . S
C830 C831 1.524 . S
C830 C844 1.377 . S
C831 C830 1.524 . S
C831 C832 1.397 . S
C831 C836 1.363 . S
C832 H809 0.950 . S
C832 C831 1.397 . S
C832 C833 1.334 . S
C833 H810 0.950 . S
C833 C832 1.334 . S
C833 C834 1.287 . S
C834 C833 1.287 . S
C834 C835 1.524 . S
C834 H853 0.913 . S
C835 H811 0.950 . S
C835 C834 1.524 . S
C835 C836 1.415 . S
C836 H812 0.950 . S
C836 C831 1.363 . S
C836 C835 1.415 . S
C837 H813 0.951 . S
C837 C838 1.366 . S
C837 C839 1.388 . S
C838 C837 1.366 . S
C838 C842 1.385 . S
C839 H814 0.951 . S
C839 C837 1.388 . S
C839 C840 1.366 . S
C840 C839 1.366 . S
C840 C841 1.414 . S
C840 C843 1.499 . S
C841 H815 0.950 . S
C841 C840 1.414 . S
C841 C842 1.374 . S
C842 H816 0.950 . S
C842 C838 1.385 . S
C842 C841 1.374 . S
C843 C840 1.499 . S
C843 C844 1.373 . S
C843 C845 1.389 . S
C844 H817 0.950 . S
C844 C830 1.377 . S
C844 C843 1.373 . S
C845 C829 1.377 . S
C845 C843 1.389 . S
C845 C846 1.524 . S
C846 C845 1.524 . S
C846 C847 1.397 . S
C846 C851 1.363 . S
C847 H818 0.950 . S
C847 C846 1.397 . S
C847 C848 1.334 . S
C848 H819 0.950 . S
C848 C847 1.334 . S
C848 C849 1.287 . S
C849 C848 1.287 . S
C849 C850 1.524 . S
C849 H852 0.999 . S
C850 H820 0.950 . S
C850 C849 1.524 . S
C850 C851 1.415 . S
C851 H821 0.950 . S
C851 C846 1.363 . S
C851 C850 1.415 . S
H852 C849 0.999 . S
H853 C834 0.913 . S
H854 C872 0.951 . S
H855 C874 0.951 . S
H856 C876 0.950 . S
H857 C877 0.950 . S
H858 C879 0.950 . S
H859 C882 0.950 . S
H860 C883 0.950 . S
H861 C885 0.950 . S
H862 C886 0.950 . S
H863 C887 0.951 . S
H864 C889 0.951 . S
H865 C891 0.950 . S
H866 C892 0.950 . S
H867 C894 0.950 . S
H868 C897 0.950 . S
H869 C898 0.950 . S
H870 C900 0.950 . S
H871 C901 0.950 . S
C872 H854 0.951 . S
C872 C873 1.366 . S
C872 C874 1.388 . S
C873 C872 1.366 . S
C873 C877 1.385 . S
C874 H855 0.951 . S
C874 C872 1.388 . S
C874 C875 1.366 . S
C875 C874 1.366 . S
C875 C876 1.414 . S
C875 C878 1.499 . S
C876 H856 0.950 . S
C876 C875 1.414 . S
C876 C877 1.374 . S
C877 H857 0.950 . S
C877 C873 1.385 . S
C877 C876 1.374 . S
C878 C875 1.499 . S
C878 C879 1.373 . S
C878 C880 1.389 . S
C879 H858 0.950 . S
C879 C878 1.373 . S
C879 C895 1.377 . S
C880 C878 1.389 . S
C880 C881 1.524 . S
C880 C894 1.377 . S
C881 C880 1.524 . S
C881 C882 1.397 . S
C881 C886 1.363 . S
C882 H859 0.950 . S
C882 C881 1.397 . S
C882 C883 1.334 . S
C883 H860 0.950 . S
C883 C882 1.334 . S
C883 C884 1.287 . S
C884 C883 1.287 . S
C884 C885 1.524 . S
C884 H903 0.913 . S
C885 H861 0.950 . S
C885 C884 1.524 . S
C885 C886 1.415 . S
C886 H862 0.950 . S
C886 C881 1.363 . S
C886 C885 1.415 . S
C887 H863 0.951 . S
C887 C888 1.366 . S
C887 C889 1.388 . S
C888 C887 1.366 . S
C888 C892 1.385 . S
C889 H864 0.951 . S
C889 C887 1.388 . S
C889 C890 1.366 . S
C890 C889 1.366 . S
C890 C891 1.414 . S
C890 C893 1.499 . S
C891 H865 0.950 . S
C891 C890 1.414 . S
C891 C892 1.374 . S
C892 H866 0.950 . S
C892 C888 1.385 . S
C892 C891 1.374 . S
C893 C890 1.499 . S
C893 C894 1.373 . S
C893 C895 1.389 . S
C894 H867 0.950 . S
C894 C880 1.377 . S
C894 C893 1.373 . S
C895 C879 1.377 . S
C895 C893 1.389 . S
C895 C896 1.524 . S
C896 C895 1.524 . S
C896 C897 1.397 . S
C896 C901 1.363 . S
C897 H868 0.950 . S
C897 C896 1.397 . S
C897 C898 1.334 . S
C898 H869 0.950 . S
C898 C897 1.334 . S
C898 C899 1.287 . S
C899 C898 1.287 . S
C899 C900 1.524 . S
C899 H902 0.999 . S
C900 H870 0.950 . S
C900 C899 1.524 . S
C900 C901 1.415 . S
C901 H871 0.950 . S
C901 C896 1.363 . S
C901 C900 1.415 . S
H902 C899 0.999 . S
H903 C884 0.913 . S
H904 C922 0.951 . S
H905 C924 0.951 . S
H906 C926 0.950 . S
H907 C927 0.950 . S
H908 C929 0.950 . S
H909 C932 0.950 . S
H910 C933 0.950 . S
H911 C935 0.950 . S
H912 C936 0.950 . S
H913 C937 0.951 . S
H914 C939 0.951 . S
H915 C941 0.950 . S
H916 C942 0.950 . S
H917 C944 0.950 . S
H918 C947 0.950 . S
H919 C948 0.950 . S
H920 C950 0.950 . S
H921 C951 0.950 . S
C922 H904 0.951 . S
C922 C923 1.366 . S
C922 C924 1.388 . S
C923 C922 1.366 . S
C923 C927 1.385 . S
C924 H905 0.951 . S
C924 C922 1.388 . S
C924 C925 1.366 . S
C925 C924 1.366 . S
C925 C926 1.414 . S
C925 C928 1.499 . S
C926 H906 0.950 . S
C926 C925 1.414 . S
C926 C927 1.374 . S
C927 H907 0.950 . S
C927 C923 1.385 . S
C927 C926 1.374 . S
C928 C925 1.499 . S
C928 C929 1.373 . S
C928 C930 1.389 . S
C929 H908 0.950 . S
C929 C928 1.373 . S
C929 C945 1.377 . S
C930 C928 1.389 . S
C930 C931 1.524 . S
C930 C944 1.377 . S
C931 C930 1.524 . S
C931 C932 1.397 . S
C931 C936 1.363 . S
C932 H909 0.950 . S
C932 C931 1.397 . S
C932 C933 1.334 . S
C933 H910 0.950 . S
C933 C932 1.334 . S
C933 C934 1.287 . S
C934 C933 1.287 . S
C934 C935 1.524 . S
C934 H953 0.913 . S
C935 H911 0.950 . S
C935 C934 1.524 . S
C935 C936 1.415 . S
C936 H912 0.950 . S
C936 C931 1.363 . S
C936 C935 1.415 . S
C937 H913 0.951 . S
C937 C938 1.366 . S
C937 C939 1.388 . S
C938 C937 1.366 . S
C938 C942 1.385 . S
C939 H914 0.951 . S
C939 C937 1.388 . S
C939 C940 1.366 . S
C940 C939 1.366 . S
C940 C941 1.414 . S
C940 C943 1.499 . S
C941 H915 0.950 . S
C941 C940 1.414 . S
C941 C942 1.374 . S
C942 H916 0.950 . S
C942 C938 1.385 . S
C942 C941 1.374 . S
C943 C940 1.499 . S
C943 C944 1.373 . S
C943 C945 1.389 . S
C944 H917 0.950 . S
C944 C930 1.377 . S
C944 C943 1.373 . S
C945 C929 1.377 . S
C945 C943 1.389 . S
C945 C946 1.524 . S
C946 C945 1.524 . S
C946 C947 1.397 . S
C946 C951 1.363 . S
C947 H918 0.950 . S
C947 C946 1.397 . S
C947 C948 1.334 . S
C948 H919 0.950 . S
C948 C947 1.334 . S
C948 C949 1.287 . S
C949 C948 1.287 . S
C949 C950 1.524 . S
C949 H952 0.999 . S
C950 H920 0.950 . S
C950 C949 1.524 . S
C950 C951 1.415 . S
C951 H921 0.950 . S
C951 C946 1.363 . S
C951 C950 1.415 . S
H952 C949 0.999 . S
H953 C934 0.913 . S
H954 C972 0.950 . S
H955 C974 0.951 1_655 S
H956 C976 0.950 . S
H957 C977 0.950 . S
H958 C979 0.950 . S
H959 C982 0.950 1_455 S
H960 C983 0.950 . S
H961 C985 0.950 . S
H962 C986 0.950 . S
H963 C987 0.951 . S
H964 C989 0.951 . S
H965 C991 0.950 1_655 S
H966 C992 0.950 1_655 S
H967 C994 0.950 1_655 S
H968 C997 0.950 . S
H969 C998 0.950 . S
H970 C1000 0.950 . S
H971 C1001 0.950 . S
C972 H954 0.950 . S
C972 C973 1.367 1_655 S
C972 C974 1.388 1_655 S
C973 C972 1.367 1_455 S
C973 C977 1.385 . S
C974 H955 0.951 1_455 S
C974 C972 1.388 1_455 S
C974 C975 1.366 . S
C975 C974 1.366 . S
C975 C976 1.414 . S
C975 C978 1.499 . S
C976 H956 0.950 . S
C976 C975 1.414 . S
C976 C977 1.374 . S
C977 H957 0.950 . S
C977 C973 1.385 . S
C977 C976 1.374 . S
C978 C975 1.499 . S
C978 C979 1.373 . S
C978 C980 1.389 . S
C979 H958 0.950 . S
C979 C978 1.373 . S
C979 C995 1.377 . S
C980 C978 1.389 . S
C980 C981 1.524 1_455 S
C980 C994 1.377 . S
C981 C980 1.524 1_655 S
C981 C982 1.397 . S
C981 C986 1.363 . S
C982 H959 0.950 1_655 S
C982 C981 1.397 . S
C982 C983 1.334 . S
C983 H960 0.950 . S
C983 C982 1.334 . S
C983 C984 1.287 . S
C984 C983 1.287 . S
C984 C985 1.524 . S
C984 H1003 0.913 . S
C985 H961 0.950 . S
C985 C984 1.524 . S
C985 C986 1.415 . S
C986 H962 0.950 . S
C986 C981 1.363 . S
C986 C985 1.415 . S
C987 H963 0.951 . S
C987 C988 1.366 . S
C987 C989 1.388 1_556 S
C988 C987 1.366 . S
C988 C992 1.385 . S
C989 H964 0.951 . S
C989 C987 1.388 1_554 S
C989 C990 1.366 . S
C990 C989 1.366 . S
C990 C991 1.414 . S
C990 C993 1.499 . S
C991 H965 0.950 1_455 S
C991 C990 1.414 . S
C991 C992 1.374 1_554 S
C992 H966 0.950 1_455 S
C992 C988 1.385 . S
C992 C991 1.374 1_556 S
C993 C990 1.499 . S
C993 C994 1.373 . S
C993 C995 1.389 . S
C994 H967 0.950 1_455 S
C994 C980 1.377 . S
C994 C993 1.373 . S
C995 C979 1.377 . S
C995 C993 1.389 . S
C995 C996 1.524 . S
C996 C995 1.524 . S
C996 C997 1.397 . S
C996 C1001 1.363 . S
C997 H968 0.950 . S
C997 C996 1.397 . S
C997 C998 1.334 . S
C998 H969 0.950 . S
C998 C997 1.334 . S
C998 C999 1.287 . S
C999 C998 1.287 . S
C999 C1000 1.524 . S
C999 H1002 0.999 . S
C1000 H970 0.950 . S
C1000 C999 1.524 . S
C1000 C1001 1.415 . S
C1001 H971 0.950 . S
C1001 C996 1.363 . S
C1001 C1000 1.415 . S
H1002 C999 0.999 . S
H1003 C984 0.913 . S
H1004 C1022 0.951 . S
H1005 C1024 0.951 . S
H1006 C1026 0.950 1_565 S
H1007 C1027 0.952 1_565 S
H1008 C1029 0.950 . S
H1009 C1032 0.950 . S
H1010 C1033 0.950 . S
H1011 C1035 0.950 . S
H1012 C1036 0.950 . S
H1013 C1037 0.959 1_565 S
H1014 C1039 0.951 1_565 S
H1015 C1041 0.950 . S
H1016 C1042 0.950 . S
H1017 C1044 0.950 . S
H1018 C1047 0.950 . S
H1019 C1048 0.950 . S
H1020 C1050 0.950 . S
H1021 C1051 0.950 . S
C1022 H1004 0.951 . S
C1022 C1023 1.366 . S
C1022 C1024 1.388 . S
C1023 C1022 1.366 . S
C1023 C1027 1.382 . S
C1024 H1005 0.951 . S
C1024 C1022 1.388 . S
C1024 C1025 1.366 . S
C1025 C1024 1.366 . S
C1025 C1026 1.414 . S
C1025 C1028 1.499 . S
C1026 H1006 0.950 1_545 S
C1026 C1025 1.414 . S
C1026 C1027 1.375 . S
C1027 H1007 0.952 1_545 S
C1027 C1023 1.382 . S
C1027 C1026 1.375 . S
C1028 C1025 1.499 . S
C1028 C1029 1.373 1_545 S
C1028 C1030 1.389 . S
C1029 H1008 0.950 . S
C1029 C1028 1.373 1_565 S
C1029 C1045 1.377 . S
C1030 C1028 1.389 . S
C1030 C1031 1.524 . S
C1030 C1044 1.377 . S
C1031 C1030 1.524 . S
C1031 C1032 1.397 . S
C1031 C1036 1.363 . S
C1032 H1009 0.950 . S
C1032 C1031 1.397 . S
C1032 C1033 1.334 . S
C1033 H1010 0.950 . S
C1033 C1032 1.334 . S
C1033 C1034 1.287 . S
C1034 C1033 1.287 . S
C1034 C1035 1.524 . S
C1034 H1053 0.913 . S
C1035 H1011 0.950 . S
C1035 C1034 1.524 . S
C1035 C1036 1.415 . S
C1036 H1012 0.950 . S
C1036 C1031 1.363 . S
C1036 C1035 1.415 . S
C1037 H1013 0.959 1_545 S
C1037 C1038 1.366 . S
C1037 C1039 1.388 . S
C1038 C1037 1.366 . S
C1038 C1042 1.385 . S
C1039 H1014 0.951 1_545 S
C1039 C1037 1.388 . S
C1039 C1040 1.366 . S
C1040 C1039 1.366 . S
C1040 C1041 1.414 . S
C1040 C1043 1.499 . S
C1041 H1015 0.950 . S
C1041 C1040 1.414 . S
C1041 C1042 1.374 . S
C1042 H1016 0.950 . S
C1042 C1038 1.385 . S
C1042 C1041 1.374 . S
C1043 C1040 1.499 . S
C1043 C1044 1.373 . S
C1043 C1045 1.389 1_545 S
C1044 H1017 0.950 . S
C1044 C1030 1.377 . S
C1044 C1043 1.373 . S
C1045 C1029 1.377 . S
C1045 C1043 1.389 1_565 S
C1045 C1046 1.524 . S
C1046 C1045 1.524 . S
C1046 C1047 1.397 . S
C1046 C1051 1.363 . S
C1047 H1018 0.950 . S
C1047 C1046 1.397 . S
C1047 C1048 1.334 . S
C1048 H1019 0.950 . S
C1048 C1047 1.334 . S
C1048 C1049 1.287 . S
C1049 C1048 1.287 . S
C1049 C1050 1.524 . S
C1049 H1052 0.999 . S
C1050 H1020 0.950 . S
C1050 C1049 1.524 . S
C1050 C1051 1.415 . S
C1051 H1021 0.950 . S
C1051 C1046 1.363 . S
C1051 C1050 1.415 . S
H1052 C1049 0.999 . S
H1053 C1034 0.913 . S
H1054 C1072 0.951 . S
H1055 C1074 0.951 . S
H1056 C1076 0.950 . S
H1057 C1077 0.950 . S
H1058 C1079 0.950 . S
H1059 C1082 0.950 . S
H1060 C1083 0.950 . S
H1061 C1085 0.950 . S
H1062 C1086 0.950 . S
H1063 C1087 0.951 . S
H1064 C1089 0.951 . S
H1065 C1091 0.950 . S
H1066 C1092 0.950 . S
H1067 C1094 0.950 . S
H1068 C1097 0.950 . S
H1069 C1098 0.950 . S
H1070 C1100 0.950 . S
H1071 C1101 0.950 . S
C1072 H1054 0.951 . S
C1072 C1073 1.366 . S
C1072 C1074 1.388 . S
C1073 C1072 1.366 . S
C1073 C1077 1.385 . S
C1074 H1055 0.951 . S
C1074 C1072 1.388 . S
C1074 C1075 1.366 . S
C1075 C1074 1.366 . S
C1075 C1076 1.414 . S
C1075 C1078 1.499 . S
C1076 H1056 0.950 . S
C1076 C1075 1.414 . S
C1076 C1077 1.374 . S
C1077 H1057 0.950 . S
C1077 C1073 1.385 . S
C1077 C1076 1.374 . S
C1078 C1075 1.499 . S
C1078 C1079 1.373 . S
C1078 C1080 1.389 . S
C1079 H1058 0.950 . S
C1079 C1078 1.373 . S
C1079 C1095 1.377 . S
C1080 C1078 1.389 . S
C1080 C1081 1.524 . S
C1080 C1094 1.377 . S
C1081 C1080 1.524 . S
C1081 C1082 1.397 . S
C1081 C1086 1.363 . S
C1082 H1059 0.950 . S
C1082 C1081 1.397 . S
C1082 C1083 1.334 . S
C1083 H1060 0.950 . S
C1083 C1082 1.334 . S
C1083 C1084 1.287 . S
C1084 C1083 1.287 . S
C1084 C1085 1.524 . S
C1084 H1103 0.913 . S
C1085 H1061 0.950 . S
C1085 C1084 1.524 . S
C1085 C1086 1.415 . S
C1086 H1062 0.950 . S
C1086 C1081 1.363 . S
C1086 C1085 1.415 . S
C1087 H1063 0.951 . S
C1087 C1088 1.366 . S
C1087 C1089 1.388 . S
C1088 C1087 1.366 . S
C1088 C1092 1.385 . S
C1089 H1064 0.951 . S
C1089 C1087 1.388 . S
C1089 C1090 1.366 . S
C1090 C1089 1.366 . S
C1090 C1091 1.414 . S
C1090 C1093 1.499 . S
C1091 H1065 0.950 . S
C1091 C1090 1.414 . S
C1091 C1092 1.374 . S
C1092 H1066 0.950 . S
C1092 C1088 1.385 . S
C1092 C1091 1.374 . S
C1093 C1090 1.499 . S
C1093 C1094 1.373 . S
C1093 C1095 1.389 . S
C1094 H1067 0.950 . S
C1094 C1080 1.377 . S
C1094 C1093 1.373 . S
C1095 C1079 1.377 . S
C1095 C1093 1.389 . S
C1095 C1096 1.524 . S
C1096 C1095 1.524 . S
C1096 C1097 1.397 . S
C1096 C1101 1.363 . S
C1097 H1068 0.950 . S
C1097 C1096 1.397 . S
C1097 C1098 1.334 . S
C1098 H1069 0.950 . S
C1098 C1097 1.334 . S
C1098 C1099 1.287 . S
C1099 C1098 1.287 . S
C1099 C1100 1.524 . S
C1099 H1102 0.999 . S
C1100 H1070 0.950 . S
C1100 C1099 1.524 . S
C1100 C1101 1.415 . S
C1101 H1071 0.950 . S
C1101 C1096 1.363 . S
C1101 C1100 1.415 . S
H1102 C1099 0.999 . S
H1103 C1084 0.913 . S
H1104 C1122 0.951 . S
H1105 C1124 0.951 . S
H1106 C1126 0.950 . S
H1107 C1127 0.950 . S
H1108 C1129 0.950 . S
H1109 C1132 0.950 . S
H1110 C1133 0.950 . S
H1111 C1135 0.950 . S
H1112 C1136 0.950 . S
H1113 C1137 0.951 . S
H1114 C1139 0.951 . S
H1115 C1141 0.950 . S
H1116 C1142 0.950 . S
H1117 C1144 0.950 . S
H1118 C1147 0.950 1_545 S
H1119 C1148 0.950 . S
H1120 C1150 0.950 . S
H1121 C1151 0.950 . S
C1122 H1104 0.951 . S
C1122 C1123 1.366 . S
C1122 C1124 1.388 . S
C1123 C1122 1.366 . S
C1123 C1127 1.385 1_545 S
C1124 H1105 0.951 . S
C1124 C1122 1.388 . S
C1124 C1125 1.366 . S
C1125 C1124 1.366 . S
C1125 C1126 1.414 1_545 S
C1125 C1128 1.499 . S
C1126 H1106 0.950 . S
C1126 C1125 1.414 1_565 S
C1126 C1127 1.374 . S
C1127 H1107 0.950 . S
C1127 C1123 1.385 1_565 S
C1127 C1126 1.374 . S
C1128 C1125 1.499 . S
C1128 C1129 1.373 1_545 S
C1128 C1130 1.389 . S
C1129 H1108 0.950 . S
C1129 C1128 1.373 1_565 S
C1129 C1145 1.377 . S
C1130 C1128 1.389 . S
C1130 C1131 1.524 . S
C1130 C1144 1.377 . S
C1131 C1130 1.524 . S
C1131 C1132 1.397 . S
C1131 C1136 1.363 . S
C1132 H1109 0.950 . S
C1132 C1131 1.397 . S
C1132 C1133 1.334 . S
C1133 H1110 0.950 . S
C1133 C1132 1.334 . S
C1133 C1134 1.287 . S
C1134 C1133 1.287 . S
C1134 C1135 1.524 . S
C1134 H1153 0.913 . S
C1135 H1111 0.950 . S
C1135 C1134 1.524 . S
C1135 C1136 1.415 . S
C1136 H1112 0.950 . S
C1136 C1131 1.363 . S
C1136 C1135 1.415 . S
C1137 H1113 0.951 . S
C1137 C1138 1.366 . S
C1137 C1139 1.388 . S
C1138 C1137 1.366 . S
C1138 C1142 1.385 1_565 S
C1139 H1114 0.951 . S
C1139 C1137 1.388 . S
C1139 C1140 1.343 1_565 S
C1140 C1139 1.343 1_545 S
C1140 C1141 1.433 . S
C1140 C1143 1.502 . S
C1141 H1115 0.950 . S
C1141 C1140 1.433 . S
C1141 C1142 1.374 . S
C1142 H1116 0.950 . S
C1142 C1138 1.385 1_545 S
C1142 C1141 1.374 . S
C1143 C1140 1.502 . S
C1143 C1144 1.373 . S
C1143 C1145 1.389 1_545 S
C1144 H1117 0.950 . S
C1144 C1130 1.377 . S
C1144 C1143 1.373 . S
C1145 C1129 1.377 . S
C1145 C1143 1.389 1_565 S
C1145 C1146 1.524 . S
C1146 C1145 1.524 . S
C1146 C1147 1.397 . S
C1146 C1151 1.363 . S
C1147 H1118 0.950 1_565 S
C1147 C1146 1.397 . S
C1147 C1148 1.334 . S
C1148 H1119 0.950 . S
C1148 C1147 1.334 . S
C1148 C1149 1.287 . S
C1149 C1148 1.287 . S
C1149 C1150 1.524 . S
C1149 H1152 0.999 . S
C1150 H1120 0.950 . S
C1150 C1149 1.524 . S
C1150 C1151 1.415 . S
C1151 H1121 0.950 . S
C1151 C1146 1.363 . S
C1151 C1150 1.415 . S
H1152 C1149 0.999 . S
H1153 C1134 0.913 . S
H1154 C1172 0.951 . S
H1155 C1174 0.951 . S
H1156 C1176 0.950 . S
H1157 C1177 0.950 . S
H1158 C1179 0.950 . S
H1159 C1182 0.950 . S
H1160 C1183 0.950 . S
H1161 C1185 0.950 . S
H1162 C1186 0.950 . S
H1163 C1187 0.951 . S
H1164 C1189 0.951 . S
H1165 C1191 0.950 . S
H1166 C1192 0.950 . S
H1167 C1194 0.950 . S
H1168 C1197 0.950 . S
H1169 C1198 0.950 . S
H1170 C1200 0.950 . S
H1171 C1201 0.950 . S
C1172 H1154 0.951 . S
C1172 C1173 1.366 . S
C1172 C1174 1.388 . S
C1173 C1172 1.366 . S
C1173 C1177 1.385 . S
C1174 H1155 0.951 . S
C1174 C1172 1.388 . S
C1174 C1175 1.366 . S
C1175 C1174 1.366 . S
C1175 C1176 1.414 . S
C1175 C1178 1.499 . S
C1176 H1156 0.950 . S
C1176 C1175 1.414 . S
C1176 C1177 1.374 . S
C1177 H1157 0.950 . S
C1177 C1173 1.385 . S
C1177 C1176 1.374 . S
C1178 C1175 1.499 . S
C1178 C1179 1.373 . S
C1178 C1180 1.389 . S
C1179 H1158 0.950 . S
C1179 C1178 1.373 . S
C1179 C1195 1.377 . S
C1180 C1178 1.389 . S
C1180 C1181 1.524 . S
C1180 C1194 1.377 . S
C1181 C1180 1.524 . S
C1181 C1182 1.397 . S
C1181 C1186 1.363 . S
C1182 H1159 0.950 . S
C1182 C1181 1.397 . S
C1182 C1183 1.334 . S
C1183 H1160 0.950 . S
C1183 C1182 1.334 . S
C1183 C1184 1.287 . S
C1184 C1183 1.287 . S
C1184 C1185 1.524 . S
C1184 H1203 0.913 . S
C1185 H1161 0.950 . S
C1185 C1184 1.524 . S
C1185 C1186 1.415 . S
C1186 H1162 0.950 . S
C1186 C1181 1.363 . S
C1186 C1185 1.415 . S
C1187 H1163 0.951 . S
C1187 C1188 1.366 . S
C1187 C1189 1.388 1_554 S
C1188 C1187 1.366 . S
C1188 C1192 1.385 . S
C1189 H1164 0.951 . S
C1189 C1187 1.388 1_556 S
C1189 C1190 1.366 . S
C1190 C1189 1.366 . S
C1190 C1191 1.414 . S
C1190 C1193 1.499 . S
C1191 H1165 0.950 . S
C1191 C1190 1.414 . S
C1191 C1192 1.374 1_556 S
C1192 H1166 0.950 . S
C1192 C1188 1.385 . S
C1192 C1191 1.374 1_554 S
C1193 C1190 1.499 . S
C1193 C1194 1.373 . S
C1193 C1195 1.389 . S
C1194 H1167 0.950 . S
C1194 C1180 1.377 . S
C1194 C1193 1.373 . S
C1195 C1179 1.377 . S
C1195 C1193 1.389 . S
C1195 C1196 1.524 . S
C1196 C1195 1.524 . S
C1196 C1197 1.397 . S
C1196 C1201 1.363 . S
C1197 H1168 0.950 . S
C1197 C1196 1.397 . S
C1197 C1198 1.334 . S
C1198 H1169 0.950 . S
C1198 C1197 1.334 . S
C1198 C1199 1.287 . S
C1199 C1198 1.287 . S
C1199 C1200 1.524 . S
C1199 H1202 0.999 . S
C1200 H1170 0.950 . S
C1200 C1199 1.524 . S
C1200 C1201 1.415 . S
C1201 H1171 0.950 . S
C1201 C1196 1.363 . S
C1201 C1200 1.415 . S
H1202 C1199 0.999 . S
H1203 C1184 0.913 . S
H1204 C1222 0.951 . S
H1205 C1224 0.951 . S
H1206 C1226 0.950 . S
H1207 C1227 0.950 . S
H1208 C1229 0.950 . S
H1209 C1232 0.950 . S
H1210 C1233 0.950 . S
H1211 C1235 0.950 . S
H1212 C1236 0.950 . S
H1213 C1237 0.951 . S
H1214 C1239 0.951 . S
H1215 C1241 0.950 . S
H1216 C1242 0.950 . S
H1217 C1244 0.950 . S
H1218 C1247 0.950 . S
H1219 C1248 0.950 . S
H1220 C1250 0.950 . S
H1221 C1251 0.950 . S
C1222 H1204 0.951 . S
C1222 C1223 1.366 1_655 S
C1222 C1224 1.388 . S
C1223 C1222 1.366 1_455 S
C1223 C1227 1.385 . S
C1224 H1205 0.951 . S
C1224 C1222 1.388 . S
C1224 C1225 1.366 1_655 S
C1225 C1224 1.366 1_455 S
C1225 C1226 1.414 . S
C1225 C1228 1.499 . S
C1226 H1206 0.950 . S
C1226 C1225 1.414 . S
C1226 C1227 1.374 . S
C1227 H1207 0.950 . S
C1227 C1223 1.385 . S
C1227 C1226 1.374 . S
C1228 C1225 1.499 . S
C1228 C1229 1.373 . S
C1228 C1230 1.389 . S
C1229 H1208 0.950 . S
C1229 C1228 1.373 . S
C1229 C1245 1.377 . S
C1230 C1228 1.389 . S
C1230 C1231 1.524 1_455 S
C1230 C1244 1.377 1_455 S
C1231 C1230 1.524 1_655 S
C1231 C1232 1.397 1_655 S
C1231 C1236 1.363 . S
C1232 H1209 0.950 . S
C1232 C1231 1.397 1_455 S
C1232 C1233 1.334 . S
C1233 H1210 0.950 . S
C1233 C1232 1.334 . S
C1233 C1234 1.287 1_455 S
C1234 C1233 1.287 1_655 S
C1234 C1235 1.524 . S
C1234 H1253 0.913 . S
C1235 H1211 0.950 . S
C1235 C1234 1.524 . S
C1235 C1236 1.415 . S
C1236 H1212 0.950 . S
C1236 C1231 1.363 . S
C1236 C1235 1.415 . S
C1237 H1213 0.951 . S
C1237 C1238 1.390 . S
C1237 C1239 1.388 . S
C1238 C1237 1.390 . S
C1238 C1242 1.362 1_455 S
C1239 H1214 0.951 . S
C1239 C1237 1.388 . S
C1239 C1240 1.366 . S
C1240 C1239 1.366 . S
C1240 C1241 1.414 1_455 S
C1240 C1243 1.499 . S
C1241 H1215 0.950 . S
C1241 C1240 1.414 1_655 S
C1241 C1242 1.374 . S
C1242 H1216 0.950 . S
C1242 C1238 1.362 1_655 S
C1242 C1241 1.374 . S
C1243 C1240 1.499 . S
C1243 C1244 1.373 1_455 S
C1243 C1245 1.389 . S
C1244 H1217 0.950 . S
C1244 C1230 1.377 1_655 S
C1244 C1243 1.373 1_655 S
C1245 C1229 1.377 . S
C1245 C1243 1.389 . S
C1245 C1246 1.524 . S
C1246 C1245 1.524 . S
C1246 C1247 1.397 1_455 S
C1246 C1251 1.363 . S
C1247 H1218 0.950 . S
C1247 C1246 1.397 1_655 S
C1247 C1248 1.334 . S
C1248 H1219 0.950 . S
C1248 C1247 1.334 . S
C1248 C1249 1.287 1_655 S
C1249 C1248 1.287 1_455 S
C1249 C1250 1.524 . S
C1249 H1252 0.999 . S
C1250 H1220 0.950 . S
C1250 C1249 1.524 . S
C1250 C1251 1.415 . S
C1251 H1221 0.950 . S
C1251 C1246 1.363 . S
C1251 C1250 1.415 . S
H1252 C1249 0.999 . S
H1253 C1234 0.913 . S
C373 C7 0.473 . S
C388 C331 0.460 . S
C423 C51 1.869 . S
C438 C258 1.841 . S
C473 C87 1.155 . S
C488 C297 1.156 . S
C523 C16 0.321 . S
C538 C336 0.226 . S
C588 C253 1.939 . S
C573 C42 1.967 . S
C638 C292 1.268 . S
C623 C96 1.268 . S
C673 C47 1.158 . S
C688 C180 1.159 . S
C723 C91 3.081 . S
C738 C214 3.037 . S
C773 C2 1.997 . S
C788 C136 1.974 . S
C838 C175 1.249 . S
C823 C56 1.243 . S
C888 C219 2.899 . S
C873 C82 2.918 . S
C923 C11 1.860 . S
C938 C141 1.835 . S
C988 C199 1.760 . S
C973 C19 1.699 . S
C1023 C50 1.344 . S
C1038 C121 1.384 . S
C1073 C99 1.462 . S
C1088 C160 1.509 . S
C1138 C277 1.491 . S
C1123 C59 1.452 . S
C1188 C316 1.121 . S
C1173 C90 1.104 . S
C1223 C10 1.340 . S
C1238 C238 1.373 1_455 S
