# Generated by pormake.
# Topology ctn, (3,4)-cn, num edge types: 1
# Building blocks:
#     Node 0, Type 0, BuildingBlock: BELTOD_clean_linker_0, # of connection points: 3
#     Node 1, Type 0, BuildingBlock: BELTOD_clean_linker_0, # of connection points: 3
#     Node 2, Type 0, BuildingBlock: BELTOD_clean_linker_0, # of connection points: 3
#     Node 3, Type 0, BuildingBlock: BELTOD_clean_linker_0, # of connection points: 3
#     Node 4, Type 0, BuildingBlock: BELTOD_clean_linker_0, # of connection points: 3
#     Node 5, Type 0, BuildingBlock: BELTOD_clean_linker_0, # of connection points: 3
#     Node 6, Type 0, BuildingBlock: BELTOD_clean_linker_0, # of connection points: 3
#     Node 7, Type 0, BuildingBlock: BELTOD_clean_linker_0, # of connection points: 3
#     Node 8, Type 0, BuildingBlock: BELTOD_clean_linker_0, # of connection points: 3
#     Node 9, Type 0, BuildingBlock: BELTOD_clean_linker_0, # of connection points: 3
#     Node 10, Type 0, BuildingBlock: BELTOD_clean_linker_0, # of connection points: 3
#     Node 11, Type 0, BuildingBlock: BELTOD_clean_linker_0, # of connection points: 3
#     Node 12, Type 0, BuildingBlock: BELTOD_clean_linker_0, # of connection points: 3
#     Node 13, Type 0, BuildingBlock: BELTOD_clean_linker_0, # of connection points: 3
#     Node 14, Type 0, BuildingBlock: BELTOD_clean_linker_0, # of connection points: 3
#     Node 15, Type 0, BuildingBlock: BELTOD_clean_linker_0, # of connection points: 3
#     Node 16, Type 1, BuildingBlock: KUFVIS_clean_sbu_0, # of connection points: 4
#     Node 17, Type 1, BuildingBlock: KUFVIS_clean_sbu_0, # of connection points: 4
#     Node 18, Type 1, BuildingBlock: KUFVIS_clean_sbu_0, # of connection points: 4
#     Node 19, Type 1, BuildingBlock: KUFVIS_clean_sbu_0, # of connection points: 4
#     Node 20, Type 1, BuildingBlock: KUFVIS_clean_sbu_0, # of connection points: 4
#     Node 21, Type 1, BuildingBlock: KUFVIS_clean_sbu_0, # of connection points: 4
#     Node 22, Type 1, BuildingBlock: KUFVIS_clean_sbu_0, # of connection points: 4
#     Node 23, Type 1, BuildingBlock: KUFVIS_clean_sbu_0, # of connection points: 4
#     Node 24, Type 1, BuildingBlock: KUFVIS_clean_sbu_0, # of connection points: 4
#     Node 25, Type 1, BuildingBlock: KUFVIS_clean_sbu_0, # of connection points: 4
#     Node 26, Type 1, BuildingBlock: KUFVIS_clean_sbu_0, # of connection points: 4
#     Node 27, Type 1, BuildingBlock: KUFVIS_clean_sbu_0, # of connection points: 4
#     Edge 28, Type (0, 1), BuildingBlock: ZUJKAS_clean_linker_0, # of connection points: 2
#     Edge 29, Type (0, 1), BuildingBlock: ZUJKAS_clean_linker_0, # of connection points: 2
#     Edge 30, Type (0, 1), BuildingBlock: ZUJKAS_clean_linker_0, # of connection points: 2
#     Edge 31, Type (0, 1), BuildingBlock: ZUJKAS_clean_linker_0, # of connection points: 2
#     Edge 32, Type (0, 1), BuildingBlock: ZUJKAS_clean_linker_0, # of connection points: 2
#     Edge 33, Type (0, 1), BuildingBlock: ZUJKAS_clean_linker_0, # of connection points: 2
#     Edge 34, Type (0, 1), BuildingBlock: ZUJKAS_clean_linker_0, # of connection points: 2
#     Edge 35, Type (0, 1), BuildingBlock: ZUJKAS_clean_linker_0, # of connection points: 2
#     Edge 36, Type (0, 1), BuildingBlock: ZUJKAS_clean_linker_0, # of connection points: 2
#     Edge 37, Type (0, 1), BuildingBlock: ZUJKAS_clean_linker_0, # of connection points: 2
#     Edge 38, Type (0, 1), BuildingBlock: ZUJKAS_clean_linker_0, # of connection points: 2
#     Edge 39, Type (0, 1), BuildingBlock: ZUJKAS_clean_linker_0, # of connection points: 2
#     Edge 40, Type (0, 1), BuildingBlock: ZUJKAS_clean_linker_0, # of connection points: 2
#     Edge 41, Type (0, 1), BuildingBlock: ZUJKAS_clean_linker_0, # of connection points: 2
#     Edge 42, Type (0, 1), BuildingBlock: ZUJKAS_clean_linker_0, # of connection points: 2
#     Edge 43, Type (0, 1), BuildingBlock: ZUJKAS_clean_linker_0, # of connection points: 2
#     Edge 44, Type (0, 1), BuildingBlock: ZUJKAS_clean_linker_0, # of connection points: 2
#     Edge 45, Type (0, 1), BuildingBlock: ZUJKAS_clean_linker_0, # of connection points: 2
#     Edge 46, Type (0, 1), BuildingBlock: ZUJKAS_clean_linker_0, # of connection points: 2
#     Edge 47, Type (0, 1), BuildingBlock: ZUJKAS_clean_linker_0, # of connection points: 2
#     Edge 48, Type (0, 1), BuildingBlock: ZUJKAS_clean_linker_0, # of connection points: 2
#     Edge 49, Type (0, 1), BuildingBlock: ZUJKAS_clean_linker_0, # of connection points: 2
#     Edge 50, Type (0, 1), BuildingBlock: ZUJKAS_clean_linker_0, # of connection points: 2
#     Edge 51, Type (0, 1), BuildingBlock: ZUJKAS_clean_linker_0, # of connection points: 2
#     Edge 52, Type (0, 1), BuildingBlock: ZUJKAS_clean_linker_0, # of connection points: 2
#     Edge 53, Type (0, 1), BuildingBlock: ZUJKAS_clean_linker_0, # of connection points: 2
#     Edge 54, Type (0, 1), BuildingBlock: ZUJKAS_clean_linker_0, # of connection points: 2
#     Edge 55, Type (0, 1), BuildingBlock: ZUJKAS_clean_linker_0, # of connection points: 2
#     Edge 56, Type (0, 1), BuildingBlock: ZUJKAS_clean_linker_0, # of connection points: 2
#     Edge 57, Type (0, 1), BuildingBlock: ZUJKAS_clean_linker_0, # of connection points: 2
#     Edge 58, Type (0, 1), BuildingBlock: ZUJKAS_clean_linker_0, # of connection points: 2
#     Edge 59, Type (0, 1), BuildingBlock: ZUJKAS_clean_linker_0, # of connection points: 2
#     Edge 60, Type (0, 1), BuildingBlock: ZUJKAS_clean_linker_0, # of connection points: 2
#     Edge 61, Type (0, 1), BuildingBlock: ZUJKAS_clean_linker_0, # of connection points: 2
#     Edge 62, Type (0, 1), BuildingBlock: ZUJKAS_clean_linker_0, # of connection points: 2
#     Edge 63, Type (0, 1), BuildingBlock: ZUJKAS_clean_linker_0, # of connection points: 2
#     Edge 64, Type (0, 1), BuildingBlock: ZUJKAS_clean_linker_0, # of connection points: 2
#     Edge 65, Type (0, 1), BuildingBlock: ZUJKAS_clean_linker_0, # of connection points: 2
#     Edge 66, Type (0, 1), BuildingBlock: ZUJKAS_clean_linker_0, # of connection points: 2
#     Edge 67, Type (0, 1), BuildingBlock: ZUJKAS_clean_linker_0, # of connection points: 2
#     Edge 68, Type (0, 1), BuildingBlock: ZUJKAS_clean_linker_0, # of connection points: 2
#     Edge 69, Type (0, 1), BuildingBlock: ZUJKAS_clean_linker_0, # of connection points: 2
#     Edge 70, Type (0, 1), BuildingBlock: ZUJKAS_clean_linker_0, # of connection points: 2
#     Edge 71, Type (0, 1), BuildingBlock: ZUJKAS_clean_linker_0, # of connection points: 2
#     Edge 72, Type (0, 1), BuildingBlock: ZUJKAS_clean_linker_0, # of connection points: 2
#     Edge 73, Type (0, 1), BuildingBlock: ZUJKAS_clean_linker_0, # of connection points: 2
#     Edge 74, Type (0, 1), BuildingBlock: ZUJKAS_clean_linker_0, # of connection points: 2
#     Edge 75, Type (0, 1), BuildingBlock: ZUJKAS_clean_linker_0, # of connection points: 2
# Relax obj value: 0.013
# Max RMSD: 0.066
# Mean RMSD: 0.034
data_MOF--net-ctn--node1-KUFVIS_clean_sbu_0--node2-BELTOD_clean_linker_0--edge1-ZUJKAS_clean_linker_0
_symmetry_space_group_name_H-M    P1
_symmetry_Int_Tables_number       1
_symmetry_cell_setting            triclinic
loop_
_symmetry_equiv_pos_as_xyz
'x, y, z'
_cell_length_a     78.062254
_cell_length_b     78.429564
_cell_length_c     78.124266
_cell_angle_alpha  90.251392
_cell_angle_beta   90.351992
_cell_angle_gamma 92.183191
loop_
_atom_site_label
_atom_site_type_symbol
_atom_site_fract_x
_atom_site_fract_y
_atom_site_fract_z
_atom_type_partial_charge
P0 P 0.06372 0.06457 0.06521 0.0
H1 H 0.06468 0.05796 0.10178 0.0
H2 H 0.04346 0.04667 0.12195 0.0
H3 H 0.00715 0.0387 0.0804 0.0
H4 H 0.0285 0.05039 0.06029 0.0
H5 H 0.10006 0.06589 0.05697 0.0
H6 H 0.11985 0.0443 0.04797 0.0
H7 H 0.07833 0.00624 0.04795 0.0
H8 H 0.05848 0.02809 0.0567 0.0
H9 H 0.03635 0.08865 0.06437 0.0
H10 H 0.07024 0.06603 0.02808 0.0
O11 O 0.07545 0.07911 0.07626 0.0
H12 H 0.02553 0.10708 0.04198 0.0
H13 H 0.05929 0.08423 0.00552 0.0
C14 C 0.04802 0.05538 0.07963 0.0
C15 C 0.05214 0.05381 0.09701 0.0
C16 C 0.04002 0.04719 0.10851 0.0
C17 C 0.02354 0.04183 0.10283 0.0
C18 C 0.01962 0.04298 0.08526 0.0
C19 C 0.03181 0.04962 0.07374 0.0
C20 C 0.07789 0.04851 0.05786 0.0
C21 C 0.09521 0.05289 0.05507 0.0
C22 C 0.10654 0.04051 0.04999 0.0
C23 C 0.10074 0.02347 0.04748 0.0
C24 C 0.08321 0.01924 0.04974 0.0
C25 C 0.07187 0.03169 0.05485 0.0
C26 C 0.0539 0.07578 0.04786 0.0
C27 C 0.04116 0.08736 0.05147 0.0
C28 C 0.03497 0.09789 0.03863 0.0
C29 C 0.04154 0.09717 0.02192 0.0
C30 C 0.05407 0.08525 0.01828 0.0
C31 C 0.06024 0.0747 0.03115 0.0
P32 P 0.33286 0.68089 0.17647 0.0
H33 H 0.34987 0.70102 0.14992 0.0
H34 H 0.34177 0.72598 0.13372 0.0
H35 H 0.29517 0.72828 0.16314 0.0
H36 H 0.3032 0.70291 0.17896 0.0
H37 H 0.36104 0.66371 0.19273 0.0
H38 H 0.37897 0.67042 0.2177 0.0
H39 H 0.35016 0.71553 0.22699 0.0
H40 H 0.33264 0.70896 0.20156 0.0
H41 H 0.31477 0.65235 0.15934 0.0
H42 H 0.30975 0.68116 0.20605 0.0
O43 O 0.34465 0.66952 0.16317 0.0
H44 H 0.29031 0.63391 0.16733 0.0
H45 H 0.28482 0.66312 0.21392 0.0
C46 C 0.32696 0.69989 0.16536 0.0
C47 C 0.33788 0.70687 0.15286 0.0
C48 C 0.3333 0.72128 0.14371 0.0
C49 C 0.31775 0.72915 0.14704 0.0
C50 C 0.30707 0.72238 0.16001 0.0
C51 C 0.31167 0.70789 0.16912 0.0
C52 C 0.34576 0.68602 0.1951 0.0
C53 C 0.35866 0.67511 0.20008 0.0
C54 C 0.3688 0.67888 0.21449 0.0
C55 C 0.36607 0.69356 0.22439 0.0
C56 C 0.35284 0.7043 0.21951 0.0
C57 C 0.34276 0.70053 0.205 0.0
C58 C 0.31428 0.66791 0.18225 0.0
C59 C 0.30835 0.65475 0.17131 0.0
C60 C 0.29422 0.6443 0.17583 0.0
C61 C 0.28558 0.64695 0.19132 0.0
C62 C 0.29134 0.66049 0.20206 0.0
C63 C 0.30556 0.67087 0.19755 0.0
P64 P 0.9871 0.48869 0.02101 0.0
H65 H 0.98392 0.47764 0.98556 0.0
H66 H 0.98481 0.44968 0.97169 0.0
H67 H 0.98717 0.42572 0.02129 0.0
H68 H 0.98624 0.45373 0.03508 0.0
H69 H 0.97918 0.52363 0.0122 0.0
H70 H 0.9524 0.53847 0.00966 0.0
H71 H 0.92412 0.49243 0.02423 0.0
H72 H 0.95118 0.47758 0.0268 0.0
H73 H 0.01842 0.47593 0.03533 0.0
H74 H 0.97343 0.4998 0.05437 0.0
O75 O 1.0018 0.4999 0.0099 0.0
H76 H 0.0307 0.47613 0.06416 0.0
H77 H 0.98554 0.49987 0.08333 0.0
C78 C 0.98534 0.4678 0.01131 0.0
C79 C 0.98444 0.46634 0.99345 0.0
C80 C 0.9849 0.45034 0.98554 0.0
C81 C 0.98627 0.43548 0.99539 0.0
C82 C 0.98645 0.43695 0.01335 0.0
C83 C 0.98586 0.45297 0.02125 0.0
C84 C 0.96713 0.49942 0.01938 0.0
C85 C 0.96723 0.51666 0.01475 0.0
C86 C 0.95189 0.52514 0.01325 0.0
C87 C 0.9361 0.51659 0.01655 0.0
C88 C 0.93607 0.49938 0.02162 0.0
C89 C 0.95149 0.49085 0.023 0.0
C90 C 0.99502 0.48778 0.0427 0.0
C91 C 0.0111 0.48102 0.04578 0.0
C92 C 0.01806 0.48107 0.06229 0.0
C93 C 0.00909 0.488 0.07608 0.0
C94 C 0.99284 0.49458 0.07297 0.0
C95 C 0.98585 0.49446 0.05641 0.0
P96 P 0.67732 0.82643 0.18103 0.0
H97 H 0.69381 0.85371 0.16123 0.0
H98 H 0.71792 0.87369 0.16715 0.0
H99 H 0.72498 0.85027 0.21656 0.0
H100 H 0.70111 0.83004 0.2103 0.0
H101 H 0.65822 0.80296 0.15845 0.0
H102 H 0.66673 0.77976 0.13976 0.0
H103 H 0.71919 0.78735 0.15706 0.0
H104 H 0.71044 0.81018 0.17613 0.0
H105 H 0.66544 0.84622 0.2098 0.0
H106 H 0.66469 0.79322 0.19476 0.0
O107 O 0.66336 0.83709 0.16934 0.0
H108 H 0.64824 0.83887 0.23493 0.0
H109 H 0.64759 0.78575 0.21992 0.0
C110 C 0.69542 0.84071 0.1855 0.0
C111 C 0.70054 0.85291 0.17335 0.0
C112 C 0.71429 0.86436 0.17678 0.0
C113 C 0.72327 0.86375 0.19243 0.0
C114 C 0.71841 0.85108 0.20436 0.0
C115 C 0.70465 0.8396 0.20087 0.0
C116 C 0.68373 0.80847 0.16845 0.0
C117 C 0.67154 0.79955 0.15828 0.0
C118 C 0.67645 0.78635 0.14752 0.0
C119 C 0.69371 0.78183 0.14669 0.0
C120 C 0.70579 0.79043 0.15742 0.0
C121 C 0.70082 0.80359 0.16825 0.0
C122 C 0.66649 0.82028 0.20049 0.0
C123 C 0.66181 0.83296 0.21207 0.0
C124 C 0.65201 0.82873 0.22646 0.0
C125 C 0.64652 0.81172 0.22943 0.0
C126 C 0.65146 0.799 0.2179 0.0
C127 C 0.66135 0.80325 0.20354 0.0
P128 P 0.05348 0.9481 0.4577 0.0
H129 H 0.09014 0.94672 0.46409 0.0
H130 H 0.11164 0.96758 0.47473 0.0
H131 H 0.07207 0.00391 0.4824 0.0
H132 H 0.05064 0.98295 0.47133 0.0
H133 H 0.04021 0.91298 0.45644 0.0
H134 H 0.03003 0.89301 0.47834 0.0
H135 H 0.03784 0.93225 0.51692 0.0
H136 H 0.0482 0.95216 0.49486 0.0
H137 H 0.05412 0.97565 0.43283 0.0
H138 H 0.01596 0.94218 0.45616 0.0
O139 O 0.06372 0.9363 0.4435 0.0
H140 H 0.0323 0.98655 0.4136 0.0
H141 H 0.99409 0.9531 0.43711 0.0
C142 C 0.06889 0.96344 0.46654 0.0
C143 C 0.08609 0.95918 0.46804 0.0
C144 C 0.09836 0.9711 0.4743 0.0
C145 C 0.09363 0.98749 0.47935 0.0
C146 C 0.07621 0.99151 0.47834 0.0
C147 C 0.06394 0.97955 0.47206 0.0
C148 C 0.04525 0.93394 0.47407 0.0
C149 C 0.03973 0.91729 0.46962 0.0
C150 C 0.03377 0.90593 0.48214 0.0
C151 C 0.03317 0.91101 0.49941 0.0
C152 C 0.03837 0.92787 0.50377 0.0
C153 C 0.04425 0.93928 0.49117 0.0
C154 C 0.03668 0.95824 0.44607 0.0
C155 C 0.04097 0.97095 0.43411 0.0
C156 C 0.02847 0.97719 0.42312 0.0
C157 C 0.01146 0.97064 0.42376 0.0
C158 C 0.00711 0.95827 0.43616 0.0
C159 C 0.01962 0.9521 0.44717 0.0
P160 P 0.21322 0.7107 0.79847 0.0
H161 H 0.23796 0.73479 0.81406 0.0
H162 H 0.23863 0.7503 0.84121 0.0
H163 H 0.19123 0.72425 0.85592 0.0
H164 H 0.19083 0.7085 0.8287 0.0
H165 H 0.23157 0.693 0.77194 0.0
H166 H 0.24885 0.66773 0.77205 0.0
H167 H 0.23741 0.66007 0.82559 0.0
H168 H 0.21979 0.68527 0.82525 0.0
H169 H 0.18378 0.73227 0.80043 0.0
H170 H 0.19522 0.6835 0.77846 0.0
O171 O 0.22314 0.72392 0.78473 0.0
H172 H 0.15568 0.73088 0.78653 0.0
H173 H 0.16705 0.68198 0.76453 0.0
C174 C 0.2141 0.72087 0.8192 0.0
C175 C 0.22772 0.73239 0.82313 0.0
C176 C 0.22805 0.74129 0.83864 0.0
C177 C 0.21481 0.73874 0.8506 0.0
C178 C 0.20161 0.72652 0.84697 0.0
C179 C 0.20129 0.71761 0.83139 0.0
C180 C 0.22469 0.6912 0.79865 0.0
C181 C 0.23274 0.68586 0.78369 0.0
C182 C 0.24269 0.67145 0.78381 0.0
C183 C 0.24476 0.66202 0.79891 0.0
C184 C 0.23608 0.66703 0.81374 0.0
C185 C 0.22607 0.68149 0.8136 0.0
C186 C 0.19148 0.70783 0.79081 0.0
C187 C 0.18006 0.72103 0.793 0.0
C188 C 0.16398 0.72022 0.78502 0.0
C189 C 0.15911 0.7063 0.77443 0.0
C190 C 0.17047 0.69293 0.77252 0.0
C191 C 0.18654 0.69371 0.78061 0.0
P192 P 0.99183 0.5196 0.48882 0.0
H193 H 0.02404 0.53272 0.47497 0.0
H194 H 0.03709 0.53102 0.44675 0.0
H195 H 0.99097 0.50543 0.42713 0.0
H196 H 0.97819 0.50681 0.45557 0.0
H197 H 0.99482 0.53127 0.52408 0.0
H198 H 0.99609 0.55952 0.53734 0.0
H199 H 0.99076 0.58255 0.48752 0.0
H200 H 0.98919 0.55408 0.47436 0.0
H201 H 0.97911 0.48525 0.49742 0.0
H202 H 0.95769 0.5328 0.48232 0.0
O203 O 0.0049 0.50777 0.50039 0.0
H204 H 0.95035 0.4722 0.49969 0.0
H205 H 0.92871 0.51983 0.48474 0.0
C206 C 1.00014 0.52001 0.46736 0.0
C207 C 0.01667 0.52693 0.46453 0.0
C208 C 0.02409 0.526 0.44834 0.0
C209 C 0.0151 0.51807 0.43461 0.0
C210 C 0.99834 0.51142 0.43745 0.0
C211 C 0.99095 0.51234 0.4537 0.0
C212 C 0.99231 0.54062 0.49823 0.0
C213 C 0.994 0.5424 0.516 0.0
C214 C 0.99481 0.55858 0.52356 0.0
C215 C 0.99381 0.57333 0.51348 0.0
C216 C 0.99158 0.57146 0.49566 0.0
C217 C 0.99079 0.5552 0.4881 0.0
C218 C 0.97051 0.51008 0.49001 0.0
C219 C 0.96819 0.49293 0.4947 0.0
C220 C 0.95172 0.48549 0.49607 0.0
C221 C 0.93721 0.49503 0.49261 0.0
C222 C 0.93961 0.51213 0.48747 0.0
C223 C 0.95614 0.51959 0.48617 0.0
P224 P 0.82819 0.83453 0.8313 0.0
H225 H 0.85199 0.8548 0.81039 0.0
H226 H 0.87015 0.84777 0.78614 0.0
H227 H 0.84865 0.79618 0.78621 0.0
H228 H 0.83062 0.8033 0.81053 0.0
H229 H 0.8078 0.85781 0.85091 0.0
H230 H 0.78291 0.87444 0.84388 0.0
H231 H 0.78218 0.85315 0.79274 0.0
H232 H 0.8069 0.83624 0.80006 0.0
H233 H 0.84966 0.80925 0.84664 0.0
H234 H 0.7956 0.81818 0.84303 0.0
O235 O 0.84072 0.84722 0.84365 0.0
H236 H 0.84353 0.78414 0.86431 0.0
H237 H 0.78937 0.79344 0.86109 0.0
C238 C 0.84028 0.82948 0.8125 0.0
C239 C 0.85116 0.842 0.80513 0.0
C240 C 0.86145 0.83799 0.7912 0.0
C241 C 0.86099 0.82135 0.78436 0.0
C242 C 0.84955 0.80901 0.7914 0.0
C243 C 0.8392 0.81308 0.80528 0.0
C244 C 0.8094 0.84609 0.82591 0.0
C245 C 0.80227 0.85673 0.83819 0.0
C246 C 0.78808 0.86628 0.83412 0.0
C247 C 0.78066 0.86532 0.81767 0.0
C248 C 0.78752 0.85416 0.80555 0.0
C249 C 0.80174 0.84457 0.80966 0.0
C250 C 0.82312 0.81558 0.84353 0.0
C251 C 0.83646 0.80578 0.84966 0.0
C252 C 0.83293 0.7915 0.85987 0.0
C253 C 0.81595 0.78678 0.86423 0.0
C254 C 0.80258 0.79656 0.85784 0.0
C255 C 0.80614 0.81082 0.84757 0.0
P256 P 0.32916 0.33509 0.33054 0.0
H257 H 0.35876 0.35141 0.31363 0.0
H258 H 0.37613 0.34314 0.28933 0.0
H259 H 0.34256 0.29865 0.28124 0.0
H260 H 0.3256 0.30679 0.306 0.0
H261 H 0.30899 0.35856 0.35016 0.0
H262 H 0.28422 0.37538 0.34317 0.0
H263 H 0.28331 0.35418 0.292 0.0
H264 H 0.30786 0.3371 0.29925 0.0
H265 H 0.35026 0.30841 0.34376 0.0
H266 H 0.29677 0.32023 0.34442 0.0
O267 O 0.3418 0.34765 0.34292 0.0
H268 H 0.34418 0.28344 0.36165 0.0
H269 H 0.29063 0.29556 0.36264 0.0
C270 C 0.3411 0.32954 0.31179 0.0
C271 C 0.35515 0.33988 0.30663 0.0
C272 C 0.365 0.33519 0.2926 0.0
C273 C 0.36085 0.32014 0.28334 0.0
C274 C 0.34636 0.31013 0.28826 0.0
C275 C 0.33658 0.3148 0.30236 0.0
C276 C 0.31047 0.34683 0.32514 0.0
C277 C 0.30345 0.35754 0.33743 0.0
C278 C 0.28932 0.3672 0.33339 0.0
C279 C 0.28187 0.36631 0.31695 0.0
C280 C 0.28866 0.35513 0.30481 0.0
C281 C 0.3028 0.34543 0.3089 0.0
C282 C 0.32399 0.31614 0.3427 0.0
C283 C 0.33719 0.30558 0.34771 0.0
C284 C 0.33371 0.29139 0.35806 0.0
C285 C 0.31692 0.28751 0.36367 0.0
C286 C 0.30367 0.29804 0.3584 0.0
C287 C 0.30718 0.31224 0.34803 0.0
P288 P 0.48366 0.98877 0.52261 0.0
H289 H 0.49032 0.97914 0.48722 0.0
H290 H 0.49111 0.95164 0.47254 0.0
H291 H 0.47532 0.92614 0.5191 0.0
H292 H 0.47424 0.95384 0.53361 0.0
H293 H 0.47516 0.02448 0.52397 0.0
H294 H 0.44821 0.03916 0.52233 0.0
H295 H 0.42043 0.99054 0.51876 0.0
H296 H 0.44761 0.9759 0.52026 0.0
H297 H 0.51038 0.96804 0.53687 0.0
H298 H 0.47572 0.00532 0.55547 0.0
O299 O 0.49792 1.00136 0.51239 0.0
H300 H 0.52411 0.96722 0.56496 0.0
H301 H 0.4898 0.0051 0.58341 0.0
C302 C 0.48257 0.96849 0.51159 0.0
C303 C 0.48697 0.96764 0.49426 0.0
C304 C 0.48752 0.95188 0.4859 0.0
C305 C 0.48356 0.93664 0.4947 0.0
C306 C 0.47843 0.93762 0.51192 0.0
C307 C 0.47789 0.95343 0.52027 0.0
C308 C 0.46342 0.99912 0.52199 0.0
C309 C 0.46328 0.01696 0.52283 0.0
C310 C 0.44783 0.02535 0.52202 0.0
C311 C 0.43214 0.01604 0.52039 0.0
C312 C 0.4323 0.99809 0.5198 0.0
C313 C 0.44782 0.9897 0.52072 0.0
C314 C 0.49179 0.98648 0.54411 0.0
C315 C 0.50553 0.97585 0.54708 0.0
C316 C 0.51352 0.97556 0.56312 0.0
C317 C 0.50816 0.98617 0.57649 0.0
C318 C 0.49413 0.99657 0.57354 0.0
C319 C 0.48608 0.99676 0.55748 0.0
P320 P 0.17482 0.32706 0.67916 0.0
H321 H 0.18493 0.36168 0.66827 0.0
H322 H 0.20849 0.38134 0.67666 0.0
H323 H 0.22637 0.34418 0.71264 0.0
H324 H 0.20251 0.32462 0.70432 0.0
H325 H 0.16094 0.29232 0.67301 0.0
H326 H 0.17074 0.26883 0.6553 0.0
H327 H 0.21669 0.29866 0.64313 0.0
H328 H 0.20674 0.3221 0.66062 0.0
H329 H 0.14404 0.34143 0.69318 0.0
H330 H 0.17763 0.30093 0.70588 0.0
O331 O 0.16241 0.33663 0.66493 0.0
H332 H 0.12636 0.33439 0.71795 0.0
H333 H 0.16017 0.29398 0.73106 0.0
C334 C 0.1919 0.34175 0.68578 0.0
C335 C 0.19384 0.35777 0.67803 0.0
C336 C 0.20742 0.36898 0.68275 0.0
C337 C 0.21935 0.36433 0.6953 0.0
C338 C 0.21729 0.34824 0.70309 0.0
C339 C 0.2037 0.33703 0.69833 0.0
C340 C 0.18329 0.30881 0.66851 0.0
C341 C 0.1733 0.29364 0.66685 0.0
C342 C 0.17892 0.28022 0.65671 0.0
C343 C 0.19451 0.28187 0.64779 0.0
C344 C 0.20457 0.29703 0.6497 0.0
C345 C 0.19896 0.31039 0.65988 0.0
C346 C 0.16192 0.32146 0.69748 0.0
C347 C 0.14759 0.33097 0.7013 0.0
C348 C 0.13758 0.32703 0.71561 0.0
C349 C 0.1418 0.31359 0.72653 0.0
C350 C 0.15639 0.30424 0.72279 0.0
C351 C 0.16641 0.30822 0.70843 0.0
P352 P 0.83283 0.17939 0.67439 0.0
H353 H 0.82795 0.18602 0.63805 0.0
H354 H 0.81935 0.211 0.62217 0.0
H355 H 0.81357 0.23846 0.66975 0.0
H356 H 0.8226 0.21344 0.68556 0.0
H357 H 0.87012 0.18134 0.67826 0.0
H358 H 0.88906 0.18859 0.70248 0.0
H359 H 0.84494 0.19813 0.73372 0.0
H360 H 0.82601 0.19068 0.70943 0.0
H361 H 0.79524 0.18303 0.67291 0.0
H362 H 0.83101 0.14705 0.69213 0.0
O363 O 0.84381 0.16735 0.66098 0.0
H364 H 0.77129 0.16401 0.68156 0.0
H365 H 0.80715 0.12807 0.70099 0.0
C366 C 0.82627 0.19797 0.66296 0.0
C367 C 0.82494 0.19744 0.64508 0.0
C368 C 0.81985 0.21171 0.63601 0.0
C369 C 0.81579 0.22679 0.64467 0.0
C370 C 0.81687 0.22717 0.66266 0.0
C371 C 0.822 0.21284 0.67173 0.0
C372 C 0.84667 0.18529 0.69213 0.0
C373 C 0.8645 0.18493 0.69033 0.0
C374 C 0.87532 0.18904 0.70418 0.0
C375 C 0.86847 0.19384 0.72001 0.0
C376 C 0.85058 0.19456 0.72165 0.0
C377 C 0.83976 0.19025 0.70782 0.0
C378 C 0.81491 0.16639 0.68183 0.0
C379 C 0.79796 0.17112 0.67912 0.0
C380 C 0.78426 0.16026 0.68414 0.0
C381 C 0.78732 0.14447 0.69184 0.0
C382 C 0.80436 0.14 0.69483 0.0
C383 C 0.818 0.15088 0.68988 0.0
P384 P 0.56114 0.56126 0.56459 0.0
H385 H 0.56278 0.54117 0.59559 0.0
H386 H 0.54094 0.52985 0.61523 0.0
H387 H 0.5013 0.54804 0.5819 0.0
H388 H 0.5232 0.55929 0.56229 0.0
H389 H 0.59667 0.5641 0.55377 0.0
H390 H 0.61692 0.54327 0.54388 0.0
H391 H 0.57724 0.50346 0.54704 0.0
H392 H 0.55694 0.52453 0.55659 0.0
H393 H 0.54186 0.59212 0.566 0.0
H394 H 0.56159 0.55954 0.52674 0.0
O395 O 0.57269 0.57423 0.57756 0.0
H396 H 0.5316 0.61147 0.54409 0.0
H397 H 0.55133 0.57886 0.50471 0.0
C398 C 0.54466 0.55122 0.57759 0.0
C399 C 0.54938 0.54254 0.59242 0.0
C400 C 0.53688 0.53602 0.6036 0.0
C401 C 0.51938 0.53815 0.60019 0.0
C402 C 0.51468 0.54642 0.58501 0.0
C403 C 0.52721 0.55283 0.57376 0.0
C404 C 0.57543 0.54579 0.55625 0.0
C405 C 0.59233 0.55089 0.55231 0.0
C406 C 0.60392 0.53894 0.54674 0.0
C407 C 0.5988 0.52163 0.54492 0.0
C408 C 0.58161 0.51668 0.54827 0.0
C409 C 0.57001 0.52869 0.55385 0.0
C410 C 0.55252 0.57444 0.54802 0.0
C411 C 0.54384 0.58907 0.55264 0.0
C412 C 0.53791 0.60007 0.54009 0.0
C413 C 0.54067 0.59672 0.52265 0.0
C414 C 0.54917 0.58188 0.51805 0.0
C415 C 0.55498 0.57078 0.53064 0.0
P416 P 0.55266 0.4512 0.95951 0.0
H417 H 0.58767 0.44812 0.97156 0.0
H418 H 0.60945 0.46884 0.98204 0.0
H419 H 0.57293 0.50875 0.97829 0.0
H420 H 0.55125 0.4879 0.96757 0.0
H421 H 0.53553 0.41772 0.95788 0.0
H422 H 0.52473 0.398 0.97973 0.0
H423 H 0.53798 0.43536 0.01893 0.0
H424 H 0.54902 0.45494 0.99693 0.0
H425 H 0.55547 0.47193 0.92898 0.0
H426 H 0.51492 0.4528 0.96172 0.0
O427 O 0.56335 0.43871 0.9463 0.0
H428 H 0.53432 0.48361 0.90957 0.0
H429 H 0.49363 0.46467 0.94249 0.0
C430 C 0.568 0.46655 0.96846 0.0
C431 C 0.58435 0.46133 0.97304 0.0
C432 C 0.59675 0.47318 0.97916 0.0
C433 C 0.59298 0.4905 0.98091 0.0
C434 C 0.57634 0.49557 0.97682 0.0
C435 C 0.56392 0.48366 0.97073 0.0
C436 C 0.54333 0.43765 0.97581 0.0
C437 C 0.53602 0.42169 0.97118 0.0
C438 C 0.52973 0.41047 0.98369 0.0
C439 C 0.53056 0.41504 1.00113 0.0
C440 C 0.5374 0.43133 0.00566 0.0
C441 C 0.54366 0.44257 0.99308 0.0
C442 C 0.53678 0.46141 0.9467 0.0
C443 C 0.542 0.47046 0.9321 0.0
C444 C 0.52987 0.47723 0.92107 0.0
C445 C 0.51224 0.47504 0.92443 0.0
C446 C 0.50709 0.46639 0.93941 0.0
C447 C 0.51926 0.45965 0.95046 0.0
P448 P 0.71668 0.21312 0.29902 0.0
H449 H 0.7418 0.23462 0.31749 0.0
H450 H 0.74071 0.25069 0.34427 0.0
H451 H 0.68892 0.2311 0.35241 0.0
H452 H 0.69024 0.2148 0.3256 0.0
H453 H 0.72263 0.18698 0.27354 0.0
H454 H 0.73808 0.16049 0.27434 0.0
H455 H 0.74644 0.16725 0.32871 0.0
H456 H 0.73102 0.19379 0.32779 0.0
H457 H 0.69634 0.24049 0.28646 0.0
H458 H 0.691 0.18569 0.28978 0.0
O459 O 0.72989 0.2246 0.28647 0.0
H460 H 0.66912 0.2412 0.27101 0.0
H461 H 0.66404 0.18619 0.27369 0.0
C462 C 0.71597 0.22386 0.3194 0.0
C463 C 0.73021 0.23378 0.32504 0.0
C464 C 0.72954 0.24301 0.34032 0.0
C465 C 0.71462 0.2424 0.35033 0.0
C466 C 0.70059 0.23184 0.34499 0.0
C467 C 0.70128 0.22261 0.32963 0.0
C468 C 0.72548 0.19227 0.30061 0.0
C469 C 0.72747 0.18256 0.2857 0.0
C470 C 0.73629 0.1674 0.28619 0.0
C471 C 0.74351 0.16175 0.3016 0.0
C472 C 0.74115 0.17133 0.31662 0.0
C473 C 0.73221 0.18646 0.31612 0.0
C474 C 0.69586 0.21304 0.28894 0.0
C475 C 0.68929 0.22859 0.28381 0.0
C476 C 0.67378 0.22896 0.27486 0.0
C477 C 0.6645 0.21373 0.2708 0.0
C478 C 0.67081 0.19817 0.27661 0.0
C479 C 0.68634 0.19784 0.28568 0.0
P480 P 0.49116 0.01953 0.98895 0.0
H481 H 0.52426 0.03098 0.9759 0.0
H482 H 0.53725 0.03015 0.94758 0.0
H483 H 0.48958 0.00929 0.92646 0.0
H484 H 0.47678 0.00991 0.95494 0.0
H485 H 0.49795 0.03085 0.02399 0.0
H486 H 0.49949 0.05894 0.03764 0.0
H487 H 0.48746 0.08226 0.98924 0.0
H488 H 0.48583 0.05396 0.97566 0.0
H489 H 0.47842 0.98437 0.98592 0.0
H490 H 0.4569 0.03364 0.99351 0.0
O491 O 0.50391 0.00708 1.00019 0.0
H492 H 0.44989 0.97069 0.98833 0.0
H493 H 0.42826 0.02007 0.99575 0.0
C494 C 0.4996 0.02048 0.96755 0.0
C495 C 0.51657 0.02638 0.96513 0.0
C496 C 0.52395 0.02596 0.9489 0.0
C497 C 0.51448 0.01961 0.93471 0.0
C498 C 0.49731 0.01404 0.93714 0.0
C499 C 0.48993 0.01448 0.95343 0.0
C500 C 0.49212 0.04038 0.99876 0.0
C501 C 0.49575 0.04201 0.01628 0.0
C502 C 0.49669 0.05809 0.02406 0.0
C503 C 0.4938 0.07286 0.01448 0.0
C504 C 0.48973 0.07113 0.99697 0.0
C505 C 0.4889 0.055 0.98917 0.0
C506 C 0.46982 0.00997 0.98976 0.0
C507 C 0.46752 0.99225 0.98803 0.0
C508 C 0.45118 0.98446 0.98932 0.0
C509 C 0.43679 0.99428 0.99232 0.0
C510 C 0.43911 0.01212 0.9937 0.0
C511 C 0.45549 0.01991 0.99235 0.0
Mn512 Mn 0.2502 0.87391 0.00941 0.0
Mn513 Mn 0.24782 0.8902 0.96961 0.0
C514 C 0.23592 0.85851 0.98784 0.0
C515 C 0.26417 0.85811 0.03017 0.0
C516 C 0.22664 0.90251 0.99939 0.0
O517 O 0.26916 0.89264 0.00949 0.0
O518 O 0.26791 0.90081 0.98189 0.0
C519 C 0.27942 0.87671 0.95477 0.0
N520 N 0.2621 0.87822 0.95426 0.0
C521 C 0.25979 0.86195 0.9281 0.0
C522 C 0.27761 0.86027 0.92831 0.0
C523 C 0.28746 0.86765 0.94173 0.0
C524 C 0.2525 0.87111 0.94145 0.0
H525 H 0.28702 0.88238 0.96507 0.0
C526 C 0.27479 0.90146 0.99684 0.0
O527 O 0.25334 0.86957 0.03431 0.0
O528 O 0.26725 0.85619 0.01398 0.0
N529 N 0.22904 0.88084 0.95634 0.0
C530 C 0.21194 0.88288 0.95853 0.0
C531 C 0.20029 0.87632 0.9462 0.0
C532 C 0.20634 0.86778 0.93175 0.0
C533 C 0.22398 0.86555 0.92992 0.0
C534 C 0.235 0.87262 0.94249 0.0
H535 H 0.20721 0.8896 0.96951 0.0
O536 O 0.23251 0.85548 0.0038 0.0
O537 O 0.24746 0.87054 0.98504 0.0
O538 O 0.23178 0.89178 0.01031 0.0
O539 O 0.23229 0.9033 0.9841 0.0
C540 C 0.23106 0.85655 0.91619 0.0
C541 C 0.24894 0.85466 0.91533 0.0
H542 H 0.28386 0.85326 0.9183 0.0
H543 H 0.30121 0.86636 0.94201 0.0
H544 H 0.18668 0.87795 0.94776 0.0
H545 H 0.19731 0.8629 0.92218 0.0
H546 H 0.22285 0.85085 0.90633 0.0
H547 H 0.25421 0.8475 0.90485 0.0
Mn548 Mn 0.13683 0.50377 0.25413 0.0
Mn549 Mn 0.12182 0.54357 0.25292 0.0
C550 C 0.15238 0.52548 0.24063 0.0
C551 C 0.15261 0.48274 0.26736 0.0
C552 C 0.10826 0.51482 0.2299 0.0
O553 O 0.11866 0.5031 0.27281 0.0
O554 O 0.11036 0.53028 0.27152 0.0
C555 C 0.13566 0.55612 0.28622 0.0
N556 N 0.1344 0.55774 0.26892 0.0
C557 C 0.15215 0.58351 0.26943 0.0
C558 C 0.15356 0.58216 0.28727 0.0
C559 C 0.14533 0.56837 0.29569 0.0
C560 C 0.14239 0.57088 0.26067 0.0
H561 H 0.12933 0.54555 0.29275 0.0
C562 C 0.10964 0.51531 0.27807 0.0
O563 O 0.14052 0.47884 0.25639 0.0
O564 O 0.1551 0.49879 0.27108 0.0
N565 N 0.13189 0.55794 0.23567 0.0
C566 C 0.12979 0.55703 0.21836 0.0
C567 C 0.13754 0.56968 0.208 0.0
C568 C 0.14717 0.58324 0.21556 0.0
C569 C 0.14893 0.58404 0.23342 0.0
C570 C 0.14095 0.57106 0.24308 0.0
H571 H 0.12233 0.54668 0.21248 0.0
O572 O 0.15483 0.50966 0.23681 0.0
O573 O 0.14098 0.52814 0.25231 0.0
O574 O 0.11819 0.50352 0.2355 0.0
O575 O 0.10842 0.53008 0.23571 0.0
C576 C 0.1584 0.59716 0.242 0.0
C577 C 0.16013 0.59682 0.25998 0.0
H578 H 0.161 0.59159 0.29462 0.0
H579 H 0.14641 0.56721 0.30945 0.0
H580 H 0.13609 0.56898 0.19423 0.0
H581 H 0.15318 0.59294 0.20753 0.0
H582 H 0.16457 0.60747 0.23488 0.0
H583 H 0.16768 0.60683 0.26641 0.0
Mn584 Mn 0.75783 0.62834 0.00612 0.0
Mn585 Mn 0.7213 0.64051 0.98714 0.0
C586 C 0.73301 0.61129 0.00816 0.0
C587 C 0.7839 0.61464 0.00508 0.0
C588 C 0.73549 0.65628 0.02015 0.0
O589 O 0.76617 0.64686 0.98945 0.0
O590 O 0.74134 0.65187 0.97579 0.0
C591 C 0.72553 0.62453 0.9531 0.0
N592 N 0.71615 0.62652 0.96756 0.0
C593 C 0.69361 0.60752 0.95681 0.0
C594 C 0.70299 0.60534 0.94176 0.0
C595 C 0.71905 0.61384 0.93993 0.0
C596 C 0.70073 0.61832 0.9695 0.0
H597 H 0.73788 0.63104 0.95166 0.0
C598 C 0.75758 0.65417 0.97778 0.0
O599 O 0.78121 0.62658 0.01619 0.0
O600 O 0.77159 0.61095 0.99428 0.0
N601 N 0.70085 0.63042 0.99675 0.0
C602 C 0.69376 0.63336 0.01233 0.0
C603 C 0.67773 0.6257 0.01628 0.0
C604 C 0.6691 0.61522 0.00414 0.0
C605 C 0.67664 0.61239 0.98818 0.0
C606 C 0.69256 0.62052 0.9849 0.0
H607 H 0.70025 0.64152 0.02167 0.0
O608 O 0.74541 0.60973 0.01911 0.0
O609 O 0.7356 0.6226 0.99626 0.0
O610 O 0.74806 0.64648 0.02183 0.0
O611 O 0.72518 0.65546 0.00737 0.0
C612 C 0.66907 0.60171 0.97547 0.0
C613 C 0.67758 0.59921 0.95982 0.0
H614 H 0.69805 0.59708 0.93158 0.0
H615 H 0.7264 0.61216 0.92838 0.0
H616 H 0.672 0.62792 0.02863 0.0
H617 H 0.6567 0.60942 0.00721 0.0
H618 H 0.65681 0.59518 0.97768 0.0
H619 H 0.67175 0.59078 0.95024 0.0
Mn620 Mn 0.87323 0.00577 0.2573 0.0
Mn621 Mn 0.88508 0.96494 0.25382 0.0
C622 C 0.85628 0.98602 0.24213 0.0
C623 C 0.85891 0.02734 0.27131 0.0
C624 C 0.90146 0.99402 0.23341 0.0
O625 O 0.89102 0.00394 0.27643 0.0
O626 O 0.89665 0.97604 0.27395 0.0
C627 C 0.86906 0.95112 0.28536 0.0
N628 N 0.87088 0.95063 0.26805 0.0
C629 C 0.85097 0.92653 0.26563 0.0
C630 C 0.84897 0.92671 0.28345 0.0
C631 C 0.85803 0.93908 0.29335 0.0
C632 C 0.86219 0.93881 0.25839 0.0
H633 H 0.87594 0.96065 0.29302 0.0
C634 C 0.89851 0.9906 0.28142 0.0
O635 O 0.87156 0.03078 0.26102 0.0
O636 O 0.85506 0.01134 0.27402 0.0
N637 N 0.87459 0.95268 0.23502 0.0
C638 C 0.87729 0.95479 0.21792 0.0
C639 C 0.86892 0.94363 0.20621 0.0
C640 C 0.85794 0.93039 0.21218 0.0
C641 C 0.85542 0.92843 0.22983 0.0
C642 C 0.86424 0.93983 0.2409 0.0
H643 H 0.88573 0.96493 0.21325 0.0
O644 O 0.85515 0.00221 0.23919 0.0
O645 O 0.86728 0.98191 0.2538 0.0
O646 O 0.8921 0.00564 0.23926 0.0
O647 O 0.90016 0.9785 0.2383 0.0
C648 C 0.84429 0.91577 0.23685 0.0
C649 C 0.84203 0.91486 0.25474 0.0
H650 H 0.84041 0.9175 0.28966 0.0
H651 H 0.85648 0.93936 0.30711 0.0
H652 H 0.87091 0.94525 0.19261 0.0
H653 H 0.85147 0.92185 0.2031 0.0
H654 H 0.83724 0.90682 0.2286 0.0
H655 H 0.83326 0.90522 0.25996 0.0
Mn656 Mn 0.25544 0.12951 0.50462 0.0
Mn657 Mn 0.21967 0.14319 0.4852 0.0
C658 C 0.23006 0.11314 0.50598 0.0
C659 C 0.28113 0.1151 0.50411 0.0
C660 C 0.23312 0.15741 0.5191 0.0
O661 O 0.26487 0.14798 0.48846 0.0
O662 O 0.24033 0.15479 0.47533 0.0
C663 C 0.22544 0.12891 0.45065 0.0
N664 N 0.21527 0.13048 0.46462 0.0
C665 C 0.19255 0.11346 0.45135 0.0
C666 C 0.20274 0.11174 0.43677 0.0
C667 C 0.21928 0.11945 0.43645 0.0
C668 C 0.1994 0.12301 0.46512 0.0
H669 H 0.23815 0.13485 0.45035 0.0
C670 C 0.25662 0.15629 0.47728 0.0
O671 O 0.27846 0.12703 0.51524 0.0
O672 O 0.269 0.11179 0.493 0.0
N673 N 0.19851 0.13312 0.49314 0.0
C674 C 0.19066 0.13534 0.50848 0.0
C675 C 0.17397 0.12849 0.51089 0.0
C676 C 0.16551 0.11956 0.49749 0.0
C677 C 0.17392 0.11725 0.48191 0.0
C678 C 0.19043 0.12459 0.48016 0.0
H679 H 0.197 0.14243 0.51872 0.0
O680 O 0.24221 0.1112 0.51713 0.0
O681 O 0.23317 0.12447 0.49416 0.0
O682 O 0.24584 0.14775 0.52037 0.0
O683 O 0.22278 0.15692 0.50636 0.0
C684 C 0.16661 0.10788 0.46809 0.0
C685 C 0.17596 0.1059 0.45285 0.0
H686 H 0.19804 0.10444 0.42579 0.0
H687 H 0.22725 0.11812 0.42527 0.0
H688 H 0.16759 0.13021 0.523 0.0
H689 H 0.15257 0.11443 0.49933 0.0
H690 H 0.15389 0.10198 0.46911 0.0
H691 H 0.1703 0.09846 0.4424 0.0
Mn692 Mn 0.37255 0.50405 0.7587 0.0
Mn693 Mn 0.38619 0.46374 0.75659 0.0
C694 C 0.35599 0.48296 0.74499 0.0
C695 C 0.35799 0.52575 0.77222 0.0
C696 C 0.40015 0.49223 0.73395 0.0
O697 O 0.39106 0.50397 0.77725 0.0
O698 O 0.39859 0.4766 0.77516 0.0
C699 C 0.37305 0.45142 0.78997 0.0
N700 N 0.37375 0.44983 0.77262 0.0
C701 C 0.35575 0.42425 0.77315 0.0
C702 C 0.3549 0.42556 0.79103 0.0
C703 C 0.36354 0.43925 0.79946 0.0
C704 C 0.36536 0.43681 0.76437 0.0
H705 H 0.37972 0.46189 0.79651 0.0
C706 C 0.3999 0.49145 0.78207 0.0
O707 O 0.37005 0.52907 0.76124 0.0
O708 O 0.35477 0.5098 0.7758 0.0
N709 N 0.3752 0.44973 0.73934 0.0
C710 C 0.37662 0.45078 0.722 0.0
C711 C 0.36829 0.43832 0.71163 0.0
C712 C 0.35883 0.42478 0.71919 0.0
C713 C 0.35775 0.42385 0.73707 0.0
C714 C 0.36623 0.43668 0.74675 0.0
H715 H 0.38399 0.46109 0.71613 0.0
O716 O 0.35407 0.49892 0.74141 0.0
O717 O 0.36749 0.47979 0.75654 0.0
O718 O 0.39079 0.50378 0.73996 0.0
O719 O 0.39955 0.47687 0.73934 0.0
C720 C 0.34848 0.41076 0.74568 0.0
C721 C 0.34735 0.41104 0.76369 0.0
H722 H 0.3476 0.41618 0.7984 0.0
H723 H 0.3629 0.44039 0.81325 0.0
H724 H 0.3692 0.43912 0.69784 0.0
H725 H 0.35239 0.41521 0.71115 0.0
H726 H 0.34203 0.4005 0.73855 0.0
H727 H 0.33993 0.40106 0.77013 0.0
Mn728 Mn 0.75118 0.37454 0.51036 0.0
Mn729 Mn 0.74821 0.38863 0.46972 0.0
C730 C 0.73673 0.3581 0.48979 0.0
C731 C 0.7653 0.35963 0.5317 0.0
C732 C 0.7269 0.40213 0.49881 0.0
O733 O 0.77011 0.39319 0.50933 0.0
O734 O 0.7678 0.40069 0.4816 0.0
C735 C 0.78053 0.37541 0.45626 0.0
N736 N 0.76315 0.3762 0.4554 0.0
C737 C 0.76179 0.35765 0.43077 0.0
C738 C 0.77969 0.35672 0.43132 0.0
C739 C 0.78909 0.36561 0.44415 0.0
C740 C 0.75397 0.36765 0.44315 0.0
H741 H 0.7878 0.38219 0.46612 0.0
C742 C 0.77506 0.40191 0.49636 0.0
O743 O 0.75463 0.37138 0.53545 0.0
O744 O 0.7682 0.35702 0.51559 0.0
N745 N 0.72993 0.37781 0.45675 0.0
C746 C 0.71271 0.37935 0.45852 0.0
C747 C 0.70145 0.37099 0.44687 0.0
C748 C 0.70801 0.36121 0.43349 0.0
C749 C 0.72579 0.35985 0.4319 0.0
C750 C 0.73639 0.3686 0.44379 0.0
H751 H 0.70758 0.38688 0.46875 0.0
O752 O 0.73344 0.35586 0.5059 0.0
O753 O 0.74824 0.36994 0.48626 0.0
O754 O 0.73277 0.39249 0.51039 0.0
O755 O 0.73203 0.40189 0.48331 0.0
C756 C 0.7334 0.34998 0.41911 0.0
C757 C 0.75138 0.34883 0.41859 0.0
H758 H 0.78633 0.34912 0.42205 0.0
H759 H 0.8029 0.36489 0.44471 0.0
H760 H 0.68774 0.37207 0.4482 0.0
H761 H 0.69927 0.35476 0.42456 0.0
H762 H 0.72553 0.34304 0.40975 0.0
H763 H 0.75706 0.34099 0.40885 0.0
Mn764 Mn 0.63663 0.00313 0.75451 0.0
Mn765 Mn 0.62307 0.04345 0.75226 0.0
C766 C 0.65311 0.024 0.74079 0.0
C767 C 0.65159 0.9819 0.76839 0.0
C768 C 0.60858 0.01453 0.72993 0.0
O769 O 0.61825 0.00358 0.77298 0.0
O770 O 0.61129 0.03118 0.77136 0.0
C771 C 0.63748 0.05674 0.78505 0.0
N772 N 0.63621 0.05777 0.7677 0.0
C773 C 0.65534 0.08257 0.76718 0.0
C774 C 0.65676 0.08183 0.78506 0.0
C775 C 0.64782 0.06884 0.79402 0.0
C776 C 0.64478 0.07021 0.75894 0.0
H777 H 0.63068 0.04673 0.79199 0.0
C778 C 0.60989 0.01632 0.77813 0.0
O779 O 0.63948 0.97813 0.75739 0.0
O780 O 0.6545 0.99795 0.77181 0.0
N781 N 0.6336 0.0568 0.73447 0.0
C782 C 0.6315 0.05522 0.71719 0.0
C783 C 0.63989 0.06702 0.70633 0.0
C784 C 0.65025 0.08035 0.71334 0.0
C785 C 0.65211 0.08179 0.73115 0.0
C786 C 0.6433 0.06976 0.74134 0.0
H787 H 0.62355 0.045 0.71173 0.0
O788 O 0.65504 0.00801 0.73731 0.0
O789 O 0.64162 0.02729 0.75219 0.0
O790 O 0.61826 0.00307 0.73562 0.0
O791 O 0.60909 0.02986 0.73558 0.0
C792 C 0.6626 0.09451 0.73918 0.0
C793 C 0.66423 0.09488 0.75718 0.0
H794 H 0.6648 0.09108 0.79202 0.0
H795 H 0.64892 0.06814 0.80782 0.0
H796 H 0.6384 0.06581 0.6926 0.0
H797 H 0.65678 0.08936 0.70491 0.0
H798 H 0.66965 0.10393 0.73163 0.0
H799 H 0.67251 0.10458 0.76319 0.0
Mn800 Mn 1.00139 0.2532 0.87623 0.0
Mn801 Mn 0.962 0.24974 0.89376 0.0
C802 C 0.97927 0.23841 0.86191 0.0
C803 C 0.02218 0.26699 0.85928 0.0
C804 C 0.9916 0.22863 0.90532 0.0
O805 O 0.00234 0.27217 0.89425 0.0
O806 O 0.97547 0.26905 0.9044 0.0
C807 C 0.94824 0.28221 0.88149 0.0
N808 N 0.94692 0.26489 0.8827 0.0
C809 C 0.91929 0.26403 0.86886 0.0
C810 C 0.92031 0.28187 0.86751 0.0
C811 C 0.9349 0.29098 0.87377 0.0
C812 C 0.93306 0.25598 0.8765 0.0
H813 H 0.95934 0.28927 0.88645 0.0
C814 C 0.99028 0.27669 0.90408 0.0
O815 O 0.02627 0.25651 0.8713 0.0
O816 O 0.00602 0.26997 0.85751 0.0
N817 N 0.9474 0.23179 0.88458 0.0
C818 C 0.94894 0.2146 0.88588 0.0
C819 C 0.93566 0.2036 0.87973 0.0
C820 C 0.92083 0.21039 0.87263 0.0
C821 C 0.91954 0.22814 0.87146 0.0
C822 C 0.93327 0.23845 0.8776 0.0
H823 H 0.96019 0.20933 0.8916 0.0
O824 O 0.99516 0.23536 0.85872 0.0
O825 O 0.97672 0.25004 0.87344 0.0
O826 O 0.00253 0.23497 0.89486 0.0
O827 O 0.97616 0.23334 0.90602 0.0
C828 C 0.9052 0.236 0.86443 0.0
C829 C 0.90516 0.25392 0.86292 0.0
H830 H 0.91 0.28869 0.86165 0.0
H831 H 0.9358 0.30474 0.87275 0.0
H832 H 0.93677 0.18992 0.88064 0.0
H833 H 0.91055 0.20186 0.86805 0.0
H834 H 0.89422 0.22837 0.8599 0.0
H835 H 0.89421 0.25979 0.85714 0.0
Mn836 Mn 0.50402 0.75355 0.3772 0.0
Mn837 Mn 0.46372 0.74909 0.39242 0.0
C838 C 0.48304 0.73841 0.36171 0.0
C839 C 0.52525 0.76793 0.36134 0.0
C840 C 0.49326 0.72894 0.40593 0.0
O841 O 0.50335 0.77246 0.39525 0.0
O842 O 0.47584 0.76896 0.40362 0.0
C843 C 0.44972 0.7808 0.37856 0.0
N844 N 0.449 0.76348 0.37985 0.0
C845 C 0.42372 0.76131 0.36207 0.0
C846 C 0.42413 0.77914 0.36063 0.0
C847 C 0.43722 0.78892 0.36886 0.0
C848 C 0.43653 0.75394 0.37188 0.0
H849 H 0.45975 0.78837 0.38487 0.0
C850 C 0.49055 0.77682 0.4042 0.0
O851 O 0.52905 0.75758 0.37358 0.0
O852 O 0.5091 0.77048 0.35878 0.0
N853 N 0.45054 0.73049 0.38242 0.0
C854 C 0.45245 0.71341 0.38442 0.0
C855 C 0.44065 0.70182 0.3766 0.0
C856 C 0.42693 0.70791 0.36697 0.0
C857 C 0.42514 0.72554 0.36525 0.0
C858 C 0.43729 0.73647 0.37333 0.0
H859 H 0.46294 0.70865 0.39185 0.0
O860 O 0.49913 0.73566 0.35924 0.0
O861 O 0.47975 0.74981 0.37321 0.0
O862 O 0.50452 0.7353 0.39582 0.0
O863 O 0.4777 0.73342 0.40594 0.0
C864 C 0.41185 0.73269 0.35572 0.0
C865 C 0.41121 0.75056 0.35403 0.0
H866 H 0.41453 0.78544 0.35315 0.0
H867 H 0.43767 0.80268 0.36775 0.0
H868 H 0.44212 0.68823 0.37798 0.0
H869 H 0.41789 0.69894 0.3609 0.0
H870 H 0.4022 0.72455 0.34942 0.0
H871 H 0.4011 0.75589 0.3464 0.0
Mn872 Mn 1.00034 0.74903 0.634 0.0
Mn873 Mn 0.97912 0.71489 0.65096 0.0
C874 C 1.0002 0.72285 0.61998 0.0
C875 C 1.00104 0.77376 0.61742 0.0
C876 C 0.0136 0.72861 0.66425 0.0
O877 O 0.9848 0.75972 0.65172 0.0
O878 O 0.96978 0.73621 0.66021 0.0
C879 C 0.94487 0.71953 0.63558 0.0
N880 N 0.95865 0.70969 0.63817 0.0
C881 C 0.94449 0.68565 0.62417 0.0
C882 C 0.93012 0.6955 0.62137 0.0
C883 C 0.93038 0.71256 0.62696 0.0
C884 C 0.95873 0.69344 0.6324 0.0
H885 H 0.94492 0.73255 0.64015 0.0
C886 C 0.97283 0.75237 0.66037 0.0
O887 O 0.01215 0.77146 0.62952 0.0
O888 O 0.98928 0.76179 0.61511 0.0
N889 N 0.98659 0.69328 0.64313 0.0
C890 C 1.00155 0.68557 0.64671 0.0
C891 C 0.00355 0.66858 0.64157 0.0
C892 C 0.98997 0.65954 0.63332 0.0
C893 C 0.97456 0.66761 0.63017 0.0
C894 C 0.97348 0.6847 0.63514 0.0
H895 H 0.01187 0.69232 0.65343 0.0
O896 O 0.01194 0.73453 0.61673 0.0
O897 O 0.98869 0.72695 0.63105 0.0
O898 O 0.01572 0.74024 0.65304 0.0
O899 O 1.00016 0.71884 0.66493 0.0
C900 C 0.96011 0.65929 0.62255 0.0
C901 C 0.94515 0.66836 0.61937 0.0
H902 H 0.91881 0.69008 0.61497 0.0
H903 H 0.91934 0.72024 0.62485 0.0
H904 H 0.01544 0.6624 0.64419 0.0
H905 H 0.99147 0.64636 0.62959 0.0
H906 H 0.96049 0.64601 0.61875 0.0
H907 H 0.93425 0.66191 0.61318 0.0
Mn908 Mn 0.50176 0.25044 0.13256 0.0
Mn909 Mn 0.48274 0.21442 0.14829 0.0
C910 C 0.50279 0.22506 0.11736 0.0
C911 C 0.50112 0.27579 0.11702 0.0
C912 C 0.51694 0.22896 0.16127 0.0
O913 O 0.48587 0.25953 0.15084 0.0
O914 O 0.47328 0.23478 0.15949 0.0
C915 C 0.44778 0.21919 0.13469 0.0
N916 N 0.46185 0.20953 0.13606 0.0
C917 C 0.44816 0.18673 0.11973 0.0
C918 C 0.43348 0.19639 0.1182 0.0
C919 C 0.43333 0.21273 0.12564 0.0
C920 C 0.46224 0.19392 0.12873 0.0
H921 H 0.44757 0.2317 0.14049 0.0
C922 C 0.47513 0.25107 0.16006 0.0
O923 O 0.51244 0.27355 0.12895 0.0
O924 O 0.48988 0.26341 0.11434 0.0
N925 N 0.4904 0.1936 0.13864 0.0
C926 C 0.50571 0.18611 0.14092 0.0
C927 C 0.5081 0.16983 0.13396 0.0
C928 C 0.49462 0.16128 0.12507 0.0
C929 C 0.47886 0.16911 0.1232 0.0
C930 C 0.47729 0.1854 0.13025 0.0
H931 H 0.51605 0.19253 0.14794 0.0
O932 O 0.51395 0.23741 0.11458 0.0
O933 O 0.49118 0.22798 0.12877 0.0
O934 O 0.51779 0.24161 0.15107 0.0
O935 O 0.5043 0.21812 0.16146 0.0
C936 C 0.46465 0.16137 0.11463 0.0
C937 C 0.44938 0.17025 0.1127 0.0
H938 H 0.42228 0.19141 0.11131 0.0
H939 H 0.42207 0.22028 0.12448 0.0
H940 H 0.52027 0.16386 0.13552 0.0
H941 H 0.49649 0.14873 0.11973 0.0
H942 H 0.46538 0.14864 0.1093 0.0
H943 H 0.43865 0.16427 0.10582 0.0
H944 H 0.22174 0.77295 0.85339 0.0
H945 H 0.22206 0.79059 0.87921 0.0
H946 H 0.20702 0.74663 0.90931 0.0
H947 H 0.20702 0.7287 0.88344 0.0
H948 H 0.19446 0.79563 0.90264 0.0
H949 H 0.25104 0.767 0.93345 0.0
H950 H 0.24616 0.76407 0.91099 0.0
H951 H 0.23364 0.75275 0.92675 0.0
C952 C 0.21867 0.76696 0.86552 0.0
C953 C 0.21455 0.74937 0.86639 0.0
C954 C 0.21872 0.77709 0.88023 0.0
C955 C 0.21472 0.76989 0.89617 0.0
C956 C 0.21033 0.75239 0.89714 0.0
H957 H 0.20445 0.84283 0.9824 0.0
H958 H 0.19725 0.81972 0.96191 0.0
C959 C 0.21022 0.7422 0.88235 0.0
C960 C 0.21534 0.78092 0.91163 0.0
H961 H 0.2393 0.79038 0.94732 0.0
C962 C 0.20414 0.79444 0.91254 0.0
C963 C 0.22797 0.77924 0.92448 0.0
C964 C 0.24049 0.76507 0.92395 0.0
C965 C 0.20569 0.80682 0.92555 0.0
C966 C 0.21874 0.80555 0.93814 0.0
C967 C 0.2294 0.7915 0.93763 0.0
C968 C 0.22268 0.81931 0.95095 0.0
C969 C 0.19377 0.82148 0.92513 0.0
C970 C 0.23947 0.82636 0.95216 0.0
C971 C 0.24361 0.83916 0.96409 0.0
C972 C 0.23097 0.84567 0.9747 0.0
C973 C 0.21426 0.83841 0.97389 0.0
C974 C 0.21015 0.82529 0.96213 0.0
H975 H 0.18816 0.82327 0.91219 0.0
H976 H 0.18308 0.81889 0.93416 0.0
H977 H 0.20054 0.83349 0.92907 0.0
H978 H 0.24945 0.82192 0.94385 0.0
H979 H 0.25679 0.84389 0.96512 0.0
H980 H 0.0132 0.49059 0.41267 0.0
H981 H 0.02816 0.48721 0.38548 0.0
H982 H 0.05115 0.53778 0.39104 0.0
H983 H 0.03601 0.54146 0.41802 0.0
H984 H 0.02748 0.50791 0.35506 0.0
H985 H 0.09233 0.50632 0.38441 0.0
H986 H 0.07293 0.50304 0.39663 0.0
H987 H 0.08017 0.52425 0.39082 0.0
C988 C 0.02124 0.5011 0.40802 0.0
C989 C 0.02346 0.51627 0.41763 0.0
C990 C 0.02987 0.49909 0.39253 0.0
C991 C 0.04098 0.51212 0.38642 0.0
C992 C 0.04291 0.52742 0.39572 0.0
H993 H 0.08463 0.53596 0.28934 0.0
H994 H 0.06727 0.53282 0.31501 0.0
C995 C 0.03425 0.52948 0.41116 0.0
C996 C 0.05056 0.50983 0.37029 0.0
H997 H 0.09108 0.50939 0.35411 0.0
C998 C 0.04138 0.50807 0.35484 0.0
C999 C 0.06868 0.50977 0.37008 0.0
C1000 C 0.07915 0.51078 0.38637 0.0
C1001 C 0.04989 0.50701 0.3391 0.0
C1002 C 0.06803 0.50783 0.33883 0.0
C1003 C 0.07718 0.50885 0.35433 0.0
C1004 C 0.07775 0.50884 0.32259 0.0
C1005 C 0.03942 0.50513 0.32286 0.0
C1006 C 0.08955 0.49644 0.31836 0.0
C1007 C 0.09957 0.49818 0.30359 0.0
C1008 C 0.09813 0.5125 0.29296 0.0
C1009 C 0.08612 0.52476 0.29719 0.0
C1010 C 0.07606 0.52294 0.31183 0.0
H1011 H 0.02627 0.49988 0.32544 0.0
H1012 H 0.03827 0.51786 0.31691 0.0
H1013 H 0.04566 0.49668 0.31353 0.0
H1014 H 0.09113 0.48552 0.32658 0.0
H1015 H 0.10875 0.48855 0.30079 0.0
H1016 H 0.83389 0.77719 0.89269 0.0
H1017 H 0.82758 0.75303 0.91161 0.0
H1018 H 0.78287 0.73915 0.88121 0.0
H1019 H 0.78946 0.76283 0.86182 0.0
H1020 H 0.79938 0.747 0.93123 0.0
H1021 H 0.80573 0.69386 0.88514 0.0
H1022 H 0.81345 0.71535 0.88063 0.0
H1023 H 0.79111 0.70938 0.87779 0.0
C1024 C 0.82289 0.76881 0.88982 0.0
C1025 C 0.81224 0.77193 0.87564 0.0
C1026 C 0.81925 0.75507 0.90073 0.0
C1027 C 0.80492 0.7441 0.89767 0.0
C1028 C 0.79422 0.7472 0.88361 0.0
H1029 H 0.74516 0.667 0.94796 0.0
H1030 H 0.75878 0.68812 0.9292 0.0
C1031 C 0.79788 0.76091 0.87266 0.0
C1032 C 0.80066 0.72993 0.90966 0.0
H1033 H 0.79114 0.68709 0.91133 0.0
C1034 C 0.79783 0.73386 0.92695 0.0
C1035 C 0.79873 0.71276 0.90407 0.0
C1036 C 0.80258 0.70754 0.88593 0.0
C1037 C 0.79232 0.72123 0.9386 0.0
C1038 C 0.78976 0.70421 0.93284 0.0
C1039 C 0.7931 0.70017 0.91569 0.0
C1040 C 0.78221 0.69071 0.94404 0.0
C1041 C 0.78855 0.7263 0.95681 0.0
C1042 C 0.79103 0.68491 0.95848 0.0
C1043 C 0.78326 0.67272 0.96932 0.0
C1044 C 0.76653 0.66622 0.9659 0.0
C1045 C 0.75799 0.67181 0.95114 0.0
C1046 C 0.76577 0.68386 0.94032 0.0
H1047 H 0.78864 0.74038 0.95852 0.0
H1048 H 0.77586 0.72085 0.96079 0.0
H1049 H 0.7984 0.72115 0.96546 0.0
H1050 H 0.80383 0.68991 0.96144 0.0
H1051 H 0.79022 0.66868 0.98054 0.0
H1052 H 0.98833 0.94998 0.40642 0.0
H1053 H 0.96844 0.95782 0.38383 0.0
H1054 H 0.9856 0.01053 0.38883 0.0
H1055 H 0.00573 0.00273 0.41146 0.0
H1056 H 0.94172 0.9795 0.38377 0.0
H1057 H 0.992 0.00182 0.33799 0.0
H1058 H 0.99696 0.99007 0.35708 0.0
H1059 H 0.99246 0.01234 0.35846 0.0
C1060 C 0.98775 0.96328 0.40288 0.0
C1061 C 0.99864 0.97573 0.41074 0.0
C1062 C 0.97642 0.96774 0.3899 0.0
C1063 C 0.9757 0.98472 0.38444 0.0
C1064 C 0.98621 0.99729 0.39255 0.0
H1065 H 0.91097 0.01925 0.29875 0.0
H1066 H 0.92913 0.02021 0.32459 0.0
C1067 C 0.99766 0.99282 0.40551 0.0
C1068 C 0.96399 0.989 0.37015 0.0
H1069 H 0.96331 0.0028 0.32869 0.0
C1070 C 0.94643 0.98476 0.3718 0.0
C1071 C 0.97013 0.99591 0.35452 0.0
C1072 C 0.98892 1.00019 0.35177 0.0
C1073 C 0.93497 0.98675 0.3581 0.0
C1074 C 0.94122 0.99306 0.34233 0.0
C1075 C 0.9586 0.99802 0.34086 0.0
C1076 C 0.93027 0.9928 0.32678 0.0
C1077 C 0.91629 0.98171 0.36044 0.0
C1078 C 0.92514 0.9771 0.3194 0.0
C1079 C 0.91496 0.97649 0.30466 0.0
C1080 C 0.9096 0.9916 0.29695 0.0
C1081 C 0.91481 0.00738 0.30436 0.0
C1082 C 0.92519 0.00796 0.3191 0.0
H1083 H 0.91279 0.98102 0.37419 0.0
H1084 H 0.90797 0.99091 0.35395 0.0
H1085 H 0.91366 0.96894 0.35461 0.0
H1086 H 0.9291 0.96527 0.32504 0.0
H1087 H 0.9112 0.9641 0.29941 0.0
H1088 H 0.19279 0.24719 0.65262 0.0
H1089 H 0.2008 0.22491 0.6324 0.0
H1090 H 0.21576 0.26347 0.59566 0.0
H1091 H 0.20789 0.28572 0.61575 0.0
H1092 H 0.1879 0.21766 0.6008 0.0
H1093 H 0.25725 0.23412 0.5958 0.0
H1094 H 0.24404 0.24272 0.61238 0.0
H1095 H 0.24425 0.25196 0.59132 0.0
C1096 C 0.19784 0.25091 0.64025 0.0
C1097 C 0.19983 0.26824 0.63585 0.0
C1098 C 0.20246 0.23817 0.62874 0.0
C1099 C 0.20919 0.24251 0.61263 0.0
C1100 C 0.21108 0.2598 0.60818 0.0
H1101 H 0.20872 0.18159 0.52046 0.0
H1102 H 0.20322 0.20142 0.54374 0.0
C1103 C 0.20654 0.27252 0.61969 0.0
C1104 C 0.21344 0.22901 0.60012 0.0
H1105 H 0.24527 0.21551 0.57409 0.0
C1106 C 0.20049 0.21709 0.59508 0.0
C1107 C 0.22994 0.22809 0.59283 0.0
C1108 C 0.24472 0.2398 0.59848 0.0
C1109 C 0.20342 0.20465 0.58256 0.0
C1110 C 0.21964 0.20435 0.57458 0.0
C1111 C 0.23277 0.21589 0.58003 0.0
C1112 C 0.22316 0.19235 0.56037 0.0
C1113 C 0.18912 0.19188 0.57809 0.0
C1114 C 0.23658 0.18101 0.56171 0.0
C1115 C 0.23992 0.16974 0.5483 0.0
C1116 C 0.22991 0.16962 0.53323 0.0
C1117 C 0.21662 0.18119 0.53188 0.0
C1118 C 0.21336 0.19249 0.54525 0.0
H1119 H 0.17971 0.1905 0.58866 0.0
H1120 H 0.18218 0.19634 0.56661 0.0
H1121 H 0.19418 0.17915 0.5752 0.0
H1122 H 0.24439 0.18077 0.57321 0.0
H1123 H 0.25026 0.16105 0.54981 0.0
H1124 H 0.4917 0.55547 0.61114 0.0
H1125 H 0.47118 0.54704 0.63339 0.0
H1126 H 0.49664 0.49966 0.64005 0.0
H1127 H 0.51731 0.50808 0.61792 0.0
H1128 H 0.44842 0.51983 0.63622 0.0
H1129 H 0.49683 0.51843 0.68844 0.0
H1130 H 0.50151 0.52762 0.66778 0.0
H1131 H 0.5015 0.50487 0.67065 0.0
C1132 C 0.49283 0.54318 0.61722 0.0
C1133 C 0.50621 0.53249 0.61285 0.0
C1134 C 0.48114 0.53841 0.62999 0.0
C1135 C 0.48258 0.52288 0.63865 0.0
C1136 C 0.49556 0.51191 0.63389 0.0
H1137 H 0.42414 0.47219 0.71926 0.0
H1138 H 0.44369 0.47959 0.69589 0.0
C1139 C 0.50733 0.51672 0.6212 0.0
C1140 C 0.47053 0.51822 0.65267 0.0
H1141 H 0.46875 0.50791 0.69511 0.0
C1142 C 0.45286 0.51728 0.64911 0.0
C1143 C 0.47634 0.51496 0.66951 0.0
C1144 C 0.49506 0.51667 0.67441 0.0
C1145 C 0.44087 0.51291 0.66186 0.0
C1146 C 0.44671 0.50954 0.67863 0.0
C1147 C 0.46435 0.51044 0.6822 0.0
C1148 C 0.43469 0.50512 0.6927 0.0
C1149 C 0.42207 0.51165 0.65724 0.0
C1150 C 0.42329 0.51712 0.69878 0.0
C1151 C 0.41213 0.51298 0.71221 0.0
C1152 C 0.41216 0.49675 0.71983 0.0
C1153 C 0.4237 0.4848 0.71372 0.0
C1154 C 0.43491 0.48899 0.70035 0.0
H1155 H 0.41998 0.511 0.64317 0.0
H1156 H 0.41577 0.50022 0.66318 0.0
H1157 H 0.41573 0.52309 0.66219 0.0
H1158 H 0.4231 0.52973 0.6932 0.0
H1159 H 0.40346 0.52252 0.71656 0.0
H1160 H 0.79472 0.22759 0.61655 0.0
H1161 H 0.78741 0.25233 0.59949 0.0
H1162 H 0.81695 0.28528 0.63381 0.0
H1163 H 0.8249 0.26048 0.65062 0.0
H1164 H 0.77048 0.28118 0.60844 0.0
H1165 H 0.83676 0.29793 0.5871 0.0
H1166 H 0.83106 0.27782 0.5971 0.0
H1167 H 0.83406 0.29682 0.60989 0.0
C1168 C 0.79983 0.24007 0.6204 0.0
C1169 C 0.81056 0.242 0.63487 0.0
C1170 C 0.79552 0.25422 0.6107 0.0
C1171 C 0.80185 0.27062 0.61522 0.0
C1172 C 0.81219 0.2727 0.6299 0.0
H1173 H 0.7608 0.36134 0.56641 0.0
H1174 H 0.77049 0.34118 0.58796 0.0
C1175 C 0.81655 0.25853 0.63961 0.0
C1176 C 0.79756 0.28543 0.60445 0.0
H1177 H 0.81506 0.31627 0.57843 0.0
C1178 C 0.78022 0.28893 0.60195 0.0
C1179 C 0.8103 0.29539 0.59586 0.0
C1180 C 0.82909 0.29177 0.59746 0.0
C1181 C 0.77525 0.30198 0.59095 0.0
C1182 C 0.78799 0.31204 0.58246 0.0
C1183 C 0.80534 0.30866 0.58509 0.0
C1184 C 0.78349 0.32528 0.56985 0.0
C1185 C 0.75637 0.30445 0.58801 0.0
C1186 C 0.78824 0.32347 0.55266 0.0
C1187 C 0.78287 0.33504 0.54037 0.0
C1188 C 0.77266 0.34868 0.54504 0.0
C1189 C 0.76856 0.35091 0.56239 0.0
C1190 C 0.77399 0.33934 0.5747 0.0
H1191 H 0.74839 0.29331 0.59242 0.0
H1192 H 0.75245 0.31584 0.59527 0.0
H1193 H 0.75362 0.30658 0.57424 0.0
H1194 H 0.79564 0.31276 0.54865 0.0
H1195 H 0.78629 0.33297 0.52713 0.0
H1196 H 0.54288 0.98554 0.58143 0.0
H1197 H 0.55885 0.9882 0.6083 0.0
H1198 H 0.51154 0.99277 0.63586 0.0
H1199 H 0.49535 0.98935 0.60906 0.0
H1200 H 0.56006 0.01525 0.62984 0.0
H1201 H 0.53578 0.95765 0.66431 0.0
H1202 H 0.53245 0.96055 0.64163 0.0
H1203 H 0.51917 0.97104 0.65684 0.0
C1204 C 0.53579 0.9867 0.59322 0.0
C1205 C 0.51778 0.98711 0.59304 0.0
C1206 C 0.54498 0.98837 0.60858 0.0
C1207 C 0.5364 0.99047 0.62414 0.0
C1208 C 0.51843 0.99082 0.62406 0.0
H1209 H 0.58434 0.03455 0.71563 0.0
H1210 H 0.56634 0.02828 0.69057 0.0
C1211 C 0.5092 0.98908 0.60868 0.0
C1212 C 0.54641 0.9933 0.64021 0.0
H1213 H 0.55261 0.97793 0.68057 0.0
C1214 C 0.55845 0.00705 0.64091 0.0
C1215 C 0.54446 0.98249 0.65459 0.0
C1216 C 0.53239 0.967 0.65431 0.0
C1217 C 0.56845 0.01041 0.65561 0.0
C1218 C 0.56611 0.99996 0.6702 0.0
C1219 C 0.55425 0.98605 0.66945 0.0
C1220 C 0.57607 0.00318 0.68622 0.0
C1221 C 0.5817 0.02495 0.65525 0.0
C1222 C 0.58702 0.99086 0.69254 0.0
C1223 C 0.59726 0.99433 0.70701 0.0
C1224 C 0.59672 0.0102 0.71546 0.0
C1225 C 0.58525 0.02225 0.7094 0.0
C1226 C 0.57499 0.01874 0.695 0.0
H1227 H 0.58506 0.02865 0.64194 0.0
H1228 H 0.57647 0.03624 0.6617 0.0
H1229 H 0.59359 0.02153 0.66209 0.0
H1230 H 0.58798 0.97872 0.68601 0.0
H1231 H 0.60589 0.98471 0.71131 0.0
H1232 H 0.86731 0.22097 0.74199 0.0
H1233 H 0.88623 0.22758 0.76643 0.0
H1234 H 0.9141 0.18222 0.75616 0.0
H1235 H 0.89547 0.1758 0.73147 0.0
H1236 H 0.89107 0.20998 0.79492 0.0
H1237 H 0.95303 0.21685 0.76088 0.0
H1238 H 0.9327 0.21582 0.74974 0.0
H1239 H 0.94218 0.1966 0.75713 0.0
C1240 C 0.87751 0.21245 0.74493 0.0
C1241 C 0.87998 0.19792 0.73478 0.0
C1242 C 0.88834 0.21625 0.75885 0.0
C1243 C 0.90181 0.20557 0.76296 0.0
C1244 C 0.90416 0.19094 0.75296 0.0
H1245 H 0.97527 0.20668 0.84791 0.0
H1246 H 0.95562 0.19766 0.82458 0.0
C1247 C 0.89345 0.18723 0.73891 0.0
C1248 C 0.91285 0.2094 0.77817 0.0
H1249 H 0.95441 0.21631 0.7913 0.0
C1250 C 0.90492 0.21141 0.79409 0.0
C1251 C 0.93094 0.21127 0.77711 0.0
C1252 C 0.94022 0.21019 0.76027 0.0
C1253 C 0.91454 0.21516 0.80894 0.0
C1254 C 0.93257 0.21697 0.80792 0.0
C1255 C 0.94057 0.21479 0.79207 0.0
C1256 C 0.94332 0.22186 0.823 0.0
C1257 C 0.90536 0.21722 0.82564 0.0
C1258 C 0.94285 0.2384 0.82985 0.0
C1259 C 0.95414 0.24359 0.84299 0.0
C1260 C 0.9658 0.23219 0.84982 0.0
C1261 C 0.96611 0.21556 0.84311 0.0
C1262 C 0.95496 0.21043 0.8298 0.0
H1263 H 0.89199 0.21186 0.82509 0.0
H1264 H 0.91233 0.2109 0.83611 0.0
H1265 H 0.90492 0.23103 0.82865 0.0
H1266 H 0.9342 0.24752 0.82456 0.0
H1267 H 0.95423 0.25672 0.84734 0.0
H1268 H 0.50888 0.92686 0.47307 0.0
H1269 H 0.51118 0.89952 0.45823 0.0
H1270 H 0.46464 0.88078 0.48226 0.0
H1271 H 0.46195 0.90827 0.49678 0.0
H1272 H 0.5133 0.86631 0.47178 0.0
H1273 H 0.45535 0.87235 0.43103 0.0
H1274 H 0.46525 0.89022 0.44246 0.0
H1275 H 0.45165 0.87496 0.45354 0.0
C1276 C 0.49901 0.917 0.47505 0.0
C1277 C 0.48512 0.91984 0.48599 0.0
C1278 C 0.50044 0.90133 0.46667 0.0
C1279 C 0.48797 0.8882 0.46896 0.0
C1280 C 0.47426 0.89084 0.4801 0.0
H1281 H 0.46827 0.78701 0.42868 0.0
H1282 H 0.4691 0.81366 0.4448 0.0
C1283 C 0.47283 0.90651 0.48851 0.0
C1284 C 0.4893 0.87176 0.45965 0.0
H1285 H 0.46849 0.84561 0.43061 0.0
C1286 C 0.50356 0.86179 0.46271 0.0
C1287 C 0.47661 0.86596 0.44777 0.0
C1288 C 0.46142 0.87647 0.44335 0.0
C1289 C 0.50521 0.8459 0.45457 0.0
C1290 C 0.4924 0.84001 0.44286 0.0
C1291 C 0.47827 0.85011 0.43965 0.0
C1292 C 0.49303 0.82322 0.43404 0.0
C1293 C 0.52039 0.83536 0.45894 0.0
C1294 C 0.50636 0.81958 0.42274 0.0
C1295 C 0.50599 0.80421 0.41347 0.0
C1296 C 0.49217 0.79229 0.41523 0.0
C1297 C 0.47909 0.79587 0.4269 0.0
C1298 C 0.47952 0.81114 0.43616 0.0
H1299 H 0.52672 0.83969 0.47106 0.0
H1300 H 0.51646 0.82166 0.46015 0.0
H1301 H 0.52996 0.83657 0.44853 0.0
H1302 H 0.51677 0.82885 0.42066 0.0
H1303 H 0.51621 0.80195 0.40452 0.0
H1304 H 0.12664 0.33558 0.74868 0.0
H1305 H 0.10721 0.32849 0.77222 0.0
H1306 H 0.11299 0.27489 0.76236 0.0
H1307 H 0.13196 0.28186 0.73837 0.0
H1308 H 0.07936 0.28311 0.76583 0.0
H1309 H 0.11809 0.31056 0.81969 0.0
H1310 H 0.11454 0.32542 0.80273 0.0
H1311 H 0.12696 0.30698 0.79875 0.0
C1312 C 0.12377 0.32227 0.75148 0.0
C1313 C 0.13086 0.30928 0.74158 0.0
C1314 C 0.11281 0.31824 0.7651 0.0
C1315 C 0.10883 0.30116 0.76922 0.0
C1316 C 0.11599 0.28816 0.75948 0.0
H1317 H 0.05651 0.26139 0.85907 0.0
H1318 H 0.07743 0.27036 0.83742 0.0
C1319 C 0.12693 0.29217 0.74584 0.0
C1320 C 0.09652 0.29684 0.78312 0.0
H1321 H 0.08916 0.30212 0.82586 0.0
C1322 C 0.08153 0.28722 0.77897 0.0
C1323 C 0.09944 0.30207 0.80029 0.0
C1324 C 0.1157 0.31169 0.80571 0.0
C1325 C 0.06927 0.28287 0.79145 0.0
C1326 C 0.07192 0.28856 0.80851 0.0
C1327 C 0.08704 0.29797 0.81273 0.0
C1328 C 0.05943 0.2843 0.82226 0.0
C1329 C 0.05377 0.2719 0.7863 0.0
C1330 C 0.04247 0.28959 0.82121 0.0
C1331 C 0.03045 0.28445 0.83357 0.0
C1332 C 0.03522 0.27403 0.84726 0.0
C1333 C 0.0524 0.26938 0.84867 0.0
C1334 C 0.06438 0.2745 0.8363 0.0
H1335 H 0.05578 0.26512 0.774 0.0
H1336 H 0.05056 0.2623 0.7963 0.0
H1337 H 0.04261 0.2801 0.78466 0.0
H1338 H 0.03846 0.29747 0.81069 0.0
H1339 H 0.01735 0.28833 0.83216 0.0
H1340 H 0.51036 0.6131 0.52072 0.0
H1341 H 0.50224 0.63485 0.50011 0.0
H1342 H 0.55041 0.63002 0.47417 0.0
H1343 H 0.55874 0.60842 0.49489 0.0
H1344 H 0.54167 0.66439 0.48277 0.0
H1345 H 0.4886 0.62879 0.44892 0.0
H1346 H 0.48736 0.62871 0.47189 0.0
H1347 H 0.50457 0.61829 0.46147 0.0
C1348 C 0.5192 0.61662 0.51059 0.0
C1349 C 0.5352 0.60902 0.50943 0.0
C1350 C 0.51448 0.62894 0.49875 0.0
C1351 C 0.52566 0.63391 0.48552 0.0
C1352 C 0.54156 0.62627 0.48422 0.0
H1353 H 0.52417 0.71353 0.40806 0.0
H1354 H 0.53218 0.69061 0.42721 0.0
C1355 C 0.54625 0.61386 0.496 0.0
C1356 C 0.52109 0.64769 0.47358 0.0
H1357 H 0.49215 0.6583 0.44283 0.0
C1358 C 0.53091 0.66305 0.47395 0.0
C1359 C 0.50698 0.64591 0.46219 0.0
C1360 C 0.49632 0.6295 0.46092 0.0
C1361 C 0.5268 0.67684 0.46348 0.0
C1362 C 0.51271 0.67507 0.45202 0.0
C1363 C 0.50293 0.65966 0.45161 0.0
C1364 C 0.50786 0.68905 0.44037 0.0
C1365 C 0.5373 0.69333 0.46515 0.0
C1366 C 0.49136 0.69552 0.44106 0.0
C1367 C 0.48665 0.70854 0.42999 0.0
C1368 C 0.49836 0.71536 0.41795 0.0
C1369 C 0.51487 0.70875 0.41726 0.0
C1370 C 0.51952 0.69568 0.42828 0.0
H1371 H 0.54425 0.69419 0.47759 0.0
H1372 H 0.54697 0.694 0.4548 0.0
H1373 H 0.5291 0.70453 0.46397 0.0
H1374 H 0.48212 0.69054 0.45023 0.0
H1375 H 0.47381 0.71322 0.43088 0.0
H1376 H 0.87947 0.79259 0.78165 0.0
H1377 H 0.89942 0.78513 0.75907 0.0
H1378 H 0.88976 0.83223 0.73313 0.0
H1379 H 0.86948 0.83969 0.75557 0.0
H1380 H 0.88862 0.80286 0.71158 0.0
H1381 H 0.94782 0.80678 0.75117 0.0
H1382 H 0.93088 0.79378 0.76042 0.0
H1383 H 0.92814 0.81626 0.75768 0.0
C1384 C 0.88148 0.80132 0.77108 0.0
C1385 C 0.87288 0.81674 0.77041 0.0
C1386 C 0.89305 0.79713 0.7583 0.0
C1387 C 0.89629 0.80827 0.74459 0.0
C1388 C 0.88756 0.82355 0.7437 0.0
H1389 H 0.97814 0.78568 0.67122 0.0
H1390 H 0.95979 0.80193 0.69029 0.0
C1391 C 0.87603 0.82781 0.75656 0.0
C1392 C 0.90839 0.80356 0.73095 0.0
H1393 H 0.94957 0.79192 0.72439 0.0
C1394 C 0.90201 0.80071 0.71431 0.0
C1395 C 0.92591 0.80102 0.73446 0.0
C1396 C 0.93367 0.80478 0.75186 0.0
C1397 C 0.91247 0.79444 0.70133 0.0
C1398 C 0.92969 0.79082 0.70516 0.0
C1399 C 0.93633 0.7946 0.72152 0.0
C1400 C 0.94046 0.7816 0.6929 0.0
C1401 C 0.90492 0.7914 0.68371 0.0
C1402 C 0.93572 0.76482 0.68819 0.0
C1403 C 0.94616 0.75552 0.67748 0.0
C1404 C 0.96164 0.76279 0.6712 0.0
C1405 C 0.96629 0.77973 0.67577 0.0
C1406 C 0.95584 0.78901 0.68666 0.0
H1407 H 0.89358 0.79926 0.68149 0.0
H1408 H 0.91455 0.79432 0.67363 0.0
H1409 H 0.90071 0.77778 0.68243 0.0
H1410 H 0.92406 0.75876 0.69309 0.0
H1411 H 0.94209 0.74255 0.67422 0.0
H1412 H 0.00637 0.88743 0.49799 0.0
H1413 H 0.99871 0.86548 0.51904 0.0
H1414 H 0.03989 0.88416 0.55195 0.0
H1415 H 0.04764 0.90614 0.53096 0.0
H1416 H 0.01919 0.84007 0.53013 0.0
H1417 H 1.00008 0.87978 0.58519 0.0
H1418 H 0.00224 0.88818 0.56379 0.0
H1419 H 0.02092 0.88557 0.57698 0.0
C1420 C 0.01375 0.88693 0.50975 0.0
C1421 C 0.02763 0.89854 0.51278 0.0
C1422 C 0.00931 0.87442 0.5218 0.0
C1423 C 0.01858 0.8733 0.53717 0.0
C1424 C 0.03228 0.88502 0.54037 0.0
H1425 H 0.02426 0.80065 0.61957 0.0
H1426 H 0.02746 0.82491 0.60013 0.0
C1427 C 0.03671 0.89758 0.52834 0.0
C1428 C 0.01465 0.85916 0.5493 0.0
H1429 H 0.00423 0.85035 0.59084 0.0
C1430 C 0.01575 0.84231 0.54336 0.0
C1431 C 0.01024 0.86211 0.56657 0.0
C1432 C 0.00813 0.87988 0.5735 0.0
C1433 C 0.01299 0.82835 0.55432 0.0
C1434 C 0.00873 0.83129 0.57163 0.0
C1435 C 0.00749 0.84813 0.57755 0.0
C1436 C 0.00603 0.81704 0.58388 0.0
C1437 C 0.01518 0.81057 0.5474 0.0
C1438 C 0.99268 0.80475 0.58141 0.0
C1439 C 0.99081 0.79084 0.59251 0.0
C1440 C 0.00224 0.78902 0.60631 0.0
C1441 C 0.01528 0.80164 0.60903 0.0
C1442 C 0.01712 0.81553 0.59795 0.0
H1443 H 0.02225 0.81069 0.53511 0.0
H1444 H 0.02215 0.80269 0.55673 0.0
H1445 H 0.00236 0.80435 0.5451 0.0
H1446 H 0.9838 0.80584 0.57081 0.0
H1447 H 0.98058 0.7814 0.59011 0.0
H1448 H 0.12752 0.71562 0.78551 0.0
H1449 H 0.10125 0.71785 0.76849 0.0
H1450 H 0.12766 0.70001 0.72391 0.0
H1451 H 0.15386 0.69766 0.74083 0.0
H1452 H 0.09619 0.73797 0.74108 0.0
H1453 H 0.08414 0.67043 0.7223 0.0
H1454 H 0.0991 0.6768 0.73906 0.0
H1455 H 0.10535 0.67815 0.71695 0.0
C1456 C 0.12768 0.71205 0.77211 0.0
C1457 C 0.14276 0.70638 0.76455 0.0
C1458 C 0.11265 0.71329 0.76241 0.0
C1459 C 0.11239 0.70886 0.74497 0.0
C1460 C 0.12739 0.70306 0.73743 0.0
H1461 H 0.04537 0.74477 0.66571 0.0
H1462 H 0.06854 0.73997 0.68602 0.0
C1463 C 0.14239 0.70173 0.74713 0.0
C1464 C 0.0968 0.71133 0.7344 0.0
H1465 H 0.06898 0.69115 0.70636 0.0
C1466 C 0.09015 0.72769 0.73362 0.0
C1467 C 0.08875 0.69788 0.72483 0.0
C1468 C 0.09459 0.67979 0.72594 0.0
C1469 C 0.07601 0.73109 0.72315 0.0
C1470 C 0.06854 0.71785 0.71288 0.0
C1471 C 0.07485 0.70136 0.71407 0.0
C1472 C 0.05434 0.72087 0.70065 0.0
C1473 C 0.06913 0.74882 0.72331 0.0
C1474 C 0.03877 0.7114 0.7018 0.0
C1475 C 0.02551 0.71397 0.69008 0.0
C1476 C 0.02756 0.72606 0.6769 0.0
C1477 C 0.04323 0.73547 0.67576 0.0
C1478 C 0.05649 0.73282 0.68744 0.0
H1479 H 0.07268 0.75577 0.73531 0.0
H1480 H 0.0747 0.75618 0.71245 0.0
H1481 H 0.05495 0.74842 0.72192 0.0
H1482 H 0.03686 0.70202 0.71183 0.0
H1483 H 0.01367 0.70644 0.69134 0.0
H1484 H 0.97479 0.60126 0.50651 0.0
H1485 H 0.97602 0.62895 0.52123 0.0
H1486 H 0.01643 0.61168 0.554 0.0
H1487 H 0.01566 0.58427 0.53907 0.0
H1488 H 0.96959 0.63415 0.55503 0.0
H1489 H 0.03509 0.65866 0.54027 0.0
H1490 H 0.02468 0.64127 0.52851 0.0
H1491 H 0.03493 0.63744 0.54876 0.0
C1492 C 0.98418 0.60349 0.51662 0.0
C1493 C 0.99509 0.59052 0.52165 0.0
C1494 C 0.98482 0.61929 0.52506 0.0
C1495 C 0.99649 0.62249 0.53856 0.0
C1496 C 0.00758 0.60967 0.54339 0.0
H1497 H 0.02239 0.69731 0.61588 0.0
H1498 H 0.0199 0.67335 0.59571 0.0
C1499 C 0.00694 0.5939 0.53499 0.0
C1500 C 0.99612 0.63858 0.54863 0.0
H1501 H 0.02151 0.6715 0.5642 0.0
C1502 C 0.98089 0.64244 0.55696 0.0
C1503 C 0.0108 0.64946 0.55096 0.0
C1504 C 0.02725 0.64661 0.5415 0.0
C1505 C 0.98016 0.65625 0.56839 0.0
C1506 C 0.99512 0.66678 0.57146 0.0
C1507 C 0.01012 0.66333 0.56235 0.0
C1508 C 0.9959 0.68095 0.58441 0.0
C1509 C 0.96341 0.65881 0.57733 0.0
C1510 C 0.98326 0.69328 0.5851 0.0
C1511 C 0.98418 0.70629 0.59743 0.0
C1512 C 0.99821 0.70782 0.6087 0.0
C1513 C 0.01124 0.69609 0.60758 0.0
C1514 C 0.00988 0.68253 0.59589 0.0
H1515 H 0.95602 0.64654 0.57898 0.0
H1516 H 0.96541 0.66472 0.59001 0.0
H1517 H 0.95548 0.66726 0.56945 0.0
H1518 H 0.97275 0.693 0.576 0.0
H1519 H 0.97426 0.71559 0.59772 0.0
H1520 H 0.72429 0.89795 0.18558 0.0
H1521 H 0.74723 0.91903 0.19228 0.0
H1522 H 0.77667 0.87985 0.21567 0.0
H1523 H 0.75402 0.85853 0.20848 0.0
H1524 H 0.75983 0.92834 0.22399 0.0
H1525 H 0.8115 0.90308 0.18376 0.0
H1526 H 0.78928 0.89623 0.18119 0.0
H1527 H 0.80201 0.88766 0.19812 0.0
C1528 C 0.73577 0.89373 0.19188 0.0
C1529 C 0.73735 0.87651 0.19639 0.0
C1530 C 0.74882 0.90583 0.19581 0.0
C1531 C 0.76376 0.90098 0.20425 0.0
C1532 C 0.76539 0.88383 0.20885 0.0
H1533 H 0.83604 0.96523 0.26141 0.0
H1534 H 0.81326 0.94511 0.25166 0.0
C1535 C 0.75234 0.87169 0.20492 0.0
C1536 C 0.77728 0.91402 0.20887 0.0
H1537 H 0.81968 0.92497 0.20369 0.0
C1538 C 0.7729 0.92764 0.21949 0.0
C1539 C 0.79428 0.91322 0.20281 0.0
C1540 C 0.79956 0.89936 0.1907 0.0
C1541 C 0.78514 0.94027 0.22454 0.0
C1542 C 0.80228 0.9391 0.21902 0.0
C1543 C 0.80658 0.92573 0.20805 0.0
C1544 C 0.81601 0.9514 0.22484 0.0
C1545 C 0.77957 0.95484 0.23562 0.0
C1546 C 0.8253 0.96143 0.21297 0.0
C1547 C 0.83843 0.97283 0.21854 0.0
C1548 C 0.84272 0.97396 0.23597 0.0
C1549 C 0.83322 0.96419 0.24784 0.0
C1550 C 0.82009 0.95287 0.24231 0.0
H1551 H 0.76553 0.95652 0.23465 0.0
H1552 H 0.78268 0.95211 0.24919 0.0
H1553 H 0.78634 0.967 0.23204 0.0
H1554 H 0.82233 0.96048 0.19943 0.0
H1555 H 0.84543 0.98052 0.20924 0.0
H1556 H 0.73739 0.13112 0.28525 0.0
H1557 H 0.75658 0.10725 0.28316 0.0
H1558 H 0.79347 0.1343 0.31556 0.0
H1559 H 0.77434 0.15816 0.31776 0.0
H1560 H 0.78831 0.10859 0.26936 0.0
H1561 H 0.7924 0.08709 0.33669 0.0
H1562 H 0.77609 0.10106 0.32928 0.0
H1563 H 0.79733 0.10947 0.33414 0.0
C1564 C 0.74953 0.13191 0.29206 0.0
C1565 C 0.75433 0.14654 0.30168 0.0
C1566 C 0.76045 0.11824 0.2909 0.0
C1567 C 0.77639 0.11888 0.29937 0.0
C1568 C 0.78108 0.13331 0.30926 0.0
H1569 H 0.8641 0.06183 0.26794 0.0
H1570 H 0.84453 0.08409 0.27597 0.0
C1571 C 0.77012 0.14697 0.31049 0.0
C1572 C 0.78864 0.10508 0.29668 0.0
H1573 H 0.813 0.07621 0.31739 0.0
C1574 C 0.79363 0.10145 0.27987 0.0
C1575 C 0.79547 0.09567 0.31038 0.0
C1576 C 0.78994 0.09838 0.32862 0.0
C1577 C 0.80545 0.08888 0.27637 0.0
C1578 C 0.81278 0.07991 0.29011 0.0
C1579 C 0.80756 0.08328 0.30691 0.0
C1580 C 0.82556 0.0667 0.28711 0.0
C1581 C 0.80976 0.08512 0.25796 0.0
C1582 C 0.82179 0.04964 0.29148 0.0
C1583 C 0.83304 0.03689 0.28705 0.0
C1584 C 0.84827 0.041 0.27818 0.0
C1585 C 0.85242 0.05822 0.27464 0.0
C1586 C 0.8412 0.07095 0.27913 0.0
H1587 H 0.79992 0.08984 0.249 0.0
H1588 H 0.82221 0.0916 0.25478 0.0
H1589 H 0.81093 0.07121 0.25582 0.0
H1590 H 0.80984 0.0461 0.29773 0.0
H1591 H 0.82948 0.02375 0.29 0.0
H1592 H 0.42252 0.96788 0.97338 0.0
H1593 H 0.39448 0.95344 0.97709 0.0
H1594 H 0.38391 0.98696 0.01931 0.0
H1595 H 0.41199 1.00147 0.01571 0.0
H1596 H 0.38162 0.93626 0.00559 0.0
H1597 H 0.34151 0.99087 0.98874 0.0
H1598 H 0.36416 0.99075 0.98425 0.0
H1599 H 0.35692 0.99502 0.00557 0.0
C1600 C 0.41426 0.97216 0.98349 0.0
C1601 C 0.41949 0.98586 0.99422 0.0
C1602 C 0.39822 0.96392 0.98557 0.0
C1603 C 0.38703 0.96923 0.99836 0.0
C1604 C 0.39219 0.98287 0.00914 0.0
H1605 H 0.29546 0.90563 0.02546 0.0
H1606 H 0.32236 0.92272 0.02793 0.0
C1607 C 0.40824 0.99116 0.00704 0.0
C1608 C 0.3701 0.96023 1.00048 0.0
H1609 H 0.32695 0.96554 0.99761 0.0
C1610 C 0.36964 0.94267 0.00395 0.0
C1611 C 0.35451 0.96862 0.99824 0.0
C1612 C 0.3542 0.98732 0.99385 0.0
C1613 C 0.35405 0.93318 0.00494 0.0
C1614 C 0.33846 0.94156 0.00268 0.0
C1615 C 0.33891 0.95919 0.99951 0.0
C1616 C 0.32168 0.93201 0.0019 0.0
C1617 C 0.35441 0.91417 0.0077 0.0
C1618 C 0.31212 0.93201 0.98666 0.0
C1619 C 0.29677 0.9224 0.98523 0.0
C1620 C 0.29053 0.91256 0.99906 0.0
C1621 C 0.29989 0.91297 0.01453 0.0
C1622 C 0.31532 0.92265 0.01594 0.0
H1623 H 0.36742 0.90924 0.00577 0.0
H1624 H 0.35044 0.9112 0.021 0.0
H1625 H 0.34534 0.90728 0.99885 0.0
H1626 H 0.31676 0.93916 0.97567 0.0
H1627 H 0.28995 0.9225 0.97312 0.0
H1628 H 0.27805 0.39975 0.32572 0.0
H1629 H 0.25459 0.41808 0.31816 0.0
H1630 H 0.22992 0.37671 0.2897 0.0
H1631 H 0.25312 0.35806 0.29767 0.0
H1632 H 0.24439 0.42724 0.28545 0.0
H1633 H 0.19101 0.39351 0.31969 0.0
H1634 H 0.21326 0.3896 0.32408 0.0
H1635 H 0.20288 0.38039 0.30545 0.0
C1636 C 0.2675 0.39442 0.3181 0.0
C1637 C 0.26743 0.37737 0.31241 0.0
C1638 C 0.25415 0.40497 0.31369 0.0
C1639 C 0.24038 0.39871 0.30357 0.0
C1640 C 0.24025 0.38172 0.29779 0.0
H1641 H 0.15219 0.44855 0.25995 0.0
H1642 H 0.17308 0.42779 0.269 0.0
C1643 C 0.25363 0.37114 0.30219 0.0
C1644 C 0.2266 0.41026 0.29852 0.0
H1645 H 0.18364 0.41651 0.30184 0.0
C1646 C 0.23112 0.42491 0.28907 0.0
C1647 C 0.20927 0.40715 0.30317 0.0
C1648 C 0.20377 0.39189 0.31378 0.0
C1649 C 0.21879 0.4365 0.28408 0.0
C1650 C 0.2015 0.43354 0.28894 0.0
C1651 C 0.19691 0.41877 0.2982 0.0
C1652 C 0.18809 0.44575 0.28458 0.0
C1653 C 0.22435 0.45169 0.27339 0.0
C1654 C 0.18929 0.46258 0.29077 0.0
C1655 C 0.1774 0.47445 0.28563 0.0
C1656 C 0.164 0.4697 0.27427 0.0
C1657 C 0.16238 0.45263 0.26868 0.0
C1658 C 0.17431 0.44075 0.27383 0.0
H1659 H 0.23684 0.44976 0.26706 0.0
H1660 H 0.21463 0.45432 0.26341 0.0
H1661 H 0.22585 0.46312 0.28177 0.0
H1662 H 0.19962 0.46661 0.29937 0.0
H1663 H 0.17896 0.48746 0.29026 0.0
H1664 H 0.09577 0.02156 0.47161 0.0
H1665 H 0.11878 0.04233 0.47914 0.0
H1666 H 0.14484 0.00363 0.50704 0.0
H1667 H 0.12175 0.98279 0.49983 0.0
H1668 H 0.1326 0.05282 0.51228 0.0
H1669 H 0.18023 0.02158 0.47116 0.0
H1670 H 0.15747 0.01697 0.4692 0.0
H1671 H 0.16937 0.00814 0.48656 0.0
C1672 C 0.10623 0.0175 0.47959 0.0
C1673 C 0.10695 1.00045 0.48501 0.0
C1674 C 0.11942 0.02938 0.48381 0.0
C1675 C 0.13362 0.02444 0.49343 0.0
C1676 C 0.13413 0.00761 0.49934 0.0
H1677 H 0.21107 0.10034 0.53246 0.0
H1678 H 0.18819 0.07803 0.53114 0.0
C1679 C 0.12094 0.99572 0.49517 0.0
C1680 C 0.14808 0.03683 0.4968 0.0
H1681 H 0.19001 0.04555 0.48708 0.0
C1682 C 0.14518 0.05132 0.50678 0.0
C1683 C 0.16444 0.03473 0.48963 0.0
C1684 C 0.16813 0.0196 0.47843 0.0
C1685 C 0.15814 0.06398 0.50959 0.0
C1686 C 0.17456 0.06204 0.50224 0.0
C1687 C 0.17746 0.04725 0.49258 0.0
C1688 C 0.18869 0.07538 0.50351 0.0
C1689 C 0.15376 0.07929 0.52021 0.0
C1690 C 0.19741 0.08067 0.48862 0.0
C1691 C 0.2109 0.09286 0.48951 0.0
C1692 C 0.21548 0.10063 0.50514 0.0
C1693 C 0.20726 0.09501 0.52014 0.0
C1694 C 0.19408 0.08237 0.51935 0.0
H1695 H 0.13993 0.08201 0.51909 0.0
H1696 H 0.15649 0.07659 0.53387 0.0
H1697 H 0.16133 0.09085 0.51653 0.0
H1698 H 0.19381 0.07534 0.47624 0.0
H1699 H 0.2178 0.09619 0.47794 0.0
H1700 H 0.78507 0.10999 0.68665 0.0
H1701 H 0.76162 0.09005 0.69439 0.0
H1702 H 0.73348 0.13162 0.71505 0.0
H1703 H 0.75693 0.15171 0.70725 0.0
H1704 H 0.74885 0.08286 0.72595 0.0
H1705 H 0.69782 0.10776 0.68422 0.0
H1706 H 0.72017 0.11395 0.68171 0.0
H1707 H 0.70771 0.1235 0.69822 0.0
C1708 C 0.77392 0.1149 0.69289 0.0
C1709 C 0.77287 0.13244 0.69636 0.0
C1710 C 0.76049 0.10349 0.69723 0.0
C1711 C 0.74569 0.10935 0.70509 0.0
C1712 C 0.7446 0.12685 0.70863 0.0
H1713 H 0.67213 0.0454 0.76113 0.0
H1714 H 0.69452 0.06628 0.75247 0.0
C1715 C 0.75802 0.13831 0.7042 0.0
C1716 C 0.73177 0.09698 0.71012 0.0
H1717 H 0.68922 0.08659 0.70438 0.0
C1718 C 0.73581 0.08366 0.72121 0.0
C1719 C 0.71481 0.09793 0.70378 0.0
C1720 C 0.70985 0.11145 0.69119 0.0
C1721 C 0.72336 0.07134 0.72623 0.0
C1722 C 0.7063 0.07256 0.72026 0.0
C1723 C 0.70227 0.08577 0.70905 0.0
C1724 C 0.6925 0.06018 0.72546 0.0
C1725 C 0.72866 0.05695 0.73763 0.0
C1726 C 0.68372 0.05004 0.71313 0.0
C1727 C 0.6708 0.03824 0.71807 0.0
C1728 C 0.6662 0.03678 0.73534 0.0
C1729 C 0.67515 0.04671 0.74768 0.0
C1730 C 0.68807 0.05846 0.74277 0.0
H1731 H 0.74272 0.05526 0.73724 0.0
H1732 H 0.72517 0.05987 0.75105 0.0
H1733 H 0.72201 0.04473 0.73386 0.0
H1734 H 0.68698 0.05114 0.69971 0.0
H1735 H 0.66425 0.03042 0.70841 0.0
H1736 H 0.42239 0.04382 0.53877 0.0
H1737 H 0.39635 0.05987 0.53529 0.0
H1738 H 0.37895 0.02523 0.49527 0.0
H1739 H 0.40498 0.00908 0.49869 0.0
H1740 H 0.38551 0.07651 0.50642 0.0
H1741 H 0.33691 0.02686 0.52572 0.0
H1742 H 0.35951 0.02499 0.53 0.0
H1743 H 0.35095 0.02034 0.509 0.0
C1744 C 0.41301 0.03958 0.52924 0.0
C1745 C 0.41578 0.02515 0.519 0.0
C1746 C 0.39811 0.04874 0.52731 0.0
C1747 C 0.3856 0.04366 0.51515 0.0
C1748 C 0.38823 0.02918 0.50499 0.0
H1749 H 0.28932 0.08801 0.48388 0.0
H1750 H 0.31493 0.07096 0.48572 0.0
C1751 C 0.40313 0.01996 0.50696 0.0
C1752 C 0.3702 0.05399 0.51266 0.0
H1753 H 0.32642 0.05239 0.5142 0.0
C1754 C 0.37259 0.07124 0.50817 0.0
C1755 C 0.35334 0.0471 0.51485 0.0
C1756 C 0.34996 0.02885 0.52031 0.0
C1757 C 0.35861 0.08175 0.50573 0.0
C1758 C 0.34177 0.0749 0.50808 0.0
C1759 C 0.33934 0.05761 0.51237 0.0
C1760 C 0.32651 0.08558 0.5066 0.0
C1761 C 0.36198 0.10004 0.50041 0.0
C1762 C 0.32448 0.09941 0.51778 0.0
C1763 C 0.30988 0.10917 0.51676 0.0
C1764 C 0.29697 0.10525 0.50458 0.0
C1765 C 0.29906 0.09142 0.49335 0.0
C1766 C 0.31366 0.08164 0.49441 0.0
H1767 H 0.37491 0.10199 0.49471 0.0
H1768 H 0.35223 0.10407 0.49101 0.0
H1769 H 0.36132 0.10843 0.51184 0.0
H1770 H 0.33407 0.1025 0.5275 0.0
H1771 H 0.30863 0.11966 0.52567 0.0
H1772 H 0.63196 0.51961 0.55599 0.0
H1773 H 0.65302 0.49897 0.54753 0.0
H1774 H 0.61553 0.47375 0.51443 0.0
H1775 H 0.59433 0.49447 0.52274 0.0
H1776 H 0.63401 0.45119 0.53453 0.0
H1777 H 0.67763 0.49758 0.50143 0.0
H1778 H 0.67275 0.50359 0.52301 0.0
H1779 H 0.65596 0.5024 0.50714 0.0
C1780 C 0.62822 0.50981 0.54674 0.0
C1781 C 0.61148 0.50882 0.5399 0.0
C1782 C 0.64028 0.498 0.54194 0.0
C1783 C 0.63594 0.48501 0.53013 0.0
C1784 C 0.61917 0.48374 0.52351 0.0
H1785 H 0.70926 0.42295 0.47744 0.0
H1786 H 0.68672 0.44233 0.48492 0.0
C1787 C 0.60706 0.49555 0.52832 0.0
C1788 C 0.64889 0.47267 0.52484 0.0
H1789 H 0.6883 0.47004 0.50647 0.0
C1790 C 0.64585 0.45528 0.52832 0.0
C1791 C 0.66423 0.47801 0.51654 0.0
C1792 C 0.66782 0.49639 0.51164 0.0
C1793 C 0.65792 0.44312 0.52406 0.0
C1794 C 0.67355 0.44856 0.51636 0.0
C1795 C 0.67641 0.4659 0.51255 0.0
C1796 C 0.68706 0.43646 0.51194 0.0
C1797 C 0.65372 0.42454 0.52764 0.0
C1798 C 0.6949 0.42683 0.52469 0.0
C1799 C 0.70781 0.41567 0.52047 0.0
C1800 C 0.71327 0.41404 0.50341 0.0
C1801 C 0.70545 0.42385 0.49071 0.0
C1802 C 0.69253 0.43496 0.49495 0.0
H1803 H 0.63971 0.42203 0.52919 0.0
H1804 H 0.65833 0.41629 0.51718 0.0
H1805 H 0.66014 0.42087 0.53971 0.0
H1806 H 0.69115 0.42806 0.53795 0.0
H1807 H 0.71358 0.40841 0.5306 0.0
H1808 H 0.70134 0.23361 0.38171 0.0
H1809 H 0.70045 0.2515 0.40753 0.0
H1810 H 0.72516 0.29315 0.38017 0.0
H1811 H 0.72574 0.27559 0.35434 0.0
H1812 H 0.72837 0.26675 0.42508 0.0
H1813 H 0.68436 0.31565 0.40241 0.0
H1814 H 0.68632 0.29539 0.39164 0.0
H1815 H 0.70177 0.31259 0.38796 0.0
C1816 C 0.70636 0.24666 0.38115 0.0
C1817 C 0.71364 0.25317 0.36598 0.0
C1818 C 0.7059 0.25683 0.39592 0.0
C1819 C 0.7125 0.27373 0.39568 0.0
C1820 C 0.71969 0.28026 0.38055 0.0
H1821 H 0.75772 0.34056 0.4696 0.0
H1822 H 0.74986 0.3185 0.44849 0.0
C1823 C 0.72021 0.27012 0.36585 0.0
C1824 C 0.71285 0.28437 0.41143 0.0
H1825 H 0.70197 0.32326 0.42679 0.0
C1826 C 0.7224 0.27901 0.42556 0.0
C1827 C 0.70481 0.30022 0.41217 0.0
C1828 C 0.69359 0.30624 0.3978 0.0
C1829 C 0.725 0.28955 0.43998 0.0
C1830 C 0.71803 0.30595 0.44016 0.0
C1831 C 0.70755 0.31083 0.42652 0.0
C1832 C 0.72263 0.31873 0.45362 0.0
C1833 C 0.73539 0.28312 0.45479 0.0
C1834 C 0.70992 0.32644 0.46333 0.0
C1835 C 0.71442 0.33922 0.47531 0.0
C1836 C 0.73162 0.34476 0.47731 0.0
C1837 C 0.74432 0.33677 0.46791 0.0
C1838 C 0.73986 0.324 0.45605 0.0
H1839 H 0.73478 0.26895 0.45531 0.0
H1840 H 0.74902 0.28729 0.45314 0.0
H1841 H 0.73087 0.28821 0.46718 0.0
H1842 H 0.69654 0.32261 0.46159 0.0
H1843 H 0.70449 0.34505 0.48269 0.0
H1844 H 0.53676 0.04271 0.91953 0.0
H1845 H 0.55159 0.03984 0.89226 0.0
H1846 H 0.52584 0.99089 0.88385 0.0
H1847 H 0.51109 0.99353 0.91125 0.0
H1848 H 0.57357 0.0134 0.88279 0.0
H1849 H 0.51752 0.01698 0.83883 0.0
H1850 H 0.51684 0.02383 0.8609 0.0
H1851 H 0.51548 1.00151 0.85568 0.0
C1852 C 0.53425 0.03131 0.91192 0.0
C1853 C 0.52272 0.01835 0.91762 0.0
C1854 C 0.5427 0.02972 0.8963 0.0
C1855 C 0.53971 0.01522 0.88597 0.0
C1856 C 0.52811 0.00232 0.89149 0.0
H1857 H 0.60674 0.98916 0.8003 0.0
H1858 H 0.5892 0.98716 0.82621 0.0
C1859 C 0.51966 0.00388 0.90714 0.0
C1860 C 0.54922 0.01344 0.86971 0.0
H1861 H 0.54426 0.01165 0.82625 0.0
C1862 C 0.56717 0.01292 0.87042 0.0
C1863 C 0.54082 0.01291 0.85361 0.0
C1864 C 0.52162 0.01397 0.85209 0.0
C1865 C 0.57697 0.01205 0.85545 0.0
C1866 C 0.56858 0.01151 0.83934 0.0
C1867 C 0.55062 0.01189 0.83863 0.0
C1868 C 0.57833 0.01194 0.8231 0.0
C1869 C 0.59627 0.01231 0.85693 0.0
C1870 C 0.57766 0.0263 0.81255 0.0
C1871 C 0.58761 0.02749 0.79779 0.0
C1872 C 0.59841 0.01427 0.79315 0.0
C1873 C 0.59862 0.9996 0.80347 0.0
C1874 C 0.58867 0.99846 0.81833 0.0
H1875 H 0.60079 0.01584 0.87003 0.0
H1876 H 0.60086 0.99944 0.85387 0.0
H1877 H 0.60218 0.02146 0.84769 0.0
H1878 H 0.56973 0.03682 0.81598 0.0
H1879 H 0.587 0.03895 0.79015 0.0
H1880 H 0.33615 0.27701 0.39089 0.0
H1881 H 0.32998 0.25301 0.41007 0.0
H1882 H 0.28305 0.24115 0.38238 0.0
H1883 H 0.2894 0.26472 0.36279 0.0
H1884 H 0.30241 0.24798 0.43134 0.0
H1885 H 0.30468 0.1949 0.3846 0.0
H1886 H 0.31308 0.21614 0.37996 0.0
H1887 H 0.29046 0.21109 0.37798 0.0
C1888 C 0.32466 0.26911 0.38868 0.0
C1889 C 0.31331 0.27276 0.37522 0.0
C1890 C 0.32111 0.25546 0.39974 0.0
C1891 C 0.30621 0.2451 0.3975 0.0
C1892 C 0.29482 0.24873 0.38413 0.0
H1893 H 0.24447 0.17092 0.44829 0.0
H1894 H 0.25898 0.19165 0.4298 0.0
C1895 C 0.29836 0.26236 0.37307 0.0
C1896 C 0.30208 0.231 0.4096 0.0
H1897 H 0.29075 0.18855 0.41128 0.0
C1898 C 0.30014 0.23492 0.42703 0.0
C1899 C 0.29924 0.21395 0.40396 0.0
C1900 C 0.30215 0.20871 0.38563 0.0
C1901 C 0.2945 0.22244 0.43878 0.0
C1902 C 0.2909 0.20558 0.43296 0.0
C1903 C 0.2935 0.20151 0.41569 0.0
C1904 C 0.28275 0.19244 0.44417 0.0
C1905 C 0.2916 0.22753 0.45715 0.0
C1906 C 0.29142 0.18579 0.45832 0.0
C1907 C 0.28313 0.17379 0.46902 0.0
C1908 C 0.26602 0.16836 0.46576 0.0
C1909 C 0.25758 0.17488 0.45135 0.0
C1910 C 0.26587 0.18672 0.44068 0.0
H1911 H 0.29277 0.24157 0.45907 0.0
H1912 H 0.27869 0.22293 0.46139 0.0
H1913 H 0.30122 0.22152 0.46546 0.0
H1914 H 0.30454 0.18991 0.4611 0.0
H1915 H 0.29001 0.169 0.47996 0.0
H1916 H 0.51285 0.50484 0.90606 0.0
H1917 H 0.49312 0.51289 0.88325 0.0
H1918 H 0.46304 0.46637 0.89115 0.0
H1919 H 0.48269 0.4582 0.91383 0.0
H1920 H 0.48702 0.4952 0.85356 0.0
H1921 H 0.42615 0.5015 0.88851 0.0
H1922 H 0.44668 0.50117 0.89927 0.0
H1923 H 0.43583 0.48154 0.89267 0.0
C1924 C 0.50195 0.49639 0.90303 0.0
C1925 C 0.49936 0.48086 0.9118 0.0
C1926 C 0.49065 0.50105 0.89005 0.0
C1927 C 0.47646 0.49036 0.88565 0.0
C1928 C 0.47363 0.47505 0.89461 0.0
H1929 H 0.42426 0.46968 0.79255 0.0
H1930 H 0.44312 0.47233 0.8174 0.0
C1931 C 0.48491 0.47038 0.90759 0.0
C1932 C 0.46549 0.49437 0.8707 0.0
H1933 H 0.42376 0.49735 0.85797 0.0
C1934 C 0.47322 0.49596 0.85457 0.0
C1935 C 0.4475 0.4956 0.87202 0.0
C1936 C 0.43857 0.49504 0.88908 0.0
C1937 C 0.46336 0.49777 0.83965 0.0
C1938 C 0.44529 0.49777 0.84086 0.0
C1939 C 0.43761 0.49717 0.85705 0.0
C1940 C 0.43416 0.49685 0.8254 0.0
C1941 C 0.47236 0.49933 0.82266 0.0
C1942 C 0.42265 0.50969 0.82175 0.0
C1943 C 0.41174 0.50824 0.80743 0.0
C1944 C 0.41202 0.49378 0.7967 0.0
C1945 C 0.42365 0.48101 0.80047 0.0
C1946 C 0.43455 0.48253 0.81464 0.0
H1947 H 0.48582 0.50424 0.82427 0.0
H1948 H 0.47264 0.48654 0.81656 0.0
H1949 H 0.46555 0.50793 0.8139 0.0
H1950 H 0.42207 0.52079 0.83 0.0
H1951 H 0.40289 0.51826 0.80499 0.0
H1952 H 0.71727 0.75702 0.15134 0.0
H1953 H 0.72647 0.73592 0.13042 0.0
H1954 H 0.69114 0.75527 0.09328 0.0
H1955 H 0.68239 0.77676 0.11376 0.0
H1956 H 0.70758 0.71032 0.1138 0.0
H1957 H 0.7356 0.75575 0.06664 0.0
H1958 H 0.73029 0.76207 0.08815 0.0
H1959 H 0.71387 0.76016 0.07191 0.0
C1960 C 0.71162 0.75693 0.13865 0.0
C1961 C 0.69911 0.76865 0.13425 0.0
C1962 C 0.71682 0.74479 0.12675 0.0
C1963 C 0.70971 0.74421 0.11019 0.0
C1964 C 0.69707 0.75571 0.10585 0.0
H1965 H 0.71142 0.68081 0.02043 0.0
H1966 H 0.70621 0.7017 0.04288 0.0
C1967 C 0.6919 0.76785 0.11769 0.0
C1968 C 0.71514 0.73134 0.09753 0.0
H1969 H 0.73054 0.72702 0.05696 0.0
C1970 C 0.71279 0.71395 0.10145 0.0
C1971 C 0.72199 0.73611 0.08143 0.0
C1972 C 0.72576 0.75454 0.07682 0.0
C1973 C 0.7165 0.70123 0.08945 0.0
C1974 C 0.72286 0.70604 0.0732 0.0
C1975 C 0.72556 0.72339 0.06941 0.0
C1976 C 0.72625 0.69327 0.05971 0.0
C1977 C 0.71304 0.68275 0.09401 0.0
C1978 C 0.7394 0.68171 0.06166 0.0
C1979 C 0.74249 0.66974 0.04881 0.0
C1980 C 0.73247 0.66912 0.03374 0.0
C1981 C 0.71939 0.68085 0.03184 0.0
C1982 C 0.71638 0.69284 0.04465 0.0
H1983 H 0.70519 0.68131 0.10577 0.0
H1984 H 0.70632 0.67585 0.08333 0.0
H1985 H 0.72541 0.67658 0.09627 0.0
H1986 H 0.74732 0.68201 0.0731 0.0
H1987 H 0.75269 0.66095 0.05073 0.0
H1988 H 0.98929 0.04849 0.10364 0.0
H1989 H 0.9683 0.0397 0.12535 0.0
H1990 H 0.0071 0.01244 0.15215 0.0
H1991 H 0.02811 0.02093 0.13041 0.0
H1992 H 0.95746 0.00632 0.13703 0.0
H1993 H 0.98874 0.04587 0.18838 0.0
H1994 H 0.99348 0.04891 0.16598 0.0
H1995 H 0.00263 0.03167 0.17752 0.0
C1996 C 0.99332 0.04042 0.11401 0.0
C1997 C 0.01044 0.03555 0.11534 0.0
C1998 C 0.98132 0.03548 0.12645 0.0
C1999 C 0.98623 0.02567 0.1405 0.0
C2000 C 0.00314 0.02032 0.14159 0.0
H2001 H 0.92155 0.97265 0.21503 0.0
H2002 H 0.94182 0.98028 0.19234 0.0
C2003 C 0.01513 0.02521 0.12916 0.0
C2004 C 0.97375 0.02125 0.15417 0.0
H2005 H 0.9658 0.02711 0.1967 0.0
C2006 C 0.95925 0.01087 0.15008 0.0
C2007 C 0.97602 0.02739 0.17112 0.0
C2008 C 0.99097 0.0392 0.17606 0.0
C2009 C 0.9471 0.00621 0.16258 0.0
C2010 C 0.94963 0.01197 0.17964 0.0
C2011 C 0.96398 0.02259 0.18365 0.0
C2012 C 0.93741 0.00732 0.19348 0.0
C2013 C 0.93152 0.99538 0.15741 0.0
C2014 C 0.9285 0.02004 0.20193 0.0
C2015 C 0.91693 0.01576 0.21496 0.0
C2016 C 0.91414 0.99864 0.21992 0.0
C2017 C 0.92333 0.98595 0.21157 0.0
C2018 C 0.93485 0.99026 0.1985 0.0
H2019 H 0.92943 0.9954 0.14333 0.0
H2020 H 0.93331 0.98201 0.16145 0.0
H2021 H 0.91983 0.99993 0.16375 0.0
H2022 H 0.93037 0.0333 0.19831 0.0
H2023 H 0.91015 0.02588 0.2211 0.0
H2024 H 0.28562 0.73595 0.13505 0.0
H2025 H 0.27741 0.75933 0.11654 0.0
H2026 H 0.32979 0.77887 0.11615 0.0
H2027 H 0.338 0.75598 0.13532 0.0
H2028 H 0.307 0.80439 0.11922 0.0
H2029 H 0.2878 0.7609 0.06574 0.0
H2030 H 0.27663 0.75622 0.08528 0.0
H2031 H 0.29944 0.75381 0.08424 0.0
C2032 C 0.29537 0.74536 0.13128 0.0
C2033 C 0.31252 0.74396 0.13659 0.0
C2034 C 0.29068 0.75861 0.1205 0.0
C2035 C 0.30306 0.77063 0.11464 0.0
C2036 C 0.32006 0.76964 0.12037 0.0
H2037 H 0.28866 0.83459 0.02547 0.0
H2038 H 0.29935 0.81445 0.04645 0.0
C2039 C 0.32475 0.75645 0.13123 0.0
C2040 C 0.29836 0.78405 0.1023 0.0
H2041 H 0.281 0.78998 0.06265 0.0
C2042 C 0.30137 0.80126 0.10682 0.0
C2043 C 0.29129 0.77994 0.086 0.0
C2044 C 0.28875 0.76172 0.07992 0.0
C2045 C 0.2972 0.81448 0.09562 0.0
C2046 C 0.2895 0.81036 0.07959 0.0
C2047 C 0.28678 0.79314 0.07498 0.0
C2048 C 0.28409 0.82362 0.06737 0.0
C2049 C 0.30137 0.83269 0.10094 0.0
C2050 C 0.27205 0.83558 0.07215 0.0
C2051 C 0.26603 0.84721 0.06022 0.0
C2052 C 0.27175 0.84695 0.04319 0.0
C2053 C 0.284 0.83514 0.03849 0.0
C2054 C 0.2901 0.8236 0.05046 0.0
H2055 H 0.31164 0.83345 0.11085 0.0
H2056 H 0.3055 0.84057 0.08983 0.0
H2057 H 0.28976 0.83825 0.10647 0.0
H2058 H 0.2669 0.8356 0.08499 0.0
H2059 H 0.25648 0.85605 0.06421 0.0
H2060 H 0.02728 0.46362 0.09247 0.0
H2061 H 0.04224 0.46611 0.12005 0.0
H2062 H 0.02419 0.51703 0.12638 0.0
H2063 H 0.00925 0.51465 0.09884 0.0
H2064 H 0.06801 0.48951 0.12848 0.0
H2065 H 0.01337 0.49588 0.17271 0.0
H2066 H 0.01064 0.48839 0.15094 0.0
H2067 H 0.01335 0.51086 0.1554 0.0
C2068 C 0.02643 0.47532 0.09978 0.0
C2069 C 0.01705 0.48894 0.09344 0.0
C2070 C 0.03492 0.47669 0.11557 0.0
C2071 C 0.03415 0.49167 0.1254 0.0
C2072 C 0.02462 0.50519 0.11923 0.0
H2073 H 0.08564 0.53542 0.21381 0.0
H2074 H 0.06749 0.5286 0.18898 0.0
C2075 C 0.01609 0.50382 0.10346 0.0
C2076 C 0.04428 0.49359 0.1415 0.0
H2077 H 0.04122 0.50299 0.1841 0.0
C2078 C 0.06214 0.49227 0.14068 0.0
C2079 C 0.0366 0.49723 0.1574 0.0
C2080 C 0.01742 0.49802 0.15925 0.0
C2081 C 0.07259 0.49501 0.1552 0.0
C2082 C 0.06494 0.49892 0.17104 0.0
C2083 C 0.04706 0.5 0.17193 0.0
C2084 C 0.07537 0.50256 0.18667 0.0
C2085 C 0.09179 0.49429 0.15334 0.0
C2086 C 0.08559 0.49006 0.19384 0.0
C2087 C 0.09604 0.4939 0.20807 0.0
C2088 C 0.09642 0.51032 0.21546 0.0
C2089 C 0.08576 0.52265 0.20848 0.0
C2090 C 0.07533 0.51879 0.19428 0.0
H2091 H 0.09578 0.49493 0.13973 0.0
H2092 H 0.09841 0.50492 0.16049 0.0
H2093 H 0.09612 0.4821 0.15872 0.0
H2094 H 0.08558 0.47736 0.18834 0.0
H2095 H 0.10398 0.48405 0.21312 0.0
H2096 H 0.37878 0.67151 0.24811 0.0
H2097 H 0.39806 0.6783 0.2722 0.0
H2098 H 0.39758 0.73167 0.25938 0.0
H2099 H 0.37869 0.72502 0.23498 0.0
H2100 H 0.43161 0.69652 0.27005 0.0
H2101 H 0.38525 0.72914 0.31145 0.0
H2102 H 0.37852 0.71498 0.29417 0.0
H2103 H 0.38632 0.73631 0.28964 0.0
C2104 C 0.38284 0.68469 0.25032 0.0
C2105 C 0.37716 0.69772 0.23955 0.0
C2106 C 0.39378 0.68854 0.26415 0.0
C2107 C 0.39909 0.70548 0.26764 0.0
C2108 C 0.39339 0.71853 0.25705 0.0
H2109 H 0.46249 0.75836 0.3433 0.0
H2110 H 0.44235 0.74965 0.3205 0.0
C2111 C 0.38253 0.7147 0.24315 0.0
C2112 C 0.41103 0.70948 0.28203 0.0
H2113 H 0.41433 0.7308 0.32005 0.0
C2114 C 0.42784 0.70385 0.28112 0.0
C2115 C 0.40606 0.71916 0.29632 0.0
C2116 C 0.38802 0.72517 0.29811 0.0
C2117 C 0.44 0.70802 0.29396 0.0
C2118 C 0.43501 0.71766 0.30836 0.0
C2119 C 0.41813 0.7232 0.30922 0.0
C2120 C 0.4472 0.7227 0.32238 0.0
C2121 C 0.45819 0.70267 0.29153 0.0
C2122 C 0.45653 0.71048 0.33122 0.0
C2123 C 0.46825 0.71551 0.3441 0.0
C2124 C 0.47025 0.73274 0.3488 0.0
C2125 C 0.46082 0.74493 0.34012 0.0
C2126 C 0.44938 0.73996 0.32708 0.0
H2127 H 0.46099 0.70015 0.27784 0.0
H2128 H 0.46756 0.71258 0.29637 0.0
H2129 H 0.46012 0.69069 0.29868 0.0
H2130 H 0.45475 0.69704 0.3282 0.0
H2131 H 0.47553 0.70595 0.35056 0.0
H2132 H 0.00841 0.4106 0.00388 0.0
H2133 H 0.01246 0.38344 0.98918 0.0
H2134 H 0.97253 0.39505 0.95314 0.0
H2135 H 0.96854 0.42229 0.96768 0.0
H2136 H 0.991 0.35632 0.98387 0.0
H2137 H 0.01087 0.38304 0.92133 0.0
H2138 H 0.0096 0.39602 0.94038 0.0
H2139 H 0.99058 0.39062 0.92805 0.0
C2140 C 1.00042 0.40732 0.99288 0.0
C2141 C 0.9882 0.41864 0.9869 0.0
C2142 C 0.00282 0.39183 0.98443 0.0
C2143 C 0.99307 0.38735 0.96982 0.0
C2144 C 0.98057 0.39845 0.96407 0.0
H2145 H 0.9675 0.28989 0.92648 0.0
H2146 H 0.97048 0.31608 0.94307 0.0
C2147 C 0.97824 0.41398 0.97244 0.0
C2148 C 0.99558 0.37085 0.9609 0.0
H2149 H 0.0025 0.35329 0.92156 0.0
C2150 C 0.9937 0.35567 0.97028 0.0
C2151 C 0.99949 0.36997 0.94325 0.0
C2152 C 0.00294 0.38579 0.9327 0.0
C2153 C 0.99483 0.33966 0.96234 0.0
C2154 C 0.99754 0.33877 0.94446 0.0
C2155 C 1.00023 0.35395 0.93523 0.0
C2156 C 0.99639 0.32233 0.93492 0.0
C2157 C 0.99305 0.32384 0.9732 0.0
C2158 C 0.00987 0.31721 0.92446 0.0
C2159 C 0.00818 0.30215 0.91473 0.0
C2160 C 0.9929 0.29203 0.91519 0.0
C2161 C 0.97953 0.29721 0.92583 0.0
C2162 C 0.98123 0.31219 0.93547 0.0
H2163 H 0.99691 0.32653 0.98669 0.0
H2164 H 0.97942 0.31925 0.97322 0.0
H2165 H 1.00093 0.31347 0.96817 0.0
H2166 H 0.02165 0.32493 0.92373 0.0
H2167 H 0.0187 0.29864 0.90663 0.0
H2168 H 0.61819 0.79009 0.22955 0.0
H2169 H 0.59861 0.78401 0.25324 0.0
H2170 H 0.62921 0.81753 0.28611 0.0
H2171 H 0.64886 0.82373 0.26243 0.0
H2172 H 0.6043 0.77004 0.28468 0.0
H2173 H 0.58147 0.83584 0.29185 0.0
H2174 H 0.59357 0.82917 0.27355 0.0
H2175 H 0.60432 0.83434 0.29343 0.0
C2176 C 0.62086 0.79606 0.24186 0.0
C2177 C 0.63506 0.80744 0.24408 0.0
C2178 C 0.60959 0.79264 0.25537 0.0
C2179 C 0.61226 0.80054 0.27137 0.0
C2180 C 0.62665 0.81161 0.27376 0.0
H2181 H 0.55999 0.76529 0.36406 0.0
H2182 H 0.5817 0.77417 0.34311 0.0
C2183 C 0.63789 0.8151 0.26023 0.0
C2184 C 0.60006 0.79698 0.28554 0.0
H2185 H 0.57213 0.81571 0.31269 0.0
C2186 C 0.59729 0.78002 0.29082 0.0
C2187 C 0.59075 0.81001 0.2934 0.0
C2188 C 0.59252 0.82834 0.28769 0.0
C2189 C 0.5855 0.77572 0.30375 0.0
C2190 C 0.57649 0.78879 0.3119 0.0
C2191 C 0.5792 0.80575 0.30658 0.0
C2192 C 0.56366 0.78496 0.32544 0.0
C2193 C 0.58246 0.75715 0.30822 0.0
C2194 C 0.54643 0.78885 0.32287 0.0
C2195 C 0.53401 0.78397 0.33491 0.0
C2196 C 0.53861 0.77512 0.34977 0.0
C2197 C 0.556 0.77197 0.35269 0.0
C2198 C 0.56842 0.77693 0.34068 0.0
H2199 H 0.58704 0.74857 0.298 0.0
H2200 H 0.58955 0.75433 0.32017 0.0
H2201 H 0.56863 0.75414 0.31039 0.0
H2202 H 0.54249 0.79514 0.31125 0.0
H2203 H 0.52073 0.7866 0.33228 0.0
H2204 H 0.06148 0.11429 0.99835 0.0
H2205 H 0.05272 0.13591 0.97795 0.0
H2206 H 1.00051 0.12978 0.99521 0.0
H2207 H 0.0091 0.10801 0.01556 0.0
H2208 H 0.02811 0.13441 0.95114 0.0
H2209 H 0.0115 0.18116 1.00141 0.0
H2210 H 0.02384 0.16268 0.0059 0.0
H2211 H 1.00095 0.16052 0.00344 0.0
C2212 C 0.04808 0.11734 0.99765 0.0
C2213 C 0.03601 0.10946 0.00868 0.0
C2214 C 0.04312 0.12978 0.98604 0.0
C2215 C 0.02603 0.13467 0.98528 0.0
C2216 C 0.01384 0.12647 0.99586 0.0
H2217 H 0.97167 0.21039 0.92808 0.0
H2218 H 0.98022 0.18739 0.94689 0.0
C2219 C 0.01878 0.11403 0.00748 0.0
C2220 C 0.02102 0.14848 0.97355 0.0
H2221 H 0.0047 0.18828 0.97281 0.0
C2222 C 0.02304 0.14622 0.95585 0.0
C2223 C 0.01444 0.16388 0.97975 0.0
C2224 C 0.01267 0.16734 0.99867 0.0
C2225 C 0.01833 0.15881 0.94416 0.0
C2226 C 0.01173 0.1742 0.95037 0.0
C2227 C 0.00974 0.17646 0.96807 0.0
C2228 C 0.00667 0.1881 0.93874 0.0
C2229 C 0.0201 0.15536 0.92525 0.0
C2230 C 0.01876 0.19632 0.92806 0.0
C2231 C 0.01392 0.2095 0.91725 0.0
C2232 C 0.9969 0.21484 0.917 0.0
C2233 C 0.98489 0.20667 0.9279 0.0
C2234 C 0.98974 0.19349 0.93868 0.0
H2235 H 0.02107 0.14152 0.9225 0.0
H2236 H 0.00904 0.1602 0.91798 0.0
H2237 H 0.03194 0.162 0.92052 0.0
H2238 H 0.03199 0.19262 0.92817 0.0
H2239 H 0.02355 0.21552 0.90912 0.0
H2240 H 0.37707 0.34011 0.259 0.0
H2241 H 0.39625 0.33097 0.23631 0.0
H2242 H 0.38883 0.27873 0.25238 0.0
H2243 H 0.37004 0.28771 0.27532 0.0
H2244 H 0.4273 0.31201 0.24056 0.0
H2245 H 0.3784 0.27779 0.20006 0.0
H2246 H 0.37292 0.29331 0.21609 0.0
H2247 H 0.37783 0.27199 0.22229 0.0
C2248 C 0.37957 0.32668 0.25778 0.0
C2249 C 0.37193 0.31465 0.269 0.0
C2250 C 0.39046 0.32148 0.24474 0.0
C2251 C 0.39377 0.30417 0.24255 0.0
C2252 C 0.38617 0.29213 0.25366 0.0
H2253 H 0.45311 0.23726 0.18369 0.0
H2254 H 0.43402 0.25195 0.20274 0.0
C2255 C 0.37537 0.2973 0.26674 0.0
C2256 C 0.40559 0.29859 0.22903 0.0
H2257 H 0.40762 0.27261 0.19401 0.0
C2258 C 0.42302 0.30358 0.23022 0.0
C2259 C 0.3999 0.28764 0.21557 0.0
C2260 C 0.38122 0.28246 0.21327 0.0
C2261 C 0.43508 0.29718 0.21879 0.0
C2262 C 0.42946 0.28578 0.20565 0.0
C2263 C 0.41192 0.28131 0.20412 0.0
C2264 C 0.44161 0.27728 0.19414 0.0
C2265 C 0.45381 0.30205 0.22137 0.0
C2266 C 0.45229 0.28665 0.1829 0.0
C2267 C 0.46341 0.27825 0.17194 0.0
C2268 C 0.4639 0.26032 0.17194 0.0
C2269 C 0.45313 0.25106 0.18326 0.0
C2270 C 0.44214 0.25944 0.19419 0.0
H2271 H 0.45635 0.308 0.23411 0.0
H2272 H 0.4618 0.2907 0.2201 0.0
H2273 H 0.4579 0.31138 0.21143 0.0
H2274 H 0.45187 0.30042 0.18243 0.0
H2275 H 0.47141 0.28578 0.16333 0.0
H2276 H 0.50245 0.39293 1.00062 0.0
H2277 H 0.49486 0.37071 0.02143 0.0
H2278 H 0.53858 0.38638 0.05247 0.0
H2279 H 0.54634 0.40852 0.0317 0.0
H2280 H 0.51527 0.34394 0.03064 0.0
H2281 H 0.50002 0.38283 0.08762 0.0
H2282 H 0.5012 0.39165 0.06632 0.0
H2283 H 0.52048 0.38829 0.07835 0.0
C2284 C 0.51041 0.39171 0.01192 0.0
C2285 C 0.52502 0.40252 0.01447 0.0
C2286 C 0.50601 0.37905 0.02383 0.0
C2287 C 0.51602 0.37701 0.03861 0.0
C2288 C 0.53043 0.38796 0.04136 0.0
H2289 H 0.52402 0.30294 0.11912 0.0
H2290 H 0.52635 0.32761 0.10014 0.0
C2291 C 0.53485 0.40063 0.02946 0.0
C2292 C 0.51214 0.36267 0.05049 0.0
H2293 H 0.50353 0.35312 0.09227 0.0
C2294 C 0.51251 0.34594 0.04408 0.0
C2295 C 0.50863 0.36531 0.06803 0.0
C2296 C 0.50739 0.38299 0.07549 0.0
C2297 C 0.50999 0.33177 0.05482 0.0
C2298 C 0.50666 0.33439 0.07241 0.0
C2299 C 0.50606 0.35113 0.07878 0.0
C2300 C 0.50442 0.31991 0.08448 0.0
C2301 C 0.51155 0.31411 0.04736 0.0
C2302 C 0.49106 0.30759 0.08224 0.0
C2303 C 0.48972 0.29341 0.09304 0.0
C2304 C 0.50165 0.29139 0.10637 0.0
C2305 C 0.51464 0.30408 0.10895 0.0
C2306 C 0.51599 0.31821 0.09812 0.0
H2307 H 0.51816 0.31442 0.0348 0.0
H2308 H 0.51868 0.30585 0.05619 0.0
H2309 H 0.49854 0.30822 0.04535 0.0
H2310 H 0.48178 0.30883 0.072 0.0
H2311 H 0.4795 0.28392 0.09079 0.0
H2312 H 0.63444 0.1945 0.27401 0.0
H2313 H 0.60886 0.19508 0.25568 0.0
H2314 H 0.63305 0.23486 0.22533 0.0
H2315 H 0.6588 0.23389 0.24303 0.0
H2316 H 0.58744 0.22164 0.24901 0.0
H2317 H 0.61771 0.20029 0.18909 0.0
H2318 H 0.62788 0.19839 0.20977 0.0
H2319 H 0.62886 0.21842 0.19859 0.0
C2320 C 0.6344 0.20321 0.2633 0.0
C2321 C 0.64872 0.21412 0.26 0.0
C2322 C 0.61973 0.2036 0.25291 0.0
C2323 C 0.61916 0.21481 0.23897 0.0
C2324 C 0.63332 0.22585 0.2358 0.0
H2325 H 0.54718 0.24781 0.16362 0.0
H2326 H 0.57124 0.24354 0.18306 0.0
C2327 C 0.64797 0.22545 0.24611 0.0
C2328 C 0.60366 0.21533 0.22789 0.0
H2329 H 0.59035 0.21272 0.18619 0.0
C2330 C 0.58801 0.21949 0.2353 0.0
C2331 C 0.60442 0.21247 0.21001 0.0
C2332 C 0.62058 0.20697 0.20141 0.0
C2333 C 0.57326 0.22152 0.22521 0.0
C2334 C 0.57419 0.21917 0.20728 0.0
C2335 C 0.58973 0.21464 0.19993 0.0
C2336 C 0.55932 0.2218 0.19584 0.0
C2337 C 0.55694 0.22672 0.23368 0.0
C2338 C 0.54467 0.2109 0.19651 0.0
C2339 C 0.53087 0.21325 0.18536 0.0
C2340 C 0.53146 0.22657 0.17332 0.0
C2341 C 0.5462 0.23746 0.17273 0.0
C2342 C 0.56001 0.23504 0.18383 0.0
H2343 H 0.55919 0.23115 0.24707 0.0
H2344 H 0.55095 0.23706 0.22635 0.0
H2345 H 0.5477 0.21562 0.23393 0.0
H2346 H 0.54401 0.20044 0.20553 0.0
H2347 H 0.51978 0.20457 0.18616 0.0
H2348 H 0.51817 0.085 0.03717 0.0
H2349 H 0.51924 0.11241 0.0523 0.0
H2350 H 0.47348 0.12689 0.02578 0.0
H2351 H 0.47214 0.09934 0.01076 0.0
H2352 H 0.5198 0.14724 0.03836 0.0
H2353 H 0.46235 0.13124 0.07784 0.0
H2354 H 0.47389 0.11515 0.06662 0.0
H2355 H 0.45989 0.12869 0.05506 0.0
C2356 C 0.50829 0.09399 0.03459 0.0
C2357 C 0.49497 0.08993 0.02288 0.0
C2358 C 0.509 0.10969 0.04315 0.0
C2359 C 0.49634 0.12158 0.04028 0.0
C2360 C 0.48327 0.11779 0.02829 0.0
H2361 H 0.47546 0.21406 0.0982 0.0
H2362 H 0.47397 0.19024 0.07778 0.0
C2363 C 0.4826 0.10211 0.01964 0.0
C2364 C 0.49661 0.13769 0.05028 0.0
H2365 H 0.47543 0.15843 0.0816 0.0
C2366 C 0.51015 0.14971 0.04789 0.0
C2367 C 0.48388 0.14095 0.06251 0.0
C2368 C 0.46921 0.12832 0.06582 0.0
C2369 C 0.51134 0.16492 0.05751 0.0
C2370 C 0.49894 0.1679 0.07026 0.0
C2371 C 0.48515 0.15605 0.0722 0.0
C2372 C 0.50015 0.18291 0.08206 0.0
C2373 C 0.52562 0.17776 0.0535 0.0
C2374 C 0.51528 0.18677 0.09141 0.0
C2375 C 0.51619 0.20058 0.10282 0.0
C2376 C 0.50175 0.21026 0.10571 0.0
C2377 C 0.48663 0.20646 0.09645 0.0
C2378 C 0.48582 0.19291 0.08474 0.0
H2379 H 0.52972 0.17668 0.03995 0.0
H2380 H 0.52172 0.19103 0.05585 0.0
H2381 H 0.5369 0.17524 0.06168 0.0
H2382 H 0.52634 0.17897 0.09011 0.0
H2383 H 0.52803 0.20342 0.10975 0.0
H2384 H 0.23946 0.38425 0.67415 0.0
H2385 H 0.26316 0.40405 0.68216 0.0
H2386 H 0.25587 0.39121 0.7353 0.0
H2387 H 0.2321 0.37144 0.72741 0.0
H2388 H 0.2628 0.43252 0.70383 0.0
H2389 H 0.30708 0.3845 0.72843 0.0
H2390 H 0.28841 0.37872 0.71561 0.0
H2391 H 0.28624 0.38341 0.73803 0.0
C2392 C 0.24284 0.38569 0.68755 0.0
C2393 C 0.2339 0.37622 0.70014 0.0
C2394 C 0.25643 0.39696 0.6921 0.0
C2395 C 0.26143 0.39892 0.70929 0.0
C2396 C 0.25247 0.3896 0.72191 0.0
H2397 H 0.33743 0.46091 0.76473 0.0
H2398 H 0.31449 0.44064 0.75556 0.0
C2399 C 0.23889 0.37831 0.71738 0.0
C2400 C 0.27575 0.41102 0.71405 0.0
H2401 H 0.3149 0.41358 0.73366 0.0
C2402 C 0.27429 0.42838 0.71023 0.0
C2403 C 0.29068 0.40558 0.72243 0.0
C2404 C 0.29333 0.38702 0.72624 0.0
C2405 C 0.2872 0.44052 0.71491 0.0
C2406 C 0.30212 0.43508 0.72334 0.0
C2407 C 0.30356 0.41771 0.72711 0.0
C2408 C 0.31624 0.44719 0.72871 0.0
C2409 C 0.28447 0.45911 0.71127 0.0
C2410 C 0.32502 0.45744 0.71665 0.0
C2411 C 0.33812 0.46901 0.72191 0.0
C2412 C 0.34299 0.4701 0.7392 0.0
C2413 C 0.33423 0.45987 0.75125 0.0
C2414 C 0.32107 0.44841 0.74603 0.0
H2415 H 0.2707 0.46159 0.70912 0.0
H2416 H 0.28934 0.46734 0.72197 0.0
H2417 H 0.29153 0.46286 0.69951 0.0
H2418 H 0.32176 0.45649 0.70319 0.0
H2419 H 0.34459 0.47697 0.71246 0.0
H2420 H 0.27622 0.66012 0.78405 0.0
H2421 H 0.29495 0.6359 0.7835 0.0
H2422 H 0.25886 0.6068 0.81434 0.0
H2423 H 0.23972 0.63089 0.81455 0.0
H2424 H 0.31019 0.61855 0.8109 0.0
H2425 H 0.2661 0.57567 0.77266 0.0
H2426 H 0.26315 0.59832 0.77446 0.0
H2427 H 0.25736 0.58443 0.79187 0.0
C2428 C 0.27214 0.64851 0.79057 0.0
C2429 C 0.25635 0.64738 0.79916 0.0
C2430 C 0.28294 0.63473 0.79037 0.0
C2431 C 0.2782 0.61948 0.79869 0.0
C2432 C 0.26264 0.61837 0.80761 0.0
H2433 H 0.33029 0.52246 0.79347 0.0
H2434 H 0.31127 0.5449 0.80254 0.0
C2435 C 0.25179 0.6322 0.80784 0.0
C2436 C 0.2896 0.60479 0.79776 0.0
H2437 H 0.29256 0.56478 0.78088 0.0
C2438 C 0.30631 0.60674 0.80444 0.0
C2439 C 0.28448 0.58938 0.7894 0.0
C2440 C 0.26685 0.58677 0.78156 0.0
C2441 C 0.31812 0.59378 0.80275 0.0
C2442 C 0.31319 0.5786 0.79388 0.0
C2443 C 0.29631 0.57643 0.78769 0.0
C2444 C 0.32559 0.56528 0.78983 0.0
C2445 C 0.33578 0.59648 0.81047 0.0
C2446 C 0.34 0.56929 0.77975 0.0
C2447 C 0.35088 0.55653 0.77457 0.0
C2448 C 0.34751 0.53945 0.77927 0.0
C2449 C 0.33329 0.5355 0.78969 0.0
C2450 C 0.32238 0.5483 0.79486 0.0
H2451 H 0.3358 0.60589 0.82115 0.0
H2452 H 0.34077 0.58433 0.81533 0.0
H2453 H 0.34467 0.60154 0.80053 0.0
H2454 H 0.34253 0.58223 0.77539 0.0
H2455 H 0.36166 0.55999 0.76647 0.0
H2456 H 0.90968 0.49781 0.47097 0.0
H2457 H 0.88128 0.48363 0.47333 0.0
H2458 H 0.89692 0.45965 0.52016 0.0
H2459 H 0.92519 0.47403 0.51809 0.0
H2460 H 0.87492 0.44773 0.47443 0.0
H2461 H 0.85038 0.47958 0.5325 0.0
H2462 H 0.8682 0.48834 0.52031 0.0
H2463 H 0.87127 0.47096 0.53476 0.0
C2464 C 0.90698 0.48975 0.48192 0.0
C2465 C 0.91971 0.48704 0.49433 0.0
C2466 C 0.89079 0.48159 0.48321 0.0
C2467 C 0.88693 0.47075 0.49702 0.0
C2468 C 0.89952 0.46818 0.50954 0.0
H2469 H 0.79918 0.40346 0.52223 0.0
H2470 H 0.82619 0.42048 0.52285 0.0
C2471 C 0.91573 0.47626 0.50823 0.0
C2472 C 0.87012 0.46132 0.49779 0.0
H2473 H 0.83386 0.45579 0.52176 0.0
C2474 C 0.86589 0.44956 0.48472 0.0
C2475 C 0.85846 0.46361 0.51134 0.0
C2476 C 0.86218 0.4764 0.52548 0.0
C2477 C 0.85041 0.43987 0.4849 0.0
C2478 C 0.83862 0.4423 0.49832 0.0
C2479 C 0.84289 0.45398 0.51148 0.0
C2480 C 0.82172 0.43297 0.49868 0.0
C2481 C 0.84699 0.42684 0.47089 0.0
C2482 C 0.81001 0.43477 0.48518 0.0
C2483 C 0.79466 0.42504 0.48474 0.0
C2484 C 0.79055 0.41342 0.49791 0.0
C2485 C 0.80193 0.41225 0.51187 0.0
C2486 C 0.81739 0.42196 0.51224 0.0
H2487 H 0.85903 0.42317 0.46456 0.0
H2488 H 0.8404 0.41514 0.47597 0.0
H2489 H 0.83861 0.43235 0.46099 0.0
H2490 H 0.81289 0.44351 0.47481 0.0
H2491 H 0.78614 0.42646 0.47389 0.0
H2492 H 0.77676 0.89876 0.82631 0.0
H2493 H 0.7532 0.91698 0.81879 0.0
H2494 H 0.72855 0.87544 0.79055 0.0
H2495 H 0.75188 0.8569 0.79847 0.0
H2496 H 0.74282 0.92592 0.78598 0.0
H2497 H 0.68975 0.89228 0.8208 0.0
H2498 H 0.71204 0.8885 0.82512 0.0
H2499 H 0.70163 0.87915 0.80658 0.0
C2500 C 0.7662 0.89338 0.81874 0.0
C2501 C 0.76617 0.87631 0.8131 0.0
C2502 C 0.75279 0.90386 0.81436 0.0
C2503 C 0.739 0.89751 0.80431 0.0
C2504 C 0.73891 0.88052 0.79858 0.0
H2505 H 0.65064 0.94764 0.76123 0.0
H2506 H 0.67136 0.92669 0.77026 0.0
C2507 C 0.75235 0.87 0.80295 0.0
C2508 C 0.72516 0.90901 0.7993 0.0
H2509 H 0.68225 0.91532 0.8031 0.0
C2510 C 0.72958 0.92362 0.78976 0.0
C2511 C 0.70788 0.90592 0.80415 0.0
C2512 C 0.70249 0.8907 0.81485 0.0
C2513 C 0.71722 0.93521 0.78488 0.0
C2514 C 0.69999 0.9323 0.78996 0.0
C2515 C 0.69548 0.91756 0.79929 0.0
C2516 C 0.68657 0.94455 0.78577 0.0
C2517 C 0.72267 0.95037 0.77409 0.0
C2518 C 0.68792 0.96138 0.79196 0.0
C2519 C 0.67613 0.97335 0.78683 0.0
C2520 C 0.66269 0.96871 0.77548 0.0
C2521 C 0.66087 0.95163 0.76996 0.0
C2522 C 0.6727 0.93965 0.77509 0.0
H2523 H 0.73508 0.94839 0.76762 0.0
H2524 H 0.71284 0.95298 0.76422 0.0
H2525 H 0.72429 0.96181 0.78243 0.0
H2526 H 0.69833 0.96534 0.8005 0.0
H2527 H 0.67785 0.98637 0.79141 0.0
H2528 H 0.61741 0.48731 0.00597 0.0
H2529 H 0.64096 0.50753 0.01342 0.0
H2530 H 0.62308 0.54258 0.9755 0.0
H2531 H 0.59958 0.52242 0.9679 0.0
H2532 H 0.6667 0.51968 0.99217 0.0
H2533 H 0.62987 0.57313 0.01764 0.0
H2534 H 0.62047 0.55194 0.01454 0.0
H2535 H 0.62297 0.56621 0.99669 0.0
C2536 C 0.61846 0.49934 0.99924 0.0
C2537 C 0.60658 0.50325 0.98635 0.0
C2538 C 0.63188 0.51091 0.00357 0.0
C2539 C 0.63366 0.52665 0.99517 0.0
C2540 C 0.62174 0.53068 0.98243 0.0
H2541 H 0.7238 0.59145 0.98103 0.0
H2542 H 0.70013 0.57012 0.97916 0.0
C2543 C 0.6083 0.51913 0.9781 0.0
C2544 C 0.6485 0.53846 0.99905 0.0
H2545 H 0.65933 0.57922 0.01148 0.0
C2546 C 0.6651 0.53268 0.99648 0.0
C2547 C 0.64642 0.55533 0.00494 0.0
C2548 C 0.62898 0.562 0.00879 0.0
C2549 C 0.67964 0.5435 0.99906 0.0
C2550 C 0.67751 0.56064 0.0041 0.0
C2551 C 0.66095 0.5662 0.00733 0.0
C2552 C 0.69221 0.57318 0.00548 0.0
C2553 C 0.69714 0.53641 0.99648 0.0
C2554 C 0.69548 0.58222 0.0208 0.0
C2555 C 0.70889 0.59458 0.02179 0.0
C2556 C 0.71887 0.59836 0.00734 0.0
C2557 C 0.71591 0.58902 0.99219 0.0
C2558 C 0.70257 0.57668 0.9912 0.0
H2559 H 0.69685 0.52233 0.99811 0.0
H2560 H 0.70147 0.53923 0.98325 0.0
H2561 H 0.70669 0.54222 0.00557 0.0
H2562 H 0.68764 0.57974 0.03197 0.0
H2563 H 0.71121 0.60145 0.03369 0.0
H2564 H 0.26008 0.63283 0.17075 0.0
H2565 H 0.23683 0.61275 0.17889 0.0
H2566 H 0.2542 0.615 0.23135 0.0
H2567 H 0.2778 0.6347 0.22331 0.0
H2568 H 0.24133 0.57979 0.19648 0.0
H2569 H 0.20161 0.62478 0.23269 0.0
H2570 H 0.21744 0.63193 0.21726 0.0
H2571 H 0.22405 0.62506 0.23809 0.0
C2572 C 0.25905 0.629 0.18401 0.0
C2573 C 0.27087 0.63541 0.19636 0.0
C2574 C 0.24569 0.6176 0.18864 0.0
C2575 C 0.24374 0.61254 0.20572 0.0
C2576 C 0.25536 0.61898 0.21813 0.0
H2577 H 0.17153 0.54692 0.26085 0.0
H2578 H 0.19383 0.56781 0.25199 0.0
C2579 C 0.2688 0.6303 0.21351 0.0
C2580 C 0.2299 0.60005 0.21049 0.0
H2581 H 0.1933 0.59556 0.23382 0.0
C2582 C 0.2307 0.58322 0.20451 0.0
C2583 C 0.21622 0.60458 0.22112 0.0
C2584 C 0.21461 0.62259 0.22761 0.0
C2585 C 0.21831 0.57065 0.20915 0.0
C2586 C 0.20443 0.57521 0.21963 0.0
C2587 C 0.20372 0.59209 0.22561 0.0
C2588 C 0.1907 0.56265 0.22485 0.0
C2589 C 0.22064 0.55252 0.20331 0.0
C2590 C 0.18132 0.55293 0.21259 0.0
C2591 C 0.16874 0.54084 0.21769 0.0
C2592 C 0.16485 0.53882 0.23507 0.0
C2593 C 0.17405 0.54862 0.24733 0.0
C2594 C 0.18682 0.56048 0.24227 0.0
H2595 H 0.23425 0.55025 0.20023 0.0
H2596 H 0.21634 0.54322 0.21321 0.0
H2597 H 0.21296 0.55004 0.1915 0.0
H2598 H 0.18369 0.55468 0.19906 0.0
H2599 H 0.16188 0.53325 0.20806 0.0
H2600 H 0.90848 0.51616 0.03812 0.0
H2601 H 0.8824 0.53238 0.03546 0.0
H2602 H 0.90089 0.55384 0.98799 0.0
H2603 H 0.92702 0.53782 0.99067 0.0
H2604 H 0.8891 0.57809 0.00885 0.0
H2605 H 0.84118 0.52422 0.00447 0.0
H2606 H 0.85455 0.52347 0.02321 0.0
H2607 H 0.8639 0.52134 0.00235 0.0
C2608 C 0.90687 0.52416 0.027 0.0
C2609 C 0.91983 0.52571 0.01462 0.0
C2610 C 0.89193 0.5334 0.02547 0.0
C2611 C 0.88955 0.54418 0.0114 0.0
C2612 C 0.90241 0.54561 0.99895 0.0
H2613 H 0.7936 0.59001 0.98259 0.0
H2614 H 0.81955 0.57345 0.98367 0.0
C2615 C 0.91737 0.53648 1.00053 0.0
C2616 C 0.87404 0.55454 0.00994 0.0
H2617 H 0.83026 0.5519 0.00833 0.0
C2618 C 0.87623 0.57235 0.00867 0.0
C2619 C 0.85725 0.54705 0.00946 0.0
C2620 C 0.85403 0.52796 0.00977 0.0
C2621 C 0.86215 0.58288 0.00719 0.0
C2622 C 0.84534 0.57545 0.00736 0.0
C2623 C 0.84314 0.55762 0.00836 0.0
C2624 C 0.82986 0.58592 0.00647 0.0
C2625 C 0.86544 0.60185 0.00512 0.0
C2626 C 0.82698 0.59841 0.01895 0.0
C2627 C 0.81223 0.60799 0.01828 0.0
C2628 C 0.79995 0.60512 0.00524 0.0
C2629 C 0.80284 0.59258 0.99277 0.0
C2630 C 0.81764 0.58307 0.9934 0.0
H2631 H 0.87855 0.60483 1.00023 0.0
H2632 H 0.85599 0.60735 0.99623 0.0
H2633 H 0.86431 0.60819 0.01777 0.0
H2634 H 0.836 0.60058 0.02938 0.0
H2635 H 0.81032 0.61743 0.02818 0.0
H2636 H 0.13301 0.01952 0.0603 0.0
H2637 H 0.15371 0.99847 0.05196 0.0
H2638 H 0.11718 0.97619 0.01592 0.0
H2639 H 0.09634 0.99732 0.02415 0.0
H2640 H 0.13412 0.95197 0.0356 0.0
H2641 H 0.18025 0.999 0.00685 0.0
H2642 H 0.17456 0.00393 0.02849 0.0
H2643 H 0.15849 0.00406 0.01191 0.0
C2644 C 0.12941 0.01025 0.05048 0.0
C2645 C 0.11307 0.01024 0.04275 0.0
C2646 C 0.14126 0.99821 0.04574 0.0
C2647 C 0.1371 0.98596 0.03311 0.0
C2648 C 0.12067 0.9856 0.02565 0.0
H2649 H 0.21028 0.92525 0.97908 0.0
H2650 H 0.1881 0.94474 0.98726 0.0
C2651 C 0.10877 0.99764 0.03041 0.0
C2652 C 0.14993 0.97357 0.02769 0.0
H2653 H 0.18989 0.97088 0.01056 0.0
C2654 C 0.14629 0.95607 0.03006 0.0
C2655 C 0.16571 0.97895 0.02027 0.0
C2656 C 0.16997 0.99749 0.01656 0.0
C2657 C 0.15817 0.94382 0.02551 0.0
C2658 C 0.1742 0.94926 0.01865 0.0
C2659 C 0.17768 0.96674 0.01599 0.0
C2660 C 0.18745 0.93706 0.01381 0.0
C2661 C 0.15333 0.92517 0.02783 0.0
C2662 C 0.1946 0.92634 0.02607 0.0
C2663 C 0.20731 0.9151 0.02144 0.0
C2664 C 0.21324 0.91448 0.00446 0.0
C2665 C 0.2061 0.92536 0.99227 0.0
C2666 C 0.19338 0.93653 0.99691 0.0
H2667 H 0.13923 0.92298 0.02886 0.0
H2668 H 0.15801 0.91743 0.01702 0.0
H2669 H 0.15928 0.92058 0.03981 0.0
H2670 H 0.19049 0.92679 0.03927 0.0
H2671 H 0.21256 0.90699 0.03119 0.0
loop_
_geom_bond_atom_site_label_1
_geom_bond_atom_site_label_2
_geom_bond_distance
_geom_bond_site_symmetry_2
_ccdc_geom_bond_type
P0 O11 1.490 . S
P0 C14 1.812 . S
P0 C20 1.803 . S
P0 C26 1.819 . S
H1 C15 0.941 . S
H2 C16 0.939 . S
H3 C18 0.940 1_655 S
H4 C19 0.940 . S
H5 C21 0.939 . S
H6 C22 0.942 . S
H7 C24 0.968 . S
H8 C25 0.939 . S
H9 C27 0.941 . S
H10 C31 0.939 . S
O11 P0 1.490 . S
H12 C28 0.939 . S
H13 C30 0.940 1_556 S
C14 P0 1.812 . S
C14 C15 1.389 . S
C14 C19 1.391 . S
C15 H1 0.941 . S
C15 C14 1.389 . S
C15 C16 1.397 . S
C16 H2 0.939 . S
C16 C15 1.397 . S
C16 C17 1.378 . S
C17 C16 1.378 . S
C17 C18 1.378 . S
C18 H3 0.940 1_455 S
C18 C17 1.378 . S
C18 C19 1.396 . S
C19 H4 0.940 . S
C19 C14 1.391 . S
C19 C18 1.396 . S
C20 P0 1.803 . S
C20 C21 1.378 . S
C20 C25 1.400 . S
C21 H5 0.939 . S
C21 C20 1.378 . S
C21 C22 1.361 . S
C22 H6 0.942 . S
C22 C21 1.361 . S
C22 C23 1.420 . S
C23 C22 1.420 . S
C23 C24 1.403 1_545 S
C24 H7 0.968 . S
C24 C23 1.403 1_565 S
C24 C25 1.362 1_565 S
C25 H8 0.939 . S
C25 C20 1.400 . S
C25 C24 1.362 1_545 S
C26 P0 1.819 . S
C26 C27 1.391 . S
C26 C31 1.391 . S
C27 H9 0.941 . S
C27 C26 1.391 . S
C27 C28 1.396 . S
C28 H12 0.939 . S
C28 C27 1.396 . S
C28 C29 1.397 . S
C29 C28 1.397 . S
C29 C30 1.385 . S
C30 H13 0.940 1_554 S
C30 C29 1.385 . S
C30 C31 1.388 . S
C31 H10 0.939 . S
C31 C26 1.391 . S
C31 C30 1.388 . S
P32 O43 1.490 . S
P32 C46 1.812 . S
P32 C52 1.803 . S
P32 C58 1.819 . S
H33 C47 0.941 . S
H34 C48 0.939 . S
H35 C50 0.940 . S
H36 C51 0.940 . S
H37 C53 0.939 . S
H38 C54 0.942 . S
H39 C56 0.940 . S
H40 C57 0.939 . S
H41 C59 0.941 . S
H42 C63 0.939 . S
O43 P32 1.490 . S
H44 C60 0.939 . S
H45 C62 0.940 . S
C46 P32 1.812 . S
C46 C47 1.389 . S
C46 C51 1.391 . S
C47 H33 0.941 . S
C47 C46 1.389 . S
C47 C48 1.397 . S
C48 H34 0.939 . S
C48 C47 1.397 . S
C48 C49 1.378 . S
C49 C48 1.378 . S
C49 C50 1.378 . S
C50 H35 0.940 . S
C50 C49 1.378 . S
C50 C51 1.396 . S
C51 H36 0.940 . S
C51 C46 1.391 . S
C51 C50 1.396 . S
C52 P32 1.803 . S
C52 C53 1.378 . S
C52 C57 1.400 . S
C53 H37 0.939 . S
C53 C52 1.378 . S
C53 C54 1.361 . S
C54 H38 0.942 . S
C54 C53 1.361 . S
C54 C55 1.369 . S
C55 C54 1.369 . S
C55 C56 1.404 . S
C56 H39 0.940 . S
C56 C55 1.404 . S
C56 C57 1.389 . S
C57 H40 0.939 . S
C57 C52 1.400 . S
C57 C56 1.389 . S
C58 P32 1.819 . S
C58 C59 1.391 . S
C58 C63 1.391 . S
C59 H41 0.941 . S
C59 C58 1.391 . S
C59 C60 1.396 . S
C60 H44 0.939 . S
C60 C59 1.396 . S
C60 C61 1.397 . S
C61 C60 1.397 . S
C61 C62 1.385 . S
C62 H45 0.940 . S
C62 C61 1.385 . S
C62 C63 1.388 . S
C63 H42 0.939 . S
C63 C58 1.391 . S
C63 C62 1.388 . S
P64 O75 1.490 . S
P64 C78 1.812 . S
P64 C84 1.803 . S
P64 C90 1.819 . S
H65 C79 0.941 . S
H66 C80 0.939 . S
H67 C82 0.940 . S
H68 C83 0.940 . S
H69 C85 0.939 . S
H70 C86 0.942 . S
H71 C88 0.940 . S
H72 C89 0.939 . S
H73 C91 0.941 . S
H74 C95 0.939 . S
O75 P64 1.490 . S
H76 C92 0.939 . S
H77 C94 0.940 . S
C78 P64 1.812 . S
C78 C79 1.389 1_554 S
C78 C83 1.391 . S
C79 H65 0.941 . S
C79 C78 1.389 1_556 S
C79 C80 1.397 . S
C80 H66 0.939 . S
C80 C79 1.397 . S
C80 C81 1.378 . S
C81 C80 1.378 . S
C81 C82 1.378 1_556 S
C82 H67 0.940 . S
C82 C81 1.378 1_554 S
C82 C83 1.396 . S
C83 H68 0.940 . S
C83 C78 1.391 . S
C83 C82 1.396 . S
C84 P64 1.803 . S
C84 C85 1.378 . S
C84 C89 1.400 . S
C85 H69 0.939 . S
C85 C84 1.378 . S
C85 C86 1.361 . S
C86 H70 0.942 . S
C86 C85 1.361 . S
C86 C87 1.369 . S
C87 C86 1.369 . S
C87 C88 1.404 . S
C88 H71 0.940 . S
C88 C87 1.404 . S
C88 C89 1.389 . S
C89 H72 0.939 . S
C89 C84 1.400 . S
C89 C88 1.389 . S
C90 P64 1.819 . S
C90 C91 1.391 1_655 S
C90 C95 1.391 . S
C91 H73 0.941 . S
C91 C90 1.391 1_455 S
C91 C92 1.396 . S
C92 H76 0.939 . S
C92 C91 1.396 . S
C92 C93 1.397 . S
C93 C92 1.397 . S
C93 C94 1.385 1_455 S
C94 H77 0.940 . S
C94 C93 1.385 1_655 S
C94 C95 1.388 . S
C95 H74 0.939 . S
C95 C90 1.391 . S
C95 C94 1.388 . S
P96 O107 1.490 . S
P96 C110 1.812 . S
P96 C116 1.803 . S
P96 C122 1.819 . S
H97 C111 0.941 . S
H98 C112 0.939 . S
H99 C114 0.940 . S
H100 C115 0.940 . S
H101 C117 0.939 . S
H102 C118 0.942 . S
H103 C120 0.940 . S
H104 C121 0.939 . S
H105 C123 0.941 . S
H106 C127 0.939 . S
O107 P96 1.490 . S
H108 C124 0.939 . S
H109 C126 0.940 . S
C110 P96 1.812 . S
C110 C111 1.389 . S
C110 C115 1.391 . S
C111 H97 0.941 . S
C111 C110 1.389 . S
C111 C112 1.397 . S
C112 H98 0.939 . S
C112 C111 1.397 . S
C112 C113 1.378 . S
C113 C112 1.378 . S
C113 C114 1.378 . S
C114 H99 0.940 . S
C114 C113 1.378 . S
C114 C115 1.396 . S
C115 H100 0.940 . S
C115 C110 1.391 . S
C115 C114 1.396 . S
C116 P96 1.803 . S
C116 C117 1.378 . S
C116 C121 1.400 . S
C117 H101 0.939 . S
C117 C116 1.378 . S
C117 C118 1.361 . S
C118 H102 0.942 . S
C118 C117 1.361 . S
C118 C119 1.369 . S
C119 C118 1.369 . S
C119 C120 1.404 . S
C120 H103 0.940 . S
C120 C119 1.404 . S
C120 C121 1.389 . S
C121 H104 0.939 . S
C121 C116 1.400 . S
C121 C120 1.389 . S
C122 P96 1.819 . S
C122 C123 1.391 . S
C122 C127 1.391 . S
C123 H105 0.941 . S
C123 C122 1.391 . S
C123 C124 1.396 . S
C124 H108 0.939 . S
C124 C123 1.396 . S
C124 C125 1.397 . S
C125 C124 1.397 . S
C125 C126 1.385 . S
C126 H109 0.940 . S
C126 C125 1.385 . S
C126 C127 1.388 . S
C127 H106 0.939 . S
C127 C122 1.391 . S
C127 C126 1.388 . S
P128 O139 1.490 . S
P128 C142 1.812 . S
P128 C148 1.803 . S
P128 C154 1.819 . S
H129 C143 0.941 . S
H130 C144 0.939 . S
H131 C146 0.940 . S
H132 C147 0.940 . S
H133 C149 0.939 . S
H134 C150 0.942 . S
H135 C152 0.940 . S
H136 C153 0.939 . S
H137 C155 0.941 . S
H138 C159 0.939 . S
O139 P128 1.490 . S
H140 C156 0.939 . S
H141 C158 0.940 1_655 S
C142 P128 1.812 . S
C142 C143 1.389 . S
C142 C147 1.391 . S
C143 H129 0.941 . S
C143 C142 1.389 . S
C143 C144 1.397 . S
C144 H130 0.939 . S
C144 C143 1.397 . S
C144 C145 1.378 1_565 S
C145 C144 1.378 1_545 S
C145 C146 1.378 . S
C146 H131 0.940 . S
C146 C145 1.378 . S
C146 C147 1.396 1_545 S
C147 H132 0.940 . S
C147 C142 1.391 . S
C147 C146 1.396 1_565 S
C148 P128 1.803 . S
C148 C149 1.378 . S
C148 C153 1.400 . S
C149 H133 0.939 . S
C149 C148 1.378 . S
C149 C150 1.361 . S
C150 H134 0.942 . S
C150 C149 1.361 . S
C150 C151 1.369 . S
C151 C150 1.369 . S
C151 C152 1.404 . S
C152 H135 0.940 . S
C152 C151 1.404 . S
C152 C153 1.389 . S
C153 H136 0.939 . S
C153 C148 1.400 . S
C153 C152 1.389 . S
C154 P128 1.819 . S
C154 C155 1.391 . S
C154 C159 1.391 . S
C155 H137 0.941 . S
C155 C154 1.391 . S
C155 C156 1.396 . S
C156 H140 0.939 . S
C156 C155 1.396 . S
C156 C157 1.397 . S
C157 C156 1.397 . S
C157 C158 1.385 . S
C158 H141 0.940 1_455 S
C158 C157 1.385 . S
C158 C159 1.388 . S
C159 H138 0.939 . S
C159 C154 1.391 . S
C159 C158 1.388 . S
P160 O171 1.490 . S
P160 C174 1.812 . S
P160 C180 1.803 . S
P160 C186 1.819 . S
H161 C175 0.941 . S
H162 C176 0.939 . S
H163 C178 0.940 . S
H164 C179 0.940 . S
H165 C181 0.939 . S
H166 C182 0.942 . S
H167 C184 0.940 . S
H168 C185 0.939 . S
H169 C187 0.941 . S
H170 C191 0.939 . S
O171 P160 1.490 . S
H172 C188 0.939 . S
H173 C190 0.940 . S
C174 P160 1.812 . S
C174 C175 1.389 . S
C174 C179 1.391 . S
C175 H161 0.941 . S
C175 C174 1.389 . S
C175 C176 1.397 . S
C176 H162 0.939 . S
C176 C175 1.397 . S
C176 C177 1.378 . S
C177 C176 1.378 . S
C177 C178 1.378 . S
C178 H163 0.940 . S
C178 C177 1.378 . S
C178 C179 1.396 . S
C179 H164 0.940 . S
C179 C174 1.391 . S
C179 C178 1.396 . S
C180 P160 1.803 . S
C180 C181 1.378 . S
C180 C185 1.400 . S
C181 H165 0.939 . S
C181 C180 1.378 . S
C181 C182 1.361 . S
C182 H166 0.942 . S
C182 C181 1.361 . S
C182 C183 1.369 . S
C183 C182 1.369 . S
C183 C184 1.404 . S
C184 H167 0.940 . S
C184 C183 1.404 . S
C184 C185 1.389 . S
C185 H168 0.939 . S
C185 C180 1.400 . S
C185 C184 1.389 . S
C186 P160 1.819 . S
C186 C187 1.391 . S
C186 C191 1.391 . S
C187 H169 0.941 . S
C187 C186 1.391 . S
C187 C188 1.396 . S
C188 H172 0.939 . S
C188 C187 1.396 . S
C188 C189 1.397 . S
C189 C188 1.397 . S
C189 C190 1.385 . S
C190 H173 0.940 . S
C190 C189 1.385 . S
C190 C191 1.388 . S
C191 H170 0.939 . S
C191 C186 1.391 . S
C191 C190 1.388 . S
P192 O203 1.490 . S
P192 C206 1.812 . S
P192 C212 1.803 . S
P192 C218 1.819 . S
H193 C207 0.941 . S
H194 C208 0.939 . S
H195 C210 0.940 . S
H196 C211 0.940 . S
H197 C213 0.939 . S
H198 C214 0.942 . S
H199 C216 0.940 . S
H200 C217 0.939 . S
H201 C219 0.941 . S
H202 C223 0.939 . S
O203 P192 1.490 . S
H204 C220 0.939 . S
H205 C222 0.940 . S
C206 P192 1.812 . S
C206 C207 1.389 1_655 S
C206 C211 1.391 . S
C207 H193 0.941 . S
C207 C206 1.389 1_455 S
C207 C208 1.397 . S
C208 H194 0.939 . S
C208 C207 1.397 . S
C208 C209 1.378 . S
C209 C208 1.378 . S
C209 C210 1.378 1_455 S
C210 H195 0.940 . S
C210 C209 1.378 1_655 S
C210 C211 1.396 . S
C211 H196 0.940 . S
C211 C206 1.391 . S
C211 C210 1.396 . S
C212 P192 1.803 . S
C212 C213 1.378 . S
C212 C217 1.400 . S
C213 H197 0.939 . S
C213 C212 1.378 . S
C213 C214 1.361 . S
C214 H198 0.942 . S
C214 C213 1.361 . S
C214 C215 1.369 . S
C215 C214 1.369 . S
C215 C216 1.404 . S
C216 H199 0.940 . S
C216 C215 1.404 . S
C216 C217 1.389 . S
C217 H200 0.939 . S
C217 C212 1.400 . S
C217 C216 1.389 . S
C218 P192 1.819 . S
C218 C219 1.391 . S
C218 C223 1.391 . S
C219 H201 0.941 . S
C219 C218 1.391 . S
C219 C220 1.396 . S
C220 H204 0.939 . S
C220 C219 1.396 . S
C220 C221 1.397 . S
C221 C220 1.397 . S
C221 C222 1.385 . S
C222 H205 0.940 . S
C222 C221 1.385 . S
C222 C223 1.388 . S
C223 H202 0.939 . S
C223 C218 1.391 . S
C223 C222 1.388 . S
P224 O235 1.490 . S
P224 C238 1.812 . S
P224 C244 1.803 . S
P224 C250 1.819 . S
H225 C239 0.941 . S
H226 C240 0.939 . S
H227 C242 0.940 . S
H228 C243 0.940 . S
H229 C245 0.939 . S
H230 C246 0.942 . S
H231 C248 0.940 . S
H232 C249 0.939 . S
H233 C251 0.941 . S
H234 C255 0.939 . S
O235 P224 1.490 . S
H236 C252 0.939 . S
H237 C254 0.940 . S
C238 P224 1.812 . S
C238 C239 1.389 . S
C238 C243 1.391 . S
C239 H225 0.941 . S
C239 C238 1.389 . S
C239 C240 1.397 . S
C240 H226 0.939 . S
C240 C239 1.397 . S
C240 C241 1.378 . S
C241 C240 1.378 . S
C241 C242 1.378 . S
C242 H227 0.940 . S
C242 C241 1.378 . S
C242 C243 1.396 . S
C243 H228 0.940 . S
C243 C238 1.391 . S
C243 C242 1.396 . S
C244 P224 1.803 . S
C244 C245 1.378 . S
C244 C249 1.400 . S
C245 H229 0.939 . S
C245 C244 1.378 . S
C245 C246 1.361 . S
C246 H230 0.942 . S
C246 C245 1.361 . S
C246 C247 1.369 . S
C247 C246 1.369 . S
C247 C248 1.404 . S
C248 H231 0.940 . S
C248 C247 1.404 . S
C248 C249 1.389 . S
C249 H232 0.939 . S
C249 C244 1.400 . S
C249 C248 1.389 . S
C250 P224 1.819 . S
C250 C251 1.391 . S
C250 C255 1.391 . S
C251 H233 0.941 . S
C251 C250 1.391 . S
C251 C252 1.396 . S
C252 H236 0.939 . S
C252 C251 1.396 . S
C252 C253 1.397 . S
C253 C252 1.397 . S
C253 C254 1.385 . S
C254 H237 0.940 . S
C254 C253 1.385 . S
C254 C255 1.388 . S
C255 H234 0.939 . S
C255 C250 1.391 . S
C255 C254 1.388 . S
P256 O267 1.490 . S
P256 C270 1.812 . S
P256 C276 1.803 . S
P256 C282 1.819 . S
H257 C271 0.941 . S
H258 C272 0.939 . S
H259 C274 0.940 . S
H260 C275 0.940 . S
H261 C277 0.939 . S
H262 C278 0.942 . S
H263 C280 0.940 . S
H264 C281 0.939 . S
H265 C283 0.941 . S
H266 C287 0.939 . S
O267 P256 1.490 . S
H268 C284 0.939 . S
H269 C286 0.940 . S
C270 P256 1.812 . S
C270 C271 1.389 . S
C270 C275 1.391 . S
C271 H257 0.941 . S
C271 C270 1.389 . S
C271 C272 1.397 . S
C272 H258 0.939 . S
C272 C271 1.397 . S
C272 C273 1.378 . S
C273 C272 1.378 . S
C273 C274 1.378 . S
C274 H259 0.940 . S
C274 C273 1.378 . S
C274 C275 1.396 . S
C275 H260 0.940 . S
C275 C270 1.391 . S
C275 C274 1.396 . S
C276 P256 1.803 . S
C276 C277 1.378 . S
C276 C281 1.400 . S
C277 H261 0.939 . S
C277 C276 1.378 . S
C277 C278 1.361 . S
C278 H262 0.942 . S
C278 C277 1.361 . S
C278 C279 1.369 . S
C279 C278 1.369 . S
C279 C280 1.404 . S
C280 H263 0.940 . S
C280 C279 1.404 . S
C280 C281 1.389 . S
C281 H264 0.939 . S
C281 C276 1.400 . S
C281 C280 1.389 . S
C282 P256 1.819 . S
C282 C283 1.391 . S
C282 C287 1.391 . S
C283 H265 0.941 . S
C283 C282 1.391 . S
C283 C284 1.396 . S
C284 H268 0.939 . S
C284 C283 1.396 . S
C284 C285 1.397 . S
C285 C284 1.397 . S
C285 C286 1.385 . S
C286 H269 0.940 . S
C286 C285 1.385 . S
C286 C287 1.388 . S
C287 H266 0.939 . S
C287 C282 1.391 . S
C287 C286 1.388 . S
P288 O299 1.490 . S
P288 C302 1.812 . S
P288 C308 1.803 . S
P288 C314 1.819 . S
H289 C303 0.941 . S
H290 C304 0.939 . S
H291 C306 0.940 . S
H292 C307 0.940 . S
H293 C309 0.939 . S
H294 C310 0.942 . S
H295 C312 0.940 . S
H296 C313 0.939 . S
H297 C315 0.941 . S
H298 C319 0.939 . S
O299 P288 1.490 . S
H300 C316 0.939 . S
H301 C318 0.940 . S
C302 P288 1.812 . S
C302 C303 1.389 . S
C302 C307 1.391 . S
C303 H289 0.941 . S
C303 C302 1.389 . S
C303 C304 1.397 . S
C304 H290 0.939 . S
C304 C303 1.397 . S
C304 C305 1.378 . S
C305 C304 1.378 . S
C305 C306 1.378 . S
C306 H291 0.940 . S
C306 C305 1.378 . S
C306 C307 1.396 . S
C307 H292 0.940 . S
C307 C302 1.391 . S
C307 C306 1.396 . S
C308 P288 1.803 . S
C308 C309 1.378 1_565 S
C308 C313 1.400 . S
C309 H293 0.939 . S
C309 C308 1.378 1_545 S
C309 C310 1.361 . S
C310 H294 0.942 . S
C310 C309 1.361 . S
C310 C311 1.369 . S
C311 C310 1.369 . S
C311 C312 1.404 1_545 S
C312 H295 0.940 . S
C312 C311 1.404 1_565 S
C312 C313 1.389 . S
C313 H296 0.939 . S
C313 C308 1.400 . S
C313 C312 1.389 . S
C314 P288 1.819 . S
C314 C315 1.391 . S
C314 C319 1.391 . S
C315 H297 0.941 . S
C315 C314 1.391 . S
C315 C316 1.396 . S
C316 H300 0.939 . S
C316 C315 1.396 . S
C316 C317 1.397 . S
C317 C316 1.397 . S
C317 C318 1.385 . S
C318 H301 0.940 . S
C318 C317 1.385 . S
C318 C319 1.388 . S
C319 H298 0.939 . S
C319 C314 1.391 . S
C319 C318 1.388 . S
P320 O331 1.490 . S
P320 C334 1.812 . S
P320 C340 1.803 . S
P320 C346 1.819 . S
H321 C335 0.941 . S
H322 C336 0.939 . S
H323 C338 0.940 . S
H324 C339 0.940 . S
H325 C341 0.939 . S
H326 C342 0.942 . S
H327 C344 0.940 . S
H328 C345 0.939 . S
H329 C347 0.941 . S
H330 C351 0.939 . S
O331 P320 1.490 . S
H332 C348 0.939 . S
H333 C350 0.940 . S
C334 P320 1.812 . S
C334 C335 1.389 . S
C334 C339 1.391 . S
C335 H321 0.941 . S
C335 C334 1.389 . S
C335 C336 1.397 . S
C336 H322 0.939 . S
C336 C335 1.397 . S
C336 C337 1.378 . S
C337 C336 1.378 . S
C337 C338 1.378 . S
C338 H323 0.940 . S
C338 C337 1.378 . S
C338 C339 1.396 . S
C339 H324 0.940 . S
C339 C334 1.391 . S
C339 C338 1.396 . S
C340 P320 1.803 . S
C340 C341 1.378 . S
C340 C345 1.400 . S
C341 H325 0.939 . S
C341 C340 1.378 . S
C341 C342 1.361 . S
C342 H326 0.942 . S
C342 C341 1.361 . S
C342 C343 1.369 . S
C343 C342 1.369 . S
C343 C344 1.404 . S
C344 H327 0.940 . S
C344 C343 1.404 . S
C344 C345 1.389 . S
C345 H328 0.939 . S
C345 C340 1.400 . S
C345 C344 1.389 . S
C346 P320 1.819 . S
C346 C347 1.391 . S
C346 C351 1.391 . S
C347 H329 0.941 . S
C347 C346 1.391 . S
C347 C348 1.396 . S
C348 H332 0.939 . S
C348 C347 1.396 . S
C348 C349 1.397 . S
C349 C348 1.397 . S
C349 C350 1.385 . S
C350 H333 0.940 . S
C350 C349 1.385 . S
C350 C351 1.388 . S
C351 H330 0.939 . S
C351 C346 1.391 . S
C351 C350 1.388 . S
P352 O363 1.490 . S
P352 C366 1.812 . S
P352 C372 1.803 . S
P352 C378 1.819 . S
H353 C367 0.941 . S
H354 C368 0.939 . S
H355 C370 0.940 . S
H356 C371 0.940 . S
H357 C373 0.939 . S
H358 C374 0.942 . S
H359 C376 0.940 . S
H360 C377 0.939 . S
H361 C379 0.941 . S
H362 C383 0.939 . S
O363 P352 1.490 . S
H364 C380 0.939 . S
H365 C382 0.940 . S
C366 P352 1.812 . S
C366 C367 1.389 . S
C366 C371 1.391 . S
C367 H353 0.941 . S
C367 C366 1.389 . S
C367 C368 1.397 . S
C368 H354 0.939 . S
C368 C367 1.397 . S
C368 C369 1.378 . S
C369 C368 1.378 . S
C369 C370 1.378 . S
C370 H355 0.940 . S
C370 C369 1.378 . S
C370 C371 1.396 . S
C371 H356 0.940 . S
C371 C366 1.391 . S
C371 C370 1.396 . S
C372 P352 1.803 . S
C372 C373 1.378 . S
C372 C377 1.400 . S
C373 H357 0.939 . S
C373 C372 1.378 . S
C373 C374 1.361 . S
C374 H358 0.942 . S
C374 C373 1.361 . S
C374 C375 1.369 . S
C375 C374 1.369 . S
C375 C376 1.404 . S
C376 H359 0.940 . S
C376 C375 1.404 . S
C376 C377 1.389 . S
C377 H360 0.939 . S
C377 C372 1.400 . S
C377 C376 1.389 . S
C378 P352 1.819 . S
C378 C379 1.391 . S
C378 C383 1.391 . S
C379 H361 0.941 . S
C379 C378 1.391 . S
C379 C380 1.396 . S
C380 H364 0.939 . S
C380 C379 1.396 . S
C380 C381 1.397 . S
C381 C380 1.397 . S
C381 C382 1.385 . S
C382 H365 0.940 . S
C382 C381 1.385 . S
C382 C383 1.388 . S
C383 H362 0.939 . S
C383 C378 1.391 . S
C383 C382 1.388 . S
P384 O395 1.490 . S
P384 C398 1.812 . S
P384 C404 1.803 . S
P384 C410 1.819 . S
H385 C399 0.941 . S
H386 C400 0.939 . S
H387 C402 0.940 . S
H388 C403 0.940 . S
H389 C405 0.939 . S
H390 C406 0.942 . S
H391 C408 0.940 . S
H392 C409 0.939 . S
H393 C411 0.941 . S
H394 C415 0.939 . S
O395 P384 1.490 . S
H396 C412 0.939 . S
H397 C414 0.940 . S
C398 P384 1.812 . S
C398 C399 1.389 . S
C398 C403 1.391 . S
C399 H385 0.941 . S
C399 C398 1.389 . S
C399 C400 1.397 . S
C400 H386 0.939 . S
C400 C399 1.397 . S
C400 C401 1.378 . S
C401 C400 1.378 . S
C401 C402 1.378 . S
C402 H387 0.940 . S
C402 C401 1.378 . S
C402 C403 1.396 . S
C403 H388 0.940 . S
C403 C398 1.391 . S
C403 C402 1.396 . S
C404 P384 1.803 . S
C404 C405 1.378 . S
C404 C409 1.400 . S
C405 H389 0.939 . S
C405 C404 1.378 . S
C405 C406 1.361 . S
C406 H390 0.942 . S
C406 C405 1.361 . S
C406 C407 1.369 . S
C407 C406 1.369 . S
C407 C408 1.404 . S
C408 H391 0.940 . S
C408 C407 1.404 . S
C408 C409 1.389 . S
C409 H392 0.939 . S
C409 C404 1.400 . S
C409 C408 1.389 . S
C410 P384 1.819 . S
C410 C411 1.391 . S
C410 C415 1.391 . S
C411 H393 0.941 . S
C411 C410 1.391 . S
C411 C412 1.396 . S
C412 H396 0.939 . S
C412 C411 1.396 . S
C412 C413 1.397 . S
C413 C412 1.397 . S
C413 C414 1.385 . S
C414 H397 0.940 . S
C414 C413 1.385 . S
C414 C415 1.388 . S
C415 H394 0.939 . S
C415 C410 1.391 . S
C415 C414 1.388 . S
P416 O427 1.490 . S
P416 C430 1.812 . S
P416 C436 1.803 . S
P416 C442 1.819 . S
H417 C431 0.941 . S
H418 C432 0.939 . S
H419 C434 0.940 . S
H420 C435 0.940 . S
H421 C437 0.939 . S
H422 C438 0.942 . S
H423 C440 0.940 . S
H424 C441 0.939 . S
H425 C443 0.941 . S
H426 C447 0.939 . S
O427 P416 1.490 . S
H428 C444 0.939 . S
H429 C446 0.940 . S
C430 P416 1.812 . S
C430 C431 1.389 . S
C430 C435 1.391 . S
C431 H417 0.941 . S
C431 C430 1.389 . S
C431 C432 1.397 . S
C432 H418 0.939 . S
C432 C431 1.397 . S
C432 C433 1.378 . S
C433 C432 1.378 . S
C433 C434 1.378 . S
C434 H419 0.940 . S
C434 C433 1.378 . S
C434 C435 1.396 . S
C435 H420 0.940 . S
C435 C430 1.391 . S
C435 C434 1.396 . S
C436 P416 1.803 . S
C436 C437 1.378 . S
C436 C441 1.400 . S
C437 H421 0.939 . S
C437 C436 1.378 . S
C437 C438 1.361 . S
C438 H422 0.942 . S
C438 C437 1.361 . S
C438 C439 1.369 1_556 S
C439 C438 1.369 1_554 S
C439 C440 1.404 . S
C440 H423 0.940 . S
C440 C439 1.404 . S
C440 C441 1.389 1_554 S
C441 H424 0.939 . S
C441 C436 1.400 . S
C441 C440 1.389 1_556 S
C442 P416 1.819 . S
C442 C443 1.391 . S
C442 C447 1.391 . S
C443 H425 0.941 . S
C443 C442 1.391 . S
C443 C444 1.396 . S
C444 H428 0.939 . S
C444 C443 1.396 . S
C444 C445 1.397 . S
C445 C444 1.397 . S
C445 C446 1.385 . S
C446 H429 0.940 . S
C446 C445 1.385 . S
C446 C447 1.388 . S
C447 H426 0.939 . S
C447 C442 1.391 . S
C447 C446 1.388 . S
P448 O459 1.490 . S
P448 C462 1.812 . S
P448 C468 1.803 . S
P448 C474 1.819 . S
H449 C463 0.941 . S
H450 C464 0.939 . S
H451 C466 0.940 . S
H452 C467 0.940 . S
H453 C469 0.939 . S
H454 C470 0.942 . S
H455 C472 0.940 . S
H456 C473 0.939 . S
H457 C475 0.941 . S
H458 C479 0.939 . S
O459 P448 1.490 . S
H460 C476 0.939 . S
H461 C478 0.940 . S
C462 P448 1.812 . S
C462 C463 1.389 . S
C462 C467 1.391 . S
C463 H449 0.941 . S
C463 C462 1.389 . S
C463 C464 1.397 . S
C464 H450 0.939 . S
C464 C463 1.397 . S
C464 C465 1.378 . S
C465 C464 1.378 . S
C465 C466 1.378 . S
C466 H451 0.940 . S
C466 C465 1.378 . S
C466 C467 1.396 . S
C467 H452 0.940 . S
C467 C462 1.391 . S
C467 C466 1.396 . S
C468 P448 1.803 . S
C468 C469 1.378 . S
C468 C473 1.400 . S
C469 H453 0.939 . S
C469 C468 1.378 . S
C469 C470 1.361 . S
C470 H454 0.942 . S
C470 C469 1.361 . S
C470 C471 1.369 . S
C471 C470 1.369 . S
C471 C472 1.404 . S
C472 H455 0.940 . S
C472 C471 1.404 . S
C472 C473 1.389 . S
C473 H456 0.939 . S
C473 C468 1.400 . S
C473 C472 1.389 . S
C474 P448 1.819 . S
C474 C475 1.391 . S
C474 C479 1.391 . S
C475 H457 0.941 . S
C475 C474 1.391 . S
C475 C476 1.396 . S
C476 H460 0.939 . S
C476 C475 1.396 . S
C476 C477 1.397 . S
C477 C476 1.397 . S
C477 C478 1.385 . S
C478 H461 0.940 . S
C478 C477 1.385 . S
C478 C479 1.388 . S
C479 H458 0.939 . S
C479 C474 1.391 . S
C479 C478 1.388 . S
P480 O491 1.490 . S
P480 C494 1.812 . S
P480 C500 1.803 . S
P480 C506 1.819 . S
H481 C495 0.941 . S
H482 C496 0.939 . S
H483 C498 0.940 . S
H484 C499 0.940 . S
H485 C501 0.939 . S
H486 C502 0.942 . S
H487 C504 0.940 . S
H488 C505 0.939 . S
H489 C507 0.962 . S
H490 C511 0.939 . S
O491 P480 1.490 . S
H492 C508 0.939 . S
H493 C510 0.940 . S
C494 P480 1.812 . S
C494 C495 1.389 . S
C494 C499 1.391 . S
C495 H481 0.941 . S
C495 C494 1.389 . S
C495 C496 1.397 . S
C496 H482 0.939 . S
C496 C495 1.397 . S
C496 C497 1.378 . S
C497 C496 1.378 . S
C497 C498 1.378 . S
C498 H483 0.940 . S
C498 C497 1.378 . S
C498 C499 1.396 . S
C499 H484 0.940 . S
C499 C494 1.391 . S
C499 C498 1.396 . S
C500 P480 1.803 . S
C500 C501 1.378 1_556 S
C500 C505 1.400 . S
C501 H485 0.939 . S
C501 C500 1.378 1_554 S
C501 C502 1.361 . S
C502 H486 0.942 . S
C502 C501 1.361 . S
C502 C503 1.369 . S
C503 C502 1.369 . S
C503 C504 1.404 1_554 S
C504 H487 0.940 . S
C504 C503 1.404 1_556 S
C504 C505 1.389 . S
C505 H488 0.939 . S
C505 C500 1.400 . S
C505 C504 1.389 . S
C506 P480 1.819 . S
C506 C507 1.358 1_545 S
C506 C511 1.391 . S
C507 H489 0.962 . S
C507 C506 1.358 1_565 S
C507 C508 1.410 . S
C508 H492 0.939 . S
C508 C507 1.410 . S
C508 C509 1.397 1_565 S
C509 C508 1.397 1_545 S
C509 C510 1.385 . S
C510 H493 0.940 . S
C510 C509 1.385 . S
C510 C511 1.388 . S
C511 H490 0.939 . S
C511 C506 1.391 . S
C511 C510 1.388 . S
Mn512 O517 2.095 . S
Mn512 O527 2.162 . S
Mn512 O528 2.297 . S
Mn512 O536 2.394 . S
Mn512 O537 2.209 1_554 S
Mn512 O538 2.094 . S
Mn513 O518 2.121 . S
Mn513 N520 2.257 . S
Mn513 N529 2.282 . S
Mn513 O537 2.215 . S
Mn513 O539 2.117 . S
C514 O536 1.217 1_556 S
C514 O537 1.283 . S
C515 O527 1.281 . S
C515 O528 1.236 . S
C516 O538 1.240 . S
C516 O539 1.264 1_554 S
O517 Mn512 2.095 . S
O517 C526 1.250 . S
O518 Mn513 2.121 . S
O518 C526 1.258 1_556 S
C519 N520 1.326 . S
C519 C523 1.460 . S
C519 H525 0.929 . S
N520 Mn513 2.257 . S
N520 C519 1.326 . S
N520 C524 1.362 . S
C521 C522 1.258 . S
C521 C524 1.431 . S
C521 C541 1.449 . S
C522 C521 1.258 . S
C522 C523 1.477 . S
C522 H542 0.931 . S
C523 C519 1.460 . S
C523 C522 1.477 . S
C523 H543 0.930 . S
C524 N520 1.362 . S
C524 C521 1.431 . S
C524 C534 1.476 . S
H525 C519 0.929 . S
C526 O517 1.250 . S
C526 O518 1.258 1_554 S
O527 Mn512 2.162 . S
O527 C515 1.281 . S
O528 Mn512 2.297 . S
O528 C515 1.236 . S
N529 Mn513 2.282 . S
N529 C530 1.328 . S
N529 C534 1.318 . S
C530 N529 1.328 . S
C530 C531 1.457 . S
C530 H535 0.929 . S
C531 C530 1.457 . S
C531 C532 1.291 . S
C531 H544 0.931 . S
C532 C531 1.291 . S
C532 C533 1.373 . S
C532 H545 0.929 . S
C533 C532 1.373 . S
C533 C534 1.396 . S
C533 C540 1.403 . S
C534 C524 1.476 . S
C534 N529 1.318 . S
C534 C533 1.396 . S
H535 C530 0.929 . S
O536 Mn512 2.394 . S
O536 C514 1.217 1_554 S
O537 Mn512 2.209 1_556 S
O537 Mn513 2.215 . S
O537 C514 1.283 . S
O538 Mn512 2.094 . S
O538 C516 1.240 . S
O539 Mn513 2.117 . S
O539 C516 1.264 1_556 S
C540 C533 1.403 . S
C540 C541 1.399 . S
C540 H546 0.929 . S
C541 C521 1.449 . S
C541 C540 1.399 . S
C541 H547 0.930 . S
H542 C522 0.931 . S
H543 C523 0.930 . S
H544 C531 0.931 . S
H545 C532 0.929 . S
H546 C540 0.929 . S
H547 C541 0.930 . S
Mn548 O553 2.095 . S
Mn548 O563 2.162 . S
Mn548 O564 2.297 . S
Mn548 O572 2.385 . S
Mn548 O573 2.209 . S
Mn548 O574 2.094 . S
Mn549 O554 2.121 . S
Mn549 N556 2.257 . S
Mn549 N565 2.282 . S
Mn549 O573 2.215 . S
Mn549 O575 2.117 . S
C550 O572 1.234 . S
C550 O573 1.283 . S
C551 O563 1.281 . S
C551 O564 1.236 . S
C552 O574 1.240 . S
C552 O575 1.264 . S
O553 Mn548 2.095 . S
O553 C562 1.250 . S
O554 Mn549 2.121 . S
O554 C562 1.258 . S
C555 N556 1.326 . S
C555 C559 1.460 . S
C555 H561 0.929 . S
N556 Mn549 2.257 . S
N556 C555 1.326 . S
N556 C560 1.362 . S
C557 C558 1.258 . S
C557 C560 1.431 . S
C557 C577 1.449 . S
C558 C557 1.258 . S
C558 C559 1.477 . S
C558 H578 0.931 . S
C559 C555 1.460 . S
C559 C558 1.477 . S
C559 H579 0.930 . S
C560 N556 1.362 . S
C560 C557 1.431 . S
C560 C570 1.476 . S
H561 C555 0.929 . S
C562 O553 1.250 . S
C562 O554 1.258 . S
O563 Mn548 2.162 . S
O563 C551 1.281 . S
O564 Mn548 2.297 . S
O564 C551 1.236 . S
N565 Mn549 2.282 . S
N565 C566 1.328 . S
N565 C570 1.318 . S
C566 N565 1.328 . S
C566 C567 1.457 . S
C566 H571 0.929 . S
C567 C566 1.457 . S
C567 C568 1.291 . S
C567 H580 0.931 . S
C568 C567 1.291 . S
C568 C569 1.373 . S
C568 H581 0.929 . S
C569 C568 1.373 . S
C569 C570 1.396 . S
C569 C576 1.403 . S
C570 C560 1.476 . S
C570 N565 1.318 . S
C570 C569 1.396 . S
H571 C566 0.929 . S
O572 Mn548 2.385 . S
O572 C550 1.234 . S
O573 Mn548 2.209 . S
O573 Mn549 2.215 . S
O573 C550 1.283 . S
O574 Mn548 2.094 . S
O574 C552 1.240 . S
O575 Mn549 2.117 . S
O575 C552 1.264 . S
C576 C569 1.403 . S
C576 C577 1.399 . S
C576 H582 0.929 . S
C577 C557 1.449 . S
C577 C576 1.399 . S
C577 H583 0.930 . S
H578 C558 0.931 . S
H579 C559 0.930 . S
H580 C567 0.931 . S
H581 C568 0.929 . S
H582 C576 0.929 . S
H583 C577 0.930 . S
Mn584 O589 2.095 1_554 S
Mn584 O599 2.162 . S
Mn584 O600 2.297 1_554 S
Mn584 O608 2.385 . S
Mn584 O609 2.209 1_554 S
Mn584 O610 2.094 . S
Mn585 O590 2.121 . S
Mn585 N592 2.257 . S
Mn585 N601 2.282 . S
Mn585 O609 2.215 . S
Mn585 O611 2.117 1_556 S
C586 O608 1.223 1_556 S
C586 O609 1.291 . S
C587 O599 1.281 . S
C587 O600 1.236 1_554 S
C588 O610 1.240 . S
C588 O611 1.264 . S
O589 Mn584 2.095 1_556 S
O589 C598 1.250 . S
O590 Mn585 2.121 . S
O590 C598 1.258 . S
C591 N592 1.326 . S
C591 C595 1.460 . S
C591 H597 0.929 . S
N592 Mn585 2.257 . S
N592 C591 1.326 . S
N592 C596 1.362 . S
C593 C594 1.258 . S
C593 C596 1.431 . S
C593 C613 1.449 . S
C594 C593 1.258 . S
C594 C595 1.477 . S
C594 H614 0.931 . S
C595 C591 1.460 . S
C595 C594 1.477 . S
C595 H615 0.930 . S
C596 N592 1.362 . S
C596 C593 1.431 . S
C596 C606 1.476 . S
H597 C591 0.929 . S
C598 O589 1.250 . S
C598 O590 1.258 . S
O599 Mn584 2.162 . S
O599 C587 1.281 . S
O600 Mn584 2.297 1_556 S
O600 C587 1.236 1_556 S
N601 Mn585 2.282 . S
N601 C602 1.328 1_556 S
N601 C606 1.318 . S
C602 N601 1.328 1_554 S
C602 C603 1.457 . S
C602 H607 0.929 . S
C603 C602 1.457 . S
C603 C604 1.291 . S
C603 H616 0.931 . S
C604 C603 1.291 . S
C604 C605 1.373 1_554 S
C604 H617 0.929 . S
C605 C604 1.373 1_556 S
C605 C606 1.396 . S
C605 C612 1.403 . S
C606 C596 1.476 . S
C606 N601 1.318 . S
C606 C605 1.396 . S
H607 C602 0.929 . S
O608 Mn584 2.385 . S
O608 C586 1.223 1_554 S
O609 Mn584 2.209 1_556 S
O609 Mn585 2.215 . S
O609 C586 1.291 . S
O610 Mn584 2.094 . S
O610 C588 1.240 . S
O611 Mn585 2.117 1_554 S
O611 C588 1.264 . S
C612 C605 1.403 . S
C612 C613 1.399 . S
C612 H618 0.929 . S
C613 C593 1.449 . S
C613 C612 1.399 . S
C613 H619 0.930 . S
H614 C594 0.931 . S
H615 C595 0.930 . S
H616 C603 0.931 . S
H617 C604 0.929 . S
H618 C612 0.929 . S
H619 C613 0.930 . S
Mn620 O625 2.095 . S
Mn620 O635 2.162 . S
Mn620 O636 2.297 . S
Mn620 O644 2.405 . S
Mn620 O645 2.209 1_545 S
Mn620 O646 2.094 . S
Mn621 O626 2.121 . S
Mn621 N628 2.257 . S
Mn621 N637 2.282 . S
Mn621 O645 2.215 . S
Mn621 O647 2.117 . S
C622 O644 1.195 1_565 S
C622 O645 1.283 . S
C623 O635 1.281 . S
C623 O636 1.236 . S
C624 O646 1.240 . S
C624 O647 1.264 1_545 S
O625 Mn620 2.095 . S
O625 C634 1.250 . S
O626 Mn621 2.121 . S
O626 C634 1.258 1_565 S
C627 N628 1.326 . S
C627 C631 1.460 . S
C627 H633 0.929 . S
N628 Mn621 2.257 . S
N628 C627 1.326 . S
N628 C632 1.362 . S
C629 C630 1.258 . S
C629 C632 1.431 . S
C629 C649 1.449 . S
C630 C629 1.258 . S
C630 C631 1.477 . S
C630 H650 0.931 . S
C631 C627 1.460 . S
C631 C630 1.477 . S
C631 H651 0.930 . S
C632 N628 1.362 . S
C632 C629 1.431 . S
C632 C642 1.476 . S
H633 C627 0.929 . S
C634 O625 1.250 . S
C634 O626 1.258 1_545 S
O635 Mn620 2.162 . S
O635 C623 1.281 . S
O636 Mn620 2.297 . S
O636 C623 1.236 . S
N637 Mn621 2.282 . S
N637 C638 1.328 . S
N637 C642 1.318 . S
C638 N637 1.328 . S
C638 C639 1.457 . S
C638 H643 0.929 . S
C639 C638 1.457 . S
C639 C640 1.291 . S
C639 H652 0.931 . S
C640 C639 1.291 . S
C640 C641 1.373 . S
C640 H653 0.929 . S
C641 C640 1.373 . S
C641 C642 1.396 . S
C641 C648 1.403 . S
C642 C632 1.476 . S
C642 N637 1.318 . S
C642 C641 1.396 . S
H643 C638 0.929 . S
O644 Mn620 2.405 . S
O644 C622 1.195 1_545 S
O645 Mn620 2.209 1_565 S
O645 Mn621 2.215 . S
O645 C622 1.283 . S
O646 Mn620 2.094 . S
O646 C624 1.240 . S
O647 Mn621 2.117 . S
O647 C624 1.264 1_565 S
C648 C641 1.403 . S
C648 C649 1.399 . S
C648 H654 0.929 . S
C649 C629 1.449 . S
C649 C648 1.399 . S
C649 H655 0.930 . S
H650 C630 0.931 . S
H651 C631 0.930 . S
H652 C639 0.931 . S
H653 C640 0.929 . S
H654 C648 0.929 . S
H655 C649 0.930 . S
Mn656 O661 2.095 . S
Mn656 O671 2.162 . S
Mn656 O672 2.297 . S
Mn656 O680 2.385 . S
Mn656 O681 2.209 . S
Mn656 O682 2.094 . S
Mn657 O662 2.121 . S
Mn657 N664 2.257 . S
Mn657 N673 2.282 . S
Mn657 O681 2.215 . S
Mn657 O683 2.117 . S
C658 O680 1.234 . S
C658 O681 1.283 . S
C659 O671 1.281 . S
C659 O672 1.236 . S
C660 O682 1.240 . S
C660 O683 1.264 . S
O661 Mn656 2.095 . S
O661 C670 1.250 . S
O662 Mn657 2.121 . S
O662 C670 1.258 . S
C663 N664 1.326 . S
C663 C667 1.460 . S
C663 H669 0.929 . S
N664 Mn657 2.257 . S
N664 C663 1.326 . S
N664 C668 1.362 . S
C665 C666 1.258 . S
C665 C668 1.431 . S
C665 C685 1.449 . S
C666 C665 1.258 . S
C666 C667 1.477 . S
C666 H686 0.931 . S
C667 C663 1.460 . S
C667 C666 1.477 . S
C667 H687 0.930 . S
C668 N664 1.362 . S
C668 C665 1.431 . S
C668 C678 1.476 . S
H669 C663 0.929 . S
C670 O661 1.250 . S
C670 O662 1.258 . S
O671 Mn656 2.162 . S
O671 C659 1.281 . S
O672 Mn656 2.297 . S
O672 C659 1.236 . S
N673 Mn657 2.282 . S
N673 C674 1.328 . S
N673 C678 1.318 . S
C674 N673 1.328 . S
C674 C675 1.457 . S
C674 H679 0.929 . S
C675 C674 1.457 . S
C675 C676 1.291 . S
C675 H688 0.931 . S
C676 C675 1.291 . S
C676 C677 1.373 . S
C676 H689 0.929 . S
C677 C676 1.373 . S
C677 C678 1.396 . S
C677 C684 1.403 . S
C678 C668 1.476 . S
C678 N673 1.318 . S
C678 C677 1.396 . S
H679 C674 0.929 . S
O680 Mn656 2.385 . S
O680 C658 1.234 . S
O681 Mn656 2.209 . S
O681 Mn657 2.215 . S
O681 C658 1.283 . S
O682 Mn656 2.094 . S
O682 C660 1.240 . S
O683 Mn657 2.117 . S
O683 C660 1.264 . S
C684 C677 1.403 . S
C684 C685 1.399 . S
C684 H690 0.929 . S
C685 C665 1.449 . S
C685 C684 1.399 . S
C685 H691 0.930 . S
H686 C666 0.931 . S
H687 C667 0.930 . S
H688 C675 0.931 . S
H689 C676 0.929 . S
H690 C684 0.929 . S
H691 C685 0.930 . S
Mn692 O697 2.095 . S
Mn692 O707 2.162 . S
Mn692 O708 2.297 . S
Mn692 O716 2.385 . S
Mn692 O717 2.209 . S
Mn692 O718 2.094 . S
Mn693 O698 2.121 . S
Mn693 N700 2.257 . S
Mn693 N709 2.282 . S
Mn693 O717 2.215 . S
Mn693 O719 2.117 . S
C694 O716 1.234 . S
C694 O717 1.283 . S
C695 O707 1.281 . S
C695 O708 1.236 . S
C696 O718 1.240 . S
C696 O719 1.264 . S
O697 Mn692 2.095 . S
O697 C706 1.250 . S
O698 Mn693 2.121 . S
O698 C706 1.258 . S
C699 N700 1.326 . S
C699 C703 1.460 . S
C699 H705 0.929 . S
N700 Mn693 2.257 . S
N700 C699 1.326 . S
N700 C704 1.362 . S
C701 C702 1.258 . S
C701 C704 1.431 . S
C701 C721 1.449 . S
C702 C701 1.258 . S
C702 C703 1.477 . S
C702 H722 0.931 . S
C703 C699 1.460 . S
C703 C702 1.477 . S
C703 H723 0.930 . S
C704 N700 1.362 . S
C704 C701 1.431 . S
C704 C714 1.476 . S
H705 C699 0.929 . S
C706 O697 1.250 . S
C706 O698 1.258 . S
O707 Mn692 2.162 . S
O707 C695 1.281 . S
O708 Mn692 2.297 . S
O708 C695 1.236 . S
N709 Mn693 2.282 . S
N709 C710 1.328 . S
N709 C714 1.318 . S
C710 N709 1.328 . S
C710 C711 1.457 . S
C710 H715 0.929 . S
C711 C710 1.457 . S
C711 C712 1.291 . S
C711 H724 0.931 . S
C712 C711 1.291 . S
C712 C713 1.373 . S
C712 H725 0.929 . S
C713 C712 1.373 . S
C713 C714 1.396 . S
C713 C720 1.403 . S
C714 C704 1.476 . S
C714 N709 1.318 . S
C714 C713 1.396 . S
H715 C710 0.929 . S
O716 Mn692 2.385 . S
O716 C694 1.234 . S
O717 Mn692 2.209 . S
O717 Mn693 2.215 . S
O717 C694 1.283 . S
O718 Mn692 2.094 . S
O718 C696 1.240 . S
O719 Mn693 2.117 . S
O719 C696 1.264 . S
C720 C713 1.403 . S
C720 C721 1.399 . S
C720 H726 0.929 . S
C721 C701 1.449 . S
C721 C720 1.399 . S
C721 H727 0.930 . S
H722 C702 0.931 . S
H723 C703 0.930 . S
H724 C711 0.931 . S
H725 C712 0.929 . S
H726 C720 0.929 . S
H727 C721 0.930 . S
Mn728 O733 2.095 . S
Mn728 O743 2.162 . S
Mn728 O744 2.297 . S
Mn728 O752 2.385 . S
Mn728 O753 2.209 . S
Mn728 O754 2.094 . S
Mn729 O734 2.121 . S
Mn729 N736 2.257 . S
Mn729 N745 2.282 . S
Mn729 O753 2.215 . S
Mn729 O755 2.117 . S
C730 O752 1.234 . S
C730 O753 1.283 . S
C731 O743 1.281 . S
C731 O744 1.236 . S
C732 O754 1.240 . S
C732 O755 1.264 . S
O733 Mn728 2.095 . S
O733 C742 1.250 . S
O734 Mn729 2.121 . S
O734 C742 1.258 . S
C735 N736 1.326 . S
C735 C739 1.460 . S
C735 H741 0.929 . S
N736 Mn729 2.257 . S
N736 C735 1.326 . S
N736 C740 1.362 . S
C737 C738 1.258 . S
C737 C740 1.431 . S
C737 C757 1.449 . S
C738 C737 1.258 . S
C738 C739 1.477 . S
C738 H758 0.931 . S
C739 C735 1.460 . S
C739 C738 1.477 . S
C739 H759 0.930 . S
C740 N736 1.362 . S
C740 C737 1.431 . S
C740 C750 1.476 . S
H741 C735 0.929 . S
C742 O733 1.250 . S
C742 O734 1.258 . S
O743 Mn728 2.162 . S
O743 C731 1.281 . S
O744 Mn728 2.297 . S
O744 C731 1.236 . S
N745 Mn729 2.282 . S
N745 C746 1.328 . S
N745 C750 1.318 . S
C746 N745 1.328 . S
C746 C747 1.457 . S
C746 H751 0.929 . S
C747 C746 1.457 . S
C747 C748 1.291 . S
C747 H760 0.931 . S
C748 C747 1.291 . S
C748 C749 1.373 . S
C748 H761 0.929 . S
C749 C748 1.373 . S
C749 C750 1.396 . S
C749 C756 1.403 . S
C750 C740 1.476 . S
C750 N745 1.318 . S
C750 C749 1.396 . S
H751 C746 0.929 . S
O752 Mn728 2.385 . S
O752 C730 1.234 . S
O753 Mn728 2.209 . S
O753 Mn729 2.215 . S
O753 C730 1.283 . S
O754 Mn728 2.094 . S
O754 C732 1.240 . S
O755 Mn729 2.117 . S
O755 C732 1.264 . S
C756 C749 1.403 . S
C756 C757 1.399 . S
C756 H762 0.929 . S
C757 C737 1.449 . S
C757 C756 1.399 . S
C757 H763 0.930 . S
H758 C738 0.931 . S
H759 C739 0.930 . S
H760 C747 0.931 . S
H761 C748 0.929 . S
H762 C756 0.929 . S
H763 C757 0.930 . S
Mn764 O769 2.095 . S
Mn764 O779 2.162 . S
Mn764 O780 2.297 . S
Mn764 O788 2.385 1_565 S
Mn764 O789 2.209 1_565 S
Mn764 O790 2.094 . S
Mn765 O770 2.121 . S
Mn765 N772 2.257 . S
Mn765 N781 2.282 . S
Mn765 O789 2.215 . S
Mn765 O791 2.117 . S
C766 O788 1.234 . S
C766 O789 1.283 . S
C767 O779 1.281 . S
C767 O780 1.236 . S
C768 O790 1.206 1_545 S
C768 O791 1.309 . S
O769 Mn764 2.095 . S
O769 C778 1.250 1_565 S
O770 Mn765 2.121 . S
O770 C778 1.258 . S
C771 N772 1.326 . S
C771 C775 1.460 . S
C771 H777 0.929 . S
N772 Mn765 2.257 . S
N772 C771 1.326 . S
N772 C776 1.362 . S
C773 C774 1.258 . S
C773 C776 1.431 . S
C773 C793 1.449 . S
C774 C773 1.258 . S
C774 C775 1.477 . S
C774 H794 0.931 . S
C775 C771 1.460 . S
C775 C774 1.477 . S
C775 H795 0.930 . S
C776 N772 1.362 . S
C776 C773 1.431 . S
C776 C786 1.476 . S
H777 C771 0.929 . S
C778 O769 1.250 1_545 S
C778 O770 1.258 . S
O779 Mn764 2.162 . S
O779 C767 1.281 . S
O780 Mn764 2.297 . S
O780 C767 1.236 . S
N781 Mn765 2.282 . S
N781 C782 1.328 . S
N781 C786 1.318 . S
C782 N781 1.328 . S
C782 C783 1.457 . S
C782 H787 0.929 . S
C783 C782 1.457 . S
C783 C784 1.291 . S
C783 H796 0.931 . S
C784 C783 1.291 . S
C784 C785 1.373 . S
C784 H797 0.929 . S
C785 C784 1.373 . S
C785 C786 1.396 . S
C785 C792 1.403 . S
C786 C776 1.476 . S
C786 N781 1.318 . S
C786 C785 1.396 . S
H787 C782 0.929 . S
O788 Mn764 2.385 1_545 S
O788 C766 1.234 . S
O789 Mn764 2.209 1_545 S
O789 Mn765 2.215 . S
O789 C766 1.283 . S
O790 Mn764 2.094 . S
O790 C768 1.206 1_565 S
O791 Mn765 2.117 . S
O791 C768 1.309 . S
C792 C785 1.403 . S
C792 C793 1.399 . S
C792 H798 0.929 . S
C793 C773 1.449 . S
C793 C792 1.399 . S
C793 H799 0.930 . S
H794 C774 0.931 . S
H795 C775 0.930 . S
H796 C783 0.931 . S
H797 C784 0.929 . S
H798 C792 0.929 . S
H799 C793 0.930 . S
Mn800 O805 2.095 . S
Mn800 O815 2.162 . S
Mn800 O816 2.297 . S
Mn800 O824 2.395 . S
Mn800 O825 2.209 1_455 S
Mn800 O826 2.094 . S
Mn801 O806 2.121 . S
Mn801 N808 2.257 . S
Mn801 N817 2.282 . S
Mn801 O825 2.215 . S
Mn801 O827 2.117 . S
C802 O824 1.214 1_655 S
C802 O825 1.283 . S
C803 O815 1.281 . S
C803 O816 1.236 . S
C804 O826 1.240 . S
C804 O827 1.264 1_455 S
O805 Mn800 2.095 . S
O805 C814 1.250 . S
O806 Mn801 2.121 . S
O806 C814 1.258 1_655 S
C807 N808 1.326 . S
C807 C811 1.460 . S
C807 H813 0.929 . S
N808 Mn801 2.257 . S
N808 C807 1.326 . S
N808 C812 1.362 . S
C809 C810 1.258 . S
C809 C812 1.431 . S
C809 C829 1.449 . S
C810 C809 1.258 . S
C810 C811 1.477 . S
C810 H830 0.931 . S
C811 C807 1.460 . S
C811 C810 1.477 . S
C811 H831 0.930 . S
C812 N808 1.362 . S
C812 C809 1.431 . S
C812 C822 1.476 . S
H813 C807 0.929 . S
C814 O805 1.250 . S
C814 O806 1.258 1_455 S
O815 Mn800 2.162 . S
O815 C803 1.281 . S
O816 Mn800 2.297 . S
O816 C803 1.236 . S
N817 Mn801 2.282 . S
N817 C818 1.328 . S
N817 C822 1.318 . S
C818 N817 1.328 . S
C818 C819 1.457 . S
C818 H823 0.929 . S
C819 C818 1.457 . S
C819 C820 1.291 . S
C819 H832 0.931 . S
C820 C819 1.291 . S
C820 C821 1.373 . S
C820 H833 0.929 . S
C821 C820 1.373 . S
C821 C822 1.396 . S
C821 C828 1.403 . S
C822 C812 1.476 . S
C822 N817 1.318 . S
C822 C821 1.396 . S
H823 C818 0.929 . S
O824 Mn800 2.395 . S
O824 C802 1.214 1_455 S
O825 Mn800 2.209 1_655 S
O825 Mn801 2.215 . S
O825 C802 1.283 . S
O826 Mn800 2.094 . S
O826 C804 1.240 . S
O827 Mn801 2.117 . S
O827 C804 1.264 1_655 S
C828 C821 1.403 . S
C828 C829 1.399 . S
C828 H834 0.929 . S
C829 C809 1.449 . S
C829 C828 1.399 . S
C829 H835 0.930 . S
H830 C810 0.931 . S
H831 C811 0.930 . S
H832 C819 0.931 . S
H833 C820 0.929 . S
H834 C828 0.929 . S
H835 C829 0.930 . S
Mn836 O841 2.095 . S
Mn836 O851 2.162 . S
Mn836 O852 2.297 . S
Mn836 O860 2.385 . S
Mn836 O861 2.209 . S
Mn836 O862 2.094 . S
Mn837 O842 2.121 . S
Mn837 N844 2.257 . S
Mn837 N853 2.282 . S
Mn837 O861 2.215 . S
Mn837 O863 2.117 . S
C838 O860 1.234 . S
C838 O861 1.283 . S
C839 O851 1.281 . S
C839 O852 1.236 . S
C840 O862 1.240 . S
C840 O863 1.264 . S
O841 Mn836 2.095 . S
O841 C850 1.250 . S
O842 Mn837 2.121 . S
O842 C850 1.258 . S
C843 N844 1.326 . S
C843 C847 1.460 . S
C843 H849 0.929 . S
N844 Mn837 2.257 . S
N844 C843 1.326 . S
N844 C848 1.362 . S
C845 C846 1.258 . S
C845 C848 1.431 . S
C845 C865 1.449 . S
C846 C845 1.258 . S
C846 C847 1.477 . S
C846 H866 0.931 . S
C847 C843 1.460 . S
C847 C846 1.477 . S
C847 H867 0.930 . S
C848 N844 1.362 . S
C848 C845 1.431 . S
C848 C858 1.476 . S
H849 C843 0.929 . S
C850 O841 1.250 . S
C850 O842 1.258 . S
O851 Mn836 2.162 . S
O851 C839 1.281 . S
O852 Mn836 2.297 . S
O852 C839 1.236 . S
N853 Mn837 2.282 . S
N853 C854 1.328 . S
N853 C858 1.318 . S
C854 N853 1.328 . S
C854 C855 1.457 . S
C854 H859 0.929 . S
C855 C854 1.457 . S
C855 C856 1.291 . S
C855 H868 0.931 . S
C856 C855 1.291 . S
C856 C857 1.373 . S
C856 H869 0.929 . S
C857 C856 1.373 . S
C857 C858 1.396 . S
C857 C864 1.403 . S
C858 C848 1.476 . S
C858 N853 1.318 . S
C858 C857 1.396 . S
H859 C854 0.929 . S
O860 Mn836 2.385 . S
O860 C838 1.234 . S
O861 Mn836 2.209 . S
O861 Mn837 2.215 . S
O861 C838 1.283 . S
O862 Mn836 2.094 . S
O862 C840 1.240 . S
O863 Mn837 2.117 . S
O863 C840 1.264 . S
C864 C857 1.403 . S
C864 C865 1.399 . S
C864 H870 0.929 . S
C865 C845 1.449 . S
C865 C864 1.399 . S
C865 H871 0.930 . S
H866 C846 0.931 . S
H867 C847 0.930 . S
H868 C855 0.931 . S
H869 C856 0.929 . S
H870 C864 0.929 . S
H871 C865 0.930 . S
Mn872 O877 2.095 1_455 S
Mn872 O887 2.162 . S
Mn872 O888 2.297 1_455 S
Mn872 O896 2.385 . S
Mn872 O897 2.209 1_455 S
Mn872 O898 2.094 . S
Mn873 O878 2.121 . S
Mn873 N880 2.257 . S
Mn873 N889 2.282 1_655 S
Mn873 O897 2.215 . S
Mn873 O899 2.117 1_655 S
C874 O896 1.234 . S
C874 O897 1.283 1_455 S
C875 O887 1.281 . S
C875 O888 1.236 1_455 S
C876 O898 1.240 . S
C876 O899 1.264 . S
O877 Mn872 2.095 1_655 S
O877 C886 1.250 . S
O878 Mn873 2.121 . S
O878 C886 1.258 . S
C879 N880 1.326 . S
C879 C883 1.460 . S
C879 H885 0.929 . S
N880 Mn873 2.257 . S
N880 C879 1.326 . S
N880 C884 1.362 . S
C881 C882 1.258 . S
C881 C884 1.431 . S
C881 C901 1.449 . S
C882 C881 1.258 . S
C882 C883 1.477 . S
C882 H902 0.931 . S
C883 C879 1.460 . S
C883 C882 1.477 . S
C883 H903 0.930 . S
C884 N880 1.362 . S
C884 C881 1.431 . S
C884 C894 1.476 . S
H885 C879 0.929 . S
C886 O877 1.250 . S
C886 O878 1.258 . S
O887 Mn872 2.162 . S
O887 C875 1.281 . S
O888 Mn872 2.297 1_655 S
O888 C875 1.236 1_655 S
N889 Mn873 2.282 1_455 S
N889 C890 1.328 . S
N889 C894 1.318 1_455 S
C890 N889 1.328 . S
C890 C891 1.457 . S
C890 H895 0.929 . S
C891 C890 1.457 . S
C891 C892 1.291 . S
C891 H904 0.931 . S
C892 C891 1.291 . S
C892 C893 1.373 1_455 S
C892 H905 0.929 . S
C893 C892 1.373 1_655 S
C893 C894 1.396 . S
C893 C900 1.403 . S
C894 C884 1.476 . S
C894 N889 1.318 1_655 S
C894 C893 1.396 . S
H895 C890 0.929 . S
O896 Mn872 2.385 . S
O896 C874 1.234 . S
O897 Mn872 2.209 1_655 S
O897 Mn873 2.215 . S
O897 C874 1.283 1_655 S
O898 Mn872 2.094 . S
O898 C876 1.240 . S
O899 Mn873 2.117 1_455 S
O899 C876 1.264 . S
C900 C893 1.403 . S
C900 C901 1.399 . S
C900 H906 0.929 . S
C901 C881 1.449 . S
C901 C900 1.399 . S
C901 H907 0.930 . S
H902 C882 0.931 . S
H903 C883 0.930 . S
H904 C891 0.931 . S
H905 C892 0.929 . S
H906 C900 0.929 . S
H907 C901 0.930 . S
Mn908 O913 2.095 . S
Mn908 O923 2.162 . S
Mn908 O924 2.297 . S
Mn908 O932 2.385 . S
Mn908 O933 2.209 . S
Mn908 O934 2.094 . S
Mn909 O914 2.121 . S
Mn909 N916 2.257 . S
Mn909 N925 2.282 . S
Mn909 O933 2.215 . S
Mn909 O935 2.117 . S
C910 O932 1.234 . S
C910 O933 1.283 . S
C911 O923 1.281 . S
C911 O924 1.236 . S
C912 O934 1.240 . S
C912 O935 1.264 . S
O913 Mn908 2.095 . S
O913 C922 1.250 . S
O914 Mn909 2.121 . S
O914 C922 1.258 . S
C915 N916 1.326 . S
C915 C919 1.460 . S
C915 H921 0.929 . S
N916 Mn909 2.257 . S
N916 C915 1.326 . S
N916 C920 1.362 . S
C917 C918 1.258 . S
C917 C920 1.431 . S
C917 C937 1.449 . S
C918 C917 1.258 . S
C918 C919 1.477 . S
C918 H938 0.931 . S
C919 C915 1.460 . S
C919 C918 1.477 . S
C919 H939 0.930 . S
C920 N916 1.362 . S
C920 C917 1.431 . S
C920 C930 1.476 . S
H921 C915 0.929 . S
C922 O913 1.250 . S
C922 O914 1.258 . S
O923 Mn908 2.162 . S
O923 C911 1.281 . S
O924 Mn908 2.297 . S
O924 C911 1.236 . S
N925 Mn909 2.282 . S
N925 C926 1.328 . S
N925 C930 1.318 . S
C926 N925 1.328 . S
C926 C927 1.457 . S
C926 H931 0.929 . S
C927 C926 1.457 . S
C927 C928 1.291 . S
C927 H940 0.931 . S
C928 C927 1.291 . S
C928 C929 1.373 . S
C928 H941 0.929 . S
C929 C928 1.373 . S
C929 C930 1.396 . S
C929 C936 1.403 . S
C930 C920 1.476 . S
C930 N925 1.318 . S
C930 C929 1.396 . S
H931 C926 0.929 . S
O932 Mn908 2.385 . S
O932 C910 1.234 . S
O933 Mn908 2.209 . S
O933 Mn909 2.215 . S
O933 C910 1.283 . S
O934 Mn908 2.094 . S
O934 C912 1.240 . S
O935 Mn909 2.117 . S
O935 C912 1.264 . S
C936 C929 1.403 . S
C936 C937 1.399 . S
C936 H942 0.929 . S
C937 C917 1.449 . S
C937 C936 1.399 . S
C937 H943 0.930 . S
H938 C918 0.931 . S
H939 C919 0.930 . S
H940 C927 0.931 . S
H941 C928 0.929 . S
H942 C936 0.929 . S
H943 C937 0.930 . S
H944 C952 0.929 . S
H945 C954 0.930 . S
H946 C956 0.930 . S
H947 C959 0.929 . S
H948 C962 0.930 . S
H949 C964 0.960 . S
H950 C964 0.960 . S
H951 C964 0.960 . S
C952 H944 0.929 . S
C952 C953 1.377 . S
C952 C954 1.384 . S
C953 C952 1.377 . S
C953 C959 1.390 . S
C954 H945 0.930 . S
C954 C952 1.384 . S
C954 C955 1.372 . S
C955 C954 1.372 . S
C955 C956 1.400 . S
C955 C960 1.490 . S
C956 H946 0.930 . S
C956 C955 1.400 . S
C956 C959 1.386 . S
H957 C973 0.930 . S
H958 C974 0.931 . S
C959 H947 0.929 . S
C959 C953 1.390 . S
C959 C956 1.386 . S
C960 C955 1.490 . S
C960 C962 1.395 . S
C960 C963 1.403 . S
H961 C967 0.930 . S
C962 H948 0.930 . S
C962 C960 1.395 . S
C962 C965 1.403 . S
C963 C960 1.403 . S
C963 C964 1.524 . S
C963 C967 1.400 . S
C964 H949 0.960 . S
C964 H950 0.960 . S
C964 H951 0.960 . S
C964 C963 1.524 . S
C965 C962 1.403 . S
C965 C966 1.392 . S
C965 C969 1.495 . S
C966 C965 1.392 . S
C966 C967 1.385 . S
C966 C968 1.478 . S
C967 H961 0.930 . S
C967 C963 1.400 . S
C967 C966 1.385 . S
C968 C966 1.478 . S
C968 C970 1.381 . S
C968 C974 1.383 . S
C969 C965 1.495 . S
C969 H975 0.959 . S
C969 H976 0.961 . S
C969 H977 0.960 . S
C970 C968 1.381 . S
C970 C971 1.394 . S
C970 H978 0.930 . S
C971 C970 1.394 . S
C971 C972 1.383 . S
C971 H979 0.929 . S
C972 C971 1.383 . S
C972 C973 1.377 . S
C973 H957 0.930 . S
C973 C972 1.377 . S
C973 C974 1.379 . S
C974 H958 0.931 . S
C974 C968 1.383 . S
C974 C973 1.379 . S
H975 C969 0.959 . S
H976 C969 0.961 . S
H977 C969 0.960 . S
H978 C970 0.930 . S
H979 C971 0.929 . S
H980 C988 0.929 . S
H981 C990 0.930 . S
H982 C992 0.930 . S
H983 C995 0.929 . S
H984 C998 0.930 . S
H985 C1000 0.960 . S
H986 C1000 0.960 . S
H987 C1000 0.960 . S
C988 H980 0.929 . S
C988 C989 1.377 . S
C988 C990 1.384 . S
C989 C988 1.377 . S
C989 C995 1.390 . S
C990 H981 0.930 . S
C990 C988 1.384 . S
C990 C991 1.372 . S
C991 C990 1.372 . S
C991 C992 1.400 . S
C991 C996 1.490 . S
C992 H982 0.930 . S
C992 C991 1.400 . S
C992 C995 1.386 . S
H993 C1009 0.930 . S
H994 C1010 0.931 . S
C995 H983 0.929 . S
C995 C989 1.390 . S
C995 C992 1.386 . S
C996 C991 1.490 . S
C996 C998 1.395 . S
C996 C999 1.403 . S
H997 C1003 0.930 . S
C998 H984 0.930 . S
C998 C996 1.395 . S
C998 C1001 1.403 . S
C999 C996 1.403 . S
C999 C1000 1.524 . S
C999 C1003 1.400 . S
C1000 H985 0.960 . S
C1000 H986 0.960 . S
C1000 H987 0.960 . S
C1000 C999 1.524 . S
C1001 C998 1.403 . S
C1001 C1002 1.392 . S
C1001 C1005 1.495 . S
C1002 C1001 1.392 . S
C1002 C1003 1.385 . S
C1002 C1004 1.478 . S
C1003 H997 0.930 . S
C1003 C999 1.400 . S
C1003 C1002 1.385 . S
C1004 C1002 1.478 . S
C1004 C1006 1.381 . S
C1004 C1010 1.383 . S
C1005 C1001 1.495 . S
C1005 H1011 0.959 . S
C1005 H1012 0.961 . S
C1005 H1013 0.960 . S
C1006 C1004 1.381 . S
C1006 C1007 1.394 . S
C1006 H1014 0.930 . S
C1007 C1006 1.394 . S
C1007 C1008 1.383 . S
C1007 H1015 0.929 . S
C1008 C1007 1.383 . S
C1008 C1009 1.377 . S
C1009 H993 0.930 . S
C1009 C1008 1.377 . S
C1009 C1010 1.379 . S
C1010 H994 0.931 . S
C1010 C1004 1.383 . S
C1010 C1009 1.379 . S
H1011 C1005 0.959 . S
H1012 C1005 0.961 . S
H1013 C1005 0.960 . S
H1014 C1006 0.930 . S
H1015 C1007 0.929 . S
H1016 C1024 0.929 . S
H1017 C1026 0.930 . S
H1018 C1028 0.930 . S
H1019 C1031 0.929 . S
H1020 C1034 0.930 . S
H1021 C1036 0.960 . S
H1022 C1036 0.960 . S
H1023 C1036 0.960 . S
C1024 H1016 0.929 . S
C1024 C1025 1.377 . S
C1024 C1026 1.384 . S
C1025 C1024 1.377 . S
C1025 C1031 1.390 . S
C1026 H1017 0.930 . S
C1026 C1024 1.384 . S
C1026 C1027 1.372 . S
C1027 C1026 1.372 . S
C1027 C1028 1.400 . S
C1027 C1032 1.490 . S
C1028 H1018 0.930 . S
C1028 C1027 1.400 . S
C1028 C1031 1.386 . S
H1029 C1045 0.930 . S
H1030 C1046 0.931 . S
C1031 H1019 0.929 . S
C1031 C1025 1.390 . S
C1031 C1028 1.386 . S
C1032 C1027 1.490 . S
C1032 C1034 1.395 . S
C1032 C1035 1.403 . S
H1033 C1039 0.930 . S
C1034 H1020 0.930 . S
C1034 C1032 1.395 . S
C1034 C1037 1.403 . S
C1035 C1032 1.403 . S
C1035 C1036 1.524 . S
C1035 C1039 1.400 . S
C1036 H1021 0.960 . S
C1036 H1022 0.960 . S
C1036 H1023 0.960 . S
C1036 C1035 1.524 . S
C1037 C1034 1.403 . S
C1037 C1038 1.392 . S
C1037 C1041 1.495 . S
C1038 C1037 1.392 . S
C1038 C1039 1.385 . S
C1038 C1040 1.478 . S
C1039 H1033 0.930 . S
C1039 C1035 1.400 . S
C1039 C1038 1.385 . S
C1040 C1038 1.478 . S
C1040 C1042 1.381 . S
C1040 C1046 1.383 . S
C1041 C1037 1.495 . S
C1041 H1047 0.959 . S
C1041 H1048 0.961 . S
C1041 H1049 0.960 . S
C1042 C1040 1.381 . S
C1042 C1043 1.394 . S
C1042 H1050 0.930 . S
C1043 C1042 1.394 . S
C1043 C1044 1.383 . S
C1043 H1051 0.929 . S
C1044 C1043 1.383 . S
C1044 C1045 1.377 . S
C1045 H1029 0.930 . S
C1045 C1044 1.377 . S
C1045 C1046 1.379 . S
C1046 H1030 0.931 . S
C1046 C1040 1.383 . S
C1046 C1045 1.379 . S
H1047 C1041 0.959 . S
H1048 C1041 0.961 . S
H1049 C1041 0.960 . S
H1050 C1042 0.930 . S
H1051 C1043 0.929 . S
H1052 C1060 0.929 . S
H1053 C1062 0.930 . S
H1054 C1064 0.898 1_545 S
H1055 C1067 0.929 1_545 S
H1056 C1070 0.930 . S
H1057 C1072 0.960 . S
H1058 C1072 0.960 . S
H1059 C1072 0.960 . S
C1060 H1052 0.929 . S
C1060 C1061 1.377 . S
C1060 C1062 1.384 . S
C1061 C1060 1.377 . S
C1061 C1067 1.390 . S
C1062 H1053 0.930 . S
C1062 C1060 1.384 . S
C1062 C1063 1.372 . S
C1063 C1062 1.372 . S
C1063 C1064 1.426 . S
C1063 C1068 1.490 . S
C1064 H1054 0.898 1_565 S
C1064 C1063 1.426 . S
C1064 C1067 1.392 . S
H1065 C1081 0.930 . S
H1066 C1082 0.931 . S
C1067 H1055 0.929 1_565 S
C1067 C1061 1.390 . S
C1067 C1064 1.392 . S
C1068 C1063 1.490 . S
C1068 C1070 1.395 . S
C1068 C1071 1.403 1_565 S
H1069 C1075 0.930 . S
C1070 H1056 0.930 . S
C1070 C1068 1.395 . S
C1070 C1073 1.403 . S
C1071 C1068 1.403 1_545 S
C1071 C1072 1.524 . S
C1071 C1075 1.400 . S
C1072 H1057 0.960 . S
C1072 H1058 0.960 . S
C1072 H1059 0.960 . S
C1072 C1071 1.524 . S
C1073 C1070 1.403 . S
C1073 C1074 1.392 . S
C1073 C1077 1.495 . S
C1074 C1073 1.392 . S
C1074 C1075 1.385 1_565 S
C1074 C1076 1.478 . S
C1075 H1069 0.930 . S
C1075 C1071 1.400 . S
C1075 C1074 1.385 1_545 S
C1076 C1074 1.478 . S
C1076 C1078 1.381 . S
C1076 C1082 1.383 1_565 S
C1077 C1073 1.495 . S
C1077 H1083 0.959 . S
C1077 H1084 0.961 . S
C1077 H1085 0.960 . S
C1078 C1076 1.381 . S
C1078 C1079 1.394 . S
C1078 H1086 0.930 . S
C1079 C1078 1.394 . S
C1079 C1080 1.383 1_565 S
C1079 H1087 0.929 . S
C1080 C1079 1.383 1_545 S
C1080 C1081 1.377 . S
C1081 H1065 0.930 . S
C1081 C1080 1.377 . S
C1081 C1082 1.379 . S
C1082 H1066 0.931 . S
C1082 C1076 1.383 1_545 S
C1082 C1081 1.379 . S
H1083 C1077 0.959 . S
H1084 C1077 0.961 . S
H1085 C1077 0.960 . S
H1086 C1078 0.930 . S
H1087 C1079 0.929 . S
H1088 C1096 0.929 . S
H1089 C1098 0.930 . S
H1090 C1100 0.930 . S
H1091 C1103 0.929 . S
H1092 C1106 0.930 . S
H1093 C1108 0.960 . S
H1094 C1108 0.960 . S
H1095 C1108 0.960 . S
C1096 H1088 0.929 . S
C1096 C1097 1.377 . S
C1096 C1098 1.384 . S
C1097 C1096 1.377 . S
C1097 C1103 1.390 . S
C1098 H1089 0.930 . S
C1098 C1096 1.384 . S
C1098 C1099 1.372 . S
C1099 C1098 1.372 . S
C1099 C1100 1.400 . S
C1099 C1104 1.490 . S
C1100 H1090 0.930 . S
C1100 C1099 1.400 . S
C1100 C1103 1.386 . S
H1101 C1117 0.930 . S
H1102 C1118 0.931 . S
C1103 H1091 0.929 . S
C1103 C1097 1.390 . S
C1103 C1100 1.386 . S
C1104 C1099 1.490 . S
C1104 C1106 1.395 . S
C1104 C1107 1.403 . S
H1105 C1111 0.930 . S
C1106 H1092 0.930 . S
C1106 C1104 1.395 . S
C1106 C1109 1.403 . S
C1107 C1104 1.403 . S
C1107 C1108 1.524 . S
C1107 C1111 1.400 . S
C1108 H1093 0.960 . S
C1108 H1094 0.960 . S
C1108 H1095 0.960 . S
C1108 C1107 1.524 . S
C1109 C1106 1.403 . S
C1109 C1110 1.392 . S
C1109 C1113 1.495 . S
C1110 C1109 1.392 . S
C1110 C1111 1.385 . S
C1110 C1112 1.478 . S
C1111 H1105 0.930 . S
C1111 C1107 1.400 . S
C1111 C1110 1.385 . S
C1112 C1110 1.478 . S
C1112 C1114 1.381 . S
C1112 C1118 1.383 . S
C1113 C1109 1.495 . S
C1113 H1119 0.959 . S
C1113 H1120 0.961 . S
C1113 H1121 0.960 . S
C1114 C1112 1.381 . S
C1114 C1115 1.394 . S
C1114 H1122 0.930 . S
C1115 C1114 1.394 . S
C1115 C1116 1.383 . S
C1115 H1123 0.929 . S
C1116 C1115 1.383 . S
C1116 C1117 1.377 . S
C1117 H1101 0.930 . S
C1117 C1116 1.377 . S
C1117 C1118 1.379 . S
C1118 H1102 0.931 . S
C1118 C1112 1.383 . S
C1118 C1117 1.379 . S
H1119 C1113 0.959 . S
H1120 C1113 0.961 . S
H1121 C1113 0.960 . S
H1122 C1114 0.930 . S
H1123 C1115 0.929 . S
H1124 C1132 0.929 . S
H1125 C1134 0.930 . S
H1126 C1136 0.930 . S
H1127 C1139 0.929 . S
H1128 C1142 0.930 . S
H1129 C1144 0.960 . S
H1130 C1144 0.960 . S
H1131 C1144 0.960 . S
C1132 H1124 0.929 . S
C1132 C1133 1.377 . S
C1132 C1134 1.384 . S
C1133 C1132 1.377 . S
C1133 C1139 1.390 . S
C1134 H1125 0.930 . S
C1134 C1132 1.384 . S
C1134 C1135 1.372 . S
C1135 C1134 1.372 . S
C1135 C1136 1.400 . S
C1135 C1140 1.490 . S
C1136 H1126 0.930 . S
C1136 C1135 1.400 . S
C1136 C1139 1.386 . S
H1137 C1153 0.930 . S
H1138 C1154 0.931 . S
C1139 H1127 0.929 . S
C1139 C1133 1.390 . S
C1139 C1136 1.386 . S
C1140 C1135 1.490 . S
C1140 C1142 1.395 . S
C1140 C1143 1.403 . S
H1141 C1147 0.930 . S
C1142 H1128 0.930 . S
C1142 C1140 1.395 . S
C1142 C1145 1.403 . S
C1143 C1140 1.403 . S
C1143 C1144 1.524 . S
C1143 C1147 1.400 . S
C1144 H1129 0.960 . S
C1144 H1130 0.960 . S
C1144 H1131 0.960 . S
C1144 C1143 1.524 . S
C1145 C1142 1.403 . S
C1145 C1146 1.392 . S
C1145 C1149 1.495 . S
C1146 C1145 1.392 . S
C1146 C1147 1.385 . S
C1146 C1148 1.478 . S
C1147 H1141 0.930 . S
C1147 C1143 1.400 . S
C1147 C1146 1.385 . S
C1148 C1146 1.478 . S
C1148 C1150 1.381 . S
C1148 C1154 1.383 . S
C1149 C1145 1.495 . S
C1149 H1155 0.959 . S
C1149 H1156 0.961 . S
C1149 H1157 0.960 . S
C1150 C1148 1.381 . S
C1150 C1151 1.394 . S
C1150 H1158 0.930 . S
C1151 C1150 1.394 . S
C1151 C1152 1.383 . S
C1151 H1159 0.929 . S
C1152 C1151 1.383 . S
C1152 C1153 1.377 . S
C1153 H1137 0.930 . S
C1153 C1152 1.377 . S
C1153 C1154 1.379 . S
C1154 H1138 0.931 . S
C1154 C1148 1.383 . S
C1154 C1153 1.379 . S
H1155 C1149 0.959 . S
H1156 C1149 0.961 . S
H1157 C1149 0.960 . S
H1158 C1150 0.930 . S
H1159 C1151 0.929 . S
H1160 C1168 0.929 . S
H1161 C1170 0.930 . S
H1162 C1172 0.930 . S
H1163 C1175 0.929 . S
H1164 C1178 0.930 . S
H1165 C1180 0.960 . S
H1166 C1180 0.960 . S
H1167 C1180 0.960 . S
C1168 H1160 0.929 . S
C1168 C1169 1.377 . S
C1168 C1170 1.384 . S
C1169 C1168 1.377 . S
C1169 C1175 1.390 . S
C1170 H1161 0.930 . S
C1170 C1168 1.384 . S
C1170 C1171 1.372 . S
C1171 C1170 1.372 . S
C1171 C1172 1.400 . S
C1171 C1176 1.490 . S
C1172 H1162 0.930 . S
C1172 C1171 1.400 . S
C1172 C1175 1.386 . S
H1173 C1189 0.930 . S
H1174 C1190 0.931 . S
C1175 H1163 0.929 . S
C1175 C1169 1.390 . S
C1175 C1172 1.386 . S
C1176 C1171 1.490 . S
C1176 C1178 1.395 . S
C1176 C1179 1.403 . S
H1177 C1183 0.930 . S
C1178 H1164 0.930 . S
C1178 C1176 1.395 . S
C1178 C1181 1.403 . S
C1179 C1176 1.403 . S
C1179 C1180 1.524 . S
C1179 C1183 1.400 . S
C1180 H1165 0.960 . S
C1180 H1166 0.960 . S
C1180 H1167 0.960 . S
C1180 C1179 1.524 . S
C1181 C1178 1.403 . S
C1181 C1182 1.392 . S
C1181 C1185 1.495 . S
C1182 C1181 1.392 . S
C1182 C1183 1.385 . S
C1182 C1184 1.478 . S
C1183 H1177 0.930 . S
C1183 C1179 1.400 . S
C1183 C1182 1.385 . S
C1184 C1182 1.478 . S
C1184 C1186 1.381 . S
C1184 C1190 1.383 . S
C1185 C1181 1.495 . S
C1185 H1191 0.959 . S
C1185 H1192 0.961 . S
C1185 H1193 0.960 . S
C1186 C1184 1.381 . S
C1186 C1187 1.394 . S
C1186 H1194 0.930 . S
C1187 C1186 1.394 . S
C1187 C1188 1.383 . S
C1187 H1195 0.929 . S
C1188 C1187 1.383 . S
C1188 C1189 1.377 . S
C1189 H1173 0.930 . S
C1189 C1188 1.377 . S
C1189 C1190 1.379 . S
C1190 H1174 0.931 . S
C1190 C1184 1.383 . S
C1190 C1189 1.379 . S
H1191 C1185 0.959 . S
H1192 C1185 0.961 . S
H1193 C1185 0.960 . S
H1194 C1186 0.930 . S
H1195 C1187 0.929 . S
H1196 C1204 0.929 . S
H1197 C1206 0.930 . S
H1198 C1208 0.930 . S
H1199 C1211 0.929 . S
H1200 C1214 0.930 . S
H1201 C1216 0.960 . S
H1202 C1216 0.960 . S
H1203 C1216 0.960 . S
C1204 H1196 0.929 . S
C1204 C1205 1.377 . S
C1204 C1206 1.384 . S
C1205 C1204 1.377 . S
C1205 C1211 1.390 . S
C1206 H1197 0.930 . S
C1206 C1204 1.384 . S
C1206 C1207 1.372 . S
C1207 C1206 1.372 . S
C1207 C1208 1.400 . S
C1207 C1212 1.490 . S
C1208 H1198 0.930 . S
C1208 C1207 1.400 . S
C1208 C1211 1.386 . S
H1209 C1225 0.930 . S
H1210 C1226 0.931 . S
C1211 H1199 0.929 . S
C1211 C1205 1.390 . S
C1211 C1208 1.386 . S
C1212 C1207 1.490 . S
C1212 C1214 1.395 1_565 S
C1212 C1215 1.403 . S
H1213 C1219 0.930 . S
C1214 H1200 0.930 . S
C1214 C1212 1.395 1_545 S
C1214 C1217 1.403 . S
C1215 C1212 1.403 . S
C1215 C1216 1.524 . S
C1215 C1219 1.400 . S
C1216 H1201 0.960 . S
C1216 H1202 0.960 . S
C1216 H1203 0.960 . S
C1216 C1215 1.524 . S
C1217 C1214 1.403 . S
C1217 C1218 1.392 1_545 S
C1217 C1221 1.495 . S
C1218 C1217 1.392 1_565 S
C1218 C1219 1.385 . S
C1218 C1220 1.478 . S
C1219 H1213 0.930 . S
C1219 C1215 1.400 . S
C1219 C1218 1.385 . S
C1220 C1218 1.478 . S
C1220 C1222 1.381 1_565 S
C1220 C1226 1.383 . S
C1221 C1217 1.495 . S
C1221 H1227 0.959 . S
C1221 H1228 0.961 . S
C1221 H1229 0.960 . S
C1222 C1220 1.381 1_545 S
C1222 C1223 1.394 . S
C1222 H1230 0.930 . S
C1223 C1222 1.394 . S
C1223 C1224 1.383 1_545 S
C1223 H1231 0.929 . S
C1224 C1223 1.383 1_565 S
C1224 C1225 1.377 . S
C1225 H1209 0.930 . S
C1225 C1224 1.377 . S
C1225 C1226 1.379 . S
C1226 H1210 0.931 . S
C1226 C1220 1.383 . S
C1226 C1225 1.379 . S
H1227 C1221 0.959 . S
H1228 C1221 0.961 . S
H1229 C1221 0.960 . S
H1230 C1222 0.930 . S
H1231 C1223 0.929 . S
H1232 C1240 0.929 . S
H1233 C1242 0.930 . S
H1234 C1244 0.930 . S
H1235 C1247 0.929 . S
H1236 C1250 0.930 . S
H1237 C1252 0.960 . S
H1238 C1252 0.960 . S
H1239 C1252 0.960 . S
C1240 H1232 0.929 . S
C1240 C1241 1.377 . S
C1240 C1242 1.384 . S
C1241 C1240 1.377 . S
C1241 C1247 1.390 . S
C1242 H1233 0.930 . S
C1242 C1240 1.384 . S
C1242 C1243 1.372 . S
C1243 C1242 1.372 . S
C1243 C1244 1.400 . S
C1243 C1248 1.490 . S
C1244 H1234 0.930 . S
C1244 C1243 1.400 . S
C1244 C1247 1.386 . S
H1245 C1261 0.930 . S
H1246 C1262 0.931 . S
C1247 H1235 0.929 . S
C1247 C1241 1.390 . S
C1247 C1244 1.386 . S
C1248 C1243 1.490 . S
C1248 C1250 1.395 . S
C1248 C1251 1.403 . S
H1249 C1255 0.930 . S
C1250 H1236 0.930 . S
C1250 C1248 1.395 . S
C1250 C1253 1.403 . S
C1251 C1248 1.403 . S
C1251 C1252 1.524 . S
C1251 C1255 1.400 . S
C1252 H1237 0.960 . S
C1252 H1238 0.960 . S
C1252 H1239 0.960 . S
C1252 C1251 1.524 . S
C1253 C1250 1.403 . S
C1253 C1254 1.392 . S
C1253 C1257 1.495 . S
C1254 C1253 1.392 . S
C1254 C1255 1.385 . S
C1254 C1256 1.478 . S
C1255 H1249 0.930 . S
C1255 C1251 1.400 . S
C1255 C1254 1.385 . S
C1256 C1254 1.478 . S
C1256 C1258 1.381 . S
C1256 C1262 1.383 . S
C1257 C1253 1.495 . S
C1257 H1263 0.959 . S
C1257 H1264 0.961 . S
C1257 H1265 0.960 . S
C1258 C1256 1.381 . S
C1258 C1259 1.394 . S
C1258 H1266 0.930 . S
C1259 C1258 1.394 . S
C1259 C1260 1.383 . S
C1259 H1267 0.929 . S
C1260 C1259 1.383 . S
C1260 C1261 1.377 . S
C1261 H1245 0.930 . S
C1261 C1260 1.377 . S
C1261 C1262 1.379 . S
C1262 H1246 0.931 . S
C1262 C1256 1.383 . S
C1262 C1261 1.379 . S
H1263 C1257 0.959 . S
H1264 C1257 0.961 . S
H1265 C1257 0.960 . S
H1266 C1258 0.930 . S
H1267 C1259 0.929 . S
H1268 C1276 0.929 . S
H1269 C1278 0.930 . S
H1270 C1280 0.930 . S
H1271 C1283 0.929 . S
H1272 C1286 0.930 . S
H1273 C1288 0.960 . S
H1274 C1288 0.960 . S
H1275 C1288 0.960 . S
C1276 H1268 0.929 . S
C1276 C1277 1.377 . S
C1276 C1278 1.384 . S
C1277 C1276 1.377 . S
C1277 C1283 1.390 . S
C1278 H1269 0.930 . S
C1278 C1276 1.384 . S
C1278 C1279 1.372 . S
C1279 C1278 1.372 . S
C1279 C1280 1.400 . S
C1279 C1284 1.490 . S
C1280 H1270 0.930 . S
C1280 C1279 1.400 . S
C1280 C1283 1.386 . S
H1281 C1297 0.930 . S
H1282 C1298 0.931 . S
C1283 H1271 0.929 . S
C1283 C1277 1.390 . S
C1283 C1280 1.386 . S
C1284 C1279 1.490 . S
C1284 C1286 1.395 . S
C1284 C1287 1.403 . S
H1285 C1291 0.930 . S
C1286 H1272 0.930 . S
C1286 C1284 1.395 . S
C1286 C1289 1.403 . S
C1287 C1284 1.403 . S
C1287 C1288 1.524 . S
C1287 C1291 1.400 . S
C1288 H1273 0.960 . S
C1288 H1274 0.960 . S
C1288 H1275 0.960 . S
C1288 C1287 1.524 . S
C1289 C1286 1.403 . S
C1289 C1290 1.392 . S
C1289 C1293 1.495 . S
C1290 C1289 1.392 . S
C1290 C1291 1.385 . S
C1290 C1292 1.478 . S
C1291 H1285 0.930 . S
C1291 C1287 1.400 . S
C1291 C1290 1.385 . S
C1292 C1290 1.478 . S
C1292 C1294 1.381 . S
C1292 C1298 1.383 . S
C1293 C1289 1.495 . S
C1293 H1299 0.959 . S
C1293 H1300 0.961 . S
C1293 H1301 0.960 . S
C1294 C1292 1.381 . S
C1294 C1295 1.394 . S
C1294 H1302 0.930 . S
C1295 C1294 1.394 . S
C1295 C1296 1.383 . S
C1295 H1303 0.929 . S
C1296 C1295 1.383 . S
C1296 C1297 1.377 . S
C1297 H1281 0.930 . S
C1297 C1296 1.377 . S
C1297 C1298 1.379 . S
C1298 H1282 0.931 . S
C1298 C1292 1.383 . S
C1298 C1297 1.379 . S
H1299 C1293 0.959 . S
H1300 C1293 0.961 . S
H1301 C1293 0.960 . S
H1302 C1294 0.930 . S
H1303 C1295 0.929 . S
H1304 C1312 0.929 . S
H1305 C1314 0.930 . S
H1306 C1316 0.930 . S
H1307 C1319 0.929 . S
H1308 C1322 0.930 . S
H1309 C1324 0.960 . S
H1310 C1324 0.960 . S
H1311 C1324 0.960 . S
C1312 H1304 0.929 . S
C1312 C1313 1.377 . S
C1312 C1314 1.384 . S
C1313 C1312 1.377 . S
C1313 C1319 1.390 . S
C1314 H1305 0.930 . S
C1314 C1312 1.384 . S
C1314 C1315 1.372 . S
C1315 C1314 1.372 . S
C1315 C1316 1.400 . S
C1315 C1320 1.490 . S
C1316 H1306 0.930 . S
C1316 C1315 1.400 . S
C1316 C1319 1.386 . S
H1317 C1333 0.930 . S
H1318 C1334 0.931 . S
C1319 H1307 0.929 . S
C1319 C1313 1.390 . S
C1319 C1316 1.386 . S
C1320 C1315 1.490 . S
C1320 C1322 1.395 . S
C1320 C1323 1.403 . S
H1321 C1327 0.930 . S
C1322 H1308 0.930 . S
C1322 C1320 1.395 . S
C1322 C1325 1.403 . S
C1323 C1320 1.403 . S
C1323 C1324 1.524 . S
C1323 C1327 1.400 . S
C1324 H1309 0.960 . S
C1324 H1310 0.960 . S
C1324 H1311 0.960 . S
C1324 C1323 1.524 . S
C1325 C1322 1.403 . S
C1325 C1326 1.392 . S
C1325 C1329 1.495 . S
C1326 C1325 1.392 . S
C1326 C1327 1.385 . S
C1326 C1328 1.478 . S
C1327 H1321 0.930 . S
C1327 C1323 1.400 . S
C1327 C1326 1.385 . S
C1328 C1326 1.478 . S
C1328 C1330 1.381 . S
C1328 C1334 1.383 . S
C1329 C1325 1.495 . S
C1329 H1335 0.959 . S
C1329 H1336 0.961 . S
C1329 H1337 0.960 . S
C1330 C1328 1.381 . S
C1330 C1331 1.394 . S
C1330 H1338 0.930 . S
C1331 C1330 1.394 . S
C1331 C1332 1.383 . S
C1331 H1339 0.929 . S
C1332 C1331 1.383 . S
C1332 C1333 1.377 . S
C1333 H1317 0.930 . S
C1333 C1332 1.377 . S
C1333 C1334 1.379 . S
C1334 H1318 0.931 . S
C1334 C1328 1.383 . S
C1334 C1333 1.379 . S
H1335 C1329 0.959 . S
H1336 C1329 0.961 . S
H1337 C1329 0.960 . S
H1338 C1330 0.930 . S
H1339 C1331 0.929 . S
H1340 C1348 0.929 . S
H1341 C1350 0.930 . S
H1342 C1352 0.930 . S
H1343 C1355 0.929 . S
H1344 C1358 0.930 . S
H1345 C1360 0.960 . S
H1346 C1360 0.960 . S
H1347 C1360 0.960 . S
C1348 H1340 0.929 . S
C1348 C1349 1.377 . S
C1348 C1350 1.384 . S
C1349 C1348 1.377 . S
C1349 C1355 1.390 . S
C1350 H1341 0.930 . S
C1350 C1348 1.384 . S
C1350 C1351 1.372 . S
C1351 C1350 1.372 . S
C1351 C1352 1.400 . S
C1351 C1356 1.490 . S
C1352 H1342 0.930 . S
C1352 C1351 1.400 . S
C1352 C1355 1.386 . S
H1353 C1369 0.930 . S
H1354 C1370 0.931 . S
C1355 H1343 0.929 . S
C1355 C1349 1.390 . S
C1355 C1352 1.386 . S
C1356 C1351 1.490 . S
C1356 C1358 1.395 . S
C1356 C1359 1.403 . S
H1357 C1363 0.930 . S
C1358 H1344 0.930 . S
C1358 C1356 1.395 . S
C1358 C1361 1.403 . S
C1359 C1356 1.403 . S
C1359 C1360 1.524 . S
C1359 C1363 1.400 . S
C1360 H1345 0.960 . S
C1360 H1346 0.960 . S
C1360 H1347 0.960 . S
C1360 C1359 1.524 . S
C1361 C1358 1.403 . S
C1361 C1362 1.392 . S
C1361 C1365 1.495 . S
C1362 C1361 1.392 . S
C1362 C1363 1.385 . S
C1362 C1364 1.478 . S
C1363 H1357 0.930 . S
C1363 C1359 1.400 . S
C1363 C1362 1.385 . S
C1364 C1362 1.478 . S
C1364 C1366 1.381 . S
C1364 C1370 1.383 . S
C1365 C1361 1.495 . S
C1365 H1371 0.959 . S
C1365 H1372 0.961 . S
C1365 H1373 0.960 . S
C1366 C1364 1.381 . S
C1366 C1367 1.394 . S
C1366 H1374 0.930 . S
C1367 C1366 1.394 . S
C1367 C1368 1.383 . S
C1367 H1375 0.929 . S
C1368 C1367 1.383 . S
C1368 C1369 1.377 . S
C1369 H1353 0.930 . S
C1369 C1368 1.377 . S
C1369 C1370 1.379 . S
C1370 H1354 0.931 . S
C1370 C1364 1.383 . S
C1370 C1369 1.379 . S
H1371 C1365 0.959 . S
H1372 C1365 0.961 . S
H1373 C1365 0.960 . S
H1374 C1366 0.930 . S
H1375 C1367 0.929 . S
H1376 C1384 0.929 . S
H1377 C1386 0.930 . S
H1378 C1388 0.930 . S
H1379 C1391 0.929 . S
H1380 C1394 0.930 . S
H1381 C1396 0.960 . S
H1382 C1396 0.960 . S
H1383 C1396 0.960 . S
C1384 H1376 0.929 . S
C1384 C1385 1.377 . S
C1384 C1386 1.384 . S
C1385 C1384 1.377 . S
C1385 C1391 1.390 . S
C1386 H1377 0.930 . S
C1386 C1384 1.384 . S
C1386 C1387 1.372 . S
C1387 C1386 1.372 . S
C1387 C1388 1.400 . S
C1387 C1392 1.490 . S
C1388 H1378 0.930 . S
C1388 C1387 1.400 . S
C1388 C1391 1.386 . S
H1389 C1405 0.930 . S
H1390 C1406 0.931 . S
C1391 H1379 0.929 . S
C1391 C1385 1.390 . S
C1391 C1388 1.386 . S
C1392 C1387 1.490 . S
C1392 C1394 1.395 . S
C1392 C1395 1.403 . S
H1393 C1399 0.930 . S
C1394 H1380 0.930 . S
C1394 C1392 1.395 . S
C1394 C1397 1.403 . S
C1395 C1392 1.403 . S
C1395 C1396 1.524 . S
C1395 C1399 1.400 . S
C1396 H1381 0.960 . S
C1396 H1382 0.960 . S
C1396 H1383 0.960 . S
C1396 C1395 1.524 . S
C1397 C1394 1.403 . S
C1397 C1398 1.392 . S
C1397 C1401 1.495 . S
C1398 C1397 1.392 . S
C1398 C1399 1.385 . S
C1398 C1400 1.478 . S
C1399 H1393 0.930 . S
C1399 C1395 1.400 . S
C1399 C1398 1.385 . S
C1400 C1398 1.478 . S
C1400 C1402 1.381 . S
C1400 C1406 1.383 . S
C1401 C1397 1.495 . S
C1401 H1407 0.959 . S
C1401 H1408 0.961 . S
C1401 H1409 0.960 . S
C1402 C1400 1.381 . S
C1402 C1403 1.394 . S
C1402 H1410 0.930 . S
C1403 C1402 1.394 . S
C1403 C1404 1.383 . S
C1403 H1411 0.929 . S
C1404 C1403 1.383 . S
C1404 C1405 1.377 . S
C1405 H1389 0.930 . S
C1405 C1404 1.377 . S
C1405 C1406 1.379 . S
C1406 H1390 0.931 . S
C1406 C1400 1.383 . S
C1406 C1405 1.379 . S
H1407 C1401 0.959 . S
H1408 C1401 0.961 . S
H1409 C1401 0.960 . S
H1410 C1402 0.930 . S
H1411 C1403 0.929 . S
H1412 C1420 0.929 . S
H1413 C1422 0.930 . S
H1414 C1424 0.930 . S
H1415 C1427 0.929 . S
H1416 C1430 0.930 . S
H1417 C1432 0.960 . S
H1418 C1432 0.960 . S
H1419 C1432 0.960 . S
C1420 H1412 0.929 . S
C1420 C1421 1.377 . S
C1420 C1422 1.384 . S
C1421 C1420 1.377 . S
C1421 C1427 1.390 . S
C1422 H1413 0.930 . S
C1422 C1420 1.384 . S
C1422 C1423 1.372 . S
C1423 C1422 1.372 . S
C1423 C1424 1.400 . S
C1423 C1428 1.490 . S
C1424 H1414 0.930 . S
C1424 C1423 1.400 . S
C1424 C1427 1.386 . S
H1425 C1441 0.930 . S
H1426 C1442 0.931 . S
C1427 H1415 0.929 . S
C1427 C1421 1.390 . S
C1427 C1424 1.386 . S
C1428 C1423 1.490 . S
C1428 C1430 1.395 . S
C1428 C1431 1.403 . S
H1429 C1435 0.930 1_655 S
C1430 H1416 0.930 . S
C1430 C1428 1.395 . S
C1430 C1433 1.403 . S
C1431 C1428 1.403 . S
C1431 C1432 1.524 1_455 S
C1431 C1435 1.400 . S
C1432 H1417 0.960 . S
C1432 H1418 0.960 . S
C1432 H1419 0.960 . S
C1432 C1431 1.524 1_655 S
C1433 C1430 1.403 . S
C1433 C1434 1.392 . S
C1433 C1437 1.495 . S
C1434 C1433 1.392 . S
C1434 C1435 1.385 . S
C1434 C1436 1.478 . S
C1435 H1429 0.930 1_455 S
C1435 C1431 1.400 . S
C1435 C1434 1.385 . S
C1436 C1434 1.478 . S
C1436 C1438 1.381 . S
C1436 C1442 1.383 . S
C1437 C1433 1.495 . S
C1437 H1443 0.959 . S
C1437 H1444 0.961 . S
C1437 H1445 0.960 . S
C1438 C1436 1.381 . S
C1438 C1439 1.394 . S
C1438 H1446 0.930 . S
C1439 C1438 1.394 . S
C1439 C1440 1.383 . S
C1439 H1447 0.929 . S
C1440 C1439 1.383 . S
C1440 C1441 1.377 . S
C1441 H1425 0.930 . S
C1441 C1440 1.377 . S
C1441 C1442 1.379 . S
C1442 H1426 0.931 . S
C1442 C1436 1.383 . S
C1442 C1441 1.379 . S
H1443 C1437 0.959 . S
H1444 C1437 0.961 . S
H1445 C1437 0.960 . S
H1446 C1438 0.930 . S
H1447 C1439 0.929 . S
H1448 C1456 0.929 . S
H1449 C1458 0.930 . S
H1450 C1460 0.930 . S
H1451 C1463 0.929 . S
H1452 C1466 0.930 . S
H1453 C1468 0.960 . S
H1454 C1468 0.960 . S
H1455 C1468 0.960 . S
C1456 H1448 0.929 . S
C1456 C1457 1.377 . S
C1456 C1458 1.384 . S
C1457 C1456 1.377 . S
C1457 C1463 1.390 . S
C1458 H1449 0.930 . S
C1458 C1456 1.384 . S
C1458 C1459 1.372 . S
C1459 C1458 1.372 . S
C1459 C1460 1.400 . S
C1459 C1464 1.490 . S
C1460 H1450 0.930 . S
C1460 C1459 1.400 . S
C1460 C1463 1.386 . S
H1461 C1477 0.930 . S
H1462 C1478 0.931 . S
C1463 H1451 0.929 . S
C1463 C1457 1.390 . S
C1463 C1460 1.386 . S
C1464 C1459 1.490 . S
C1464 C1466 1.395 . S
C1464 C1467 1.403 . S
H1465 C1471 0.930 . S
C1466 H1452 0.930 . S
C1466 C1464 1.395 . S
C1466 C1469 1.403 . S
C1467 C1464 1.403 . S
C1467 C1468 1.524 . S
C1467 C1471 1.400 . S
C1468 H1453 0.960 . S
C1468 H1454 0.960 . S
C1468 H1455 0.960 . S
C1468 C1467 1.524 . S
C1469 C1466 1.403 . S
C1469 C1470 1.392 . S
C1469 C1473 1.495 . S
C1470 C1469 1.392 . S
C1470 C1471 1.385 . S
C1470 C1472 1.478 . S
C1471 H1465 0.930 . S
C1471 C1467 1.400 . S
C1471 C1470 1.385 . S
C1472 C1470 1.478 . S
C1472 C1474 1.381 . S
C1472 C1478 1.383 . S
C1473 C1469 1.495 . S
C1473 H1479 0.959 . S
C1473 H1480 0.961 . S
C1473 H1481 0.960 . S
C1474 C1472 1.381 . S
C1474 C1475 1.394 . S
C1474 H1482 0.930 . S
C1475 C1474 1.394 . S
C1475 C1476 1.383 . S
C1475 H1483 0.929 . S
C1476 C1475 1.383 . S
C1476 C1477 1.377 . S
C1477 H1461 0.930 . S
C1477 C1476 1.377 . S
C1477 C1478 1.379 . S
C1478 H1462 0.931 . S
C1478 C1472 1.383 . S
C1478 C1477 1.379 . S
H1479 C1473 0.959 . S
H1480 C1473 0.961 . S
H1481 C1473 0.960 . S
H1482 C1474 0.930 . S
H1483 C1475 0.929 . S
H1484 C1492 0.929 . S
H1485 C1494 0.930 . S
H1486 C1496 0.930 1_455 S
H1487 C1499 0.929 . S
H1488 C1502 0.930 . S
H1489 C1504 0.960 . S
H1490 C1504 0.960 . S
H1491 C1504 0.960 . S
C1492 H1484 0.929 . S
C1492 C1493 1.377 . S
C1492 C1494 1.384 . S
C1493 C1492 1.377 . S
C1493 C1499 1.390 . S
C1494 H1485 0.930 . S
C1494 C1492 1.384 . S
C1494 C1495 1.372 . S
C1495 C1494 1.372 . S
C1495 C1496 1.400 . S
C1495 C1500 1.490 . S
C1496 H1486 0.930 1_655 S
C1496 C1495 1.400 . S
C1496 C1499 1.386 . S
H1497 C1513 0.930 . S
H1498 C1514 0.931 . S
C1499 H1487 0.929 . S
C1499 C1493 1.390 . S
C1499 C1496 1.386 . S
C1500 C1495 1.490 . S
C1500 C1502 1.395 . S
C1500 C1503 1.403 1_655 S
H1501 C1507 0.930 . S
C1502 H1488 0.930 . S
C1502 C1500 1.395 . S
C1502 C1505 1.403 . S
C1503 C1500 1.403 1_455 S
C1503 C1504 1.524 . S
C1503 C1507 1.400 . S
C1504 H1489 0.960 . S
C1504 H1490 0.960 . S
C1504 H1491 0.960 . S
C1504 C1503 1.524 . S
C1505 C1502 1.403 . S
C1505 C1506 1.392 . S
C1505 C1509 1.495 . S
C1506 C1505 1.392 . S
C1506 C1507 1.385 1_655 S
C1506 C1508 1.478 . S
C1507 H1501 0.930 . S
C1507 C1503 1.400 . S
C1507 C1506 1.385 1_455 S
C1508 C1506 1.478 . S
C1508 C1510 1.381 . S
C1508 C1514 1.383 1_655 S
C1509 C1505 1.495 . S
C1509 H1515 0.959 . S
C1509 H1516 0.961 . S
C1509 H1517 0.960 . S
C1510 C1508 1.381 . S
C1510 C1511 1.394 . S
C1510 H1518 0.930 . S
C1511 C1510 1.394 . S
C1511 C1512 1.383 . S
C1511 H1519 0.929 . S
C1512 C1511 1.383 . S
C1512 C1513 1.377 1_655 S
C1513 H1497 0.930 . S
C1513 C1512 1.377 1_455 S
C1513 C1514 1.379 . S
C1514 H1498 0.931 . S
C1514 C1508 1.383 1_455 S
C1514 C1513 1.379 . S
H1515 C1509 0.959 . S
H1516 C1509 0.961 . S
H1517 C1509 0.960 . S
H1518 C1510 0.930 . S
H1519 C1511 0.929 . S
H1520 C1528 0.929 . S
H1521 C1530 0.930 . S
H1522 C1532 0.930 . S
H1523 C1535 0.929 . S
H1524 C1538 0.930 . S
H1525 C1540 0.960 . S
H1526 C1540 0.960 . S
H1527 C1540 0.960 . S
C1528 H1520 0.929 . S
C1528 C1529 1.377 . S
C1528 C1530 1.384 . S
C1529 C1528 1.377 . S
C1529 C1535 1.390 . S
C1530 H1521 0.930 . S
C1530 C1528 1.384 . S
C1530 C1531 1.372 . S
C1531 C1530 1.372 . S
C1531 C1532 1.400 . S
C1531 C1536 1.490 . S
C1532 H1522 0.930 . S
C1532 C1531 1.400 . S
C1532 C1535 1.386 . S
H1533 C1549 0.930 . S
H1534 C1550 0.931 . S
C1535 H1523 0.929 . S
C1535 C1529 1.390 . S
C1535 C1532 1.386 . S
C1536 C1531 1.490 . S
C1536 C1538 1.395 . S
C1536 C1539 1.403 . S
H1537 C1543 0.930 . S
C1538 H1524 0.930 . S
C1538 C1536 1.395 . S
C1538 C1541 1.403 . S
C1539 C1536 1.403 . S
C1539 C1540 1.524 . S
C1539 C1543 1.400 . S
C1540 H1525 0.960 . S
C1540 H1526 0.960 . S
C1540 H1527 0.960 . S
C1540 C1539 1.524 . S
C1541 C1538 1.403 . S
C1541 C1542 1.392 . S
C1541 C1545 1.495 . S
C1542 C1541 1.392 . S
C1542 C1543 1.385 . S
C1542 C1544 1.478 . S
C1543 H1537 0.930 . S
C1543 C1539 1.400 . S
C1543 C1542 1.385 . S
C1544 C1542 1.478 . S
C1544 C1546 1.381 . S
C1544 C1550 1.383 . S
C1545 C1541 1.495 . S
C1545 H1551 0.959 . S
C1545 H1552 0.961 . S
C1545 H1553 0.960 . S
C1546 C1544 1.381 . S
C1546 C1547 1.394 . S
C1546 H1554 0.930 . S
C1547 C1546 1.394 . S
C1547 C1548 1.383 . S
C1547 H1555 0.929 . S
C1548 C1547 1.383 . S
C1548 C1549 1.377 . S
C1549 H1533 0.930 . S
C1549 C1548 1.377 . S
C1549 C1550 1.379 . S
C1550 H1534 0.931 . S
C1550 C1544 1.383 . S
C1550 C1549 1.379 . S
H1551 C1545 0.959 . S
H1552 C1545 0.961 . S
H1553 C1545 0.960 . S
H1554 C1546 0.930 . S
H1555 C1547 0.929 . S
H1556 C1564 0.929 . S
H1557 C1566 0.930 . S
H1558 C1568 0.930 . S
H1559 C1571 0.929 . S
H1560 C1574 0.930 . S
H1561 C1576 0.960 . S
H1562 C1576 0.960 . S
H1563 C1576 0.960 . S
C1564 H1556 0.929 . S
C1564 C1565 1.377 . S
C1564 C1566 1.384 . S
C1565 C1564 1.377 . S
C1565 C1571 1.390 . S
C1566 H1557 0.930 . S
C1566 C1564 1.384 . S
C1566 C1567 1.372 . S
C1567 C1566 1.372 . S
C1567 C1568 1.400 . S
C1567 C1572 1.490 . S
C1568 H1558 0.930 . S
C1568 C1567 1.400 . S
C1568 C1571 1.386 . S
H1569 C1585 0.930 . S
H1570 C1586 0.931 . S
C1571 H1559 0.929 . S
C1571 C1565 1.390 . S
C1571 C1568 1.386 . S
C1572 C1567 1.490 . S
C1572 C1574 1.395 . S
C1572 C1575 1.403 . S
H1573 C1579 0.930 . S
C1574 H1560 0.930 . S
C1574 C1572 1.395 . S
C1574 C1577 1.403 . S
C1575 C1572 1.403 . S
C1575 C1576 1.524 . S
C1575 C1579 1.400 . S
C1576 H1561 0.960 . S
C1576 H1562 0.960 . S
C1576 H1563 0.960 . S
C1576 C1575 1.524 . S
C1577 C1574 1.403 . S
C1577 C1578 1.392 . S
C1577 C1581 1.495 . S
C1578 C1577 1.392 . S
C1578 C1579 1.385 . S
C1578 C1580 1.478 . S
C1579 H1573 0.930 . S
C1579 C1575 1.400 . S
C1579 C1578 1.385 . S
C1580 C1578 1.478 . S
C1580 C1582 1.381 . S
C1580 C1586 1.383 . S
C1581 C1577 1.495 . S
C1581 H1587 0.959 . S
C1581 H1588 0.961 . S
C1581 H1589 0.960 . S
C1582 C1580 1.381 . S
C1582 C1583 1.394 . S
C1582 H1590 0.930 . S
C1583 C1582 1.394 . S
C1583 C1584 1.383 . S
C1583 H1591 0.929 . S
C1584 C1583 1.383 . S
C1584 C1585 1.377 . S
C1585 H1569 0.930 . S
C1585 C1584 1.377 . S
C1585 C1586 1.379 . S
C1586 H1570 0.931 . S
C1586 C1580 1.383 . S
C1586 C1585 1.379 . S
H1587 C1581 0.959 . S
H1588 C1581 0.961 . S
H1589 C1581 0.960 . S
H1590 C1582 0.930 . S
H1591 C1583 0.929 . S
H1592 C1600 0.929 . S
H1593 C1602 0.930 . S
H1594 C1604 0.930 . S
H1595 C1607 0.929 1_545 S
H1596 C1610 0.932 1_554 S
H1597 C1612 0.960 . S
H1598 C1612 0.960 . S
H1599 C1612 0.960 . S
C1600 H1592 0.929 . S
C1600 C1601 1.377 . S
C1600 C1602 1.384 . S
C1601 C1600 1.377 . S
C1601 C1607 1.390 . S
C1602 H1593 0.930 . S
C1602 C1600 1.384 . S
C1602 C1603 1.372 . S
C1603 C1602 1.372 . S
C1603 C1604 1.400 . S
C1603 C1608 1.490 . S
C1604 H1594 0.930 . S
C1604 C1603 1.400 . S
C1604 C1607 1.386 . S
H1605 C1621 0.930 . S
H1606 C1622 0.931 . S
C1607 H1595 0.929 1_565 S
C1607 C1601 1.390 . S
C1607 C1604 1.386 . S
C1608 C1603 1.490 . S
C1608 C1610 1.391 . S
C1608 C1611 1.403 . S
H1609 C1615 0.930 . S
C1610 H1596 0.932 1_556 S
C1610 C1608 1.391 . S
C1610 C1613 1.405 1_556 S
C1611 C1608 1.403 . S
C1611 C1612 1.524 . S
C1611 C1615 1.400 . S
C1612 H1597 0.960 . S
C1612 H1598 0.960 . S
C1612 H1599 0.960 . S
C1612 C1611 1.524 . S
C1613 C1610 1.405 1_554 S
C1613 C1614 1.392 1_554 S
C1613 C1617 1.495 . S
C1614 C1613 1.392 1_556 S
C1614 C1615 1.385 . S
C1614 C1616 1.485 . S
C1615 H1609 0.930 . S
C1615 C1611 1.400 . S
C1615 C1614 1.385 . S
C1616 C1614 1.485 . S
C1616 C1618 1.397 . S
C1616 C1622 1.363 1_556 S
C1617 C1613 1.495 . S
C1617 H1623 0.959 . S
C1617 H1624 0.961 . S
C1617 H1625 0.960 . S
C1618 C1616 1.397 . S
C1618 C1619 1.394 . S
C1618 H1626 0.930 . S
C1619 C1618 1.394 . S
C1619 C1620 1.383 1_556 S
C1619 H1627 0.929 . S
C1620 C1619 1.383 1_554 S
C1620 C1621 1.377 . S
C1621 H1605 0.930 . S
C1621 C1620 1.377 . S
C1621 C1622 1.379 . S
C1622 H1606 0.931 . S
C1622 C1616 1.363 1_554 S
C1622 C1621 1.379 . S
H1623 C1617 0.959 . S
H1624 C1617 0.961 . S
H1625 C1617 0.960 . S
H1626 C1618 0.930 . S
H1627 C1619 0.929 . S
H1628 C1636 0.929 . S
H1629 C1638 0.930 . S
H1630 C1640 0.930 . S
H1631 C1643 0.929 . S
H1632 C1646 0.930 . S
H1633 C1648 0.960 . S
H1634 C1648 0.960 . S
H1635 C1648 0.960 . S
C1636 H1628 0.929 . S
C1636 C1637 1.377 . S
C1636 C1638 1.384 . S
C1637 C1636 1.377 . S
C1637 C1643 1.390 . S
C1638 H1629 0.930 . S
C1638 C1636 1.384 . S
C1638 C1639 1.372 . S
C1639 C1638 1.372 . S
C1639 C1640 1.400 . S
C1639 C1644 1.490 . S
C1640 H1630 0.930 . S
C1640 C1639 1.400 . S
C1640 C1643 1.386 . S
H1641 C1657 0.930 . S
H1642 C1658 0.931 . S
C1643 H1631 0.929 . S
C1643 C1637 1.390 . S
C1643 C1640 1.386 . S
C1644 C1639 1.490 . S
C1644 C1646 1.395 . S
C1644 C1647 1.403 . S
H1645 C1651 0.930 . S
C1646 H1632 0.930 . S
C1646 C1644 1.395 . S
C1646 C1649 1.403 . S
C1647 C1644 1.403 . S
C1647 C1648 1.524 . S
C1647 C1651 1.400 . S
C1648 H1633 0.960 . S
C1648 H1634 0.960 . S
C1648 H1635 0.960 . S
C1648 C1647 1.524 . S
C1649 C1646 1.403 . S
C1649 C1650 1.392 . S
C1649 C1653 1.495 . S
C1650 C1649 1.392 . S
C1650 C1651 1.385 . S
C1650 C1652 1.478 . S
C1651 H1645 0.930 . S
C1651 C1647 1.400 . S
C1651 C1650 1.385 . S
C1652 C1650 1.478 . S
C1652 C1654 1.381 . S
C1652 C1658 1.383 . S
C1653 C1649 1.495 . S
C1653 H1659 0.959 . S
C1653 H1660 0.961 . S
C1653 H1661 0.960 . S
C1654 C1652 1.381 . S
C1654 C1655 1.394 . S
C1654 H1662 0.930 . S
C1655 C1654 1.394 . S
C1655 C1656 1.383 . S
C1655 H1663 0.929 . S
C1656 C1655 1.383 . S
C1656 C1657 1.377 . S
C1657 H1641 0.930 . S
C1657 C1656 1.377 . S
C1657 C1658 1.379 . S
C1658 H1642 0.931 . S
C1658 C1652 1.383 . S
C1658 C1657 1.379 . S
H1659 C1653 0.959 . S
H1660 C1653 0.961 . S
H1661 C1653 0.960 . S
H1662 C1654 0.930 . S
H1663 C1655 0.929 . S
H1664 C1672 0.929 . S
H1665 C1674 0.930 . S
H1666 C1676 0.930 . S
H1667 C1679 0.966 . S
H1668 C1682 0.930 . S
H1669 C1684 0.960 . S
H1670 C1684 0.960 . S
H1671 C1684 0.960 . S
C1672 H1664 0.929 . S
C1672 C1673 1.377 . S
C1672 C1674 1.384 . S
C1673 C1672 1.377 . S
C1673 C1679 1.390 . S
C1674 H1665 0.930 . S
C1674 C1672 1.384 . S
C1674 C1675 1.372 . S
C1675 C1674 1.372 . S
C1675 C1676 1.400 . S
C1675 C1680 1.490 . S
C1676 H1666 0.930 . S
C1676 C1675 1.400 . S
C1676 C1679 1.386 . S
H1677 C1693 0.930 . S
H1678 C1694 0.931 . S
C1679 H1667 0.966 . S
C1679 C1673 1.390 . S
C1679 C1676 1.386 . S
C1680 C1675 1.490 . S
C1680 C1682 1.395 . S
C1680 C1683 1.403 . S
H1681 C1687 0.930 . S
C1682 H1668 0.930 . S
C1682 C1680 1.395 . S
C1682 C1685 1.403 . S
C1683 C1680 1.403 . S
C1683 C1684 1.524 . S
C1683 C1687 1.400 . S
C1684 H1669 0.960 . S
C1684 H1670 0.960 . S
C1684 H1671 0.960 . S
C1684 C1683 1.524 . S
C1685 C1682 1.403 . S
C1685 C1686 1.392 . S
C1685 C1689 1.495 . S
C1686 C1685 1.392 . S
C1686 C1687 1.385 . S
C1686 C1688 1.478 . S
C1687 H1681 0.930 . S
C1687 C1683 1.400 . S
C1687 C1686 1.385 . S
C1688 C1686 1.478 . S
C1688 C1690 1.381 . S
C1688 C1694 1.383 . S
C1689 C1685 1.495 . S
C1689 H1695 0.959 . S
C1689 H1696 0.961 . S
C1689 H1697 0.960 . S
C1690 C1688 1.381 . S
C1690 C1691 1.394 . S
C1690 H1698 0.930 . S
C1691 C1690 1.394 . S
C1691 C1692 1.383 . S
C1691 H1699 0.929 . S
C1692 C1691 1.383 . S
C1692 C1693 1.377 . S
C1693 H1677 0.930 . S
C1693 C1692 1.377 . S
C1693 C1694 1.379 . S
C1694 H1678 0.931 . S
C1694 C1688 1.383 . S
C1694 C1693 1.379 . S
H1695 C1689 0.959 . S
H1696 C1689 0.961 . S
H1697 C1689 0.960 . S
H1698 C1690 0.930 . S
H1699 C1691 0.929 . S
H1700 C1708 0.929 . S
H1701 C1710 0.930 . S
H1702 C1712 0.930 . S
H1703 C1715 0.929 . S
H1704 C1718 0.930 . S
H1705 C1720 0.960 . S
H1706 C1720 0.960 . S
H1707 C1720 0.960 . S
C1708 H1700 0.929 . S
C1708 C1709 1.377 . S
C1708 C1710 1.384 . S
C1709 C1708 1.377 . S
C1709 C1715 1.390 . S
C1710 H1701 0.930 . S
C1710 C1708 1.384 . S
C1710 C1711 1.372 . S
C1711 C1710 1.372 . S
C1711 C1712 1.400 . S
C1711 C1716 1.490 . S
C1712 H1702 0.930 . S
C1712 C1711 1.400 . S
C1712 C1715 1.386 . S
H1713 C1729 0.930 . S
H1714 C1730 0.931 . S
C1715 H1703 0.929 . S
C1715 C1709 1.390 . S
C1715 C1712 1.386 . S
C1716 C1711 1.490 . S
C1716 C1718 1.395 . S
C1716 C1719 1.403 . S
H1717 C1723 0.930 . S
C1718 H1704 0.930 . S
C1718 C1716 1.395 . S
C1718 C1721 1.403 . S
C1719 C1716 1.403 . S
C1719 C1720 1.524 . S
C1719 C1723 1.400 . S
C1720 H1705 0.960 . S
C1720 H1706 0.960 . S
C1720 H1707 0.960 . S
C1720 C1719 1.524 . S
C1721 C1718 1.403 . S
C1721 C1722 1.392 . S
C1721 C1725 1.495 . S
C1722 C1721 1.392 . S
C1722 C1723 1.385 . S
C1722 C1724 1.478 . S
C1723 H1717 0.930 . S
C1723 C1719 1.400 . S
C1723 C1722 1.385 . S
C1724 C1722 1.478 . S
C1724 C1726 1.381 . S
C1724 C1730 1.383 . S
C1725 C1721 1.495 . S
C1725 H1731 0.959 . S
C1725 H1732 0.961 . S
C1725 H1733 0.960 . S
C1726 C1724 1.381 . S
C1726 C1727 1.394 . S
C1726 H1734 0.930 . S
C1727 C1726 1.394 . S
C1727 C1728 1.383 . S
C1727 H1735 0.929 . S
C1728 C1727 1.383 . S
C1728 C1729 1.377 . S
C1729 H1713 0.930 . S
C1729 C1728 1.377 . S
C1729 C1730 1.379 . S
C1730 H1714 0.931 . S
C1730 C1724 1.383 . S
C1730 C1729 1.379 . S
H1731 C1725 0.959 . S
H1732 C1725 0.961 . S
H1733 C1725 0.960 . S
H1734 C1726 0.930 . S
H1735 C1727 0.929 . S
H1736 C1744 0.929 . S
H1737 C1746 0.930 . S
H1738 C1748 0.930 . S
H1739 C1751 0.929 . S
H1740 C1754 0.930 . S
H1741 C1756 0.960 . S
H1742 C1756 0.960 . S
H1743 C1756 0.960 . S
C1744 H1736 0.929 . S
C1744 C1745 1.377 . S
C1744 C1746 1.384 . S
C1745 C1744 1.377 . S
C1745 C1751 1.390 . S
C1746 H1737 0.930 . S
C1746 C1744 1.384 . S
C1746 C1747 1.372 . S
C1747 C1746 1.372 . S
C1747 C1748 1.400 . S
C1747 C1752 1.490 . S
C1748 H1738 0.930 . S
C1748 C1747 1.400 . S
C1748 C1751 1.386 . S
H1749 C1765 0.930 . S
H1750 C1766 0.931 . S
C1751 H1739 0.929 . S
C1751 C1745 1.390 . S
C1751 C1748 1.386 . S
C1752 C1747 1.490 . S
C1752 C1754 1.395 . S
C1752 C1755 1.403 . S
H1753 C1759 0.930 . S
C1754 H1740 0.930 . S
C1754 C1752 1.395 . S
C1754 C1757 1.403 . S
C1755 C1752 1.403 . S
C1755 C1756 1.524 . S
C1755 C1759 1.400 . S
C1756 H1741 0.960 . S
C1756 H1742 0.960 . S
C1756 H1743 0.960 . S
C1756 C1755 1.524 . S
C1757 C1754 1.403 . S
C1757 C1758 1.392 . S
C1757 C1761 1.495 . S
C1758 C1757 1.392 . S
C1758 C1759 1.385 . S
C1758 C1760 1.478 . S
C1759 H1753 0.930 . S
C1759 C1755 1.400 . S
C1759 C1758 1.385 . S
C1760 C1758 1.478 . S
C1760 C1762 1.381 . S
C1760 C1766 1.383 . S
C1761 C1757 1.495 . S
C1761 H1767 0.959 . S
C1761 H1768 0.961 . S
C1761 H1769 0.960 . S
C1762 C1760 1.381 . S
C1762 C1763 1.394 . S
C1762 H1770 0.930 . S
C1763 C1762 1.394 . S
C1763 C1764 1.383 . S
C1763 H1771 0.929 . S
C1764 C1763 1.383 . S
C1764 C1765 1.377 . S
C1765 H1749 0.930 . S
C1765 C1764 1.377 . S
C1765 C1766 1.379 . S
C1766 H1750 0.931 . S
C1766 C1760 1.383 . S
C1766 C1765 1.379 . S
H1767 C1761 0.959 . S
H1768 C1761 0.961 . S
H1769 C1761 0.960 . S
H1770 C1762 0.930 . S
H1771 C1763 0.929 . S
H1772 C1780 0.929 . S
H1773 C1782 0.930 . S
H1774 C1784 0.930 . S
H1775 C1787 0.929 . S
H1776 C1790 0.930 . S
H1777 C1792 0.960 . S
H1778 C1792 0.960 . S
H1779 C1792 0.960 . S
C1780 H1772 0.929 . S
C1780 C1781 1.377 . S
C1780 C1782 1.384 . S
C1781 C1780 1.377 . S
C1781 C1787 1.390 . S
C1782 H1773 0.930 . S
C1782 C1780 1.384 . S
C1782 C1783 1.372 . S
C1783 C1782 1.372 . S
C1783 C1784 1.400 . S
C1783 C1788 1.490 . S
C1784 H1774 0.930 . S
C1784 C1783 1.400 . S
C1784 C1787 1.386 . S
H1785 C1801 0.930 . S
H1786 C1802 0.931 . S
C1787 H1775 0.929 . S
C1787 C1781 1.390 . S
C1787 C1784 1.386 . S
C1788 C1783 1.490 . S
C1788 C1790 1.395 . S
C1788 C1791 1.403 . S
H1789 C1795 0.930 . S
C1790 H1776 0.930 . S
C1790 C1788 1.395 . S
C1790 C1793 1.403 . S
C1791 C1788 1.403 . S
C1791 C1792 1.524 . S
C1791 C1795 1.400 . S
C1792 H1777 0.960 . S
C1792 H1778 0.960 . S
C1792 H1779 0.960 . S
C1792 C1791 1.524 . S
C1793 C1790 1.403 . S
C1793 C1794 1.392 . S
C1793 C1797 1.495 . S
C1794 C1793 1.392 . S
C1794 C1795 1.385 . S
C1794 C1796 1.478 . S
C1795 H1789 0.930 . S
C1795 C1791 1.400 . S
C1795 C1794 1.385 . S
C1796 C1794 1.478 . S
C1796 C1798 1.381 . S
C1796 C1802 1.383 . S
C1797 C1793 1.495 . S
C1797 H1803 0.959 . S
C1797 H1804 0.961 . S
C1797 H1805 0.960 . S
C1798 C1796 1.381 . S
C1798 C1799 1.394 . S
C1798 H1806 0.930 . S
C1799 C1798 1.394 . S
C1799 C1800 1.383 . S
C1799 H1807 0.929 . S
C1800 C1799 1.383 . S
C1800 C1801 1.377 . S
C1801 H1785 0.930 . S
C1801 C1800 1.377 . S
C1801 C1802 1.379 . S
C1802 H1786 0.931 . S
C1802 C1796 1.383 . S
C1802 C1801 1.379 . S
H1803 C1797 0.959 . S
H1804 C1797 0.961 . S
H1805 C1797 0.960 . S
H1806 C1798 0.930 . S
H1807 C1799 0.929 . S
H1808 C1816 0.929 . S
H1809 C1818 0.930 . S
H1810 C1820 0.930 . S
H1811 C1823 0.929 . S
H1812 C1826 0.930 . S
H1813 C1828 0.960 . S
H1814 C1828 0.960 . S
H1815 C1828 0.960 . S
C1816 H1808 0.929 . S
C1816 C1817 1.377 . S
C1816 C1818 1.384 . S
C1817 C1816 1.377 . S
C1817 C1823 1.390 . S
C1818 H1809 0.930 . S
C1818 C1816 1.384 . S
C1818 C1819 1.372 . S
C1819 C1818 1.372 . S
C1819 C1820 1.400 . S
C1819 C1824 1.490 . S
C1820 H1810 0.930 . S
C1820 C1819 1.400 . S
C1820 C1823 1.386 . S
H1821 C1837 0.930 . S
H1822 C1838 0.931 . S
C1823 H1811 0.929 . S
C1823 C1817 1.390 . S
C1823 C1820 1.386 . S
C1824 C1819 1.490 . S
C1824 C1826 1.395 . S
C1824 C1827 1.403 . S
H1825 C1831 0.930 . S
C1826 H1812 0.930 . S
C1826 C1824 1.395 . S
C1826 C1829 1.403 . S
C1827 C1824 1.403 . S
C1827 C1828 1.524 . S
C1827 C1831 1.400 . S
C1828 H1813 0.960 . S
C1828 H1814 0.960 . S
C1828 H1815 0.960 . S
C1828 C1827 1.524 . S
C1829 C1826 1.403 . S
C1829 C1830 1.392 . S
C1829 C1833 1.495 . S
C1830 C1829 1.392 . S
C1830 C1831 1.385 . S
C1830 C1832 1.478 . S
C1831 H1825 0.930 . S
C1831 C1827 1.400 . S
C1831 C1830 1.385 . S
C1832 C1830 1.478 . S
C1832 C1834 1.381 . S
C1832 C1838 1.383 . S
C1833 C1829 1.495 . S
C1833 H1839 0.959 . S
C1833 H1840 0.961 . S
C1833 H1841 0.960 . S
C1834 C1832 1.381 . S
C1834 C1835 1.394 . S
C1834 H1842 0.930 . S
C1835 C1834 1.394 . S
C1835 C1836 1.383 . S
C1835 H1843 0.929 . S
C1836 C1835 1.383 . S
C1836 C1837 1.377 . S
C1837 H1821 0.930 . S
C1837 C1836 1.377 . S
C1837 C1838 1.379 . S
C1838 H1822 0.931 . S
C1838 C1832 1.383 . S
C1838 C1837 1.379 . S
H1839 C1833 0.959 . S
H1840 C1833 0.961 . S
H1841 C1833 0.960 . S
H1842 C1834 0.930 . S
H1843 C1835 0.929 . S
H1844 C1852 0.929 . S
H1845 C1854 0.930 . S
H1846 C1856 0.942 . S
H1847 C1859 0.929 . S
H1848 C1862 0.930 . S
H1849 C1864 0.960 . S
H1850 C1864 0.960 . S
H1851 C1864 0.960 . S
C1852 H1844 0.929 . S
C1852 C1853 1.377 . S
C1852 C1854 1.384 . S
C1853 C1852 1.377 . S
C1853 C1859 1.390 . S
C1854 H1845 0.930 . S
C1854 C1852 1.384 . S
C1854 C1855 1.372 . S
C1855 C1854 1.372 . S
C1855 C1856 1.400 . S
C1855 C1860 1.490 . S
C1856 H1846 0.942 . S
C1856 C1855 1.400 . S
C1856 C1859 1.386 . S
H1857 C1873 0.930 . S
H1858 C1874 0.931 . S
C1859 H1847 0.929 . S
C1859 C1853 1.390 . S
C1859 C1856 1.386 . S
C1860 C1855 1.490 . S
C1860 C1862 1.395 . S
C1860 C1863 1.403 . S
H1861 C1867 0.930 . S
C1862 H1848 0.930 . S
C1862 C1860 1.395 . S
C1862 C1865 1.403 . S
C1863 C1860 1.403 . S
C1863 C1864 1.524 . S
C1863 C1867 1.400 . S
C1864 H1849 0.960 . S
C1864 H1850 0.960 . S
C1864 H1851 0.960 . S
C1864 C1863 1.524 . S
C1865 C1862 1.403 . S
C1865 C1866 1.392 . S
C1865 C1869 1.495 . S
C1866 C1865 1.392 . S
C1866 C1867 1.385 . S
C1866 C1868 1.478 . S
C1867 H1861 0.930 . S
C1867 C1863 1.400 . S
C1867 C1866 1.385 . S
C1868 C1866 1.478 . S
C1868 C1870 1.381 . S
C1868 C1874 1.383 1_545 S
C1869 C1865 1.495 . S
C1869 H1875 0.959 . S
C1869 H1876 0.961 . S
C1869 H1877 0.960 . S
C1870 C1868 1.381 . S
C1870 C1871 1.394 . S
C1870 H1878 0.930 . S
C1871 C1870 1.394 . S
C1871 C1872 1.383 . S
C1871 H1879 0.929 . S
C1872 C1871 1.383 . S
C1872 C1873 1.377 1_545 S
C1873 H1857 0.930 . S
C1873 C1872 1.377 1_565 S
C1873 C1874 1.379 . S
C1874 H1858 0.931 . S
C1874 C1868 1.383 1_565 S
C1874 C1873 1.379 . S
H1875 C1869 0.959 . S
H1876 C1869 0.961 . S
H1877 C1869 0.960 . S
H1878 C1870 0.930 . S
H1879 C1871 0.929 . S
H1880 C1888 0.929 . S
H1881 C1890 0.930 . S
H1882 C1892 0.930 . S
H1883 C1895 0.929 . S
H1884 C1898 0.930 . S
H1885 C1900 0.960 . S
H1886 C1900 0.960 . S
H1887 C1900 0.960 . S
C1888 H1880 0.929 . S
C1888 C1889 1.377 . S
C1888 C1890 1.384 . S
C1889 C1888 1.377 . S
C1889 C1895 1.390 . S
C1890 H1881 0.930 . S
C1890 C1888 1.384 . S
C1890 C1891 1.372 . S
C1891 C1890 1.372 . S
C1891 C1892 1.400 . S
C1891 C1896 1.490 . S
C1892 H1882 0.930 . S
C1892 C1891 1.400 . S
C1892 C1895 1.386 . S
H1893 C1909 0.930 . S
H1894 C1910 0.931 . S
C1895 H1883 0.929 . S
C1895 C1889 1.390 . S
C1895 C1892 1.386 . S
C1896 C1891 1.490 . S
C1896 C1898 1.395 . S
C1896 C1899 1.403 . S
H1897 C1903 0.930 . S
C1898 H1884 0.930 . S
C1898 C1896 1.395 . S
C1898 C1901 1.403 . S
C1899 C1896 1.403 . S
C1899 C1900 1.524 . S
C1899 C1903 1.400 . S
C1900 H1885 0.960 . S
C1900 H1886 0.960 . S
C1900 H1887 0.960 . S
C1900 C1899 1.524 . S
C1901 C1898 1.403 . S
C1901 C1902 1.392 . S
C1901 C1905 1.495 . S
C1902 C1901 1.392 . S
C1902 C1903 1.385 . S
C1902 C1904 1.478 . S
C1903 H1897 0.930 . S
C1903 C1899 1.400 . S
C1903 C1902 1.385 . S
C1904 C1902 1.478 . S
C1904 C1906 1.381 . S
C1904 C1910 1.383 . S
C1905 C1901 1.495 . S
C1905 H1911 0.959 . S
C1905 H1912 0.961 . S
C1905 H1913 0.960 . S
C1906 C1904 1.381 . S
C1906 C1907 1.394 . S
C1906 H1914 0.930 . S
C1907 C1906 1.394 . S
C1907 C1908 1.383 . S
C1907 H1915 0.929 . S
C1908 C1907 1.383 . S
C1908 C1909 1.377 . S
C1909 H1893 0.930 . S
C1909 C1908 1.377 . S
C1909 C1910 1.379 . S
C1910 H1894 0.931 . S
C1910 C1904 1.383 . S
C1910 C1909 1.379 . S
H1911 C1905 0.959 . S
H1912 C1905 0.961 . S
H1913 C1905 0.960 . S
H1914 C1906 0.930 . S
H1915 C1907 0.929 . S
H1916 C1924 0.929 . S
H1917 C1926 0.930 . S
H1918 C1928 0.930 . S
H1919 C1931 0.929 . S
H1920 C1934 0.930 . S
H1921 C1936 0.960 . S
H1922 C1936 0.960 . S
H1923 C1936 0.960 . S
C1924 H1916 0.929 . S
C1924 C1925 1.377 . S
C1924 C1926 1.384 . S
C1925 C1924 1.377 . S
C1925 C1931 1.390 . S
C1926 H1917 0.930 . S
C1926 C1924 1.384 . S
C1926 C1927 1.372 . S
C1927 C1926 1.372 . S
C1927 C1928 1.400 . S
C1927 C1932 1.490 . S
C1928 H1918 0.930 . S
C1928 C1927 1.400 . S
C1928 C1931 1.386 . S
H1929 C1945 0.930 . S
H1930 C1946 0.931 . S
C1931 H1919 0.929 . S
C1931 C1925 1.390 . S
C1931 C1928 1.386 . S
C1932 C1927 1.490 . S
C1932 C1934 1.395 . S
C1932 C1935 1.403 . S
H1933 C1939 0.930 . S
C1934 H1920 0.930 . S
C1934 C1932 1.395 . S
C1934 C1937 1.403 . S
C1935 C1932 1.403 . S
C1935 C1936 1.524 . S
C1935 C1939 1.400 . S
C1936 H1921 0.960 . S
C1936 H1922 0.960 . S
C1936 H1923 0.960 . S
C1936 C1935 1.524 . S
C1937 C1934 1.403 . S
C1937 C1938 1.392 . S
C1937 C1941 1.495 . S
C1938 C1937 1.392 . S
C1938 C1939 1.385 . S
C1938 C1940 1.478 . S
C1939 H1933 0.930 . S
C1939 C1935 1.400 . S
C1939 C1938 1.385 . S
C1940 C1938 1.478 . S
C1940 C1942 1.381 . S
C1940 C1946 1.383 . S
C1941 C1937 1.495 . S
C1941 H1947 0.959 . S
C1941 H1948 0.961 . S
C1941 H1949 0.960 . S
C1942 C1940 1.381 . S
C1942 C1943 1.394 . S
C1942 H1950 0.930 . S
C1943 C1942 1.394 . S
C1943 C1944 1.383 . S
C1943 H1951 0.929 . S
C1944 C1943 1.383 . S
C1944 C1945 1.377 . S
C1945 H1929 0.930 . S
C1945 C1944 1.377 . S
C1945 C1946 1.379 . S
C1946 H1930 0.931 . S
C1946 C1940 1.383 . S
C1946 C1945 1.379 . S
H1947 C1941 0.959 . S
H1948 C1941 0.961 . S
H1949 C1941 0.960 . S
H1950 C1942 0.930 . S
H1951 C1943 0.929 . S
H1952 C1960 0.929 . S
H1953 C1962 0.930 . S
H1954 C1964 0.930 . S
H1955 C1967 0.929 . S
H1956 C1970 0.930 . S
H1957 C1972 0.960 . S
H1958 C1972 0.960 . S
H1959 C1972 0.960 . S
C1960 H1952 0.929 . S
C1960 C1961 1.377 . S
C1960 C1962 1.384 . S
C1961 C1960 1.377 . S
C1961 C1967 1.390 . S
C1962 H1953 0.930 . S
C1962 C1960 1.384 . S
C1962 C1963 1.372 . S
C1963 C1962 1.372 . S
C1963 C1964 1.400 . S
C1963 C1968 1.490 . S
C1964 H1954 0.930 . S
C1964 C1963 1.400 . S
C1964 C1967 1.386 . S
H1965 C1981 0.930 . S
H1966 C1982 0.931 . S
C1967 H1955 0.929 . S
C1967 C1961 1.390 . S
C1967 C1964 1.386 . S
C1968 C1963 1.490 . S
C1968 C1970 1.395 . S
C1968 C1971 1.403 . S
H1969 C1975 0.930 . S
C1970 H1956 0.930 . S
C1970 C1968 1.395 . S
C1970 C1973 1.403 . S
C1971 C1968 1.403 . S
C1971 C1972 1.524 . S
C1971 C1975 1.400 . S
C1972 H1957 0.960 . S
C1972 H1958 0.960 . S
C1972 H1959 0.960 . S
C1972 C1971 1.524 . S
C1973 C1970 1.403 . S
C1973 C1974 1.392 . S
C1973 C1977 1.495 . S
C1974 C1973 1.392 . S
C1974 C1975 1.385 . S
C1974 C1976 1.478 . S
C1975 H1969 0.930 . S
C1975 C1971 1.400 . S
C1975 C1974 1.385 . S
C1976 C1974 1.478 . S
C1976 C1978 1.381 . S
C1976 C1982 1.383 . S
C1977 C1973 1.495 . S
C1977 H1983 0.959 . S
C1977 H1984 0.961 . S
C1977 H1985 0.960 . S
C1978 C1976 1.381 . S
C1978 C1979 1.394 . S
C1978 H1986 0.930 . S
C1979 C1978 1.394 . S
C1979 C1980 1.383 . S
C1979 H1987 0.929 . S
C1980 C1979 1.383 . S
C1980 C1981 1.377 . S
C1981 H1965 0.930 . S
C1981 C1980 1.377 . S
C1981 C1982 1.379 . S
C1982 H1966 0.931 . S
C1982 C1976 1.383 . S
C1982 C1981 1.379 . S
H1983 C1977 0.959 . S
H1984 C1977 0.961 . S
H1985 C1977 0.960 . S
H1986 C1978 0.930 . S
H1987 C1979 0.929 . S
H1988 C1996 0.929 . S
H1989 C1998 0.930 . S
H1990 C2000 0.930 . S
H1991 C2003 0.929 1_455 S
H1992 C2006 0.930 . S
H1993 C2008 0.960 . S
H1994 C2008 0.960 . S
H1995 C2008 0.960 . S
C1996 H1988 0.929 . S
C1996 C1997 1.377 . S
C1996 C1998 1.384 . S
C1997 C1996 1.377 . S
C1997 C2003 1.390 . S
C1998 H1989 0.930 . S
C1998 C1996 1.384 . S
C1998 C1999 1.372 . S
C1999 C1998 1.372 . S
C1999 C2000 1.400 . S
C1999 C2004 1.490 . S
C2000 H1990 0.930 . S
C2000 C1999 1.400 . S
C2000 C2003 1.386 . S
H2001 C2017 0.930 1_565 S
H2002 C2018 0.904 1_565 S
C2003 H1991 0.929 1_655 S
C2003 C1997 1.390 . S
C2003 C2000 1.386 . S
C2004 C1999 1.490 . S
C2004 C2006 1.395 . S
C2004 C2007 1.403 . S
H2005 C2011 0.930 . S
C2006 H1992 0.930 . S
C2006 C2004 1.395 . S
C2006 C2009 1.403 . S
C2007 C2004 1.403 . S
C2007 C2008 1.524 . S
C2007 C2011 1.400 . S
C2008 H1993 0.960 . S
C2008 H1994 0.960 . S
C2008 H1995 0.960 . S
C2008 C2007 1.524 . S
C2009 C2006 1.403 . S
C2009 C2010 1.392 . S
C2009 C2013 1.495 1_545 S
C2010 C2009 1.392 . S
C2010 C2011 1.385 . S
C2010 C2012 1.478 . S
C2011 H2005 0.930 . S
C2011 C2007 1.400 . S
C2011 C2010 1.385 . S
C2012 C2010 1.478 . S
C2012 C2014 1.381 . S
C2012 C2018 1.383 . S
C2013 C2009 1.495 1_565 S
C2013 H2019 0.959 . S
C2013 H2020 0.961 . S
C2013 H2021 0.960 1_565 S
C2014 C2012 1.381 . S
C2014 C2015 1.394 . S
C2014 H2022 0.930 . S
C2015 C2014 1.394 . S
C2015 C2016 1.383 . S
C2015 H2023 0.929 . S
C2016 C2015 1.383 . S
C2016 C2017 1.377 . S
C2017 H2001 0.930 1_545 S
C2017 C2016 1.377 . S
C2017 C2018 1.379 . S
C2018 H2002 0.904 1_545 S
C2018 C2012 1.383 . S
C2018 C2017 1.379 . S
H2019 C2013 0.959 . S
H2020 C2013 0.961 . S
H2021 C2013 0.960 1_545 S
H2022 C2014 0.930 . S
H2023 C2015 0.929 . S
H2024 C2032 0.929 . S
H2025 C2034 0.930 . S
H2026 C2036 0.930 . S
H2027 C2039 0.929 . S
H2028 C2042 0.930 . S
H2029 C2044 0.960 . S
H2030 C2044 0.960 . S
H2031 C2044 0.960 . S
C2032 H2024 0.929 . S
C2032 C2033 1.377 . S
C2032 C2034 1.384 . S
C2033 C2032 1.377 . S
C2033 C2039 1.390 . S
C2034 H2025 0.930 . S
C2034 C2032 1.384 . S
C2034 C2035 1.372 . S
C2035 C2034 1.372 . S
C2035 C2036 1.400 . S
C2035 C2040 1.490 . S
C2036 H2026 0.930 . S
C2036 C2035 1.400 . S
C2036 C2039 1.386 . S
H2037 C2053 0.930 . S
H2038 C2054 0.931 . S
C2039 H2027 0.929 . S
C2039 C2033 1.390 . S
C2039 C2036 1.386 . S
C2040 C2035 1.490 . S
C2040 C2042 1.395 . S
C2040 C2043 1.403 . S
H2041 C2047 0.930 . S
C2042 H2028 0.930 . S
C2042 C2040 1.395 . S
C2042 C2045 1.403 . S
C2043 C2040 1.403 . S
C2043 C2044 1.524 . S
C2043 C2047 1.400 . S
C2044 H2029 0.960 . S
C2044 H2030 0.960 . S
C2044 H2031 0.960 . S
C2044 C2043 1.524 . S
C2045 C2042 1.403 . S
C2045 C2046 1.392 . S
C2045 C2049 1.495 . S
C2046 C2045 1.392 . S
C2046 C2047 1.385 . S
C2046 C2048 1.478 . S
C2047 H2041 0.930 . S
C2047 C2043 1.400 . S
C2047 C2046 1.385 . S
C2048 C2046 1.478 . S
C2048 C2050 1.381 . S
C2048 C2054 1.383 . S
C2049 C2045 1.495 . S
C2049 H2055 0.959 . S
C2049 H2056 0.961 . S
C2049 H2057 0.960 . S
C2050 C2048 1.381 . S
C2050 C2051 1.394 . S
C2050 H2058 0.930 . S
C2051 C2050 1.394 . S
C2051 C2052 1.383 . S
C2051 H2059 0.929 . S
C2052 C2051 1.383 . S
C2052 C2053 1.377 . S
C2053 H2037 0.930 . S
C2053 C2052 1.377 . S
C2053 C2054 1.379 . S
C2054 H2038 0.931 . S
C2054 C2048 1.383 . S
C2054 C2053 1.379 . S
H2055 C2049 0.959 . S
H2056 C2049 0.961 . S
H2057 C2049 0.960 . S
H2058 C2050 0.930 . S
H2059 C2051 0.929 . S
H2060 C2068 0.929 . S
H2061 C2070 0.930 . S
H2062 C2072 0.930 . S
H2063 C2075 0.875 1_655 S
H2064 C2078 0.930 . S
H2065 C2080 0.960 . S
H2066 C2080 0.960 . S
H2067 C2080 0.960 . S
C2068 H2060 0.929 . S
C2068 C2069 1.377 . S
C2068 C2070 1.384 . S
C2069 C2068 1.377 . S
C2069 C2075 1.390 . S
C2070 H2061 0.930 . S
C2070 C2068 1.384 . S
C2070 C2071 1.372 . S
C2071 C2070 1.372 . S
C2071 C2072 1.400 . S
C2071 C2076 1.490 . S
C2072 H2062 0.930 . S
C2072 C2071 1.400 . S
C2072 C2075 1.386 . S
H2073 C2089 0.930 . S
H2074 C2090 0.931 . S
C2075 H2063 0.875 1_455 S
C2075 C2069 1.390 . S
C2075 C2072 1.386 . S
C2076 C2071 1.490 . S
C2076 C2078 1.395 . S
C2076 C2079 1.403 . S
H2077 C2083 0.930 . S
C2078 H2064 0.930 . S
C2078 C2076 1.395 . S
C2078 C2081 1.403 . S
C2079 C2076 1.403 . S
C2079 C2080 1.524 . S
C2079 C2083 1.400 . S
C2080 H2065 0.960 . S
C2080 H2066 0.960 . S
C2080 H2067 0.960 . S
C2080 C2079 1.524 . S
C2081 C2078 1.403 . S
C2081 C2082 1.392 . S
C2081 C2085 1.495 . S
C2082 C2081 1.392 . S
C2082 C2083 1.385 . S
C2082 C2084 1.478 . S
C2083 H2077 0.930 . S
C2083 C2079 1.400 . S
C2083 C2082 1.385 . S
C2084 C2082 1.478 . S
C2084 C2086 1.381 . S
C2084 C2090 1.383 . S
C2085 C2081 1.495 . S
C2085 H2091 0.959 . S
C2085 H2092 0.961 . S
C2085 H2093 0.960 . S
C2086 C2084 1.381 . S
C2086 C2087 1.394 . S
C2086 H2094 0.930 . S
C2087 C2086 1.394 . S
C2087 C2088 1.383 . S
C2087 H2095 0.929 . S
C2088 C2087 1.383 . S
C2088 C2089 1.377 . S
C2089 H2073 0.930 . S
C2089 C2088 1.377 . S
C2089 C2090 1.379 . S
C2090 H2074 0.931 . S
C2090 C2084 1.383 . S
C2090 C2089 1.379 . S
H2091 C2085 0.959 . S
H2092 C2085 0.961 . S
H2093 C2085 0.960 . S
H2094 C2086 0.930 . S
H2095 C2087 0.929 . S
H2096 C2104 0.929 . S
H2097 C2106 0.930 . S
H2098 C2108 0.930 . S
H2099 C2111 0.929 . S
H2100 C2114 0.930 . S
H2101 C2116 0.960 . S
H2102 C2116 0.960 . S
H2103 C2116 0.960 . S
C2104 H2096 0.929 . S
C2104 C2105 1.377 . S
C2104 C2106 1.384 . S
C2105 C2104 1.377 . S
C2105 C2111 1.390 . S
C2106 H2097 0.930 . S
C2106 C2104 1.384 . S
C2106 C2107 1.372 . S
C2107 C2106 1.372 . S
C2107 C2108 1.400 . S
C2107 C2112 1.490 . S
C2108 H2098 0.930 . S
C2108 C2107 1.400 . S
C2108 C2111 1.386 . S
H2109 C2125 0.930 . S
H2110 C2126 0.931 . S
C2111 H2099 0.929 . S
C2111 C2105 1.390 . S
C2111 C2108 1.386 . S
C2112 C2107 1.490 . S
C2112 C2114 1.395 . S
C2112 C2115 1.403 . S
H2113 C2119 0.930 . S
C2114 H2100 0.930 . S
C2114 C2112 1.395 . S
C2114 C2117 1.403 . S
C2115 C2112 1.403 . S
C2115 C2116 1.524 . S
C2115 C2119 1.400 . S
C2116 H2101 0.960 . S
C2116 H2102 0.960 . S
C2116 H2103 0.960 . S
C2116 C2115 1.524 . S
C2117 C2114 1.403 . S
C2117 C2118 1.392 . S
C2117 C2121 1.495 . S
C2118 C2117 1.392 . S
C2118 C2119 1.385 . S
C2118 C2120 1.478 . S
C2119 H2113 0.930 . S
C2119 C2115 1.400 . S
C2119 C2118 1.385 . S
C2120 C2118 1.478 . S
C2120 C2122 1.381 . S
C2120 C2126 1.383 . S
C2121 C2117 1.495 . S
C2121 H2127 0.959 . S
C2121 H2128 0.961 . S
C2121 H2129 0.960 . S
C2122 C2120 1.381 . S
C2122 C2123 1.394 . S
C2122 H2130 0.930 . S
C2123 C2122 1.394 . S
C2123 C2124 1.383 . S
C2123 H2131 0.929 . S
C2124 C2123 1.383 . S
C2124 C2125 1.377 . S
C2125 H2109 0.930 . S
C2125 C2124 1.377 . S
C2125 C2126 1.379 . S
C2126 H2110 0.931 . S
C2126 C2120 1.383 . S
C2126 C2125 1.379 . S
H2127 C2121 0.959 . S
H2128 C2121 0.961 . S
H2129 C2121 0.960 . S
H2130 C2122 0.930 . S
H2131 C2123 0.929 . S
H2132 C2140 0.929 1_554 S
H2133 C2142 0.930 1_455 S
H2134 C2144 0.930 . S
H2135 C2147 0.929 . S
H2136 C2150 0.930 . S
H2137 C2152 0.960 . S
H2138 C2152 0.960 . S
H2139 C2152 0.960 1_655 S
C2140 H2132 0.929 1_556 S
C2140 C2141 1.377 . S
C2140 C2142 1.384 . S
C2141 C2140 1.377 . S
C2141 C2147 1.390 . S
C2142 H2133 0.930 1_655 S
C2142 C2140 1.384 . S
C2142 C2143 1.372 . S
C2143 C2142 1.372 . S
C2143 C2144 1.400 . S
C2143 C2148 1.490 . S
C2144 H2134 0.930 . S
C2144 C2143 1.400 . S
C2144 C2147 1.386 . S
H2145 C2161 0.930 . S
H2146 C2162 0.931 . S
C2147 H2135 0.929 . S
C2147 C2141 1.390 . S
C2147 C2144 1.386 . S
C2148 C2143 1.490 . S
C2148 C2150 1.395 . S
C2148 C2151 1.403 . S
H2149 C2155 0.930 1_455 S
C2150 H2136 0.930 . S
C2150 C2148 1.395 . S
C2150 C2153 1.403 . S
C2151 C2148 1.403 . S
C2151 C2152 1.524 1_655 S
C2151 C2155 1.400 . S
C2152 H2137 0.960 . S
C2152 H2138 0.960 . S
C2152 H2139 0.960 1_455 S
C2152 C2151 1.524 1_455 S
C2153 C2150 1.403 . S
C2153 C2154 1.392 . S
C2153 C2157 1.495 . S
C2154 C2153 1.392 . S
C2154 C2155 1.385 . S
C2154 C2156 1.478 . S
C2155 H2149 0.930 1_655 S
C2155 C2151 1.400 . S
C2155 C2154 1.385 . S
C2156 C2154 1.478 . S
C2156 C2158 1.381 1_655 S
C2156 C2162 1.383 . S
C2157 C2153 1.495 . S
C2157 H2163 0.959 . S
C2157 H2164 0.961 . S
C2157 H2165 0.960 . S
C2158 C2156 1.381 1_455 S
C2158 C2159 1.394 . S
C2158 H2166 0.930 . S
C2159 C2158 1.394 . S
C2159 C2160 1.383 . S
C2159 H2167 0.929 . S
C2160 C2159 1.383 . S
C2160 C2161 1.377 1_455 S
C2161 H2145 0.930 . S
C2161 C2160 1.377 1_655 S
C2161 C2162 1.379 . S
C2162 H2146 0.931 . S
C2162 C2156 1.383 . S
C2162 C2161 1.379 . S
H2163 C2157 0.959 . S
H2164 C2157 0.961 . S
H2165 C2157 0.960 . S
H2166 C2158 0.930 . S
H2167 C2159 0.929 . S
H2168 C2176 0.929 . S
H2169 C2178 0.930 . S
H2170 C2180 0.930 . S
H2171 C2183 0.929 . S
H2172 C2186 0.930 . S
H2173 C2188 0.960 . S
H2174 C2188 0.960 . S
H2175 C2188 0.960 . S
C2176 H2168 0.929 . S
C2176 C2177 1.377 . S
C2176 C2178 1.384 . S
C2177 C2176 1.377 . S
C2177 C2183 1.390 . S
C2178 H2169 0.930 . S
C2178 C2176 1.384 . S
C2178 C2179 1.372 . S
C2179 C2178 1.372 . S
C2179 C2180 1.400 . S
C2179 C2184 1.490 . S
C2180 H2170 0.930 . S
C2180 C2179 1.400 . S
C2180 C2183 1.386 . S
H2181 C2197 0.930 . S
H2182 C2198 0.931 . S
C2183 H2171 0.929 . S
C2183 C2177 1.390 . S
C2183 C2180 1.386 . S
C2184 C2179 1.490 . S
C2184 C2186 1.395 . S
C2184 C2187 1.403 . S
H2185 C2191 0.930 . S
C2186 H2172 0.930 . S
C2186 C2184 1.395 . S
C2186 C2189 1.403 . S
C2187 C2184 1.403 . S
C2187 C2188 1.524 . S
C2187 C2191 1.400 . S
C2188 H2173 0.960 . S
C2188 H2174 0.960 . S
C2188 H2175 0.960 . S
C2188 C2187 1.524 . S
C2189 C2186 1.403 . S
C2189 C2190 1.392 . S
C2189 C2193 1.495 . S
C2190 C2189 1.392 . S
C2190 C2191 1.385 . S
C2190 C2192 1.478 . S
C2191 H2185 0.930 . S
C2191 C2187 1.400 . S
C2191 C2190 1.385 . S
C2192 C2190 1.478 . S
C2192 C2194 1.381 . S
C2192 C2198 1.383 . S
C2193 C2189 1.495 . S
C2193 H2199 0.959 . S
C2193 H2200 0.961 . S
C2193 H2201 0.960 . S
C2194 C2192 1.381 . S
C2194 C2195 1.394 . S
C2194 H2202 0.930 . S
C2195 C2194 1.394 . S
C2195 C2196 1.383 . S
C2195 H2203 0.929 . S
C2196 C2195 1.383 . S
C2196 C2197 1.377 . S
C2197 H2181 0.930 . S
C2197 C2196 1.377 . S
C2197 C2198 1.379 . S
C2198 H2182 0.931 . S
C2198 C2192 1.383 . S
C2198 C2197 1.379 . S
H2199 C2193 0.959 . S
H2200 C2193 0.961 . S
H2201 C2193 0.960 . S
H2202 C2194 0.930 . S
H2203 C2195 0.929 . S
H2204 C2212 0.929 . S
H2205 C2214 0.930 . S
H2206 C2216 0.930 1_655 S
H2207 C2219 0.977 . S
H2208 C2222 0.930 . S
H2209 C2224 0.932 1_655 S
H2210 C2224 0.960 . S
H2211 C2224 0.960 1_655 S
C2212 H2204 0.929 . S
C2212 C2213 1.377 . S
C2212 C2214 1.384 . S
C2213 C2212 1.377 . S
C2213 C2219 1.390 . S
C2214 H2205 0.930 . S
C2214 C2212 1.384 . S
C2214 C2215 1.372 . S
C2215 C2214 1.372 . S
C2215 C2216 1.400 . S
C2215 C2220 1.490 . S
C2216 H2206 0.930 1_455 S
C2216 C2215 1.400 . S
C2216 C2219 1.386 . S
H2217 C2233 0.930 . S
H2218 C2234 0.931 1_655 S
C2219 H2207 0.977 . S
C2219 C2213 1.390 . S
C2219 C2216 1.386 . S
C2220 C2215 1.490 . S
C2220 C2222 1.395 . S
C2220 C2223 1.403 . S
H2221 C2227 0.930 . S
C2222 H2208 0.930 . S
C2222 C2220 1.395 . S
C2222 C2225 1.403 . S
C2223 C2220 1.403 . S
C2223 C2224 1.524 . S
C2223 C2227 1.400 . S
C2224 H2209 0.932 1_455 S
C2224 H2210 0.960 . S
C2224 H2211 0.960 1_455 S
C2224 C2223 1.524 . S
C2225 C2222 1.403 . S
C2225 C2226 1.392 . S
C2225 C2229 1.495 . S
C2226 C2225 1.392 . S
C2226 C2227 1.385 . S
C2226 C2228 1.478 . S
C2227 H2221 0.930 . S
C2227 C2223 1.400 . S
C2227 C2226 1.385 . S
C2228 C2226 1.478 . S
C2228 C2230 1.381 . S
C2228 C2234 1.383 . S
C2229 C2225 1.495 . S
C2229 H2235 0.959 . S
C2229 H2236 0.961 . S
C2229 H2237 0.960 . S
C2230 C2228 1.381 . S
C2230 C2231 1.394 . S
C2230 H2238 0.930 . S
C2231 C2230 1.394 . S
C2231 C2232 1.383 . S
C2231 H2239 0.929 . S
C2232 C2231 1.383 . S
C2232 C2233 1.377 1_455 S
C2233 H2217 0.930 . S
C2233 C2232 1.377 1_655 S
C2233 C2234 1.379 1_655 S
C2234 H2218 0.931 1_455 S
C2234 C2228 1.383 . S
C2234 C2233 1.379 1_455 S
H2235 C2229 0.959 . S
H2236 C2229 0.961 . S
H2237 C2229 0.960 . S
H2238 C2230 0.930 . S
H2239 C2231 0.929 . S
H2240 C2248 0.929 . S
H2241 C2250 0.930 . S
H2242 C2252 0.930 . S
H2243 C2255 0.929 . S
H2244 C2258 0.930 . S
H2245 C2260 0.960 . S
H2246 C2260 0.960 . S
H2247 C2260 0.960 . S
C2248 H2240 0.929 . S
C2248 C2249 1.377 . S
C2248 C2250 1.384 . S
C2249 C2248 1.377 . S
C2249 C2255 1.390 . S
C2250 H2241 0.930 . S
C2250 C2248 1.384 . S
C2250 C2251 1.372 . S
C2251 C2250 1.372 . S
C2251 C2252 1.400 . S
C2251 C2256 1.490 . S
C2252 H2242 0.930 . S
C2252 C2251 1.400 . S
C2252 C2255 1.386 . S
H2253 C2269 0.930 . S
H2254 C2270 0.931 . S
C2255 H2243 0.929 . S
C2255 C2249 1.390 . S
C2255 C2252 1.386 . S
C2256 C2251 1.490 . S
C2256 C2258 1.395 . S
C2256 C2259 1.403 . S
H2257 C2263 0.930 . S
C2258 H2244 0.930 . S
C2258 C2256 1.395 . S
C2258 C2261 1.403 . S
C2259 C2256 1.403 . S
C2259 C2260 1.524 . S
C2259 C2263 1.400 . S
C2260 H2245 0.960 . S
C2260 H2246 0.960 . S
C2260 H2247 0.960 . S
C2260 C2259 1.524 . S
C2261 C2258 1.403 . S
C2261 C2262 1.392 . S
C2261 C2265 1.495 . S
C2262 C2261 1.392 . S
C2262 C2263 1.385 . S
C2262 C2264 1.478 . S
C2263 H2257 0.930 . S
C2263 C2259 1.400 . S
C2263 C2262 1.385 . S
C2264 C2262 1.478 . S
C2264 C2266 1.381 . S
C2264 C2270 1.383 . S
C2265 C2261 1.495 . S
C2265 H2271 0.959 . S
C2265 H2272 0.961 . S
C2265 H2273 0.960 . S
C2266 C2264 1.381 . S
C2266 C2267 1.394 . S
C2266 H2274 0.930 . S
C2267 C2266 1.394 . S
C2267 C2268 1.383 . S
C2267 H2275 0.929 . S
C2268 C2267 1.383 . S
C2268 C2269 1.377 . S
C2269 H2253 0.930 . S
C2269 C2268 1.377 . S
C2269 C2270 1.379 . S
C2270 H2254 0.931 . S
C2270 C2264 1.383 . S
C2270 C2269 1.379 . S
H2271 C2265 0.959 . S
H2272 C2265 0.961 . S
H2273 C2265 0.960 . S
H2274 C2266 0.930 . S
H2275 C2267 0.929 . S
H2276 C2284 0.888 1_556 S
H2277 C2286 0.930 . S
H2278 C2288 0.930 . S
H2279 C2291 0.929 . S
H2280 C2294 0.930 . S
H2281 C2296 0.960 . S
H2282 C2296 0.960 . S
H2283 C2296 0.960 . S
C2284 H2276 0.888 1_554 S
C2284 C2285 1.377 . S
C2284 C2286 1.384 . S
C2285 C2284 1.377 . S
C2285 C2291 1.390 . S
C2286 H2277 0.930 . S
C2286 C2284 1.384 . S
C2286 C2287 1.372 . S
C2287 C2286 1.372 . S
C2287 C2288 1.400 . S
C2287 C2292 1.490 . S
C2288 H2278 0.930 . S
C2288 C2287 1.400 . S
C2288 C2291 1.386 . S
H2289 C2305 0.930 . S
H2290 C2306 0.931 . S
C2291 H2279 0.929 . S
C2291 C2285 1.390 . S
C2291 C2288 1.386 . S
C2292 C2287 1.490 . S
C2292 C2294 1.395 . S
C2292 C2295 1.403 . S
H2293 C2299 0.930 . S
C2294 H2280 0.930 . S
C2294 C2292 1.395 . S
C2294 C2297 1.403 . S
C2295 C2292 1.403 . S
C2295 C2296 1.524 . S
C2295 C2299 1.400 . S
C2296 H2281 0.960 . S
C2296 H2282 0.960 . S
C2296 H2283 0.960 . S
C2296 C2295 1.524 . S
C2297 C2294 1.403 . S
C2297 C2298 1.392 . S
C2297 C2301 1.495 . S
C2298 C2297 1.392 . S
C2298 C2299 1.385 . S
C2298 C2300 1.478 . S
C2299 H2293 0.930 . S
C2299 C2295 1.400 . S
C2299 C2298 1.385 . S
C2300 C2298 1.478 . S
C2300 C2302 1.381 . S
C2300 C2306 1.383 . S
C2301 C2297 1.495 . S
C2301 H2307 0.959 . S
C2301 H2308 0.961 . S
C2301 H2309 0.960 . S
C2302 C2300 1.381 . S
C2302 C2303 1.394 . S
C2302 H2310 0.930 . S
C2303 C2302 1.394 . S
C2303 C2304 1.383 . S
C2303 H2311 0.929 . S
C2304 C2303 1.383 . S
C2304 C2305 1.377 . S
C2305 H2289 0.930 . S
C2305 C2304 1.377 . S
C2305 C2306 1.379 . S
C2306 H2290 0.931 . S
C2306 C2300 1.383 . S
C2306 C2305 1.379 . S
H2307 C2301 0.959 . S
H2308 C2301 0.961 . S
H2309 C2301 0.960 . S
H2310 C2302 0.930 . S
H2311 C2303 0.929 . S
H2312 C2320 0.929 . S
H2313 C2322 0.930 . S
H2314 C2324 0.930 . S
H2315 C2327 0.929 . S
H2316 C2330 0.930 . S
H2317 C2332 0.960 . S
H2318 C2332 0.960 . S
H2319 C2332 0.960 . S
C2320 H2312 0.929 . S
C2320 C2321 1.377 . S
C2320 C2322 1.384 . S
C2321 C2320 1.377 . S
C2321 C2327 1.390 . S
C2322 H2313 0.930 . S
C2322 C2320 1.384 . S
C2322 C2323 1.372 . S
C2323 C2322 1.372 . S
C2323 C2324 1.400 . S
C2323 C2328 1.490 . S
C2324 H2314 0.930 . S
C2324 C2323 1.400 . S
C2324 C2327 1.386 . S
H2325 C2341 0.930 . S
H2326 C2342 0.931 . S
C2327 H2315 0.929 . S
C2327 C2321 1.390 . S
C2327 C2324 1.386 . S
C2328 C2323 1.490 . S
C2328 C2330 1.395 . S
C2328 C2331 1.403 . S
H2329 C2335 0.930 . S
C2330 H2316 0.930 . S
C2330 C2328 1.395 . S
C2330 C2333 1.403 . S
C2331 C2328 1.403 . S
C2331 C2332 1.524 . S
C2331 C2335 1.400 . S
C2332 H2317 0.960 . S
C2332 H2318 0.960 . S
C2332 H2319 0.960 . S
C2332 C2331 1.524 . S
C2333 C2330 1.403 . S
C2333 C2334 1.392 . S
C2333 C2337 1.495 . S
C2334 C2333 1.392 . S
C2334 C2335 1.385 . S
C2334 C2336 1.478 . S
C2335 H2329 0.930 . S
C2335 C2331 1.400 . S
C2335 C2334 1.385 . S
C2336 C2334 1.478 . S
C2336 C2338 1.381 . S
C2336 C2342 1.383 . S
C2337 C2333 1.495 . S
C2337 H2343 0.959 . S
C2337 H2344 0.961 . S
C2337 H2345 0.960 . S
C2338 C2336 1.381 . S
C2338 C2339 1.394 . S
C2338 H2346 0.930 . S
C2339 C2338 1.394 . S
C2339 C2340 1.383 . S
C2339 H2347 0.929 . S
C2340 C2339 1.383 . S
C2340 C2341 1.377 . S
C2341 H2325 0.930 . S
C2341 C2340 1.377 . S
C2341 C2342 1.379 . S
C2342 H2326 0.931 . S
C2342 C2336 1.383 . S
C2342 C2341 1.379 . S
H2343 C2337 0.959 . S
H2344 C2337 0.961 . S
H2345 C2337 0.960 . S
H2346 C2338 0.930 . S
H2347 C2339 0.929 . S
H2348 C2356 0.929 . S
H2349 C2358 0.930 . S
H2350 C2360 0.930 . S
H2351 C2363 0.929 . S
H2352 C2366 0.930 . S
H2353 C2368 0.960 . S
H2354 C2368 0.960 . S
H2355 C2368 0.960 . S
C2356 H2348 0.929 . S
C2356 C2357 1.377 . S
C2356 C2358 1.384 . S
C2357 C2356 1.377 . S
C2357 C2363 1.390 . S
C2358 H2349 0.930 . S
C2358 C2356 1.384 . S
C2358 C2359 1.372 . S
C2359 C2358 1.372 . S
C2359 C2360 1.400 . S
C2359 C2364 1.490 . S
C2360 H2350 0.930 . S
C2360 C2359 1.400 . S
C2360 C2363 1.386 . S
H2361 C2377 0.930 . S
H2362 C2378 0.931 . S
C2363 H2351 0.929 . S
C2363 C2357 1.390 . S
C2363 C2360 1.386 . S
C2364 C2359 1.490 . S
C2364 C2366 1.395 . S
C2364 C2367 1.403 . S
H2365 C2371 0.930 . S
C2366 H2352 0.930 . S
C2366 C2364 1.395 . S
C2366 C2369 1.403 . S
C2367 C2364 1.403 . S
C2367 C2368 1.524 . S
C2367 C2371 1.400 . S
C2368 H2353 0.960 . S
C2368 H2354 0.960 . S
C2368 H2355 0.960 . S
C2368 C2367 1.524 . S
C2369 C2366 1.403 . S
C2369 C2370 1.392 . S
C2369 C2373 1.495 . S
C2370 C2369 1.392 . S
C2370 C2371 1.385 . S
C2370 C2372 1.478 . S
C2371 H2365 0.930 . S
C2371 C2367 1.400 . S
C2371 C2370 1.385 . S
C2372 C2370 1.478 . S
C2372 C2374 1.381 . S
C2372 C2378 1.383 . S
C2373 C2369 1.495 . S
C2373 H2379 0.959 . S
C2373 H2380 0.961 . S
C2373 H2381 0.960 . S
C2374 C2372 1.381 . S
C2374 C2375 1.394 . S
C2374 H2382 0.930 . S
C2375 C2374 1.394 . S
C2375 C2376 1.383 . S
C2375 H2383 0.929 . S
C2376 C2375 1.383 . S
C2376 C2377 1.377 . S
C2377 H2361 0.930 . S
C2377 C2376 1.377 . S
C2377 C2378 1.379 . S
C2378 H2362 0.931 . S
C2378 C2372 1.383 . S
C2378 C2377 1.379 . S
H2379 C2373 0.959 . S
H2380 C2373 0.961 . S
H2381 C2373 0.960 . S
H2382 C2374 0.930 . S
H2383 C2375 0.929 . S
H2384 C2392 0.929 . S
H2385 C2394 0.930 . S
H2386 C2396 0.930 . S
H2387 C2399 0.929 . S
H2388 C2402 0.930 . S
H2389 C2404 0.960 . S
H2390 C2404 0.960 . S
H2391 C2404 0.960 . S
C2392 H2384 0.929 . S
C2392 C2393 1.377 . S
C2392 C2394 1.384 . S
C2393 C2392 1.377 . S
C2393 C2399 1.390 . S
C2394 H2385 0.930 . S
C2394 C2392 1.384 . S
C2394 C2395 1.372 . S
C2395 C2394 1.372 . S
C2395 C2396 1.400 . S
C2395 C2400 1.490 . S
C2396 H2386 0.930 . S
C2396 C2395 1.400 . S
C2396 C2399 1.386 . S
H2397 C2413 0.930 . S
H2398 C2414 0.931 . S
C2399 H2387 0.929 . S
C2399 C2393 1.390 . S
C2399 C2396 1.386 . S
C2400 C2395 1.490 . S
C2400 C2402 1.395 . S
C2400 C2403 1.403 . S
H2401 C2407 0.930 . S
C2402 H2388 0.930 . S
C2402 C2400 1.395 . S
C2402 C2405 1.403 . S
C2403 C2400 1.403 . S
C2403 C2404 1.524 . S
C2403 C2407 1.400 . S
C2404 H2389 0.960 . S
C2404 H2390 0.960 . S
C2404 H2391 0.960 . S
C2404 C2403 1.524 . S
C2405 C2402 1.403 . S
C2405 C2406 1.392 . S
C2405 C2409 1.495 . S
C2406 C2405 1.392 . S
C2406 C2407 1.385 . S
C2406 C2408 1.478 . S
C2407 H2401 0.930 . S
C2407 C2403 1.400 . S
C2407 C2406 1.385 . S
C2408 C2406 1.478 . S
C2408 C2410 1.381 . S
C2408 C2414 1.383 . S
C2409 C2405 1.495 . S
C2409 H2415 0.959 . S
C2409 H2416 0.961 . S
C2409 H2417 0.960 . S
C2410 C2408 1.381 . S
C2410 C2411 1.394 . S
C2410 H2418 0.930 . S
C2411 C2410 1.394 . S
C2411 C2412 1.383 . S
C2411 H2419 0.929 . S
C2412 C2411 1.383 . S
C2412 C2413 1.377 . S
C2413 H2397 0.930 . S
C2413 C2412 1.377 . S
C2413 C2414 1.379 . S
C2414 H2398 0.931 . S
C2414 C2408 1.383 . S
C2414 C2413 1.379 . S
H2415 C2409 0.959 . S
H2416 C2409 0.961 . S
H2417 C2409 0.960 . S
H2418 C2410 0.930 . S
H2419 C2411 0.929 . S
H2420 C2428 0.929 . S
H2421 C2430 0.930 . S
H2422 C2432 0.930 . S
H2423 C2435 0.929 . S
H2424 C2438 0.930 . S
H2425 C2440 0.960 . S
H2426 C2440 0.960 . S
H2427 C2440 0.960 . S
C2428 H2420 0.929 . S
C2428 C2429 1.377 . S
C2428 C2430 1.384 . S
C2429 C2428 1.377 . S
C2429 C2435 1.390 . S
C2430 H2421 0.930 . S
C2430 C2428 1.384 . S
C2430 C2431 1.372 . S
C2431 C2430 1.372 . S
C2431 C2432 1.400 . S
C2431 C2436 1.490 . S
C2432 H2422 0.930 . S
C2432 C2431 1.400 . S
C2432 C2435 1.386 . S
H2433 C2449 0.930 . S
H2434 C2450 0.931 . S
C2435 H2423 0.929 . S
C2435 C2429 1.390 . S
C2435 C2432 1.386 . S
C2436 C2431 1.490 . S
C2436 C2438 1.395 . S
C2436 C2439 1.403 . S
H2437 C2443 0.930 . S
C2438 H2424 0.930 . S
C2438 C2436 1.395 . S
C2438 C2441 1.403 . S
C2439 C2436 1.403 . S
C2439 C2440 1.524 . S
C2439 C2443 1.400 . S
C2440 H2425 0.960 . S
C2440 H2426 0.960 . S
C2440 H2427 0.960 . S
C2440 C2439 1.524 . S
C2441 C2438 1.403 . S
C2441 C2442 1.392 . S
C2441 C2445 1.495 . S
C2442 C2441 1.392 . S
C2442 C2443 1.385 . S
C2442 C2444 1.478 . S
C2443 H2437 0.930 . S
C2443 C2439 1.400 . S
C2443 C2442 1.385 . S
C2444 C2442 1.478 . S
C2444 C2446 1.381 . S
C2444 C2450 1.383 . S
C2445 C2441 1.495 . S
C2445 H2451 0.959 . S
C2445 H2452 0.961 . S
C2445 H2453 0.960 . S
C2446 C2444 1.381 . S
C2446 C2447 1.394 . S
C2446 H2454 0.930 . S
C2447 C2446 1.394 . S
C2447 C2448 1.383 . S
C2447 H2455 0.929 . S
C2448 C2447 1.383 . S
C2448 C2449 1.377 . S
C2449 H2433 0.930 . S
C2449 C2448 1.377 . S
C2449 C2450 1.379 . S
C2450 H2434 0.931 . S
C2450 C2444 1.383 . S
C2450 C2449 1.379 . S
H2451 C2445 0.959 . S
H2452 C2445 0.961 . S
H2453 C2445 0.960 . S
H2454 C2446 0.930 . S
H2455 C2447 0.929 . S
H2456 C2464 0.929 . S
H2457 C2466 0.930 . S
H2458 C2468 0.930 . S
H2459 C2471 0.929 . S
H2460 C2474 0.930 . S
H2461 C2476 0.960 . S
H2462 C2476 0.960 . S
H2463 C2476 0.960 . S
C2464 H2456 0.929 . S
C2464 C2465 1.377 . S
C2464 C2466 1.384 . S
C2465 C2464 1.377 . S
C2465 C2471 1.390 . S
C2466 H2457 0.930 . S
C2466 C2464 1.384 . S
C2466 C2467 1.372 . S
C2467 C2466 1.372 . S
C2467 C2468 1.400 . S
C2467 C2472 1.490 . S
C2468 H2458 0.930 . S
C2468 C2467 1.400 . S
C2468 C2471 1.386 . S
H2469 C2485 0.930 . S
H2470 C2486 0.931 . S
C2471 H2459 0.929 . S
C2471 C2465 1.390 . S
C2471 C2468 1.386 . S
C2472 C2467 1.490 . S
C2472 C2474 1.395 . S
C2472 C2475 1.403 . S
H2473 C2479 0.930 . S
C2474 H2460 0.930 . S
C2474 C2472 1.395 . S
C2474 C2477 1.403 . S
C2475 C2472 1.403 . S
C2475 C2476 1.524 . S
C2475 C2479 1.400 . S
C2476 H2461 0.960 . S
C2476 H2462 0.960 . S
C2476 H2463 0.960 . S
C2476 C2475 1.524 . S
C2477 C2474 1.403 . S
C2477 C2478 1.392 . S
C2477 C2481 1.495 . S
C2478 C2477 1.392 . S
C2478 C2479 1.385 . S
C2478 C2480 1.478 . S
C2479 H2473 0.930 . S
C2479 C2475 1.400 . S
C2479 C2478 1.385 . S
C2480 C2478 1.478 . S
C2480 C2482 1.381 . S
C2480 C2486 1.383 . S
C2481 C2477 1.495 . S
C2481 H2487 0.959 . S
C2481 H2488 0.961 . S
C2481 H2489 0.960 . S
C2482 C2480 1.381 . S
C2482 C2483 1.394 . S
C2482 H2490 0.930 . S
C2483 C2482 1.394 . S
C2483 C2484 1.383 . S
C2483 H2491 0.929 . S
C2484 C2483 1.383 . S
C2484 C2485 1.377 . S
C2485 H2469 0.930 . S
C2485 C2484 1.377 . S
C2485 C2486 1.379 . S
C2486 H2470 0.931 . S
C2486 C2480 1.383 . S
C2486 C2485 1.379 . S
H2487 C2481 0.959 . S
H2488 C2481 0.961 . S
H2489 C2481 0.960 . S
H2490 C2482 0.930 . S
H2491 C2483 0.929 . S
H2492 C2500 0.929 . S
H2493 C2502 0.930 . S
H2494 C2504 0.930 . S
H2495 C2507 0.929 . S
H2496 C2510 0.930 . S
H2497 C2512 0.960 . S
H2498 C2512 0.960 . S
H2499 C2512 0.960 . S
C2500 H2492 0.929 . S
C2500 C2501 1.377 . S
C2500 C2502 1.384 . S
C2501 C2500 1.377 . S
C2501 C2507 1.390 . S
C2502 H2493 0.930 . S
C2502 C2500 1.384 . S
C2502 C2503 1.372 . S
C2503 C2502 1.372 . S
C2503 C2504 1.400 . S
C2503 C2508 1.490 . S
C2504 H2494 0.930 . S
C2504 C2503 1.400 . S
C2504 C2507 1.386 . S
H2505 C2521 0.930 . S
H2506 C2522 0.931 . S
C2507 H2495 0.929 . S
C2507 C2501 1.390 . S
C2507 C2504 1.386 . S
C2508 C2503 1.490 . S
C2508 C2510 1.395 . S
C2508 C2511 1.403 . S
H2509 C2515 0.930 . S
C2510 H2496 0.930 . S
C2510 C2508 1.395 . S
C2510 C2513 1.403 . S
C2511 C2508 1.403 . S
C2511 C2512 1.524 . S
C2511 C2515 1.400 . S
C2512 H2497 0.960 . S
C2512 H2498 0.960 . S
C2512 H2499 0.960 . S
C2512 C2511 1.524 . S
C2513 C2510 1.403 . S
C2513 C2514 1.392 . S
C2513 C2517 1.495 . S
C2514 C2513 1.392 . S
C2514 C2515 1.385 . S
C2514 C2516 1.478 . S
C2515 H2509 0.930 . S
C2515 C2511 1.400 . S
C2515 C2514 1.385 . S
C2516 C2514 1.478 . S
C2516 C2518 1.381 . S
C2516 C2522 1.383 . S
C2517 C2513 1.495 . S
C2517 H2523 0.959 . S
C2517 H2524 0.961 . S
C2517 H2525 0.960 . S
C2518 C2516 1.381 . S
C2518 C2519 1.394 . S
C2518 H2526 0.930 . S
C2519 C2518 1.394 . S
C2519 C2520 1.383 . S
C2519 H2527 0.929 . S
C2520 C2519 1.383 . S
C2520 C2521 1.377 . S
C2521 H2505 0.930 . S
C2521 C2520 1.377 . S
C2521 C2522 1.379 . S
C2522 H2506 0.931 . S
C2522 C2516 1.383 . S
C2522 C2521 1.379 . S
H2523 C2517 0.959 . S
H2524 C2517 0.961 . S
H2525 C2517 0.960 . S
H2526 C2518 0.930 . S
H2527 C2519 0.929 . S
H2528 C2536 0.963 . S
H2529 C2538 0.930 1_554 S
H2530 C2540 0.930 . S
H2531 C2543 0.929 . S
H2532 C2546 0.930 . S
H2533 C2548 0.960 . S
H2534 C2548 1.004 . S
H2535 C2548 0.960 . S
C2536 H2528 0.963 . S
C2536 C2537 1.377 . S
C2536 C2538 1.384 . S
C2537 C2536 1.377 . S
C2537 C2543 1.390 . S
C2538 H2529 0.930 1_556 S
C2538 C2536 1.384 . S
C2538 C2539 1.372 . S
C2539 C2538 1.372 . S
C2539 C2540 1.400 . S
C2539 C2544 1.490 . S
C2540 H2530 0.930 . S
C2540 C2539 1.400 . S
C2540 C2543 1.386 . S
H2541 C2557 0.930 . S
H2542 C2558 0.931 . S
C2543 H2531 0.929 . S
C2543 C2537 1.390 . S
C2543 C2540 1.386 . S
C2544 C2539 1.490 . S
C2544 C2546 1.395 . S
C2544 C2547 1.403 . S
H2545 C2551 0.930 . S
C2546 H2532 0.930 . S
C2546 C2544 1.395 . S
C2546 C2549 1.403 . S
C2547 C2544 1.403 . S
C2547 C2548 1.524 . S
C2547 C2551 1.400 . S
C2548 H2533 0.960 . S
C2548 H2534 1.004 . S
C2548 H2535 0.960 . S
C2548 C2547 1.524 . S
C2549 C2546 1.403 . S
C2549 C2550 1.392 . S
C2549 C2553 1.495 . S
C2550 C2549 1.392 . S
C2550 C2551 1.385 . S
C2550 C2552 1.478 . S
C2551 H2545 0.930 . S
C2551 C2547 1.400 . S
C2551 C2550 1.385 . S
C2552 C2550 1.478 . S
C2552 C2554 1.381 1_556 S
C2552 C2558 1.383 . S
C2553 C2549 1.495 . S
C2553 H2559 0.959 . S
C2553 H2560 0.961 . S
C2553 H2561 0.960 . S
C2554 C2552 1.381 1_554 S
C2554 C2555 1.394 . S
C2554 H2562 0.930 . S
C2555 C2554 1.394 . S
C2555 C2556 1.383 1_554 S
C2555 H2563 0.929 . S
C2556 C2555 1.383 1_556 S
C2556 C2557 1.377 . S
C2557 H2541 0.930 . S
C2557 C2556 1.377 . S
C2557 C2558 1.379 . S
C2558 H2542 0.931 . S
C2558 C2552 1.383 . S
C2558 C2557 1.379 . S
H2559 C2553 0.959 . S
H2560 C2553 0.961 . S
H2561 C2553 0.960 . S
H2562 C2554 0.930 . S
H2563 C2555 0.929 . S
H2564 C2572 0.929 . S
H2565 C2574 0.930 . S
H2566 C2576 0.930 . S
H2567 C2579 0.929 . S
H2568 C2582 0.930 . S
H2569 C2584 0.960 . S
H2570 C2584 0.960 . S
H2571 C2584 0.960 . S
C2572 H2564 0.929 . S
C2572 C2573 1.377 . S
C2572 C2574 1.384 . S
C2573 C2572 1.377 . S
C2573 C2579 1.390 . S
C2574 H2565 0.930 . S
C2574 C2572 1.384 . S
C2574 C2575 1.372 . S
C2575 C2574 1.372 . S
C2575 C2576 1.400 . S
C2575 C2580 1.490 . S
C2576 H2566 0.930 . S
C2576 C2575 1.400 . S
C2576 C2579 1.386 . S
H2577 C2593 0.930 . S
H2578 C2594 0.931 . S
C2579 H2567 0.929 . S
C2579 C2573 1.390 . S
C2579 C2576 1.386 . S
C2580 C2575 1.490 . S
C2580 C2582 1.395 . S
C2580 C2583 1.403 . S
H2581 C2587 0.930 . S
C2582 H2568 0.930 . S
C2582 C2580 1.395 . S
C2582 C2585 1.403 . S
C2583 C2580 1.403 . S
C2583 C2584 1.524 . S
C2583 C2587 1.400 . S
C2584 H2569 0.960 . S
C2584 H2570 0.960 . S
C2584 H2571 0.960 . S
C2584 C2583 1.524 . S
C2585 C2582 1.403 . S
C2585 C2586 1.392 . S
C2585 C2589 1.495 . S
C2586 C2585 1.392 . S
C2586 C2587 1.385 . S
C2586 C2588 1.478 . S
C2587 H2581 0.930 . S
C2587 C2583 1.400 . S
C2587 C2586 1.385 . S
C2588 C2586 1.478 . S
C2588 C2590 1.381 . S
C2588 C2594 1.383 . S
C2589 C2585 1.495 . S
C2589 H2595 0.959 . S
C2589 H2596 0.961 . S
C2589 H2597 0.960 . S
C2590 C2588 1.381 . S
C2590 C2591 1.394 . S
C2590 H2598 0.930 . S
C2591 C2590 1.394 . S
C2591 C2592 1.383 . S
C2591 H2599 0.929 . S
C2592 C2591 1.383 . S
C2592 C2593 1.377 . S
C2593 H2577 0.930 . S
C2593 C2592 1.377 . S
C2593 C2594 1.379 . S
C2594 H2578 0.931 . S
C2594 C2588 1.383 . S
C2594 C2593 1.379 . S
H2595 C2589 0.959 . S
H2596 C2589 0.961 . S
H2597 C2589 0.960 . S
H2598 C2590 0.930 . S
H2599 C2591 0.929 . S
H2600 C2608 0.929 . S
H2601 C2610 0.930 . S
H2602 C2612 0.930 1_556 S
H2603 C2615 0.929 1_556 S
H2604 C2618 0.930 . S
H2605 C2620 0.960 . S
H2606 C2620 0.959 1_554 S
H2607 C2620 0.960 . S
C2608 H2600 0.929 . S
C2608 C2609 1.377 . S
C2608 C2610 1.384 . S
C2609 C2608 1.377 . S
C2609 C2615 1.390 . S
C2610 H2601 0.930 . S
C2610 C2608 1.384 . S
C2610 C2611 1.372 . S
C2611 C2610 1.372 . S
C2611 C2612 1.400 . S
C2611 C2616 1.490 . S
C2612 H2602 0.930 1_554 S
C2612 C2611 1.400 . S
C2612 C2615 1.386 . S
H2613 C2629 0.930 . S
H2614 C2630 0.931 . S
C2615 H2603 0.929 1_554 S
C2615 C2609 1.390 . S
C2615 C2612 1.386 . S
C2616 C2611 1.490 . S
C2616 C2618 1.395 . S
C2616 C2619 1.403 . S
H2617 C2623 0.930 1_556 S
C2618 H2604 0.930 . S
C2618 C2616 1.395 . S
C2618 C2621 1.403 . S
C2619 C2616 1.403 . S
C2619 C2620 1.524 1_554 S
C2619 C2623 1.400 . S
C2620 H2605 0.960 . S
C2620 H2606 0.959 1_556 S
C2620 H2607 0.960 . S
C2620 C2619 1.524 1_556 S
C2621 C2618 1.403 . S
C2621 C2622 1.392 . S
C2621 C2625 1.495 . S
C2622 C2621 1.392 . S
C2622 C2623 1.385 . S
C2622 C2624 1.478 . S
C2623 H2617 0.930 1_554 S
C2623 C2619 1.400 . S
C2623 C2622 1.385 . S
C2624 C2622 1.478 . S
C2624 C2626 1.381 . S
C2624 C2630 1.383 1_554 S
C2625 C2621 1.495 . S
C2625 H2631 0.959 . S
C2625 H2632 0.961 . S
C2625 H2633 0.960 . S
C2626 C2624 1.381 . S
C2626 C2627 1.394 . S
C2626 H2634 0.930 . S
C2627 C2626 1.394 . S
C2627 C2628 1.383 . S
C2627 H2635 0.929 . S
C2628 C2627 1.383 . S
C2628 C2629 1.377 1_554 S
C2629 H2613 0.930 . S
C2629 C2628 1.377 1_556 S
C2629 C2630 1.379 . S
C2630 H2614 0.931 . S
C2630 C2624 1.383 1_556 S
C2630 C2629 1.379 . S
H2631 C2625 0.959 . S
H2632 C2625 0.961 . S
H2633 C2625 0.960 . S
H2634 C2626 0.930 . S
H2635 C2627 0.929 . S
H2636 C2644 0.929 . S
H2637 C2646 0.930 . S
H2638 C2648 0.930 . S
H2639 C2651 0.929 . S
H2640 C2654 0.930 . S
H2641 C2656 0.960 . S
H2642 C2656 0.960 . S
H2643 C2656 0.960 . S
C2644 H2636 0.929 . S
C2644 C2645 1.377 . S
C2644 C2646 1.384 . S
C2645 C2644 1.377 . S
C2645 C2651 1.390 . S
C2646 H2637 0.930 . S
C2646 C2644 1.384 . S
C2646 C2647 1.372 . S
C2647 C2646 1.372 . S
C2647 C2648 1.400 . S
C2647 C2652 1.490 . S
C2648 H2638 0.930 . S
C2648 C2647 1.400 . S
C2648 C2651 1.386 . S
H2649 C2665 0.930 1_556 S
H2650 C2666 0.931 1_556 S
C2651 H2639 0.929 . S
C2651 C2645 1.390 . S
C2651 C2648 1.386 . S
C2652 C2647 1.490 . S
C2652 C2654 1.395 . S
C2652 C2655 1.403 . S
H2653 C2659 0.930 1_556 S
C2654 H2640 0.930 . S
C2654 C2652 1.395 . S
C2654 C2657 1.403 . S
C2655 C2652 1.403 . S
C2655 C2656 1.524 1_554 S
C2655 C2659 1.400 . S
C2656 H2641 0.960 . S
C2656 H2642 0.960 . S
C2656 H2643 0.960 . S
C2656 C2655 1.524 1_556 S
C2657 C2654 1.403 . S
C2657 C2658 1.392 . S
C2657 C2661 1.495 . S
C2658 C2657 1.392 . S
C2658 C2659 1.385 . S
C2658 C2660 1.478 . S
C2659 H2653 0.930 1_554 S
C2659 C2655 1.400 . S
C2659 C2658 1.385 . S
C2660 C2658 1.478 . S
C2660 C2662 1.381 . S
C2660 C2666 1.383 . S
C2661 C2657 1.495 . S
C2661 H2667 0.959 . S
C2661 H2668 0.961 . S
C2661 H2669 0.960 . S
C2662 C2660 1.381 . S
C2662 C2663 1.394 . S
C2662 H2670 0.930 . S
C2663 C2662 1.394 . S
C2663 C2664 1.383 . S
C2663 H2671 0.929 . S
C2664 C2663 1.383 . S
C2664 C2665 1.377 . S
C2665 H2649 0.930 1_554 S
C2665 C2664 1.377 . S
C2665 C2666 1.379 . S
C2666 H2650 0.931 1_554 S
C2666 C2660 1.383 . S
C2666 C2665 1.379 . S
H2667 C2661 0.959 . S
H2668 C2661 0.961 . S
H2669 C2661 0.960 . S
H2670 C2662 0.930 . S
H2671 C2663 0.929 . S
C972 C514 1.379 . S
C953 C177 1.333 . S
C1008 C562 1.661 . S
C989 C209 1.705 . S
C1025 C253 1.341 . S
C1044 C598 1.278 . S
C1080 C634 1.602 . S
C1061 C157 1.618 1_655 S
C1116 C660 1.443 . S
C1097 C343 1.460 . S
C1152 C696 1.579 . S
C1133 C401 1.551 . S
C1169 C369 1.489 . S
C1188 C731 1.492 . S
C1224 C768 1.614 1_565 S
C1205 C317 1.600 . S
C1241 C375 1.432 . S
C1260 C802 1.436 . S
C1296 C850 1.623 . S
C1277 C305 1.648 . S
C1313 C349 1.439 . S
C1332 C803 1.441 . S
C1368 C840 1.640 . S
C1349 C413 1.593 . S
C1385 C241 1.407 . S
C1404 C886 1.369 . S
C1421 C151 1.581 . S
C1440 C875 1.609 . S
C1457 C189 1.419 . S
C1476 C876 1.484 . S
C1493 C215 1.645 . S
C1512 C874 1.663 1_655 S
C1529 C113 1.410 . S
C1548 C622 1.388 . S
C1565 C471 1.350 . S
C1584 C623 1.398 . S
C1620 C526 1.649 . S
C1601 C509 1.656 1_565 S
C1656 C551 1.437 . S
C1637 C279 1.433 . S
C1673 C145 1.570 . S
C1692 C658 1.588 . S
C1728 C766 1.501 . S
C1709 C381 1.500 . S
C1764 C659 1.620 . S
C1745 C311 1.617 . S
C1800 C732 1.621 . S
C1781 C407 1.582 . S
C1836 C730 1.371 . S
C1817 C465 1.344 . S
C1853 C497 1.709 . S
C1872 C778 1.685 . S
C1889 C285 1.340 . S
C1908 C670 1.266 . S
C1944 C706 1.589 . S
C1925 C445 1.625 . S
C1961 C119 1.458 . S
C1980 C588 1.458 . S
C2016 C624 1.577 . S
C1997 C17 1.552 1_655 S
C2052 C515 1.496 . S
C2033 C49 1.492 . S
C2088 C552 1.617 . S
C2069 C93 1.605 . S
C2105 C55 1.435 . S
C2124 C838 1.411 . S
C2141 C81 1.649 . S
C2160 C814 1.594 . S
C2177 C125 1.435 . S
C2196 C839 1.439 . S
C2213 C29 1.587 1_556 S
C2232 C804 1.632 . S
C2268 C922 1.349 . S
C2249 C273 1.405 . S
C2304 C911 1.612 . S
C2285 C439 1.583 . S
C2340 C912 1.470 . S
C2321 C477 1.416 . S
C2357 C503 1.643 . S
C2376 C910 1.646 . S
C2393 C337 1.410 . S
C2412 C694 1.383 . S
C2448 C695 1.405 . S
C2429 C183 1.343 . S
C2484 C742 1.605 . S
C2465 C221 1.652 . S
C2520 C767 1.435 . S
C2501 C247 1.436 . S
C2537 C433 1.572 . S
C2556 C586 1.598 . S
C2592 C550 1.483 . S
C2573 C61 1.508 . S
C2609 C87 1.617 . S
C2628 C587 1.619 . S
C2664 C516 1.624 . S
C2645 C23 1.542 1_565 S
