# Generated by pormake.
# Topology zzz, (3,6)-cn, num edge types: 1
# Building blocks:
#     Node 0, Type 0, BuildingBlock: BELTOD_clean_linker_0, # of connection points: 3
#     Node 1, Type 0, BuildingBlock: BELTOD_clean_linker_0, # of connection points: 3
#     Node 2, Type 0, BuildingBlock: BELTOD_clean_linker_0, # of connection points: 3
#     Node 3, Type 0, BuildingBlock: BELTOD_clean_linker_0, # of connection points: 3
#     Node 4, Type 0, BuildingBlock: BELTOD_clean_linker_0, # of connection points: 3
#     Node 5, Type 0, BuildingBlock: BELTOD_clean_linker_0, # of connection points: 3
#     Node 6, Type 0, BuildingBlock: BELTOD_clean_linker_0, # of connection points: 3
#     Node 7, Type 0, BuildingBlock: BELTOD_clean_linker_0, # of connection points: 3
#     Node 8, Type 1, BuildingBlock: BETFAJ_clean_sbu_0, # of connection points: 6
#     Node 9, Type 1, BuildingBlock: BETFAJ_clean_sbu_0, # of connection points: 6
#     Node 10, Type 1, BuildingBlock: BETFAJ_clean_sbu_0, # of connection points: 6
#     Node 11, Type 1, BuildingBlock: BETFAJ_clean_sbu_0, # of connection points: 6
#     Edge 12, Type (0, 1), BuildingBlock: TEMPAE_clean_linker_10, # of connection points: 2
#     Edge 13, Type (0, 1), BuildingBlock: TEMPAE_clean_linker_10, # of connection points: 2
#     Edge 14, Type (0, 1), BuildingBlock: TEMPAE_clean_linker_10, # of connection points: 2
#     Edge 15, Type (0, 1), BuildingBlock: TEMPAE_clean_linker_10, # of connection points: 2
#     Edge 16, Type (0, 1), BuildingBlock: TEMPAE_clean_linker_10, # of connection points: 2
#     Edge 17, Type (0, 1), BuildingBlock: TEMPAE_clean_linker_10, # of connection points: 2
#     Edge 18, Type (0, 1), BuildingBlock: TEMPAE_clean_linker_10, # of connection points: 2
#     Edge 19, Type (0, 1), BuildingBlock: TEMPAE_clean_linker_10, # of connection points: 2
#     Edge 20, Type (0, 1), BuildingBlock: TEMPAE_clean_linker_10, # of connection points: 2
#     Edge 21, Type (0, 1), BuildingBlock: TEMPAE_clean_linker_10, # of connection points: 2
#     Edge 22, Type (0, 1), BuildingBlock: TEMPAE_clean_linker_10, # of connection points: 2
#     Edge 23, Type (0, 1), BuildingBlock: TEMPAE_clean_linker_10, # of connection points: 2
#     Edge 24, Type (0, 1), BuildingBlock: TEMPAE_clean_linker_10, # of connection points: 2
#     Edge 25, Type (0, 1), BuildingBlock: TEMPAE_clean_linker_10, # of connection points: 2
#     Edge 26, Type (0, 1), BuildingBlock: TEMPAE_clean_linker_10, # of connection points: 2
#     Edge 27, Type (0, 1), BuildingBlock: TEMPAE_clean_linker_10, # of connection points: 2
#     Edge 28, Type (0, 1), BuildingBlock: TEMPAE_clean_linker_10, # of connection points: 2
#     Edge 29, Type (0, 1), BuildingBlock: TEMPAE_clean_linker_10, # of connection points: 2
#     Edge 30, Type (0, 1), BuildingBlock: TEMPAE_clean_linker_10, # of connection points: 2
#     Edge 31, Type (0, 1), BuildingBlock: TEMPAE_clean_linker_10, # of connection points: 2
#     Edge 32, Type (0, 1), BuildingBlock: TEMPAE_clean_linker_10, # of connection points: 2
#     Edge 33, Type (0, 1), BuildingBlock: TEMPAE_clean_linker_10, # of connection points: 2
#     Edge 34, Type (0, 1), BuildingBlock: TEMPAE_clean_linker_10, # of connection points: 2
#     Edge 35, Type (0, 1), BuildingBlock: TEMPAE_clean_linker_10, # of connection points: 2
# Relax obj value: 0.436
# Max RMSD: 0.258
# Mean RMSD: 0.245
data_MOF--net-zzz--node1-BETFAJ_clean_sbu_0--node2-BELTOD_clean_linker_0--edge1-TEMPAE_clean_linker_10
_symmetry_space_group_name_H-M    P1
_symmetry_Int_Tables_number       1
_symmetry_cell_setting            triclinic
loop_
_symmetry_equiv_pos_as_xyz
'x, y, z'
_cell_length_a     56.337385
_cell_length_b     56.35591
_cell_length_c     17.116817
_cell_angle_alpha  89.894126
_cell_angle_beta   89.983771
_cell_angle_gamma 89.97907
loop_
_atom_site_label
_atom_site_type_symbol
_atom_site_fract_x
_atom_site_fract_y
_atom_site_fract_z
_atom_type_partial_charge
P0 P 0.71468 0.48207 0.42159 0.0
H1 H 0.7306 0.50038 0.57349 0.0
H2 H 0.7704 0.51124 0.61727 0.0
H3 H 0.79406 0.51366 0.37764 0.0
H4 H 0.75407 0.50328 0.33392 0.0
H5 H 0.66815 0.46448 0.38297 0.0
H6 H 0.63931 0.47467 0.28316 0.0
H7 H 0.68241 0.53471 0.21472 0.0
H8 H 0.71186 0.52361 0.31406 0.0
H9 H 0.74654 0.44596 0.48085 0.0
H10 H 0.71815 0.46705 0.25707 0.0
O11 O 0.70143 0.47146 0.50156 0.0
H12 H 0.77926 0.42572 0.41495 0.0
H13 H 0.75046 0.44653 0.19155 0.0
C14 C 0.73917 0.50101 0.45022 0.0
C15 C 0.74398 0.50434 0.52997 0.0
C16 C 0.76688 0.51038 0.55513 0.0
C17 C 0.78551 0.51285 0.50101 0.0
C18 C 0.78016 0.51157 0.42083 0.0
C19 C 0.75716 0.50598 0.39571 0.0
C20 C 0.69196 0.49351 0.35708 0.0
C21 C 0.67118 0.48018 0.34772 0.0
C22 C 0.65457 0.48613 0.2904 0.0
C23 C 0.65826 0.50568 0.24057 0.0
C24 C 0.67897 0.51942 0.25135 0.0
C25 C 0.69575 0.51327 0.30877 0.0
C26 C 0.72992 0.45808 0.37409 0.0
C27 C 0.74653 0.44508 0.41762 0.0
C28 C 0.7653 0.43365 0.38004 0.0
C29 C 0.76741 0.43483 0.2984 0.0
C30 C 0.7491 0.44524 0.25456 0.0
C31 C 0.73055 0.457 0.29222 0.0
P32 P 0.03894 0.71913 0.41082 0.0
H33 H 0.02956 0.73441 0.57058 0.0
H34 H 0.01593 0.77257 0.61831 0.0
H35 H 0.99007 0.79002 0.38771 0.0
H36 H 1.00419 0.75159 0.33993 0.0
H37 H 0.06588 0.69189 0.2996 0.0
H38 H 0.05617 0.66054 0.20812 0.0
H39 H 0.98254 0.66449 0.2781 0.0
H40 H 0.99255 0.69691 0.36889 0.0
H41 H 0.07696 0.74827 0.47458 0.0
H42 H 0.04364 0.73677 0.25109 0.0
O43 O 0.05279 0.70479 0.483 0.0
H44 H 0.09473 0.78495 0.42512 0.0
H45 H 0.06116 0.77313 0.20165 0.0
C46 C 0.01777 0.73986 0.45157 0.0
C47 C 0.01991 0.74585 0.53084 0.0
C48 C 0.01222 0.76796 0.55816 0.0
C49 C 1.00228 0.78473 0.50669 0.0
C50 C 0.99808 0.77777 0.4288 0.0
C51 C 1.0057 0.75554 0.40163 0.0
C52 C 0.02989 0.69712 0.33991 0.0
C53 C 0.04756 0.68627 0.29474 0.0
C54 C 0.04199 0.668 0.24304 0.0
C55 C 0.01858 0.65961 0.23602 0.0
C56 C 1.00074 0.67055 0.28148 0.0
C57 C 1.0064 0.68909 0.33342 0.0
C58 C 0.05939 0.7395 0.36608 0.0
C59 C 0.07441 0.753 0.41379 0.0
C60 C 0.08432 0.7741 0.38579 0.0
C61 C 0.07924 0.78199 0.30966 0.0
C62 C 0.06576 0.76738 0.26014 0.0
C63 C 0.05577 0.74643 0.28834 0.0
P64 P 0.80394 0.03569 0.43418 0.0
H65 H 0.78564 0.02654 0.59162 0.0
H66 H 0.74609 0.01467 0.63364 0.0
H67 H 0.72989 0.99218 0.39876 0.0
H68 H 0.76966 1.00397 0.35695 0.0
H69 H 0.8491 0.05625 0.39355 0.0
H70 H 0.88055 0.04525 0.30367 0.0
H71 H 0.84403 0.97957 0.25335 0.0
H72 H 0.81209 0.99117 0.34338 0.0
H73 H 0.77603 0.07751 0.47367 0.0
H74 H 0.79229 0.03656 0.26806 0.0
O75 O 0.81561 0.05069 0.5089 0.0
H76 H 0.74195 0.095 0.40704 0.0
H77 H 0.75783 0.05284 0.20267 0.0
C78 C 0.78089 0.01615 0.47092 0.0
C79 C 0.77409 0.01804 0.54963 0.0
C80 C 0.75125 0.01138 0.57368 0.0
C81 C 0.73458 1.00291 0.5193 0.0
C82 C 0.74214 0.99902 0.44194 0.0
C83 C 0.76511 1.00541 0.41819 0.0
C84 C 0.82835 0.02442 0.37621 0.0
C85 C 0.84803 0.03923 0.36449 0.0
C86 C 0.86616 0.03282 0.31298 0.0
C87 C 0.86508 0.0114 0.27107 0.0
C88 C 0.84545 0.99629 0.28405 0.0
C89 C 0.82721 1.00279 0.33601 0.0
C90 C 0.78681 0.05587 0.37567 0.0
C91 C 0.77288 0.07305 0.41304 0.0
C92 C 0.75313 0.08272 0.37525 0.0
C93 C 0.74675 0.07495 0.30006 0.0
C94 C 0.76219 0.05949 0.26021 0.0
C95 C 0.78208 0.0501 0.29768 0.0
P96 P 0.47639 0.79942 0.4094 0.0
H97 H 0.47989 0.78113 0.5688 0.0
H98 H 0.49256 0.7423 0.61604 0.0
H99 H 0.52581 0.72813 0.39417 0.0
H100 H 0.51239 0.76683 0.34562 0.0
H101 H 0.45757 0.84598 0.37624 0.0
H102 H 0.47016 0.87827 0.29195 0.0
H103 H 0.53527 0.84071 0.24162 0.0
H104 H 0.52223 0.80803 0.32641 0.0
H105 H 0.44038 0.76366 0.43528 0.0
H106 H 0.47581 0.79539 0.23763 0.0
O107 O 0.45808 0.80997 0.47775 0.0
H108 H 0.42582 0.73184 0.35205 0.0
H109 H 0.46051 0.76419 0.15333 0.0
C110 C 0.49544 0.77728 0.45374 0.0
C111 C 0.49077 0.77025 0.531 0.0
C112 C 0.49782 0.74788 0.55795 0.0
C113 C 0.50998 0.73217 0.50854 0.0
C114 C 0.51661 0.74 0.43364 0.0
C115 C 0.50922 0.76231 0.40621 0.0
C116 C 0.48907 0.82467 0.35887 0.0
C117 C 0.47487 0.84488 0.34885 0.0
C118 C 0.48215 0.86346 0.30045 0.0
C119 C 0.50383 0.86229 0.25991 0.0
C120 C 0.5184 0.8422 0.27152 0.0
C121 C 0.51106 0.82353 0.32051 0.0
C122 C 0.45907 0.78197 0.34275 0.0
C123 C 0.44412 0.76437 0.37323 0.0
C124 C 0.43578 0.74616 0.32543 0.0
C125 C 0.44225 0.74529 0.24614 0.0
C126 C 0.45557 0.76412 0.21449 0.0
C127 C 0.46413 0.78217 0.2626 0.0
P128 P 0.29311 0.45791 0.05352 0.0
H129 H 0.27622 0.44711 0.89513 0.0
H130 H 0.24005 0.45934 0.82819 0.0
H131 H 0.22962 0.51456 0.99962 0.0
H132 H 0.26648 0.5029 0.06387 0.0
H133 H 0.33578 0.43111 0.08665 0.0
H134 H 0.3712 0.44157 0.1598 0.0
H135 H 0.35238 0.51561 0.14437 0.0
H136 H 0.31647 0.50497 0.07016 0.0
H137 H 0.24555 0.44335 0.09633 0.0
H138 H 0.30521 0.47609 0.21232 0.0
O139 O 0.29366 0.42949 0.0262 0.0
H140 H 0.21941 0.45748 0.19956 0.0
H141 H 0.27915 0.49029 0.31478 0.0
C142 C 0.27412 0.47386 0.9853 0.0
C143 C 0.26675 0.4625 0.91657 0.0
C144 C 0.24566 0.46927 0.87904 0.0
C145 C 0.23123 0.48745 0.90974 0.0
C146 C 0.24002 0.50043 0.97392 0.0
C147 C 0.26134 0.49384 0.01075 0.0
C148 C 0.3234 0.46723 0.07206 0.0
C149 C 0.33966 0.44973 0.09546 0.0
C150 C 0.35986 0.45569 0.13835 0.0
C151 C 0.36436 0.47935 0.1591 0.0
C152 C 0.3494 0.49721 0.12906 0.0
C153 C 0.32897 0.49118 0.08591 0.0
C154 C 0.27718 0.45935 0.14462 0.0
C155 C 0.25321 0.45276 0.14536 0.0
C156 C 0.23828 0.46085 0.20455 0.0
C157 C 0.24724 0.47549 0.26406 0.0
C158 C 0.27176 0.47951 0.26843 0.0
C159 C 0.28667 0.47141 0.20921 0.0
P160 P 0.05939 0.28557 0.05198 0.0
H161 H 0.07656 0.26642 0.90424 0.0
H162 H 0.06302 0.23223 0.83245 0.0
H163 H 0.9954 0.23594 0.95124 0.0
H164 H 0.0098 0.2697 0.02653 0.0
H165 H 0.08626 0.32322 0.1245 0.0
H166 H 0.0756 0.35738 0.20266 0.0
H167 H 1.00141 0.34407 0.1571 0.0
H168 H 0.01239 0.30947 0.07732 0.0
H169 H 0.08564 0.24188 0.07669 0.0
H170 H 0.02581 0.27782 0.18046 0.0
O171 O 0.08804 0.2882 0.02845 0.0
H172 H 0.07169 0.2043 0.13125 0.0
H173 H 0.01178 0.24036 0.23385 0.0
C174 C 0.04431 0.27104 0.97124 0.0
C175 C 0.05842 0.26068 0.91286 0.0
C176 C 0.05057 0.24074 0.87153 0.0
C177 C 0.02815 0.23063 0.88654 0.0
C178 C 0.01303 0.24263 0.93915 0.0
C179 C 0.02104 0.26252 0.9811 0.0
C180 C 0.05021 0.31379 0.09355 0.0
C181 C 0.06767 0.32791 0.12893 0.0
C182 C 0.06153 0.3476 0.17408 0.0
C183 C 0.03763 0.35366 0.18636 0.0
C184 C 0.02002 0.33988 0.1492 0.0
C185 C 0.02627 0.32018 0.1029 0.0
C186 C 0.05684 0.26274 0.12455 0.0
C187 C 0.07027 0.24198 0.11472 0.0
C188 C 0.06218 0.22046 0.14519 0.0
C189 C 0.04047 0.21956 0.18515 0.0
C190 C 0.02846 0.24071 0.20231 0.0
C191 C 0.03666 0.26221 0.17246 0.0
P192 P 0.23143 0.05661 0.08394 0.0
H193 H 0.25437 0.08016 0.95138 0.0
H194 H 0.28865 0.06844 0.87523 0.0
H195 H 0.28059 0.99628 0.95651 0.0
H196 H 0.24624 0.00837 0.03435 0.0
H197 H 0.19537 0.08519 0.15745 0.0
H198 H 0.15754 0.0762 0.21599 0.0
H199 H 0.16056 1.00534 0.12028 0.0
H200 H 0.19942 0.01463 0.06178 0.0
H201 H 0.27213 0.07538 0.16882 0.0
H202 H 0.22872 0.01234 0.17384 0.0
O203 O 0.23449 0.08609 0.08321 0.0
H204 H 0.30043 0.05643 0.25676 0.0
H205 H 0.25735 0.99297 0.25847 0.0
C206 C 0.24761 0.0453 0.99988 0.0
C207 C 0.25927 0.06159 0.95091 0.0
C208 C 0.27915 0.05482 0.90709 0.0
C209 C 0.28797 0.03145 0.91074 0.0
C210 C 0.27479 0.01458 0.95365 0.0
C211 C 0.2548 0.02142 0.99744 0.0
C212 C 0.20031 0.05075 0.10389 0.0
C213 C 0.1877 0.06792 0.14627 0.0
C214 C 0.16578 0.06271 0.18013 0.0
C215 C 0.15567 0.04 0.17326 0.0
C216 C 0.1678 0.02299 0.12754 0.0
C217 C 0.18993 0.02834 0.09315 0.0
C218 C 0.24816 0.04541 0.16531 0.0
C219 C 0.26831 0.05772 0.1905 0.0
C220 C 0.28464 0.04674 0.23999 0.0
C221 C 0.28134 0.02304 0.26353 0.0
C222 C 0.26034 0.0113 0.24212 0.0
C223 C 0.24389 0.02242 0.19346 0.0
P224 P 0.46107 0.22323 0.01958 0.0
H225 H 0.46831 0.23506 0.85461 0.0
H226 H 0.48197 0.2722 0.79769 0.0
H227 H 0.51227 0.29222 0.01968 0.0
H228 H 0.49935 0.25444 0.07542 0.0
H229 H 0.43549 0.1972 0.13739 0.0
H230 H 0.44545 0.16481 0.22474 0.0
H231 H 0.51636 0.16266 0.12809 0.0
H232 H 0.50629 0.1964 0.04252 0.0
H233 H 0.42903 0.26059 0.9704 0.0
H234 H 0.46155 0.237 0.18515 0.0
O235 O 0.44249 0.2115 0.95434 0.0
H236 H 0.42612 0.3007 0.0233 0.0
H237 H 0.45753 0.27657 0.23895 0.0
C238 C 0.48266 0.24177 0.96969 0.0
C239 C 0.47897 0.24678 0.89025 0.0
C240 C 0.48637 0.26842 0.85803 0.0
C241 C 0.49751 0.28571 0.90461 0.0
C242 C 0.50369 0.27948 0.98178 0.0
C243 C 0.49649 0.25763 0.01372 0.0
C244 C 0.47027 0.19958 0.08462 0.0
C245 C 0.4533 0.18995 0.1354 0.0
C246 C 0.45897 0.17107 0.18476 0.0
C247 C 0.48169 0.16069 0.1834 0.0
C248 C 0.49874 0.17026 0.13156 0.0
C249 C 0.49304 0.18953 0.0824 0.0
C250 C 0.44551 0.24571 0.07359 0.0
C251 C 0.4339 0.26353 0.03083 0.0
C252 C 0.43235 0.2865 0.06082 0.0
C253 C 0.44176 0.29159 0.13477 0.0
C254 C 0.44994 0.27295 0.18203 0.0
C255 C 0.45209 0.25017 0.15125 0.0
Sm256 Sm 0.02445 1.00343 0.76766 0.0
Sm257 Sm 0.98483 0.01238 0.64355 0.0
C258 C 0.04734 0.99652 0.9008 0.0
C259 C 0.05186 0.97813 0.96039 0.0
C260 C 0.03395 0.96971 0.01036 0.0
C261 C 0.03883 0.95144 0.06351 0.0
C262 C 0.06162 0.94116 0.06716 0.0
C263 C 0.07958 0.9502 0.01851 0.0
C264 C 0.07478 0.96857 0.96632 0.0
C265 C 0.04609 0.01454 0.62615 0.0
C266 C 1.00166 0.95688 0.68063 0.0
C267 C 0.95964 0.01428 0.51306 0.0
C268 C 0.96021 0.02946 0.44288 0.0
C269 C 0.98068 0.03067 0.39605 0.0
C270 C 0.9833 0.04883 0.34145 0.0
C271 C 0.96546 0.06601 0.33263 0.0
C272 C 0.94392 0.06323 0.37306 0.0
C273 C 0.94131 0.04503 0.42781 0.0
C274 C 0.96913 0.01115 0.79541 0.0
C275 C 0.00926 0.05833 0.72389 0.0
O276 O 0.02625 1.00636 0.89738 0.0
O277 O 0.05653 0.99241 0.83197 0.0
O278 O 0.02415 0.01329 0.63951 0.0
O279 O 0.05756 0.0103 0.69014 0.0
O280 O 0.01764 0.96455 0.73135 0.0
O281 O 0.98703 0.97149 0.64393 0.0
O282 O 0.97771 1.0 0.52311 0.0
O283 O 0.95306 0.02468 0.57787 0.0
O284 O 0.98457 0.9973 0.76677 0.0
O285 O 0.96042 0.02498 0.7419 0.0
O286 O 0.9994 0.05046 0.65855 0.0
O287 O 0.01708 0.0436 0.77847 0.0
H288 H 0.01614 0.97693 0.0077 0.0
H289 H 0.02467 0.94519 0.10106 0.0
H290 H 0.09722 0.94256 0.01854 0.0
H291 H 0.08896 0.97493 0.92894 0.0
H292 H 0.99538 0.01863 0.40499 0.0
H293 H 1.00011 0.05054 0.31117 0.0
H294 H 0.92979 0.07612 0.36634 0.0
H295 H 0.92517 0.04414 0.46214 0.0
Sm296 Sm 0.51605 0.02713 0.77989 0.0
Sm297 Sm 0.505 0.9896 0.6496 0.0
C298 C 0.52541 0.04691 0.91652 0.0
C299 C 0.54538 0.04787 0.97106 0.0
C300 C 0.56613 0.03495 0.95599 0.0
C301 C 0.58641 0.03873 1.00111 0.0
C302 C 0.58623 0.05553 0.0619 0.0
C303 C 0.56503 0.06768 0.07873 0.0
C304 C 0.54476 0.06389 0.03344 0.0
C305 C 0.50666 0.05095 0.64121 0.0
C306 C 0.56088 1.00586 0.67907 0.0
C307 C 0.49697 0.96274 0.52674 0.0
C308 C 0.47476 0.95094 0.50513 0.0
C309 C 0.46761 0.95056 0.42676 0.0
C310 C 0.44366 0.94742 0.40819 0.0
C311 C 0.42675 0.94491 0.46808 0.0
C312 C 0.43441 0.94244 0.5456 0.0
C313 C 0.45827 0.94547 0.56406 0.0
C314 C 0.50526 0.9727 0.8002 0.0
C315 C 0.46 0.01322 0.74101 0.0
O316 O 0.51434 0.02656 0.9098 0.0
O317 O 0.52929 0.05731 0.84939 0.0
O318 O 0.50663 0.02886 0.65211 0.0
O319 O 0.51116 0.0615 0.70673 0.0
O320 O 0.5543 0.01854 0.74046 0.0
O321 O 0.54542 0.99445 0.63464 0.0
O322 O 0.49576 0.98596 0.5244 0.0
O323 O 0.5075 0.95475 0.58976 0.0
O324 O 0.52018 0.98721 0.77215 0.0
O325 O 0.48995 0.96636 0.74762 0.0
O326 O 0.46694 1.00238 0.6763 0.0
O327 O 0.4754 0.02192 0.79206 0.0
H328 H 0.56691 0.02266 0.90743 0.0
H329 H 0.60252 0.02928 0.98611 0.0
H330 H 0.56425 0.08046 0.12586 0.0
H331 H 0.52885 0.07408 0.04543 0.0
H332 H 0.48007 0.95495 0.38072 0.0
H333 H 0.4381 0.94956 0.34799 0.0
H334 H 0.42165 0.9405 0.59258 0.0
H335 H 0.46335 0.94587 0.62507 0.0
Sm336 Sm 0.49709 0.51464 0.75745 0.0
Sm337 Sm 0.52841 0.50124 0.6253 0.0
C338 C 0.47397 0.52288 0.88954 0.0
C339 C 0.46386 0.54432 0.92455 0.0
C340 C 0.46565 0.56605 0.88508 0.0
C341 C 0.45702 0.58676 0.91929 0.0
C342 C 0.44636 0.58609 0.99358 0.0
C343 C 0.44414 0.56413 0.03223 0.0
C344 C 0.45286 0.54337 0.99788 0.0
C345 C 0.47408 0.51093 0.61553 0.0
C346 C 0.51755 0.55834 0.65785 0.0
C347 C 0.54661 0.49209 0.48653 0.0
C348 C 0.54263 0.47143 0.43603 0.0
C349 C 0.53907 0.44901 0.46984 0.0
C350 C 0.53067 0.43025 0.42498 0.0
C351 C 0.52559 0.43349 0.34531 0.0
C352 C 0.53014 0.4557 0.31066 0.0
C353 C 0.53858 0.47456 0.35584 0.0
C354 C 0.55222 0.5049 0.76507 0.0
C355 C 0.50878 0.45818 0.72875 0.0
O356 O 0.49713 0.52245 0.88455 0.0
O357 O 0.46361 0.51557 0.82576 0.0
O358 O 0.48927 0.49646 0.64161 0.0
O359 O 0.47023 0.52783 0.66533 0.0
O360 O 0.50873 0.55239 0.72641 0.0
O361 O 0.52448 0.54199 0.60734 0.0
O362 O 0.5279 0.50548 0.49637 0.0
O363 O 0.55812 0.48814 0.55168 0.0
O364 O 0.53659 0.51929 0.74117 0.0
O365 O 0.55663 0.4888 0.71304 0.0
O366 O 0.5147 0.46401 0.65669 0.0
O367 O 0.50443 0.47481 0.78111 0.0
H368 H 0.4741 0.56707 0.82833 0.0
H369 H 0.45941 0.60341 0.88856 0.0
H370 H 0.43584 0.56306 0.08919 0.0
H371 H 0.45128 0.52666 0.02889 0.0
H372 H 0.54165 0.44623 0.53189 0.0
H373 H 0.52696 0.41353 0.45384 0.0
H374 H 0.52654 0.45865 0.24925 0.0
H375 H 0.54093 0.49183 0.32899 0.0
Sm376 Sm 1.0027 0.48807 0.776 0.0
Sm377 Sm 0.01355 0.52348 0.63911 0.0
C378 C 0.98691 0.46357 0.89723 0.0
C379 C 0.96419 0.45833 0.93599 0.0
C380 C 0.94876 0.4765 0.95972 0.0
C381 C 0.92715 0.47094 0.99525 0.0
C382 C 0.92045 0.44713 0.00703 0.0
C383 C 0.93595 0.42902 0.9829 0.0
C384 C 0.95765 0.43459 0.94801 0.0
C385 C 0.01674 0.46777 0.63712 0.0
C386 C 0.95789 0.51209 0.67412 0.0
C387 C 0.02839 0.53938 0.50266 0.0
C388 C 0.0529 0.54104 0.47465 0.0
C389 C 0.06951 0.52424 0.50066 0.0
C390 C 0.09338 0.52694 0.48337 0.0
C391 C 0.10118 0.54641 0.43938 0.0
C392 C 0.08462 0.56291 0.41086 0.0
C393 C 0.06051 0.56037 0.42929 0.0
C394 C 0.00847 0.54929 0.77577 0.0
C395 C 0.05735 0.50422 0.75248 0.0
O396 O 0.99527 0.48519 0.90299 0.0
O397 O 0.98965 0.45443 0.82768 0.0
O398 O 1.00248 0.48496 0.6444 0.0
O399 O 0.0242 0.46073 0.70511 0.0
O400 O 0.96483 0.49917 0.73504 0.0
O401 O 0.97315 0.52273 0.62698 0.0
O402 O 0.02038 0.5178 0.51298 0.0
O403 O 0.02325 0.55347 0.56076 0.0
O404 O 1.00669 0.52712 0.76819 0.0
O405 O 0.01267 0.55879 0.7081 0.0
O406 O 0.05094 0.51151 0.68184 0.0
O407 O 0.04147 0.49726 0.80459 0.0
H408 H 0.95335 0.49498 0.95092 0.0
H409 H 0.91581 0.48534 0.01433 0.0
H410 H 0.93123 0.41052 0.99014 0.0
H411 H 0.96927 0.42032 0.92976 0.0
H412 H 0.06411 0.5091 0.53537 0.0
H413 H 0.10579 0.51359 0.50364 0.0
H414 H 0.09037 0.57782 0.37558 0.0
H415 H 0.04792 0.57359 0.4093 0.0
C416 C 0.13219 0.012 0.25921 0.0
C417 C 0.13401 0.03394 0.22057 0.0
C418 C 0.11446 0.00789 0.31579 0.0
C419 C 0.09832 0.02625 0.33554 0.0
C420 C 0.09884 0.0477 0.29237 0.0
C421 C 0.11646 0.05118 0.23511 0.0
C422 C 0.11405 0.9844 0.35826 0.0
C423 C 0.0819 0.06771 0.31059 0.0
C424 C 0.04737 0.01338 0.47871 0.0
C425 C 0.05793 0.0193 0.55023 0.0
C426 C 0.06011 0.01556 0.40785 0.0
C427 C 0.08372 0.02441 0.40868 0.0
C428 C 0.09401 0.03115 0.48089 0.0
C429 C 0.08112 0.02825 0.55045 0.0
C430 C 0.0484 0.00807 0.33257 0.0
C431 C 0.11889 0.04107 0.48503 0.0
H432 H 0.14547 0.99845 0.24895 0.0
H433 H 0.1171 0.06794 0.20407 0.0
H434 H 0.12102 0.9868 0.41836 0.0
H435 H 0.09559 0.9777 0.36329 0.0
H436 H 0.12504 0.97079 0.32832 0.0
H437 H 0.08273 0.08212 0.26629 0.0
H438 H 0.06341 0.06105 0.31388 0.0
H439 H 0.08635 0.07533 0.36852 0.0
H440 H 0.02957 1.00614 0.47857 0.0
H441 H 0.08934 0.03289 0.60562 0.0
H442 H 0.06081 0.99757 0.29599 0.0
H443 H 0.04329 0.02407 0.29871 0.0
H444 H 0.03215 0.99737 0.3432 0.0
H445 H 0.1318 0.02752 0.46494 0.0
H446 H 0.12383 0.04659 0.54514 0.0
H447 H 0.12057 0.05665 0.44568 0.0
C448 C 0.46961 0.12372 0.2568 0.0
C449 C 0.48725 0.14042 0.23749 0.0
C450 C 0.47315 0.10671 0.31585 0.0
C451 C 0.49514 0.10578 0.35575 0.0
C452 C 0.51368 0.12128 0.33245 0.0
C453 C 0.50947 0.13852 0.27424 0.0
C454 C 0.45279 0.09073 0.33881 0.0
C455 C 0.5376 0.12054 0.37199 0.0
C456 C 0.49487 0.08748 0.56979 0.0
C457 C 0.50238 0.06379 0.56683 0.0
C458 C 0.49212 0.10104 0.50157 0.0
C459 C 0.4976 0.09093 0.42803 0.0
C460 C 0.50514 0.06691 0.42447 0.0
C461 C 0.50717 0.0535 0.494 0.0
C462 C 0.48344 0.12633 0.50842 0.0
C463 C 0.51168 0.05561 0.34758 0.0
H464 H 0.45262 0.12435 0.22723 0.0
H465 H 0.5233 0.15118 0.26026 0.0
H466 H 0.45871 0.07198 0.34187 0.0
H467 H 0.44639 0.09572 0.39787 0.0
H468 H 0.43767 0.092 0.29736 0.0
H469 H 0.55112 0.13105 0.33973 0.0
H470 H 0.53603 0.12784 0.43192 0.0
H471 H 0.54395 0.10197 0.37736 0.0
H472 H 0.49109 0.09549 0.62599 0.0
H473 H 0.51328 0.03527 0.49163 0.0
H474 H 0.46738 0.12891 0.47182 0.0
H475 H 0.49723 0.13871 0.48654 0.0
H476 H 0.47904 0.13122 0.56959 0.0
H477 H 0.49676 0.05715 0.30562 0.0
H478 H 0.51638 0.03656 0.35421 0.0
H479 H 0.52703 0.06511 0.32164 0.0
C480 C 0.38174 0.47196 0.29118 0.0
C481 C 0.38243 0.48458 0.22044 0.0
C482 C 0.39794 0.47662 0.35157 0.0
C483 C 0.4157 0.49412 0.34099 0.0
C484 C 0.41684 0.50663 0.26897 0.0
C485 C 0.39995 0.50197 0.20997 0.0
C486 C 0.39568 0.46312 0.42754 0.0
C487 C 0.4357 0.52512 0.25448 0.0
C488 C 0.4399 0.52131 0.52858 0.0
C489 C 0.4602 0.50753 0.54258 0.0
C490 C 0.4257 0.5176 0.46213 0.0
C491 C 0.43212 0.49992 0.40721 0.0
C492 C 0.45315 0.48655 0.41957 0.0
C493 C 0.46681 0.49036 0.48742 0.0
C494 C 0.4033 0.53201 0.45227 0.0
C495 C 0.46103 0.46797 0.36174 0.0
H496 H 0.36804 0.45871 0.30004 0.0
H497 H 0.4006 0.51173 0.15537 0.0
H498 H 0.41248 0.45365 0.44067 0.0
H499 H 0.39238 0.4757 0.47617 0.0
H500 H 0.38101 0.44996 0.42625 0.0
H501 H 0.43678 0.53019 0.19185 0.0
H502 H 0.43163 0.54125 0.28899 0.0
H503 H 0.45335 0.51855 0.27363 0.0
H504 H 0.43472 0.53465 0.57084 0.0
H505 H 0.48262 0.47981 0.49748 0.0
H506 H 0.38763 0.52009 0.45385 0.0
H507 H 0.4033 0.54102 0.39462 0.0
H508 H 0.40122 0.54563 0.49861 0.0
H509 H 0.44756 0.45367 0.35798 0.0
H510 H 0.47833 0.4599 0.37803 0.0
H511 H 0.46265 0.47595 0.30266 0.0
C512 C 0.01366 0.37011 0.29856 0.0
C513 C 0.03155 0.37319 0.24229 0.0
C514 C 0.01007 0.3869 0.35841 0.0
C515 C 0.02468 0.40736 0.36238 0.0
C516 C 0.04196 0.41115 0.3035 0.0
C517 C 0.04516 0.39409 0.24441 0.0
C518 C 0.99138 0.38214 0.41963 0.0
C519 C 0.0578 0.43274 0.30479 0.0
C520 C 1.00631 0.45834 0.49736 0.0
C521 C 0.01974 0.45353 0.56462 0.0
C522 C 1.00785 0.44368 0.4308 0.0
C523 C 0.02322 0.42373 0.43134 0.0
C524 C 0.03718 0.41916 0.49862 0.0
C525 C 0.03525 0.43406 0.5642 0.0
C526 C 0.99269 0.44926 0.36046 0.0
C527 C 0.05394 0.39826 0.50187 0.0
H528 H 1.00317 0.354 0.29813 0.0
H529 H 0.05877 0.39688 0.2006 0.0
H530 H 1.00006 0.37868 0.47671 0.0
H531 H 0.97981 0.39792 0.42704 0.0
H532 H 0.9801 0.36663 0.40469 0.0
H533 H 0.06889 0.43419 0.25131 0.0
H534 H 0.04702 0.44912 0.31056 0.0
H535 H 0.06973 0.43185 0.35629 0.0
H536 H 0.9942 0.47329 0.4973 0.0
H537 H 0.04573 0.43023 0.61582 0.0
H538 H 0.98012 0.43447 0.34976 0.0
H539 H 1.00397 0.45099 0.30763 0.0
H540 H 0.98236 0.4659 0.36796 0.0
H541 H 0.04384 0.38151 0.49468 0.0
H542 H 0.06389 0.39739 0.55782 0.0
H543 H 0.06687 0.39931 0.45312 0.0
C544 C 0.87699 0.99619 0.13813 0.0
C545 C 0.88351 1.00604 0.2103 0.0
C546 C 0.8934 0.99428 0.07641 0.0
C547 C 0.91697 1.00259 0.08638 0.0
C548 C 0.92409 0.01115 0.16056 0.0
C549 C 0.90735 0.01271 0.22143 0.0
C550 C 0.88505 0.98475 0.99877 0.0
C551 C 0.94891 0.02021 0.17496 0.0
C552 C 0.96106 0.98919 0.92162 0.0
C553 C 0.95838 0.00939 0.87444 0.0
C554 C 0.94833 0.98692 0.99239 0.0
C555 C 0.93279 1.00535 0.01653 0.0
C556 C 0.93119 0.02628 0.97094 0.0
C557 C 0.94383 0.02795 0.90054 0.0
C558 C 0.95092 0.96454 0.04004 0.0
C559 C 0.91551 0.04672 0.99532 0.0
H560 H 0.8587 0.99111 0.12819 0.0
H561 H 0.91285 0.01986 0.27732 0.0
H562 H 0.88404 0.99948 0.95576 0.0
H563 H 0.89785 0.97152 0.97584 0.0
H564 H 0.86727 0.97633 1.00298 0.0
H565 H 0.95383 0.01841 0.23751 0.0
H566 H 0.96227 0.01071 0.13914 0.0
H567 H 0.94969 0.03932 0.15947 0.0
H568 H 0.97241 0.97485 0.90196 0.0
H569 H 0.94197 0.04378 0.86494 0.0
H570 H 0.93392 0.95459 0.03942 0.0
H571 H 0.95489 0.96897 0.10182 0.0
H572 H 0.96519 0.95283 0.01729 0.0
H573 H 0.89667 0.04098 0.99567 0.0
H574 H 0.91724 0.06226 0.95571 0.0
H575 H 0.92004 0.05239 0.05554 0.0
C576 C 0.50414 0.90498 0.2152 0.0
C577 C 0.5099 0.88107 0.20126 0.0
C578 C 0.50605 0.9222 0.1559 0.0
C579 C 0.51405 0.91548 0.08067 0.0
C580 C 0.52149 0.89176 0.06785 0.0
C581 C 0.51926 0.87487 0.12805 0.0
C582 C 0.49801 0.94724 0.1725 0.0
C583 C 0.53031 0.88382 0.98882 0.0
C584 C 0.48839 0.94597 0.90151 0.0
C585 C 0.50722 0.96035 0.87651 0.0
C586 C 0.49021 0.93196 0.96904 0.0
C587 C 0.51152 0.93213 0.01295 0.0
C588 C 0.53036 0.94731 0.98969 0.0
C589 C 0.52796 0.96134 0.92172 0.0
C590 C 0.4695 0.91641 0.99201 0.0
C591 C 0.55332 0.94808 0.03486 0.0
H592 H 0.49736 0.91013 0.27197 0.0
H593 H 0.52363 0.8565 0.11614 0.0
H594 H 0.51091 0.96028 0.14886 0.0
H595 H 0.48076 0.95051 0.1431 0.0
H596 H 0.49572 0.9505 0.23604 0.0
H597 H 0.5382 0.86576 0.99086 0.0
H598 H 0.51531 0.88366 0.94681 0.0
H599 H 0.5438 0.8964 0.96606 0.0
H600 H 0.47222 0.9453 0.8672 0.0
H601 H 0.54256 0.97245 0.90266 0.0
H602 H 0.46429 0.91996 0.05339 0.0
H603 H 0.47475 0.89746 0.98836 0.0
H604 H 0.45378 0.91924 0.95397 0.0
H605 H 0.54979 0.95044 0.09812 0.0
H606 H 0.56515 0.96261 0.01456 0.0
H607 H 0.56281 0.93095 0.02791 0.0
C608 C 0.64951 0.51773 0.10126 0.0
C609 C 0.64124 0.51046 0.17497 0.0
C610 C 0.63409 0.51945 0.03675 0.0
C611 C 0.60981 0.51341 0.04541 0.0
C612 C 0.60111 0.50709 0.12025 0.0
C613 C 0.61683 0.50594 0.18402 0.0
C614 C 0.64408 0.52662 0.95834 0.0
C615 C 0.57543 0.50033 0.13231 0.0
C616 C 0.56609 0.52845 0.88142 0.0
C617 C 0.56602 0.50728 0.83845 0.0
C618 C 0.58021 0.5308 0.94904 0.0
C619 C 0.59418 0.51137 0.97499 0.0
C620 C 0.59359 0.48979 0.93268 0.0
C621 C 0.57972 0.48811 0.86477 0.0
C622 C 0.58055 0.55419 0.99177 0.0
C623 C 0.60777 0.46845 0.95884 0.0
H624 H 0.66827 0.52109 0.09282 0.0
H625 H 0.61001 0.50089 0.24086 0.0
H626 H 0.64417 0.51107 0.91871 0.0
H627 H 0.63278 0.54046 0.93096 0.0
H628 H 0.6625 0.5335 0.96301 0.0
H629 H 0.57101 0.49773 0.19501 0.0
H630 H 0.56355 0.51416 0.10783 0.0
H631 H 0.57163 0.48358 0.10071 0.0
H632 H 0.55553 0.54333 0.86123 0.0
H633 H 0.57957 0.47163 0.83217 0.0
H634 H 0.5988 0.5616 0.99109 0.0
H635 H 0.57555 0.55154 0.05385 0.0
H636 H 0.56829 0.56738 0.96533 0.0
H637 H 0.627 0.47269 0.95767 0.0
H638 H 0.60463 0.4527 0.92131 0.0
H639 H 0.60312 0.46378 0.01996 0.0
C640 C 0.02964 0.62116 0.17056 0.0
C641 C 0.01327 0.63976 0.18047 0.0
C642 C 0.02692 0.60425 0.11096 0.0
C643 C 1.00707 0.60554 0.0604 0.0
C644 C 0.98952 0.62314 0.07378 0.0
C645 C 0.99288 0.6401 0.13325 0.0
C646 C 0.04619 0.58597 0.09896 0.0
C647 C 0.96784 0.62491 0.02238 0.0
C648 C 0.017 0.58607 0.85031 0.0
C649 C 1.00757 0.56306 0.84955 0.0
C650 C 0.01687 0.59991 0.91834 0.0
C651 C 1.00652 0.59081 0.98761 0.0
C652 C 0.99657 0.56765 0.98706 0.0
C653 C 0.99747 0.5539 0.91815 0.0
C654 C 0.02816 0.62422 0.91619 0.0
C655 C 0.98491 0.55749 0.05903 0.0
H656 H 0.0451 0.6202 0.20808 0.0
H657 H 0.98007 0.65429 0.14013 0.0
H658 H 0.03841 0.56801 0.09253 0.0
H659 H 0.05595 0.59002 0.04421 0.0
H660 H 0.0591 0.58564 0.148 0.0
H661 H 0.95416 0.63685 0.04762 0.0
H662 H 0.97302 0.63194 0.96425 0.0
H663 H 0.95989 0.60712 0.01317 0.0
H664 H 0.02493 0.59322 0.79756 0.0
H665 H 0.98999 0.53619 0.91761 0.0
H666 H 0.04259 0.62524 0.96017 0.0
H667 H 0.01485 0.63796 0.93147 0.0
H668 H 0.0357 0.62858 0.85792 0.0
H669 H 0.99803 0.55611 0.1071 0.0
H670 H 0.97722 0.53963 0.04835 0.0
H671 H 0.97059 0.56953 0.07926 0.0
C672 C 0.04 0.17838 0.23922 0.0
C673 C 0.02862 0.19662 0.19834 0.0
C674 C 0.02847 0.15668 0.25223 0.0
C675 C 1.00526 0.15321 0.22236 0.0
C676 C 0.99417 0.17127 0.17807 0.0
C677 C 1.00594 0.19287 0.16708 0.0
C678 C 0.0408 0.13776 0.29987 0.0
C679 C 0.96965 0.16803 0.14412 0.0
C680 C 0.98393 0.08947 0.22418 0.0
C681 C 0.9714 0.08883 0.29491 0.0
C682 C 0.99407 0.11069 0.19725 0.0
C683 C 0.99192 0.13147 0.24309 0.0
C684 C 0.97817 0.13116 0.31221 0.0
C685 C 0.96796 0.10985 0.33703 0.0
C686 C 0.00817 0.11052 0.12227 0.0
C687 C 0.97556 0.15295 0.36285 0.0
H688 H 0.05766 0.18133 0.26246 0.0
H689 H 0.99746 0.20687 0.13365 0.0
H690 H 0.03053 0.13422 0.354 0.0
H691 H 0.0416 0.12092 0.26652 0.0
H692 H 0.05914 0.14295 0.31643 0.0
H693 H 0.9651 0.18223 0.10157 0.0
H694 H 0.96819 0.15058 0.11459 0.0
H695 H 0.95633 0.16831 0.19186 0.0
H696 H 0.98655 0.07319 0.19158 0.0
H697 H 0.95865 0.10932 0.39246 0.0
H698 H 0.0274 0.11017 0.13624 0.0
H699 H 1.0047 0.12678 0.08751 0.0
H700 H 1.00401 0.09474 0.08592 0.0
H701 H 0.99313 0.15794 0.38707 0.0
H702 H 0.96309 0.15006 0.41225 0.0
H703 H 0.96911 0.16817 0.32762 0.0
C704 C 0.29611 0.99301 0.36086 0.0
C705 C 0.30082 0.0098 0.30219 0.0
C706 C 0.3145 0.97944 0.39368 0.0
C707 C 0.33806 0.98299 0.36765 0.0
C708 C 0.34291 0.99997 0.30878 0.0
C709 C 0.32423 0.013 0.2764 0.0
C710 C 0.30875 0.96132 0.45591 0.0
C711 C 0.3679 1.00453 0.28025 0.0
C712 C 0.39173 0.97026 0.4918 0.0
C713 C 0.40175 0.95095 0.45222 0.0
C714 C 0.37013 0.98004 0.4678 0.0
C715 C 0.35806 0.96989 0.40363 0.0
C716 C 0.36722 0.94927 0.36712 0.0
C717 C 0.38926 0.94021 0.39118 0.0
C718 C 0.36123 1.0023 0.50725 0.0
C719 C 0.35458 0.93779 0.2993 0.0
H720 H 0.27806 0.99051 0.38117 0.0
H721 H 0.32796 0.02545 0.22966 0.0
H722 H 0.31579 0.94369 0.43883 0.0
H723 H 0.31747 0.9663 0.51158 0.0
H724 H 0.28935 0.95974 0.46634 0.0
H725 H 0.36862 0.01851 0.23446 0.0
H726 H 0.3793 0.0101 0.32982 0.0
H727 H 0.37561 0.988 0.256 0.0
H728 H 0.40167 0.97886 0.53801 0.0
H729 H 0.39712 0.92533 0.36058 0.0
H730 H 0.34357 0.99899 0.53368 0.0
H731 H 0.3591 0.01677 0.46374 0.0
H732 H 0.37349 0.00857 0.55363 0.0
H733 H 0.33532 0.93613 0.31164 0.0
H734 H 0.36186 0.91992 0.28604 0.0
H735 H 0.35655 0.94908 0.24652 0.0
C736 C 0.46638 0.32668 0.10584 0.0
C737 C 0.44931 0.31591 0.15369 0.0
C738 C 0.47843 0.34704 0.13024 0.0
C739 C 0.47276 0.35724 0.20334 0.0
C740 C 0.45448 0.34723 0.24982 0.0
C741 C 0.44319 0.32637 0.22492 0.0
C742 C 0.49861 0.35607 0.08045 0.0
C743 C 0.44789 0.35771 0.32796 0.0
C744 C 0.52067 0.39058 0.3126 0.0
C745 C 0.51373 0.41423 0.30127 0.0
C746 C 0.50768 0.37189 0.27992 0.0
C747 C 0.48732 0.377 0.23453 0.0
C748 C 0.48086 0.40084 0.21968 0.0
C749 C 0.49414 0.41921 0.25337 0.0
C750 C 0.51549 0.34666 0.29525 0.0
C751 C 0.45972 0.40686 0.16923 0.0
H752 H 0.47156 0.31817 0.05163 0.0
H753 H 0.43023 0.31774 0.26222 0.0
H754 H 0.50178 0.3753 0.08865 0.0
H755 H 0.5151 0.34648 0.09666 0.0
H756 H 0.49519 0.35252 0.01774 0.0
H757 H 0.43192 0.34913 0.35354 0.0
H758 H 0.4629 0.35551 0.36932 0.0
H759 H 0.44447 0.37703 0.322 0.0
H760 H 0.53608 0.38666 0.34828 0.0
H761 H 0.48864 0.43744 0.24448 0.0
H762 H 0.51874 0.33742 0.23909 0.0
H763 H 0.50122 0.33685 0.32619 0.0
H764 H 0.53192 0.34575 0.33099 0.0
H765 H 0.46206 0.39899 0.1103 0.0
H766 H 0.45715 0.42631 0.16282 0.0
H767 H 0.44339 0.39907 0.19487 0.0
C768 C 0.21012 0.47928 0.3424 0.0
C769 C 0.23066 0.48967 0.3118 0.0
C770 C 0.19172 0.49337 0.37172 0.0
C771 C 0.19402 0.51841 0.37005 0.0
C772 C 0.21552 0.52891 0.34542 0.0
C773 C 0.23362 0.51437 0.31625 0.0
C774 C 0.16916 0.4815 0.39925 0.0
C775 C 0.21877 0.55549 0.34416 0.0
C776 C 0.13346 0.54484 0.34181 0.0
C777 C 0.12651 0.54772 0.41954 0.0
C778 C 0.15657 0.53751 0.32387 0.0
C779 C 0.17284 0.53321 0.38545 0.0
C780 C 0.16672 0.53915 0.46305 0.0
C781 C 0.14344 0.54624 0.47934 0.0
C782 C 0.16261 0.53172 0.24009 0.0
C783 C 0.18382 0.53555 0.52987 0.0
H784 H 0.20798 0.46017 0.33981 0.0
H785 H 0.24942 0.52253 0.29198 0.0
H786 H 0.16412 0.48814 0.45793 0.0
H787 H 0.15444 0.48589 0.35864 0.0
H788 H 0.17094 0.46188 0.40223 0.0
H789 H 0.23782 0.56048 0.34035 0.0
H790 H 0.2095 0.56299 0.29253 0.0
H791 H 0.21097 0.5638 0.39699 0.0
H792 H 0.12025 0.54599 0.29586 0.0
H793 H 0.13794 0.54876 0.53949 0.0
H794 H 0.16303 0.51216 0.2326 0.0
H795 H 0.18043 0.53864 0.22466 0.0
H796 H 0.14941 0.53919 0.19858 0.0
H797 H 0.18355 0.51663 0.54787 0.0
H798 H 0.17885 0.54651 0.58122 0.0
H799 H 0.20225 0.54001 0.51238 0.0
C800 C 0.07873 0.82555 0.33598 0.0
C801 C 0.08438 0.80676 0.28556 0.0
C802 C 0.07816 0.84903 0.30877 0.0
C803 C 0.08331 0.85375 0.22937 0.0
C804 C 0.09103 0.83512 0.18008 0.0
C805 C 0.09145 0.81181 0.20881 0.0
C806 C 0.07059 0.86857 0.36358 0.0
C807 C 0.09709 0.83952 0.09537 0.0
C808 C 0.04934 0.90201 0.12355 0.0
C809 C 0.06641 0.92 0.11688 0.0
C810 C 0.05443 0.88077 0.16273 0.0
C811 C 0.07731 0.87721 0.19501 0.0
C812 C 0.09437 0.89556 0.19114 0.0
C813 C 0.08866 0.91682 0.15263 0.0
C814 C 0.03552 0.86181 0.16739 0.0
C815 C 0.11899 0.89239 0.22439 0.0
H816 H 0.07313 0.82178 0.39531 0.0
H817 H 0.09618 0.79737 0.17005 0.0
H818 H 0.08488 0.88202 0.36822 0.0
H819 H 0.05471 0.87777 0.34007 0.0
H820 H 0.06651 0.86182 0.4231 0.0
H821 H 0.10582 0.82393 0.06804 0.0
H822 H 0.0806 0.84351 0.06239 0.0
H823 H 0.10898 0.85511 0.08957 0.0
H824 H 0.03223 0.90409 0.09546 0.0
H825 H 0.10183 0.93079 0.14918 0.0
H826 H 0.03273 0.85639 0.22909 0.0
H827 H 0.04137 0.84585 0.13471 0.0
H828 H 0.01828 0.86785 0.14293 0.0
H829 H 0.11822 0.88467 0.28395 0.0
H830 H 0.12892 0.9094 0.22684 0.0
H831 H 0.12909 0.87982 0.18724 0.0
C832 C 0.71885 0.0816 0.18764 0.0
C833 C 0.72257 0.07954 0.26843 0.0
C834 C 0.69591 0.08062 0.15604 0.0
C835 C 0.67619 0.07799 0.20657 0.0
C836 C 0.67963 0.07795 0.28838 0.0
C837 C 0.70277 0.07854 0.31835 0.0
C838 C 0.69294 0.08072 0.06837 0.0
C839 C 0.65892 0.07618 0.34417 0.0
C840 C 0.61462 0.08499 0.11911 0.0
C841 C 0.60847 0.06128 0.10424 0.0
C842 C 0.63641 0.09078 0.15391 0.0
C843 C 0.65245 0.07242 0.17371 0.0
C844 C 0.64608 0.04844 0.16068 0.0
C845 C 0.62416 0.04316 0.12623 0.0
C846 C 0.6425 0.11652 0.16764 0.0
C847 C 0.66258 0.02833 0.18229 0.0
H848 H 0.73398 0.08289 0.14873 0.0
H849 H 0.70531 0.07677 0.38082 0.0
H850 H 0.68721 0.06285 0.04873 0.0
H851 H 0.67894 0.09348 0.05069 0.0
H852 H 0.70967 0.08537 0.03757 0.0
H853 H 0.66471 0.0744 0.40593 0.0
H854 H 0.64776 0.09232 0.3389 0.0
H855 H 0.64752 0.06081 0.32912 0.0
H856 H 0.60269 0.0991 0.10141 0.0
H857 H 0.61933 0.02481 0.11605 0.0
H858 H 0.6578 0.12165 0.13048 0.0
H859 H 0.64789 0.11926 0.22928 0.0
H860 H 0.6274 0.12853 0.15419 0.0
H861 H 0.67961 0.03021 0.15025 0.0
H862 H 0.6549 0.01066 0.16869 0.0
H863 H 0.66669 0.029 0.24565 0.0
C864 C 0.4565 0.71412 0.15401 0.0
C865 C 0.43812 0.72333 0.2002 0.0
C866 C 0.45447 0.69188 0.11842 0.0
C867 C 0.43358 0.67836 0.12963 0.0
C868 C 0.41454 0.68787 0.17352 0.0
C869 C 0.41703 0.71029 0.20834 0.0
C870 C 0.47518 0.68239 0.0718 0.0
C871 C 0.39197 0.67398 0.18633 0.0
C872 C 0.42849 0.62682 0.98922 0.0
C873 C 0.43928 0.60855 0.03229 0.0
C874 C 0.42508 0.64938 0.02182 0.0
C875 C 0.43261 0.65371 0.09931 0.0
C876 C 0.44204 0.63492 0.14476 0.0
C877 C 0.4453 0.61256 0.11064 0.0
C878 C 0.41481 0.66892 0.97171 0.0
C879 C 0.45022 0.63882 0.2278 0.0
H880 H 0.47305 0.72378 0.14859 0.0
H881 H 0.40267 0.71739 0.24338 0.0
H882 H 0.48272 0.6666 0.10166 0.0
H883 H 0.46917 0.67665 0.01309 0.0
H884 H 0.4895 0.69575 0.06447 0.0
H885 H 0.37798 0.68477 0.21512 0.0
H886 H 0.385 0.66729 0.1299 0.0
H887 H 0.39575 0.6583 0.22359 0.0
H888 H 0.42339 0.62367 0.92905 0.0
H889 H 0.45379 0.5986 0.14414 0.0
H890 H 0.42907 0.68162 0.95581 0.0
H891 H 0.40108 0.67895 1.00435 0.0
H892 H 0.40682 0.66196 0.91703 0.0
H893 H 0.46633 0.65014 0.22773 0.0
H894 H 0.45453 0.62188 0.25794 0.0
H895 H 0.43638 0.64823 0.26186 0.0
C896 C 0.81039 0.44313 0.28757 0.0
C897 C 0.79059 0.4305 0.26082 0.0
C898 C 0.83158 0.44337 0.245 0.0
C899 C 0.83321 0.43007 0.17514 0.0
C900 C 0.81369 0.41618 0.15016 0.0
C901 C 0.79239 0.41686 0.19278 0.0
C902 C 0.85181 0.45878 0.27296 0.0
C903 C 0.81498 0.40144 0.07676 0.0
C904 C 0.87714 0.4547 0.02875 0.0
C905 C 0.89751 0.44129 0.0453 0.0
C906 C 0.85581 0.45061 0.06863 0.0
C907 C 0.8547 0.4324 0.12561 0.0
C908 C 0.87483 0.41805 0.14001 0.0
C909 C 0.89607 0.42278 0.10011 0.0
C910 C 0.8348 0.46654 0.05244 0.0
C911 C 0.87419 0.39827 0.19959 0.0
H912 H 0.80883 0.45404 0.33946 0.0
H913 H 0.77697 0.40725 0.17203 0.0
H914 H 0.867 0.44744 0.29053 0.0
H915 H 0.85804 0.47061 0.2253 0.0
H916 H 0.84666 0.47 0.32344 0.0
H917 H 0.79942 0.38948 0.07065 0.0
H918 H 0.81566 0.41329 0.02498 0.0
H919 H 0.83141 0.39058 0.07646 0.0
H920 H 0.87796 0.46868 0.98525 0.0
H921 H 0.91175 0.41243 0.11376 0.0
H922 H 0.83053 0.47698 0.10555 0.0
H923 H 0.81892 0.45578 0.03809 0.0
H924 H 0.8382 0.47908 1.00352 0.0
H925 H 0.87309 0.40592 0.25914 0.0
H926 H 0.89022 0.38682 0.19647 0.0
H927 H 0.85822 0.38707 0.19098 0.0
C928 C 0.00848 0.19026 0.89775 0.0
C929 C 0.02184 0.20661 0.85364 0.0
C930 C 1.00472 0.16683 0.87171 0.0
C931 C 0.01502 0.15909 0.80059 0.0
C932 C 0.02792 0.17558 0.75467 0.0
C933 C 0.03085 0.1991 0.78101 0.0
C934 C 0.99032 0.15009 0.9217 0.0
C935 C 0.03961 0.16812 0.67922 0.0
C936 C 0.02925 0.09292 0.78813 0.0
C937 C 0.01132 0.08433 0.73873 0.0
C938 C 0.03092 0.11716 0.80695 0.0
C939 C 0.01386 0.13337 0.7775 0.0
C940 C 0.99572 0.12484 0.7273 0.0
C941 C 0.99486 0.10051 0.70769 0.0
C942 C 0.05091 0.12538 0.85907 0.0
C943 C 0.97681 0.14129 0.69615 0.0
H944 H 1.00164 0.19539 0.9544 0.0
H945 H 0.04071 0.21147 0.74503 0.0
H946 H 0.97596 0.14194 0.88641 0.0
H947 H 1.00175 0.13546 0.94323 0.0
H948 H 0.98224 0.15915 0.97275 0.0
H949 H 0.04811 0.18325 0.64834 0.0
H950 H 0.05337 0.15453 0.69163 0.0
H951 H 0.02641 0.15988 0.6396 0.0
H952 H 0.04213 0.0806 0.8121 0.0
H953 H 0.9808 0.09402 0.67018 0.0
H954 H 0.0436 0.13236 0.91466 0.0
H955 H 0.06078 0.14007 0.83053 0.0
H956 H 0.06359 0.11088 0.87298 0.0
H957 H 0.96666 0.14899 0.74556 0.0
H958 H 0.96423 0.13209 0.6565 0.0
H959 H 0.98505 0.15628 0.66401 0.0
C960 C 0.32782 0.01085 0.91755 0.0
C961 C 0.3119 0.02558 0.87671 0.0
C962 C 0.35132 1.00741 0.89151 0.0
C963 C 0.35942 0.0191 0.8231 0.0
C964 C 0.34325 0.03328 0.78002 0.0
C965 C 0.31978 0.03627 0.80705 0.0
C966 C 0.36778 0.99197 0.93919 0.0
C967 C 0.35099 0.0461 0.70684 0.0
C968 C 0.42585 0.03252 0.81096 0.0
C969 C 0.4341 0.01515 0.7589 0.0
C970 C 0.40166 0.03421 0.831 0.0
C971 C 0.38514 0.0178 0.79971 0.0
C972 C 0.39333 1.00016 0.74714 0.0
C973 C 0.41761 0.99921 0.72665 0.0
C974 C 0.3938 0.05353 0.88627 0.0
C975 C 0.37654 0.98186 0.71426 0.0
H976 H 0.32227 1.00273 0.97198 0.0
H977 H 0.30769 0.04738 0.77407 0.0
H978 H 0.37686 0.9789 0.90111 0.0
H979 H 0.38172 1.00313 0.9664 0.0
H980 H 0.35826 0.98226 0.98623 0.0
H981 H 0.33593 0.0549 0.67654 0.0
H982 H 0.36438 0.05978 0.72201 0.0
H983 H 0.35955 0.03355 0.66578 0.0
H984 H 0.43836 0.045 0.83594 0.0
H985 H 0.42377 0.98556 0.687 0.0
H986 H 0.38607 0.04554 0.9398 0.0
H987 H 0.37974 0.06446 0.85853 0.0
H988 H 0.40866 0.06536 0.90361 0.0
H989 H 0.36919 0.97094 0.76251 0.0
H990 H 0.38538 0.96987 0.67183 0.0
H991 H 0.36132 0.99067 0.68513 0.0
C992 C 0.48201 0.32125 0.83105 0.0
C993 C 0.50022 0.31072 0.8754 0.0
C994 C 0.48343 0.34499 0.80583 0.0
C995 C 0.50351 0.35887 0.82537 0.0
C996 C 0.52195 0.34845 0.87027 0.0
C997 C 0.52011 0.32457 0.89466 0.0
C998 C 0.46305 0.35546 0.76004 0.0
C999 C 0.54337 0.36273 0.89416 0.0
C1000 C 0.51594 0.41462 0.70385 0.0
C1001 C 0.50715 0.43272 0.7522 0.0
C1002 C 0.51504 0.39061 0.72717 0.0
C1003 C 0.50484 0.3844 0.80023 0.0
C1004 C 0.49552 0.40262 0.84837 0.0
C1005 C 0.49708 0.42644 0.8243 0.0
C1006 C 0.52507 0.37187 0.67364 0.0
C1007 C 0.48438 0.39737 0.92661 0.0
H1008 H 0.46621 0.3111 0.81762 0.0
H1009 H 0.53426 0.31677 0.929 0.0
H1010 H 0.45503 0.37029 0.79353 0.0
H1011 H 0.46957 0.3629 0.70394 0.0
H1012 H 0.449 0.34219 0.74735 0.0
H1013 H 0.55672 0.35184 0.92579 0.0
H1014 H 0.5519 0.37072 0.84192 0.0
H1015 H 0.53772 0.37751 0.9327 0.0
H1016 H 0.52381 0.41922 0.64807 0.0
H1017 H 0.49023 0.4402 0.86233 0.0
H1018 H 0.51102 0.35892 0.65805 0.0
H1019 H 0.53932 0.36191 0.70417 0.0
H1020 H 0.53247 0.37954 0.61897 0.0
H1021 H 0.47493 0.38012 0.92708 0.0
H1022 H 0.47165 0.41148 0.94401 0.0
H1023 H 0.49864 0.39683 0.9711 0.0
C1024 C 0.19589 0.51391 0.87825 0.0
C1025 C 0.20634 0.49123 0.87994 0.0
C1026 C 0.172 0.51716 0.85559 0.0
C1027 C 0.15804 0.49733 0.8336 0.0
C1028 C 0.16858 0.4745 0.83363 0.0
C1029 C 0.19239 0.47173 0.85703 0.0
C1030 C 0.16156 0.54182 0.85644 0.0
C1031 C 0.15453 0.45283 0.81033 0.0
C1032 C 0.09033 0.49939 0.85094 0.0
C1033 C 0.08316 0.50325 0.7733 0.0
C1034 C 0.11452 0.49798 0.87143 0.0
C1035 C 0.13223 0.50018 0.81294 0.0
C1036 C 0.12514 0.50419 0.7345 0.0
C1037 C 0.10079 0.50586 0.71579 0.0
C1038 C 0.12115 0.49384 0.95584 0.0
C1039 C 0.1433 0.50652 0.67013 0.0
H1040 H 0.20638 0.5292 0.89486 0.0
H1041 H 0.19984 0.45403 0.8595 0.0
H1042 H 0.15455 0.54639 0.79776 0.0
H1043 H 0.14642 0.54251 0.89786 0.0
H1044 H 0.17477 0.55547 0.87373 0.0
H1045 H 0.16554 0.43647 0.80988 0.0
H1046 H 0.13956 0.45018 0.85158 0.0
H1047 H 0.14678 0.45538 0.75131 0.0
H1048 H 0.07698 0.49749 0.89613 0.0
H1049 H 0.0956 0.50884 0.65566 0.0
H1050 H 0.1333 0.50804 0.97616 0.0
H1051 H 0.13077 0.47675 0.96164 0.0
H1052 H 0.10538 0.49341 0.99483 0.0
H1053 H 0.15434 0.52249 0.68042 0.0
H1054 H 0.135 0.50801 0.61153 0.0
H1055 H 0.15538 0.49097 0.6702 0.0
C1056 C 1.00547 0.82876 0.48284 0.0
C1057 C 0.9989 0.80994 0.53231 0.0
C1058 C 1.00472 0.85248 0.50842 0.0
C1059 C 0.99746 0.8577 0.58578 0.0
C1060 C 0.99019 0.83889 0.63537 0.0
C1061 C 0.99098 0.81532 0.60813 0.0
C1062 C 0.0123 0.87194 0.45309 0.0
C1063 C 0.98192 0.84364 0.71776 0.0
C1064 C 0.0194 0.91585 0.67517 0.0
C1065 C 1.00007 0.93107 0.66216 0.0
C1066 C 0.01869 0.89192 0.6514 0.0
C1067 C 0.99801 0.88277 0.615 0.0
C1068 C 0.97817 0.89787 0.60411 0.0
C1069 C 0.97952 0.9218 0.62709 0.0
C1070 C 0.04037 0.87657 0.66319 0.0
C1071 C 0.95563 0.88887 0.5668 0.0
H1072 H 0.01205 0.82494 0.4247 0.0
H1073 H 0.98557 0.80103 0.64665 0.0
H1074 H 0.99825 0.88566 0.44859 0.0
H1075 H 0.02842 0.88079 0.47613 0.0
H1076 H 0.0161 0.86511 0.39356 0.0
H1077 H 0.97579 0.82726 0.74779 0.0
H1078 H 0.99662 0.85151 0.75219 0.0
H1079 H 0.96718 0.85671 0.71735 0.0
H1080 H 0.03541 0.92283 0.70165 0.0
H1081 H 0.96441 0.93333 0.61714 0.0
H1082 H 0.04723 0.87065 0.60564 0.0
H1083 H 0.03563 0.86042 0.69687 0.0
H1084 H 0.05478 0.88606 0.6945 0.0
H1085 H 0.95921 0.88354 0.50557 0.0
H1086 H 0.94131 0.90243 0.56672 0.0
H1087 H 0.94918 0.87288 0.5982 0.0
C1088 C 0.70215 0.99078 0.61322 0.0
C1089 C 0.70896 1.00072 0.54134 0.0
C1090 C 0.67818 0.99048 0.63693 0.0
C1091 C 0.66053 1.00063 0.58817 0.0
C1092 C 0.66726 0.01024 0.51484 0.0
C1093 C 0.6913 0.01019 0.49247 0.0
C1094 C 0.67177 0.97949 0.71459 0.0
C1095 C 0.64923 0.02139 0.46086 0.0
C1096 C 0.59503 0.98499 0.61443 0.0
C1097 C 0.58655 1.0042 0.65859 0.0
C1098 C 0.61909 0.98332 0.59284 0.0
C1099 C 0.63511 1.00157 0.61419 0.0
C1100 C 0.62665 0.02101 0.65881 0.0
C1101 C 0.60259 0.02194 0.6813 0.0
C1102 C 0.62733 0.96211 0.54636 0.0
C1103 C 0.64294 0.04112 0.68135 0.0
H1104 H 0.71561 0.98328 0.65116 0.0
H1105 H 0.69637 0.01836 0.43754 0.0
H1106 H 0.66418 0.9932 0.75376 0.0
H1107 H 0.65797 0.96568 0.70631 0.0
H1108 H 0.68734 0.97131 0.74399 0.0
H1109 H 0.65655 0.02424 0.40134 0.0
H1110 H 0.63312 0.01019 0.45598 0.0
H1111 H 0.64367 0.03879 0.485 0.0
H1112 H 0.58285 0.97109 0.59705 0.0
H1113 H 0.59621 0.03691 0.71497 0.0
H1114 H 0.64245 0.95338 0.57637 0.0
H1115 H 0.63374 0.96797 0.48814 0.0
H1116 H 0.61299 0.94884 0.53786 0.0
H1117 H 0.6582 0.03423 0.71543 0.0
H1118 H 0.63373 0.05487 0.71661 0.0
H1119 H 0.65021 0.04961 0.62791 0.0
C1120 C 0.53514 0.69599 0.53395 0.0
C1121 C 0.51278 0.70686 0.53146 0.0
C1122 C 0.53751 0.67195 0.55561 0.0
C1123 C 0.51698 0.65832 0.57285 0.0
C1124 C 0.49434 0.66924 0.56905 0.0
C1125 C 0.49257 0.69339 0.54936 0.0
C1126 C 0.56198 0.66116 0.56066 0.0
C1127 C 0.47193 0.65535 0.58489 0.0
C1128 C 0.51907 0.59079 0.55734 0.0
C1129 C 0.51901 0.58387 0.63613 0.0
C1130 C 0.51874 0.61492 0.53589 0.0
C1131 C 0.51895 0.63264 0.59458 0.0
C1132 C 0.51969 0.62572 0.67422 0.0
C1133 C 0.51939 0.60147 0.69402 0.0
C1134 C 0.51729 0.62143 0.45041 0.0
C1135 C 0.5204 0.64396 0.73867 0.0
H1136 H 0.55076 0.70641 0.5201 0.0
H1137 H 0.47523 0.70171 0.54639 0.0
H1138 H 0.56495 0.65384 0.62009 0.0
H1139 H 0.56354 0.6462 0.51897 0.0
H1140 H 0.57618 0.67426 0.54764 0.0
H1141 H 0.45568 0.66629 0.57731 0.0
H1142 H 0.47088 0.63992 0.54485 0.0
H1143 H 0.47218 0.64828 0.6454 0.0
H1144 H 0.51856 0.57732 0.51224 0.0
H1145 H 0.51947 0.59628 0.75504 0.0
H1146 H 0.53207 0.63349 0.43444 0.0
H1147 H 0.50048 0.63111 0.43893 0.0
H1148 H 0.51798 0.60561 0.41185 0.0
H1149 H 0.53505 0.65673 0.72816 0.0
H1150 H 0.52288 0.63575 0.79716 0.0
H1151 H 0.5036 0.65423 0.73916 0.0
C1152 C 0.81746 0.52978 0.5879 0.0
C1153 C 0.81065 0.51416 0.52824 0.0
C1154 C 0.84102 0.53034 0.61557 0.0
C1155 C 0.85812 0.51454 0.5841 0.0
C1156 C 0.85119 0.49844 0.52479 0.0
C1157 C 0.8277 0.49867 0.49699 0.0
C1158 C 0.84767 0.54794 0.6782 0.0
C1159 C 0.86857 0.48103 0.48982 0.0
C1160 C 0.92428 0.52856 0.59393 0.0
C1161 C 0.93205 0.51392 0.65541 0.0
C1162 C 0.90025 0.52938 0.57168 0.0
C1163 C 0.88339 0.51518 0.61148 0.0
C1164 C 0.89098 0.50075 0.67472 0.0
C1165 C 0.91515 0.50035 0.69606 0.0
C1166 C 0.89301 0.54507 0.50415 0.0
C1167 C 0.87369 0.48505 0.718 0.0
H1168 H 0.80438 0.54177 0.61235 0.0
H1169 H 0.8225 0.48625 0.4518 0.0
H1170 H 0.85481 0.53847 0.72998 0.0
H1171 H 0.86189 0.55985 0.65642 0.0
H1172 H 0.83233 0.55896 0.69688 0.0
H1173 H 0.85937 0.46617 0.45999 0.0
H1174 H 0.8798 0.49036 0.44624 0.0
H1175 H 0.88048 0.47345 0.53504 0.0
H1176 H 0.93704 0.53923 0.5621 0.0
H1177 H 0.92085 0.48893 0.74349 0.0
H1178 H 0.87813 0.55681 0.52173 0.0
H1179 H 0.88661 0.53392 0.45513 0.0
H1180 H 0.90789 0.55626 0.48272 0.0
H1181 H 0.85846 0.49566 0.73954 0.0
H1182 H 0.88206 0.47586 0.76845 0.0
H1183 H 0.8665 0.47148 0.67752 0.0
loop_
_geom_bond_atom_site_label_1
_geom_bond_atom_site_label_2
_geom_bond_distance
_geom_bond_site_symmetry_2
_ccdc_geom_bond_type
P0 O11 1.490 . S
P0 C14 1.812 . S
P0 C20 1.803 . S
P0 C26 1.819 . S
H1 C15 0.941 . S
H2 C16 0.939 . S
H3 C18 0.940 . S
H4 C19 0.940 . S
H5 C21 0.939 . S
H6 C22 0.942 . S
H7 C24 0.940 . S
H8 C25 0.939 . S
H9 C27 0.941 . S
H10 C31 0.939 . S
O11 P0 1.490 . S
H12 C28 0.939 . S
H13 C30 0.940 . S
C14 P0 1.812 . S
C14 C15 1.389 . S
C14 C19 1.391 . S
C15 H1 0.941 . S
C15 C14 1.389 . S
C15 C16 1.397 . S
C16 H2 0.939 . S
C16 C15 1.397 . S
C16 C17 1.378 . S
C17 C16 1.378 . S
C17 C18 1.378 . S
C18 H3 0.940 . S
C18 C17 1.378 . S
C18 C19 1.396 . S
C19 H4 0.940 . S
C19 C14 1.391 . S
C19 C18 1.396 . S
C20 P0 1.803 . S
C20 C21 1.378 . S
C20 C25 1.400 . S
C21 H5 0.939 . S
C21 C20 1.378 . S
C21 C22 1.361 . S
C22 H6 0.942 . S
C22 C21 1.361 . S
C22 C23 1.369 . S
C23 C22 1.369 . S
C23 C24 1.404 . S
C24 H7 0.940 . S
C24 C23 1.404 . S
C24 C25 1.389 . S
C25 H8 0.939 . S
C25 C20 1.400 . S
C25 C24 1.389 . S
C26 P0 1.819 . S
C26 C27 1.391 . S
C26 C31 1.391 . S
C27 H9 0.941 . S
C27 C26 1.391 . S
C27 C28 1.396 . S
C28 H12 0.939 . S
C28 C27 1.396 . S
C28 C29 1.397 . S
C29 C28 1.397 . S
C29 C30 1.385 . S
C30 H13 0.940 . S
C30 C29 1.385 . S
C30 C31 1.388 . S
C31 H10 0.939 . S
C31 C26 1.391 . S
C31 C30 1.388 . S
P32 O43 1.490 . S
P32 C46 1.812 . S
P32 C52 1.803 . S
P32 C58 1.819 . S
H33 C47 0.941 . S
H34 C48 0.939 . S
H35 C50 0.940 . S
H36 C51 0.950 . S
H37 C53 0.939 . S
H38 C54 0.942 . S
H39 C56 0.940 . S
H40 C57 0.959 . S
H41 C59 0.941 . S
H42 C63 0.929 1_655 S
O43 P32 1.490 . S
H44 C60 0.939 . S
H45 C62 0.940 . S
C46 P32 1.812 . S
C46 C47 1.389 . S
C46 C51 1.375 1_455 S
C47 H33 0.941 . S
C47 C46 1.389 . S
C47 C48 1.397 . S
C48 H34 0.939 . S
C48 C47 1.397 . S
C48 C49 1.378 . S
C49 C48 1.378 . S
C49 C50 1.378 1_455 S
C50 H35 0.940 . S
C50 C49 1.378 1_655 S
C50 C51 1.403 . S
C51 H36 0.950 . S
C51 C46 1.375 1_655 S
C51 C50 1.403 . S
C52 P32 1.803 . S
C52 C53 1.378 . S
C52 C57 1.368 1_455 S
C53 H37 0.939 . S
C53 C52 1.378 . S
C53 C54 1.361 . S
C54 H38 0.942 . S
C54 C53 1.361 . S
C54 C55 1.369 . S
C55 C54 1.369 . S
C55 C56 1.404 1_455 S
C56 H39 0.940 . S
C56 C55 1.404 1_655 S
C56 C57 1.402 . S
C57 H40 0.959 . S
C57 C52 1.368 1_655 S
C57 C56 1.402 . S
C58 P32 1.819 . S
C58 C59 1.391 . S
C58 C63 1.391 . S
C59 H41 0.941 . S
C59 C58 1.391 . S
C59 C60 1.396 . S
C60 H44 0.939 . S
C60 C59 1.396 . S
C60 C61 1.397 . S
C61 C60 1.397 . S
C61 C62 1.385 1_455 S
C62 H45 0.940 . S
C62 C61 1.385 1_655 S
C62 C63 1.388 1_655 S
C63 H42 0.929 1_455 S
C63 C58 1.391 . S
C63 C62 1.388 1_455 S
P64 O75 1.490 . S
P64 C78 1.812 . S
P64 C84 1.803 . S
P64 C90 1.819 . S
H65 C79 0.941 . S
H66 C80 0.939 . S
H67 C82 0.940 . S
H68 C83 0.950 . S
H69 C85 0.939 . S
H70 C86 0.942 . S
H71 C88 0.940 . S
H72 C89 0.959 . S
H73 C91 0.941 . S
H74 C95 0.929 1_565 S
O75 P64 1.490 . S
H76 C92 0.939 . S
H77 C94 0.940 . S
C78 P64 1.812 . S
C78 C79 1.389 . S
C78 C83 1.375 1_545 S
C79 H65 0.941 . S
C79 C78 1.389 . S
C79 C80 1.397 . S
C80 H66 0.939 . S
C80 C79 1.397 . S
C80 C81 1.378 . S
C81 C80 1.378 . S
C81 C82 1.378 1_545 S
C82 H67 0.940 . S
C82 C81 1.378 1_565 S
C82 C83 1.403 . S
C83 H68 0.950 . S
C83 C78 1.375 1_565 S
C83 C82 1.403 . S
C84 P64 1.803 . S
C84 C85 1.378 . S
C84 C89 1.368 1_545 S
C85 H69 0.939 . S
C85 C84 1.378 . S
C85 C86 1.361 . S
C86 H70 0.942 . S
C86 C85 1.361 . S
C86 C87 1.369 . S
C87 C86 1.369 . S
C87 C88 1.404 1_545 S
C88 H71 0.940 . S
C88 C87 1.404 1_565 S
C88 C89 1.402 . S
C89 H72 0.959 . S
C89 C84 1.368 1_565 S
C89 C88 1.402 . S
C90 P64 1.819 . S
C90 C91 1.391 . S
C90 C95 1.391 . S
C91 H73 0.941 . S
C91 C90 1.391 . S
C91 C92 1.396 . S
C92 H76 0.939 . S
C92 C91 1.396 . S
C92 C93 1.397 . S
C93 C92 1.397 . S
C93 C94 1.385 1_545 S
C94 H77 0.940 . S
C94 C93 1.385 1_565 S
C94 C95 1.388 1_565 S
C95 H74 0.929 1_545 S
C95 C90 1.391 . S
C95 C94 1.388 1_545 S
P96 O107 1.490 . S
P96 C110 1.812 . S
P96 C116 1.803 . S
P96 C122 1.819 . S
H97 C111 0.941 . S
H98 C112 0.939 . S
H99 C114 0.940 . S
H100 C115 0.940 . S
H101 C117 0.939 . S
H102 C118 0.942 . S
H103 C120 0.940 . S
H104 C121 0.939 . S
H105 C123 0.941 . S
H106 C127 0.939 . S
O107 P96 1.490 . S
H108 C124 0.939 . S
H109 C126 0.940 . S
C110 P96 1.812 . S
C110 C111 1.389 . S
C110 C115 1.391 . S
C111 H97 0.941 . S
C111 C110 1.389 . S
C111 C112 1.397 . S
C112 H98 0.939 . S
C112 C111 1.397 . S
C112 C113 1.378 . S
C113 C112 1.378 . S
C113 C114 1.378 . S
C114 H99 0.940 . S
C114 C113 1.378 . S
C114 C115 1.396 . S
C115 H100 0.940 . S
C115 C110 1.391 . S
C115 C114 1.396 . S
C116 P96 1.803 . S
C116 C117 1.378 . S
C116 C121 1.400 . S
C117 H101 0.939 . S
C117 C116 1.378 . S
C117 C118 1.361 . S
C118 H102 0.942 . S
C118 C117 1.361 . S
C118 C119 1.369 . S
C119 C118 1.369 . S
C119 C120 1.404 . S
C120 H103 0.940 . S
C120 C119 1.404 . S
C120 C121 1.389 . S
C121 H104 0.939 . S
C121 C116 1.400 . S
C121 C120 1.389 . S
C122 P96 1.819 . S
C122 C123 1.391 . S
C122 C127 1.391 . S
C123 H105 0.941 . S
C123 C122 1.391 . S
C123 C124 1.396 . S
C124 H108 0.939 . S
C124 C123 1.396 . S
C124 C125 1.397 . S
C125 C124 1.397 . S
C125 C126 1.385 . S
C126 H109 0.940 . S
C126 C125 1.385 . S
C126 C127 1.388 . S
C127 H106 0.939 . S
C127 C122 1.391 . S
C127 C126 1.388 . S
P128 O139 1.490 . S
P128 C142 1.812 1_554 S
P128 C148 1.803 . S
P128 C154 1.819 . S
H129 C143 0.941 . S
H130 C144 0.939 . S
H131 C146 0.940 . S
H132 C147 0.940 . S
H133 C149 0.939 . S
H134 C150 0.942 . S
H135 C152 0.940 . S
H136 C153 0.939 . S
H137 C155 0.941 . S
H138 C159 0.939 . S
O139 P128 1.490 . S
H140 C156 0.939 . S
H141 C158 0.940 . S
C142 P128 1.812 1_556 S
C142 C143 1.389 . S
C142 C147 1.391 . S
C143 H129 0.941 . S
C143 C142 1.389 . S
C143 C144 1.397 . S
C144 H130 0.939 . S
C144 C143 1.397 . S
C144 C145 1.378 . S
C145 C144 1.378 . S
C145 C146 1.378 . S
C146 H131 0.940 . S
C146 C145 1.378 . S
C146 C147 1.396 . S
C147 H132 0.940 . S
C147 C142 1.391 . S
C147 C146 1.396 . S
C148 P128 1.803 . S
C148 C149 1.378 . S
C148 C153 1.400 . S
C149 H133 0.939 . S
C149 C148 1.378 . S
C149 C150 1.361 . S
C150 H134 0.942 . S
C150 C149 1.361 . S
C150 C151 1.369 . S
C151 C150 1.369 . S
C151 C152 1.404 . S
C152 H135 0.940 . S
C152 C151 1.404 . S
C152 C153 1.389 . S
C153 H136 0.939 . S
C153 C148 1.400 . S
C153 C152 1.389 . S
C154 P128 1.819 . S
C154 C155 1.391 . S
C154 C159 1.391 . S
C155 H137 0.941 . S
C155 C154 1.391 . S
C155 C156 1.396 . S
C156 H140 0.939 . S
C156 C155 1.396 . S
C156 C157 1.397 . S
C157 C156 1.397 . S
C157 C158 1.385 . S
C158 H141 0.940 . S
C158 C157 1.385 . S
C158 C159 1.388 . S
C159 H138 0.939 . S
C159 C154 1.391 . S
C159 C158 1.388 . S
P160 O171 1.490 . S
P160 C174 1.812 1_554 S
P160 C180 1.803 . S
P160 C186 1.819 . S
H161 C175 0.941 . S
H162 C176 0.939 . S
H163 C178 0.940 . S
H164 C179 0.944 . S
H165 C181 0.939 . S
H166 C182 0.942 . S
H167 C184 0.940 . S
H168 C185 0.952 . S
H169 C187 0.941 . S
H170 C191 0.933 1_655 S
O171 P160 1.490 . S
H172 C188 0.939 . S
H173 C190 0.940 . S
C174 P160 1.812 1_556 S
C174 C175 1.389 . S
C174 C179 1.385 1_455 S
C175 H161 0.941 . S
C175 C174 1.389 . S
C175 C176 1.397 . S
C176 H162 0.939 . S
C176 C175 1.397 . S
C176 C177 1.378 . S
C177 C176 1.378 . S
C177 C178 1.378 1_455 S
C178 H163 0.940 . S
C178 C177 1.378 1_655 S
C178 C179 1.399 . S
C179 H164 0.944 . S
C179 C174 1.385 1_655 S
C179 C178 1.399 . S
C180 P160 1.803 . S
C180 C181 1.378 . S
C180 C185 1.379 1_455 S
C181 H165 0.939 . S
C181 C180 1.378 . S
C181 C182 1.361 . S
C182 H166 0.942 . S
C182 C181 1.361 . S
C182 C183 1.369 . S
C183 C182 1.369 . S
C183 C184 1.404 1_455 S
C184 H167 0.940 . S
C184 C183 1.404 1_655 S
C184 C185 1.398 . S
C185 H168 0.952 . S
C185 C180 1.379 1_655 S
C185 C184 1.398 . S
C186 P160 1.819 . S
C186 C187 1.391 . S
C186 C191 1.391 . S
C187 H169 0.941 . S
C187 C186 1.391 . S
C187 C188 1.396 . S
C188 H172 0.939 . S
C188 C187 1.396 . S
C188 C189 1.397 . S
C189 C188 1.397 . S
C189 C190 1.385 1_455 S
C190 H173 0.940 . S
C190 C189 1.385 1_655 S
C190 C191 1.388 1_655 S
C191 H170 0.933 1_455 S
C191 C186 1.391 . S
C191 C190 1.388 1_455 S
P192 O203 1.490 . S
P192 C206 1.812 1_554 S
P192 C212 1.803 . S
P192 C218 1.819 . S
H193 C207 0.941 . S
H194 C208 0.939 . S
H195 C210 0.940 . S
H196 C211 0.944 . S
H197 C213 0.939 . S
H198 C214 0.942 . S
H199 C216 0.940 . S
H200 C217 0.952 . S
H201 C219 0.941 . S
H202 C223 0.933 1_565 S
O203 P192 1.490 . S
H204 C220 0.939 . S
H205 C222 0.940 . S
C206 P192 1.812 1_556 S
C206 C207 1.389 . S
C206 C211 1.385 1_545 S
C207 H193 0.941 . S
C207 C206 1.389 . S
C207 C208 1.397 . S
C208 H194 0.939 . S
C208 C207 1.397 . S
C208 C209 1.378 . S
C209 C208 1.378 . S
C209 C210 1.378 1_545 S
C210 H195 0.940 . S
C210 C209 1.378 1_565 S
C210 C211 1.399 . S
C211 H196 0.944 . S
C211 C206 1.385 1_565 S
C211 C210 1.399 . S
C212 P192 1.803 . S
C212 C213 1.378 . S
C212 C217 1.379 1_545 S
C213 H197 0.939 . S
C213 C212 1.378 . S
C213 C214 1.361 . S
C214 H198 0.942 . S
C214 C213 1.361 . S
C214 C215 1.369 . S
C215 C214 1.369 . S
C215 C216 1.404 1_545 S
C216 H199 0.940 . S
C216 C215 1.404 1_565 S
C216 C217 1.397 . S
C217 H200 0.952 . S
C217 C212 1.379 1_565 S
C217 C216 1.397 . S
C218 P192 1.819 . S
C218 C219 1.391 . S
C218 C223 1.391 . S
C219 H201 0.941 . S
C219 C218 1.391 . S
C219 C220 1.396 . S
C220 H204 0.939 . S
C220 C219 1.396 . S
C220 C221 1.397 . S
C221 C220 1.397 . S
C221 C222 1.385 1_545 S
C222 H205 0.940 . S
C222 C221 1.385 1_565 S
C222 C223 1.388 1_565 S
C223 H202 0.933 1_545 S
C223 C218 1.391 . S
C223 C222 1.388 1_545 S
P224 O235 1.490 . S
P224 C238 1.812 1_554 S
P224 C244 1.803 . S
P224 C250 1.819 . S
H225 C239 0.941 . S
H226 C240 0.939 . S
H227 C242 0.940 . S
H228 C243 0.940 . S
H229 C245 0.939 . S
H230 C246 0.942 . S
H231 C248 0.940 . S
H232 C249 0.939 . S
H233 C251 0.941 . S
H234 C255 0.939 . S
O235 P224 1.490 . S
H236 C252 0.939 . S
H237 C254 0.940 . S
C238 P224 1.812 1_556 S
C238 C239 1.389 . S
C238 C243 1.391 . S
C239 H225 0.941 . S
C239 C238 1.389 . S
C239 C240 1.397 . S
C240 H226 0.939 . S
C240 C239 1.397 . S
C240 C241 1.378 . S
C241 C240 1.378 . S
C241 C242 1.378 . S
C242 H227 0.940 . S
C242 C241 1.378 . S
C242 C243 1.396 . S
C243 H228 0.940 . S
C243 C238 1.391 . S
C243 C242 1.396 . S
C244 P224 1.803 . S
C244 C245 1.378 . S
C244 C249 1.400 . S
C245 H229 0.939 . S
C245 C244 1.378 . S
C245 C246 1.361 . S
C246 H230 0.942 . S
C246 C245 1.361 . S
C246 C247 1.369 . S
C247 C246 1.369 . S
C247 C248 1.404 . S
C248 H231 0.940 . S
C248 C247 1.404 . S
C248 C249 1.389 . S
C249 H232 0.939 . S
C249 C244 1.400 . S
C249 C248 1.389 . S
C250 P224 1.819 . S
C250 C251 1.391 . S
C250 C255 1.391 . S
C251 H233 0.941 . S
C251 C250 1.391 . S
C251 C252 1.396 . S
C252 H236 0.939 . S
C252 C251 1.396 . S
C252 C253 1.397 . S
C253 C252 1.397 . S
C253 C254 1.385 . S
C254 H237 0.940 . S
C254 C253 1.385 . S
C254 C255 1.388 . S
C255 H234 0.939 . S
C255 C250 1.391 . S
C255 C254 1.388 . S
Sm256 C258 2.846 . S
Sm256 O276 2.543 . S
Sm256 O277 2.450 . S
Sm256 O278 2.681 1_565 S
Sm256 O279 2.464 . S
Sm256 O280 2.396 . S
Sm256 O284 2.386 1_455 S
Sm256 O287 2.408 1_565 S
Sm257 C267 2.846 . S
Sm257 O278 2.386 1_655 S
Sm257 O281 2.408 1_545 S
Sm257 O282 2.543 . S
Sm257 O283 2.450 . S
Sm257 O284 2.681 1_545 S
Sm257 O285 2.464 . S
Sm257 O286 2.396 . S
C258 Sm256 2.846 . S
C258 C259 1.506 . S
C258 O276 1.261 . S
C258 O277 1.242 . S
C259 C258 1.506 . S
C259 C260 1.358 . S
C259 C264 1.382 . S
C260 C259 1.358 . S
C260 C261 1.385 . S
C260 H288 0.930 1_455 S
C261 C260 1.385 . S
C261 C262 1.395 . S
C261 H289 0.908 1_455 S
C262 C261 1.395 . S
C262 C263 1.335 . S
C263 C262 1.335 . S
C263 C264 1.398 . S
C263 H290 0.930 . S
C264 C259 1.382 . S
C264 C263 1.398 . S
C264 H291 0.929 . S
C265 O278 1.271 1_565 S
C265 O279 1.251 . S
C266 O280 1.252 1_655 S
C266 O281 1.272 . S
C267 Sm257 2.846 . S
C267 C268 1.506 . S
C267 O282 1.261 . S
C267 O283 1.242 . S
C268 C267 1.506 . S
C268 C269 1.358 . S
C268 C273 1.382 . S
C269 C268 1.358 . S
C269 C270 1.385 . S
C269 H292 0.930 1_655 S
C270 C269 1.385 . S
C270 C271 1.395 . S
C270 H293 0.899 1_655 S
C271 C270 1.395 . S
C271 C272 1.335 . S
C272 C271 1.335 . S
C272 C273 1.398 . S
C272 H294 0.930 . S
C273 C268 1.382 . S
C273 C272 1.398 . S
C273 H295 0.929 . S
C274 O284 1.271 1_545 S
C274 O285 1.251 . S
C275 O286 1.252 1_455 S
C275 O287 1.272 . S
O276 Sm256 2.543 . S
O276 C258 1.261 . S
O277 Sm256 2.450 . S
O277 C258 1.242 . S
O278 Sm256 2.681 1_545 S
O278 Sm257 2.386 1_455 S
O278 C265 1.271 1_545 S
O279 Sm256 2.464 . S
O279 C265 1.251 . S
O280 Sm256 2.396 . S
O280 C266 1.252 1_455 S
O281 Sm257 2.408 1_565 S
O281 C266 1.272 . S
O282 Sm257 2.543 . S
O282 C267 1.261 . S
O283 Sm257 2.450 . S
O283 C267 1.242 . S
O284 Sm256 2.386 1_655 S
O284 Sm257 2.681 1_565 S
O284 C274 1.271 1_565 S
O285 Sm257 2.464 . S
O285 C274 1.251 . S
O286 Sm257 2.396 . S
O286 C275 1.252 1_655 S
O287 Sm256 2.408 1_545 S
O287 C275 1.272 . S
H288 C260 0.930 1_655 S
H289 C261 0.908 1_655 S
H290 C263 0.930 . S
H291 C264 0.929 . S
H292 C269 0.930 1_455 S
H293 C270 0.899 1_455 S
H294 C272 0.930 . S
H295 C273 0.929 . S
Sm296 C298 2.846 . S
Sm296 O316 2.543 . S
Sm296 O317 2.450 . S
Sm296 O318 2.681 . S
Sm296 O319 2.464 . S
Sm296 O320 2.396 . S
Sm296 O324 2.386 1_545 S
Sm296 O327 2.408 . S
Sm297 C307 2.846 . S
Sm297 O318 2.386 1_565 S
Sm297 O321 2.408 . S
Sm297 O322 2.543 . S
Sm297 O323 2.450 . S
Sm297 O324 2.681 . S
Sm297 O325 2.464 . S
Sm297 O326 2.396 . S
C298 Sm296 2.846 . S
C298 C299 1.506 . S
C298 O316 1.261 . S
C298 O317 1.242 . S
C299 C298 1.506 . S
C299 C300 1.358 . S
C299 C304 1.382 . S
C300 C299 1.358 . S
C300 C301 1.385 . S
C300 H328 0.930 1_545 S
C301 C300 1.385 . S
C301 C302 1.395 . S
C301 H329 0.929 1_545 S
C302 C301 1.395 . S
C302 C303 1.335 . S
C303 C302 1.335 . S
C303 C304 1.398 . S
C303 H330 0.930 . S
C304 C299 1.382 . S
C304 C303 1.398 . S
C304 H331 0.929 . S
C305 O318 1.271 . S
C305 O319 1.251 . S
C306 O320 1.252 1_565 S
C306 O321 1.272 . S
C307 Sm297 2.846 . S
C307 C308 1.506 . S
C307 O322 1.261 . S
C307 O323 1.242 . S
C308 C307 1.506 . S
C308 C309 1.358 . S
C308 C313 1.382 . S
C309 C308 1.358 . S
C309 C310 1.385 . S
C309 H332 0.930 1_565 S
C310 C309 1.385 . S
C310 C311 1.395 . S
C310 H333 0.929 1_565 S
C311 C310 1.395 . S
C311 C312 1.335 . S
C312 C311 1.335 . S
C312 C313 1.398 . S
C312 H334 0.930 . S
C313 C308 1.382 . S
C313 C312 1.398 . S
C313 H335 0.929 . S
C314 O324 1.271 . S
C314 O325 1.251 . S
C315 O326 1.252 1_545 S
C315 O327 1.272 . S
O316 Sm296 2.543 . S
O316 C298 1.261 . S
O317 Sm296 2.450 . S
O317 C298 1.242 . S
O318 Sm296 2.681 . S
O318 Sm297 2.386 1_545 S
O318 C305 1.271 . S
O319 Sm296 2.464 . S
O319 C305 1.251 . S
O320 Sm296 2.396 . S
O320 C306 1.252 1_545 S
O321 Sm297 2.408 . S
O321 C306 1.272 . S
O322 Sm297 2.543 . S
O322 C307 1.261 . S
O323 Sm297 2.450 . S
O323 C307 1.242 . S
O324 Sm296 2.386 1_565 S
O324 Sm297 2.681 . S
O324 C314 1.271 . S
O325 Sm297 2.464 . S
O325 C314 1.251 . S
O326 Sm297 2.396 . S
O326 C315 1.252 1_565 S
O327 Sm296 2.408 . S
O327 C315 1.272 . S
H328 C300 0.930 1_565 S
H329 C301 0.929 1_565 S
H330 C303 0.930 . S
H331 C304 0.929 . S
H332 C309 0.930 1_545 S
H333 C310 0.929 1_545 S
H334 C312 0.930 . S
H335 C313 0.929 . S
Sm336 C338 2.846 . S
Sm336 O356 2.543 . S
Sm336 O357 2.450 . S
Sm336 O358 2.681 . S
Sm336 O359 2.464 . S
Sm336 O360 2.396 . S
Sm336 O364 2.386 . S
Sm336 O367 2.408 . S
Sm337 C347 2.846 . S
Sm337 O358 2.386 . S
Sm337 O361 2.408 . S
Sm337 O362 2.543 . S
Sm337 O363 2.450 . S
Sm337 O364 2.681 . S
Sm337 O365 2.464 . S
Sm337 O366 2.396 . S
C338 Sm336 2.846 . S
C338 C339 1.506 . S
C338 O356 1.261 . S
C338 O357 1.242 . S
C339 C338 1.506 . S
C339 C340 1.358 . S
C339 C344 1.382 . S
C340 C339 1.358 . S
C340 C341 1.385 . S
C340 H368 0.930 . S
C341 C340 1.385 . S
C341 C342 1.395 . S
C341 H369 0.929 . S
C342 C341 1.395 . S
C342 C343 1.335 . S
C343 C342 1.335 . S
C343 C344 1.398 . S
C343 H370 0.930 . S
C344 C339 1.382 . S
C344 C343 1.398 . S
C344 H371 0.929 . S
C345 O358 1.271 . S
C345 O359 1.251 . S
C346 O360 1.252 . S
C346 O361 1.272 . S
C347 Sm337 2.846 . S
C347 C348 1.506 . S
C347 O362 1.261 . S
C347 O363 1.242 . S
C348 C347 1.506 . S
C348 C349 1.358 . S
C348 C353 1.382 . S
C349 C348 1.358 . S
C349 C350 1.385 . S
C349 H372 0.930 . S
C350 C349 1.385 . S
C350 C351 1.395 . S
C350 H373 0.929 . S
C351 C350 1.395 . S
C351 C352 1.335 . S
C352 C351 1.335 . S
C352 C353 1.398 . S
C352 H374 0.930 . S
C353 C348 1.382 . S
C353 C352 1.398 . S
C353 H375 0.929 . S
C354 O364 1.271 . S
C354 O365 1.251 . S
C355 O366 1.252 . S
C355 O367 1.272 . S
O356 Sm336 2.543 . S
O356 C338 1.261 . S
O357 Sm336 2.450 . S
O357 C338 1.242 . S
O358 Sm336 2.681 . S
O358 Sm337 2.386 . S
O358 C345 1.271 . S
O359 Sm336 2.464 . S
O359 C345 1.251 . S
O360 Sm336 2.396 . S
O360 C346 1.252 . S
O361 Sm337 2.408 . S
O361 C346 1.272 . S
O362 Sm337 2.543 . S
O362 C347 1.261 . S
O363 Sm337 2.450 . S
O363 C347 1.242 . S
O364 Sm336 2.386 . S
O364 Sm337 2.681 . S
O364 C354 1.271 . S
O365 Sm337 2.464 . S
O365 C354 1.251 . S
O366 Sm337 2.396 . S
O366 C355 1.252 . S
O367 Sm336 2.408 . S
O367 C355 1.272 . S
H368 C340 0.930 . S
H369 C341 0.929 . S
H370 C343 0.930 . S
H371 C344 0.929 . S
H372 C349 0.930 . S
H373 C350 0.929 . S
H374 C352 0.930 . S
H375 C353 0.929 . S
Sm376 C378 2.846 . S
Sm376 O396 2.543 . S
Sm376 O397 2.450 . S
Sm376 O398 2.681 1_655 S
Sm376 O399 2.464 . S
Sm376 O400 2.396 . S
Sm376 O404 2.386 . S
Sm376 O407 2.408 1_655 S
Sm377 C387 2.846 . S
Sm377 O398 2.386 . S
Sm377 O401 2.408 1_455 S
Sm377 O402 2.543 . S
Sm377 O403 2.450 . S
Sm377 O404 2.681 1_455 S
Sm377 O405 2.464 . S
Sm377 O406 2.396 . S
C378 Sm376 2.846 . S
C378 C379 1.506 . S
C378 O396 1.261 . S
C378 O397 1.242 . S
C379 C378 1.506 . S
C379 C380 1.358 . S
C379 C384 1.382 . S
C380 C379 1.358 . S
C380 C381 1.385 . S
C380 H408 0.930 . S
C381 C380 1.385 . S
C381 C382 1.395 . S
C381 H409 0.929 . S
C382 C381 1.395 . S
C382 C383 1.335 . S
C383 C382 1.335 . S
C383 C384 1.398 . S
C383 H410 0.930 . S
C384 C379 1.382 . S
C384 C383 1.398 . S
C384 H411 0.929 . S
C385 O398 1.262 1_655 S
C385 O399 1.268 . S
C386 O400 1.252 . S
C386 O401 1.272 . S
C387 Sm377 2.846 . S
C387 C388 1.506 . S
C387 O402 1.261 . S
C387 O403 1.242 . S
C388 C387 1.506 . S
C388 C389 1.358 . S
C388 C393 1.382 . S
C389 C388 1.358 . S
C389 C390 1.385 . S
C389 H412 0.930 . S
C390 C389 1.385 . S
C390 C391 1.395 . S
C390 H413 0.929 . S
C391 C390 1.395 . S
C391 C392 1.335 . S
C392 C391 1.335 . S
C392 C393 1.398 . S
C392 H414 0.930 . S
C393 C388 1.382 . S
C393 C392 1.398 . S
C393 H415 0.929 . S
C394 O404 1.258 1_455 S
C394 O405 1.274 . S
C395 O406 1.252 . S
C395 O407 1.272 . S
O396 Sm376 2.543 . S
O396 C378 1.261 . S
O397 Sm376 2.450 . S
O397 C378 1.242 . S
O398 Sm376 2.681 1_455 S
O398 Sm377 2.386 . S
O398 C385 1.262 1_455 S
O399 Sm376 2.464 . S
O399 C385 1.268 . S
O400 Sm376 2.396 . S
O400 C386 1.252 . S
O401 Sm377 2.408 1_655 S
O401 C386 1.272 . S
O402 Sm377 2.543 . S
O402 C387 1.261 . S
O403 Sm377 2.450 . S
O403 C387 1.242 . S
O404 Sm376 2.386 . S
O404 Sm377 2.681 1_655 S
O404 C394 1.258 1_655 S
O405 Sm377 2.464 . S
O405 C394 1.274 . S
O406 Sm377 2.396 . S
O406 C395 1.252 . S
O407 Sm376 2.408 1_455 S
O407 C395 1.272 . S
H408 C380 0.930 . S
H409 C381 0.929 . S
H410 C383 0.930 . S
H411 C384 0.929 . S
H412 C389 0.930 . S
H413 C390 0.929 . S
H414 C392 0.930 . S
H415 C393 0.929 . S
C416 C417 1.391 1_565 S
C416 C418 1.394 . S
C416 H432 0.931 . S
C417 C416 1.391 1_545 S
C417 C421 1.376 . S
C418 C416 1.394 . S
C418 C419 1.369 1_565 S
C418 C422 1.531 . S
C419 C418 1.369 1_545 S
C419 C420 1.410 . S
C419 C427 1.503 . S
C420 C419 1.410 . S
C420 C421 1.392 . S
C420 C423 1.511 . S
C421 C417 1.376 . S
C421 C420 1.392 . S
C421 H433 0.929 . S
C422 C418 1.531 . S
C422 H434 0.960 . S
C422 H435 0.962 . S
C422 H436 0.960 . S
C423 C420 1.511 . S
C423 H437 0.961 . S
C423 H438 0.961 . S
C423 H439 0.961 . S
C424 C425 1.370 1_565 S
C424 C426 1.363 . S
C424 H440 0.931 . S
C425 C424 1.370 1_545 S
C425 C429 1.408 . S
C426 C424 1.363 . S
C426 C427 1.370 1_565 S
C426 C430 1.524 . S
C427 C419 1.503 . S
C427 C426 1.370 1_545 S
C427 C428 1.403 . S
C428 C427 1.403 . S
C428 C429 1.404 . S
C428 C431 1.539 . S
C429 C425 1.408 . S
C429 C428 1.404 . S
C429 H441 0.930 . S
C430 C426 1.524 . S
C430 H442 0.956 . S
C430 H443 0.961 . S
C430 H444 0.961 . S
C431 C428 1.539 . S
C431 H445 0.958 . S
C431 H446 0.961 . S
C431 H447 0.960 . S
H432 C416 0.931 . S
H433 C421 0.929 . S
H434 C422 0.960 . S
H435 C422 0.962 . S
H436 C422 0.960 . S
H437 C423 0.961 . S
H438 C423 0.961 . S
H439 C423 0.961 . S
H440 C424 0.931 . S
H441 C429 0.930 . S
H442 C430 0.956 . S
H443 C430 0.961 . S
H444 C430 0.961 . S
H445 C431 0.958 . S
H446 C431 0.961 . S
H447 C431 0.960 . S
C448 C449 1.391 . S
C448 C450 1.394 . S
C448 H464 0.931 . S
C449 C448 1.391 . S
C449 C453 1.376 . S
C450 C448 1.394 . S
C450 C451 1.369 . S
C450 C454 1.531 . S
C451 C450 1.369 . S
C451 C452 1.410 . S
C451 C459 1.503 . S
C452 C451 1.410 . S
C452 C453 1.392 . S
C452 C455 1.511 . S
C453 C449 1.376 . S
C453 C452 1.392 . S
C453 H465 0.929 . S
C454 C450 1.531 . S
C454 H466 0.960 . S
C454 H467 0.962 . S
C454 H468 0.960 . S
C455 C452 1.511 . S
C455 H469 0.961 . S
C455 H470 0.961 . S
C455 H471 0.961 . S
C456 C457 1.370 . S
C456 C458 1.363 . S
C456 H472 0.931 . S
C457 C456 1.370 . S
C457 C461 1.408 . S
C458 C456 1.363 . S
C458 C459 1.370 . S
C458 C462 1.524 . S
C459 C451 1.503 . S
C459 C458 1.370 . S
C459 C460 1.403 . S
C460 C459 1.403 . S
C460 C461 1.404 . S
C460 C463 1.539 . S
C461 C457 1.408 . S
C461 C460 1.404 . S
C461 H473 0.930 . S
C462 C458 1.524 . S
C462 H474 0.956 . S
C462 H475 0.961 . S
C462 H476 0.961 . S
C463 C460 1.539 . S
C463 H477 0.958 . S
C463 H478 0.961 . S
C463 H479 0.960 . S
H464 C448 0.931 . S
H465 C453 0.929 . S
H466 C454 0.960 . S
H467 C454 0.962 . S
H468 C454 0.960 . S
H469 C455 0.961 . S
H470 C455 0.961 . S
H471 C455 0.961 . S
H472 C456 0.931 . S
H473 C461 0.930 . S
H474 C462 0.956 . S
H475 C462 0.961 . S
H476 C462 0.961 . S
H477 C463 0.958 . S
H478 C463 0.961 . S
H479 C463 0.960 . S
C480 C481 1.391 . S
C480 C482 1.394 . S
C480 H496 0.931 . S
C481 C480 1.391 . S
C481 C485 1.376 . S
C482 C480 1.394 . S
C482 C483 1.369 . S
C482 C486 1.531 . S
C483 C482 1.369 . S
C483 C484 1.410 . S
C483 C491 1.503 . S
C484 C483 1.410 . S
C484 C485 1.392 . S
C484 C487 1.511 . S
C485 C481 1.376 . S
C485 C484 1.392 . S
C485 H497 0.929 . S
C486 C482 1.531 . S
C486 H498 0.960 . S
C486 H499 0.962 . S
C486 H500 0.960 . S
C487 C484 1.511 . S
C487 H501 0.961 . S
C487 H502 0.961 . S
C487 H503 0.961 . S
C488 C489 1.370 . S
C488 C490 1.363 . S
C488 H504 0.931 . S
C489 C488 1.370 . S
C489 C493 1.408 . S
C490 C488 1.363 . S
C490 C491 1.370 . S
C490 C494 1.524 . S
C491 C483 1.503 . S
C491 C490 1.370 . S
C491 C492 1.403 . S
C492 C491 1.403 . S
C492 C493 1.404 . S
C492 C495 1.539 . S
C493 C489 1.408 . S
C493 C492 1.404 . S
C493 H505 0.930 . S
C494 C490 1.524 . S
C494 H506 0.956 . S
C494 H507 0.961 . S
C494 H508 0.961 . S
C495 C492 1.539 . S
C495 H509 0.958 . S
C495 H510 0.961 . S
C495 H511 0.960 . S
H496 C480 0.931 . S
H497 C485 0.929 . S
H498 C486 0.960 . S
H499 C486 0.962 . S
H500 C486 0.960 . S
H501 C487 0.961 . S
H502 C487 0.961 . S
H503 C487 0.961 . S
H504 C488 0.931 . S
H505 C493 0.930 . S
H506 C494 0.956 . S
H507 C494 0.961 . S
H508 C494 0.961 . S
H509 C495 0.958 . S
H510 C495 0.961 . S
H511 C495 0.960 . S
C512 C513 1.391 1_655 S
C512 C514 1.394 . S
C512 H528 0.931 . S
C513 C512 1.391 1_455 S
C513 C517 1.376 . S
C514 C512 1.394 . S
C514 C515 1.369 1_655 S
C514 C518 1.531 . S
C515 C514 1.369 1_455 S
C515 C516 1.410 . S
C515 C523 1.503 . S
C516 C515 1.410 . S
C516 C517 1.392 . S
C516 C519 1.511 . S
C517 C513 1.376 . S
C517 C516 1.392 . S
C517 H529 0.929 . S
C518 C514 1.531 . S
C518 H530 0.960 . S
C518 H531 0.962 . S
C518 H532 0.960 . S
C519 C516 1.511 . S
C519 H533 0.961 . S
C519 H534 0.961 . S
C519 H535 0.961 . S
C520 C521 1.370 1_655 S
C520 C522 1.363 . S
C520 H536 0.931 . S
C521 C520 1.370 1_455 S
C521 C525 1.408 . S
C522 C520 1.363 . S
C522 C523 1.370 1_655 S
C522 C526 1.524 . S
C523 C515 1.503 . S
C523 C522 1.370 1_455 S
C523 C524 1.403 . S
C524 C523 1.403 . S
C524 C525 1.404 . S
C524 C527 1.539 . S
C525 C521 1.408 . S
C525 C524 1.404 . S
C525 H537 0.930 . S
C526 C522 1.524 . S
C526 H538 0.956 . S
C526 H539 0.961 . S
C526 H540 0.961 . S
C527 C524 1.539 . S
C527 H541 0.958 . S
C527 H542 0.961 . S
C527 H543 0.960 . S
H528 C512 0.931 . S
H529 C517 0.929 . S
H530 C518 0.960 . S
H531 C518 0.962 . S
H532 C518 0.960 . S
H533 C519 0.961 . S
H534 C519 0.961 . S
H535 C519 0.961 . S
H536 C520 0.931 . S
H537 C525 0.930 . S
H538 C526 0.956 . S
H539 C526 0.961 . S
H540 C526 0.961 . S
H541 C527 0.958 . S
H542 C527 0.961 . S
H543 C527 0.960 . S
C544 C545 1.391 . S
C544 C546 1.394 . S
C544 H560 0.931 . S
C545 C544 1.391 . S
C545 C549 1.376 . S
C546 C544 1.394 . S
C546 C547 1.369 . S
C546 C550 1.531 . S
C547 C546 1.369 . S
C547 C548 1.410 . S
C547 C555 1.503 . S
C548 C547 1.410 . S
C548 C549 1.392 . S
C548 C551 1.511 . S
C549 C545 1.376 . S
C549 C548 1.392 . S
C549 H561 0.929 . S
C550 C546 1.531 . S
C550 H562 0.960 1_554 S
C550 H563 0.962 1_545 S
C550 H564 0.960 . S
C551 C548 1.511 . S
C551 H565 0.942 1_545 S
C551 H566 0.939 1_545 S
C551 H567 0.961 . S
C552 C553 1.370 . S
C552 C554 1.363 . S
C552 H568 0.931 . S
C553 C552 1.370 . S
C553 C557 1.409 1_565 S
C554 C552 1.363 . S
C554 C555 1.370 1_566 S
C554 C558 1.524 1_556 S
C555 C547 1.503 . S
C555 C554 1.370 1_544 S
C555 C556 1.403 1_554 S
C556 C555 1.403 1_556 S
C556 C557 1.404 . S
C556 C559 1.539 1_556 S
C557 C553 1.409 1_545 S
C557 C556 1.404 . S
C557 H569 0.930 . S
C558 C554 1.524 1_554 S
C558 H570 0.956 . S
C558 H571 0.961 . S
C558 H572 0.961 . S
C559 C556 1.539 1_554 S
C559 H573 0.958 1_554 S
C559 H574 0.961 1_554 S
C559 H575 0.960 . S
H560 C544 0.931 . S
H561 C549 0.929 . S
H562 C550 0.960 1_556 S
H563 C550 0.962 1_565 S
H564 C550 0.960 . S
H565 C551 0.942 1_565 S
H566 C551 0.939 1_565 S
H567 C551 0.961 . S
H568 C552 0.931 . S
H569 C557 0.930 . S
H570 C558 0.956 . S
H571 C558 0.961 . S
H572 C558 0.961 . S
H573 C559 0.958 1_556 S
H574 C559 0.961 1_556 S
H575 C559 0.960 . S
C576 C577 1.391 . S
C576 C578 1.394 . S
C576 H592 0.931 . S
C577 C576 1.391 . S
C577 C581 1.376 . S
C578 C576 1.394 . S
C578 C579 1.369 . S
C578 C582 1.531 . S
C579 C578 1.369 . S
C579 C580 1.410 . S
C579 C587 1.503 . S
C580 C579 1.410 . S
C580 C581 1.392 . S
C580 C583 1.511 . S
C581 C577 1.376 . S
C581 C580 1.392 . S
C581 H593 0.929 . S
C582 C578 1.531 . S
C582 H594 0.960 . S
C582 H595 0.962 . S
C582 H596 0.960 . S
C583 C580 1.511 . S
C583 H597 0.961 . S
C583 H598 0.961 1_554 S
C583 H599 0.961 . S
C584 C585 1.370 . S
C584 C586 1.363 . S
C584 H600 0.931 . S
C585 C584 1.370 . S
C585 C589 1.408 . S
C586 C584 1.363 . S
C586 C587 1.370 1_556 S
C586 C590 1.524 1_556 S
C587 C579 1.503 . S
C587 C586 1.370 1_554 S
C587 C588 1.403 1_554 S
C588 C587 1.403 1_556 S
C588 C589 1.404 . S
C588 C591 1.539 1_556 S
C589 C585 1.408 . S
C589 C588 1.404 . S
C589 H601 0.930 . S
C590 C586 1.524 1_554 S
C590 H602 0.956 . S
C590 H603 0.961 . S
C590 H604 0.961 1_554 S
C591 C588 1.539 1_554 S
C591 H605 0.958 . S
C591 H606 0.961 . S
C591 H607 0.960 . S
H592 C576 0.931 . S
H593 C581 0.929 . S
H594 C582 0.960 . S
H595 C582 0.962 . S
H596 C582 0.960 . S
H597 C583 0.961 . S
H598 C583 0.961 1_556 S
H599 C583 0.961 . S
H600 C584 0.931 . S
H601 C589 0.930 . S
H602 C590 0.956 . S
H603 C590 0.961 . S
H604 C590 0.961 1_556 S
H605 C591 0.958 . S
H606 C591 0.961 . S
H607 C591 0.960 . S
C608 C609 1.391 . S
C608 C610 1.394 . S
C608 H624 0.931 . S
C609 C608 1.391 . S
C609 C613 1.376 . S
C610 C608 1.394 . S
C610 C611 1.369 . S
C610 C614 1.531 . S
C611 C610 1.369 . S
C611 C612 1.410 . S
C611 C619 1.503 . S
C612 C611 1.410 . S
C612 C613 1.392 . S
C612 C615 1.511 . S
C613 C609 1.376 . S
C613 C612 1.392 . S
C613 H625 0.929 . S
C614 C610 1.531 . S
C614 H626 0.960 1_554 S
C614 H627 0.962 . S
C614 H628 0.960 . S
C615 C612 1.511 . S
C615 H629 0.961 . S
C615 H630 0.961 . S
C615 H631 0.961 . S
C616 C617 1.370 . S
C616 C618 1.363 . S
C616 H632 0.931 . S
C617 C616 1.370 . S
C617 C621 1.408 . S
C618 C616 1.363 . S
C618 C619 1.370 1_556 S
C618 C622 1.524 1_556 S
C619 C611 1.503 . S
C619 C618 1.370 1_554 S
C619 C620 1.403 1_554 S
C620 C619 1.403 1_556 S
C620 C621 1.404 . S
C620 C623 1.539 1_556 S
C621 C617 1.408 . S
C621 C620 1.404 . S
C621 H633 0.930 . S
C622 C618 1.524 1_554 S
C622 H634 0.956 . S
C622 H635 0.961 . S
C622 H636 0.961 1_554 S
C623 C620 1.539 1_554 S
C623 H637 0.958 . S
C623 H638 0.961 . S
C623 H639 0.960 . S
H624 C608 0.931 . S
H625 C613 0.929 . S
H626 C614 0.960 1_556 S
H627 C614 0.962 . S
H628 C614 0.960 . S
H629 C615 0.961 . S
H630 C615 0.961 . S
H631 C615 0.961 . S
H632 C616 0.931 . S
H633 C621 0.930 . S
H634 C622 0.956 . S
H635 C622 0.961 . S
H636 C622 0.961 1_556 S
H637 C623 0.958 . S
H638 C623 0.961 . S
H639 C623 0.960 . S
C640 C641 1.391 1_455 S
C640 C642 1.394 . S
C640 H656 0.931 . S
C641 C640 1.391 1_655 S
C641 C645 1.376 . S
C642 C640 1.394 . S
C642 C643 1.369 1_455 S
C642 C646 1.531 . S
C643 C642 1.369 1_655 S
C643 C644 1.410 . S
C643 C651 1.503 . S
C644 C643 1.410 . S
C644 C645 1.392 . S
C644 C647 1.511 . S
C645 C641 1.376 . S
C645 C644 1.392 . S
C645 H657 0.929 . S
C646 C642 1.531 . S
C646 H658 0.960 . S
C646 H659 0.962 . S
C646 H660 0.960 . S
C647 C644 1.511 . S
C647 H661 0.961 . S
C647 H662 0.950 1_554 S
C647 H663 0.961 . S
C648 C649 1.370 1_455 S
C648 C650 1.363 . S
C648 H664 0.931 . S
C649 C648 1.370 1_655 S
C649 C653 1.408 . S
C650 C648 1.363 . S
C650 C651 1.370 1_456 S
C650 C654 1.524 . S
C651 C643 1.503 . S
C651 C650 1.370 1_654 S
C651 C652 1.403 . S
C652 C651 1.403 . S
C652 C653 1.404 1_554 S
C652 C655 1.539 . S
C653 C649 1.408 . S
C653 C652 1.404 1_556 S
C653 H665 0.930 . S
C654 C650 1.524 . S
C654 H666 0.956 1_556 S
C654 H667 0.961 1_556 S
C654 H668 0.961 . S
C655 C652 1.539 . S
C655 H669 0.958 . S
C655 H670 0.961 . S
C655 H671 0.960 . S
H656 C640 0.931 . S
H657 C645 0.929 . S
H658 C646 0.960 . S
H659 C646 0.962 . S
H660 C646 0.960 . S
H661 C647 0.961 . S
H662 C647 0.950 1_556 S
H663 C647 0.961 . S
H664 C648 0.931 . S
H665 C653 0.930 . S
H666 C654 0.956 1_554 S
H667 C654 0.961 1_554 S
H668 C654 0.961 . S
H669 C655 0.958 . S
H670 C655 0.961 . S
H671 C655 0.960 . S
C672 C673 1.400 . S
C672 C674 1.394 1_455 S
C672 H688 0.931 . S
C673 C672 1.400 . S
C673 C677 1.354 1_455 S
C674 C672 1.394 1_655 S
C674 C675 1.369 . S
C674 C678 1.531 1_655 S
C675 C674 1.369 . S
C675 C676 1.410 . S
C675 C683 1.503 . S
C676 C675 1.410 . S
C676 C677 1.392 . S
C676 C679 1.511 . S
C677 C673 1.354 1_655 S
C677 C676 1.392 . S
C677 H689 0.929 . S
C678 C674 1.531 1_455 S
C678 H690 0.960 1_455 S
C678 H691 0.962 . S
C678 H692 0.960 . S
C679 C676 1.511 . S
C679 H693 0.961 . S
C679 H694 0.961 . S
C679 H695 0.961 . S
C680 C681 1.370 . S
C680 C682 1.363 . S
C680 H696 0.931 . S
C681 C680 1.370 . S
C681 C685 1.408 . S
C682 C680 1.363 . S
C682 C683 1.370 . S
C682 C686 1.524 1_655 S
C683 C675 1.503 . S
C683 C682 1.370 . S
C683 C684 1.403 . S
C684 C683 1.403 . S
C684 C685 1.404 . S
C684 C687 1.539 . S
C685 C681 1.408 . S
C685 C684 1.404 . S
C685 H697 0.930 . S
C686 C682 1.524 1_455 S
C686 H698 0.956 . S
C686 H699 0.961 . S
C686 H700 0.961 . S
C687 C684 1.539 . S
C687 H701 0.958 . S
C687 H702 0.961 . S
C687 H703 0.960 . S
H688 C672 0.931 . S
H689 C677 0.929 . S
H690 C678 0.960 1_655 S
H691 C678 0.962 . S
H692 C678 0.960 . S
H693 C679 0.961 . S
H694 C679 0.961 . S
H695 C679 0.961 . S
H696 C680 0.931 . S
H697 C685 0.930 . S
H698 C686 0.956 . S
H699 C686 0.961 . S
H700 C686 0.961 . S
H701 C687 0.958 . S
H702 C687 0.961 . S
H703 C687 0.960 . S
C704 C705 1.389 1_565 S
C704 C706 1.394 . S
C704 H720 0.936 . S
C705 C704 1.389 1_545 S
C705 C709 1.374 1_545 S
C706 C704 1.394 . S
C706 C707 1.369 . S
C706 C710 1.531 . S
C707 C706 1.369 . S
C707 C708 1.410 . S
C707 C715 1.503 . S
C708 C707 1.410 . S
C708 C709 1.392 . S
C708 C711 1.511 . S
C709 C705 1.374 1_565 S
C709 C708 1.392 . S
C709 H721 0.929 . S
C710 C706 1.531 . S
C710 H722 0.960 . S
C710 H723 0.962 . S
C710 H724 0.960 . S
C711 C708 1.511 . S
C711 H725 0.961 . S
C711 H726 0.961 . S
C711 H727 0.961 . S
C712 C713 1.370 . S
C712 C714 1.363 . S
C712 H728 0.931 . S
C713 C712 1.370 . S
C713 C717 1.408 . S
C714 C712 1.363 . S
C714 C715 1.370 . S
C714 C718 1.524 1_565 S
C715 C707 1.503 . S
C715 C714 1.370 . S
C715 C716 1.403 . S
C716 C715 1.403 . S
C716 C717 1.404 . S
C716 C719 1.539 . S
C717 C713 1.408 . S
C717 C716 1.404 . S
C717 H729 0.930 . S
C718 C714 1.524 1_545 S
C718 H730 0.956 . S
C718 H731 0.961 . S
C718 H732 0.961 . S
C719 C716 1.539 . S
C719 H733 0.958 . S
C719 H734 0.961 . S
C719 H735 0.960 . S
H720 C704 0.936 . S
H721 C709 0.929 . S
H722 C710 0.960 . S
H723 C710 0.962 . S
H724 C710 0.960 . S
H725 C711 0.961 . S
H726 C711 0.961 . S
H727 C711 0.961 . S
H728 C712 0.931 . S
H729 C717 0.930 . S
H730 C718 0.956 . S
H731 C718 0.961 . S
H732 C718 0.961 . S
H733 C719 0.958 . S
H734 C719 0.961 . S
H735 C719 0.960 . S
C736 C737 1.391 . S
C736 C738 1.394 . S
C736 H752 0.931 . S
C737 C736 1.391 . S
C737 C741 1.376 . S
C738 C736 1.394 . S
C738 C739 1.369 . S
C738 C742 1.531 . S
C739 C738 1.369 . S
C739 C740 1.410 . S
C739 C747 1.503 . S
C740 C739 1.410 . S
C740 C741 1.392 . S
C740 C743 1.511 . S
C741 C737 1.376 . S
C741 C740 1.392 . S
C741 H753 0.929 . S
C742 C738 1.531 . S
C742 H754 0.960 . S
C742 H755 0.962 . S
C742 H756 0.960 . S
C743 C740 1.511 . S
C743 H757 0.961 . S
C743 H758 0.961 . S
C743 H759 0.961 . S
C744 C745 1.370 . S
C744 C746 1.363 . S
C744 H760 0.931 . S
C745 C744 1.370 . S
C745 C749 1.408 . S
C746 C744 1.363 . S
C746 C747 1.370 . S
C746 C750 1.524 . S
C747 C739 1.503 . S
C747 C746 1.370 . S
C747 C748 1.403 . S
C748 C747 1.403 . S
C748 C749 1.404 . S
C748 C751 1.539 . S
C749 C745 1.408 . S
C749 C748 1.404 . S
C749 H761 0.930 . S
C750 C746 1.524 . S
C750 H762 0.956 . S
C750 H763 0.961 . S
C750 H764 0.961 . S
C751 C748 1.539 . S
C751 H765 0.958 . S
C751 H766 0.961 . S
C751 H767 0.960 . S
H752 C736 0.931 . S
H753 C741 0.929 . S
H754 C742 0.960 . S
H755 C742 0.962 . S
H756 C742 0.960 . S
H757 C743 0.961 . S
H758 C743 0.961 . S
H759 C743 0.961 . S
H760 C744 0.931 . S
H761 C749 0.930 . S
H762 C750 0.956 . S
H763 C750 0.961 . S
H764 C750 0.961 . S
H765 C751 0.958 . S
H766 C751 0.961 . S
H767 C751 0.960 . S
C768 C769 1.391 . S
C768 C770 1.394 . S
C768 H784 0.931 . S
C769 C768 1.391 . S
C769 C773 1.376 . S
C770 C768 1.394 . S
C770 C771 1.369 . S
C770 C774 1.531 . S
C771 C770 1.369 . S
C771 C772 1.410 . S
C771 C779 1.503 . S
C772 C771 1.410 . S
C772 C773 1.392 . S
C772 C775 1.511 . S
C773 C769 1.376 . S
C773 C772 1.392 . S
C773 H785 0.929 . S
C774 C770 1.531 . S
C774 H786 0.960 . S
C774 H787 0.962 . S
C774 H788 0.960 . S
C775 C772 1.511 . S
C775 H789 0.961 . S
C775 H790 0.961 . S
C775 H791 0.961 . S
C776 C777 1.370 . S
C776 C778 1.363 . S
C776 H792 0.931 . S
C777 C776 1.370 . S
C777 C781 1.408 . S
C778 C776 1.363 . S
C778 C779 1.370 . S
C778 C782 1.524 . S
C779 C771 1.503 . S
C779 C778 1.370 . S
C779 C780 1.403 . S
C780 C779 1.403 . S
C780 C781 1.404 . S
C780 C783 1.539 . S
C781 C777 1.408 . S
C781 C780 1.404 . S
C781 H793 0.930 . S
C782 C778 1.524 . S
C782 H794 0.956 . S
C782 H795 0.961 . S
C782 H796 0.961 . S
C783 C780 1.539 . S
C783 H797 0.958 . S
C783 H798 0.961 . S
C783 H799 0.960 . S
H784 C768 0.931 . S
H785 C773 0.929 . S
H786 C774 0.960 . S
H787 C774 0.962 . S
H788 C774 0.960 . S
H789 C775 0.961 . S
H790 C775 0.961 . S
H791 C775 0.961 . S
H792 C776 0.931 . S
H793 C781 0.930 . S
H794 C782 0.956 . S
H795 C782 0.961 . S
H796 C782 0.961 . S
H797 C783 0.958 . S
H798 C783 0.961 . S
H799 C783 0.960 . S
C800 C801 1.388 1_455 S
C800 C802 1.394 . S
C800 H816 0.931 . S
C801 C800 1.388 1_655 S
C801 C805 1.373 1_655 S
C802 C800 1.394 . S
C802 C803 1.369 . S
C802 C806 1.531 . S
C803 C802 1.369 . S
C803 C804 1.410 . S
C803 C811 1.503 . S
C804 C803 1.410 . S
C804 C805 1.392 . S
C804 C807 1.511 1_554 S
C805 C801 1.373 1_455 S
C805 C804 1.392 . S
C805 H817 0.929 . S
C806 C802 1.531 . S
C806 H818 0.960 . S
C806 H819 0.962 . S
C806 H820 0.960 . S
C807 C804 1.511 1_556 S
C807 H821 0.961 . S
C807 H822 0.961 . S
C807 H823 0.961 . S
C808 C809 1.370 . S
C808 C810 1.363 1_556 S
C808 H824 0.931 . S
C809 C808 1.370 . S
C809 C813 1.408 1_556 S
C810 C808 1.363 1_554 S
C810 C811 1.370 . S
C810 C814 1.524 1_455 S
C811 C803 1.503 . S
C811 C810 1.370 . S
C811 C812 1.403 . S
C812 C811 1.403 . S
C812 C813 1.404 . S
C812 C815 1.539 . S
C813 C809 1.408 1_554 S
C813 C812 1.404 . S
C813 H825 0.930 . S
C814 C810 1.524 1_655 S
C814 H826 0.956 . S
C814 H827 0.961 . S
C814 H828 0.961 . S
C815 C812 1.539 . S
C815 H829 0.958 . S
C815 H830 0.961 . S
C815 H831 0.960 . S
H816 C800 0.931 . S
H817 C805 0.929 . S
H818 C806 0.960 . S
H819 C806 0.962 . S
H820 C806 0.960 . S
H821 C807 0.961 . S
H822 C807 0.961 . S
H823 C807 0.961 . S
H824 C808 0.931 . S
H825 C813 0.930 . S
H826 C814 0.956 . S
H827 C814 0.961 . S
H828 C814 0.961 . S
H829 C815 0.958 . S
H830 C815 0.961 . S
H831 C815 0.960 . S
C832 C833 1.391 . S
C832 C834 1.394 . S
C832 H848 0.931 . S
C833 C832 1.391 . S
C833 C837 1.376 1_565 S
C834 C832 1.394 . S
C834 C835 1.369 1_565 S
C834 C838 1.531 1_554 S
C835 C834 1.369 1_545 S
C835 C836 1.410 . S
C835 C843 1.503 . S
C836 C835 1.410 . S
C836 C837 1.392 . S
C836 C839 1.511 . S
C837 C833 1.376 1_545 S
C837 C836 1.392 . S
C837 H849 0.929 . S
C838 C834 1.531 1_556 S
C838 H850 0.960 . S
C838 H851 0.962 1_565 S
C838 H852 0.960 . S
C839 C836 1.511 . S
C839 H853 0.961 . S
C839 H854 0.961 . S
C839 H855 0.961 . S
C840 C841 1.370 . S
C840 C842 1.363 1_556 S
C840 H856 0.931 . S
C841 C840 1.370 . S
C841 C845 1.408 1_556 S
C842 C840 1.363 1_554 S
C842 C843 1.370 . S
C842 C846 1.524 . S
C843 C835 1.503 . S
C843 C842 1.370 . S
C843 C844 1.403 . S
C844 C843 1.403 . S
C844 C845 1.404 . S
C844 C847 1.539 1_545 S
C845 C841 1.408 1_554 S
C845 C844 1.404 . S
C845 H857 0.930 . S
C846 C842 1.524 . S
C846 H858 0.956 . S
C846 H859 0.961 . S
C846 H860 0.961 . S
C847 C844 1.539 1_565 S
C847 H861 0.958 . S
C847 H862 0.961 . S
C847 H863 0.960 . S
H848 C832 0.931 . S
H849 C837 0.929 . S
H850 C838 0.960 . S
H851 C838 0.962 1_545 S
H852 C838 0.960 . S
H853 C839 0.961 . S
H854 C839 0.961 . S
H855 C839 0.961 . S
H856 C840 0.931 . S
H857 C845 0.930 . S
H858 C846 0.956 . S
H859 C846 0.961 . S
H860 C846 0.961 . S
H861 C847 0.958 . S
H862 C847 0.961 . S
H863 C847 0.960 . S
C864 C865 1.391 . S
C864 C866 1.394 . S
C864 H880 0.931 . S
C865 C864 1.391 . S
C865 C869 1.376 . S
C866 C864 1.394 . S
C866 C867 1.369 . S
C866 C870 1.531 . S
C867 C866 1.369 . S
C867 C868 1.410 . S
C867 C875 1.503 . S
C868 C867 1.410 . S
C868 C869 1.392 . S
C868 C871 1.511 . S
C869 C865 1.376 . S
C869 C868 1.392 . S
C869 H881 0.929 . S
C870 C866 1.531 . S
C870 H882 0.960 . S
C870 H883 0.962 . S
C870 H884 0.960 . S
C871 C868 1.511 . S
C871 H885 0.961 . S
C871 H886 0.961 . S
C871 H887 0.961 . S
C872 C873 1.370 . S
C872 C874 1.363 . S
C872 H888 0.931 . S
C873 C872 1.370 . S
C873 C877 1.408 1_556 S
C874 C872 1.363 . S
C874 C875 1.370 1_556 S
C874 C878 1.524 . S
C875 C867 1.503 . S
C875 C874 1.370 1_554 S
C875 C876 1.403 . S
C876 C875 1.403 . S
C876 C877 1.404 . S
C876 C879 1.539 . S
C877 C873 1.408 1_554 S
C877 C876 1.404 . S
C877 H889 0.930 . S
C878 C874 1.524 . S
C878 H890 0.956 . S
C878 H891 0.961 . S
C878 H892 0.961 . S
C879 C876 1.539 . S
C879 H893 0.958 . S
C879 H894 0.961 . S
C879 H895 0.960 . S
H880 C864 0.931 . S
H881 C869 0.929 . S
H882 C870 0.960 . S
H883 C870 0.962 . S
H884 C870 0.960 . S
H885 C871 0.961 . S
H886 C871 0.961 . S
H887 C871 0.961 . S
H888 C872 0.931 . S
H889 C877 0.930 . S
H890 C878 0.956 . S
H891 C878 0.961 . S
H892 C878 0.961 . S
H893 C879 0.958 . S
H894 C879 0.961 . S
H895 C879 0.960 . S
C896 C897 1.391 . S
C896 C898 1.394 . S
C896 H912 0.931 . S
C897 C896 1.391 . S
C897 C901 1.376 . S
C898 C896 1.394 . S
C898 C899 1.369 . S
C898 C902 1.531 . S
C899 C898 1.369 . S
C899 C900 1.410 . S
C899 C907 1.503 . S
C900 C899 1.410 . S
C900 C901 1.392 . S
C900 C903 1.511 1_554 S
C901 C897 1.376 . S
C901 C900 1.392 . S
C901 H913 0.929 . S
C902 C898 1.531 . S
C902 H914 0.960 . S
C902 H915 0.962 . S
C902 H916 0.960 . S
C903 C900 1.511 1_556 S
C903 H917 0.961 . S
C903 H918 0.961 . S
C903 H919 0.961 . S
C904 C905 1.370 . S
C904 C906 1.363 1_556 S
C904 H920 0.931 . S
C905 C904 1.370 . S
C905 C909 1.408 1_556 S
C906 C904 1.363 1_554 S
C906 C907 1.370 . S
C906 C910 1.524 . S
C907 C899 1.503 . S
C907 C906 1.370 . S
C907 C908 1.403 . S
C908 C907 1.403 . S
C908 C909 1.404 . S
C908 C911 1.539 . S
C909 C905 1.408 1_554 S
C909 C908 1.404 . S
C909 H921 0.930 . S
C910 C906 1.524 . S
C910 H922 0.956 . S
C910 H923 0.961 . S
C910 H924 0.961 . S
C911 C908 1.539 . S
C911 H925 0.958 . S
C911 H926 0.961 . S
C911 H927 0.960 . S
H912 C896 0.931 . S
H913 C901 0.929 . S
H914 C902 0.960 . S
H915 C902 0.962 . S
H916 C902 0.960 . S
H917 C903 0.961 . S
H918 C903 0.961 . S
H919 C903 0.961 . S
H920 C904 0.931 . S
H921 C909 0.930 . S
H922 C910 0.956 . S
H923 C910 0.961 . S
H924 C910 0.961 . S
H925 C911 0.958 . S
H926 C911 0.961 . S
H927 C911 0.960 . S
C928 C929 1.402 . S
C928 C930 1.394 . S
C928 H944 0.931 . S
C929 C928 1.402 . S
C929 C933 1.365 1_455 S
C930 C928 1.394 . S
C930 C931 1.384 . S
C930 C934 1.531 . S
C931 C930 1.384 . S
C931 C932 1.394 1_455 S
C931 C939 1.509 . S
C932 C931 1.394 1_655 S
C932 C933 1.392 . S
C932 C935 1.511 . S
C933 C929 1.365 1_655 S
C933 C932 1.392 . S
C933 H945 0.929 . S
C934 C930 1.531 . S
C934 H946 0.960 . S
C934 H947 0.962 . S
C934 H948 0.960 . S
C935 C932 1.511 . S
C935 H949 0.961 . S
C935 H950 0.961 . S
C935 H951 0.961 . S
C936 C937 1.370 . S
C936 C938 1.363 . S
C936 H952 0.931 . S
C937 C936 1.370 . S
C937 C941 1.408 1_455 S
C938 C936 1.363 . S
C938 C939 1.370 . S
C938 C942 1.524 . S
C939 C931 1.509 . S
C939 C938 1.370 . S
C939 C940 1.403 1_455 S
C940 C939 1.403 1_655 S
C940 C941 1.404 . S
C940 C943 1.539 . S
C941 C937 1.408 1_655 S
C941 C940 1.404 . S
C941 H953 0.930 . S
C942 C938 1.524 . S
C942 H954 0.956 . S
C942 H955 0.961 . S
C942 H956 0.961 . S
C943 C940 1.539 . S
C943 H957 0.958 . S
C943 H958 0.961 . S
C943 H959 0.960 . S
H944 C928 0.931 . S
H945 C933 0.929 . S
H946 C934 0.960 . S
H947 C934 0.962 . S
H948 C934 0.960 . S
H949 C935 0.961 . S
H950 C935 0.961 . S
H951 C935 0.961 . S
H952 C936 0.931 . S
H953 C941 0.930 . S
H954 C942 0.956 . S
H955 C942 0.961 . S
H956 C942 0.961 . S
H957 C943 0.958 . S
H958 C943 0.961 . S
H959 C943 0.960 . S
C960 C961 1.391 1_565 S
C960 C962 1.394 . S
C960 H976 0.931 . S
C961 C960 1.391 1_545 S
C961 C965 1.376 . S
C962 C960 1.394 . S
C962 C963 1.369 1_565 S
C962 C966 1.531 . S
C963 C962 1.369 1_545 S
C963 C964 1.410 . S
C963 C971 1.503 . S
C964 C963 1.410 . S
C964 C965 1.392 . S
C964 C967 1.511 . S
C965 C961 1.376 . S
C965 C964 1.392 . S
C965 H977 0.929 . S
C966 C962 1.531 . S
C966 H978 0.960 . S
C966 H979 0.962 . S
C966 H980 0.960 . S
C967 C964 1.511 . S
C967 H981 0.961 . S
C967 H982 0.961 . S
C967 H983 0.961 . S
C968 C969 1.370 . S
C968 C970 1.363 . S
C968 H984 0.931 . S
C969 C968 1.370 . S
C969 C973 1.408 1_545 S
C970 C968 1.363 . S
C970 C971 1.370 . S
C970 C974 1.524 . S
C971 C963 1.503 . S
C971 C970 1.370 . S
C971 C972 1.403 1_545 S
C972 C971 1.403 1_565 S
C972 C973 1.404 . S
C972 C975 1.539 . S
C973 C969 1.408 1_565 S
C973 C972 1.404 . S
C973 H985 0.930 . S
C974 C970 1.524 . S
C974 H986 0.956 . S
C974 H987 0.961 . S
C974 H988 0.961 . S
C975 C972 1.539 . S
C975 H989 0.958 . S
C975 H990 0.961 . S
C975 H991 0.960 . S
H976 C960 0.931 . S
H977 C965 0.929 . S
H978 C966 0.960 . S
H979 C966 0.962 . S
H980 C966 0.960 . S
H981 C967 0.961 . S
H982 C967 0.961 . S
H983 C967 0.961 . S
H984 C968 0.931 . S
H985 C973 0.930 . S
H986 C974 0.956 . S
H987 C974 0.961 . S
H988 C974 0.961 . S
H989 C975 0.958 . S
H990 C975 0.961 . S
H991 C975 0.960 . S
C992 C993 1.391 . S
C992 C994 1.394 . S
C992 H1008 0.931 . S
C993 C992 1.391 . S
C993 C997 1.376 . S
C994 C992 1.394 . S
C994 C995 1.369 . S
C994 C998 1.531 . S
C995 C994 1.369 . S
C995 C996 1.410 . S
C995 C1003 1.503 . S
C996 C995 1.410 . S
C996 C997 1.392 . S
C996 C999 1.511 . S
C997 C993 1.376 . S
C997 C996 1.392 . S
C997 H1009 0.929 . S
C998 C994 1.531 . S
C998 H1010 0.960 . S
C998 H1011 0.962 . S
C998 H1012 0.960 . S
C999 C996 1.511 . S
C999 H1013 0.961 . S
C999 H1014 0.961 . S
C999 H1015 0.961 . S
C1000 C1001 1.370 . S
C1000 C1002 1.363 . S
C1000 H1016 0.931 . S
C1001 C1000 1.370 . S
C1001 C1005 1.408 . S
C1002 C1000 1.363 . S
C1002 C1003 1.370 . S
C1002 C1006 1.524 . S
C1003 C995 1.503 . S
C1003 C1002 1.370 . S
C1003 C1004 1.403 . S
C1004 C1003 1.403 . S
C1004 C1005 1.404 . S
C1004 C1007 1.539 . S
C1005 C1001 1.408 . S
C1005 C1004 1.404 . S
C1005 H1017 0.930 . S
C1006 C1002 1.524 . S
C1006 H1018 0.956 . S
C1006 H1019 0.961 . S
C1006 H1020 0.961 . S
C1007 C1004 1.539 . S
C1007 H1021 0.958 . S
C1007 H1022 0.961 . S
C1007 H1023 0.960 . S
H1008 C992 0.931 . S
H1009 C997 0.929 . S
H1010 C998 0.960 . S
H1011 C998 0.962 . S
H1012 C998 0.960 . S
H1013 C999 0.961 . S
H1014 C999 0.961 . S
H1015 C999 0.961 . S
H1016 C1000 0.931 . S
H1017 C1005 0.930 . S
H1018 C1006 0.956 . S
H1019 C1006 0.961 . S
H1020 C1006 0.961 . S
H1021 C1007 0.958 . S
H1022 C1007 0.961 . S
H1023 C1007 0.960 . S
C1024 C1025 1.391 . S
C1024 C1026 1.394 . S
C1024 H1040 0.931 . S
C1025 C1024 1.391 . S
C1025 C1029 1.376 . S
C1026 C1024 1.394 . S
C1026 C1027 1.369 . S
C1026 C1030 1.531 . S
C1027 C1026 1.369 . S
C1027 C1028 1.410 . S
C1027 C1035 1.503 . S
C1028 C1027 1.410 . S
C1028 C1029 1.392 . S
C1028 C1031 1.511 . S
C1029 C1025 1.376 . S
C1029 C1028 1.392 . S
C1029 H1041 0.929 . S
C1030 C1026 1.531 . S
C1030 H1042 0.960 . S
C1030 H1043 0.962 . S
C1030 H1044 0.960 . S
C1031 C1028 1.511 . S
C1031 H1045 0.961 . S
C1031 H1046 0.961 . S
C1031 H1047 0.961 . S
C1032 C1033 1.370 . S
C1032 C1034 1.363 . S
C1032 H1048 0.931 . S
C1033 C1032 1.370 . S
C1033 C1037 1.408 . S
C1034 C1032 1.363 . S
C1034 C1035 1.370 . S
C1034 C1038 1.524 . S
C1035 C1027 1.503 . S
C1035 C1034 1.370 . S
C1035 C1036 1.403 . S
C1036 C1035 1.403 . S
C1036 C1037 1.404 . S
C1036 C1039 1.539 . S
C1037 C1033 1.408 . S
C1037 C1036 1.404 . S
C1037 H1049 0.930 . S
C1038 C1034 1.524 . S
C1038 H1050 0.956 . S
C1038 H1051 0.961 . S
C1038 H1052 0.961 . S
C1039 C1036 1.539 . S
C1039 H1053 0.958 . S
C1039 H1054 0.961 . S
C1039 H1055 0.960 . S
H1040 C1024 0.931 . S
H1041 C1029 0.929 . S
H1042 C1030 0.960 . S
H1043 C1030 0.962 . S
H1044 C1030 0.960 . S
H1045 C1031 0.961 . S
H1046 C1031 0.961 . S
H1047 C1031 0.961 . S
H1048 C1032 0.931 . S
H1049 C1037 0.930 . S
H1050 C1038 0.956 . S
H1051 C1038 0.961 . S
H1052 C1038 0.961 . S
H1053 C1039 0.958 . S
H1054 C1039 0.961 . S
H1055 C1039 0.960 . S
C1056 C1057 1.391 1_455 S
C1056 C1058 1.394 . S
C1056 H1072 0.931 . S
C1057 C1056 1.391 1_655 S
C1057 C1061 1.376 . S
C1058 C1056 1.394 . S
C1058 C1059 1.369 1_455 S
C1058 C1062 1.531 . S
C1059 C1058 1.369 1_655 S
C1059 C1060 1.410 . S
C1059 C1067 1.503 . S
C1060 C1059 1.410 . S
C1060 C1061 1.392 . S
C1060 C1063 1.511 . S
C1061 C1057 1.376 . S
C1061 C1060 1.392 . S
C1061 H1073 0.929 . S
C1062 C1058 1.531 . S
C1062 H1074 0.960 . S
C1062 H1075 0.962 . S
C1062 H1076 0.960 . S
C1063 C1060 1.511 . S
C1063 H1077 0.961 . S
C1063 H1078 0.961 . S
C1063 H1079 0.961 . S
C1064 C1065 1.370 1_455 S
C1064 C1066 1.363 . S
C1064 H1080 0.931 . S
C1065 C1064 1.370 1_655 S
C1065 C1069 1.408 . S
C1066 C1064 1.363 . S
C1066 C1067 1.370 1_455 S
C1066 C1070 1.524 . S
C1067 C1059 1.503 . S
C1067 C1066 1.370 1_655 S
C1067 C1068 1.403 . S
C1068 C1067 1.403 . S
C1068 C1069 1.404 . S
C1068 C1071 1.539 . S
C1069 C1065 1.408 . S
C1069 C1068 1.404 . S
C1069 H1081 0.930 . S
C1070 C1066 1.524 . S
C1070 H1082 0.956 . S
C1070 H1083 0.961 . S
C1070 H1084 0.961 . S
C1071 C1068 1.539 . S
C1071 H1085 0.958 . S
C1071 H1086 0.961 . S
C1071 H1087 0.960 . S
H1072 C1056 0.931 . S
H1073 C1061 0.929 . S
H1074 C1062 0.960 . S
H1075 C1062 0.962 . S
H1076 C1062 0.960 . S
H1077 C1063 0.961 . S
H1078 C1063 0.961 . S
H1079 C1063 0.961 . S
H1080 C1064 0.931 . S
H1081 C1069 0.930 . S
H1082 C1070 0.956 . S
H1083 C1070 0.961 . S
H1084 C1070 0.961 . S
H1085 C1071 0.958 . S
H1086 C1071 0.961 . S
H1087 C1071 0.960 . S
C1088 C1089 1.393 . S
C1088 C1090 1.394 . S
C1088 H1104 0.931 . S
C1089 C1088 1.393 . S
C1089 C1093 1.373 1_565 S
C1090 C1088 1.394 . S
C1090 C1091 1.371 . S
C1090 C1094 1.531 . S
C1091 C1090 1.371 . S
C1091 C1092 1.408 1_565 S
C1091 C1099 1.505 . S
C1092 C1091 1.408 1_545 S
C1092 C1093 1.392 . S
C1092 C1095 1.511 . S
C1093 C1089 1.373 1_545 S
C1093 C1092 1.392 . S
C1093 H1105 0.929 . S
C1094 C1090 1.531 . S
C1094 H1106 0.982 . S
C1094 H1107 0.962 . S
C1094 H1108 0.960 . S
C1095 C1092 1.511 . S
C1095 H1109 0.961 . S
C1095 H1110 0.961 . S
C1095 H1111 0.961 . S
C1096 C1097 1.370 . S
C1096 C1098 1.363 . S
C1096 H1112 0.931 . S
C1097 C1096 1.370 . S
C1097 C1101 1.408 1_565 S
C1098 C1096 1.363 . S
C1098 C1099 1.370 . S
C1098 C1102 1.524 . S
C1099 C1091 1.505 . S
C1099 C1098 1.370 . S
C1099 C1100 1.403 1_565 S
C1100 C1099 1.403 1_545 S
C1100 C1101 1.404 . S
C1100 C1103 1.539 . S
C1101 C1097 1.408 1_545 S
C1101 C1100 1.404 . S
C1101 H1113 0.930 . S
C1102 C1098 1.524 . S
C1102 H1114 0.956 . S
C1102 H1115 0.961 . S
C1102 H1116 0.961 . S
C1103 C1100 1.539 . S
C1103 H1117 0.958 . S
C1103 H1118 0.961 . S
C1103 H1119 0.960 . S
H1104 C1088 0.931 . S
H1105 C1093 0.929 . S
H1106 C1094 0.982 . S
H1107 C1094 0.962 . S
H1108 C1094 0.960 . S
H1109 C1095 0.961 . S
H1110 C1095 0.961 . S
H1111 C1095 0.961 . S
H1112 C1096 0.931 . S
H1113 C1101 0.930 . S
H1114 C1102 0.956 . S
H1115 C1102 0.961 . S
H1116 C1102 0.961 . S
H1117 C1103 0.958 . S
H1118 C1103 0.961 . S
H1119 C1103 0.960 . S
C1120 C1121 1.391 . S
C1120 C1122 1.394 . S
C1120 H1136 0.931 . S
C1121 C1120 1.391 . S
C1121 C1125 1.376 . S
C1122 C1120 1.394 . S
C1122 C1123 1.369 . S
C1122 C1126 1.531 . S
C1123 C1122 1.369 . S
C1123 C1124 1.410 . S
C1123 C1131 1.503 . S
C1124 C1123 1.410 . S
C1124 C1125 1.392 . S
C1124 C1127 1.511 . S
C1125 C1121 1.376 . S
C1125 C1124 1.392 . S
C1125 H1137 0.929 . S
C1126 C1122 1.531 . S
C1126 H1138 0.960 . S
C1126 H1139 0.962 . S
C1126 H1140 0.960 . S
C1127 C1124 1.511 . S
C1127 H1141 0.961 . S
C1127 H1142 0.961 . S
C1127 H1143 0.961 . S
C1128 C1129 1.370 . S
C1128 C1130 1.363 . S
C1128 H1144 0.931 . S
C1129 C1128 1.370 . S
C1129 C1133 1.408 . S
C1130 C1128 1.363 . S
C1130 C1131 1.370 . S
C1130 C1134 1.524 . S
C1131 C1123 1.503 . S
C1131 C1130 1.370 . S
C1131 C1132 1.403 . S
C1132 C1131 1.403 . S
C1132 C1133 1.404 . S
C1132 C1135 1.539 . S
C1133 C1129 1.408 . S
C1133 C1132 1.404 . S
C1133 H1145 0.930 . S
C1134 C1130 1.524 . S
C1134 H1146 0.956 . S
C1134 H1147 0.961 . S
C1134 H1148 0.961 . S
C1135 C1132 1.539 . S
C1135 H1149 0.958 . S
C1135 H1150 0.961 . S
C1135 H1151 0.960 . S
H1136 C1120 0.931 . S
H1137 C1125 0.929 . S
H1138 C1126 0.960 . S
H1139 C1126 0.962 . S
H1140 C1126 0.960 . S
H1141 C1127 0.961 . S
H1142 C1127 0.961 . S
H1143 C1127 0.961 . S
H1144 C1128 0.931 . S
H1145 C1133 0.930 . S
H1146 C1134 0.956 . S
H1147 C1134 0.961 . S
H1148 C1134 0.961 . S
H1149 C1135 0.958 . S
H1150 C1135 0.961 . S
H1151 C1135 0.960 . S
C1152 C1153 1.391 . S
C1152 C1154 1.394 . S
C1152 H1168 0.931 . S
C1153 C1152 1.391 . S
C1153 C1157 1.376 . S
C1154 C1152 1.394 . S
C1154 C1155 1.369 . S
C1154 C1158 1.531 . S
C1155 C1154 1.369 . S
C1155 C1156 1.410 . S
C1155 C1163 1.503 . S
C1156 C1155 1.410 . S
C1156 C1157 1.392 . S
C1156 C1159 1.511 . S
C1157 C1153 1.376 . S
C1157 C1156 1.392 . S
C1157 H1169 0.929 . S
C1158 C1154 1.531 . S
C1158 H1170 0.960 . S
C1158 H1171 0.962 . S
C1158 H1172 0.960 . S
C1159 C1156 1.511 . S
C1159 H1173 0.961 . S
C1159 H1174 0.961 . S
C1159 H1175 0.961 . S
C1160 C1161 1.370 . S
C1160 C1162 1.363 . S
C1160 H1176 0.931 . S
C1161 C1160 1.370 . S
C1161 C1165 1.408 . S
C1162 C1160 1.363 . S
C1162 C1163 1.370 . S
C1162 C1166 1.524 . S
C1163 C1155 1.503 . S
C1163 C1162 1.370 . S
C1163 C1164 1.403 . S
C1164 C1163 1.403 . S
C1164 C1165 1.404 . S
C1164 C1167 1.539 . S
C1165 C1161 1.408 . S
C1165 C1164 1.404 . S
C1165 H1177 0.930 . S
C1166 C1162 1.524 . S
C1166 H1178 0.956 . S
C1166 H1179 0.961 . S
C1166 H1180 0.961 . S
C1167 C1164 1.539 . S
C1167 H1181 0.958 . S
C1167 H1182 0.961 . S
C1167 H1183 0.960 . S
H1168 C1152 0.931 . S
H1169 C1157 0.929 . S
H1170 C1158 0.960 . S
H1171 C1158 0.962 . S
H1172 C1158 0.960 . S
H1173 C1159 0.961 . S
H1174 C1159 0.961 . S
H1175 C1159 0.961 . S
H1176 C1160 0.931 . S
H1177 C1165 0.930 . S
H1178 C1166 0.956 . S
H1179 C1166 0.961 . S
H1180 C1166 0.961 . S
H1181 C1167 0.958 . S
H1182 C1167 0.961 . S
H1183 C1167 0.960 . S
C417 C215 1.959 . S
C425 C265 2.162 1_545 S
C457 C305 2.167 . S
C449 C247 2.025 . S
C489 C345 2.175 . S
C481 C151 2.012 . S
C521 C385 2.166 1_455 S
C513 C183 1.962 . S
C553 C274 2.158 1_565 S
C545 C87 1.981 . S
C577 C119 2.034 . S
C585 C314 2.177 . S
C609 C23 2.003 . S
C617 C354 2.170 . S
C641 C55 2.030 1_655 S
C649 C394 2.165 1_655 S
C681 C271 0.501 . S
C673 C189 0.457 . S
C713 C311 0.505 . S
C705 C221 0.436 . S
C745 C351 0.425 . S
C737 C253 0.380 . S
C769 C157 0.441 . S
C777 C391 0.460 . S
C801 C61 0.430 1_655 S
C809 C262 0.501 . S
C841 C302 0.435 . S
C833 C93 0.631 1_565 S
C873 C342 0.475 . S
C865 C125 0.502 . S
C897 C29 0.432 . S
C905 C382 0.501 . S
C929 C177 2.497 . S
C937 C275 2.801 . S
C961 C209 2.505 . S
C969 C315 2.787 . S
C1001 C355 2.778 . S
C993 C241 2.439 . S
C1033 C395 2.803 . S
C1025 C145 2.505 . S
C1057 C49 2.510 1_655 S
C1065 C266 2.822 . S
C1097 C306 2.785 . S
C1089 C81 2.495 1_565 S
C1129 C346 2.780 . S
C1121 C113 2.530 . S
C1153 C17 2.549 . S
C1161 C386 2.807 . S
