# Generated by pormake.
# Topology eea, (3,6)-cn, num edge types: 1
# Building blocks:
#     Node 0, Type 0, BuildingBlock: ESEHIV_clean_linker_0, # of connection points: 3
#     Node 1, Type 0, BuildingBlock: ESEHIV_clean_linker_0, # of connection points: 3
#     Node 2, Type 0, BuildingBlock: ESEHIV_clean_linker_0, # of connection points: 3
#     Node 3, Type 0, BuildingBlock: ESEHIV_clean_linker_0, # of connection points: 3
#     Node 4, Type 0, BuildingBlock: ESEHIV_clean_linker_0, # of connection points: 3
#     Node 5, Type 0, BuildingBlock: ESEHIV_clean_linker_0, # of connection points: 3
#     Node 6, Type 0, BuildingBlock: ESEHIV_clean_linker_0, # of connection points: 3
#     Node 7, Type 0, BuildingBlock: ESEHIV_clean_linker_0, # of connection points: 3
#     Node 8, Type 0, BuildingBlock: ESEHIV_clean_linker_0, # of connection points: 3
#     Node 9, Type 0, BuildingBlock: ESEHIV_clean_linker_0, # of connection points: 3
#     Node 10, Type 0, BuildingBlock: ESEHIV_clean_linker_0, # of connection points: 3
#     Node 11, Type 0, BuildingBlock: ESEHIV_clean_linker_0, # of connection points: 3
#     Node 12, Type 0, BuildingBlock: ESEHIV_clean_linker_0, # of connection points: 3
#     Node 13, Type 0, BuildingBlock: ESEHIV_clean_linker_0, # of connection points: 3
#     Node 14, Type 0, BuildingBlock: ESEHIV_clean_linker_0, # of connection points: 3
#     Node 15, Type 0, BuildingBlock: ESEHIV_clean_linker_0, # of connection points: 3
#     Node 16, Type 0, BuildingBlock: ESEHIV_clean_linker_0, # of connection points: 3
#     Node 17, Type 0, BuildingBlock: ESEHIV_clean_linker_0, # of connection points: 3
#     Node 18, Type 1, BuildingBlock: CUWYAW_clean_sbu_0, # of connection points: 6
#     Node 19, Type 1, BuildingBlock: CUWYAW_clean_sbu_0, # of connection points: 6
#     Node 20, Type 1, BuildingBlock: CUWYAW_clean_sbu_0, # of connection points: 6
#     Node 21, Type 1, BuildingBlock: CUWYAW_clean_sbu_0, # of connection points: 6
#     Node 22, Type 1, BuildingBlock: CUWYAW_clean_sbu_0, # of connection points: 6
#     Node 23, Type 1, BuildingBlock: CUWYAW_clean_sbu_0, # of connection points: 6
#     Node 24, Type 1, BuildingBlock: CUWYAW_clean_sbu_0, # of connection points: 6
#     Node 25, Type 1, BuildingBlock: CUWYAW_clean_sbu_0, # of connection points: 6
#     Node 26, Type 1, BuildingBlock: CUWYAW_clean_sbu_0, # of connection points: 6
#     Edge 27, Type (0, 1), BuildingBlock: ZUJKAS_clean_linker_0, # of connection points: 2
#     Edge 28, Type (0, 1), BuildingBlock: ZUJKAS_clean_linker_0, # of connection points: 2
#     Edge 29, Type (0, 1), BuildingBlock: ZUJKAS_clean_linker_0, # of connection points: 2
#     Edge 30, Type (0, 1), BuildingBlock: ZUJKAS_clean_linker_0, # of connection points: 2
#     Edge 31, Type (0, 1), BuildingBlock: ZUJKAS_clean_linker_0, # of connection points: 2
#     Edge 32, Type (0, 1), BuildingBlock: ZUJKAS_clean_linker_0, # of connection points: 2
#     Edge 33, Type (0, 1), BuildingBlock: ZUJKAS_clean_linker_0, # of connection points: 2
#     Edge 34, Type (0, 1), BuildingBlock: ZUJKAS_clean_linker_0, # of connection points: 2
#     Edge 35, Type (0, 1), BuildingBlock: ZUJKAS_clean_linker_0, # of connection points: 2
#     Edge 36, Type (0, 1), BuildingBlock: ZUJKAS_clean_linker_0, # of connection points: 2
#     Edge 37, Type (0, 1), BuildingBlock: ZUJKAS_clean_linker_0, # of connection points: 2
#     Edge 38, Type (0, 1), BuildingBlock: ZUJKAS_clean_linker_0, # of connection points: 2
#     Edge 39, Type (0, 1), BuildingBlock: ZUJKAS_clean_linker_0, # of connection points: 2
#     Edge 40, Type (0, 1), BuildingBlock: ZUJKAS_clean_linker_0, # of connection points: 2
#     Edge 41, Type (0, 1), BuildingBlock: ZUJKAS_clean_linker_0, # of connection points: 2
#     Edge 42, Type (0, 1), BuildingBlock: ZUJKAS_clean_linker_0, # of connection points: 2
#     Edge 43, Type (0, 1), BuildingBlock: ZUJKAS_clean_linker_0, # of connection points: 2
#     Edge 44, Type (0, 1), BuildingBlock: ZUJKAS_clean_linker_0, # of connection points: 2
#     Edge 45, Type (0, 1), BuildingBlock: ZUJKAS_clean_linker_0, # of connection points: 2
#     Edge 46, Type (0, 1), BuildingBlock: ZUJKAS_clean_linker_0, # of connection points: 2
#     Edge 47, Type (0, 1), BuildingBlock: ZUJKAS_clean_linker_0, # of connection points: 2
#     Edge 48, Type (0, 1), BuildingBlock: ZUJKAS_clean_linker_0, # of connection points: 2
#     Edge 49, Type (0, 1), BuildingBlock: ZUJKAS_clean_linker_0, # of connection points: 2
#     Edge 50, Type (0, 1), BuildingBlock: ZUJKAS_clean_linker_0, # of connection points: 2
#     Edge 51, Type (0, 1), BuildingBlock: ZUJKAS_clean_linker_0, # of connection points: 2
#     Edge 52, Type (0, 1), BuildingBlock: ZUJKAS_clean_linker_0, # of connection points: 2
#     Edge 53, Type (0, 1), BuildingBlock: ZUJKAS_clean_linker_0, # of connection points: 2
#     Edge 54, Type (0, 1), BuildingBlock: ZUJKAS_clean_linker_0, # of connection points: 2
#     Edge 55, Type (0, 1), BuildingBlock: ZUJKAS_clean_linker_0, # of connection points: 2
#     Edge 56, Type (0, 1), BuildingBlock: ZUJKAS_clean_linker_0, # of connection points: 2
#     Edge 57, Type (0, 1), BuildingBlock: ZUJKAS_clean_linker_0, # of connection points: 2
#     Edge 58, Type (0, 1), BuildingBlock: ZUJKAS_clean_linker_0, # of connection points: 2
#     Edge 59, Type (0, 1), BuildingBlock: ZUJKAS_clean_linker_0, # of connection points: 2
#     Edge 60, Type (0, 1), BuildingBlock: ZUJKAS_clean_linker_0, # of connection points: 2
#     Edge 61, Type (0, 1), BuildingBlock: ZUJKAS_clean_linker_0, # of connection points: 2
#     Edge 62, Type (0, 1), BuildingBlock: ZUJKAS_clean_linker_0, # of connection points: 2
#     Edge 63, Type (0, 1), BuildingBlock: ZUJKAS_clean_linker_0, # of connection points: 2
#     Edge 64, Type (0, 1), BuildingBlock: ZUJKAS_clean_linker_0, # of connection points: 2
#     Edge 65, Type (0, 1), BuildingBlock: ZUJKAS_clean_linker_0, # of connection points: 2
#     Edge 66, Type (0, 1), BuildingBlock: ZUJKAS_clean_linker_0, # of connection points: 2
#     Edge 67, Type (0, 1), BuildingBlock: ZUJKAS_clean_linker_0, # of connection points: 2
#     Edge 68, Type (0, 1), BuildingBlock: ZUJKAS_clean_linker_0, # of connection points: 2
#     Edge 69, Type (0, 1), BuildingBlock: ZUJKAS_clean_linker_0, # of connection points: 2
#     Edge 70, Type (0, 1), BuildingBlock: ZUJKAS_clean_linker_0, # of connection points: 2
#     Edge 71, Type (0, 1), BuildingBlock: ZUJKAS_clean_linker_0, # of connection points: 2
#     Edge 72, Type (0, 1), BuildingBlock: ZUJKAS_clean_linker_0, # of connection points: 2
#     Edge 73, Type (0, 1), BuildingBlock: ZUJKAS_clean_linker_0, # of connection points: 2
#     Edge 74, Type (0, 1), BuildingBlock: ZUJKAS_clean_linker_0, # of connection points: 2
#     Edge 75, Type (0, 1), BuildingBlock: ZUJKAS_clean_linker_0, # of connection points: 2
#     Edge 76, Type (0, 1), BuildingBlock: ZUJKAS_clean_linker_0, # of connection points: 2
#     Edge 77, Type (0, 1), BuildingBlock: ZUJKAS_clean_linker_0, # of connection points: 2
#     Edge 78, Type (0, 1), BuildingBlock: ZUJKAS_clean_linker_0, # of connection points: 2
#     Edge 79, Type (0, 1), BuildingBlock: ZUJKAS_clean_linker_0, # of connection points: 2
#     Edge 80, Type (0, 1), BuildingBlock: ZUJKAS_clean_linker_0, # of connection points: 2
# Relax obj value: 0.035
# Max RMSD: 0.133
# Mean RMSD: 0.075
data_MOF--net-eea--node1-CUWYAW_clean_sbu_0--node2-ESEHIV_clean_linker_0--edge1-ZUJKAS_clean_linker_0
_symmetry_space_group_name_H-M    P1
_symmetry_Int_Tables_number       1
_symmetry_cell_setting            triclinic
loop_
_symmetry_equiv_pos_as_xyz
'x, y, z'
_cell_length_a     63.311499
_cell_length_b     63.018014
_cell_length_c     91.765088
_cell_angle_alpha  93.491359
_cell_angle_beta   93.41685
_cell_angle_gamma 119.8347
loop_
_atom_site_label
_atom_site_type_symbol
_atom_site_fract_x
_atom_site_fract_y
_atom_site_fract_z
_atom_type_partial_charge
H0 H 0.26649 0.17494 0.42823 0.0
H1 H 0.26613 0.10644 0.42782 0.0
H2 H 0.242 0.12549 0.38854 0.0
C3 C 0.26325 0.15797 0.42234 0.0
C4 C 0.25382 0.15226 0.40749 0.0
C5 C 0.26784 0.1416 0.42976 0.0
C6 C 0.26308 0.11941 0.42212 0.0
C7 C 0.25385 0.11354 0.40725 0.0
C8 C 0.24942 0.13012 0.39998 0.0
H9 H 0.85113 0.0995 0.43339 0.0
H10 H 0.91894 0.16838 0.43731 0.0
H11 H 0.89332 0.12135 0.39655 0.0
C12 C 0.86705 0.11281 0.42855 0.0
C13 C 0.87027 0.10774 0.41401 0.0
C14 C 0.88442 0.13474 0.43698 0.0
C15 C 0.90516 0.1518 0.43068 0.0
C16 C 0.90875 0.147 0.41614 0.0
C17 C 0.89106 0.12499 0.40788 0.0
H18 H 0.85585 0.75808 0.44161 0.0
H19 H 0.92327 0.75686 0.44268 0.0
H20 H 0.89858 0.7793 0.40497 0.0
C21 C 0.87191 0.76096 0.43644 0.0
C22 C 0.87513 0.76907 0.42241 0.0
C23 C 0.88925 0.75668 0.44387 0.0
C24 C 0.9099 0.76028 0.43702 0.0
C25 C 0.91342 0.76839 0.42295 0.0
C26 C 0.89596 0.77285 0.41576 0.0
H27 H 0.08067 0.24555 0.56116 0.0
H28 H 0.14739 0.24317 0.56091 0.0
H29 H 0.10465 0.22 0.59751 0.0
C30 C 0.09406 0.24184 0.5665 0.0
C31 C 0.09033 0.23252 0.58023 0.0
C32 C 0.11439 0.2453 0.55933 0.0
C33 C 0.13134 0.23989 0.56621 0.0
C34 C 0.1281 0.23093 0.58002 0.0
C35 C 0.10747 0.22719 0.58692 0.0
H36 H 0.73001 0.89194 0.57666 0.0
H37 H 0.7325 0.82492 0.57517 0.0
H38 H 0.76373 0.877 0.61366 0.0
C39 C 0.73503 0.87993 0.58192 0.0
C40 C 0.74732 0.8872 0.59617 0.0
C41 C 0.72981 0.85762 0.5742 0.0
C42 C 0.73638 0.84211 0.58106 0.0
C43 C 0.74853 0.84896 0.59532 0.0
C44 C 0.75396 0.87151 0.60276 0.0
H45 H 0.0834 0.83069 0.5657 0.0
H46 H 0.15191 0.89897 0.57048 0.0
H47 H 0.10761 0.87771 0.6064 0.0
C48 C 0.09693 0.84734 0.57237 0.0
C49 C 0.09271 0.85223 0.58674 0.0
C50 C 0.11842 0.86394 0.56648 0.0
C51 C 0.13573 0.88567 0.57512 0.0
C52 C 0.1318 0.89093 0.58945 0.0
C53 C 0.11037 0.87402 0.5952 0.0
H54 H 0.92836 0.50494 0.76448 0.0
H55 H 0.93237 0.43869 0.75984 0.0
H56 H 0.90851 0.46218 0.72247 0.0
C57 C 0.92647 0.48929 0.75768 0.0
C58 C 0.91829 0.4858 0.74269 0.0
C59 C 0.93167 0.4724 0.76397 0.0
C60 C 0.92866 0.45195 0.75505 0.0
C61 C 0.92015 0.44801 0.74011 0.0
C62 C 0.91526 0.46518 0.73398 0.0
H63 H 0.51438 0.43251 0.76469 0.0
H64 H 0.58128 0.50238 0.76956 0.0
H65 H 0.55873 0.45561 0.72884 0.0
C66 C 0.53048 0.44615 0.76015 0.0
C67 C 0.53447 0.44153 0.74571 0.0
C68 C 0.54732 0.46798 0.76888 0.0
C69 C 0.56818 0.48553 0.76289 0.0
C70 C 0.57243 0.48128 0.74842 0.0
C71 C 0.55546 0.45921 0.73993 0.0
H72 H 0.51958 0.08705 0.77423 0.0
H73 H 0.58821 0.08829 0.7754 0.0
H74 H 0.56333 0.11173 0.73828 0.0
C75 C 0.53578 0.09041 0.76908 0.0
C76 C 0.53946 0.0999 0.75544 0.0
C77 C 0.55323 0.08609 0.77637 0.0
C78 C 0.57462 0.09144 0.7698 0.0
C79 C 0.57861 0.1009 0.75608 0.0
C80 C 0.56084 0.10503 0.74901 0.0
H81 H 0.74545 0.57401 0.89331 0.0
H82 H 0.81344 0.57417 0.89389 0.0
H83 H 0.77302 0.55536 0.93157 0.0
C84 C 0.75947 0.57169 0.89909 0.0
C85 C 0.75671 0.56441 0.91339 0.0
C86 C 0.77979 0.57505 0.89195 0.0
C87 C 0.79748 0.57112 0.89923 0.0
C88 C 0.79516 0.56396 0.9135 0.0
C89 C 0.77482 0.56082 0.92053 0.0
H90 H 0.40397 0.23012 0.91125 0.0
H91 H 0.40089 0.16019 0.90838 0.0
H92 H 0.42603 0.20648 0.94928 0.0
C93 C 0.40602 0.21617 0.91645 0.0
C94 C 0.41515 0.22071 0.93132 0.0
C95 C 0.40087 0.19443 0.90803 0.0
C96 C 0.40492 0.1771 0.91471 0.0
C97 C 0.41393 0.18133 0.92957 0.0
C98 C 0.41882 0.20306 0.93783 0.0
H99 H 0.75046 0.16776 0.89942 0.0
H100 H 0.81738 0.2375 0.90354 0.0
H101 H 0.77613 0.21384 0.9406 0.0
C102 C 0.76409 0.18432 0.90612 0.0
C103 C 0.76071 0.18852 0.92082 0.0
C104 C 0.78443 0.20197 0.89979 0.0
C105 C 0.80151 0.2239 0.9083 0.0
C106 C 0.79862 0.22827 0.92301 0.0
C107 C 0.77835 0.21042 0.92923 0.0
H108 H 0.59946 0.84067 0.09504 0.0
H109 H 0.60025 0.77271 0.09322 0.0
H110 H 0.56949 0.79014 0.05591 0.0
C111 C 0.59549 0.82352 0.08904 0.0
C112 C 0.58411 0.81741 0.07462 0.0
C113 C 0.60112 0.80737 0.09592 0.0
C114 C 0.59591 0.78522 0.08798 0.0
C115 C 0.58456 0.77877 0.07349 0.0
C116 C 0.57867 0.79502 0.06695 0.0
H117 H 0.1831 0.76817 0.09931 0.0
H118 H 0.25041 0.83776 0.10454 0.0
H119 H 0.22813 0.79115 0.06379 0.0
C120 C 0.19941 0.78173 0.09491 0.0
C121 C 0.20362 0.77709 0.08054 0.0
C122 C 0.21623 0.80348 0.10374 0.0
C123 C 0.23729 0.82095 0.09784 0.0
C124 C 0.24167 0.81675 0.08339 0.0
C125 C 0.22475 0.79472 0.07486 0.0
H126 H 0.18854 0.42311 0.10904 0.0
H127 H 0.25519 0.4207 0.10805 0.0
H128 H 0.23152 0.44835 0.07271 0.0
C129 C 0.20448 0.42639 0.10361 0.0
C130 C 0.20791 0.43628 0.09007 0.0
C131 C 0.22139 0.42067 0.1102 0.0
C132 C 0.24204 0.42505 0.10307 0.0
C133 C 0.24585 0.43511 0.08956 0.0
C134 C 0.22869 0.44064 0.08314 0.0
H135 H 0.41357 0.91002 0.22718 0.0
H136 H 0.47979 0.90668 0.22696 0.0
H137 H 0.43802 0.88589 0.26407 0.0
C138 C 0.42693 0.90633 0.23259 0.0
C139 C 0.42348 0.89775 0.24653 0.0
C140 C 0.44699 0.90917 0.22534 0.0
C141 C 0.4639 0.90382 0.23232 0.0
C142 C 0.46092 0.89555 0.24632 0.0
C143 C 0.44059 0.89247 0.25331 0.0
H144 H 0.06909 0.56437 0.24507 0.0
H145 H 0.06219 0.49285 0.24291 0.0
H146 H 0.09761 0.54385 0.28176 0.0
C147 C 0.07161 0.55065 0.25023 0.0
C148 C 0.08339 0.55639 0.26453 0.0
C149 C 0.0643 0.52793 0.24225 0.0
C150 C 0.06847 0.51065 0.24889 0.0
C151 C 0.08057 0.51616 0.26314 0.0
C152 C 0.08798 0.53915 0.27086 0.0
H153 H 0.41594 0.49967 0.23176 0.0
H154 H 0.48512 0.5673 0.2363 0.0
H155 H 0.44354 0.54469 0.27327 0.0
C156 C 0.4302 0.51575 0.23853 0.0
C157 C 0.42723 0.51991 0.25333 0.0
C158 C 0.45095 0.53284 0.23224 0.0
C159 C 0.46885 0.55416 0.24094 0.0
C160 C 0.46622 0.55857 0.25569 0.0
C161 C 0.44554 0.54127 0.26186 0.0
C162 C 0.53564 0.02322 0.0435 0.0
Eu163 Eu 0.51608 0.01312 0.01641 0.0
C164 C 0.52733 0.01359 0.05755 0.0
C165 C 0.5356 0.02982 0.07042 0.0
C166 C 0.52723 0.0212 0.08379 0.0
C167 C 0.51043 0.99614 0.08452 0.0
C168 C 0.50225 0.97988 0.07157 0.0
C169 C 0.51057 0.98854 0.05819 0.0
C170 C 0.49919 0.03854 0.00194 0.0
C171 C 0.45767 0.9717 0.01487 0.0
C172 C 0.46612 0.97794 0.95974 0.0
Eu173 Eu 0.48608 0.98777 0.98674 0.0
C174 C 0.4745 0.98652 0.94551 0.0
C175 C 0.46407 0.97009 0.93274 0.0
C176 C 0.4721 0.97775 0.91914 0.0
C177 C 0.49075 0.00206 0.91806 0.0
C178 C 0.50123 0.01846 0.93095 0.0
C179 C 0.4932 0.01075 0.94454 0.0
C180 C 0.50272 0.96217 0.00125 0.0
C181 C 0.54476 0.02893 0.98832 0.0
O182 O 0.53801 0.00862 0.0338 0.0
O183 O 0.52536 0.03473 0.03769 0.0
O184 O 0.52051 0.04889 0.0095 0.0
O185 O 0.48752 0.01576 0.00294 0.0
O186 O 0.47954 0.98289 0.02248 0.0
O187 O 0.45489 0.9734 0.00069 0.0
O188 O 0.46545 0.99384 0.9693 0.0
O189 O 0.47498 0.96526 0.96566 0.0
O190 O 0.48151 0.95189 0.99354 0.0
O191 O 0.51445 0.98496 0.00026 0.0
O192 O 0.523 0.01719 0.98057 0.0
O193 O 0.54741 0.02794 0.0026 0.0
H194 H 0.54847 0.04921 0.07012 0.0
H195 H 0.5341 0.03412 0.09359 0.0
H196 H 0.48911 0.96054 0.07174 0.0
H197 H 0.50376 0.9757 0.04835 0.0
H198 H 0.44977 0.95126 0.93329 0.0
H199 H 0.46391 0.96452 0.9095 0.0
H200 H 0.51541 0.03737 0.93052 0.0
H201 H 0.50159 0.02374 0.95429 0.0
C202 C 0.99231 0.52696 0.04285 0.0
Eu203 Eu 0.99436 0.50879 0.01708 0.0
C204 C 0.99583 0.52376 0.0584 0.0
C205 C 0.97766 0.52048 0.06751 0.0
C206 C 0.98058 0.51774 0.08234 0.0
C207 C 0.00186 0.51841 0.08841 0.0
C208 C 0.01996 0.52144 0.0792 0.0
C209 C 0.01695 0.52403 0.06432 0.0
C210 C 0.96375 0.46221 0.00482 0.0
C211 C 0.03225 0.4875 0.01847 0.0
C212 C 0.00981 0.47524 0.963 0.0
Eu213 Eu 0.00895 0.49431 0.98879 0.0
C214 C 0.00339 0.4769 0.94768 0.0
C215 C 0.99833 0.49528 0.9439 0.0
C216 C 0.9925 0.49676 0.9292 0.0
C217 C 0.99154 0.4798 0.9181 0.0
C218 C 0.99647 0.46134 0.92201 0.0
C219 C 0.00235 0.45992 0.93669 0.0
C220 C 0.03967 0.54089 0.00106 0.0
C221 C 0.97167 0.5162 0.98744 0.0
O222 O 0.01177 0.53684 0.03573 0.0
O223 O 0.97329 0.50866 0.03504 0.0
O224 O 0.95632 0.47581 0.01126 0.0
O225 O 0.98675 0.4732 0.0058 0.0
O226 O 0.02413 0.50076 0.0253 0.0
O227 O 0.02572 0.47946 0.0044 0.0
O228 O 0.99148 0.46469 0.97094 0.0
O229 O 0.02852 0.49504 0.96996 0.0
O230 O 0.04704 0.52736 0.99442 0.0
O231 O 0.01667 0.5299 1.00011 0.0
O232 O 0.979 0.50217 0.98071 0.0
O233 O 0.97884 0.52474 0.0014 0.0
H234 H 0.96117 0.52008 0.06313 0.0
H235 H 0.96609 0.51502 0.08905 0.0
H236 H 0.0367 0.52234 0.08353 0.0
H237 H 0.03124 0.52647 0.05751 0.0
H238 H 0.99895 0.50847 0.95231 0.0
H239 H 0.98853 0.51101 0.92654 0.0
H240 H 0.99617 0.4482 0.9137 0.0
H241 H 0.00621 0.44563 0.93945 0.0
C242 C 0.46437 0.47368 0.95961 0.0
Eu243 Eu 0.48512 0.49321 0.98607 0.0
C244 C 0.47244 0.47619 0.94483 0.0
C245 C 0.49468 0.49648 0.94211 0.0
C246 C 0.50257 0.49823 0.92809 0.0
C247 C 0.48841 0.47963 0.91661 0.0
C248 C 0.46609 0.45939 0.91943 0.0
C249 C 0.4582 0.4577 0.93343 0.0
C250 C 0.50266 0.54026 0.99725 0.0
C251 C 0.54441 0.51419 0.98724 0.0
C252 C 0.53677 0.52659 0.04227 0.0
Eu253 Eu 0.51638 0.50813 0.01561 0.0
C254 C 0.52805 0.52451 0.05687 0.0
C255 C 0.50416 0.50643 0.05897 0.0
C256 C 0.4959 0.50494 0.07287 0.0
C257 C 0.51138 0.52157 0.08486 0.0
C258 C 0.53532 0.53962 0.08266 0.0
C259 C 0.54356 0.54106 0.06876 0.0
C260 C 0.49872 0.46115 0.00419 0.0
C261 C 0.45735 0.48765 0.01443 0.0
O262 O 0.47323 0.46375 0.96838 0.0
O263 O 0.46441 0.49277 0.96613 0.0
O264 O 0.48137 0.52699 0.98979 0.0
O265 O 0.51421 0.52878 0.99763 0.0
O266 O 0.52248 0.50121 0.97977 0.0
O267 O 0.5472 0.52212 0.00128 0.0
O268 O 0.52962 0.53774 0.03336 0.0
O269 O 0.5353 0.50675 0.03582 0.0
O270 O 0.52019 0.47442 0.01143 0.0
O271 O 0.48724 0.47267 0.00408 0.0
O272 O 0.47933 0.50147 0.0217 0.0
O273 O 0.45456 0.47876 0.0006 0.0
H274 H 0.506 0.51085 0.95085 0.0
H275 H 0.51998 0.51388 0.92631 0.0
H276 H 0.45464 0.44492 0.91078 0.0
H277 H 0.44102 0.44189 0.93538 0.0
H278 H 0.49189 0.49357 0.04986 0.0
H279 H 0.47729 0.49103 0.07419 0.0
H280 H 0.54777 0.55249 0.0917 0.0
H281 H 0.56205 0.55513 0.0673 0.0
C282 C 0.20157 0.35816 0.3772 0.0
Eu283 Eu 0.18258 0.34756 0.34995 0.0
C284 C 0.19293 0.34904 0.39129 0.0
C285 C 0.20204 0.3654 0.40413 0.0
C286 C 0.19366 0.3572 0.41758 0.0
C287 C 0.17603 0.33244 0.41841 0.0
C288 C 0.1669 0.31608 0.40549 0.0
C289 C 0.17522 0.32433 0.39204 0.0
C290 C 0.16548 0.3723 0.33494 0.0
C291 C 0.12428 0.30544 0.34792 0.0
C292 C 0.13461 0.31021 0.29288 0.0
Eu293 Eu 0.15369 0.32142 0.32013 0.0
C294 C 0.14304 0.31889 0.27868 0.0
C295 C 0.13323 0.30235 0.26594 0.0
C296 C 0.14136 0.31013 0.25238 0.0
C297 C 0.15949 0.33464 0.25133 0.0
C298 C 0.16935 0.35117 0.26418 0.0
C299 C 0.16121 0.34336 0.27774 0.0
C300 C 0.17074 0.29677 0.33533 0.0
C301 C 0.21194 0.36357 0.32212 0.0
O302 O 0.20381 0.3431 0.3678 0.0
O303 O 0.19165 0.36972 0.37102 0.0
O304 O 0.18644 0.38298 0.34292 0.0
O305 O 0.15408 0.34946 0.33585 0.0
O306 O 0.14588 0.31742 0.35583 0.0
O307 O 0.12192 0.30641 0.33362 0.0
O308 O 0.13246 0.32551 0.30213 0.0
O309 O 0.14464 0.29887 0.29921 0.0
O310 O 0.14969 0.28606 0.32744 0.0
O311 O 0.18216 0.31953 0.33422 0.0
O312 O 0.19033 0.35157 0.31423 0.0
O313 O 0.21434 0.36268 0.33643 0.0
H314 H 0.21565 0.38456 0.40375 0.0
H315 H 0.20124 0.37018 0.42736 0.0
H316 H 0.15309 0.29697 0.40575 0.0
H317 H 0.16776 0.31141 0.38223 0.0
H318 H 0.11934 0.28335 0.26649 0.0
H319 H 0.13364 0.29683 0.24275 0.0
H320 H 0.18313 0.37023 0.26375 0.0
H321 H 0.16907 0.35644 0.28747 0.0
C322 C 0.65729 0.85618 0.37501 0.0
Eu323 Eu 0.66022 0.83935 0.34903 0.0
C324 C 0.66087 0.85253 0.39046 0.0
C325 C 0.64226 0.84788 0.3995 0.0
C326 C 0.64522 0.84475 0.41426 0.0
C327 C 0.66699 0.84642 0.42034 0.0
C328 C 0.68553 0.85079 0.41119 0.0
C329 C 0.68247 0.85374 0.39638 0.0
C330 C 0.63044 0.79287 0.33632 0.0
C331 C 0.69854 0.81875 0.3503 0.0
C332 C 0.67844 0.8092 0.29485 0.0
Eu333 Eu 0.67577 0.82635 0.32079 0.0
C334 C 0.67353 0.81194 0.2794 0.0
C335 C 0.69104 0.81558 0.2697 0.0
C336 C 0.68686 0.81816 0.25498 0.0
C337 C 0.66499 0.81702 0.24964 0.0
C338 C 0.64752 0.81353 0.25944 0.0
C339 C 0.65177 0.81107 0.2742 0.0
C340 C 0.70568 0.87275 0.33363 0.0
C341 C 0.63749 0.84701 0.31951 0.0
O342 O 0.67679 0.86689 0.36797 0.0
O343 O 0.63863 0.83781 0.36699 0.0
O344 O 0.62253 0.80599 0.34283 0.0
O345 O 0.65344 0.80423 0.33746 0.0
O346 O 0.69071 0.83225 0.35714 0.0
O347 O 0.69171 0.81056 0.33627 0.0
O348 O 0.65952 0.79794 0.30229 0.0
O349 O 0.69686 0.82844 0.30245 0.0
O350 O 0.71351 0.8596 0.32705 0.0
O351 O 0.68267 0.86147 0.33242 0.0
O352 O 0.64537 0.83355 0.31269 0.0
O353 O 0.64432 0.8552 0.33354 0.0
H354 H 0.62539 0.84673 0.39513 0.0
H355 H 0.63039 0.84097 0.4209 0.0
H356 H 0.70264 0.85248 0.41553 0.0
H357 H 0.69709 0.85719 0.38962 0.0
H358 H 0.708 0.81645 0.27354 0.0
H359 H 0.70088 0.82122 0.2478 0.0
H360 H 0.63035 0.81226 0.25567 0.0
H361 H 0.63798 0.80832 0.28148 0.0
C362 C 0.13358 0.80861 0.2945 0.0
Eu363 Eu 0.15401 0.8277 0.32104 0.0
C364 C 0.14171 0.81133 0.27964 0.0
C365 C 0.15446 0.83454 0.27441 0.0
C366 C 0.16226 0.83666 0.26036 0.0
C367 C 0.1577 0.81568 0.25134 0.0
C368 C 0.14508 0.79252 0.25663 0.0
C369 C 0.13709 0.79037 0.27062 0.0
C370 C 0.17116 0.87464 0.33232 0.0
C371 C 0.21334 0.84956 0.32176 0.0
C372 C 0.20678 0.8625 0.37681 0.0
Eu373 Eu 0.18598 0.84331 0.35032 0.0
C374 C 0.19831 0.85967 0.39149 0.0
C375 C 0.17508 0.84036 0.39368 0.0
C376 C 0.16696 0.83801 0.40764 0.0
C377 C 0.18197 0.85493 0.41966 0.0
C378 C 0.20525 0.87427 0.41736 0.0
C379 C 0.21332 0.87661 0.40339 0.0
C380 C 0.16907 0.79645 0.33894 0.0
C381 C 0.12661 0.82146 0.34959 0.0
O382 O 0.14218 0.79839 0.30322 0.0
O383 O 0.1331 0.82728 0.30121 0.0
O384 O 0.14956 0.86104 0.32528 0.0
O385 O 0.18297 0.86346 0.33234 0.0
O386 O 0.19129 0.83554 0.31459 0.0
O387 O 0.21626 0.85833 0.33564 0.0
O388 O 0.19833 0.87282 0.36805 0.0
O389 O 0.20651 0.84336 0.37022 0.0
O390 O 0.19062 0.81011 0.34604 0.0
O391 O 0.15716 0.80753 0.33898 0.0
O392 O 0.14867 0.83535 0.35679 0.0
O393 O 0.12368 0.81284 0.33569 0.0
H394 H 0.15853 0.85108 0.28118 0.0
H395 H 0.17217 0.85476 0.25662 0.0
H396 H 0.14109 0.776 0.24987 0.0
H397 H 0.12734 0.77231 0.27444 0.0
H398 H 0.16325 0.82709 0.38459 0.0
H399 H 0.14905 0.82278 0.40905 0.0
H400 H 0.2171 0.88783 0.42633 0.0
H401 H 0.23124 0.89172 0.40185 0.0
C402 C 0.86703 0.68811 0.70973 0.0
Eu403 Eu 0.84766 0.67837 0.68262 0.0
C404 C 0.85879 0.67823 0.72373 0.0
C405 C 0.86675 0.69435 0.73664 0.0
C406 C 0.85844 0.68552 0.74998 0.0
C407 C 0.84204 0.66035 0.75064 0.0
C408 C 0.8342 0.64418 0.73767 0.0
C409 C 0.84242 0.65306 0.72431 0.0
C410 C 0.83202 0.70452 0.66783 0.0
C411 C 0.78895 0.63772 0.68075 0.0
C412 C 0.79884 0.64271 0.62566 0.0
Eu413 Eu 0.81803 0.65307 0.65285 0.0
C414 C 0.80744 0.65228 0.61165 0.0
C415 C 0.79823 0.63632 0.59865 0.0
C416 C 0.80664 0.64496 0.58529 0.0
C417 C 0.8244 0.66977 0.58471 0.0
C418 C 0.83363 0.68572 0.5978 0.0
C419 C 0.82527 0.67703 0.61116 0.0
C420 C 0.83366 0.62714 0.66789 0.0
C421 C 0.87664 0.69419 0.65468 0.0
O422 O 0.86961 0.67378 0.69994 0.0
O423 O 0.85655 0.69952 0.70402 0.0
O424 O 0.85297 0.71446 0.67579 0.0
O425 O 0.81986 0.68171 0.66873 0.0
O426 O 0.81069 0.64869 0.68852 0.0
O427 O 0.78653 0.63929 0.66653 0.0
O428 O 0.79638 0.65743 0.63522 0.0
O429 O 0.80903 0.63126 0.63166 0.0
O430 O 0.81251 0.61709 0.66015 0.0
O431 O 0.8458 0.64983 0.66671 0.0
O432 O 0.85494 0.6827 0.64688 0.0
O433 O 0.87915 0.69298 0.66894 0.0
H434 H 0.87931 0.71383 0.73639 0.0
H435 H 0.86504 0.69837 0.7598 0.0
H436 H 0.82137 0.62474 0.7378 0.0
H437 H 0.83584 0.64029 0.71444 0.0
H438 H 0.78453 0.61714 0.59884 0.0
H439 H 0.79899 0.6323 0.57538 0.0
H440 H 0.84753 0.70484 0.59774 0.0
H441 H 0.83281 0.68963 0.62111 0.0
C442 C 0.32475 0.19042 0.70825 0.0
Eu443 Eu 0.3264 0.1725 0.6823 0.0
C444 C 0.32977 0.18795 0.72373 0.0
C445 C 0.31243 0.18479 0.73346 0.0
C446 C 0.31678 0.18277 0.74826 0.0
C447 C 0.3387 0.18405 0.75366 0.0
C448 C 0.35595 0.18692 0.74382 0.0
C449 C 0.3515 0.18878 0.72897 0.0
C450 C 0.29608 0.12582 0.67001 0.0
C451 C 0.36418 0.15129 0.68326 0.0
C452 C 0.34209 0.14029 0.62787 0.0
Eu453 Eu 0.34091 0.15857 0.65383 0.0
C454 C 0.33815 0.1444 0.61266 0.0
C455 C 0.33378 0.16346 0.6095 0.0
C456 C 0.33 0.16714 0.59493 0.0
C457 C 0.33052 0.1518 0.58332 0.0
C458 C 0.33485 0.13269 0.58663 0.0
C459 C 0.33865 0.12905 0.60118 0.0
C460 C 0.37122 0.20529 0.66606 0.0
C461 C 0.3029 0.17966 0.65284 0.0
O462 O 0.34356 0.20111 0.70066 0.0
O463 O 0.30596 0.1713 0.70083 0.0
O464 O 0.28852 0.1391 0.67672 0.0
O465 O 0.31907 0.13711 0.67082 0.0
O466 O 0.35697 0.16533 0.6901 0.0
O467 O 0.35669 0.14262 0.66933 0.0
O468 O 0.32269 0.13089 0.63504 0.0
O469 O 0.36141 0.15821 0.6357 0.0
O470 O 0.37877 0.19208 0.65927 0.0
O471 O 0.34823 0.19395 0.66525 0.0
O472 O 0.31083 0.16633 0.64592 0.0
O473 O 0.30971 0.18774 0.66689 0.0
H474 H 0.29548 0.18394 0.7296 0.0
H475 H 0.3029 0.18011 0.75545 0.0
H476 H 0.37313 0.18825 0.74762 0.0
H477 H 0.36513 0.19108 0.72166 0.0
H478 H 0.33336 0.17549 0.61828 0.0
H479 H 0.32691 0.18214 0.59275 0.0
H480 H 0.33493 0.12027 0.57796 0.0
H481 H 0.34187 0.11417 0.60348 0.0
C482 C 0.80018 0.14752 0.62676 0.0
Eu483 Eu 0.82013 0.16268 0.65377 0.0
C484 C 0.809 0.14814 0.6122 0.0
C485 C 0.79894 0.15472 0.60051 0.0
C486 C 0.80749 0.1561 0.5867 0.0
C487 C 0.82623 0.15085 0.58434 0.0
C488 C 0.83625 0.1442 0.59609 0.0
C489 C 0.82775 0.14291 0.60991 0.0
C490 C 0.83798 0.20866 0.66695 0.0
C491 C 0.87878 0.1812 0.65507 0.0
C492 C 0.87042 0.19008 0.71017 0.0
Eu493 Eu 0.85049 0.17415 0.68323 0.0
C494 C 0.86138 0.18883 0.7247 0.0
C495 C 0.87233 0.18335 0.73649 0.0
C496 C 0.86384 0.18178 0.75033 0.0
C497 C 0.84428 0.18579 0.75263 0.0
C498 C 0.83325 0.19116 0.74077 0.0
C499 C 0.84166 0.19259 0.72692 0.0
C500 C 0.83292 0.1282 0.67008 0.0
C501 C 0.79161 0.15509 0.68196 0.0
O502 O 0.80301 0.1335 0.63569 0.0
O503 O 0.80535 0.16875 0.63337 0.0
O504 O 0.81647 0.196 0.65968 0.0
O505 O 0.84938 0.19706 0.66639 0.0
O506 O 0.85685 0.16849 0.64758 0.0
O507 O 0.88155 0.18893 0.66913 0.0
O508 O 0.86647 0.20345 0.70123 0.0
O509 O 0.86657 0.1693 0.70356 0.0
O510 O 0.8543 0.14089 0.67753 0.0
O511 O 0.82139 0.13971 0.67057 0.0
O512 O 0.81346 0.16701 0.68958 0.0
O513 O 0.78888 0.14839 0.66773 0.0
H514 H 0.78449 0.15885 0.60207 0.0
H515 H 0.79921 0.16099 0.57783 0.0
H516 H 0.85089 0.1403 0.59465 0.0
H517 H 0.83592 0.13793 0.61879 0.0
H518 H 0.88752 0.18032 0.735 0.0
H519 H 0.87287 0.17786 0.75929 0.0
H520 H 0.81796 0.19405 0.74217 0.0
H521 H 0.83271 0.19662 0.71797 0.0
H522 H 0.2886 0.84251 0.09687 0.0
H523 H 0.32572 0.87124 0.08629 0.0
H524 H 0.28282 0.86007 0.04527 0.0
H525 H 0.24559 0.83202 0.05589 0.0
H526 H 0.34472 0.86089 0.06227 0.0
H527 H 0.32385 0.93474 0.05226 0.0
H528 H 0.30716 0.91123 0.06406 0.0
H529 H 0.30014 0.90475 0.04446 0.0
C530 C 0.28701 0.84654 0.08569 0.0
C531 C 0.26412 0.83501 0.07724 0.0
C532 C 0.30825 0.86283 0.07963 0.0
C533 C 0.30699 0.86804 0.06505 0.0
C534 C 0.28417 0.85669 0.05662 0.0
H535 H 0.40961 0.94643 0.00332 0.0
H536 H 0.37366 0.92156 0.016 0.0
C537 C 0.26294 0.84043 0.06266 0.0
C538 C 0.32965 0.8843 0.0584 0.0
H539 H 0.3573 0.93619 0.04077 0.0
C540 C 0.3476 0.87749 0.05769 0.0
C541 C 0.33331 0.9059 0.0524 0.0
C542 C 0.31521 0.91476 0.05344 0.0
C543 C 0.36883 0.89134 0.05079 0.0
C544 C 0.37232 0.91275 0.04462 0.0
C545 C 0.35451 0.91971 0.04546 0.0
C546 C 0.39422 0.928 0.03707 0.0
C547 C 0.38699 0.88255 0.04977 0.0
C548 C 0.41766 0.94009 0.04478 0.0
C549 C 0.43826 0.9543 0.03758 0.0
C550 C 0.43579 0.95679 0.02252 0.0
C551 C 0.41221 0.94487 0.01489 0.0
C552 C 0.39162 0.93067 0.02212 0.0
H553 H 0.37894 0.86299 0.05192 0.0
H554 H 0.39377 0.88462 0.03876 0.0
H555 H 0.40293 0.89383 0.05806 0.0
H556 H 0.42002 0.93862 0.05639 0.0
H557 H 0.4561 0.96332 0.04383 0.0
H558 H 0.18561 0.45896 0.10323 0.0
H559 H 0.15455 0.46694 0.09193 0.0
H560 H 0.15833 0.43484 0.05001 0.0
H561 H 0.18895 0.42626 0.06128 0.0
H562 H 0.15831 0.49519 0.06821 0.0
H563 H 0.08466 0.39771 0.05536 0.0
H564 H 0.1113 0.40699 0.06814 0.0
H565 H 0.11335 0.40481 0.04871 0.0
C566 C 0.17965 0.45339 0.09163 0.0
C567 C 0.18963 0.44185 0.08316 0.0
C568 C 0.16203 0.45809 0.08519 0.0
C569 C 0.15391 0.45115 0.0702 0.0
C570 C 0.16407 0.43996 0.06166 0.0
H571 H 0.054 0.46249 0.00784 0.0
H572 H 0.08314 0.4541 0.02113 0.0
C573 C 0.18174 0.43531 0.06808 0.0
C574 C 0.13511 0.456 0.06342 0.0
H575 H 0.07775 0.42772 0.04512 0.0
C576 C 0.14061 0.48047 0.06325 0.0
C577 C 0.11207 0.43672 0.05699 0.0
C578 C 0.10482 0.41006 0.05739 0.0
C579 C 0.12393 0.48623 0.0564 0.0
C580 C 0.10098 0.46695 0.04982 0.0
C581 C 0.09537 0.44246 0.05017 0.0
C582 C 0.08286 0.47179 0.04202 0.0
C583 C 0.13135 0.51291 0.05585 0.0
C584 C 0.07271 0.48417 0.04942 0.0
C585 C 0.05604 0.48909 0.04184 0.0
C586 C 0.0491 0.48152 0.02673 0.0
C587 C 0.05893 0.46863 0.01946 0.0
C588 C 0.07561 0.4638 0.02703 0.0
H589 H 0.15147 0.52525 0.05824 0.0
H590 H 0.1255 0.516 0.04492 0.0
H591 H 0.12236 0.51819 0.0642 0.0
H592 H 0.07767 0.49004 0.06106 0.0
H593 H 0.04872 0.49891 0.0478 0.0
H594 H 0.58613 0.76868 0.04415 0.0
H595 H 0.57229 0.72868 0.03063 0.0
H596 H 0.55604 0.69461 0.07098 0.0
H597 H 0.56792 0.73409 0.08441 0.0
H598 H 0.58735 0.69685 0.03137 0.0
H599 H 0.49248 0.65208 0.04662 0.0
H600 H 0.51333 0.68468 0.05055 0.0
H601 H 0.51451 0.66351 0.06247 0.0
C602 C 0.57921 0.75263 0.05014 0.0
C603 C 0.57788 0.75469 0.06538 0.0
C604 C 0.57154 0.72979 0.0424 0.0
C605 C 0.56258 0.70852 0.04973 0.0
C606 C 0.56219 0.71063 0.06501 0.0
H607 H 0.54659 0.56988 0.01347 0.0
H608 H 0.56137 0.61089 0.02596 0.0
C609 C 0.56945 0.73338 0.07273 0.0
C610 C 0.55373 0.68418 0.04138 0.0
H611 H 0.50509 0.62562 0.03546 0.0
C612 C 0.56929 0.68131 0.03219 0.0
C613 C 0.52998 0.66401 0.0422 0.0
C614 C 0.51153 0.66627 0.05086 0.0
C615 C 0.56194 0.65876 0.02399 0.0
C616 C 0.53869 0.63825 0.02544 0.0
C617 C 0.52301 0.64124 0.03446 0.0
C618 C 0.53007 0.61352 0.01767 0.0
C619 C 0.57897 0.65741 0.01363 0.0
C620 C 0.5072 0.60094 0.00923 0.0
C621 C 0.49836 0.57716 0.00251 0.0
C622 C 0.51233 0.5656 0.00401 0.0
C623 C 0.53537 0.5783 0.01223 0.0
C624 C 0.54399 0.6019 0.0192 0.0
H625 H 0.59166 0.67579 0.01019 0.0
H626 H 0.59027 0.65083 0.01929 0.0
H627 H 0.56867 0.64458 0.00364 0.0
H628 H 0.49608 0.60948 0.00791 0.0
H629 H 0.48056 0.56779 0.99619 0.0
H630 H 0.82156 0.23514 0.95052 0.0
H631 H 0.85083 0.2743 0.96481 0.0
H632 H 0.84451 0.31359 0.92946 0.0
H633 H 0.81584 0.27451 0.91501 0.0
H634 H 0.89104 0.33275 0.94006 0.0
H635 H 0.83504 0.32118 0.98635 0.0
H636 H 0.84165 0.29679 0.98329 0.0
H637 H 0.82305 0.30101 0.96947 0.0
C638 C 0.82639 0.25218 0.94586 0.0
C639 C 0.81641 0.25185 0.9317 0.0
C640 C 0.843 0.27452 0.95405 0.0
C641 C 0.84952 0.29692 0.94833 0.0
C642 C 0.83973 0.29656 0.93411 0.0
H643 H 0.91477 0.44053 0.9972 0.0
H644 H 0.88784 0.40041 0.98329 0.0
C645 C 0.82338 0.27424 0.92587 0.0
C646 C 0.86668 0.32079 0.95702 0.0
H647 H 0.87558 0.35521 0.98941 0.0
C648 C 0.88765 0.33769 0.95085 0.0
C649 C 0.86206 0.32735 0.97101 0.0
C650 C 0.83911 0.31075 0.97787 0.0
C651 C 0.90411 0.36095 0.95826 0.0
C652 C 0.89988 0.36719 0.97244 0.0
C653 C 0.87893 0.3503 0.9786 0.0
C654 C 0.91644 0.39149 0.98086 0.0
C655 C 0.92543 0.37883 0.95061 0.0
C656 C 0.94142 0.39971 0.98428 0.0
C657 C 0.95687 0.42276 0.99208 0.0
C658 C 0.9475 0.43774 0.99681 0.0
C659 C 0.92244 0.4293 0.99368 0.0
C660 C 0.90706 0.4064 0.98575 0.0
H661 H 0.92212 0.37402 0.93852 0.0
H662 H 0.92912 0.39793 0.95299 0.0
H663 H 0.94206 0.37829 0.95453 0.0
H664 H 0.94895 0.38827 0.98097 0.0
H665 H 0.97611 0.42879 0.99447 0.0
H666 H 0.73065 0.52799 0.93077 0.0
H667 H 0.69493 0.52097 0.943 0.0
H668 H 0.69614 0.58273 0.92439 0.0
H669 H 0.73285 0.5908 0.91275 0.0
H670 H 0.68815 0.58281 0.95277 0.0
H671 H 0.62575 0.48992 0.92421 0.0
H672 H 0.65255 0.49208 0.93355 0.0
H673 H 0.6555 0.51012 0.91851 0.0
C674 C 0.72356 0.54031 0.92939 0.0
C675 C 0.7347 0.55998 0.92073 0.0
C676 C 0.70286 0.53601 0.93623 0.0
C677 C 0.69251 0.55098 0.93436 0.0
C678 C 0.70368 0.57079 0.92587 0.0
H679 H 0.54668 0.5099 0.95763 0.0
H680 H 0.58272 0.5204 0.94475 0.0
C681 C 0.72455 0.57525 0.91912 0.0
C682 C 0.67034 0.54623 0.94151 0.0
H683 H 0.61177 0.5016 0.94516 0.0
C684 C 0.67138 0.56511 0.95103 0.0
C685 C 0.64831 0.52327 0.93905 0.0
C686 C 0.64533 0.50279 0.92815 0.0
C687 C 0.65121 0.56149 0.95842 0.0
C688 C 0.62962 0.53811 0.95654 0.0
C689 C 0.62841 0.51942 0.94676 0.0
C690 C 0.60796 0.53261 0.96449 0.0
C691 C 0.65315 0.58289 0.96794 0.0
C692 C 0.61006 0.53579 0.97989 0.0
C693 C 0.58949 0.53008 0.9873 0.0
C694 C 0.56632 0.52062 0.97945 0.0
C695 C 0.56423 0.51715 0.96403 0.0
C696 C 0.58484 0.52314 0.95664 0.0
H697 H 0.66731 0.60077 0.96463 0.0
H698 H 0.63541 0.58254 0.96742 0.0
H699 H 0.65852 0.58191 0.9795 0.0
H700 H 0.62755 0.54238 0.98622 0.0
H701 H 0.59169 0.53272 0.99919 0.0
H702 H 0.44002 0.16123 0.91893 0.0
H703 H 0.45179 0.1345 0.93092 0.0
H704 H 0.41193 0.1348 0.96742 0.0
H705 H 0.40073 0.16217 0.95561 0.0
H706 H 0.45591 0.14362 0.97682 0.0
H707 H 0.41398 0.06252 0.93533 0.0
H708 H 0.43414 0.09014 0.92757 0.0
H709 H 0.40692 0.0869 0.93473 0.0
C710 C 0.43346 0.15524 0.9294 0.0
C711 C 0.41941 0.16365 0.93634 0.0
C712 C 0.44009 0.13988 0.93622 0.0
C713 C 0.43237 0.13225 0.94995 0.0
C714 C 0.41801 0.14036 0.95679 0.0
H715 H 0.45203 0.02107 0.99075 0.0
H716 H 0.43523 0.04365 0.97841 0.0
C717 C 0.41164 0.15599 0.95007 0.0
C718 C 0.44066 0.11723 0.95763 0.0
H719 H 0.44417 0.0649 0.95346 0.0
C720 C 0.45313 0.12629 0.97176 0.0
C721 C 0.43674 0.09444 0.95112 0.0
C722 C 0.42198 0.0828 0.93642 0.0
C723 C 0.46228 0.1135 0.97943 0.0
C724 C 0.45957 0.09143 0.97259 0.0
C725 C 0.44657 0.08203 0.95861 0.0
C726 C 0.46992 0.07771 0.97981 0.0
C727 C 0.47439 0.12362 0.99489 0.0
C728 C 0.49506 0.08921 0.98444 0.0
C729 C 0.50461 0.07644 0.99163 0.0
C730 C 0.48925 0.05183 0.99406 0.0
C731 C 0.46425 0.04008 0.98903 0.0
C732 C 0.45465 0.05293 0.98198 0.0
H733 H 0.46831 0.13585 1.0 0.0
H734 H 0.47038 0.10861 0.00194 0.0
H735 H 0.49451 0.13468 0.99462 0.0
H736 H 0.5073 0.10809 0.98249 0.0
H737 H 0.52401 0.0858 0.99525 0.0
H738 H 0.73327 0.19861 0.93888 0.0
H739 H 0.69683 0.16959 0.94968 0.0
H740 H 0.69977 0.10897 0.92744 0.0
H741 H 0.73706 0.13797 0.9171 0.0
H742 H 0.65252 0.13479 0.93625 0.0
H743 H 0.69396 0.09136 0.96938 0.0
H744 H 0.71216 0.1193 0.96109 0.0
H745 H 0.69778 0.09 0.95018 0.0
C746 C 0.72649 0.17912 0.93648 0.0
C747 C 0.73832 0.17066 0.92725 0.0
C748 C 0.70548 0.16254 0.94256 0.0
C749 C 0.69576 0.13712 0.93954 0.0
C750 C 0.70724 0.12852 0.93016 0.0
H751 H 0.5479 0.0305 0.95872 0.0
H752 H 0.5841 0.05553 0.94631 0.0
C753 C 0.72839 0.14513 0.92412 0.0
C754 C 0.67332 0.11979 0.94604 0.0
H755 H 0.65102 0.07402 0.96869 0.0
C756 C 0.65216 0.12147 0.94333 0.0
C757 C 0.67299 0.10262 0.9554 0.0
C758 C 0.69548 0.10079 0.95933 0.0
C759 C 0.63072 0.10655 0.94977 0.0
C760 C 0.63024 0.08906 0.95892 0.0
C761 C 0.65136 0.0873 0.96158 0.0
C762 C 0.60835 0.07314 0.96634 0.0
C763 C 0.60907 0.11027 0.94709 0.0
C764 C 0.6101 0.07408 0.98171 0.0
C765 C 0.58951 0.05957 0.98885 0.0
C766 C 0.56672 0.04382 0.98074 0.0
C767 C 0.5651 0.04262 0.96532 0.0
C768 C 0.58576 0.05701 0.95819 0.0
H769 H 0.61454 0.12846 0.94317 0.0
H770 H 0.5956 0.09587 0.93854 0.0
H771 H 0.5999 0.10881 0.95723 0.0
H772 H 0.62737 0.08634 0.98822 0.0
H773 H 0.59143 0.06095 0.00073 0.0
H774 H 0.81671 0.53939 0.90185 0.0
H775 H 0.84734 0.53183 0.91415 0.0
H776 H 0.84661 0.57088 0.9542 0.0
H777 H 0.816 0.57857 0.94198 0.0
H778 H 0.89405 0.56531 0.92778 0.0
H779 H 0.83455 0.50525 0.96734 0.0
H780 H 0.82254 0.51302 0.9515 0.0
H781 H 0.83636 0.53463 0.96766 0.0
C782 C 0.82317 0.54649 0.91326 0.0
C783 C 0.81385 0.55949 0.92097 0.0
C784 C 0.8406 0.54207 0.92028 0.0
C785 C 0.84896 0.55047 0.93514 0.0
C786 C 0.83998 0.56375 0.94281 0.0
H787 H 0.95234 0.54376 0.99775 0.0
H788 H 0.92354 0.55268 0.98449 0.0
C789 C 0.8225 0.56813 0.93582 0.0
C790 C 0.8673 0.54554 0.94254 0.0
H791 H 0.87671 0.5177 0.97097 0.0
C792 C 0.89025 0.5548 0.93718 0.0
C793 C 0.86223 0.53178 0.95478 0.0
C794 C 0.83752 0.52038 0.9606 0.0
C795 C 0.90851 0.55113 0.94394 0.0
C796 C 0.90349 0.53755 0.95625 0.0
C797 C 0.8805 0.52818 0.96156 0.0
C798 C 0.92188 0.53299 0.96392 0.0
C799 C 0.93318 0.56227 0.93808 0.0
C800 C 0.93049 0.51892 0.95672 0.0
C801 C 0.947 0.51377 0.96427 0.0
C802 C 0.95509 0.52251 0.97917 0.0
C803 C 0.94655 0.53677 0.98628 0.0
C804 C 0.93005 0.54187 0.97874 0.0
H805 H 0.93596 0.57685 0.9309 0.0
H806 H 0.94817 0.57027 0.9472 0.0
H807 H 0.9345 0.5477 0.93149 0.0
H808 H 0.92408 0.51154 0.94535 0.0
H809 H 0.95313 0.50266 0.95847 0.0
H810 H 0.38962 0.24527 0.93185 0.0
H811 H 0.40273 0.28588 0.94462 0.0
H812 H 0.46946 0.29035 0.96263 0.0
H813 H 0.45677 0.25008 0.94972 0.0
H814 H 0.41687 0.30257 0.97592 0.0
H815 H 0.4918 0.35339 0.94113 0.0
H816 H 0.46722 0.3223 0.93572 0.0
H817 H 0.49199 0.32804 0.94899 0.0
C818 C 0.40711 0.25495 0.93852 0.0
C819 C 0.42221 0.24453 0.93975 0.0
C820 C 0.41449 0.27804 0.94584 0.0
C821 C 0.43716 0.29115 0.95439 0.0
C822 C 0.45202 0.28059 0.95593 0.0
H823 H 0.52214 0.43488 0.00287 0.0
H824 H 0.5061 0.39307 0.99114 0.0
C825 C 0.44463 0.25749 0.94866 0.0
C826 C 0.44552 0.31605 0.96159 0.0
H827 H 0.48979 0.37623 0.96191 0.0
C828 C 0.43273 0.31874 0.97285 0.0
C829 C 0.4662 0.337 0.95749 0.0
C830 C 0.48004 0.3352 0.94509 0.0
C831 C 0.44049 0.34187 0.98042 0.0
C832 C 0.46129 0.36282 0.97638 0.0
C833 C 0.47391 0.36011 0.96501 0.0
C834 C 0.47049 0.38777 0.98386 0.0
C835 C 0.42679 0.34356 0.99292 0.0
C836 C 0.45582 0.39867 0.98358 0.0
C837 C 0.4649 0.42248 0.99034 0.0
C838 C 0.48889 0.43585 0.99733 0.0
C839 C 0.50357 0.42495 0.99757 0.0
C840 C 0.49445 0.40112 0.99087 0.0
H841 H 0.41554 0.3254 0.99706 0.0
H842 H 0.4396 0.35681 0.00217 0.0
H843 H 0.4143 0.3501 0.98904 0.0
H844 H 0.43746 0.38889 0.97797 0.0
H845 H 0.45321 0.43049 0.99 0.0
H846 H 0.15351 0.75342 0.07729 0.0
H847 H 0.12511 0.71344 0.06353 0.0
H848 H 0.18615 0.70766 0.04977 0.0
H849 H 0.21464 0.7473 0.06374 0.0
H850 H 0.12134 0.6982 0.03278 0.0
H851 H 0.14456 0.64339 0.06878 0.0
H852 H 0.15238 0.67464 0.07435 0.0
H853 H 0.17032 0.66866 0.06207 0.0
C854 C 0.16087 0.74355 0.0714 0.0
C855 C 0.18631 0.75344 0.07166 0.0
C856 C 0.14464 0.72082 0.06349 0.0
C857 C 0.15357 0.7075 0.05582 0.0
C858 C 0.17892 0.71752 0.05581 0.0
H859 H 0.08944 0.56582 0.0047 0.0
H860 H 0.11662 0.60679 0.01763 0.0
C861 C 0.19516 0.74027 0.06367 0.0
C862 C 0.13638 0.68308 0.04784 0.0
H863 H 0.11888 0.62225 0.04681 0.0
C864 C 0.12067 0.68154 0.03586 0.0
C865 C 0.13562 0.66146 0.05193 0.0
C866 C 0.15145 0.66196 0.06506 0.0
C867 C 0.10457 0.65895 0.0276 0.0
C868 C 0.10389 0.63732 0.03165 0.0
C869 C 0.1195 0.63887 0.04371 0.0
C870 C 0.08729 0.61286 0.02348 0.0
C871 C 0.08892 0.65853 0.0144 0.0
C872 C 0.06178 0.60263 0.02258 0.0
C873 C 0.04625 0.5793 0.01513 0.0
C874 C 0.05598 0.56573 0.00862 0.0
C875 C 0.08148 0.57594 0.00959 0.0
C876 C 0.097 0.59929 0.01698 0.0
H877 H 0.09614 0.67706 0.01057 0.0
H878 H 0.08774 0.6456 0.00518 0.0
H879 H 0.07013 0.65228 0.01738 0.0
H880 H 0.05389 0.61257 0.02778 0.0
H881 H 0.02664 0.57182 0.01457 0.0
H882 H 0.277 0.47669 0.07751 0.0
H883 H 0.31265 0.48437 0.06482 0.0
H884 H 0.29971 0.41198 0.07193 0.0
H885 H 0.26424 0.4044 0.0849 0.0
H886 H 0.3475 0.44597 0.07746 0.0
H887 H 0.31169 0.45727 0.02373 0.0
H888 H 0.31252 0.47806 0.0383 0.0
H889 H 0.29274 0.44542 0.03848 0.0
C890 C 0.28168 0.46237 0.07628 0.0
C891 C 0.26775 0.43988 0.0821 0.0
C892 C 0.30199 0.46673 0.06898 0.0
C893 C 0.30855 0.44855 0.06713 0.0
C894 C 0.29491 0.42623 0.07316 0.0
H895 H 0.40959 0.45343 0.0052 0.0
H896 H 0.37364 0.44276 0.01829 0.0
C897 C 0.27471 0.42194 0.08059 0.0
C898 C 0.32984 0.45298 0.05911 0.0
H899 H 0.35406 0.46956 0.02663 0.0
C900 C 0.34887 0.45098 0.06631 0.0
C901 C 0.33144 0.45909 0.04447 0.0
C902 C 0.31089 0.45984 0.03573 0.0
C903 C 0.36971 0.45546 0.0594 0.0
C904 C 0.37186 0.46278 0.04502 0.0
C905 C 0.35256 0.46424 0.03771 0.0
C906 C 0.39387 0.46895 0.0373 0.0
C907 C 0.38897 0.45187 0.0675 0.0
C908 C 0.4172 0.48741 0.04354 0.0
C909 C 0.43782 0.49337 0.03615 0.0
C910 C 0.43547 0.48131 0.02223 0.0
C911 C 0.41205 0.46311 0.01589 0.0
C912 C 0.39147 0.45697 0.02337 0.0
H913 H 0.38125 0.43912 0.07607 0.0
H914 H 0.39731 0.44448 0.05989 0.0
H915 H 0.40365 0.46983 0.07306 0.0
H916 H 0.41947 0.49742 0.05408 0.0
H917 H 0.45557 0.50764 0.04131 0.0
H918 H 0.54048 0.80479 0.05934 0.0
H919 H 0.52867 0.83199 0.04796 0.0
H920 H 0.59942 0.89454 0.06334 0.0
H921 H 0.61156 0.86736 0.07457 0.0
H922 H 0.5286 0.87443 0.06265 0.0
H923 H 0.59036 0.898 0.01817 0.0
H924 H 0.58234 0.87154 0.02808 0.0
H925 H 0.60414 0.9018 0.03657 0.0
C926 C 0.55362 0.8243 0.06016 0.0
C927 C 0.57701 0.83395 0.06774 0.0
C928 C 0.54679 0.83981 0.05376 0.0
C929 C 0.56326 0.86518 0.05472 0.0
C930 C 0.58657 0.87495 0.06236 0.0
H931 H 0.54858 0.98021 0.01505 0.0
H932 H 0.56378 0.958 0.0293 0.0
C933 C 0.5934 0.85945 0.06883 0.0
C934 C 0.55585 0.88134 0.04777 0.0
H935 H 0.56627 0.91682 0.01944 0.0
C936 C 0.53685 0.88378 0.05323 0.0
C937 C 0.56681 0.89357 0.03556 0.0
C938 C 0.58694 0.89107 0.02913 0.0
C939 C 0.5284 0.89812 0.04672 0.0
C940 C 0.53889 0.90981 0.03425 0.0
C941 C 0.55825 0.90778 0.02899 0.0
C942 C 0.52945 0.92347 0.02615 0.0
C943 C 0.50847 0.9008 0.05332 0.0
C944 C 0.50521 0.91133 0.01957 0.0
C945 C 0.49649 0.92399 0.01151 0.0
C946 C 0.51193 0.94894 0.00983 0.0
C947 C 0.53624 0.96104 0.01633 0.0
C948 C 0.54495 0.94838 0.02441 0.0
H949 H 0.50749 0.89689 0.06499 0.0
H950 H 0.51141 0.91961 0.0527 0.0
H951 H 0.49055 0.88749 0.04714 0.0
H952 H 0.49313 0.89197 0.02051 0.0
H953 H 0.47771 0.91422 0.00655 0.0
H954 H 0.9326 0.19754 0.41924 0.0
H955 H 0.96974 0.22594 0.40857 0.0
H956 H 0.97247 0.16447 0.3874 0.0
H957 H 0.93617 0.13605 0.39855 0.0
H958 H 0.0169 0.19976 0.40022 0.0
H959 H 0.9746 0.24148 0.36625 0.0
H960 H 0.97114 0.24379 0.38546 0.0
H961 H 0.95667 0.21405 0.37505 0.0
C962 C 0.94122 0.19007 0.41241 0.0
C963 C 0.93125 0.16448 0.40966 0.0
C964 C 0.96228 0.20633 0.40617 0.0
C965 C 0.97361 0.19732 0.39696 0.0
C966 C 0.96391 0.17183 0.39437 0.0
H967 H 0.07788 0.27282 0.3353 0.0
H968 H 0.04185 0.24713 0.34768 0.0
C969 C 0.943 0.1556 0.40065 0.0
C970 C 0.99585 0.21429 0.39017 0.0
H971 H 0.01763 0.25921 0.36694 0.0
C972 C 0.01708 0.21278 0.39295 0.0
C973 C 0.99593 0.23103 0.38054 0.0
C974 C 0.97332 0.2326 0.37651 0.0
C975 C 0.03841 0.22752 0.38636 0.0
C976 C 0.03868 0.24468 0.377 0.0
C977 C 0.01744 0.24619 0.37422 0.0
C978 C 0.06057 0.26068 0.36962 0.0
C979 C 0.06017 0.22403 0.38915 0.0
C980 C 0.08298 0.27709 0.37784 0.0
C981 C 0.10366 0.29165 0.37079 0.0
C982 C 0.10225 0.29033 0.35537 0.0
C983 C 0.07963 0.27429 0.34718 0.0
C984 C 0.059 0.2596 0.35424 0.0
H985 H 0.05481 0.20591 0.39316 0.0
H986 H 0.06941 0.22545 0.37904 0.0
H987 H 0.07355 0.23855 0.39769 0.0
H988 H 0.08448 0.27869 0.38972 0.0
H989 H 0.12072 0.304 0.37746 0.0
H990 H 0.82549 0.73916 0.41887 0.0
H991 H 0.79505 0.74709 0.40663 0.0
H992 H 0.85277 0.81778 0.39711 0.0
H993 H 0.88329 0.80964 0.40903 0.0
H994 H 0.78393 0.78211 0.41281 0.0
H995 H 0.81526 0.78979 0.35727 0.0
H996 H 0.82628 0.77834 0.37164 0.0
H997 H 0.83901 0.81094 0.37108 0.0
C998 C 0.83165 0.75635 0.41412 0.0
C999 C 0.85674 0.77373 0.4148 0.0
C1000 C 0.81427 0.76086 0.40712 0.0
C1001 C 0.82163 0.78286 0.40074 0.0
C1002 C 0.84668 0.80039 0.40159 0.0
H1003 H 0.72551 0.84026 0.37687 0.0
H1004 H 0.75494 0.83139 0.38952 0.0
C1005 C 0.8641 0.79577 0.40844 0.0
C1006 C 0.80302 0.78761 0.39348 0.0
H1007 H 0.78609 0.80226 0.36132 0.0
C1008 C 0.78432 0.78641 0.40152 0.0
C1009 C 0.80333 0.79287 0.37869 0.0
C1010 C 0.82189 0.79282 0.36912 0.0
C1011 C 0.76609 0.79055 0.39525 0.0
C1012 C 0.76697 0.79676 0.38064 0.0
C1013 C 0.78554 0.79774 0.37256 0.0
C1014 C 0.74856 0.80177 0.37334 0.0
C1015 C 0.74576 0.78765 0.40422 0.0
C1016 C 0.73556 0.78847 0.35989 0.0
C1017 C 0.7191 0.7938 0.35252 0.0
C1018 C 0.71517 0.81248 0.3585 0.0
C1019 C 0.72795 0.82559 0.37206 0.0
C1020 C 0.74468 0.82044 0.37935 0.0
H1021 H 0.74366 0.77591 0.41321 0.0
H1022 H 0.75014 0.80599 0.40931 0.0
H1023 H 0.72801 0.77943 0.39728 0.0
H1024 H 0.73827 0.774 0.35503 0.0
H1025 H 0.7095 0.7833 0.34211 0.0
H1026 H 0.22679 0.06818 0.41644 0.0
H1027 H 0.21488 0.02833 0.40325 0.0
H1028 H 0.25497 0.06488 0.36747 0.0
H1029 H 0.26633 0.10483 0.38049 0.0
H1030 H 0.21132 0.02757 0.35744 0.0
H1031 H 0.25434 0.99532 0.39795 0.0
H1032 H 0.23363 0.00309 0.40599 0.0
H1033 H 0.26067 0.02666 0.39912 0.0
C1034 C 0.2333 0.06769 0.40584 0.0
C1035 C 0.24761 0.08954 0.39951 0.0
C1036 C 0.22658 0.04493 0.39834 0.0
C1037 C 0.23446 0.04362 0.3845 0.0
C1038 C 0.2488 0.06546 0.37817 0.0
H1039 H 0.21823 0.90756 0.34295 0.0
H1040 H 0.2343 0.94929 0.35477 0.0
C1041 C 0.25526 0.08823 0.38559 0.0
C1042 C 0.22677 0.01941 0.37636 0.0
H1043 H 0.22468 0.96473 0.37949 0.0
C1044 C 0.21444 0.01391 0.36221 0.0
C1045 C 0.23119 0.00173 0.38248 0.0
C1046 C 0.24592 0.00709 0.39715 0.0
C1047 C 0.20588 0.991 0.35414 0.0
C1048 C 0.20906 0.97282 0.36061 0.0
C1049 C 0.22193 0.97854 0.37461 0.0
C1050 C 0.19929 0.94776 0.35305 0.0
C1051 C 0.19388 0.98672 0.33871 0.0
C1052 C 0.17424 0.93294 0.34826 0.0
C1053 C 0.1651 0.90923 0.34131 0.0
C1054 C 0.18079 0.89979 0.33933 0.0
C1055 C 0.20576 0.91445 0.34432 0.0
C1056 C 0.21494 0.93826 0.35109 0.0
H1057 H 0.19982 0.00433 0.33387 0.0
H1058 H 0.19816 0.9749 0.33145 0.0
H1059 H 0.17374 0.97745 0.33891 0.0
H1060 H 0.16168 0.93958 0.35004 0.0
H1061 H 0.14572 0.89815 0.33771 0.0
H1062 H 0.48514 0.60513 0.24799 0.0
H1063 H 0.51499 0.64357 0.26252 0.0
H1064 H 0.51908 0.60282 0.29765 0.0
H1065 H 0.4886 0.56424 0.28324 0.0
H1066 H 0.51569 0.64089 0.3081 0.0
H1067 H 0.58755 0.67323 0.2701 0.0
H1068 H 0.55891 0.66728 0.26114 0.0
H1069 H 0.56162 0.64237 0.26787 0.0
C1070 C 0.49262 0.60438 0.25876 0.0
C1071 C 0.48473 0.58174 0.26447 0.0
C1072 C 0.50977 0.62634 0.26702 0.0
C1073 C 0.51974 0.62607 0.28104 0.0
C1074 C 0.51177 0.60346 0.28681 0.0
H1075 H 0.6443 0.76046 0.32636 0.0
H1076 H 0.61793 0.71888 0.31396 0.0
C1077 C 0.49436 0.58146 0.27861 0.0
C1078 C 0.5376 0.64949 0.28991 0.0
H1079 H 0.59066 0.70369 0.28853 0.0
C1080 C 0.53223 0.65451 0.30389 0.0
C1081 C 0.55944 0.66709 0.28455 0.0
C1082 C 0.56736 0.66211 0.27016 0.0
C1083 C 0.54762 0.67697 0.31243 0.0
C1084 C 0.56856 0.69523 0.30663 0.0
C1085 C 0.57441 0.68986 0.29289 0.0
C1086 C 0.58441 0.72015 0.3145 0.0
C1087 C 0.54136 0.68076 0.32762 0.0
C1088 C 0.57441 0.73479 0.31877 0.0
C1089 C 0.58938 0.75837 0.32601 0.0
C1090 C 0.61469 0.7679 0.32884 0.0
C1091 C 0.6248 0.75347 0.32434 0.0
C1092 C 0.60977 0.72976 0.31726 0.0
H1093 H 0.53022 0.66294 0.33215 0.0
H1094 H 0.5581 0.69236 0.33531 0.0
H1095 H 0.53037 0.69003 0.32708 0.0
H1096 H 0.55504 0.72811 0.31635 0.0
H1097 H 0.58119 0.76926 0.32921 0.0
H1098 H 0.40536 0.92897 0.24985 0.0
H1099 H 0.37032 0.9229 0.26285 0.0
H1100 H 0.35741 0.85152 0.27255 0.0
H1101 H 0.3926 0.85769 0.25985 0.0
H1102 H 0.32243 0.88894 0.25822 0.0
H1103 H 0.35959 0.88223 0.31278 0.0
H1104 H 0.37811 0.89258 0.29772 0.0
H1105 H 0.35843 0.8602 0.29895 0.0
C1106 C 0.39499 0.91198 0.25475 0.0
C1107 C 0.40184 0.89391 0.25398 0.0
C1108 C 0.37504 0.90856 0.2622 0.0
C1109 C 0.36156 0.88698 0.26896 0.0
C1110 C 0.36797 0.86863 0.26782 0.0
H1111 H 0.21519 0.82879 0.29519 0.0
H1112 H 0.25126 0.83904 0.28237 0.0
C1113 C 0.38803 0.87214 0.26051 0.0
C1114 C 0.34054 0.88343 0.277 0.0
H1115 H 0.31701 0.86926 0.30987 0.0
C1116 C 0.32132 0.88482 0.26955 0.0
C1117 C 0.33929 0.87851 0.29187 0.0
C1118 C 0.36008 0.87855 0.30085 0.0
C1119 C 0.30057 0.88076 0.27643 0.0
C1120 C 0.29872 0.87449 0.29105 0.0
C1121 C 0.31826 0.87376 0.29861 0.0
C1122 C 0.2767 0.86849 0.29872 0.0
C1123 C 0.28106 0.88361 0.26802 0.0
C1124 C 0.27903 0.88105 0.31244 0.0
C1125 C 0.25848 0.87491 0.31995 0.0
C1126 C 0.23515 0.85612 0.31385 0.0
C1127 C 0.23286 0.84353 0.30013 0.0
C1128 C 0.25346 0.8495 0.29271 0.0
H1129 H 0.2886 0.89586 0.2592 0.0
H1130 H 0.26654 0.86534 0.26274 0.0
H1131 H 0.27258 0.89122 0.27537 0.0
H1132 H 0.29678 0.89568 0.31734 0.0
H1133 H 0.26088 0.88499 0.33048 0.0
H1134 H 0.0939 0.48538 0.24931 0.0
H1135 H 0.10447 0.45718 0.26023 0.0
H1136 H 0.09345 0.48013 0.30299 0.0
H1137 H 0.0808 0.5068 0.29202 0.0
H1138 H 0.14116 0.46682 0.2786 0.0
H1139 H 0.05745 0.40795 0.30447 0.0
H1140 H 0.0586 0.42907 0.29171 0.0
H1141 H 0.06959 0.43971 0.3108 0.0
C1142 C 0.09297 0.48393 0.26098 0.0
C1143 C 0.08632 0.49836 0.26974 0.0
C1144 C 0.09931 0.46795 0.26724 0.0
C1145 C 0.0994 0.46619 0.28241 0.0
C1146 C 0.09288 0.48061 0.2912 0.0
H1147 H 0.18733 0.42151 0.33297 0.0
H1148 H 0.17079 0.4434 0.3197 0.0
C1149 C 0.08609 0.49625 0.28492 0.0
C1150 C 0.10784 0.4505 0.28913 0.0
H1151 H 0.09366 0.40732 0.31325 0.0
C1152 C 0.13061 0.4536 0.28604 0.0
C1153 C 0.09393 0.43289 0.29864 0.0
C1154 C 0.06842 0.42701 0.30146 0.0
C1155 C 0.14016 0.44012 0.29249 0.0
C1156 C 0.12703 0.4238 0.30279 0.0
C1157 C 0.10393 0.42014 0.30554 0.0
C1158 C 0.13701 0.41054 0.31093 0.0
C1159 C 0.16404 0.4433 0.28799 0.0
C1160 C 0.1231 0.38489 0.31097 0.0
C1161 C 0.13226 0.37245 0.31889 0.0
C1162 C 0.1556 0.38539 0.32675 0.0
C1163 C 0.1694 0.41105 0.32684 0.0
C1164 C 0.16007 0.42354 0.31914 0.0
H1165 H 0.16717 0.4494 0.27682 0.0
H1166 H 0.17937 0.45767 0.29573 0.0
H1167 H 0.16453 0.42594 0.28812 0.0
H1168 H 0.10515 0.37449 0.30487 0.0
H1169 H 0.12102 0.35272 0.31891 0.0
H1170 H 0.40248 0.46942 0.24955 0.0
H1171 H 0.36496 0.44109 0.25998 0.0
H1172 H 0.36404 0.50269 0.28246 0.0
H1173 H 0.40082 0.53106 0.27166 0.0
H1174 H 0.35643 0.43507 0.28892 0.0
H1175 H 0.29517 0.46318 0.26162 0.0
H1176 H 0.325 0.47185 0.25599 0.0
H1177 H 0.32204 0.4886 0.27158 0.0
C1178 C 0.3941 0.47693 0.25657 0.0
C1179 C 0.40464 0.50252 0.25975 0.0
C1180 C 0.37277 0.46072 0.26259 0.0
C1181 C 0.36151 0.4698 0.27181 0.0
C1182 C 0.37214 0.49529 0.27514 0.0
H1183 H 0.25878 0.39526 0.33454 0.0
H1184 H 0.2949 0.41988 0.32195 0.0
C1185 C 0.39338 0.51148 0.26911 0.0
C1186 C 0.33897 0.45269 0.27827 0.0
H1187 H 0.28017 0.43888 0.28157 0.0
C1188 C 0.33968 0.43574 0.28723 0.0
C1189 C 0.31702 0.45335 0.27587 0.0
C1190 C 0.31462 0.47005 0.26562 0.0
C1191 C 0.31924 0.41992 0.29422 0.0
C1192 C 0.29771 0.42147 0.29241 0.0
C1193 C 0.29678 0.43792 0.2831 0.0
C1194 C 0.27591 0.40626 0.30008 0.0
C1195 C 0.32085 0.40152 0.30332 0.0
C1196 C 0.25307 0.39093 0.29199 0.0
C1197 C 0.23233 0.37708 0.29915 0.0
C1198 C 0.23399 0.37829 0.31458 0.0
C1199 C 0.25688 0.39373 0.32266 0.0
C1200 C 0.2776 0.4077 0.31547 0.0
H1201 H 0.33535 0.39767 0.30008 0.0
H1202 H 0.3255 0.4091 0.31504 0.0
H1203 H 0.30315 0.38391 0.30225 0.0
H1204 H 0.25131 0.38964 0.28011 0.0
H1205 H 0.21502 0.36536 0.29257 0.0
H1206 H 0.48244 0.87125 0.23415 0.0
H1207 H 0.51268 0.86287 0.24621 0.0
H1208 H 0.51094 0.8996 0.28695 0.0
H1209 H 0.48077 0.90811 0.27498 0.0
H1210 H 0.55908 0.89589 0.26036 0.0
H1211 H 0.49903 0.83336 0.29878 0.0
H1212 H 0.4872 0.84184 0.28318 0.0
H1213 H 0.50055 0.86264 0.2997 0.0
C1214 C 0.48856 0.87762 0.24567 0.0
C1215 C 0.47912 0.89024 0.25364 0.0
C1216 C 0.50577 0.87274 0.25254 0.0
C1217 C 0.51376 0.88028 0.26752 0.0
C1218 C 0.50459 0.89311 0.27547 0.0
H1219 H 0.617 0.87337 0.33003 0.0
H1220 H 0.58782 0.88184 0.31682 0.0
C1221 C 0.48735 0.89796 0.26861 0.0
C1222 C 0.53206 0.87514 0.27476 0.0
H1223 H 0.54138 0.84652 0.30277 0.0
C1224 C 0.55519 0.88497 0.26957 0.0
C1225 C 0.52689 0.86086 0.28676 0.0
C1226 C 0.50201 0.84886 0.29237 0.0
C1227 C 0.57353 0.8814 0.27632 0.0
C1228 C 0.56843 0.86735 0.28842 0.0
C1229 C 0.54525 0.85736 0.29352 0.0
C1230 C 0.58696 0.86298 0.2961 0.0
C1231 C 0.59839 0.89319 0.27068 0.0
C1232 C 0.59612 0.84953 0.28881 0.0
C1233 C 0.61286 0.84464 0.29633 0.0
C1234 C 0.62062 0.85304 0.3113 0.0
C1235 C 0.61148 0.86666 0.31851 0.0
C1236 C 0.59476 0.8715 0.31099 0.0
H1237 H 0.60109 0.90794 0.26367 0.0
H1238 H 0.61319 0.90114 0.27992 0.0
H1239 H 0.60018 0.87901 0.26398 0.0
H1240 H 0.59 0.84242 0.27738 0.0
H1241 H 0.61943 0.83402 0.29046 0.0
H1242 H 0.12757 0.58715 0.28042 0.0
H1243 H 0.14126 0.62758 0.29353 0.0
H1244 H 0.07198 0.62147 0.2797 0.0
H1245 H 0.05795 0.58079 0.2668 0.0
H1246 H 0.14433 0.66949 0.28097 0.0
H1247 H 0.08142 0.63946 0.32474 0.0
H1248 H 0.08746 0.61855 0.31388 0.0
H1249 H 0.06704 0.62803 0.30628 0.0
C1250 C 0.11513 0.59426 0.28035 0.0
C1251 C 0.09163 0.58075 0.27266 0.0
C1252 C 0.12303 0.6174 0.28776 0.0
C1253 C 0.10751 0.62732 0.28771 0.0
C1254 C 0.08407 0.61393 0.28004 0.0
H1255 H 0.12346 0.765 0.3252 0.0
H1256 H 0.10867 0.72408 0.3124 0.0
C1257 C 0.07618 0.59083 0.27258 0.0
C1258 C 0.11617 0.65203 0.29533 0.0
H1259 H 0.10561 0.68236 0.32348 0.0
C1260 C 0.13596 0.67234 0.2903 0.0
C1261 C 0.10506 0.6556 0.30743 0.0
C1262 C 0.08418 0.63428 0.31352 0.0
C1263 C 0.1448 0.69627 0.29695 0.0
C1264 C 0.13385 0.69984 0.30915 0.0
C1265 C 0.11397 0.67952 0.31414 0.0
C1266 C 0.14284 0.72453 0.31693 0.0
C1267 C 0.16543 0.71757 0.29068 0.0
C1268 C 0.16682 0.73814 0.32389 0.0
C1269 C 0.17532 0.76152 0.33114 0.0
C1270 C 0.1599 0.77156 0.33162 0.0
C1271 C 0.13576 0.75773 0.32489 0.0
C1272 C 0.12729 0.73438 0.31762 0.0
H1273 H 0.16734 0.71249 0.27922 0.0
H1274 H 0.16255 0.73358 0.29082 0.0
H1275 H 0.1829 0.7233 0.29743 0.0
H1276 H 0.17894 0.73065 0.32374 0.0
H1277 H 0.19397 0.77176 0.33631 0.0
H1278 H 0.82018 0.08448 0.41187 0.0
H1279 H 0.79086 0.04454 0.39835 0.0
H1280 H 0.85057 0.0378 0.38307 0.0
H1281 H 0.87995 0.07741 0.39674 0.0
H1282 H 0.78597 0.02932 0.36718 0.0
H1283 H 0.80901 0.97369 0.40254 0.0
H1284 H 0.81712 0.00497 0.40828 0.0
H1285 H 0.83478 0.99892 0.39582 0.0
C1286 C 0.82703 0.07441 0.40569 0.0
C1287 C 0.85236 0.08403 0.40541 0.0
C1288 C 0.81029 0.0517 0.39793 0.0
C1289 C 0.8186 0.03815 0.38989 0.0
C1290 C 0.84383 0.04787 0.38938 0.0
H1291 H 0.7554 0.89819 0.33774 0.0
H1292 H 0.78192 0.93879 0.35123 0.0
C1293 C 0.86056 0.07059 0.39708 0.0
C1294 C 0.80097 0.01382 0.38198 0.0
H1295 H 0.7833 0.95293 0.38049 0.0
C1296 C 0.78521 0.01255 0.37012 0.0
C1297 C 0.8001 0.99208 0.38589 0.0
C1298 C 0.81599 0.99232 0.39891 0.0
C1299 C 0.76906 0.9901 0.36173 0.0
C1300 C 0.76839 0.96836 0.36554 0.0
C1301 C 0.78392 0.96964 0.37756 0.0
C1302 C 0.75213 0.94412 0.35705 0.0
C1303 C 0.75345 0.98998 0.34861 0.0
C1304 C 0.72658 0.93361 0.35592 0.0
C1305 C 0.71141 0.91048 0.34814 0.0
C1306 C 0.72156 0.89741 0.34152 0.0
C1307 C 0.74711 0.90791 0.34271 0.0
C1308 C 0.76225 0.93105 0.35042 0.0
H1309 H 0.76053 0.00866 0.34503 0.0
H1310 H 0.7525 0.97744 0.33923 0.0
H1311 H 0.73457 0.98338 0.35155 0.0
H1312 H 0.71837 0.94315 0.36121 0.0
H1313 H 0.69175 0.90275 0.34742 0.0
H1314 H 0.96104 0.79122 0.43518 0.0
H1315 H 0.99734 0.79948 0.42294 0.0
H1316 H 0.95173 0.76297 0.3823 0.0
H1317 H 0.91542 0.75473 0.39444 0.0
H1318 H 0.00958 0.76785 0.40826 0.0
H1319 H 0.00176 0.82967 0.37051 0.0
H1320 H 0.9845 0.82044 0.38618 0.0
H1321 H 0.97468 0.79996 0.36953 0.0
C1322 C 0.95874 0.7848 0.42366 0.0
C1323 C 0.93538 0.77251 0.41574 0.0
C1324 C 0.97949 0.78961 0.41667 0.0
C1325 C 0.97728 0.78227 0.40164 0.0
C1326 C 0.95393 0.76937 0.39382 0.0
H1327 H 0.07835 0.79438 0.33857 0.0
H1328 H 0.04243 0.78429 0.35158 0.0
C1329 C 0.9332 0.76465 0.40077 0.0
C1330 C 0.99938 0.78806 0.39415 0.0
H1331 H 0.03119 0.81781 0.36605 0.0
C1332 C 0.01439 0.77887 0.39908 0.0
C1333 C 0.00564 0.80249 0.38219 0.0
C1334 C 0.99095 0.81392 0.37686 0.0
C1335 C 0.03522 0.78329 0.39217 0.0
C1336 C 0.04132 0.79753 0.38013 0.0
C1337 C 0.02638 0.8068 0.37524 0.0
C1338 C 0.06319 0.80315 0.37246 0.0
C1339 C 0.05023 0.77226 0.39759 0.0
C1340 C 0.08679 0.81728 0.37986 0.0
C1341 C 0.10738 0.82314 0.37246 0.0
C1342 C 0.10476 0.81502 0.35748 0.0
C1343 C 0.08106 0.80089 0.3501 0.0
C1344 C 0.06049 0.7951 0.35751 0.0
H1345 H 0.03995 0.75711 0.40444 0.0
H1346 H 0.05606 0.76506 0.38825 0.0
H1347 H 0.06693 0.78671 0.4044 0.0
H1348 H 0.08929 0.82408 0.39133 0.0
H1349 H 0.12533 0.83417 0.37848 0.0
H1350 H 0.28067 0.20242 0.4082 0.0
H1351 H 0.26844 0.22949 0.39685 0.0
H1352 H 0.19989 0.16624 0.37881 0.0
H1353 H 0.21177 0.13916 0.39024 0.0
H1354 H 0.253 0.22745 0.36551 0.0
H1355 H 0.18143 0.21277 0.40238 0.0
H1356 H 0.20558 0.2062 0.40702 0.0
H1357 H 0.17974 0.18521 0.39426 0.0
C1358 C 0.26298 0.19434 0.40184 0.0
C1359 C 0.24716 0.1687 0.4001 0.0
C1360 C 0.25608 0.20978 0.39534 0.0
C1361 C 0.23318 0.19981 0.38717 0.0
C1362 C 0.21753 0.17425 0.38523 0.0
H1363 H 0.14746 0.24822 0.33922 0.0
H1364 H 0.16414 0.22614 0.35223 0.0
C1365 C 0.22444 0.15881 0.39164 0.0
C1366 C 0.22549 0.21603 0.38059 0.0
H1367 H 0.18235 0.23334 0.38139 0.0
C1368 C 0.23772 0.22899 0.36904 0.0
C1369 C 0.20556 0.21788 0.38528 0.0
C1370 C 0.19239 0.20496 0.398 0.0
C1371 C 0.2299 0.24311 0.36162 0.0
C1372 C 0.20967 0.24463 0.36615 0.0
C1373 C 0.19782 0.23208 0.37794 0.0
C1374 C 0.19982 0.2583 0.35843 0.0
C1375 C 0.24275 0.25547 0.34868 0.0
C1376 C 0.21427 0.28374 0.35778 0.0
C1377 C 0.20483 0.29635 0.35028 0.0
C1378 C 0.1807 0.28372 0.34347 0.0
C1379 C 0.16614 0.25836 0.34434 0.0
C1380 C 0.17562 0.24576 0.35178 0.0
H1381 H 0.2539 0.24773 0.3445 0.0
H1382 H 0.22937 0.25358 0.33957 0.0
H1383 H 0.25522 0.27537 0.35209 0.0
H1384 H 0.23283 0.29384 0.36309 0.0
H1385 H 0.21644 0.3159 0.34972 0.0
H1386 H 0.57652 0.49647 0.72087 0.0
H1387 H 0.61392 0.52435 0.71026 0.0
H1388 H 0.65647 0.53573 0.75146 0.0
H1389 H 0.61929 0.50719 0.762 0.0
H1390 H 0.64862 0.57369 0.71882 0.0
H1391 H 0.69019 0.51431 0.72214 0.0
H1392 H 0.6584 0.50323 0.72449 0.0
H1393 H 0.68175 0.52166 0.73926 0.0
C1394 C 0.59386 0.50475 0.72765 0.0
C1395 C 0.59494 0.49943 0.74225 0.0
C1396 C 0.61518 0.52081 0.7216 0.0
C1397 C 0.63799 0.53178 0.73 0.0
C1398 C 0.63909 0.52709 0.7447 0.0
H1399 H 0.78669 0.62836 0.70955 0.0
H1400 H 0.75015 0.60377 0.7218 0.0
C1401 C 0.61778 0.511 0.75076 0.0
C1402 C 0.66061 0.548 0.72332 0.0
H1403 H 0.71471 0.55376 0.71442 0.0
C1404 C 0.66307 0.56934 0.71783 0.0
C1405 C 0.67941 0.54224 0.72205 0.0
C1406 C 0.67731 0.51901 0.72717 0.0
C1407 C 0.68398 0.58525 0.71124 0.0
C1408 C 0.70269 0.57941 0.70991 0.0
C1409 C 0.70033 0.55818 0.71549 0.0
C1410 C 0.72472 0.59484 0.70251 0.0
C1411 C 0.68601 0.60833 0.70594 0.0
C1412 C 0.72252 0.59776 0.68756 0.0
C1413 C 0.74336 0.61178 0.6805 0.0
C1414 C 0.76682 0.62306 0.68825 0.0
C1415 C 0.76893 0.62001 0.70324 0.0
C1416 C 0.74807 0.60595 0.71027 0.0
H1417 H 0.67344 0.61333 0.71111 0.0
H1418 H 0.70503 0.62405 0.70829 0.0
H1419 H 0.68108 0.60531 0.69389 0.0
H1420 H 0.70469 0.58892 0.68131 0.0
H1421 H 0.74106 0.61364 0.66895 0.0
H1422 H 0.48981 0.0696 0.75142 0.0
H1423 H 0.45939 0.07761 0.73922 0.0
H1424 H 0.51698 0.14922 0.73092 0.0
H1425 H 0.54747 0.1411 0.74286 0.0
H1426 H 0.44776 0.11254 0.7457 0.0
H1427 H 0.48073 0.12183 0.69057 0.0
H1428 H 0.49129 0.10994 0.70491 0.0
H1429 H 0.5041 0.1426 0.70468 0.0
C1430 C 0.49595 0.08703 0.74697 0.0
C1431 C 0.52101 0.10466 0.74799 0.0
C1432 C 0.47858 0.09158 0.74 0.0
C1433 C 0.48593 0.11385 0.73394 0.0
C1434 C 0.51092 0.13165 0.73516 0.0
H1435 H 0.39109 0.17237 0.7099 0.0
H1436 H 0.42004 0.16291 0.72257 0.0
C1437 C 0.52832 0.12702 0.742 0.0
C1438 C 0.46739 0.1186 0.72658 0.0
H1439 H 0.45133 0.13407 0.69447 0.0
C1440 C 0.44845 0.11713 0.73447 0.0
C1441 C 0.46811 0.12423 0.71186 0.0
C1442 C 0.487 0.12451 0.70246 0.0
C1443 C 0.4304 0.12148 0.72812 0.0
C1444 C 0.4317 0.12809 0.71359 0.0
C1445 C 0.45048 0.12924 0.70565 0.0
C1446 C 0.41359 0.13344 0.70625 0.0
C1447 C 0.40985 0.11841 0.73693 0.0
C1448 C 0.40073 0.12043 0.69272 0.0
C1449 C 0.3845 0.12607 0.68534 0.0
C1450 C 0.38071 0.1448 0.69139 0.0
C1451 C 0.39341 0.15768 0.70502 0.0
C1452 C 0.40987 0.15219 0.71232 0.0
H1453 H 0.40747 0.10645 0.74583 0.0
H1454 H 0.41416 0.13667 0.74211 0.0
H1455 H 0.39225 0.11036 0.72984 0.0
H1456 H 0.40333 0.10593 0.6878 0.0
H1457 H 0.37497 0.11575 0.67488 0.0
H1458 H 0.8795 0.41767 0.72126 0.0
H1459 H 0.86901 0.37823 0.7081 0.0
H1460 H 0.93787 0.38691 0.72574 0.0
H1461 H 0.94847 0.42643 0.73902 0.0
H1462 H 0.89219 0.36572 0.68735 0.0
H1463 H 0.88798 0.32043 0.7381 0.0
H1464 H 0.88927 0.3497 0.7383 0.0
H1465 H 0.91656 0.34796 0.73682 0.0
C1466 C 0.89257 0.41136 0.72218 0.0
C1467 C 0.91477 0.42509 0.73123 0.0
C1468 C 0.88649 0.38877 0.71472 0.0
C1469 C 0.90247 0.37946 0.71616 0.0
C1470 C 0.92504 0.39351 0.72476 0.0
H1471 H 0.88389 0.23853 0.68087 0.0
H1472 H 0.90103 0.28069 0.69246 0.0
C1473 C 0.93109 0.41608 0.7323 0.0
C1474 C 0.89515 0.35485 0.70883 0.0
H1475 H 0.88161 0.29692 0.71554 0.0
C1476 C 0.88993 0.35069 0.69351 0.0
C1477 C 0.89223 0.33529 0.71691 0.0
C1478 C 0.89658 0.3384 0.73345 0.0
C1479 C 0.88177 0.32743 0.68602 0.0
C1480 C 0.87851 0.30782 0.69412 0.0
C1481 C 0.88419 0.31206 0.7094 0.0
C1482 C 0.8683 0.28252 0.68699 0.0
C1483 C 0.87678 0.32401 0.66952 0.0
C1484 C 0.84414 0.26957 0.68029 0.0
C1485 C 0.83428 0.2455 0.67378 0.0
C1486 C 0.84842 0.234 0.6739 0.0
C1487 C 0.87257 0.24695 0.68068 0.0
C1488 C 0.88239 0.271 0.68725 0.0
H1489 H 0.88585 0.34184 0.66473 0.0
H1490 H 0.88313 0.3119 0.66459 0.0
H1491 H 0.85676 0.31515 0.66644 0.0
H1492 H 0.83285 0.27802 0.68021 0.0
H1493 H 0.81558 0.23588 0.66868 0.0
H1494 H 0.12218 0.92175 0.60633 0.0
H1495 H 0.1516 0.96095 0.62037 0.0
H1496 H 0.2112 0.95255 0.60655 0.0
H1497 H 0.18185 0.91327 0.59245 0.0
H1498 H 0.18733 0.97112 0.64319 0.0
H1499 H 0.22887 0.02081 0.59531 0.0
H1500 H 0.20053 0.99176 0.5934 0.0
H1501 H 0.22928 0.99267 0.59647 0.0
C1502 C 0.14155 0.92815 0.60637 0.0
C1503 C 0.1497 0.91445 0.59825 0.0
C1504 C 0.15833 0.95059 0.61434 0.0
C1505 C 0.18357 0.95982 0.61432 0.0
C1506 C 0.1918 0.94602 0.60644 0.0
H1507 H 0.30966 0.09559 0.65621 0.0
H1508 H 0.28277 0.05462 0.64312 0.0
C1509 C 0.17502 0.92358 0.59841 0.0
C1510 C 0.20117 0.98381 0.62267 0.0
H1511 H 0.24695 0.04198 0.61887 0.0
C1512 C 0.20037 0.98662 0.63788 0.0
C1513 C 0.21818 0.00398 0.6157 0.0
C1514 C 0.21922 0.00233 0.59931 0.0
C1515 C 0.21619 0.00906 0.64634 0.0
C1516 C 0.23299 0.02928 0.63935 0.0
C1517 C 0.23404 0.0264 0.62418 0.0
C1518 C 0.24919 0.05378 0.64752 0.0
C1519 C 0.21497 0.01089 0.66271 0.0
C1520 C 0.23917 0.06692 0.6542 0.0
C1521 C 0.25446 0.0903 0.66162 0.0
C1522 C 0.28 0.10095 0.66243 0.0
C1523 C 0.29002 0.08779 0.65574 0.0
C1524 C 0.27471 0.06443 0.64827 0.0
H1525 H 0.20581 0.99246 0.6668 0.0
H1526 H 0.23358 0.02207 0.66866 0.0
H1527 H 0.20431 0.02 0.66535 0.0
H1528 H 0.21952 0.0592 0.65351 0.0
H1529 H 0.24628 0.10012 0.66661 0.0
H1530 H 0.05921 0.19107 0.59231 0.0
H1531 H 0.02307 0.18312 0.60454 0.0
H1532 H 0.0359 0.25539 0.59716 0.0
H1533 H 0.07178 0.26316 0.58457 0.0
H1534 H 0.01929 0.2056 0.62879 0.0
H1535 H 0.96469 0.21377 0.58226 0.0
H1536 H 0.99196 0.21214 0.57995 0.0
H1537 H 0.99427 0.24074 0.58664 0.0
C1538 C 0.05428 0.20523 0.59328 0.0
C1539 C 0.06825 0.22771 0.58747 0.0
C1540 C 0.03361 0.20066 0.60024 0.0
C1541 C 0.02652 0.2185 0.60159 0.0
C1542 C 0.0406 0.24108 0.59591 0.0
H1543 H 0.92663 0.21508 0.66435 0.0
H1544 H 0.96262 0.22487 0.65148 0.0
C1545 C 0.06115 0.24556 0.58878 0.0
C1546 C 0.00486 0.21361 0.60937 0.0
H1547 H 0.94977 0.21137 0.60563 0.0
C1548 C 0.00406 0.2068 0.6237 0.0
C1549 C 0.98483 0.21485 0.60267 0.0
C1550 C 0.9838 0.22052 0.58698 0.0
C1551 C 0.98387 0.20128 0.63154 0.0
C1552 C 0.96422 0.20335 0.62504 0.0
C1553 C 0.96495 0.21005 0.61068 0.0
C1554 C 0.94238 0.19795 0.63277 0.0
C1555 C 0.98354 0.19259 0.64655 0.0
C1556 C 0.91891 0.18018 0.62631 0.0
C1557 C 0.89827 0.17485 0.63353 0.0
C1558 C 0.90068 0.18711 0.64739 0.0
C1559 C 0.92417 0.20508 0.65377 0.0
C1560 C 0.94479 0.21061 0.64646 0.0
H1561 H 0.9961 0.18517 0.64804 0.0
H1562 H 0.98972 0.20835 0.65505 0.0
H1563 H 0.96484 0.17811 0.64842 0.0
H1564 H 0.91657 0.17023 0.61573 0.0
H1565 H 0.88047 0.16089 0.6283 0.0
H1566 H 0.7927 0.86282 0.61041 0.0
H1567 H 0.80553 0.83664 0.62207 0.0
H1568 H 0.73511 0.7729 0.6076 0.0
H1569 H 0.72209 0.79903 0.5959 0.0
H1570 H 0.78419 0.8066 0.64413 0.0
H1571 H 0.78318 0.75209 0.59387 0.0
H1572 H 0.78235 0.78025 0.59326 0.0
H1573 H 0.75513 0.75212 0.59584 0.0
C1574 C 0.77989 0.84324 0.60976 0.0
C1575 C 0.75636 0.83297 0.60225 0.0
C1576 C 0.7873 0.8283 0.61636 0.0
C1577 C 0.77139 0.80281 0.61553 0.0
C1578 C 0.74785 0.79247 0.60809 0.0
H1579 H 0.7866 0.68706 0.65345 0.0
H1580 H 0.77133 0.71053 0.64059 0.0
C1581 C 0.74043 0.80741 0.60145 0.0
C1582 C 0.77929 0.78729 0.6229 0.0
H1583 H 0.79066 0.74008 0.61669 0.0
C1584 C 0.78565 0.79208 0.63813 0.0
C1585 C 0.78106 0.76831 0.61503 0.0
C1586 C 0.77528 0.76294 0.59858 0.0
C1587 C 0.79368 0.77834 0.64575 0.0
C1588 C 0.79573 0.75958 0.63787 0.0
C1589 C 0.78907 0.75453 0.62266 0.0
C1590 C 0.80518 0.7453 0.64523 0.0
C1591 C 0.79964 0.78382 0.66219 0.0
C1592 C 0.82938 0.75705 0.65184 0.0
C1593 C 0.83815 0.74371 0.65911 0.0
C1594 C 0.82288 0.71839 0.65983 0.0
C1595 C 0.79878 0.70655 0.65299 0.0
C1596 C 0.79003 0.71991 0.64568 0.0
H1597 H 0.79147 0.79438 0.66695 0.0
H1598 H 0.79298 0.76657 0.66753 0.0
H1599 H 0.8198 0.79499 0.66485 0.0
H1600 H 0.84146 0.77657 0.65138 0.0
H1601 H 0.85685 0.75323 0.6642 0.0
H1602 H 0.06481 0.8634 0.60377 0.0
H1603 H 0.02821 0.83512 0.61476 0.0
H1604 H 0.03112 0.77345 0.59406 0.0
H1605 H 0.06854 0.80169 0.5836 0.0
H1606 H 0.98383 0.79972 0.60215 0.0
H1607 H 0.02625 0.75844 0.63639 0.0
H1608 H 0.04414 0.78568 0.62743 0.0
H1609 H 0.02966 0.75578 0.6172 0.0
C1610 C 0.05792 0.84384 0.60172 0.0
C1611 C 0.06983 0.83485 0.59293 0.0
C1612 C 0.03685 0.82768 0.60791 0.0
C1613 C 0.02715 0.80218 0.60544 0.0
C1614 C 0.03858 0.79307 0.59638 0.0
H1615 H 0.87998 0.69572 0.62512 0.0
H1616 H 0.91615 0.72103 0.61279 0.0
C1617 C 0.0598 0.80925 0.59025 0.0
C1618 C 0.00492 0.78528 0.61226 0.0
H1619 H 0.98317 0.74047 0.63556 0.0
C1620 C 0.98366 0.78675 0.60946 0.0
C1621 C 0.00486 0.76861 0.62195 0.0
C1622 C 0.0275 0.76713 0.62606 0.0
C1623 C 0.96234 0.77203 0.61606 0.0
C1624 C 0.96208 0.75491 0.62545 0.0
C1625 C 0.98334 0.75344 0.62826 0.0
C1626 C 0.94021 0.73892 0.63286 0.0
C1627 C 0.94058 0.77551 0.61325 0.0
C1628 C 0.94188 0.73989 0.64823 0.0
C1629 C 0.92131 0.72518 0.65533 0.0
C1630 C 0.89863 0.70922 0.64717 0.0
C1631 C 0.8971 0.708 0.63175 0.0
C1632 C 0.91774 0.72256 0.62467 0.0
H1633 H 0.94596 0.79365 0.60927 0.0
H1634 H 0.92724 0.76103 0.60468 0.0
H1635 H 0.93129 0.77404 0.62334 0.0
H1636 H 0.95907 0.75231 0.65477 0.0
H1637 H 0.92314 0.72658 0.66721 0.0
H1638 H 0.15021 0.20754 0.56747 0.0
H1639 H 0.18018 0.19864 0.57939 0.0
H1640 H 0.17714 0.23317 0.62063 0.0
H1641 H 0.14722 0.24217 0.60881 0.0
H1642 H 0.22621 0.23097 0.59422 0.0
H1643 H 0.16463 0.16609 0.63113 0.0
H1644 H 0.15336 0.17547 0.61573 0.0
H1645 H 0.16617 0.19538 0.63261 0.0
C1646 C 0.156 0.21333 0.57907 0.0
C1647 C 0.14624 0.22545 0.58722 0.0
C1648 C 0.17304 0.20815 0.58586 0.0
C1649 C 0.18057 0.2149 0.60093 0.0
C1650 C 0.17113 0.22729 0.60906 0.0
H1651 H 0.28183 0.20533 0.66356 0.0
H1652 H 0.25298 0.21421 0.65033 0.0
C1653 C 0.15405 0.23242 0.60229 0.0
C1654 C 0.19862 0.20936 0.6081 0.0
H1655 H 0.20694 0.17922 0.63556 0.0
C1656 C 0.22198 0.21952 0.6032 0.0
C1657 C 0.193 0.19438 0.61979 0.0
C1658 C 0.16786 0.18199 0.62505 0.0
C1659 C 0.2401 0.21563 0.60993 0.0
C1660 C 0.23456 0.20092 0.62173 0.0
C1661 C 0.21114 0.19057 0.62654 0.0
C1662 C 0.25286 0.19627 0.62944 0.0
C1663 C 0.26521 0.22779 0.60463 0.0
C1664 C 0.26233 0.18319 0.62206 0.0
C1665 C 0.27887 0.17805 0.62959 0.0
C1666 C 0.28614 0.18585 0.64466 0.0
C1667 C 0.27669 0.19908 0.65196 0.0
C1668 C 0.26016 0.20416 0.64443 0.0
H1669 H 0.26814 0.24286 0.59785 0.0
H1670 H 0.2797 0.23539 0.61403 0.0
H1671 H 0.26727 0.21392 0.59779 0.0
H1672 H 0.2566 0.17658 0.61054 0.0
H1673 H 0.28572 0.16775 0.62364 0.0
H1674 H 0.76261 0.93092 0.58432 0.0
H1675 H 0.77484 0.97099 0.59703 0.0
H1676 H 0.76191 0.93968 0.63834 0.0
H1677 H 0.74773 0.89904 0.62557 0.0
H1678 H 0.74626 0.97127 0.63728 0.0
H1679 H 0.83975 0.01493 0.61982 0.0
H1680 H 0.81674 0.00242 0.60444 0.0
H1681 H 0.81893 0.98221 0.61675 0.0
C1682 C 0.76187 0.93235 0.59607 0.0
C1683 C 0.75425 0.91163 0.6039 0.0
C1684 C 0.76932 0.95544 0.60337 0.0
C1685 C 0.76997 0.95851 0.61869 0.0
C1686 C 0.76184 0.93782 0.62652 0.0
H1687 H 0.85464 0.10035 0.67022 0.0
H1688 H 0.8383 0.05858 0.65849 0.0
C1689 C 0.75397 0.91462 0.6192 0.0
C1690 C 0.77914 0.98326 0.62656 0.0
H1691 H 0.82778 0.04188 0.63097 0.0
C1692 C 0.76415 0.98669 0.63597 0.0
C1693 C 0.80266 0.00328 0.62507 0.0
C1694 C 0.82054 0.00049 0.6161 0.0
C1695 C 0.77189 0.00964 0.64378 0.0
C1696 C 0.79494 0.02994 0.64173 0.0
C1697 C 0.81 0.02641 0.63243 0.0
C1698 C 0.80417 0.0549 0.64932 0.0
C1699 C 0.75554 0.01164 0.65443 0.0
C1700 C 0.79047 0.06681 0.64809 0.0
C1701 C 0.79959 0.09051 0.65507 0.0
C1702 C 0.82286 0.10297 0.66302 0.0
C1703 C 0.83665 0.09117 0.66413 0.0
C1704 C 0.82735 0.06733 0.6574 0.0
H1705 H 0.74286 0.9935 0.65814 0.0
H1706 H 0.7664 0.0247 0.66424 0.0
H1707 H 0.74423 0.01834 0.64891 0.0
H1708 H 0.77283 0.05791 0.64161 0.0
H1709 H 0.7885 0.09912 0.65414 0.0
H1710 H 0.48436 0.41763 0.74278 0.0
H1711 H 0.45591 0.37762 0.72905 0.0
H1712 H 0.51688 0.37219 0.71481 0.0
H1713 H 0.54542 0.41186 0.72873 0.0
H1714 H 0.45182 0.36251 0.6982 0.0
H1715 H 0.47576 0.3078 0.73385 0.0
H1716 H 0.48347 0.33898 0.73951 0.0
H1717 H 0.50138 0.33318 0.72711 0.0
C1718 C 0.49169 0.40783 0.73679 0.0
C1719 C 0.51713 0.41784 0.73689 0.0
C1720 C 0.47543 0.38508 0.7289 0.0
C1721 C 0.48433 0.37186 0.7211 0.0
C1722 C 0.50968 0.38198 0.72094 0.0
H1723 H 0.42098 0.23071 0.66962 0.0
H1724 H 0.44787 0.27166 0.68264 0.0
C1725 C 0.52594 0.40474 0.72878 0.0
C1726 C 0.46714 0.34744 0.71312 0.0
H1727 H 0.45002 0.28669 0.71189 0.0
C1728 C 0.45129 0.34588 0.70121 0.0
C1729 C 0.46656 0.32585 0.71711 0.0
C1730 C 0.48253 0.32638 0.73017 0.0
C1731 C 0.43524 0.32329 0.69292 0.0
C1732 C 0.43477 0.30171 0.69687 0.0
C1733 C 0.45049 0.30329 0.70886 0.0
C1734 C 0.41832 0.27728 0.68862 0.0
C1735 C 0.41945 0.32286 0.6798 0.0
C1736 C 0.39278 0.26681 0.68773 0.0
C1737 C 0.37741 0.24349 0.68023 0.0
C1738 C 0.38734 0.23016 0.67364 0.0
C1739 C 0.41286 0.24062 0.67457 0.0
C1740 C 0.42822 0.26396 0.68202 0.0
H1741 H 0.42649 0.34143 0.67605 0.0
H1742 H 0.41835 0.31008 0.67051 0.0
H1743 H 0.40065 0.3164 0.68282 0.0
H1744 H 0.38474 0.27655 0.69299 0.0
H1745 H 0.35777 0.23581 0.67968 0.0
H1746 H 0.6023 0.07436 0.75549 0.0
H1747 H 0.63934 0.08357 0.74393 0.0
H1748 H 0.64218 0.14812 0.72846 0.0
H1749 H 0.60604 0.13986 0.74066 0.0
H1750 H 0.64742 0.08632 0.7156 0.0
H1751 H 0.71116 0.17636 0.74704 0.0
H1752 H 0.68123 0.15587 0.75239 0.0
H1753 H 0.68471 0.17562 0.73824 0.0
C1754 C 0.61107 0.09079 0.74988 0.0
C1755 C 0.60121 0.10643 0.7491 0.0
C1756 C 0.63213 0.09591 0.74316 0.0
C1757 C 0.64379 0.11675 0.73553 0.0
C1758 C 0.63386 0.13224 0.73458 0.0
H1759 H 0.74488 0.13948 0.67004 0.0
H1760 H 0.70905 0.12966 0.6831 0.0
C1761 C 0.61294 0.12727 0.74139 0.0
C1762 C 0.66588 0.12189 0.72817 0.0
H1763 H 0.72496 0.16625 0.72546 0.0
C1764 C 0.66444 0.10374 0.71782 0.0
C1765 C 0.68821 0.14447 0.73123 0.0
C1766 C 0.69155 0.16408 0.74294 0.0
C1767 C 0.68452 0.10771 0.71024 0.0
C1768 C 0.70646 0.13075 0.71279 0.0
C1769 C 0.70805 0.14871 0.72336 0.0
C1770 C 0.72812 0.13657 0.70478 0.0
C1771 C 0.68213 0.08701 0.6998 0.0
C1772 C 0.75096 0.14448 0.71261 0.0
C1773 C 0.77154 0.15051 0.70519 0.0
C1774 C 0.76972 0.14868 0.68976 0.0
C1775 C 0.74685 0.14083 0.68192 0.0
C1776 C 0.7263 0.13505 0.68937 0.0
H1777 H 0.66748 0.06883 0.70245 0.0
H1778 H 0.67722 0.08946 0.68847 0.0
H1779 H 0.69958 0.08679 0.70006 0.0
H1780 H 0.75285 0.1459 0.72449 0.0
H1781 H 0.78884 0.15642 0.71157 0.0
H1782 H 0.88948 0.50267 0.75344 0.0
H1783 H 0.87553 0.52802 0.74168 0.0
H1784 H 0.91828 0.53306 0.70577 0.0
H1785 H 0.93182 0.50725 0.71734 0.0
H1786 H 0.89871 0.57409 0.73336 0.0
H1787 H 0.85088 0.50608 0.68456 0.0
H1788 H 0.86264 0.49899 0.70079 0.0
H1789 H 0.88278 0.51566 0.68744 0.0
C1790 C 0.89607 0.5094 0.74311 0.0
C1791 C 0.91155 0.50286 0.73622 0.0
C1792 C 0.88805 0.52381 0.73639 0.0
C1793 C 0.89544 0.53198 0.7227 0.0
C1794 C 0.9118 0.52638 0.71613 0.0
H1795 H 0.87994 0.64375 0.68049 0.0
H1796 H 0.89457 0.62104 0.69464 0.0
C1797 C 0.9196 0.51174 0.72276 0.0
C1798 C 0.88564 0.5459 0.71516 0.0
H1799 H 0.85478 0.54541 0.68325 0.0
C1800 C 0.88902 0.5678 0.72243 0.0
C1801 C 0.87256 0.53738 0.70102 0.0
C1802 C 0.86675 0.51312 0.69305 0.0
C1803 C 0.88009 0.58169 0.71579 0.0
C1804 C 0.86802 0.57373 0.70138 0.0
C1805 C 0.86426 0.55161 0.69424 0.0
C1806 C 0.85906 0.58796 0.69341 0.0
C1807 C 0.88327 0.60447 0.72438 0.0
C1808 C 0.83437 0.57674 0.68775 0.0
C1809 C 0.82608 0.58955 0.67949 0.0
C1810 C 0.84235 0.61381 0.6768 0.0
C1811 C 0.867 0.62512 0.68255 0.0
C1812 C 0.87533 0.61223 0.69071 0.0
H1813 H 0.88602 0.6039 0.73639 0.0
H1814 H 0.8997 0.62085 0.72128 0.0
H1815 H 0.86717 0.60679 0.72201 0.0
H1816 H 0.82153 0.55799 0.68965 0.0
H1817 H 0.80697 0.58047 0.67521 0.0
H1818 H 0.4428 0.94709 0.21524 0.0
H1819 H 0.45013 0.96173 0.19085 0.0
H1820 H 0.46657 0.90514 0.17762 0.0
H1821 H 0.45897 0.89022 0.20182 0.0
H1822 H 0.49512 0.97822 0.17763 0.0
H1823 H 0.41636 0.89893 0.14411 0.0
H1824 H 0.41728 0.9045 0.16375 0.0
H1825 H 0.43386 0.8908 0.1563 0.0
C1826 C 0.44763 0.93757 0.20705 0.0
C1827 C 0.45034 0.91753 0.21043 0.0
C1828 C 0.45191 0.94601 0.19317 0.0
C1829 C 0.45861 0.93433 0.1824 0.0
C1830 C 0.46105 0.91417 0.1857 0.0
H1831 H 0.50476 0.95441 0.09549 0.0
H1832 H 0.49133 0.94014 0.11927 0.0
C1833 C 0.45694 0.90583 0.19957 0.0
C1834 C 0.46434 0.94391 0.16795 0.0
H1835 H 0.44793 0.92787 0.1311 0.0
C1836 C 0.48468 0.96737 0.16745 0.0
C1837 C 0.45071 0.92961 0.15472 0.0
C1838 C 0.42819 0.90463 0.15468 0.0
C1839 C 0.4923 0.97661 0.15401 0.0
C1840 C 0.47885 0.96218 0.14075 0.0
C1841 C 0.45823 0.93888 0.14128 0.0
C1842 C 0.48629 0.97063 0.1262 0.0
C1843 C 0.51519 0.00135 0.15414 0.0
C1844 C 0.48748 0.99226 0.1221 0.0
C1845 C 0.49519 0.00048 0.10854 0.0
C1846 C 0.5016 0.98706 0.09875 0.0
C1847 C 0.4998 0.96507 0.10275 0.0
C1848 C 0.4922 0.95693 0.11634 0.0
H1849 H 0.52664 0.00709 0.16486 0.0
H1850 H 0.52642 0.00108 0.14536 0.0
H1851 H 0.50999 0.01542 0.15216 0.0
H1852 H 0.48241 0.00279 0.12938 0.0
H1853 H 0.49594 0.01724 0.10567 0.0
H1854 H 0.07443 0.50618 0.21911 0.0
H1855 H 0.05993 0.5014 0.19317 0.0
H1856 H 0.0165 0.53424 0.2041 0.0
H1857 H 0.03052 0.5387 0.23015 0.0
H1858 H 0.00949 0.47753 0.1781 0.0
H1859 H 0.06478 0.57847 0.17495 0.0
H1860 H 0.07045 0.56367 0.18971 0.0
H1861 H 0.04497 0.56879 0.18939 0.0
C1862 C 0.06139 0.51193 0.21605 0.0
C1863 C 0.05374 0.52297 0.22669 0.0
C1864 C 0.05323 0.50928 0.20122 0.0
C1865 C 0.03743 0.51775 0.19677 0.0
C1866 C 0.02899 0.52791 0.20735 0.0
H1867 H 0.98996 0.53914 0.11121 0.0
H1868 H 0.99639 0.53683 0.13742 0.0
C1869 C 0.03707 0.53051 0.2222 0.0
C1870 C 0.03077 0.51707 0.18097 0.0
H1871 H 0.03992 0.55406 0.15359 0.0
C1872 C 0.01606 0.49421 0.1727 0.0
C1873 C 0.03946 0.53891 0.17405 0.0
C1874 C 0.05595 0.56389 0.1824 0.0
C1875 C 0.00952 0.49263 0.15761 0.0
C1876 C 0.01844 0.5145 0.15063 0.0
C1877 C 0.03308 0.53734 0.15897 0.0
C1878 C 0.01308 0.51428 0.13467 0.0
C1879 C 0.99278 0.46764 0.14935 0.0
C1880 C 0.02037 0.50238 0.12442 0.0
C1881 C 0.01643 0.5034 0.1094 0.0
C1882 C 0.00538 0.51657 0.10435 0.0
C1883 C 0.99812 0.52846 0.11468 0.0
C1884 C 0.00193 0.52732 0.12968 0.0
H1885 H 0.98209 0.45381 0.15687 0.0
H1886 H 0.97983 0.46835 0.14096 0.0
H1887 H 0.00395 0.46128 0.14368 0.0
H1888 H 0.02949 0.49267 0.12805 0.0
H1889 H 0.02207 0.49387 0.10174 0.0
H1890 H 0.44143 0.4899 0.21659 0.0
H1891 H 0.44917 0.48438 0.19112 0.0
H1892 H 0.47534 0.56111 0.18714 0.0
H1893 H 0.46724 0.56673 0.21235 0.0
H1894 H 0.43178 0.49759 0.16355 0.0
H1895 H 0.53268 0.54812 0.17753 0.0
H1896 H 0.51143 0.53496 0.19111 0.0
H1897 H 0.51711 0.56334 0.18441 0.0
C1898 C 0.44851 0.50551 0.21022 0.0
C1899 C 0.45401 0.52883 0.21656 0.0
C1900 C 0.45299 0.50233 0.19571 0.0
C1901 C 0.46314 0.52243 0.18739 0.0
C1902 C 0.46787 0.54548 0.1935 0.0
H1903 H 0.51845 0.55971 0.10426 0.0
H1904 H 0.50537 0.55782 0.1289 0.0
C1905 C 0.46333 0.54866 0.20793 0.0
C1906 C 0.46951 0.51973 0.17242 0.0
H1907 H 0.51821 0.53936 0.15223 0.0
C1908 C 0.45065 0.50646 0.16103 0.0
C1909 C 0.49415 0.53135 0.16927 0.0
C1910 C 0.51508 0.5451 0.18122 0.0
C1911 C 0.45581 0.50537 0.14641 0.0
C1912 C 0.48049 0.5175 0.14322 0.0
C1913 C 0.49931 0.53019 0.1547 0.0
C1914 C 0.48732 0.51815 0.12802 0.0
C1915 C 0.43484 0.49207 0.13445 0.0
C1916 C 0.48155 0.49646 0.11935 0.0
C1917 C 0.48904 0.49749 0.10524 0.0
C1918 C 0.50265 0.52027 0.09963 0.0
C1919 C 0.50828 0.54192 0.10833 0.0
C1920 C 0.50072 0.54086 0.12238 0.0
H1921 H 0.41723 0.48876 0.13829 0.0
H1922 H 0.43835 0.50267 0.12477 0.0
H1923 H 0.43283 0.47396 0.13088 0.0
H1924 H 0.47169 0.47879 0.1236 0.0
H1925 H 0.4847 0.48053 0.09887 0.0
H1926 H 0.96425 0.51482 0.78131 0.0
H1927 H 0.9766 0.51932 0.80769 0.0
H1928 H 0.92851 0.44151 0.809 0.0
H1929 H 0.91576 0.43688 0.78282 0.0
H1930 H 0.94554 0.50553 0.83155 0.0
H1931 H 0.99646 0.4552 0.82701 0.0
H1932 H 0.9888 0.46742 0.81155 0.0
H1933 H 0.96607 0.43907 0.81762 0.0
C1934 C 0.95621 0.4987 0.78725 0.0
C1935 C 0.93922 0.47544 0.77994 0.0
C1936 C 0.96335 0.5013 0.80228 0.0
C1937 C 0.95375 0.48068 0.81018 0.0
C1938 C 0.93651 0.45755 0.80299 0.0
H1939 H 0.96123 0.4421 0.89727 0.0
H1940 H 0.95295 0.44441 0.87123 0.0
C1941 C 0.92932 0.45495 0.78803 0.0
C1942 C 0.96136 0.48313 0.82603 0.0
H1943 H 0.98748 0.46276 0.85094 0.0
C1944 C 0.95496 0.49645 0.83583 0.0
C1945 C 0.97367 0.47127 0.83149 0.0
C1946 C 0.98188 0.45761 0.82138 0.0
C1947 C 0.95964 0.49733 0.85108 0.0
C1948 C 0.97136 0.48488 0.85655 0.0
C1949 C 0.97836 0.47216 0.8467 0.0
C1950 C 0.9758 0.48398 0.87246 0.0
C1951 C 0.95118 0.51073 0.86119 0.0
C1952 C 0.99141 0.50549 0.88176 0.0
C1953 C 0.9962 0.50423 0.89666 0.0
C1954 C 0.98563 0.48139 0.90246 0.0
C1955 C 0.96987 0.45992 0.8931 0.0
C1956 C 0.96505 0.46122 0.87824 0.0
H1957 H 0.93775 0.51456 0.85534 0.0
H1958 H 0.9427 0.49992 0.87044 0.0
H1959 H 0.96719 0.52858 0.86586 0.0
H1960 H 1.00027 0.52319 0.87745 0.0
H1961 H 0.00869 0.52104 0.90356 0.0
H1962 H 0.53205 0.43473 0.78915 0.0
H1963 H 0.5246 0.44082 0.81445 0.0
H1964 H 0.5473 0.51656 0.80932 0.0
H1965 H 0.55402 0.51039 0.78375 0.0
H1966 H 0.55746 0.47384 0.8376 0.0
H1967 H 0.48042 0.49084 0.82502 0.0
H1968 H 0.49124 0.47796 0.81124 0.0
H1969 H 0.50815 0.51035 0.81714 0.0
C1970 C 0.53515 0.45261 0.79332 0.0
C1971 C 0.54338 0.47201 0.78438 0.0
C1972 C 0.53108 0.45611 0.80783 0.0
C1973 C 0.53508 0.47904 0.8137 0.0
C1974 C 0.5437 0.4986 0.80492 0.0
H1975 H 0.5089 0.51977 0.90107 0.0
H1976 H 0.52251 0.52179 0.87645 0.0
C1977 C 0.54776 0.49511 0.79037 0.0
C1978 C 0.53036 0.48227 0.82907 0.0
H1979 H 0.49328 0.49319 0.85002 0.0
C1980 C 0.54351 0.47817 0.84033 0.0
C1981 C 0.51221 0.48804 0.83259 0.0
C1982 C 0.49701 0.49188 0.82088 0.0
C1983 C 0.53878 0.47938 0.855 0.0
C1984 C 0.52018 0.48447 0.85847 0.0
C1985 C 0.50751 0.48928 0.84729 0.0
C1986 C 0.51268 0.48354 0.8735 0.0
C1987 C 0.5537 0.47518 0.86669 0.0
C1988 C 0.50248 0.46132 0.8799 0.0
C1989 C 0.49473 0.46011 0.89391 0.0
C1990 C 0.49696 0.4811 0.90178 0.0
C1991 C 0.5072 0.50336 0.89534 0.0
C1992 C 0.51486 0.50453 0.88127 0.0
H1993 H 0.57129 0.47824 0.86295 0.0
H1994 H 0.55769 0.4875 0.87691 0.0
H1995 H 0.54318 0.45587 0.86934 0.0
H1996 H 0.50029 0.44483 0.87398 0.0
H1997 H 0.48712 0.44276 0.89862 0.0
H1998 H 0.51058 0.0499 0.78509 0.0
H1999 H 0.50305 0.03589 0.80949 0.0
H2000 H 0.57904 0.08535 0.82491 0.0
H2001 H 0.58655 0.10023 0.80066 0.0
H2002 H 0.52314 0.01414 0.82627 0.0
H2003 H 0.54386 0.10405 0.85436 0.0
H2004 H 0.53956 0.09773 0.83463 0.0
H2005 H 0.56804 0.105 0.84461 0.0
C2006 C 0.52567 0.05797 0.7937 0.0
C2007 C 0.54911 0.0764 0.79096 0.0
C2008 C 0.52136 0.04981 0.80761 0.0
C2009 C 0.54038 0.05988 0.81908 0.0
C2010 C 0.56399 0.07769 0.81629 0.0
H2011 H 0.53762 0.0325 0.91146 0.0
H2012 H 0.55093 0.04623 0.88755 0.0
C2013 C 0.56831 0.08595 0.80237 0.0
C2014 C 0.53527 0.0518 0.83395 0.0
H2015 H 0.53484 0.07195 0.86929 0.0
C2016 C 0.52575 0.02678 0.83568 0.0
C2017 C 0.5387 0.06835 0.84622 0.0
C2018 C 0.54789 0.09525 0.8449 0.0
C2019 C 0.51949 0.01784 0.84935 0.0
C2020 C 0.52257 0.03431 0.86154 0.0
C2021 C 0.53255 0.0594 0.8599 0.0
C2022 C 0.51459 0.02572 0.87596 0.0
C2023 C 0.5097 0.99085 0.85066 0.0
C2024 C 0.48972 0.00994 0.87736 0.0
C2025 C 0.48202 0.00227 0.89101 0.0
C2026 C 0.49905 0.01025 0.90354 0.0
C2027 C 0.52398 0.0262 0.90208 0.0
C2028 C 0.53165 0.03394 0.88842 0.0
H2029 H 0.5143 0.98205 0.84148 0.0
H2030 H 0.51707 0.98808 0.86121 0.0
H2031 H 0.48946 0.98135 0.85036 0.0
H2032 H 0.47621 0.00383 0.86793 0.0
H2033 H 0.46264 0.9904 0.89177 0.0
H2034 H 0.1102 0.28351 0.54973 0.0
H2035 H 0.11741 0.2987 0.52545 0.0
H2036 H 0.13392 0.24245 0.5115 0.0
H2037 H 0.12655 0.22706 0.5356 0.0
H2038 H 0.16281 0.31511 0.51179 0.0
H2039 H 0.08241 0.23683 0.47867 0.0
H2040 H 0.08379 0.24262 0.49833 0.0
H2041 H 0.09975 0.22835 0.49075 0.0
C2042 C 0.11508 0.27422 0.54141 0.0
C2043 C 0.11785 0.25412 0.54455 0.0
C2044 C 0.11927 0.28296 0.5276 0.0
C2045 C 0.12593 0.27151 0.51667 0.0
C2046 C 0.12848 0.25132 0.51974 0.0
H2047 H 0.16905 0.29019 0.42924 0.0
H2048 H 0.15606 0.27637 0.45315 0.0
C2049 C 0.12448 0.2427 0.53354 0.0
C2050 C 0.13135 0.28122 0.50224 0.0
H2051 H 0.11372 0.26559 0.46548 0.0
C2052 C 0.15196 0.30446 0.50165 0.0
C2053 C 0.11718 0.26717 0.48908 0.0
C2054 C 0.09441 0.24243 0.48917 0.0
C2055 C 0.15935 0.31368 0.48817 0.0
C2056 C 0.14537 0.29946 0.47497 0.0
C2057 C 0.12444 0.27643 0.4756 0.0
C2058 C 0.15261 0.30776 0.46036 0.0
C2059 C 0.18259 0.33809 0.48819 0.0
C2060 C 0.15458 0.32978 0.45638 0.0
C2061 C 0.16208 0.33775 0.44273 0.0
C2062 C 0.16745 0.32369 0.43275 0.0
C2063 C 0.16488 0.30134 0.43664 0.0
C2064 C 0.15753 0.29346 0.45031 0.0
H2065 H 0.19428 0.34353 0.4988 0.0
H2066 H 0.19339 0.3375 0.47923 0.0
H2067 H 0.17784 0.35254 0.48642 0.0
H2068 H 0.15028 0.34078 0.46381 0.0
H2069 H 0.16347 0.35483 0.43994 0.0
H2070 H 0.74307 0.83862 0.55124 0.0
H2071 H 0.72847 0.83276 0.52522 0.0
H2072 H 0.67843 0.8577 0.53577 0.0
H2073 H 0.6925 0.86312 0.56189 0.0
H2074 H 0.67726 0.80475 0.50962 0.0
H2075 H 0.7261 0.90614 0.50738 0.0
H2076 H 0.73341 0.89205 0.52192 0.0
H2077 H 0.70635 0.89449 0.52173 0.0
C2078 C 0.72855 0.84232 0.54808 0.0
C2079 C 0.71906 0.85151 0.55863 0.0
C2080 C 0.72033 0.83906 0.53321 0.0
C2081 C 0.70262 0.84508 0.52863 0.0
C2082 C 0.69234 0.85324 0.53913 0.0
H2083 H 0.653 0.8647 0.44329 0.0
H2084 H 0.65952 0.86199 0.46941 0.0
C2085 C 0.70047 0.85642 0.55402 0.0
C2086 C 0.69605 0.84428 0.51281 0.0
H2087 H 0.70289 0.8813 0.48575 0.0
C2088 C 0.68278 0.82142 0.50435 0.0
C2089 C 0.70337 0.86613 0.50607 0.0
C2090 C 0.71825 0.89116 0.51466 0.0
C2091 C 0.6763 0.81982 0.48925 0.0
C2092 C 0.68384 0.84172 0.48245 0.0
C2093 C 0.69709 0.86455 0.49098 0.0
C2094 C 0.67839 0.84157 0.4665 0.0
C2095 C 0.66103 0.79474 0.48079 0.0
C2096 C 0.68685 0.83098 0.45617 0.0
C2097 C 0.68284 0.83218 0.44117 0.0
C2098 C 0.67056 0.84428 0.43624 0.0
C2099 C 0.66212 0.85484 0.44665 0.0
C2100 C 0.66599 0.85348 0.46162 0.0
H2101 H 0.65094 0.78039 0.48816 0.0
H2102 H 0.64763 0.79459 0.47235 0.0
H2103 H 0.67322 0.78974 0.47516 0.0
H2104 H 0.69696 0.82218 0.45971 0.0
H2105 H 0.68941 0.82367 0.43346 0.0
H2106 H 0.16082 0.87035 0.55647 0.0
H2107 H 0.16853 0.86528 0.53103 0.0
H2108 H 0.09325 0.84112 0.51648 0.0
H2109 H 0.08552 0.84674 0.54187 0.0
H2110 H 0.14536 0.82292 0.50986 0.0
H2111 H 0.13301 0.89952 0.49265 0.0
H2112 H 0.13728 0.89545 0.51169 0.0
H2113 H 0.10811 0.8763 0.50118 0.0
C2114 C 0.14593 0.86404 0.54785 0.0
C2115 C 0.12261 0.85915 0.55117 0.0
C2116 C 0.15032 0.861 0.53335 0.0
C2117 C 0.13155 0.85316 0.52188 0.0
C2118 C 0.10807 0.84754 0.52517 0.0
H2119 H 0.13627 0.84304 0.42695 0.0
H2120 H 0.1225 0.84002 0.4515 0.0
C2121 C 0.10363 0.85053 0.53969 0.0
C2122 C 0.13681 0.85143 0.50648 0.0
H2123 H 0.14081 0.87717 0.47435 0.0
C2124 C 0.14431 0.83471 0.50207 0.0
C2125 C 0.13537 0.86683 0.49636 0.0
C2126 C 0.1282 0.8857 0.50068 0.0
C2127 C 0.15041 0.83295 0.48775 0.0
C2128 C 0.14943 0.8487 0.47771 0.0
C2129 C 0.14152 0.86511 0.48207 0.0
C2130 C 0.15741 0.84915 0.46282 0.0
C2131 C 0.15763 0.81412 0.48347 0.0
C2132 C 0.18163 0.8554 0.46105 0.0
C2133 C 0.18951 0.857 0.44705 0.0
C2134 C 0.17337 0.85256 0.43453 0.0
C2135 C 0.14908 0.84624 0.43634 0.0
C2136 C 0.14121 0.84464 0.45036 0.0
H2137 H 0.15061 0.79902 0.49071 0.0
H2138 H 0.15068 0.80604 0.47192 0.0
H2139 H 0.17789 0.82313 0.48455 0.0
H2140 H 0.19457 0.85944 0.47052 0.0
H2141 H 0.20826 0.86168 0.44603 0.0
H2142 H 0.58767 0.82704 0.11844 0.0
H2143 H 0.60173 0.83353 0.14452 0.0
H2144 H 0.64942 0.80492 0.13535 0.0
H2145 H 0.6364 0.79956 0.10913 0.0
H2146 H 0.59567 0.7982 0.16157 0.0
H2147 H 0.69469 0.86554 0.16293 0.0
H2148 H 0.67322 0.85904 0.14713 0.0
H2149 H 0.68497 0.83874 0.15029 0.0
C2150 C 0.60166 0.82276 0.1219 0.0
C2151 C 0.61097 0.81285 0.11166 0.0
C2152 C 0.60953 0.8263 0.13684 0.0
C2153 C 0.62684 0.82 0.14188 0.0
C2154 C 0.63644 0.81042 0.1317 0.0
H2155 H 0.67587 0.79721 0.22585 0.0
H2156 H 0.66732 0.79975 0.19988 0.0
C2157 C 0.62871 0.80703 0.11672 0.0
C2158 C 0.63335 0.82165 0.15785 0.0
H2159 H 0.68152 0.84505 0.18455 0.0
C2160 C 0.61441 0.80868 0.16661 0.0
C2161 C 0.65783 0.8353 0.16441 0.0
C2162 C 0.67882 0.85064 0.15573 0.0
C2163 C 0.61934 0.80848 0.18169 0.0
C2164 C 0.64382 0.82171 0.18816 0.0
C2165 C 0.66277 0.83489 0.17948 0.0
C2166 C 0.65006 0.82145 0.20389 0.0
C2167 C 0.59842 0.7936 0.19054 0.0
C2168 C 0.64345 0.83314 0.21468 0.0
C2169 C 0.64851 0.83194 0.22955 0.0
C2170 C 0.66024 0.81899 0.23386 0.0
C2171 C 0.66712 0.80762 0.22294 0.0
C2172 C 0.66216 0.80894 0.2081 0.0
H2173 H 0.58114 0.78117 0.18345 0.0
H2174 H 0.60293 0.78239 0.19759 0.0
H2175 H 0.59529 0.80626 0.19783 0.0
H2176 H 0.63432 0.84311 0.2116 0.0
H2177 H 0.64334 0.84126 0.23765 0.0
H2178 H 0.19855 0.76981 0.12377 0.0
H2179 H 0.18987 0.77597 0.14876 0.0
H2180 H 0.21625 0.8525 0.14403 0.0
H2181 H 0.22429 0.84642 0.11873 0.0
H2182 H 0.2345 0.83682 0.17191 0.0
H2183 H 0.13376 0.7938 0.1585 0.0
H2184 H 0.14823 0.77808 0.15057 0.0
H2185 H 0.15516 0.80751 0.14506 0.0
C2186 C 0.20225 0.78792 0.12793 0.0
C2187 C 0.2119 0.80757 0.11916 0.0
C2188 C 0.19743 0.79141 0.14225 0.0
C2189 C 0.20229 0.81462 0.14813 0.0
C2190 C 0.21239 0.83445 0.13961 0.0
H2191 H 0.15312 0.8426 0.23039 0.0
H2192 H 0.16555 0.84503 0.20545 0.0
C2193 C 0.21707 0.83095 0.12521 0.0
C2194 C 0.19659 0.81792 0.16319 0.0
H2195 H 0.14874 0.80268 0.18369 0.0
C2196 C 0.2158 0.82958 0.17451 0.0
C2197 C 0.17218 0.80857 0.16645 0.0
C2198 C 0.15105 0.79639 0.15454 0.0
C2199 C 0.21111 0.83143 0.18917 0.0
C2200 C 0.18662 0.82125 0.19249 0.0
C2201 C 0.16749 0.81035 0.18109 0.0
C2202 C 0.18036 0.82088 0.20779 0.0
C2203 C 0.23232 0.8441 0.20101 0.0
C2204 C 0.1845 0.8064 0.21728 0.0
C2205 C 0.17733 0.80488 0.23147 0.0
C2206 C 0.16595 0.81787 0.23642 0.0
C2207 C 0.16207 0.83258 0.22693 0.0
C2208 C 0.16906 0.83392 0.21269 0.0
H2209 H 0.24988 0.85573 0.19642 0.0
H2210 H 0.22923 0.85576 0.20918 0.0
H2211 H 0.23401 0.83001 0.20684 0.0
H2212 H 0.1929 0.79594 0.21363 0.0
H2213 H 0.18071 0.79355 0.23858 0.0
H2214 H 0.17862 0.38504 0.1191 0.0
H2215 H 0.17151 0.37043 0.14339 0.0
H2216 H 0.24818 0.41774 0.15806 0.0
H2217 H 0.25532 0.43311 0.13391 0.0
H2218 H 0.19177 0.34739 0.15951 0.0
H2219 H 0.21435 0.43752 0.18831 0.0
H2220 H 0.20909 0.43126 0.16857 0.0
H2221 H 0.23777 0.43795 0.17799 0.0
C2222 C 0.19395 0.39248 0.12752 0.0
C2223 C 0.21749 0.41046 0.12462 0.0
C2224 C 0.18989 0.38397 0.14136 0.0
C2225 C 0.20924 0.3933 0.15258 0.0
C2226 C 0.23291 0.41064 0.14962 0.0
H2227 H 0.20633 0.36569 0.24497 0.0
H2228 H 0.21984 0.37951 0.2211 0.0
C2229 C 0.23701 0.41919 0.13577 0.0
C2230 C 0.20436 0.38506 0.16742 0.0
H2231 H 0.20448 0.40493 0.20291 0.0
C2232 C 0.19462 0.35997 0.16901 0.0
C2233 C 0.20815 0.40154 0.1798 0.0
C2234 C 0.21772 0.42854 0.17864 0.0
C2235 C 0.18843 0.35088 0.18265 0.0
C2236 C 0.19174 0.36727 0.19495 0.0
C2237 C 0.20199 0.39244 0.19345 0.0
C2238 C 0.18367 0.35854 0.20933 0.0
C2239 C 0.17849 0.32382 0.1838 0.0
C2240 C 0.15881 0.34247 0.21064 0.0
C2241 C 0.15101 0.3347 0.22424 0.0
C2242 C 0.1679 0.34293 0.23685 0.0
C2243 C 0.19281 0.35919 0.23551 0.0
C2244 C 0.20059 0.36699 0.22188 0.0
H2245 H 0.18339 0.31521 0.17467 0.0
H2246 H 0.18548 0.32077 0.19439 0.0
H2247 H 0.15823 0.31434 0.18323 0.0
H2248 H 0.14538 0.33621 0.20115 0.0
H2249 H 0.13165 0.32258 0.22492 0.0
H2250 H 0.77373 0.61135 0.88101 0.0
H2251 H 0.78078 0.62521 0.85642 0.0
H2252 H 0.79997 0.57019 0.84445 0.0
H2253 H 0.79268 0.55606 0.86887 0.0
H2254 H 0.82643 0.64271 0.8437 0.0
H2255 H 0.74953 0.56156 0.81022 0.0
H2256 H 0.74985 0.56751 0.82977 0.0
H2257 H 0.76742 0.55456 0.82289 0.0
C2258 C 0.77907 0.60198 0.87305 0.0
C2259 C 0.78267 0.58264 0.87685 0.0
C2260 C 0.78319 0.60997 0.85906 0.0
C2261 C 0.79063 0.59854 0.8486 0.0
C2262 C 0.79389 0.57901 0.8523 0.0
H2263 H 0.83751 0.61908 0.76169 0.0
H2264 H 0.82422 0.60462 0.78547 0.0
C2265 C 0.78993 0.57112 0.86629 0.0
C2266 C 0.79639 0.60785 0.83408 0.0
H2267 H 0.78063 0.59107 0.79725 0.0
C2268 C 0.8163 0.63156 0.83353 0.0
C2269 C 0.78318 0.59315 0.82088 0.0
C2270 C 0.76116 0.56784 0.82089 0.0
C2271 C 0.82387 0.64073 0.82007 0.0
C2272 C 0.81079 0.62595 0.80683 0.0
C2273 C 0.79064 0.60235 0.80741 0.0
C2274 C 0.81808 0.63443 0.79227 0.0
C2275 C 0.84633 0.66579 0.82017 0.0
C2276 C 0.81858 0.65572 0.78809 0.0
C2277 C 0.82623 0.66405 0.77455 0.0
C2278 C 0.83324 0.65107 0.76484 0.0
C2279 C 0.83208 0.62938 0.76889 0.0
C2280 C 0.82457 0.62115 0.78248 0.0
H2281 H 0.85776 0.67184 0.83091 0.0
H2282 H 0.85775 0.66588 0.81142 0.0
H2283 H 0.84058 0.67945 0.81814 0.0
H2284 H 0.81305 0.6659 0.79531 0.0
H2285 H 0.82647 0.68056 0.77162 0.0
H2286 H 0.41504 0.17554 0.88542 0.0
H2287 H 0.40264 0.17131 0.85914 0.0
H2288 H 0.35564 0.20066 0.86835 0.0
H2289 H 0.36743 0.20444 0.89468 0.0
H2290 H 0.35176 0.14548 0.8432 0.0
H2291 H 0.40546 0.24645 0.83989 0.0
H2292 H 0.41142 0.23198 0.85474 0.0
H2293 H 0.3855 0.23641 0.85425 0.0
C2294 C 0.40173 0.1807 0.88189 0.0
C2295 C 0.39231 0.19046 0.89215 0.0
C2296 C 0.39478 0.17837 0.86688 0.0
C2297 C 0.37847 0.18593 0.86187 0.0
C2298 C 0.36851 0.19504 0.87205 0.0
H2299 H 0.32819 0.20517 0.77694 0.0
H2300 H 0.33658 0.20369 0.80303 0.0
C2301 C 0.37534 0.19727 0.88706 0.0
C2302 C 0.37244 0.18503 0.84598 0.0
H2303 H 0.38079 0.2217 0.81851 0.0
C2304 C 0.35811 0.16208 0.83774 0.0
C2305 C 0.3808 0.20678 0.839 0.0
C2306 C 0.3968 0.23185 0.84735 0.0
C2307 C 0.35143 0.16031 0.82266 0.0
C2308 C 0.35986 0.1821 0.81564 0.0
C2309 C 0.37433 0.20503 0.82392 0.0
C2310 C 0.35374 0.18169 0.79975 0.0
C2311 C 0.33491 0.13519 0.81448 0.0
C2312 C 0.36068 0.16986 0.78923 0.0
C2313 C 0.35559 0.17037 0.77426 0.0
C2314 C 0.34371 0.18296 0.76955 0.0
C2315 C 0.33693 0.1949 0.78016 0.0
C2316 C 0.34189 0.19425 0.79509 0.0
H2317 H 0.32474 0.12125 0.82206 0.0
H2318 H 0.32149 0.13556 0.80628 0.0
H2319 H 0.34617 0.12923 0.80857 0.0
H2320 H 0.37033 0.16052 0.79259 0.0
H2321 H 0.36091 0.16083 0.7664 0.0
H2322 H 0.7803 0.16051 0.88536 0.0
H2323 H 0.78909 0.15522 0.86012 0.0
H2324 H 0.80463 0.22873 0.85391 0.0
H2325 H 0.79617 0.2342 0.87907 0.0
H2326 H 0.76911 0.15808 0.83309 0.0
H2327 H 0.86688 0.23047 0.84346 0.0
H2328 H 0.84778 0.21816 0.8581 0.0
H2329 H 0.84662 0.24142 0.8482 0.0
C2330 C 0.78541 0.17544 0.87854 0.0
C2331 C 0.78788 0.19789 0.88422 0.0
C2332 C 0.79049 0.17243 0.86417 0.0
C2333 C 0.79807 0.1918 0.85527 0.0
C2334 C 0.7995 0.21381 0.86073 0.0
H2335 H 0.83369 0.21817 0.76681 0.0
H2336 H 0.82124 0.21771 0.79161 0.0
C2337 C 0.79461 0.21689 0.87509 0.0
C2338 C 0.80474 0.18923 0.84031 0.0
H2339 H 0.85095 0.21613 0.81838 0.0
C2340 C 0.78706 0.1706 0.8299 0.0
C2341 C 0.82827 0.20549 0.83621 0.0
C2342 C 0.84856 0.22485 0.84712 0.0
C2343 C 0.79205 0.16838 0.81534 0.0
C2344 C 0.81526 0.18518 0.81117 0.0
C2345 C 0.83308 0.20345 0.82163 0.0
C2346 C 0.82139 0.18444 0.79593 0.0
C2347 C 0.77235 0.14858 0.80438 0.0
C2348 C 0.8256 0.16587 0.79023 0.0
C2349 C 0.83281 0.16613 0.7761 0.0
C2350 C 0.83581 0.18493 0.76743 0.0
C2351 C 0.83125 0.20331 0.77315 0.0
C2352 C 0.82425 0.20313 0.78731 0.0
H2353 H 0.75437 0.139 0.80889 0.0
H2354 H 0.77032 0.15658 0.7943 0.0
H2355 H 0.77769 0.13478 0.80116 0.0
H2356 H 0.82369 0.15142 0.7968 0.0
H2357 H 0.83602 0.15163 0.77194 0.0
H2358 H 0.30351 0.13574 0.44399 0.0
H2359 H 0.31542 0.14183 0.47048 0.0
H2360 H 0.26371 0.16599 0.47787 0.0
H2361 H 0.25132 0.15946 0.45145 0.0
H2362 H 0.33314 0.18581 0.49129 0.0
H2363 H 0.24428 0.10692 0.50274 0.0
H2364 H 0.25419 0.11087 0.48456 0.0
H2365 H 0.24249 0.12931 0.4923 0.0
C2366 C 0.29468 0.14233 0.45127 0.0
C2367 C 0.27638 0.14698 0.44566 0.0
C2368 C 0.3016 0.14594 0.46636 0.0
C2369 C 0.29023 0.15409 0.47608 0.0
C2370 C 0.27249 0.15944 0.47051 0.0
H2371 H 0.29672 0.16265 0.57145 0.0
H2372 H 0.28835 0.16648 0.54566 0.0
C2373 C 0.2656 0.1559 0.45543 0.0
C2374 C 0.29634 0.15613 0.49208 0.0
H2375 H 0.27297 0.13007 0.52308 0.0
C2376 C 0.32002 0.17371 0.49828 0.0
C2377 C 0.27909 0.14032 0.50111 0.0
C2378 C 0.25362 0.12064 0.49489 0.0
C2379 C 0.32692 0.17593 0.51337 0.0
C2380 C 0.30981 0.15978 0.52236 0.0
C2381 C 0.28602 0.14246 0.51616 0.0
C2382 C 0.31639 0.15968 0.5381 0.0
C2383 C 0.35236 0.19569 0.51955 0.0
C2384 C 0.33494 0.15464 0.54238 0.0
C2385 C 0.3399 0.15263 0.5571 0.0
C2386 C 0.3262 0.15538 0.56781 0.0
C2387 C 0.30781 0.16074 0.56351 0.0
C2388 C 0.30291 0.1628 0.54877 0.0
H2389 H 0.36031 0.21088 0.51242 0.0
H2390 H 0.35236 0.20347 0.53074 0.0
H2391 H 0.36444 0.18763 0.52025 0.0
H2392 H 0.34522 0.15165 0.53429 0.0
H2393 H 0.35435 0.14875 0.56007 0.0
H2394 H 0.87155 0.10278 0.45793 0.0
H2395 H 0.86469 0.10971 0.48331 0.0
H2396 H 0.88334 0.18393 0.47663 0.0
H2397 H 0.89005 0.17707 0.4511 0.0
H2398 H 0.89997 0.14996 0.50617 0.0
H2399 H 0.81311 0.14987 0.49198 0.0
H2400 H 0.82501 0.13629 0.47937 0.0
H2401 H 0.83911 0.1691 0.48253 0.0
C2402 C 0.87407 0.12054 0.46184 0.0
C2403 C 0.88113 0.13933 0.45251 0.0
C2404 C 0.8703 0.12451 0.47635 0.0
C2405 C 0.87332 0.14724 0.48176 0.0
C2406 C 0.88074 0.1662 0.47258 0.0
H2407 H 0.83642 0.18627 0.56569 0.0
H2408 H 0.84999 0.18756 0.54115 0.0
C2409 C 0.88469 0.1623 0.45806 0.0
C2410 C 0.86836 0.15081 0.49698 0.0
H2411 H 0.82663 0.15496 0.51703 0.0
C2412 C 0.88403 0.15121 0.50859 0.0
C2413 C 0.84764 0.15256 0.50003 0.0
C2414 C 0.83008 0.15182 0.48787 0.0
C2415 C 0.87941 0.15314 0.52325 0.0
C2416 C 0.85819 0.15401 0.5263 0.0
C2417 C 0.84285 0.15421 0.51467 0.0
C2418 C 0.851 0.15376 0.54141 0.0
C2419 C 0.89742 0.15442 0.5353 0.0
C2420 C 0.84686 0.13423 0.54965 0.0
C2421 C 0.83915 0.13347 0.56366 0.0
C2422 C 0.83511 0.15206 0.56963 0.0
C2423 C 0.83917 0.17156 0.56133 0.0
C2424 C 0.84702 0.17239 0.54735 0.0
H2425 H 0.9159 0.16138 0.53156 0.0
H2426 H 0.89895 0.16651 0.54511 0.0
H2427 H 0.89111 0.13569 0.53857 0.0
H2428 H 0.84913 0.11929 0.54513 0.0
H2429 H 0.83578 0.11799 0.56967 0.0
H2430 H 0.87626 0.77561 0.46686 0.0
H2431 H 0.8677 0.7608 0.49103 0.0
H2432 H 0.88486 0.70435 0.47876 0.0
H2433 H 0.89373 0.71931 0.45456 0.0
H2434 H 0.83242 0.71548 0.49678 0.0
H2435 H 0.9239 0.73284 0.51873 0.0
H2436 H 0.91948 0.7461 0.50275 0.0
H2437 H 0.91244 0.71462 0.50125 0.0
C2438 C 0.87833 0.76011 0.46935 0.0
C2439 C 0.88562 0.74857 0.45882 0.0
C2440 C 0.8735 0.75172 0.48316 0.0
C2441 C 0.87588 0.73164 0.48677 0.0
C2442 C 0.88344 0.72022 0.47635 0.0
H2443 H 0.83658 0.64788 0.56266 0.0
H2444 H 0.84926 0.66255 0.53879 0.0
C2445 C 0.88843 0.72873 0.46252 0.0
C2446 C 0.86907 0.72194 0.50113 0.0
H2447 H 0.8909 0.7103 0.5328 0.0
C2448 C 0.84525 0.71444 0.50467 0.0
C2449 C 0.8858 0.72047 0.51138 0.0
C2450 C 0.9119 0.72913 0.50843 0.0
C2451 C 0.83767 0.70548 0.51815 0.0
C2452 C 0.85442 0.70421 0.52843 0.0
C2453 C 0.87814 0.71135 0.52486 0.0
C2454 C 0.84763 0.69581 0.54303 0.0
C2455 C 0.8117 0.69721 0.52127 0.0
C2456 C 0.8429 0.70988 0.55334 0.0
C2457 C 0.83566 0.70158 0.56695 0.0
C2458 C 0.83298 0.67901 0.57047 0.0
C2459 C 0.83816 0.66517 0.56018 0.0
C2460 C 0.84554 0.67357 0.5466 0.0
H2461 H 0.79972 0.69439 0.51113 0.0
H2462 H 0.80383 0.67982 0.52654 0.0
H2463 H 0.81162 0.71146 0.52896 0.0
H2464 H 0.84465 0.72722 0.55081 0.0
H2465 H 0.83165 0.71257 0.57459 0.0
loop_
_geom_bond_atom_site_label_1
_geom_bond_atom_site_label_2
_geom_bond_distance
_geom_bond_site_symmetry_2
_ccdc_geom_bond_type
H0 C3 0.931 . S
H1 C6 0.928 . S
H2 C8 0.930 . S
C3 H0 0.931 . S
C3 C4 1.413 . S
C3 C5 1.360 . S
C4 C3 1.413 . S
C4 C8 1.429 . S
C5 C3 1.360 . S
C5 C6 1.372 . S
C6 H1 0.928 . S
C6 C5 1.372 . S
C6 C7 1.404 . S
C7 C6 1.404 . S
C7 C8 1.391 . S
C8 H2 0.930 . S
C8 C4 1.429 . S
C8 C7 1.391 . S
H9 C12 0.931 . S
H10 C15 0.928 . S
H11 C17 0.930 . S
C12 H9 0.931 . S
C12 C13 1.413 . S
C12 C14 1.360 . S
C13 C12 1.413 . S
C13 C17 1.429 . S
C14 C12 1.360 . S
C14 C15 1.372 . S
C15 H10 0.928 . S
C15 C14 1.372 . S
C15 C16 1.404 . S
C16 C15 1.404 . S
C16 C17 1.391 . S
C17 H11 0.930 . S
C17 C13 1.429 . S
C17 C16 1.391 . S
H18 C21 0.931 . S
H19 C24 0.928 . S
H20 C26 0.930 . S
C21 H18 0.931 . S
C21 C22 1.413 . S
C21 C23 1.360 . S
C22 C21 1.413 . S
C22 C26 1.429 . S
C23 C21 1.360 . S
C23 C24 1.372 . S
C24 H19 0.928 . S
C24 C23 1.372 . S
C24 C25 1.404 . S
C25 C24 1.404 . S
C25 C26 1.391 . S
C26 H20 0.930 . S
C26 C22 1.429 . S
C26 C25 1.391 . S
H27 C30 0.931 . S
H28 C33 0.928 . S
H29 C35 0.930 . S
C30 H27 0.931 . S
C30 C31 1.413 . S
C30 C32 1.360 . S
C31 C30 1.413 . S
C31 C35 1.429 . S
C32 C30 1.360 . S
C32 C33 1.372 . S
C33 H28 0.928 . S
C33 C32 1.372 . S
C33 C34 1.404 . S
C34 C33 1.404 . S
C34 C35 1.391 . S
C35 H29 0.930 . S
C35 C31 1.429 . S
C35 C34 1.391 . S
H36 C39 0.931 . S
H37 C42 0.928 . S
H38 C44 0.930 . S
C39 H36 0.931 . S
C39 C40 1.413 . S
C39 C41 1.360 . S
C40 C39 1.413 . S
C40 C44 1.429 . S
C41 C39 1.360 . S
C41 C42 1.372 . S
C42 H37 0.928 . S
C42 C41 1.372 . S
C42 C43 1.404 . S
C43 C42 1.404 . S
C43 C44 1.391 . S
C44 H38 0.930 . S
C44 C40 1.429 . S
C44 C43 1.391 . S
H45 C48 0.931 . S
H46 C51 0.928 . S
H47 C53 0.930 . S
C48 H45 0.931 . S
C48 C49 1.413 . S
C48 C50 1.360 . S
C49 C48 1.413 . S
C49 C53 1.429 . S
C50 C48 1.360 . S
C50 C51 1.372 . S
C51 H46 0.928 . S
C51 C50 1.372 . S
C51 C52 1.404 . S
C52 C51 1.404 . S
C52 C53 1.391 . S
C53 H47 0.930 . S
C53 C49 1.429 . S
C53 C52 1.391 . S
H54 C57 0.931 . S
H55 C60 0.928 . S
H56 C62 0.930 . S
C57 H54 0.931 . S
C57 C58 1.413 . S
C57 C59 1.360 . S
C58 C57 1.413 . S
C58 C62 1.429 . S
C59 C57 1.360 . S
C59 C60 1.372 . S
C60 H55 0.928 . S
C60 C59 1.372 . S
C60 C61 1.404 . S
C61 C60 1.404 . S
C61 C62 1.391 . S
C62 H56 0.930 . S
C62 C58 1.429 . S
C62 C61 1.391 . S
H63 C66 0.931 . S
H64 C69 0.928 . S
H65 C71 0.930 . S
C66 H63 0.931 . S
C66 C67 1.413 . S
C66 C68 1.360 . S
C67 C66 1.413 . S
C67 C71 1.429 . S
C68 C66 1.360 . S
C68 C69 1.372 . S
C69 H64 0.928 . S
C69 C68 1.372 . S
C69 C70 1.404 . S
C70 C69 1.404 . S
C70 C71 1.391 . S
C71 H65 0.930 . S
C71 C67 1.429 . S
C71 C70 1.391 . S
H72 C75 0.931 . S
H73 C78 0.928 . S
H74 C80 0.930 . S
C75 H72 0.931 . S
C75 C76 1.413 . S
C75 C77 1.360 . S
C76 C75 1.413 . S
C76 C80 1.429 . S
C77 C75 1.360 . S
C77 C78 1.372 . S
C78 H73 0.928 . S
C78 C77 1.372 . S
C78 C79 1.404 . S
C79 C78 1.404 . S
C79 C80 1.391 . S
C80 H74 0.930 . S
C80 C76 1.429 . S
C80 C79 1.391 . S
H81 C84 0.931 . S
H82 C87 0.928 . S
H83 C89 0.930 . S
C84 H81 0.931 . S
C84 C85 1.413 . S
C84 C86 1.360 . S
C85 C84 1.413 . S
C85 C89 1.429 . S
C86 C84 1.360 . S
C86 C87 1.372 . S
C87 H82 0.928 . S
C87 C86 1.372 . S
C87 C88 1.404 . S
C88 C87 1.404 . S
C88 C89 1.391 . S
C89 H83 0.930 . S
C89 C85 1.429 . S
C89 C88 1.391 . S
H90 C93 0.931 . S
H91 C96 0.928 . S
H92 C98 0.930 . S
C93 H90 0.931 . S
C93 C94 1.413 . S
C93 C95 1.360 . S
C94 C93 1.413 . S
C94 C98 1.429 . S
C95 C93 1.360 . S
C95 C96 1.372 . S
C96 H91 0.928 . S
C96 C95 1.372 . S
C96 C97 1.404 . S
C97 C96 1.404 . S
C97 C98 1.391 . S
C98 H92 0.930 . S
C98 C94 1.429 . S
C98 C97 1.391 . S
H99 C102 0.931 . S
H100 C105 0.928 . S
H101 C107 0.930 . S
C102 H99 0.931 . S
C102 C103 1.413 . S
C102 C104 1.360 . S
C103 C102 1.413 . S
C103 C107 1.429 . S
C104 C102 1.360 . S
C104 C105 1.372 . S
C105 H100 0.928 . S
C105 C104 1.372 . S
C105 C106 1.404 . S
C106 C105 1.404 . S
C106 C107 1.391 . S
C107 H101 0.930 . S
C107 C103 1.429 . S
C107 C106 1.391 . S
H108 C111 0.931 . S
H109 C114 0.928 . S
H110 C116 0.930 . S
C111 H108 0.931 . S
C111 C112 1.413 . S
C111 C113 1.360 . S
C112 C111 1.413 . S
C112 C116 1.429 . S
C113 C111 1.360 . S
C113 C114 1.372 . S
C114 H109 0.928 . S
C114 C113 1.372 . S
C114 C115 1.404 . S
C115 C114 1.404 . S
C115 C116 1.391 . S
C116 H110 0.930 . S
C116 C112 1.429 . S
C116 C115 1.391 . S
H117 C120 0.931 . S
H118 C123 0.928 . S
H119 C125 0.930 . S
C120 H117 0.931 . S
C120 C121 1.413 . S
C120 C122 1.360 . S
C121 C120 1.413 . S
C121 C125 1.429 . S
C122 C120 1.360 . S
C122 C123 1.372 . S
C123 H118 0.928 . S
C123 C122 1.372 . S
C123 C124 1.404 . S
C124 C123 1.404 . S
C124 C125 1.391 . S
C125 H119 0.930 . S
C125 C121 1.429 . S
C125 C124 1.391 . S
H126 C129 0.931 . S
H127 C132 0.928 . S
H128 C134 0.930 . S
C129 H126 0.931 . S
C129 C130 1.413 . S
C129 C131 1.360 . S
C130 C129 1.413 . S
C130 C134 1.429 . S
C131 C129 1.360 . S
C131 C132 1.372 . S
C132 H127 0.928 . S
C132 C131 1.372 . S
C132 C133 1.404 . S
C133 C132 1.404 . S
C133 C134 1.391 . S
C134 H128 0.930 . S
C134 C130 1.429 . S
C134 C133 1.391 . S
H135 C138 0.931 . S
H136 C141 0.928 . S
H137 C143 0.930 . S
C138 H135 0.931 . S
C138 C139 1.413 . S
C138 C140 1.360 . S
C139 C138 1.413 . S
C139 C143 1.429 . S
C140 C138 1.360 . S
C140 C141 1.372 . S
C141 H136 0.928 . S
C141 C140 1.372 . S
C141 C142 1.404 . S
C142 C141 1.404 . S
C142 C143 1.391 . S
C143 H137 0.930 . S
C143 C139 1.429 . S
C143 C142 1.391 . S
H144 C147 0.931 . S
H145 C150 0.928 . S
H146 C152 0.930 . S
C147 H144 0.931 . S
C147 C148 1.413 . S
C147 C149 1.360 . S
C148 C147 1.413 . S
C148 C152 1.429 . S
C149 C147 1.360 . S
C149 C150 1.372 . S
C150 H145 0.928 . S
C150 C149 1.372 . S
C150 C151 1.404 . S
C151 C150 1.404 . S
C151 C152 1.391 . S
C152 H146 0.930 . S
C152 C148 1.429 . S
C152 C151 1.391 . S
H153 C156 0.931 . S
H154 C159 0.928 . S
H155 C161 0.930 . S
C156 H153 0.931 . S
C156 C157 1.413 . S
C156 C158 1.360 . S
C157 C156 1.413 . S
C157 C161 1.429 . S
C158 C156 1.360 . S
C158 C159 1.372 . S
C159 H154 0.928 . S
C159 C158 1.372 . S
C159 C160 1.404 . S
C160 C159 1.404 . S
C160 C161 1.391 . S
C161 H155 0.930 . S
C161 C157 1.429 . S
C161 C160 1.391 . S
C162 Eu163 2.835 . S
C162 C164 1.500 . S
C162 O182 1.257 1_545 S
C162 O183 1.260 . S
Eu163 C162 2.835 . S
Eu163 O182 2.473 1_545 S
Eu163 O183 2.480 . S
Eu163 O184 2.430 . S
Eu163 O185 2.670 1_554 S
Eu163 O186 2.394 1_545 S
Eu163 O191 2.355 1_545 S
Eu163 O193 2.374 . S
C164 C162 1.500 . S
C164 C165 1.377 . S
C164 C169 1.377 1_545 S
C165 C164 1.377 . S
C165 C166 1.395 . S
C165 H194 0.931 . S
C166 C165 1.395 . S
C166 C167 1.383 1_545 S
C166 H195 0.931 . S
C167 C166 1.383 1_565 S
C167 C168 1.394 . S
C168 C167 1.394 . S
C168 C169 1.378 . S
C168 H196 0.931 . S
C169 C164 1.377 1_565 S
C169 C168 1.378 . S
C169 H197 0.931 . S
C170 O184 1.208 1_556 S
C170 O185 1.290 . S
C171 O186 1.251 . S
C171 O187 1.251 1_554 S
C172 Eu173 2.835 . S
C172 C174 1.500 . S
C172 O188 1.257 1_565 S
C172 O189 1.260 . S
Eu173 C172 2.835 . S
Eu173 O185 2.355 1_565 S
Eu173 O187 2.374 . S
Eu173 O188 2.473 1_565 S
Eu173 O189 2.480 . S
Eu173 O190 2.430 . S
Eu173 O191 2.670 1_556 S
Eu173 O192 2.394 1_565 S
C174 C172 1.500 . S
C174 C175 1.377 . S
C174 C179 1.377 1_565 S
C175 C174 1.377 . S
C175 C176 1.395 . S
C175 H198 0.931 . S
C176 C175 1.395 . S
C176 C177 1.383 1_565 S
C176 H199 0.931 . S
C177 C176 1.383 1_545 S
C177 C178 1.394 . S
C178 C177 1.394 . S
C178 C179 1.378 . S
C178 H200 0.931 . S
C179 C174 1.377 1_545 S
C179 C178 1.378 . S
C179 H201 0.931 . S
C180 O190 1.259 1_554 S
C180 O191 1.270 . S
C181 O192 1.251 . S
C181 O193 1.251 1_556 S
O182 C162 1.257 1_565 S
O182 Eu163 2.473 1_565 S
O183 C162 1.260 . S
O183 Eu163 2.480 . S
O184 Eu163 2.430 . S
O184 C170 1.208 1_554 S
O185 Eu163 2.670 1_556 S
O185 C170 1.290 . S
O185 Eu173 2.355 1_545 S
O186 Eu163 2.394 1_565 S
O186 C171 1.251 . S
O187 C171 1.251 1_556 S
O187 Eu173 2.374 . S
O188 C172 1.257 1_545 S
O188 Eu173 2.473 1_545 S
O189 C172 1.260 . S
O189 Eu173 2.480 . S
O190 Eu173 2.430 . S
O190 C180 1.259 1_556 S
O191 Eu163 2.355 1_565 S
O191 Eu173 2.670 1_554 S
O191 C180 1.270 . S
O192 Eu173 2.394 1_545 S
O192 C181 1.251 . S
O193 Eu163 2.374 . S
O193 C181 1.251 1_554 S
H194 C165 0.931 . S
H195 C166 0.931 . S
H196 C168 0.931 . S
H197 C169 0.931 . S
H198 C175 0.931 . S
H199 C176 0.931 . S
H200 C178 0.931 . S
H201 C179 0.931 . S
C202 Eu203 2.835 . S
C202 C204 1.500 1_655 S
C202 O222 1.257 1_655 S
C202 O223 1.260 . S
Eu203 C202 2.835 . S
Eu203 O222 2.473 1_655 S
Eu203 O223 2.480 . S
Eu203 O224 2.430 . S
Eu203 O225 2.670 1_554 S
Eu203 O226 2.394 1_655 S
Eu203 O231 2.355 1_655 S
Eu203 O233 2.374 . S
C204 C202 1.500 1_455 S
C204 C205 1.377 1_455 S
C204 C209 1.377 . S
C205 C204 1.377 1_655 S
C205 C206 1.395 . S
C205 H234 0.931 . S
C206 C205 1.395 . S
C206 C207 1.383 1_655 S
C206 H235 0.931 . S
C207 C206 1.383 1_455 S
C207 C208 1.394 . S
C208 C207 1.394 . S
C208 C209 1.378 . S
C208 H236 0.931 . S
C209 C204 1.377 . S
C209 C208 1.378 . S
C209 H237 0.931 . S
C210 O224 1.259 1_556 S
C210 O225 1.270 . S
C211 O226 1.251 . S
C211 O227 1.251 . S
C212 Eu213 2.835 . S
C212 C214 1.500 1_455 S
C212 O228 1.257 1_455 S
C212 O229 1.260 . S
Eu213 C212 2.835 . S
Eu213 O225 2.355 1_455 S
Eu213 O227 2.374 1_556 S
Eu213 O228 2.473 1_455 S
Eu213 O229 2.480 . S
Eu213 O230 2.430 . S
Eu213 O231 2.670 1_556 S
Eu213 O232 2.394 1_455 S
C214 C212 1.500 1_655 S
C214 C215 1.377 1_655 S
C214 C219 1.377 . S
C215 C214 1.377 1_455 S
C215 C216 1.395 . S
C215 H238 0.931 . S
C216 C215 1.395 . S
C216 C217 1.383 1_455 S
C216 H239 0.931 . S
C217 C216 1.383 1_655 S
C217 C218 1.394 . S
C218 C217 1.394 . S
C218 C219 1.378 . S
C218 H240 0.931 . S
C219 C214 1.377 . S
C219 C218 1.378 . S
C219 H241 0.931 . S
C220 O230 1.259 1_554 S
C220 O231 1.270 . S
C221 O232 1.251 . S
C221 O233 1.251 1_556 S
O222 C202 1.257 1_455 S
O222 Eu203 2.473 1_455 S
O223 C202 1.260 . S
O223 Eu203 2.480 . S
O224 Eu203 2.430 . S
O224 C210 1.259 1_554 S
O225 Eu203 2.670 1_556 S
O225 C210 1.270 . S
O225 Eu213 2.355 1_655 S
O226 Eu203 2.394 1_455 S
O226 C211 1.251 . S
O227 C211 1.251 . S
O227 Eu213 2.374 1_554 S
O228 C212 1.257 1_655 S
O228 Eu213 2.473 1_655 S
O229 C212 1.260 . S
O229 Eu213 2.480 . S
O230 Eu213 2.430 . S
O230 C220 1.259 1_556 S
O231 Eu203 2.355 1_455 S
O231 Eu213 2.670 1_554 S
O231 C220 1.270 . S
O232 Eu213 2.394 1_655 S
O232 C221 1.251 . S
O233 Eu203 2.374 . S
O233 C221 1.251 1_554 S
H234 C205 0.931 . S
H235 C206 0.931 . S
H236 C208 0.931 . S
H237 C209 0.931 . S
H238 C215 0.931 . S
H239 C216 0.931 . S
H240 C218 0.931 . S
H241 C219 0.931 . S
C242 Eu243 2.835 . S
C242 C244 1.500 . S
C242 O262 1.257 . S
C242 O263 1.260 . S
Eu243 C242 2.835 . S
Eu243 O262 2.473 . S
Eu243 O263 2.480 . S
Eu243 O264 2.430 . S
Eu243 O265 2.670 1_556 S
Eu243 O266 2.394 . S
Eu243 O271 2.355 . S
Eu243 O273 2.400 . S
C244 C242 1.500 . S
C244 C245 1.377 . S
C244 C249 1.377 . S
C245 C244 1.377 . S
C245 C246 1.395 . S
C245 H274 0.931 . S
C246 C245 1.395 . S
C246 C247 1.383 . S
C246 H275 0.931 . S
C247 C246 1.383 . S
C247 C248 1.394 . S
C248 C247 1.394 . S
C248 C249 1.378 . S
C248 H276 0.931 . S
C249 C244 1.377 . S
C249 C248 1.378 . S
C249 H277 0.931 . S
C250 O264 1.259 1_554 S
C250 O265 1.270 . S
C251 O266 1.251 . S
C251 O267 1.251 1_556 S
C252 Eu253 2.835 . S
C252 C254 1.500 . S
C252 O268 1.257 . S
C252 O269 1.260 . S
Eu253 C252 2.835 . S
Eu253 O265 2.355 . S
Eu253 O267 2.374 . S
Eu253 O268 2.473 . S
Eu253 O269 2.480 . S
Eu253 O270 2.430 . S
Eu253 O271 2.670 1_554 S
Eu253 O272 2.394 . S
C254 C252 1.500 . S
C254 C255 1.377 . S
C254 C259 1.377 . S
C255 C254 1.377 . S
C255 C256 1.395 . S
C255 H278 0.931 . S
C256 C255 1.395 . S
C256 C257 1.383 . S
C256 H279 0.931 . S
C257 C256 1.383 . S
C257 C258 1.394 . S
C258 C257 1.394 . S
C258 C259 1.378 . S
C258 H280 0.931 . S
C259 C254 1.377 . S
C259 C258 1.378 . S
C259 H281 0.931 . S
C260 O270 1.259 1_556 S
C260 O271 1.270 . S
C261 O272 1.251 . S
C261 O273 1.218 1_554 S
O262 C242 1.257 . S
O262 Eu243 2.473 . S
O263 C242 1.260 . S
O263 Eu243 2.480 . S
O264 Eu243 2.430 . S
O264 C250 1.259 1_556 S
O265 Eu243 2.670 1_554 S
O265 C250 1.270 . S
O265 Eu253 2.355 . S
O266 Eu243 2.394 . S
O266 C251 1.251 . S
O267 C251 1.251 1_554 S
O267 Eu253 2.374 . S
O268 C252 1.257 . S
O268 Eu253 2.473 . S
O269 C252 1.260 . S
O269 Eu253 2.480 . S
O270 Eu253 2.430 . S
O270 C260 1.259 1_554 S
O271 Eu243 2.355 . S
O271 Eu253 2.670 1_556 S
O271 C260 1.270 . S
O272 Eu253 2.394 . S
O272 C261 1.251 . S
O273 Eu243 2.400 . S
O273 C261 1.218 1_556 S
H274 C245 0.931 . S
H275 C246 0.931 . S
H276 C248 0.931 . S
H277 C249 0.931 . S
H278 C255 0.931 . S
H279 C256 0.931 . S
H280 C258 0.931 . S
H281 C259 0.931 . S
C282 Eu283 2.835 . S
C282 C284 1.500 . S
C282 O302 1.257 . S
C282 O303 1.260 . S
Eu283 C282 2.835 . S
Eu283 O302 2.473 . S
Eu283 O303 2.480 . S
Eu283 O304 2.430 . S
Eu283 O305 2.670 . S
Eu283 O306 2.394 . S
Eu283 O311 2.355 . S
Eu283 O313 2.374 . S
C284 C282 1.500 . S
C284 C285 1.377 . S
C284 C289 1.377 . S
C285 C284 1.377 . S
C285 C286 1.395 . S
C285 H314 0.931 . S
C286 C285 1.395 . S
C286 C287 1.383 . S
C286 H315 0.931 . S
C287 C286 1.383 . S
C287 C288 1.394 . S
C288 C287 1.394 . S
C288 C289 1.378 . S
C288 H316 0.931 . S
C289 C284 1.377 . S
C289 C288 1.378 . S
C289 H317 0.931 . S
C290 O304 1.259 . S
C290 O305 1.270 . S
C291 O306 1.251 . S
C291 O307 1.251 . S
C292 Eu293 2.835 . S
C292 C294 1.500 . S
C292 O308 1.257 . S
C292 O309 1.260 . S
Eu293 C292 2.835 . S
Eu293 O305 2.355 . S
Eu293 O307 2.374 . S
Eu293 O308 2.473 . S
Eu293 O309 2.480 . S
Eu293 O310 2.430 . S
Eu293 O311 2.670 . S
Eu293 O312 2.394 . S
C294 C292 1.500 . S
C294 C295 1.377 . S
C294 C299 1.377 . S
C295 C294 1.377 . S
C295 C296 1.395 . S
C295 H318 0.931 . S
C296 C295 1.395 . S
C296 C297 1.383 . S
C296 H319 0.931 . S
C297 C296 1.383 . S
C297 C298 1.394 . S
C298 C297 1.394 . S
C298 C299 1.378 . S
C298 H320 0.931 . S
C299 C294 1.377 . S
C299 C298 1.378 . S
C299 H321 0.931 . S
C300 O310 1.259 . S
C300 O311 1.270 . S
C301 O312 1.251 . S
C301 O313 1.251 . S
O302 C282 1.257 . S
O302 Eu283 2.473 . S
O303 C282 1.260 . S
O303 Eu283 2.480 . S
O304 Eu283 2.430 . S
O304 C290 1.259 . S
O305 Eu283 2.670 . S
O305 C290 1.270 . S
O305 Eu293 2.355 . S
O306 Eu283 2.394 . S
O306 C291 1.251 . S
O307 C291 1.251 . S
O307 Eu293 2.374 . S
O308 C292 1.257 . S
O308 Eu293 2.473 . S
O309 C292 1.260 . S
O309 Eu293 2.480 . S
O310 Eu293 2.430 . S
O310 C300 1.259 . S
O311 Eu283 2.355 . S
O311 Eu293 2.670 . S
O311 C300 1.270 . S
O312 Eu293 2.394 . S
O312 C301 1.251 . S
O313 Eu283 2.374 . S
O313 C301 1.251 . S
H314 C285 0.931 . S
H315 C286 0.931 . S
H316 C288 0.931 . S
H317 C289 0.931 . S
H318 C295 0.931 . S
H319 C296 0.931 . S
H320 C298 0.931 . S
H321 C299 0.931 . S
C322 Eu323 2.835 . S
C322 C324 1.500 . S
C322 O342 1.257 . S
C322 O343 1.260 . S
Eu323 C322 2.835 . S
Eu323 O342 2.473 . S
Eu323 O343 2.480 . S
Eu323 O344 2.430 . S
Eu323 O345 2.670 . S
Eu323 O346 2.394 . S
Eu323 O351 2.355 . S
Eu323 O353 2.374 . S
C324 C322 1.500 . S
C324 C325 1.377 . S
C324 C329 1.377 . S
C325 C324 1.377 . S
C325 C326 1.395 . S
C325 H354 0.931 . S
C326 C325 1.395 . S
C326 C327 1.383 . S
C326 H355 0.931 . S
C327 C326 1.383 . S
C327 C328 1.394 . S
C328 C327 1.394 . S
C328 C329 1.378 . S
C328 H356 0.931 . S
C329 C324 1.377 . S
C329 C328 1.378 . S
C329 H357 0.931 . S
C330 O344 1.259 . S
C330 O345 1.270 . S
C331 O346 1.251 . S
C331 O347 1.251 . S
C332 Eu333 2.835 . S
C332 C334 1.500 . S
C332 O348 1.257 . S
C332 O349 1.260 . S
Eu333 C332 2.835 . S
Eu333 O345 2.355 . S
Eu333 O347 2.374 . S
Eu333 O348 2.473 . S
Eu333 O349 2.480 . S
Eu333 O350 2.430 . S
Eu333 O351 2.670 . S
Eu333 O352 2.394 . S
C334 C332 1.500 . S
C334 C335 1.377 . S
C334 C339 1.377 . S
C335 C334 1.377 . S
C335 C336 1.395 . S
C335 H358 0.931 . S
C336 C335 1.395 . S
C336 C337 1.383 . S
C336 H359 0.931 . S
C337 C336 1.383 . S
C337 C338 1.394 . S
C338 C337 1.394 . S
C338 C339 1.378 . S
C338 H360 0.931 . S
C339 C334 1.377 . S
C339 C338 1.378 . S
C339 H361 0.931 . S
C340 O350 1.259 . S
C340 O351 1.270 . S
C341 O352 1.251 . S
C341 O353 1.251 . S
O342 C322 1.257 . S
O342 Eu323 2.473 . S
O343 C322 1.260 . S
O343 Eu323 2.480 . S
O344 Eu323 2.430 . S
O344 C330 1.259 . S
O345 Eu323 2.670 . S
O345 C330 1.270 . S
O345 Eu333 2.355 . S
O346 Eu323 2.394 . S
O346 C331 1.251 . S
O347 C331 1.251 . S
O347 Eu333 2.374 . S
O348 C332 1.257 . S
O348 Eu333 2.473 . S
O349 C332 1.260 . S
O349 Eu333 2.480 . S
O350 Eu333 2.430 . S
O350 C340 1.259 . S
O351 Eu323 2.355 . S
O351 Eu333 2.670 . S
O351 C340 1.270 . S
O352 Eu333 2.394 . S
O352 C341 1.251 . S
O353 Eu323 2.374 . S
O353 C341 1.251 . S
H354 C325 0.931 . S
H355 C326 0.931 . S
H356 C328 0.931 . S
H357 C329 0.931 . S
H358 C335 0.931 . S
H359 C336 0.931 . S
H360 C338 0.931 . S
H361 C339 0.931 . S
C362 Eu363 2.835 . S
C362 C364 1.500 . S
C362 O382 1.257 . S
C362 O383 1.260 . S
Eu363 C362 2.835 . S
Eu363 O382 2.473 . S
Eu363 O383 2.480 . S
Eu363 O384 2.430 . S
Eu363 O385 2.670 . S
Eu363 O386 2.394 . S
Eu363 O391 2.355 . S
Eu363 O393 2.374 . S
C364 C362 1.500 . S
C364 C365 1.377 . S
C364 C369 1.377 . S
C365 C364 1.377 . S
C365 C366 1.395 . S
C365 H394 0.931 . S
C366 C365 1.395 . S
C366 C367 1.383 . S
C366 H395 0.931 . S
C367 C366 1.383 . S
C367 C368 1.394 . S
C368 C367 1.394 . S
C368 C369 1.378 . S
C368 H396 0.931 . S
C369 C364 1.377 . S
C369 C368 1.378 . S
C369 H397 0.931 . S
C370 O384 1.259 . S
C370 O385 1.270 . S
C371 O386 1.251 . S
C371 O387 1.251 . S
C372 Eu373 2.835 . S
C372 C374 1.500 . S
C372 O388 1.257 . S
C372 O389 1.260 . S
Eu373 C372 2.835 . S
Eu373 O385 2.355 . S
Eu373 O387 2.374 . S
Eu373 O388 2.473 . S
Eu373 O389 2.480 . S
Eu373 O390 2.430 . S
Eu373 O391 2.670 . S
Eu373 O392 2.394 . S
C374 C372 1.500 . S
C374 C375 1.377 . S
C374 C379 1.377 . S
C375 C374 1.377 . S
C375 C376 1.395 . S
C375 H398 0.931 . S
C376 C375 1.395 . S
C376 C377 1.383 . S
C376 H399 0.931 . S
C377 C376 1.383 . S
C377 C378 1.394 . S
C378 C377 1.394 . S
C378 C379 1.378 . S
C378 H400 0.931 . S
C379 C374 1.377 . S
C379 C378 1.378 . S
C379 H401 0.931 . S
C380 O390 1.259 . S
C380 O391 1.270 . S
C381 O392 1.251 . S
C381 O393 1.251 . S
O382 C362 1.257 . S
O382 Eu363 2.473 . S
O383 C362 1.260 . S
O383 Eu363 2.480 . S
O384 Eu363 2.430 . S
O384 C370 1.259 . S
O385 Eu363 2.670 . S
O385 C370 1.270 . S
O385 Eu373 2.355 . S
O386 Eu363 2.394 . S
O386 C371 1.251 . S
O387 C371 1.251 . S
O387 Eu373 2.374 . S
O388 C372 1.257 . S
O388 Eu373 2.473 . S
O389 C372 1.260 . S
O389 Eu373 2.480 . S
O390 Eu373 2.430 . S
O390 C380 1.259 . S
O391 Eu363 2.355 . S
O391 Eu373 2.670 . S
O391 C380 1.270 . S
O392 Eu373 2.394 . S
O392 C381 1.251 . S
O393 Eu363 2.374 . S
O393 C381 1.251 . S
H394 C365 0.931 . S
H395 C366 0.931 . S
H396 C368 0.931 . S
H397 C369 0.931 . S
H398 C375 0.931 . S
H399 C376 0.931 . S
H400 C378 0.931 . S
H401 C379 0.931 . S
C402 Eu403 2.835 . S
C402 C404 1.500 . S
C402 O422 1.257 . S
C402 O423 1.260 . S
Eu403 C402 2.835 . S
Eu403 O422 2.473 . S
Eu403 O423 2.480 . S
Eu403 O424 2.430 . S
Eu403 O425 2.670 . S
Eu403 O426 2.394 . S
Eu403 O431 2.355 . S
Eu403 O433 2.374 . S
C404 C402 1.500 . S
C404 C405 1.377 . S
C404 C409 1.377 . S
C405 C404 1.377 . S
C405 C406 1.395 . S
C405 H434 0.931 . S
C406 C405 1.395 . S
C406 C407 1.383 . S
C406 H435 0.931 . S
C407 C406 1.383 . S
C407 C408 1.394 . S
C408 C407 1.394 . S
C408 C409 1.378 . S
C408 H436 0.931 . S
C409 C404 1.377 . S
C409 C408 1.378 . S
C409 H437 0.931 . S
C410 O424 1.259 . S
C410 O425 1.270 . S
C411 O426 1.251 . S
C411 O427 1.251 . S
C412 Eu413 2.835 . S
C412 C414 1.500 . S
C412 O428 1.257 . S
C412 O429 1.260 . S
Eu413 C412 2.835 . S
Eu413 O425 2.355 . S
Eu413 O427 2.374 . S
Eu413 O428 2.473 . S
Eu413 O429 2.480 . S
Eu413 O430 2.430 . S
Eu413 O431 2.670 . S
Eu413 O432 2.394 . S
C414 C412 1.500 . S
C414 C415 1.377 . S
C414 C419 1.377 . S
C415 C414 1.377 . S
C415 C416 1.395 . S
C415 H438 0.931 . S
C416 C415 1.395 . S
C416 C417 1.383 . S
C416 H439 0.931 . S
C417 C416 1.383 . S
C417 C418 1.394 . S
C418 C417 1.394 . S
C418 C419 1.378 . S
C418 H440 0.931 . S
C419 C414 1.377 . S
C419 C418 1.378 . S
C419 H441 0.931 . S
C420 O430 1.259 . S
C420 O431 1.270 . S
C421 O432 1.251 . S
C421 O433 1.251 . S
O422 C402 1.257 . S
O422 Eu403 2.473 . S
O423 C402 1.260 . S
O423 Eu403 2.480 . S
O424 Eu403 2.430 . S
O424 C410 1.259 . S
O425 Eu403 2.670 . S
O425 C410 1.270 . S
O425 Eu413 2.355 . S
O426 Eu403 2.394 . S
O426 C411 1.251 . S
O427 C411 1.251 . S
O427 Eu413 2.374 . S
O428 C412 1.257 . S
O428 Eu413 2.473 . S
O429 C412 1.260 . S
O429 Eu413 2.480 . S
O430 Eu413 2.430 . S
O430 C420 1.259 . S
O431 Eu403 2.355 . S
O431 Eu413 2.670 . S
O431 C420 1.270 . S
O432 Eu413 2.394 . S
O432 C421 1.251 . S
O433 Eu403 2.374 . S
O433 C421 1.251 . S
H434 C405 0.931 . S
H435 C406 0.931 . S
H436 C408 0.931 . S
H437 C409 0.931 . S
H438 C415 0.931 . S
H439 C416 0.931 . S
H440 C418 0.931 . S
H441 C419 0.931 . S
C442 Eu443 2.835 . S
C442 C444 1.500 . S
C442 O462 1.257 . S
C442 O463 1.260 . S
Eu443 C442 2.835 . S
Eu443 O462 2.473 . S
Eu443 O463 2.480 . S
Eu443 O464 2.430 . S
Eu443 O465 2.670 . S
Eu443 O466 2.394 . S
Eu443 O471 2.355 . S
Eu443 O473 2.374 . S
C444 C442 1.500 . S
C444 C445 1.377 . S
C444 C449 1.377 . S
C445 C444 1.377 . S
C445 C446 1.395 . S
C445 H474 0.931 . S
C446 C445 1.395 . S
C446 C447 1.383 . S
C446 H475 0.931 . S
C447 C446 1.383 . S
C447 C448 1.394 . S
C448 C447 1.394 . S
C448 C449 1.378 . S
C448 H476 0.931 . S
C449 C444 1.377 . S
C449 C448 1.378 . S
C449 H477 0.931 . S
C450 O464 1.259 . S
C450 O465 1.270 . S
C451 O466 1.251 . S
C451 O467 1.251 . S
C452 Eu453 2.835 . S
C452 C454 1.500 . S
C452 O468 1.257 . S
C452 O469 1.260 . S
Eu453 C452 2.835 . S
Eu453 O465 2.355 . S
Eu453 O467 2.374 . S
Eu453 O468 2.473 . S
Eu453 O469 2.480 . S
Eu453 O470 2.430 . S
Eu453 O471 2.670 . S
Eu453 O472 2.394 . S
C454 C452 1.500 . S
C454 C455 1.377 . S
C454 C459 1.377 . S
C455 C454 1.377 . S
C455 C456 1.395 . S
C455 H478 0.931 . S
C456 C455 1.395 . S
C456 C457 1.383 . S
C456 H479 0.931 . S
C457 C456 1.383 . S
C457 C458 1.394 . S
C458 C457 1.394 . S
C458 C459 1.378 . S
C458 H480 0.931 . S
C459 C454 1.377 . S
C459 C458 1.378 . S
C459 H481 0.931 . S
C460 O470 1.259 . S
C460 O471 1.270 . S
C461 O472 1.251 . S
C461 O473 1.251 . S
O462 C442 1.257 . S
O462 Eu443 2.473 . S
O463 C442 1.260 . S
O463 Eu443 2.480 . S
O464 Eu443 2.430 . S
O464 C450 1.259 . S
O465 Eu443 2.670 . S
O465 C450 1.270 . S
O465 Eu453 2.355 . S
O466 Eu443 2.394 . S
O466 C451 1.251 . S
O467 C451 1.251 . S
O467 Eu453 2.374 . S
O468 C452 1.257 . S
O468 Eu453 2.473 . S
O469 C452 1.260 . S
O469 Eu453 2.480 . S
O470 Eu453 2.430 . S
O470 C460 1.259 . S
O471 Eu443 2.355 . S
O471 Eu453 2.670 . S
O471 C460 1.270 . S
O472 Eu453 2.394 . S
O472 C461 1.251 . S
O473 Eu443 2.374 . S
O473 C461 1.251 . S
H474 C445 0.931 . S
H475 C446 0.931 . S
H476 C448 0.931 . S
H477 C449 0.931 . S
H478 C455 0.931 . S
H479 C456 0.931 . S
H480 C458 0.931 . S
H481 C459 0.931 . S
C482 Eu483 2.835 . S
C482 C484 1.500 . S
C482 O502 1.257 . S
C482 O503 1.260 . S
Eu483 C482 2.835 . S
Eu483 O502 2.473 . S
Eu483 O503 2.480 . S
Eu483 O504 2.430 . S
Eu483 O505 2.670 . S
Eu483 O506 2.394 . S
Eu483 O511 2.355 . S
Eu483 O513 2.374 . S
C484 C482 1.500 . S
C484 C485 1.377 . S
C484 C489 1.377 . S
C485 C484 1.377 . S
C485 C486 1.395 . S
C485 H514 0.931 . S
C486 C485 1.395 . S
C486 C487 1.383 . S
C486 H515 0.931 . S
C487 C486 1.383 . S
C487 C488 1.394 . S
C488 C487 1.394 . S
C488 C489 1.378 . S
C488 H516 0.931 . S
C489 C484 1.377 . S
C489 C488 1.378 . S
C489 H517 0.931 . S
C490 O504 1.259 . S
C490 O505 1.270 . S
C491 O506 1.251 . S
C491 O507 1.251 . S
C492 Eu493 2.835 . S
C492 C494 1.500 . S
C492 O508 1.257 . S
C492 O509 1.260 . S
Eu493 C492 2.835 . S
Eu493 O505 2.355 . S
Eu493 O507 2.374 . S
Eu493 O508 2.473 . S
Eu493 O509 2.480 . S
Eu493 O510 2.430 . S
Eu493 O511 2.670 . S
Eu493 O512 2.394 . S
C494 C492 1.500 . S
C494 C495 1.377 . S
C494 C499 1.377 . S
C495 C494 1.377 . S
C495 C496 1.395 . S
C495 H518 0.931 . S
C496 C495 1.395 . S
C496 C497 1.383 . S
C496 H519 0.931 . S
C497 C496 1.383 . S
C497 C498 1.394 . S
C498 C497 1.394 . S
C498 C499 1.378 . S
C498 H520 0.931 . S
C499 C494 1.377 . S
C499 C498 1.378 . S
C499 H521 0.931 . S
C500 O510 1.259 . S
C500 O511 1.270 . S
C501 O512 1.251 . S
C501 O513 1.251 . S
O502 C482 1.257 . S
O502 Eu483 2.473 . S
O503 C482 1.260 . S
O503 Eu483 2.480 . S
O504 Eu483 2.430 . S
O504 C490 1.259 . S
O505 Eu483 2.670 . S
O505 C490 1.270 . S
O505 Eu493 2.355 . S
O506 Eu483 2.394 . S
O506 C491 1.251 . S
O507 C491 1.251 . S
O507 Eu493 2.374 . S
O508 C492 1.257 . S
O508 Eu493 2.473 . S
O509 C492 1.260 . S
O509 Eu493 2.480 . S
O510 Eu493 2.430 . S
O510 C500 1.259 . S
O511 Eu483 2.355 . S
O511 Eu493 2.670 . S
O511 C500 1.270 . S
O512 Eu493 2.394 . S
O512 C501 1.251 . S
O513 Eu483 2.374 . S
O513 C501 1.251 . S
H514 C485 0.931 . S
H515 C486 0.931 . S
H516 C488 0.931 . S
H517 C489 0.931 . S
H518 C495 0.931 . S
H519 C496 0.931 . S
H520 C498 0.931 . S
H521 C499 0.931 . S
H522 C530 0.929 . S
H523 C532 0.930 . S
H524 C534 0.930 . S
H525 C537 0.929 . S
H526 C540 0.930 . S
H527 C542 0.960 . S
H528 C542 0.960 . S
H529 C542 0.960 . S
C530 H522 0.929 . S
C530 C531 1.377 . S
C530 C532 1.384 . S
C531 C530 1.377 . S
C531 C537 1.390 . S
C532 H523 0.930 . S
C532 C530 1.384 . S
C532 C533 1.372 . S
C533 C532 1.372 . S
C533 C534 1.400 . S
C533 C538 1.490 . S
C534 H524 0.930 . S
C534 C533 1.400 . S
C534 C537 1.386 . S
H535 C551 0.930 1_556 S
H536 C552 0.931 . S
C537 H525 0.929 . S
C537 C531 1.390 . S
C537 C534 1.386 . S
C538 C533 1.490 . S
C538 C540 1.395 . S
C538 C541 1.403 . S
H539 C545 0.930 . S
C540 H526 0.930 . S
C540 C538 1.395 . S
C540 C543 1.403 . S
C541 C538 1.403 . S
C541 C542 1.524 . S
C541 C545 1.400 . S
C542 H527 0.960 . S
C542 H528 0.960 . S
C542 H529 0.960 . S
C542 C541 1.524 . S
C543 C540 1.403 . S
C543 C544 1.392 . S
C543 C547 1.495 . S
C544 C543 1.392 . S
C544 C545 1.385 . S
C544 C546 1.478 . S
C545 H539 0.930 . S
C545 C541 1.400 . S
C545 C544 1.385 . S
C546 C544 1.478 . S
C546 C548 1.381 . S
C546 C552 1.383 . S
C547 C543 1.495 . S
C547 H553 0.959 . S
C547 H554 0.961 . S
C547 H555 0.960 . S
C548 C546 1.381 . S
C548 C549 1.394 . S
C548 H556 0.930 . S
C549 C548 1.394 . S
C549 C550 1.383 . S
C549 H557 0.929 . S
C550 C549 1.383 . S
C550 C551 1.377 . S
C551 H535 0.930 1_554 S
C551 C550 1.377 . S
C551 C552 1.379 . S
C552 H536 0.931 . S
C552 C546 1.383 . S
C552 C551 1.379 . S
H553 C547 0.959 . S
H554 C547 0.961 . S
H555 C547 0.960 . S
H556 C548 0.930 . S
H557 C549 0.929 . S
H558 C566 0.929 . S
H559 C568 0.930 . S
H560 C570 0.930 . S
H561 C573 0.929 . S
H562 C576 0.930 . S
H563 C578 0.960 . S
H564 C578 0.960 . S
H565 C578 0.960 . S
C566 H558 0.929 . S
C566 C567 1.377 . S
C566 C568 1.384 . S
C567 C566 1.377 . S
C567 C573 1.390 . S
C568 H559 0.930 . S
C568 C566 1.384 . S
C568 C569 1.372 . S
C569 C568 1.372 . S
C569 C570 1.400 . S
C569 C574 1.490 . S
C570 H560 0.930 . S
C570 C569 1.400 . S
C570 C573 1.386 . S
H571 C587 0.930 . S
H572 C588 0.931 . S
C573 H561 0.929 . S
C573 C567 1.390 . S
C573 C570 1.386 . S
C574 C569 1.490 . S
C574 C576 1.395 . S
C574 C577 1.403 . S
H575 C581 0.930 . S
C576 H562 0.930 . S
C576 C574 1.395 . S
C576 C579 1.403 . S
C577 C574 1.403 . S
C577 C578 1.524 . S
C577 C581 1.400 . S
C578 H563 0.960 . S
C578 H564 0.960 . S
C578 H565 0.960 . S
C578 C577 1.524 . S
C579 C576 1.403 . S
C579 C580 1.392 . S
C579 C583 1.495 . S
C580 C579 1.392 . S
C580 C581 1.385 . S
C580 C582 1.478 . S
C581 H575 0.930 . S
C581 C577 1.400 . S
C581 C580 1.385 . S
C582 C580 1.478 . S
C582 C584 1.381 . S
C582 C588 1.383 . S
C583 C579 1.495 . S
C583 H589 0.959 . S
C583 H590 0.961 . S
C583 H591 0.960 . S
C584 C582 1.381 . S
C584 C585 1.394 . S
C584 H592 0.930 . S
C585 C584 1.394 . S
C585 C586 1.383 . S
C585 H593 0.929 . S
C586 C585 1.383 . S
C586 C587 1.377 . S
C587 H571 0.930 . S
C587 C586 1.377 . S
C587 C588 1.379 . S
C588 H572 0.931 . S
C588 C582 1.383 . S
C588 C587 1.379 . S
H589 C583 0.959 . S
H590 C583 0.961 . S
H591 C583 0.960 . S
H592 C584 0.930 . S
H593 C585 0.929 . S
H594 C602 0.929 . S
H595 C604 0.930 . S
H596 C606 0.930 . S
H597 C609 0.929 . S
H598 C612 0.930 . S
H599 C614 0.960 . S
H600 C614 0.960 . S
H601 C614 0.960 . S
C602 H594 0.929 . S
C602 C603 1.377 . S
C602 C604 1.384 . S
C603 C602 1.377 . S
C603 C609 1.390 . S
C604 H595 0.930 . S
C604 C602 1.384 . S
C604 C605 1.372 . S
C605 C604 1.372 . S
C605 C606 1.400 . S
C605 C610 1.490 . S
C606 H596 0.930 . S
C606 C605 1.400 . S
C606 C609 1.386 . S
H607 C623 0.930 . S
H608 C624 0.931 . S
C609 H597 0.929 . S
C609 C603 1.390 . S
C609 C606 1.386 . S
C610 C605 1.490 . S
C610 C612 1.395 . S
C610 C613 1.403 . S
H611 C617 0.930 . S
C612 H598 0.930 . S
C612 C610 1.395 . S
C612 C615 1.403 . S
C613 C610 1.403 . S
C613 C614 1.524 . S
C613 C617 1.400 . S
C614 H599 0.960 . S
C614 H600 0.960 . S
C614 H601 0.960 . S
C614 C613 1.524 . S
C615 C612 1.403 . S
C615 C616 1.392 . S
C615 C619 1.495 . S
C616 C615 1.392 . S
C616 C617 1.385 . S
C616 C618 1.478 . S
C617 H611 0.930 . S
C617 C613 1.400 . S
C617 C616 1.385 . S
C618 C616 1.478 . S
C618 C620 1.381 . S
C618 C624 1.383 . S
C619 C615 1.495 . S
C619 H625 0.959 . S
C619 H626 0.961 . S
C619 H627 0.960 . S
C620 C618 1.381 . S
C620 C621 1.394 . S
C620 H628 0.930 1_554 S
C621 C620 1.394 . S
C621 C622 1.383 . S
C621 H629 0.929 1_554 S
C622 C621 1.383 . S
C622 C623 1.377 . S
C623 H607 0.930 . S
C623 C622 1.377 . S
C623 C624 1.379 . S
C624 H608 0.931 . S
C624 C618 1.383 . S
C624 C623 1.379 . S
H625 C619 0.959 . S
H626 C619 0.961 . S
H627 C619 0.960 . S
H628 C620 0.930 1_556 S
H629 C621 0.929 1_556 S
H630 C638 0.929 . S
H631 C640 0.930 . S
H632 C642 0.930 . S
H633 C645 0.929 . S
H634 C648 0.930 . S
H635 C650 0.960 . S
H636 C650 0.960 . S
H637 C650 0.960 . S
C638 H630 0.929 . S
C638 C639 1.377 . S
C638 C640 1.384 . S
C639 C638 1.377 . S
C639 C645 1.390 . S
C640 H631 0.930 . S
C640 C638 1.384 . S
C640 C641 1.372 . S
C641 C640 1.372 . S
C641 C642 1.400 . S
C641 C646 1.490 . S
C642 H632 0.930 . S
C642 C641 1.400 . S
C642 C645 1.386 . S
H643 C659 0.930 . S
H644 C660 0.931 . S
C645 H633 0.929 . S
C645 C639 1.390 . S
C645 C642 1.386 . S
C646 C641 1.490 . S
C646 C648 1.395 . S
C646 C649 1.403 . S
H647 C653 0.930 . S
C648 H634 0.930 . S
C648 C646 1.395 . S
C648 C651 1.403 . S
C649 C646 1.403 . S
C649 C650 1.524 . S
C649 C653 1.400 . S
C650 H635 0.960 . S
C650 H636 0.960 . S
C650 H637 0.960 . S
C650 C649 1.524 . S
C651 C648 1.403 . S
C651 C652 1.392 . S
C651 C655 1.495 . S
C652 C651 1.392 . S
C652 C653 1.385 . S
C652 C654 1.478 . S
C653 H647 0.930 . S
C653 C649 1.400 . S
C653 C652 1.385 . S
C654 C652 1.478 . S
C654 C656 1.381 . S
C654 C660 1.383 . S
C655 C651 1.495 . S
C655 H661 0.959 . S
C655 H662 0.961 . S
C655 H663 0.960 . S
C656 C654 1.381 . S
C656 C657 1.394 . S
C656 H664 0.930 . S
C657 C656 1.394 . S
C657 C658 1.383 . S
C657 H665 0.929 1_556 S
C658 C657 1.383 . S
C658 C659 1.377 . S
C659 H643 0.930 . S
C659 C658 1.377 . S
C659 C660 1.379 . S
C660 H644 0.931 . S
C660 C654 1.383 . S
C660 C659 1.379 . S
H661 C655 0.959 . S
H662 C655 0.961 . S
H663 C655 0.960 . S
H664 C656 0.930 . S
H665 C657 0.929 1_554 S
H666 C674 0.929 . S
H667 C676 0.930 . S
H668 C678 0.930 . S
H669 C681 0.929 . S
H670 C684 0.930 . S
H671 C686 0.960 . S
H672 C686 0.960 . S
H673 C686 0.960 . S
C674 H666 0.929 . S
C674 C675 1.377 . S
C674 C676 1.384 . S
C675 C674 1.377 . S
C675 C681 1.390 . S
C676 H667 0.930 . S
C676 C674 1.384 . S
C676 C677 1.372 . S
C677 C676 1.372 . S
C677 C678 1.400 . S
C677 C682 1.490 . S
C678 H668 0.930 . S
C678 C677 1.400 . S
C678 C681 1.386 . S
H679 C695 0.930 . S
H680 C696 0.931 . S
C681 H669 0.929 . S
C681 C675 1.390 . S
C681 C678 1.386 . S
C682 C677 1.490 . S
C682 C684 1.395 . S
C682 C685 1.403 . S
H683 C689 0.930 . S
C684 H670 0.930 . S
C684 C682 1.395 . S
C684 C687 1.403 . S
C685 C682 1.403 . S
C685 C686 1.524 . S
C685 C689 1.400 . S
C686 H671 0.960 . S
C686 H672 0.960 . S
C686 H673 0.960 . S
C686 C685 1.524 . S
C687 C684 1.403 . S
C687 C688 1.392 . S
C687 C691 1.495 . S
C688 C687 1.392 . S
C688 C689 1.385 . S
C688 C690 1.478 . S
C689 H683 0.930 . S
C689 C685 1.400 . S
C689 C688 1.385 . S
C690 C688 1.478 . S
C690 C692 1.381 . S
C690 C696 1.383 . S
C691 C687 1.495 . S
C691 H697 0.959 . S
C691 H698 0.961 . S
C691 H699 0.960 . S
C692 C690 1.381 . S
C692 C693 1.394 . S
C692 H700 0.930 . S
C693 C692 1.394 . S
C693 C694 1.383 . S
C693 H701 0.929 . S
C694 C693 1.383 . S
C694 C695 1.377 . S
C695 H679 0.930 . S
C695 C694 1.377 . S
C695 C696 1.379 . S
C696 H680 0.931 . S
C696 C690 1.383 . S
C696 C695 1.379 . S
H697 C691 0.959 . S
H698 C691 0.961 . S
H699 C691 0.960 . S
H700 C692 0.930 . S
H701 C693 0.929 . S
H702 C710 0.929 . S
H703 C712 0.930 . S
H704 C714 0.930 . S
H705 C717 0.929 . S
H706 C720 0.930 . S
H707 C722 0.960 . S
H708 C722 0.960 . S
H709 C722 0.960 . S
C710 H702 0.929 . S
C710 C711 1.377 . S
C710 C712 1.384 . S
C711 C710 1.377 . S
C711 C717 1.390 . S
C712 H703 0.930 . S
C712 C710 1.384 . S
C712 C713 1.372 . S
C713 C712 1.372 . S
C713 C714 1.400 . S
C713 C718 1.490 . S
C714 H704 0.930 . S
C714 C713 1.400 . S
C714 C717 1.386 . S
H715 C731 0.930 1_554 S
H716 C732 0.931 . S
C717 H705 0.929 . S
C717 C711 1.390 . S
C717 C714 1.386 . S
C718 C713 1.490 . S
C718 C720 1.395 . S
C718 C721 1.403 . S
H719 C725 0.930 . S
C720 H706 0.930 . S
C720 C718 1.395 . S
C720 C723 1.403 . S
C721 C718 1.403 . S
C721 C722 1.524 . S
C721 C725 1.400 . S
C722 H707 0.960 . S
C722 H708 0.960 . S
C722 H709 0.960 . S
C722 C721 1.524 . S
C723 C720 1.403 . S
C723 C724 1.392 . S
C723 C727 1.495 . S
C724 C723 1.392 . S
C724 C725 1.385 . S
C724 C726 1.478 . S
C725 H719 0.930 . S
C725 C721 1.400 . S
C725 C724 1.385 . S
C726 C724 1.478 . S
C726 C728 1.381 . S
C726 C732 1.383 . S
C727 C723 1.495 . S
C727 H733 0.959 . S
C727 H734 0.925 1_556 S
C727 H735 0.960 . S
C728 C726 1.381 . S
C728 C729 1.394 . S
C728 H736 0.930 . S
C729 C728 1.394 . S
C729 C730 1.383 . S
C729 H737 0.929 . S
C730 C729 1.383 . S
C730 C731 1.377 . S
C731 H715 0.930 1_556 S
C731 C730 1.377 . S
C731 C732 1.379 . S
C732 H716 0.931 . S
C732 C726 1.383 . S
C732 C731 1.379 . S
H733 C727 0.959 . S
H734 C727 0.925 1_554 S
H735 C727 0.960 . S
H736 C728 0.930 . S
H737 C729 0.929 . S
H738 C746 0.929 . S
H739 C748 0.930 . S
H740 C750 0.930 . S
H741 C753 0.929 . S
H742 C756 0.930 . S
H743 C758 0.960 . S
H744 C758 0.960 . S
H745 C758 0.960 . S
C746 H738 0.929 . S
C746 C747 1.377 . S
C746 C748 1.384 . S
C747 C746 1.377 . S
C747 C753 1.390 . S
C748 H739 0.930 . S
C748 C746 1.384 . S
C748 C749 1.372 . S
C749 C748 1.372 . S
C749 C750 1.400 . S
C749 C754 1.490 . S
C750 H740 0.930 . S
C750 C749 1.400 . S
C750 C753 1.386 . S
H751 C767 0.930 . S
H752 C768 0.931 . S
C753 H741 0.929 . S
C753 C747 1.390 . S
C753 C750 1.386 . S
C754 C749 1.490 . S
C754 C756 1.395 . S
C754 C757 1.403 . S
H755 C761 0.930 . S
C756 H742 0.930 . S
C756 C754 1.395 . S
C756 C759 1.403 . S
C757 C754 1.403 . S
C757 C758 1.524 . S
C757 C761 1.400 . S
C758 H743 0.960 . S
C758 H744 0.960 . S
C758 H745 0.960 . S
C758 C757 1.524 . S
C759 C756 1.403 . S
C759 C760 1.392 . S
C759 C763 1.495 . S
C760 C759 1.392 . S
C760 C761 1.385 . S
C760 C762 1.478 . S
C761 H755 0.930 . S
C761 C757 1.400 . S
C761 C760 1.385 . S
C762 C760 1.478 . S
C762 C764 1.381 . S
C762 C768 1.383 . S
C763 C759 1.495 . S
C763 H769 0.959 . S
C763 H770 0.961 . S
C763 H771 0.960 . S
C764 C762 1.381 . S
C764 C765 1.394 . S
C764 H772 0.930 . S
C765 C764 1.394 . S
C765 C766 1.383 . S
C765 H773 0.929 . S
C766 C765 1.383 . S
C766 C767 1.377 . S
C767 H751 0.930 . S
C767 C766 1.377 . S
C767 C768 1.379 . S
C768 H752 0.931 . S
C768 C762 1.383 . S
C768 C767 1.379 . S
H769 C763 0.959 . S
H770 C763 0.961 . S
H771 C763 0.960 . S
H772 C764 0.930 . S
H773 C765 0.929 . S
H774 C782 0.929 . S
H775 C784 0.930 . S
H776 C786 0.930 . S
H777 C789 0.929 . S
H778 C792 0.930 . S
H779 C794 0.960 . S
H780 C794 0.960 . S
H781 C794 0.960 . S
C782 H774 0.929 . S
C782 C783 1.377 . S
C782 C784 1.384 . S
C783 C782 1.377 . S
C783 C789 1.390 . S
C784 H775 0.930 . S
C784 C782 1.384 . S
C784 C785 1.372 . S
C785 C784 1.372 . S
C785 C786 1.400 . S
C785 C790 1.490 . S
C786 H776 0.930 . S
C786 C785 1.400 . S
C786 C789 1.386 . S
H787 C803 0.971 . S
H788 C804 0.931 . S
C789 H777 0.929 . S
C789 C783 1.390 . S
C789 C786 1.386 . S
C790 C785 1.490 . S
C790 C792 1.395 . S
C790 C793 1.403 . S
H791 C797 0.930 . S
C792 H778 0.930 . S
C792 C790 1.395 . S
C792 C795 1.403 . S
C793 C790 1.403 . S
C793 C794 1.524 . S
C793 C797 1.400 . S
C794 H779 0.960 . S
C794 H780 0.960 . S
C794 H781 0.960 . S
C794 C793 1.524 . S
C795 C792 1.403 . S
C795 C796 1.392 . S
C795 C799 1.495 . S
C796 C795 1.392 . S
C796 C797 1.385 . S
C796 C798 1.478 . S
C797 H791 0.930 . S
C797 C793 1.400 . S
C797 C796 1.385 . S
C798 C796 1.478 . S
C798 C800 1.381 . S
C798 C804 1.383 . S
C799 C795 1.495 . S
C799 H805 0.959 . S
C799 H806 0.961 . S
C799 H807 0.960 . S
C800 C798 1.381 . S
C800 C801 1.394 . S
C800 H808 0.930 . S
C801 C800 1.394 . S
C801 C802 1.383 . S
C801 H809 0.929 . S
C802 C801 1.383 . S
C802 C803 1.377 . S
C803 H787 0.971 . S
C803 C802 1.377 . S
C803 C804 1.379 . S
C804 H788 0.931 . S
C804 C798 1.383 . S
C804 C803 1.379 . S
H805 C799 0.959 . S
H806 C799 0.961 . S
H807 C799 0.960 . S
H808 C800 0.930 . S
H809 C801 0.929 . S
H810 C818 0.929 . S
H811 C820 0.930 . S
H812 C822 0.930 . S
H813 C825 0.929 . S
H814 C828 0.930 . S
H815 C830 0.960 . S
H816 C830 0.960 . S
H817 C830 0.960 . S
C818 H810 0.929 . S
C818 C819 1.377 . S
C818 C820 1.384 . S
C819 C818 1.377 . S
C819 C825 1.390 . S
C820 H811 0.930 . S
C820 C818 1.384 . S
C820 C821 1.372 . S
C821 C820 1.372 . S
C821 C822 1.400 . S
C821 C826 1.490 . S
C822 H812 0.930 . S
C822 C821 1.400 . S
C822 C825 1.386 . S
H823 C839 0.930 . S
H824 C840 0.931 . S
C825 H813 0.929 . S
C825 C819 1.390 . S
C825 C822 1.386 . S
C826 C821 1.490 . S
C826 C828 1.395 . S
C826 C829 1.403 . S
H827 C833 0.930 . S
C828 H814 0.930 . S
C828 C826 1.395 . S
C828 C831 1.403 . S
C829 C826 1.403 . S
C829 C830 1.524 . S
C829 C833 1.400 . S
C830 H815 0.960 . S
C830 H816 0.960 . S
C830 H817 0.960 . S
C830 C829 1.524 . S
C831 C828 1.403 . S
C831 C832 1.392 . S
C831 C835 1.495 . S
C832 C831 1.392 . S
C832 C833 1.385 . S
C832 C834 1.478 . S
C833 H827 0.930 . S
C833 C829 1.400 . S
C833 C832 1.385 . S
C834 C832 1.478 . S
C834 C836 1.381 . S
C834 C840 1.383 . S
C835 C831 1.495 . S
C835 H841 0.959 1_556 S
C835 H842 0.961 1_556 S
C835 H843 0.960 . S
C836 C834 1.381 . S
C836 C837 1.394 . S
C836 H844 0.930 . S
C837 C836 1.394 . S
C837 C838 1.383 . S
C837 H845 0.929 . S
C838 C837 1.383 . S
C838 C839 1.377 . S
C839 H823 0.930 . S
C839 C838 1.377 . S
C839 C840 1.379 . S
C840 H824 0.931 . S
C840 C834 1.383 . S
C840 C839 1.379 . S
H841 C835 0.959 1_554 S
H842 C835 0.961 1_554 S
H843 C835 0.960 . S
H844 C836 0.930 . S
H845 C837 0.929 . S
H846 C854 0.929 . S
H847 C856 0.930 . S
H848 C858 0.930 . S
H849 C861 0.929 . S
H850 C864 0.930 . S
H851 C866 0.960 . S
H852 C866 0.960 . S
H853 C866 0.960 . S
C854 H846 0.929 . S
C854 C855 1.377 . S
C854 C856 1.384 . S
C855 C854 1.377 . S
C855 C861 1.390 . S
C856 H847 0.930 . S
C856 C854 1.384 . S
C856 C857 1.372 . S
C857 C856 1.372 . S
C857 C858 1.400 . S
C857 C862 1.490 . S
C858 H848 0.930 . S
C858 C857 1.400 . S
C858 C861 1.386 . S
H859 C875 0.930 1_556 S
H860 C876 0.931 . S
C861 H849 0.929 . S
C861 C855 1.390 . S
C861 C858 1.386 . S
C862 C857 1.490 . S
C862 C864 1.395 . S
C862 C865 1.403 . S
H863 C869 0.930 . S
C864 H850 0.930 . S
C864 C862 1.395 . S
C864 C867 1.403 . S
C865 C862 1.403 . S
C865 C866 1.524 . S
C865 C869 1.400 . S
C866 H851 0.960 . S
C866 H852 0.960 . S
C866 H853 0.960 . S
C866 C865 1.524 . S
C867 C864 1.403 . S
C867 C868 1.392 . S
C867 C871 1.495 . S
C868 C867 1.392 . S
C868 C869 1.385 . S
C868 C870 1.478 . S
C869 H863 0.930 . S
C869 C865 1.400 . S
C869 C868 1.385 . S
C870 C868 1.478 . S
C870 C872 1.381 . S
C870 C876 1.383 . S
C871 C867 1.495 . S
C871 H877 0.959 . S
C871 H878 0.961 . S
C871 H879 0.960 . S
C872 C870 1.381 . S
C872 C873 1.394 . S
C872 H880 0.930 . S
C873 C872 1.394 . S
C873 C874 1.383 . S
C873 H881 0.929 . S
C874 C873 1.383 . S
C874 C875 1.377 . S
C875 H859 0.930 1_554 S
C875 C874 1.377 . S
C875 C876 1.379 . S
C876 H860 0.931 . S
C876 C870 1.383 . S
C876 C875 1.379 . S
H877 C871 0.959 . S
H878 C871 0.961 . S
H879 C871 0.960 . S
H880 C872 0.930 . S
H881 C873 0.929 . S
H882 C890 0.929 . S
H883 C892 0.930 . S
H884 C894 0.930 . S
H885 C897 0.929 . S
H886 C900 0.930 . S
H887 C902 0.960 . S
H888 C902 0.960 . S
H889 C902 0.960 . S
C890 H882 0.929 . S
C890 C891 1.377 . S
C890 C892 1.384 . S
C891 C890 1.377 . S
C891 C897 1.390 . S
C892 H883 0.930 . S
C892 C890 1.384 . S
C892 C893 1.372 . S
C893 C892 1.372 . S
C893 C894 1.400 . S
C893 C898 1.490 . S
C894 H884 0.930 . S
C894 C893 1.400 . S
C894 C897 1.386 . S
H895 C911 0.930 . S
H896 C912 0.931 . S
C897 H885 0.929 . S
C897 C891 1.390 . S
C897 C894 1.386 . S
C898 C893 1.490 . S
C898 C900 1.395 . S
C898 C901 1.403 . S
H899 C905 0.930 . S
C900 H886 0.930 . S
C900 C898 1.395 . S
C900 C903 1.403 . S
C901 C898 1.403 . S
C901 C902 1.524 . S
C901 C905 1.400 . S
C902 H887 0.960 . S
C902 H888 0.960 . S
C902 H889 0.960 . S
C902 C901 1.524 . S
C903 C900 1.403 . S
C903 C904 1.392 . S
C903 C907 1.495 . S
C904 C903 1.392 . S
C904 C905 1.385 . S
C904 C906 1.478 . S
C905 H899 0.930 . S
C905 C901 1.400 . S
C905 C904 1.385 . S
C906 C904 1.478 . S
C906 C908 1.381 . S
C906 C912 1.383 . S
C907 C903 1.495 . S
C907 H913 0.959 . S
C907 H914 0.961 . S
C907 H915 0.960 . S
C908 C906 1.381 . S
C908 C909 1.394 . S
C908 H916 0.930 . S
C909 C908 1.394 . S
C909 C910 1.383 . S
C909 H917 0.929 . S
C910 C909 1.383 . S
C910 C911 1.377 . S
C911 H895 0.930 . S
C911 C910 1.377 . S
C911 C912 1.379 . S
C912 H896 0.931 . S
C912 C906 1.383 . S
C912 C911 1.379 . S
H913 C907 0.959 . S
H914 C907 0.961 . S
H915 C907 0.960 . S
H916 C908 0.930 . S
H917 C909 0.929 . S
H918 C926 0.929 . S
H919 C928 0.930 . S
H920 C930 0.930 . S
H921 C933 0.929 . S
H922 C936 0.930 . S
H923 C938 0.960 . S
H924 C938 0.960 . S
H925 C938 0.960 . S
C926 H918 0.929 . S
C926 C927 1.377 . S
C926 C928 1.384 . S
C927 C926 1.377 . S
C927 C933 1.390 . S
C928 H919 0.930 . S
C928 C926 1.384 . S
C928 C929 1.372 . S
C929 C928 1.372 . S
C929 C930 1.400 . S
C929 C934 1.490 . S
C930 H920 0.930 . S
C930 C929 1.400 . S
C930 C933 1.386 . S
H931 C947 0.930 . S
H932 C948 0.931 . S
C933 H921 0.929 . S
C933 C927 1.390 . S
C933 C930 1.386 . S
C934 C929 1.490 . S
C934 C936 1.395 . S
C934 C937 1.403 . S
H935 C941 0.930 . S
C936 H922 0.930 . S
C936 C934 1.395 . S
C936 C939 1.403 . S
C937 C934 1.403 . S
C937 C938 1.524 . S
C937 C941 1.400 . S
C938 H923 0.960 . S
C938 H924 0.960 . S
C938 H925 0.960 . S
C938 C937 1.524 . S
C939 C936 1.403 . S
C939 C940 1.392 . S
C939 C943 1.495 . S
C940 C939 1.392 . S
C940 C941 1.385 . S
C940 C942 1.478 . S
C941 H935 0.930 . S
C941 C937 1.400 . S
C941 C940 1.385 . S
C942 C940 1.478 . S
C942 C944 1.381 . S
C942 C948 1.383 . S
C943 C939 1.495 . S
C943 H949 0.959 . S
C943 H950 0.961 . S
C943 H951 0.960 . S
C944 C942 1.381 . S
C944 C945 1.394 . S
C944 H952 0.930 . S
C945 C944 1.394 . S
C945 C946 1.383 . S
C945 H953 0.929 1_554 S
C946 C945 1.383 . S
C946 C947 1.377 . S
C947 H931 0.930 . S
C947 C946 1.377 . S
C947 C948 1.379 . S
C948 H932 0.931 . S
C948 C942 1.383 . S
C948 C947 1.379 . S
H949 C943 0.959 . S
H950 C943 0.961 . S
H951 C943 0.960 . S
H952 C944 0.930 . S
H953 C945 0.929 1_556 S
H954 C962 0.929 . S
H955 C964 0.930 . S
H956 C966 0.930 . S
H957 C969 0.929 . S
H958 C972 0.930 . S
H959 C974 0.960 . S
H960 C974 0.960 . S
H961 C974 0.960 . S
C962 H954 0.929 . S
C962 C963 1.377 . S
C962 C964 1.384 . S
C963 C962 1.377 . S
C963 C969 1.390 . S
C964 H955 0.930 . S
C964 C962 1.384 . S
C964 C965 1.372 . S
C965 C964 1.372 . S
C965 C966 1.400 . S
C965 C970 1.490 . S
C966 H956 0.930 . S
C966 C965 1.400 . S
C966 C969 1.386 . S
H967 C983 0.930 . S
H968 C984 0.931 . S
C969 H957 0.929 . S
C969 C963 1.390 . S
C969 C966 1.386 . S
C970 C965 1.490 . S
C970 C972 1.395 1_655 S
C970 C973 1.403 . S
H971 C977 0.930 . S
C972 H958 0.930 . S
C972 C970 1.395 1_455 S
C972 C975 1.403 . S
C973 C970 1.403 . S
C973 C974 1.524 . S
C973 C977 1.400 1_655 S
C974 H959 0.960 . S
C974 H960 0.960 . S
C974 H961 0.960 . S
C974 C973 1.524 . S
C975 C972 1.403 . S
C975 C976 1.392 . S
C975 C979 1.495 . S
C976 C975 1.392 . S
C976 C977 1.385 . S
C976 C978 1.478 . S
C977 H971 0.930 . S
C977 C973 1.400 1_455 S
C977 C976 1.385 . S
C978 C976 1.478 . S
C978 C980 1.381 . S
C978 C984 1.383 . S
C979 C975 1.495 . S
C979 H985 0.959 . S
C979 H986 0.961 . S
C979 H987 0.960 . S
C980 C978 1.381 . S
C980 C981 1.394 . S
C980 H988 0.930 . S
C981 C980 1.394 . S
C981 C982 1.383 . S
C981 H989 0.929 . S
C982 C981 1.383 . S
C982 C983 1.377 . S
C983 H967 0.930 . S
C983 C982 1.377 . S
C983 C984 1.379 . S
C984 H968 0.931 . S
C984 C978 1.383 . S
C984 C983 1.379 . S
H985 C979 0.959 . S
H986 C979 0.961 . S
H987 C979 0.960 . S
H988 C980 0.930 . S
H989 C981 0.929 . S
H990 C998 0.929 . S
H991 C1000 0.930 . S
H992 C1002 0.930 . S
H993 C1005 0.929 . S
H994 C1008 0.930 . S
H995 C1010 0.960 . S
H996 C1010 0.960 . S
H997 C1010 0.960 . S
C998 H990 0.929 . S
C998 C999 1.377 . S
C998 C1000 1.384 . S
C999 C998 1.377 . S
C999 C1005 1.390 . S
C1000 H991 0.930 . S
C1000 C998 1.384 . S
C1000 C1001 1.372 . S
C1001 C1000 1.372 . S
C1001 C1002 1.400 . S
C1001 C1006 1.490 . S
C1002 H992 0.930 . S
C1002 C1001 1.400 . S
C1002 C1005 1.386 . S
H1003 C1019 0.930 . S
H1004 C1020 0.931 . S
C1005 H993 0.929 . S
C1005 C999 1.390 . S
C1005 C1002 1.386 . S
C1006 C1001 1.490 . S
C1006 C1008 1.395 . S
C1006 C1009 1.403 . S
H1007 C1013 0.930 . S
C1008 H994 0.930 . S
C1008 C1006 1.395 . S
C1008 C1011 1.403 . S
C1009 C1006 1.403 . S
C1009 C1010 1.524 . S
C1009 C1013 1.400 . S
C1010 H995 0.960 . S
C1010 H996 0.960 . S
C1010 H997 0.960 . S
C1010 C1009 1.524 . S
C1011 C1008 1.403 . S
C1011 C1012 1.392 . S
C1011 C1015 1.495 . S
C1012 C1011 1.392 . S
C1012 C1013 1.385 . S
C1012 C1014 1.478 . S
C1013 H1007 0.930 . S
C1013 C1009 1.400 . S
C1013 C1012 1.385 . S
C1014 C1012 1.478 . S
C1014 C1016 1.381 . S
C1014 C1020 1.383 . S
C1015 C1011 1.495 . S
C1015 H1021 0.959 . S
C1015 H1022 0.961 . S
C1015 H1023 0.960 . S
C1016 C1014 1.381 . S
C1016 C1017 1.394 . S
C1016 H1024 0.930 . S
C1017 C1016 1.394 . S
C1017 C1018 1.383 . S
C1017 H1025 0.929 . S
C1018 C1017 1.383 . S
C1018 C1019 1.377 . S
C1019 H1003 0.930 . S
C1019 C1018 1.377 . S
C1019 C1020 1.379 . S
C1020 H1004 0.931 . S
C1020 C1014 1.383 . S
C1020 C1019 1.379 . S
H1021 C1015 0.959 . S
H1022 C1015 0.961 . S
H1023 C1015 0.960 . S
H1024 C1016 0.930 . S
H1025 C1017 0.929 . S
H1026 C1034 0.929 . S
H1027 C1036 0.930 . S
H1028 C1038 0.930 . S
H1029 C1041 0.929 . S
H1030 C1044 0.930 . S
H1031 C1046 0.960 . S
H1032 C1046 0.960 . S
H1033 C1046 0.960 . S
C1034 H1026 0.929 . S
C1034 C1035 1.377 . S
C1034 C1036 1.384 . S
C1035 C1034 1.377 . S
C1035 C1041 1.390 . S
C1036 H1027 0.930 . S
C1036 C1034 1.384 . S
C1036 C1037 1.372 . S
C1037 C1036 1.372 . S
C1037 C1038 1.400 . S
C1037 C1042 1.490 . S
C1038 H1028 0.930 . S
C1038 C1037 1.400 . S
C1038 C1041 1.386 . S
H1039 C1055 0.930 . S
H1040 C1056 0.931 . S
C1041 H1029 0.929 . S
C1041 C1035 1.390 . S
C1041 C1038 1.386 . S
C1042 C1037 1.490 . S
C1042 C1044 1.395 . S
C1042 C1045 1.403 . S
H1043 C1049 0.930 . S
C1044 H1030 0.930 . S
C1044 C1042 1.395 . S
C1044 C1047 1.403 1_545 S
C1045 C1042 1.403 . S
C1045 C1046 1.524 . S
C1045 C1049 1.400 1_545 S
C1046 H1031 0.960 . S
C1046 H1032 0.960 . S
C1046 H1033 0.960 . S
C1046 C1045 1.524 . S
C1047 C1044 1.403 1_565 S
C1047 C1048 1.392 . S
C1047 C1051 1.495 . S
C1048 C1047 1.392 . S
C1048 C1049 1.385 . S
C1048 C1050 1.478 . S
C1049 H1043 0.930 . S
C1049 C1045 1.400 1_565 S
C1049 C1048 1.385 . S
C1050 C1048 1.478 . S
C1050 C1052 1.381 . S
C1050 C1056 1.383 . S
C1051 C1047 1.495 . S
C1051 H1057 1.009 . S
C1051 H1058 0.961 . S
C1051 H1059 0.960 . S
C1052 C1050 1.381 . S
C1052 C1053 1.394 . S
C1052 H1060 0.930 . S
C1053 C1052 1.394 . S
C1053 C1054 1.383 . S
C1053 H1061 0.929 . S
C1054 C1053 1.383 . S
C1054 C1055 1.377 . S
C1055 H1039 0.930 . S
C1055 C1054 1.377 . S
C1055 C1056 1.379 . S
C1056 H1040 0.931 . S
C1056 C1050 1.383 . S
C1056 C1055 1.379 . S
H1057 C1051 1.009 . S
H1058 C1051 0.961 . S
H1059 C1051 0.960 . S
H1060 C1052 0.930 . S
H1061 C1053 0.929 . S
H1062 C1070 0.929 . S
H1063 C1072 0.930 . S
H1064 C1074 0.930 . S
H1065 C1077 0.929 . S
H1066 C1080 0.930 . S
H1067 C1082 0.960 . S
H1068 C1082 0.960 . S
H1069 C1082 0.960 . S
C1070 H1062 0.929 . S
C1070 C1071 1.377 . S
C1070 C1072 1.384 . S
C1071 C1070 1.377 . S
C1071 C1077 1.390 . S
C1072 H1063 0.930 . S
C1072 C1070 1.384 . S
C1072 C1073 1.372 . S
C1073 C1072 1.372 . S
C1073 C1074 1.400 . S
C1073 C1078 1.490 . S
C1074 H1064 0.930 . S
C1074 C1073 1.400 . S
C1074 C1077 1.386 . S
H1075 C1091 0.930 . S
H1076 C1092 0.931 . S
C1077 H1065 0.929 . S
C1077 C1071 1.390 . S
C1077 C1074 1.386 . S
C1078 C1073 1.490 . S
C1078 C1080 1.395 . S
C1078 C1081 1.403 . S
H1079 C1085 0.930 . S
C1080 H1066 0.930 . S
C1080 C1078 1.395 . S
C1080 C1083 1.403 . S
C1081 C1078 1.403 . S
C1081 C1082 1.524 . S
C1081 C1085 1.400 . S
C1082 H1067 0.960 . S
C1082 H1068 0.960 . S
C1082 H1069 0.960 . S
C1082 C1081 1.524 . S
C1083 C1080 1.403 . S
C1083 C1084 1.392 . S
C1083 C1087 1.495 . S
C1084 C1083 1.392 . S
C1084 C1085 1.385 . S
C1084 C1086 1.478 . S
C1085 H1079 0.930 . S
C1085 C1081 1.400 . S
C1085 C1084 1.385 . S
C1086 C1084 1.478 . S
C1086 C1088 1.381 . S
C1086 C1092 1.383 . S
C1087 C1083 1.495 . S
C1087 H1093 0.959 . S
C1087 H1094 0.961 . S
C1087 H1095 0.960 . S
C1088 C1086 1.381 . S
C1088 C1089 1.394 . S
C1088 H1096 0.930 . S
C1089 C1088 1.394 . S
C1089 C1090 1.383 . S
C1089 H1097 0.929 . S
C1090 C1089 1.383 . S
C1090 C1091 1.377 . S
C1091 H1075 0.930 . S
C1091 C1090 1.377 . S
C1091 C1092 1.379 . S
C1092 H1076 0.931 . S
C1092 C1086 1.383 . S
C1092 C1091 1.379 . S
H1093 C1087 0.959 . S
H1094 C1087 0.961 . S
H1095 C1087 0.960 . S
H1096 C1088 0.930 . S
H1097 C1089 0.929 . S
H1098 C1106 0.929 . S
H1099 C1108 0.930 . S
H1100 C1110 0.930 . S
H1101 C1113 0.929 . S
H1102 C1116 0.930 . S
H1103 C1118 0.960 . S
H1104 C1118 0.960 . S
H1105 C1118 0.960 . S
C1106 H1098 0.929 . S
C1106 C1107 1.377 . S
C1106 C1108 1.384 . S
C1107 C1106 1.377 . S
C1107 C1113 1.390 . S
C1108 H1099 0.930 . S
C1108 C1106 1.384 . S
C1108 C1109 1.372 . S
C1109 C1108 1.372 . S
C1109 C1110 1.400 . S
C1109 C1114 1.490 . S
C1110 H1100 0.930 . S
C1110 C1109 1.400 . S
C1110 C1113 1.386 . S
H1111 C1127 0.930 . S
H1112 C1128 0.931 . S
C1113 H1101 0.929 . S
C1113 C1107 1.390 . S
C1113 C1110 1.386 . S
C1114 C1109 1.490 . S
C1114 C1116 1.395 . S
C1114 C1117 1.403 . S
H1115 C1121 0.930 . S
C1116 H1102 0.930 . S
C1116 C1114 1.395 . S
C1116 C1119 1.403 . S
C1117 C1114 1.403 . S
C1117 C1118 1.524 . S
C1117 C1121 1.400 . S
C1118 H1103 0.960 . S
C1118 H1104 0.960 . S
C1118 H1105 0.960 . S
C1118 C1117 1.524 . S
C1119 C1116 1.403 . S
C1119 C1120 1.392 . S
C1119 C1123 1.495 . S
C1120 C1119 1.392 . S
C1120 C1121 1.385 . S
C1120 C1122 1.478 . S
C1121 H1115 0.930 . S
C1121 C1117 1.400 . S
C1121 C1120 1.385 . S
C1122 C1120 1.478 . S
C1122 C1124 1.381 . S
C1122 C1128 1.383 . S
C1123 C1119 1.495 . S
C1123 H1129 0.959 . S
C1123 H1130 0.961 . S
C1123 H1131 0.960 . S
C1124 C1122 1.381 . S
C1124 C1125 1.394 . S
C1124 H1132 0.930 . S
C1125 C1124 1.394 . S
C1125 C1126 1.383 . S
C1125 H1133 0.929 . S
C1126 C1125 1.383 . S
C1126 C1127 1.377 . S
C1127 H1111 0.930 . S
C1127 C1126 1.377 . S
C1127 C1128 1.379 . S
C1128 H1112 0.931 . S
C1128 C1122 1.383 . S
C1128 C1127 1.379 . S
H1129 C1123 0.959 . S
H1130 C1123 0.961 . S
H1131 C1123 0.960 . S
H1132 C1124 0.930 . S
H1133 C1125 0.929 . S
H1134 C1142 0.929 . S
H1135 C1144 0.930 . S
H1136 C1146 0.930 . S
H1137 C1149 0.929 . S
H1138 C1152 0.930 . S
H1139 C1154 0.960 . S
H1140 C1154 0.960 . S
H1141 C1154 0.960 . S
C1142 H1134 0.929 . S
C1142 C1143 1.377 . S
C1142 C1144 1.384 . S
C1143 C1142 1.377 . S
C1143 C1149 1.390 . S
C1144 H1135 0.930 . S
C1144 C1142 1.384 . S
C1144 C1145 1.372 . S
C1145 C1144 1.372 . S
C1145 C1146 1.400 . S
C1145 C1150 1.490 . S
C1146 H1136 0.930 . S
C1146 C1145 1.400 . S
C1146 C1149 1.386 . S
H1147 C1163 0.930 . S
H1148 C1164 0.931 . S
C1149 H1137 0.929 . S
C1149 C1143 1.390 . S
C1149 C1146 1.386 . S
C1150 C1145 1.490 . S
C1150 C1152 1.395 . S
C1150 C1153 1.403 . S
H1151 C1157 0.930 . S
C1152 H1138 0.930 . S
C1152 C1150 1.395 . S
C1152 C1155 1.403 . S
C1153 C1150 1.403 . S
C1153 C1154 1.524 . S
C1153 C1157 1.400 . S
C1154 H1139 0.960 . S
C1154 H1140 0.960 . S
C1154 H1141 0.960 . S
C1154 C1153 1.524 . S
C1155 C1152 1.403 . S
C1155 C1156 1.392 . S
C1155 C1159 1.495 . S
C1156 C1155 1.392 . S
C1156 C1157 1.385 . S
C1156 C1158 1.478 . S
C1157 H1151 0.930 . S
C1157 C1153 1.400 . S
C1157 C1156 1.385 . S
C1158 C1156 1.478 . S
C1158 C1160 1.381 . S
C1158 C1164 1.383 . S
C1159 C1155 1.495 . S
C1159 H1165 0.959 . S
C1159 H1166 0.961 . S
C1159 H1167 0.960 . S
C1160 C1158 1.381 . S
C1160 C1161 1.394 . S
C1160 H1168 0.930 . S
C1161 C1160 1.394 . S
C1161 C1162 1.383 . S
C1161 H1169 0.929 . S
C1162 C1161 1.383 . S
C1162 C1163 1.377 . S
C1163 H1147 0.930 . S
C1163 C1162 1.377 . S
C1163 C1164 1.379 . S
C1164 H1148 0.931 . S
C1164 C1158 1.383 . S
C1164 C1163 1.379 . S
H1165 C1159 0.959 . S
H1166 C1159 0.961 . S
H1167 C1159 0.960 . S
H1168 C1160 0.930 . S
H1169 C1161 0.929 . S
H1170 C1178 0.929 . S
H1171 C1180 0.930 . S
H1172 C1182 0.930 . S
H1173 C1185 0.929 . S
H1174 C1188 0.930 . S
H1175 C1190 0.960 . S
H1176 C1190 0.960 . S
H1177 C1190 0.960 . S
C1178 H1170 0.929 . S
C1178 C1179 1.377 . S
C1178 C1180 1.384 . S
C1179 C1178 1.377 . S
C1179 C1185 1.390 . S
C1180 H1171 0.930 . S
C1180 C1178 1.384 . S
C1180 C1181 1.372 . S
C1181 C1180 1.372 . S
C1181 C1182 1.400 . S
C1181 C1186 1.490 . S
C1182 H1172 0.930 . S
C1182 C1181 1.400 . S
C1182 C1185 1.386 . S
H1183 C1199 0.930 . S
H1184 C1200 0.931 . S
C1185 H1173 0.929 . S
C1185 C1179 1.390 . S
C1185 C1182 1.386 . S
C1186 C1181 1.490 . S
C1186 C1188 1.395 . S
C1186 C1189 1.403 . S
H1187 C1193 0.930 . S
C1188 H1174 0.930 . S
C1188 C1186 1.395 . S
C1188 C1191 1.403 . S
C1189 C1186 1.403 . S
C1189 C1190 1.524 . S
C1189 C1193 1.400 . S
C1190 H1175 0.960 . S
C1190 H1176 0.960 . S
C1190 H1177 0.960 . S
C1190 C1189 1.524 . S
C1191 C1188 1.403 . S
C1191 C1192 1.392 . S
C1191 C1195 1.495 . S
C1192 C1191 1.392 . S
C1192 C1193 1.385 . S
C1192 C1194 1.478 . S
C1193 H1187 0.930 . S
C1193 C1189 1.400 . S
C1193 C1192 1.385 . S
C1194 C1192 1.478 . S
C1194 C1196 1.381 . S
C1194 C1200 1.383 . S
C1195 C1191 1.495 . S
C1195 H1201 0.959 . S
C1195 H1202 0.961 . S
C1195 H1203 0.960 . S
C1196 C1194 1.381 . S
C1196 C1197 1.394 . S
C1196 H1204 0.930 . S
C1197 C1196 1.394 . S
C1197 C1198 1.383 . S
C1197 H1205 0.929 . S
C1198 C1197 1.383 . S
C1198 C1199 1.377 . S
C1199 H1183 0.930 . S
C1199 C1198 1.377 . S
C1199 C1200 1.379 . S
C1200 H1184 0.931 . S
C1200 C1194 1.383 . S
C1200 C1199 1.379 . S
H1201 C1195 0.959 . S
H1202 C1195 0.961 . S
H1203 C1195 0.960 . S
H1204 C1196 0.930 . S
H1205 C1197 0.929 . S
H1206 C1214 0.929 . S
H1207 C1216 0.930 . S
H1208 C1218 0.930 . S
H1209 C1221 0.929 . S
H1210 C1224 0.930 . S
H1211 C1226 0.960 . S
H1212 C1226 0.960 . S
H1213 C1226 0.960 . S
C1214 H1206 0.929 . S
C1214 C1215 1.377 . S
C1214 C1216 1.384 . S
C1215 C1214 1.377 . S
C1215 C1221 1.390 . S
C1216 H1207 0.930 . S
C1216 C1214 1.384 . S
C1216 C1217 1.372 . S
C1217 C1216 1.372 . S
C1217 C1218 1.400 . S
C1217 C1222 1.490 . S
C1218 H1208 0.930 . S
C1218 C1217 1.400 . S
C1218 C1221 1.386 . S
H1219 C1235 0.930 . S
H1220 C1236 0.931 . S
C1221 H1209 0.929 . S
C1221 C1215 1.390 . S
C1221 C1218 1.386 . S
C1222 C1217 1.490 . S
C1222 C1224 1.395 . S
C1222 C1225 1.403 . S
H1223 C1229 0.930 . S
C1224 H1210 0.930 . S
C1224 C1222 1.395 . S
C1224 C1227 1.403 . S
C1225 C1222 1.403 . S
C1225 C1226 1.524 . S
C1225 C1229 1.400 . S
C1226 H1211 0.960 . S
C1226 H1212 0.960 . S
C1226 H1213 0.960 . S
C1226 C1225 1.524 . S
C1227 C1224 1.403 . S
C1227 C1228 1.392 . S
C1227 C1231 1.495 . S
C1228 C1227 1.392 . S
C1228 C1229 1.385 . S
C1228 C1230 1.478 . S
C1229 H1223 0.930 . S
C1229 C1225 1.400 . S
C1229 C1228 1.385 . S
C1230 C1228 1.478 . S
C1230 C1232 1.381 . S
C1230 C1236 1.383 . S
C1231 C1227 1.495 . S
C1231 H1237 0.959 . S
C1231 H1238 0.961 . S
C1231 H1239 0.960 . S
C1232 C1230 1.381 . S
C1232 C1233 1.394 . S
C1232 H1240 0.930 . S
C1233 C1232 1.394 . S
C1233 C1234 1.383 . S
C1233 H1241 0.929 . S
C1234 C1233 1.383 . S
C1234 C1235 1.377 . S
C1235 H1219 0.930 . S
C1235 C1234 1.377 . S
C1235 C1236 1.379 . S
C1236 H1220 0.931 . S
C1236 C1230 1.383 . S
C1236 C1235 1.379 . S
H1237 C1231 0.959 . S
H1238 C1231 0.961 . S
H1239 C1231 0.960 . S
H1240 C1232 0.930 . S
H1241 C1233 0.929 . S
H1242 C1250 0.929 . S
H1243 C1252 0.930 . S
H1244 C1254 0.930 . S
H1245 C1257 0.929 . S
H1246 C1260 0.930 . S
H1247 C1262 0.960 . S
H1248 C1262 0.960 . S
H1249 C1262 0.960 . S
C1250 H1242 0.929 . S
C1250 C1251 1.377 . S
C1250 C1252 1.384 . S
C1251 C1250 1.377 . S
C1251 C1257 1.390 . S
C1252 H1243 0.930 . S
C1252 C1250 1.384 . S
C1252 C1253 1.372 . S
C1253 C1252 1.372 . S
C1253 C1254 1.400 . S
C1253 C1258 1.490 . S
C1254 H1244 0.930 . S
C1254 C1253 1.400 . S
C1254 C1257 1.386 . S
H1255 C1271 0.930 . S
H1256 C1272 0.931 . S
C1257 H1245 0.929 . S
C1257 C1251 1.390 . S
C1257 C1254 1.386 . S
C1258 C1253 1.490 . S
C1258 C1260 1.395 . S
C1258 C1261 1.403 . S
H1259 C1265 0.930 . S
C1260 H1246 0.930 . S
C1260 C1258 1.395 . S
C1260 C1263 1.403 . S
C1261 C1258 1.403 . S
C1261 C1262 1.524 . S
C1261 C1265 1.400 . S
C1262 H1247 0.960 . S
C1262 H1248 0.960 . S
C1262 H1249 0.960 . S
C1262 C1261 1.524 . S
C1263 C1260 1.403 . S
C1263 C1264 1.392 . S
C1263 C1267 1.495 . S
C1264 C1263 1.392 . S
C1264 C1265 1.385 . S
C1264 C1266 1.478 . S
C1265 H1259 0.930 . S
C1265 C1261 1.400 . S
C1265 C1264 1.385 . S
C1266 C1264 1.478 . S
C1266 C1268 1.381 . S
C1266 C1272 1.383 . S
C1267 C1263 1.495 . S
C1267 H1273 0.959 . S
C1267 H1274 0.961 . S
C1267 H1275 0.960 . S
C1268 C1266 1.381 . S
C1268 C1269 1.394 . S
C1268 H1276 0.930 . S
C1269 C1268 1.394 . S
C1269 C1270 1.383 . S
C1269 H1277 0.929 . S
C1270 C1269 1.383 . S
C1270 C1271 1.377 . S
C1271 H1255 0.930 . S
C1271 C1270 1.377 . S
C1271 C1272 1.379 . S
C1272 H1256 0.931 . S
C1272 C1266 1.383 . S
C1272 C1271 1.379 . S
H1273 C1267 0.959 . S
H1274 C1267 0.961 . S
H1275 C1267 0.960 . S
H1276 C1268 0.930 . S
H1277 C1269 0.929 . S
H1278 C1286 0.929 . S
H1279 C1288 0.930 . S
H1280 C1290 0.930 . S
H1281 C1293 0.929 . S
H1282 C1296 0.930 . S
H1283 C1298 0.967 . S
H1284 C1298 0.960 . S
H1285 C1298 0.960 . S
C1286 H1278 0.929 . S
C1286 C1287 1.377 . S
C1286 C1288 1.384 . S
C1287 C1286 1.377 . S
C1287 C1293 1.390 . S
C1288 H1279 0.930 . S
C1288 C1286 1.384 . S
C1288 C1289 1.372 . S
C1289 C1288 1.372 . S
C1289 C1290 1.400 . S
C1289 C1294 1.490 . S
C1290 H1280 0.930 . S
C1290 C1289 1.400 . S
C1290 C1293 1.386 . S
H1291 C1307 0.930 . S
H1292 C1308 0.931 . S
C1293 H1281 0.929 . S
C1293 C1287 1.390 . S
C1293 C1290 1.386 . S
C1294 C1289 1.490 . S
C1294 C1296 1.395 . S
C1294 C1297 1.403 . S
H1295 C1301 0.930 . S
C1296 H1282 0.930 . S
C1296 C1294 1.395 . S
C1296 C1299 1.381 1_545 S
C1297 C1294 1.403 . S
C1297 C1298 1.524 . S
C1297 C1301 1.400 1_545 S
C1298 H1283 0.967 . S
C1298 H1284 0.960 . S
C1298 H1285 0.960 . S
C1298 C1297 1.524 . S
C1299 C1296 1.381 1_565 S
C1299 C1300 1.423 . S
C1299 C1303 1.488 . S
C1300 C1299 1.423 . S
C1300 C1301 1.385 . S
C1300 C1302 1.478 . S
C1301 H1295 0.930 . S
C1301 C1297 1.400 1_565 S
C1301 C1300 1.385 . S
C1302 C1300 1.478 . S
C1302 C1304 1.381 . S
C1302 C1308 1.383 . S
C1303 C1299 1.488 . S
C1303 H1309 0.959 1_565 S
C1303 H1310 0.961 . S
C1303 H1311 0.960 . S
C1304 C1302 1.381 . S
C1304 C1305 1.394 . S
C1304 H1312 0.930 . S
C1305 C1304 1.394 . S
C1305 C1306 1.383 . S
C1305 H1313 0.929 . S
C1306 C1305 1.383 . S
C1306 C1307 1.377 . S
C1307 H1291 0.930 . S
C1307 C1306 1.377 . S
C1307 C1308 1.379 . S
C1308 H1292 0.931 . S
C1308 C1302 1.383 . S
C1308 C1307 1.379 . S
H1309 C1303 0.959 1_545 S
H1310 C1303 0.961 . S
H1311 C1303 0.960 . S
H1312 C1304 0.930 . S
H1313 C1305 0.929 . S
H1314 C1322 0.929 . S
H1315 C1324 0.930 . S
H1316 C1326 0.930 . S
H1317 C1329 0.929 . S
H1318 C1332 0.930 . S
H1319 C1334 0.960 . S
H1320 C1334 0.960 . S
H1321 C1334 0.960 . S
C1322 H1314 0.929 . S
C1322 C1323 1.377 . S
C1322 C1324 1.384 . S
C1323 C1322 1.377 . S
C1323 C1329 1.390 . S
C1324 H1315 0.930 . S
C1324 C1322 1.384 . S
C1324 C1325 1.372 . S
C1325 C1324 1.372 . S
C1325 C1326 1.400 . S
C1325 C1330 1.490 . S
C1326 H1316 0.930 . S
C1326 C1325 1.400 . S
C1326 C1329 1.386 . S
H1327 C1343 0.930 . S
H1328 C1344 0.931 . S
C1329 H1317 0.929 . S
C1329 C1323 1.390 . S
C1329 C1326 1.386 . S
C1330 C1325 1.490 . S
C1330 C1332 1.395 1_655 S
C1330 C1333 1.404 1_655 S
H1331 C1337 0.930 . S
C1332 H1318 0.930 . S
C1332 C1330 1.395 1_455 S
C1332 C1335 1.403 . S
C1333 C1330 1.404 1_455 S
C1333 C1334 1.481 1_455 S
C1333 C1337 1.446 . S
C1334 H1319 0.960 . S
C1334 H1320 0.960 . S
C1334 H1321 0.960 . S
C1334 C1333 1.481 1_655 S
C1335 C1332 1.403 . S
C1335 C1336 1.392 . S
C1335 C1339 1.495 . S
C1336 C1335 1.392 . S
C1336 C1337 1.385 . S
C1336 C1338 1.478 . S
C1337 H1331 0.930 . S
C1337 C1333 1.446 . S
C1337 C1336 1.385 . S
C1338 C1336 1.478 . S
C1338 C1340 1.381 . S
C1338 C1344 1.383 . S
C1339 C1335 1.495 . S
C1339 H1345 0.959 . S
C1339 H1346 0.961 . S
C1339 H1347 0.960 . S
C1340 C1338 1.381 . S
C1340 C1341 1.394 . S
C1340 H1348 0.930 . S
C1341 C1340 1.394 . S
C1341 C1342 1.383 . S
C1341 H1349 0.929 . S
C1342 C1341 1.383 . S
C1342 C1343 1.377 . S
C1343 H1327 0.930 . S
C1343 C1342 1.377 . S
C1343 C1344 1.379 . S
C1344 H1328 0.931 . S
C1344 C1338 1.383 . S
C1344 C1343 1.379 . S
H1345 C1339 0.959 . S
H1346 C1339 0.961 . S
H1347 C1339 0.960 . S
H1348 C1340 0.930 . S
H1349 C1341 0.929 . S
H1350 C1358 0.929 . S
H1351 C1360 0.930 . S
H1352 C1362 0.930 . S
H1353 C1365 0.929 . S
H1354 C1368 0.930 . S
H1355 C1370 0.960 . S
H1356 C1370 0.960 . S
H1357 C1370 0.960 . S
C1358 H1350 0.929 . S
C1358 C1359 1.377 . S
C1358 C1360 1.384 . S
C1359 C1358 1.377 . S
C1359 C1365 1.390 . S
C1360 H1351 0.930 . S
C1360 C1358 1.384 . S
C1360 C1361 1.372 . S
C1361 C1360 1.372 . S
C1361 C1362 1.400 . S
C1361 C1366 1.490 . S
C1362 H1352 0.930 . S
C1362 C1361 1.400 . S
C1362 C1365 1.386 . S
H1363 C1379 0.930 . S
H1364 C1380 0.931 . S
C1365 H1353 0.929 . S
C1365 C1359 1.390 . S
C1365 C1362 1.386 . S
C1366 C1361 1.490 . S
C1366 C1368 1.395 . S
C1366 C1369 1.403 . S
H1367 C1373 0.930 . S
C1368 H1354 0.930 . S
C1368 C1366 1.395 . S
C1368 C1371 1.403 . S
C1369 C1366 1.403 . S
C1369 C1370 1.524 . S
C1369 C1373 1.400 . S
C1370 H1355 0.960 . S
C1370 H1356 0.960 . S
C1370 H1357 0.960 . S
C1370 C1369 1.524 . S
C1371 C1368 1.403 . S
C1371 C1372 1.392 . S
C1371 C1375 1.495 . S
C1372 C1371 1.392 . S
C1372 C1373 1.385 . S
C1372 C1374 1.478 . S
C1373 H1367 0.930 . S
C1373 C1369 1.400 . S
C1373 C1372 1.385 . S
C1374 C1372 1.478 . S
C1374 C1376 1.381 . S
C1374 C1380 1.383 . S
C1375 C1371 1.495 . S
C1375 H1381 0.959 . S
C1375 H1382 0.961 . S
C1375 H1383 0.960 . S
C1376 C1374 1.381 . S
C1376 C1377 1.394 . S
C1376 H1384 0.930 . S
C1377 C1376 1.394 . S
C1377 C1378 1.383 . S
C1377 H1385 0.929 . S
C1378 C1377 1.383 . S
C1378 C1379 1.377 . S
C1379 H1363 0.930 . S
C1379 C1378 1.377 . S
C1379 C1380 1.379 . S
C1380 H1364 0.931 . S
C1380 C1374 1.383 . S
C1380 C1379 1.379 . S
H1381 C1375 0.959 . S
H1382 C1375 0.961 . S
H1383 C1375 0.960 . S
H1384 C1376 0.930 . S
H1385 C1377 0.929 . S
H1386 C1394 0.929 . S
H1387 C1396 0.930 . S
H1388 C1398 0.930 . S
H1389 C1401 0.929 . S
H1390 C1404 0.930 . S
H1391 C1406 0.960 . S
H1392 C1406 0.960 . S
H1393 C1406 0.960 . S
C1394 H1386 0.929 . S
C1394 C1395 1.377 . S
C1394 C1396 1.384 . S
C1395 C1394 1.377 . S
C1395 C1401 1.390 . S
C1396 H1387 0.930 . S
C1396 C1394 1.384 . S
C1396 C1397 1.372 . S
C1397 C1396 1.372 . S
C1397 C1398 1.400 . S
C1397 C1402 1.490 . S
C1398 H1388 0.930 . S
C1398 C1397 1.400 . S
C1398 C1401 1.386 . S
H1399 C1415 0.930 . S
H1400 C1416 0.931 . S
C1401 H1389 0.929 . S
C1401 C1395 1.390 . S
C1401 C1398 1.386 . S
C1402 C1397 1.490 . S
C1402 C1404 1.395 . S
C1402 C1405 1.403 . S
H1403 C1409 0.930 . S
C1404 H1390 0.930 . S
C1404 C1402 1.395 . S
C1404 C1407 1.403 . S
C1405 C1402 1.403 . S
C1405 C1406 1.524 . S
C1405 C1409 1.400 . S
C1406 H1391 0.960 . S
C1406 H1392 0.960 . S
C1406 H1393 0.960 . S
C1406 C1405 1.524 . S
C1407 C1404 1.403 . S
C1407 C1408 1.392 . S
C1407 C1411 1.495 . S
C1408 C1407 1.392 . S
C1408 C1409 1.385 . S
C1408 C1410 1.478 . S
C1409 H1403 0.930 . S
C1409 C1405 1.400 . S
C1409 C1408 1.385 . S
C1410 C1408 1.478 . S
C1410 C1412 1.381 . S
C1410 C1416 1.383 . S
C1411 C1407 1.495 . S
C1411 H1417 0.959 . S
C1411 H1418 0.961 . S
C1411 H1419 0.960 . S
C1412 C1410 1.381 . S
C1412 C1413 1.394 . S
C1412 H1420 0.930 . S
C1413 C1412 1.394 . S
C1413 C1414 1.383 . S
C1413 H1421 0.929 . S
C1414 C1413 1.383 . S
C1414 C1415 1.377 . S
C1415 H1399 0.930 . S
C1415 C1414 1.377 . S
C1415 C1416 1.379 . S
C1416 H1400 0.931 . S
C1416 C1410 1.383 . S
C1416 C1415 1.379 . S
H1417 C1411 0.959 . S
H1418 C1411 0.961 . S
H1419 C1411 0.960 . S
H1420 C1412 0.930 . S
H1421 C1413 0.929 . S
H1422 C1430 0.929 . S
H1423 C1432 0.930 . S
H1424 C1434 0.930 . S
H1425 C1437 0.929 . S
H1426 C1440 0.930 . S
H1427 C1442 0.960 . S
H1428 C1442 0.960 . S
H1429 C1442 0.960 . S
C1430 H1422 0.929 . S
C1430 C1431 1.377 . S
C1430 C1432 1.384 . S
C1431 C1430 1.377 . S
C1431 C1437 1.390 . S
C1432 H1423 0.930 . S
C1432 C1430 1.384 . S
C1432 C1433 1.372 . S
C1433 C1432 1.372 . S
C1433 C1434 1.400 . S
C1433 C1438 1.490 . S
C1434 H1424 0.930 . S
C1434 C1433 1.400 . S
C1434 C1437 1.386 . S
H1435 C1451 0.930 . S
H1436 C1452 0.931 . S
C1437 H1425 0.929 . S
C1437 C1431 1.390 . S
C1437 C1434 1.386 . S
C1438 C1433 1.490 . S
C1438 C1440 1.395 . S
C1438 C1441 1.403 . S
H1439 C1445 0.930 . S
C1440 H1426 0.930 . S
C1440 C1438 1.395 . S
C1440 C1443 1.403 . S
C1441 C1438 1.403 . S
C1441 C1442 1.524 . S
C1441 C1445 1.400 . S
C1442 H1427 0.960 . S
C1442 H1428 0.960 . S
C1442 H1429 0.960 . S
C1442 C1441 1.524 . S
C1443 C1440 1.403 . S
C1443 C1444 1.392 . S
C1443 C1447 1.495 . S
C1444 C1443 1.392 . S
C1444 C1445 1.385 . S
C1444 C1446 1.478 . S
C1445 H1439 0.930 . S
C1445 C1441 1.400 . S
C1445 C1444 1.385 . S
C1446 C1444 1.478 . S
C1446 C1448 1.381 . S
C1446 C1452 1.383 . S
C1447 C1443 1.495 . S
C1447 H1453 0.959 . S
C1447 H1454 0.961 . S
C1447 H1455 0.960 . S
C1448 C1446 1.381 . S
C1448 C1449 1.394 . S
C1448 H1456 0.930 . S
C1449 C1448 1.394 . S
C1449 C1450 1.383 . S
C1449 H1457 0.929 . S
C1450 C1449 1.383 . S
C1450 C1451 1.377 . S
C1451 H1435 0.930 . S
C1451 C1450 1.377 . S
C1451 C1452 1.379 . S
C1452 H1436 0.931 . S
C1452 C1446 1.383 . S
C1452 C1451 1.379 . S
H1453 C1447 0.959 . S
H1454 C1447 0.961 . S
H1455 C1447 0.960 . S
H1456 C1448 0.930 . S
H1457 C1449 0.929 . S
H1458 C1466 0.929 . S
H1459 C1468 0.930 . S
H1460 C1470 0.930 . S
H1461 C1473 0.929 . S
H1462 C1476 0.930 . S
H1463 C1478 0.960 . S
H1464 C1478 0.960 . S
H1465 C1478 0.960 . S
C1466 H1458 0.929 . S
C1466 C1467 1.377 . S
C1466 C1468 1.384 . S
C1467 C1466 1.377 . S
C1467 C1473 1.390 . S
C1468 H1459 0.930 . S
C1468 C1466 1.384 . S
C1468 C1469 1.372 . S
C1469 C1468 1.372 . S
C1469 C1470 1.400 . S
C1469 C1474 1.490 . S
C1470 H1460 0.930 . S
C1470 C1469 1.400 . S
C1470 C1473 1.386 . S
H1471 C1487 0.930 . S
H1472 C1488 0.931 . S
C1473 H1461 0.929 . S
C1473 C1467 1.390 . S
C1473 C1470 1.386 . S
C1474 C1469 1.490 . S
C1474 C1476 1.395 . S
C1474 C1477 1.403 . S
H1475 C1481 0.930 . S
C1476 H1462 0.930 . S
C1476 C1474 1.395 . S
C1476 C1479 1.403 . S
C1477 C1474 1.403 . S
C1477 C1478 1.524 . S
C1477 C1481 1.400 . S
C1478 H1463 0.960 . S
C1478 H1464 0.960 . S
C1478 H1465 0.960 . S
C1478 C1477 1.524 . S
C1479 C1476 1.403 . S
C1479 C1480 1.392 . S
C1479 C1483 1.495 . S
C1480 C1479 1.392 . S
C1480 C1481 1.385 . S
C1480 C1482 1.478 . S
C1481 H1475 0.930 . S
C1481 C1477 1.400 . S
C1481 C1480 1.385 . S
C1482 C1480 1.478 . S
C1482 C1484 1.381 . S
C1482 C1488 1.383 . S
C1483 C1479 1.495 . S
C1483 H1489 0.959 . S
C1483 H1490 0.961 . S
C1483 H1491 0.960 . S
C1484 C1482 1.381 . S
C1484 C1485 1.394 . S
C1484 H1492 0.930 . S
C1485 C1484 1.394 . S
C1485 C1486 1.383 . S
C1485 H1493 0.929 . S
C1486 C1485 1.383 . S
C1486 C1487 1.377 . S
C1487 H1471 0.930 . S
C1487 C1486 1.377 . S
C1487 C1488 1.379 . S
C1488 H1472 0.931 . S
C1488 C1482 1.383 . S
C1488 C1487 1.379 . S
H1489 C1483 0.959 . S
H1490 C1483 0.961 . S
H1491 C1483 0.960 . S
H1492 C1484 0.930 . S
H1493 C1485 0.929 . S
H1494 C1502 0.929 . S
H1495 C1504 0.930 . S
H1496 C1506 0.930 . S
H1497 C1509 0.929 . S
H1498 C1512 0.930 . S
H1499 C1514 0.960 . S
H1500 C1514 0.960 . S
H1501 C1514 0.960 . S
C1502 H1494 0.929 . S
C1502 C1503 1.377 . S
C1502 C1504 1.384 . S
C1503 C1502 1.377 . S
C1503 C1509 1.390 . S
C1504 H1495 0.930 . S
C1504 C1502 1.384 . S
C1504 C1505 1.372 . S
C1505 C1504 1.372 . S
C1505 C1506 1.400 . S
C1505 C1510 1.490 . S
C1506 H1496 0.930 . S
C1506 C1505 1.400 . S
C1506 C1509 1.386 . S
H1507 C1523 0.930 . S
H1508 C1524 0.931 . S
C1509 H1497 0.929 . S
C1509 C1503 1.390 . S
C1509 C1506 1.386 . S
C1510 C1505 1.490 . S
C1510 C1512 1.395 . S
C1510 C1513 1.403 . S
H1511 C1517 0.930 . S
C1512 H1498 0.930 . S
C1512 C1510 1.395 . S
C1512 C1515 1.403 1_565 S
C1513 C1510 1.403 . S
C1513 C1514 1.524 . S
C1513 C1517 1.400 1_565 S
C1514 H1499 0.960 . S
C1514 H1500 0.960 . S
C1514 H1501 0.960 . S
C1514 C1513 1.524 . S
C1515 C1512 1.403 1_545 S
C1515 C1516 1.392 . S
C1515 C1519 1.495 . S
C1516 C1515 1.392 . S
C1516 C1517 1.385 . S
C1516 C1518 1.478 . S
C1517 H1511 0.930 . S
C1517 C1513 1.400 1_545 S
C1517 C1516 1.385 . S
C1518 C1516 1.478 . S
C1518 C1520 1.381 . S
C1518 C1524 1.383 . S
C1519 C1515 1.495 . S
C1519 H1525 0.959 1_545 S
C1519 H1526 0.961 . S
C1519 H1527 0.960 . S
C1520 C1518 1.381 . S
C1520 C1521 1.394 . S
C1520 H1528 0.930 . S
C1521 C1520 1.394 . S
C1521 C1522 1.383 . S
C1521 H1529 0.929 . S
C1522 C1521 1.383 . S
C1522 C1523 1.377 . S
C1523 H1507 0.930 . S
C1523 C1522 1.377 . S
C1523 C1524 1.379 . S
C1524 H1508 0.931 . S
C1524 C1518 1.383 . S
C1524 C1523 1.379 . S
H1525 C1519 0.959 1_565 S
H1526 C1519 0.961 . S
H1527 C1519 0.960 . S
H1528 C1520 0.930 . S
H1529 C1521 0.929 . S
H1530 C1538 0.929 . S
H1531 C1540 0.930 . S
H1532 C1542 0.930 . S
H1533 C1545 0.929 . S
H1534 C1548 0.930 . S
H1535 C1550 0.960 . S
H1536 C1550 0.960 . S
H1537 C1550 0.960 1_455 S
C1538 H1530 0.929 . S
C1538 C1539 1.377 . S
C1538 C1540 1.384 . S
C1539 C1538 1.377 . S
C1539 C1545 1.390 . S
C1540 H1531 0.930 . S
C1540 C1538 1.384 . S
C1540 C1541 1.372 . S
C1541 C1540 1.372 . S
C1541 C1542 1.400 . S
C1541 C1546 1.490 . S
C1542 H1532 0.930 . S
C1542 C1541 1.400 . S
C1542 C1545 1.386 . S
H1543 C1559 0.930 . S
H1544 C1560 0.931 . S
C1545 H1533 0.929 . S
C1545 C1539 1.390 . S
C1545 C1542 1.386 . S
C1546 C1541 1.490 . S
C1546 C1548 1.395 . S
C1546 C1549 1.403 1_455 S
H1547 C1553 0.930 . S
C1548 H1534 0.930 . S
C1548 C1546 1.395 . S
C1548 C1551 1.403 1_455 S
C1549 C1546 1.403 1_655 S
C1549 C1550 1.524 . S
C1549 C1553 1.400 . S
C1550 H1535 0.960 . S
C1550 H1536 0.960 . S
C1550 H1537 0.960 1_655 S
C1550 C1549 1.524 . S
C1551 C1548 1.403 1_655 S
C1551 C1552 1.392 . S
C1551 C1555 1.495 . S
C1552 C1551 1.392 . S
C1552 C1553 1.385 . S
C1552 C1554 1.478 . S
C1553 H1547 0.930 . S
C1553 C1549 1.400 . S
C1553 C1552 1.385 . S
C1554 C1552 1.478 . S
C1554 C1556 1.381 . S
C1554 C1560 1.383 . S
C1555 C1551 1.495 . S
C1555 H1561 0.959 . S
C1555 H1562 0.961 . S
C1555 H1563 0.960 . S
C1556 C1554 1.381 . S
C1556 C1557 1.394 . S
C1556 H1564 0.930 . S
C1557 C1556 1.394 . S
C1557 C1558 1.383 . S
C1557 H1565 0.929 . S
C1558 C1557 1.383 . S
C1558 C1559 1.377 . S
C1559 H1543 0.930 . S
C1559 C1558 1.377 . S
C1559 C1560 1.379 . S
C1560 H1544 0.931 . S
C1560 C1554 1.383 . S
C1560 C1559 1.379 . S
H1561 C1555 0.959 . S
H1562 C1555 0.961 . S
H1563 C1555 0.960 . S
H1564 C1556 0.930 . S
H1565 C1557 0.929 . S
H1566 C1574 0.929 . S
H1567 C1576 0.930 . S
H1568 C1578 0.930 . S
H1569 C1581 0.929 . S
H1570 C1584 0.930 . S
H1571 C1586 0.960 . S
H1572 C1586 0.960 . S
H1573 C1586 0.960 . S
C1574 H1566 0.929 . S
C1574 C1575 1.377 . S
C1574 C1576 1.384 . S
C1575 C1574 1.377 . S
C1575 C1581 1.390 . S
C1576 H1567 0.930 . S
C1576 C1574 1.384 . S
C1576 C1577 1.372 . S
C1577 C1576 1.372 . S
C1577 C1578 1.400 . S
C1577 C1582 1.490 . S
C1578 H1568 0.930 . S
C1578 C1577 1.400 . S
C1578 C1581 1.386 . S
H1579 C1595 0.930 . S
H1580 C1596 0.931 . S
C1581 H1569 0.929 . S
C1581 C1575 1.390 . S
C1581 C1578 1.386 . S
C1582 C1577 1.490 . S
C1582 C1584 1.395 . S
C1582 C1585 1.403 . S
H1583 C1589 0.930 . S
C1584 H1570 0.930 . S
C1584 C1582 1.395 . S
C1584 C1587 1.403 . S
C1585 C1582 1.403 . S
C1585 C1586 1.524 . S
C1585 C1589 1.400 . S
C1586 H1571 0.960 . S
C1586 H1572 0.960 . S
C1586 H1573 0.960 . S
C1586 C1585 1.524 . S
C1587 C1584 1.403 . S
C1587 C1588 1.392 . S
C1587 C1591 1.495 . S
C1588 C1587 1.392 . S
C1588 C1589 1.385 . S
C1588 C1590 1.478 . S
C1589 H1583 0.930 . S
C1589 C1585 1.400 . S
C1589 C1588 1.385 . S
C1590 C1588 1.478 . S
C1590 C1592 1.381 . S
C1590 C1596 1.383 . S
C1591 C1587 1.495 . S
C1591 H1597 0.959 . S
C1591 H1598 0.961 . S
C1591 H1599 0.960 . S
C1592 C1590 1.381 . S
C1592 C1593 1.394 . S
C1592 H1600 0.930 . S
C1593 C1592 1.394 . S
C1593 C1594 1.383 . S
C1593 H1601 0.929 . S
C1594 C1593 1.383 . S
C1594 C1595 1.377 . S
C1595 H1579 0.930 . S
C1595 C1594 1.377 . S
C1595 C1596 1.379 . S
C1596 H1580 0.931 . S
C1596 C1590 1.383 . S
C1596 C1595 1.379 . S
H1597 C1591 0.959 . S
H1598 C1591 0.961 . S
H1599 C1591 0.960 . S
H1600 C1592 0.930 . S
H1601 C1593 0.929 . S
H1602 C1610 0.929 . S
H1603 C1612 0.930 . S
H1604 C1614 0.930 . S
H1605 C1617 0.929 . S
H1606 C1620 0.928 . S
H1607 C1622 0.960 . S
H1608 C1622 0.960 . S
H1609 C1622 0.960 . S
C1610 H1602 0.929 . S
C1610 C1611 1.377 . S
C1610 C1612 1.384 . S
C1611 C1610 1.377 . S
C1611 C1617 1.390 . S
C1612 H1603 0.930 . S
C1612 C1610 1.384 . S
C1612 C1613 1.372 . S
C1613 C1612 1.372 . S
C1613 C1614 1.400 . S
C1613 C1618 1.490 . S
C1614 H1604 0.930 . S
C1614 C1613 1.400 . S
C1614 C1617 1.386 . S
H1615 C1631 0.930 . S
H1616 C1632 0.931 . S
C1617 H1605 0.929 . S
C1617 C1611 1.390 . S
C1617 C1614 1.386 . S
C1618 C1613 1.490 . S
C1618 C1620 1.439 . S
C1618 C1621 1.403 . S
H1619 C1625 0.930 . S
C1620 H1606 0.928 . S
C1620 C1618 1.439 . S
C1620 C1623 1.363 1_455 S
C1621 C1618 1.403 . S
C1621 C1622 1.524 . S
C1621 C1625 1.400 1_455 S
C1622 H1607 0.960 . S
C1622 H1608 0.960 . S
C1622 H1609 0.960 . S
C1622 C1621 1.524 . S
C1623 C1620 1.363 1_655 S
C1623 C1624 1.392 . S
C1623 C1627 1.495 . S
C1624 C1623 1.392 . S
C1624 C1625 1.385 . S
C1624 C1626 1.478 . S
C1625 H1619 0.930 . S
C1625 C1621 1.400 1_655 S
C1625 C1624 1.385 . S
C1626 C1624 1.478 . S
C1626 C1628 1.381 . S
C1626 C1632 1.383 . S
C1627 C1623 1.495 . S
C1627 H1633 0.959 . S
C1627 H1634 0.961 . S
C1627 H1635 0.960 . S
C1628 C1626 1.381 . S
C1628 C1629 1.394 . S
C1628 H1636 0.930 . S
C1629 C1628 1.394 . S
C1629 C1630 1.383 . S
C1629 H1637 0.929 . S
C1630 C1629 1.383 . S
C1630 C1631 1.377 . S
C1631 H1615 0.930 . S
C1631 C1630 1.377 . S
C1631 C1632 1.379 . S
C1632 H1616 0.931 . S
C1632 C1626 1.383 . S
C1632 C1631 1.379 . S
H1633 C1627 0.959 . S
H1634 C1627 0.961 . S
H1635 C1627 0.960 . S
H1636 C1628 0.930 . S
H1637 C1629 0.929 . S
H1638 C1646 0.929 . S
H1639 C1648 0.930 . S
H1640 C1650 0.930 . S
H1641 C1653 0.929 . S
H1642 C1656 0.930 . S
H1643 C1658 0.960 . S
H1644 C1658 0.960 . S
H1645 C1658 0.960 . S
C1646 H1638 0.929 . S
C1646 C1647 1.377 . S
C1646 C1648 1.384 . S
C1647 C1646 1.377 . S
C1647 C1653 1.390 . S
C1648 H1639 0.930 . S
C1648 C1646 1.384 . S
C1648 C1649 1.372 . S
C1649 C1648 1.372 . S
C1649 C1650 1.400 . S
C1649 C1654 1.490 . S
C1650 H1640 0.930 . S
C1650 C1649 1.400 . S
C1650 C1653 1.386 . S
H1651 C1667 0.930 . S
H1652 C1668 0.931 . S
C1653 H1641 0.929 . S
C1653 C1647 1.390 . S
C1653 C1650 1.386 . S
C1654 C1649 1.490 . S
C1654 C1656 1.395 . S
C1654 C1657 1.403 . S
H1655 C1661 0.930 . S
C1656 H1642 0.930 . S
C1656 C1654 1.395 . S
C1656 C1659 1.403 . S
C1657 C1654 1.403 . S
C1657 C1658 1.524 . S
C1657 C1661 1.400 . S
C1658 H1643 0.960 . S
C1658 H1644 0.960 . S
C1658 H1645 0.960 . S
C1658 C1657 1.524 . S
C1659 C1656 1.403 . S
C1659 C1660 1.392 . S
C1659 C1663 1.495 . S
C1660 C1659 1.392 . S
C1660 C1661 1.385 . S
C1660 C1662 1.478 . S
C1661 H1655 0.930 . S
C1661 C1657 1.400 . S
C1661 C1660 1.385 . S
C1662 C1660 1.478 . S
C1662 C1664 1.381 . S
C1662 C1668 1.383 . S
C1663 C1659 1.495 . S
C1663 H1669 0.959 . S
C1663 H1670 0.961 . S
C1663 H1671 0.960 . S
C1664 C1662 1.381 . S
C1664 C1665 1.394 . S
C1664 H1672 0.930 . S
C1665 C1664 1.394 . S
C1665 C1666 1.383 . S
C1665 H1673 0.929 . S
C1666 C1665 1.383 . S
C1666 C1667 1.377 . S
C1667 H1651 0.930 . S
C1667 C1666 1.377 . S
C1667 C1668 1.379 . S
C1668 H1652 0.931 . S
C1668 C1662 1.383 . S
C1668 C1667 1.379 . S
H1669 C1663 0.959 . S
H1670 C1663 0.961 . S
H1671 C1663 0.960 . S
H1672 C1664 0.930 . S
H1673 C1665 0.929 . S
H1674 C1682 0.929 . S
H1675 C1684 0.930 . S
H1676 C1686 0.930 . S
H1677 C1689 0.929 . S
H1678 C1692 0.930 . S
H1679 C1694 0.960 . S
H1680 C1694 0.960 . S
H1681 C1694 0.960 . S
C1682 H1674 0.929 . S
C1682 C1683 1.377 . S
C1682 C1684 1.384 . S
C1683 C1682 1.377 . S
C1683 C1689 1.390 . S
C1684 H1675 0.930 . S
C1684 C1682 1.384 . S
C1684 C1685 1.372 . S
C1685 C1684 1.372 . S
C1685 C1686 1.400 . S
C1685 C1690 1.490 . S
C1686 H1676 0.930 . S
C1686 C1685 1.400 . S
C1686 C1689 1.386 . S
H1687 C1703 0.930 . S
H1688 C1704 0.931 . S
C1689 H1677 0.929 . S
C1689 C1683 1.390 . S
C1689 C1686 1.386 . S
C1690 C1685 1.490 . S
C1690 C1692 1.395 . S
C1690 C1693 1.403 . S
H1691 C1697 0.930 . S
C1692 H1678 0.930 . S
C1692 C1690 1.395 . S
C1692 C1695 1.403 1_565 S
C1693 C1690 1.403 . S
C1693 C1694 1.524 . S
C1693 C1697 1.400 1_565 S
C1694 H1679 0.960 . S
C1694 H1680 0.960 . S
C1694 H1681 0.960 . S
C1694 C1693 1.524 . S
C1695 C1692 1.403 1_545 S
C1695 C1696 1.392 . S
C1695 C1699 1.495 . S
C1696 C1695 1.392 . S
C1696 C1697 1.385 . S
C1696 C1698 1.478 . S
C1697 H1691 0.930 . S
C1697 C1693 1.400 1_545 S
C1697 C1696 1.385 . S
C1698 C1696 1.478 . S
C1698 C1700 1.381 . S
C1698 C1704 1.383 . S
C1699 C1695 1.495 . S
C1699 H1705 0.959 . S
C1699 H1706 0.961 . S
C1699 H1707 0.960 . S
C1700 C1698 1.381 . S
C1700 C1701 1.394 . S
C1700 H1708 0.930 . S
C1701 C1700 1.394 . S
C1701 C1702 1.383 . S
C1701 H1709 0.929 . S
C1702 C1701 1.383 . S
C1702 C1703 1.377 . S
C1703 H1687 0.930 . S
C1703 C1702 1.377 . S
C1703 C1704 1.379 . S
C1704 H1688 0.931 . S
C1704 C1698 1.383 . S
C1704 C1703 1.379 . S
H1705 C1699 0.959 . S
H1706 C1699 0.961 . S
H1707 C1699 0.960 . S
H1708 C1700 0.930 . S
H1709 C1701 0.929 . S
H1710 C1718 0.929 . S
H1711 C1720 0.930 . S
H1712 C1722 0.930 . S
H1713 C1725 0.929 . S
H1714 C1728 0.930 . S
H1715 C1730 0.960 . S
H1716 C1730 0.960 . S
H1717 C1730 0.960 . S
C1718 H1710 0.929 . S
C1718 C1719 1.377 . S
C1718 C1720 1.384 . S
C1719 C1718 1.377 . S
C1719 C1725 1.390 . S
C1720 H1711 0.930 . S
C1720 C1718 1.384 . S
C1720 C1721 1.372 . S
C1721 C1720 1.372 . S
C1721 C1722 1.400 . S
C1721 C1726 1.490 . S
C1722 H1712 0.930 . S
C1722 C1721 1.400 . S
C1722 C1725 1.386 . S
H1723 C1739 0.930 . S
H1724 C1740 0.931 . S
C1725 H1713 0.929 . S
C1725 C1719 1.390 . S
C1725 C1722 1.386 . S
C1726 C1721 1.490 . S
C1726 C1728 1.395 . S
C1726 C1729 1.403 . S
H1727 C1733 0.930 . S
C1728 H1714 0.930 . S
C1728 C1726 1.395 . S
C1728 C1731 1.403 . S
C1729 C1726 1.403 . S
C1729 C1730 1.524 . S
C1729 C1733 1.400 . S
C1730 H1715 0.960 . S
C1730 H1716 0.960 . S
C1730 H1717 0.960 . S
C1730 C1729 1.524 . S
C1731 C1728 1.403 . S
C1731 C1732 1.392 . S
C1731 C1735 1.495 . S
C1732 C1731 1.392 . S
C1732 C1733 1.385 . S
C1732 C1734 1.478 . S
C1733 H1727 0.930 . S
C1733 C1729 1.400 . S
C1733 C1732 1.385 . S
C1734 C1732 1.478 . S
C1734 C1736 1.381 . S
C1734 C1740 1.383 . S
C1735 C1731 1.495 . S
C1735 H1741 0.959 . S
C1735 H1742 0.961 . S
C1735 H1743 0.960 . S
C1736 C1734 1.381 . S
C1736 C1737 1.394 . S
C1736 H1744 0.930 . S
C1737 C1736 1.394 . S
C1737 C1738 1.383 . S
C1737 H1745 0.929 . S
C1738 C1737 1.383 . S
C1738 C1739 1.377 . S
C1739 H1723 0.930 . S
C1739 C1738 1.377 . S
C1739 C1740 1.379 . S
C1740 H1724 0.931 . S
C1740 C1734 1.383 . S
C1740 C1739 1.379 . S
H1741 C1735 0.959 . S
H1742 C1735 0.961 . S
H1743 C1735 0.960 . S
H1744 C1736 0.930 . S
H1745 C1737 0.929 . S
H1746 C1754 0.929 . S
H1747 C1756 0.930 . S
H1748 C1758 0.930 . S
H1749 C1761 0.929 . S
H1750 C1764 0.930 . S
H1751 C1766 0.960 . S
H1752 C1766 0.960 . S
H1753 C1766 0.960 . S
C1754 H1746 0.929 . S
C1754 C1755 1.377 . S
C1754 C1756 1.384 . S
C1755 C1754 1.377 . S
C1755 C1761 1.390 . S
C1756 H1747 0.930 . S
C1756 C1754 1.384 . S
C1756 C1757 1.372 . S
C1757 C1756 1.372 . S
C1757 C1758 1.400 . S
C1757 C1762 1.490 . S
C1758 H1748 0.930 . S
C1758 C1757 1.400 . S
C1758 C1761 1.386 . S
H1759 C1775 0.930 . S
H1760 C1776 0.931 . S
C1761 H1749 0.929 . S
C1761 C1755 1.390 . S
C1761 C1758 1.386 . S
C1762 C1757 1.490 . S
C1762 C1764 1.395 . S
C1762 C1765 1.403 . S
H1763 C1769 0.930 . S
C1764 H1750 0.930 . S
C1764 C1762 1.395 . S
C1764 C1767 1.403 . S
C1765 C1762 1.403 . S
C1765 C1766 1.524 . S
C1765 C1769 1.400 . S
C1766 H1751 0.960 . S
C1766 H1752 0.960 . S
C1766 H1753 0.960 . S
C1766 C1765 1.524 . S
C1767 C1764 1.403 . S
C1767 C1768 1.392 . S
C1767 C1771 1.495 . S
C1768 C1767 1.392 . S
C1768 C1769 1.385 . S
C1768 C1770 1.478 . S
C1769 H1763 0.930 . S
C1769 C1765 1.400 . S
C1769 C1768 1.385 . S
C1770 C1768 1.478 . S
C1770 C1772 1.381 . S
C1770 C1776 1.383 . S
C1771 C1767 1.495 . S
C1771 H1777 0.959 . S
C1771 H1778 0.961 . S
C1771 H1779 0.960 . S
C1772 C1770 1.381 . S
C1772 C1773 1.394 . S
C1772 H1780 0.930 . S
C1773 C1772 1.394 . S
C1773 C1774 1.383 . S
C1773 H1781 0.929 . S
C1774 C1773 1.383 . S
C1774 C1775 1.377 . S
C1775 H1759 0.930 . S
C1775 C1774 1.377 . S
C1775 C1776 1.379 . S
C1776 H1760 0.931 . S
C1776 C1770 1.383 . S
C1776 C1775 1.379 . S
H1777 C1771 0.959 . S
H1778 C1771 0.961 . S
H1779 C1771 0.960 . S
H1780 C1772 0.930 . S
H1781 C1773 0.929 . S
H1782 C1790 0.929 . S
H1783 C1792 0.930 . S
H1784 C1794 0.930 . S
H1785 C1797 0.929 . S
H1786 C1800 0.930 . S
H1787 C1802 0.960 . S
H1788 C1802 0.960 . S
H1789 C1802 0.960 . S
C1790 H1782 0.929 . S
C1790 C1791 1.377 . S
C1790 C1792 1.384 . S
C1791 C1790 1.377 . S
C1791 C1797 1.390 . S
C1792 H1783 0.930 . S
C1792 C1790 1.384 . S
C1792 C1793 1.372 . S
C1793 C1792 1.372 . S
C1793 C1794 1.400 . S
C1793 C1798 1.490 . S
C1794 H1784 0.930 . S
C1794 C1793 1.400 . S
C1794 C1797 1.386 . S
H1795 C1811 0.930 . S
H1796 C1812 0.931 . S
C1797 H1785 0.929 . S
C1797 C1791 1.390 . S
C1797 C1794 1.386 . S
C1798 C1793 1.490 . S
C1798 C1800 1.395 . S
C1798 C1801 1.403 . S
H1799 C1805 0.930 . S
C1800 H1786 0.930 . S
C1800 C1798 1.395 . S
C1800 C1803 1.403 . S
C1801 C1798 1.403 . S
C1801 C1802 1.524 . S
C1801 C1805 1.400 . S
C1802 H1787 0.960 . S
C1802 H1788 0.960 . S
C1802 H1789 0.960 . S
C1802 C1801 1.524 . S
C1803 C1800 1.403 . S
C1803 C1804 1.392 . S
C1803 C1807 1.495 . S
C1804 C1803 1.392 . S
C1804 C1805 1.385 . S
C1804 C1806 1.478 . S
C1805 H1799 0.930 . S
C1805 C1801 1.400 . S
C1805 C1804 1.385 . S
C1806 C1804 1.478 . S
C1806 C1808 1.381 . S
C1806 C1812 1.383 . S
C1807 C1803 1.495 . S
C1807 H1813 0.959 . S
C1807 H1814 0.961 . S
C1807 H1815 0.960 . S
C1808 C1806 1.381 . S
C1808 C1809 1.394 . S
C1808 H1816 0.930 . S
C1809 C1808 1.394 . S
C1809 C1810 1.383 . S
C1809 H1817 0.929 . S
C1810 C1809 1.383 . S
C1810 C1811 1.377 . S
C1811 H1795 0.930 . S
C1811 C1810 1.377 . S
C1811 C1812 1.379 . S
C1812 H1796 0.931 . S
C1812 C1806 1.383 . S
C1812 C1811 1.379 . S
H1813 C1807 0.959 . S
H1814 C1807 0.961 . S
H1815 C1807 0.960 . S
H1816 C1808 0.930 . S
H1817 C1809 0.929 . S
H1818 C1826 0.929 . S
H1819 C1828 0.930 . S
H1820 C1830 0.930 . S
H1821 C1833 0.929 . S
H1822 C1836 0.930 . S
H1823 C1838 0.960 . S
H1824 C1838 0.960 . S
H1825 C1838 0.960 . S
C1826 H1818 0.929 . S
C1826 C1827 1.377 . S
C1826 C1828 1.384 . S
C1827 C1826 1.377 . S
C1827 C1833 1.390 . S
C1828 H1819 0.930 . S
C1828 C1826 1.384 . S
C1828 C1829 1.372 . S
C1829 C1828 1.372 . S
C1829 C1830 1.400 . S
C1829 C1834 1.490 . S
C1830 H1820 0.930 . S
C1830 C1829 1.400 . S
C1830 C1833 1.386 . S
H1831 C1847 0.930 . S
H1832 C1848 0.931 . S
C1833 H1821 0.929 . S
C1833 C1827 1.390 . S
C1833 C1830 1.386 . S
C1834 C1829 1.490 . S
C1834 C1836 1.395 . S
C1834 C1837 1.403 . S
H1835 C1841 0.930 . S
C1836 H1822 0.930 . S
C1836 C1834 1.395 . S
C1836 C1839 1.403 . S
C1837 C1834 1.403 . S
C1837 C1838 1.524 . S
C1837 C1841 1.400 . S
C1838 H1823 0.960 . S
C1838 H1824 0.960 . S
C1838 H1825 0.960 . S
C1838 C1837 1.524 . S
C1839 C1836 1.403 . S
C1839 C1840 1.392 . S
C1839 C1843 1.495 1_565 S
C1840 C1839 1.392 . S
C1840 C1841 1.385 . S
C1840 C1842 1.478 . S
C1841 H1835 0.930 . S
C1841 C1837 1.400 . S
C1841 C1840 1.385 . S
C1842 C1840 1.478 . S
C1842 C1844 1.381 . S
C1842 C1848 1.383 . S
C1843 C1839 1.495 1_545 S
C1843 H1849 0.959 . S
C1843 H1850 0.961 . S
C1843 H1851 0.960 . S
C1844 C1842 1.381 . S
C1844 C1845 1.392 1_565 S
C1844 H1852 0.903 1_565 S
C1845 C1844 1.392 1_545 S
C1845 C1846 1.378 1_545 S
C1845 H1853 0.936 . S
C1846 C1845 1.378 1_565 S
C1846 C1847 1.377 . S
C1847 H1831 0.930 . S
C1847 C1846 1.377 . S
C1847 C1848 1.379 . S
C1848 H1832 0.931 . S
C1848 C1842 1.383 . S
C1848 C1847 1.379 . S
H1849 C1843 0.959 . S
H1850 C1843 0.961 . S
H1851 C1843 0.960 . S
H1852 C1844 0.903 1_545 S
H1853 C1845 0.936 . S
H1854 C1862 0.929 . S
H1855 C1864 0.930 . S
H1856 C1866 0.941 . S
H1857 C1869 0.929 . S
H1858 C1872 0.930 . S
H1859 C1874 0.960 . S
H1860 C1874 0.960 . S
H1861 C1874 0.960 . S
C1862 H1854 0.929 . S
C1862 C1863 1.377 . S
C1862 C1864 1.384 . S
C1863 C1862 1.377 . S
C1863 C1869 1.390 . S
C1864 H1855 0.930 . S
C1864 C1862 1.384 . S
C1864 C1865 1.372 . S
C1865 C1864 1.372 . S
C1865 C1866 1.400 . S
C1865 C1870 1.490 . S
C1866 H1856 0.941 . S
C1866 C1865 1.400 . S
C1866 C1869 1.386 . S
H1867 C1883 0.930 . S
H1868 C1884 0.974 . S
C1869 H1857 0.929 . S
C1869 C1863 1.390 . S
C1869 C1866 1.386 . S
C1870 C1865 1.490 . S
C1870 C1872 1.395 . S
C1870 C1873 1.403 . S
H1871 C1877 0.930 . S
C1872 H1858 0.930 . S
C1872 C1870 1.395 . S
C1872 C1875 1.403 . S
C1873 C1870 1.403 . S
C1873 C1874 1.524 . S
C1873 C1877 1.400 . S
C1874 H1859 0.960 . S
C1874 H1860 0.960 . S
C1874 H1861 0.960 . S
C1874 C1873 1.524 . S
C1875 C1872 1.403 . S
C1875 C1876 1.392 . S
C1875 C1879 1.495 . S
C1876 C1875 1.392 . S
C1876 C1877 1.385 . S
C1876 C1878 1.478 . S
C1877 H1871 0.930 . S
C1877 C1873 1.400 . S
C1877 C1876 1.385 . S
C1878 C1876 1.478 . S
C1878 C1880 1.381 . S
C1878 C1884 1.341 1_455 S
C1879 C1875 1.495 . S
C1879 H1885 0.959 . S
C1879 H1886 0.961 1_455 S
C1879 H1887 0.960 . S
C1880 C1878 1.381 . S
C1880 C1881 1.394 . S
C1880 H1888 0.930 . S
C1881 C1880 1.394 . S
C1881 C1882 1.383 . S
C1881 H1889 0.929 . S
C1882 C1881 1.383 . S
C1882 C1883 1.377 1_455 S
C1883 H1867 0.930 . S
C1883 C1882 1.377 1_655 S
C1883 C1884 1.380 . S
C1884 H1868 0.974 . S
C1884 C1878 1.341 1_655 S
C1884 C1883 1.380 . S
H1885 C1879 0.959 . S
H1886 C1879 0.961 1_655 S
H1887 C1879 0.960 . S
H1888 C1880 0.930 . S
H1889 C1881 0.929 . S
H1890 C1898 0.929 . S
H1891 C1900 0.930 . S
H1892 C1902 0.930 . S
H1893 C1905 0.929 . S
H1894 C1908 0.930 . S
H1895 C1910 0.960 . S
H1896 C1910 0.960 . S
H1897 C1910 0.960 . S
C1898 H1890 0.929 . S
C1898 C1899 1.377 . S
C1898 C1900 1.384 . S
C1899 C1898 1.377 . S
C1899 C1905 1.390 . S
C1900 H1891 0.930 . S
C1900 C1898 1.384 . S
C1900 C1901 1.372 . S
C1901 C1900 1.372 . S
C1901 C1902 1.400 . S
C1901 C1906 1.490 . S
C1902 H1892 0.930 . S
C1902 C1901 1.400 . S
C1902 C1905 1.386 . S
H1903 C1919 0.930 . S
H1904 C1920 0.931 . S
C1905 H1893 0.929 . S
C1905 C1899 1.390 . S
C1905 C1902 1.386 . S
C1906 C1901 1.490 . S
C1906 C1908 1.395 . S
C1906 C1909 1.403 . S
H1907 C1913 0.930 . S
C1908 H1894 0.930 . S
C1908 C1906 1.395 . S
C1908 C1911 1.403 . S
C1909 C1906 1.403 . S
C1909 C1910 1.524 . S
C1909 C1913 1.400 . S
C1910 H1895 0.960 . S
C1910 H1896 0.960 . S
C1910 H1897 0.960 . S
C1910 C1909 1.524 . S
C1911 C1908 1.403 . S
C1911 C1912 1.392 . S
C1911 C1915 1.495 . S
C1912 C1911 1.392 . S
C1912 C1913 1.385 . S
C1912 C1914 1.478 . S
C1913 H1907 0.930 . S
C1913 C1909 1.400 . S
C1913 C1912 1.385 . S
C1914 C1912 1.478 . S
C1914 C1916 1.381 . S
C1914 C1920 1.383 . S
C1915 C1911 1.495 . S
C1915 H1921 0.959 . S
C1915 H1922 0.961 . S
C1915 H1923 0.960 . S
C1916 C1914 1.381 . S
C1916 C1917 1.394 . S
C1916 H1924 0.930 . S
C1917 C1916 1.394 . S
C1917 C1918 1.383 . S
C1917 H1925 0.929 . S
C1918 C1917 1.383 . S
C1918 C1919 1.377 . S
C1919 H1903 0.930 . S
C1919 C1918 1.377 . S
C1919 C1920 1.379 . S
C1920 H1904 0.931 . S
C1920 C1914 1.383 . S
C1920 C1919 1.379 . S
H1921 C1915 0.959 . S
H1922 C1915 0.961 . S
H1923 C1915 0.960 . S
H1924 C1916 0.930 . S
H1925 C1917 0.929 . S
H1926 C1934 0.929 1_455 S
H1927 C1936 0.930 1_455 S
H1928 C1938 0.930 . S
H1929 C1941 0.929 . S
H1930 C1944 0.930 . S
H1931 C1946 0.960 . S
H1932 C1946 0.960 . S
H1933 C1946 0.960 . S
C1934 H1926 0.929 1_655 S
C1934 C1935 1.377 . S
C1934 C1936 1.384 . S
C1935 C1934 1.377 . S
C1935 C1941 1.390 . S
C1936 H1927 0.930 1_655 S
C1936 C1934 1.384 . S
C1936 C1937 1.372 . S
C1937 C1936 1.372 . S
C1937 C1938 1.400 . S
C1937 C1942 1.490 . S
C1938 H1928 0.930 . S
C1938 C1937 1.400 . S
C1938 C1941 1.386 . S
H1939 C1955 0.930 . S
H1940 C1956 0.931 . S
C1941 H1929 0.929 . S
C1941 C1935 1.390 . S
C1941 C1938 1.386 . S
C1942 C1937 1.490 . S
C1942 C1944 1.395 . S
C1942 C1945 1.403 . S
H1943 C1949 0.930 . S
C1944 H1930 0.930 . S
C1944 C1942 1.395 . S
C1944 C1947 1.403 . S
C1945 C1942 1.403 . S
C1945 C1946 1.524 . S
C1945 C1949 1.400 . S
C1946 H1931 0.960 . S
C1946 H1932 0.960 . S
C1946 H1933 0.960 . S
C1946 C1945 1.524 . S
C1947 C1944 1.403 . S
C1947 C1948 1.392 . S
C1947 C1951 1.495 1_655 S
C1948 C1947 1.392 . S
C1948 C1949 1.385 . S
C1948 C1950 1.478 . S
C1949 H1943 0.930 . S
C1949 C1945 1.400 . S
C1949 C1948 1.385 . S
C1950 C1948 1.478 . S
C1950 C1952 1.381 1_655 S
C1950 C1956 1.383 . S
C1951 C1947 1.495 1_455 S
C1951 H1957 0.959 . S
C1951 H1958 0.961 1_455 S
C1951 H1959 0.960 . S
C1952 C1950 1.381 1_455 S
C1952 C1953 1.394 . S
C1952 H1960 0.930 . S
C1953 C1952 1.394 . S
C1953 C1954 1.383 1_455 S
C1953 H1961 0.929 . S
C1954 C1953 1.383 1_655 S
C1954 C1955 1.377 . S
C1955 H1939 0.930 . S
C1955 C1954 1.377 . S
C1955 C1956 1.379 . S
C1956 H1940 0.931 . S
C1956 C1950 1.383 . S
C1956 C1955 1.379 . S
H1957 C1951 0.959 . S
H1958 C1951 0.961 1_655 S
H1959 C1951 0.960 . S
H1960 C1952 0.930 . S
H1961 C1953 0.929 . S
H1962 C1970 0.929 . S
H1963 C1972 0.930 . S
H1964 C1974 0.930 . S
H1965 C1977 0.929 . S
H1966 C1980 0.930 . S
H1967 C1982 0.960 . S
H1968 C1982 0.960 . S
H1969 C1982 0.960 . S
C1970 H1962 0.929 . S
C1970 C1971 1.377 . S
C1970 C1972 1.384 . S
C1971 C1970 1.377 . S
C1971 C1977 1.390 . S
C1972 H1963 0.930 . S
C1972 C1970 1.384 . S
C1972 C1973 1.372 . S
C1973 C1972 1.372 . S
C1973 C1974 1.400 . S
C1973 C1978 1.490 . S
C1974 H1964 0.930 . S
C1974 C1973 1.400 . S
C1974 C1977 1.386 . S
H1975 C1991 0.930 . S
H1976 C1992 0.931 . S
C1977 H1965 0.929 . S
C1977 C1971 1.390 . S
C1977 C1974 1.386 . S
C1978 C1973 1.490 . S
C1978 C1980 1.395 . S
C1978 C1981 1.403 . S
H1979 C1985 0.930 . S
C1980 H1966 0.930 . S
C1980 C1978 1.395 . S
C1980 C1983 1.403 . S
C1981 C1978 1.403 . S
C1981 C1982 1.524 . S
C1981 C1985 1.400 . S
C1982 H1967 0.960 . S
C1982 H1968 0.960 . S
C1982 H1969 0.960 . S
C1982 C1981 1.524 . S
C1983 C1980 1.403 . S
C1983 C1984 1.392 . S
C1983 C1987 1.495 . S
C1984 C1983 1.392 . S
C1984 C1985 1.385 . S
C1984 C1986 1.478 . S
C1985 H1979 0.930 . S
C1985 C1981 1.400 . S
C1985 C1984 1.385 . S
C1986 C1984 1.478 . S
C1986 C1988 1.381 . S
C1986 C1992 1.383 . S
C1987 C1983 1.495 . S
C1987 H1993 0.959 . S
C1987 H1994 0.961 . S
C1987 H1995 0.960 . S
C1988 C1986 1.381 . S
C1988 C1989 1.394 . S
C1988 H1996 0.930 . S
C1989 C1988 1.394 . S
C1989 C1990 1.383 . S
C1989 H1997 0.929 . S
C1990 C1989 1.383 . S
C1990 C1991 1.377 . S
C1991 H1975 0.930 . S
C1991 C1990 1.377 . S
C1991 C1992 1.379 . S
C1992 H1976 0.931 . S
C1992 C1986 1.383 . S
C1992 C1991 1.379 . S
H1993 C1987 0.959 . S
H1994 C1987 0.961 . S
H1995 C1987 0.960 . S
H1996 C1988 0.930 . S
H1997 C1989 0.929 . S
H1998 C2006 0.929 . S
H1999 C2008 0.930 . S
H2000 C2010 0.930 . S
H2001 C2013 0.929 . S
H2002 C2016 0.930 . S
H2003 C2018 0.960 . S
H2004 C2018 0.960 . S
H2005 C2018 0.960 . S
C2006 H1998 0.929 . S
C2006 C2007 1.377 . S
C2006 C2008 1.384 . S
C2007 C2006 1.377 . S
C2007 C2013 1.390 . S
C2008 H1999 0.930 . S
C2008 C2006 1.384 . S
C2008 C2009 1.372 . S
C2009 C2008 1.372 . S
C2009 C2010 1.400 . S
C2009 C2014 1.490 . S
C2010 H2000 0.930 . S
C2010 C2009 1.400 . S
C2010 C2013 1.386 . S
H2011 C2027 0.930 . S
H2012 C2028 0.931 . S
C2013 H2001 0.929 . S
C2013 C2007 1.390 . S
C2013 C2010 1.386 . S
C2014 C2009 1.490 . S
C2014 C2016 1.395 . S
C2014 C2017 1.403 . S
H2015 C2021 0.930 . S
C2016 H2002 0.930 . S
C2016 C2014 1.395 . S
C2016 C2019 1.403 . S
C2017 C2014 1.403 . S
C2017 C2018 1.524 . S
C2017 C2021 1.400 . S
C2018 H2003 0.960 . S
C2018 H2004 0.960 . S
C2018 H2005 0.960 . S
C2018 C2017 1.524 . S
C2019 C2016 1.403 . S
C2019 C2020 1.392 . S
C2019 C2023 1.495 1_545 S
C2020 C2019 1.392 . S
C2020 C2021 1.385 . S
C2020 C2022 1.478 . S
C2021 H2015 0.930 . S
C2021 C2017 1.400 . S
C2021 C2020 1.385 . S
C2022 C2020 1.478 . S
C2022 C2024 1.373 1_545 S
C2022 C2028 1.383 . S
C2023 C2019 1.495 1_565 S
C2023 H2029 0.959 . S
C2023 H2030 0.961 . S
C2023 H2031 0.960 . S
C2024 C2022 1.373 1_565 S
C2024 C2025 1.401 . S
C2024 H2032 0.933 . S
C2025 C2024 1.401 . S
C2025 C2026 1.383 1_565 S
C2025 H2033 0.929 . S
C2026 C2025 1.383 1_545 S
C2026 C2027 1.377 . S
C2027 H2011 0.930 . S
C2027 C2026 1.377 . S
C2027 C2028 1.379 . S
C2028 H2012 0.931 . S
C2028 C2022 1.383 . S
C2028 C2027 1.379 . S
H2029 C2023 0.959 . S
H2030 C2023 0.961 . S
H2031 C2023 0.960 . S
H2032 C2024 0.933 . S
H2033 C2025 0.929 . S
H2034 C2042 0.929 . S
H2035 C2044 0.930 . S
H2036 C2046 0.930 . S
H2037 C2049 0.929 . S
H2038 C2052 0.930 . S
H2039 C2054 0.960 . S
H2040 C2054 0.960 . S
H2041 C2054 0.960 . S
C2042 H2034 0.929 . S
C2042 C2043 1.377 . S
C2042 C2044 1.384 . S
C2043 C2042 1.377 . S
C2043 C2049 1.390 . S
C2044 H2035 0.930 . S
C2044 C2042 1.384 . S
C2044 C2045 1.372 . S
C2045 C2044 1.372 . S
C2045 C2046 1.400 . S
C2045 C2050 1.490 . S
C2046 H2036 0.930 . S
C2046 C2045 1.400 . S
C2046 C2049 1.386 . S
H2047 C2063 0.930 . S
H2048 C2064 0.931 . S
C2049 H2037 0.929 . S
C2049 C2043 1.390 . S
C2049 C2046 1.386 . S
C2050 C2045 1.490 . S
C2050 C2052 1.395 . S
C2050 C2053 1.403 . S
H2051 C2057 0.930 . S
C2052 H2038 0.930 . S
C2052 C2050 1.395 . S
C2052 C2055 1.403 . S
C2053 C2050 1.403 . S
C2053 C2054 1.524 . S
C2053 C2057 1.400 . S
C2054 H2039 0.960 . S
C2054 H2040 0.960 . S
C2054 H2041 0.960 . S
C2054 C2053 1.524 . S
C2055 C2052 1.403 . S
C2055 C2056 1.392 . S
C2055 C2059 1.495 . S
C2056 C2055 1.392 . S
C2056 C2057 1.385 . S
C2056 C2058 1.478 . S
C2057 H2051 0.930 . S
C2057 C2053 1.400 . S
C2057 C2056 1.385 . S
C2058 C2056 1.478 . S
C2058 C2060 1.381 . S
C2058 C2064 1.383 . S
C2059 C2055 1.495 . S
C2059 H2065 0.959 . S
C2059 H2066 0.961 . S
C2059 H2067 0.960 . S
C2060 C2058 1.381 . S
C2060 C2061 1.394 . S
C2060 H2068 0.930 . S
C2061 C2060 1.394 . S
C2061 C2062 1.383 . S
C2061 H2069 0.929 . S
C2062 C2061 1.383 . S
C2062 C2063 1.377 . S
C2063 H2047 0.930 . S
C2063 C2062 1.377 . S
C2063 C2064 1.379 . S
C2064 H2048 0.931 . S
C2064 C2058 1.383 . S
C2064 C2063 1.379 . S
H2065 C2059 0.959 . S
H2066 C2059 0.961 . S
H2067 C2059 0.960 . S
H2068 C2060 0.930 . S
H2069 C2061 0.929 . S
H2070 C2078 0.929 . S
H2071 C2080 0.930 . S
H2072 C2082 0.930 . S
H2073 C2085 0.929 . S
H2074 C2088 0.930 . S
H2075 C2090 0.960 . S
H2076 C2090 0.960 . S
H2077 C2090 0.960 . S
C2078 H2070 0.929 . S
C2078 C2079 1.377 . S
C2078 C2080 1.384 . S
C2079 C2078 1.377 . S
C2079 C2085 1.390 . S
C2080 H2071 0.930 . S
C2080 C2078 1.384 . S
C2080 C2081 1.372 . S
C2081 C2080 1.372 . S
C2081 C2082 1.400 . S
C2081 C2086 1.490 . S
C2082 H2072 0.930 . S
C2082 C2081 1.400 . S
C2082 C2085 1.386 . S
H2083 C2099 0.930 . S
H2084 C2100 0.931 . S
C2085 H2073 0.929 . S
C2085 C2079 1.390 . S
C2085 C2082 1.386 . S
C2086 C2081 1.490 . S
C2086 C2088 1.395 . S
C2086 C2089 1.403 . S
H2087 C2093 0.930 . S
C2088 H2074 0.930 . S
C2088 C2086 1.395 . S
C2088 C2091 1.403 . S
C2089 C2086 1.403 . S
C2089 C2090 1.524 . S
C2089 C2093 1.400 . S
C2090 H2075 0.960 . S
C2090 H2076 0.960 . S
C2090 H2077 0.960 . S
C2090 C2089 1.524 . S
C2091 C2088 1.403 . S
C2091 C2092 1.392 . S
C2091 C2095 1.495 . S
C2092 C2091 1.392 . S
C2092 C2093 1.385 . S
C2092 C2094 1.478 . S
C2093 H2087 0.930 . S
C2093 C2089 1.400 . S
C2093 C2092 1.385 . S
C2094 C2092 1.478 . S
C2094 C2096 1.381 . S
C2094 C2100 1.383 . S
C2095 C2091 1.495 . S
C2095 H2101 0.959 . S
C2095 H2102 0.961 . S
C2095 H2103 0.960 . S
C2096 C2094 1.381 . S
C2096 C2097 1.394 . S
C2096 H2104 0.930 . S
C2097 C2096 1.394 . S
C2097 C2098 1.383 . S
C2097 H2105 0.929 . S
C2098 C2097 1.383 . S
C2098 C2099 1.377 . S
C2099 H2083 0.930 . S
C2099 C2098 1.377 . S
C2099 C2100 1.379 . S
C2100 H2084 0.931 . S
C2100 C2094 1.383 . S
C2100 C2099 1.379 . S
H2101 C2095 0.959 . S
H2102 C2095 0.961 . S
H2103 C2095 0.960 . S
H2104 C2096 0.930 . S
H2105 C2097 0.929 . S
H2106 C2114 0.929 . S
H2107 C2116 0.930 . S
H2108 C2118 0.930 . S
H2109 C2121 0.929 . S
H2110 C2124 0.930 . S
H2111 C2126 0.960 . S
H2112 C2126 0.960 . S
H2113 C2126 0.960 . S
C2114 H2106 0.929 . S
C2114 C2115 1.377 . S
C2114 C2116 1.384 . S
C2115 C2114 1.377 . S
C2115 C2121 1.390 . S
C2116 H2107 0.930 . S
C2116 C2114 1.384 . S
C2116 C2117 1.372 . S
C2117 C2116 1.372 . S
C2117 C2118 1.400 . S
C2117 C2122 1.490 . S
C2118 H2108 0.930 . S
C2118 C2117 1.400 . S
C2118 C2121 1.386 . S
H2119 C2135 0.930 . S
H2120 C2136 0.931 . S
C2121 H2109 0.929 . S
C2121 C2115 1.390 . S
C2121 C2118 1.386 . S
C2122 C2117 1.490 . S
C2122 C2124 1.395 . S
C2122 C2125 1.403 . S
H2123 C2129 0.930 . S
C2124 H2110 0.930 . S
C2124 C2122 1.395 . S
C2124 C2127 1.403 . S
C2125 C2122 1.403 . S
C2125 C2126 1.524 . S
C2125 C2129 1.400 . S
C2126 H2111 0.960 . S
C2126 H2112 0.960 . S
C2126 H2113 0.960 . S
C2126 C2125 1.524 . S
C2127 C2124 1.403 . S
C2127 C2128 1.392 . S
C2127 C2131 1.495 . S
C2128 C2127 1.392 . S
C2128 C2129 1.385 . S
C2128 C2130 1.478 . S
C2129 H2123 0.930 . S
C2129 C2125 1.400 . S
C2129 C2128 1.385 . S
C2130 C2128 1.478 . S
C2130 C2132 1.381 . S
C2130 C2136 1.383 . S
C2131 C2127 1.495 . S
C2131 H2137 0.959 . S
C2131 H2138 0.961 . S
C2131 H2139 0.960 . S
C2132 C2130 1.381 . S
C2132 C2133 1.394 . S
C2132 H2140 0.930 . S
C2133 C2132 1.394 . S
C2133 C2134 1.383 . S
C2133 H2141 0.929 . S
C2134 C2133 1.383 . S
C2134 C2135 1.377 . S
C2135 H2119 0.930 . S
C2135 C2134 1.377 . S
C2135 C2136 1.379 . S
C2136 H2120 0.931 . S
C2136 C2130 1.383 . S
C2136 C2135 1.379 . S
H2137 C2131 0.959 . S
H2138 C2131 0.961 . S
H2139 C2131 0.960 . S
H2140 C2132 0.930 . S
H2141 C2133 0.929 . S
H2142 C2150 0.929 . S
H2143 C2152 0.930 . S
H2144 C2154 0.930 . S
H2145 C2157 0.929 . S
H2146 C2160 0.930 . S
H2147 C2162 0.960 . S
H2148 C2162 0.960 . S
H2149 C2162 0.960 . S
C2150 H2142 0.929 . S
C2150 C2151 1.377 . S
C2150 C2152 1.384 . S
C2151 C2150 1.377 . S
C2151 C2157 1.390 . S
C2152 H2143 0.930 . S
C2152 C2150 1.384 . S
C2152 C2153 1.372 . S
C2153 C2152 1.372 . S
C2153 C2154 1.400 . S
C2153 C2158 1.490 . S
C2154 H2144 0.930 . S
C2154 C2153 1.400 . S
C2154 C2157 1.386 . S
H2155 C2171 0.930 . S
H2156 C2172 0.931 . S
C2157 H2145 0.929 . S
C2157 C2151 1.390 . S
C2157 C2154 1.386 . S
C2158 C2153 1.490 . S
C2158 C2160 1.395 . S
C2158 C2161 1.403 . S
H2159 C2165 0.930 . S
C2160 H2146 0.930 . S
C2160 C2158 1.395 . S
C2160 C2163 1.403 . S
C2161 C2158 1.403 . S
C2161 C2162 1.524 . S
C2161 C2165 1.400 . S
C2162 H2147 0.960 . S
C2162 H2148 0.960 . S
C2162 H2149 0.960 . S
C2162 C2161 1.524 . S
C2163 C2160 1.403 . S
C2163 C2164 1.392 . S
C2163 C2167 1.495 . S
C2164 C2163 1.392 . S
C2164 C2165 1.385 . S
C2164 C2166 1.478 . S
C2165 H2159 0.930 . S
C2165 C2161 1.400 . S
C2165 C2164 1.385 . S
C2166 C2164 1.478 . S
C2166 C2168 1.381 . S
C2166 C2172 1.383 . S
C2167 C2163 1.495 . S
C2167 H2173 0.959 . S
C2167 H2174 0.961 . S
C2167 H2175 0.960 . S
C2168 C2166 1.381 . S
C2168 C2169 1.394 . S
C2168 H2176 0.930 . S
C2169 C2168 1.394 . S
C2169 C2170 1.383 . S
C2169 H2177 0.929 . S
C2170 C2169 1.383 . S
C2170 C2171 1.377 . S
C2171 H2155 0.930 . S
C2171 C2170 1.377 . S
C2171 C2172 1.379 . S
C2172 H2156 0.931 . S
C2172 C2166 1.383 . S
C2172 C2171 1.379 . S
H2173 C2167 0.959 . S
H2174 C2167 0.961 . S
H2175 C2167 0.960 . S
H2176 C2168 0.930 . S
H2177 C2169 0.929 . S
H2178 C2186 0.929 . S
H2179 C2188 0.930 . S
H2180 C2190 0.930 . S
H2181 C2193 0.929 . S
H2182 C2196 0.930 . S
H2183 C2198 0.960 . S
H2184 C2198 0.960 . S
H2185 C2198 0.960 . S
C2186 H2178 0.929 . S
C2186 C2187 1.377 . S
C2186 C2188 1.384 . S
C2187 C2186 1.377 . S
C2187 C2193 1.390 . S
C2188 H2179 0.930 . S
C2188 C2186 1.384 . S
C2188 C2189 1.372 . S
C2189 C2188 1.372 . S
C2189 C2190 1.400 . S
C2189 C2194 1.490 . S
C2190 H2180 0.930 . S
C2190 C2189 1.400 . S
C2190 C2193 1.386 . S
H2191 C2207 0.930 . S
H2192 C2208 0.931 . S
C2193 H2181 0.929 . S
C2193 C2187 1.390 . S
C2193 C2190 1.386 . S
C2194 C2189 1.490 . S
C2194 C2196 1.395 . S
C2194 C2197 1.403 . S
H2195 C2201 0.930 . S
C2196 H2182 0.930 . S
C2196 C2194 1.395 . S
C2196 C2199 1.403 . S
C2197 C2194 1.403 . S
C2197 C2198 1.524 . S
C2197 C2201 1.400 . S
C2198 H2183 0.960 . S
C2198 H2184 0.960 . S
C2198 H2185 0.960 . S
C2198 C2197 1.524 . S
C2199 C2196 1.403 . S
C2199 C2200 1.392 . S
C2199 C2203 1.495 . S
C2200 C2199 1.392 . S
C2200 C2201 1.385 . S
C2200 C2202 1.478 . S
C2201 H2195 0.930 . S
C2201 C2197 1.400 . S
C2201 C2200 1.385 . S
C2202 C2200 1.478 . S
C2202 C2204 1.381 . S
C2202 C2208 1.383 . S
C2203 C2199 1.495 . S
C2203 H2209 0.959 . S
C2203 H2210 0.961 . S
C2203 H2211 0.960 . S
C2204 C2202 1.381 . S
C2204 C2205 1.394 . S
C2204 H2212 0.930 . S
C2205 C2204 1.394 . S
C2205 C2206 1.383 . S
C2205 H2213 0.929 . S
C2206 C2205 1.383 . S
C2206 C2207 1.377 . S
C2207 H2191 0.930 . S
C2207 C2206 1.377 . S
C2207 C2208 1.379 . S
C2208 H2192 0.931 . S
C2208 C2202 1.383 . S
C2208 C2207 1.379 . S
H2209 C2203 0.959 . S
H2210 C2203 0.961 . S
H2211 C2203 0.960 . S
H2212 C2204 0.930 . S
H2213 C2205 0.929 . S
H2214 C2222 0.929 . S
H2215 C2224 0.930 . S
H2216 C2226 0.930 . S
H2217 C2229 0.929 . S
H2218 C2232 0.930 . S
H2219 C2234 0.960 . S
H2220 C2234 0.960 . S
H2221 C2234 0.960 . S
C2222 H2214 0.929 . S
C2222 C2223 1.377 . S
C2222 C2224 1.384 . S
C2223 C2222 1.377 . S
C2223 C2229 1.390 . S
C2224 H2215 0.930 . S
C2224 C2222 1.384 . S
C2224 C2225 1.372 . S
C2225 C2224 1.372 . S
C2225 C2226 1.400 . S
C2225 C2230 1.490 . S
C2226 H2216 0.930 . S
C2226 C2225 1.400 . S
C2226 C2229 1.386 . S
H2227 C2243 0.930 . S
H2228 C2244 0.931 . S
C2229 H2217 0.929 . S
C2229 C2223 1.390 . S
C2229 C2226 1.386 . S
C2230 C2225 1.490 . S
C2230 C2232 1.395 . S
C2230 C2233 1.403 . S
H2231 C2237 0.930 . S
C2232 H2218 0.930 . S
C2232 C2230 1.395 . S
C2232 C2235 1.403 . S
C2233 C2230 1.403 . S
C2233 C2234 1.524 . S
C2233 C2237 1.400 . S
C2234 H2219 0.960 . S
C2234 H2220 0.960 . S
C2234 H2221 0.960 . S
C2234 C2233 1.524 . S
C2235 C2232 1.403 . S
C2235 C2236 1.392 . S
C2235 C2239 1.495 . S
C2236 C2235 1.392 . S
C2236 C2237 1.385 . S
C2236 C2238 1.478 . S
C2237 H2231 0.930 . S
C2237 C2233 1.400 . S
C2237 C2236 1.385 . S
C2238 C2236 1.478 . S
C2238 C2240 1.381 . S
C2238 C2244 1.383 . S
C2239 C2235 1.495 . S
C2239 H2245 0.959 . S
C2239 H2246 0.961 . S
C2239 H2247 0.960 . S
C2240 C2238 1.381 . S
C2240 C2241 1.394 . S
C2240 H2248 0.930 . S
C2241 C2240 1.394 . S
C2241 C2242 1.383 . S
C2241 H2249 0.929 . S
C2242 C2241 1.383 . S
C2242 C2243 1.377 . S
C2243 H2227 0.930 . S
C2243 C2242 1.377 . S
C2243 C2244 1.379 . S
C2244 H2228 0.931 . S
C2244 C2238 1.383 . S
C2244 C2243 1.379 . S
H2245 C2239 0.959 . S
H2246 C2239 0.961 . S
H2247 C2239 0.960 . S
H2248 C2240 0.930 . S
H2249 C2241 0.929 . S
H2250 C2258 0.929 . S
H2251 C2260 0.930 . S
H2252 C2262 0.930 . S
H2253 C2265 0.929 . S
H2254 C2268 0.930 . S
H2255 C2270 0.960 . S
H2256 C2270 0.960 . S
H2257 C2270 0.960 . S
C2258 H2250 0.929 . S
C2258 C2259 1.377 . S
C2258 C2260 1.384 . S
C2259 C2258 1.377 . S
C2259 C2265 1.390 . S
C2260 H2251 0.930 . S
C2260 C2258 1.384 . S
C2260 C2261 1.372 . S
C2261 C2260 1.372 . S
C2261 C2262 1.400 . S
C2261 C2266 1.490 . S
C2262 H2252 0.930 . S
C2262 C2261 1.400 . S
C2262 C2265 1.386 . S
H2263 C2279 0.930 . S
H2264 C2280 0.931 . S
C2265 H2253 0.929 . S
C2265 C2259 1.390 . S
C2265 C2262 1.386 . S
C2266 C2261 1.490 . S
C2266 C2268 1.395 . S
C2266 C2269 1.403 . S
H2267 C2273 0.930 . S
C2268 H2254 0.930 . S
C2268 C2266 1.395 . S
C2268 C2271 1.403 . S
C2269 C2266 1.403 . S
C2269 C2270 1.524 . S
C2269 C2273 1.400 . S
C2270 H2255 0.960 . S
C2270 H2256 0.960 . S
C2270 H2257 0.960 . S
C2270 C2269 1.524 . S
C2271 C2268 1.403 . S
C2271 C2272 1.392 . S
C2271 C2275 1.495 . S
C2272 C2271 1.392 . S
C2272 C2273 1.385 . S
C2272 C2274 1.478 . S
C2273 H2267 0.930 . S
C2273 C2269 1.400 . S
C2273 C2272 1.385 . S
C2274 C2272 1.478 . S
C2274 C2276 1.381 . S
C2274 C2280 1.383 . S
C2275 C2271 1.495 . S
C2275 H2281 0.959 . S
C2275 H2282 0.961 . S
C2275 H2283 0.960 . S
C2276 C2274 1.381 . S
C2276 C2277 1.394 . S
C2276 H2284 0.930 . S
C2277 C2276 1.394 . S
C2277 C2278 1.383 . S
C2277 H2285 0.929 . S
C2278 C2277 1.383 . S
C2278 C2279 1.377 . S
C2279 H2263 0.930 . S
C2279 C2278 1.377 . S
C2279 C2280 1.379 . S
C2280 H2264 0.931 . S
C2280 C2274 1.383 . S
C2280 C2279 1.379 . S
H2281 C2275 0.959 . S
H2282 C2275 0.961 . S
H2283 C2275 0.960 . S
H2284 C2276 0.930 . S
H2285 C2277 0.929 . S
H2286 C2294 0.929 . S
H2287 C2296 0.930 . S
H2288 C2298 0.930 . S
H2289 C2301 0.929 . S
H2290 C2304 0.930 . S
H2291 C2306 0.960 . S
H2292 C2306 0.960 . S
H2293 C2306 0.960 . S
C2294 H2286 0.929 . S
C2294 C2295 1.377 . S
C2294 C2296 1.384 . S
C2295 C2294 1.377 . S
C2295 C2301 1.390 . S
C2296 H2287 0.930 . S
C2296 C2294 1.384 . S
C2296 C2297 1.372 . S
C2297 C2296 1.372 . S
C2297 C2298 1.400 . S
C2297 C2302 1.490 . S
C2298 H2288 0.930 . S
C2298 C2297 1.400 . S
C2298 C2301 1.386 . S
H2299 C2315 0.930 . S
H2300 C2316 0.931 . S
C2301 H2289 0.929 . S
C2301 C2295 1.390 . S
C2301 C2298 1.386 . S
C2302 C2297 1.490 . S
C2302 C2304 1.395 . S
C2302 C2305 1.403 . S
H2303 C2309 0.930 . S
C2304 H2290 0.930 . S
C2304 C2302 1.395 . S
C2304 C2307 1.403 . S
C2305 C2302 1.403 . S
C2305 C2306 1.524 . S
C2305 C2309 1.400 . S
C2306 H2291 0.960 . S
C2306 H2292 0.960 . S
C2306 H2293 0.960 . S
C2306 C2305 1.524 . S
C2307 C2304 1.403 . S
C2307 C2308 1.392 . S
C2307 C2311 1.495 . S
C2308 C2307 1.392 . S
C2308 C2309 1.385 . S
C2308 C2310 1.478 . S
C2309 H2303 0.930 . S
C2309 C2305 1.400 . S
C2309 C2308 1.385 . S
C2310 C2308 1.478 . S
C2310 C2312 1.381 . S
C2310 C2316 1.383 . S
C2311 C2307 1.495 . S
C2311 H2317 0.959 . S
C2311 H2318 0.961 . S
C2311 H2319 0.960 . S
C2312 C2310 1.381 . S
C2312 C2313 1.394 . S
C2312 H2320 0.930 . S
C2313 C2312 1.394 . S
C2313 C2314 1.383 . S
C2313 H2321 0.929 . S
C2314 C2313 1.383 . S
C2314 C2315 1.377 . S
C2315 H2299 0.930 . S
C2315 C2314 1.377 . S
C2315 C2316 1.379 . S
C2316 H2300 0.931 . S
C2316 C2310 1.383 . S
C2316 C2315 1.379 . S
H2317 C2311 0.959 . S
H2318 C2311 0.961 . S
H2319 C2311 0.960 . S
H2320 C2312 0.930 . S
H2321 C2313 0.929 . S
H2322 C2330 0.929 . S
H2323 C2332 0.930 . S
H2324 C2334 0.930 . S
H2325 C2337 0.929 . S
H2326 C2340 0.930 . S
H2327 C2342 0.960 . S
H2328 C2342 0.960 . S
H2329 C2342 0.960 . S
C2330 H2322 0.929 . S
C2330 C2331 1.377 . S
C2330 C2332 1.384 . S
C2331 C2330 1.377 . S
C2331 C2337 1.390 . S
C2332 H2323 0.930 . S
C2332 C2330 1.384 . S
C2332 C2333 1.372 . S
C2333 C2332 1.372 . S
C2333 C2334 1.400 . S
C2333 C2338 1.490 . S
C2334 H2324 0.930 . S
C2334 C2333 1.400 . S
C2334 C2337 1.386 . S
H2335 C2351 0.930 . S
H2336 C2352 0.931 . S
C2337 H2325 0.929 . S
C2337 C2331 1.390 . S
C2337 C2334 1.386 . S
C2338 C2333 1.490 . S
C2338 C2340 1.395 . S
C2338 C2341 1.403 . S
H2339 C2345 0.930 . S
C2340 H2326 0.930 . S
C2340 C2338 1.395 . S
C2340 C2343 1.403 . S
C2341 C2338 1.403 . S
C2341 C2342 1.524 . S
C2341 C2345 1.400 . S
C2342 H2327 0.960 . S
C2342 H2328 0.960 . S
C2342 H2329 0.960 . S
C2342 C2341 1.524 . S
C2343 C2340 1.403 . S
C2343 C2344 1.392 . S
C2343 C2347 1.495 . S
C2344 C2343 1.392 . S
C2344 C2345 1.385 . S
C2344 C2346 1.478 . S
C2345 H2339 0.930 . S
C2345 C2341 1.400 . S
C2345 C2344 1.385 . S
C2346 C2344 1.478 . S
C2346 C2348 1.381 . S
C2346 C2352 1.383 . S
C2347 C2343 1.495 . S
C2347 H2353 0.959 . S
C2347 H2354 0.961 . S
C2347 H2355 0.960 . S
C2348 C2346 1.381 . S
C2348 C2349 1.394 . S
C2348 H2356 0.930 . S
C2349 C2348 1.394 . S
C2349 C2350 1.383 . S
C2349 H2357 0.929 . S
C2350 C2349 1.383 . S
C2350 C2351 1.377 . S
C2351 H2335 0.930 . S
C2351 C2350 1.377 . S
C2351 C2352 1.379 . S
C2352 H2336 0.931 . S
C2352 C2346 1.383 . S
C2352 C2351 1.379 . S
H2353 C2347 0.959 . S
H2354 C2347 0.961 . S
H2355 C2347 0.960 . S
H2356 C2348 0.930 . S
H2357 C2349 0.929 . S
H2358 C2366 0.929 . S
H2359 C2368 0.930 . S
H2360 C2370 0.930 . S
H2361 C2373 0.929 . S
H2362 C2376 0.930 . S
H2363 C2378 0.960 . S
H2364 C2378 0.960 . S
H2365 C2378 0.960 . S
C2366 H2358 0.929 . S
C2366 C2367 1.377 . S
C2366 C2368 1.384 . S
C2367 C2366 1.377 . S
C2367 C2373 1.390 . S
C2368 H2359 0.930 . S
C2368 C2366 1.384 . S
C2368 C2369 1.372 . S
C2369 C2368 1.372 . S
C2369 C2370 1.400 . S
C2369 C2374 1.490 . S
C2370 H2360 0.930 . S
C2370 C2369 1.400 . S
C2370 C2373 1.386 . S
H2371 C2387 0.930 . S
H2372 C2388 0.931 . S
C2373 H2361 0.929 . S
C2373 C2367 1.390 . S
C2373 C2370 1.386 . S
C2374 C2369 1.490 . S
C2374 C2376 1.395 . S
C2374 C2377 1.403 . S
H2375 C2381 0.930 . S
C2376 H2362 0.930 . S
C2376 C2374 1.395 . S
C2376 C2379 1.403 . S
C2377 C2374 1.403 . S
C2377 C2378 1.524 . S
C2377 C2381 1.400 . S
C2378 H2363 0.960 . S
C2378 H2364 0.960 . S
C2378 H2365 0.960 . S
C2378 C2377 1.524 . S
C2379 C2376 1.403 . S
C2379 C2380 1.392 . S
C2379 C2383 1.495 . S
C2380 C2379 1.392 . S
C2380 C2381 1.385 . S
C2380 C2382 1.478 . S
C2381 H2375 0.930 . S
C2381 C2377 1.400 . S
C2381 C2380 1.385 . S
C2382 C2380 1.478 . S
C2382 C2384 1.381 . S
C2382 C2388 1.383 . S
C2383 C2379 1.495 . S
C2383 H2389 0.959 . S
C2383 H2390 0.961 . S
C2383 H2391 0.960 . S
C2384 C2382 1.381 . S
C2384 C2385 1.394 . S
C2384 H2392 0.930 . S
C2385 C2384 1.394 . S
C2385 C2386 1.383 . S
C2385 H2393 0.929 . S
C2386 C2385 1.383 . S
C2386 C2387 1.377 . S
C2387 H2371 0.930 . S
C2387 C2386 1.377 . S
C2387 C2388 1.379 . S
C2388 H2372 0.931 . S
C2388 C2382 1.383 . S
C2388 C2387 1.379 . S
H2389 C2383 0.959 . S
H2390 C2383 0.961 . S
H2391 C2383 0.960 . S
H2392 C2384 0.930 . S
H2393 C2385 0.929 . S
H2394 C2402 0.929 . S
H2395 C2404 0.930 . S
H2396 C2406 0.930 . S
H2397 C2409 0.929 . S
H2398 C2412 0.930 . S
H2399 C2414 0.960 . S
H2400 C2414 0.960 . S
H2401 C2414 0.960 . S
C2402 H2394 0.929 . S
C2402 C2403 1.377 . S
C2402 C2404 1.384 . S
C2403 C2402 1.377 . S
C2403 C2409 1.390 . S
C2404 H2395 0.930 . S
C2404 C2402 1.384 . S
C2404 C2405 1.372 . S
C2405 C2404 1.372 . S
C2405 C2406 1.400 . S
C2405 C2410 1.490 . S
C2406 H2396 0.930 . S
C2406 C2405 1.400 . S
C2406 C2409 1.386 . S
H2407 C2423 0.930 . S
H2408 C2424 0.931 . S
C2409 H2397 0.929 . S
C2409 C2403 1.390 . S
C2409 C2406 1.386 . S
C2410 C2405 1.490 . S
C2410 C2412 1.395 . S
C2410 C2413 1.403 . S
H2411 C2417 0.930 . S
C2412 H2398 0.930 . S
C2412 C2410 1.395 . S
C2412 C2415 1.403 . S
C2413 C2410 1.403 . S
C2413 C2414 1.524 . S
C2413 C2417 1.400 . S
C2414 H2399 0.960 . S
C2414 H2400 0.960 . S
C2414 H2401 0.960 . S
C2414 C2413 1.524 . S
C2415 C2412 1.403 . S
C2415 C2416 1.392 . S
C2415 C2419 1.495 . S
C2416 C2415 1.392 . S
C2416 C2417 1.385 . S
C2416 C2418 1.478 . S
C2417 H2411 0.930 . S
C2417 C2413 1.400 . S
C2417 C2416 1.385 . S
C2418 C2416 1.478 . S
C2418 C2420 1.381 . S
C2418 C2424 1.383 . S
C2419 C2415 1.495 . S
C2419 H2425 0.959 . S
C2419 H2426 0.961 . S
C2419 H2427 0.960 . S
C2420 C2418 1.381 . S
C2420 C2421 1.394 . S
C2420 H2428 0.930 . S
C2421 C2420 1.394 . S
C2421 C2422 1.383 . S
C2421 H2429 0.929 . S
C2422 C2421 1.383 . S
C2422 C2423 1.377 . S
C2423 H2407 0.930 . S
C2423 C2422 1.377 . S
C2423 C2424 1.379 . S
C2424 H2408 0.931 . S
C2424 C2418 1.383 . S
C2424 C2423 1.379 . S
H2425 C2419 0.959 . S
H2426 C2419 0.961 . S
H2427 C2419 0.960 . S
H2428 C2420 0.930 . S
H2429 C2421 0.929 . S
H2430 C2438 0.929 . S
H2431 C2440 0.930 . S
H2432 C2442 0.930 . S
H2433 C2445 0.929 . S
H2434 C2448 0.930 . S
H2435 C2450 0.960 . S
H2436 C2450 0.960 . S
H2437 C2450 0.960 . S
C2438 H2430 0.929 . S
C2438 C2439 1.377 . S
C2438 C2440 1.384 . S
C2439 C2438 1.377 . S
C2439 C2445 1.390 . S
C2440 H2431 0.930 . S
C2440 C2438 1.384 . S
C2440 C2441 1.372 . S
C2441 C2440 1.372 . S
C2441 C2442 1.400 . S
C2441 C2446 1.490 . S
C2442 H2432 0.930 . S
C2442 C2441 1.400 . S
C2442 C2445 1.386 . S
H2443 C2459 0.930 . S
H2444 C2460 0.931 . S
C2445 H2433 0.929 . S
C2445 C2439 1.390 . S
C2445 C2442 1.386 . S
C2446 C2441 1.490 . S
C2446 C2448 1.395 . S
C2446 C2449 1.403 . S
H2447 C2453 0.930 . S
C2448 H2434 0.930 . S
C2448 C2446 1.395 . S
C2448 C2451 1.403 . S
C2449 C2446 1.403 . S
C2449 C2450 1.524 . S
C2449 C2453 1.400 . S
C2450 H2435 0.960 . S
C2450 H2436 0.960 . S
C2450 H2437 0.960 . S
C2450 C2449 1.524 . S
C2451 C2448 1.403 . S
C2451 C2452 1.392 . S
C2451 C2455 1.495 . S
C2452 C2451 1.392 . S
C2452 C2453 1.385 . S
C2452 C2454 1.478 . S
C2453 H2447 0.930 . S
C2453 C2449 1.400 . S
C2453 C2452 1.385 . S
C2454 C2452 1.478 . S
C2454 C2456 1.381 . S
C2454 C2460 1.383 . S
C2455 C2451 1.495 . S
C2455 H2461 0.959 . S
C2455 H2462 0.961 . S
C2455 H2463 0.960 . S
C2456 C2454 1.381 . S
C2456 C2457 1.394 . S
C2456 H2464 0.930 . S
C2457 C2456 1.394 . S
C2457 C2458 1.383 . S
C2457 H2465 0.929 . S
C2458 C2457 1.383 . S
C2458 C2459 1.377 . S
C2459 H2443 0.930 . S
C2459 C2458 1.377 . S
C2459 C2460 1.379 . S
C2460 H2444 0.931 . S
C2460 C2454 1.383 . S
C2460 C2459 1.379 . S
H2461 C2455 0.959 . S
H2462 C2455 0.961 . S
H2463 C2455 0.960 . S
H2464 C2456 0.930 . S
H2465 C2457 0.929 . S
C531 C124 1.543 . S
C550 C171 1.542 . S
C567 C130 1.744 . S
C586 C211 1.729 . S
C603 C115 1.564 . S
C622 C250 1.554 . S
C639 C106 1.459 . S
C658 C210 1.454 . S
C694 C251 1.394 . S
C675 C85 1.420 . S
C711 C97 1.246 . S
C730 C170 1.255 . S
C766 C181 1.568 . S
C747 C103 1.568 . S
C802 C221 1.694 . S
C783 C88 1.716 . S
C819 C94 1.564 . S
C838 C260 1.540 . S
C855 C121 1.453 . S
C874 C220 1.443 . S
C891 C133 1.393 . S
C910 C261 1.395 . S
C946 C180 1.266 . S
C927 C112 1.278 . S
C982 C291 1.540 . S
C963 C16 1.544 . S
C999 C22 1.746 . S
C1018 C331 1.724 . S
C1035 C7 1.561 . S
C1054 C370 1.531 . S
C1071 C160 1.454 . S
C1090 C330 1.417 . S
C1107 C139 1.424 . S
C1126 C371 1.407 . S
C1143 C151 1.249 . S
C1162 C290 1.238 . S
C1179 C157 1.567 . S
C1198 C301 1.532 . S
C1215 C142 1.716 . S
C1234 C341 1.699 . S
C1270 C380 1.558 . S
C1251 C148 1.565 . S
C1287 C13 1.455 . S
C1306 C340 1.429 . S
C1342 C381 1.370 . S
C1323 C25 1.392 . S
C1359 C4 1.273 . S
C1378 C300 1.271 . S
C1414 C411 1.504 . S
C1395 C70 1.540 . S
C1431 C76 1.746 . S
C1450 C451 1.726 . S
C1486 C490 1.530 . S
C1467 C61 1.561 . S
C1522 C450 1.412 . S
C1503 C52 1.453 . S
C1558 C491 1.414 . S
C1539 C31 1.421 . S
C1575 C43 1.246 . S
C1594 C410 1.230 . S
C1611 C49 1.568 . S
C1630 C421 1.568 . S
C1647 C34 1.716 . S
C1666 C461 1.691 . S
C1702 C500 1.565 . S
C1683 C40 1.561 . S
C1719 C67 1.455 . S
C1738 C460 1.424 . S
C1755 C79 1.393 . S
C1774 C501 1.364 . S
C1791 C58 1.272 . S
C1810 C420 1.290 . S
C1827 C140 1.327 . S
C1846 C167 1.326 . S
C1882 C207 1.774 . S
C1863 C149 1.766 . S
C1899 C158 1.548 . S
C1918 C257 1.549 . S
C1935 C59 1.792 . S
C1954 C217 1.797 . S
C1971 C68 1.522 . S
C1990 C247 1.523 . S
C2026 C177 1.328 . S
C2007 C77 1.326 . S
C2043 C32 1.327 . S
C2062 C287 1.322 . S
C2079 C41 1.765 . S
C2098 C327 1.773 . S
C2115 C50 1.546 . S
C2134 C377 1.549 . S
C2151 C113 1.791 . S
C2170 C337 1.792 . S
C2206 C367 1.523 . S
C2187 C122 1.522 . S
C2223 C131 1.327 . S
C2242 C297 1.329 . S
C2259 C86 1.327 . S
C2278 C407 1.322 . S
C2295 C95 1.765 . S
C2314 C447 1.774 . S
C2350 C497 1.547 . S
C2331 C104 1.549 . S
C2367 C5 1.790 . S
C2386 C457 1.789 . S
C2403 C14 1.523 . S
C2422 C487 1.521 . S
C2439 C23 1.326 . S
C2458 C417 1.316 . S
