# Generated by pormake.
# Topology zzz, (3,6)-cn, num edge types: 1
# Building blocks:
#     Node 0, Type 0, BuildingBlock: BELTOD_clean_linker_0, # of connection points: 3
#     Node 1, Type 0, BuildingBlock: BELTOD_clean_linker_0, # of connection points: 3
#     Node 2, Type 0, BuildingBlock: BELTOD_clean_linker_0, # of connection points: 3
#     Node 3, Type 0, BuildingBlock: BELTOD_clean_linker_0, # of connection points: 3
#     Node 4, Type 0, BuildingBlock: BELTOD_clean_linker_0, # of connection points: 3
#     Node 5, Type 0, BuildingBlock: BELTOD_clean_linker_0, # of connection points: 3
#     Node 6, Type 0, BuildingBlock: BELTOD_clean_linker_0, # of connection points: 3
#     Node 7, Type 0, BuildingBlock: BELTOD_clean_linker_0, # of connection points: 3
#     Node 8, Type 1, BuildingBlock: BETGAK_clean_sbu_0, # of connection points: 6
#     Node 9, Type 1, BuildingBlock: BETGAK_clean_sbu_0, # of connection points: 6
#     Node 10, Type 1, BuildingBlock: BETGAK_clean_sbu_0, # of connection points: 6
#     Node 11, Type 1, BuildingBlock: BETGAK_clean_sbu_0, # of connection points: 6
#     Edge 12, Type (0, 1), BuildingBlock: AJUNOK_clean_linker_0, # of connection points: 2
#     Edge 13, Type (0, 1), BuildingBlock: AJUNOK_clean_linker_0, # of connection points: 2
#     Edge 14, Type (0, 1), BuildingBlock: AJUNOK_clean_linker_0, # of connection points: 2
#     Edge 15, Type (0, 1), BuildingBlock: AJUNOK_clean_linker_0, # of connection points: 2
#     Edge 16, Type (0, 1), BuildingBlock: AJUNOK_clean_linker_0, # of connection points: 2
#     Edge 17, Type (0, 1), BuildingBlock: AJUNOK_clean_linker_0, # of connection points: 2
#     Edge 18, Type (0, 1), BuildingBlock: AJUNOK_clean_linker_0, # of connection points: 2
#     Edge 19, Type (0, 1), BuildingBlock: AJUNOK_clean_linker_0, # of connection points: 2
#     Edge 20, Type (0, 1), BuildingBlock: AJUNOK_clean_linker_0, # of connection points: 2
#     Edge 21, Type (0, 1), BuildingBlock: AJUNOK_clean_linker_0, # of connection points: 2
#     Edge 22, Type (0, 1), BuildingBlock: AJUNOK_clean_linker_0, # of connection points: 2
#     Edge 23, Type (0, 1), BuildingBlock: AJUNOK_clean_linker_0, # of connection points: 2
#     Edge 24, Type (0, 1), BuildingBlock: AJUNOK_clean_linker_0, # of connection points: 2
#     Edge 25, Type (0, 1), BuildingBlock: AJUNOK_clean_linker_0, # of connection points: 2
#     Edge 26, Type (0, 1), BuildingBlock: AJUNOK_clean_linker_0, # of connection points: 2
#     Edge 27, Type (0, 1), BuildingBlock: AJUNOK_clean_linker_0, # of connection points: 2
#     Edge 28, Type (0, 1), BuildingBlock: AJUNOK_clean_linker_0, # of connection points: 2
#     Edge 29, Type (0, 1), BuildingBlock: AJUNOK_clean_linker_0, # of connection points: 2
#     Edge 30, Type (0, 1), BuildingBlock: AJUNOK_clean_linker_0, # of connection points: 2
#     Edge 31, Type (0, 1), BuildingBlock: AJUNOK_clean_linker_0, # of connection points: 2
#     Edge 32, Type (0, 1), BuildingBlock: AJUNOK_clean_linker_0, # of connection points: 2
#     Edge 33, Type (0, 1), BuildingBlock: AJUNOK_clean_linker_0, # of connection points: 2
#     Edge 34, Type (0, 1), BuildingBlock: AJUNOK_clean_linker_0, # of connection points: 2
#     Edge 35, Type (0, 1), BuildingBlock: AJUNOK_clean_linker_0, # of connection points: 2
# Relax obj value: 0.508
# Max RMSD: 0.248
# Mean RMSD: 0.245
data_MOF--net-zzz--node1-BETGAK_clean_sbu_0--node2-BELTOD_clean_linker_0--edge1-AJUNOK_clean_linker_0
_symmetry_space_group_name_H-M    P1
_symmetry_Int_Tables_number       1
_symmetry_cell_setting            triclinic
loop_
_symmetry_equiv_pos_as_xyz
'x, y, z'
_cell_length_a     42.252228
_cell_length_b     42.307854
_cell_length_c     13.1845
_cell_angle_alpha  89.810198
_cell_angle_beta   89.737237
_cell_angle_gamma 89.930709
loop_
_atom_site_label
_atom_site_type_symbol
_atom_site_fract_x
_atom_site_fract_y
_atom_site_fract_z
_atom_type_partial_charge
P0 P 0.72255 0.4817 0.49204 0.0
H1 H 0.75314 0.48341 0.69098 0.0
H2 H 0.80778 0.49337 0.73674 0.0
H3 H 0.82349 0.53775 0.44534 0.0
H4 H 0.7695 0.52467 0.39633 0.0
H5 H 0.65865 0.46141 0.44969 0.0
H6 H 0.62055 0.47613 0.32104 0.0
H7 H 0.67787 0.55706 0.24111 0.0
H8 H 0.71708 0.54089 0.36751 0.0
H9 H 0.77433 0.43788 0.52765 0.0
H10 H 0.71307 0.4619 0.27751 0.0
O11 O 0.7058 0.46229 0.58872 0.0
H12 H 0.8128 0.41638 0.40954 0.0
H13 H 0.75003 0.43737 0.16031 0.0
C14 C 0.75646 0.50369 0.54031 0.0
C15 C 0.76788 0.49623 0.63763 0.0
C16 C 0.79958 0.50178 0.6638 0.0
C17 C 0.8209 0.51541 0.59385 0.0
C18 C 0.8085 0.52584 0.50011 0.0
C19 C 0.77697 0.51946 0.47295 0.0
C20 C 0.69078 0.50017 0.41994 0.0
C21 C 0.66265 0.48298 0.40703 0.0
C22 C 0.64056 0.49158 0.33296 0.0
C23 C 0.64563 0.51809 0.27015 0.0
C24 C 0.67312 0.53633 0.28708 0.0
C25 C 0.69556 0.52731 0.36041 0.0
C26 C 0.74154 0.45301 0.4115 0.0
C27 C 0.76847 0.43735 0.44781 0.0
C28 C 0.79042 0.42472 0.37995 0.0
C29 C 0.78513 0.42664 0.27491 0.0
C30 C 0.75549 0.43716 0.24048 0.0
C31 C 0.7341 0.45096 0.30809 0.0
P32 P 0.0601 0.72213 0.43022 0.0
H33 H 0.03879 0.74163 0.63372 0.0
H34 H 0.02659 0.79381 0.70192 0.0
H35 H 0.02138 0.8313 0.39786 0.0
H36 H 0.03314 0.77867 0.32964 0.0
H37 H 0.08598 0.66301 0.36369 0.0
H38 H 0.07217 0.62465 0.23465 0.0
H39 H 0.98658 0.67681 0.17162 0.0
H40 H 1.00206 0.71667 0.29848 0.0
H41 H 0.10192 0.77156 0.50138 0.0
H42 H 0.09281 0.71542 0.23026 0.0
O43 O 0.07345 0.70245 0.5313 0.0
H44 H 0.13038 0.81134 0.40605 0.0
H45 H 0.12468 0.75331 0.13739 0.0
C46 C 0.03668 0.7557 0.47585 0.0
C47 C 0.03385 0.76065 0.58102 0.0
C48 C 0.02753 0.79088 0.6204 0.0
C49 C 0.02399 0.81723 0.55585 0.0
C50 C 0.02414 0.81174 0.45028 0.0
C51 C 0.03041 0.78139 0.41087 0.0
C52 C 0.04481 0.69237 0.34315 0.0
C53 C 0.06377 0.66577 0.32426 0.0
C54 C 0.05565 0.64358 0.25036 0.0
C55 C 0.0276 0.64663 0.1941 0.0
C56 C 1.00826 0.67333 0.21366 0.0
C57 C 1.0169 0.6961 0.28691 0.0
C58 C 0.09382 0.74123 0.37235 0.0
C59 C 0.10756 0.76688 0.42261 0.0
C60 C 0.12447 0.78955 0.36787 0.0
C61 C 0.1291 0.78605 0.26274 0.0
C62 C 0.12057 0.75722 0.21755 0.0
C63 C 0.10229 0.73532 0.2712 0.0
P64 P 0.81449 0.06207 0.45566 0.0
H65 H 0.78541 0.06754 0.65565 0.0
H66 H 0.73289 0.05528 0.71633 0.0
H67 H 0.71672 0.99824 0.45031 0.0
H68 H 0.76889 1.01354 0.38491 0.0
H69 H 0.87346 0.08588 0.37673 0.0
H70 H 0.91123 0.06651 0.25269 0.0
H71 H 0.86452 0.97564 0.25559 0.0
H72 H 0.82488 0.99646 0.37467 0.0
H73 H 0.76471 0.10828 0.48854 0.0
H74 H 0.81848 0.07318 0.23316 0.0
O75 O 0.83206 0.08428 0.5433 0.0
H76 H 0.72702 0.13217 0.37306 0.0
H77 H 0.78272 0.09973 0.11786 0.0
C78 C 0.78201 0.04074 0.51659 0.0
C79 C 0.77125 0.05134 0.61163 0.0
C80 C 0.74076 0.04411 0.64699 0.0
C81 C 0.72005 0.02518 0.58985 0.0
C82 C 0.73161 1.01301 0.49694 0.0
C83 C 0.76196 0.02108 0.46019 0.0
C84 C 0.84613 0.04275 0.38517 0.0
C85 C 0.87154 0.06156 0.35204 0.0
C86 C 0.89334 0.05034 0.28063 0.0
C87 C 0.8909 0.01957 0.24133 0.0
C88 C 0.86662 0.99989 0.28038 0.0
C89 C 0.84412 1.01156 0.35018 0.0
C90 C 0.79417 0.08838 0.37024 0.0
C91 C 0.76925 0.10689 0.40778 0.0
C92 C 0.7479 0.12108 0.34127 0.0
C93 C 0.75174 0.1178 0.23578 0.0
C94 C 0.77886 0.10231 0.19871 0.0
C95 C 0.79955 0.08719 0.26521 0.0
P96 P 0.49029 0.80957 0.46188 0.0
H97 H 0.51613 0.78944 0.65917 0.0
H98 H 0.52702 0.7368 0.72703 0.0
H99 H 0.51926 0.69786 0.42609 0.0
H100 H 0.50952 0.75081 0.35805 0.0
H101 H 0.49601 0.87856 0.46214 0.0
H102 H 0.50901 0.91724 0.33137 0.0
H103 H 0.53229 0.8419 0.1246 0.0
H104 H 0.52178 0.80299 0.25947 0.0
H105 H 0.4405 0.77395 0.56091 0.0
H106 H 0.46214 0.80434 0.25581 0.0
O107 O 0.48008 0.82982 0.5655 0.0
H108 H 0.41078 0.72935 0.49391 0.0
H109 H 0.4338 0.75946 0.18925 0.0
C110 C 0.51216 0.77454 0.50282 0.0
C111 C 0.51795 0.76987 0.60678 0.0
C112 C 0.52346 0.73945 0.64618 0.0
C113 C 0.52298 0.71269 0.58288 0.0
C114 C 0.5197 0.71774 0.47761 0.0
C115 C 0.51449 0.74825 0.43815 0.0
C116 C 0.50744 0.83755 0.37105 0.0
C117 C 0.50455 0.87013 0.38961 0.0
C118 C 0.51134 0.89241 0.31367 0.0
C119 C 0.52013 0.88286 0.21543 0.0
C120 C 0.52513 0.85027 0.19877 0.0
C121 C 0.51917 0.8279 0.2761 0.0
C122 C 0.45465 0.79187 0.41369 0.0
C123 C 0.43749 0.77212 0.47958 0.0
C124 C 0.42069 0.74643 0.44128 0.0
C125 C 0.42068 0.74047 0.33656 0.0
C126 C 0.43339 0.76332 0.27041 0.0
C127 C 0.45016 0.78898 0.30886 0.0
P128 P 0.29432 0.51877 0.19823 0.0
H129 H 0.27441 0.46878 0.05777 0.0
H130 H 0.22835 0.4654 0.94667 0.0
H131 H 0.21449 0.56602 0.97252 0.0
H132 H 0.26107 0.5696 0.07841 0.0
H133 H 0.33904 0.46549 0.19601 0.0
H134 H 0.3897 0.45932 0.28249 0.0
H135 H 0.39497 0.56043 0.32057 0.0
H136 H 0.34591 0.56651 0.23034 0.0
H137 H 0.25696 0.51888 0.38518 0.0
H138 H 0.29995 0.58875 0.18894 0.0
O139 O 0.28221 0.48546 0.25467 0.0
H140 H 0.23002 0.56008 0.4767 0.0
H141 H 0.27469 0.63072 0.28649 0.0
C142 C 0.27136 0.5193 0.08026 0.0
C143 C 0.26232 0.49039 0.03671 0.0
C144 C 0.23542 0.48839 0.97436 0.0
C145 C 0.21663 0.51526 0.95402 0.0
C146 C 0.22787 0.54468 0.98764 0.0
C147 C 0.25488 0.54668 0.0494 0.0
C148 C 0.33749 0.51645 0.20838 0.0
C149 C 0.35172 0.48654 0.21859 0.0
C150 C 0.38067 0.48296 0.26967 0.0
C151 C 0.39632 0.50927 0.31145 0.0
C152 C 0.38398 0.53946 0.28996 0.0
C153 C 0.3552 0.54297 0.23822 0.0
C154 C 0.28027 0.55042 0.27875 0.0
C155 C 0.26151 0.54312 0.36331 0.0
C156 C 0.24636 0.567 0.41716 0.0
C157 C 0.24978 0.5989 0.38826 0.0
C158 C 0.27097 0.60641 0.30943 0.0
C159 C 0.28576 0.58233 0.2543 0.0
P160 P 0.06827 0.29729 0.07125 0.0
H161 H 0.08752 0.27029 0.87585 0.0
H162 H 0.07252 0.22013 0.80042 0.0
H163 H 0.98814 0.21807 0.98456 0.0
H164 H 1.00404 0.26799 0.06467 0.0
H165 H 0.10709 0.34838 0.1456 0.0
H166 H 0.09715 0.39113 0.26343 0.0
H167 H 0.99681 0.37412 0.24396 0.0
H168 H 1.00694 0.33053 0.12352 0.0
H169 H 0.09816 0.23609 0.09559 0.0
H170 H 0.03689 0.29648 0.2729 0.0
O171 O 0.10561 0.30039 0.03033 0.0
H172 H 0.07795 0.19013 0.18767 0.0
H173 H 1.0167 0.2509 0.36295 0.0
C174 C 0.04707 0.27361 0.97691 0.0
C175 C 0.06501 0.2601 0.89775 0.0
C176 C 0.0566 0.23095 0.85485 0.0
C177 C 0.02942 0.21465 0.88742 0.0
C178 C 1.00932 0.22987 0.95772 0.0
C179 C 1.01815 0.25889 1.00252 0.0
C180 C 0.05783 0.33599 0.12387 0.0
C181 C 0.08272 0.35433 0.16263 0.0
C182 C 0.07708 0.37879 0.23152 0.0
C183 C 0.04627 0.38589 0.26455 0.0
C184 C 0.02088 0.36937 0.21983 0.0
C185 C 0.02662 0.34455 0.15015 0.0
C186 C 0.06842 0.26969 0.17486 0.0
C187 C 0.08167 0.23977 0.1576 0.0
C188 C 0.06986 0.21349 0.20921 0.0
C189 C 0.04505 0.21716 0.27924 0.0
C190 C 0.03554 0.24756 0.30796 0.0
C191 C 0.04715 0.27375 0.25582 0.0
P192 P 0.24064 0.03935 0.1638 0.0
H193 H 0.26239 0.07652 0.98854 0.0
H194 H 0.31108 0.0718 0.88876 0.0
H195 H 0.32358 0.97653 0.99819 0.0
H196 H 0.2746 0.98097 0.09604 0.0
H197 H 0.19533 0.09069 0.19981 0.0
H198 H 0.14525 0.0898 0.28901 0.0
H199 H 0.13946 0.98887 0.24635 0.0
H200 H 0.18817 0.99062 0.14506 0.0
H201 H 0.28853 0.05099 0.31763 0.0
H202 H 0.22742 0.9737 0.23389 0.0
O203 O 0.25189 0.07625 0.19045 0.0
H204 H 0.31624 1.01623 0.43357 0.0
H205 H 0.25352 0.93968 0.35511 0.0
C206 C 0.26468 0.02943 0.05246 0.0
C207 C 0.27471 0.05406 0.98806 0.0
C208 C 0.30301 0.05153 0.93201 0.0
C209 C 0.32198 0.02417 0.93828 0.0
C210 C 0.30988 0.99811 0.99251 0.0
C211 C 0.28155 1.00068 0.0487 0.0
C212 C 0.19734 0.04022 0.17207 0.0
C213 C 0.18302 0.06835 0.20557 0.0
C214 C 0.15421 0.06781 0.25825 0.0
C215 C 0.13901 0.03905 0.28079 0.0
C216 C 0.15074 1.0115 0.23348 0.0
C217 C 0.17925 1.01232 0.17725 0.0
C218 C 0.25524 1.01547 0.26736 0.0
C219 C 0.27998 0.02705 0.32694 0.0
C220 C 0.29575 1.00712 0.39419 0.0
C221 C 0.28712 0.97513 0.40303 0.0
C222 C 0.26084 0.96415 0.34921 0.0
C223 C 0.24539 0.984 0.28072 0.0
P224 P 0.47621 0.22653 0.07943 0.0
H225 H 0.46273 0.25168 0.87644 0.0
H226 H 0.47424 0.30347 0.80356 0.0
H227 H 0.54497 0.31902 0.03209 0.0
H228 H 0.53271 0.2673 0.10765 0.0
H229 H 0.45183 0.16293 0.11463 0.0
H230 H 0.46642 0.12216 0.23646 0.0
H231 H 0.55337 0.17144 0.2983 0.0
H232 H 0.53913 0.21215 0.17263 0.0
H233 H 0.43447 0.28116 0.0854 0.0
H234 H 0.49181 0.22952 0.29961 0.0
O235 O 0.44348 0.21525 1.01906 0.0
H236 H 0.44045 0.32877 0.18742 0.0
H237 H 0.49977 0.27704 0.39613 0.0
C238 C 0.49701 0.25485 0.99768 0.0
C239 C 0.48176 0.26535 0.90895 0.0
C240 C 0.48807 0.29535 0.86755 0.0
C241 C 0.51019 0.31563 0.91269 0.0
C242 C 0.52782 0.30397 0.99525 0.0
C243 C 0.52114 0.27402 0.03773 0.0
C244 C 0.49423 0.19103 0.13385 0.0
C245 C 0.47478 0.1645 0.15037 0.0
C246 C 0.48305 0.14105 0.22086 0.0
C247 C 0.51074 0.14381 0.27848 0.0
C248 C 0.53171 0.1688 0.25557 0.0
C249 C 0.52373 0.19196 0.18276 0.0
C250 C 0.46416 0.25212 0.18134 0.0
C251 C 0.44727 0.2796 0.15625 0.0
C252 C 0.45114 0.30696 0.2137 0.0
C253 C 0.47215 0.30696 0.29599 0.0
C254 C 0.48413 0.27802 0.3313 0.0
C255 C 0.47989 0.25067 0.27466 0.0
La256 La 0.04036 1.00994 0.82266 0.0
La257 La 0.98654 1.01631 0.69815 0.0
C258 C 0.08083 0.99508 0.95492 0.0
C259 C 0.09211 0.96545 1.0005 0.0
C260 C 0.12474 0.95936 1.006 0.0
C261 C 0.13572 0.93025 0.04222 0.0
C262 C 0.11412 0.90701 0.07407 0.0
C263 C 0.08151 0.91366 0.0712 0.0
C264 C 0.07059 0.94247 0.03414 0.0
C265 C 0.05575 0.03088 0.63835 0.0
C266 C 1.01492 0.9488 0.70538 0.0
C267 C 0.94489 0.03212 0.57172 0.0
C268 C 0.94557 0.05822 0.49797 0.0
C269 C 0.93225 0.08759 0.52358 0.0
C270 C 0.94218 0.11488 0.47333 0.0
C271 C 0.96514 0.11289 0.39648 0.0
C272 C 0.97526 0.0832 0.36246 0.0
C273 C 0.96538 0.05602 0.41241 0.0
C274 C 0.9715 0.99698 0.88514 0.0
C275 C 1.01608 0.0785 0.79666 0.0
O276 O 0.08747 0.99883 0.85893 0.0
O277 O 0.05173 1.00343 0.97598 0.0
O278 O 0.06777 0.04053 0.72277 0.0
O279 O 0.03551 1.00971 0.65871 0.0
O280 O 0.03102 0.95964 0.78415 0.0
O281 O 0.9973 0.96829 0.65199 0.0
O282 O 0.94418 0.04051 0.66695 0.0
O283 O 0.96565 1.00977 0.55622 0.0
O284 O 0.95978 0.98618 0.80211 0.0
O285 O 0.99157 1.01777 0.86079 0.0
O286 O 1.00061 0.0667 0.71791 0.0
O287 O 0.03113 0.05925 0.85875 0.0
H288 H 0.14167 0.97686 0.98012 0.0
H289 H 0.16093 0.92565 0.04269 0.0
H290 H 0.06433 0.89636 0.09677 0.0
H291 H 0.04529 0.94649 0.0305 0.0
H292 H 0.91649 0.08983 0.58823 0.0
H293 H 0.93378 0.13766 0.4994 0.0
H294 H 0.9931 0.08105 0.30358 0.0
H295 H 0.9757 0.03368 0.38965 0.0
La296 La 0.52537 0.0422 0.82954 0.0
La297 La 0.51608 0.99368 0.68721 0.0
C298 C 0.54329 0.07782 0.97133 0.0
C299 C 0.5722 0.09569 0.99052 0.0
C300 C 0.59545 0.09842 0.91477 0.0
C301 C 0.62505 0.11091 0.938 0.0
C302 C 0.63167 0.12088 0.03716 0.0
C303 C 0.60749 0.12022 0.11085 0.0
C304 C 0.5779 0.10761 0.08757 0.0
C305 C 0.51177 0.06488 0.64558 0.0
C306 C 0.58532 1.01613 0.70713 0.0
C307 C 0.49672 0.95771 0.54929 0.0
C308 C 0.46662 0.94106 0.53748 0.0
C309 C 0.44964 0.93033 0.6228 0.0
C310 C 0.41783 0.9219 0.61372 0.0
C311 C 0.40271 0.92419 0.51938 0.0
C312 C 0.42065 0.93241 0.43301 0.0
C313 C 0.45227 0.94096 0.44229 0.0
C314 C 0.52995 0.97147 0.87106 0.0
C315 C 0.45586 0.02078 0.80952 0.0
O316 O 0.52655 0.08741 0.89432 0.0
O317 O 0.54659 0.0471 0.97226 0.0
O318 O 0.50107 0.0757 0.73048 0.0
O319 O 0.5299 0.04192 0.66537 0.0
O320 O 0.57499 0.02928 0.79209 0.0
O321 O 0.5648 1.00413 0.64283 0.0
O322 O 0.51477 0.94826 0.62356 0.0
O323 O 0.49442 0.9885 0.5455 0.0
O324 O 0.54178 0.9612 0.78684 0.0
O325 O 0.51125 0.99391 0.85038 0.0
O326 O 0.46607 1.00567 0.72756 0.0
O327 O 0.47646 0.03363 0.87143 0.0
H328 H 0.59126 0.08949 0.83912 0.0
H329 H 0.64335 0.11108 0.88016 0.0
H330 H 0.61217 0.12716 0.18835 0.0
H331 H 0.5601 0.10562 0.14668 0.0
H332 H 0.46018 0.93072 0.69755 0.0
H333 H 0.40445 0.91601 0.68147 0.0
H334 H 0.40954 0.9354 0.35972 0.0
H335 H 0.46471 0.95008 0.37652 0.0
La336 La 0.49732 0.52117 0.84581 0.0
La337 La 0.55112 0.51203 0.71909 0.0
C338 C 0.4561 0.5373 0.97541 0.0
C339 C 0.44766 0.56531 0.03495 0.0
C340 C 0.41565 0.57205 0.05361 0.0
C341 C 0.40706 0.59891 0.1087 0.0
C342 C 0.43046 0.61911 0.14658 0.0
C343 C 0.46252 0.61212 0.12861 0.0
C344 C 0.47108 0.58551 0.07269 0.0
C345 C 0.48158 0.50212 0.65972 0.0
C346 C 0.52724 0.58087 0.73138 0.0
C347 C 0.58712 0.49056 0.58541 0.0
C348 C 0.57691 0.46567 0.51539 0.0
C349 C 0.5891 0.43493 0.52574 0.0
C350 C 0.5726 0.40925 0.48584 0.0
C351 C 0.54416 0.41425 0.43368 0.0
C352 C 0.53318 0.44499 0.41717 0.0
C353 C 0.54928 0.47044 0.45809 0.0
C354 C 0.56799 0.53077 0.90346 0.0
C355 C 0.51805 0.45168 0.81948 0.0
O356 O 0.4521 0.53962 0.87764 0.0
O357 O 0.48282 0.52348 0.99782 0.0
O358 O 0.46853 0.49263 0.74323 0.0
O359 O 0.50273 0.52185 0.68266 0.0
O360 O 0.51154 0.57071 0.81264 0.0
O361 O 0.54262 0.56056 0.67397 0.0
O362 O 0.58866 0.48164 0.68019 0.0
O363 O 0.57254 0.51766 0.57611 0.0
O364 O 0.58149 0.53904 0.8194 0.0
O365 O 0.54608 0.5115 0.88231 0.0
O366 O 0.53421 0.46287 0.74108 0.0
O367 O 0.50352 0.47129 0.8815 0.0
H368 H 0.3973 0.5566 0.02521 0.0
H369 H 0.38223 0.6038 0.12221 0.0
H370 H 0.48095 0.62758 0.15641 0.0
H371 H 0.49593 0.58083 0.0586 0.0
H372 H 0.61 0.43059 0.57106 0.0
H373 H 0.58142 0.38551 0.49831 0.0
H374 H 0.5112 0.44919 0.37722 0.0
H375 H 0.53866 0.49361 0.45069 0.0
La376 La 1.01583 0.48788 0.80771 0.0
La377 La 0.02663 0.5372 0.66846 0.0
C378 C 0.99662 0.44966 0.94195 0.0
C379 C 0.9662 0.44328 0.9923 0.0
C380 C 0.95249 0.41317 0.98421 0.0
C381 C 0.92218 0.40754 0.0229 0.0
C382 C 0.90529 0.43198 0.07023 0.0
C383 C 0.91976 0.46157 0.08314 0.0
C384 C 0.94983 0.46729 0.04383 0.0
C385 C 0.0342 0.46715 0.62546 0.0
C386 C 0.95738 0.51584 0.69066 0.0
C387 C 0.04551 0.57244 0.52647 0.0
C388 C 0.07269 0.59342 0.51084 0.0
C389 C 0.0833 0.61405 0.58698 0.0
C390 C 0.11179 0.63048 0.57447 0.0
C391 C 0.12985 0.62647 0.48579 0.0
C392 C 0.11842 0.60659 0.4088 0.0
C393 C 0.09009 0.59038 0.42116 0.0
C394 C 1.01018 0.55967 0.85002 0.0
C395 C 0.08572 0.51033 0.79748 0.0
O396 O 0.99771 0.44313 0.84539 0.0
O397 O 1.01018 0.47666 0.9618 0.0
O398 O 0.0447 0.45705 0.71157 0.0
O399 O 1.01433 0.48884 0.64307 0.0
O400 O 0.96719 0.50531 0.77964 0.0
O401 O 0.97853 0.52508 0.62315 0.0
O402 O 0.02462 0.58108 0.59418 0.0
O403 O 0.0524 0.54236 0.53312 0.0
O404 O 1.00094 0.57073 0.76362 0.0
O405 O 0.02847 0.53652 0.83268 0.0
O406 O 0.07619 0.52794 0.71964 0.0
O407 O 0.06488 0.49389 0.85003 0.0
H408 H 0.9649 0.39427 0.94547 0.0
H409 H 0.91159 0.38444 1.01331 0.0
H410 H 0.90758 0.48048 0.12254 0.0
H411 H 0.95992 0.49066 0.05223 0.0
H412 H 0.07036 0.61642 0.65766 0.0
H413 H 0.12041 0.64513 0.63561 0.0
H414 H 0.13225 0.60204 0.34103 0.0
H415 H 0.08254 0.57425 0.36243 0.0
C416 C 0.1206 0.05554 0.45405 0.0
C417 C 0.11494 0.03781 0.36555 0.0
C418 C 0.10053 0.05388 0.53878 0.0
C419 C 0.07379 0.0341 0.54083 0.0
H420 H 0.14147 0.07024 0.45981 0.0
H421 H 0.10672 0.06772 0.60477 0.0
S422 S 0.0461 0.98468 0.32666 0.0
N423 N 0.07885 1.00132 0.28302 0.0
N424 N 0.04138 0.99774 0.44382 0.0
C425 C 0.06701 1.01687 0.45216 0.0
C426 C 0.08755 0.0187 0.36468 0.0
C427 C 0.51507 0.09035 0.3659 0.0
C428 C 0.51475 0.12367 0.3714 0.0
C429 C 0.51521 0.07136 0.45452 0.0
C430 C 0.51394 0.08495 0.55196 0.0
H431 H 0.51483 0.0789 0.29253 0.0
H432 H 0.51528 0.04589 0.44662 0.0
S433 S 0.51323 0.17102 0.60765 0.0
N434 N 0.51398 0.16923 0.4826 0.0
N435 N 0.51334 0.13401 0.64769 0.0
C436 C 0.51398 0.11823 0.55805 0.0
C437 C 0.5146 0.13743 0.46832 0.0
C438 C 0.41818 0.48197 0.46629 0.0
C439 C 0.42194 0.50501 0.38959 0.0
C440 C 0.43862 0.48034 0.55 0.0
C441 C 0.46391 0.50164 0.56157 0.0
H442 H 0.3982 0.46596 0.46478 0.0
H443 H 0.43375 0.4629 0.60838 0.0
S444 S 0.48687 0.56413 0.37699 0.0
N445 N 0.45522 0.54773 0.32632 0.0
N446 N 0.49326 0.54494 0.48433 0.0
C447 C 0.46921 0.52367 0.48286 0.0
C448 C 0.44832 0.52535 0.39714 0.0
C449 C 0.05881 0.40125 0.44394 0.0
C450 C 0.04188 0.40743 0.35418 0.0
C451 C 0.0563 0.42093 0.52939 0.0
C452 C 0.03685 0.44802 0.5298 0.0
H453 H 0.07408 0.38071 0.44857 0.0
H454 H 0.06974 0.41462 0.59625 0.0
S455 S 0.98902 0.47618 0.31152 0.0
N456 N 1.00576 0.44339 0.26951 0.0
N457 N 1.00126 0.48069 0.42955 0.0
C458 C 0.0201 0.45489 0.43988 0.0
C459 C 0.02247 0.43452 0.3526 0.0
C460 C 0.94425 0.01968 0.15166 0.0
C461 C 0.9124 1.00949 0.15552 0.0
C462 C 0.96365 1.01438 0.06616 0.0
C463 C 0.95227 0.99828 0.98065 0.0
H464 H 0.95421 0.03264 0.21426 0.0
H465 H 0.98749 0.02376 0.06606 0.0
S466 S 0.87129 0.96531 0.95151 0.0
N467 N 0.8708 0.98193 0.06451 0.0
N468 N 0.90747 0.97063 0.90711 0.0
C469 C 0.92103 0.98654 0.98505 0.0
C470 C 0.9011 0.99243 0.07139 0.0
C471 C 0.54811 0.90519 0.06016 0.0
C472 C 0.52291 0.90669 0.13045 0.0
C473 C 0.55059 0.92677 0.97871 0.0
C474 C 0.5281 0.951 0.96381 0.0
H475 H 0.56614 0.88714 0.068 0.0
H476 H 0.57022 0.92424 0.9262 0.0
S477 S 0.45658 0.9646 0.12229 0.0
N478 N 0.47407 0.93391 0.1758 0.0
N479 N 0.47942 0.97481 0.02573 0.0
C480 C 0.50294 0.95303 0.03382 0.0
C481 C 0.50018 0.93084 0.11608 0.0
C482 C 0.63764 0.53328 0.08658 0.0
C483 C 0.62434 0.52448 0.18081 0.0
C484 C 0.61905 0.53631 0.99889 0.0
C485 C 0.58626 0.53018 1.00032 0.0
H486 H 0.66293 0.53677 0.07913 0.0
H487 H 0.63085 0.54246 0.92845 0.0
S488 S 0.53864 0.51016 0.22791 0.0
N489 N 0.57517 0.51308 0.27105 0.0
N490 N 0.54088 0.51714 0.10495 0.0
C491 C 0.57238 0.52237 0.09398 0.0
C492 C 0.59119 0.51989 0.18419 0.0
C493 C 1.00872 0.63376 1.01649 0.0
C494 C 0.02013 0.6232 0.11108 0.0
C495 C 1.00464 0.6129 0.93436 0.0
C496 C 1.0121 0.58043 0.942 0.0
H497 H 1.00391 0.65863 1.00429 0.0
H498 H 0.99649 0.62265 0.86303 0.0
S499 S 0.03895 0.53953 0.17553 0.0
N500 N 0.03543 0.57689 0.20979 0.0
N501 N 0.02921 0.53835 0.05444 0.0
C502 C 0.02244 0.56926 0.03679 0.0
C503 C 0.0261 0.5904 0.1212 0.0
C504 C 1.01773 0.18457 0.41064 0.0
C505 C 0.02523 0.19003 0.30828 0.0
C506 C 0.99699 0.1603 0.43838 0.0
C507 C 0.98282 0.1411 0.36441 0.0
H508 H 0.02821 0.19894 0.46945 0.0
H509 H 0.99278 0.15593 0.51833 0.0
S510 S 0.99222 0.14792 0.08612 0.0
N511 N 1.01543 0.17567 0.13251 0.0
N512 N 0.97598 0.1303 0.18526 0.0
C513 C 0.98938 0.14695 0.26189 0.0
C514 C 1.01073 0.17136 0.23363 0.0
C515 C 0.32331 0.96161 0.54535 0.0
C516 C 0.30924 0.95294 0.45315 0.0
C517 C 0.35221 0.94848 0.57498 0.0
C518 C 0.36783 0.92624 0.51336 0.0
H519 H 0.31361 0.98094 0.58945 0.0
H520 H 0.364 0.9586 0.63991 0.0
S521 S 0.3367 0.88939 0.28009 0.0
N522 N 0.31002 0.91627 0.31098 0.0
N523 N 0.36392 0.89092 0.36938 0.0
C524 C 0.35162 0.91386 0.42987 0.0
C525 C 0.32234 0.92741 0.39893 0.0
C526 C 0.49302 0.34108 0.43533 0.0
C527 C 0.48688 0.33665 0.33143 0.0
C528 C 0.51194 0.36615 0.46838 0.0
C529 C 0.52506 0.38758 0.39851 0.0
H530 H 0.48374 0.32464 0.49114 0.0
H531 H 0.51632 0.36882 0.54883 0.0
S532 S 0.51696 0.38677 0.11998 0.0
N533 N 0.49622 0.35599 0.15927 0.0
N534 N 0.53092 0.4035 0.22313 0.0
C535 C 0.51867 0.384 0.29539 0.0
C536 C 0.49972 0.35846 0.26134 0.0
C537 C 0.21568 0.61929 0.52827 0.0
C538 C 0.22632 0.62217 0.4272 0.0
C539 C 0.18427 0.62627 0.55387 0.0
C540 C 0.16312 0.63711 0.47947 0.0
H541 H 0.23015 0.6072 0.58394 0.0
H542 H 0.1756 0.61877 0.62757 0.0
S543 S 0.18321 0.66242 0.21841 0.0
N544 N 0.21598 0.64607 0.2619 0.0
N545 N 0.15756 0.66101 0.31311 0.0
C546 C 0.17559 0.64724 0.38613 0.0
C547 C 0.20725 0.63931 0.3589 0.0
C548 C 0.11284 0.81903 0.1158 0.0
C549 C 0.13348 0.81468 0.19833 0.0
C550 C 0.10863 0.84865 0.07152 0.0
C551 C 0.12465 0.87531 0.10793 0.0
H552 H 0.09761 0.80014 0.0902 0.0
H553 H 0.0911 0.85102 1.01235 0.0
S554 S 0.18618 0.87575 0.30761 0.0
N555 N 0.17429 0.8386 0.30275 0.0
N556 N 0.1653 0.89495 0.22148 0.0
C557 C 0.14765 0.87096 0.18343 0.0
C558 C 0.15226 0.84049 0.22824 0.0
C559 C 0.71601 0.10057 0.0972 0.0
C560 C 0.72464 0.12408 0.16722 0.0
C561 C 0.68676 0.10135 0.0488 0.0
C562 C 0.6648 0.12548 0.06905 0.0
H563 H 0.7308 0.07998 0.0853 0.0
H564 H 0.68036 0.08152 1.00136 0.0
S565 S 0.6781 0.19596 0.22921 0.0
N566 N 0.71087 0.17495 0.24121 0.0
N567 N 0.65511 0.17579 0.15178 0.0
C568 C 0.67399 0.15053 0.13191 0.0
C569 C 0.7041 0.14998 0.18055 0.0
C570 C 0.43301 0.68315 0.34458 0.0
C571 C 0.41579 0.70789 0.29895 0.0
C572 C 0.4361 0.65379 0.29732 0.0
C573 C 0.42196 0.64802 0.20305 0.0
H574 H 0.44618 0.68715 0.41369 0.0
H575 H 0.45089 0.63594 0.33247 0.0
S576 S 0.37128 0.70343 0.05786 0.0
N577 N 0.38186 0.72362 0.15924 0.0
N578 N 0.38788 0.66824 0.06967 0.0
C579 C 0.40282 0.67165 0.16001 0.0
C580 C 0.39973 0.70168 0.20808 0.0
C581 C 0.83566 0.40039 0.2205 0.0
C582 C 0.81247 0.42382 0.20434 0.0
C583 C 0.86524 0.40204 0.17225 0.0
C584 C 0.8725 0.42712 0.1061 0.0
H585 H 0.83152 0.38158 0.2749 0.0
H586 H 0.8831 0.38464 0.1913 0.0
S587 S 0.81889 0.49175 0.02548 0.0
N588 N 0.7982 0.47136 0.10953 0.0
N589 N 0.85315 0.47326 1.01562 0.0
C590 C 0.84874 0.44908 0.08245 0.0
C591 C 0.81883 0.4477 0.13218 0.0
C592 C 0.04872 0.15828 0.88547 0.0
C593 C 0.02509 0.18036 0.85944 0.0
C594 C 0.04547 0.12578 0.86445 0.0
C595 C 1.01874 0.11364 0.81397 0.0
H596 H 0.06975 0.16612 0.92478 0.0
H597 H 0.06429 0.11001 0.88793 0.0
S598 S 0.95027 0.16147 0.72651 0.0
N599 N 0.97392 0.18767 0.77972 0.0
N600 N 0.96826 0.12689 0.73696 0.0
C601 C 0.99515 0.13555 0.78544 0.0
C602 C 0.99816 0.16871 0.80913 0.0
C603 C 0.36768 0.99944 0.83909 0.0
C604 C 0.3556 0.02423 0.8995 0.0
C605 C 0.39975 0.99882 0.80707 0.0
C606 C 0.42127 0.02256 0.83628 0.0
H607 H 0.35223 0.98032 0.81666 0.0
H608 H 0.40792 0.97914 0.76165 0.0
S609 S 0.40189 0.09241 0.99542 0.0
N610 N 0.36815 0.07299 0.98733 0.0
N611 N 0.42774 0.07176 0.92871 0.0
C612 C 0.40938 0.04745 0.8964 0.0
C613 C 0.37683 0.0483 0.92755 0.0
C614 C 0.53996 0.36383 0.84637 0.0
C615 C 0.51173 0.3499 0.88226 0.0
C616 C 0.54158 0.39645 0.82237 0.0
C617 C 0.51535 0.41669 0.8368 0.0
H618 H 0.56096 0.34941 0.83694 0.0
H619 H 0.56384 0.40609 0.79549 0.0
S620 S 0.43598 0.39203 0.92911 0.0
N621 N 0.45679 0.35896 0.92852 0.0
N622 N 0.46019 0.41996 0.88817 0.0
C623 C 0.48701 0.40293 0.87203 0.0
C624 C 0.48511 0.36969 0.89335 0.0
C625 C 0.17317 0.53378 0.83336 0.0
C626 C 0.18405 0.51236 0.90805 0.0
C627 C 0.14185 0.53255 0.79559 0.0
C628 C 0.11977 0.51009 0.83172 0.0
H629 H 0.18896 0.55182 0.80416 0.0
H630 H 0.13473 0.54983 0.73932 0.0
S631 S 0.136 0.44882 0.02834 0.0
N632 N 0.16966 0.46824 1.01723 0.0
N633 N 0.11172 0.46553 0.94648 0.0
C634 C 0.13057 0.48833 0.90558 0.0
C635 C 0.16233 0.48955 0.94352 0.0
C636 C 0.999 0.87186 0.55991 0.0
C637 C 0.02152 0.85036 0.59806 0.0
C638 C 0.9968 0.90313 0.59634 0.0
C639 C 1.01709 0.9147 0.67272 0.0
H640 H 0.98274 0.86443 0.50137 0.0
H641 H 0.97899 0.91843 0.5635 0.0
S642 S 0.08181 0.86884 0.79371 0.0
N643 N 0.06566 0.8436 0.71397 0.0
N644 N 0.06133 0.90191 0.78267 0.0
C645 C 0.03983 0.89348 0.71143 0.0
C646 C 0.04208 0.86157 0.6742 0.0
C647 C 0.66149 0.02073 0.54948 0.0
C648 C 0.68591 0.02065 0.6224 0.0
C649 C 0.62931 0.01867 0.57745 0.0
C650 C 0.61977 1.01708 0.67986 0.0
H651 H 0.6671 0.02328 0.46968 0.0
H652 H 0.61168 0.01922 0.51806 0.0
S653 S 0.67348 1.01312 0.90131 0.0
N654 N 0.69759 1.01583 0.80275 0.0
N655 N 0.63732 1.01392 0.85452 0.0
C656 C 0.64369 1.01655 0.75373 0.0
C657 C 0.67656 1.01785 0.72533 0.0
C658 C 0.54362 0.65649 0.57891 0.0
C659 C 0.52468 0.67965 0.62605 0.0
C660 C 0.54468 0.62512 0.61491 0.0
C661 C 0.52678 0.61512 0.69996 0.0
H662 H 0.55786 0.66263 0.51326 0.0
H663 H 0.55956 0.60848 0.57453 0.0
S664 S 0.47236 0.66604 0.84975 0.0
N665 N 0.48682 0.68994 0.76176 0.0
N666 N 0.48916 0.63135 0.82985 0.0
C667 C 0.50785 0.63805 0.74845 0.0
C668 C 0.50673 0.6701 0.71158 0.0
C669 C 0.86706 0.52242 0.71586 0.0
C670 C 0.85601 0.51659 0.6165 0.0
C671 C 0.89964 0.52189 0.73958 0.0
C672 C 0.92284 0.51615 0.66477 0.0
H673 H 0.85041 0.52754 0.7763 0.0
H674 H 0.90673 0.52644 0.81703 0.0
S675 S 0.90719 0.49649 0.39536 0.0
N676 N 0.8717 0.50204 0.44488 0.0
N677 N 0.93239 0.50298 0.48826 0.0
C678 C 0.91228 0.51021 0.56549 0.0
C679 C 0.87914 0.50998 0.5417 0.0
loop_
_geom_bond_atom_site_label_1
_geom_bond_atom_site_label_2
_geom_bond_distance
_geom_bond_site_symmetry_2
_ccdc_geom_bond_type
P0 O11 1.490 . S
P0 C14 1.812 . S
P0 C20 1.803 . S
P0 C26 1.819 . S
H1 C15 0.941 . S
H2 C16 0.939 . S
H3 C18 0.940 . S
H4 C19 0.940 . S
H5 C21 0.939 . S
H6 C22 0.942 . S
H7 C24 0.940 . S
H8 C25 0.939 . S
H9 C27 0.941 . S
H10 C31 0.939 . S
O11 P0 1.490 . S
H12 C28 0.939 . S
H13 C30 0.940 . S
C14 P0 1.812 . S
C14 C15 1.389 . S
C14 C19 1.391 . S
C15 H1 0.941 . S
C15 C14 1.389 . S
C15 C16 1.397 . S
C16 H2 0.939 . S
C16 C15 1.397 . S
C16 C17 1.378 . S
C17 C16 1.378 . S
C17 C18 1.378 . S
C18 H3 0.940 . S
C18 C17 1.378 . S
C18 C19 1.396 . S
C19 H4 0.940 . S
C19 C14 1.391 . S
C19 C18 1.396 . S
C20 P0 1.803 . S
C20 C21 1.378 . S
C20 C25 1.400 . S
C21 H5 0.939 . S
C21 C20 1.378 . S
C21 C22 1.361 . S
C22 H6 0.942 . S
C22 C21 1.361 . S
C22 C23 1.369 . S
C23 C22 1.369 . S
C23 C24 1.404 . S
C24 H7 0.940 . S
C24 C23 1.404 . S
C24 C25 1.389 . S
C25 H8 0.939 . S
C25 C20 1.400 . S
C25 C24 1.389 . S
C26 P0 1.819 . S
C26 C27 1.391 . S
C26 C31 1.391 . S
C27 H9 0.941 . S
C27 C26 1.391 . S
C27 C28 1.396 . S
C28 H12 0.939 . S
C28 C27 1.396 . S
C28 C29 1.397 . S
C29 C28 1.397 . S
C29 C30 1.385 . S
C30 H13 0.940 . S
C30 C29 1.385 . S
C30 C31 1.388 . S
C31 H10 0.939 . S
C31 C26 1.391 . S
C31 C30 1.388 . S
P32 O43 1.490 . S
P32 C46 1.812 . S
P32 C52 1.803 . S
P32 C58 1.819 . S
H33 C47 0.941 . S
H34 C48 0.939 . S
H35 C50 0.940 . S
H36 C51 0.950 . S
H37 C53 0.939 . S
H38 C54 0.942 . S
H39 C56 0.940 . S
H40 C57 0.959 . S
H41 C59 0.941 . S
H42 C63 0.929 1_655 S
O43 P32 1.490 . S
H44 C60 0.939 . S
H45 C62 0.940 . S
C46 P32 1.812 . S
C46 C47 1.389 . S
C46 C51 1.375 1_455 S
C47 H33 0.941 . S
C47 C46 1.389 . S
C47 C48 1.397 . S
C48 H34 0.939 . S
C48 C47 1.397 . S
C48 C49 1.378 . S
C49 C48 1.378 . S
C49 C50 1.378 1_455 S
C50 H35 0.940 . S
C50 C49 1.378 1_655 S
C50 C51 1.403 . S
C51 H36 0.950 . S
C51 C46 1.375 1_655 S
C51 C50 1.403 . S
C52 P32 1.803 . S
C52 C53 1.378 . S
C52 C57 1.368 1_455 S
C53 H37 0.939 . S
C53 C52 1.378 . S
C53 C54 1.361 . S
C54 H38 0.942 . S
C54 C53 1.361 . S
C54 C55 1.369 . S
C55 C54 1.369 . S
C55 C56 1.404 1_455 S
C56 H39 0.940 . S
C56 C55 1.404 1_655 S
C56 C57 1.402 . S
C57 H40 0.959 . S
C57 C52 1.368 1_655 S
C57 C56 1.402 . S
C58 P32 1.819 . S
C58 C59 1.391 . S
C58 C63 1.391 . S
C59 H41 0.941 . S
C59 C58 1.391 . S
C59 C60 1.396 . S
C60 H44 0.939 . S
C60 C59 1.396 . S
C60 C61 1.397 . S
C61 C60 1.397 . S
C61 C62 1.385 1_455 S
C62 H45 0.940 . S
C62 C61 1.385 1_655 S
C62 C63 1.388 1_655 S
C63 H42 0.929 1_455 S
C63 C58 1.391 . S
C63 C62 1.388 1_455 S
P64 O75 1.490 . S
P64 C78 1.812 . S
P64 C84 1.803 . S
P64 C90 1.819 . S
H65 C79 0.941 . S
H66 C80 0.939 . S
H67 C82 0.940 . S
H68 C83 0.950 . S
H69 C85 0.939 . S
H70 C86 0.942 . S
H71 C88 0.940 . S
H72 C89 0.959 . S
H73 C91 0.941 . S
H74 C95 0.929 1_565 S
O75 P64 1.490 . S
H76 C92 0.939 . S
H77 C94 0.940 . S
C78 P64 1.812 . S
C78 C79 1.389 . S
C78 C83 1.375 1_545 S
C79 H65 0.941 . S
C79 C78 1.389 . S
C79 C80 1.397 . S
C80 H66 0.939 . S
C80 C79 1.397 . S
C80 C81 1.378 . S
C81 C80 1.378 . S
C81 C82 1.378 1_545 S
C82 H67 0.940 . S
C82 C81 1.378 1_565 S
C82 C83 1.402 . S
C83 H68 0.950 . S
C83 C78 1.375 1_565 S
C83 C82 1.402 . S
C84 P64 1.803 . S
C84 C85 1.378 . S
C84 C89 1.368 1_545 S
C85 H69 0.939 . S
C85 C84 1.378 . S
C85 C86 1.361 . S
C86 H70 0.942 . S
C86 C85 1.361 . S
C86 C87 1.369 . S
C87 C86 1.369 . S
C87 C88 1.404 1_545 S
C88 H71 0.940 . S
C88 C87 1.404 1_565 S
C88 C89 1.402 . S
C89 H72 0.959 . S
C89 C84 1.368 1_565 S
C89 C88 1.402 . S
C90 P64 1.819 . S
C90 C91 1.391 . S
C90 C95 1.391 . S
C91 H73 0.941 . S
C91 C90 1.391 . S
C91 C92 1.396 . S
C92 H76 0.939 . S
C92 C91 1.396 . S
C92 C93 1.397 . S
C93 C92 1.397 . S
C93 C94 1.385 1_545 S
C94 H77 0.940 . S
C94 C93 1.385 1_565 S
C94 C95 1.388 1_565 S
C95 H74 0.929 1_545 S
C95 C90 1.391 . S
C95 C94 1.388 1_545 S
P96 O107 1.490 . S
P96 C110 1.812 . S
P96 C116 1.803 . S
P96 C122 1.819 . S
H97 C111 0.941 . S
H98 C112 0.939 . S
H99 C114 0.940 . S
H100 C115 0.940 . S
H101 C117 0.939 . S
H102 C118 0.942 . S
H103 C120 0.940 . S
H104 C121 0.939 . S
H105 C123 0.941 . S
H106 C127 0.939 . S
O107 P96 1.490 . S
H108 C124 0.939 . S
H109 C126 0.940 . S
C110 P96 1.812 . S
C110 C111 1.389 . S
C110 C115 1.391 . S
C111 H97 0.941 . S
C111 C110 1.389 . S
C111 C112 1.397 . S
C112 H98 0.939 . S
C112 C111 1.397 . S
C112 C113 1.378 . S
C113 C112 1.378 . S
C113 C114 1.378 . S
C114 H99 0.940 . S
C114 C113 1.378 . S
C114 C115 1.396 . S
C115 H100 0.940 . S
C115 C110 1.391 . S
C115 C114 1.396 . S
C116 P96 1.803 . S
C116 C117 1.378 . S
C116 C121 1.400 . S
C117 H101 0.939 . S
C117 C116 1.378 . S
C117 C118 1.361 . S
C118 H102 0.942 . S
C118 C117 1.361 . S
C118 C119 1.369 . S
C119 C118 1.369 . S
C119 C120 1.404 . S
C120 H103 0.940 . S
C120 C119 1.404 . S
C120 C121 1.389 . S
C121 H104 0.939 . S
C121 C116 1.400 . S
C121 C120 1.389 . S
C122 P96 1.819 . S
C122 C123 1.391 . S
C122 C127 1.391 . S
C123 H105 0.941 . S
C123 C122 1.391 . S
C123 C124 1.396 . S
C124 H108 0.939 . S
C124 C123 1.396 . S
C124 C125 1.397 . S
C125 C124 1.397 . S
C125 C126 1.385 . S
C126 H109 0.940 . S
C126 C125 1.385 . S
C126 C127 1.388 . S
C127 H106 0.939 . S
C127 C122 1.391 . S
C127 C126 1.388 . S
P128 O139 1.490 . S
P128 C142 1.812 1_554 S
P128 C148 1.803 . S
P128 C154 1.819 . S
H129 C143 0.941 . S
H130 C144 0.939 . S
H131 C146 0.940 . S
H132 C147 0.940 . S
H133 C149 0.939 . S
H134 C150 0.942 . S
H135 C152 0.940 . S
H136 C153 0.939 . S
H137 C155 0.941 . S
H138 C159 0.939 . S
O139 P128 1.490 . S
H140 C156 0.939 . S
H141 C158 0.940 . S
C142 P128 1.812 1_556 S
C142 C143 1.389 . S
C142 C147 1.391 . S
C143 H129 0.941 . S
C143 C142 1.389 . S
C143 C144 1.397 . S
C144 H130 0.939 . S
C144 C143 1.397 . S
C144 C145 1.378 . S
C145 C144 1.378 . S
C145 C146 1.378 . S
C146 H131 0.940 . S
C146 C145 1.378 . S
C146 C147 1.396 . S
C147 H132 0.940 . S
C147 C142 1.391 . S
C147 C146 1.396 . S
C148 P128 1.803 . S
C148 C149 1.378 . S
C148 C153 1.400 . S
C149 H133 0.939 . S
C149 C148 1.378 . S
C149 C150 1.361 . S
C150 H134 0.942 . S
C150 C149 1.361 . S
C150 C151 1.369 . S
C151 C150 1.369 . S
C151 C152 1.404 . S
C152 H135 0.940 . S
C152 C151 1.404 . S
C152 C153 1.389 . S
C153 H136 0.939 . S
C153 C148 1.400 . S
C153 C152 1.389 . S
C154 P128 1.819 . S
C154 C155 1.391 . S
C154 C159 1.391 . S
C155 H137 0.941 . S
C155 C154 1.391 . S
C155 C156 1.396 . S
C156 H140 0.939 . S
C156 C155 1.396 . S
C156 C157 1.397 . S
C157 C156 1.397 . S
C157 C158 1.385 . S
C158 H141 0.940 . S
C158 C157 1.385 . S
C158 C159 1.388 . S
C159 H138 0.939 . S
C159 C154 1.391 . S
C159 C158 1.388 . S
P160 O171 1.490 . S
P160 C174 1.812 1_554 S
P160 C180 1.803 . S
P160 C186 1.819 . S
H161 C175 0.941 . S
H162 C176 0.939 . S
H163 C178 0.940 . S
H164 C179 0.945 . S
H165 C181 0.939 . S
H166 C182 0.942 . S
H167 C184 0.940 . S
H168 C185 0.954 . S
H169 C187 0.941 . S
H170 C191 0.932 1_655 S
O171 P160 1.490 . S
H172 C188 0.939 . S
H173 C190 0.940 . S
C174 P160 1.812 1_556 S
C174 C175 1.389 . S
C174 C179 1.383 1_455 S
C175 H161 0.941 . S
C175 C174 1.389 . S
C175 C176 1.397 . S
C176 H162 0.939 . S
C176 C175 1.397 . S
C176 C177 1.378 . S
C177 C176 1.378 . S
C177 C178 1.378 1_455 S
C178 H163 0.940 . S
C178 C177 1.378 1_655 S
C178 C179 1.400 . S
C179 H164 0.945 . S
C179 C174 1.383 1_655 S
C179 C178 1.400 . S
C180 P160 1.803 . S
C180 C181 1.378 . S
C180 C185 1.376 1_455 S
C181 H165 0.939 . S
C181 C180 1.378 . S
C181 C182 1.361 . S
C182 H166 0.942 . S
C182 C181 1.361 . S
C182 C183 1.369 . S
C183 C182 1.369 . S
C183 C184 1.404 1_455 S
C184 H167 0.940 . S
C184 C183 1.404 1_655 S
C184 C185 1.399 . S
C185 H168 0.954 . S
C185 C180 1.376 1_655 S
C185 C184 1.399 . S
C186 P160 1.819 . S
C186 C187 1.391 . S
C186 C191 1.391 . S
C187 H169 0.941 . S
C187 C186 1.391 . S
C187 C188 1.396 . S
C188 H172 0.939 . S
C188 C187 1.396 . S
C188 C189 1.397 . S
C189 C188 1.397 . S
C189 C190 1.385 1_455 S
C190 H173 0.940 . S
C190 C189 1.385 1_655 S
C190 C191 1.388 1_655 S
C191 H170 0.932 1_455 S
C191 C186 1.391 . S
C191 C190 1.388 1_455 S
P192 O203 1.490 . S
P192 C206 1.812 1_554 S
P192 C212 1.803 . S
P192 C218 1.819 . S
H193 C207 0.941 . S
H194 C208 0.939 . S
H195 C210 0.940 . S
H196 C211 0.945 . S
H197 C213 0.939 . S
H198 C214 0.942 . S
H199 C216 0.940 . S
H200 C217 0.954 . S
H201 C219 0.941 . S
H202 C223 0.932 1_565 S
O203 P192 1.490 . S
H204 C220 0.939 . S
H205 C222 0.940 . S
C206 P192 1.812 1_556 S
C206 C207 1.389 . S
C206 C211 1.383 1_545 S
C207 H193 0.941 . S
C207 C206 1.389 . S
C207 C208 1.397 . S
C208 H194 0.939 . S
C208 C207 1.397 . S
C208 C209 1.378 . S
C209 C208 1.378 . S
C209 C210 1.378 1_545 S
C210 H195 0.940 . S
C210 C209 1.378 1_565 S
C210 C211 1.400 . S
C211 H196 0.945 . S
C211 C206 1.383 1_565 S
C211 C210 1.400 . S
C212 P192 1.803 . S
C212 C213 1.378 . S
C212 C217 1.376 1_545 S
C213 H197 0.939 . S
C213 C212 1.378 . S
C213 C214 1.361 . S
C214 H198 0.942 . S
C214 C213 1.361 . S
C214 C215 1.369 . S
C215 C214 1.369 . S
C215 C216 1.404 1_545 S
C216 H199 0.940 . S
C216 C215 1.404 1_565 S
C216 C217 1.398 . S
C217 H200 0.954 . S
C217 C212 1.376 1_565 S
C217 C216 1.398 . S
C218 P192 1.819 . S
C218 C219 1.391 . S
C218 C223 1.391 . S
C219 H201 0.941 . S
C219 C218 1.391 . S
C219 C220 1.396 . S
C220 H204 0.939 . S
C220 C219 1.396 . S
C220 C221 1.397 . S
C221 C220 1.397 . S
C221 C222 1.385 1_545 S
C222 H205 0.940 . S
C222 C221 1.385 1_565 S
C222 C223 1.388 1_565 S
C223 H202 0.932 1_545 S
C223 C218 1.391 . S
C223 C222 1.388 1_545 S
P224 O235 1.490 . S
P224 C238 1.812 1_554 S
P224 C244 1.803 . S
P224 C250 1.819 . S
H225 C239 0.941 . S
H226 C240 0.939 . S
H227 C242 0.940 . S
H228 C243 0.940 . S
H229 C245 0.939 . S
H230 C246 0.942 . S
H231 C248 0.940 . S
H232 C249 0.939 . S
H233 C251 0.941 . S
H234 C255 0.939 . S
O235 P224 1.490 . S
H236 C252 0.939 . S
H237 C254 0.940 . S
C238 P224 1.812 1_556 S
C238 C239 1.389 . S
C238 C243 1.391 . S
C239 H225 0.941 . S
C239 C238 1.389 . S
C239 C240 1.397 . S
C240 H226 0.939 . S
C240 C239 1.397 . S
C240 C241 1.378 . S
C241 C240 1.378 . S
C241 C242 1.378 . S
C242 H227 0.940 . S
C242 C241 1.378 . S
C242 C243 1.396 . S
C243 H228 0.940 . S
C243 C238 1.391 . S
C243 C242 1.396 . S
C244 P224 1.803 . S
C244 C245 1.378 . S
C244 C249 1.400 . S
C245 H229 0.939 . S
C245 C244 1.378 . S
C245 C246 1.361 . S
C246 H230 0.942 . S
C246 C245 1.361 . S
C246 C247 1.369 . S
C247 C246 1.369 . S
C247 C248 1.404 . S
C248 H231 0.940 . S
C248 C247 1.404 . S
C248 C249 1.389 . S
C249 H232 0.939 . S
C249 C244 1.400 . S
C249 C248 1.389 . S
C250 P224 1.819 . S
C250 C251 1.391 . S
C250 C255 1.391 . S
C251 H233 0.941 . S
C251 C250 1.391 . S
C251 C252 1.396 . S
C252 H236 0.939 . S
C252 C251 1.396 . S
C252 C253 1.397 . S
C253 C252 1.397 . S
C253 C254 1.385 . S
C254 H237 0.940 . S
C254 C253 1.385 . S
C254 C255 1.388 . S
C255 H234 0.939 . S
C255 C250 1.391 . S
C255 C254 1.388 . S
La256 C258 2.928 . S
La256 O276 2.521 . S
La256 O277 2.628 . S
La256 O278 2.554 . S
La256 O279 2.757 1_565 S
La256 O280 2.470 . S
La256 O285 2.482 1_455 S
La256 O287 2.503 1_565 S
La257 C267 2.928 . S
La257 O279 2.482 1_655 S
La257 O281 2.503 1_545 S
La257 O282 2.521 . S
La257 O283 2.628 . S
La257 O284 2.554 . S
La257 O285 2.757 1_545 S
La257 O286 2.470 . S
C258 La256 2.928 . S
C258 C259 1.503 1_556 S
C258 O276 1.261 . S
C258 O277 1.243 . S
C259 C258 1.503 1_554 S
C259 C260 1.394 . S
C259 C264 1.373 . S
C260 C259 1.394 . S
C260 C261 1.380 . S
C260 H288 0.930 1_554 S
C261 C260 1.380 . S
C261 C262 1.376 . S
C261 H289 0.930 . S
C262 C261 1.376 . S
C262 C263 1.370 . S
C263 C262 1.370 . S
C263 C264 1.396 . S
C263 H290 0.929 . S
C264 C259 1.373 . S
C264 C263 1.396 . S
C264 H291 0.929 1_455 S
C265 O278 1.240 . S
C265 O279 1.289 1_565 S
C266 O280 1.258 1_655 S
C266 O281 1.256 . S
C267 La257 2.928 . S
C267 C268 1.503 . S
C267 O282 1.261 . S
C267 O283 1.243 . S
C268 C267 1.503 . S
C268 C269 1.394 . S
C268 C273 1.373 . S
C269 C268 1.394 . S
C269 C270 1.380 . S
C269 H292 0.930 . S
C270 C269 1.380 . S
C270 C271 1.376 . S
C270 H293 0.930 . S
C271 C270 1.376 . S
C271 C272 1.370 . S
C272 C271 1.370 . S
C272 C273 1.396 . S
C272 H294 0.929 . S
C273 C268 1.373 . S
C273 C272 1.396 . S
C273 H295 0.929 1_655 S
C274 O284 1.240 . S
C274 O285 1.289 1_545 S
C275 O286 1.258 1_455 S
C275 O287 1.256 . S
O276 La256 2.521 . S
O276 C258 1.261 . S
O277 La256 2.628 . S
O277 C258 1.243 . S
O278 La256 2.554 . S
O278 C265 1.240 . S
O279 La256 2.757 1_545 S
O279 La257 2.482 1_455 S
O279 C265 1.289 1_545 S
O280 La256 2.470 . S
O280 C266 1.258 1_455 S
O281 La257 2.503 1_565 S
O281 C266 1.256 . S
O282 La257 2.521 . S
O282 C267 1.261 . S
O283 La257 2.628 . S
O283 C267 1.243 . S
O284 La257 2.554 . S
O284 C274 1.240 . S
O285 La256 2.482 1_655 S
O285 La257 2.757 1_565 S
O285 C274 1.289 1_565 S
O286 La257 2.470 . S
O286 C275 1.258 1_655 S
O287 La256 2.503 1_545 S
O287 C275 1.256 . S
H288 C260 0.930 1_556 S
H289 C261 0.930 . S
H290 C263 0.929 . S
H291 C264 0.929 1_655 S
H292 C269 0.930 . S
H293 C270 0.930 . S
H294 C272 0.929 . S
H295 C273 0.929 1_455 S
La296 C298 2.928 . S
La296 O316 2.521 . S
La296 O317 2.628 . S
La296 O318 2.554 . S
La296 O319 2.757 . S
La296 O320 2.470 . S
La296 O325 2.482 1_545 S
La296 O327 2.503 . S
La297 C307 2.928 . S
La297 O319 2.482 1_565 S
La297 O321 2.503 . S
La297 O322 2.521 . S
La297 O323 2.628 . S
La297 O324 2.554 . S
La297 O325 2.757 . S
La297 O326 2.470 . S
C298 La296 2.928 . S
C298 C299 1.503 1_556 S
C298 O316 1.261 . S
C298 O317 1.243 . S
C299 C298 1.503 1_554 S
C299 C300 1.394 . S
C299 C304 1.373 . S
C300 C299 1.394 . S
C300 C301 1.380 . S
C300 H328 0.930 1_554 S
C301 C300 1.380 . S
C301 C302 1.376 . S
C301 H329 0.930 . S
C302 C301 1.376 . S
C302 C303 1.370 . S
C303 C302 1.370 . S
C303 C304 1.396 . S
C303 H330 0.929 . S
C304 C299 1.373 . S
C304 C303 1.396 . S
C304 H331 0.929 1_545 S
C305 O318 1.240 . S
C305 O319 1.289 . S
C306 O320 1.258 1_565 S
C306 O321 1.256 . S
C307 La297 2.928 . S
C307 C308 1.503 . S
C307 O322 1.261 . S
C307 O323 1.243 . S
C308 C307 1.503 . S
C308 C309 1.394 . S
C308 C313 1.373 . S
C309 C308 1.394 . S
C309 C310 1.380 . S
C309 H332 0.930 . S
C310 C309 1.380 . S
C310 C311 1.376 . S
C310 H333 0.930 . S
C311 C310 1.376 . S
C311 C312 1.370 . S
C312 C311 1.370 . S
C312 C313 1.396 . S
C312 H334 0.929 . S
C313 C308 1.373 . S
C313 C312 1.396 . S
C313 H335 0.929 1_565 S
C314 O324 1.240 . S
C314 O325 1.289 . S
C315 O326 1.258 1_545 S
C315 O327 1.256 . S
O316 La296 2.521 . S
O316 C298 1.261 . S
O317 La296 2.628 . S
O317 C298 1.243 . S
O318 La296 2.554 . S
O318 C305 1.240 . S
O319 La296 2.757 . S
O319 La297 2.482 1_545 S
O319 C305 1.289 . S
O320 La296 2.470 . S
O320 C306 1.258 1_545 S
O321 La297 2.503 . S
O321 C306 1.256 . S
O322 La297 2.521 . S
O322 C307 1.261 . S
O323 La297 2.628 . S
O323 C307 1.243 . S
O324 La297 2.554 . S
O324 C314 1.240 . S
O325 La296 2.482 1_565 S
O325 La297 2.757 . S
O325 C314 1.289 . S
O326 La297 2.470 . S
O326 C315 1.258 1_565 S
O327 La296 2.503 . S
O327 C315 1.256 . S
H328 C300 0.930 1_556 S
H329 C301 0.930 . S
H330 C303 0.929 . S
H331 C304 0.929 1_565 S
H332 C309 0.930 . S
H333 C310 0.930 . S
H334 C312 0.929 . S
H335 C313 0.929 1_545 S
La336 C338 2.928 . S
La336 O356 2.521 . S
La336 O357 2.628 . S
La336 O358 2.554 . S
La336 O359 2.757 . S
La336 O360 2.470 . S
La336 O365 2.482 . S
La336 O367 2.503 . S
La337 C347 2.928 . S
La337 O359 2.482 . S
La337 O361 2.503 . S
La337 O362 2.521 . S
La337 O363 2.628 . S
La337 O364 2.554 . S
La337 O365 2.757 . S
La337 O366 2.470 . S
C338 La336 2.928 . S
C338 C339 1.503 1_556 S
C338 O356 1.261 . S
C338 O357 1.243 . S
C339 C338 1.503 1_554 S
C339 C340 1.394 . S
C339 C344 1.373 . S
C340 C339 1.394 . S
C340 C341 1.380 . S
C340 H368 0.930 1_554 S
C341 C340 1.380 . S
C341 C342 1.376 . S
C341 H369 0.930 . S
C342 C341 1.376 . S
C342 C343 1.370 . S
C343 C342 1.370 . S
C343 C344 1.396 . S
C343 H370 0.929 . S
C344 C339 1.373 . S
C344 C343 1.396 . S
C344 H371 0.929 . S
C345 O358 1.240 . S
C345 O359 1.289 . S
C346 O360 1.258 . S
C346 O361 1.256 . S
C347 La337 2.928 . S
C347 C348 1.503 . S
C347 O362 1.261 . S
C347 O363 1.243 . S
C348 C347 1.503 . S
C348 C349 1.394 . S
C348 C353 1.373 . S
C349 C348 1.394 . S
C349 C350 1.380 . S
C349 H372 0.930 . S
C350 C349 1.380 . S
C350 C351 1.376 . S
C350 H373 0.930 . S
C351 C350 1.376 . S
C351 C352 1.370 . S
C352 C351 1.370 . S
C352 C353 1.396 . S
C352 H374 0.929 . S
C353 C348 1.373 . S
C353 C352 1.396 . S
C353 H375 0.929 . S
C354 O364 1.240 . S
C354 O365 1.289 . S
C355 O366 1.258 . S
C355 O367 1.256 . S
O356 La336 2.521 . S
O356 C338 1.261 . S
O357 La336 2.628 . S
O357 C338 1.243 . S
O358 La336 2.554 . S
O358 C345 1.240 . S
O359 La336 2.757 . S
O359 La337 2.482 . S
O359 C345 1.289 . S
O360 La336 2.470 . S
O360 C346 1.258 . S
O361 La337 2.503 . S
O361 C346 1.256 . S
O362 La337 2.521 . S
O362 C347 1.261 . S
O363 La337 2.628 . S
O363 C347 1.243 . S
O364 La337 2.554 . S
O364 C354 1.240 . S
O365 La336 2.482 . S
O365 La337 2.757 . S
O365 C354 1.289 . S
O366 La337 2.470 . S
O366 C355 1.258 . S
O367 La336 2.503 . S
O367 C355 1.256 . S
H368 C340 0.930 1_556 S
H369 C341 0.930 . S
H370 C343 0.929 . S
H371 C344 0.929 . S
H372 C349 0.930 . S
H373 C350 0.930 . S
H374 C352 0.929 . S
H375 C353 0.929 . S
La376 C378 2.928 . S
La376 O396 2.521 . S
La376 O397 2.628 . S
La376 O398 2.554 . S
La376 O399 2.757 1_655 S
La376 O400 2.470 . S
La376 O405 2.482 . S
La376 O407 2.503 1_655 S
La377 C387 2.928 . S
La377 O399 2.482 . S
La377 O401 2.503 1_455 S
La377 O402 2.521 . S
La377 O403 2.628 . S
La377 O404 2.554 . S
La377 O405 2.757 1_455 S
La377 O406 2.470 . S
C378 La376 2.928 . S
C378 C379 1.503 1_556 S
C378 O396 1.261 . S
C378 O397 1.243 . S
C379 C378 1.503 1_554 S
C379 C380 1.394 . S
C379 C384 1.373 . S
C380 C379 1.394 . S
C380 C381 1.380 . S
C380 H408 0.930 1_554 S
C381 C380 1.380 . S
C381 C382 1.376 . S
C381 H409 0.930 . S
C382 C381 1.376 . S
C382 C383 1.370 . S
C383 C382 1.370 . S
C383 C384 1.396 . S
C383 H410 0.929 . S
C384 C379 1.373 . S
C384 C383 1.396 . S
C384 H411 0.929 . S
C385 O398 1.244 . S
C385 O399 1.287 1_655 S
C386 O400 1.258 . S
C386 O401 1.256 . S
C387 La377 2.928 . S
C387 C388 1.503 . S
C387 O402 1.261 . S
C387 O403 1.243 . S
C388 C387 1.503 . S
C388 C389 1.394 . S
C388 C393 1.373 . S
C389 C388 1.394 . S
C389 C390 1.380 . S
C389 H412 0.930 . S
C390 C389 1.380 . S
C390 C391 1.376 . S
C390 H413 0.930 . S
C391 C390 1.376 . S
C391 C392 1.370 . S
C392 C391 1.370 . S
C392 C393 1.396 . S
C392 H414 0.929 . S
C393 C388 1.373 . S
C393 C392 1.396 . S
C393 H415 0.929 . S
C394 O404 1.248 . S
C394 O405 1.285 1_455 S
C395 O406 1.258 . S
C395 O407 1.256 . S
O396 La376 2.521 . S
O396 C378 1.261 . S
O397 La376 2.628 . S
O397 C378 1.243 . S
O398 La376 2.554 . S
O398 C385 1.244 . S
O399 La376 2.757 1_455 S
O399 La377 2.482 . S
O399 C385 1.287 1_455 S
O400 La376 2.470 . S
O400 C386 1.258 . S
O401 La377 2.503 1_655 S
O401 C386 1.256 . S
O402 La377 2.521 . S
O402 C387 1.261 . S
O403 La377 2.628 . S
O403 C387 1.243 . S
O404 La377 2.554 . S
O404 C394 1.248 . S
O405 La376 2.482 . S
O405 La377 2.757 1_655 S
O405 C394 1.285 1_655 S
O406 La377 2.470 . S
O406 C395 1.258 . S
O407 La376 2.503 1_455 S
O407 C395 1.256 . S
H408 C380 0.930 1_556 S
H409 C381 0.930 . S
H410 C383 0.929 . S
H411 C384 0.929 . S
H412 C389 0.930 . S
H413 C390 0.930 . S
H414 C392 0.929 . S
H415 C393 0.929 . S
C416 C417 1.364 1_565 S
C416 C418 1.419 . S
C416 H420 0.930 . S
C417 C416 1.364 1_545 S
C417 C426 1.435 . S
C418 C416 1.419 . S
C418 C419 1.363 1_565 S
C418 H421 0.929 . S
C419 C418 1.363 1_545 S
C419 C425 1.428 . S
H420 C416 0.930 . S
H421 C418 0.929 . S
S422 N423 1.613 . S
S422 N424 1.610 . S
N423 S422 1.613 . S
N423 C426 1.350 . S
N424 S422 1.610 . S
N424 C425 1.351 . S
C425 C419 1.428 . S
C425 N424 1.351 . S
C425 C426 1.434 . S
C426 C417 1.435 . S
C426 N423 1.350 . S
C426 C425 1.434 . S
C427 C428 1.369 . S
C427 C429 1.419 . S
C427 H431 0.930 . S
C428 C427 1.369 . S
C428 C437 1.429 . S
C429 C427 1.419 . S
C429 C430 1.363 . S
C429 H432 0.929 . S
C430 C429 1.363 . S
C430 C436 1.428 . S
H431 C427 0.930 . S
H432 C429 0.929 . S
S433 N434 1.613 . S
S433 N435 1.610 . S
N434 S433 1.613 . S
N434 C437 1.350 . S
N435 S433 1.610 . S
N435 C436 1.351 . S
C436 C430 1.428 . S
C436 N435 1.351 . S
C436 C437 1.434 . S
C437 C428 1.429 . S
C437 N434 1.350 . S
C437 C436 1.434 . S
C438 C439 1.369 . S
C438 C440 1.419 . S
C438 H442 0.930 . S
C439 C438 1.369 . S
C439 C448 1.429 . S
C440 C438 1.419 . S
C440 C441 1.363 . S
C440 H443 0.929 . S
C441 C440 1.363 . S
C441 C447 1.428 . S
H442 C438 0.930 . S
H443 C440 0.929 . S
S444 N445 1.613 . S
S444 N446 1.610 . S
N445 S444 1.613 . S
N445 C448 1.350 . S
N446 S444 1.610 . S
N446 C447 1.351 . S
C447 C441 1.428 . S
C447 N446 1.351 . S
C447 C448 1.434 . S
C448 C439 1.429 . S
C448 N445 1.350 . S
C448 C447 1.434 . S
C449 C450 1.381 . S
C449 C451 1.419 . S
C449 H453 0.930 . S
C450 C449 1.381 . S
C450 C459 1.418 1_455 S
C451 C449 1.419 . S
C451 C452 1.363 . S
C451 H454 0.929 . S
C452 C451 1.363 . S
C452 C458 1.428 1_455 S
H453 C449 0.930 . S
H454 C451 0.929 . S
S455 N456 1.613 . S
S455 N457 1.610 . S
N456 S455 1.613 . S
N456 C459 1.350 . S
N457 S455 1.610 . S
N457 C458 1.351 . S
C458 C452 1.428 1_655 S
C458 N457 1.351 . S
C458 C459 1.434 . S
C459 C450 1.418 1_655 S
C459 N456 1.350 . S
C459 C458 1.434 . S
C460 C461 1.352 1_545 S
C460 C462 1.419 . S
C460 H464 0.930 . S
C461 C460 1.352 1_565 S
C461 C470 1.446 . S
C462 C460 1.419 . S
C462 C463 1.333 1_545 S
C462 H465 0.929 . S
C463 C462 1.333 1_565 S
C463 C469 1.459 . S
H464 C460 0.930 . S
H465 C462 0.929 . S
S466 N467 1.613 . S
S466 N468 1.610 . S
N467 S466 1.613 . S
N467 C470 1.350 . S
N468 S466 1.610 . S
N468 C469 1.351 . S
C469 C463 1.459 . S
C469 N468 1.351 . S
C469 C470 1.434 . S
C470 C461 1.446 . S
C470 N467 1.350 . S
C470 C469 1.434 . S
C471 C472 1.369 . S
C471 C473 1.419 . S
C471 H475 0.930 . S
C472 C471 1.369 . S
C472 C481 1.429 . S
C473 C471 1.419 . S
C473 C474 1.363 . S
C473 H476 0.929 . S
C474 C473 1.363 . S
C474 C480 1.428 . S
H475 C471 0.930 . S
H476 C473 0.929 . S
S477 N478 1.613 . S
S477 N479 1.610 . S
N478 S477 1.613 . S
N478 C481 1.350 . S
N479 S477 1.610 . S
N479 C480 1.351 . S
C480 C474 1.428 . S
C480 N479 1.351 . S
C480 C481 1.434 . S
C481 C472 1.429 . S
C481 N478 1.350 . S
C481 C480 1.434 . S
C482 C483 1.369 . S
C482 C484 1.419 . S
C482 H486 0.930 . S
C483 C482 1.369 . S
C483 C492 1.429 . S
C484 C482 1.419 . S
C484 C485 1.363 . S
C484 H487 0.929 . S
C485 C484 1.363 . S
C485 C491 1.428 . S
H486 C482 0.930 . S
H487 C484 0.929 . S
S488 N489 1.613 . S
S488 N490 1.610 . S
N489 S488 1.613 . S
N489 C492 1.350 . S
N490 S488 1.610 . S
N490 C491 1.351 . S
C491 C485 1.428 . S
C491 N490 1.351 . S
C491 C492 1.434 . S
C492 C483 1.429 . S
C492 N489 1.350 . S
C492 C491 1.434 . S
C493 C494 1.384 . S
C493 C495 1.419 . S
C493 H497 0.930 . S
C494 C493 1.384 . S
C494 C503 1.414 1_655 S
C495 C493 1.419 . S
C495 C496 1.363 . S
C495 H498 0.929 . S
C496 C495 1.363 . S
C496 C502 1.428 1_655 S
H497 C493 0.930 . S
H498 C495 0.929 . S
S499 N500 1.613 . S
S499 N501 1.610 . S
N500 S499 1.613 . S
N500 C503 1.350 . S
N501 S499 1.610 . S
N501 C502 1.351 . S
C502 C496 1.428 1_455 S
C502 N501 1.351 . S
C502 C503 1.434 . S
C503 C494 1.414 1_455 S
C503 N500 1.350 . S
C503 C502 1.434 . S
C504 C505 1.369 . S
C504 C506 1.419 . S
C504 H508 0.930 . S
C505 C504 1.369 . S
C505 C514 1.429 . S
C506 C504 1.419 . S
C506 C507 1.363 . S
C506 H509 0.929 . S
C507 C506 1.363 . S
C507 C513 1.428 . S
H508 C504 0.930 . S
H509 C506 0.929 . S
S510 N511 1.613 1_655 S
S510 N512 1.610 . S
N511 S510 1.613 1_455 S
N511 C514 1.350 1_455 S
N512 S510 1.610 . S
N512 C513 1.351 . S
C513 C507 1.428 . S
C513 N512 1.351 . S
C513 C514 1.434 . S
C514 C505 1.429 . S
C514 N511 1.350 1_655 S
C514 C513 1.434 . S
C515 C516 1.368 1_545 S
C515 C517 1.405 1_545 S
C515 H519 0.946 . S
C516 C515 1.368 1_565 S
C516 C525 1.429 . S
C517 C515 1.405 1_565 S
C517 C518 1.363 . S
C517 H520 0.929 . S
C518 C517 1.363 . S
C518 C524 1.428 . S
H519 C515 0.946 . S
H520 C517 0.929 . S
S521 N522 1.613 . S
S521 N523 1.610 . S
N522 S521 1.613 . S
N522 C525 1.350 . S
N523 S521 1.610 . S
N523 C524 1.351 . S
C524 C518 1.428 . S
C524 N523 1.351 . S
C524 C525 1.434 . S
C525 C516 1.429 . S
C525 N522 1.350 . S
C525 C524 1.434 . S
C526 C527 1.369 . S
C526 C528 1.419 . S
C526 H530 0.930 . S
C527 C526 1.369 . S
C527 C536 1.429 . S
C528 C526 1.419 . S
C528 C529 1.363 . S
C528 H531 0.929 . S
C529 C528 1.363 . S
C529 C535 1.428 . S
H530 C526 0.930 . S
H531 C528 0.929 . S
S532 N533 1.613 . S
S532 N534 1.610 . S
N533 S532 1.613 . S
N533 C536 1.350 . S
N534 S532 1.610 . S
N534 C535 1.351 . S
C535 C529 1.428 . S
C535 N534 1.351 . S
C535 C536 1.434 . S
C536 C527 1.429 . S
C536 N533 1.350 . S
C536 C535 1.434 . S
C537 C538 1.369 . S
C537 C539 1.419 . S
C537 H541 0.930 . S
C538 C537 1.369 . S
C538 C547 1.429 . S
C539 C537 1.419 . S
C539 C540 1.363 . S
C539 H542 0.929 . S
C540 C539 1.363 . S
C540 C546 1.428 . S
H541 C537 0.930 . S
H542 C539 0.929 . S
S543 N544 1.613 . S
S543 N545 1.610 . S
N544 S543 1.613 . S
N544 C547 1.350 . S
N545 S543 1.610 . S
N545 C546 1.351 . S
C546 C540 1.428 . S
C546 N545 1.351 . S
C546 C547 1.434 . S
C547 C538 1.429 . S
C547 N544 1.350 . S
C547 C546 1.434 . S
C548 C549 1.369 1_655 S
C548 C550 1.419 1_655 S
C548 H552 0.930 . S
C549 C548 1.369 1_455 S
C549 C558 1.429 . S
C550 C548 1.419 1_455 S
C550 C551 1.363 . S
C550 H553 0.929 . S
C551 C550 1.363 . S
C551 C557 1.428 . S
H552 C548 0.930 . S
H553 C550 0.929 . S
S554 N555 1.613 . S
S554 N556 1.610 . S
N555 S554 1.613 . S
N555 C558 1.350 . S
N556 S554 1.610 . S
N556 C557 1.351 . S
C557 C551 1.428 . S
C557 N556 1.351 . S
C557 C558 1.434 . S
C558 C549 1.429 . S
C558 N555 1.350 . S
C558 C557 1.434 . S
C559 C560 1.369 . S
C559 C561 1.421 . S
C559 H563 0.928 1_545 S
C560 C559 1.369 . S
C560 C569 1.429 . S
C561 C559 1.421 . S
C561 C562 1.363 . S
C561 H564 0.929 . S
C562 C561 1.363 . S
C562 C568 1.428 . S
H563 C559 0.928 1_565 S
H564 C561 0.929 . S
S565 N566 1.613 . S
S565 N567 1.610 . S
N566 S565 1.613 . S
N566 C569 1.350 . S
N567 S565 1.610 . S
N567 C568 1.351 . S
C568 C562 1.428 . S
C568 N567 1.351 . S
C568 C569 1.434 . S
C569 C560 1.429 . S
C569 N566 1.350 . S
C569 C568 1.434 . S
C570 C571 1.369 . S
C570 C572 1.419 . S
C570 H574 0.930 . S
C571 C570 1.369 . S
C571 C580 1.429 . S
C572 C570 1.419 . S
C572 C573 1.363 . S
C572 H575 0.929 . S
C573 C572 1.363 . S
C573 C579 1.428 . S
H574 C570 0.930 . S
H575 C572 0.929 . S
S576 N577 1.613 . S
S576 N578 1.610 . S
N577 S576 1.613 . S
N577 C580 1.350 . S
N578 S576 1.610 . S
N578 C579 1.351 . S
C579 C573 1.428 . S
C579 N578 1.351 . S
C579 C580 1.434 . S
C580 C571 1.429 . S
C580 N577 1.350 . S
C580 C579 1.434 . S
C581 C582 1.369 . S
C581 C583 1.419 . S
C581 H585 0.930 . S
C582 C581 1.369 . S
C582 C591 1.429 . S
C583 C581 1.419 . S
C583 C584 1.363 . S
C583 H586 0.929 . S
C584 C583 1.363 . S
C584 C590 1.428 . S
H585 C581 0.930 . S
H586 C583 0.929 . S
S587 N588 1.613 . S
S587 N589 1.610 . S
N588 S587 1.613 . S
N588 C591 1.350 . S
N589 S587 1.610 . S
N589 C590 1.351 . S
C590 C584 1.428 . S
C590 N589 1.351 . S
C590 C591 1.434 . S
C591 C582 1.429 . S
C591 N588 1.350 . S
C591 C590 1.434 . S
C592 C593 1.369 . S
C592 C594 1.419 . S
C592 H596 0.930 . S
C593 C592 1.369 . S
C593 C602 1.429 1_455 S
C594 C592 1.419 . S
C594 C595 1.363 . S
C594 H597 0.929 . S
C595 C594 1.363 . S
C595 C601 1.428 1_455 S
H596 C592 0.930 . S
H597 C594 0.929 . S
S598 N599 1.613 . S
S598 N600 1.610 . S
N599 S598 1.613 . S
N599 C602 1.350 . S
N600 S598 1.610 . S
N600 C601 1.351 . S
C601 C595 1.428 1_655 S
C601 N600 1.351 . S
C601 C602 1.434 . S
C602 C593 1.429 1_655 S
C602 N599 1.350 . S
C602 C601 1.434 . S
C603 C604 1.369 1_565 S
C603 C605 1.419 . S
C603 H607 0.930 . S
C604 C603 1.369 1_545 S
C604 C613 1.429 . S
C605 C603 1.419 . S
C605 C606 1.363 1_565 S
C605 H608 0.929 . S
C606 C605 1.363 1_545 S
C606 C612 1.428 . S
H607 C603 0.930 . S
H608 C605 0.929 . S
S609 N610 1.613 . S
S609 N611 1.610 . S
N610 S609 1.613 . S
N610 C613 1.350 . S
N611 S609 1.610 . S
N611 C612 1.351 . S
C612 C606 1.428 . S
C612 N611 1.351 . S
C612 C613 1.434 . S
C613 C604 1.429 . S
C613 N610 1.350 . S
C613 C612 1.434 . S
C614 C615 1.369 . S
C614 C616 1.419 . S
C614 H618 0.930 . S
C615 C614 1.369 . S
C615 C624 1.429 . S
C616 C614 1.419 . S
C616 C617 1.363 . S
C616 H619 0.929 . S
C617 C616 1.363 . S
C617 C623 1.428 . S
H618 C614 0.930 . S
H619 C616 0.929 . S
S620 N621 1.613 . S
S620 N622 1.610 . S
N621 S620 1.613 . S
N621 C624 1.350 . S
N622 S620 1.610 . S
N622 C623 1.351 . S
C623 C617 1.428 . S
C623 N622 1.351 . S
C623 C624 1.434 . S
C624 C615 1.429 . S
C624 N621 1.350 . S
C624 C623 1.434 . S
C625 C626 1.369 . S
C625 C627 1.419 . S
C625 H629 0.930 . S
C626 C625 1.369 . S
C626 C635 1.429 . S
C627 C625 1.419 . S
C627 C628 1.363 . S
C627 H630 0.929 . S
C628 C627 1.363 . S
C628 C634 1.428 . S
H629 C625 0.930 . S
H630 C627 0.929 . S
S631 N632 1.613 . S
S631 N633 1.610 . S
N632 S631 1.613 . S
N632 C635 1.350 . S
N633 S631 1.610 . S
N633 C634 1.351 . S
C634 C628 1.428 . S
C634 N633 1.351 . S
C634 C635 1.434 . S
C635 C626 1.429 . S
C635 N632 1.350 . S
C635 C634 1.434 . S
C636 C637 1.369 . S
C636 C638 1.419 . S
C636 H640 0.930 . S
C637 C636 1.369 . S
C637 C646 1.429 1_655 S
C638 C636 1.419 . S
C638 C639 1.363 . S
C638 H641 0.929 . S
C639 C638 1.363 . S
C639 C645 1.428 1_655 S
H640 C636 0.930 . S
H641 C638 0.929 . S
S642 N643 1.613 . S
S642 N644 1.610 . S
N643 S642 1.613 . S
N643 C646 1.350 . S
N644 S642 1.610 . S
N644 C645 1.351 . S
C645 C639 1.428 1_455 S
C645 N644 1.351 . S
C645 C646 1.434 . S
C646 C637 1.429 1_455 S
C646 N643 1.350 . S
C646 C645 1.434 . S
C647 C648 1.369 . S
C647 C649 1.419 . S
C647 H651 0.930 1_565 S
C648 C647 1.369 . S
C648 C657 1.429 . S
C649 C647 1.419 . S
C649 C650 1.363 . S
C649 H652 0.929 . S
C650 C649 1.363 . S
C650 C656 1.428 . S
H651 C647 0.930 1_545 S
H652 C649 0.929 . S
S653 N654 1.613 . S
S653 N655 1.610 . S
N654 S653 1.613 . S
N654 C657 1.350 . S
N655 S653 1.610 . S
N655 C656 1.351 . S
C656 C650 1.428 . S
C656 N655 1.351 . S
C656 C657 1.434 . S
C657 C648 1.429 . S
C657 N654 1.350 . S
C657 C656 1.434 . S
C658 C659 1.369 . S
C658 C660 1.419 . S
C658 H662 0.930 . S
C659 C658 1.369 . S
C659 C668 1.429 . S
C660 C658 1.419 . S
C660 C661 1.363 . S
C660 H663 0.929 . S
C661 C660 1.363 . S
C661 C667 1.428 . S
H662 C658 0.930 . S
H663 C660 0.929 . S
S664 N665 1.613 . S
S664 N666 1.610 . S
N665 S664 1.613 . S
N665 C668 1.350 . S
N666 S664 1.610 . S
N666 C667 1.351 . S
C667 C661 1.428 . S
C667 N666 1.351 . S
C667 C668 1.434 . S
C668 C659 1.429 . S
C668 N665 1.350 . S
C668 C667 1.434 . S
C669 C670 1.369 . S
C669 C671 1.419 . S
C669 H673 0.930 . S
C670 C669 1.369 . S
C670 C679 1.429 . S
C671 C669 1.419 . S
C671 C672 1.363 . S
C671 H674 0.929 . S
C672 C671 1.363 . S
C672 C678 1.428 . S
H673 C669 0.930 . S
H674 C671 0.929 . S
S675 N676 1.613 . S
S675 N677 1.610 . S
N676 S675 1.613 . S
N676 C679 1.350 . S
N677 S675 1.610 . S
N677 C678 1.351 . S
C678 C672 1.428 . S
C678 N677 1.351 . S
C678 C679 1.434 . S
C679 C670 1.429 . S
C679 N676 1.350 . S
C679 C678 1.434 . S
C417 C215 2.320 . S
C419 C265 2.607 1_545 S
C430 C305 2.628 . S
C428 C247 2.314 . S
C441 C345 2.633 . S
C439 C151 2.332 . S
C452 C385 2.614 1_455 S
C450 C183 2.330 . S
C463 C274 2.608 1_564 S
C461 C87 2.320 1_565 S
C472 C119 2.353 . S
C474 C314 2.629 1_554 S
C483 C23 2.369 . S
C485 C354 2.633 1_554 S
C494 C55 2.324 1_655 S
C496 C394 2.614 1_654 S
C507 C271 0.817 . S
C505 C189 0.861 1_655 S
C518 C311 0.824 . S
C516 C221 0.847 1_565 S
C529 C351 0.782 . S
C527 C253 0.806 . S
C538 C157 0.811 . S
C540 C391 0.798 . S
C549 C61 0.779 . S
C551 C262 0.832 . S
C562 C302 0.821 . S
C560 C93 0.777 . S
C573 C342 0.797 . S
C571 C125 0.760 . S
C582 C29 0.794 . S
C584 C382 0.784 . S
C593 C177 2.845 . S
C595 C275 3.269 . S
C604 C209 2.808 . S
C606 C315 3.237 . S
C617 C355 3.226 . S
C615 C241 2.781 . S
C628 C395 3.264 . S
C626 C145 2.821 . S
C637 C49 2.896 1_655 S
C639 C266 3.277 . S
C650 C306 3.236 . S
C648 C81 2.860 1_565 S
C661 C346 3.223 . S
C659 C113 2.862 . S
C670 C17 2.893 . S
C672 C386 3.268 . S
