# Generated by pormake.
# Topology pto, (3,4)-cn, num edge types: 1
# Building blocks:
#     Node 0, Type 0, BuildingBlock: BETDIP_clean_linker_0, # of connection points: 3
#     Node 1, Type 0, BuildingBlock: BETDIP_clean_linker_0, # of connection points: 3
#     Node 2, Type 0, BuildingBlock: BETDIP_clean_linker_0, # of connection points: 3
#     Node 3, Type 0, BuildingBlock: BETDIP_clean_linker_0, # of connection points: 3
#     Node 4, Type 0, BuildingBlock: BETDIP_clean_linker_0, # of connection points: 3
#     Node 5, Type 0, BuildingBlock: BETDIP_clean_linker_0, # of connection points: 3
#     Node 6, Type 0, BuildingBlock: BETDIP_clean_linker_0, # of connection points: 3
#     Node 7, Type 0, BuildingBlock: BETDIP_clean_linker_0, # of connection points: 3
#     Node 8, Type 1, BuildingBlock: NAWXER_clean_sbu_0, # of connection points: 4
#     Node 9, Type 1, BuildingBlock: NAWXER_clean_sbu_0, # of connection points: 4
#     Node 10, Type 1, BuildingBlock: NAWXER_clean_sbu_0, # of connection points: 4
#     Node 11, Type 1, BuildingBlock: NAWXER_clean_sbu_0, # of connection points: 4
#     Node 12, Type 1, BuildingBlock: NAWXER_clean_sbu_0, # of connection points: 4
#     Node 13, Type 1, BuildingBlock: NAWXER_clean_sbu_0, # of connection points: 4
#     Edge 14, Type (0, 1), BuildingBlock: UVAHIK_clean_linker_0, # of connection points: 2
#     Edge 15, Type (0, 1), BuildingBlock: UVAHIK_clean_linker_0, # of connection points: 2
#     Edge 16, Type (0, 1), BuildingBlock: UVAHIK_clean_linker_0, # of connection points: 2
#     Edge 17, Type (0, 1), BuildingBlock: UVAHIK_clean_linker_0, # of connection points: 2
#     Edge 18, Type (0, 1), BuildingBlock: UVAHIK_clean_linker_0, # of connection points: 2
#     Edge 19, Type (0, 1), BuildingBlock: UVAHIK_clean_linker_0, # of connection points: 2
#     Edge 20, Type (0, 1), BuildingBlock: UVAHIK_clean_linker_0, # of connection points: 2
#     Edge 21, Type (0, 1), BuildingBlock: UVAHIK_clean_linker_0, # of connection points: 2
#     Edge 22, Type (0, 1), BuildingBlock: UVAHIK_clean_linker_0, # of connection points: 2
#     Edge 23, Type (0, 1), BuildingBlock: UVAHIK_clean_linker_0, # of connection points: 2
#     Edge 24, Type (0, 1), BuildingBlock: UVAHIK_clean_linker_0, # of connection points: 2
#     Edge 25, Type (0, 1), BuildingBlock: UVAHIK_clean_linker_0, # of connection points: 2
#     Edge 26, Type (0, 1), BuildingBlock: UVAHIK_clean_linker_0, # of connection points: 2
#     Edge 27, Type (0, 1), BuildingBlock: UVAHIK_clean_linker_0, # of connection points: 2
#     Edge 28, Type (0, 1), BuildingBlock: UVAHIK_clean_linker_0, # of connection points: 2
#     Edge 29, Type (0, 1), BuildingBlock: UVAHIK_clean_linker_0, # of connection points: 2
#     Edge 30, Type (0, 1), BuildingBlock: UVAHIK_clean_linker_0, # of connection points: 2
#     Edge 31, Type (0, 1), BuildingBlock: UVAHIK_clean_linker_0, # of connection points: 2
#     Edge 32, Type (0, 1), BuildingBlock: UVAHIK_clean_linker_0, # of connection points: 2
#     Edge 33, Type (0, 1), BuildingBlock: UVAHIK_clean_linker_0, # of connection points: 2
#     Edge 34, Type (0, 1), BuildingBlock: UVAHIK_clean_linker_0, # of connection points: 2
#     Edge 35, Type (0, 1), BuildingBlock: UVAHIK_clean_linker_0, # of connection points: 2
#     Edge 36, Type (0, 1), BuildingBlock: UVAHIK_clean_linker_0, # of connection points: 2
#     Edge 37, Type (0, 1), BuildingBlock: UVAHIK_clean_linker_0, # of connection points: 2
# Relax obj value: 0.015
# Max RMSD: 0.146
# Mean RMSD: 0.064
data_MOF--net-pto--node1-NAWXER_clean_sbu_0--node2-BETDIP_clean_linker_0--edge1-UVAHIK_clean_linker_0
_symmetry_space_group_name_H-M    P1
_symmetry_Int_Tables_number       1
_symmetry_cell_setting            triclinic
loop_
_symmetry_equiv_pos_as_xyz
'x, y, z'
_cell_length_a     55.075684
_cell_length_b     52.527793
_cell_length_c     49.718178
_cell_angle_alpha  100.87532
_cell_angle_beta   100.71936
_cell_angle_gamma 102.13654
loop_
_atom_site_label
_atom_site_type_symbol
_atom_site_fract_x
_atom_site_fract_y
_atom_site_fract_z
_atom_type_partial_charge
H0 H 0.21794 0.32339 0.31145 0.0
H1 H 0.27535 0.29467 0.27673 0.0
H2 H 0.24292 0.35277 0.24305 0.0
H3 H 0.28971 0.29379 0.32327 0.0
C4 C 0.27165 0.28457 0.32748 0.0
C5 C 0.23003 0.32404 0.29659 0.0
C6 C 0.22826 0.3406 0.27746 0.0
C7 C 0.2475 0.30824 0.29706 0.0
C8 C 0.26235 0.30752 0.27703 0.0
C9 C 0.26047 0.3232 0.25718 0.0
C10 C 0.2438 0.34012 0.25788 0.0
N11 N 0.24931 0.2927 0.31747 0.0
H12 H 0.25434 0.74263 0.67704 0.0
H13 H 0.33032 0.78984 0.71905 0.0
H14 H 0.28959 0.73427 0.75856 0.0
H15 H 0.33258 0.79571 0.67588 0.0
C16 C 0.31341 0.79704 0.66719 0.0
C17 C 0.27059 0.748 0.69494 0.0
C18 C 0.26955 0.73565 0.71752 0.0
C19 C 0.29245 0.76731 0.69513 0.0
C20 C 0.31348 0.77464 0.71845 0.0
C21 C 0.31276 0.76266 0.74141 0.0
C22 C 0.29072 0.74307 0.74064 0.0
N23 N 0.29187 0.78022 0.67245 0.0
H24 H 0.81708 0.79125 0.2542 0.0
H25 H 0.86506 0.83381 0.33546 0.0
H26 H 0.81133 0.86966 0.29271 0.0
H27 H 0.89075 0.80885 0.32546 0.0
C28 C 0.87952 0.79031 0.31074 0.0
C29 C 0.82342 0.80916 0.27119 0.0
C30 C 0.81097 0.82997 0.27093 0.0
C31 C 0.84381 0.8109 0.29367 0.0
C32 C 0.85095 0.83317 0.31692 0.0
C33 C 0.83891 0.85423 0.31697 0.0
C34 C 0.81975 0.85285 0.29337 0.0
N35 N 0.85588 0.78939 0.29268 0.0
H36 H 0.7431 0.2669 0.87176 0.0
H37 H 0.76471 0.3533 0.88948 0.0
H38 H 0.78825 0.30699 0.82309 0.0
H39 H 0.75083 0.35158 0.92817 0.0
C40 C 0.73701 0.33249 0.92451 0.0
C41 C 0.75303 0.28528 0.86747 0.0
C42 C 0.76558 0.28408 0.84538 0.0
C43 C 0.75253 0.31003 0.88362 0.0
C44 C 0.76516 0.33395 0.87773 0.0
C45 C 0.77789 0.33289 0.85569 0.0
C46 C 0.77797 0.30791 0.83971 0.0
N47 N 0.73797 0.3098 0.90442 0.0
H48 H 0.77714 0.76549 0.83884 0.0
H49 H 0.81453 0.80122 0.78158 0.0
H50 H 0.74133 0.81322 0.79067 0.0
H51 H 0.8499 0.79554 0.80809 0.0
C52 C 0.84376 0.77792 0.81595 0.0
C53 C 0.77716 0.77752 0.82335 0.0
C54 C 0.75648 0.78855 0.81599 0.0
C55 C 0.79839 0.78246 0.81167 0.0
C56 C 0.79871 0.79816 0.79164 0.0
C57 C 0.7781 0.80932 0.78382 0.0
C58 C 0.75715 0.80447 0.79626 0.0
N59 N 0.81863 0.77064 0.82014 0.0
H60 H 0.70401 0.29765 0.36799 0.0
H61 H 0.78372 0.30285 0.37106 0.0
H62 H 0.74425 0.34777 0.32289 0.0
H63 H 0.78283 0.29154 0.41259 0.0
C64 C 0.76447 0.27717 0.4086 0.0
C65 C 0.72143 0.30581 0.362 0.0
C66 C 0.72155 0.32397 0.34456 0.0
C67 C 0.74387 0.29859 0.37237 0.0
C68 C 0.76648 0.30899 0.36428 0.0
C69 C 0.76657 0.32654 0.34618 0.0
C70 C 0.74416 0.3341 0.33675 0.0
N71 N 0.74282 0.28022 0.39009 0.0
H72 H 0.19273 0.3184 0.7853 0.0
H73 H 0.26647 0.3068 0.81732 0.0
H74 H 0.24546 0.37642 0.85623 0.0
H75 H 0.2627 0.28734 0.77259 0.0
C76 C 0.24271 0.27653 0.76495 0.0
C77 C 0.21115 0.32542 0.80019 0.0
C78 C 0.21653 0.34896 0.82165 0.0
C79 C 0.22945 0.31073 0.79767 0.0
C80 C 0.25296 0.31903 0.81775 0.0
C81 C 0.25896 0.3427 0.83904 0.0
C82 C 0.24069 0.35764 0.84056 0.0
N83 N 0.22368 0.28758 0.77503 0.0
H84 H 0.27828 0.80704 0.22281 0.0
H85 H 0.2448 0.72888 0.16736 0.0
H86 H 0.19915 0.76747 0.21379 0.0
H87 H 0.2855 0.72644 0.17515 0.0
C88 C 0.29618 0.74631 0.17512 0.0
C89 C 0.26174 0.7903 0.21326 0.0
C90 C 0.23836 0.79019 0.22103 0.0
C91 C 0.26441 0.7683 0.1941 0.0
C92 C 0.24332 0.74598 0.18237 0.0
C93 C 0.21987 0.74564 0.18962 0.0
C94 C 0.21739 0.76793 0.2084 0.0
N95 N 0.28841 0.76928 0.18695 0.0
C96 C 0.96957 0.48648 0.26073 0.0
C97 C 0.02884 0.54343 0.22189 0.0
O98 O 0.9878 0.50314 0.28 0.0
Zn99 Zn 0.02059 0.53494 0.28224 0.0
O100 O 0.96843 0.48693 0.23507 0.0
Zn101 Zn 0.99855 0.51554 0.24106 0.0
O102 O 0.02882 0.49801 0.25721 0.0
O103 O 0.0486 0.5228 0.29993 0.0
O104 O 0.00829 0.52609 0.20844 0.0
O105 O 0.03525 0.54828 0.24884 0.0
O106 O 0.01361 0.56657 0.30274 0.0
O107 O 0.98757 0.55001 0.26072 0.0
C108 C 0.04647 0.50296 0.27978 0.0
C109 C 0.99493 0.56774 0.28414 0.0
C110 C 0.97683 0.52016 0.79809 0.0
C111 C 0.04892 0.57629 0.77488 0.0
O112 O 0.99376 0.53492 0.81983 0.0
Zn113 Zn 0.0297 0.56401 0.82954 0.0
O114 O 0.9802 0.52094 0.77361 0.0
Zn115 Zn 0.01264 0.54764 0.78548 0.0
O116 O 0.03791 0.5268 0.80424 0.0
O117 O 0.05296 0.54667 0.84933 0.0
O118 O 0.02957 0.55973 0.75761 0.0
O119 O 0.05073 0.57937 0.80145 0.0
O120 O 0.02173 0.59585 0.84923 0.0
O121 O 0.00182 0.58227 0.80425 0.0
C122 C 0.05208 0.52815 0.8283 0.0
C123 C 0.00624 0.59869 0.82825 0.0
C124 C 0.27202 0.00617 0.52865 0.0
C125 C 0.26461 0.07619 0.47853 0.0
O126 O 0.24868 0.0058 0.51873 0.0
Zn127 Zn 0.22808 0.02782 0.49475 0.0
O128 O 0.28988 0.02382 0.52487 0.0
Zn129 Zn 0.26853 0.04142 0.50376 0.0
O130 O 0.25081 0.05987 0.53444 0.0
O131 O 0.20914 0.04274 0.52031 0.0
O132 O 0.28487 0.07137 0.49099 0.0
O133 O 0.24274 0.06158 0.47843 0.0
O134 O 0.20982 0.00034 0.4609 0.0
O135 O 0.25149 0.01178 0.46497 0.0
C136 C 0.22828 0.05883 0.53834 0.0
C137 C 0.22915 0.99771 0.45115 0.0
C138 C 0.5845 0.81209 0.06158 0.0
C139 C 0.51701 0.81504 0.98439 0.0
O140 O 0.5719 0.7888 0.04656 0.0
Zn141 Zn 0.53944 0.77158 0.01197 0.0
O142 O 0.5774 0.83268 0.05691 0.0
Zn143 Zn 0.54923 0.81434 0.02468 0.0
O144 O 0.52057 0.79508 0.0428 0.0
O145 O 0.5137 0.75147 0.02737 0.0
O146 O 0.53105 0.83498 0.00362 0.0
O147 O 0.51846 0.79119 0.98535 0.0
O148 O 0.55487 0.75282 0.98521 0.0
O149 O 0.56827 0.797 0.99431 0.0
C150 C 0.50854 0.77122 0.04221 0.0
C151 C 0.56876 0.7737 0.98105 0.0
C152 C 0.78207 0.99908 0.60887 0.0
C153 C 0.77526 0.07262 0.56247 0.0
O154 O 0.76227 0.00148 0.59274 0.0
Zn155 Zn 0.77787 0.03525 0.58494 0.0
O156 O 0.80318 0.01698 0.61379 0.0
Zn157 Zn 0.81761 0.05376 0.60274 0.0
O158 O 0.82853 0.07912 0.63902 0.0
O159 O 0.78673 0.06234 0.62542 0.0
O160 O 0.79783 0.07505 0.57698 0.0
O161 O 0.75744 0.05231 0.56128 0.0
O162 O 0.80319 0.02458 0.55959 0.0
O163 O 0.84291 0.04532 0.58255 0.0
C164 C 0.80643 0.07765 0.64376 0.0
C165 C 0.82722 0.02961 0.56076 0.0
C166 C 0.52926 0.36796 0.14295 0.0
C167 C 0.47922 0.37827 0.05552 0.0
O168 O 0.5177 0.3456 0.12529 0.0
Zn169 Zn 0.49321 0.33146 0.0839 0.0
O170 O 0.52714 0.38981 0.13646 0.0
Zn171 Zn 0.50475 0.37406 0.09931 0.0
O172 O 0.47036 0.35437 0.10871 0.0
O173 O 0.46231 0.31088 0.09079 0.0
O174 O 0.49207 0.39695 0.07674 0.0
O175 O 0.47852 0.35378 0.05579 0.0
O176 O 0.51337 0.31329 0.06299 0.0
O177 O 0.52927 0.35715 0.07631 0.0
C178 C 0.45612 0.33062 0.10437 0.0
C179 C 0.53057 0.33396 0.06372 0.0
C180 C 0.19796 0.36371 0.25314 0.0
C181 C 0.21026 0.35825 0.27806 0.0
C182 C 0.1809 0.37999 0.2538 0.0
C183 C 0.15884 0.4282 0.30358 0.0
H184 H 0.10201 0.41384 0.23914 0.0
C185 C 0.09018 0.49734 0.2969 0.0
C186 C 0.06479 0.48619 0.28162 0.0
C187 C 0.10801 0.48193 0.29684 0.0
C188 C 0.11746 0.41793 0.25759 0.0
H189 H 0.21441 0.36646 0.32342 0.0
H190 H 0.18339 0.39281 0.32425 0.0
H191 H 0.13213 0.3864 0.23857 0.0
H192 H 0.03777 0.45003 0.25526 0.0
H193 H 0.06828 0.4226 0.25658 0.0
H194 H 0.14317 0.45851 0.32339 0.0
C195 C 0.18747 0.38532 0.3042 0.0
C196 C 0.13519 0.40246 0.25701 0.0
C197 C 0.20499 0.36961 0.30363 0.0
C198 C 0.05733 0.45916 0.26701 0.0
C199 C 0.07496 0.44354 0.26756 0.0
C200 C 0.14075 0.44325 0.30445 0.0
C201 C 0.17516 0.3908 0.2793 0.0
C202 C 0.15624 0.40741 0.27993 0.0
C203 C 0.1007 0.45479 0.28208 0.0
C204 C 0.11983 0.43843 0.28142 0.0
H205 H 0.20115 0.35513 0.23294 0.0
H206 H 0.17229 0.3841 0.2342 0.0
H207 H 0.17495 0.4331 0.3215 0.0
H208 H 0.09647 0.51825 0.30809 0.0
H209 H 0.12765 0.4916 0.30783 0.0
C210 C 0.2477 0.69208 0.7262 0.0
C211 C 0.24606 0.71578 0.71762 0.0
C212 C 0.22578 0.67425 0.72822 0.0
C213 C 0.18107 0.65211 0.75133 0.0
H214 H 0.11444 0.63913 0.70119 0.0
C215 C 0.08967 0.61155 0.78464 0.0
C216 C 0.06992 0.59158 0.76502 0.0
C217 C 0.11047 0.62509 0.77626 0.0
C218 C 0.13296 0.64233 0.7152 0.0
H219 H 0.22015 0.73912 0.70385 0.0
H220 H 0.1819 0.70824 0.70784 0.0
H221 H 0.15232 0.66444 0.68991 0.0
H222 H 0.05622 0.57064 0.72097 0.0
H223 H 0.09294 0.59435 0.70627 0.0
H224 H 0.16192 0.62995 0.7765 0.0
C225 C 0.20003 0.70313 0.71248 0.0
C226 C 0.15462 0.65705 0.7089 0.0
C227 C 0.22196 0.72088 0.71028 0.0
C228 C 0.07114 0.58593 0.73658 0.0
C229 C 0.09212 0.59953 0.72816 0.0
C230 C 0.15951 0.63742 0.75756 0.0
C231 C 0.20174 0.67982 0.72194 0.0
C232 C 0.17889 0.66242 0.72713 0.0
C233 C 0.11219 0.61898 0.74805 0.0
C234 C 0.13515 0.63277 0.73988 0.0
H235 H 0.26599 0.68743 0.73155 0.0
H236 H 0.22772 0.65623 0.73505 0.0
H237 H 0.19937 0.65608 0.76602 0.0
H238 H 0.08925 0.61666 0.80667 0.0
H239 H 0.12528 0.64041 0.79199 0.0
C240 C 0.91278 0.76799 0.32829 0.0
C241 C 0.89018 0.76661 0.30898 0.0
C242 C 0.9235 0.74606 0.32687 0.0
C243 C 0.90856 0.67269 0.29698 0.0
H244 H 0.98227 0.68587 0.31035 0.0
C245 C 0.95978 0.58928 0.26946 0.0
C246 C 0.98202 0.58968 0.28892 0.0
C247 C 0.94803 0.61039 0.27322 0.0
C248 C 0.96168 0.68187 0.3069 0.0
H249 H 0.86094 0.74118 0.27297 0.0
H250 H 0.87991 0.70303 0.27005 0.0
H251 H 0.96281 0.72357 0.31391 0.0
H252 H 0.00916 0.61245 0.32781 0.0
H253 H 0.98864 0.6494 0.33431 0.0
H254 H 0.90752 0.63091 0.28943 0.0
C255 C 0.88916 0.72088 0.28668 0.0
C256 C 0.9505 0.70349 0.30896 0.0
C257 C 0.87836 0.74281 0.28823 0.0
C258 C 0.99207 0.61154 0.31242 0.0
C259 C 0.98041 0.63277 0.31607 0.0
C260 C 0.91975 0.65107 0.29474 0.0
C261 C 0.91193 0.72227 0.30593 0.0
C262 C 0.92379 0.69919 0.30399 0.0
C263 C 0.95833 0.63248 0.29642 0.0
C264 C 0.94643 0.65542 0.29963 0.0
H265 H 0.92218 0.78608 0.34459 0.0
H266 H 0.94078 0.74772 0.34234 0.0
H267 H 0.88797 0.66863 0.29347 0.0
H268 H 0.9515 0.57275 0.25112 0.0
H269 H 0.9312 0.60971 0.25756 0.0
C270 C 0.81012 0.37742 0.87067 0.0
C271 C 0.79191 0.35751 0.84932 0.0
C272 C 0.82663 0.39806 0.86381 0.0
C273 C 0.85551 0.4098 0.80503 0.0
H274 H 0.88197 0.4825 0.85068 0.0
C275 C 0.93373 0.48731 0.77897 0.0
C276 C 0.95342 0.50292 0.80206 0.0
C277 C 0.91163 0.47141 0.78325 0.0
C278 C 0.87484 0.46222 0.83779 0.0
H279 H 0.77511 0.34476 0.80441 0.0
H280 H 0.80364 0.38093 0.79246 0.0
H281 H 0.84675 0.45226 0.86129 0.0
H282 H 0.96529 0.51403 0.84778 0.0
H283 H 0.92717 0.48614 0.85512 0.0
H284 H 0.88395 0.41943 0.782 0.0
C285 C 0.80568 0.38027 0.8144 0.0
C286 C 0.85466 0.44493 0.84386 0.0
C287 C 0.78928 0.35965 0.82124 0.0
C288 C 0.9505 0.50232 0.82946 0.0
C289 C 0.9285 0.48649 0.83372 0.0
C290 C 0.87568 0.42705 0.79899 0.0
C291 C 0.8251 0.39917 0.83549 0.0
C292 C 0.84499 0.41842 0.82777 0.0
C293 C 0.90878 0.47084 0.81071 0.0
C294 C 0.88586 0.45333 0.81557 0.0
H295 H 0.81263 0.37612 0.89246 0.0
H296 H 0.84148 0.41222 0.88055 0.0
H297 H 0.84881 0.38935 0.7925 0.0
H298 H 0.93534 0.48742 0.7576 0.0
H299 H 0.89668 0.45971 0.76507 0.0
C300 C 0.24797 0.2509 0.34932 0.0
C301 C 0.27103 0.26432 0.34443 0.0
C302 C 0.24765 0.23115 0.36461 0.0
C303 C 0.28854 0.20635 0.41562 0.0
H304 H 0.23554 0.13989 0.38665 0.0
C305 C 0.28952 0.11319 0.4616 0.0
C306 C 0.26595 0.0984 0.46407 0.0
C307 C 0.29051 0.13387 0.44747 0.0
C308 C 0.25028 0.15845 0.39522 0.0
H309 H 0.31174 0.26798 0.35176 0.0
H310 H 0.31121 0.23338 0.37853 0.0
H311 H 0.23641 0.17549 0.36149 0.0
H312 H 0.22498 0.09404 0.45407 0.0
H313 H 0.22677 0.13027 0.4299 0.0
H314 H 0.30233 0.18935 0.44945 0.0
C315 C 0.29346 0.23824 0.37075 0.0
C316 C 0.25078 0.17883 0.38079 0.0
C317 C 0.29375 0.25792 0.35535 0.0
C318 C 0.24345 0.1049 0.45238 0.0
C319 C 0.24445 0.12559 0.43837 0.0
C320 C 0.28799 0.18599 0.43013 0.0
C321 C 0.27037 0.22452 0.37536 0.0
C322 C 0.26988 0.203 0.39085 0.0
C323 C 0.26796 0.14022 0.43559 0.0
C324 C 0.26881 0.16182 0.42012 0.0
H325 H 0.23014 0.25544 0.34117 0.0
H326 H 0.22962 0.22112 0.36812 0.0
H327 H 0.30333 0.2249 0.42402 0.0
H328 H 0.30719 0.10863 0.47033 0.0
H329 H 0.30891 0.14457 0.44542 0.0
C330 C 0.3422 0.75183 0.78018 0.0
C331 C 0.33476 0.77095 0.7664 0.0
C332 C 0.36278 0.75952 0.80367 0.0
C333 C 0.40396 0.81852 0.85891 0.0
H334 H 0.44779 0.77029 0.86714 0.0
C335 C 0.47842 0.8281 0.9622 0.0
C336 C 0.50003 0.81859 0.95971 0.0
C337 C 0.45962 0.82596 0.93804 0.0
C338 C 0.43607 0.7843 0.86505 0.0
H339 H 0.34298 0.81335 0.76697 0.0
H340 H 0.37954 0.82659 0.80724 0.0
H341 H 0.41266 0.75908 0.82612 0.0
H342 H 0.52016 0.8012 0.93065 0.0
H343 H 0.48828 0.79882 0.88848 0.0
H344 H 0.428 0.8441 0.89764 0.0
C345 C 0.36917 0.80567 0.80015 0.0
C346 C 0.41555 0.77757 0.84167 0.0
C347 C 0.34842 0.798 0.77677 0.0
C348 C 0.50352 0.80859 0.93291 0.0
C349 C 0.4851 0.80695 0.90884 0.0
C350 C 0.42472 0.8254 0.88228 0.0
C351 C 0.37666 0.7865 0.81385 0.0
C352 C 0.39904 0.79441 0.83841 0.0
C353 C 0.46239 0.81452 0.9111 0.0
C354 C 0.44097 0.80828 0.88571 0.0
H355 H 0.33229 0.73079 0.77266 0.0
H356 H 0.36769 0.74424 0.81394 0.0
H357 H 0.39151 0.83187 0.85721 0.0
H358 H 0.47532 0.83558 0.98279 0.0
H359 H 0.44234 0.83184 0.94063 0.0
C360 C 0.82515 0.8875 0.35005 0.0
C361 C 0.84492 0.8769 0.34222 0.0
C362 C 0.83028 0.90873 0.37348 0.0
C363 C 0.87117 0.93912 0.44206 0.0
H364 H 0.83925 0.99747 0.43497 0.0
C365 C 0.86149 0.01597 0.53841 0.0
C366 C 0.836 0.01739 0.53627 0.0
C367 C 0.8689 0.00328 0.51495 0.0
C368 C 0.84849 0.98146 0.43729 0.0
H369 H 0.88571 0.88027 0.35347 0.0
H370 H 0.89445 0.91704 0.39542 0.0
H371 H 0.84081 0.9662 0.3927 0.0
H372 H 0.79854 0.00734 0.50777 0.0
H373 H 0.81139 0.98557 0.4673 0.0
H374 H 0.87737 0.95349 0.48677 0.0
C375 C 0.87506 0.90893 0.38282 0.0
C376 C 0.8494 0.96363 0.41313 0.0
C377 C 0.86999 0.88783 0.35894 0.0
C378 C 0.8183 0.0065 0.51021 0.0
C379 C 0.82573 0.99424 0.48688 0.0
C380 C 0.87015 0.95698 0.46635 0.0
C381 C 0.85523 0.91969 0.39006 0.0
C382 C 0.85975 0.94166 0.4153 0.0
C383 C 0.85102 0.99235 0.48896 0.0
C384 C 0.85774 0.97757 0.46411 0.0
H385 H 0.8055 0.87913 0.33835 0.0
H386 H 0.81454 0.91624 0.37901 0.0
H387 H 0.8792 0.92227 0.44422 0.0
H388 H 0.87552 0.02417 0.55826 0.0
H389 H 0.88851 0.00201 0.51709 0.0
C390 C 0.69882 0.30609 0.93699 0.0
C391 C 0.71692 0.33048 0.94061 0.0
C392 C 0.67936 0.30476 0.95154 0.0
C393 C 0.66065 0.34092 0.01273 0.0
H394 H 0.59194 0.30083 0.97195 0.0
C395 C 0.57194 0.35457 0.0533 0.0
C396 C 0.5522 0.33167 0.05042 0.0
C397 C 0.59244 0.3528 0.04088 0.0
C398 C 0.61107 0.3118 0.98374 0.0
H399 H 0.72907 0.37241 0.96238 0.0
H400 H 0.69489 0.37023 0.98758 0.0
H401 H 0.62719 0.30088 0.94862 0.0
H402 H 0.53859 0.28888 0.03225 0.0
H403 H 0.57454 0.2858 0.01046 0.0
H404 H 0.64444 0.35219 0.04769 0.0
C405 C 0.6959 0.35205 0.97383 0.0
C406 C 0.63129 0.31183 0.97039 0.0
C407 C 0.71539 0.35337 0.9593 0.0
C408 C 0.55347 0.3069 0.03483 0.0
C409 C 0.57399 0.30515 0.02226 0.0
C410 C 0.64044 0.34093 0.02604 0.0
C411 C 0.67755 0.32776 0.96998 0.0
C412 C 0.65628 0.32663 0.98463 0.0
C413 C 0.59371 0.32811 0.0252 0.0
C414 C 0.61538 0.32663 0.0116 0.0
H415 H 0.69954 0.28803 0.92281 0.0
H416 H 0.66576 0.28566 0.94839 0.0
H417 H 0.67972 0.35211 0.02447 0.0
H418 H 0.5716 0.374 0.06513 0.0
H419 H 0.60711 0.37093 0.04318 0.0
C420 C 0.33154 0.83554 0.6481 0.0
C421 C 0.31005 0.81757 0.65121 0.0
C422 C 0.32863 0.85623 0.63472 0.0
C423 C 0.28289 0.89617 0.618 0.0
H424 H 0.32267 0.91568 0.56493 0.0
C425 C 0.25773 0.96648 0.54797 0.0
C426 C 0.27778 0.9857 0.54383 0.0
C427 C 0.26284 0.94671 0.56171 0.0
C428 C 0.31167 0.91068 0.57999 0.0
H429 H 0.2686 0.80654 0.64201 0.0
H430 H 0.26353 0.84238 0.61849 0.0
H431 H 0.32934 0.87909 0.58701 0.0
H432 H 0.31898 0.99926 0.55097 0.0
H433 H 0.32792 0.96469 0.57526 0.0
H434 H 0.26515 0.92759 0.611 0.0
C435 C 0.28266 0.84083 0.62678 0.0
C436 C 0.31546 0.88972 0.59259 0.0
C437 C 0.28557 0.82018 0.64011 0.0
C438 C 0.30311 0.98474 0.55384 0.0
C439 C 0.30823 0.96486 0.56759 0.0
C440 C 0.27913 0.91708 0.60545 0.0
C441 C 0.30415 0.85931 0.62429 0.0
C442 C 0.30089 0.88206 0.61148 0.0
C443 C 0.28812 0.94566 0.57167 0.0
C444 C 0.29326 0.92438 0.58608 0.0
H445 H 0.35062 0.83393 0.65654 0.0
H446 H 0.34555 0.87026 0.63326 0.0
H447 H 0.27176 0.89113 0.63294 0.0
H448 H 0.23799 0.96654 0.54043 0.0
H449 H 0.24691 0.93196 0.56413 0.0
C450 C 0.76825 0.83901 0.25456 0.0
C451 C 0.78815 0.8277 0.24816 0.0
C452 C 0.74712 0.83774 0.23349 0.0
C453 C 0.70615 0.79803 0.16843 0.0
H454 H 0.68991 0.8636 0.15502 0.0
C455 C 0.62176 0.79497 0.07914 0.0
C456 C 0.60808 0.8146 0.08278 0.0
C457 C 0.6443 0.79702 0.09857 0.0
C458 C 0.69383 0.84506 0.15875 0.0
H459 H 0.8008 0.80558 0.21422 0.0
H460 H 0.76296 0.80221 0.17759 0.0
H461 H 0.72815 0.86593 0.19025 0.0
H462 H 0.60709 0.85172 0.1097 0.0
H463 H 0.64578 0.85468 0.14468 0.0
H464 H 0.67138 0.77696 0.13835 0.0
C465 C 0.76432 0.81254 0.19905 0.0
C466 C 0.7159 0.84646 0.17873 0.0
C467 C 0.78585 0.81433 0.22009 0.0
C468 C 0.61734 0.83635 0.10636 0.0
C469 C 0.63965 0.8381 0.12626 0.0
C470 C 0.68378 0.79658 0.14892 0.0
C471 C 0.74496 0.8245 0.20561 0.0
C472 C 0.72224 0.82297 0.18365 0.0
C473 C 0.65349 0.81845 0.12262 0.0
C474 C 0.6773 0.82008 0.14369 0.0
H475 H 0.76875 0.84869 0.27598 0.0
H476 H 0.73218 0.84671 0.23906 0.0
H477 H 0.71053 0.77966 0.17222 0.0
H478 H 0.61531 0.77818 0.06088 0.0
H479 H 0.65463 0.78187 0.09444 0.0
C480 C 0.77398 0.23848 0.84004 0.0
C481 C 0.76585 0.25816 0.82776 0.0
C482 C 0.77685 0.21532 0.82306 0.0
C483 C 0.79891 0.18056 0.78178 0.0
H484 H 0.74947 0.14484 0.71132 0.0
C485 C 0.82219 0.11604 0.6866 0.0
C486 C 0.8028 0.09394 0.66966 0.0
C487 C 0.81739 0.13291 0.70929 0.0
C488 C 0.76334 0.15427 0.73109 0.0
H489 H 0.75323 0.2687 0.78836 0.0
H490 H 0.75807 0.22839 0.75877 0.0
H491 H 0.73987 0.1794 0.7446 0.0
H492 H 0.76379 0.07107 0.6644 0.0
H493 H 0.75563 0.10013 0.70405 0.0
H494 H 0.82255 0.15557 0.76798 0.0
C495 C 0.76227 0.23071 0.7814 0.0
C496 C 0.75791 0.17425 0.75003 0.0
C497 C 0.75966 0.25386 0.79831 0.0
C498 C 0.77903 0.08821 0.67676 0.0
C499 C 0.7743 0.10489 0.69945 0.0
C500 C 0.80441 0.16055 0.76274 0.0
C501 C 0.77126 0.21139 0.79357 0.0
C502 C 0.77582 0.18797 0.77531 0.0
C503 C 0.79316 0.12784 0.7155 0.0
C504 C 0.78681 0.14748 0.73699 0.0
H505 H 0.77899 0.24147 0.86274 0.0
H506 H 0.78365 0.20064 0.83295 0.0
H507 H 0.81315 0.19095 0.80104 0.0
H508 H 0.84071 0.12093 0.68166 0.0
H509 H 0.83228 0.15055 0.72115 0.0
C510 C 0.28975 0.34533 0.23047 0.0
C511 C 0.27621 0.32184 0.23601 0.0
C512 C 0.30609 0.34398 0.21213 0.0
C513 C 0.34415 0.30041 0.18366 0.0
H514 H 0.352 0.34864 0.1339 0.0
C515 C 0.41798 0.3012 0.11426 0.0
C516 C 0.43269 0.32686 0.11527 0.0
C517 C 0.39632 0.29829 0.12552 0.0
C518 C 0.35005 0.33508 0.14775 0.0
H519 H 0.26814 0.27845 0.22557 0.0
H520 H 0.29661 0.27609 0.19354 0.0
H521 H 0.31852 0.34807 0.15992 0.0
H522 H 0.43589 0.36954 0.12841 0.0
H523 H 0.39853 0.36443 0.14803 0.0
H524 H 0.37605 0.28784 0.17196 0.0
C525 C 0.295 0.29557 0.20378 0.0
C526 C 0.33092 0.33479 0.16268 0.0
C527 C 0.2787 0.29693 0.2221 0.0
C528 C 0.42506 0.34945 0.1273 0.0
C529 C 0.40346 0.34654 0.13835 0.0
C530 C 0.36329 0.30069 0.16872 0.0
C531 C 0.30918 0.31909 0.1989 0.0
C532 C 0.32804 0.31781 0.18119 0.0
C533 C 0.3889 0.32098 0.13775 0.0
C534 C 0.36677 0.31841 0.15103 0.0
H535 H 0.28841 0.36481 0.24108 0.0
H536 H 0.31699 0.3625 0.2091 0.0
H537 H 0.34264 0.2873 0.198 0.0
H538 H 0.42335 0.28342 0.10509 0.0
H539 H 0.38537 0.27832 0.12462 0.0
C540 C 0.88678 0.76887 0.8184 0.0
C541 C 0.86212 0.76188 0.823 0.0
C542 C 0.90384 0.75305 0.82365 0.0
C543 C 0.90325 0.68371 0.82627 0.0
H544 H 0.97626 0.71199 0.85706 0.0
C545 C 0.97336 0.62025 0.8078 0.0
C546 C 0.99212 0.6198 0.83103 0.0
C547 C 0.9587 0.63879 0.81009 0.0
C548 C 0.95588 0.70385 0.84872 0.0
H549 H 0.83624 0.7334 0.83775 0.0
H550 H 0.86592 0.70594 0.84696 0.0
H551 H 0.94832 0.74273 0.85606 0.0
H552 H 0.01066 0.63915 0.87474 0.0
H553 H 0.98489 0.67206 0.87863 0.0
H554 H 0.9107 0.64499 0.81851 0.0
C555 C 0.87204 0.72343 0.83896 0.0
C556 C 0.93993 0.72141 0.8479 0.0
C557 C 0.85504 0.73923 0.83373 0.0
C558 C 0.99631 0.63893 0.8565 0.0
C559 C 0.98166 0.65778 0.85871 0.0
C560 C 0.91914 0.66628 0.82691 0.0
C561 C 0.89648 0.7299 0.83356 0.0
C562 C 0.91347 0.71151 0.83636 0.0
C563 C 0.96241 0.65753 0.8356 0.0
C564 C 0.94565 0.67616 0.83769 0.0
H565 H 0.89271 0.78627 0.81019 0.0
H566 H 0.92244 0.75842 0.81902 0.0
H567 H 0.88302 0.67542 0.81699 0.0
H568 H 0.96962 0.60596 0.78778 0.0
H569 H 0.94432 0.63842 0.79178 0.0
C570 C 0.78805 0.33613 0.30788 0.0
C571 C 0.78976 0.33712 0.33661 0.0
C572 C 0.80879 0.3491 0.29889 0.0
C573 C 0.87837 0.38208 0.32085 0.0
H574 H 0.86077 0.42194 0.2651 0.0
C575 C 0.95215 0.4657 0.29686 0.0
C576 C 0.95004 0.46704 0.26856 0.0
C577 C 0.93352 0.44778 0.30445 0.0
C578 C 0.86602 0.41064 0.28037 0.0
H579 H 0.81477 0.35137 0.37836 0.0
H580 H 0.8511 0.37453 0.36276 0.0
H581 H 0.82702 0.39393 0.27972 0.0
H582 H 0.92687 0.45025 0.22597 0.0
H583 H 0.89435 0.41897 0.23925 0.0
H584 H 0.9175 0.39941 0.32181 0.0
C585 C 0.83381 0.36345 0.3471 0.0
C586 C 0.84666 0.39451 0.28875 0.0
C587 C 0.81304 0.35023 0.35608 0.0
C588 C 0.92903 0.44982 0.24797 0.0
C589 C 0.91034 0.43197 0.25559 0.0
C590 C 0.89779 0.39833 0.31251 0.0
C591 C 0.83169 0.36359 0.31846 0.0
C592 C 0.85255 0.38004 0.30912 0.0
C593 C 0.91229 0.43087 0.28394 0.0
C594 C 0.89181 0.41285 0.29222 0.0
H595 H 0.77041 0.32579 0.29239 0.0
H596 H 0.80669 0.34819 0.27661 0.0
H597 H 0.88358 0.37099 0.33634 0.0
H598 H 0.96811 0.47864 0.31326 0.0
H599 H 0.93544 0.44764 0.3265 0.0
C600 C 0.18171 0.3685 0.80015 0.0
C601 C 0.19731 0.36492 0.82424 0.0
C602 C 0.16455 0.38452 0.80275 0.0
C603 C 0.15397 0.44094 0.85085 0.0
H604 H 0.08533 0.41853 0.80328 0.0
C605 C 0.08227 0.50763 0.8567 0.0
C606 C 0.06754 0.50837 0.83067 0.0
C607 C 0.097 0.48892 0.85814 0.0
C608 C 0.10451 0.42523 0.81657 0.0
H609 H 0.20627 0.37468 0.87 0.0
H610 H 0.17674 0.40308 0.87441 0.0
H611 H 0.11308 0.38804 0.80105 0.0
H612 H 0.0569 0.49009 0.78576 0.0
H613 H 0.08273 0.45827 0.7882 0.0
H614 H 0.14575 0.47845 0.86574 0.0
C615 C 0.17801 0.39364 0.85355 0.0
C616 C 0.12037 0.4077 0.8153 0.0
C617 C 0.19497 0.37742 0.85097 0.0
C618 C 0.06783 0.49002 0.80623 0.0
C619 C 0.08256 0.47154 0.80765 0.0
C620 C 0.13817 0.4586 0.85194 0.0
C621 C 0.16272 0.39749 0.82948 0.0
C622 C 0.14537 0.41549 0.83214 0.0
C623 C 0.09731 0.47065 0.83358 0.0
C624 C 0.11337 0.45112 0.83447 0.0
H625 H 0.18322 0.35954 0.77925 0.0
H626 H 0.15321 0.38737 0.7838 0.0
H627 H 0.17324 0.44756 0.86394 0.0
H628 H 0.08242 0.52145 0.87592 0.0
H629 H 0.10799 0.48866 0.87851 0.0
C630 C 0.20258 0.69675 0.18482 0.0
C631 C 0.19854 0.7211 0.17984 0.0
C632 C 0.18198 0.67443 0.17977 0.0
C633 C 0.11215 0.65832 0.17447 0.0
H634 H 0.12051 0.58588 0.1634 0.0
C635 C 0.03576 0.56761 0.18394 0.0
C636 C 0.04573 0.55816 0.20713 0.0
C637 C 0.05215 0.58447 0.17252 0.0
C638 C 0.11781 0.60597 0.16608 0.0
H639 H 0.17018 0.7409 0.16394 0.0
H640 H 0.13416 0.70157 0.1538 0.0
H641 H 0.15339 0.62153 0.15642 0.0
H642 H 0.08042 0.55743 0.23555 0.0
H643 H 0.10901 0.58596 0.21494 0.0
H644 H 0.07654 0.64248 0.18424 0.0
C645 C 0.15309 0.69985 0.16258 0.0
C646 C 0.13673 0.62649 0.16242 0.0
C647 C 0.1737 0.72234 0.16816 0.0
C648 C 0.07229 0.56456 0.21772 0.0
C649 C 0.08863 0.58071 0.20585 0.0
C650 C 0.093 0.63767 0.17753 0.0
C651 C 0.15683 0.6758 0.16917 0.0
C652 C 0.13468 0.65318 0.16771 0.0
C653 C 0.07869 0.59131 0.18361 0.0
C654 C 0.09611 0.61155 0.17435 0.0
H655 H 0.22154 0.69539 0.19414 0.0
H656 H 0.18577 0.65658 0.18567 0.0
H657 H 0.10986 0.67854 0.17913 0.0
H658 H 0.01531 0.56303 0.17556 0.0
H659 H 0.04412 0.59258 0.15545 0.0
C660 C 0.8011 0.84535 0.76395 0.0
C661 C 0.77855 0.82647 0.76314 0.0
C662 C 0.80119 0.86244 0.74554 0.0
C663 C 0.76461 0.87227 0.67916 0.0
H664 H 0.80289 0.94631 0.71017 0.0
C665 C 0.75785 0.95806 0.62096 0.0
C666 C 0.781 0.97673 0.62327 0.0
C667 C 0.75706 0.93832 0.63648 0.0
C668 C 0.7923 0.92564 0.70108 0.0
H669 H 0.73862 0.81013 0.74149 0.0
H670 H 0.73863 0.84041 0.70991 0.0
H671 H 0.80271 0.91459 0.74001 0.0
H672 H 0.82163 0.98859 0.64292 0.0
H673 H 0.82019 0.95433 0.66962 0.0
H674 H 0.75401 0.88364 0.64023 0.0
C675 C 0.75632 0.84186 0.72463 0.0
C676 C 0.79225 0.90741 0.71819 0.0
C677 C 0.75624 0.82471 0.743 0.0
C678 C 0.80339 0.97472 0.64076 0.0
C679 C 0.80258 0.95514 0.65624 0.0
C680 C 0.76458 0.8906 0.66203 0.0
C681 C 0.77873 0.86116 0.72589 0.0
C682 C 0.77856 0.88044 0.70744 0.0
C683 C 0.77938 0.93699 0.65467 0.0
C684 C 0.77861 0.91745 0.67277 0.0
H685 H 0.81858 0.84741 0.7793 0.0
H686 H 0.81891 0.87676 0.7468 0.0
H687 H 0.75404 0.8516 0.67011 0.0
H688 H 0.74027 0.95905 0.60767 0.0
H689 H 0.73886 0.92466 0.63491 0.0
C690 C 0.69937 0.35907 0.33385 0.0
C691 C 0.69815 0.332 0.3334 0.0
C692 C 0.67868 0.36644 0.31942 0.0
C693 C 0.61007 0.34164 0.28173 0.0
H694 H 0.62982 0.39008 0.23505 0.0
C695 C 0.54465 0.34334 0.1782 0.0
C696 C 0.54543 0.36774 0.17022 0.0
C697 C 0.56108 0.34228 0.20271 0.0
C698 C 0.6239 0.37698 0.24834 0.0
H699 H 0.67391 0.29156 0.31887 0.0
H700 H 0.63775 0.3043 0.29332 0.0
H701 H 0.66245 0.38197 0.27025 0.0
H702 H 0.56349 0.41038 0.18232 0.0
H703 H 0.59242 0.4085 0.22534 0.0
H704 H 0.57153 0.33596 0.25896 0.0
C705 C 0.65458 0.31993 0.30509 0.0
C706 C 0.64263 0.3723 0.26857 0.0
C707 C 0.67528 0.31259 0.31968 0.0
C708 C 0.56248 0.39126 0.18785 0.0
C709 C 0.5791 0.39017 0.2124 0.0
C710 C 0.59132 0.3463 0.26145 0.0
C711 C 0.65634 0.34687 0.30409 0.0
C712 C 0.63601 0.35413 0.2851 0.0
C713 C 0.57881 0.36557 0.21986 0.0
C714 C 0.59809 0.36355 0.24407 0.0
H715 H 0.71667 0.3745 0.34465 0.0
H716 H 0.68047 0.3874 0.31961 0.0
H717 H 0.60429 0.32787 0.29443 0.0
H718 H 0.53166 0.32483 0.1652 0.0
H719 H 0.56056 0.32295 0.20758 0.0
C720 C 0.2564 0.24027 0.73684 0.0
C721 C 0.23638 0.25105 0.74331 0.0
C722 C 0.25142 0.21648 0.71638 0.0
C723 C 0.2054 0.17446 0.65273 0.0
H724 H 0.24468 0.12291 0.66588 0.0
C725 C 0.20096 0.08062 0.56605 0.0
C726 C 0.22507 0.07691 0.56349 0.0
C727 C 0.19867 0.09903 0.58928 0.0
C728 C 0.23357 0.13711 0.66184 0.0
H729 H 0.19529 0.24546 0.73338 0.0
H730 H 0.18651 0.20369 0.69707 0.0
H731 H 0.24723 0.16057 0.70428 0.0
H732 H 0.26555 0.08923 0.58368 0.0
H733 H 0.26156 0.12104 0.62378 0.0
H734 H 0.19243 0.15137 0.60994 0.0
C735 C 0.20611 0.21374 0.70803 0.0
C736 C 0.23502 0.15867 0.68384 0.0
C737 C 0.21111 0.23755 0.72885 0.0
C738 C 0.24667 0.09154 0.5849 0.0
C739 C 0.24436 0.10969 0.60809 0.0
C740 C 0.20399 0.15283 0.6306 0.0
C741 C 0.22625 0.20292 0.70168 0.0
C742 C 0.22158 0.17804 0.67935 0.0
C743 C 0.2204 0.11383 0.61053 0.0
C744 C 0.21868 0.13437 0.63472 0.0
H745 H 0.27605 0.25033 0.74762 0.0
H746 H 0.26741 0.20897 0.71167 0.0
H747 H 0.19489 0.18911 0.64859 0.0
H748 H 0.18395 0.06968 0.54988 0.0
H749 H 0.17992 0.10169 0.59063 0.0
C750 C 0.33449 0.77377 0.16355 0.0
C751 C 0.31908 0.74869 0.16324 0.0
C752 C 0.35577 0.77539 0.1517 0.0
C753 C 0.38243 0.73628 0.10011 0.0
H754 H 0.44598 0.78945 0.13765 0.0
C755 C 0.4739 0.74149 0.05723 0.0
C756 C 0.48821 0.76726 0.05798 0.0
C757 C 0.45401 0.73825 0.07126 0.0
C758 C 0.42831 0.77463 0.12674 0.0
H759 H 0.31381 0.70577 0.15054 0.0
H760 H 0.35095 0.70855 0.12993 0.0
H761 H 0.40972 0.78608 0.15959 0.0
H762 H 0.49292 0.80981 0.07432 0.0
H763 H 0.4583 0.80418 0.09827 0.0
H764 H 0.40086 0.72507 0.06706 0.0
C765 C 0.34654 0.72694 0.13906 0.0
C766 C 0.40752 0.77272 0.13934 0.0
C767 C 0.32537 0.72535 0.151 0.0
C768 C 0.4824 0.78964 0.07335 0.0
C769 C 0.46258 0.78641 0.08729 0.0
C770 C 0.4032 0.73825 0.08745 0.0
C771 C 0.36197 0.75198 0.1392 0.0
C772 C 0.38428 0.75363 0.1261 0.0
C773 C 0.44803 0.76071 0.08635 0.0
C774 C 0.42635 0.75759 0.1005 0.0
H775 H 0.3301 0.79214 0.17278 0.0
H776 H 0.3671 0.79498 0.15189 0.0
H777 H 0.3647 0.72156 0.08918 0.0
H778 H 0.47789 0.72383 0.04563 0.0
H779 H 0.44338 0.71815 0.07036 0.0
C780 C 0.73932 0.23619 0.41991 0.0
C781 C 0.76224 0.25597 0.42453 0.0
C782 C 0.73786 0.21628 0.4352 0.0
C783 C 0.76974 0.20175 0.50081 0.0
H784 H 0.73863 0.12715 0.46276 0.0
C785 C 0.79047 0.11638 0.55043 0.0
C786 C 0.77059 0.09351 0.54725 0.0
C787 C 0.78674 0.13611 0.53603 0.0
C788 C 0.74702 0.14793 0.47379 0.0
H789 H 0.80151 0.27044 0.44849 0.0
H790 H 0.79905 0.23582 0.47512 0.0
H791 H 0.73712 0.16189 0.43637 0.0
H792 H 0.73108 0.07355 0.52634 0.0
H793 H 0.72453 0.10829 0.50108 0.0
H794 H 0.77994 0.18792 0.53809 0.0
C795 C 0.78211 0.23576 0.45999 0.0
C796 C 0.74618 0.16783 0.45867 0.0
C797 C 0.78359 0.2555 0.44463 0.0
C798 C 0.74679 0.09092 0.52928 0.0
C799 C 0.74307 0.11074 0.51471 0.0
C800 C 0.77053 0.18193 0.51589 0.0
C801 C 0.75923 0.21593 0.45551 0.0
C802 C 0.75801 0.19492 0.4719 0.0
C803 C 0.76304 0.13361 0.518 0.0
C804 C 0.75968 0.15472 0.50246 0.0
H805 H 0.72254 0.236 0.40448 0.0
H806 H 0.71994 0.20138 0.43137 0.0
H807 H 0.77854 0.22247 0.51178 0.0
H808 H 0.8091 0.11907 0.564 0.0
H809 H 0.80268 0.15318 0.53868 0.0
C810 C 0.30647 0.34764 0.85125 0.0
C811 C 0.28426 0.35168 0.85968 0.0
C812 C 0.32993 0.35471 0.87084 0.0
C813 C 0.36653 0.39682 0.93964 0.0
H814 H 0.39963 0.33902 0.94387 0.0
C815 C 0.44616 0.3998 0.03532 0.0
C816 C 0.46319 0.38379 0.03127 0.0
C817 C 0.42678 0.39983 0.01267 0.0
C818 C 0.39117 0.35572 0.94267 0.0
H819 H 0.26972 0.36699 0.8955 0.0
H820 H 0.31094 0.38008 0.92944 0.0
H821 H 0.36122 0.33193 0.90748 0.0
H822 H 0.47501 0.35718 0.0004 0.0
H823 H 0.44258 0.35871 0.96056 0.0
H824 H 0.39664 0.42083 0.97459 0.0
C825 C 0.30998 0.37135 0.90759 0.0
C826 C 0.36897 0.35149 0.92185 0.0
C827 C 0.28639 0.36388 0.88808 0.0
C828 C 0.46193 0.36956 0.00399 0.0
C829 C 0.44309 0.37017 0.98126 0.0
C830 C 0.3891 0.40127 0.96023 0.0
C831 C 0.33186 0.36643 0.89922 0.0
C832 C 0.35627 0.37186 0.92033 0.0
C833 C 0.42446 0.38426 0.98547 0.0
C834 C 0.40159 0.38065 0.96225 0.0
H835 H 0.30576 0.33893 0.82948 0.0
H836 H 0.34661 0.35093 0.86384 0.0
H837 H 0.35711 0.41289 0.93874 0.0
H838 H 0.44662 0.41067 0.0563 0.0
H839 H 0.41279 0.41079 0.01694 0.0
C840 C 0.24922 0.83917 0.24633 0.0
C841 C 0.236 0.81239 0.24333 0.0
C842 C 0.24707 0.85969 0.2676 0.0
C843 C 0.22598 0.87053 0.33529 0.0
H844 H 0.22968 0.94206 0.32371 0.0
C845 C 0.20629 0.95475 0.4153 0.0
C846 C 0.22654 0.97802 0.42457 0.0
C847 C 0.20558 0.93495 0.39172 0.0
C848 C 0.22857 0.92213 0.32716 0.0
H849 H 0.21044 0.78646 0.2611 0.0
H850 H 0.2054 0.82205 0.29649 0.0
H851 H 0.23221 0.90661 0.28553 0.0
H852 H 0.26121 0.99944 0.41569 0.0
H853 H 0.25953 0.96524 0.37413 0.0
H854 H 0.22175 0.88611 0.37675 0.0
C855 C 0.21801 0.82731 0.28299 0.0
C856 C 0.23025 0.90183 0.30539 0.0
C857 C 0.22052 0.80681 0.26214 0.0
C858 C 0.24542 0.98164 0.40912 0.0
C859 C 0.24442 0.96216 0.38526 0.0
C860 C 0.22382 0.89069 0.35681 0.0
C861 C 0.23139 0.85405 0.28624 0.0
C862 C 0.22917 0.87574 0.3092 0.0
C863 C 0.22478 0.9384 0.37666 0.0
C864 C 0.2253 0.91672 0.35304 0.0
H865 H 0.26116 0.84437 0.23217 0.0
H866 H 0.258 0.87993 0.26959 0.0
H867 H 0.22566 0.85098 0.33944 0.0
H868 H 0.19154 0.95139 0.42687 0.0
H869 H 0.19018 0.91682 0.38541 0.0
C870 C 0.72414 0.8053 0.83901 0.0
C871 C 0.73456 0.78401 0.82951 0.0
C872 C 0.70407 0.8013 0.85253 0.0
C873 C 0.67354 0.75659 0.89234 0.0
H874 H 0.62005 0.79361 0.87968 0.0
C875 C 0.59004 0.74713 0.94935 0.0
C876 C 0.58539 0.77171 0.96092 0.0
C877 C 0.60635 0.74593 0.93086 0.0
C878 C 0.6349 0.78319 0.88349 0.0
H879 H 0.73166 0.74166 0.82621 0.0
H880 H 0.69652 0.73467 0.8498 0.0
H881 H 0.65203 0.79651 0.85169 0.0
H882 H 0.5939 0.81419 0.96177 0.0
H883 H 0.62211 0.81204 0.92975 0.0
H884 H 0.65649 0.74359 0.92445 0.0
C885 C 0.70414 0.75454 0.84713 0.0
C886 C 0.65325 0.7849 0.86751 0.0
C887 C 0.72426 0.75855 0.83361 0.0
C888 C 0.59707 0.79491 0.95332 0.0
C889 C 0.61311 0.79367 0.93476 0.0
C890 C 0.65509 0.75481 0.9083 0.0
C891 C 0.69388 0.77591 0.85685 0.0
C892 C 0.6731 0.77208 0.87213 0.0
C893 C 0.61802 0.76923 0.92337 0.0
C894 C 0.63589 0.76856 0.90443 0.0
H895 H 0.73192 0.82525 0.83661 0.0
H896 H 0.69696 0.81833 0.86022 0.0
H897 H 0.6887 0.74667 0.89662 0.0
H898 H 0.58132 0.72891 0.9548 0.0
H899 H 0.60971 0.72679 0.92229 0.0
loop_
_geom_bond_atom_site_label_1
_geom_bond_atom_site_label_2
_geom_bond_distance
_geom_bond_site_symmetry_2
_ccdc_geom_bond_type
H0 C5 0.930 . S
H1 C8 0.930 . S
H2 C10 0.930 . S
H3 C4 1.016 . S
C4 H3 1.016 . S
C4 N11 1.286 . S
C5 H0 0.930 . S
C5 C6 1.397 . S
C5 C7 1.361 . S
C6 C5 1.397 . S
C6 C10 1.390 . S
C7 C5 1.361 . S
C7 C8 1.393 . S
C7 N11 1.413 . S
C8 H1 0.930 . S
C8 C7 1.393 . S
C8 C9 1.399 . S
C9 C8 1.399 . S
C9 C10 1.381 . S
C10 H2 0.930 . S
C10 C6 1.390 . S
C10 C9 1.381 . S
N11 C4 1.286 . S
N11 C7 1.413 . S
H12 C17 0.930 . S
H13 C20 0.930 . S
H14 C22 0.930 . S
H15 C16 1.016 . S
C16 H15 1.016 . S
C16 N23 1.286 . S
C17 H12 0.930 . S
C17 C18 1.397 . S
C17 C19 1.361 . S
C18 C17 1.397 . S
C18 C22 1.390 . S
C19 C17 1.361 . S
C19 C20 1.393 . S
C19 N23 1.413 . S
C20 H13 0.930 . S
C20 C19 1.393 . S
C20 C21 1.399 . S
C21 C20 1.399 . S
C21 C22 1.381 . S
C22 H14 0.930 . S
C22 C18 1.390 . S
C22 C21 1.381 . S
N23 C16 1.286 . S
N23 C19 1.413 . S
H24 C29 0.930 . S
H25 C32 0.930 . S
H26 C34 0.930 . S
H27 C28 1.016 . S
C28 H27 1.016 . S
C28 N35 1.286 . S
C29 H24 0.930 . S
C29 C30 1.397 . S
C29 C31 1.361 . S
C30 C29 1.397 . S
C30 C34 1.390 . S
C31 C29 1.361 . S
C31 C32 1.393 . S
C31 N35 1.413 . S
C32 H25 0.930 . S
C32 C31 1.393 . S
C32 C33 1.399 . S
C33 C32 1.399 . S
C33 C34 1.381 . S
C34 H26 0.930 . S
C34 C30 1.390 . S
C34 C33 1.381 . S
N35 C28 1.286 . S
N35 C31 1.413 . S
H36 C41 0.930 . S
H37 C44 0.930 . S
H38 C46 0.930 . S
H39 C40 1.016 . S
C40 H39 1.016 . S
C40 N47 1.286 . S
C41 H36 0.930 . S
C41 C42 1.397 . S
C41 C43 1.361 . S
C42 C41 1.397 . S
C42 C46 1.390 . S
C43 C41 1.361 . S
C43 C44 1.393 . S
C43 N47 1.413 . S
C44 H37 0.930 . S
C44 C43 1.393 . S
C44 C45 1.399 . S
C45 C44 1.399 . S
C45 C46 1.381 . S
C46 H38 0.930 . S
C46 C42 1.390 . S
C46 C45 1.381 . S
N47 C40 1.286 . S
N47 C43 1.413 . S
H48 C53 0.930 . S
H49 C56 0.930 . S
H50 C58 0.930 . S
H51 C52 1.016 . S
C52 H51 1.016 . S
C52 N59 1.286 . S
C53 H48 0.930 . S
C53 C54 1.397 . S
C53 C55 1.361 . S
C54 C53 1.397 . S
C54 C58 1.390 . S
C55 C53 1.361 . S
C55 C56 1.393 . S
C55 N59 1.413 . S
C56 H49 0.930 . S
C56 C55 1.393 . S
C56 C57 1.399 . S
C57 C56 1.399 . S
C57 C58 1.381 . S
C58 H50 0.930 . S
C58 C54 1.390 . S
C58 C57 1.381 . S
N59 C52 1.286 . S
N59 C55 1.413 . S
H60 C65 0.930 . S
H61 C68 0.930 . S
H62 C70 0.930 . S
H63 C64 1.016 . S
C64 H63 1.016 . S
C64 N71 1.286 . S
C65 H60 0.930 . S
C65 C66 1.397 . S
C65 C67 1.361 . S
C66 C65 1.397 . S
C66 C70 1.390 . S
C67 C65 1.361 . S
C67 C68 1.393 . S
C67 N71 1.413 . S
C68 H61 0.930 . S
C68 C67 1.393 . S
C68 C69 1.399 . S
C69 C68 1.399 . S
C69 C70 1.381 . S
C70 H62 0.930 . S
C70 C66 1.390 . S
C70 C69 1.381 . S
N71 C64 1.286 . S
N71 C67 1.413 . S
H72 C77 0.930 . S
H73 C80 0.930 . S
H74 C82 0.930 . S
H75 C76 1.016 . S
C76 H75 1.016 . S
C76 N83 1.286 . S
C77 H72 0.930 . S
C77 C78 1.397 . S
C77 C79 1.361 . S
C78 C77 1.397 . S
C78 C82 1.390 . S
C79 C77 1.361 . S
C79 C80 1.393 . S
C79 N83 1.413 . S
C80 H73 0.930 . S
C80 C79 1.393 . S
C80 C81 1.399 . S
C81 C80 1.399 . S
C81 C82 1.381 . S
C82 H74 0.930 . S
C82 C78 1.390 . S
C82 C81 1.381 . S
N83 C76 1.286 . S
N83 C79 1.413 . S
H84 C89 0.930 . S
H85 C92 0.930 . S
H86 C94 0.930 . S
H87 C88 1.016 . S
C88 H87 1.016 . S
C88 N95 1.286 . S
C89 H84 0.930 . S
C89 C90 1.397 . S
C89 C91 1.361 . S
C90 C89 1.397 . S
C90 C94 1.390 . S
C91 C89 1.361 . S
C91 C92 1.393 . S
C91 N95 1.413 . S
C92 H85 0.930 . S
C92 C91 1.393 . S
C92 C93 1.399 . S
C93 C92 1.399 . S
C93 C94 1.381 . S
C94 H86 0.930 . S
C94 C90 1.390 . S
C94 C93 1.381 . S
N95 C88 1.286 . S
N95 C91 1.413 . S
C96 O98 1.247 1_655 S
C96 O100 1.258 . S
C97 O104 1.247 . S
C97 O105 1.258 . S
O98 C96 1.247 1_455 S
O98 Zn99 2.028 . S
Zn99 O98 2.028 . S
Zn99 O103 2.035 . S
Zn99 O105 2.035 . S
Zn99 O106 2.028 . S
O100 C96 1.258 . S
O100 Zn101 2.035 1_655 S
Zn101 O100 2.035 1_455 S
Zn101 O102 2.028 . S
Zn101 O104 2.028 . S
Zn101 O107 2.035 1_455 S
O102 Zn101 2.028 . S
O102 C108 1.247 . S
O103 Zn99 2.035 . S
O103 C108 1.258 . S
O104 C97 1.247 . S
O104 Zn101 2.028 . S
O105 C97 1.258 . S
O105 Zn99 2.035 . S
O106 Zn99 2.028 . S
O106 C109 1.247 1_455 S
O107 Zn101 2.035 1_655 S
O107 C109 1.258 . S
C108 O102 1.247 . S
C108 O103 1.258 . S
C109 O106 1.247 1_655 S
C109 O107 1.258 . S
C110 O112 1.247 . S
C110 O114 1.258 . S
C111 O118 1.247 . S
C111 O119 1.258 . S
O112 C110 1.247 . S
O112 Zn113 2.028 . S
Zn113 O112 2.028 . S
Zn113 O117 2.035 . S
Zn113 O119 2.035 . S
Zn113 O120 2.028 . S
O114 C110 1.258 . S
O114 Zn115 2.035 . S
Zn115 O114 2.035 . S
Zn115 O116 2.028 . S
Zn115 O118 2.028 . S
Zn115 O121 2.035 . S
O116 Zn115 2.028 . S
O116 C122 1.247 . S
O117 Zn113 2.035 . S
O117 C122 1.258 . S
O118 C111 1.247 . S
O118 Zn115 2.028 . S
O119 C111 1.258 . S
O119 Zn113 2.035 . S
O120 Zn113 2.028 . S
O120 C123 1.247 . S
O121 Zn115 2.035 . S
O121 C123 1.258 . S
C122 O116 1.247 . S
C122 O117 1.258 . S
C123 O120 1.247 . S
C123 O121 1.258 . S
C124 O126 1.247 . S
C124 O128 1.258 . S
C125 O132 1.247 . S
C125 O133 1.258 . S
O126 C124 1.247 . S
O126 Zn127 2.028 . S
Zn127 O126 2.028 . S
Zn127 O131 2.035 1_565 S
Zn127 O133 2.035 1_565 S
Zn127 O134 2.028 . S
O128 C124 1.258 . S
O128 Zn129 2.035 1_565 S
Zn129 O128 2.035 1_545 S
Zn129 O130 2.028 . S
Zn129 O132 2.028 . S
Zn129 O135 2.035 1_545 S
O130 Zn129 2.028 . S
O130 C136 1.247 . S
O131 Zn127 2.035 1_545 S
O131 C136 1.258 . S
O132 C125 1.247 . S
O132 Zn129 2.028 . S
O133 C125 1.258 . S
O133 Zn127 2.035 1_545 S
O134 Zn127 2.028 . S
O134 C137 1.247 . S
O135 Zn129 2.035 1_565 S
O135 C137 1.258 . S
C136 O130 1.247 . S
C136 O131 1.258 . S
C137 O134 1.247 . S
C137 O135 1.258 . S
C138 O140 1.247 . S
C138 O142 1.258 . S
C139 O146 1.247 . S
C139 O147 1.258 . S
O140 C138 1.247 . S
O140 Zn141 2.028 1_554 S
Zn141 O140 2.028 1_556 S
Zn141 O145 2.035 1_556 S
Zn141 O147 2.035 . S
Zn141 O148 2.028 . S
O142 C138 1.258 . S
O142 Zn143 2.035 . S
Zn143 O142 2.035 . S
Zn143 O144 2.028 . S
Zn143 O146 2.028 1_554 S
Zn143 O149 2.035 1_554 S
O144 Zn143 2.028 . S
O144 C150 1.247 . S
O145 Zn141 2.035 1_554 S
O145 C150 1.258 . S
O146 C139 1.247 . S
O146 Zn143 2.028 1_556 S
O147 C139 1.258 . S
O147 Zn141 2.035 . S
O148 Zn141 2.028 . S
O148 C151 1.247 . S
O149 Zn143 2.035 1_556 S
O149 C151 1.258 . S
C150 O144 1.247 . S
C150 O145 1.258 . S
C151 O148 1.247 . S
C151 O149 1.258 . S
C152 O154 1.247 . S
C152 O156 1.258 . S
C153 O160 1.247 . S
C153 O161 1.258 . S
O154 C152 1.247 . S
O154 Zn155 2.028 . S
Zn155 O154 2.028 . S
Zn155 O159 2.035 . S
Zn155 O161 2.035 . S
Zn155 O162 2.028 . S
O156 C152 1.258 . S
O156 Zn157 2.035 . S
Zn157 O156 2.035 . S
Zn157 O158 2.028 . S
Zn157 O160 2.028 . S
Zn157 O163 2.035 . S
O158 Zn157 2.028 . S
O158 C164 1.247 . S
O159 Zn155 2.035 . S
O159 C164 1.258 . S
O160 C153 1.247 . S
O160 Zn157 2.028 . S
O161 C153 1.258 . S
O161 Zn155 2.035 . S
O162 Zn155 2.028 . S
O162 C165 1.247 . S
O163 Zn157 2.035 . S
O163 C165 1.258 . S
C164 O158 1.247 . S
C164 O159 1.258 . S
C165 O162 1.247 . S
C165 O163 1.258 . S
C166 O168 1.247 . S
C166 O170 1.258 . S
C167 O174 1.247 . S
C167 O175 1.258 . S
O168 C166 1.247 . S
O168 Zn169 2.028 . S
Zn169 O168 2.028 . S
Zn169 O173 2.035 . S
Zn169 O175 2.035 . S
Zn169 O176 2.028 . S
O170 C166 1.258 . S
O170 Zn171 2.035 . S
Zn171 O170 2.035 . S
Zn171 O172 2.028 . S
Zn171 O174 2.028 . S
Zn171 O177 2.035 . S
O172 Zn171 2.028 . S
O172 C178 1.247 . S
O173 Zn169 2.035 . S
O173 C178 1.258 . S
O174 C167 1.247 . S
O174 Zn171 2.028 . S
O175 C167 1.258 . S
O175 Zn169 2.035 . S
O176 Zn169 2.028 . S
O176 C179 1.247 . S
O177 Zn171 2.035 . S
O177 C179 1.258 . S
C178 O172 1.247 . S
C178 O173 1.258 . S
C179 O176 1.247 . S
C179 O177 1.258 . S
C180 C181 1.349 . S
C180 C182 1.327 . S
C180 H205 0.950 . S
C181 C180 1.349 . S
C181 C197 1.349 . S
C182 C180 1.327 . S
C182 C201 1.429 . S
C182 H206 0.950 . S
C183 C200 1.574 . S
C183 C202 1.368 . S
C183 H207 0.949 . S
H184 C188 0.949 . S
C185 C186 1.349 . S
C185 C187 1.327 . S
C185 H208 0.950 . S
C186 C185 1.349 . S
C186 C198 1.349 . S
C187 C185 1.327 . S
C187 C203 1.429 . S
C187 H209 0.950 . S
C188 H184 0.949 . S
C188 C196 1.574 . S
C188 C204 1.368 . S
H189 C197 0.950 . S
H190 C195 0.950 . S
H191 C196 0.949 . S
H192 C198 0.950 . S
H193 C199 0.950 . S
H194 C200 0.949 . S
C195 H190 0.950 . S
C195 C197 1.327 . S
C195 C201 1.429 . S
C196 C188 1.574 . S
C196 H191 0.949 . S
C196 C202 1.368 . S
C197 C181 1.349 . S
C197 H189 0.950 . S
C197 C195 1.327 . S
C198 C186 1.349 . S
C198 H192 0.950 . S
C198 C199 1.327 . S
C199 H193 0.950 . S
C199 C198 1.327 . S
C199 C203 1.429 . S
C200 C183 1.574 . S
C200 H194 0.949 . S
C200 C204 1.368 . S
C201 C182 1.429 . S
C201 C195 1.429 . S
C201 C202 1.523 . S
C202 C183 1.368 . S
C202 C196 1.368 . S
C202 C201 1.523 . S
C203 C187 1.429 . S
C203 C199 1.429 . S
C203 C204 1.523 . S
C204 C188 1.368 . S
C204 C200 1.368 . S
C204 C203 1.523 . S
H205 C180 0.950 . S
H206 C182 0.950 . S
H207 C183 0.949 . S
H208 C185 0.950 . S
H209 C187 0.950 . S
C210 C211 1.349 . S
C210 C212 1.327 . S
C210 H235 0.950 . S
C211 C210 1.349 . S
C211 C227 1.349 . S
C212 C210 1.327 . S
C212 C231 1.429 . S
C212 H236 0.950 . S
C213 C230 1.574 . S
C213 C232 1.368 . S
C213 H237 0.949 . S
H214 C218 0.949 . S
C215 C216 1.349 . S
C215 C217 1.327 . S
C215 H238 0.950 . S
C216 C215 1.349 . S
C216 C228 1.349 . S
C217 C215 1.327 . S
C217 C233 1.429 . S
C217 H239 0.950 . S
C218 H214 0.949 . S
C218 C226 1.574 . S
C218 C234 1.368 . S
H219 C227 0.950 . S
H220 C225 0.950 . S
H221 C226 0.949 . S
H222 C228 0.950 . S
H223 C229 0.950 . S
H224 C230 0.949 . S
C225 H220 0.950 . S
C225 C227 1.327 . S
C225 C231 1.429 . S
C226 C218 1.574 . S
C226 H221 0.949 . S
C226 C232 1.368 . S
C227 C211 1.349 . S
C227 H219 0.950 . S
C227 C225 1.327 . S
C228 C216 1.349 . S
C228 H222 0.950 . S
C228 C229 1.327 . S
C229 H223 0.950 . S
C229 C228 1.327 . S
C229 C233 1.429 . S
C230 C213 1.574 . S
C230 H224 0.949 . S
C230 C234 1.368 . S
C231 C212 1.429 . S
C231 C225 1.429 . S
C231 C232 1.523 . S
C232 C213 1.368 . S
C232 C226 1.368 . S
C232 C231 1.523 . S
C233 C217 1.429 . S
C233 C229 1.429 . S
C233 C234 1.523 . S
C234 C218 1.368 . S
C234 C230 1.368 . S
C234 C233 1.523 . S
H235 C210 0.950 . S
H236 C212 0.950 . S
H237 C213 0.949 . S
H238 C215 0.950 . S
H239 C217 0.950 . S
C240 C241 1.349 . S
C240 C242 1.327 . S
C240 H265 0.950 . S
C241 C240 1.349 . S
C241 C257 1.349 . S
C242 C240 1.327 . S
C242 C261 1.429 . S
C242 H266 0.950 . S
C243 C260 1.574 . S
C243 C262 1.368 . S
C243 H267 0.949 . S
H244 C248 0.949 . S
C245 C246 1.349 . S
C245 C247 1.327 . S
C245 H268 0.950 . S
C246 C245 1.349 . S
C246 C258 1.349 . S
C247 C245 1.327 . S
C247 C263 1.429 . S
C247 H269 0.950 . S
C248 H244 0.949 . S
C248 C256 1.574 . S
C248 C264 1.368 . S
H249 C257 0.950 . S
H250 C255 0.950 . S
H251 C256 0.949 . S
H252 C258 0.941 1_455 S
H253 C259 0.950 . S
H254 C260 0.949 . S
C255 H250 0.950 . S
C255 C257 1.327 . S
C255 C261 1.429 . S
C256 C248 1.574 . S
C256 H251 0.949 . S
C256 C262 1.368 . S
C257 C241 1.349 . S
C257 H249 0.950 . S
C257 C255 1.327 . S
C258 C246 1.349 . S
C258 H252 0.941 1_655 S
C258 C259 1.327 . S
C259 H253 0.950 . S
C259 C258 1.327 . S
C259 C263 1.429 . S
C260 C243 1.574 . S
C260 H254 0.949 . S
C260 C264 1.368 . S
C261 C242 1.429 . S
C261 C255 1.429 . S
C261 C262 1.523 . S
C262 C243 1.368 . S
C262 C256 1.368 . S
C262 C261 1.523 . S
C263 C247 1.429 . S
C263 C259 1.429 . S
C263 C264 1.523 . S
C264 C248 1.368 . S
C264 C260 1.368 . S
C264 C263 1.523 . S
H265 C240 0.950 . S
H266 C242 0.950 . S
H267 C243 0.949 . S
H268 C245 0.950 . S
H269 C247 0.950 . S
C270 C271 1.349 . S
C270 C272 1.327 . S
C270 H295 0.950 . S
C271 C270 1.349 . S
C271 C287 1.349 . S
C272 C270 1.327 . S
C272 C291 1.429 . S
C272 H296 0.950 . S
C273 C290 1.574 . S
C273 C292 1.368 . S
C273 H297 0.949 . S
H274 C278 0.949 . S
C275 C276 1.349 . S
C275 C277 1.327 . S
C275 H298 0.950 . S
C276 C275 1.349 . S
C276 C288 1.349 . S
C277 C275 1.327 . S
C277 C293 1.429 . S
C277 H299 0.950 . S
C278 H274 0.949 . S
C278 C286 1.574 . S
C278 C294 1.368 . S
H279 C287 0.950 . S
H280 C285 0.950 . S
H281 C286 0.949 . S
H282 C288 0.950 . S
H283 C289 0.950 . S
H284 C290 0.949 . S
C285 H280 0.950 . S
C285 C287 1.327 . S
C285 C291 1.429 . S
C286 C278 1.574 . S
C286 H281 0.949 . S
C286 C292 1.368 . S
C287 C271 1.349 . S
C287 H279 0.950 . S
C287 C285 1.327 . S
C288 C276 1.349 . S
C288 H282 0.950 . S
C288 C289 1.327 . S
C289 H283 0.950 . S
C289 C288 1.327 . S
C289 C293 1.429 . S
C290 C273 1.574 . S
C290 H284 0.949 . S
C290 C294 1.368 . S
C291 C272 1.429 . S
C291 C285 1.429 . S
C291 C292 1.523 . S
C292 C273 1.368 . S
C292 C286 1.368 . S
C292 C291 1.523 . S
C293 C277 1.429 . S
C293 C289 1.429 . S
C293 C294 1.523 . S
C294 C278 1.368 . S
C294 C290 1.368 . S
C294 C293 1.523 . S
H295 C270 0.950 . S
H296 C272 0.950 . S
H297 C273 0.949 . S
H298 C275 0.950 . S
H299 C277 0.950 . S
C300 C301 1.349 . S
C300 C302 1.327 . S
C300 H325 0.950 . S
C301 C300 1.349 . S
C301 C317 1.349 . S
C302 C300 1.327 . S
C302 C321 1.429 . S
C302 H326 0.950 . S
C303 C320 1.574 . S
C303 C322 1.368 . S
C303 H327 0.949 . S
H304 C308 0.949 . S
C305 C306 1.349 . S
C305 C307 1.327 . S
C305 H328 0.950 . S
C306 C305 1.349 . S
C306 C318 1.349 . S
C307 C305 1.327 . S
C307 C323 1.429 . S
C307 H329 0.950 . S
C308 H304 0.949 . S
C308 C316 1.574 . S
C308 C324 1.368 . S
H309 C317 0.950 . S
H310 C315 0.950 . S
H311 C316 0.949 . S
H312 C318 0.950 . S
H313 C319 0.950 . S
H314 C320 0.949 . S
C315 H310 0.950 . S
C315 C317 1.327 . S
C315 C321 1.429 . S
C316 C308 1.574 . S
C316 H311 0.949 . S
C316 C322 1.368 . S
C317 C301 1.349 . S
C317 H309 0.950 . S
C317 C315 1.327 . S
C318 C306 1.349 . S
C318 H312 0.950 . S
C318 C319 1.327 . S
C319 H313 0.950 . S
C319 C318 1.327 . S
C319 C323 1.429 . S
C320 C303 1.574 . S
C320 H314 0.949 . S
C320 C324 1.368 . S
C321 C302 1.429 . S
C321 C315 1.429 . S
C321 C322 1.523 . S
C322 C303 1.368 . S
C322 C316 1.368 . S
C322 C321 1.523 . S
C323 C307 1.429 . S
C323 C319 1.429 . S
C323 C324 1.523 . S
C324 C308 1.368 . S
C324 C320 1.368 . S
C324 C323 1.523 . S
H325 C300 0.950 . S
H326 C302 0.950 . S
H327 C303 0.949 . S
H328 C305 0.950 . S
H329 C307 0.950 . S
C330 C331 1.349 . S
C330 C332 1.327 . S
C330 H355 0.950 . S
C331 C330 1.349 . S
C331 C347 1.349 . S
C332 C330 1.327 . S
C332 C351 1.429 . S
C332 H356 0.950 . S
C333 C350 1.574 . S
C333 C352 1.368 . S
C333 H357 0.949 . S
H334 C338 0.949 . S
C335 C336 1.349 . S
C335 C337 1.327 . S
C335 H358 0.950 . S
C336 C335 1.349 . S
C336 C348 1.349 . S
C337 C335 1.327 . S
C337 C353 1.429 . S
C337 H359 0.950 . S
C338 H334 0.949 . S
C338 C346 1.574 . S
C338 C354 1.368 . S
H339 C347 0.950 . S
H340 C345 0.950 . S
H341 C346 0.949 . S
H342 C348 0.950 . S
H343 C349 0.950 . S
H344 C350 0.949 . S
C345 H340 0.950 . S
C345 C347 1.327 . S
C345 C351 1.429 . S
C346 C338 1.574 . S
C346 H341 0.949 . S
C346 C352 1.368 . S
C347 C331 1.349 . S
C347 H339 0.950 . S
C347 C345 1.327 . S
C348 C336 1.349 . S
C348 H342 0.950 . S
C348 C349 1.327 . S
C349 H343 0.950 . S
C349 C348 1.327 . S
C349 C353 1.429 . S
C350 C333 1.574 . S
C350 H344 0.949 . S
C350 C354 1.368 . S
C351 C332 1.429 . S
C351 C345 1.429 . S
C351 C352 1.523 . S
C352 C333 1.368 . S
C352 C346 1.368 . S
C352 C351 1.523 . S
C353 C337 1.429 . S
C353 C349 1.429 . S
C353 C354 1.523 . S
C354 C338 1.368 . S
C354 C350 1.368 . S
C354 C353 1.523 . S
H355 C330 0.950 . S
H356 C332 0.950 . S
H357 C333 0.949 . S
H358 C335 0.950 . S
H359 C337 0.950 . S
C360 C361 1.349 . S
C360 C362 1.327 . S
C360 H385 0.950 . S
C361 C360 1.349 . S
C361 C377 1.349 . S
C362 C360 1.327 . S
C362 C381 1.429 . S
C362 H386 0.950 . S
C363 C380 1.574 . S
C363 C382 1.368 . S
C363 H387 0.949 . S
H364 C368 0.949 . S
C365 C366 1.349 . S
C365 C367 1.327 . S
C365 H388 0.950 . S
C366 C365 1.349 . S
C366 C378 1.349 . S
C367 C365 1.327 . S
C367 C383 1.429 . S
C367 H389 0.950 . S
C368 H364 0.949 . S
C368 C376 1.574 . S
C368 C384 1.368 . S
H369 C377 0.950 . S
H370 C375 0.950 . S
H371 C376 0.949 . S
H372 C378 0.950 . S
H373 C379 0.950 . S
H374 C380 0.949 . S
C375 H370 0.950 . S
C375 C377 1.327 . S
C375 C381 1.429 . S
C376 C368 1.574 . S
C376 H371 0.949 . S
C376 C382 1.368 . S
C377 C361 1.349 . S
C377 H369 0.950 . S
C377 C375 1.327 . S
C378 C366 1.349 . S
C378 H372 0.950 . S
C378 C379 1.327 . S
C379 H373 0.950 . S
C379 C378 1.327 . S
C379 C383 1.429 . S
C380 C363 1.574 . S
C380 H374 0.949 . S
C380 C384 1.368 . S
C381 C362 1.429 . S
C381 C375 1.429 . S
C381 C382 1.523 . S
C382 C363 1.368 . S
C382 C376 1.368 . S
C382 C381 1.523 . S
C383 C367 1.429 . S
C383 C379 1.429 . S
C383 C384 1.523 . S
C384 C368 1.368 . S
C384 C380 1.368 . S
C384 C383 1.523 . S
H385 C360 0.950 . S
H386 C362 0.950 . S
H387 C363 0.949 . S
H388 C365 0.950 . S
H389 C367 0.950 . S
C390 C391 1.349 . S
C390 C392 1.327 . S
C390 H415 0.950 . S
C391 C390 1.349 . S
C391 C407 1.349 . S
C392 C390 1.327 . S
C392 C411 1.429 . S
C392 H416 0.950 . S
C393 C410 1.574 . S
C393 C412 1.368 1_554 S
C393 H417 0.949 . S
H394 C398 0.949 . S
C395 C396 1.349 . S
C395 C397 1.327 . S
C395 H418 0.950 . S
C396 C395 1.349 . S
C396 C408 1.349 . S
C397 C395 1.327 . S
C397 C413 1.429 . S
C397 H419 0.950 . S
C398 H394 0.949 . S
C398 C406 1.574 . S
C398 C414 1.368 1_556 S
H399 C407 0.950 . S
H400 C405 0.979 . S
H401 C406 0.949 . S
H402 C408 0.950 . S
H403 C409 0.950 1_556 S
H404 C410 0.949 . S
C405 H400 0.979 . S
C405 C407 1.327 . S
C405 C411 1.429 . S
C406 C398 1.574 . S
C406 H401 0.949 . S
C406 C412 1.368 . S
C407 C391 1.349 . S
C407 H399 0.950 . S
C407 C405 1.327 . S
C408 C396 1.349 . S
C408 H402 0.950 . S
C408 C409 1.327 . S
C409 H403 0.950 1_554 S
C409 C408 1.327 . S
C409 C413 1.429 . S
C410 C393 1.574 . S
C410 H404 0.949 . S
C410 C414 1.368 . S
C411 C392 1.429 . S
C411 C405 1.429 . S
C411 C412 1.523 . S
C412 C393 1.368 1_556 S
C412 C406 1.368 . S
C412 C411 1.523 . S
C413 C397 1.429 . S
C413 C409 1.429 . S
C413 C414 1.523 . S
C414 C398 1.368 1_554 S
C414 C410 1.368 . S
C414 C413 1.523 . S
H415 C390 0.950 . S
H416 C392 0.950 . S
H417 C393 0.949 . S
H418 C395 0.950 . S
H419 C397 0.950 . S
C420 C421 1.349 . S
C420 C422 1.327 . S
C420 H445 0.950 . S
C421 C420 1.349 . S
C421 C437 1.349 . S
C422 C420 1.327 . S
C422 C441 1.429 . S
C422 H446 0.950 . S
C423 C440 1.574 . S
C423 C442 1.368 . S
C423 H447 0.949 . S
H424 C428 0.949 . S
C425 C426 1.349 . S
C425 C427 1.327 . S
C425 H448 0.950 . S
C426 C425 1.349 . S
C426 C438 1.349 . S
C427 C425 1.327 . S
C427 C443 1.429 . S
C427 H449 0.950 . S
C428 H424 0.949 . S
C428 C436 1.574 . S
C428 C444 1.368 . S
H429 C437 0.950 . S
H430 C435 0.950 . S
H431 C436 0.949 . S
H432 C438 0.950 . S
H433 C439 0.950 . S
H434 C440 0.949 . S
C435 H430 0.950 . S
C435 C437 1.327 . S
C435 C441 1.429 . S
C436 C428 1.574 . S
C436 H431 0.949 . S
C436 C442 1.368 . S
C437 C421 1.349 . S
C437 H429 0.950 . S
C437 C435 1.327 . S
C438 C426 1.349 . S
C438 H432 0.950 . S
C438 C439 1.327 . S
C439 H433 0.950 . S
C439 C438 1.327 . S
C439 C443 1.429 . S
C440 C423 1.574 . S
C440 H434 0.949 . S
C440 C444 1.368 . S
C441 C422 1.429 . S
C441 C435 1.429 . S
C441 C442 1.523 . S
C442 C423 1.368 . S
C442 C436 1.368 . S
C442 C441 1.523 . S
C443 C427 1.429 . S
C443 C439 1.429 . S
C443 C444 1.523 . S
C444 C428 1.368 . S
C444 C440 1.368 . S
C444 C443 1.523 . S
H445 C420 0.950 . S
H446 C422 0.950 . S
H447 C423 0.949 . S
H448 C425 0.950 . S
H449 C427 0.950 . S
C450 C451 1.349 . S
C450 C452 1.327 . S
C450 H475 0.950 . S
C451 C450 1.349 . S
C451 C467 1.349 . S
C452 C450 1.327 . S
C452 C471 1.429 . S
C452 H476 0.950 . S
C453 C470 1.574 . S
C453 C472 1.368 . S
C453 H477 0.949 . S
H454 C458 0.949 . S
C455 C456 1.349 . S
C455 C457 1.327 . S
C455 H478 0.950 . S
C456 C455 1.349 . S
C456 C468 1.349 . S
C457 C455 1.327 . S
C457 C473 1.429 . S
C457 H479 0.950 . S
C458 H454 0.949 . S
C458 C466 1.574 . S
C458 C474 1.368 . S
H459 C467 0.950 . S
H460 C465 0.950 . S
H461 C466 0.949 . S
H462 C468 0.950 . S
H463 C469 0.950 . S
H464 C470 0.949 . S
C465 H460 0.950 . S
C465 C467 1.327 . S
C465 C471 1.429 . S
C466 C458 1.574 . S
C466 H461 0.949 . S
C466 C472 1.368 . S
C467 C451 1.349 . S
C467 H459 0.950 . S
C467 C465 1.327 . S
C468 C456 1.349 . S
C468 H462 0.950 . S
C468 C469 1.327 . S
C469 H463 0.950 . S
C469 C468 1.327 . S
C469 C473 1.429 . S
C470 C453 1.574 . S
C470 H464 0.949 . S
C470 C474 1.368 . S
C471 C452 1.429 . S
C471 C465 1.429 . S
C471 C472 1.523 . S
C472 C453 1.368 . S
C472 C466 1.368 . S
C472 C471 1.523 . S
C473 C457 1.429 . S
C473 C469 1.429 . S
C473 C474 1.523 . S
C474 C458 1.368 . S
C474 C470 1.368 . S
C474 C473 1.523 . S
H475 C450 0.950 . S
H476 C452 0.950 . S
H477 C453 0.949 . S
H478 C455 0.950 . S
H479 C457 0.950 . S
C480 C481 1.349 . S
C480 C482 1.327 . S
C480 H505 0.950 . S
C481 C480 1.349 . S
C481 C497 1.349 . S
C482 C480 1.327 . S
C482 C501 1.429 . S
C482 H506 0.950 . S
C483 C500 1.574 . S
C483 C502 1.368 . S
C483 H507 0.949 . S
H484 C488 0.949 . S
C485 C486 1.349 . S
C485 C487 1.327 . S
C485 H508 0.950 . S
C486 C485 1.349 . S
C486 C498 1.349 . S
C487 C485 1.327 . S
C487 C503 1.429 . S
C487 H509 0.950 . S
C488 H484 0.949 . S
C488 C496 1.574 . S
C488 C504 1.368 . S
H489 C497 0.950 . S
H490 C495 0.950 . S
H491 C496 0.949 . S
H492 C498 0.950 . S
H493 C499 0.950 . S
H494 C500 0.949 . S
C495 H490 0.950 . S
C495 C497 1.327 . S
C495 C501 1.429 . S
C496 C488 1.574 . S
C496 H491 0.949 . S
C496 C502 1.368 . S
C497 C481 1.349 . S
C497 H489 0.950 . S
C497 C495 1.327 . S
C498 C486 1.349 . S
C498 H492 0.950 . S
C498 C499 1.327 . S
C499 H493 0.950 . S
C499 C498 1.327 . S
C499 C503 1.429 . S
C500 C483 1.574 . S
C500 H494 0.949 . S
C500 C504 1.368 . S
C501 C482 1.429 . S
C501 C495 1.429 . S
C501 C502 1.523 . S
C502 C483 1.368 . S
C502 C496 1.368 . S
C502 C501 1.523 . S
C503 C487 1.429 . S
C503 C499 1.429 . S
C503 C504 1.523 . S
C504 C488 1.368 . S
C504 C500 1.368 . S
C504 C503 1.523 . S
H505 C480 0.950 . S
H506 C482 0.950 . S
H507 C483 0.949 . S
H508 C485 0.950 . S
H509 C487 0.950 . S
C510 C511 1.349 . S
C510 C512 1.327 . S
C510 H535 0.950 . S
C511 C510 1.349 . S
C511 C527 1.349 . S
C512 C510 1.327 . S
C512 C531 1.429 . S
C512 H536 0.950 . S
C513 C530 1.574 . S
C513 C532 1.368 . S
C513 H537 0.949 . S
H514 C518 0.949 . S
C515 C516 1.349 . S
C515 C517 1.327 . S
C515 H538 0.950 . S
C516 C515 1.349 . S
C516 C528 1.349 . S
C517 C515 1.327 . S
C517 C533 1.429 . S
C517 H539 0.950 . S
C518 H514 0.949 . S
C518 C526 1.574 . S
C518 C534 1.368 . S
H519 C527 0.950 . S
H520 C525 0.950 . S
H521 C526 0.949 . S
H522 C528 0.950 . S
H523 C529 0.950 . S
H524 C530 0.949 . S
C525 H520 0.950 . S
C525 C527 1.327 . S
C525 C531 1.429 . S
C526 C518 1.574 . S
C526 H521 0.949 . S
C526 C532 1.368 . S
C527 C511 1.349 . S
C527 H519 0.950 . S
C527 C525 1.327 . S
C528 C516 1.349 . S
C528 H522 0.950 . S
C528 C529 1.327 . S
C529 H523 0.950 . S
C529 C528 1.327 . S
C529 C533 1.429 . S
C530 C513 1.574 . S
C530 H524 0.949 . S
C530 C534 1.368 . S
C531 C512 1.429 . S
C531 C525 1.429 . S
C531 C532 1.523 . S
C532 C513 1.368 . S
C532 C526 1.368 . S
C532 C531 1.523 . S
C533 C517 1.429 . S
C533 C529 1.429 . S
C533 C534 1.523 . S
C534 C518 1.368 . S
C534 C530 1.368 . S
C534 C533 1.523 . S
H535 C510 0.950 . S
H536 C512 0.950 . S
H537 C513 0.949 . S
H538 C515 0.950 . S
H539 C517 0.950 . S
C540 C541 1.349 . S
C540 C542 1.327 . S
C540 H565 0.950 . S
C541 C540 1.349 . S
C541 C557 1.349 . S
C542 C540 1.327 . S
C542 C561 1.429 . S
C542 H566 0.950 . S
C543 C560 1.574 . S
C543 C562 1.368 . S
C543 H567 0.949 . S
H544 C548 0.949 . S
C545 C546 1.349 1_655 S
C545 C547 1.327 . S
C545 H568 0.950 . S
C546 C545 1.349 1_455 S
C546 C558 1.349 . S
C547 C545 1.327 . S
C547 C563 1.429 . S
C547 H569 0.950 . S
C548 H544 0.949 . S
C548 C556 1.574 . S
C548 C564 1.368 . S
H549 C557 0.950 . S
H550 C555 0.950 . S
H551 C556 0.949 . S
H552 C558 0.948 . S
H553 C559 0.950 . S
H554 C560 0.949 . S
C555 H550 0.950 . S
C555 C557 1.327 . S
C555 C561 1.429 . S
C556 C548 1.574 . S
C556 H551 0.949 . S
C556 C562 1.368 . S
C557 C541 1.349 . S
C557 H549 0.950 . S
C557 C555 1.327 . S
C558 C546 1.349 . S
C558 H552 0.948 . S
C558 C559 1.329 1_455 S
C559 H553 0.950 . S
C559 C558 1.329 1_655 S
C559 C563 1.429 . S
C560 C543 1.574 . S
C560 H554 0.949 . S
C560 C564 1.368 . S
C561 C542 1.429 . S
C561 C555 1.429 . S
C561 C562 1.523 . S
C562 C543 1.368 . S
C562 C556 1.368 . S
C562 C561 1.523 . S
C563 C547 1.429 . S
C563 C559 1.429 . S
C563 C564 1.523 . S
C564 C548 1.368 . S
C564 C560 1.368 . S
C564 C563 1.523 . S
H565 C540 0.950 . S
H566 C542 0.950 . S
H567 C543 0.949 . S
H568 C545 0.950 . S
H569 C547 0.950 . S
C570 C571 1.349 . S
C570 C572 1.327 . S
C570 H595 0.950 . S
C571 C570 1.349 . S
C571 C587 1.349 . S
C572 C570 1.327 . S
C572 C591 1.429 . S
C572 H596 0.950 . S
C573 C590 1.574 . S
C573 C592 1.368 . S
C573 H597 0.949 . S
H574 C578 0.949 . S
C575 C576 1.349 . S
C575 C577 1.327 . S
C575 H598 0.950 . S
C576 C575 1.349 . S
C576 C588 1.349 . S
C577 C575 1.327 . S
C577 C593 1.429 . S
C577 H599 0.950 . S
C578 H574 0.949 . S
C578 C586 1.574 . S
C578 C594 1.368 . S
H579 C587 0.950 . S
H580 C585 0.950 . S
H581 C586 0.949 . S
H582 C588 0.950 . S
H583 C589 0.950 . S
H584 C590 0.949 . S
C585 H580 0.950 . S
C585 C587 1.327 . S
C585 C591 1.429 . S
C586 C578 1.574 . S
C586 H581 0.949 . S
C586 C592 1.368 . S
C587 C571 1.349 . S
C587 H579 0.950 . S
C587 C585 1.327 . S
C588 C576 1.349 . S
C588 H582 0.950 . S
C588 C589 1.327 . S
C589 H583 0.950 . S
C589 C588 1.327 . S
C589 C593 1.429 . S
C590 C573 1.574 . S
C590 H584 0.949 . S
C590 C594 1.368 . S
C591 C572 1.429 . S
C591 C585 1.429 . S
C591 C592 1.523 . S
C592 C573 1.368 . S
C592 C586 1.368 . S
C592 C591 1.523 . S
C593 C577 1.429 . S
C593 C589 1.429 . S
C593 C594 1.523 . S
C594 C578 1.368 . S
C594 C590 1.368 . S
C594 C593 1.523 . S
H595 C570 0.950 . S
H596 C572 0.950 . S
H597 C573 0.949 . S
H598 C575 0.950 . S
H599 C577 0.950 . S
C600 C601 1.349 . S
C600 C602 1.327 . S
C600 H625 0.950 . S
C601 C600 1.349 . S
C601 C617 1.349 . S
C602 C600 1.327 . S
C602 C621 1.429 . S
C602 H626 0.950 . S
C603 C620 1.574 . S
C603 C622 1.368 . S
C603 H627 0.949 . S
H604 C608 0.949 . S
C605 C606 1.349 . S
C605 C607 1.327 . S
C605 H628 0.950 . S
C606 C605 1.349 . S
C606 C618 1.349 . S
C607 C605 1.327 . S
C607 C623 1.429 . S
C607 H629 0.950 . S
C608 H604 0.949 . S
C608 C616 1.574 . S
C608 C624 1.368 . S
H609 C617 0.950 . S
H610 C615 0.950 . S
H611 C616 0.949 . S
H612 C618 0.950 . S
H613 C619 0.950 . S
H614 C620 0.949 . S
C615 H610 0.950 . S
C615 C617 1.327 . S
C615 C621 1.429 . S
C616 C608 1.574 . S
C616 H611 0.949 . S
C616 C622 1.368 . S
C617 C601 1.349 . S
C617 H609 0.950 . S
C617 C615 1.327 . S
C618 C606 1.349 . S
C618 H612 0.950 . S
C618 C619 1.327 . S
C619 H613 0.950 . S
C619 C618 1.327 . S
C619 C623 1.429 . S
C620 C603 1.574 . S
C620 H614 0.949 . S
C620 C624 1.368 . S
C621 C602 1.429 . S
C621 C615 1.429 . S
C621 C622 1.523 . S
C622 C603 1.368 . S
C622 C616 1.368 . S
C622 C621 1.523 . S
C623 C607 1.429 . S
C623 C619 1.429 . S
C623 C624 1.523 . S
C624 C608 1.368 . S
C624 C620 1.368 . S
C624 C623 1.523 . S
H625 C600 0.950 . S
H626 C602 0.950 . S
H627 C603 0.949 . S
H628 C605 0.950 . S
H629 C607 0.950 . S
C630 C631 1.349 . S
C630 C632 1.327 . S
C630 H655 0.950 . S
C631 C630 1.349 . S
C631 C647 1.349 . S
C632 C630 1.327 . S
C632 C651 1.429 . S
C632 H656 0.950 . S
C633 C650 1.574 . S
C633 C652 1.368 . S
C633 H657 0.949 . S
H634 C638 0.949 . S
C635 C636 1.349 . S
C635 C637 1.327 . S
C635 H658 0.950 . S
C636 C635 1.349 . S
C636 C648 1.349 . S
C637 C635 1.327 . S
C637 C653 1.429 . S
C637 H659 0.950 . S
C638 H634 0.949 . S
C638 C646 1.574 . S
C638 C654 1.368 . S
H639 C647 0.950 . S
H640 C645 0.950 . S
H641 C646 0.949 . S
H642 C648 0.950 . S
H643 C649 0.950 . S
H644 C650 0.949 . S
C645 H640 0.950 . S
C645 C647 1.327 . S
C645 C651 1.429 . S
C646 C638 1.574 . S
C646 H641 0.949 . S
C646 C652 1.368 . S
C647 C631 1.349 . S
C647 H639 0.950 . S
C647 C645 1.327 . S
C648 C636 1.349 . S
C648 H642 0.950 . S
C648 C649 1.327 . S
C649 H643 0.950 . S
C649 C648 1.327 . S
C649 C653 1.429 . S
C650 C633 1.574 . S
C650 H644 0.949 . S
C650 C654 1.368 . S
C651 C632 1.429 . S
C651 C645 1.429 . S
C651 C652 1.523 . S
C652 C633 1.368 . S
C652 C646 1.368 . S
C652 C651 1.523 . S
C653 C637 1.429 . S
C653 C649 1.429 . S
C653 C654 1.523 . S
C654 C638 1.368 . S
C654 C650 1.368 . S
C654 C653 1.523 . S
H655 C630 0.950 . S
H656 C632 0.950 . S
H657 C633 0.949 . S
H658 C635 0.950 . S
H659 C637 0.950 . S
C660 C661 1.349 . S
C660 C662 1.327 . S
C660 H685 0.950 . S
C661 C660 1.349 . S
C661 C677 1.349 . S
C662 C660 1.327 . S
C662 C681 1.429 . S
C662 H686 0.950 . S
C663 C680 1.574 . S
C663 C682 1.368 . S
C663 H687 0.949 . S
H664 C668 0.949 . S
C665 C666 1.349 . S
C665 C667 1.327 . S
C665 H688 0.950 . S
C666 C665 1.349 . S
C666 C678 1.349 . S
C667 C665 1.327 . S
C667 C683 1.429 . S
C667 H689 0.950 . S
C668 H664 0.949 . S
C668 C676 1.574 . S
C668 C684 1.368 . S
H669 C677 0.950 . S
H670 C675 0.950 . S
H671 C676 0.949 . S
H672 C678 0.950 1_545 S
H673 C679 0.950 . S
H674 C680 0.949 . S
C675 H670 0.950 . S
C675 C677 1.327 . S
C675 C681 1.429 . S
C676 C668 1.574 . S
C676 H671 0.949 . S
C676 C682 1.368 . S
C677 C661 1.349 . S
C677 H669 0.950 . S
C677 C675 1.327 . S
C678 C666 1.349 . S
C678 H672 0.950 1_565 S
C678 C679 1.327 . S
C679 H673 0.950 . S
C679 C678 1.327 . S
C679 C683 1.429 . S
C680 C663 1.574 . S
C680 H674 0.949 . S
C680 C684 1.368 . S
C681 C662 1.429 . S
C681 C675 1.429 . S
C681 C682 1.523 . S
C682 C663 1.368 . S
C682 C676 1.368 . S
C682 C681 1.523 . S
C683 C667 1.429 . S
C683 C679 1.429 . S
C683 C684 1.523 . S
C684 C668 1.368 . S
C684 C680 1.368 . S
C684 C683 1.523 . S
H685 C660 0.950 . S
H686 C662 0.950 . S
H687 C663 0.949 . S
H688 C665 0.950 . S
H689 C667 0.950 . S
C690 C691 1.349 . S
C690 C692 1.327 . S
C690 H715 0.950 . S
C691 C690 1.349 . S
C691 C707 1.349 . S
C692 C690 1.327 . S
C692 C711 1.429 . S
C692 H716 0.950 . S
C693 C710 1.574 . S
C693 C712 1.368 . S
C693 H717 0.949 . S
H694 C698 0.949 . S
C695 C696 1.349 . S
C695 C697 1.327 . S
C695 H718 0.950 . S
C696 C695 1.349 . S
C696 C708 1.349 . S
C697 C695 1.327 . S
C697 C713 1.429 . S
C697 H719 0.950 . S
C698 H694 0.949 . S
C698 C706 1.574 . S
C698 C714 1.368 . S
H699 C707 0.950 . S
H700 C705 0.950 . S
H701 C706 0.949 . S
H702 C708 0.950 . S
H703 C709 0.950 . S
H704 C710 0.949 . S
C705 H700 0.950 . S
C705 C707 1.327 . S
C705 C711 1.429 . S
C706 C698 1.574 . S
C706 H701 0.949 . S
C706 C712 1.368 . S
C707 C691 1.349 . S
C707 H699 0.950 . S
C707 C705 1.327 . S
C708 C696 1.349 . S
C708 H702 0.950 . S
C708 C709 1.327 . S
C709 H703 0.950 . S
C709 C708 1.327 . S
C709 C713 1.429 . S
C710 C693 1.574 . S
C710 H704 0.949 . S
C710 C714 1.368 . S
C711 C692 1.429 . S
C711 C705 1.429 . S
C711 C712 1.523 . S
C712 C693 1.368 . S
C712 C706 1.368 . S
C712 C711 1.523 . S
C713 C697 1.429 . S
C713 C709 1.429 . S
C713 C714 1.523 . S
C714 C698 1.368 . S
C714 C710 1.368 . S
C714 C713 1.523 . S
H715 C690 0.950 . S
H716 C692 0.950 . S
H717 C693 0.949 . S
H718 C695 0.950 . S
H719 C697 0.950 . S
C720 C721 1.349 . S
C720 C722 1.327 . S
C720 H745 0.950 . S
C721 C720 1.349 . S
C721 C737 1.349 . S
C722 C720 1.327 . S
C722 C741 1.429 . S
C722 H746 0.950 . S
C723 C740 1.574 . S
C723 C742 1.368 . S
C723 H747 0.949 . S
H724 C728 0.949 . S
C725 C726 1.349 . S
C725 C727 1.327 . S
C725 H748 0.950 . S
C726 C725 1.349 . S
C726 C738 1.349 . S
C727 C725 1.327 . S
C727 C743 1.429 . S
C727 H749 0.950 . S
C728 H724 0.949 . S
C728 C736 1.574 . S
C728 C744 1.368 . S
H729 C737 0.950 . S
H730 C735 0.950 . S
H731 C736 0.949 . S
H732 C738 0.950 . S
H733 C739 0.950 . S
H734 C740 0.949 . S
C735 H730 0.950 . S
C735 C737 1.327 . S
C735 C741 1.429 . S
C736 C728 1.574 . S
C736 H731 0.949 . S
C736 C742 1.368 . S
C737 C721 1.349 . S
C737 H729 0.950 . S
C737 C735 1.327 . S
C738 C726 1.349 . S
C738 H732 0.950 . S
C738 C739 1.327 . S
C739 H733 0.950 . S
C739 C738 1.327 . S
C739 C743 1.429 . S
C740 C723 1.574 . S
C740 H734 0.949 . S
C740 C744 1.368 . S
C741 C722 1.429 . S
C741 C735 1.429 . S
C741 C742 1.523 . S
C742 C723 1.368 . S
C742 C736 1.368 . S
C742 C741 1.523 . S
C743 C727 1.429 . S
C743 C739 1.429 . S
C743 C744 1.523 . S
C744 C728 1.368 . S
C744 C740 1.368 . S
C744 C743 1.523 . S
H745 C720 0.950 . S
H746 C722 0.950 . S
H747 C723 0.949 . S
H748 C725 0.950 . S
H749 C727 0.950 . S
C750 C751 1.349 . S
C750 C752 1.327 . S
C750 H775 0.950 . S
C751 C750 1.349 . S
C751 C767 1.349 . S
C752 C750 1.327 . S
C752 C771 1.429 . S
C752 H776 0.950 . S
C753 C770 1.574 . S
C753 C772 1.368 . S
C753 H777 0.949 . S
H754 C758 0.949 . S
C755 C756 1.349 . S
C755 C757 1.327 . S
C755 H778 0.950 . S
C756 C755 1.349 . S
C756 C768 1.349 . S
C757 C755 1.327 . S
C757 C773 1.429 . S
C757 H779 0.950 . S
C758 H754 0.949 . S
C758 C766 1.574 . S
C758 C774 1.368 . S
H759 C767 0.950 . S
H760 C765 0.950 . S
H761 C766 0.949 . S
H762 C768 0.950 . S
H763 C769 0.950 . S
H764 C770 0.949 . S
C765 H760 0.950 . S
C765 C767 1.327 . S
C765 C771 1.429 . S
C766 C758 1.574 . S
C766 H761 0.949 . S
C766 C772 1.368 . S
C767 C751 1.349 . S
C767 H759 0.950 . S
C767 C765 1.327 . S
C768 C756 1.349 . S
C768 H762 0.950 . S
C768 C769 1.327 . S
C769 H763 0.950 . S
C769 C768 1.327 . S
C769 C773 1.429 . S
C770 C753 1.574 . S
C770 H764 0.949 . S
C770 C774 1.368 . S
C771 C752 1.429 . S
C771 C765 1.429 . S
C771 C772 1.523 . S
C772 C753 1.368 . S
C772 C766 1.368 . S
C772 C771 1.523 . S
C773 C757 1.429 . S
C773 C769 1.429 . S
C773 C774 1.523 . S
C774 C758 1.368 . S
C774 C770 1.368 . S
C774 C773 1.523 . S
H775 C750 0.950 . S
H776 C752 0.950 . S
H777 C753 0.949 . S
H778 C755 0.950 . S
H779 C757 0.950 . S
C780 C781 1.349 . S
C780 C782 1.327 . S
C780 H805 0.950 . S
C781 C780 1.349 . S
C781 C797 1.349 . S
C782 C780 1.327 . S
C782 C801 1.429 . S
C782 H806 0.950 . S
C783 C800 1.574 . S
C783 C802 1.368 . S
C783 H807 0.949 . S
H784 C788 0.949 . S
C785 C786 1.349 . S
C785 C787 1.327 . S
C785 H808 0.950 . S
C786 C785 1.349 . S
C786 C798 1.349 . S
C787 C785 1.327 . S
C787 C803 1.429 . S
C787 H809 0.950 . S
C788 H784 0.949 . S
C788 C796 1.574 . S
C788 C804 1.368 . S
H789 C797 0.950 . S
H790 C795 0.950 . S
H791 C796 0.949 . S
H792 C798 0.950 . S
H793 C799 0.950 . S
H794 C800 0.949 . S
C795 H790 0.950 . S
C795 C797 1.327 . S
C795 C801 1.429 . S
C796 C788 1.574 . S
C796 H791 0.949 . S
C796 C802 1.368 . S
C797 C781 1.349 . S
C797 H789 0.950 . S
C797 C795 1.327 . S
C798 C786 1.349 . S
C798 H792 0.950 . S
C798 C799 1.327 . S
C799 H793 0.950 . S
C799 C798 1.327 . S
C799 C803 1.429 . S
C800 C783 1.574 . S
C800 H794 0.949 . S
C800 C804 1.368 . S
C801 C782 1.429 . S
C801 C795 1.429 . S
C801 C802 1.523 . S
C802 C783 1.368 . S
C802 C796 1.368 . S
C802 C801 1.523 . S
C803 C787 1.429 . S
C803 C799 1.429 . S
C803 C804 1.523 . S
C804 C788 1.368 . S
C804 C800 1.368 . S
C804 C803 1.523 . S
H805 C780 0.950 . S
H806 C782 0.950 . S
H807 C783 0.949 . S
H808 C785 0.950 . S
H809 C787 0.950 . S
C810 C811 1.349 . S
C810 C812 1.327 . S
C810 H835 0.950 . S
C811 C810 1.349 . S
C811 C827 1.349 . S
C812 C810 1.327 . S
C812 C831 1.429 . S
C812 H836 0.950 . S
C813 C830 1.574 . S
C813 C832 1.368 . S
C813 H837 0.949 . S
H814 C818 0.949 . S
C815 C816 1.349 . S
C815 C817 1.327 . S
C815 H838 0.950 . S
C816 C815 1.349 . S
C816 C828 1.349 . S
C817 C815 1.327 . S
C817 C833 1.429 1_554 S
C817 H839 0.950 . S
C818 H814 0.949 . S
C818 C826 1.574 . S
C818 C834 1.368 . S
H819 C827 0.950 . S
H820 C825 0.950 . S
H821 C826 0.949 . S
H822 C828 0.950 . S
H823 C829 0.950 1_556 S
H824 C830 0.949 . S
C825 H820 0.950 . S
C825 C827 1.327 . S
C825 C831 1.429 . S
C826 C818 1.574 . S
C826 H821 0.949 . S
C826 C832 1.368 . S
C827 C811 1.349 . S
C827 H819 0.950 . S
C827 C825 1.327 . S
C828 C816 1.349 . S
C828 H822 0.950 . S
C828 C829 1.327 . S
C829 H823 0.950 1_554 S
C829 C828 1.327 . S
C829 C833 1.429 1_554 S
C830 C813 1.574 . S
C830 H824 0.949 . S
C830 C834 1.368 . S
C831 C812 1.429 . S
C831 C825 1.429 . S
C831 C832 1.523 . S
C832 C813 1.368 . S
C832 C826 1.368 . S
C832 C831 1.523 . S
C833 C817 1.429 1_556 S
C833 C829 1.429 1_556 S
C833 C834 1.523 . S
C834 C818 1.368 . S
C834 C830 1.368 . S
C834 C833 1.523 . S
H835 C810 0.950 . S
H836 C812 0.950 . S
H837 C813 0.949 . S
H838 C815 0.950 . S
H839 C817 0.950 . S
C840 C841 1.349 . S
C840 C842 1.327 . S
C840 H865 0.950 . S
C841 C840 1.349 . S
C841 C857 1.349 . S
C842 C840 1.327 . S
C842 C861 1.429 . S
C842 H866 0.950 . S
C843 C860 1.574 . S
C843 C862 1.368 . S
C843 H867 0.949 . S
H844 C848 0.949 . S
C845 C846 1.349 . S
C845 C847 1.327 . S
C845 H868 0.950 . S
C846 C845 1.349 . S
C846 C858 1.349 . S
C847 C845 1.327 . S
C847 C863 1.429 . S
C847 H869 0.950 . S
C848 H844 0.949 . S
C848 C856 1.574 . S
C848 C864 1.368 . S
H849 C857 0.950 . S
H850 C855 0.950 . S
H851 C856 0.949 . S
H852 C858 0.950 . S
H853 C859 0.950 . S
H854 C860 0.949 . S
C855 H850 0.950 . S
C855 C857 1.327 . S
C855 C861 1.429 . S
C856 C848 1.574 . S
C856 H851 0.949 . S
C856 C862 1.368 . S
C857 C841 1.349 . S
C857 H849 0.950 . S
C857 C855 1.327 . S
C858 C846 1.349 . S
C858 H852 0.950 . S
C858 C859 1.327 . S
C859 H853 0.950 . S
C859 C858 1.327 . S
C859 C863 1.429 . S
C860 C843 1.574 . S
C860 H854 0.949 . S
C860 C864 1.368 . S
C861 C842 1.429 . S
C861 C855 1.429 . S
C861 C862 1.523 . S
C862 C843 1.368 . S
C862 C856 1.368 . S
C862 C861 1.523 . S
C863 C847 1.429 . S
C863 C859 1.429 . S
C863 C864 1.523 . S
C864 C848 1.368 . S
C864 C860 1.368 . S
C864 C863 1.523 . S
H865 C840 0.950 . S
H866 C842 0.950 . S
H867 C843 0.949 . S
H868 C845 0.950 . S
H869 C847 0.950 . S
C870 C871 1.349 . S
C870 C872 1.327 . S
C870 H895 0.950 . S
C871 C870 1.349 . S
C871 C887 1.349 . S
C872 C870 1.327 . S
C872 C891 1.429 . S
C872 H896 0.950 . S
C873 C890 1.574 . S
C873 C892 1.368 . S
C873 H897 0.949 . S
H874 C878 0.949 . S
C875 C876 1.349 . S
C875 C877 1.327 . S
C875 H898 0.950 . S
C876 C875 1.349 . S
C876 C888 1.349 . S
C877 C875 1.327 . S
C877 C893 1.429 . S
C877 H899 0.950 . S
C878 H874 0.949 . S
C878 C886 1.574 . S
C878 C894 1.368 . S
H879 C887 0.950 . S
H880 C885 0.950 . S
H881 C886 0.949 . S
H882 C888 0.950 . S
H883 C889 0.950 . S
H884 C890 0.949 . S
C885 H880 0.950 . S
C885 C887 1.327 . S
C885 C891 1.429 . S
C886 C878 1.574 . S
C886 H881 0.949 . S
C886 C892 1.368 . S
C887 C871 1.349 . S
C887 H879 0.950 . S
C887 C885 1.327 . S
C888 C876 1.349 . S
C888 H882 0.950 . S
C888 C889 1.327 . S
C889 H883 0.950 . S
C889 C888 1.327 . S
C889 C893 1.429 . S
C890 C873 1.574 . S
C890 H884 0.949 . S
C890 C894 1.368 . S
C891 C872 1.429 . S
C891 C885 1.429 . S
C891 C892 1.523 . S
C892 C873 1.368 . S
C892 C886 1.368 . S
C892 C891 1.523 . S
C893 C877 1.429 . S
C893 C889 1.429 . S
C893 C894 1.523 . S
C894 C878 1.368 . S
C894 C890 1.368 . S
C894 C893 1.523 . S
H895 C870 0.950 . S
H896 C872 0.950 . S
H897 C873 0.949 . S
H898 C875 0.950 . S
H899 C877 0.950 . S
C186 C108 1.563 . S
C181 C6 1.569 . S
C216 C111 1.588 . S
C211 C18 1.592 . S
C246 C109 1.546 . S
C241 C28 1.552 . S
C276 C110 1.672 1_655 S
C271 C45 1.674 . S
C306 C125 1.384 . S
C301 C4 1.387 . S
C336 C139 1.613 . S
C331 C21 1.604 . S
C361 C33 1.717 . S
C366 C165 1.734 1_565 S
C396 C179 1.730 . S
C391 C40 1.733 . S
C426 C124 1.524 . S
C421 C16 1.505 . S
C451 C30 1.607 . S
C456 C138 1.598 . S
C486 C164 1.703 . S
C481 C42 1.695 . S
C516 C178 1.717 . S
C511 C9 1.726 . S
C541 C52 1.685 . S
C546 C123 1.671 . S
C576 C96 1.743 . S
C571 C69 1.725 . S
C601 C78 1.557 . S
C606 C122 1.548 . S
C631 C93 1.307 . S
C636 C97 1.331 . S
C666 C152 1.786 1_565 S
C661 C57 1.767 . S
C696 C166 1.784 . S
C691 C66 1.796 . S
C726 C136 1.414 . S
C721 C76 1.412 . S
C751 C88 1.371 . S
C756 C150 1.361 . S
C786 C153 1.708 . S
C781 C64 1.693 . S
C816 C167 1.659 . S
C811 C81 1.667 . S
C846 C137 1.300 . S
C841 C90 1.299 . S
C871 C54 1.610 . S
C876 C151 1.609 . S
