# Generated by pormake.
# Topology nom, (4,4)-cn, num edge types: 1
# Building blocks:
#     Node 0, Type 0, BuildingBlock: GIZVER_clean_linker_0, # of connection points: 4
#     Node 1, Type 0, BuildingBlock: GIZVER_clean_linker_0, # of connection points: 4
#     Node 2, Type 0, BuildingBlock: GIZVER_clean_linker_0, # of connection points: 4
#     Node 3, Type 0, BuildingBlock: GIZVER_clean_linker_0, # of connection points: 4
#     Node 4, Type 0, BuildingBlock: GIZVER_clean_linker_0, # of connection points: 4
#     Node 5, Type 0, BuildingBlock: GIZVER_clean_linker_0, # of connection points: 4
#     Node 6, Type 1, BuildingBlock: TATPOV_clean_sbu_0, # of connection points: 4
#     Node 7, Type 1, BuildingBlock: TATPOV_clean_sbu_0, # of connection points: 4
#     Node 8, Type 1, BuildingBlock: TATPOV_clean_sbu_0, # of connection points: 4
#     Node 9, Type 1, BuildingBlock: TATPOV_clean_sbu_0, # of connection points: 4
#     Node 10, Type 1, BuildingBlock: TATPOV_clean_sbu_0, # of connection points: 4
#     Node 11, Type 1, BuildingBlock: TATPOV_clean_sbu_0, # of connection points: 4
#     Edge 12, Type (0, 1), BuildingBlock: OJICUG_clean_linker_0, # of connection points: 2
#     Edge 13, Type (0, 1), BuildingBlock: OJICUG_clean_linker_0, # of connection points: 2
#     Edge 14, Type (0, 1), BuildingBlock: OJICUG_clean_linker_0, # of connection points: 2
#     Edge 15, Type (0, 1), BuildingBlock: OJICUG_clean_linker_0, # of connection points: 2
#     Edge 16, Type (0, 1), BuildingBlock: OJICUG_clean_linker_0, # of connection points: 2
#     Edge 17, Type (0, 1), BuildingBlock: OJICUG_clean_linker_0, # of connection points: 2
#     Edge 18, Type (0, 1), BuildingBlock: OJICUG_clean_linker_0, # of connection points: 2
#     Edge 19, Type (0, 1), BuildingBlock: OJICUG_clean_linker_0, # of connection points: 2
#     Edge 20, Type (0, 1), BuildingBlock: OJICUG_clean_linker_0, # of connection points: 2
#     Edge 21, Type (0, 1), BuildingBlock: OJICUG_clean_linker_0, # of connection points: 2
#     Edge 22, Type (0, 1), BuildingBlock: OJICUG_clean_linker_0, # of connection points: 2
#     Edge 23, Type (0, 1), BuildingBlock: OJICUG_clean_linker_0, # of connection points: 2
#     Edge 24, Type (0, 1), BuildingBlock: OJICUG_clean_linker_0, # of connection points: 2
#     Edge 25, Type (0, 1), BuildingBlock: OJICUG_clean_linker_0, # of connection points: 2
#     Edge 26, Type (0, 1), BuildingBlock: OJICUG_clean_linker_0, # of connection points: 2
#     Edge 27, Type (0, 1), BuildingBlock: OJICUG_clean_linker_0, # of connection points: 2
#     Edge 28, Type (0, 1), BuildingBlock: OJICUG_clean_linker_0, # of connection points: 2
#     Edge 29, Type (0, 1), BuildingBlock: OJICUG_clean_linker_0, # of connection points: 2
#     Edge 30, Type (0, 1), BuildingBlock: OJICUG_clean_linker_0, # of connection points: 2
#     Edge 31, Type (0, 1), BuildingBlock: OJICUG_clean_linker_0, # of connection points: 2
#     Edge 32, Type (0, 1), BuildingBlock: OJICUG_clean_linker_0, # of connection points: 2
#     Edge 33, Type (0, 1), BuildingBlock: OJICUG_clean_linker_0, # of connection points: 2
#     Edge 34, Type (0, 1), BuildingBlock: OJICUG_clean_linker_0, # of connection points: 2
#     Edge 35, Type (0, 1), BuildingBlock: OJICUG_clean_linker_0, # of connection points: 2
# Relax obj value: 0.021
# Max RMSD: 0.121
# Mean RMSD: 0.092
data_MOF--net-nom--node1-TATPOV_clean_sbu_0--node2-GIZVER_clean_linker_0--edge1-OJICUG_clean_linker_0
_symmetry_space_group_name_H-M    P1
_symmetry_Int_Tables_number       1
_symmetry_cell_setting            triclinic
loop_
_symmetry_equiv_pos_as_xyz
'x, y, z'
_cell_length_a     33.289279
_cell_length_b     33.371542
_cell_length_c     35.824582
_cell_angle_alpha  90.631868
_cell_angle_beta   90.308231
_cell_angle_gamma 119.2444
loop_
_atom_site_label
_atom_site_type_symbol
_atom_site_fract_x
_atom_site_fract_y
_atom_site_fract_z
_atom_type_partial_charge
H0 H 0.97069 0.52529 0.32137 0.0
H1 H 1.02049 0.4909 0.22376 0.0
H2 H 0.87937 0.4067 0.2552 0.0
H3 H 0.03386 0.58323 0.29034 0.0
H4 H 0.04226 0.5724 0.24323 0.0
H5 H 0.06466 0.54691 0.34054 0.0
H6 H 0.21021 0.61404 0.32083 0.0
H7 H 0.11478 0.58229 0.22931 0.0
C8 C 0.9649 0.50069 0.29919 0.0
C9 C 0.92116 0.46184 0.29385 0.0
C10 C 1.00014 0.51139 0.27351 0.0
C11 C 0.99267 0.4819 0.24321 0.0
C12 C 0.9479 0.44714 0.23404 0.0
C13 C 0.91338 0.4348 0.26115 0.0
C14 C 0.03993 0.55952 0.27212 0.0
C15 C 0.08494 0.56284 0.2836 0.0
C16 C 0.09325 0.55958 0.32138 0.0
C17 C 0.13844 0.5779 0.33515 0.0
C18 C 0.17524 0.59655 0.30997 0.0
C19 C 0.16728 0.59851 0.27157 0.0
C20 C 0.12162 0.57983 0.25855 0.0
H21 H 0.38545 0.99078 0.4854 0.0
H22 H 0.44773 0.03154 0.3782 0.0
H23 H 0.41533 0.89926 0.42097 0.0
H24 H 0.37921 0.05008 0.45084 0.0
H25 H 0.39919 0.06216 0.40389 0.0
H26 H 0.44319 0.07325 0.50255 0.0
H27 H 0.55292 0.2109 0.48674 0.0
H28 H 0.46643 0.13407 0.39381 0.0
C29 C 0.40007 0.98365 0.46096 0.0
C30 C 0.40094 0.942 0.45784 0.0
C31 C 0.41611 1.01542 0.43189 0.0
C32 C 0.43519 1.00657 0.40032 0.0
C33 C 0.43468 0.96447 0.3958 0.0
C34 C 0.41833 0.93283 0.42505 0.0
C35 C 0.40849 0.05638 0.43244 0.0
C36 C 0.45082 0.09851 0.44648 0.0
C37 C 0.46321 0.10172 0.48429 0.0
C38 C 0.50037 0.14186 0.4989 0.0
C39 C 0.52525 0.179 0.47533 0.0
C40 C 0.51316 0.17642 0.43752 0.0
C41 C 0.47638 0.13582 0.4229 0.0
H42 H 0.44014 0.53766 0.56733 0.0
H43 H 0.46538 0.49275 0.67276 0.0
H44 H 0.43552 0.60407 0.66932 0.0
H45 H 0.4484 0.47042 0.56872 0.0
H46 H 0.43309 0.44034 0.6117 0.0
H47 H 0.52944 0.51732 0.55188 0.0
H48 H 0.62838 0.49229 0.60851 0.0
H49 H 0.49031 0.43671 0.65072 0.0
C50 C 0.44448 0.54168 0.59739 0.0
C51 C 0.43833 0.57567 0.61586 0.0
C52 C 0.45495 0.51205 0.61784 0.0
C53 C 0.45872 0.51637 0.65688 0.0
C54 C 0.45235 0.54986 0.67562 0.0
C55 C 0.44287 0.57972 0.65486 0.0
C56 C 0.4582 0.47325 0.59878 0.0
C57 C 0.50609 0.47937 0.60271 0.0
C58 C 0.53886 0.50351 0.57555 0.0
C59 C 0.58222 0.5063 0.57684 0.0
C60 C 0.59427 0.4886 0.60759 0.0
C61 C 0.56124 0.46185 0.63426 0.0
C62 C 0.51718 0.45816 0.63168 0.0
H63 H 0.93812 0.38964 0.71079 0.0
H64 H 0.98657 0.43291 0.82395 0.0
H65 H 0.84722 0.39393 0.79319 0.0
H66 H 1.01395 0.40566 0.72707 0.0
H67 H 1.01678 0.39014 0.7739 0.0
H68 H 0.05077 0.48887 0.71022 0.0
H69 H 0.17219 0.57544 0.77474 0.0
H70 H 0.07048 0.44562 0.81825 0.0
C71 C 0.93265 0.3981 0.73892 0.0
C72 C 0.88901 0.39111 0.74889 0.0
C73 C 0.96857 0.41415 0.76583 0.0
C74 C 0.95991 0.42257 0.8027 0.0
C75 C 0.91606 0.41491 0.8127 0.0
C76 C 0.88123 0.40001 0.78553 0.0
C77 C 1.0137 0.41605 0.75666 0.0
C78 C 0.05511 0.46285 0.76407 0.0
C79 C 0.07031 0.4961 0.73609 0.0
C80 C 0.11271 0.53663 0.73996 0.0
C81 C 0.13876 0.54481 0.77277 0.0
C82 C 0.12418 0.51244 0.80138 0.0
C83 C 0.08179 0.4716 0.79695 0.0
H84 H 0.64523 0.07616 -0.01354 0.0
H85 H 0.57887 0.03642 0.87826 0.0
H86 H 0.59631 0.15904 0.93297 0.0
H87 H 0.64461 1.01259 0.95214 0.0
H88 H 0.62915 1.00518 0.90354 0.0
H89 H 0.57288 0.98698 -0.00203 0.0
H90 H 0.461 0.85457 -0.03288 0.0
H91 H 0.56582 0.93132 0.88718 0.0
C92 C 0.62703 0.08149 -0.03642 0.0
C93 C 0.62116 0.12052 -0.03609 0.0
C94 C 0.61041 0.05003 0.93315 0.0
C95 C 0.58957 0.05906 0.90257 0.0
C96 C 0.58415 0.09817 0.90268 0.0
C97 C 0.59862 0.12772 0.9338 0.0
C98 C 0.6174 1.00848 0.93185 0.0
C99 C 0.57335 0.96523 0.94094 0.0
C100 C 0.55521 0.96021 -0.023 0.0
C101 C 0.5145 0.92061 -0.01388 0.0
C102 C 0.49181 0.88579 0.9594 0.0
C103 C 0.51022 0.88901 0.9239 0.0
C104 C 0.55115 0.92889 0.91453 0.0
H105 H 0.66518 0.58756 0.06811 0.0
H106 H 0.64095 0.61241 0.18165 0.0
H107 H 0.66603 0.5008 0.15577 0.0
H108 H 0.66375 0.65704 0.08362 0.0
H109 H 0.67367 0.67547 0.13145 0.0
H110 H 0.58229 0.60548 0.06076 0.0
H111 H 0.47898 0.62505 0.11593 0.0
H112 H 0.6127 0.67642 0.16715 0.0
C113 C 0.66043 0.57756 0.09711 0.0
C114 C 0.66537 0.53983 0.1084 0.0
C115 C 0.65136 0.60371 0.12348 0.0
C116 C 0.6467 0.59163 0.16117 0.0
C117 C 0.65116 0.55406 0.17277 0.0
C118 C 0.65977 0.52802 0.14626 0.0
C119 C 0.65049 0.64676 0.11237 0.0
C120 C 0.60231 0.63991 0.11447 0.0
C121 C 0.57126 0.61726 0.08494 0.0
C122 C 0.5268 0.6117 0.08564 0.0
C123 C 0.51278 0.62767 0.1164 0.0
C124 C 0.54364 0.65144 0.14578 0.0
C125 C 0.58846 0.65738 0.14485 0.0
Zn126 Zn 0.74765 0.53964 0.38833 0.0
Zn127 Zn 0.67823 0.45064 0.37958 0.0
O128 O 0.73703 0.44727 0.37153 0.0
O129 O 0.79421 0.51676 0.38395 0.0
O130 O 0.62843 0.38493 0.38391 0.0
O131 O 0.72494 0.54853 0.43862 0.0
O132 O 0.66847 0.47856 0.4271 0.0
C133 C 0.77995 0.47522 0.37454 0.0
C134 C 0.68422 0.5169 0.32233 0.0
O135 O 0.66385 0.47593 0.3341 0.0
O136 O 0.71867 0.5482 0.34009 0.0
C137 C 0.62707 0.34972 0.36861 0.0
O138 O 0.6596 0.35492 0.34536 0.0
C139 C 0.68676 0.51475 0.44747 0.0
Zn140 Zn 0.1977 0.70208 0.54831 0.0
Zn141 Zn 0.26334 0.67653 0.54825 0.0
O142 O 0.30101 0.74647 0.54062 0.0
O143 O 0.24819 0.76796 0.54394 0.0
O144 O 0.30891 0.65306 0.55184 0.0
O145 O 0.1726 0.67258 0.59752 0.0
O146 O 0.22659 0.65261 0.59675 0.0
C147 C 0.28978 0.77793 0.53945 0.0
C148 C 0.19112 0.64258 0.48628 0.0
O149 O 0.22656 0.64412 0.50132 0.0
O150 O 0.17249 0.66401 0.50108 0.0
C151 C 0.34976 0.67594 0.56469 0.0
O152 O 0.36522 0.71877 0.57555 0.0
C153 C 0.19217 0.65238 0.61246 0.0
Zn154 Zn 0.51886 0.22165 0.72448 0.0
Zn155 Zn 0.61017 0.25162 0.71085 0.0
O156 O 0.60202 0.30859 0.70932 0.0
O157 O 0.53056 0.28746 0.72481 0.0
O158 O 0.67889 0.27597 0.70787 0.0
O159 O 0.52085 0.18947 0.77139 0.0
O160 O 0.59281 0.21136 0.75701 0.0
C161 C 0.57004 0.31843 0.71499 0.0
C162 C 0.54122 0.19099 0.65344 0.0
O163 O 0.58303 0.21399 0.66411 0.0
O164 O 0.50918 0.18897 0.67382 0.0
C165 C 0.70717 0.31232 0.69123 0.0
O166 O 0.69165 0.33617 0.67323 0.0
C167 C 0.55812 0.18918 0.77778 0.0
Zn168 Zn 0.35262 0.51428 0.89505 0.0
Zn169 Zn 0.38803 0.6078 0.88682 0.0
O170 O 0.31791 0.58341 0.88296 0.0
O171 O 0.28956 0.5088 0.88981 0.0
O172 O 0.42091 0.67748 0.88489 0.0
O173 O 0.38404 0.52381 0.94542 0.0
O174 O 0.41388 0.59789 0.93538 0.0
C175 C 0.28344 0.54289 0.88415 0.0
C176 C 0.40896 0.55266 0.82943 0.0
O177 O 0.41172 0.58997 0.84135 0.0
O178 O 0.38656 0.51582 0.84742 0.0
C179 C 0.40689 0.70393 0.87205 0.0
O180 O 0.36509 0.68618 0.85786 0.0
C181 C 0.41044 0.56509 0.95538 0.0
Zn182 Zn 0.86035 0.47959 0.02666 0.0
Zn183 Zn 0.79784 0.39097 0.02873 0.0
O184 O 0.75722 0.42191 0.03798 0.0
O185 O 0.80937 0.49486 0.03266 0.0
O186 O 0.75616 0.32216 0.02337 0.0
O187 O 0.88418 0.47728 -0.02351 0.0
O188 O 0.83164 0.40427 -0.02192 0.0
C189 C 0.76804 0.46435 0.03799 0.0
C190 C 0.87454 0.43072 0.08692 0.0
O191 O 0.83798 0.39636 0.07432 0.0
O192 O 0.89039 0.46932 0.07134 0.0
C193 C 0.7161 0.2963 0.03593 0.0
O194 O 0.69544 0.31437 0.05543 0.0
C195 C 0.86418 0.4379 0.96125 0.0
Zn196 Zn 0.37073 0.84044 0.18686 0.0
Zn197 Zn 0.42903 0.80994 0.20236 0.0
O198 O 0.36439 0.75274 0.20721 0.0
O199 O 0.31658 0.77776 0.1918 0.0
O200 O 0.47269 0.78388 0.20488 0.0
O201 O 0.39619 0.86471 0.13724 0.0
O202 O 0.44683 0.84274 0.15137 0.0
C203 C 0.3234 0.7454 0.20204 0.0
C204 C 0.42734 0.8808 0.2538 0.0
O205 O 0.44395 0.85424 0.24704 0.0
O206 O 0.39722 0.88101 0.23217 0.0
C207 C 0.4628 0.7457 0.21966 0.0
O208 O 0.42403 0.72338 0.23785 0.0
C209 C 0.43172 0.86211 0.12915 0.0
C210 C 0.25036 0.63373 0.25185 0.0
C211 C 0.20621 0.62901 0.24716 0.0
H212 H 0.32252 0.67419 0.24083 0.0
C213 C 0.20079 0.65861 0.22251 0.0
H214 H 0.25569 0.6111 0.27017 0.0
C215 C 0.23873 0.69405 0.20538 0.0
C216 C 0.28329 0.70138 0.21275 0.0
H217 H 0.16774 0.65689 0.21841 0.0
H218 H 0.23328 0.71755 0.18823 0.0
C219 C 0.28862 0.66966 0.23482 0.0
C220 C 0.56589 0.22138 0.38583 0.0
C221 C 0.53663 0.21824 0.41502 0.0
H222 H 0.61786 0.26592 0.34791 0.0
C223 C 0.53361 0.25717 0.42581 0.0
H224 H 0.56874 0.19164 0.37728 0.0
C225 C 0.56119 0.29929 0.4091 0.0
C226 C 0.59284 0.30351 0.3815 0.0
H227 H 0.51107 0.25532 0.44824 0.0
H228 H 0.55906 0.32894 0.41908 0.0
C229 C 0.59398 0.26384 0.3692 0.0
C230 C 0.44039 0.65061 0.60457 0.0
C231 C 0.42159 0.60359 0.59596 0.0
H232 H 0.43278 0.71053 0.60114 0.0
C233 C 0.38223 0.58212 0.57288 0.0
H234 H 0.47091 0.66808 0.62213 0.0
C235 C 0.36013 0.60633 0.56104 0.0
C236 C 0.37711 0.65255 0.57191 0.0
H237 H 0.36675 0.54585 0.56604 0.0
H238 H 0.32854 0.58818 0.54483 0.0
C239 C 0.41848 0.67489 0.59258 0.0
C240 C 0.83352 0.39739 0.70589 0.0
C241 C 0.8489 0.36985 0.72336 0.0
H242 H 0.77636 0.40047 0.68119 0.0
C243 C 0.8194 0.3223 0.72504 0.0
H244 H 0.85549 0.4343 0.70514 0.0
C245 C 0.77393 0.303 0.71217 0.0
C246 C 0.75726 0.33097 0.69729 0.0
H247 H 0.83038 0.30066 0.73914 0.0
H248 H 0.75113 0.2666 0.71592 0.0
C249 C 0.78813 0.37801 0.69255 0.0
C250 C 0.50929 0.81984 0.89657 0.0
C251 C 0.48841 0.84742 0.89969 0.0
H252 H 0.49967 0.75248 0.88553 0.0
C253 C 0.44212 0.82919 0.88858 0.0
H254 H 0.54465 0.83287 0.90571 0.0
C255 C 0.41627 0.78319 0.87696 0.0
C256 C 0.43604 0.75438 0.87706 0.0
H257 H 0.42512 0.84965 0.89145 0.0
H258 H 0.38004 0.76949 0.87049 0.0
C259 C 0.48329 0.77366 0.88555 0.0
C260 C 0.66965 0.47009 0.08567 0.0
C261 C 0.68371 0.51723 0.08275 0.0
H262 H 0.68502 0.4159 0.07343 0.0
C263 C 0.72078 0.54421 0.05946 0.0
H264 H 0.64072 0.44814 0.10291 0.0
C265 C 0.74585 0.5257 0.04248 0.0
C266 C 0.73456 0.47974 0.04833 0.0
H267 H 0.73285 0.5806 0.05663 0.0
H268 H 0.77592 0.54833 0.02659 0.0
C269 C 0.69484 0.45149 0.0686 0.0
C270 C 0.39389 0.87445 0.49397 0.0
C271 C 0.37742 0.90507 0.48572 0.0
H272 H 0.37941 0.81031 0.51799 0.0
C273 C 0.33527 0.89684 0.50094 0.0
H274 H 0.42667 0.88025 0.48334 0.0
C275 C 0.30861 0.85724 0.52127 0.0
C276 C 0.32312 0.82455 0.52658 0.0
H277 H 0.32112 0.91924 0.49505 0.0
H278 H 0.27516 0.8509 0.53067 0.0
C279 C 0.36697 0.83453 0.51412 0.0
C280 C 0.60147 0.41665 0.65048 0.0
C281 C 0.57026 0.43209 0.66039 0.0
H282 H 0.62719 0.37056 0.66094 0.0
C283 C 0.54443 0.41447 0.69315 0.0
H284 H 0.62147 0.42757 0.62531 0.0
C285 C 0.54636 0.37935 0.71289 0.0
C286 C 0.57554 0.36243 0.70123 0.0
H287 H 0.52115 0.42619 0.70281 0.0
H288 H 0.52366 0.36415 0.7363 0.0
C289 C 0.60468 0.38313 0.67101 0.0
C290 C 0.16357 0.48159 0.84264 0.0
C291 C 0.15743 0.51866 0.83197 0.0
H292 H 0.20775 0.46012 0.86829 0.0
C293 C 0.18889 0.56294 0.84569 0.0
H294 H 0.14036 0.44703 0.83267 0.0
C295 C 0.22855 0.57073 0.86537 0.0
C296 C 0.23699 0.5342 0.8725 0.0
H297 H 0.18453 0.59217 0.83897 0.0
H298 H 0.25384 0.60567 0.87295 0.0
C299 C 0.2027 0.48924 0.86292 0.0
C300 C 0.61998 0.17771 0.00897 0.0
C301 C 0.64456 0.15848 -0.00839 0.0
H302 H 0.62334 0.23632 0.03711 0.0
C303 C 0.69282 0.18221 -0.00619 0.0
H304 H 0.58271 0.16019 0.00733 0.0
C305 C 0.7161 0.22616 0.0101 0.0
C306 C 0.69155 0.24697 0.02491 0.0
H307 H 0.71257 0.16847 -0.01981 0.0
H308 H 0.75338 0.24474 0.00942 0.0
C309 C 0.64326 0.22141 0.02577 0.0
C310 C 0.55292 0.72367 0.17486 0.0
C311 C 0.53006 0.67548 0.17368 0.0
H312 H 0.54942 0.78403 0.19054 0.0
C313 C 0.48877 0.65104 0.1932 0.0
H314 H 0.58454 0.74322 0.15964 0.0
C315 C 0.46882 0.67429 0.21116 0.0
C316 C 0.48935 0.72237 0.20921 0.0
H317 H 0.47045 0.61382 0.19245 0.0
H318 H 0.43558 0.6543 0.22404 0.0
C319 C 0.53259 0.74695 0.19228 0.0
C320 C 0.89041 0.47356 0.35521 0.0
C321 C 0.88212 0.45574 0.31829 0.0
H322 H 0.86478 0.49498 0.4019 0.0
C323 C 0.8371 0.43751 0.30351 0.0
H324 H 0.92385 0.48636 0.36843 0.0
C325 C 0.80273 0.43997 0.3238 0.0
C326 C 0.81275 0.46223 0.35874 0.0
H327 H 0.82852 0.42421 0.27525 0.0
H328 H 0.76932 0.42799 0.31064 0.0
C329 C 0.85645 0.47795 0.3748 0.0
C330 C 0.18426 0.58445 0.39327 0.0
C331 C 0.14768 0.58698 0.37579 0.0
H332 H 0.22666 0.59975 0.44232 0.0
C333 C 0.12289 0.60356 0.39645 0.0
H334 H 0.20379 0.57157 0.37813 0.0
C335 C 0.1356 0.6192 0.43302 0.0
C336 C 0.17377 0.61922 0.44981 0.0
H337 H 0.09516 0.60704 0.38379 0.0
H338 H 0.11667 0.63328 0.44748 0.0
C339 C 0.19721 0.60043 0.43002 0.0
C340 C 0.47459 0.13526 0.56489 0.0
C341 C 0.51042 0.14717 0.53939 0.0
H342 H 0.45623 0.13946 0.62125 0.0
C343 C 0.55609 0.16828 0.55256 0.0
H344 H 0.43906 0.1192 0.55541 0.0
C345 C 0.56599 0.17997 0.59026 0.0
C346 C 0.53035 0.17101 0.61537 0.0
H347 H 0.58424 0.17722 0.53346 0.0
H348 H 0.60171 0.19804 0.5993 0.0
C349 C 0.48447 0.1471 0.60257 0.0
C350 C 0.42423 0.509 0.73605 0.0
C351 C 0.44958 0.55033 0.71686 0.0
H352 H 0.39183 0.47729 0.78704 0.0
C353 C 0.46712 0.59217 0.7367 0.0
H354 H 0.40994 0.47618 0.7215 0.0
C355 C 0.4562 0.59283 0.77413 0.0
C356 C 0.42782 0.55161 0.7925 0.0
H357 H 0.48751 0.62451 0.72279 0.0
H358 H 0.4683 0.62573 0.78815 0.0
C359 C 0.41361 0.50964 0.7736 0.0
C360 C 0.93232 0.4603 0.87225 0.0
C361 C 0.90506 0.41975 0.85178 0.0
H362 H 0.94042 0.49808 0.92294 0.0
C363 C 0.86544 0.38441 0.86808 0.0
H364 H 0.96293 0.48802 0.86016 0.0
C365 C 0.85253 0.38996 0.90389 0.0
C366 C 0.87884 0.43114 0.92398 0.0
H367 H 0.84415 0.35256 0.85291 0.0
H368 H 0.82148 0.36232 0.9155 0.0
C369 C 0.91917 0.46607 0.90799 0.0
C370 C 0.45234 0.90611 0.03068 0.0
C371 C 0.49666 0.91287 0.02426 0.0
H372 H 0.39715 0.885 0.06915 0.0
C373 C 0.52081 0.90529 0.053 0.0
H374 H 0.43309 0.9113 0.00857 0.0
C375 C 0.49999 0.88921 0.08745 0.0
C376 C 0.455 0.88113 0.09362 0.0
H377 H 0.55484 0.90971 0.04819 0.0
H378 H 0.51876 0.88241 0.10897 0.0
C379 C 0.43182 0.8908 0.06521 0.0
C380 C 0.63049 0.5004 0.22633 0.0
C381 C 0.65323 0.5454 0.21291 0.0
H382 H 0.62195 0.4561 0.27177 0.0
C383 C 0.68236 0.58159 0.23708 0.0
H384 H 0.60763 0.47199 0.20825 0.0
C385 C 0.69085 0.57259 0.27336 0.0
C386 C 0.67016 0.52725 0.28615 0.0
H387 H 0.70065 0.61659 0.22731 0.0
H388 H 0.71501 0.60099 0.29083 0.0
C389 C 0.63869 0.49141 0.2627 0.0
C390 C 0.4263 0.96201 0.32641 0.0
C391 C 0.44257 0.95006 0.35835 0.0
H392 H 0.41012 0.95054 0.26843 0.0
C393 C 0.46055 0.91983 0.35425 0.0
H394 H 0.41145 0.98447 0.32818 0.0
C395 C 0.45877 0.89925 0.31951 0.0
C396 C 0.4391 0.90879 0.28843 0.0
H397 H 0.47408 0.91049 0.37816 0.0
H398 H 0.47026 0.87404 0.31752 0.0
C399 C 0.42494 0.94195 0.29195 0.0
C400 C 0.65788 0.54307 0.54303 0.0
C401 C 0.60961 0.51603 0.54242 0.0
H402 H 0.72067 0.56451 0.51289 0.0
C403 C 0.5874 0.49152 0.50967 0.0
H404 H 0.67577 0.56197 0.5681 0.0
C405 C 0.61281 0.49203 0.47887 0.0
C406 C 0.66104 0.51759 0.47978 0.0
H407 H 0.55036 0.46966 0.50855 0.0
H408 H 0.59457 0.4716 0.45446 0.0
C409 C 0.68346 0.54433 0.51165 0.0
C410 C 0.10827 0.5848 0.6885 0.0
C411 C 0.13314 0.56772 0.70808 0.0
H412 H 0.10792 0.62598 0.64323 0.0
C413 C 0.17804 0.57997 0.69684 0.0
H414 H 0.07366 0.57588 0.69672 0.0
C415 C 0.19759 0.60832 0.66632 0.0
C416 C 0.17278 0.62533 0.64651 0.0
H417 H 0.19776 0.56677 0.71122 0.0
H418 H 0.23197 0.61647 0.65801 0.0
C419 C 0.12807 0.61369 0.65813 0.0
C420 C 0.59875 0.12255 0.83674 0.0
C421 C 0.57128 0.11348 0.86843 0.0
H422 H 0.61664 0.15449 0.78347 0.0
C423 C 0.53728 0.12683 0.86926 0.0
H424 H 0.62571 0.11326 0.83579 0.0
C425 C 0.53188 0.15028 0.83926 0.0
C426 C 0.56119 0.16167 0.80845 0.0
H427 H 0.5161 0.12057 0.8937 0.0
H428 H 0.50612 0.16113 0.84086 0.0
C429 C 0.59402 0.14676 0.80714 0.0
C430 C 0.45546 0.55651 0.05056 0.0
C431 C 0.49794 0.59718 0.05171 0.0
H432 H 0.39423 0.51384 0.01841 0.0
C433 C 0.51149 0.62678 0.02129 0.0
H434 H 0.44439 0.53363 0.07411 0.0
C435 C 0.4826 0.61636 -0.00977 0.0
C436 C 0.44004 0.57568 -0.01122 0.0
H437 H 0.54394 0.65864 0.02201 0.0
H438 H 0.49378 0.64006 -0.03279 0.0
C439 C 0.4269 0.54542 0.01894 0.0
C440 C 0.89393 0.39524 0.18255 0.0
C441 C 0.93485 0.43501 0.19372 0.0
H442 H 0.84206 0.36248 0.13972 0.0
C443 C 0.95896 0.46834 0.16648 0.0
H444 H 0.87489 0.36802 0.20203 0.0
C445 C 0.94076 0.46448 0.13091 0.0
C446 C 0.89747 0.42772 0.12133 0.0
H447 H 0.99011 0.50002 0.17296 0.0
H448 H 0.95941 0.4923 0.11174 0.0
C449 C 0.8752 0.39178 0.14668 0.0
loop_
_geom_bond_atom_site_label_1
_geom_bond_atom_site_label_2
_geom_bond_distance
_geom_bond_site_symmetry_2
_ccdc_geom_bond_type
H0 C8 0.930 . S
H1 C11 0.930 . S
H2 C13 0.930 . S
H3 C14 0.970 1_655 S
H4 C14 0.970 . S
H5 C16 0.930 . S
H6 C18 0.930 . S
H7 C20 0.930 . S
C8 H0 0.930 . S
C8 C9 1.382 . S
C8 C10 1.426 . S
C9 C8 1.382 . S
C9 C13 1.389 . S
C10 C8 1.426 . S
C10 C11 1.375 . S
C10 C14 1.532 1_655 S
C11 H1 0.930 . S
C11 C10 1.375 . S
C11 C12 1.416 . S
C12 C11 1.416 . S
C12 C13 1.371 . S
C13 H2 0.930 . S
C13 C9 1.389 . S
C13 C12 1.371 . S
C14 H3 0.970 1_455 S
C14 H4 0.970 . S
C14 C10 1.532 1_455 S
C14 C15 1.499 . S
C15 C14 1.499 . S
C15 C16 1.370 . S
C15 C20 1.415 . S
C16 H5 0.930 . S
C16 C15 1.370 . S
C16 C17 1.407 . S
C17 C16 1.407 . S
C17 C18 1.365 . S
C18 H6 0.930 . S
C18 C17 1.365 . S
C18 C19 1.393 . S
C19 C18 1.393 . S
C19 C20 1.387 . S
C20 H7 0.930 . S
C20 C15 1.415 . S
C20 C19 1.387 . S
H21 C29 0.930 . S
H22 C32 0.930 . S
H23 C34 0.930 . S
H24 C35 0.969 . S
H25 C35 0.970 . S
H26 C37 0.930 . S
H27 C39 0.930 . S
H28 C41 0.930 . S
C29 H21 0.930 . S
C29 C30 1.382 . S
C29 C31 1.426 . S
C30 C29 1.382 . S
C30 C34 1.389 . S
C31 C29 1.426 . S
C31 C32 1.375 . S
C31 C35 1.532 1_565 S
C32 H22 0.930 . S
C32 C31 1.375 . S
C32 C33 1.416 . S
C33 C32 1.416 . S
C33 C34 1.371 . S
C34 H23 0.930 . S
C34 C30 1.389 . S
C34 C33 1.371 . S
C35 H24 0.969 . S
C35 H25 0.970 . S
C35 C31 1.532 1_545 S
C35 C36 1.499 . S
C36 C35 1.499 . S
C36 C37 1.370 . S
C36 C41 1.415 . S
C37 H26 0.930 . S
C37 C36 1.370 . S
C37 C38 1.407 . S
C38 C37 1.407 . S
C38 C39 1.365 . S
C39 H27 0.930 . S
C39 C38 1.365 . S
C39 C40 1.393 . S
C40 C39 1.393 . S
C40 C41 1.387 . S
C41 H28 0.930 . S
C41 C36 1.415 . S
C41 C40 1.387 . S
H42 C50 0.930 . S
H43 C53 0.930 . S
H44 C55 0.930 . S
H45 C56 0.970 . S
H46 C56 0.970 . S
H47 C58 0.930 . S
H48 C60 0.930 . S
H49 C62 0.930 . S
C50 H42 0.930 . S
C50 C51 1.382 . S
C50 C52 1.426 . S
C51 C50 1.382 . S
C51 C55 1.389 . S
C52 C50 1.426 . S
C52 C53 1.375 . S
C52 C56 1.532 . S
C53 H43 0.930 . S
C53 C52 1.375 . S
C53 C54 1.416 . S
C54 C53 1.416 . S
C54 C55 1.371 . S
C55 H44 0.930 . S
C55 C51 1.389 . S
C55 C54 1.371 . S
C56 H45 0.970 . S
C56 H46 0.970 . S
C56 C52 1.532 . S
C56 C57 1.499 . S
C57 C56 1.499 . S
C57 C58 1.370 . S
C57 C62 1.415 . S
C58 H47 0.930 . S
C58 C57 1.370 . S
C58 C59 1.407 . S
C59 C58 1.407 . S
C59 C60 1.365 . S
C60 H48 0.930 . S
C60 C59 1.365 . S
C60 C61 1.393 . S
C61 C60 1.393 . S
C61 C62 1.387 . S
C62 H49 0.930 . S
C62 C57 1.415 . S
C62 C61 1.387 . S
H63 C71 0.930 . S
H64 C74 0.930 . S
H65 C76 0.930 . S
H66 C77 0.969 . S
H67 C77 0.970 . S
H68 C79 0.930 . S
H69 C81 0.930 . S
H70 C83 0.930 . S
C71 H63 0.930 . S
C71 C72 1.382 . S
C71 C73 1.426 . S
C72 C71 1.382 . S
C72 C76 1.389 . S
C73 C71 1.426 . S
C73 C74 1.375 . S
C73 C77 1.532 1_655 S
C74 H64 0.930 . S
C74 C73 1.375 . S
C74 C75 1.416 . S
C75 C74 1.416 . S
C75 C76 1.371 . S
C76 H65 0.930 . S
C76 C72 1.389 . S
C76 C75 1.371 . S
C77 H66 0.969 . S
C77 H67 0.970 . S
C77 C73 1.532 1_455 S
C77 C78 1.499 . S
C78 C77 1.499 . S
C78 C79 1.370 . S
C78 C83 1.415 . S
C79 H68 0.930 . S
C79 C78 1.370 . S
C79 C80 1.407 . S
C80 C79 1.407 . S
C80 C81 1.365 . S
C81 H69 0.930 . S
C81 C80 1.365 . S
C81 C82 1.393 . S
C82 C81 1.393 . S
C82 C83 1.387 . S
C83 H70 0.930 . S
C83 C78 1.415 . S
C83 C82 1.387 . S
H84 C92 0.930 . S
H85 C95 0.930 . S
H86 C97 0.930 . S
H87 C98 0.970 1_554 S
H88 C98 0.970 . S
H89 C100 0.930 . S
H90 C102 0.930 . S
H91 C104 0.930 . S
C92 H84 0.930 . S
C92 C93 1.388 . S
C92 C94 1.426 1_554 S
C93 C92 1.388 . S
C93 C97 1.368 1_554 S
C94 C92 1.426 1_556 S
C94 C95 1.375 . S
C94 C98 1.532 . S
C95 H85 0.930 . S
C95 C94 1.375 . S
C95 C96 1.416 . S
C96 C95 1.416 . S
C96 C97 1.371 . S
C97 H86 0.930 . S
C97 C93 1.368 1_556 S
C97 C96 1.371 . S
C98 H87 0.970 1_556 S
C98 H88 0.970 . S
C98 C94 1.532 . S
C98 C99 1.499 1_546 S
C99 C98 1.499 1_564 S
C99 C100 1.370 . S
C99 C104 1.415 1_554 S
C100 H89 0.930 . S
C100 C99 1.370 . S
C100 C101 1.407 . S
C101 C100 1.407 . S
C101 C102 1.365 . S
C102 H90 0.930 . S
C102 C101 1.365 . S
C102 C103 1.393 1_554 S
C103 C102 1.393 1_556 S
C103 C104 1.387 . S
C104 H91 0.930 . S
C104 C99 1.415 1_556 S
C104 C103 1.387 . S
H105 C113 0.930 . S
H106 C116 0.930 . S
H107 C118 0.930 . S
H108 C119 0.970 . S
H109 C119 0.970 . S
H110 C121 0.930 . S
H111 C123 0.930 . S
H112 C125 0.930 . S
C113 H105 0.930 . S
C113 C114 1.382 . S
C113 C115 1.426 . S
C114 C113 1.382 . S
C114 C118 1.389 . S
C115 C113 1.426 . S
C115 C116 1.375 . S
C115 C119 1.532 . S
C116 H106 0.930 . S
C116 C115 1.375 . S
C116 C117 1.416 . S
C117 C116 1.416 . S
C117 C118 1.371 . S
C118 H107 0.930 . S
C118 C114 1.389 . S
C118 C117 1.371 . S
C119 H108 0.970 . S
C119 H109 0.970 . S
C119 C115 1.532 . S
C119 C120 1.499 . S
C120 C119 1.499 . S
C120 C121 1.370 . S
C120 C125 1.415 . S
C121 H110 0.930 . S
C121 C120 1.370 . S
C121 C122 1.407 . S
C122 C121 1.407 . S
C122 C123 1.365 . S
C123 H111 0.930 . S
C123 C122 1.365 . S
C123 C124 1.393 . S
C124 C123 1.393 . S
C124 C125 1.387 . S
C125 H112 0.930 . S
C125 C120 1.415 . S
C125 C124 1.387 . S
Zn126 O129 2.031 . S
Zn126 O131 2.049 . S
Zn126 O136 2.067 . S
Zn127 O128 1.962 . S
Zn127 O130 1.986 . S
Zn127 O132 1.996 . S
Zn127 O135 1.943 . S
O128 Zn127 1.962 . S
O128 C133 1.254 . S
O129 Zn126 2.031 . S
O129 C133 1.269 . S
O130 Zn127 1.986 . S
O130 C137 1.262 . S
O131 Zn126 2.049 . S
O131 C139 1.260 . S
O132 Zn127 1.996 . S
O132 C139 1.257 . S
C133 O128 1.254 . S
C133 O129 1.269 . S
C134 O135 1.249 . S
C134 O136 1.270 . S
O135 Zn127 1.943 . S
O135 C134 1.249 . S
O136 Zn126 2.067 . S
O136 C134 1.270 . S
C137 O130 1.262 . S
C137 O138 1.232 . S
O138 C137 1.232 . S
C139 O131 1.260 . S
C139 O132 1.257 . S
Zn140 O143 2.031 . S
Zn140 O145 2.049 . S
Zn140 O150 2.067 . S
Zn141 O142 1.962 . S
Zn141 O144 1.986 . S
Zn141 O146 1.996 . S
Zn141 O149 1.943 . S
O142 Zn141 1.962 . S
O142 C147 1.254 . S
O143 Zn140 2.031 . S
O143 C147 1.269 . S
O144 Zn141 1.986 . S
O144 C151 1.262 . S
O145 Zn140 2.049 . S
O145 C153 1.260 . S
O146 Zn141 1.996 . S
O146 C153 1.257 . S
C147 O142 1.254 . S
C147 O143 1.269 . S
C148 O149 1.249 . S
C148 O150 1.270 . S
O149 Zn141 1.943 . S
O149 C148 1.249 . S
O150 Zn140 2.067 . S
O150 C148 1.270 . S
C151 O144 1.262 . S
C151 O152 1.232 . S
O152 C151 1.232 . S
C153 O145 1.260 . S
C153 O146 1.257 . S
Zn154 O157 2.031 . S
Zn154 O159 2.049 . S
Zn154 O164 2.067 . S
Zn155 O156 1.962 . S
Zn155 O158 1.986 . S
Zn155 O160 1.996 . S
Zn155 O163 1.943 . S
O156 Zn155 1.962 . S
O156 C161 1.254 . S
O157 Zn154 2.031 . S
O157 C161 1.269 . S
O158 Zn155 1.986 . S
O158 C165 1.262 . S
O159 Zn154 2.049 . S
O159 C167 1.260 . S
O160 Zn155 1.996 . S
O160 C167 1.257 . S
C161 O156 1.254 . S
C161 O157 1.269 . S
C162 O163 1.249 . S
C162 O164 1.270 . S
O163 Zn155 1.943 . S
O163 C162 1.249 . S
O164 Zn154 2.067 . S
O164 C162 1.270 . S
C165 O158 1.262 . S
C165 O166 1.232 . S
O166 C165 1.232 . S
C167 O159 1.260 . S
C167 O160 1.257 . S
Zn168 O171 2.031 . S
Zn168 O173 2.049 . S
Zn168 O178 2.067 . S
Zn169 O170 1.962 . S
Zn169 O172 1.986 . S
Zn169 O174 1.996 . S
Zn169 O177 1.943 . S
O170 Zn169 1.962 . S
O170 C175 1.254 . S
O171 Zn168 2.031 . S
O171 C175 1.269 . S
O172 Zn169 1.986 . S
O172 C179 1.262 . S
O173 Zn168 2.049 . S
O173 C181 1.260 . S
O174 Zn169 1.996 . S
O174 C181 1.257 . S
C175 O170 1.254 . S
C175 O171 1.269 . S
C176 O177 1.249 . S
C176 O178 1.270 . S
O177 Zn169 1.943 . S
O177 C176 1.249 . S
O178 Zn168 2.067 . S
O178 C176 1.270 . S
C179 O172 1.262 . S
C179 O180 1.232 . S
O180 C179 1.232 . S
C181 O173 1.260 . S
C181 O174 1.257 . S
Zn182 O185 2.031 . S
Zn182 O187 2.049 . S
Zn182 O192 2.067 . S
Zn183 O184 1.962 . S
Zn183 O186 1.986 . S
Zn183 O188 1.996 . S
Zn183 O191 1.943 . S
O184 Zn183 1.962 . S
O184 C189 1.254 . S
O185 Zn182 2.031 . S
O185 C189 1.269 . S
O186 Zn183 1.986 . S
O186 C193 1.262 . S
O187 Zn182 2.049 . S
O187 C195 1.260 . S
O188 Zn183 1.996 . S
O188 C195 1.257 . S
C189 O184 1.254 . S
C189 O185 1.269 . S
C190 O191 1.249 . S
C190 O192 1.270 . S
O191 Zn183 1.943 . S
O191 C190 1.249 . S
O192 Zn182 2.067 . S
O192 C190 1.270 . S
C193 O186 1.262 . S
C193 O194 1.232 . S
O194 C193 1.232 . S
C195 O187 1.260 . S
C195 O188 1.257 . S
Zn196 O199 2.031 . S
Zn196 O201 2.049 . S
Zn196 O206 2.067 . S
Zn197 O198 1.962 . S
Zn197 O200 1.986 . S
Zn197 O202 1.996 . S
Zn197 O205 1.943 . S
O198 Zn197 1.962 . S
O198 C203 1.254 . S
O199 Zn196 2.031 . S
O199 C203 1.269 . S
O200 Zn197 1.986 . S
O200 C207 1.262 . S
O201 Zn196 2.049 . S
O201 C209 1.260 . S
O202 Zn197 1.996 . S
O202 C209 1.257 . S
C203 O198 1.254 . S
C203 O199 1.269 . S
C204 O205 1.249 . S
C204 O206 1.270 . S
O205 Zn197 1.943 . S
O205 C204 1.249 . S
O206 Zn196 2.067 . S
O206 C204 1.270 . S
C207 O200 1.262 . S
C207 O208 1.232 . S
O208 C207 1.232 . S
C209 O201 1.260 . S
C209 O202 1.257 . S
C210 C211 1.387 . S
C210 H214 0.950 . S
C210 C219 1.390 . S
C211 C210 1.387 . S
C211 C213 1.387 . S
H212 C219 0.950 . S
C213 C211 1.387 . S
C213 C215 1.390 . S
C213 H217 0.950 . S
H214 C210 0.950 . S
C215 C213 1.390 . S
C215 C216 1.387 . S
C215 H218 0.950 . S
C216 C215 1.387 . S
C216 C219 1.387 . S
H217 C213 0.950 . S
H218 C215 0.950 . S
C219 C210 1.390 . S
C219 H212 0.950 . S
C219 C216 1.387 . S
C220 C221 1.387 . S
C220 H224 0.950 . S
C220 C229 1.390 . S
C221 C220 1.387 . S
C221 C223 1.387 . S
H222 C229 0.950 . S
C223 C221 1.387 . S
C223 C225 1.390 . S
C223 H227 0.950 . S
H224 C220 0.950 . S
C225 C223 1.390 . S
C225 C226 1.387 . S
C225 H228 0.950 . S
C226 C225 1.387 . S
C226 C229 1.387 . S
H227 C223 0.950 . S
H228 C225 0.950 . S
C229 C220 1.390 . S
C229 H222 0.950 . S
C229 C226 1.387 . S
C230 C231 1.387 . S
C230 H234 0.950 . S
C230 C239 1.390 . S
C231 C230 1.387 . S
C231 C233 1.387 . S
H232 C239 0.950 . S
C233 C231 1.387 . S
C233 C235 1.390 . S
C233 H237 0.950 . S
H234 C230 0.950 . S
C235 C233 1.390 . S
C235 C236 1.387 . S
C235 H238 0.950 . S
C236 C235 1.387 . S
C236 C239 1.387 . S
H237 C233 0.950 . S
H238 C235 0.950 . S
C239 C230 1.390 . S
C239 H232 0.950 . S
C239 C236 1.387 . S
C240 C241 1.387 . S
C240 H244 0.950 . S
C240 C249 1.390 . S
C241 C240 1.387 . S
C241 C243 1.387 . S
H242 C249 0.950 . S
C243 C241 1.387 . S
C243 C245 1.390 . S
C243 H247 0.950 . S
H244 C240 0.950 . S
C245 C243 1.390 . S
C245 C246 1.387 . S
C245 H248 0.950 . S
C246 C245 1.387 . S
C246 C249 1.387 . S
H247 C243 0.950 . S
H248 C245 0.950 . S
C249 C240 1.390 . S
C249 H242 0.950 . S
C249 C246 1.387 . S
C250 C251 1.387 . S
C250 H254 0.950 . S
C250 C259 1.390 . S
C251 C250 1.387 . S
C251 C253 1.387 . S
H252 C259 0.950 . S
C253 C251 1.387 . S
C253 C255 1.390 . S
C253 H257 0.950 . S
H254 C250 0.950 . S
C255 C253 1.390 . S
C255 C256 1.387 . S
C255 H258 0.950 . S
C256 C255 1.387 . S
C256 C259 1.387 . S
H257 C253 0.950 . S
H258 C255 0.950 . S
C259 C250 1.390 . S
C259 H252 0.950 . S
C259 C256 1.387 . S
C260 C261 1.387 . S
C260 H264 0.950 . S
C260 C269 1.390 . S
C261 C260 1.387 . S
C261 C263 1.387 . S
H262 C269 0.950 . S
C263 C261 1.387 . S
C263 C265 1.390 . S
C263 H267 0.950 . S
H264 C260 0.950 . S
C265 C263 1.390 . S
C265 C266 1.387 . S
C265 H268 0.950 . S
C266 C265 1.387 . S
C266 C269 1.387 . S
H267 C263 0.950 . S
H268 C265 0.950 . S
C269 C260 1.390 . S
C269 H262 0.950 . S
C269 C266 1.387 . S
C270 C271 1.387 . S
C270 H274 0.950 . S
C270 C279 1.390 . S
C271 C270 1.387 . S
C271 C273 1.387 . S
H272 C279 0.950 . S
C273 C271 1.387 . S
C273 C275 1.390 . S
C273 H277 0.950 . S
H274 C270 0.950 . S
C275 C273 1.390 . S
C275 C276 1.387 . S
C275 H278 0.950 . S
C276 C275 1.387 . S
C276 C279 1.387 . S
H277 C273 0.950 . S
H278 C275 0.950 . S
C279 C270 1.390 . S
C279 H272 0.950 . S
C279 C276 1.387 . S
C280 C281 1.387 . S
C280 H284 0.950 . S
C280 C289 1.390 . S
C281 C280 1.387 . S
C281 C283 1.387 . S
H282 C289 0.950 . S
C283 C281 1.387 . S
C283 C285 1.390 . S
C283 H287 0.950 . S
H284 C280 0.950 . S
C285 C283 1.390 . S
C285 C286 1.387 . S
C285 H288 0.950 . S
C286 C285 1.387 . S
C286 C289 1.387 . S
H287 C283 0.950 . S
H288 C285 0.950 . S
C289 C280 1.390 . S
C289 H282 0.950 . S
C289 C286 1.387 . S
C290 C291 1.387 . S
C290 H294 0.950 . S
C290 C299 1.390 . S
C291 C290 1.387 . S
C291 C293 1.387 . S
H292 C299 0.950 . S
C293 C291 1.387 . S
C293 C295 1.390 . S
C293 H297 0.950 . S
H294 C290 0.950 . S
C295 C293 1.390 . S
C295 C296 1.387 . S
C295 H298 0.950 . S
C296 C295 1.387 . S
C296 C299 1.387 . S
H297 C293 0.950 . S
H298 C295 0.950 . S
C299 C290 1.390 . S
C299 H292 0.950 . S
C299 C296 1.387 . S
C300 C301 1.387 . S
C300 H304 0.950 . S
C300 C309 1.390 . S
C301 C300 1.387 . S
C301 C303 1.387 1_554 S
H302 C309 0.950 . S
C303 C301 1.387 1_556 S
C303 C305 1.390 1_556 S
C303 H307 0.950 . S
H304 C300 0.950 . S
C305 C303 1.390 1_554 S
C305 C306 1.387 . S
C305 H308 0.950 1_554 S
C306 C305 1.387 . S
C306 C309 1.387 . S
H307 C303 0.950 . S
H308 C305 0.950 1_556 S
C309 C300 1.390 . S
C309 H302 0.950 . S
C309 C306 1.387 . S
C310 C311 1.387 . S
C310 H314 0.950 . S
C310 C319 1.390 . S
C311 C310 1.387 . S
C311 C313 1.387 . S
H312 C319 0.950 . S
C313 C311 1.387 . S
C313 C315 1.390 . S
C313 H317 0.950 . S
H314 C310 0.950 . S
C315 C313 1.390 . S
C315 C316 1.387 . S
C315 H318 0.950 . S
C316 C315 1.387 . S
C316 C319 1.387 . S
H317 C313 0.950 . S
H318 C315 0.950 . S
C319 C310 1.390 . S
C319 H312 0.950 . S
C319 C316 1.387 . S
C320 C321 1.387 . S
C320 H324 0.950 . S
C320 C329 1.390 . S
C321 C320 1.387 . S
C321 C323 1.387 . S
H322 C329 0.950 . S
C323 C321 1.387 . S
C323 C325 1.390 . S
C323 H327 0.950 . S
H324 C320 0.950 . S
C325 C323 1.390 . S
C325 C326 1.387 . S
C325 H328 0.950 . S
C326 C325 1.387 . S
C326 C329 1.387 . S
H327 C323 0.950 . S
H328 C325 0.950 . S
C329 C320 1.390 . S
C329 H322 0.950 . S
C329 C326 1.387 . S
C330 C331 1.387 . S
C330 H334 0.950 . S
C330 C339 1.390 . S
C331 C330 1.387 . S
C331 C333 1.387 . S
H332 C339 0.950 . S
C333 C331 1.387 . S
C333 C335 1.390 . S
C333 H337 0.950 . S
H334 C330 0.950 . S
C335 C333 1.390 . S
C335 C336 1.387 . S
C335 H338 0.950 . S
C336 C335 1.387 . S
C336 C339 1.387 . S
H337 C333 0.950 . S
H338 C335 0.950 . S
C339 C330 1.390 . S
C339 H332 0.950 . S
C339 C336 1.387 . S
C340 C341 1.387 . S
C340 H344 0.950 . S
C340 C349 1.390 . S
C341 C340 1.387 . S
C341 C343 1.387 . S
H342 C349 0.950 . S
C343 C341 1.387 . S
C343 C345 1.390 . S
C343 H347 0.950 . S
H344 C340 0.950 . S
C345 C343 1.390 . S
C345 C346 1.387 . S
C345 H348 0.950 . S
C346 C345 1.387 . S
C346 C349 1.387 . S
H347 C343 0.950 . S
H348 C345 0.950 . S
C349 C340 1.390 . S
C349 H342 0.950 . S
C349 C346 1.387 . S
C350 C351 1.387 . S
C350 H354 0.950 . S
C350 C359 1.390 . S
C351 C350 1.387 . S
C351 C353 1.387 . S
H352 C359 0.950 . S
C353 C351 1.387 . S
C353 C355 1.390 . S
C353 H357 0.950 . S
H354 C350 0.950 . S
C355 C353 1.390 . S
C355 C356 1.387 . S
C355 H358 0.950 . S
C356 C355 1.387 . S
C356 C359 1.387 . S
H357 C353 0.950 . S
H358 C355 0.950 . S
C359 C350 1.390 . S
C359 H352 0.950 . S
C359 C356 1.387 . S
C360 C361 1.387 . S
C360 H364 0.950 . S
C360 C369 1.390 . S
C361 C360 1.387 . S
C361 C363 1.387 . S
H362 C369 0.950 . S
C363 C361 1.387 . S
C363 C365 1.390 . S
C363 H367 0.950 . S
H364 C360 0.950 . S
C365 C363 1.390 . S
C365 C366 1.387 . S
C365 H368 0.950 . S
C366 C365 1.387 . S
C366 C369 1.387 . S
H367 C363 0.950 . S
H368 C365 0.950 . S
C369 C360 1.390 . S
C369 H362 0.950 . S
C369 C366 1.387 . S
C370 C371 1.387 . S
C370 H374 0.950 . S
C370 C379 1.390 . S
C371 C370 1.387 . S
C371 C373 1.387 . S
H372 C379 0.950 . S
C373 C371 1.387 . S
C373 C375 1.390 . S
C373 H377 0.950 . S
H374 C370 0.950 . S
C375 C373 1.390 . S
C375 C376 1.387 . S
C375 H378 0.950 . S
C376 C375 1.387 . S
C376 C379 1.387 . S
H377 C373 0.950 . S
H378 C375 0.950 . S
C379 C370 1.390 . S
C379 H372 0.950 . S
C379 C376 1.387 . S
C380 C381 1.387 . S
C380 H384 0.950 . S
C380 C389 1.390 . S
C381 C380 1.387 . S
C381 C383 1.387 . S
H382 C389 0.950 . S
C383 C381 1.387 . S
C383 C385 1.390 . S
C383 H387 0.950 . S
H384 C380 0.950 . S
C385 C383 1.390 . S
C385 C386 1.387 . S
C385 H388 0.950 . S
C386 C385 1.387 . S
C386 C389 1.387 . S
H387 C383 0.950 . S
H388 C385 0.950 . S
C389 C380 1.390 . S
C389 H382 0.950 . S
C389 C386 1.387 . S
C390 C391 1.387 . S
C390 H394 0.950 . S
C390 C399 1.390 . S
C391 C390 1.387 . S
C391 C393 1.387 . S
H392 C399 0.950 . S
C393 C391 1.387 . S
C393 C395 1.390 . S
C393 H397 0.950 . S
H394 C390 0.950 . S
C395 C393 1.390 . S
C395 C396 1.387 . S
C395 H398 0.950 . S
C396 C395 1.387 . S
C396 C399 1.387 . S
H397 C393 0.950 . S
H398 C395 0.950 . S
C399 C390 1.390 . S
C399 H392 0.950 . S
C399 C396 1.387 . S
C400 C401 1.387 . S
C400 H404 0.950 . S
C400 C409 1.390 . S
C401 C400 1.387 . S
C401 C403 1.387 . S
H402 C409 0.950 . S
C403 C401 1.387 . S
C403 C405 1.390 . S
C403 H407 0.950 . S
H404 C400 0.950 . S
C405 C403 1.390 . S
C405 C406 1.387 . S
C405 H408 0.950 . S
C406 C405 1.387 . S
C406 C409 1.387 . S
H407 C403 0.950 . S
H408 C405 0.950 . S
C409 C400 1.390 . S
C409 H402 0.950 . S
C409 C406 1.387 . S
C410 C411 1.387 . S
C410 H414 0.950 . S
C410 C419 1.390 . S
C411 C410 1.387 . S
C411 C413 1.387 . S
H412 C419 0.950 . S
C413 C411 1.387 . S
C413 C415 1.390 . S
C413 H417 0.950 . S
H414 C410 0.950 . S
C415 C413 1.390 . S
C415 C416 1.387 . S
C415 H418 0.950 . S
C416 C415 1.387 . S
C416 C419 1.387 . S
H417 C413 0.950 . S
H418 C415 0.950 . S
C419 C410 1.390 . S
C419 H412 0.950 . S
C419 C416 1.387 . S
C420 C421 1.387 . S
C420 H424 0.950 . S
C420 C429 1.390 . S
C421 C420 1.387 . S
C421 C423 1.387 . S
H422 C429 0.950 . S
C423 C421 1.387 . S
C423 C425 1.390 . S
C423 H427 0.950 . S
H424 C420 0.950 . S
C425 C423 1.390 . S
C425 C426 1.387 . S
C425 H428 0.950 . S
C426 C425 1.387 . S
C426 C429 1.387 . S
H427 C423 0.950 . S
H428 C425 0.950 . S
C429 C420 1.390 . S
C429 H422 0.950 . S
C429 C426 1.387 . S
C430 C431 1.387 . S
C430 H434 0.950 . S
C430 C439 1.390 . S
C431 C430 1.387 . S
C431 C433 1.387 . S
H432 C439 0.950 . S
C433 C431 1.387 . S
C433 C435 1.390 . S
C433 H437 0.950 . S
H434 C430 0.950 . S
C435 C433 1.390 . S
C435 C436 1.387 . S
C435 H438 0.950 . S
C436 C435 1.387 . S
C436 C439 1.387 . S
H437 C433 0.950 . S
H438 C435 0.950 . S
C439 C430 1.390 . S
C439 H432 0.950 . S
C439 C436 1.387 . S
C440 C441 1.387 . S
C440 H444 0.950 . S
C440 C449 1.390 . S
C441 C440 1.387 . S
C441 C443 1.387 . S
H442 C449 0.950 . S
C443 C441 1.387 . S
C443 C445 1.390 . S
C443 H447 0.950 . S
H444 C440 0.950 . S
C445 C443 1.390 . S
C445 C446 1.387 . S
C445 H448 0.950 . S
C446 C445 1.387 . S
C446 C449 1.387 . S
H447 C443 0.950 . S
H448 C445 0.950 . S
C449 C440 1.390 . S
C449 H442 0.950 . S
C449 C446 1.387 . S
C216 C203 1.565 . S
C211 C19 1.482 . S
C221 C40 1.433 . S
C226 C137 1.489 . S
C231 C51 1.376 . S
C236 C151 1.447 . S
C241 C72 1.397 . S
C246 C165 1.482 . S
C256 C179 1.497 . S
C251 C103 1.429 . S
C261 C114 1.431 . S
C266 C189 1.537 . S
C271 C30 1.472 . S
C276 C147 1.579 . S
C281 C61 1.514 . S
C286 C161 1.622 . S
C291 C82 1.467 . S
C296 C175 1.573 . S
C306 C193 1.493 . S
C301 C93 1.418 . S
C316 C207 1.516 . S
C311 C124 1.447 . S
C326 C133 1.555 . S
C321 C9 1.461 . S
C331 C17 1.452 . S
C336 C148 1.458 . S
C341 C38 1.491 . S
C346 C162 1.511 . S
C356 C176 1.511 . S
C351 C54 1.490 . S
C361 C75 1.425 . S
C366 C195 1.445 1_556 S
C376 C209 1.418 . S
C371 C101 1.401 . S
C386 C134 1.441 . S
C381 C117 1.427 . S
C396 C204 1.438 . S
C391 C33 1.423 . S
C401 C59 1.360 . S
C406 C139 1.382 . S
C416 C153 1.399 . S
C411 C80 1.374 . S
C421 C96 1.400 . S
C426 C167 1.424 . S
C431 C122 1.426 . S
C436 C181 1.441 1_554 S
C441 C12 1.457 . S
C446 C190 1.459 . S
