# Generated by pormake.
# Topology zzz, (3,6)-cn, num edge types: 1
# Building blocks:
#     Node 0, Type 0, BuildingBlock: KAKCAD_clean_linker_0, # of connection points: 3
#     Node 1, Type 0, BuildingBlock: KAKCAD_clean_linker_0, # of connection points: 3
#     Node 2, Type 0, BuildingBlock: KAKCAD_clean_linker_0, # of connection points: 3
#     Node 3, Type 0, BuildingBlock: KAKCAD_clean_linker_0, # of connection points: 3
#     Node 4, Type 0, BuildingBlock: KAKCAD_clean_linker_0, # of connection points: 3
#     Node 5, Type 0, BuildingBlock: KAKCAD_clean_linker_0, # of connection points: 3
#     Node 6, Type 0, BuildingBlock: KAKCAD_clean_linker_0, # of connection points: 3
#     Node 7, Type 0, BuildingBlock: KAKCAD_clean_linker_0, # of connection points: 3
#     Node 8, Type 1, BuildingBlock: CUWYAW_clean_sbu_0, # of connection points: 6
#     Node 9, Type 1, BuildingBlock: CUWYAW_clean_sbu_0, # of connection points: 6
#     Node 10, Type 1, BuildingBlock: CUWYAW_clean_sbu_0, # of connection points: 6
#     Node 11, Type 1, BuildingBlock: CUWYAW_clean_sbu_0, # of connection points: 6
#     Edge 12, Type (0, 1), BuildingBlock: TEMPAE_clean_linker_10, # of connection points: 2
#     Edge 13, Type (0, 1), BuildingBlock: TEMPAE_clean_linker_10, # of connection points: 2
#     Edge 14, Type (0, 1), BuildingBlock: TEMPAE_clean_linker_10, # of connection points: 2
#     Edge 15, Type (0, 1), BuildingBlock: TEMPAE_clean_linker_10, # of connection points: 2
#     Edge 16, Type (0, 1), BuildingBlock: TEMPAE_clean_linker_10, # of connection points: 2
#     Edge 17, Type (0, 1), BuildingBlock: TEMPAE_clean_linker_10, # of connection points: 2
#     Edge 18, Type (0, 1), BuildingBlock: TEMPAE_clean_linker_10, # of connection points: 2
#     Edge 19, Type (0, 1), BuildingBlock: TEMPAE_clean_linker_10, # of connection points: 2
#     Edge 20, Type (0, 1), BuildingBlock: TEMPAE_clean_linker_10, # of connection points: 2
#     Edge 21, Type (0, 1), BuildingBlock: TEMPAE_clean_linker_10, # of connection points: 2
#     Edge 22, Type (0, 1), BuildingBlock: TEMPAE_clean_linker_10, # of connection points: 2
#     Edge 23, Type (0, 1), BuildingBlock: TEMPAE_clean_linker_10, # of connection points: 2
#     Edge 24, Type (0, 1), BuildingBlock: TEMPAE_clean_linker_10, # of connection points: 2
#     Edge 25, Type (0, 1), BuildingBlock: TEMPAE_clean_linker_10, # of connection points: 2
#     Edge 26, Type (0, 1), BuildingBlock: TEMPAE_clean_linker_10, # of connection points: 2
#     Edge 27, Type (0, 1), BuildingBlock: TEMPAE_clean_linker_10, # of connection points: 2
#     Edge 28, Type (0, 1), BuildingBlock: TEMPAE_clean_linker_10, # of connection points: 2
#     Edge 29, Type (0, 1), BuildingBlock: TEMPAE_clean_linker_10, # of connection points: 2
#     Edge 30, Type (0, 1), BuildingBlock: TEMPAE_clean_linker_10, # of connection points: 2
#     Edge 31, Type (0, 1), BuildingBlock: TEMPAE_clean_linker_10, # of connection points: 2
#     Edge 32, Type (0, 1), BuildingBlock: TEMPAE_clean_linker_10, # of connection points: 2
#     Edge 33, Type (0, 1), BuildingBlock: TEMPAE_clean_linker_10, # of connection points: 2
#     Edge 34, Type (0, 1), BuildingBlock: TEMPAE_clean_linker_10, # of connection points: 2
#     Edge 35, Type (0, 1), BuildingBlock: TEMPAE_clean_linker_10, # of connection points: 2
# Relax obj value: 0.423
# Max RMSD: 0.250
# Mean RMSD: 0.230
data_MOF--net-zzz--node1-CUWYAW_clean_sbu_0--node2-KAKCAD_clean_linker_0--edge1-TEMPAE_clean_linker_10
_symmetry_space_group_name_H-M    P1
_symmetry_Int_Tables_number       1
_symmetry_cell_setting            triclinic
loop_
_symmetry_equiv_pos_as_xyz
'x, y, z'
_cell_length_a     59.767689
_cell_length_b     59.756669
_cell_length_c     19.35795
_cell_angle_alpha  89.897674
_cell_angle_beta   89.867913
_cell_angle_gamma 90.003897
loop_
_atom_site_label
_atom_site_type_symbol
_atom_site_fract_x
_atom_site_fract_y
_atom_site_fract_z
_atom_type_partial_charge
C0 C 0.78104 0.41904 0.13459 0.0
C1 C 0.79569 0.4074 0.17865 0.0
C2 C 0.76492 0.43344 0.1619 0.0
C3 C 0.76322 0.43643 0.23364 0.0
C4 C 0.77554 0.42233 0.27753 0.0
C5 C 0.79162 0.40784 0.2502 0.0
C6 C 0.75302 0.45725 0.26082 0.0
C7 C 0.73255 0.46518 0.23574 0.0
C8 C 0.72502 0.48697 0.25118 0.0
C9 C 0.73876 0.5011 0.29194 0.0
C10 C 0.75928 0.49299 0.31826 0.0
C11 C 0.76591 0.47108 0.30324 0.0
C12 C 0.77575 0.50701 0.35589 0.0
C13 C 0.79489 0.51437 0.32017 0.0
C14 C 0.77609 0.50692 0.4285 0.0
C15 C 0.79565 0.51278 0.46447 0.0
C16 C 0.81536 0.51836 0.42836 0.0
C17 C 0.70353 0.49462 0.21943 0.0
C18 C 0.70216 0.51483 0.18222 0.0
C19 C 0.68506 0.48 0.21793 0.0
C20 C 0.66651 0.48455 0.17635 0.0
C21 C 0.66573 0.50398 0.13544 0.0
C22 C 0.68341 0.51949 0.14073 0.0
C23 C 0.81447 0.51991 0.35591 0.0
H24 H 0.7837 0.41916 0.07922 0.0
H25 H 0.75566 0.44407 0.12673 0.0
H26 H 0.77423 0.42402 0.33311 0.0
H27 H 0.80235 0.39869 0.28535 0.0
H28 H 0.72291 0.4546 0.20146 0.0
H29 H 0.78215 0.46534 0.32092 0.0
H30 H 0.7337 0.51816 0.30242 0.0
H31 H 0.79528 0.51402 0.26421 0.0
H32 H 0.76182 0.50065 0.4572 0.0
H33 H 0.79583 0.5113 0.52024 0.0
H34 H 0.71613 0.52638 0.18182 0.0
H35 H 0.68538 0.46446 0.2468 0.0
H36 H 0.82929 0.52433 0.32662 0.0
H37 H 0.68331 0.53462 0.10983 0.0
H38 H 0.653 0.47248 0.17459 0.0
C39 C 0.92048 0.78842 0.11566 0.0
C40 C 0.93309 0.78828 0.05405 0.0
C41 C 0.92641 0.77449 0.17084 0.0
C42 C 0.94467 0.75985 0.16463 0.0
C43 C 0.95533 0.75773 0.10026 0.0
C44 C 0.94964 0.77177 0.04568 0.0
C45 C 0.95501 0.74933 0.22617 0.0
C46 C 0.96386 0.72779 0.22141 0.0
C47 C 0.97862 0.71955 0.27129 0.0
C48 C 0.98393 0.7329 0.32941 0.0
C49 C 0.9739 0.7543 0.33733 0.0
C50 C 0.95961 0.76221 0.28489 0.0
C51 C 0.97902 0.76978 0.39615 0.0
C52 C 0.96163 0.78234 0.42632 0.0
C53 C 1.00114 0.7747 0.41555 0.0
C54 C 1.00575 0.79264 0.46049 0.0
C55 C 0.98835 0.80615 0.4872 0.0
C56 C 0.98949 0.69788 0.25468 0.0
C57 C 0.97754 0.67792 0.2652 0.0
C58 C 1.00725 0.69788 0.20707 0.0
C59 C 0.0117 0.67898 0.16642 0.0
C60 C 0.99851 0.6595 0.17251 0.0
C61 C 0.98214 0.65889 0.22512 0.0
C62 C 0.96619 0.80024 0.4707 0.0
H63 H 0.9072 0.8005 0.12325 0.0
H64 H 0.9176 0.77612 0.21955 0.0
H65 H 0.96956 0.7467 0.09373 0.0
H66 H 0.95994 0.77111 0.99966 0.0
H67 H 0.96031 0.71778 0.17599 0.0
H68 H 0.9533 0.7792 0.28744 0.0
H69 H 0.99568 0.72678 0.36752 0.0
H70 H 0.94436 0.77896 0.41297 0.0
H71 H 0.01496 0.76548 0.39313 0.0
H72 H 0.02303 0.79627 0.47282 0.0
H73 H 0.96339 0.67761 0.30026 0.0
H74 H 0.01625 0.71324 0.19628 0.0
H75 H 0.95224 0.81014 0.48909 0.0
H76 H 0.97196 0.64411 0.23285 0.0
H77 H 0.0243 0.68041 0.12641 0.0
C78 C 0.72675 0.03375 0.06327 0.0
C79 C 0.73694 0.05026 0.02189 0.0
C80 C 0.73749 0.02539 0.12138 0.0
C81 C 0.75865 0.03337 0.14005 0.0
C82 C 0.76918 0.04956 0.09827 0.0
C83 C 0.75832 0.05807 0.03978 0.0
C84 C 0.76953 0.02448 0.20292 0.0
C85 C 0.79174 0.01735 0.20075 0.0
C86 C 0.80169 1.00706 0.25811 0.0
C87 C 0.78906 1.004 0.31947 0.0
C88 C 0.7666 0.01156 0.32233 0.0
C89 C 0.75721 0.0218 0.26399 0.0
C90 C 0.75168 0.00866 0.38335 0.0
C91 C 0.74002 0.98846 0.39288 0.0
C92 C 0.74443 0.02768 0.41962 0.0
C93 C 0.72523 0.02689 0.46133 0.0
C94 C 0.71255 1.00709 0.46728 0.0
C95 C 0.82517 0.99953 0.24911 0.0
C96 C 0.82953 0.98164 0.20405 0.0
C97 C 0.84274 0.01411 0.26591 0.0
C98 C 0.86373 0.01193 0.23381 0.0
C99 C 0.86751 0.99526 0.18357 0.0
C100 C 0.85042 0.97949 0.17177 0.0
C101 C 0.72072 0.98766 0.43453 0.0
H102 H 0.71004 0.02774 0.05215 0.0
H103 H 0.72913 0.01268 0.15198 0.0
H104 H 0.78554 0.05599 0.11172 0.0
H105 H 0.7665 0.07086 0.00908 0.0
H106 H 0.80125 0.01922 0.15325 0.0
H107 H 0.73996 0.02744 0.26592 0.0
H108 H 0.7965 0.99585 0.36383 0.0
H109 H 0.74484 0.97372 0.36395 0.0
H110 H 0.75281 0.04358 0.41206 0.0
H111 H 0.71979 0.0421 0.48666 0.0
H112 H 0.81609 0.97053 0.18881 0.0
H113 H 0.8397 0.02834 0.29924 0.0
H114 H 0.7114 0.97214 0.43723 0.0
H115 H 0.85244 0.96656 0.13317 0.0
H116 H 0.87657 0.02414 0.24539 0.0
C117 C 0.48538 0.71291 0.40929 0.0
C118 C 0.50534 0.7081 0.44487 0.0
C119 C 0.48408 0.73095 0.3634 0.0
C120 C 0.50274 0.74469 0.35036 0.0
C121 C 0.52233 0.7409 0.38866 0.0
C122 C 0.52361 0.72284 0.43546 0.0
C123 C 0.50246 0.75998 0.28906 0.0
C124 C 0.50946 0.78266 0.29114 0.0
C125 C 0.50809 0.79604 0.23077 0.0
C126 C 0.50001 0.7867 0.16938 0.0
C127 C 0.49352 0.76435 0.16646 0.0
C128 C 0.49481 0.75114 0.22609 0.0
C129 C 0.48565 0.7546 0.10076 0.0
C130 C 0.46925 0.76539 0.06072 0.0
C131 C 0.49417 0.73397 0.07885 0.0
C132 C 0.48585 0.72382 0.0197 0.0
C133 C 0.46878 0.73405 0.98081 0.0
C134 C 0.51439 0.81998 0.22726 0.0
C135 C 0.4974 0.83612 0.23249 0.0
C136 C 0.53447 0.82584 0.19392 0.0
C137 C 0.53667 0.84659 0.16061 0.0
C138 C 0.51872 0.86185 0.15951 0.0
C139 C 0.49955 0.85685 0.19912 0.0
C140 C 0.46076 0.75512 1.00134 0.0
H141 H 0.47096 0.70205 0.41369 0.0
H142 H 0.46866 0.73345 0.33505 0.0
H143 H 0.53704 0.7511 0.37967 0.0
H144 H 0.53916 0.72011 0.46277 0.0
H145 H 0.5155 0.78985 0.33891 0.0
H146 H 0.48973 0.73374 0.22339 0.0
H147 H 0.4991 0.79692 0.12304 0.0
H148 H 0.46241 0.78135 0.07674 0.0
H149 H 0.50701 0.72545 0.1083 0.0
H150 H 0.49209 0.70735 1.00652 0.0
H151 H 0.48155 0.83185 0.25638 0.0
H152 H 0.54756 0.81347 0.1874 0.0
H153 H 0.44758 0.76334 0.97259 0.0
H154 H 0.48555 0.86836 0.20038 0.0
H155 H 0.55163 0.84974 0.13046 0.0
C156 C 0.2369 0.43031 0.30469 0.0
C157 C 0.21997 0.41842 0.27025 0.0
C158 C 0.25583 0.43752 0.26871 0.0
C159 C 0.25804 0.43292 0.19792 0.0
C160 C 0.24319 0.41767 0.16722 0.0
C161 C 0.22424 0.41043 0.20326 0.0
C162 C 0.27113 0.44859 0.15424 0.0
C163 C 0.29236 0.45601 0.17423 0.0
C164 C 0.30226 0.47483 0.1428 0.0
C165 C 0.29043 0.48647 0.09052 0.0
C166 C 0.26938 0.47848 0.06838 0.0
C167 C 0.26018 0.45951 0.09996 0.0
C168 C 0.255 0.49008 0.01712 0.0
C169 C 0.23966 0.50624 0.0402 0.0
C170 C 0.25148 0.48006 0.95248 0.0
C171 C 0.23223 0.48491 0.91397 0.0
C172 C 0.21584 0.49969 0.93961 0.0
C173 C 0.32423 0.48248 0.17008 0.0
C174 C 0.32619 0.50307 0.20448 0.0
C175 C 0.34216 0.46732 0.17327 0.0
C176 C 0.36105 0.47197 0.21329 0.0
C177 C 0.36244 0.49183 0.25206 0.0
C178 C 0.34509 0.50769 0.24515 0.0
C179 C 0.22032 0.51105 1.00185 0.0
H180 H 0.23424 0.43667 0.35643 0.0
H181 H 0.26704 0.44914 0.29402 0.0
H182 H 0.24482 0.41345 0.11304 0.0
H183 H 0.21171 0.40078 0.17603 0.0
H184 H 0.30073 0.44778 0.21695 0.0
H185 H 0.24343 0.45434 0.08549 0.0
H186 H 0.29747 0.50145 0.06756 0.0
H187 H 0.24159 0.51368 0.09085 0.0
H188 H 0.26275 0.46713 0.93429 0.0
H189 H 0.22965 0.47616 0.8657 0.0
H190 H 0.31247 0.5149 0.20379 0.0
H191 H 0.34106 0.4513 0.14734 0.0
H192 H 0.20811 0.5224 0.02373 0.0
H193 H 0.34545 0.52311 0.27443 0.0
H194 H 0.37425 0.45958 0.21582 0.0
C195 C 0.96727 0.25607 0.41113 0.0
C196 C 0.97559 0.23495 0.42996 0.0
C197 C 0.97521 0.26678 0.35168 0.0
C198 C 0.99168 0.25661 0.31014 0.0
C199 C 1.00055 0.23593 0.33042 0.0
C200 C 0.99253 0.22518 0.38924 0.0
C201 C 0.99929 0.26727 0.24504 0.0
C202 C 1.00275 0.29033 0.24233 0.0
C203 C 0.00926 0.30098 0.18096 0.0
C204 C 0.01303 0.28798 0.12081 0.0
C205 C 0.00971 0.26448 0.12323 0.0
C206 C 1.0028 0.25449 0.18536 0.0
C207 C 0.01253 0.24934 0.06276 0.0
C208 C 0.9935 0.24186 0.0271 0.0
C209 C 0.03274 0.23768 0.05356 0.0
C210 C 0.03365 0.21837 0.01219 0.0
C211 C 0.01427 0.21004 0.97966 0.0
C212 C 0.01105 0.32578 0.18428 0.0
C213 C 0.99169 0.33795 0.20112 0.0
C214 C 0.03195 0.33596 0.19432 0.0
C215 C 0.03346 0.35706 0.2262 0.0
C216 C 0.01409 0.36821 0.25033 0.0
C217 C 0.99315 0.3587 0.23413 0.0
C218 C 0.99437 0.22255 0.98589 0.0
H219 H 0.95428 0.26408 0.44135 0.0
H220 H 0.96793 0.28269 0.33713 0.0
H221 H 0.0135 0.22784 0.30019 0.0
H222 H 0.99903 0.20869 0.40089 0.0
H223 H 1.0004 0.30023 0.28872 0.0
H224 H 0.99976 0.2366 0.18668 0.0
H225 H 0.01803 0.29601 0.073 0.0
H226 H 0.97757 0.25015 0.0347 0.0
H227 H 0.04748 0.24262 0.0822 0.0
H228 H 0.04924 0.20918 0.00941 0.0
H229 H 0.97536 0.33029 0.19541 0.0
H230 H 0.04718 0.32682 0.183 0.0
H231 H 0.97917 0.21695 0.96096 0.0
H232 H 0.97772 0.36622 0.25187 0.0
H233 H 0.04992 0.36396 0.23527 0.0
C234 C 0.28097 0.08757 0.32758 0.0
C235 C 0.29724 0.10179 0.29848 0.0
C236 C 0.26338 0.07958 0.28751 0.0
C237 C 0.26173 0.08561 0.21756 0.0
C238 C 0.27588 0.10245 0.1917 0.0
C239 C 0.29345 0.1106 0.23206 0.0
C240 C 0.24927 0.07074 0.16992 0.0
C241 C 0.22864 0.06156 0.18944 0.0
C242 C 0.2197 0.04308 0.15446 0.0
C243 C 0.23153 0.03377 0.09802 0.0
C244 C 0.25187 0.04358 0.07608 0.0
C245 C 0.26031 0.06211 0.11183 0.0
C246 C 0.2665 0.0338 0.02181 0.0
C247 C 0.28107 0.01621 0.03893 0.0
C248 C 0.27042 0.04584 0.96061 0.0
C249 C 0.28919 0.04126 0.9194 0.0
C250 C 0.30482 0.02478 0.93908 0.0
C251 C 0.19922 0.03282 0.18411 0.0
C252 C 0.20115 0.0189 0.24224 0.0
C253 C 0.17807 0.04125 0.16653 0.0
C254 C 0.15936 0.03667 0.20822 0.0
C255 C 0.16147 0.02384 0.26911 0.0
C256 C 0.18254 0.01443 0.28417 0.0
C257 C 0.3 0.01174 0.99811 0.0
H258 H 0.2832 0.08037 0.37847 0.0
H259 H 0.25277 0.06665 0.30923 0.0
H260 H 0.27464 0.1078 0.13834 0.0
H261 H 0.30531 0.12208 0.20883 0.0
H262 H 0.22008 0.06802 0.23469 0.0
H263 H 0.27666 0.06857 0.09766 0.0
H264 H 0.22524 0.01893 0.07253 0.0
H265 H 0.27881 1.00711 0.08691 0.0
H266 H 0.2597 0.05979 0.94699 0.0
H267 H 0.29195 0.05135 0.87366 0.0
H268 H 0.21742 0.01275 0.25798 0.0
H269 H 0.17626 0.05245 0.12284 0.0
H270 H 0.31163 0.99908 0.01566 0.0
H271 H 0.18506 1.00476 0.33085 0.0
H272 H 0.14341 0.04392 0.1941 0.0
C273 C 0.50243 0.29561 0.98829 0.0
C274 C 0.51936 0.30405 0.94454 0.0
C275 C 0.50614 0.27632 0.02861 0.0
C276 C 0.52678 0.26509 0.02556 0.0
C277 C 0.54296 0.27258 0.978 0.0
C278 C 0.5393 0.29175 0.93803 0.0
C279 C 0.53369 0.24924 0.08107 0.0
C280 C 0.52299 0.22852 0.09384 0.0
C281 C 0.53113 0.21427 0.14656 0.0
C282 C 0.54936 0.22112 0.18687 0.0
C283 C 0.55931 0.24209 0.1772 0.0
C284 C 0.55152 0.25583 0.12354 0.0
C285 C 0.576 0.25084 0.22737 0.0
C286 C 0.57342 0.24666 0.29852 0.0
C287 C 0.59281 0.26577 0.20582 0.0
C288 C 0.60462 0.27839 0.25415 0.0
C289 C 0.60015 0.27605 0.32519 0.0
C290 C 0.5208 0.19248 0.16484 0.0
C291 C 0.50224 0.19194 0.20945 0.0
C292 C 0.5333 0.17281 0.1554 0.0
C293 C 0.52851 0.15355 0.194 0.0
C294 C 0.51121 0.15357 0.24346 0.0
C295 C 0.49743 0.17264 0.24825 0.0
C296 C 0.58558 0.25894 0.34685 0.0
H297 H 0.48688 0.30468 0.99469 0.0
H298 H 0.49353 0.27116 0.06563 0.0
H299 H 0.55907 0.26432 0.97481 0.0
H300 H 0.55252 0.29747 0.90395 0.0
H301 H 0.50885 0.22342 0.06272 0.0
H302 H 0.55867 0.27234 0.11632 0.0
H303 H 0.5554 0.21018 0.22753 0.0
H304 H 0.56075 0.23523 0.31743 0.0
H305 H 0.59582 0.26884 0.15143 0.0
H306 H 0.61576 0.29132 0.23523 0.0
H307 H 0.4927 0.20705 0.21898 0.0
H308 H 0.54794 0.17292 0.12227 0.0
H309 H 0.58219 0.25627 0.40123 0.0
H310 H 0.48405 0.17332 0.28602 0.0
H311 H 0.53922 0.13906 0.18806 0.0
C312 C 0.98375 0.03135 0.55213 0.0
Eu313 Eu 0.99935 0.01483 0.6655 0.0
C314 C 0.96835 0.05002 0.54016 0.0
C315 C 0.95092 0.05455 0.58698 0.0
C316 C 0.93941 0.07486 0.58388 0.0
C317 C 0.94539 0.09106 0.53451 0.0
C318 C 0.96201 0.08579 0.4853 0.0
C319 C 0.9733 0.06543 0.48801 0.0
C320 C 0.97475 1.00774 0.78325 0.0
C321 C 0.01712 0.05221 0.77779 0.0
C322 C 0.04767 0.97801 0.88734 0.0
Eu323 Eu 0.03119 1.00027 0.78537 0.0
C324 C 0.0384 0.95654 0.9123 0.0
C325 C 0.04867 0.93631 0.89293 0.0
C326 C 0.03652 0.91632 0.89408 0.0
C327 C 0.0139 0.91644 0.9137 0.0
C328 C 1.00439 0.93614 0.93967 0.0
C329 C 0.01661 0.95594 0.93986 0.0
C330 C 0.05185 0.01478 0.66824 0.0
C331 C 1.00812 0.96239 0.6846 0.0
O332 O 1.0032 0.03723 0.57782 0.0
O333 O 0.97521 0.01353 0.58181 0.0
O334 O 0.9661 0.01364 0.7247 0.0
O335 O 0.9955 1.00588 0.77475 0.0
O336 O 0.00906 0.04812 0.71514 0.0
O337 O 0.02488 0.03602 0.81805 0.0
O338 O 0.03497 0.99568 0.8964 0.0
O339 O 0.05635 0.97725 0.82515 0.0
O340 O 0.05934 0.01841 0.73023 0.0
O341 O 0.03445 1.00281 0.6713 0.0
O342 O 0.0165 0.9672 0.74623 0.0
O343 O 1.00279 0.97828 0.64009 0.0
H344 H 0.94693 0.04291 0.62816 0.0
H345 H 0.92657 0.07826 0.62198 0.0
H346 H 0.96751 0.09795 0.44738 0.0
H347 H 0.98689 0.06233 0.4521 0.0
H348 H 0.06548 0.93624 0.87181 0.0
H349 H 0.04432 0.90112 0.87549 0.0
H350 H 0.98719 0.9364 0.95754 0.0
H351 H 0.00829 0.97104 0.95679 0.0
C352 C 0.4811 0.98041 0.53674 0.0
Eu353 Eu 0.50152 0.99373 0.64661 0.0
C354 C 0.46205 0.99164 0.50234 0.0
C355 C 0.44011 0.98871 0.52726 0.0
C356 C 0.42305 1.00318 0.50655 0.0
C357 C 0.42763 0.0209 0.46092 0.0
C358 C 0.44913 0.02292 0.43242 0.0
C359 C 0.46611 1.00826 0.4523 0.0
C360 C 0.51512 0.97153 0.76175 0.0
C361 C 0.46359 0.0146 0.75127 0.0
C362 C 0.53191 0.03878 0.88719 0.0
Eu363 Eu 0.51588 0.02425 0.77202 0.0
C364 C 0.55078 0.05376 0.90112 0.0
C365 C 0.55582 0.07155 0.85603 0.0
C366 C 0.57629 0.08271 0.8609 0.0
C367 C 0.59215 0.07604 0.91029 0.0
C368 C 0.5864 0.05899 0.95761 0.0
C369 C 0.56588 0.04806 0.95319 0.0
C370 C 0.50958 0.04971 0.65526 0.0
C371 C 0.55373 1.00672 0.66104 0.0
O372 O 0.5001 0.99134 0.53464 0.0
O373 O 0.47706 0.97179 0.59791 0.0
O374 O 0.518 0.96406 0.69923 0.0
O375 O 0.50378 0.98934 0.76021 0.0
O376 O 0.46848 1.00796 0.68759 0.0
O377 O 0.4794 0.01918 0.79673 0.0
O378 O 0.53765 0.01943 0.86038 0.0
O379 O 0.51438 0.04781 0.85737 0.0
O380 O 0.51512 0.05802 0.7146 0.0
O381 O 0.50755 0.029 0.66316 0.0
O382 O 0.54931 0.01421 0.72417 0.0
O383 O 0.53775 0.99986 0.61868 0.0
H384 H 0.43633 0.97602 0.56556 0.0
H385 H 0.40653 1.00116 0.52876 0.0
H386 H 0.45291 0.03613 0.39581 0.0
H387 H 0.48271 0.01069 0.43121 0.0
H388 H 0.54445 0.07611 0.81487 0.0
H389 H 0.58005 0.09589 0.82422 0.0
H390 H 0.5983 0.05297 0.99543 0.0
H391 H 0.56241 0.03417 0.98769 0.0
C392 C 0.54645 0.48436 0.53122 0.0
Eu393 Eu 0.52725 0.50118 0.64006 0.0
C394 C 0.56126 0.46525 0.5189 0.0
C395 C 0.57299 0.4636 0.45649 0.0
C396 C 0.58615 0.4448 0.4429 0.0
C397 C 0.58762 0.42729 0.49146 0.0
C398 C 0.57656 0.42954 0.55529 0.0
C399 C 0.56357 0.44843 0.56898 0.0
C400 C 0.54971 0.51401 0.75601 0.0
C401 C 0.51023 0.46158 0.74664 0.0
C402 C 0.48288 0.52954 0.88096 0.0
Eu403 Eu 0.49734 0.51395 0.7648 0.0
C404 C 0.46746 0.54806 0.89562 0.0
C405 C 0.4482 0.55141 0.85525 0.0
C406 C 0.43648 0.57161 0.85886 0.0
C407 C 0.444 0.58885 0.90222 0.0
C408 C 0.46249 0.58476 0.94561 0.0
C409 C 0.474 0.56453 0.94254 0.0
C410 C 0.47095 0.51026 0.64935 0.0
C411 C 0.51158 0.55195 0.6532 0.0
O412 O 0.52597 0.47946 0.55009 0.0
O413 O 0.55508 0.50067 0.56726 0.0
O414 O 0.55588 0.51885 0.69353 0.0
O415 O 0.53237 0.50196 0.75431 0.0
O416 O 0.52038 0.46679 0.68768 0.0
O417 O 0.50115 0.47703 0.78678 0.0
O418 O 0.502 0.53571 0.85335 0.0
O419 O 0.47423 0.51178 0.85152 0.0
O420 O 0.46338 0.51501 0.71025 0.0
O421 O 0.49172 0.5075 0.65408 0.0
O422 O 0.50807 0.54759 0.7195 0.0
O423 O 0.51553 0.53567 0.60858 0.0
H424 H 0.5716 0.47663 0.41773 0.0
H425 H 0.59471 0.44368 0.39364 0.0
H426 H 0.57707 0.41627 0.59344 0.0
H427 H 0.55486 0.4496 0.61792 0.0
H428 H 0.44285 0.53895 0.81825 0.0
H429 H 0.42217 0.57406 0.8255 0.0
H430 H 0.46916 0.59772 0.97872 0.0
H431 H 0.48894 0.56236 0.97347 0.0
C432 C 0.04222 0.54505 0.53774 0.0
Eu433 Eu 0.02103 0.53154 0.64689 0.0
C434 C 0.06136 0.53459 0.50171 0.0
C435 C 0.08212 0.53205 0.53491 0.0
C436 C 0.0984 0.51786 0.50737 0.0
C437 C 0.09414 0.50589 0.44654 0.0
C438 C 0.07406 0.50956 0.41092 0.0
C439 C 0.05789 0.52399 0.43795 0.0
C440 C 1.00799 0.55409 0.76233 0.0
C441 C 0.05702 0.50854 0.75217 0.0
C442 C 0.98761 0.48744 0.8867 0.0
Eu443 Eu 1.00383 0.50145 0.77025 0.0
C444 C 0.96951 0.47212 0.90658 0.0
C445 C 0.95083 0.46923 0.86368 0.0
C446 C 0.93333 0.45524 0.88417 0.0
C447 C 0.93436 0.44372 0.94745 0.0
C448 C 0.95349 0.44596 0.98894 0.0
C449 C 0.97093 0.46013 0.96867 0.0
C450 C 0.00903 0.47586 0.65337 0.0
C451 C 0.96804 0.52165 0.65775 0.0
O452 O 0.02352 0.53362 0.53497 0.0
O453 O 0.04604 0.55325 0.59941 0.0
O454 O 1.006 0.56193 0.6999 0.0
O455 O 0.01814 0.53558 0.76063 0.0
O456 O 0.05302 0.51575 0.68859 0.0
O457 O 0.04058 0.50435 0.7962 0.0
O458 O 0.98142 0.5063 0.85736 0.0
O459 O 1.0049 0.47809 0.85652 0.0
O460 O 1.0022 0.46803 0.71225 0.0
O461 O 0.01274 0.49639 0.66134 0.0
O462 O 0.97134 0.5133 0.72054 0.0
O463 O 0.98472 0.52818 0.61732 0.0
H464 H 0.08544 0.54013 0.58384 0.0
H465 H 0.11388 0.5154 0.53535 0.0
H466 H 0.07067 0.50083 0.36307 0.0
H467 H 0.04215 0.52591 0.41092 0.0
H468 H 0.94962 0.47808 0.81491 0.0
H469 H 0.9188 0.45369 0.85112 0.0
H470 H 0.95457 0.43745 0.03828 0.0
H471 H 0.98534 0.46203 1.00202 0.0
C472 C 0.13945 1.00228 0.35903 0.0
C473 C 0.14251 0.02187 0.31984 0.0
C474 C 0.12333 1.00114 0.41213 0.0
C475 C 0.10965 0.01995 0.42634 0.0
C476 C 0.11194 0.03943 0.38512 0.0
C477 C 0.12837 0.04021 0.33286 0.0
C478 C 0.12152 0.98002 0.45473 0.0
C479 C 0.09762 0.05982 0.39792 0.0
C480 C 0.05796 0.01084 0.54013 0.0
C481 C 0.0658 0.01761 0.60511 0.0
C482 C 0.07183 0.01194 0.48115 0.0
C483 C 0.09413 0.01978 0.48735 0.0
C484 C 0.10192 0.02704 0.5527 0.0
C485 C 0.08765 0.02599 0.61049 0.0
C486 C 0.06272 1.00435 0.41242 0.0
C487 C 0.12555 0.03544 0.562 0.0
H488 H 0.14992 0.98784 0.34893 0.0
H489 H 0.13066 0.05559 0.30399 0.0
H490 H 0.12624 0.98363 0.50899 0.0
H491 H 0.10399 0.97393 0.45528 0.0
H492 H 0.13249 0.96646 0.43494 0.0
H493 H 0.09985 0.07277 0.35725 0.0
H494 H 0.07968 0.05507 0.40025 0.0
H495 H 0.10201 0.06728 0.44855 0.0
H496 H 0.04108 1.00439 0.53555 0.0
H497 H 0.09384 0.03127 0.66047 0.0
H498 H 0.07218 0.98952 0.39419 0.0
H499 H 0.06496 0.01772 0.37316 0.0
H500 H 0.04469 0.99992 0.41535 0.0
H501 H 0.1376 0.02204 0.54813 0.0
H502 H 0.12892 0.04083 0.61587 0.0
H503 H 0.12876 0.04977 0.52688 0.0
C504 C 0.52894 0.12679 0.32709 0.0
C505 C 0.50948 0.13512 0.2956 0.0
C506 C 0.52784 0.11116 0.38134 0.0
C507 C 0.50676 0.10349 0.40509 0.0
C508 C 0.48707 0.11105 0.37166 0.0
C509 C 0.48864 0.12689 0.31774 0.0
C510 C 0.54929 0.1035 0.41504 0.0
C511 C 0.46434 0.10285 0.39418 0.0
C512 C 0.50712 0.05258 0.52553 0.0
C513 C 0.50693 0.06283 0.59061 0.0
C514 C 0.50667 0.06549 0.4644 0.0
C515 C 0.50544 0.08917 0.46863 0.0
C516 C 0.50447 0.09946 0.53446 0.0
C517 C 0.50541 0.0862 0.5944 0.0
C518 C 0.50791 0.0538 0.39548 0.0
C519 C 0.50314 0.12458 0.54171 0.0
H520 H 0.54512 0.13321 0.31128 0.0
H521 H 0.47352 0.13302 0.29334 0.0
H522 H 0.54983 0.10952 0.46921 0.0
H523 H 0.54998 0.08495 0.41661 0.0
H524 H 0.56438 0.10979 0.38755 0.0
H525 H 0.45074 0.1094 0.36079 0.0
H526 H 0.46386 0.08429 0.39306 0.0
H527 H 0.46106 0.10808 0.44823 0.0
H528 H 0.50841 0.03455 0.52235 0.0
H529 H 0.50519 0.09423 0.64459 0.0
H530 H 0.51993 0.06231 0.36045 0.0
H531 H 0.49125 0.05439 0.37044 0.0
H532 H 0.51305 0.03603 0.40087 0.0
H533 H 0.51848 0.13236 0.51995 0.0
H534 H 0.50138 0.12992 0.5964 0.0
H535 H 0.4887 0.13116 0.51202 0.0
C536 C 0.38804 0.47682 0.34431 0.0
C537 C 0.38085 0.49497 0.30369 0.0
C538 C 0.40424 0.47949 0.3962 0.0
C539 C 0.4136 0.50088 0.40853 0.0
C540 C 0.40689 0.51919 0.3667 0.0
C541 C 0.3906 0.51604 0.31501 0.0
C542 C 0.4107 0.45951 0.43969 0.0
C543 C 0.41647 0.54226 0.37788 0.0
C544 C 0.4337 0.51153 0.59211 0.0
C545 C 0.45688 0.50837 0.58648 0.0
C546 C 0.4196 0.50956 0.53448 0.0
C547 C 0.42884 0.50433 0.46903 0.0
C548 C 0.45234 0.50146 0.46269 0.0
C549 C 0.4661 0.5035 0.52155 0.0
C550 C 0.39471 0.51273 0.54402 0.0
C551 C 0.46288 0.49593 0.39394 0.0
H552 H 0.38041 0.46054 0.33725 0.0
H553 H 0.3854 0.53014 0.28364 0.0
H554 H 0.42915 0.45759 0.44071 0.0
H555 H 0.40506 0.46212 0.49373 0.0
H556 H 0.4032 0.44371 0.42033 0.0
H557 H 0.41096 0.55433 0.33766 0.0
H558 H 0.41115 0.54865 0.42913 0.0
H559 H 0.43502 0.54159 0.3779 0.0
H560 H 0.42645 0.51539 0.64209 0.0
H561 H 0.48402 0.50118 0.51684 0.0
H562 H 0.38579 0.49704 0.53069 0.0
H563 H 0.38852 0.52597 0.50866 0.0
H564 H 0.39024 0.51741 0.59784 0.0
H565 H 0.45657 0.47955 0.37542 0.0
H566 H 0.48143 0.49516 0.3969 0.0
H567 H 0.45811 0.50867 0.35489 0.0
C568 C 0.03347 0.39016 0.34521 0.0
C569 C 0.0155 0.38798 0.29868 0.0
C570 C 0.03347 0.40662 0.39727 0.0
C571 C 0.01478 0.42096 0.40511 0.0
C572 C 0.99708 0.41964 0.35674 0.0
C573 C 0.99786 0.40355 0.30361 0.0
C574 C 0.05309 0.40797 0.44608 0.0
C575 C 0.97675 0.43449 0.36311 0.0
C576 C 1.00297 0.44027 0.58919 0.0
C577 C 0.01049 0.46252 0.58861 0.0
C578 C 1.00392 0.42685 0.52971 0.0
C579 C 0.01282 0.43573 0.46754 0.0
C580 C 0.0201 0.45834 0.46614 0.0
C581 C 0.01898 0.47144 0.52681 0.0
C582 C 0.99533 0.40311 0.53348 0.0
C583 C 0.02948 0.46862 0.40109 0.0
H584 H 0.0472 0.37837 0.34341 0.0
H585 H 0.9842 0.40285 0.26709 0.0
H586 H 0.05887 0.42556 0.45072 0.0
H587 H 0.04787 0.40233 0.49832 0.0
H588 H 0.06735 0.39744 0.42886 0.0
H589 H 0.96502 0.4324 0.31917 0.0
H590 H 0.96771 0.43049 0.41173 0.0
H591 H 0.98183 0.45232 0.36593 0.0
H592 H 0.99622 0.43325 0.63653 0.0
H593 H 0.02489 0.48857 0.5259 0.0
H594 H 0.0092 0.39121 0.52344 0.0
H595 H 0.98249 0.40035 0.49306 0.0
H596 H 0.98786 0.39908 0.58462 0.0
H597 H 0.04724 0.46361 0.39558 0.0
H598 H 0.02853 0.48714 0.40255 0.0
H599 H 0.02054 0.46271 0.35446 0.0
C600 C 0.89746 0.97627 0.11161 0.0
C601 C 0.88769 0.996 0.13723 0.0
C602 C 0.91405 0.9769 0.05971 0.0
C603 C 0.92117 0.99778 0.03257 0.0
C604 C 0.91238 0.01776 0.0611 0.0
C605 C 0.89578 0.01664 0.11265 0.0
C606 C 0.92302 0.95517 0.03121 0.0
C607 C 0.9195 0.0404 0.03416 0.0
C608 C 0.97201 1.00289 0.91247 0.0
C609 C 0.96173 1.00386 0.84755 0.0
C610 C 0.95917 1.0004 0.97335 0.0
C611 C 0.93551 0.99882 0.96898 0.0
C612 C 0.9252 0.99937 0.90316 0.0
C613 C 0.93839 1.00197 0.84356 0.0
C614 C 0.97085 0.99987 0.04231 0.0
C615 C 0.90011 0.99767 0.89561 0.0
H616 H 0.8917 0.96022 0.13077 0.0
H617 H 0.88828 0.03204 0.13089 0.0
H618 H 0.91645 0.9526 0.97825 0.0
H619 H 0.94154 0.95573 0.02741 0.0
H620 H 0.91812 0.94058 0.06349 0.0
H621 H 0.91319 0.05429 0.06696 0.0
H622 H 0.938 0.04151 0.03134 0.0
H623 H 0.91297 0.04277 0.98103 0.0
H624 H 0.99 1.0047 0.91576 0.0
H625 H 0.93034 1.00268 0.79347 0.0
H626 H 0.96722 0.98384 0.06901 0.0
H627 H 0.96443 0.01351 0.07574 0.0
H628 H 0.98927 1.00172 0.03714 0.0
H629 H 0.8939 0.98223 0.92115 0.0
H630 H 0.89477 0.99745 0.84068 0.0
H631 H 0.89197 0.01209 0.92154 0.0
C632 C 0.53807 0.89395 0.0982 0.0
C633 C 0.51875 0.88106 0.10972 0.0
C634 C 0.53876 0.9104 0.04588 0.0
C635 C 0.51979 0.9139 1.00334 0.0
C636 C 0.50008 0.90136 0.01599 0.0
C637 C 0.49979 0.88521 0.06888 0.0
C638 C 0.56 0.92359 0.03485 0.0
C639 C 0.47951 0.90433 0.97171 0.0
C640 C 0.51234 0.96582 0.89015 0.0
C641 C 0.5184 0.95768 0.82478 0.0
C642 C 0.51356 0.95208 0.94929 0.0
C643 C 0.5208 0.92958 0.94287 0.0
C644 C 0.5276 0.92155 0.87722 0.0
C645 C 0.52643 0.93571 0.81919 0.0
C646 C 0.50641 0.96144 0.01824 0.0
C647 C 0.53533 0.89769 0.86771 0.0
H648 H 0.55276 0.89098 0.12962 0.0
H649 H 0.48491 0.8751 0.0762 0.0
H650 H 0.56745 0.91918 0.98413 0.0
H651 H 0.55629 0.94178 0.03374 0.0
H652 H 0.57258 0.92029 0.07577 0.0
H653 H 0.46517 0.89412 0.99032 0.0
H654 H 0.47439 0.92217 0.97084 0.0
H655 H 0.48337 0.89943 0.91772 0.0
H656 H 0.50618 0.98281 0.89492 0.0
H657 H 0.5312 0.92931 0.7689 0.0
H658 H 0.51939 0.95807 0.05783 0.0
H659 H 0.49082 0.95304 0.03558 0.0
H660 H 0.50333 0.97976 0.01591 0.0
H661 H 0.54919 0.89386 0.90383 0.0
H662 H 0.54112 0.89435 0.81413 0.0
H663 H 0.5214 0.88606 0.87998 0.0
C664 C 0.63597 0.52732 0.07679 0.0
C665 C 0.64741 0.50693 0.08373 0.0
C666 C 0.61879 0.52996 0.02749 0.0
C667 C 0.61324 0.51196 0.98298 0.0
C668 C 0.62482 0.49139 0.98983 0.0
C669 C 0.64157 0.48909 0.04022 0.0
C670 C 0.60664 0.55204 0.02281 0.0
C671 C 0.61985 0.47187 0.94282 0.0
C672 C 0.55835 0.50852 0.8822 0.0
C673 C 0.56507 0.51557 0.81618 0.0
C674 C 0.57356 0.50821 0.93785 0.0
C675 C 0.59613 0.51475 0.92701 0.0
C676 C 0.60277 0.52246 0.86079 0.0
C677 C 0.58715 0.52296 0.80655 0.0
C678 C 0.56562 0.50028 0.00776 0.0
C679 C 0.62666 0.52928 0.84633 0.0
H680 H 0.64028 0.54112 0.11047 0.0
H681 H 0.65053 0.47338 0.04451 0.0
H682 H 0.60967 0.55979 0.97153 0.0
H683 H 0.58834 0.54932 0.02769 0.0
H684 H 0.61205 0.56397 0.06344 0.0
H685 H 0.63016 0.45693 0.95525 0.0
H686 H 0.60194 0.46719 0.94681 0.0
H687 H 0.62308 0.47671 0.88833 0.0
H688 H 0.54129 0.50288 0.8901 0.0
H689 H 0.59251 0.52845 0.75574 0.0
H690 H 0.57057 0.5124 0.04831 0.0
H691 H 0.57368 0.48407 0.02046 0.0
H692 H 0.54718 0.498 0.00963 0.0
H693 H 0.63209 0.54227 0.88353 0.0
H694 H 0.62891 0.53589 0.79308 0.0
H695 H 0.63786 0.51464 0.85319 0.0
C696 C 0.02077 0.63576 0.08828 0.0
C697 C 1.00021 0.64114 0.11959 0.0
C698 C 0.02205 0.62051 0.03292 0.0
C699 C 1.00236 0.60998 0.0084 0.0
C700 C 0.98171 0.61455 0.04157 0.0
C701 C 0.98085 0.63012 0.09607 0.0
C702 C 0.04442 0.61625 0.99904 0.0
C703 C 0.96032 0.60356 0.0179 0.0
C704 C 1.00072 0.5909 0.82018 0.0
C705 C 1.00542 0.56797 0.82567 0.0
C706 C 0.99973 0.60468 0.87906 0.0
C707 C 1.00312 0.59529 0.94555 0.0
C708 C 1.00735 0.572 0.95151 0.0
C709 C 0.00866 0.55868 0.89154 0.0
C710 C 0.99543 0.6294 0.86992 0.0
C711 C 0.01064 0.56118 0.02124 0.0
H712 H 0.03594 0.64375 0.10633 0.0
H713 H 0.96475 0.63426 0.1184 0.0
H714 H 0.04805 0.59805 0.99817 0.0
H715 H 0.04396 0.62208 0.9446 0.0
H716 H 0.05832 0.62496 0.0259 0.0
H717 H 0.94605 0.60719 0.05299 0.0
H718 H 0.956 0.6096 0.96537 0.0
H719 H 0.96255 0.58516 0.0147 0.0
H720 H 0.99828 0.59825 0.76952 0.0
H721 H 0.01232 0.54098 0.89621 0.0
H722 H 0.00959 0.63914 0.8915 0.0
H723 H 0.98017 0.63435 0.89879 0.0
H724 H 0.99327 0.63415 0.81482 0.0
H725 H 0.02562 0.56835 0.04671 0.0
H726 H 0.0128 0.54276 0.01742 0.0
H727 H 0.99606 0.56474 0.05508 0.0
C728 C 0.97818 0.20635 0.5234 0.0
C729 C 0.96509 0.22155 0.48599 0.0
C730 C 0.96845 0.18747 0.55378 0.0
C731 C 0.94496 0.18453 0.54928 0.0
C732 C 0.93148 0.20247 0.52636 0.0
C733 C 0.9417 0.22065 0.49289 0.0
C734 C 0.98359 0.16946 0.58235 0.0
C735 C 0.90631 0.2014 0.52987 0.0
C736 C 0.93486 0.12716 0.47897 0.0
C737 C 0.93699 0.11439 0.53923 0.0
C738 C 0.9352 0.15052 0.48168 0.0
C739 C 0.93619 0.16132 0.5469 0.0
C740 C 0.93402 0.14848 0.60799 0.0
C741 C 0.935 0.12506 0.60364 0.0
C742 C 0.93719 0.16331 0.41442 0.0
C743 C 0.93256 0.15915 0.6784 0.0
H744 H 0.99626 0.20788 0.52229 0.0
H745 H 0.93125 0.23281 0.46679 0.0
H746 H 0.97902 0.16594 0.63674 0.0
H747 H 0.98156 0.15374 0.55254 0.0
H748 H 1.00152 0.17434 0.58077 0.0
H749 H 0.89943 0.21805 0.54392 0.0
H750 H 0.89949 0.19705 0.47838 0.0
H751 H 0.90044 0.18883 0.56816 0.0
H752 H 0.93512 0.1189 0.42916 0.0
H753 H 0.93603 0.11542 0.65097 0.0
H754 H 0.95295 0.17315 0.41352 0.0
H755 H 0.92307 0.17517 0.40918 0.0
H756 H 0.93712 0.15213 0.36863 0.0
H757 H 0.9482 0.15588 0.70744 0.0
H758 H 0.91875 0.1513 0.70833 0.0
H759 H 0.92959 0.17746 0.67581 0.0
C760 C 0.32279 0.10094 0.40124 0.0
C761 C 0.32001 0.10215 0.32933 0.0
C762 C 0.34261 0.09244 0.42979 0.0
C763 C 0.35997 0.08528 0.38522 0.0
C764 C 0.35856 0.08971 0.31362 0.0
C765 C 0.33855 0.09807 0.28643 0.0
C766 C 0.34388 0.08873 0.50679 0.0
C767 C 0.37699 0.0829 0.2645 0.0
C768 C 0.41479 0.06054 0.44826 0.0
C769 C 0.41015 0.03755 0.44436 0.0
C770 C 0.39835 0.07648 0.43212 0.0
C771 C 0.37701 0.06915 0.41029 0.0
C772 C 0.37216 0.04593 0.40769 0.0
C773 C 0.38877 0.03043 0.42512 0.0
C774 C 0.40405 0.10103 0.43677 0.0
C775 C 0.34957 0.0374 0.38461 0.0
H776 H 0.30877 0.10472 0.43491 0.0
H777 H 0.33679 0.09899 0.23081 0.0
H778 H 0.34015 0.07092 0.51844 0.0
H779 H 0.36093 0.09237 0.52638 0.0
H780 H 0.33161 0.09929 0.53503 0.0
H781 H 0.37501 0.09079 0.21286 0.0
H782 H 0.39361 0.0875 0.28546 0.0
H783 H 0.3767 0.06445 0.25788 0.0
H784 H 0.43125 0.06605 0.46438 0.0
H785 H 0.38522 0.01267 0.42201 0.0
H786 H 0.38967 0.11092 0.45634 0.0
H787 H 0.40826 0.10741 0.3845 0.0
H788 H 0.41864 0.10396 0.471 0.0
H789 H 0.33614 0.04479 0.41698 0.0
H790 H 0.34831 0.01888 0.38777 0.0
H791 H 0.34645 0.04258 0.3304 0.0
C792 C 0.62678 0.30604 0.36467 0.0
C793 C 0.60665 0.29425 0.3735 0.0
C794 C 0.62975 0.32723 0.3946 0.0
C795 C 0.61215 0.33668 0.43384 0.0
C796 C 0.59316 0.32359 0.45047 0.0
C797 C 0.59062 0.30256 0.41998 0.0
C798 C 0.65066 0.34034 0.37821 0.0
C799 C 0.57414 0.33286 0.49327 0.0
C800 C 0.61037 0.39324 0.52147 0.0
C801 C 0.59821 0.40568 0.47271 0.0
C802 C 0.6169 0.37111 0.50763 0.0
C803 C 0.61086 0.36125 0.44397 0.0
C804 C 0.60011 0.37432 0.3927 0.0
C805 C 0.59393 0.39635 0.40774 0.0
C806 C 0.62882 0.35795 0.56301 0.0
C807 C 0.59339 0.36451 0.32387 0.0
H808 H 0.63957 0.29945 0.33049 0.0
H809 H 0.57497 0.29374 0.42746 0.0
H810 H 0.64724 0.35195 0.33467 0.0
H811 H 0.65595 0.35055 0.42313 0.0
H812 H 0.66465 0.32916 0.36284 0.0
H813 H 0.56223 0.31959 0.50966 0.0
H814 H 0.58058 0.34138 0.54001 0.0
H815 H 0.56482 0.34545 0.4624 0.0
H816 H 0.61408 0.40052 0.57141 0.0
H817 H 0.58437 0.40572 0.37001 0.0
H818 H 0.64074 0.34575 0.54039 0.0
H819 H 0.61634 0.34846 0.59382 0.0
H820 H 0.63803 0.36918 0.59873 0.0
H821 H 0.60783 0.35602 0.29919 0.0
H822 H 0.58693 0.37742 0.28767 0.0
H823 H 0.58011 0.35177 0.33193 0.0
C824 C 0.18038 0.42915 0.25054 0.0
C825 C 0.19662 0.42052 0.29565 0.0
C826 C 0.16083 0.43906 0.27602 0.0
C827 C 0.15739 0.44016 0.34817 0.0
C828 C 0.17212 0.42876 0.39324 0.0
C829 C 0.19176 0.41918 0.36646 0.0
C830 C 0.14514 0.45049 0.22613 0.0
C831 C 0.16818 0.42848 0.4702 0.0
C832 C 0.13274 0.49464 0.41255 0.0
C833 C 0.11026 0.48895 0.42191 0.0
C834 C 0.14822 0.47873 0.38934 0.0
C835 C 0.14104 0.45651 0.37612 0.0
C836 C 0.11834 0.45062 0.38633 0.0
C837 C 0.10322 0.46696 0.40931 0.0
C838 C 0.1722 0.48584 0.37766 0.0
C839 C 0.1099 0.42713 0.3745 0.0
H840 H 0.18393 0.43034 0.19572 0.0
H841 H 0.20406 0.41215 0.40139 0.0
H842 H 0.12752 0.44616 0.23832 0.0
H843 H 0.14691 0.46891 0.23119 0.0
H844 H 0.14867 0.44583 0.17164 0.0
H845 H 0.17886 0.4159 0.49662 0.0
H846 H 0.17202 0.44523 0.49185 0.0
H847 H 0.15035 0.42479 0.4817 0.0
H848 H 0.13812 0.51167 0.42237 0.0
H849 H 0.08592 0.46244 0.41843 0.0
H850 H 0.17694 0.48301 0.32289 0.0
H851 H 0.18356 0.47559 0.41007 0.0
H852 H 0.17498 0.50377 0.3901 0.0
H853 H 0.09195 0.42721 0.35972 0.0
H854 H 0.11152 0.41749 0.42327 0.0
H855 H 0.11949 0.41824 0.33385 0.0
C856 C 0.93263 0.82954 0.03607 0.0
C857 C 0.93331 0.80804 1.00707 0.0
C858 C 0.94184 0.84786 1.0011 0.0
C859 C 0.95208 0.84449 0.93598 0.0
C860 C 0.94943 0.8238 0.9017 0.0
C861 C 0.93983 0.80576 0.93758 0.0
C862 C 0.94342 0.87001 0.03829 0.0
C863 C 0.9591 0.8199 0.83072 0.0
C864 C 0.97895 0.89788 0.87364 0.0
C865 C 0.99983 0.89634 0.90626 0.0
C866 C 0.96375 0.88005 0.8762 0.0
C867 C 0.96955 0.86053 0.91341 0.0
C868 C 0.99147 0.85817 0.94055 0.0
C869 C 1.00642 0.87615 0.93635 0.0
C870 C 0.94101 0.88293 0.84377 0.0
C871 C 0.9985 0.83741 0.97954 0.0
H872 H 0.9274 0.83179 0.0892 0.0
H873 H 0.93949 0.7894 0.91351 0.0
H874 H 0.96079 0.87246 0.05704 0.0
H875 H 0.93943 0.88404 1.00286 0.0
H876 H 0.93193 0.87081 0.0834 0.0
H877 H 0.95025 0.80612 0.80373 0.0
H878 H 0.95822 0.83526 0.79861 0.0
H879 H 0.97697 0.81514 0.83562 0.0
H880 H 0.97417 0.91338 0.84844 0.0
H881 H 0.0227 0.87495 0.96072 0.0
H882 H 0.92944 0.89047 0.88211 0.0
H883 H 0.93386 0.8667 0.827 0.0
H884 H 0.94188 0.89437 0.7985 0.0
H885 H 0.98912 0.83639 0.02901 0.0
H886 H 0.01669 0.83737 0.99132 0.0
H887 H 0.99451 0.82219 0.94929 0.0
C888 C 0.72175 0.0838 0.95997 0.0
C889 C 0.72378 0.06046 0.96521 0.0
C890 C 0.70324 0.09331 0.92636 0.0
C891 C 0.68619 0.07908 0.90136 0.0
C892 C 0.69041 0.05583 0.89524 0.0
C893 C 0.70952 0.04686 0.92619 0.0
C894 C 0.70077 0.1184 0.92494 0.0
C895 C 0.67338 0.04 0.86477 0.0
C896 C 0.62784 0.08602 0.96904 0.0
C897 C 0.61554 0.08443 0.90782 0.0
C898 C 0.65121 0.08638 0.96769 0.0
C899 C 0.66253 0.08659 0.9031 0.0
C900 C 0.65007 0.08891 0.84146 0.0
C901 C 0.62666 0.08729 0.84433 0.0
C902 C 0.66356 0.08395 0.03544 0.0
C903 C 0.66117 0.09133 0.7718 0.0
H904 H 0.73322 0.09458 0.98763 0.0
H905 H 0.71188 0.02887 0.92684 0.0
H906 H 0.68884 0.12388 0.88438 0.0
H907 H 0.69464 0.12437 0.97578 0.0
H908 H 0.71725 0.12645 0.91545 0.0
H909 H 0.67936 0.0224 0.86411 0.0
H910 H 0.65758 0.04067 0.89497 0.0
H911 H 0.66952 0.04502 0.811 0.0
H912 H 0.61923 0.08499 0.0183 0.0
H913 H 0.61738 0.08659 0.79636 0.0
H914 H 0.67493 0.09837 0.0431 0.0
H915 H 0.6739 0.06852 0.03505 0.0
H916 H 0.65206 0.08309 0.08052 0.0
H917 H 0.67937 0.09478 0.7756 0.0
H918 H 0.65314 0.10519 0.74265 0.0
H919 H 0.65855 0.07586 0.74124 0.0
C920 C 0.43433 0.71859 0.92547 0.0
C921 C 0.45771 0.7209 0.92575 0.0
C922 C 0.42442 0.69954 0.89631 0.0
C923 C 0.43836 0.68232 0.87086 0.0
C924 C 0.46127 0.68688 0.85817 0.0
C925 C 0.47063 0.70648 0.88491 0.0
C926 C 0.39943 0.69654 0.90127 0.0
C927 C 0.47662 0.66969 0.82606 0.0
C928 C 0.43484 0.62581 0.95456 0.0
C929 C 0.43492 0.61193 0.89645 0.0
C930 C 0.43398 0.64907 0.94747 0.0
C931 C 0.43164 0.65861 0.8806 0.0
C932 C 0.42776 0.64451 0.82329 0.0
C933 C 0.42995 0.62126 0.83152 0.0
C934 C 0.43813 0.66322 0.01094 0.0
C935 C 0.42301 0.65367 0.75218 0.0
H936 H 0.42399 0.73017 0.9544 0.0
H937 H 0.48856 0.70903 0.88155 0.0
H938 H 0.39327 0.68451 0.86202 0.0
H939 H 0.39492 0.69014 0.95326 0.0
H940 H 0.39079 0.71284 0.89415 0.0
H941 H 0.49383 0.67623 0.81802 0.0
H942 H 0.47761 0.65466 0.85975 0.0
H943 H 0.46993 0.66434 0.77537 0.0
H944 H 0.43748 0.61858 1.00529 0.0
H945 H 0.42943 0.61073 0.78605 0.0
H946 H 0.42387 0.67469 0.0198 0.0
H947 H 0.45338 0.67357 1.00363 0.0
H948 H 0.44039 0.65296 0.05834 0.0
H949 H 0.4192 0.67184 0.7525 0.0
H950 H 0.4086 0.64461 0.7293 0.0
H951 H 0.4376 0.65056 0.71799 0.0
C952 C 0.83717 0.40808 0.18526 0.0
C953 C 0.81787 0.40038 0.15161 0.0
C954 C 0.85773 0.40912 0.15073 0.0
C955 C 0.85906 0.40204 0.08115 0.0
C956 C 0.84049 0.39128 0.05039 0.0
C957 C 0.81996 0.39075 0.08585 0.0
C958 C 0.87715 0.42058 0.18583 0.0
C959 C 0.84163 0.38251 0.97748 0.0
C960 C 0.89372 0.44187 0.97376 0.0
C961 C 0.91462 0.43133 0.97345 0.0
C962 C 0.87525 0.43189 1.00581 0.0
C963 C 0.87764 0.41061 0.03741 0.0
C964 C 0.89837 0.39921 0.03344 0.0
C965 C 0.91678 0.40989 1.00233 0.0
C966 C 0.85353 0.44481 0.00944 0.0
C967 C 0.90147 0.37627 0.0646 0.0
H968 H 0.8358 0.41562 0.23598 0.0
H969 H 0.8052 0.38435 0.0601 0.0
H970 H 0.8929 0.41122 0.17703 0.0
H971 H 0.87933 0.43758 0.16359 0.0
H972 H 0.87445 0.42226 0.24239 0.0
H973 H 0.82814 0.37016 0.96733 0.0
H974 H 0.83965 0.39662 0.94067 0.0
H975 H 0.85808 0.37455 0.96716 0.0
H976 H 0.8921 0.45853 0.95203 0.0
H977 H 0.93293 0.40164 1.00152 0.0
H978 H 0.84945 0.44866 0.06412 0.0
H979 H 0.83962 0.43462 0.98848 0.0
H980 H 0.85429 0.4608 0.98017 0.0
H981 H 0.90511 0.37794 0.1205 0.0
H982 H 0.91571 0.36729 0.04021 0.0
H983 H 0.88613 0.36596 0.05919 0.0
C984 C 0.03267 0.18065 0.90385 0.0
C985 C 0.01438 0.18762 0.94427 0.0
C986 C 0.03332 0.15915 0.87362 0.0
C987 C 0.01535 0.144 0.88419 0.0
C988 C 0.99673 0.15103 0.92411 0.0
C989 C 0.99646 0.17262 0.95342 0.0
C990 C 0.05343 0.15254 0.83102 0.0
C991 C 0.9772 0.13554 0.93712 0.0
C992 C 1.00794 0.09336 0.76474 0.0
C993 C 0.01716 0.07583 0.80408 0.0
C994 C 1.00736 0.11554 0.78973 0.0
C995 C 0.01631 0.12056 0.85574 0.0
C996 C 0.02578 0.10298 0.89544 0.0
C997 C 0.02607 0.08096 0.86932 0.0
C998 C 0.99707 0.13361 0.74542 0.0
C999 C 0.03543 0.10741 0.96611 0.0
H1000 H 0.04652 0.19205 0.89567 0.0
H1001 H 0.98239 0.17752 0.98538 0.0
H1002 H 0.06192 0.13802 0.85529 0.0
H1003 H 0.04805 0.14725 0.77872 0.0
H1004 H 0.0657 0.1664 0.82565 0.0
H1005 H 0.96367 0.1437 0.96738 0.0
H1006 H 0.97016 0.1297 0.88734 0.0
H1007 H 0.98297 0.12052 0.96574 0.0
H1008 H 1.00096 0.08975 0.71435 0.0
H1009 H 0.03324 0.0677 0.90046 0.0
H1010 H 0.00998 0.1462 0.73165 0.0
H1011 H 0.98375 0.14246 0.77455 0.0
H1012 H 0.98975 0.12686 0.69703 0.0
H1013 H 0.04884 0.1202 0.96247 0.0
H1014 H 0.04249 0.09207 0.99018 0.0
H1015 H 0.02226 0.11421 1.00068 0.0
C1016 C 0.33817 0.04182 0.87817 0.0
C1017 C 0.32691 0.02264 0.90227 0.0
C1018 C 0.35967 0.04047 0.84855 0.0
C1019 C 0.37051 0.01946 0.8432 0.0
C1020 C 0.35908 0.99996 0.86569 0.0
C1021 C 0.33748 1.00177 0.89469 0.0
C1022 C 0.37111 0.06171 0.82514 0.0
C1023 C 0.36995 0.97722 0.86103 0.0
C1024 C 0.42206 0.0139 0.72623 0.0
C1025 C 0.43968 0.01616 0.77369 0.0
C1026 C 0.39951 0.01499 0.74783 0.0
C1027 C 0.39434 0.01815 0.81872 0.0
C1028 C 0.41206 0.02039 0.86673 0.0
C1029 C 0.43438 0.01946 0.84371 0.0
C1030 C 0.38119 0.01275 0.69477 0.0
C1031 C 0.40744 0.02372 0.94277 0.0
H1032 H 0.33055 0.05812 0.88465 0.0
H1033 H 0.32895 0.98677 0.91205 0.0
H1034 H 0.38585 0.06502 0.85835 0.0
H1035 H 0.37732 0.05987 0.77139 0.0
H1036 H 0.35982 0.07645 0.82749 0.0
H1037 H 0.35845 0.96354 0.87705 0.0
H1038 H 0.37566 0.974 0.8074 0.0
H1039 H 0.38496 0.97674 0.89462 0.0
H1040 H 0.42586 0.01136 0.67205 0.0
H1041 H 0.44774 0.02111 0.88111 0.0
H1042 H 0.36982 0.0274 0.69733 0.0
H1043 H 0.371 0.99766 0.70608 0.0
H1044 H 0.38789 0.0114 0.64139 0.0
H1045 H 0.39758 0.03924 0.95062 0.0
H1046 H 0.42305 0.02492 0.97363 0.0
H1047 H 0.3973 0.0096 0.963 0.0
C1048 C 0.53518 0.34169 0.91297 0.0
C1049 C 0.51725 0.32649 0.91051 0.0
C1050 C 0.5336 0.36315 0.88343 0.0
C1051 C 0.51363 0.36974 0.84978 0.0
C1052 C 0.49553 0.35441 0.84626 0.0
C1053 C 0.49748 0.33307 0.87711 0.0
C1054 C 0.5532 0.37897 0.88961 0.0
C1055 C 0.47403 0.36063 0.81032 0.0
C1056 C 0.50258 0.43256 0.83804 0.0
C1057 C 0.51014 0.43783 0.77112 0.0
C1058 C 0.50325 0.4105 0.86357 0.0
C1059 C 0.51149 0.39302 0.82121 0.0
C1060 C 0.51871 0.3981 0.75308 0.0
C1061 C 0.51804 0.42039 0.729 0.0
C1062 C 0.49563 0.40601 0.93674 0.0
C1063 C 0.52748 0.38001 0.70592 0.0
H1064 H 0.55039 0.33697 0.93969 0.0
H1065 H 0.48359 0.32144 0.87459 0.0
H1066 H 0.5586 0.38468 0.83764 0.0
H1067 H 0.54811 0.39405 0.91912 0.0
H1068 H 0.56773 0.37115 0.91597 0.0
H1069 H 0.46191 0.34653 0.80916 0.0
H1070 H 0.4661 0.37501 0.83701 0.0
H1071 H 0.47759 0.36598 0.75648 0.0
H1072 H 0.49648 0.44578 0.87136 0.0
H1073 H 0.52383 0.42415 0.67717 0.0
H1074 H 0.50984 0.3995 0.96763 0.0
H1075 H 0.48239 0.39301 0.93722 0.0
H1076 H 0.48903 0.42127 0.96239 0.0
H1077 H 0.51496 0.36638 0.70129 0.0
H1078 H 0.54285 0.37256 0.72822 0.0
H1079 H 0.53146 0.38645 0.65342 0.0
C1080 C 0.18279 0.48231 0.87917 0.0
C1081 C 0.19336 0.50151 0.90555 0.0
C1082 C 0.16105 0.48322 0.85145 0.0
C1083 C 0.14933 0.50382 0.85002 0.0
C1084 C 0.15999 0.52335 0.87536 0.0
C1085 C 0.18179 0.52196 0.90279 0.0
C1086 C 0.15039 0.46196 0.8253 0.0
C1087 C 0.14819 0.54568 0.87457 0.0
C1088 C 0.0987 0.50966 0.73054 0.0
C1089 C 0.08069 0.50643 0.77629 0.0
C1090 C 0.12105 0.50889 0.75366 0.0
C1091 C 0.12565 0.50472 0.82434 0.0
C1092 C 0.10757 0.50121 0.87061 0.0
C1093 C 0.08541 0.50208 0.84614 0.0
C1094 C 0.13976 0.51259 0.7024 0.0
C1095 C 0.11162 0.49669 0.94633 0.0
H1096 H 0.19124 0.4663 0.88214 0.0
H1097 H 0.18977 0.53695 0.92232 0.0
H1098 H 0.13547 0.45788 0.85711 0.0
H1099 H 0.14459 0.46428 0.77136 0.0
H1100 H 0.16206 0.4475 0.82692 0.0
H1101 H 0.159 0.55944 0.89382 0.0
H1102 H 0.14273 0.5498 0.82131 0.0
H1103 H 0.13294 0.54483 0.90725 0.0
H1104 H 0.09538 0.51288 0.67649 0.0
H1105 H 0.07174 0.49962 0.88223 0.0
H1106 H 0.15065 0.52651 0.71979 0.0
H1107 H 0.13345 0.51656 0.64988 0.0
H1108 H 0.15034 0.49737 0.69931 0.0
H1109 H 0.12215 0.48153 0.95251 0.0
H1110 H 0.09581 0.49422 0.97563 0.0
H1111 H 0.12089 0.51088 0.9696 0.0
C1112 C 0.97825 0.83465 0.57942 0.0
C1113 C 0.99305 0.8272 0.52757 0.0
C1114 C 0.9809 0.85571 0.61128 0.0
C1115 C 0.999 0.86971 0.592 0.0
C1116 C 0.01474 0.86178 0.54291 0.0
C1117 C 0.0115 0.84083 0.51099 0.0
C1118 C 0.96389 0.86329 0.66402 0.0
C1119 C 0.03472 0.87577 0.52249 0.0
C1120 C 0.99327 0.93327 0.60293 0.0
C1121 C 1.00499 0.93849 0.66364 0.0
C1122 C 0.9908 0.91102 0.5804 0.0
C1123 C 1.00056 0.8933 0.61866 0.0
C1124 C 0.01217 0.89837 0.68061 0.0
C1125 C 0.01404 0.92082 0.70264 0.0
C1126 C 0.97781 0.90651 0.51506 0.0
C1127 C 0.02267 0.88019 0.72398 0.0
H1128 H 0.96428 0.82418 0.59448 0.0
H1129 H 0.02304 0.83558 0.47097 0.0
H1130 H 0.97233 0.86706 0.71361 0.0
H1131 H 0.95574 0.87896 0.64624 0.0
H1132 H 0.95073 0.85052 0.67354 0.0
H1133 H 0.04651 0.86649 0.48857 0.0
H1134 H 0.02903 0.89099 0.49473 0.0
H1135 H 0.04383 0.88135 0.5693 0.0
H1136 H 0.98596 0.94664 0.57256 0.0
H1137 H 0.02301 0.92454 0.74979 0.0
H1138 H 0.96424 0.89428 0.52558 0.0
H1139 H 0.98901 0.89899 0.47563 0.0
H1140 H 0.97029 0.92195 0.49307 0.0
H1141 H 0.00966 0.87256 0.75751 0.0
H1142 H 0.03603 0.88694 0.75782 0.0
H1143 H 0.02994 0.86676 0.69141 0.0
C1144 C 0.68259 0.98899 0.54185 0.0
C1145 C 0.69004 1.00727 0.5022 0.0
C1146 C 0.66097 0.98864 0.57141 0.0
C1147 C 0.64623 1.00695 0.56101 0.0
C1148 C 0.65377 0.02558 0.52202 0.0
C1149 C 0.67544 0.02551 0.49323 0.0
C1150 C 0.65375 0.96849 0.61291 0.0
C1151 C 0.63871 0.04545 0.50922 0.0
C1152 C 0.583 0.99749 0.57132 0.0
C1153 C 0.57753 1.00626 0.63654 0.0
C1154 C 0.60521 0.99737 0.54676 0.0
C1155 C 0.62263 1.00627 0.58809 0.0
C1156 C 0.61729 0.01505 0.65415 0.0
C1157 C 0.59491 0.01489 0.67755 0.0
C1158 C 0.61001 0.98791 0.47599 0.0
C1159 C 0.63521 0.02481 0.69997 0.0
H1160 H 0.69369 0.97489 0.54985 0.0
H1161 H 0.6807 0.03958 0.46175 0.0
H1162 H 0.64812 0.97376 0.66506 0.0
H1163 H 0.63931 0.96028 0.58744 0.0
H1164 H 0.66739 0.956 0.61868 0.0
H1165 H 0.64734 0.05904 0.48037 0.0
H1166 H 0.62385 0.04012 0.47921 0.0
H1167 H 0.63256 0.05228 0.55901 0.0
H1168 H 0.56985 0.99076 0.53896 0.0
H1169 H 0.59102 0.02177 0.72794 0.0
H1170 H 0.62256 0.97428 0.47982 0.0
H1171 H 0.61726 1.0011 0.44232 0.0
H1172 H 0.59476 0.98118 0.45076 0.0
H1173 H 0.62837 0.03119 0.7496 0.0
H1174 H 0.64381 0.03876 0.67294 0.0
H1175 H 0.64805 0.01192 0.71139 0.0
C1176 C 0.52738 0.67469 0.48863 0.0
C1177 C 0.50728 0.68693 0.48698 0.0
C1178 C 0.52868 0.65359 0.52119 0.0
C1179 C 0.50933 0.64406 0.55182 0.0
C1180 C 0.48921 0.6566 0.55269 0.0
C1181 C 0.48852 0.67788 0.52125 0.0
C1182 C 0.55066 0.64115 0.52068 0.0
C1183 C 0.46808 0.64714 0.58413 0.0
C1184 C 0.50661 0.58018 0.5581 0.0
C1185 C 0.51082 0.57556 0.62799 0.0
C1186 C 0.50574 0.60231 0.53316 0.0
C1187 C 0.50973 0.62045 0.57869 0.0
C1188 C 0.51406 0.6159 0.64937 0.0
C1189 C 0.51431 0.59357 0.67326 0.0
C1190 C 0.50039 0.60629 0.45794 0.0
C1191 C 0.51883 0.6346 0.69954 0.0
H1192 H 0.54201 0.68113 0.46213 0.0
H1193 H 0.47301 0.68724 0.52244 0.0
H1194 H 0.5547 0.63504 0.57336 0.0
H1195 H 0.54934 0.62628 0.48668 0.0
H1196 H 0.56469 0.65175 0.5019 0.0
H1197 H 0.45428 0.65958 0.58548 0.0
H1198 H 0.46251 0.63247 0.55358 0.0
H1199 H 0.47124 0.64118 0.6375 0.0
H1200 H 0.50364 0.56643 0.52282 0.0
H1201 H 0.51768 0.5902 0.72729 0.0
H1202 H 0.51463 0.61483 0.4322 0.0
H1203 H 0.48562 0.61745 0.45338 0.0
H1204 H 0.49685 0.59049 0.42986 0.0
H1205 H 0.53427 0.64353 0.6835 0.0
H1206 H 0.52103 0.62842 0.75325 0.0
H1207 H 0.50503 0.647 0.69903 0.0
C1208 C 0.85575 0.50775 0.44137 0.0
C1209 C 0.8373 0.52014 0.46496 0.0
C1210 C 0.87646 0.50846 0.4757 0.0
C1211 C 0.87909 0.52224 0.53465 0.0
C1212 C 0.86056 0.53494 0.5585 0.0
C1213 C 0.83982 0.53353 0.52393 0.0
C1214 C 0.89551 0.49426 0.44909 0.0
C1215 C 0.8627 0.5502 0.62014 0.0
C1216 C 0.92792 0.50875 0.6553 0.0
C1217 C 0.94477 0.52302 0.63024 0.0
C1218 C 0.90639 0.50859 0.62565 0.0
C1219 C 0.90133 0.52339 0.57047 0.0
C1220 C 0.91804 0.53842 0.54682 0.0
C1221 C 0.93956 0.53787 0.57631 0.0
C1222 C 0.88932 0.49196 0.65169 0.0
C1223 C 0.91333 0.55483 0.48927 0.0
H1224 H 0.85383 0.49708 0.39655 0.0
H1225 H 0.82566 0.54316 0.54237 0.0
H1226 H 0.90973 0.50509 0.43354 0.0
H1227 H 0.9016 0.48301 0.49066 0.0
H1228 H 0.89057 0.4839 0.40403 0.0
H1229 H 0.86761 0.54039 0.66638 0.0
H1230 H 0.8761 0.5627 0.61065 0.0
H1231 H 0.84688 0.55921 0.6317 0.0
H1232 H 0.93179 0.4971 0.69656 0.0
H1233 H 0.95237 0.54908 0.55688 0.0
H1234 H 0.88502 0.48008 0.60977 0.0
H1235 H 0.87368 0.50069 0.66669 0.0
H1236 H 0.89549 0.48226 0.6968 0.0
H1237 H 0.91025 0.54563 0.44049 0.0
H1238 H 0.92741 0.56666 0.48077 0.0
H1239 H 0.89799 0.56459 0.50104 0.0
loop_
_geom_bond_atom_site_label_1
_geom_bond_atom_site_label_2
_geom_bond_distance
_geom_bond_site_symmetry_2
_ccdc_geom_bond_type
C0 C1 1.386 . S
C0 C2 1.397 . S
C0 H24 0.931 . S
C1 C0 1.386 . S
C1 C5 1.397 . S
C2 C0 1.397 . S
C2 C3 1.384 . S
C2 H25 0.930 . S
C3 C2 1.384 . S
C3 C4 1.377 . S
C3 C6 1.481 . S
C4 C3 1.377 . S
C4 C5 1.389 . S
C4 H26 0.929 . S
C5 C1 1.397 . S
C5 C4 1.389 . S
C5 H27 0.931 . S
C6 C3 1.481 . S
C6 C7 1.387 . S
C6 C11 1.390 . S
C7 C6 1.387 . S
C7 C8 1.401 . S
C7 H28 0.930 . S
C8 C7 1.401 . S
C8 C9 1.376 . S
C8 C17 1.511 . S
C9 C8 1.376 . S
C9 C10 1.392 . S
C9 H30 0.931 . S
C10 C9 1.392 . S
C10 C11 1.361 . S
C10 C12 1.500 . S
C11 C6 1.390 . S
C11 C10 1.361 . S
C11 H29 0.931 . S
C12 C10 1.500 . S
C12 C13 1.371 . S
C12 C14 1.365 . S
C13 C12 1.371 . S
C13 C23 1.386 . S
C13 H31 0.931 . S
C14 C12 1.365 . S
C14 C15 1.409 . S
C14 H32 0.929 . S
C15 C14 1.409 . S
C15 C16 1.380 . S
C15 H33 0.930 . S
C16 C15 1.380 . S
C16 C23 1.357 . S
C17 C8 1.511 . S
C17 C18 1.341 . S
C17 C19 1.371 . S
C18 C17 1.341 . S
C18 C22 1.394 . S
C18 H34 0.930 . S
C19 C17 1.371 . S
C19 C20 1.392 . S
C19 H35 0.931 . S
C20 C19 1.392 . S
C20 C21 1.331 . S
C20 H38 0.932 . S
C21 C20 1.331 . S
C21 C22 1.336 . S
C22 C18 1.394 . S
C22 C21 1.336 . S
C22 H37 0.929 . S
C23 C13 1.386 . S
C23 C16 1.357 . S
C23 H36 0.928 . S
H24 C0 0.931 . S
H25 C2 0.930 . S
H26 C4 0.929 . S
H27 C5 0.931 . S
H28 C7 0.930 . S
H29 C11 0.931 . S
H30 C9 0.931 . S
H31 C13 0.931 . S
H32 C14 0.929 . S
H33 C15 0.930 . S
H34 C18 0.930 . S
H35 C19 0.931 . S
H36 C23 0.928 . S
H37 C22 0.929 . S
H38 C20 0.932 . S
C39 C40 1.394 . S
C39 C41 1.397 . S
C39 H63 0.931 . S
C40 C39 1.394 . S
C40 C44 1.389 1_655 S
C41 C39 1.397 . S
C41 C42 1.389 . S
C41 H64 0.930 . S
C42 C41 1.389 . S
C42 C43 1.373 1_655 S
C42 C45 1.480 . S
C43 C42 1.373 1_455 S
C43 C44 1.389 . S
C43 H65 0.929 . S
C44 C40 1.389 1_455 S
C44 C43 1.389 . S
C44 H66 0.931 . S
C45 C42 1.480 . S
C45 C46 1.388 . S
C45 C50 1.390 . S
C46 C45 1.388 . S
C46 C47 1.402 . S
C46 H67 0.930 . S
C47 C46 1.402 . S
C47 C48 1.376 . S
C47 C56 1.513 . S
C48 C47 1.376 . S
C48 C49 1.392 . S
C48 H69 0.934 . S
C49 C48 1.392 . S
C49 C50 1.361 . S
C49 C51 1.499 1_655 S
C50 C45 1.390 . S
C50 C49 1.361 . S
C50 H68 0.931 . S
C51 C49 1.499 1_455 S
C51 C52 1.362 1_455 S
C51 C53 1.374 . S
C52 C51 1.362 1_655 S
C52 C62 1.386 . S
C52 H70 0.931 . S
C53 C51 1.374 . S
C53 C54 1.409 . S
C53 H71 0.929 . S
C54 C53 1.409 . S
C54 C55 1.379 . S
C54 H72 0.930 . S
C55 C54 1.379 . S
C55 C62 1.359 1_455 S
C56 C47 1.513 . S
C56 C57 1.341 . S
C56 C58 1.371 1_655 S
C57 C56 1.341 . S
C57 C61 1.394 . S
C57 H73 0.930 . S
C58 C56 1.371 1_455 S
C58 C59 1.392 . S
C58 H74 0.931 . S
C59 C58 1.392 . S
C59 C60 1.322 1_455 S
C59 H77 0.932 . S
C60 C59 1.322 1_655 S
C60 C61 1.345 . S
C61 C57 1.394 . S
C61 C60 1.345 . S
C61 H76 0.929 . S
C62 C52 1.386 . S
C62 C55 1.359 1_655 S
C62 H75 0.928 . S
H63 C39 0.931 . S
H64 C41 0.930 . S
H65 C43 0.929 . S
H66 C44 0.931 . S
H67 C46 0.930 . S
H68 C50 0.931 . S
H69 C48 0.934 . S
H70 C52 0.931 . S
H71 C53 0.929 . S
H72 C54 0.930 . S
H73 C57 0.930 . S
H74 C58 0.931 . S
H75 C62 0.928 . S
H76 C61 0.929 . S
H77 C59 0.932 . S
C78 C79 1.394 . S
C78 C80 1.397 . S
C78 H102 0.931 . S
C79 C78 1.394 . S
C79 C83 1.389 1_565 S
C80 C78 1.397 . S
C80 C81 1.389 . S
C80 H103 0.930 . S
C81 C80 1.389 . S
C81 C82 1.373 1_565 S
C81 C84 1.480 . S
C82 C81 1.373 1_545 S
C82 C83 1.389 . S
C82 H104 0.929 . S
C83 C79 1.389 1_545 S
C83 C82 1.389 . S
C83 H105 0.931 . S
C84 C81 1.480 . S
C84 C85 1.388 . S
C84 C89 1.390 . S
C85 C84 1.388 . S
C85 C86 1.402 . S
C85 H106 0.930 . S
C86 C85 1.402 . S
C86 C87 1.376 . S
C86 C95 1.513 . S
C87 C86 1.376 . S
C87 C88 1.392 . S
C87 H108 0.934 . S
C88 C87 1.392 . S
C88 C89 1.361 . S
C88 C90 1.499 1_565 S
C89 C84 1.390 . S
C89 C88 1.361 . S
C89 H107 0.931 . S
C90 C88 1.499 1_545 S
C90 C91 1.362 1_545 S
C90 C92 1.374 . S
C91 C90 1.362 1_565 S
C91 C101 1.386 . S
C91 H109 0.931 . S
C92 C90 1.374 . S
C92 C93 1.409 . S
C92 H110 0.929 . S
C93 C92 1.409 . S
C93 C94 1.379 . S
C93 H111 0.930 . S
C94 C93 1.379 . S
C94 C101 1.359 1_545 S
C95 C86 1.513 . S
C95 C96 1.341 . S
C95 C97 1.371 1_565 S
C96 C95 1.341 . S
C96 C100 1.394 . S
C96 H112 0.930 . S
C97 C95 1.371 1_545 S
C97 C98 1.392 . S
C97 H113 0.931 . S
C98 C97 1.392 . S
C98 C99 1.322 1_545 S
C98 H116 0.932 . S
C99 C98 1.322 1_565 S
C99 C100 1.345 . S
C100 C96 1.394 . S
C100 C99 1.345 . S
C100 H115 0.929 . S
C101 C91 1.386 . S
C101 C94 1.359 1_565 S
C101 H114 0.928 . S
H102 C78 0.931 . S
H103 C80 0.930 . S
H104 C82 0.929 . S
H105 C83 0.931 . S
H106 C85 0.930 . S
H107 C89 0.931 . S
H108 C87 0.934 . S
H109 C91 0.931 . S
H110 C92 0.929 . S
H111 C93 0.930 . S
H112 C96 0.930 . S
H113 C97 0.931 . S
H114 C101 0.928 . S
H115 C100 0.929 . S
H116 C98 0.932 . S
C117 C118 1.386 . S
C117 C119 1.397 . S
C117 H141 0.931 . S
C118 C117 1.386 . S
C118 C122 1.397 . S
C119 C117 1.397 . S
C119 C120 1.384 . S
C119 H142 0.930 . S
C120 C119 1.384 . S
C120 C121 1.377 . S
C120 C123 1.481 . S
C121 C120 1.377 . S
C121 C122 1.389 . S
C121 H143 0.929 . S
C122 C118 1.397 . S
C122 C121 1.389 . S
C122 H144 0.931 . S
C123 C120 1.481 . S
C123 C124 1.387 . S
C123 C128 1.390 . S
C124 C123 1.387 . S
C124 C125 1.401 . S
C124 H145 0.930 . S
C125 C124 1.401 . S
C125 C126 1.376 . S
C125 C134 1.511 . S
C126 C125 1.376 . S
C126 C127 1.392 . S
C126 H147 0.931 . S
C127 C126 1.392 . S
C127 C128 1.361 . S
C127 C129 1.500 . S
C128 C123 1.390 . S
C128 C127 1.361 . S
C128 H146 0.931 . S
C129 C127 1.500 . S
C129 C130 1.371 . S
C129 C131 1.365 . S
C130 C129 1.371 . S
C130 C140 1.386 . S
C130 H148 0.931 . S
C131 C129 1.365 . S
C131 C132 1.409 . S
C131 H149 0.929 . S
C132 C131 1.409 . S
C132 C133 1.380 . S
C132 H150 0.930 . S
C133 C132 1.380 . S
C133 C140 1.357 . S
C134 C125 1.511 . S
C134 C135 1.341 . S
C134 C136 1.371 . S
C135 C134 1.341 . S
C135 C139 1.394 . S
C135 H151 0.930 . S
C136 C134 1.371 . S
C136 C137 1.392 . S
C136 H152 0.931 . S
C137 C136 1.392 . S
C137 C138 1.331 . S
C137 H155 0.932 . S
C138 C137 1.331 . S
C138 C139 1.336 . S
C139 C135 1.394 . S
C139 C138 1.336 . S
C139 H154 0.929 . S
C140 C130 1.386 . S
C140 C133 1.357 . S
C140 H153 0.928 . S
H141 C117 0.931 . S
H142 C119 0.930 . S
H143 C121 0.929 . S
H144 C122 0.931 . S
H145 C124 0.930 . S
H146 C128 0.931 . S
H147 C126 0.931 . S
H148 C130 0.931 . S
H149 C131 0.929 . S
H150 C132 0.930 . S
H151 C135 0.930 . S
H152 C136 0.931 . S
H153 C140 0.928 . S
H154 C139 0.929 . S
H155 C137 0.932 . S
C156 C157 1.386 . S
C156 C158 1.397 . S
C156 H180 0.931 . S
C157 C156 1.386 . S
C157 C161 1.397 . S
C158 C156 1.397 . S
C158 C159 1.384 . S
C158 H181 0.930 . S
C159 C158 1.384 . S
C159 C160 1.377 . S
C159 C162 1.481 . S
C160 C159 1.377 . S
C160 C161 1.389 . S
C160 H182 0.929 . S
C161 C157 1.397 . S
C161 C160 1.389 . S
C161 H183 0.931 . S
C162 C159 1.481 . S
C162 C163 1.387 . S
C162 C167 1.390 . S
C163 C162 1.387 . S
C163 C164 1.401 . S
C163 H184 0.930 . S
C164 C163 1.401 . S
C164 C165 1.376 1_554 S
C164 C173 1.511 . S
C165 C164 1.376 1_556 S
C165 C166 1.392 . S
C165 H186 0.931 . S
C166 C165 1.392 . S
C166 C167 1.361 1_556 S
C166 C168 1.500 . S
C167 C162 1.390 . S
C167 C166 1.361 1_554 S
C167 H185 0.931 . S
C168 C166 1.500 . S
C168 C169 1.371 . S
C168 C170 1.365 . S
C169 C168 1.371 . S
C169 C179 1.386 . S
C169 H187 0.931 . S
C170 C168 1.365 . S
C170 C171 1.409 . S
C170 H188 0.929 . S
C171 C170 1.409 . S
C171 C172 1.380 . S
C171 H189 0.930 . S
C172 C171 1.380 . S
C172 C179 1.357 . S
C173 C164 1.511 . S
C173 C174 1.341 . S
C173 C175 1.371 . S
C174 C173 1.341 . S
C174 C178 1.394 . S
C174 H190 0.930 . S
C175 C173 1.371 . S
C175 C176 1.392 . S
C175 H191 0.931 1_554 S
C176 C175 1.392 . S
C176 C177 1.331 . S
C176 H194 0.932 . S
C177 C176 1.331 . S
C177 C178 1.336 . S
C178 C174 1.394 . S
C178 C177 1.336 . S
C178 H193 0.929 . S
C179 C169 1.386 . S
C179 C172 1.357 . S
C179 H192 0.928 . S
H180 C156 0.931 . S
H181 C158 0.930 . S
H182 C160 0.929 . S
H183 C161 0.931 . S
H184 C163 0.930 . S
H185 C167 0.931 . S
H186 C165 0.931 . S
H187 C169 0.931 . S
H188 C170 0.929 . S
H189 C171 0.930 . S
H190 C174 0.930 . S
H191 C175 0.931 1_556 S
H192 C179 0.928 . S
H193 C178 0.929 . S
H194 C176 0.932 . S
C195 C196 1.387 . S
C195 C197 1.397 . S
C195 H219 0.931 . S
C196 C195 1.387 . S
C196 C200 1.396 1_655 S
C197 C195 1.397 . S
C197 C198 1.381 . S
C197 H220 0.930 . S
C198 C197 1.381 . S
C198 C199 1.380 1_655 S
C198 C201 1.480 . S
C199 C198 1.380 1_455 S
C199 C200 1.389 . S
C199 H221 0.929 . S
C200 C196 1.396 1_455 S
C200 C199 1.389 . S
C200 H222 0.931 . S
C201 C198 1.480 . S
C201 C202 1.388 . S
C201 C206 1.390 . S
C202 C201 1.388 . S
C202 C203 1.402 . S
C202 H223 0.930 . S
C203 C202 1.402 . S
C203 C204 1.376 . S
C203 C212 1.512 . S
C204 C203 1.376 . S
C204 C205 1.392 1_654 S
C204 H225 0.933 1_554 S
C205 C204 1.392 1_456 S
C205 C206 1.361 1_456 S
C205 C207 1.499 . S
C206 C201 1.390 . S
C206 C205 1.361 1_654 S
C206 H224 0.931 . S
C207 C205 1.499 . S
C207 C208 1.357 1_455 S
C207 C209 1.380 . S
C208 C207 1.357 1_655 S
C208 C218 1.386 . S
C208 H226 0.931 . S
C209 C207 1.380 . S
C209 C210 1.409 . S
C209 H227 0.929 . S
C210 C209 1.409 . S
C210 C211 1.384 . S
C210 H228 0.930 . S
C211 C210 1.384 . S
C211 C218 1.353 1_455 S
C212 C203 1.512 . S
C212 C213 1.341 . S
C212 C214 1.371 1_655 S
C213 C212 1.341 . S
C213 C217 1.394 . S
C213 H229 0.930 . S
C214 C212 1.371 1_455 S
C214 C215 1.392 . S
C214 H230 0.931 1_554 S
C215 C214 1.392 . S
C215 C216 1.326 1_455 S
C215 H233 0.932 . S
C216 C215 1.326 1_655 S
C216 C217 1.341 . S
C217 C213 1.394 . S
C217 C216 1.341 . S
C217 H232 0.929 . S
C218 C208 1.386 . S
C218 C211 1.353 1_655 S
C218 H231 0.928 . S
H219 C195 0.931 . S
H220 C197 0.930 . S
H221 C199 0.929 . S
H222 C200 0.931 . S
H223 C202 0.930 . S
H224 C206 0.931 . S
H225 C204 0.933 1_556 S
H226 C208 0.931 . S
H227 C209 0.929 . S
H228 C210 0.930 . S
H229 C213 0.930 . S
H230 C214 0.931 1_556 S
H231 C218 0.928 . S
H232 C217 0.929 . S
H233 C215 0.932 . S
C234 C235 1.387 . S
C234 C236 1.397 . S
C234 H258 0.931 . S
C235 C234 1.387 . S
C235 C239 1.396 1_565 S
C236 C234 1.397 . S
C236 C237 1.382 . S
C236 H259 0.930 . S
C237 C236 1.382 . S
C237 C238 1.380 1_565 S
C237 C240 1.480 . S
C238 C237 1.380 1_545 S
C238 C239 1.389 . S
C238 H260 0.929 . S
C239 C235 1.396 1_545 S
C239 C238 1.389 . S
C239 H261 0.931 . S
C240 C237 1.480 . S
C240 C241 1.388 . S
C240 C245 1.390 . S
C241 C240 1.388 . S
C241 C242 1.402 . S
C241 H262 0.930 . S
C242 C241 1.402 . S
C242 C243 1.387 . S
C242 C251 1.512 . S
C243 C242 1.387 . S
C243 C244 1.389 1_564 S
C243 H264 0.925 1_554 S
C244 C243 1.389 1_546 S
C244 C245 1.361 1_546 S
C244 C246 1.499 . S
C245 C240 1.390 . S
C245 C244 1.361 1_564 S
C245 H263 0.931 . S
C246 C244 1.499 . S
C246 C247 1.357 1_545 S
C246 C248 1.380 . S
C247 C246 1.357 1_565 S
C247 C257 1.386 . S
C247 H265 0.931 . S
C248 C246 1.380 . S
C248 C249 1.409 . S
C248 H266 0.929 . S
C249 C248 1.409 . S
C249 C250 1.384 . S
C249 H267 0.930 . S
C250 C249 1.384 . S
C250 C257 1.353 1_545 S
C251 C242 1.512 . S
C251 C252 1.341 . S
C251 C253 1.371 1_565 S
C252 C251 1.341 . S
C252 C256 1.394 . S
C252 H268 0.930 . S
C253 C251 1.371 1_545 S
C253 C254 1.392 . S
C253 H269 0.931 1_554 S
C254 C253 1.392 . S
C254 C255 1.326 1_545 S
C254 H272 0.932 . S
C255 C254 1.326 1_565 S
C255 C256 1.341 . S
C256 C252 1.394 . S
C256 C255 1.341 . S
C256 H271 0.929 . S
C257 C247 1.386 . S
C257 C250 1.353 1_565 S
C257 H270 0.928 . S
H258 C234 0.931 . S
H259 C236 0.930 . S
H260 C238 0.929 . S
H261 C239 0.931 . S
H262 C241 0.930 . S
H263 C245 0.931 . S
H264 C243 0.925 1_556 S
H265 C247 0.931 . S
H266 C248 0.929 . S
H267 C249 0.930 . S
H268 C252 0.930 . S
H269 C253 0.931 1_556 S
H270 C257 0.928 . S
H271 C256 0.929 . S
H272 C254 0.932 . S
C273 C274 1.386 . S
C273 C275 1.397 . S
C273 H297 0.931 . S
C274 C273 1.386 . S
C274 C278 1.397 . S
C275 C273 1.397 . S
C275 C276 1.384 . S
C275 H298 0.930 . S
C276 C275 1.384 . S
C276 C277 1.377 . S
C276 C279 1.481 . S
C277 C276 1.377 . S
C277 C278 1.389 . S
C277 H299 0.929 . S
C278 C274 1.397 . S
C278 C277 1.389 . S
C278 H300 0.931 . S
C279 C276 1.481 . S
C279 C280 1.387 1_556 S
C279 C284 1.390 1_556 S
C280 C279 1.387 1_554 S
C280 C281 1.401 . S
C280 H301 0.930 1_554 S
C281 C280 1.401 . S
C281 C282 1.376 . S
C281 C290 1.511 . S
C282 C281 1.376 . S
C282 C283 1.392 . S
C282 H303 0.931 . S
C283 C282 1.392 . S
C283 C284 1.361 . S
C283 C285 1.500 . S
C284 C279 1.390 1_554 S
C284 C283 1.361 . S
C284 H302 0.931 . S
C285 C283 1.500 . S
C285 C286 1.371 . S
C285 C287 1.365 . S
C286 C285 1.371 . S
C286 C296 1.386 . S
C286 H304 0.931 . S
C287 C285 1.365 . S
C287 C288 1.409 . S
C287 H305 0.929 . S
C288 C287 1.409 . S
C288 C289 1.380 . S
C288 H306 0.930 . S
C289 C288 1.380 . S
C289 C296 1.357 . S
C290 C281 1.511 . S
C290 C291 1.341 . S
C290 C292 1.371 . S
C291 C290 1.341 . S
C291 C295 1.394 . S
C291 H307 0.930 1_554 S
C292 C290 1.371 . S
C292 C293 1.392 . S
C292 H308 0.931 . S
C293 C292 1.392 . S
C293 C294 1.331 . S
C293 H311 0.932 . S
C294 C293 1.331 . S
C294 C295 1.336 . S
C295 C291 1.394 . S
C295 C294 1.336 . S
C295 H310 0.929 . S
C296 C286 1.386 . S
C296 C289 1.357 . S
C296 H309 0.928 . S
H297 C273 0.931 . S
H298 C275 0.930 . S
H299 C277 0.929 . S
H300 C278 0.931 . S
H301 C280 0.930 1_556 S
H302 C284 0.931 . S
H303 C282 0.931 . S
H304 C286 0.931 . S
H305 C287 0.929 . S
H306 C288 0.930 . S
H307 C291 0.930 1_556 S
H308 C292 0.931 . S
H309 C296 0.928 . S
H310 C295 0.929 . S
H311 C293 0.932 . S
C312 Eu313 2.835 . S
C312 C314 1.500 . S
C312 O332 1.257 . S
C312 O333 1.260 . S
Eu313 C312 2.835 . S
Eu313 O332 2.473 . S
Eu313 O333 2.480 . S
Eu313 O334 2.430 . S
Eu313 O335 2.670 1_545 S
Eu313 O336 2.394 . S
Eu313 O341 2.355 1_655 S
Eu313 O343 2.374 1_545 S
C314 C312 1.500 . S
C314 C315 1.377 . S
C314 C319 1.377 . S
C315 C314 1.377 . S
C315 C316 1.395 . S
C315 H344 0.931 . S
C316 C315 1.395 . S
C316 C317 1.383 . S
C316 H345 0.931 . S
C317 C316 1.383 . S
C317 C318 1.394 . S
C318 C317 1.394 . S
C318 C319 1.378 . S
C318 H346 0.931 1_655 S
C319 C314 1.377 . S
C319 C318 1.378 . S
C319 H347 0.931 1_655 S
C320 O334 1.286 . S
C320 O335 1.251 1_545 S
C321 O336 1.251 1_455 S
C321 O337 1.251 . S
C322 Eu323 2.835 . S
C322 C324 1.500 . S
C322 O338 1.257 . S
C322 O339 1.260 . S
Eu323 C322 2.835 . S
Eu323 O335 2.355 1_455 S
Eu323 O337 2.374 1_565 S
Eu323 O338 2.473 . S
Eu323 O339 2.480 . S
Eu323 O340 2.430 . S
Eu323 O341 2.670 1_565 S
Eu323 O342 2.394 . S
C324 C322 1.500 . S
C324 C325 1.377 . S
C324 C329 1.377 . S
C325 C324 1.377 . S
C325 C326 1.395 . S
C325 H348 0.931 . S
C326 C325 1.395 . S
C326 C327 1.383 . S
C326 H349 0.931 . S
C327 C326 1.383 . S
C327 C328 1.394 . S
C328 C327 1.394 . S
C328 C329 1.378 . S
C328 H350 0.931 1_455 S
C329 C324 1.377 . S
C329 C328 1.378 . S
C329 H351 0.931 1_455 S
C330 O340 1.280 . S
C330 O341 1.255 1_565 S
C331 O342 1.251 1_655 S
C331 O343 1.251 . S
O332 C312 1.257 . S
O332 Eu313 2.473 . S
O333 C312 1.260 . S
O333 Eu313 2.480 . S
O334 Eu313 2.430 . S
O334 C320 1.286 . S
O335 Eu313 2.670 1_565 S
O335 C320 1.251 1_565 S
O335 Eu323 2.355 1_655 S
O336 Eu313 2.394 . S
O336 C321 1.251 1_655 S
O337 C321 1.251 . S
O337 Eu323 2.374 1_545 S
O338 C322 1.257 . S
O338 Eu323 2.473 . S
O339 C322 1.260 . S
O339 Eu323 2.480 . S
O340 Eu323 2.430 . S
O340 C330 1.280 . S
O341 Eu313 2.355 1_455 S
O341 Eu323 2.670 1_545 S
O341 C330 1.255 1_545 S
O342 Eu323 2.394 . S
O342 C331 1.251 1_455 S
O343 Eu313 2.374 1_565 S
O343 C331 1.251 . S
H344 C315 0.931 . S
H345 C316 0.931 . S
H346 C318 0.931 1_455 S
H347 C319 0.931 1_455 S
H348 C325 0.931 . S
H349 C326 0.931 . S
H350 C328 0.931 1_655 S
H351 C329 0.931 1_655 S
C352 Eu353 2.835 . S
C352 C354 1.500 . S
C352 O372 1.257 . S
C352 O373 1.260 . S
Eu353 C352 2.835 . S
Eu353 O372 2.473 . S
Eu353 O373 2.480 . S
Eu353 O374 2.430 . S
Eu353 O375 2.670 . S
Eu353 O376 2.394 . S
Eu353 O381 2.355 1_565 S
Eu353 O383 2.374 . S
C354 C352 1.500 . S
C354 C355 1.377 . S
C354 C359 1.377 . S
C355 C354 1.377 . S
C355 C356 1.395 . S
C355 H384 0.931 . S
C356 C355 1.395 . S
C356 C357 1.383 . S
C356 H385 0.931 . S
C357 C356 1.383 . S
C357 C358 1.394 . S
C358 C357 1.394 . S
C358 C359 1.378 . S
C358 H386 0.931 1_565 S
C359 C354 1.377 . S
C359 C358 1.378 . S
C359 H387 0.931 1_565 S
C360 O374 1.259 . S
C360 O375 1.270 . S
C361 O376 1.251 1_545 S
C361 O377 1.251 . S
C362 Eu363 2.835 . S
C362 C364 1.500 . S
C362 O378 1.257 . S
C362 O379 1.260 . S
Eu363 C362 2.835 . S
Eu363 O375 2.355 1_545 S
Eu363 O377 2.374 . S
Eu363 O378 2.473 . S
Eu363 O379 2.480 . S
Eu363 O380 2.430 . S
Eu363 O381 2.670 . S
Eu363 O382 2.394 . S
C364 C362 1.500 . S
C364 C365 1.377 . S
C364 C369 1.377 . S
C365 C364 1.377 . S
C365 C366 1.395 . S
C365 H388 0.931 . S
C366 C365 1.395 . S
C366 C367 1.383 . S
C366 H389 0.931 . S
C367 C366 1.383 . S
C367 C368 1.394 . S
C368 C367 1.394 . S
C368 C369 1.378 . S
C368 H390 0.931 1_545 S
C369 C364 1.377 . S
C369 C368 1.378 . S
C369 H391 0.931 1_545 S
C370 O380 1.259 . S
C370 O381 1.270 . S
C371 O382 1.251 1_565 S
C371 O383 1.251 . S
O372 C352 1.257 . S
O372 Eu353 2.473 . S
O373 C352 1.260 . S
O373 Eu353 2.480 . S
O374 Eu353 2.430 . S
O374 C360 1.259 . S
O375 Eu353 2.670 . S
O375 C360 1.270 . S
O375 Eu363 2.355 1_565 S
O376 Eu353 2.394 . S
O376 C361 1.251 1_565 S
O377 C361 1.251 . S
O377 Eu363 2.374 . S
O378 C362 1.257 . S
O378 Eu363 2.473 . S
O379 C362 1.260 . S
O379 Eu363 2.480 . S
O380 Eu363 2.430 . S
O380 C370 1.259 . S
O381 Eu353 2.355 1_545 S
O381 Eu363 2.670 . S
O381 C370 1.270 . S
O382 Eu363 2.394 . S
O382 C371 1.251 1_545 S
O383 Eu353 2.374 . S
O383 C371 1.251 . S
H384 C355 0.931 . S
H385 C356 0.931 . S
H386 C358 0.931 1_545 S
H387 C359 0.931 1_545 S
H388 C365 0.931 . S
H389 C366 0.931 . S
H390 C368 0.931 1_565 S
H391 C369 0.931 1_565 S
C392 Eu393 2.835 . S
C392 C394 1.500 . S
C392 O412 1.257 . S
C392 O413 1.260 . S
Eu393 C392 2.835 . S
Eu393 O412 2.473 . S
Eu393 O413 2.480 . S
Eu393 O414 2.430 . S
Eu393 O415 2.670 . S
Eu393 O416 2.394 . S
Eu393 O421 2.355 . S
Eu393 O423 2.374 . S
C394 C392 1.500 . S
C394 C395 1.377 . S
C394 C399 1.377 . S
C395 C394 1.377 . S
C395 C396 1.395 . S
C395 H424 0.931 . S
C396 C395 1.395 . S
C396 C397 1.383 . S
C396 H425 0.931 . S
C397 C396 1.383 . S
C397 C398 1.394 . S
C398 C397 1.394 . S
C398 C399 1.378 . S
C398 H426 0.931 . S
C399 C394 1.377 . S
C399 C398 1.378 . S
C399 H427 0.931 . S
C400 O414 1.259 . S
C400 O415 1.270 . S
C401 O416 1.251 . S
C401 O417 1.251 . S
C402 Eu403 2.835 . S
C402 C404 1.500 . S
C402 O418 1.257 . S
C402 O419 1.260 . S
Eu403 C402 2.835 . S
Eu403 O415 2.355 . S
Eu403 O417 2.374 . S
Eu403 O418 2.473 . S
Eu403 O419 2.480 . S
Eu403 O420 2.430 . S
Eu403 O421 2.670 . S
Eu403 O422 2.394 . S
C404 C402 1.500 . S
C404 C405 1.377 . S
C404 C409 1.377 . S
C405 C404 1.377 . S
C405 C406 1.395 . S
C405 H428 0.931 . S
C406 C405 1.395 . S
C406 C407 1.383 . S
C406 H429 0.931 . S
C407 C406 1.383 . S
C407 C408 1.394 . S
C408 C407 1.394 . S
C408 C409 1.378 . S
C408 H430 0.931 . S
C409 C404 1.377 . S
C409 C408 1.378 . S
C409 H431 0.931 . S
C410 O420 1.259 . S
C410 O421 1.270 . S
C411 O422 1.251 . S
C411 O423 1.251 . S
O412 C392 1.257 . S
O412 Eu393 2.473 . S
O413 C392 1.260 . S
O413 Eu393 2.480 . S
O414 Eu393 2.430 . S
O414 C400 1.259 . S
O415 Eu393 2.670 . S
O415 C400 1.270 . S
O415 Eu403 2.355 . S
O416 Eu393 2.394 . S
O416 C401 1.251 . S
O417 C401 1.251 . S
O417 Eu403 2.374 . S
O418 C402 1.257 . S
O418 Eu403 2.473 . S
O419 C402 1.260 . S
O419 Eu403 2.480 . S
O420 Eu403 2.430 . S
O420 C410 1.259 . S
O421 Eu393 2.355 . S
O421 Eu403 2.670 . S
O421 C410 1.270 . S
O422 Eu403 2.394 . S
O422 C411 1.251 . S
O423 Eu393 2.374 . S
O423 C411 1.251 . S
H424 C395 0.931 . S
H425 C396 0.931 . S
H426 C398 0.931 . S
H427 C399 0.931 . S
H428 C405 0.931 . S
H429 C406 0.931 . S
H430 C408 0.931 . S
H431 C409 0.931 . S
C432 Eu433 2.835 . S
C432 C434 1.500 . S
C432 O452 1.257 . S
C432 O453 1.260 . S
Eu433 C432 2.835 . S
Eu433 O452 2.473 . S
Eu433 O453 2.480 . S
Eu433 O454 2.430 . S
Eu433 O455 2.670 1_455 S
Eu433 O456 2.394 . S
Eu433 O461 2.355 . S
Eu433 O463 2.374 1_455 S
C434 C432 1.500 . S
C434 C435 1.377 . S
C434 C439 1.377 . S
C435 C434 1.377 . S
C435 C436 1.395 . S
C435 H464 0.931 . S
C436 C435 1.395 . S
C436 C437 1.383 . S
C436 H465 0.931 . S
C437 C436 1.383 . S
C437 C438 1.394 . S
C438 C437 1.394 . S
C438 C439 1.378 . S
C438 H466 0.931 . S
C439 C434 1.377 . S
C439 C438 1.378 . S
C439 H467 0.931 . S
C440 O454 1.268 . S
C440 O455 1.264 1_455 S
C441 O456 1.251 . S
C441 O457 1.251 . S
C442 Eu443 2.835 . S
C442 C444 1.500 . S
C442 O458 1.257 . S
C442 O459 1.260 . S
Eu443 C442 2.835 . S
Eu443 O455 2.355 . S
Eu443 O457 2.374 1_655 S
Eu443 O458 2.473 . S
Eu443 O459 2.480 . S
Eu443 O460 2.430 . S
Eu443 O461 2.670 1_655 S
Eu443 O462 2.394 . S
C444 C442 1.500 . S
C444 C445 1.377 . S
C444 C449 1.377 . S
C445 C444 1.377 . S
C445 C446 1.395 . S
C445 H468 0.931 . S
C446 C445 1.395 . S
C446 C447 1.383 . S
C446 H469 0.931 . S
C447 C446 1.383 . S
C447 C448 1.394 . S
C448 C447 1.394 . S
C448 C449 1.378 . S
C448 H470 0.931 . S
C449 C444 1.377 . S
C449 C448 1.378 . S
C449 H471 0.931 . S
C450 O460 1.262 . S
C450 O461 1.268 1_655 S
C451 O462 1.251 . S
C451 O463 1.251 . S
O452 C432 1.257 . S
O452 Eu433 2.473 . S
O453 C432 1.260 . S
O453 Eu433 2.480 . S
O454 Eu433 2.430 . S
O454 C440 1.268 . S
O455 Eu433 2.670 1_655 S
O455 C440 1.264 1_655 S
O455 Eu443 2.355 . S
O456 Eu433 2.394 . S
O456 C441 1.251 . S
O457 C441 1.251 . S
O457 Eu443 2.374 1_455 S
O458 C442 1.257 . S
O458 Eu443 2.473 . S
O459 C442 1.260 . S
O459 Eu443 2.480 . S
O460 Eu443 2.430 . S
O460 C450 1.262 . S
O461 Eu433 2.355 . S
O461 Eu443 2.670 1_455 S
O461 C450 1.268 1_455 S
O462 Eu443 2.394 . S
O462 C451 1.251 . S
O463 Eu433 2.374 1_655 S
O463 C451 1.251 . S
H464 C435 0.931 . S
H465 C436 0.931 . S
H466 C438 0.931 . S
H467 C439 0.931 . S
H468 C445 0.931 . S
H469 C446 0.931 . S
H470 C448 0.931 . S
H471 C449 0.931 . S
C472 C473 1.427 . S
C472 C474 1.394 . S
C472 H488 0.931 . S
C473 C472 1.427 . S
C473 C477 1.343 1_565 S
C474 C472 1.394 . S
C474 C475 1.369 . S
C474 C478 1.531 . S
C475 C474 1.369 . S
C475 C476 1.410 1_565 S
C475 C483 1.503 . S
C476 C475 1.410 1_545 S
C476 C477 1.392 . S
C476 C479 1.511 . S
C477 C473 1.343 1_545 S
C477 C476 1.392 . S
C477 H489 0.929 . S
C478 C474 1.531 . S
C478 H490 0.960 . S
C478 H491 0.962 . S
C478 H492 0.960 . S
C479 C476 1.511 . S
C479 H493 0.961 . S
C479 H494 0.961 . S
C479 H495 0.961 . S
C480 C481 1.372 . S
C480 C482 1.363 . S
C480 H496 0.931 . S
C481 C480 1.372 . S
C481 C485 1.407 1_545 S
C482 C480 1.363 . S
C482 C483 1.370 1_545 S
C482 C486 1.524 . S
C483 C475 1.503 . S
C483 C482 1.370 1_565 S
C483 C484 1.403 . S
C484 C483 1.403 . S
C484 C485 1.404 . S
C484 C487 1.539 . S
C485 C481 1.407 1_565 S
C485 C484 1.404 . S
C485 H497 0.930 . S
C486 C482 1.524 . S
C486 H498 0.956 . S
C486 H499 0.961 . S
C486 H500 0.961 . S
C487 C484 1.539 . S
C487 H501 0.958 . S
C487 H502 0.961 . S
C487 H503 0.960 . S
H488 C472 0.931 . S
H489 C477 0.929 . S
H490 C478 0.960 . S
H491 C478 0.962 . S
H492 C478 0.960 . S
H493 C479 0.961 . S
H494 C479 0.961 . S
H495 C479 0.961 . S
H496 C480 0.931 . S
H497 C485 0.930 . S
H498 C486 0.956 . S
H499 C486 0.961 . S
H500 C486 0.961 . S
H501 C487 0.958 . S
H502 C487 0.961 . S
H503 C487 0.960 . S
C504 C505 1.391 . S
C504 C506 1.394 . S
C504 H520 0.931 . S
C505 C504 1.391 . S
C505 C509 1.376 . S
C506 C504 1.394 . S
C506 C507 1.369 . S
C506 C510 1.531 . S
C507 C506 1.369 . S
C507 C508 1.410 . S
C507 C515 1.503 . S
C508 C507 1.410 . S
C508 C509 1.392 . S
C508 C511 1.511 . S
C509 C505 1.376 . S
C509 C508 1.392 . S
C509 H521 0.929 . S
C510 C506 1.531 . S
C510 H522 0.960 . S
C510 H523 0.962 . S
C510 H524 0.960 . S
C511 C508 1.511 . S
C511 H525 0.961 . S
C511 H526 0.961 . S
C511 H527 0.961 . S
C512 C513 1.370 . S
C512 C514 1.363 . S
C512 H528 0.931 . S
C513 C512 1.370 . S
C513 C517 1.408 . S
C514 C512 1.363 . S
C514 C515 1.370 . S
C514 C518 1.524 . S
C515 C507 1.503 . S
C515 C514 1.370 . S
C515 C516 1.403 . S
C516 C515 1.403 . S
C516 C517 1.404 . S
C516 C519 1.539 . S
C517 C513 1.408 . S
C517 C516 1.404 . S
C517 H529 0.930 . S
C518 C514 1.524 . S
C518 H530 0.956 . S
C518 H531 0.961 . S
C518 H532 0.961 . S
C519 C516 1.539 . S
C519 H533 0.958 . S
C519 H534 0.961 . S
C519 H535 0.960 . S
H520 C504 0.931 . S
H521 C509 0.929 . S
H522 C510 0.960 . S
H523 C510 0.962 . S
H524 C510 0.960 . S
H525 C511 0.961 . S
H526 C511 0.961 . S
H527 C511 0.961 . S
H528 C512 0.931 . S
H529 C517 0.930 . S
H530 C518 0.956 . S
H531 C518 0.961 . S
H532 C518 0.961 . S
H533 C519 0.958 . S
H534 C519 0.961 . S
H535 C519 0.960 . S
C536 C537 1.391 . S
C536 C538 1.394 . S
C536 H552 0.931 . S
C537 C536 1.391 . S
C537 C541 1.376 . S
C538 C536 1.394 . S
C538 C539 1.369 . S
C538 C542 1.531 . S
C539 C538 1.369 . S
C539 C540 1.410 . S
C539 C547 1.503 . S
C540 C539 1.410 . S
C540 C541 1.392 . S
C540 C543 1.511 . S
C541 C537 1.376 . S
C541 C540 1.392 . S
C541 H553 0.929 . S
C542 C538 1.531 . S
C542 H554 0.960 . S
C542 H555 0.962 . S
C542 H556 0.960 . S
C543 C540 1.511 . S
C543 H557 0.961 . S
C543 H558 0.961 . S
C543 H559 0.961 . S
C544 C545 1.370 . S
C544 C546 1.363 . S
C544 H560 0.931 . S
C545 C544 1.370 . S
C545 C549 1.408 . S
C546 C544 1.363 . S
C546 C547 1.370 . S
C546 C550 1.524 . S
C547 C539 1.503 . S
C547 C546 1.370 . S
C547 C548 1.403 . S
C548 C547 1.403 . S
C548 C549 1.404 . S
C548 C551 1.539 . S
C549 C545 1.408 . S
C549 C548 1.404 . S
C549 H561 0.930 . S
C550 C546 1.524 . S
C550 H562 0.956 . S
C550 H563 0.961 . S
C550 H564 0.961 . S
C551 C548 1.539 . S
C551 H565 0.958 . S
C551 H566 0.961 . S
C551 H567 0.960 . S
H552 C536 0.931 . S
H553 C541 0.929 . S
H554 C542 0.960 . S
H555 C542 0.962 . S
H556 C542 0.960 . S
H557 C543 0.961 . S
H558 C543 0.961 . S
H559 C543 0.961 . S
H560 C544 0.931 . S
H561 C549 0.930 . S
H562 C550 0.956 . S
H563 C550 0.961 . S
H564 C550 0.961 . S
H565 C551 0.958 . S
H566 C551 0.961 . S
H567 C551 0.960 . S
C568 C569 1.388 1_455 S
C568 C570 1.394 . S
C568 H584 0.931 . S
C569 C568 1.388 1_655 S
C569 C573 1.379 . S
C570 C568 1.394 . S
C570 C571 1.363 1_455 S
C570 C574 1.531 . S
C571 C570 1.363 1_655 S
C571 C572 1.416 . S
C571 C579 1.503 1_655 S
C572 C571 1.416 . S
C572 C573 1.392 . S
C572 C575 1.511 . S
C573 C569 1.379 . S
C573 C572 1.392 . S
C573 H585 0.929 . S
C574 C570 1.531 . S
C574 H586 0.960 . S
C574 H587 0.962 . S
C574 H588 0.960 . S
C575 C572 1.511 . S
C575 H589 0.961 . S
C575 H590 0.961 . S
C575 H591 0.961 . S
C576 C577 1.378 . S
C576 C578 1.363 . S
C576 H592 0.931 . S
C577 C576 1.378 . S
C577 C581 1.402 1_455 S
C578 C576 1.363 . S
C578 C579 1.370 . S
C578 C582 1.524 . S
C579 C571 1.503 1_455 S
C579 C578 1.370 . S
C579 C580 1.403 1_455 S
C580 C579 1.403 1_655 S
C580 C581 1.404 . S
C580 C583 1.539 . S
C581 C577 1.402 1_655 S
C581 C580 1.404 . S
C581 H593 0.930 . S
C582 C578 1.524 . S
C582 H594 0.956 . S
C582 H595 0.961 1_455 S
C582 H596 0.961 . S
C583 C580 1.539 . S
C583 H597 0.958 1_655 S
C583 H598 0.961 . S
C583 H599 0.960 . S
H584 C568 0.931 . S
H585 C573 0.929 . S
H586 C574 0.960 . S
H587 C574 0.962 . S
H588 C574 0.960 . S
H589 C575 0.961 . S
H590 C575 0.961 . S
H591 C575 0.961 . S
H592 C576 0.931 . S
H593 C581 0.930 . S
H594 C582 0.956 . S
H595 C582 0.961 1_655 S
H596 C582 0.961 . S
H597 C583 0.958 1_455 S
H598 C583 0.961 . S
H599 C583 0.960 . S
C600 C601 1.391 . S
C600 C602 1.394 . S
C600 H616 0.931 . S
C601 C600 1.391 . S
C601 C605 1.376 1_565 S
C602 C600 1.394 . S
C602 C603 1.369 . S
C602 C606 1.531 . S
C603 C602 1.369 . S
C603 C604 1.410 1_565 S
C603 C611 1.503 1_554 S
C604 C603 1.410 1_545 S
C604 C605 1.392 . S
C604 C607 1.511 . S
C605 C601 1.376 1_545 S
C605 C604 1.392 . S
C605 H617 0.929 . S
C606 C602 1.531 . S
C606 H618 0.960 . S
C606 H619 0.962 . S
C606 H620 0.960 . S
C607 C604 1.511 . S
C607 H621 0.961 . S
C607 H622 0.961 1_554 S
C607 H623 0.962 1_554 S
C608 C609 1.333 1_545 S
C608 C610 1.363 . S
C608 H624 0.931 . S
C609 C608 1.333 1_565 S
C609 C613 1.451 . S
C610 C608 1.363 . S
C610 C611 1.370 1_545 S
C610 C614 1.524 1_556 S
C611 C603 1.503 1_556 S
C611 C610 1.370 1_565 S
C611 C612 1.403 . S
C612 C611 1.403 . S
C612 C613 1.404 . S
C612 C615 1.539 . S
C613 C609 1.451 . S
C613 C612 1.404 . S
C613 H625 0.930 . S
C614 C610 1.524 1_554 S
C614 H626 0.956 . S
C614 H627 0.961 . S
C614 H628 0.961 1_554 S
C615 C612 1.539 . S
C615 H629 0.958 . S
C615 H630 0.961 . S
C615 H631 0.960 . S
H616 C600 0.931 . S
H617 C605 0.929 . S
H618 C606 0.960 . S
H619 C606 0.962 . S
H620 C606 0.960 . S
H621 C607 0.961 . S
H622 C607 0.961 1_556 S
H623 C607 0.962 1_556 S
H624 C608 0.931 . S
H625 C613 0.930 . S
H626 C614 0.956 . S
H627 C614 0.961 . S
H628 C614 0.961 1_556 S
H629 C615 0.958 . S
H630 C615 0.961 . S
H631 C615 0.960 . S
C632 C633 1.391 . S
C632 C634 1.394 . S
C632 H648 0.931 . S
C633 C632 1.391 . S
C633 C637 1.376 . S
C634 C632 1.394 . S
C634 C635 1.369 . S
C634 C638 1.531 . S
C635 C634 1.369 . S
C635 C636 1.410 . S
C635 C643 1.503 1_554 S
C636 C635 1.410 . S
C636 C637 1.392 . S
C636 C639 1.511 . S
C637 C633 1.376 . S
C637 C636 1.392 . S
C637 H649 0.929 . S
C638 C634 1.531 . S
C638 H650 0.960 . S
C638 H651 0.962 . S
C638 H652 0.960 . S
C639 C636 1.511 . S
C639 H653 0.961 . S
C639 H654 0.961 1_554 S
C639 H655 0.961 1_554 S
C640 C641 1.370 . S
C640 C642 1.363 . S
C640 H656 0.931 . S
C641 C640 1.370 . S
C641 C645 1.408 . S
C642 C640 1.363 . S
C642 C643 1.370 . S
C642 C646 1.524 1_556 S
C643 C635 1.503 1_556 S
C643 C642 1.370 . S
C643 C644 1.403 . S
C644 C643 1.403 . S
C644 C645 1.404 . S
C644 C647 1.539 . S
C645 C641 1.408 . S
C645 C644 1.404 . S
C645 H657 0.930 . S
C646 C642 1.524 1_554 S
C646 H658 0.956 . S
C646 H659 0.961 . S
C646 H660 0.961 1_554 S
C647 C644 1.539 . S
C647 H661 0.958 . S
C647 H662 0.961 . S
C647 H663 0.949 1_556 S
H648 C632 0.931 . S
H649 C637 0.929 . S
H650 C638 0.960 . S
H651 C638 0.962 . S
H652 C638 0.960 . S
H653 C639 0.961 . S
H654 C639 0.961 1_556 S
H655 C639 0.961 1_556 S
H656 C640 0.931 . S
H657 C645 0.930 . S
H658 C646 0.956 . S
H659 C646 0.961 . S
H660 C646 0.961 1_556 S
H661 C647 0.958 . S
H662 C647 0.961 . S
H663 C647 0.949 1_554 S
C664 C665 1.391 . S
C664 C666 1.394 . S
C664 H680 0.931 . S
C665 C664 1.391 . S
C665 C669 1.376 . S
C666 C664 1.394 . S
C666 C667 1.369 . S
C666 C670 1.531 . S
C667 C666 1.369 . S
C667 C668 1.410 . S
C667 C675 1.503 1_554 S
C668 C667 1.410 . S
C668 C669 1.392 . S
C668 C671 1.511 . S
C669 C665 1.376 . S
C669 C668 1.392 . S
C669 H681 0.929 . S
C670 C666 1.531 . S
C670 H682 0.960 1_554 S
C670 H683 0.962 . S
C670 H684 0.960 . S
C671 C668 1.511 . S
C671 H685 0.961 . S
C671 H686 0.961 . S
C671 H687 0.961 . S
C672 C673 1.370 . S
C672 C674 1.363 . S
C672 H688 0.931 . S
C673 C672 1.370 . S
C673 C677 1.408 . S
C674 C672 1.363 . S
C674 C675 1.370 . S
C674 C678 1.524 1_556 S
C675 C667 1.503 1_556 S
C675 C674 1.370 . S
C675 C676 1.403 . S
C676 C675 1.403 . S
C676 C677 1.404 . S
C676 C679 1.539 . S
C677 C673 1.408 . S
C677 C676 1.404 . S
C677 H689 0.930 . S
C678 C674 1.524 1_554 S
C678 H690 0.956 . S
C678 H691 0.961 . S
C678 H692 0.961 . S
C679 C676 1.539 . S
C679 H693 0.958 . S
C679 H694 0.961 . S
C679 H695 0.960 . S
H680 C664 0.931 . S
H681 C669 0.929 . S
H682 C670 0.960 1_556 S
H683 C670 0.962 . S
H684 C670 0.960 . S
H685 C671 0.961 . S
H686 C671 0.961 . S
H687 C671 0.961 . S
H688 C672 0.931 . S
H689 C677 0.930 . S
H690 C678 0.956 . S
H691 C678 0.961 . S
H692 C678 0.961 . S
H693 C679 0.958 . S
H694 C679 0.961 . S
H695 C679 0.960 . S
C696 C697 1.391 1_455 S
C696 C698 1.394 . S
C696 H712 0.931 . S
C697 C696 1.391 1_655 S
C697 C701 1.376 . S
C698 C696 1.394 . S
C698 C699 1.369 1_455 S
C698 C702 1.531 . S
C699 C698 1.369 1_655 S
C699 C700 1.410 . S
C699 C707 1.503 1_554 S
C700 C699 1.410 . S
C700 C701 1.392 . S
C700 C703 1.511 . S
C701 C697 1.376 . S
C701 C700 1.392 . S
C701 H713 0.929 . S
C702 C698 1.531 . S
C702 H714 0.960 . S
C702 H715 0.962 . S
C702 H716 0.960 . S
C703 C700 1.511 . S
C703 H717 0.961 . S
C703 H718 0.961 1_554 S
C703 H719 0.961 . S
C704 C705 1.370 1_455 S
C704 C706 1.363 . S
C704 H720 0.931 . S
C705 C704 1.370 1_655 S
C705 C709 1.408 . S
C706 C704 1.363 . S
C706 C707 1.370 1_455 S
C706 C710 1.524 . S
C707 C699 1.503 1_556 S
C707 C706 1.370 1_655 S
C707 C708 1.403 . S
C708 C707 1.403 . S
C708 C709 1.404 . S
C708 C711 1.539 1_556 S
C709 C705 1.408 . S
C709 C708 1.404 . S
C709 H721 0.930 . S
C710 C706 1.524 . S
C710 H722 0.956 . S
C710 H723 0.961 . S
C710 H724 0.961 . S
C711 C708 1.539 1_554 S
C711 H725 0.958 . S
C711 H726 0.961 1_554 S
C711 H727 0.960 . S
H712 C696 0.931 . S
H713 C701 0.929 . S
H714 C702 0.960 . S
H715 C702 0.962 . S
H716 C702 0.960 . S
H717 C703 0.961 . S
H718 C703 0.961 1_556 S
H719 C703 0.961 . S
H720 C704 0.931 . S
H721 C709 0.930 . S
H722 C710 0.956 . S
H723 C710 0.961 . S
H724 C710 0.961 . S
H725 C711 0.958 . S
H726 C711 0.961 1_556 S
H727 C711 0.960 . S
C728 C729 1.391 . S
C728 C730 1.394 . S
C728 H744 0.931 . S
C729 C728 1.391 . S
C729 C733 1.376 1_455 S
C730 C728 1.394 . S
C730 C731 1.369 1_455 S
C730 C734 1.531 . S
C731 C730 1.369 1_655 S
C731 C732 1.410 . S
C731 C739 1.503 . S
C732 C731 1.410 . S
C732 C733 1.392 . S
C732 C735 1.511 . S
C733 C729 1.376 1_655 S
C733 C732 1.392 . S
C733 H745 0.929 . S
C734 C730 1.531 . S
C734 H746 0.960 . S
C734 H747 0.962 . S
C734 H748 0.960 . S
C735 C732 1.511 . S
C735 H749 0.961 . S
C735 H750 0.961 . S
C735 H751 0.961 . S
C736 C737 1.370 . S
C736 C738 1.363 . S
C736 H752 0.931 . S
C737 C736 1.370 . S
C737 C741 1.408 . S
C738 C736 1.363 . S
C738 C739 1.370 . S
C738 C742 1.527 . S
C739 C731 1.503 . S
C739 C738 1.370 . S
C739 C740 1.403 . S
C740 C739 1.403 . S
C740 C741 1.404 . S
C740 C743 1.539 . S
C741 C737 1.408 . S
C741 C740 1.404 . S
C741 H753 0.930 . S
C742 C738 1.527 . S
C742 H754 0.951 1_655 S
C742 H755 0.963 . S
C742 H756 0.960 1_655 S
C743 C740 1.539 . S
C743 H757 0.958 . S
C743 H758 0.961 . S
C743 H759 0.960 . S
H744 C728 0.931 . S
H745 C733 0.929 . S
H746 C734 0.960 . S
H747 C734 0.962 . S
H748 C734 0.960 . S
H749 C735 0.961 . S
H750 C735 0.961 . S
H751 C735 0.961 . S
H752 C736 0.931 . S
H753 C741 0.930 . S
H754 C742 0.951 1_455 S
H755 C742 0.963 . S
H756 C742 0.960 1_455 S
H757 C743 0.958 . S
H758 C743 0.961 . S
H759 C743 0.960 . S
C760 C761 1.379 1_565 S
C760 C762 1.394 . S
C760 H776 0.931 . S
C761 C760 1.379 1_545 S
C761 C765 1.378 . S
C762 C760 1.394 . S
C762 C763 1.369 . S
C762 C766 1.531 . S
C763 C762 1.369 . S
C763 C764 1.410 . S
C763 C771 1.503 . S
C764 C763 1.410 . S
C764 C765 1.392 1_565 S
C764 C767 1.511 . S
C765 C761 1.378 . S
C765 C764 1.392 1_545 S
C765 H777 0.929 . S
C766 C762 1.531 . S
C766 H778 0.960 . S
C766 H779 0.962 . S
C766 H780 0.960 . S
C767 C764 1.511 . S
C767 H781 0.961 1_565 S
C767 H782 0.961 . S
C767 H783 0.961 . S
C768 C769 1.370 . S
C768 C770 1.363 . S
C768 H784 0.931 . S
C769 C768 1.370 . S
C769 C773 1.408 . S
C770 C768 1.363 . S
C770 C771 1.370 . S
C770 C774 1.524 1_565 S
C771 C763 1.503 . S
C771 C770 1.370 . S
C771 C772 1.403 . S
C772 C771 1.403 . S
C772 C773 1.404 . S
C772 C775 1.539 . S
C773 C769 1.408 . S
C773 C772 1.404 . S
C773 H785 0.930 . S
C774 C770 1.524 1_545 S
C774 H786 0.956 . S
C774 H787 0.961 . S
C774 H788 0.961 . S
C775 C772 1.539 . S
C775 H789 0.958 . S
C775 H790 0.961 . S
C775 H791 0.960 . S
H776 C760 0.931 . S
H777 C765 0.929 . S
H778 C766 0.960 . S
H779 C766 0.962 . S
H780 C766 0.960 . S
H781 C767 0.961 1_545 S
H782 C767 0.961 . S
H783 C767 0.961 . S
H784 C768 0.931 . S
H785 C773 0.930 . S
H786 C774 0.956 . S
H787 C774 0.961 . S
H788 C774 0.961 . S
H789 C775 0.958 . S
H790 C775 0.961 . S
H791 C775 0.960 . S
C792 C793 1.391 . S
C792 C794 1.394 . S
C792 H808 0.931 . S
C793 C792 1.391 . S
C793 C797 1.376 . S
C794 C792 1.394 . S
C794 C795 1.369 . S
C794 C798 1.531 . S
C795 C794 1.369 . S
C795 C796 1.410 . S
C795 C803 1.503 . S
C796 C795 1.410 . S
C796 C797 1.392 . S
C796 C799 1.511 . S
C797 C793 1.376 . S
C797 C796 1.392 . S
C797 H809 0.929 . S
C798 C794 1.531 . S
C798 H810 0.960 . S
C798 H811 0.962 . S
C798 H812 0.960 . S
C799 C796 1.511 . S
C799 H813 0.961 . S
C799 H814 0.961 . S
C799 H815 0.961 . S
C800 C801 1.370 . S
C800 C802 1.363 . S
C800 H816 0.931 . S
C801 C800 1.370 . S
C801 C805 1.408 . S
C802 C800 1.363 . S
C802 C803 1.370 . S
C802 C806 1.524 . S
C803 C795 1.503 . S
C803 C802 1.370 . S
C803 C804 1.403 . S
C804 C803 1.403 . S
C804 C805 1.404 . S
C804 C807 1.539 . S
C805 C801 1.408 . S
C805 C804 1.404 . S
C805 H817 0.930 . S
C806 C802 1.524 . S
C806 H818 0.956 . S
C806 H819 0.961 . S
C806 H820 0.961 . S
C807 C804 1.539 . S
C807 H821 0.958 . S
C807 H822 0.961 . S
C807 H823 0.960 . S
H808 C792 0.931 . S
H809 C797 0.929 . S
H810 C798 0.960 . S
H811 C798 0.962 . S
H812 C798 0.960 . S
H813 C799 0.961 . S
H814 C799 0.961 . S
H815 C799 0.961 . S
H816 C800 0.931 . S
H817 C805 0.930 . S
H818 C806 0.956 . S
H819 C806 0.961 . S
H820 C806 0.961 . S
H821 C807 0.958 . S
H822 C807 0.961 . S
H823 C807 0.960 . S
C824 C825 1.391 . S
C824 C826 1.394 . S
C824 H840 0.931 . S
C825 C824 1.391 . S
C825 C829 1.376 . S
C826 C824 1.394 . S
C826 C827 1.369 . S
C826 C830 1.531 . S
C827 C826 1.369 . S
C827 C828 1.410 . S
C827 C835 1.503 . S
C828 C827 1.410 . S
C828 C829 1.392 . S
C828 C831 1.511 . S
C829 C825 1.376 . S
C829 C828 1.392 . S
C829 H841 0.929 . S
C830 C826 1.531 . S
C830 H842 0.960 . S
C830 H843 0.962 . S
C830 H844 0.960 . S
C831 C828 1.511 . S
C831 H845 0.961 . S
C831 H846 0.961 . S
C831 H847 0.961 . S
C832 C833 1.370 . S
C832 C834 1.363 . S
C832 H848 0.931 . S
C833 C832 1.370 . S
C833 C837 1.408 . S
C834 C832 1.363 . S
C834 C835 1.370 . S
C834 C838 1.524 . S
C835 C827 1.503 . S
C835 C834 1.370 . S
C835 C836 1.403 . S
C836 C835 1.403 . S
C836 C837 1.404 . S
C836 C839 1.539 . S
C837 C833 1.408 . S
C837 C836 1.404 . S
C837 H849 0.930 . S
C838 C834 1.524 . S
C838 H850 0.956 . S
C838 H851 0.961 . S
C838 H852 0.961 . S
C839 C836 1.539 . S
C839 H853 0.958 . S
C839 H854 0.961 . S
C839 H855 0.960 . S
H840 C824 0.931 . S
H841 C829 0.929 . S
H842 C830 0.960 . S
H843 C830 0.962 . S
H844 C830 0.960 . S
H845 C831 0.961 . S
H846 C831 0.961 . S
H847 C831 0.961 . S
H848 C832 0.931 . S
H849 C837 0.930 . S
H850 C838 0.956 . S
H851 C838 0.961 . S
H852 C838 0.961 . S
H853 C839 0.958 . S
H854 C839 0.961 . S
H855 C839 0.960 . S
C856 C857 1.391 . S
C856 C858 1.394 . S
C856 H872 0.931 . S
C857 C856 1.391 . S
C857 C861 1.376 1_655 S
C858 C856 1.394 . S
C858 C859 1.369 1_655 S
C858 C862 1.531 . S
C859 C858 1.369 1_455 S
C859 C860 1.410 . S
C859 C867 1.503 . S
C860 C859 1.410 . S
C860 C861 1.392 . S
C860 C863 1.511 1_554 S
C861 C857 1.376 1_455 S
C861 C860 1.392 . S
C861 H873 0.929 . S
C862 C858 1.531 . S
C862 H874 0.960 . S
C862 H875 0.962 . S
C862 H876 0.960 . S
C863 C860 1.511 1_556 S
C863 H877 0.961 . S
C863 H878 0.961 . S
C863 H879 0.961 1_556 S
C864 C865 1.370 . S
C864 C866 1.363 . S
C864 H880 0.931 . S
C865 C864 1.370 . S
C865 C869 1.408 1_556 S
C866 C864 1.363 . S
C866 C867 1.370 1_556 S
C866 C870 1.524 1_455 S
C867 C859 1.503 . S
C867 C866 1.370 1_554 S
C867 C868 1.403 . S
C868 C867 1.403 . S
C868 C869 1.404 . S
C868 C871 1.539 . S
C869 C865 1.408 1_554 S
C869 C868 1.404 . S
C869 H881 0.930 . S
C870 C866 1.524 1_655 S
C870 H882 0.956 . S
C870 H883 0.961 . S
C870 H884 0.961 . S
C871 C868 1.539 . S
C871 H885 0.958 . S
C871 H886 0.961 . S
C871 H887 0.960 . S
H872 C856 0.931 . S
H873 C861 0.929 . S
H874 C862 0.960 . S
H875 C862 0.962 . S
H876 C862 0.960 . S
H877 C863 0.961 . S
H878 C863 0.961 . S
H879 C863 0.961 1_554 S
H880 C864 0.931 . S
H881 C869 0.930 . S
H882 C870 0.956 . S
H883 C870 0.961 . S
H884 C870 0.961 . S
H885 C871 0.958 . S
H886 C871 0.961 . S
H887 C871 0.960 . S
C888 C889 1.372 1_545 S
C888 C890 1.394 . S
C888 H904 0.931 . S
C889 C888 1.372 1_565 S
C889 C893 1.384 . S
C890 C888 1.394 . S
C890 C891 1.369 . S
C890 C894 1.531 . S
C891 C890 1.369 . S
C891 C892 1.410 . S
C891 C899 1.503 . S
C892 C891 1.410 . S
C892 C893 1.392 1_545 S
C892 C895 1.511 1_544 S
C893 C889 1.384 . S
C893 C892 1.392 1_565 S
C893 H905 0.929 . S
C894 C890 1.531 . S
C894 H906 0.960 . S
C894 H907 0.962 . S
C894 H908 0.960 . S
C895 C892 1.511 1_566 S
C895 H909 0.961 . S
C895 H910 0.961 . S
C895 H911 0.961 1_565 S
C896 C897 1.370 . S
C896 C898 1.363 1_556 S
C896 H912 0.931 . S
C897 C896 1.370 . S
C897 C901 1.408 . S
C898 C896 1.363 1_554 S
C898 C899 1.370 . S
C898 C902 1.524 1_545 S
C899 C891 1.503 . S
C899 C898 1.370 . S
C899 C900 1.403 1_554 S
C900 C899 1.403 1_556 S
C900 C901 1.404 . S
C900 C903 1.539 . S
C901 C897 1.408 . S
C901 C900 1.404 . S
C901 H913 0.930 . S
C902 C898 1.524 1_565 S
C902 H914 0.956 . S
C902 H915 0.961 . S
C902 H916 0.961 . S
C903 C900 1.539 . S
C903 H917 0.958 . S
C903 H918 0.961 . S
C903 H919 0.960 . S
H904 C888 0.931 . S
H905 C893 0.929 . S
H906 C894 0.960 . S
H907 C894 0.962 . S
H908 C894 0.960 . S
H909 C895 0.961 . S
H910 C895 0.961 . S
H911 C895 0.961 1_545 S
H912 C896 0.931 . S
H913 C901 0.930 . S
H914 C902 0.956 . S
H915 C902 0.961 . S
H916 C902 0.961 . S
H917 C903 0.958 . S
H918 C903 0.961 . S
H919 C903 0.960 . S
C920 C921 1.391 . S
C920 C922 1.394 . S
C920 H936 0.931 . S
C921 C920 1.391 . S
C921 C925 1.376 . S
C922 C920 1.394 . S
C922 C923 1.369 . S
C922 C926 1.531 . S
C923 C922 1.369 . S
C923 C924 1.410 . S
C923 C931 1.503 . S
C924 C923 1.410 . S
C924 C925 1.392 . S
C924 C927 1.511 1_554 S
C925 C921 1.376 . S
C925 C924 1.392 . S
C925 H937 0.929 . S
C926 C922 1.531 . S
C926 H938 0.960 . S
C926 H939 0.962 . S
C926 H940 0.960 . S
C927 C924 1.511 1_556 S
C927 H941 0.961 . S
C927 H942 0.961 . S
C927 H943 0.961 . S
C928 C929 1.370 . S
C928 C930 1.371 . S
C928 H944 0.931 . S
C929 C928 1.370 . S
C929 C933 1.408 . S
C930 C928 1.371 . S
C930 C931 1.368 1_556 S
C930 C934 1.519 1_556 S
C931 C923 1.503 . S
C931 C930 1.368 1_554 S
C931 C932 1.403 1_554 S
C932 C931 1.403 1_556 S
C932 C933 1.404 . S
C932 C935 1.539 . S
C933 C929 1.408 . S
C933 C932 1.404 . S
C933 H945 0.930 . S
C934 C930 1.519 1_554 S
C934 H946 0.956 . S
C934 H947 0.961 . S
C934 H948 0.961 . S
C935 C932 1.539 . S
C935 H949 0.958 1_556 S
C935 H950 0.961 . S
C935 H951 0.960 . S
H936 C920 0.931 . S
H937 C925 0.929 . S
H938 C926 0.960 . S
H939 C926 0.962 . S
H940 C926 0.960 . S
H941 C927 0.961 . S
H942 C927 0.961 . S
H943 C927 0.961 . S
H944 C928 0.931 . S
H945 C933 0.930 . S
H946 C934 0.956 . S
H947 C934 0.961 . S
H948 C934 0.961 . S
H949 C935 0.958 1_554 S
H950 C935 0.961 . S
H951 C935 0.960 . S
C952 C953 1.391 . S
C952 C954 1.394 . S
C952 H968 0.931 . S
C953 C952 1.391 . S
C953 C957 1.376 . S
C954 C952 1.394 . S
C954 C955 1.369 . S
C954 C958 1.531 . S
C955 C954 1.369 . S
C955 C956 1.410 . S
C955 C963 1.503 . S
C956 C955 1.410 . S
C956 C957 1.392 . S
C956 C959 1.511 1_554 S
C957 C953 1.376 . S
C957 C956 1.392 . S
C957 H969 0.929 . S
C958 C954 1.531 . S
C958 H970 0.960 . S
C958 H971 0.962 . S
C958 H972 0.960 . S
C959 C956 1.511 1_556 S
C959 H973 0.961 . S
C959 H974 0.961 . S
C959 H975 0.961 . S
C960 C961 1.370 . S
C960 C962 1.363 . S
C960 H976 0.931 . S
C961 C960 1.370 . S
C961 C965 1.408 . S
C962 C960 1.363 . S
C962 C963 1.370 1_556 S
C962 C966 1.524 1_556 S
C963 C955 1.503 . S
C963 C962 1.370 1_554 S
C963 C964 1.403 1_554 S
C964 C963 1.403 1_556 S
C964 C965 1.404 . S
C964 C967 1.539 1_556 S
C965 C961 1.408 . S
C965 C964 1.404 . S
C965 H977 0.930 . S
C966 C962 1.524 1_554 S
C966 H978 0.956 . S
C966 H979 0.961 1_554 S
C966 H980 0.961 1_554 S
C967 C964 1.539 1_554 S
C967 H981 0.958 . S
C967 H982 0.961 1_554 S
C967 H983 0.960 . S
H968 C952 0.931 . S
H969 C957 0.929 . S
H970 C958 0.960 . S
H971 C958 0.962 . S
H972 C958 0.960 . S
H973 C959 0.961 . S
H974 C959 0.961 . S
H975 C959 0.961 . S
H976 C960 0.931 . S
H977 C965 0.930 . S
H978 C966 0.956 . S
H979 C966 0.961 1_556 S
H980 C966 0.961 1_556 S
H981 C967 0.958 . S
H982 C967 0.961 1_556 S
H983 C967 0.960 . S
C984 C985 1.391 . S
C984 C986 1.394 . S
C984 H1000 0.931 . S
C985 C984 1.391 . S
C985 C989 1.376 1_455 S
C986 C984 1.394 . S
C986 C987 1.369 . S
C986 C990 1.531 . S
C987 C986 1.369 . S
C987 C988 1.410 1_455 S
C987 C995 1.503 . S
C988 C987 1.410 1_655 S
C988 C989 1.392 . S
C988 C991 1.511 . S
C989 C985 1.376 1_655 S
C989 C988 1.392 . S
C989 H1001 0.929 . S
C990 C986 1.531 . S
C990 H1002 0.960 . S
C990 H1003 0.962 . S
C990 H1004 0.960 . S
C991 C988 1.511 . S
C991 H1005 0.961 . S
C991 H1006 0.961 . S
C991 H1007 0.961 . S
C992 C993 1.370 . S
C992 C994 1.363 . S
C992 H1008 0.931 . S
C993 C992 1.370 . S
C993 C997 1.408 . S
C994 C992 1.363 . S
C994 C995 1.370 . S
C994 C998 1.524 1_455 S
C995 C987 1.503 . S
C995 C994 1.370 . S
C995 C996 1.403 . S
C996 C995 1.403 . S
C996 C997 1.404 . S
C996 C999 1.539 . S
C997 C993 1.408 . S
C997 C996 1.404 . S
C997 H1009 0.930 . S
C998 C994 1.524 1_655 S
C998 H1010 0.956 1_655 S
C998 H1011 0.961 . S
C998 H1012 0.961 . S
C999 C996 1.539 . S
C999 H1013 0.958 . S
C999 H1014 0.961 . S
C999 H1015 0.960 . S
H1000 C984 0.931 . S
H1001 C989 0.929 . S
H1002 C990 0.960 . S
H1003 C990 0.962 . S
H1004 C990 0.960 . S
H1005 C991 0.961 . S
H1006 C991 0.961 . S
H1007 C991 0.961 . S
H1008 C992 0.931 . S
H1009 C997 0.930 . S
H1010 C998 0.956 1_455 S
H1011 C998 0.961 . S
H1012 C998 0.961 . S
H1013 C999 0.958 . S
H1014 C999 0.961 . S
H1015 C999 0.960 . S
C1016 C1017 1.391 . S
C1016 C1018 1.394 . S
C1016 H1032 0.931 . S
C1017 C1016 1.391 . S
C1017 C1021 1.376 1_545 S
C1018 C1016 1.394 . S
C1018 C1019 1.369 . S
C1018 C1022 1.531 . S
C1019 C1018 1.369 . S
C1019 C1020 1.410 1_545 S
C1019 C1027 1.503 . S
C1020 C1019 1.410 1_565 S
C1020 C1021 1.392 . S
C1020 C1023 1.511 . S
C1021 C1017 1.376 1_565 S
C1021 C1020 1.392 . S
C1021 H1033 0.929 . S
C1022 C1018 1.531 . S
C1022 H1034 0.960 . S
C1022 H1035 0.962 . S
C1022 H1036 0.960 . S
C1023 C1020 1.511 . S
C1023 H1037 0.961 . S
C1023 H1038 0.961 . S
C1023 H1039 0.961 . S
C1024 C1025 1.370 . S
C1024 C1026 1.363 . S
C1024 H1040 0.931 . S
C1025 C1024 1.370 . S
C1025 C1029 1.408 . S
C1026 C1024 1.363 . S
C1026 C1027 1.370 . S
C1026 C1030 1.524 . S
C1027 C1019 1.503 . S
C1027 C1026 1.370 . S
C1027 C1028 1.403 . S
C1028 C1027 1.403 . S
C1028 C1029 1.404 . S
C1028 C1031 1.539 1_545 S
C1029 C1025 1.408 . S
C1029 C1028 1.404 . S
C1029 H1041 0.930 . S
C1030 C1026 1.524 . S
C1030 H1042 0.956 . S
C1030 H1043 0.991 . S
C1030 H1044 0.961 . S
C1031 C1028 1.539 1_565 S
C1031 H1045 0.958 1_565 S
C1031 H1046 0.961 . S
C1031 H1047 0.960 . S
H1032 C1016 0.931 . S
H1033 C1021 0.929 . S
H1034 C1022 0.960 . S
H1035 C1022 0.962 . S
H1036 C1022 0.960 . S
H1037 C1023 0.961 . S
H1038 C1023 0.961 . S
H1039 C1023 0.961 . S
H1040 C1024 0.931 . S
H1041 C1029 0.930 . S
H1042 C1030 0.956 . S
H1043 C1030 0.991 . S
H1044 C1030 0.961 . S
H1045 C1031 0.958 1_545 S
H1046 C1031 0.961 . S
H1047 C1031 0.960 . S
C1048 C1049 1.391 . S
C1048 C1050 1.394 . S
C1048 H1064 0.931 . S
C1049 C1048 1.391 . S
C1049 C1053 1.376 . S
C1050 C1048 1.394 . S
C1050 C1051 1.369 . S
C1050 C1054 1.531 . S
C1051 C1050 1.369 . S
C1051 C1052 1.410 . S
C1051 C1059 1.503 . S
C1052 C1051 1.410 . S
C1052 C1053 1.392 . S
C1052 C1055 1.511 . S
C1053 C1049 1.376 . S
C1053 C1052 1.392 . S
C1053 H1065 0.929 . S
C1054 C1050 1.531 . S
C1054 H1066 0.960 . S
C1054 H1067 0.962 . S
C1054 H1068 0.960 . S
C1055 C1052 1.511 . S
C1055 H1069 0.961 . S
C1055 H1070 0.961 . S
C1055 H1071 0.961 . S
C1056 C1057 1.370 . S
C1056 C1058 1.363 . S
C1056 H1072 0.931 . S
C1057 C1056 1.370 . S
C1057 C1061 1.408 . S
C1058 C1056 1.363 . S
C1058 C1059 1.370 . S
C1058 C1062 1.524 . S
C1059 C1051 1.503 . S
C1059 C1058 1.370 . S
C1059 C1060 1.403 . S
C1060 C1059 1.403 . S
C1060 C1061 1.404 . S
C1060 C1063 1.539 . S
C1061 C1057 1.408 . S
C1061 C1060 1.404 . S
C1061 H1073 0.930 . S
C1062 C1058 1.524 . S
C1062 H1074 0.956 . S
C1062 H1075 0.961 . S
C1062 H1076 0.961 . S
C1063 C1060 1.539 . S
C1063 H1077 0.958 . S
C1063 H1078 0.961 . S
C1063 H1079 0.960 . S
H1064 C1048 0.931 . S
H1065 C1053 0.929 . S
H1066 C1054 0.960 . S
H1067 C1054 0.962 . S
H1068 C1054 0.960 . S
H1069 C1055 0.961 . S
H1070 C1055 0.961 . S
H1071 C1055 0.961 . S
H1072 C1056 0.931 . S
H1073 C1061 0.930 . S
H1074 C1062 0.956 . S
H1075 C1062 0.961 . S
H1076 C1062 0.961 . S
H1077 C1063 0.958 . S
H1078 C1063 0.961 . S
H1079 C1063 0.960 . S
C1080 C1081 1.391 . S
C1080 C1082 1.394 . S
C1080 H1096 0.931 . S
C1081 C1080 1.391 . S
C1081 C1085 1.376 . S
C1082 C1080 1.394 . S
C1082 C1083 1.369 . S
C1082 C1086 1.531 . S
C1083 C1082 1.369 . S
C1083 C1084 1.410 . S
C1083 C1091 1.503 . S
C1084 C1083 1.410 . S
C1084 C1085 1.392 . S
C1084 C1087 1.511 . S
C1085 C1081 1.376 . S
C1085 C1084 1.392 . S
C1085 H1097 0.929 . S
C1086 C1082 1.531 . S
C1086 H1098 0.960 . S
C1086 H1099 0.962 . S
C1086 H1100 0.960 . S
C1087 C1084 1.511 . S
C1087 H1101 0.961 . S
C1087 H1102 0.961 . S
C1087 H1103 0.961 . S
C1088 C1089 1.370 . S
C1088 C1090 1.363 . S
C1088 H1104 0.931 . S
C1089 C1088 1.370 . S
C1089 C1093 1.408 . S
C1090 C1088 1.363 . S
C1090 C1091 1.370 . S
C1090 C1094 1.524 . S
C1091 C1083 1.503 . S
C1091 C1090 1.370 . S
C1091 C1092 1.403 . S
C1092 C1091 1.403 . S
C1092 C1093 1.404 . S
C1092 C1095 1.539 . S
C1093 C1089 1.408 . S
C1093 C1092 1.404 . S
C1093 H1105 0.930 . S
C1094 C1090 1.524 . S
C1094 H1106 0.956 . S
C1094 H1107 0.961 . S
C1094 H1108 0.961 . S
C1095 C1092 1.539 . S
C1095 H1109 0.958 . S
C1095 H1110 0.961 . S
C1095 H1111 0.960 . S
H1096 C1080 0.931 . S
H1097 C1085 0.929 . S
H1098 C1086 0.960 . S
H1099 C1086 0.962 . S
H1100 C1086 0.960 . S
H1101 C1087 0.961 . S
H1102 C1087 0.961 . S
H1103 C1087 0.961 . S
H1104 C1088 0.931 . S
H1105 C1093 0.930 . S
H1106 C1094 0.956 . S
H1107 C1094 0.961 . S
H1108 C1094 0.961 . S
H1109 C1095 0.958 . S
H1110 C1095 0.961 . S
H1111 C1095 0.960 . S
C1112 C1113 1.391 . S
C1112 C1114 1.394 . S
C1112 H1128 0.931 . S
C1113 C1112 1.391 . S
C1113 C1117 1.376 1_655 S
C1114 C1112 1.394 . S
C1114 C1115 1.369 . S
C1114 C1118 1.531 . S
C1115 C1114 1.369 . S
C1115 C1116 1.410 1_655 S
C1115 C1123 1.503 . S
C1116 C1115 1.410 1_455 S
C1116 C1117 1.392 . S
C1116 C1119 1.511 . S
C1117 C1113 1.376 1_455 S
C1117 C1116 1.392 . S
C1117 H1129 0.929 . S
C1118 C1114 1.531 . S
C1118 H1130 0.960 . S
C1118 H1131 0.962 . S
C1118 H1132 0.960 . S
C1119 C1116 1.511 . S
C1119 H1133 0.961 . S
C1119 H1134 0.961 . S
C1119 H1135 0.961 . S
C1120 C1121 1.370 . S
C1120 C1122 1.363 . S
C1120 H1136 0.931 . S
C1121 C1120 1.370 . S
C1121 C1125 1.408 1_655 S
C1122 C1120 1.363 . S
C1122 C1123 1.370 . S
C1122 C1126 1.524 . S
C1123 C1115 1.503 . S
C1123 C1122 1.370 . S
C1123 C1124 1.403 1_655 S
C1124 C1123 1.403 1_455 S
C1124 C1125 1.404 . S
C1124 C1127 1.539 . S
C1125 C1121 1.408 1_455 S
C1125 C1124 1.404 . S
C1125 H1137 0.930 . S
C1126 C1122 1.524 . S
C1126 H1138 0.956 . S
C1126 H1139 0.961 . S
C1126 H1140 0.961 . S
C1127 C1124 1.539 . S
C1127 H1141 0.958 . S
C1127 H1142 0.961 . S
C1127 H1143 0.960 . S
H1128 C1112 0.931 . S
H1129 C1117 0.929 . S
H1130 C1118 0.960 . S
H1131 C1118 0.962 . S
H1132 C1118 0.960 . S
H1133 C1119 0.961 . S
H1134 C1119 0.961 . S
H1135 C1119 0.961 . S
H1136 C1120 0.931 . S
H1137 C1125 0.930 . S
H1138 C1126 0.956 . S
H1139 C1126 0.961 . S
H1140 C1126 0.961 . S
H1141 C1127 0.958 . S
H1142 C1127 0.961 . S
H1143 C1127 0.960 . S
C1144 C1145 1.391 . S
C1144 C1146 1.394 . S
C1144 H1160 0.931 . S
C1145 C1144 1.391 . S
C1145 C1149 1.376 1_565 S
C1146 C1144 1.394 . S
C1146 C1147 1.369 . S
C1146 C1150 1.531 . S
C1147 C1146 1.369 . S
C1147 C1148 1.410 1_565 S
C1147 C1155 1.503 . S
C1148 C1147 1.410 1_545 S
C1148 C1149 1.392 . S
C1148 C1151 1.511 . S
C1149 C1145 1.376 1_545 S
C1149 C1148 1.392 . S
C1149 H1161 0.929 . S
C1150 C1146 1.531 . S
C1150 H1162 0.960 . S
C1150 H1163 0.962 . S
C1150 H1164 0.960 . S
C1151 C1148 1.511 . S
C1151 H1165 0.961 . S
C1151 H1166 0.961 . S
C1151 H1167 0.961 . S
C1152 C1153 1.370 . S
C1152 C1154 1.363 . S
C1152 H1168 0.931 . S
C1153 C1152 1.370 . S
C1153 C1157 1.414 . S
C1154 C1152 1.363 . S
C1154 C1155 1.370 . S
C1154 C1158 1.524 . S
C1155 C1147 1.503 . S
C1155 C1154 1.370 . S
C1155 C1156 1.403 1_565 S
C1156 C1155 1.403 1_545 S
C1156 C1157 1.403 1_545 S
C1156 C1159 1.539 . S
C1157 C1153 1.414 . S
C1157 C1156 1.403 1_565 S
C1157 H1169 0.926 1_565 S
C1158 C1154 1.524 . S
C1158 H1170 0.956 . S
C1158 H1171 0.961 . S
C1158 H1172 0.961 . S
C1159 C1156 1.539 . S
C1159 H1173 0.958 1_545 S
C1159 H1174 0.961 . S
C1159 H1175 0.960 . S
H1160 C1144 0.931 . S
H1161 C1149 0.929 . S
H1162 C1150 0.960 . S
H1163 C1150 0.962 . S
H1164 C1150 0.960 . S
H1165 C1151 0.961 . S
H1166 C1151 0.961 . S
H1167 C1151 0.961 . S
H1168 C1152 0.931 . S
H1169 C1157 0.926 1_545 S
H1170 C1158 0.956 . S
H1171 C1158 0.961 . S
H1172 C1158 0.961 . S
H1173 C1159 0.958 1_565 S
H1174 C1159 0.961 . S
H1175 C1159 0.960 . S
C1176 C1177 1.391 . S
C1176 C1178 1.394 . S
C1176 H1192 0.931 . S
C1177 C1176 1.391 . S
C1177 C1181 1.376 . S
C1178 C1176 1.394 . S
C1178 C1179 1.369 . S
C1178 C1182 1.531 . S
C1179 C1178 1.369 . S
C1179 C1180 1.410 . S
C1179 C1187 1.503 . S
C1180 C1179 1.410 . S
C1180 C1181 1.392 . S
C1180 C1183 1.511 . S
C1181 C1177 1.376 . S
C1181 C1180 1.392 . S
C1181 H1193 0.929 . S
C1182 C1178 1.531 . S
C1182 H1194 0.960 . S
C1182 H1195 0.962 . S
C1182 H1196 0.960 . S
C1183 C1180 1.511 . S
C1183 H1197 0.961 . S
C1183 H1198 0.961 . S
C1183 H1199 0.961 . S
C1184 C1185 1.370 . S
C1184 C1186 1.363 . S
C1184 H1200 0.931 . S
C1185 C1184 1.370 . S
C1185 C1189 1.408 . S
C1186 C1184 1.363 . S
C1186 C1187 1.370 . S
C1186 C1190 1.524 . S
C1187 C1179 1.503 . S
C1187 C1186 1.370 . S
C1187 C1188 1.403 . S
C1188 C1187 1.403 . S
C1188 C1189 1.404 . S
C1188 C1191 1.539 . S
C1189 C1185 1.408 . S
C1189 C1188 1.404 . S
C1189 H1201 0.930 . S
C1190 C1186 1.524 . S
C1190 H1202 0.956 . S
C1190 H1203 0.961 . S
C1190 H1204 0.961 . S
C1191 C1188 1.539 . S
C1191 H1205 0.958 . S
C1191 H1206 0.961 . S
C1191 H1207 0.960 . S
H1192 C1176 0.931 . S
H1193 C1181 0.929 . S
H1194 C1182 0.960 . S
H1195 C1182 0.962 . S
H1196 C1182 0.960 . S
H1197 C1183 0.961 . S
H1198 C1183 0.961 . S
H1199 C1183 0.961 . S
H1200 C1184 0.931 . S
H1201 C1189 0.930 . S
H1202 C1190 0.956 . S
H1203 C1190 0.961 . S
H1204 C1190 0.961 . S
H1205 C1191 0.958 . S
H1206 C1191 0.961 . S
H1207 C1191 0.960 . S
C1208 C1209 1.391 . S
C1208 C1210 1.394 . S
C1208 H1224 0.931 . S
C1209 C1208 1.391 . S
C1209 C1213 1.376 . S
C1210 C1208 1.394 . S
C1210 C1211 1.369 . S
C1210 C1214 1.531 . S
C1211 C1210 1.369 . S
C1211 C1212 1.410 . S
C1211 C1219 1.503 . S
C1212 C1211 1.410 . S
C1212 C1213 1.392 . S
C1212 C1215 1.511 . S
C1213 C1209 1.376 . S
C1213 C1212 1.392 . S
C1213 H1225 0.929 . S
C1214 C1210 1.531 . S
C1214 H1226 0.960 . S
C1214 H1227 0.962 . S
C1214 H1228 0.960 . S
C1215 C1212 1.511 . S
C1215 H1229 0.961 . S
C1215 H1230 0.961 . S
C1215 H1231 0.961 . S
C1216 C1217 1.370 . S
C1216 C1218 1.363 . S
C1216 H1232 0.931 . S
C1217 C1216 1.370 . S
C1217 C1221 1.408 . S
C1218 C1216 1.363 . S
C1218 C1219 1.370 . S
C1218 C1222 1.524 . S
C1219 C1211 1.503 . S
C1219 C1218 1.370 . S
C1219 C1220 1.403 . S
C1220 C1219 1.403 . S
C1220 C1221 1.404 . S
C1220 C1223 1.539 . S
C1221 C1217 1.408 . S
C1221 C1220 1.404 . S
C1221 H1233 0.930 . S
C1222 C1218 1.524 . S
C1222 H1234 0.956 . S
C1222 H1235 0.961 . S
C1222 H1236 0.961 . S
C1223 C1220 1.539 . S
C1223 H1237 0.958 . S
C1223 H1238 0.961 . S
C1223 H1239 0.960 . S
H1224 C1208 0.931 . S
H1225 C1213 0.929 . S
H1226 C1214 0.960 . S
H1227 C1214 0.962 . S
H1228 C1214 0.960 . S
H1229 C1215 0.961 . S
H1230 C1215 0.961 . S
H1231 C1215 0.961 . S
H1232 C1216 0.931 . S
H1233 C1221 0.930 . S
H1234 C1222 0.956 . S
H1235 C1222 0.961 . S
H1236 C1222 0.961 . S
H1237 C1223 0.958 . S
H1238 C1223 0.961 . S
H1239 C1223 0.960 . S
C473 C255 2.168 . S
C481 C330 2.398 1_545 S
C513 C370 2.426 . S
C505 C294 2.185 . S
C545 C410 2.418 . S
C537 C177 2.232 . S
C577 C450 2.408 1_455 S
C569 C216 2.236 . S
C609 C320 2.401 1_565 S
C601 C99 2.185 . S
C633 C138 2.181 . S
C641 C360 2.430 . S
C665 C21 2.182 . S
C673 C400 2.417 . S
C697 C60 2.227 . S
C705 C440 2.411 1_655 S
C737 C317 0.409 . S
C729 C196 0.411 1_455 S
C769 C357 0.429 . S
C761 C235 0.298 1_545 S
C801 C397 0.364 . S
C793 C289 0.340 . S
C825 C157 0.444 . S
C833 C437 0.333 . S
C857 C40 0.276 . S
C865 C327 0.421 . S
C897 C367 0.414 . S
C889 C79 0.372 . S
C929 C407 0.410 . S
C921 C133 0.338 . S
C953 C1 0.317 . S
C961 C447 0.419 . S
C985 C211 2.781 . S
C993 C321 3.190 . S
C1017 C250 2.748 . S
C1025 C361 3.161 . S
C1057 C401 3.151 . S
C1049 C274 2.771 . S
C1089 C441 3.173 . S
C1081 C172 2.764 . S
C1113 C55 2.838 1_655 S
C1121 C331 3.196 . S
C1153 C371 3.158 . S
C1145 C94 2.806 1_565 S
C1185 C411 3.156 . S
C1177 C118 2.805 . S
C1209 C16 2.797 . S
C1217 C451 3.186 . S
