# Generated by pormake.
# Topology dag, (6,3)-cn, num edge types: 1
# Building blocks:
#     Node 0, Type 0, BuildingBlock: OJICUG_clean_sbu_0, # of connection points: 6
#     Node 1, Type 0, BuildingBlock: OJICUG_clean_sbu_0, # of connection points: 6
#     Node 2, Type 0, BuildingBlock: OJICUG_clean_sbu_0, # of connection points: 6
#     Node 3, Type 0, BuildingBlock: OJICUG_clean_sbu_0, # of connection points: 6
#     Node 4, Type 1, BuildingBlock: BETDIP_clean_linker_0, # of connection points: 3
#     Node 5, Type 1, BuildingBlock: BETDIP_clean_linker_0, # of connection points: 3
#     Node 6, Type 1, BuildingBlock: BETDIP_clean_linker_0, # of connection points: 3
#     Node 7, Type 1, BuildingBlock: BETDIP_clean_linker_0, # of connection points: 3
#     Node 8, Type 1, BuildingBlock: BETDIP_clean_linker_0, # of connection points: 3
#     Node 9, Type 1, BuildingBlock: BETDIP_clean_linker_0, # of connection points: 3
#     Node 10, Type 1, BuildingBlock: BETDIP_clean_linker_0, # of connection points: 3
#     Node 11, Type 1, BuildingBlock: BETDIP_clean_linker_0, # of connection points: 3
#     Edge 12, Type (0, 1), BuildingBlock: XIVTED_clean_linker_0, # of connection points: 2
#     Edge 13, Type (0, 1), BuildingBlock: XIVTED_clean_linker_0, # of connection points: 2
#     Edge 14, Type (0, 1), BuildingBlock: XIVTED_clean_linker_0, # of connection points: 2
#     Edge 15, Type (0, 1), BuildingBlock: XIVTED_clean_linker_0, # of connection points: 2
#     Edge 16, Type (0, 1), BuildingBlock: XIVTED_clean_linker_0, # of connection points: 2
#     Edge 17, Type (0, 1), BuildingBlock: XIVTED_clean_linker_0, # of connection points: 2
#     Edge 18, Type (0, 1), BuildingBlock: XIVTED_clean_linker_0, # of connection points: 2
#     Edge 19, Type (0, 1), BuildingBlock: XIVTED_clean_linker_0, # of connection points: 2
#     Edge 20, Type (0, 1), BuildingBlock: XIVTED_clean_linker_0, # of connection points: 2
#     Edge 21, Type (0, 1), BuildingBlock: XIVTED_clean_linker_0, # of connection points: 2
#     Edge 22, Type (0, 1), BuildingBlock: XIVTED_clean_linker_0, # of connection points: 2
#     Edge 23, Type (0, 1), BuildingBlock: XIVTED_clean_linker_0, # of connection points: 2
#     Edge 24, Type (0, 1), BuildingBlock: XIVTED_clean_linker_0, # of connection points: 2
#     Edge 25, Type (0, 1), BuildingBlock: XIVTED_clean_linker_0, # of connection points: 2
#     Edge 26, Type (0, 1), BuildingBlock: XIVTED_clean_linker_0, # of connection points: 2
#     Edge 27, Type (0, 1), BuildingBlock: XIVTED_clean_linker_0, # of connection points: 2
#     Edge 28, Type (0, 1), BuildingBlock: XIVTED_clean_linker_0, # of connection points: 2
#     Edge 29, Type (0, 1), BuildingBlock: XIVTED_clean_linker_0, # of connection points: 2
#     Edge 30, Type (0, 1), BuildingBlock: XIVTED_clean_linker_0, # of connection points: 2
#     Edge 31, Type (0, 1), BuildingBlock: XIVTED_clean_linker_0, # of connection points: 2
#     Edge 32, Type (0, 1), BuildingBlock: XIVTED_clean_linker_0, # of connection points: 2
#     Edge 33, Type (0, 1), BuildingBlock: XIVTED_clean_linker_0, # of connection points: 2
#     Edge 34, Type (0, 1), BuildingBlock: XIVTED_clean_linker_0, # of connection points: 2
#     Edge 35, Type (0, 1), BuildingBlock: XIVTED_clean_linker_0, # of connection points: 2
# Relax obj value: 0.093
# Max RMSD: 0.109
# Mean RMSD: 0.091
data_MOF--net-dag--node1-OJICUG_clean_sbu_0--node2-BETDIP_clean_linker_0--edge1-XIVTED_clean_linker_0
_symmetry_space_group_name_H-M    P1
_symmetry_Int_Tables_number       1
_symmetry_cell_setting            triclinic
loop_
_symmetry_equiv_pos_as_xyz
'x, y, z'
_cell_length_a     38.492275
_cell_length_b     37.746892
_cell_length_c     39.362093
_cell_angle_alpha  85.909595
_cell_angle_beta   90.088696
_cell_angle_gamma 89.989173
loop_
_atom_site_label
_atom_site_type_symbol
_atom_site_fract_x
_atom_site_fract_y
_atom_site_fract_z
_atom_type_partial_charge
Sc0 Sc 0.12029 0.86761 0.01501 0.0
Sc1 Sc 0.14373 0.78283 0.99117 0.0
Sc2 Sc 0.2019 0.85588 0.97832 0.0
O3 O 0.15536 0.83533 0.99481 0.0
C4 C 0.14871 0.91597 0.95114 0.0
C5 C 0.07199 0.81985 0.97004 0.0
C6 C 0.1853 0.80143 0.92195 0.0
C7 C 0.11144 0.79743 0.06366 0.0
C8 C 0.19038 0.89794 0.0447 0.0
C9 C 0.22275 0.78162 0.01726 0.0
O10 O 0.12632 0.90745 0.97395 0.0
O11 O 0.093 0.79393 0.96893 0.0
O12 O 0.20082 0.82798 0.9329 0.0
O13 O 0.11075 0.83088 0.05779 0.0
O14 O 0.2096 0.88732 0.02133 0.0
O15 O 0.19329 0.76702 0.0133 0.0
O16 O 0.15793 0.89213 0.04601 0.0
O17 O 0.12124 0.77626 0.04181 0.0
O18 O 0.22961 0.81335 0.00604 0.0
O19 O 0.07843 0.84707 0.9862 0.0
O20 O 0.17777 0.90014 0.94913 0.0
O21 O 0.16398 0.7825 0.93996 0.0
Sc22 Sc 0.70346 0.64105 0.55976 0.0
Sc23 Sc 0.64297 0.71139 0.54225 0.0
Sc24 Sc 0.62192 0.6241 0.52454 0.0
O25 O 0.6562 0.65893 0.5422 0.0
C26 C 0.69317 0.59403 0.49666 0.0
C27 C 0.72164 0.71355 0.51639 0.0
C28 C 0.61086 0.6903 0.47136 0.0
C29 C 0.68508 0.69859 0.61236 0.0
C30 C 0.65204 0.5808 0.59067 0.0
C31 C 0.57245 0.6742 0.566 0.0
O32 O 0.71243 0.60783 0.51834 0.0
O33 O 0.69129 0.72671 0.518 0.0
O34 O 0.61176 0.65714 0.47922 0.0
O35 O 0.70061 0.67112 0.60351 0.0
O36 O 0.62875 0.58776 0.56829 0.0
O37 O 0.59312 0.70049 0.56589 0.0
O38 O 0.68101 0.59708 0.5908 0.0
O39 O 0.66412 0.71646 0.59283 0.0
O40 O 0.57927 0.64609 0.55132 0.0
O41 O 0.73025 0.68352 0.53079 0.0
O42 O 0.6604 0.59783 0.49593 0.0
O43 O 0.61952 0.71335 0.49188 0.0
Sc44 Sc 0.85317 0.21031 0.056 0.0
Sc45 Sc 0.79113 0.14235 0.07642 0.0
Sc46 Sc 0.87054 0.1221 0.03901 0.0
O47 O 0.83827 0.15832 0.05726 0.0
C48 C 0.88314 0.18858 0.98542 0.0
C49 C 0.77346 0.21442 0.0324 0.0
C50 C 0.79833 0.09608 0.0118 0.0
C51 C 0.81444 0.20023 0.1275 0.0
C52 C 0.92268 0.16942 0.07943 0.0
C53 C 0.8384 0.07827 0.10442 0.0
O54 O 0.87196 0.21209 0.00417 0.0
O55 O 0.76509 0.18373 0.04534 0.0
O56 O 0.83069 0.10151 0.00816 0.0
O57 O 0.83684 0.21516 0.10763 0.0
O58 O 0.91333 0.13998 0.06846 0.0
O59 O 0.81307 0.09912 0.10876 0.0
O60 O 0.90443 0.19755 0.07573 0.0
O61 O 0.79534 0.17483 0.11906 0.0
O62 O 0.85962 0.08287 0.07981 0.0
O63 O 0.80357 0.22774 0.03566 0.0
O64 O 0.88478 0.1559 0.99527 0.0
O65 O 0.78093 0.10701 0.03645 0.0
Sc66 Sc 0.3714 0.37534 0.51508 0.0
Sc67 Sc 0.29221 0.35388 0.47775 0.0
Sc68 Sc 0.35414 0.28641 0.50043 0.0
O69 O 0.33926 0.33847 0.49765 0.0
C70 C 0.42372 0.32661 0.47644 0.0
C71 C 0.33948 0.41722 0.44835 0.0
C72 C 0.31545 0.29425 0.42863 0.0
C73 C 0.29899 0.40225 0.54088 0.0
C74 C 0.38422 0.31034 0.57036 0.0
C75 C 0.27438 0.28311 0.52355 0.0
O76 O 0.4144 0.35643 0.48661 0.0
O77 O 0.31419 0.39617 0.44456 0.0
O78 O 0.33771 0.27974 0.44901 0.0
O79 O 0.33135 0.397 0.54497 0.0
O80 O 0.37316 0.28624 0.55218 0.0
O81 O 0.26608 0.31338 0.50954 0.0
O82 O 0.38555 0.34283 0.55978 0.0
O83 O 0.28177 0.39045 0.5165 0.0
O84 O 0.30455 0.26968 0.52112 0.0
O85 O 0.3607 0.4134 0.47311 0.0
O86 O 0.40534 0.29861 0.48057 0.0
O87 O 0.29658 0.32015 0.43619 0.0
H88 H 0.17977 0.20462 0.17597 0.0
H89 H 0.26397 0.12917 0.17406 0.0
H90 H 0.1608 0.09821 0.14843 0.0
H91 H 0.29548 0.16926 0.1975 0.0
C92 C 0.27927 0.19106 0.2045 0.0
C93 C 0.18924 0.17838 0.17122 0.0
C94 C 0.1659 0.15228 0.16184 0.0
C95 C 0.22454 0.17036 0.1764 0.0
C96 C 0.23689 0.13608 0.17068 0.0
C97 C 0.21371 0.11 0.16098 0.0
C98 C 0.17847 0.11829 0.15667 0.0
N99 N 0.24584 0.19674 0.1898 0.0
H100 H 0.23066 0.641 0.65932 0.0
H101 H 0.31628 0.71393 0.66662 0.0
H102 H 0.33339 0.61049 0.6311 0.0
H103 H 0.2744 0.75418 0.67548 0.0
C104 C 0.2549 0.73809 0.68921 0.0
C105 C 0.25789 0.64749 0.65559 0.0
C106 C 0.28073 0.62199 0.64443 0.0
C107 C 0.2703 0.68075 0.66375 0.0
C108 C 0.30598 0.6888 0.65968 0.0
C109 C 0.32897 0.66343 0.64804 0.0
C110 C 0.31599 0.63019 0.64046 0.0
N111 N 0.24677 0.70371 0.67916 0.0
H112 H 0.95536 0.77876 0.29093 0.0
H113 H 0.88101 0.86383 0.2934 0.0
H114 H 0.94097 0.85104 0.20287 0.0
H115 H 0.90287 0.85447 0.3561 0.0
C116 C 0.89434 0.82717 0.35472 0.0
C117 C 0.94269 0.80187 0.27855 0.0
C118 C 0.95099 0.81292 0.24486 0.0
C119 C 0.91778 0.82032 0.29628 0.0
C120 C 0.90105 0.85019 0.28011 0.0
C121 C 0.90875 0.86109 0.24606 0.0
C122 C 0.93396 0.84234 0.22882 0.0
N123 N 0.90767 0.80634 0.32913 0.0
H124 H 0.55358 0.28451 0.79308 0.0
H125 H 0.62329 0.37436 0.78786 0.0
H126 H 0.5394 0.3703 0.71663 0.0
H127 H 0.65964 0.3367 0.81373 0.0
C128 C 0.64394 0.3198 0.83108 0.0
C129 C 0.56177 0.30994 0.78125 0.0
C130 C 0.54283 0.32595 0.75384 0.0
C131 C 0.59132 0.32682 0.79348 0.0
C132 C 0.60153 0.36011 0.77806 0.0
C133 C 0.58301 0.37596 0.75028 0.0
C134 C 0.55364 0.35867 0.73848 0.0
N135 N 0.60966 0.31028 0.82177 0.0
H136 H 0.68205 0.27806 0.38848 0.0
H137 H 0.7674 0.35246 0.38442 0.0
H138 H 0.66527 0.38699 0.40929 0.0
H139 H 0.79906 0.3085 0.36701 0.0
C140 C 0.78153 0.28825 0.35889 0.0
C141 C 0.69201 0.30451 0.39152 0.0
C142 C 0.66922 0.33174 0.39933 0.0
C143 C 0.72736 0.31157 0.38558 0.0
C144 C 0.74032 0.34617 0.38878 0.0
C145 C 0.71772 0.37336 0.39697 0.0
C146 C 0.68245 0.36594 0.40225 0.0
N147 N 0.74801 0.2839 0.3736 0.0
H148 H 0.0488 0.22128 0.76184 0.0
H149 H 0.1193 0.13231 0.76386 0.0
H150 H 0.03448 0.13191 0.83433 0.0
H151 H 0.15679 0.1751 0.74578 0.0
C152 C 0.1413 0.18999 0.72657 0.0
C153 C 0.05696 0.19536 0.77256 0.0
C154 C 0.0378 0.17786 0.79896 0.0
C155 C 0.08687 0.17943 0.76012 0.0
C156 C 0.09717 0.14561 0.7741 0.0
C157 C 0.07854 0.12827 0.80095 0.0
C158 C 0.04877 0.14459 0.81306 0.0
N159 N 0.10586 0.19744 0.73317 0.0
H160 H 0.45271 0.70379 0.24163 0.0
H161 H 0.37272 0.62361 0.25072 0.0
H162 H 0.4398 0.64006 0.33542 0.0
H163 H 0.37699 0.62656 0.1934 0.0
C164 C 0.38041 0.65483 0.18712 0.0
C165 C 0.43924 0.68278 0.25649 0.0
C166 C 0.44883 0.67429 0.29043 0.0
C167 C 0.41207 0.6644 0.2417 0.0
C168 C 0.39449 0.63723 0.2613 0.0
C169 C 0.40417 0.62836 0.29528 0.0
C170 C 0.43138 0.64714 0.30951 0.0
N171 N 0.40182 0.67518 0.20781 0.0
H172 H 0.73174 0.86852 0.87459 0.0
H173 H 0.81663 0.79546 0.86387 0.0
H174 H 0.83435 0.89532 0.90679 0.0
H175 H 0.77293 0.75575 0.85669 0.0
C176 C 0.75459 0.77238 0.84185 0.0
C177 C 0.75884 0.86142 0.87836 0.0
C178 C 0.78173 0.88546 0.89191 0.0
C179 C 0.771 0.82882 0.86824 0.0
C180 C 0.80651 0.82001 0.87246 0.0
C181 C 0.82961 0.84403 0.88621 0.0
C182 C 0.81687 0.87663 0.89588 0.0
N183 N 0.74754 0.80735 0.85091 0.0
H184 H 0.16761 0.90624 0.10914 0.0
H185 H 0.26157 0.0908 0.11447 0.0
H186 H 0.24702 0.94181 0.03737 0.0
H187 H 0.1908 0.04761 0.19135 0.0
H188 H 0.26699 0.03167 0.09284 0.0
H189 H 0.1854 0.95201 0.14614 0.0
C190 C 0.18917 0.92341 0.10143 0.0
C191 C 0.20541 0.92074 0.06987 0.0
C192 C 0.25102 0.03488 0.11503 0.0
C193 C 0.22555 0.97376 0.11178 0.0
C194 C 0.24816 0.06855 0.12747 0.0
C195 C 0.22533 0.07391 0.1543 0.0
C196 C 0.23066 0.00676 0.12949 0.0
C197 C 0.20831 0.04446 0.17026 0.0
C198 C 0.19942 0.94954 0.12259 0.0
C199 C 0.2336 0.94323 0.06139 0.0
N200 N 0.21082 0.01227 0.15723 0.0
N201 N 0.24229 0.96939 0.08188 0.0
H202 H 0.53712 0.61887 0.59712 0.0
H203 H 0.36099 0.72279 0.61778 0.0
H204 H 0.53167 0.73249 0.57608 0.0
H205 H 0.38282 0.62021 0.66873 0.0
H206 H 0.4229 0.72891 0.60315 0.0
H207 H 0.48001 0.61986 0.62342 0.0
C208 C 0.52387 0.6441 0.59817 0.0
C209 C 0.53898 0.6756 0.58416 0.0
C210 C 0.41413 0.70534 0.61798 0.0
C211 C 0.47324 0.67696 0.61408 0.0
C212 C 0.37889 0.7019 0.62642 0.0
C213 C 0.3667 0.67064 0.64389 0.0
C214 C 0.43705 0.67719 0.62693 0.0
C215 C 0.39096 0.64436 0.65447 0.0
C216 C 0.49131 0.6447 0.61338 0.0
C217 C 0.52084 0.70761 0.5866 0.0
N218 N 0.4248 0.64802 0.64543 0.0
N219 N 0.48859 0.70744 0.60084 0.0
H220 H 0.8241 0.0683 0.17323 0.0
H221 H 0.8834 0.86498 0.1812 0.0
H222 H 0.86302 0.01471 0.08784 0.0
H223 H 0.89228 0.92639 0.26919 0.0
H224 H 0.86091 0.91719 0.14846 0.0
H225 H 0.83556 0.01402 0.21043 0.0
C226 C 0.83472 0.04509 0.16233 0.0
C227 C 0.84295 0.04601 0.12753 0.0
C228 C 0.86758 0.91924 0.175 0.0
C229 C 0.85535 0.98428 0.16939 0.0
C230 C 0.88052 0.88947 0.19369 0.0
C231 C 0.89056 0.89154 0.22777 0.0
C232 C 0.86435 0.95145 0.19039 0.0
C233 C 0.88508 0.92372 0.24291 0.0
C234 C 0.84133 0.01432 0.18349 0.0
C235 C 0.8567 0.01532 0.11459 0.0
N236 N 0.87264 0.95265 0.22398 0.0
N237 N 0.86235 0.98578 0.13546 0.0
H238 H 0.42305 0.25213 0.59245 0.0
H239 H 0.47594 0.34655 0.75957 0.0
H240 H 0.37689 0.34755 0.62628 0.0
H241 H 0.54044 0.26963 0.7142 0.0
H242 H 0.42831 0.33205 0.7218 0.0
H243 H 0.45516 0.24451 0.6466 0.0
C244 C 0.41898 0.27088 0.61166 0.0
C245 C 0.39782 0.30081 0.60484 0.0
C246 C 0.45253 0.31758 0.72066 0.0
C247 C 0.43408 0.29228 0.66642 0.0
C248 C 0.47952 0.32564 0.74242 0.0
C249 C 0.51191 0.3092 0.7398 0.0
C250 C 0.45828 0.29346 0.69565 0.0
C251 C 0.51564 0.28266 0.71694 0.0
C252 C 0.43737 0.26663 0.64241 0.0
C253 C 0.39344 0.32443 0.6304 0.0
N254 N 0.4893 0.27605 0.69516 0.0
N255 N 0.41166 0.31984 0.65989 0.0
H256 H 0.67041 0.58047 0.43336 0.0
H257 H 0.76518 0.39606 0.44232 0.0
H258 H 0.75089 0.5521 0.50671 0.0
H259 H 0.69622 0.43341 0.36122 0.0
H260 H 0.77064 0.45713 0.45928 0.0
H261 H 0.68895 0.53208 0.39985 0.0
C262 C 0.6924 0.56433 0.4421 0.0
C263 C 0.70873 0.5698 0.47313 0.0
C264 C 0.75512 0.45217 0.43715 0.0
C265 C 0.7297 0.51376 0.43532 0.0
C266 C 0.75224 0.41739 0.42737 0.0
C267 C 0.72987 0.40993 0.40072 0.0
C268 C 0.73517 0.47928 0.42024 0.0
C269 C 0.7134 0.43824 0.38221 0.0
C270 C 0.70307 0.5367 0.42294 0.0
C271 C 0.73742 0.54852 0.48303 0.0
N272 N 0.71585 0.47158 0.39271 0.0
N273 N 0.7465 0.52084 0.46458 0.0
H274 H 0.92141 0.24733 0.96385 0.0
H275 H 0.97109 0.15614 0.79439 0.0
H276 H 0.87452 0.15277 0.92885 0.0
H277 H 0.0354 0.23392 0.83889 0.0
H278 H 0.92406 0.16973 0.83305 0.0
H279 H 0.95208 0.25637 0.90908 0.0
C280 C 0.91689 0.22907 0.94429 0.0
C281 C 0.89599 0.19894 0.95091 0.0
C282 C 0.9481 0.18456 0.83384 0.0
C283 C 0.93056 0.20909 0.88865 0.0
C284 C 0.97474 0.17701 0.81158 0.0
C285 C 0.00694 0.19392 0.81372 0.0
C286 C 0.95405 0.20861 0.85889 0.0
C287 C 0.01075 0.22048 0.83657 0.0
C288 C 0.93444 0.23414 0.91318 0.0
C289 C 0.89095 0.17599 0.92488 0.0
N290 N 0.98481 0.22653 0.85888 0.0
N291 N 0.90837 0.18135 0.89507 0.0
H292 H 0.32071 0.42575 0.38056 0.0
H293 H 0.38496 0.62743 0.36216 0.0
H294 H 0.36827 0.48039 0.46133 0.0
H295 H 0.38362 0.56275 0.27603 0.0
H296 H 0.36449 0.57666 0.39837 0.0
H297 H 0.33077 0.47869 0.34139 0.0
C298 C 0.33302 0.44889 0.39006 0.0
C299 C 0.34398 0.44862 0.42413 0.0
C300 C 0.36845 0.57364 0.37149 0.0
C301 C 0.35481 0.50896 0.37998 0.0
C302 C 0.38022 0.60257 0.3508 0.0
C303 C 0.38677 0.59915 0.31613 0.0
C304 C 0.36285 0.54098 0.35748 0.0
C305 C 0.37904 0.56654 0.30265 0.0
C306 C 0.33879 0.47893 0.36775 0.0
C307 C 0.35981 0.47925 0.43518 0.0
N308 N 0.36775 0.53852 0.32345 0.0
N309 N 0.36462 0.50813 0.41323 0.0
H310 H 0.03092 0.76247 0.95696 0.0
H311 H 0.8839 0.88754 0.8681 0.0
H312 H 0.03731 0.87653 0.94071 0.0
H313 H 0.86094 0.7827 0.91328 0.0
H314 H 0.94497 0.87847 0.88259 0.0
H315 H 0.97296 0.76465 0.93007 0.0
C316 C 0.02032 0.78783 0.94737 0.0
C317 C 0.03867 0.81941 0.95139 0.0
C318 C 0.92669 0.85728 0.88914 0.0
C319 C 0.97312 0.82203 0.92048 0.0
C320 C 0.89182 0.86246 0.8809 0.0
C321 C 0.86724 0.83612 0.89017 0.0
C322 C 0.93726 0.82551 0.90685 0.0
C323 C 0.87908 0.80376 0.90589 0.0
C324 C 0.98732 0.78907 0.9322 0.0
C325 C 0.02384 0.8516 0.93859 0.0
N326 N 0.9133 0.79948 0.91418 0.0
N327 N 0.99202 0.85205 0.9238 0.0
H328 H 0.74493 0.0488 0.02411 0.0
H329 H 0.79971 0.94933 0.86164 0.0
H330 H 0.81457 0.09041 0.9453 0.0
H331 H 0.7384 0.90082 0.94374 0.0
H332 H 0.79103 0.00723 0.88433 0.0
H333 H 0.72838 0.00119 0.98796 0.0
C334 C 0.75595 0.04849 0.99883 0.0
C335 C 0.78166 0.07303 0.98787 0.0
C336 C 0.77884 0.98412 0.89713 0.0
C337 C 0.76316 0.01883 0.9467 0.0
C338 C 0.78373 0.95119 0.88408 0.0
C339 C 0.76998 0.92058 0.90115 0.0
C340 C 0.76077 0.98627 0.92792 0.0
C341 C 0.74943 0.92404 0.93006 0.0
C342 C 0.74666 0.02124 0.9783 0.0
C343 C 0.79517 0.07152 0.95496 0.0
N344 N 0.74599 0.95632 0.94302 0.0
N345 N 0.78612 0.04458 0.93575 0.0
H346 H 0.45926 0.38028 0.44218 0.0
H347 H 0.63686 0.27586 0.4352 0.0
H348 H 0.46584 0.26834 0.47268 0.0
H349 H 0.61568 0.37321 0.37446 0.0
H350 H 0.57481 0.27111 0.44917 0.0
H351 H 0.51731 0.37776 0.41792 0.0
C352 C 0.47291 0.35511 0.44364 0.0
C353 C 0.45784 0.32453 0.45967 0.0
C354 C 0.58377 0.29323 0.43244 0.0
C355 C 0.5245 0.32148 0.43214 0.0
C356 C 0.6191 0.29588 0.42438 0.0
C357 C 0.6315 0.32535 0.40422 0.0
C358 C 0.56095 0.32038 0.42041 0.0
C359 C 0.60738 0.35057 0.39088 0.0
C360 C 0.50599 0.35363 0.42961 0.0
C361 C 0.47657 0.29253 0.46052 0.0
N362 N 0.5734 0.34775 0.39958 0.0
N363 N 0.50921 0.29191 0.44734 0.0
H364 H 0.08384 0.93906 0.93358 0.0
H365 H 0.14541 0.10777 0.8171 0.0
H366 H 0.19198 0.95827 0.90976 0.0
H367 H 0.03941 0.07046 0.82265 0.0
H368 H 0.16389 0.05339 0.8498 0.0
H369 H 0.0678 0.98767 0.89287 0.0
C370 C 0.1043 0.95359 0.91979 0.0
C371 C 0.13938 0.94483 0.92539 0.0
C372 C 0.13666 0.05699 0.84353 0.0
C373 C 0.12104 0.00079 0.87845 0.0
C374 C 0.12608 0.08793 0.82473 0.0
C375 C 0.09072 0.09388 0.81746 0.0
C376 C 0.11165 0.03201 0.85531 0.0
C377 C 0.06683 0.0674 0.8283 0.0
C378 C 0.09506 0.98125 0.89632 0.0
C379 C 0.16464 0.96425 0.9063 0.0
N380 N 0.07769 0.03783 0.84692 0.0
N381 N 0.15499 0.99165 0.88388 0.0
H382 H 0.56695 0.74602 0.455 0.0
H383 H 0.51787 0.66718 0.27819 0.0
H384 H 0.62056 0.65963 0.41173 0.0
H385 H 0.44522 0.71977 0.34076 0.0
H386 H 0.56517 0.68312 0.31621 0.0
H387 H 0.53224 0.75472 0.40259 0.0
C388 C 0.57216 0.72968 0.43405 0.0
C389 C 0.5962 0.70175 0.43773 0.0
C390 C 0.53902 0.69208 0.32102 0.0
C391 C 0.55691 0.71152 0.37811 0.0
C392 C 0.51219 0.68324 0.29923 0.0
C393 C 0.47786 0.69222 0.30659 0.0
C394 C 0.53127 0.70999 0.3502 0.0
C395 C 0.47151 0.71248 0.33441 0.0
C396 C 0.55226 0.7345 0.40431 0.0
C397 C 0.60186 0.68114 0.40998 0.0
N398 N 0.49793 0.72035 0.35552 0.0
N399 N 0.5821 0.68618 0.38147 0.0
H400 H 0.31343 0.40953 0.60759 0.0
H401 H 0.23369 0.60298 0.59683 0.0
H402 H 0.24695 0.45027 0.52558 0.0
H403 H 0.30182 0.55982 0.67628 0.0
H404 H 0.22535 0.54288 0.57792 0.0
H405 H 0.29604 0.45866 0.64068 0.0
C406 C 0.29459 0.42853 0.59685 0.0
C407 C 0.28211 0.42634 0.56362 0.0
C408 C 0.24143 0.54644 0.60001 0.0
C409 C 0.2628 0.48327 0.60088 0.0
C410 C 0.24604 0.58063 0.61082 0.0
C411 C 0.26883 0.58607 0.63772 0.0
C412 C 0.25987 0.51784 0.61631 0.0
C413 C 0.28439 0.55654 0.6551 0.0
C414 C 0.28467 0.45664 0.61571 0.0
C415 C 0.25737 0.45127 0.55106 0.0
N416 N 0.28001 0.52376 0.6438 0.0
N417 N 0.24914 0.47929 0.5694 0.0
H418 H 0.06328 0.74484 0.07455 0.0
H419 H 0.02019 0.80874 0.25892 0.0
H420 H 0.12486 0.81975 0.12633 0.0
H421 H 0.94301 0.77769 0.18745 0.0
H422 H 0.06598 0.79105 0.22006 0.0
H423 H 0.02717 0.73506 0.12583 0.0
C424 C 0.06999 0.75812 0.09717 0.0
C425 C 0.09674 0.78334 0.09633 0.0
C426 C 0.039 0.78721 0.21338 0.0
C427 C 0.05584 0.77247 0.15453 0.0
C428 C 0.01299 0.79712 0.23553 0.0
C429 C 0.97804 0.79484 0.22603 0.0
C430 C 0.02977 0.77471 0.18181 0.0
C431 C 0.96981 0.77998 0.1954 0.0
C432 C 0.04928 0.75277 0.12623 0.0
C433 C 0.1042 0.80029 0.12604 0.0
N434 N 0.99553 0.77079 0.17414 0.0
N435 N 0.08359 0.79486 0.15387 0.0
H436 H 0.69728 0.5419 0.63316 0.0
H437 H 0.54283 0.43263 0.72795 0.0
H438 H 0.58817 0.55721 0.61102 0.0
H439 H 0.64934 0.39684 0.73252 0.0
H440 H 0.56094 0.48519 0.69288 0.0
H441 H 0.68185 0.49473 0.6769 0.0
C442 C 0.67016 0.5355 0.63759 0.0
C443 C 0.64401 0.5532 0.61812 0.0
C444 C 0.58043 0.46597 0.70169 0.0
C445 C 0.62628 0.49988 0.66812 0.0
C446 C 0.57009 0.43593 0.72166 0.0
C447 C 0.59453 0.41004 0.73271 0.0
C448 C 0.61552 0.47031 0.6926 0.0
C449 C 0.62965 0.41616 0.72452 0.0
C450 C 0.6614 0.50861 0.66247 0.0
C451 C 0.60927 0.54394 0.625 0.0
N452 N 0.63909 0.44555 0.70464 0.0
N453 N 0.60148 0.51798 0.64934 0.0
H454 H 0.96487 0.22722 0.08615 0.0
H455 H 0.11173 0.11104 0.18521 0.0
H456 H 0.95747 0.11453 0.11271 0.0
H457 H 0.13451 0.2103 0.1284 0.0
H458 H 0.05054 0.11846 0.17033 0.0
H459 H 0.02293 0.22713 0.11223 0.0
C460 C 0.97529 0.20259 0.09776 0.0
C461 C 0.95653 0.17074 0.09697 0.0
C462 C 0.06885 0.13878 0.16133 0.0
C463 C 0.02235 0.17061 0.127 0.0
C464 C 0.10376 0.13456 0.16977 0.0
C465 C 0.1283 0.15972 0.15737 0.0
C466 C 0.05825 0.16845 0.1404 0.0
C467 C 0.11642 0.19019 0.13829 0.0
C468 C 0.00837 0.20257 0.1125 0.0
C469 C 0.97121 0.13958 0.11234 0.0
N470 N 0.08217 0.19354 0.13 0.0
N471 N 0.00322 0.14031 0.12668 0.0
H472 H 0.2853 0.80586 0.03981 0.0
H473 H 0.33214 0.62451 0.14819 0.0
H474 H 0.22144 0.71162 0.04172 0.0
H475 H 0.38383 0.72418 0.16052 0.0
H476 H 0.29629 0.65375 0.10295 0.0
H477 H 0.32663 0.77388 0.07775 0.0
C478 C 0.28007 0.77835 0.0479 0.0
C479 C 0.2496 0.76154 0.03768 0.0
C480 C 0.31561 0.66917 0.11543 0.0
C481 C 0.29693 0.7248 0.08131 0.0
C482 C 0.33608 0.65249 0.14114 0.0
C483 C 0.36073 0.67201 0.1582 0.0
C484 C 0.31997 0.70563 0.10665 0.0
C485 C 0.36494 0.70817 0.14816 0.0
C486 C 0.30367 0.76015 0.06969 0.0
C487 C 0.24438 0.72581 0.04907 0.0
N488 N 0.34465 0.72384 0.1231 0.0
N489 N 0.26772 0.7087 0.07038 0.0
H490 H 0.6629 0.75884 0.64186 0.0
H491 H 0.76588 0.70882 0.81593 0.0
H492 H 0.72267 0.66279 0.66262 0.0
H493 H 0.71038 0.80742 0.79578 0.0
H494 H 0.74595 0.68965 0.76116 0.0
H495 H 0.67622 0.77573 0.69947 0.0
C496 C 0.67871 0.74129 0.65846 0.0
C497 C 0.69188 0.70949 0.64718 0.0
C498 C 0.73794 0.71541 0.76877 0.0
C499 C 0.70706 0.72854 0.71303 0.0
C500 C 0.74924 0.72626 0.80005 0.0
C501 C 0.73992 0.75971 0.81024 0.0
C502 C 0.71725 0.7383 0.74747 0.0
C503 C 0.71831 0.78141 0.78881 0.0
C504 C 0.68629 0.75093 0.69133 0.0
C505 C 0.71214 0.68773 0.66992 0.0
N506 N 0.70786 0.7704 0.7583 0.0
N507 N 0.71913 0.6977 0.7016 0.0
H508 H 0.85323 0.25057 0.15737 0.0
H509 H 0.74604 0.23412 0.33142 0.0
H510 H 0.7686 0.17689 0.17747 0.0
H511 H 0.83473 0.30303 0.31476 0.0
H512 H 0.75574 0.21097 0.27598 0.0
H513 H 0.84802 0.26904 0.2153 0.0
C514 C 0.83349 0.2383 0.17388 0.0
C515 C 0.81119 0.21222 0.16236 0.0
C516 C 0.77328 0.23096 0.28448 0.0
C517 C 0.80527 0.23319 0.22887 0.0
C518 C 0.76778 0.24417 0.31619 0.0
C519 C 0.78952 0.27075 0.32749 0.0
C520 C 0.80057 0.24458 0.26382 0.0
C521 C 0.8174 0.28257 0.30684 0.0
C522 C 0.83065 0.24878 0.20704 0.0
C523 C 0.78629 0.19717 0.18509 0.0
N524 N 0.82197 0.26964 0.2758 0.0
N525 N 0.78396 0.20794 0.21719 0.0
H526 H 0.20869 0.30437 0.54077 0.0
H527 H 0.20388 0.16935 0.70479 0.0
H528 H 0.2832 0.21981 0.56101 0.0
H529 H 0.11616 0.23518 0.67394 0.0
H530 H 0.23264 0.18745 0.65117 0.0
H531 H 0.17287 0.27861 0.58746 0.0
C532 C 0.21729 0.28009 0.55459 0.0
C533 C 0.24935 0.26457 0.54719 0.0
C534 C 0.207 0.1978 0.65591 0.0
C535 C 0.20866 0.23532 0.6009 0.0
C536 C 0.1907 0.18762 0.68658 0.0
C537 C 0.1578 0.20095 0.69375 0.0
C538 C 0.19046 0.22193 0.63235 0.0
C539 C 0.14164 0.22438 0.66935 0.0
C540 C 0.19682 0.26547 0.58131 0.0
C541 C 0.25896 0.23303 0.56593 0.0
N542 N 0.15831 0.23442 0.63976 0.0
N543 N 0.23895 0.21977 0.59217 0.0
H544 H 0.70988 0.74858 0.45494 0.0
H545 H 0.88796 0.84187 0.42131 0.0
H546 H 0.7914 0.72178 0.52763 0.0
H547 H 0.84554 0.77664 0.34578 0.0
H548 H 0.84636 0.81479 0.46329 0.0
H549 H 0.75314 0.77712 0.41629 0.0
C550 C 0.73681 0.7492 0.46293 0.0
C551 C 0.74726 0.73286 0.49439 0.0
C552 C 0.84646 0.80652 0.43749 0.0
C553 C 0.79624 0.76586 0.45085 0.0
C554 C 0.8699 0.8219 0.41368 0.0
C555 C 0.87017 0.81111 0.38034 0.0
C556 C 0.82253 0.78138 0.42725 0.0
C557 C 0.84632 0.7853 0.37141 0.0
C558 C 0.76133 0.76525 0.44088 0.0
C559 C 0.7825 0.73401 0.50346 0.0
N560 N 0.82305 0.77161 0.39466 0.0
N561 N 0.80588 0.75057 0.48182 0.0
H562 H 0.7091 0.19282 0.01119 0.0
H563 H 0.7042 0.34148 0.85761 0.0
H564 H 0.78149 0.2803 -0.00046 0.0
H565 H 0.61917 0.26894 0.87898 0.0
H566 H 0.73183 0.31974 0.91088 0.0
H567 H 0.67394 0.22114 0.96507 0.0
C568 C 0.71735 0.21823 -0.0006 0.0
C569 C 0.74864 0.23391 0.00905 0.0
C570 C 0.70701 0.30868 0.90415 0.0
C571 C 0.70872 0.26614 0.95596 0.0
C572 C 0.69134 0.32099 0.87367 0.0
C573 C 0.65955 0.30685 0.8639 0.0
C574 C 0.69098 0.28164 0.9249 0.0
C575 C 0.64379 0.28048 0.88561 0.0
C576 C 0.69728 0.23431 0.97298 0.0
C577 C 0.75786 0.26691 0.99282 0.0
N578 N 0.65986 0.26845 0.91504 0.0
N579 N 0.73825 0.28164 0.96685 0.0
H580 H 0.27081 0.31781 0.37762 0.0
H581 H 0.33305 0.17644 0.24819 0.0
H582 H 0.35198 0.24076 0.401 0.0
H583 H 0.24714 0.24866 0.22936 0.0
H584 H 0.34451 0.20349 0.30193 0.0
H585 H 0.26526 0.29591 0.32118 0.0
C586 C 0.28748 0.29626 0.37096 0.0
C587 C 0.31176 0.28097 0.3943 0.0
C588 C 0.32332 0.21356 0.28589 0.0
C589 C 0.30558 0.25583 0.32941 0.0
C590 C 0.31692 0.19827 0.25521 0.0
C591 C 0.28897 0.21011 0.23457 0.0
C592 C 0.3016 0.24091 0.29582 0.0
C593 C 0.26877 0.23843 0.24469 0.0
C594 C 0.28433 0.28381 0.33862 0.0
C595 C 0.33275 0.25324 0.38399 0.0
N596 N 0.27537 0.25271 0.2747 0.0
N597 N 0.32911 0.2415 0.35233 0.0
H598 H 0.16054 0.74534 0.88789 0.0
H599 H 0.27009 0.79887 0.719 0.0
H600 H 0.22639 0.83801 0.87494 0.0
H601 H 0.20713 0.70435 0.73212 0.0
H602 H 0.2505 0.81606 0.77463 0.0
H603 H 0.17402 0.73176 0.82949 0.0
C604 C 0.17775 0.76286 0.87283 0.0
C605 C 0.19251 0.79273 0.88653 0.0
C606 C 0.24078 0.79166 0.76525 0.0
C607 C 0.20793 0.77741 0.81967 0.0
C608 C 0.25188 0.78196 0.73349 0.0
C609 C 0.24039 0.75014 0.72111 0.0
C610 C 0.21809 0.76926 0.78477 0.0
C611 C 0.21681 0.72906 0.7408 0.0
C612 C 0.18541 0.75511 0.83947 0.0
C613 C 0.21454 0.81454 0.86568 0.0
N614 N 0.2066 0.7389 0.77177 0.0
N615 N 0.22162 0.80638 0.83341 0.0
loop_
_geom_bond_atom_site_label_1
_geom_bond_atom_site_label_2
_geom_bond_distance
_geom_bond_site_symmetry_2
_ccdc_geom_bond_type
Sc0 O3 2.025 . S
Sc0 O10 2.105 1_554 S
Sc0 O13 2.105 . S
Sc0 O16 2.105 . S
Sc0 O19 2.105 1_554 S
Sc1 O3 2.025 . S
Sc1 O11 2.105 1_554 S
Sc1 O15 2.105 . S
Sc1 O17 2.105 . S
Sc1 O21 2.105 1_554 S
Sc2 O3 2.025 1_556 S
Sc2 O12 2.105 . S
Sc2 O14 2.105 1_556 S
Sc2 O18 2.105 1_556 S
Sc2 O20 2.105 . S
O3 Sc0 2.025 . S
O3 Sc1 2.025 . S
O3 Sc2 2.025 1_554 S
C4 O10 1.268 . S
C4 O20 1.268 . S
C5 O11 1.268 . S
C5 O19 1.268 . S
C6 O12 1.268 . S
C6 O21 1.268 . S
C7 O13 1.268 . S
C7 O17 1.268 . S
C8 O14 1.268 . S
C8 O16 1.268 . S
C9 O15 1.268 . S
C9 O18 1.268 . S
O10 Sc0 2.105 1_556 S
O10 C4 1.268 . S
O11 Sc1 2.105 1_556 S
O11 C5 1.268 . S
O12 Sc2 2.105 . S
O12 C6 1.268 . S
O13 Sc0 2.105 . S
O13 C7 1.268 . S
O14 Sc2 2.105 1_554 S
O14 C8 1.268 . S
O15 Sc1 2.105 . S
O15 C9 1.268 . S
O16 Sc0 2.105 . S
O16 C8 1.268 . S
O17 Sc1 2.105 . S
O17 C7 1.268 . S
O18 Sc2 2.105 1_554 S
O18 C9 1.268 . S
O19 Sc0 2.105 1_556 S
O19 C5 1.268 . S
O20 Sc2 2.105 . S
O20 C4 1.268 . S
O21 Sc1 2.105 1_556 S
O21 C6 1.268 . S
Sc22 O25 2.025 . S
Sc22 O32 2.105 . S
Sc22 O35 2.105 . S
Sc22 O38 2.105 . S
Sc22 O41 2.105 . S
Sc23 O25 2.025 . S
Sc23 O33 2.105 . S
Sc23 O37 2.105 . S
Sc23 O39 2.105 . S
Sc23 O43 2.105 . S
Sc24 O25 2.025 . S
Sc24 O34 2.105 . S
Sc24 O36 2.105 . S
Sc24 O40 2.105 . S
Sc24 O42 2.105 . S
O25 Sc22 2.025 . S
O25 Sc23 2.025 . S
O25 Sc24 2.025 . S
C26 O32 1.268 . S
C26 O42 1.268 . S
C27 O33 1.268 . S
C27 O41 1.268 . S
C28 O34 1.268 . S
C28 O43 1.268 . S
C29 O35 1.268 . S
C29 O39 1.268 . S
C30 O36 1.268 . S
C30 O38 1.268 . S
C31 O37 1.268 . S
C31 O40 1.268 . S
O32 Sc22 2.105 . S
O32 C26 1.268 . S
O33 Sc23 2.105 . S
O33 C27 1.268 . S
O34 Sc24 2.105 . S
O34 C28 1.268 . S
O35 Sc22 2.105 . S
O35 C29 1.268 . S
O36 Sc24 2.105 . S
O36 C30 1.268 . S
O37 Sc23 2.105 . S
O37 C31 1.268 . S
O38 Sc22 2.105 . S
O38 C30 1.268 . S
O39 Sc23 2.105 . S
O39 C29 1.268 . S
O40 Sc24 2.105 . S
O40 C31 1.268 . S
O41 Sc22 2.105 . S
O41 C27 1.268 . S
O42 Sc24 2.105 . S
O42 C26 1.268 . S
O43 Sc23 2.105 . S
O43 C28 1.268 . S
Sc44 O47 2.025 . S
Sc44 O54 2.105 1_554 S
Sc44 O57 2.105 . S
Sc44 O60 2.105 . S
Sc44 O63 2.105 . S
Sc45 O47 2.025 . S
Sc45 O55 2.105 . S
Sc45 O59 2.105 . S
Sc45 O61 2.105 . S
Sc45 O65 2.105 . S
Sc46 O47 2.025 . S
Sc46 O56 2.105 . S
Sc46 O58 2.105 . S
Sc46 O62 2.105 . S
Sc46 O64 2.105 1_554 S
O47 Sc44 2.025 . S
O47 Sc45 2.025 . S
O47 Sc46 2.025 . S
C48 O54 1.268 . S
C48 O64 1.268 . S
C49 O55 1.268 1_556 S
C49 O63 1.268 1_556 S
C50 O56 1.270 . S
C50 O65 1.274 . S
C51 O57 1.268 . S
C51 O61 1.268 . S
C52 O58 1.268 . S
C52 O60 1.268 . S
C53 O59 1.268 . S
C53 O62 1.268 . S
O54 Sc44 2.105 1_556 S
O54 C48 1.268 . S
O55 Sc45 2.105 . S
O55 C49 1.268 1_554 S
O56 Sc46 2.105 . S
O56 C50 1.270 . S
O57 Sc44 2.105 . S
O57 C51 1.268 . S
O58 Sc46 2.105 . S
O58 C52 1.268 . S
O59 Sc45 2.105 . S
O59 C53 1.268 . S
O60 Sc44 2.105 . S
O60 C52 1.268 . S
O61 Sc45 2.105 . S
O61 C51 1.268 . S
O62 Sc46 2.105 . S
O62 C53 1.268 . S
O63 Sc44 2.105 . S
O63 C49 1.268 1_554 S
O64 Sc46 2.105 1_556 S
O64 C48 1.268 . S
O65 Sc45 2.105 . S
O65 C50 1.274 . S
Sc66 O69 2.025 . S
Sc66 O76 2.105 . S
Sc66 O79 2.105 . S
Sc66 O82 2.105 . S
Sc66 O85 2.105 . S
Sc67 O69 2.025 . S
Sc67 O77 2.105 . S
Sc67 O81 2.105 . S
Sc67 O83 2.105 . S
Sc67 O87 2.105 . S
Sc68 O69 2.025 . S
Sc68 O78 2.105 . S
Sc68 O80 2.105 . S
Sc68 O84 2.105 . S
Sc68 O86 2.105 . S
O69 Sc66 2.025 . S
O69 Sc67 2.025 . S
O69 Sc68 2.025 . S
C70 O76 1.268 . S
C70 O86 1.268 . S
C71 O77 1.268 . S
C71 O85 1.268 . S
C72 O78 1.268 . S
C72 O87 1.268 . S
C73 O79 1.268 . S
C73 O83 1.268 . S
C74 O80 1.268 . S
C74 O82 1.268 . S
C75 O81 1.268 . S
C75 O84 1.268 . S
O76 Sc66 2.105 . S
O76 C70 1.268 . S
O77 Sc67 2.105 . S
O77 C71 1.268 . S
O78 Sc68 2.105 . S
O78 C72 1.268 . S
O79 Sc66 2.105 . S
O79 C73 1.268 . S
O80 Sc68 2.105 . S
O80 C74 1.268 . S
O81 Sc67 2.105 . S
O81 C75 1.268 . S
O82 Sc66 2.105 . S
O82 C74 1.268 . S
O83 Sc67 2.105 . S
O83 C73 1.268 . S
O84 Sc68 2.105 . S
O84 C75 1.268 . S
O85 Sc66 2.105 . S
O85 C71 1.268 . S
O86 Sc68 2.105 . S
O86 C70 1.268 . S
O87 Sc67 2.105 . S
O87 C72 1.268 . S
H88 C93 0.930 . S
H89 C96 0.930 . S
H90 C98 0.930 . S
H91 C92 1.016 . S
C92 H91 1.016 . S
C92 N99 1.286 . S
C93 H88 0.930 . S
C93 C94 1.397 . S
C93 C95 1.361 . S
C94 C93 1.397 . S
C94 C98 1.390 . S
C95 C93 1.361 . S
C95 C96 1.393 . S
C95 N99 1.413 . S
C96 H89 0.930 . S
C96 C95 1.393 . S
C96 C97 1.399 . S
C97 C96 1.399 . S
C97 C98 1.381 . S
C98 H90 0.930 . S
C98 C94 1.390 . S
C98 C97 1.381 . S
N99 C92 1.286 . S
N99 C95 1.413 . S
H100 C105 0.930 . S
H101 C108 0.930 . S
H102 C110 0.930 . S
H103 C104 1.016 . S
C104 H103 1.016 . S
C104 N111 1.286 . S
C105 H100 0.930 . S
C105 C106 1.397 . S
C105 C107 1.361 . S
C106 C105 1.397 . S
C106 C110 1.390 . S
C107 C105 1.361 . S
C107 C108 1.393 . S
C107 N111 1.413 . S
C108 H101 0.930 . S
C108 C107 1.393 . S
C108 C109 1.399 . S
C109 C108 1.399 . S
C109 C110 1.381 . S
C110 H102 0.930 . S
C110 C106 1.390 . S
C110 C109 1.381 . S
N111 C104 1.286 . S
N111 C107 1.413 . S
H112 C117 0.930 . S
H113 C120 0.930 . S
H114 C122 0.930 . S
H115 C116 1.016 . S
C116 H115 1.016 . S
C116 N123 1.286 . S
C117 H112 0.930 . S
C117 C118 1.397 . S
C117 C119 1.361 . S
C118 C117 1.397 . S
C118 C122 1.390 . S
C119 C117 1.361 . S
C119 C120 1.393 . S
C119 N123 1.413 . S
C120 H113 0.930 . S
C120 C119 1.393 . S
C120 C121 1.399 . S
C121 C120 1.399 . S
C121 C122 1.381 . S
C122 H114 0.930 . S
C122 C118 1.390 . S
C122 C121 1.381 . S
N123 C116 1.286 . S
N123 C119 1.413 . S
H124 C129 0.930 . S
H125 C132 0.930 . S
H126 C134 0.930 . S
H127 C128 1.016 . S
C128 H127 1.016 . S
C128 N135 1.286 . S
C129 H124 0.930 . S
C129 C130 1.397 . S
C129 C131 1.361 . S
C130 C129 1.397 . S
C130 C134 1.390 . S
C131 C129 1.361 . S
C131 C132 1.393 . S
C131 N135 1.413 . S
C132 H125 0.930 . S
C132 C131 1.393 . S
C132 C133 1.399 . S
C133 C132 1.399 . S
C133 C134 1.381 . S
C134 H126 0.930 . S
C134 C130 1.390 . S
C134 C133 1.381 . S
N135 C128 1.286 . S
N135 C131 1.413 . S
H136 C141 0.930 . S
H137 C144 0.930 . S
H138 C146 0.930 . S
H139 C140 1.016 . S
C140 H139 1.016 . S
C140 N147 1.286 . S
C141 H136 0.930 . S
C141 C142 1.397 . S
C141 C143 1.361 . S
C142 C141 1.397 . S
C142 C146 1.390 . S
C143 C141 1.361 . S
C143 C144 1.393 . S
C143 N147 1.413 . S
C144 H137 0.930 . S
C144 C143 1.393 . S
C144 C145 1.399 . S
C145 C144 1.399 . S
C145 C146 1.381 . S
C146 H138 0.930 . S
C146 C142 1.390 . S
C146 C145 1.381 . S
N147 C140 1.286 . S
N147 C143 1.413 . S
H148 C153 0.930 . S
H149 C156 0.930 . S
H150 C158 0.930 . S
H151 C152 1.016 . S
C152 H151 1.016 . S
C152 N159 1.286 . S
C153 H148 0.930 . S
C153 C154 1.397 . S
C153 C155 1.361 . S
C154 C153 1.397 . S
C154 C158 1.390 . S
C155 C153 1.361 . S
C155 C156 1.393 . S
C155 N159 1.413 . S
C156 H149 0.930 . S
C156 C155 1.393 . S
C156 C157 1.399 . S
C157 C156 1.399 . S
C157 C158 1.381 . S
C158 H150 0.930 . S
C158 C154 1.390 . S
C158 C157 1.381 . S
N159 C152 1.286 . S
N159 C155 1.413 . S
H160 C165 0.930 . S
H161 C168 0.930 . S
H162 C170 0.930 . S
H163 C164 1.016 . S
C164 H163 1.016 . S
C164 N171 1.286 . S
C165 H160 0.930 . S
C165 C166 1.397 . S
C165 C167 1.361 . S
C166 C165 1.397 . S
C166 C170 1.390 . S
C167 C165 1.361 . S
C167 C168 1.393 . S
C167 N171 1.413 . S
C168 H161 0.930 . S
C168 C167 1.393 . S
C168 C169 1.399 . S
C169 C168 1.399 . S
C169 C170 1.381 . S
C170 H162 0.930 . S
C170 C166 1.390 . S
C170 C169 1.381 . S
N171 C164 1.286 . S
N171 C167 1.413 . S
H172 C177 0.930 . S
H173 C180 0.930 . S
H174 C182 0.930 . S
H175 C176 1.016 . S
C176 H175 1.016 . S
C176 N183 1.286 . S
C177 H172 0.930 . S
C177 C178 1.397 . S
C177 C179 1.361 . S
C178 C177 1.397 . S
C178 C182 1.390 . S
C179 C177 1.361 . S
C179 C180 1.393 . S
C179 N183 1.413 . S
C180 H173 0.930 . S
C180 C179 1.393 . S
C180 C181 1.399 . S
C181 C180 1.399 . S
C181 C182 1.381 . S
C182 H174 0.930 . S
C182 C178 1.390 . S
C182 C181 1.381 . S
N183 C176 1.286 . S
N183 C179 1.413 . S
H184 C190 0.930 . S
H185 C194 0.930 . S
H186 C199 0.929 . S
H187 C197 0.929 . S
H188 C192 0.929 . S
H189 C198 0.929 . S
C190 H184 0.930 . S
C190 C191 1.367 . S
C190 C198 1.378 1_565 S
C191 C190 1.367 . S
C191 C199 1.433 . S
C192 H188 0.929 . S
C192 C194 1.378 . S
C192 C196 1.350 . S
C193 C196 1.463 . S
C193 C198 1.350 . S
C193 N201 1.427 . S
C194 H185 0.930 . S
C194 C192 1.378 . S
C194 C195 1.367 . S
C195 C194 1.367 . S
C195 C197 1.433 . S
C196 C192 1.350 . S
C196 C193 1.463 . S
C196 N200 1.427 . S
C197 H187 0.929 . S
C197 C195 1.433 . S
C197 N200 1.384 . S
C198 H189 0.929 . S
C198 C190 1.378 1_545 S
C198 C193 1.350 . S
C199 H186 0.929 . S
C199 C191 1.433 . S
C199 N201 1.384 1_565 S
N200 C196 1.427 . S
N200 C197 1.384 . S
N201 C193 1.427 . S
N201 C199 1.384 1_545 S
H202 C208 0.930 . S
H203 C212 0.930 . S
H204 C217 0.929 . S
H205 C215 0.929 . S
H206 C210 0.929 . S
H207 C216 0.929 . S
C208 H202 0.930 . S
C208 C209 1.367 . S
C208 C216 1.378 . S
C209 C208 1.367 . S
C209 C217 1.433 . S
C210 H206 0.929 . S
C210 C212 1.378 . S
C210 C214 1.350 . S
C211 C214 1.463 . S
C211 C216 1.350 . S
C211 N219 1.427 . S
C212 H203 0.930 . S
C212 C210 1.378 . S
C212 C213 1.367 . S
C213 C212 1.367 . S
C213 C215 1.433 . S
C214 C210 1.350 . S
C214 C211 1.463 . S
C214 N218 1.427 . S
C215 H205 0.929 . S
C215 C213 1.433 . S
C215 N218 1.384 . S
C216 H207 0.929 . S
C216 C208 1.378 . S
C216 C211 1.350 . S
C217 H204 0.929 . S
C217 C209 1.433 . S
C217 N219 1.384 . S
N218 C214 1.427 . S
N218 C215 1.384 . S
N219 C211 1.427 . S
N219 C217 1.384 . S
H220 C226 0.930 . S
H221 C230 0.930 . S
H222 C235 0.929 . S
H223 C233 0.929 . S
H224 C228 0.929 . S
H225 C234 0.929 . S
C226 H220 0.930 . S
C226 C227 1.367 . S
C226 C234 1.378 . S
C227 C226 1.367 . S
C227 C235 1.433 . S
C228 H224 0.929 . S
C228 C230 1.378 . S
C228 C232 1.350 . S
C229 C232 1.463 . S
C229 C234 1.350 1_565 S
C229 N237 1.427 . S
C230 H221 0.930 . S
C230 C228 1.378 . S
C230 C231 1.367 . S
C231 C230 1.367 . S
C231 C233 1.433 . S
C232 C228 1.350 . S
C232 C229 1.463 . S
C232 N236 1.427 . S
C233 H223 0.929 . S
C233 C231 1.433 . S
C233 N236 1.384 . S
C234 H225 0.929 . S
C234 C226 1.378 . S
C234 C229 1.350 1_545 S
C235 H222 0.929 . S
C235 C227 1.433 . S
C235 N237 1.384 1_545 S
N236 C232 1.427 . S
N236 C233 1.384 . S
N237 C229 1.427 . S
N237 C235 1.384 1_565 S
H238 C244 0.930 . S
H239 C248 0.930 . S
H240 C253 0.929 . S
H241 C251 0.929 . S
H242 C246 0.929 . S
H243 C252 0.929 . S
C244 H238 0.930 . S
C244 C245 1.367 . S
C244 C252 1.378 . S
C245 C244 1.367 . S
C245 C253 1.433 . S
C246 H242 0.929 . S
C246 C248 1.378 . S
C246 C250 1.350 . S
C247 C250 1.463 . S
C247 C252 1.350 . S
C247 N255 1.427 . S
C248 H239 0.930 . S
C248 C246 1.378 . S
C248 C249 1.367 . S
C249 C248 1.367 . S
C249 C251 1.433 . S
C250 C246 1.350 . S
C250 C247 1.463 . S
C250 N254 1.427 . S
C251 H241 0.929 . S
C251 C249 1.433 . S
C251 N254 1.384 . S
C252 H243 0.929 . S
C252 C244 1.378 . S
C252 C247 1.350 . S
C253 H240 0.929 . S
C253 C245 1.433 . S
C253 N255 1.384 . S
N254 C250 1.427 . S
N254 C251 1.384 . S
N255 C247 1.427 . S
N255 C253 1.384 . S
H256 C262 0.930 . S
H257 C266 0.930 . S
H258 C271 0.929 . S
H259 C269 0.929 . S
H260 C264 0.929 . S
H261 C270 0.929 . S
C262 H256 0.930 . S
C262 C263 1.367 . S
C262 C270 1.378 . S
C263 C262 1.367 . S
C263 C271 1.433 . S
C264 H260 0.929 . S
C264 C266 1.378 . S
C264 C268 1.350 . S
C265 C268 1.463 . S
C265 C270 1.350 . S
C265 N273 1.427 . S
C266 H257 0.930 . S
C266 C264 1.378 . S
C266 C267 1.367 . S
C267 C266 1.367 . S
C267 C269 1.433 . S
C268 C264 1.350 . S
C268 C265 1.463 . S
C268 N272 1.427 . S
C269 H259 0.929 . S
C269 C267 1.433 . S
C269 N272 1.384 . S
C270 H261 0.929 . S
C270 C262 1.378 . S
C270 C265 1.350 . S
C271 H258 0.929 . S
C271 C263 1.433 . S
C271 N273 1.384 . S
N272 C268 1.427 . S
N272 C269 1.384 . S
N273 C265 1.427 . S
N273 C271 1.384 . S
H274 C280 0.930 . S
H275 C284 0.930 . S
H276 C289 0.929 . S
H277 C287 0.929 . S
H278 C282 0.929 . S
H279 C288 0.929 1_455 S
C280 H274 0.930 . S
C280 C281 1.367 . S
C280 C288 1.378 . S
C281 C280 1.367 . S
C281 C289 1.433 . S
C282 H278 0.929 . S
C282 C284 1.378 . S
C282 C286 1.350 . S
C283 C286 1.463 . S
C283 C288 1.350 . S
C283 N291 1.427 . S
C284 H275 0.930 . S
C284 C282 1.378 . S
C284 C285 1.367 1_655 S
C285 C284 1.367 1_455 S
C285 C287 1.433 . S
C286 C282 1.350 . S
C286 C283 1.463 . S
C286 N290 1.427 1_655 S
C287 H277 0.929 . S
C287 C285 1.433 . S
C287 N290 1.384 . S
C288 H279 0.929 1_655 S
C288 C280 1.378 . S
C288 C283 1.350 . S
C289 H276 0.929 . S
C289 C281 1.433 . S
C289 N291 1.384 . S
N290 C286 1.427 1_455 S
N290 C287 1.384 . S
N291 C283 1.427 . S
N291 C289 1.384 . S
H292 C298 0.930 . S
H293 C302 0.930 . S
H294 C307 0.929 . S
H295 C305 0.929 . S
H296 C300 0.929 . S
H297 C306 0.929 . S
C298 H292 0.930 . S
C298 C299 1.367 . S
C298 C306 1.378 . S
C299 C298 1.367 . S
C299 C307 1.433 . S
C300 H296 0.929 . S
C300 C302 1.378 . S
C300 C304 1.350 . S
C301 C304 1.463 . S
C301 C306 1.350 . S
C301 N309 1.427 . S
C302 H293 0.930 . S
C302 C300 1.378 . S
C302 C303 1.367 . S
C303 C302 1.367 . S
C303 C305 1.433 . S
C304 C300 1.350 . S
C304 C301 1.463 . S
C304 N308 1.427 . S
C305 H295 0.929 . S
C305 C303 1.433 . S
C305 N308 1.384 . S
C306 H297 0.929 . S
C306 C298 1.378 . S
C306 C301 1.350 . S
C307 H294 0.929 . S
C307 C299 1.433 . S
C307 N309 1.384 . S
N308 C304 1.427 . S
N308 C305 1.384 . S
N309 C301 1.427 . S
N309 C307 1.384 . S
H310 C316 0.930 . S
H311 C320 0.930 . S
H312 C325 0.929 . S
H313 C323 0.929 . S
H314 C318 0.929 . S
H315 C324 0.929 . S
C316 H310 0.930 . S
C316 C317 1.367 . S
C316 C324 1.378 1_455 S
C317 C316 1.367 . S
C317 C325 1.433 . S
C318 H314 0.929 . S
C318 C320 1.378 . S
C318 C322 1.350 . S
C319 C322 1.463 . S
C319 C324 1.350 . S
C319 N327 1.427 . S
C320 H311 0.930 . S
C320 C318 1.378 . S
C320 C321 1.367 . S
C321 C320 1.367 . S
C321 C323 1.433 . S
C322 C318 1.350 . S
C322 C319 1.463 . S
C322 N326 1.427 . S
C323 H313 0.929 . S
C323 C321 1.433 . S
C323 N326 1.384 . S
C324 H315 0.929 . S
C324 C316 1.378 1_655 S
C324 C319 1.350 . S
C325 H312 0.929 . S
C325 C317 1.433 . S
C325 N327 1.384 1_455 S
N326 C322 1.427 . S
N326 C323 1.384 . S
N327 C319 1.427 . S
N327 C325 1.384 1_655 S
H328 C334 0.930 1_554 S
H329 C338 0.930 . S
H330 C343 0.929 . S
H331 C341 0.929 . S
H332 C336 0.929 . S
H333 C342 0.929 . S
C334 H328 0.930 1_556 S
C334 C335 1.367 . S
C334 C342 1.378 1_545 S
C335 C334 1.367 . S
C335 C343 1.433 . S
C336 H332 0.929 . S
C336 C338 1.378 . S
C336 C340 1.350 . S
C337 C340 1.463 . S
C337 C342 1.350 . S
C337 N345 1.427 1_565 S
C338 H329 0.930 . S
C338 C336 1.378 . S
C338 C339 1.367 . S
C339 C338 1.367 . S
C339 C341 1.433 . S
C340 C336 1.350 . S
C340 C337 1.463 . S
C340 N344 1.427 . S
C341 H331 0.929 . S
C341 C339 1.433 . S
C341 N344 1.384 . S
C342 H333 0.929 . S
C342 C334 1.378 1_565 S
C342 C337 1.350 . S
C343 H330 0.929 . S
C343 C335 1.433 . S
C343 N345 1.384 . S
N344 C340 1.427 . S
N344 C341 1.384 . S
N345 C337 1.427 1_545 S
N345 C343 1.384 . S
H346 C352 0.930 . S
H347 C356 0.930 . S
H348 C361 0.929 . S
H349 C359 0.929 . S
H350 C354 0.929 . S
H351 C360 0.929 . S
C352 H346 0.930 . S
C352 C353 1.367 . S
C352 C360 1.378 . S
C353 C352 1.367 . S
C353 C361 1.433 . S
C354 H350 0.929 . S
C354 C356 1.378 . S
C354 C358 1.350 . S
C355 C358 1.463 . S
C355 C360 1.350 . S
C355 N363 1.427 . S
C356 H347 0.930 . S
C356 C354 1.378 . S
C356 C357 1.367 . S
C357 C356 1.367 . S
C357 C359 1.433 . S
C358 C354 1.350 . S
C358 C355 1.463 . S
C358 N362 1.427 . S
C359 H349 0.929 . S
C359 C357 1.433 . S
C359 N362 1.384 . S
C360 H351 0.929 . S
C360 C352 1.378 . S
C360 C355 1.350 . S
C361 H348 0.929 . S
C361 C353 1.433 . S
C361 N363 1.384 . S
N362 C358 1.427 . S
N362 C359 1.384 . S
N363 C355 1.427 . S
N363 C361 1.384 . S
H364 C370 0.930 . S
H365 C374 0.930 . S
H366 C379 0.929 . S
H367 C377 0.929 . S
H368 C372 0.929 . S
H369 C378 0.929 . S
C370 H364 0.930 . S
C370 C371 1.367 . S
C370 C378 1.378 . S
C371 C370 1.367 . S
C371 C379 1.433 . S
C372 H368 0.929 . S
C372 C374 1.378 . S
C372 C376 1.350 . S
C373 C376 1.463 . S
C373 C378 1.350 1_545 S
C373 N381 1.427 . S
C374 H365 0.930 . S
C374 C372 1.378 . S
C374 C375 1.367 . S
C375 C374 1.367 . S
C375 C377 1.433 . S
C376 C372 1.350 . S
C376 C373 1.463 . S
C376 N380 1.427 . S
C377 H367 0.929 . S
C377 C375 1.433 . S
C377 N380 1.384 . S
C378 H369 0.929 . S
C378 C370 1.378 . S
C378 C373 1.350 1_565 S
C379 H366 0.929 . S
C379 C371 1.433 . S
C379 N381 1.384 1_565 S
N380 C376 1.427 . S
N380 C377 1.384 . S
N381 C373 1.427 . S
N381 C379 1.384 1_545 S
H382 C388 0.930 . S
H383 C392 0.930 . S
H384 C397 0.929 . S
H385 C395 0.929 . S
H386 C390 0.929 . S
H387 C396 0.929 . S
C388 H382 0.930 . S
C388 C389 1.367 . S
C388 C396 1.378 . S
C389 C388 1.367 . S
C389 C397 1.433 . S
C390 H386 0.929 . S
C390 C392 1.378 . S
C390 C394 1.350 . S
C391 C394 1.463 . S
C391 C396 1.350 . S
C391 N399 1.427 . S
C392 H383 0.930 . S
C392 C390 1.378 . S
C392 C393 1.367 . S
C393 C392 1.367 . S
C393 C395 1.433 . S
C394 C390 1.350 . S
C394 C391 1.463 . S
C394 N398 1.427 . S
C395 H385 0.929 . S
C395 C393 1.433 . S
C395 N398 1.384 . S
C396 H387 0.929 . S
C396 C388 1.378 . S
C396 C391 1.350 . S
C397 H384 0.929 . S
C397 C389 1.433 . S
C397 N399 1.384 . S
N398 C394 1.427 . S
N398 C395 1.384 . S
N399 C391 1.427 . S
N399 C397 1.384 . S
H400 C406 0.930 . S
H401 C410 0.930 . S
H402 C415 0.929 . S
H403 C413 0.929 . S
H404 C408 0.929 . S
H405 C414 0.929 . S
C406 H400 0.930 . S
C406 C407 1.367 . S
C406 C414 1.378 . S
C407 C406 1.367 . S
C407 C415 1.433 . S
C408 H404 0.929 . S
C408 C410 1.378 . S
C408 C412 1.350 . S
C409 C412 1.463 . S
C409 C414 1.350 . S
C409 N417 1.427 . S
C410 H401 0.930 . S
C410 C408 1.378 . S
C410 C411 1.367 . S
C411 C410 1.367 . S
C411 C413 1.433 . S
C412 C408 1.350 . S
C412 C409 1.463 . S
C412 N416 1.427 . S
C413 H403 0.929 . S
C413 C411 1.433 . S
C413 N416 1.384 . S
C414 H405 0.929 . S
C414 C406 1.378 . S
C414 C409 1.350 . S
C415 H402 0.929 . S
C415 C407 1.433 . S
C415 N417 1.384 . S
N416 C412 1.427 . S
N416 C413 1.384 . S
N417 C409 1.427 . S
N417 C415 1.384 . S
H418 C424 0.930 . S
H419 C428 0.930 1_455 S
H420 C433 0.929 . S
H421 C431 0.929 . S
H422 C426 0.929 . S
H423 C432 0.929 . S
C424 H418 0.930 . S
C424 C425 1.367 . S
C424 C432 1.378 . S
C425 C424 1.367 . S
C425 C433 1.433 . S
C426 H422 0.929 . S
C426 C428 1.378 1_455 S
C426 C430 1.350 . S
C427 C430 1.463 . S
C427 C432 1.350 . S
C427 N435 1.427 . S
C428 H419 0.930 1_655 S
C428 C426 1.378 1_655 S
C428 C429 1.367 . S
C429 C428 1.367 . S
C429 C431 1.433 . S
C430 C426 1.350 . S
C430 C427 1.463 . S
C430 N434 1.427 1_455 S
C431 H421 0.929 . S
C431 C429 1.433 . S
C431 N434 1.384 . S
C432 H423 0.929 . S
C432 C424 1.378 . S
C432 C427 1.350 . S
C433 H420 0.929 . S
C433 C425 1.433 . S
C433 N435 1.384 . S
N434 C430 1.427 1_655 S
N434 C431 1.384 . S
N435 C427 1.427 . S
N435 C433 1.384 . S
H436 C442 0.930 . S
H437 C446 0.930 . S
H438 C451 0.929 . S
H439 C449 0.929 . S
H440 C444 0.929 . S
H441 C450 0.929 . S
C442 H436 0.930 . S
C442 C443 1.367 . S
C442 C450 1.378 . S
C443 C442 1.367 . S
C443 C451 1.433 . S
C444 H440 0.929 . S
C444 C446 1.378 . S
C444 C448 1.350 . S
C445 C448 1.463 . S
C445 C450 1.350 . S
C445 N453 1.427 . S
C446 H437 0.930 . S
C446 C444 1.378 . S
C446 C447 1.367 . S
C447 C446 1.367 . S
C447 C449 1.433 . S
C448 C444 1.350 . S
C448 C445 1.463 . S
C448 N452 1.427 . S
C449 H439 0.929 . S
C449 C447 1.433 . S
C449 N452 1.384 . S
C450 H441 0.929 . S
C450 C442 1.378 . S
C450 C445 1.350 . S
C451 H438 0.929 . S
C451 C443 1.433 . S
C451 N453 1.384 . S
N452 C448 1.427 . S
N452 C449 1.384 . S
N453 C445 1.427 . S
N453 C451 1.384 . S
H454 C460 0.930 . S
H455 C464 0.930 . S
H456 C469 0.929 . S
H457 C467 0.929 . S
H458 C462 0.929 . S
H459 C468 0.929 . S
C460 H454 0.930 . S
C460 C461 1.367 . S
C460 C468 1.378 1_655 S
C461 C460 1.367 . S
C461 C469 1.433 . S
C462 H458 0.929 . S
C462 C464 1.378 . S
C462 C466 1.350 . S
C463 C466 1.463 . S
C463 C468 1.350 . S
C463 N471 1.427 . S
C464 H455 0.930 . S
C464 C462 1.378 . S
C464 C465 1.367 . S
C465 C464 1.367 . S
C465 C467 1.433 . S
C466 C462 1.350 . S
C466 C463 1.463 . S
C466 N470 1.427 . S
C467 H457 0.929 . S
C467 C465 1.433 . S
C467 N470 1.384 . S
C468 H459 0.929 . S
C468 C460 1.378 1_455 S
C468 C463 1.350 . S
C469 H456 0.929 . S
C469 C461 1.433 . S
C469 N471 1.384 1_655 S
N470 C466 1.427 . S
N470 C467 1.384 . S
N471 C463 1.427 . S
N471 C469 1.384 1_455 S
H472 C478 0.930 . S
H473 C482 0.930 . S
H474 C487 0.929 . S
H475 C485 0.929 . S
H476 C480 0.929 . S
H477 C486 0.929 . S
C478 H472 0.930 . S
C478 C479 1.367 . S
C478 C486 1.378 . S
C479 C478 1.367 . S
C479 C487 1.433 . S
C480 H476 0.929 . S
C480 C482 1.378 . S
C480 C484 1.350 . S
C481 C484 1.463 . S
C481 C486 1.350 . S
C481 N489 1.427 . S
C482 H473 0.930 . S
C482 C480 1.378 . S
C482 C483 1.367 . S
C483 C482 1.367 . S
C483 C485 1.433 . S
C484 C480 1.350 . S
C484 C481 1.463 . S
C484 N488 1.427 . S
C485 H475 0.929 . S
C485 C483 1.433 . S
C485 N488 1.384 . S
C486 H477 0.929 . S
C486 C478 1.378 . S
C486 C481 1.350 . S
C487 H474 0.929 . S
C487 C479 1.433 . S
C487 N489 1.384 . S
N488 C484 1.427 . S
N488 C485 1.384 . S
N489 C481 1.427 . S
N489 C487 1.384 . S
H490 C496 0.930 . S
H491 C500 0.930 . S
H492 C505 0.929 . S
H493 C503 0.929 . S
H494 C498 0.929 . S
H495 C504 0.929 . S
C496 H490 0.930 . S
C496 C497 1.367 . S
C496 C504 1.378 . S
C497 C496 1.367 . S
C497 C505 1.433 . S
C498 H494 0.929 . S
C498 C500 1.378 . S
C498 C502 1.350 . S
C499 C502 1.463 . S
C499 C504 1.350 . S
C499 N507 1.427 . S
C500 H491 0.930 . S
C500 C498 1.378 . S
C500 C501 1.367 . S
C501 C500 1.367 . S
C501 C503 1.433 . S
C502 C498 1.350 . S
C502 C499 1.463 . S
C502 N506 1.427 . S
C503 H493 0.929 . S
C503 C501 1.433 . S
C503 N506 1.384 . S
C504 H495 0.929 . S
C504 C496 1.378 . S
C504 C499 1.350 . S
C505 H492 0.929 . S
C505 C497 1.433 . S
C505 N507 1.384 . S
N506 C502 1.427 . S
N506 C503 1.384 . S
N507 C499 1.427 . S
N507 C505 1.384 . S
H508 C514 0.930 . S
H509 C518 0.930 . S
H510 C523 0.929 . S
H511 C521 0.929 . S
H512 C516 0.929 . S
H513 C522 0.929 . S
C514 H508 0.930 . S
C514 C515 1.367 . S
C514 C522 1.378 . S
C515 C514 1.367 . S
C515 C523 1.433 . S
C516 H512 0.929 . S
C516 C518 1.378 . S
C516 C520 1.350 . S
C517 C520 1.463 . S
C517 C522 1.350 . S
C517 N525 1.427 . S
C518 H509 0.930 . S
C518 C516 1.378 . S
C518 C519 1.367 . S
C519 C518 1.367 . S
C519 C521 1.433 . S
C520 C516 1.350 . S
C520 C517 1.463 . S
C520 N524 1.427 . S
C521 H511 0.929 . S
C521 C519 1.433 . S
C521 N524 1.384 . S
C522 H513 0.929 . S
C522 C514 1.378 . S
C522 C517 1.350 . S
C523 H510 0.929 . S
C523 C515 1.433 . S
C523 N525 1.384 . S
N524 C520 1.427 . S
N524 C521 1.384 . S
N525 C517 1.427 . S
N525 C523 1.384 . S
H526 C532 0.930 . S
H527 C536 0.930 . S
H528 C541 0.929 . S
H529 C539 0.929 . S
H530 C534 0.929 . S
H531 C540 0.929 . S
C532 H526 0.930 . S
C532 C533 1.367 . S
C532 C540 1.378 . S
C533 C532 1.367 . S
C533 C541 1.433 . S
C534 H530 0.929 . S
C534 C536 1.378 . S
C534 C538 1.350 . S
C535 C538 1.463 . S
C535 C540 1.350 . S
C535 N543 1.427 . S
C536 H527 0.930 . S
C536 C534 1.378 . S
C536 C537 1.367 . S
C537 C536 1.367 . S
C537 C539 1.433 . S
C538 C534 1.350 . S
C538 C535 1.463 . S
C538 N542 1.427 . S
C539 H529 0.929 . S
C539 C537 1.433 . S
C539 N542 1.384 . S
C540 H531 0.929 . S
C540 C532 1.378 . S
C540 C535 1.350 . S
C541 H528 0.929 . S
C541 C533 1.433 . S
C541 N543 1.384 . S
N542 C538 1.427 . S
N542 C539 1.384 . S
N543 C535 1.427 . S
N543 C541 1.384 . S
H544 C550 0.930 . S
H545 C554 0.930 . S
H546 C559 0.929 . S
H547 C557 0.929 . S
H548 C552 0.929 . S
H549 C558 0.929 . S
C550 H544 0.930 . S
C550 C551 1.367 . S
C550 C558 1.378 . S
C551 C550 1.367 . S
C551 C559 1.433 . S
C552 H548 0.929 . S
C552 C554 1.378 . S
C552 C556 1.350 . S
C553 C556 1.463 . S
C553 C558 1.350 . S
C553 N561 1.427 . S
C554 H545 0.930 . S
C554 C552 1.378 . S
C554 C555 1.367 . S
C555 C554 1.367 . S
C555 C557 1.433 . S
C556 C552 1.350 . S
C556 C553 1.463 . S
C556 N560 1.427 . S
C557 H547 0.929 . S
C557 C555 1.433 . S
C557 N560 1.384 . S
C558 H549 0.929 . S
C558 C550 1.378 . S
C558 C553 1.350 . S
C559 H546 0.929 . S
C559 C551 1.433 . S
C559 N561 1.384 . S
N560 C556 1.427 . S
N560 C557 1.384 . S
N561 C553 1.427 . S
N561 C559 1.384 . S
H562 C568 0.930 . S
H563 C572 0.930 . S
H564 C577 0.929 . S
H565 C575 0.929 . S
H566 C570 0.929 . S
H567 C576 0.929 . S
C568 H562 0.930 . S
C568 C569 1.367 . S
C568 C576 1.378 . S
C569 C568 1.367 . S
C569 C577 1.433 . S
C570 H566 0.929 . S
C570 C572 1.378 . S
C570 C574 1.350 . S
C571 C574 1.463 . S
C571 C576 1.350 . S
C571 N579 1.427 . S
C572 H563 0.930 . S
C572 C570 1.378 . S
C572 C573 1.367 . S
C573 C572 1.367 . S
C573 C575 1.433 . S
C574 C570 1.350 . S
C574 C571 1.463 . S
C574 N578 1.427 . S
C575 H565 0.929 . S
C575 C573 1.433 . S
C575 N578 1.384 . S
C576 H567 0.929 . S
C576 C568 1.378 . S
C576 C571 1.350 . S
C577 H564 0.929 . S
C577 C569 1.433 . S
C577 N579 1.384 . S
N578 C574 1.427 . S
N578 C575 1.384 . S
N579 C571 1.427 . S
N579 C577 1.384 . S
H580 C586 0.930 . S
H581 C590 0.930 . S
H582 C595 0.929 . S
H583 C593 0.929 . S
H584 C588 0.929 . S
H585 C594 0.929 . S
C586 H580 0.930 . S
C586 C587 1.367 . S
C586 C594 1.378 . S
C587 C586 1.367 . S
C587 C595 1.433 . S
C588 H584 0.929 . S
C588 C590 1.378 . S
C588 C592 1.350 . S
C589 C592 1.463 . S
C589 C594 1.350 . S
C589 N597 1.427 . S
C590 H581 0.930 . S
C590 C588 1.378 . S
C590 C591 1.367 . S
C591 C590 1.367 . S
C591 C593 1.433 . S
C592 C588 1.350 . S
C592 C589 1.463 . S
C592 N596 1.427 . S
C593 H583 0.929 . S
C593 C591 1.433 . S
C593 N596 1.384 . S
C594 H585 0.929 . S
C594 C586 1.378 . S
C594 C589 1.350 . S
C595 H582 0.929 . S
C595 C587 1.433 . S
C595 N597 1.384 . S
N596 C592 1.427 . S
N596 C593 1.384 . S
N597 C589 1.427 . S
N597 C595 1.384 . S
H598 C604 0.930 . S
H599 C608 0.930 . S
H600 C613 0.929 . S
H601 C611 0.929 . S
H602 C606 0.929 . S
H603 C612 0.929 . S
C604 H598 0.930 . S
C604 C605 1.367 . S
C604 C612 1.378 . S
C605 C604 1.367 . S
C605 C613 1.433 . S
C606 H602 0.929 . S
C606 C608 1.378 . S
C606 C610 1.350 . S
C607 C610 1.463 . S
C607 C612 1.350 . S
C607 N615 1.427 . S
C608 H599 0.930 . S
C608 C606 1.378 . S
C608 C609 1.367 . S
C609 C608 1.367 . S
C609 C611 1.433 . S
C610 C606 1.350 . S
C610 C607 1.463 . S
C610 N614 1.427 . S
C611 H601 0.929 . S
C611 C609 1.433 . S
C611 N614 1.384 . S
C612 H603 0.929 . S
C612 C604 1.378 . S
C612 C607 1.350 . S
C613 H600 0.929 . S
C613 C605 1.433 . S
C613 N615 1.384 . S
N614 C610 1.427 . S
N614 C611 1.384 . S
N615 C607 1.427 . S
N615 C613 1.384 . S
C191 C8 1.379 . S
C195 C97 1.335 . S
C209 C31 1.423 . S
C213 C109 1.398 . S
C227 C53 1.381 . S
C231 C121 1.338 . S
C249 C130 1.252 . S
C245 C74 1.290 . S
C267 C145 1.337 . S
C263 C26 1.375 . S
C281 C48 1.282 . S
C285 C154 1.266 . S
C299 C71 1.380 . S
C303 C169 1.338 . S
C317 C5 1.420 . S
C321 C181 1.392 . S
C335 C50 1.246 1_556 S
C339 C178 1.248 . S
C357 C142 1.281 . S
C353 C70 1.267 . S
C375 C157 1.335 . S
C371 C4 1.365 . S
C389 C28 1.301 . S
C393 C166 1.248 . S
C411 C106 1.251 . S
C407 C73 1.264 . S
C425 C7 1.293 . S
C429 C118 1.266 . S
C447 C133 1.333 . S
C443 C30 1.363 . S
C465 C94 1.273 . S
C461 C52 1.265 . S
C483 C164 1.382 . S
C479 C9 1.391 . S
C501 C176 1.374 . S
C497 C29 1.392 . S
C515 C51 1.381 . S
C519 C140 1.367 . S
C537 C152 1.346 . S
C533 C75 1.364 . S
C555 C116 1.388 . S
C551 C27 1.391 . S
C569 C49 1.366 . S
C573 C128 1.348 . S
C591 C92 1.367 . S
C587 C72 1.381 . S
C609 C104 1.372 . S
C605 C6 1.393 . S
