# Generated by pormake.
# Topology eea, (3,6)-cn, num edge types: 1
# Building blocks:
#     Node 0, Type 0, BuildingBlock: KAKCAD_clean_linker_0, # of connection points: 3
#     Node 1, Type 0, BuildingBlock: KAKCAD_clean_linker_0, # of connection points: 3
#     Node 2, Type 0, BuildingBlock: KAKCAD_clean_linker_0, # of connection points: 3
#     Node 3, Type 0, BuildingBlock: KAKCAD_clean_linker_0, # of connection points: 3
#     Node 4, Type 0, BuildingBlock: KAKCAD_clean_linker_0, # of connection points: 3
#     Node 5, Type 0, BuildingBlock: KAKCAD_clean_linker_0, # of connection points: 3
#     Node 6, Type 0, BuildingBlock: KAKCAD_clean_linker_0, # of connection points: 3
#     Node 7, Type 0, BuildingBlock: KAKCAD_clean_linker_0, # of connection points: 3
#     Node 8, Type 0, BuildingBlock: KAKCAD_clean_linker_0, # of connection points: 3
#     Node 9, Type 0, BuildingBlock: KAKCAD_clean_linker_0, # of connection points: 3
#     Node 10, Type 0, BuildingBlock: KAKCAD_clean_linker_0, # of connection points: 3
#     Node 11, Type 0, BuildingBlock: KAKCAD_clean_linker_0, # of connection points: 3
#     Node 12, Type 0, BuildingBlock: KAKCAD_clean_linker_0, # of connection points: 3
#     Node 13, Type 0, BuildingBlock: KAKCAD_clean_linker_0, # of connection points: 3
#     Node 14, Type 0, BuildingBlock: KAKCAD_clean_linker_0, # of connection points: 3
#     Node 15, Type 0, BuildingBlock: KAKCAD_clean_linker_0, # of connection points: 3
#     Node 16, Type 0, BuildingBlock: KAKCAD_clean_linker_0, # of connection points: 3
#     Node 17, Type 0, BuildingBlock: KAKCAD_clean_linker_0, # of connection points: 3
#     Node 18, Type 1, BuildingBlock: NUHQIS_clean_sbu_0, # of connection points: 6
#     Node 19, Type 1, BuildingBlock: NUHQIS_clean_sbu_0, # of connection points: 6
#     Node 20, Type 1, BuildingBlock: NUHQIS_clean_sbu_0, # of connection points: 6
#     Node 21, Type 1, BuildingBlock: NUHQIS_clean_sbu_0, # of connection points: 6
#     Node 22, Type 1, BuildingBlock: NUHQIS_clean_sbu_0, # of connection points: 6
#     Node 23, Type 1, BuildingBlock: NUHQIS_clean_sbu_0, # of connection points: 6
#     Node 24, Type 1, BuildingBlock: NUHQIS_clean_sbu_0, # of connection points: 6
#     Node 25, Type 1, BuildingBlock: NUHQIS_clean_sbu_0, # of connection points: 6
#     Node 26, Type 1, BuildingBlock: NUHQIS_clean_sbu_0, # of connection points: 6
#     Edge 27, Type (0, 1), BuildingBlock: AJUNOK_clean_linker_0, # of connection points: 2
#     Edge 28, Type (0, 1), BuildingBlock: AJUNOK_clean_linker_0, # of connection points: 2
#     Edge 29, Type (0, 1), BuildingBlock: AJUNOK_clean_linker_0, # of connection points: 2
#     Edge 30, Type (0, 1), BuildingBlock: AJUNOK_clean_linker_0, # of connection points: 2
#     Edge 31, Type (0, 1), BuildingBlock: AJUNOK_clean_linker_0, # of connection points: 2
#     Edge 32, Type (0, 1), BuildingBlock: AJUNOK_clean_linker_0, # of connection points: 2
#     Edge 33, Type (0, 1), BuildingBlock: AJUNOK_clean_linker_0, # of connection points: 2
#     Edge 34, Type (0, 1), BuildingBlock: AJUNOK_clean_linker_0, # of connection points: 2
#     Edge 35, Type (0, 1), BuildingBlock: AJUNOK_clean_linker_0, # of connection points: 2
#     Edge 36, Type (0, 1), BuildingBlock: AJUNOK_clean_linker_0, # of connection points: 2
#     Edge 37, Type (0, 1), BuildingBlock: AJUNOK_clean_linker_0, # of connection points: 2
#     Edge 38, Type (0, 1), BuildingBlock: AJUNOK_clean_linker_0, # of connection points: 2
#     Edge 39, Type (0, 1), BuildingBlock: AJUNOK_clean_linker_0, # of connection points: 2
#     Edge 40, Type (0, 1), BuildingBlock: AJUNOK_clean_linker_0, # of connection points: 2
#     Edge 41, Type (0, 1), BuildingBlock: AJUNOK_clean_linker_0, # of connection points: 2
#     Edge 42, Type (0, 1), BuildingBlock: AJUNOK_clean_linker_0, # of connection points: 2
#     Edge 43, Type (0, 1), BuildingBlock: AJUNOK_clean_linker_0, # of connection points: 2
#     Edge 44, Type (0, 1), BuildingBlock: AJUNOK_clean_linker_0, # of connection points: 2
#     Edge 45, Type (0, 1), BuildingBlock: AJUNOK_clean_linker_0, # of connection points: 2
#     Edge 46, Type (0, 1), BuildingBlock: AJUNOK_clean_linker_0, # of connection points: 2
#     Edge 47, Type (0, 1), BuildingBlock: AJUNOK_clean_linker_0, # of connection points: 2
#     Edge 48, Type (0, 1), BuildingBlock: AJUNOK_clean_linker_0, # of connection points: 2
#     Edge 49, Type (0, 1), BuildingBlock: AJUNOK_clean_linker_0, # of connection points: 2
#     Edge 50, Type (0, 1), BuildingBlock: AJUNOK_clean_linker_0, # of connection points: 2
#     Edge 51, Type (0, 1), BuildingBlock: AJUNOK_clean_linker_0, # of connection points: 2
#     Edge 52, Type (0, 1), BuildingBlock: AJUNOK_clean_linker_0, # of connection points: 2
#     Edge 53, Type (0, 1), BuildingBlock: AJUNOK_clean_linker_0, # of connection points: 2
#     Edge 54, Type (0, 1), BuildingBlock: AJUNOK_clean_linker_0, # of connection points: 2
#     Edge 55, Type (0, 1), BuildingBlock: AJUNOK_clean_linker_0, # of connection points: 2
#     Edge 56, Type (0, 1), BuildingBlock: AJUNOK_clean_linker_0, # of connection points: 2
#     Edge 57, Type (0, 1), BuildingBlock: AJUNOK_clean_linker_0, # of connection points: 2
#     Edge 58, Type (0, 1), BuildingBlock: AJUNOK_clean_linker_0, # of connection points: 2
#     Edge 59, Type (0, 1), BuildingBlock: AJUNOK_clean_linker_0, # of connection points: 2
#     Edge 60, Type (0, 1), BuildingBlock: AJUNOK_clean_linker_0, # of connection points: 2
#     Edge 61, Type (0, 1), BuildingBlock: AJUNOK_clean_linker_0, # of connection points: 2
#     Edge 62, Type (0, 1), BuildingBlock: AJUNOK_clean_linker_0, # of connection points: 2
#     Edge 63, Type (0, 1), BuildingBlock: AJUNOK_clean_linker_0, # of connection points: 2
#     Edge 64, Type (0, 1), BuildingBlock: AJUNOK_clean_linker_0, # of connection points: 2
#     Edge 65, Type (0, 1), BuildingBlock: AJUNOK_clean_linker_0, # of connection points: 2
#     Edge 66, Type (0, 1), BuildingBlock: AJUNOK_clean_linker_0, # of connection points: 2
#     Edge 67, Type (0, 1), BuildingBlock: AJUNOK_clean_linker_0, # of connection points: 2
#     Edge 68, Type (0, 1), BuildingBlock: AJUNOK_clean_linker_0, # of connection points: 2
#     Edge 69, Type (0, 1), BuildingBlock: AJUNOK_clean_linker_0, # of connection points: 2
#     Edge 70, Type (0, 1), BuildingBlock: AJUNOK_clean_linker_0, # of connection points: 2
#     Edge 71, Type (0, 1), BuildingBlock: AJUNOK_clean_linker_0, # of connection points: 2
#     Edge 72, Type (0, 1), BuildingBlock: AJUNOK_clean_linker_0, # of connection points: 2
#     Edge 73, Type (0, 1), BuildingBlock: AJUNOK_clean_linker_0, # of connection points: 2
#     Edge 74, Type (0, 1), BuildingBlock: AJUNOK_clean_linker_0, # of connection points: 2
#     Edge 75, Type (0, 1), BuildingBlock: AJUNOK_clean_linker_0, # of connection points: 2
#     Edge 76, Type (0, 1), BuildingBlock: AJUNOK_clean_linker_0, # of connection points: 2
#     Edge 77, Type (0, 1), BuildingBlock: AJUNOK_clean_linker_0, # of connection points: 2
#     Edge 78, Type (0, 1), BuildingBlock: AJUNOK_clean_linker_0, # of connection points: 2
#     Edge 79, Type (0, 1), BuildingBlock: AJUNOK_clean_linker_0, # of connection points: 2
#     Edge 80, Type (0, 1), BuildingBlock: AJUNOK_clean_linker_0, # of connection points: 2
# Relax obj value: 0.034
# Max RMSD: 0.132
# Mean RMSD: 0.087
data_MOF--net-eea--node1-NUHQIS_clean_sbu_0--node2-KAKCAD_clean_linker_0--edge1-AJUNOK_clean_linker_0
_symmetry_space_group_name_H-M    P1
_symmetry_Int_Tables_number       1
_symmetry_cell_setting            triclinic
loop_
_symmetry_equiv_pos_as_xyz
'x, y, z'
_cell_length_a     48.906939
_cell_length_b     48.516865
_cell_length_c     73.841277
_cell_angle_alpha  93.470888
_cell_angle_beta   93.248173
_cell_angle_gamma 119.79462
loop_
_atom_site_label
_atom_site_type_symbol
_atom_site_fract_x
_atom_site_fract_y
_atom_site_fract_z
_atom_type_partial_charge
C0 C 0.32365 0.1962 0.49265 0.0
C1 C 0.34455 0.1862 0.49904 0.0
C2 C 0.31303 0.19103 0.47414 0.0
C3 C 0.32317 0.17581 0.46161 0.0
C4 C 0.34484 0.16665 0.468 0.0
C5 C 0.35528 0.17164 0.48654 0.0
C6 C 0.30914 0.16726 0.44229 0.0
C7 C 0.30215 0.18796 0.43313 0.0
C8 C 0.285 0.17817 0.41576 0.0
C9 C 0.27565 0.14758 0.40745 0.0
C10 C 0.28325 0.12708 0.41616 0.0
C11 C 0.30007 0.13703 0.4335 0.0
C12 C 0.27143 0.09432 0.40769 0.0
C13 C 0.23917 0.07478 0.40158 0.0
C14 C 0.29208 0.08229 0.40583 0.0
C15 C 0.28062 0.05116 0.39789 0.0
C16 C 0.2483 0.03158 0.39205 0.0
C17 C 0.27446 0.1985 0.40684 0.0
C18 C 0.26492 0.21685 0.4173 0.0
C19 C 0.27161 0.19791 0.38772 0.0
C20 C 0.25788 0.21371 0.37926 0.0
C21 C 0.24712 0.23087 0.38973 0.0
C22 C 0.25181 0.23317 0.40885 0.0
C23 C 0.22767 0.04358 0.39391 0.0
H24 H 0.31461 0.20698 0.50207 0.0
H25 H 0.29586 0.19781 0.46979 0.0
H26 H 0.35341 0.15522 0.45869 0.0
H27 H 0.37155 0.16387 0.49117 0.0
H28 H 0.30977 0.21158 0.43966 0.0
H29 H 0.30441 0.12039 0.44054 0.0
H30 H 0.26157 0.13914 0.39435 0.0
H31 H 0.22278 0.08349 0.40301 0.0
H32 H 0.31706 0.09704 0.41041 0.0
H33 H 0.29682 0.04218 0.39656 0.0
H34 H 0.26651 0.21781 0.43203 0.0
H35 H 0.27943 0.18472 0.37921 0.0
H36 H 0.20266 0.02877 0.38941 0.0
H37 H 0.2449 0.24722 0.41733 0.0
H38 H 0.25492 0.21178 0.36451 0.0
C39 C 0.89222 0.19815 0.49286 0.0
C40 C 0.88647 0.17699 0.50624 0.0
C41 C 0.89812 0.19098 0.47533 0.0
C42 C 0.89771 0.16221 0.47082 0.0
C43 C 0.89259 0.14141 0.48433 0.0
C44 C 0.88719 0.1488 0.50187 0.0
C45 C 0.89984 0.1524 0.45175 0.0
C46 C 0.92499 0.17238 0.44191 0.0
C47 C 0.92678 0.16234 0.42388 0.0
C48 C 0.90239 0.13253 0.41566 0.0
C49 C 0.87716 0.11248 0.42532 0.0
C50 C 0.87621 0.12248 0.44336 0.0
C51 C 0.85183 0.08092 0.41662 0.0
C52 C 0.83747 0.07795 0.39904 0.0
C53 C 0.84189 0.05353 0.42587 0.0
C54 C 0.81818 0.02372 0.41766 0.0
C55 C 0.80358 0.02075 0.40013 0.0
C56 C 0.95432 0.18233 0.41369 0.0
C57 C 0.96759 0.21564 0.41478 0.0
C58 C 0.96758 0.16812 0.40272 0.0
C59 C 0.9936 0.18676 0.39327 0.0
C60 C 1.00716 0.22006 0.39467 0.0
C61 C 0.99365 0.23427 0.40535 0.0
C62 C 0.81353 0.04818 0.3909 0.0
H63 H 0.89173 0.22001 0.49591 0.0
H64 H 0.90175 0.20727 0.46512 0.0
H65 H 0.89216 0.11909 0.4812 0.0
H66 H 0.88247 0.13189 0.51186 0.0
H67 H 0.94363 0.19515 0.44853 0.0
H68 H 0.85654 0.10721 0.45079 0.0
H69 H 0.90314 0.12469 0.40173 0.0
H70 H 0.8445 0.09873 0.39168 0.0
H71 H 0.8529 0.05509 0.43933 0.0
H72 H 0.8117 1.00292 0.42491 0.0
H73 H 0.95767 0.22733 0.42281 0.0
H74 H 0.95827 0.14259 0.40174 0.0
H75 H 0.80263 0.04664 0.37741 0.0
H76 H 1.0033 0.25987 0.40642 0.0
H77 H 1.00367 0.17522 0.38525 0.0
C78 C 0.90949 0.74683 0.50272 0.0
C79 C 0.87857 0.72609 0.50707 0.0
C80 C 0.91475 0.75896 0.48567 0.0
C81 C 0.88929 0.75036 0.47236 0.0
C82 C 0.85847 0.72887 0.47659 0.0
C83 C 0.85321 0.7171 0.49368 0.0
C84 C 0.89455 0.764 0.4543 0.0
C85 C 0.92169 0.77044 0.44543 0.0
C86 C 0.92638 0.78303 0.4284 0.0
C87 C 0.9035 0.78926 0.4203 0.0
C88 C 0.87625 0.78297 0.42878 0.0
C89 C 0.87214 0.77057 0.44578 0.0
C90 C 0.8519 0.78905 0.41977 0.0
C91 C 0.86087 0.81717 0.41135 0.0
C92 C 0.81946 0.76647 0.41924 0.0
C93 C 0.7966 0.77178 0.41043 0.0
C94 C 0.80556 0.79999 0.40209 0.0
C95 C 0.95489 0.78951 0.41884 0.0
C96 C 0.98519 0.80366 0.42846 0.0
C97 C 0.95208 0.78231 0.39982 0.0
C98 C 0.97879 0.78961 0.39064 0.0
C99 C 0.00915 0.80445 0.40018 0.0
C100 C 0.01197 0.811 0.41925 0.0
C101 C 0.83801 0.82258 0.40265 0.0
H102 H 0.92974 0.75362 0.51244 0.0
H103 H 0.93882 0.7755 0.48308 0.0
H104 H 0.8382 0.72094 0.46667 0.0
H105 H 0.82907 0.70117 0.49646 0.0
H106 H 0.93876 0.76479 0.4515 0.0
H107 H 0.85165 0.76674 0.45256 0.0
H108 H 0.90683 0.79895 0.40724 0.0
H109 H 0.88562 0.8352 0.41164 0.0
H110 H 0.81174 0.74432 0.42532 0.0
H111 H 0.77191 0.75347 0.40985 0.0
H112 H 0.98834 0.80975 0.44307 0.0
H113 H 0.9291 0.77075 0.39199 0.0
H114 H 0.84574 0.84464 0.39646 0.0
H115 H 0.03501 0.82236 0.42701 0.0
H116 H 0.9756 0.78331 0.37605 0.0
C117 C 0.13829 0.26039 0.52332 0.0
C118 C 0.13483 0.2867 0.51983 0.0
C119 C 0.13213 0.24788 0.54017 0.0
C120 C 0.12219 0.26127 0.55393 0.0
C121 C 0.11808 0.28718 0.55031 0.0
C122 C 0.12458 0.29993 0.53349 0.0
C123 C 0.1178 0.24918 0.57226 0.0
C124 C 0.1407 0.24344 0.58078 0.0
C125 C 0.13751 0.23255 0.59815 0.0
C126 C 0.11068 0.22674 0.60693 0.0
C127 C 0.08708 0.23172 0.59859 0.0
C128 C 0.09112 0.24346 0.58133 0.0
C129 C 0.05818 0.22413 0.60792 0.0
C130 C 0.04284 0.19603 0.61665 0.0
C131 C 0.04596 0.24495 0.60846 0.0
C132 C 0.01944 0.23812 0.61778 0.0
C133 C 1.00441 0.21025 0.62676 0.0
C134 C 0.1624 0.22744 0.60715 0.0
C135 C 0.17403 0.2101 0.59763 0.0
C136 C 0.17479 0.24001 0.62528 0.0
C137 C 0.19854 0.2356 0.63366 0.0
C138 C 0.21026 0.21825 0.62418 0.0
C139 C 0.19746 0.20529 0.6061 0.0
C140 C 0.01624 0.18911 0.62585 0.0
H141 H 0.14655 0.24995 0.51317 0.0
H142 H 0.13535 0.2278 0.54248 0.0
H143 H 0.11072 0.29819 0.56068 0.0
H144 H 0.12172 0.32022 0.53117 0.0
H145 H 0.16162 0.24839 0.57411 0.0
H146 H 0.07306 0.2472 0.5747 0.0
H147 H 0.10813 0.2182 0.6203 0.0
H148 H 0.0512 0.17911 0.61619 0.0
H149 H 0.0573 0.26689 0.60199 0.0
H150 H 0.01098 0.25495 0.61821 0.0
H151 H 0.16459 0.19976 0.58372 0.0
H152 H 0.16645 0.2537 0.6329 0.0
H153 H 1.00471 0.16695 0.63209 0.0
H154 H 0.20513 0.19094 0.59856 0.0
H155 H 0.20795 0.24605 0.64756 0.0
C156 C 0.66311 0.79871 0.53644 0.0
C157 C 0.68 0.82048 0.52404 0.0
C158 C 0.67315 0.80616 0.55512 0.0
C159 C 0.69974 0.83576 0.56159 0.0
C160 C 0.71656 0.85741 0.54913 0.0
C161 C 0.70685 0.84979 0.53052 0.0
C162 C 0.71009 0.84462 0.58129 0.0
C163 C 0.71656 0.8249 0.59171 0.0
C164 C 0.73028 0.83543 0.60982 0.0
C165 C 0.73606 0.86513 0.61768 0.0
C166 C 0.72942 0.88484 0.60744 0.0
C167 C 0.71639 0.87443 0.58928 0.0
C168 C 0.739 0.9175 0.61521 0.0
C169 C 0.73182 0.92302 0.63273 0.0
C170 C 0.75693 0.94355 0.60542 0.0
C171 C 0.76781 0.97462 0.61308 0.0
C172 C 0.7606 0.98023 0.63058 0.0
C173 C 0.74223 0.81748 0.61982 0.0
C174 C 0.72293 0.78465 0.6211 0.0
C175 C 0.77378 0.8333 0.62768 0.0
C176 C 0.78597 0.81656 0.63648 0.0
C177 C 0.76674 0.7838 0.63778 0.0
C178 C 0.73506 0.76793 0.63017 0.0
C179 C 0.74246 0.95415 0.64033 0.0
H180 H 0.64226 0.776 0.53167 0.0
H181 H 0.65982 0.78916 0.56452 0.0
H182 H 0.73731 0.88027 0.55379 0.0
H183 H 0.71998 0.86707 0.5212 0.0
H184 H 0.71299 0.80245 0.58537 0.0
H185 H 0.71159 0.88979 0.58122 0.0
H186 H 0.74717 0.87355 0.63155 0.0
H187 H 0.718 0.90326 0.64052 0.0
H188 H 0.76336 0.93994 0.59204 0.0
H189 H 0.78253 0.9943 0.60547 0.0
H190 H 0.69856 0.772 0.61511 0.0
H191 H 0.78926 0.85852 0.62665 0.0
H192 H 0.73653 0.95785 0.65384 0.0
H193 H 0.71999 0.74255 0.6309 0.0
H194 H 0.8105 0.82914 0.64222 0.0
C195 C 0.10175 0.82402 0.52371 0.0
C196 C 0.13247 0.83264 0.51935 0.0
C197 C 0.09669 0.83189 0.54132 0.0
C198 C 0.12222 0.84825 0.55496 0.0
C199 C 0.15256 0.85515 0.55079 0.0
C200 C 0.15765 0.84767 0.53323 0.0
C201 C 0.11804 0.85999 0.57314 0.0
C202 C 0.09133 0.84151 0.5824 0.0
C203 C 0.0885 0.85295 0.59979 0.0
C204 C 0.11228 0.88323 0.6077 0.0
C205 C 0.13868 0.9021 0.59852 0.0
C206 C 0.14131 0.89037 0.5813 0.0
C207 C 0.16353 0.93421 0.60683 0.0
C208 C 0.15516 0.95554 0.61494 0.0
C209 C 0.19577 0.94379 0.60664 0.0
C210 C 0.21918 0.97402 0.61455 0.0
C211 C 0.21078 0.99536 0.62265 0.0
C212 C 0.06113 0.83347 0.61004 0.0
C213 C 0.0299 0.82053 0.60206 0.0
C214 C 0.06624 0.82906 0.62831 0.0
C215 C 0.0407 0.81227 0.63843 0.0
C216 C 0.00953 0.8 0.63061 0.0
C217 C 1.00429 0.80412 0.61231 0.0
C218 C 0.17853 0.98581 0.62272 0.0
H219 H 0.08166 0.81156 0.51348 0.0
H220 H 0.073 0.82612 0.54405 0.0
H221 H 0.17267 0.86697 0.56106 0.0
H222 H 0.1816 0.85461 0.5304 0.0
H223 H 0.0733 0.81794 0.5764 0.0
H224 H 0.16132 0.90541 0.57404 0.0
H225 H 0.11021 0.89212 0.62108 0.0
H226 H 0.13052 0.94895 0.61508 0.0
H227 H 0.20288 0.92766 0.60067 0.0
H228 H 0.24379 0.98042 0.61467 0.0
H229 H 0.02534 0.82373 0.58804 0.0
H230 H 0.09008 0.83863 0.63476 0.0
H231 H 0.17138 1.00184 0.62877 0.0
H232 H 0.9804 0.79444 0.60592 0.0
H233 H 0.04529 0.80921 0.65248 0.0
C234 C 0.98529 0.52704 0.82537 0.0
C235 C 1.00602 0.5169 0.83192 0.0
C236 C 0.97444 0.5214 0.80686 0.0
C237 C 0.98414 0.5055 0.79453 0.0
C238 C 1.00556 0.49614 0.80105 0.0
C239 C 0.01621 0.50158 0.81955 0.0
C240 C 0.9705 0.49681 0.77517 0.0
C241 C 0.96505 0.51794 0.76544 0.0
C242 C 0.95055 0.50872 0.74745 0.0
C243 C 0.94269 0.4787 0.739 0.0
C244 C 0.94711 0.45691 0.74863 0.0
C245 C 0.96105 0.46626 0.76672 0.0
C246 C 0.93518 0.42378 0.74025 0.0
C247 C 0.90719 0.40819 0.72827 0.0
C248 C 0.95093 0.40704 0.74456 0.0
C249 C 0.93849 0.37528 0.73752 0.0
C250 C 0.91031 0.3597 0.72577 0.0
C251 C 0.94103 0.52909 0.7379 0.0
C252 C 0.96155 0.56217 0.73839 0.0
C253 C 0.91055 0.51532 0.72862 0.0
C254 C 0.90068 0.53419 0.72011 0.0
C255 C 0.92112 0.56724 0.72058 0.0
C256 C 0.95167 0.58109 0.72978 0.0
C257 C 0.89523 0.37676 0.7209 0.0
H258 H 0.97709 0.53894 0.83462 0.0
H259 H 0.95764 0.52854 0.80234 0.0
H260 H 0.01372 0.4841 0.79188 0.0
H261 H 0.03166 0.4929 0.82424 0.0
H262 H 0.97128 0.54117 0.772 0.0
H263 H 0.96328 0.44922 0.77458 0.0
H264 H 0.93258 0.47217 0.72491 0.0
H265 H 0.89403 0.41996 0.72478 0.0
H266 H 0.97286 0.41838 0.75343 0.0
H267 H 0.95075 0.3628 0.74146 0.0
H268 H 0.9852 0.57337 0.74538 0.0
H269 H 0.89394 0.48999 0.72836 0.0
H270 H 0.87408 0.36585 0.71139 0.0
H271 H 0.96786 0.60656 0.73036 0.0
H272 H 0.87669 0.52301 0.7136 0.0
C273 C 0.56677 0.53986 0.82764 0.0
C274 C 0.55482 0.51641 0.83993 0.0
C275 C 0.5725 0.53253 0.81008 0.0
C276 C 0.56643 0.5016 0.80446 0.0
C277 C 0.55591 0.4787 0.81709 0.0
C278 C 0.55013 0.48598 0.83454 0.0
C279 C 0.56885 0.49231 0.78524 0.0
C280 C 0.59437 0.51241 0.7756 0.0
C281 C 0.5963 0.50289 0.75746 0.0
C282 C 0.57193 0.47329 0.74899 0.0
C283 C 0.54654 0.453 0.75845 0.0
C284 C 0.54514 0.4627 0.77646 0.0
C285 C 0.52176 0.42124 0.74968 0.0
C286 C 0.50712 0.41798 0.73215 0.0
C287 C 0.51279 0.39389 0.75883 0.0
C288 C 0.48973 0.36382 0.75057 0.0
C289 C 0.47475 0.36051 0.73311 0.0
C290 C 0.62406 0.52309 0.74744 0.0
C291 C 0.63775 0.55649 0.74891 0.0
C292 C 0.63705 0.50896 0.73619 0.0
C293 C 0.66318 0.5277 0.72683 0.0
C294 C 0.67717 0.56105 0.72862 0.0
C295 C 0.66397 0.57524 0.73959 0.0
C296 C 0.48376 0.38793 0.72397 0.0
H297 H 0.57135 0.56377 0.83152 0.0
H298 H 0.58062 0.55073 0.80072 0.0
H299 H 0.55158 0.45482 0.81337 0.0
H300 H 0.54101 0.46737 0.84365 0.0
H301 H 0.61319 0.53489 0.78241 0.0
H302 H 0.52505 0.44724 0.78354 0.0
H303 H 0.57285 0.46573 0.73504 0.0
H304 H 0.51349 0.43873 0.72486 0.0
H305 H 0.52408 0.39569 0.77225 0.0
H306 H 0.48407 0.3431 0.75775 0.0
H307 H 0.62808 0.56815 0.75718 0.0
H308 H 0.62749 0.48338 0.73491 0.0
H309 H 0.47257 0.38617 0.71053 0.0
H310 H 0.67405 0.60091 0.74102 0.0
H311 H 0.67304 0.51617 0.71863 0.0
C312 C 0.5693 0.07254 0.83386 0.0
C313 C 0.53807 0.05203 0.83782 0.0
C314 C 0.57538 0.08473 0.81686 0.0
C315 C 0.55041 0.07654 0.80328 0.0
C316 C 0.51925 0.05559 0.80721 0.0
C317 C 0.5132 0.04363 0.8242 0.0
C318 C 0.55648 0.08951 0.78508 0.0
C319 C 0.58306 0.09384 0.77634 0.0
C320 C 0.58765 0.10439 0.75881 0.0
C321 C 0.56515 0.11033 0.74996 0.0
C322 C 0.5389 0.1072 0.75855 0.0
C323 C 0.53513 0.0971 0.77621 0.0
C324 C 0.51552 0.11446 0.74912 0.0
C325 C 0.52508 0.13785 0.73674 0.0
C326 C 0.48334 0.09808 0.75234 0.0
C327 C 0.4616 0.10498 0.7436 0.0
C328 C 0.47105 0.12771 0.73088 0.0
C329 C 0.61616 0.10982 0.74972 0.0
C330 C 0.64657 0.12772 0.75912 0.0
C331 C 0.61334 0.09862 0.73129 0.0
C332 C 0.64027 0.10525 0.72247 0.0
C333 C 0.67076 0.12343 0.73181 0.0
C334 C 0.67353 0.1347 0.75024 0.0
C335 C 0.50316 0.14409 0.72763 0.0
H336 H 0.58914 0.07894 0.84383 0.0
H337 H 0.59967 0.10086 0.81445 0.0
H338 H 0.49937 0.04809 0.79706 0.0
H339 H 0.48886 0.02791 0.82673 0.0
H340 H 0.59978 0.08816 0.78288 0.0
H341 H 0.51578 0.09568 0.7833 0.0
H342 H 0.56842 0.11768 0.73632 0.0
H343 H 0.54962 0.15171 0.73412 0.0
H344 H 0.47466 0.07962 0.76152 0.0
H345 H 0.43739 0.09259 0.747 0.0
H346 H 0.64957 0.13718 0.77322 0.0
H347 H 0.59022 0.08461 0.72369 0.0
H348 H 0.51144 0.16176 0.71795 0.0
H349 H 0.6966 0.14954 0.75774 0.0
H350 H 0.6372 0.096 0.70833 0.0
C351 C 0.81249 0.6053 0.85864 0.0
C352 C 0.80896 0.63173 0.85563 0.0
C353 C 0.80528 0.59139 0.87506 0.0
C354 C 0.79411 0.60339 0.88885 0.0
C355 C 0.78972 0.62928 0.88563 0.0
C356 C 0.79714 0.64335 0.86922 0.0
C357 C 0.78813 0.58949 0.9067 0.0
C358 C 0.8098 0.58193 0.91514 0.0
C359 C 0.80479 0.56881 0.93192 0.0
C360 C 0.77733 0.56261 0.94012 0.0
C361 C 0.75529 0.56985 0.93198 0.0
C362 C 0.76107 0.58374 0.91539 0.0
C363 C 0.72614 0.56232 0.94089 0.0
C364 C 0.70701 0.53166 0.94629 0.0
C365 C 0.71787 0.58583 0.9447 0.0
C366 C 0.69142 0.57898 0.95412 0.0
C367 C 0.67245 0.54834 0.95958 0.0
C368 C 0.82838 0.56192 0.94103 0.0
C369 C 0.8415 0.54643 0.93112 0.0
C370 C 0.83795 0.57085 0.95978 0.0
C371 C 0.85991 0.56424 0.96845 0.0
C372 C 0.87253 0.5481 0.95866 0.0
C373 C 0.86328 0.53954 0.93985 0.0
C374 C 0.68028 0.52466 0.95537 0.0
H375 H 0.82149 0.59577 0.84843 0.0
H376 H 0.80852 0.5712 0.87696 0.0
H377 H 0.78126 0.63919 0.89596 0.0
H378 H 0.79369 0.66337 0.86717 0.0
H379 H 0.83117 0.58715 0.90889 0.0
H380 H 0.74398 0.58907 0.90897 0.0
H381 H 0.77306 0.55208 0.95295 0.0
H382 H 0.71274 0.51304 0.94345 0.0
H383 H 0.73228 0.60968 0.94077 0.0
H384 H 0.68568 0.59756 0.95707 0.0
H385 H 0.83448 0.5391 0.91668 0.0
H386 H 0.82875 0.58338 0.96772 0.0
H387 H 0.66598 0.50086 0.95939 0.0
H388 H 0.87251 0.52704 0.93192 0.0
H389 H 0.86723 0.57206 0.98283 0.0
C390 C 0.33989 0.13872 0.86892 0.0
C391 C 0.35303 0.16365 0.85768 0.0
C392 C 0.34835 0.14479 0.88776 0.0
C393 C 0.36995 0.17593 0.89566 0.0
C394 C 0.38299 0.20077 0.88434 0.0
C395 C 0.37443 0.19474 0.86561 0.0
C396 C 0.37939 0.18279 0.9156 0.0
C397 C 0.38629 0.16245 0.92518 0.0
C398 C 0.39849 0.17081 0.94361 0.0
C399 C 0.40301 0.19931 0.95257 0.0
C400 C 0.39633 0.21981 0.94317 0.0
C401 C 0.38408 0.21121 0.92482 0.0
C402 C 0.40582 0.25187 0.95188 0.0
C403 C 0.39767 0.25591 0.96939 0.0
C404 C 0.42508 0.27887 0.94307 0.0
C405 C 0.43672 0.3094 0.9518 0.0
C406 C 0.42903 0.31341 0.96939 0.0
C407 C 0.40955 0.15155 0.95302 0.0
C408 C 0.39073 0.11817 0.95185 0.0
C409 C 0.4397 0.16664 0.9628 0.0
C410 C 0.45091 0.14871 0.97119 0.0
C411 C 0.43208 0.11534 0.97013 0.0
C412 C 0.40188 0.10021 0.96038 0.0
C413 C 0.40899 0.28657 0.97804 0.0
H414 H 0.32321 0.11455 0.86311 0.0
H415 H 0.33773 0.12521 0.89614 0.0
H416 H 0.4001 0.22496 0.88992 0.0
H417 H 0.38436 0.21455 0.85734 0.0
H418 H 0.38404 0.14113 0.91802 0.0
H419 H 0.37884 0.22713 0.91763 0.0
H420 H 0.41313 0.20627 0.96668 0.0
H421 H 0.38283 0.23539 0.97641 0.0
H422 H 0.432 0.27635 0.92967 0.0
H423 H 0.45203 0.32993 0.94492 0.0
H424 H 0.36738 0.10602 0.94442 0.0
H425 H 0.455 0.19229 0.96357 0.0
H426 H 0.40282 0.28936 0.99162 0.0
H427 H 0.3869 0.07449 0.95936 0.0
H428 H 0.47463 0.16092 0.97814 0.0
C429 C 0.77273 0.15757 0.85793 0.0
C430 C 0.80325 0.16483 0.85391 0.0
C431 C 0.7671 0.16326 0.87583 0.0
C432 C 0.79194 0.17645 0.88997 0.0
C433 C 0.82207 0.1824 0.88598 0.0
C434 C 0.82766 0.17675 0.8682 0.0
C435 C 0.78761 0.18655 0.90853 0.0
C436 C 0.76128 0.16683 0.91769 0.0
C437 C 0.75822 0.17688 0.93543 0.0
C438 C 0.78212 0.20673 0.94391 0.0
C439 C 0.80797 0.22721 0.93473 0.0
C440 C 0.8103 0.21683 0.91703 0.0
C441 C 0.83203 0.25977 0.94335 0.0
C442 C 0.82317 0.27739 0.955 0.0
C443 C 0.86392 0.27392 0.93964 0.0
C444 C 0.886 0.3051 0.94689 0.0
C445 C 0.87694 0.32278 0.9583 0.0
C446 C 0.73003 0.15682 0.94519 0.0
C447 C 0.71657 0.12347 0.94417 0.0
C448 C 0.71655 0.17115 0.95586 0.0
C449 C 0.69035 0.15269 0.96522 0.0
C450 C 0.67672 0.1194 0.96398 0.0
C451 C 0.69021 0.10497 0.95347 0.0
C452 C 0.84541 0.30824 0.96259 0.0
H453 H 0.75353 0.14868 0.84715 0.0
H454 H 0.7437 0.15866 0.87845 0.0
H455 H 0.84159 0.19208 0.89662 0.0
H456 H 0.8513 0.18216 0.86555 0.0
H457 H 0.74324 0.14383 0.91099 0.0
H458 H 0.82947 0.23271 0.90952 0.0
H459 H 0.78067 0.2139 0.95783 0.0
H460 H 0.79889 0.26765 0.9581 0.0
H461 H 0.87197 0.26097 0.93112 0.0
H462 H 0.91013 0.31548 0.94339 0.0
H463 H 0.72658 0.11166 0.93635 0.0
H464 H 0.7259 0.19669 0.95676 0.0
H465 H 0.83781 0.32066 0.97186 0.0
H466 H 0.68037 0.07935 0.95246 0.0
H467 H 0.68023 0.16438 0.97305 0.0
C468 C 0.64095 0.84763 0.15969 0.0
C469 C 0.66343 0.83988 0.16644 0.0
C470 C 0.63202 0.84347 0.14098 0.0
C471 C 0.64547 0.83155 0.12863 0.0
C472 C 0.66816 0.82404 0.13545 0.0
C473 C 0.67694 0.82803 0.15418 0.0
C474 C 0.63504 0.82593 0.10879 0.0
C475 C 0.62855 0.8474 0.10019 0.0
C476 C 0.61701 0.84118 0.08169 0.0
C477 C 0.61246 0.81354 0.07165 0.0
C478 C 0.61824 0.79152 0.08005 0.0
C479 C 0.62981 0.79803 0.09858 0.0
C480 C 0.60935 0.76037 0.07 0.0
C481 C 0.58054 0.74335 0.05882 0.0
C482 C 0.62852 0.74657 0.07231 0.0
C483 C 0.61853 0.71592 0.06412 0.0
C484 C 0.5892 0.69857 0.05352 0.0
C485 C 0.60676 0.86179 0.07319 0.0
C486 C 0.58649 0.86976 0.08189 0.0
C487 C 0.61527 0.87174 0.05589 0.0
C488 C 0.60343 0.88914 0.04736 0.0
C489 C 0.58249 0.89642 0.05588 0.0
C490 C 0.57438 0.88678 0.07329 0.0
C491 C 0.57063 0.7128 0.05061 0.0
H492 H 0.62978 0.85626 0.16892 0.0
H493 H 0.61401 0.84887 0.13624 0.0
H494 H 0.67923 0.81515 0.1263 0.0
H495 H 0.69444 0.82204 0.15908 0.0
H496 H 0.63231 0.86895 0.10789 0.0
H497 H 0.63311 0.78051 0.10531 0.0
H498 H 0.60314 0.80852 0.05742 0.0
H499 H 0.56498 0.75307 0.05699 0.0
H500 H 0.65104 0.7593 0.08063 0.0
H501 H 0.63346 0.70556 0.0663 0.0
H502 H 0.57917 0.86193 0.0951 0.0
H503 H 0.63105 0.86602 0.04898 0.0
H504 H 0.54783 0.69976 0.04258 0.0
H505 H 0.55812 0.89186 0.08014 0.0
H506 H 0.61075 0.89698 0.03416 0.0
C507 C 0.23969 0.86862 0.16233 0.0
C508 C 0.22534 0.84552 0.17459 0.0
C509 C 0.24473 0.85996 0.14491 0.0
C510 C 0.23563 0.82805 0.13943 0.0
C511 C 0.22282 0.80537 0.15206 0.0
C512 C 0.21768 0.81397 0.16938 0.0
C513 C 0.23711 0.81775 0.12026 0.0
C514 C 0.26335 0.83608 0.11063 0.0
C515 C 0.26397 0.82634 0.0923 0.0
C516 C 0.23763 0.79813 0.08374 0.0
C517 C 0.21173 0.7793 0.09328 0.0
C518 C 0.21157 0.78933 0.11143 0.0
C519 C 0.18518 0.74861 0.08441 0.0
C520 C 0.17136 0.74679 0.06687 0.0
C521 C 0.17418 0.7207 0.09328 0.0
C522 C 0.1505 0.69134 0.08452 0.0
C523 C 0.13724 0.68936 0.06677 0.0
C524 C 0.29194 0.84513 0.08201 0.0
C525 C 0.30969 0.87866 0.08495 0.0
C526 C 0.3007 0.82961 0.06874 0.0
C527 C 0.32573 0.84705 0.05839 0.0
C528 C 0.34346 0.88052 0.06136 0.0
C529 C 0.3352 0.89607 0.07486 0.0
C530 C 0.14744 0.71749 0.05819 0.0
H531 H 0.24659 0.8933 0.1661 0.0
H532 H 0.25465 0.87802 0.13552 0.0
H533 H 0.21612 0.7807 0.14843 0.0
H534 H 0.20668 0.79561 0.1785 0.0
H535 H 0.28352 0.85741 0.1176 0.0
H536 H 0.19103 0.77519 0.11855 0.0
H537 H 0.23723 0.79043 0.0696 0.0
H538 H 0.17906 0.76805 0.05986 0.0
H539 H 0.18458 0.72142 0.10677 0.0
H540 H 0.14318 0.67005 0.09144 0.0
H541 H 0.30359 0.89163 0.09483 0.0
H542 H 0.28821 0.80383 0.06625 0.0
H543 H 0.13703 0.71684 0.04472 0.0
H544 H 0.34846 0.92183 0.07762 0.0
H545 H 0.33078 0.83421 0.04785 0.0
C546 C 0.23605 0.41028 0.16884 0.0
C547 C 0.20452 0.38918 0.17205 0.0
C548 C 0.24317 0.42352 0.15214 0.0
C549 C 0.21892 0.41608 0.13821 0.0
C550 C 0.18742 0.39502 0.14153 0.0
C551 C 0.18034 0.38207 0.15821 0.0
C552 C 0.22599 0.43008 0.12029 0.0
C553 C 0.2531 0.43502 0.11189 0.0
C554 C 0.25842 0.44631 0.09454 0.0
C555 C 0.23615 0.45244 0.08555 0.0
C556 C 0.20936 0.44862 0.09379 0.0
C557 C 0.2049 0.43785 0.11127 0.0
C558 C 0.18601 0.45573 0.08416 0.0
C559 C 0.19583 0.47982 0.07224 0.0
C560 C 0.15356 0.4383 0.08666 0.0
C561 C 0.13181 0.44507 0.07779 0.0
C562 C 0.14168 0.46909 0.06587 0.0
C563 C 0.28725 0.45199 0.08566 0.0
C564 C 0.31746 0.46908 0.0954 0.0
C565 C 0.28495 0.4418 0.0671 0.0
C566 C 0.31212 0.44865 0.05847 0.0
C567 C 0.3424 0.466 0.06814 0.0
C568 C 0.34469 0.47623 0.08672 0.0
C569 C 0.17396 0.48605 0.06304 0.0
H570 H 0.25528 0.41636 0.17921 0.0
H571 H 0.26767 0.43989 0.15027 0.0
H572 H 0.16802 0.38821 0.13116 0.0
H573 H 0.15573 0.36662 0.1603 0.0
H574 H 0.26959 0.42915 0.11854 0.0
H575 H 0.1851 0.43596 0.11807 0.0
H576 H 0.23993 0.4604 0.07207 0.0
H577 H 0.22053 0.49419 0.07002 0.0
H578 H 0.14468 0.41906 0.09534 0.0
H579 H 0.10719 0.43148 0.08036 0.0
H580 H 0.32011 0.47776 0.10962 0.0
H581 H 0.26204 0.42837 0.05922 0.0
H582 H 0.18244 0.50402 0.05355 0.0
H583 H 0.3676 0.49038 0.09451 0.0
H584 H 0.3094 0.44015 0.04422 0.0
C585 C 0.47435 0.93436 0.19086 0.0
C586 C 0.47138 0.96107 0.18772 0.0
C587 C 0.46817 0.92144 0.20762 0.0
C588 C 0.45853 0.93469 0.22164 0.0
C589 C 0.45463 0.96084 0.2183 0.0
C590 C 0.46111 0.97396 0.20156 0.0
C591 C 0.45385 0.92193 0.23984 0.0
C592 C 0.47597 0.91468 0.24797 0.0
C593 C 0.47234 0.90286 0.2651 0.0
C594 C 0.44576 0.89755 0.27402 0.0
C595 C 0.42305 0.90417 0.26613 0.0
C596 C 0.42757 0.91693 0.24916 0.0
C597 C 0.39431 0.89677 0.27555 0.0
C598 C 0.37656 0.8668 0.28211 0.0
C599 C 0.38471 0.91952 0.27838 0.0
C600 C 0.35816 0.91252 0.28776 0.0
C601 C 0.34043 0.88248 0.29418 0.0
C602 C 0.49644 0.89629 0.2738 0.0
C603 C 0.50702 0.8782 0.26402 0.0
C604 C 0.50893 0.90798 0.29201 0.0
C605 C 0.53161 0.90187 0.30025 0.0
C606 C 0.54213 0.88359 0.29055 0.0
C607 C 0.52934 0.87164 0.27235 0.0
C608 C 0.34977 0.85966 0.29119 0.0
H609 H 0.48217 0.92386 0.18048 0.0
H610 H 0.47104 0.90105 0.20962 0.0
H611 H 0.44735 0.97169 0.2288 0.0
H612 H 0.45814 0.99426 0.19946 0.0
H613 H 0.49665 0.91911 0.24117 0.0
H614 H 0.41006 0.92186 0.24293 0.0
H615 H 0.44265 0.88805 0.28714 0.0
H616 H 0.38319 0.84869 0.28003 0.0
H617 H 0.39801 0.94285 0.27357 0.0
H618 H 0.35122 0.9304 0.28982 0.0
H619 H 0.49749 0.86854 0.25003 0.0
H620 H 0.50143 0.92222 0.29984 0.0
H621 H 0.33632 0.83627 0.29591 0.0
H622 H 0.53608 0.85667 0.26461 0.0
H623 H 0.54107 0.91167 0.31422 0.0
C624 C 0.01013 0.47363 0.20333 0.0
C625 C 0.02467 0.4968 0.19121 0.0
C626 C 0.01998 0.4811 0.222 0.0
C627 C 0.04405 0.51201 0.22879 0.0
C628 C 0.05852 0.53511 0.21662 0.0
C629 C 0.04899 0.52753 0.19798 0.0
C630 C 0.05402 0.52048 0.24854 0.0
C631 C 0.0625 0.50177 0.25857 0.0
C632 C 0.07383 0.51085 0.27714 0.0
C633 C 0.07602 0.53872 0.28558 0.0
C634 C 0.06803 0.55789 0.27563 0.0
C635 C 0.05671 0.54838 0.25715 0.0
C636 C 0.07407 0.5891 0.28417 0.0
C637 C 0.06794 0.59252 0.30231 0.0
C638 C 0.08812 0.61623 0.27457 0.0
C639 C 0.09678 0.64625 0.28309 0.0
C640 C 0.09183 0.64976 0.30139 0.0
C641 C 0.08499 0.49231 0.28745 0.0
C642 C 0.06961 0.45888 0.28412 0.0
C643 C 0.11166 0.50802 0.30043 0.0
C644 C 0.12245 0.49073 0.30994 0.0
C645 C 0.10717 0.45737 0.30652 0.0
C646 C 0.08081 0.44166 0.29338 0.0
C647 C 0.07682 0.62264 0.31086 0.0
H648 H 0.99125 0.44981 0.19834 0.0
H649 H 0.00843 0.46296 0.23118 0.0
H650 H 0.0773 0.55903 0.22152 0.0
H651 H 0.06025 0.54585 0.18887 0.0
H652 H 0.06164 0.48098 0.25163 0.0
H653 H 0.0501 0.56281 0.24939 0.0
H654 H 0.08487 0.54607 0.29984 0.0
H655 H 0.05668 0.57199 0.30996 0.0
H656 H 0.09362 0.61452 0.26069 0.0
H657 H 0.10851 0.66692 0.27558 0.0
H658 H 0.04891 0.44592 0.27433 0.0
H659 H 0.12465 0.53379 0.30307 0.0
H660 H 0.07235 0.62483 0.32493 0.0
H661 H 0.06907 0.41606 0.29 0.0
H662 H 0.14288 0.50352 0.31994 0.0
C663 C 0.44327 0.48195 0.19309 0.0
C664 C 0.47414 0.49072 0.18901 0.0
C665 C 0.43762 0.48884 0.21074 0.0
C666 C 0.4628 0.50487 0.2246 0.0
C667 C 0.49348 0.51284 0.22057 0.0
C668 C 0.4991 0.50606 0.203 0.0
C669 C 0.45782 0.51526 0.2429 0.0
C670 C 0.43186 0.49499 0.25212 0.0
C671 C 0.42765 0.50524 0.2695 0.0
C672 C 0.45022 0.53601 0.27761 0.0
C673 C 0.47625 0.55666 0.26859 0.0
C674 C 0.47944 0.5461 0.25114 0.0
C675 C 0.49999 0.58933 0.27725 0.0
C676 C 0.49081 0.60697 0.28866 0.0
C677 C 0.5321 0.60331 0.27406 0.0
C678 C 0.55422 0.63414 0.28179 0.0
C679 C 0.54509 0.65147 0.29343 0.0
C680 C 0.39934 0.48457 0.27905 0.0
C681 C 0.3695 0.465 0.2692 0.0
C682 C 0.4015 0.48557 0.29822 0.0
C683 C 0.37443 0.46897 0.30728 0.0
C684 C 0.34448 0.45045 0.29744 0.0
C685 C 0.34251 0.44789 0.27827 0.0
C686 C 0.5131 0.63744 0.29678 0.0
H687 H 0.42357 0.47014 0.18256 0.0
H688 H 0.41376 0.48262 0.21336 0.0
H689 H 0.51336 0.52491 0.23097 0.0
H690 H 0.52325 0.51379 0.20025 0.0
H691 H 0.41531 0.47108 0.24587 0.0
H692 H 0.49851 0.56224 0.24366 0.0
H693 H 0.44735 0.54407 0.29097 0.0
H694 H 0.46631 0.59752 0.2912 0.0
H695 H 0.54034 0.59047 0.2656 0.0
H696 H 0.57841 0.64445 0.27844 0.0
H697 H 0.36669 0.46355 0.25446 0.0
H698 H 0.42411 0.49954 0.30633 0.0
H699 H 0.50521 0.65003 0.30573 0.0
H700 H 0.32002 0.43288 0.2702 0.0
H701 H 0.37691 0.47129 0.32205 0.0
Tb702 Tb 0.49569 0.98322 0.99138 0.0
Eu703 Eu 0.51795 0.02538 0.03227 0.0
C704 C 0.5271 0.96615 0.02388 0.0
C705 C 0.45067 0.96102 0.02224 0.0
C706 C 0.48999 0.97057 0.94112 0.0
C707 C 0.50482 0.96873 0.91032 0.0
C708 C 0.49679 0.95524 0.92683 0.0
C709 C 0.49116 0.9996 0.93859 0.0
C710 C 0.49903 0.01304 0.92204 0.0
C711 C 0.50636 0.99798 0.90776 0.0
C712 C 0.48419 0.95736 0.95897 0.0
O713 O 0.47284 0.01197 0.99246 0.0
O714 O 0.50712 0.05399 0.01349 0.0
O715 O 0.56161 0.04404 0.01673 0.0
O716 O 0.53443 0.03036 0.98845 0.0
C717 C 0.48428 0.04134 1.00007 0.0
O718 O 0.50838 0.04958 0.05496 0.0
O719 O 0.5501 0.04479 0.05733 0.0
O720 O 0.51664 0.97937 0.03541 0.0
O721 O 0.52643 0.96997 1.00644 0.0
O722 O 0.46191 0.95138 1.00903 0.0
O723 O 0.46546 0.99066 0.02976 0.0
C724 C 0.56116 0.04525 0.99895 0.0
O725 O 0.50957 0.96473 0.96955 0.0
O726 O 0.46328 0.95997 0.96801 0.0
C727 C 0.52299 0.03925 0.08383 0.0
C728 C 0.50561 0.01491 0.11794 0.0
C729 C 0.50687 0.04357 0.11404 0.0
C730 C 0.51559 0.05564 0.09721 0.0
C731 C 0.52123 0.01035 0.08755 0.0
C732 C 0.51274 0.9984 0.10441 0.0
C733 C 0.53147 0.05193 0.06593 0.0
H734 H 0.51044 0.95657 0.89966 0.0
H735 H 0.49642 0.93304 0.92856 0.0
H736 H 0.4864 0.01212 0.94949 0.0
H737 H 0.4993 0.0352 0.92043 0.0
H738 H 0.50069 0.0565 0.12389 0.0
H739 H 0.51632 0.07772 0.09458 0.0
H740 H 0.52637 0.99692 0.07741 0.0
H741 H 0.51205 0.9763 0.10691 0.0
Tb742 Tb 0.02701 0.5174 0.99464 0.0
Eu743 Eu 0.98492 0.49522 0.02962 0.0
C744 C 0.04451 0.56468 0.03 0.0
C745 C 0.04856 0.49274 0.02754 0.0
C746 C 0.05285 0.53099 0.94785 0.0
C747 C 0.0647 0.55451 0.91921 0.0
C748 C 0.07141 0.55667 0.93803 0.0
C749 C 0.02747 0.50295 0.93862 0.0
C750 C 0.02091 0.50066 0.91974 0.0
C751 C 0.03946 0.52644 0.90985 0.0
C752 C 0.05931 0.53482 0.96777 0.0
O753 O 0.99637 0.46552 0.98992 0.0
O754 O 0.95534 0.46002 1.00583 0.0
O755 O 0.96635 0.521 0.01303 0.0
O756 O 0.98268 0.5149 0.98523 0.0
C757 C 0.96657 0.44941 0.99326 0.0
O758 O 0.95843 0.45826 0.0473 0.0
O759 O 0.96206 0.50465 0.05167 0.0
O760 O 0.02938 0.54099 0.03987 0.0
O761 O 0.03986 0.56058 0.01214 0.0
O762 O 0.05762 0.51499 0.01633 0.0
O763 O 0.01894 0.47647 0.03107 0.0
C764 C 0.96459 0.52117 0.9952 0.0
O765 O 0.04938 0.55175 0.97648 0.0
O766 O 0.05343 0.50939 0.97569 0.0
C767 C 0.96338 0.47913 0.07759 0.0
C768 C 0.98317 0.48073 0.11436 0.0
C769 C 0.95449 0.45488 0.10607 0.0
C770 C 0.94469 0.45409 0.08779 0.0
C771 C 0.99194 0.50505 0.08586 0.0
C772 C 1.00158 0.50598 0.10412 0.0
C773 C 0.95376 0.47742 0.05817 0.0
H774 H 0.07883 0.57509 0.91205 0.0
H775 H 0.09078 0.57867 0.945 0.0
H776 H 0.01256 0.48299 0.94601 0.0
H777 H 1.00128 0.47876 0.91287 0.0
H778 H 0.93986 0.43514 0.11366 0.0
H779 H 0.9227 0.43381 0.08156 0.0
H780 H 1.00687 0.52458 0.0782 0.0
H781 H 0.02336 0.52661 0.11028 0.0
Tb782 Tb 0.52153 0.49825 0.03167 0.0
Eu783 Eu 0.49127 0.50993 0.99388 0.0
C784 C 0.48166 0.44322 1.00178 0.0
C785 C 0.56035 0.51685 0.99734 0.0
C786 C 0.53006 0.48687 0.08024 0.0
C787 C 0.50926 0.4579 0.10656 0.0
C788 C 0.51986 0.45925 0.08926 0.0
C789 C 0.52933 0.51313 0.08882 0.0
C790 C 0.51903 0.5119 0.1062 0.0
C791 C 0.50904 0.48434 0.11532 0.0
C792 C 0.53966 0.48711 0.06159 0.0
O793 O 0.52283 0.54331 0.03666 0.0
O794 O 0.52881 0.55773 1.00771 0.0
O795 O 0.45898 0.50896 0.01495 0.0
O796 O 0.4722 0.48262 0.0355 0.0
C797 C 0.53295 0.56541 0.02538 0.0
O798 O 0.48547 0.54034 0.97514 0.0
O799 O 0.46413 0.48973 0.96728 0.0
O800 O 0.466 0.45777 0.99779 0.0
O801 O 0.50934 0.45876 0.01134 0.0
O802 O 0.56159 0.52037 0.01527 0.0
O803 O 0.53373 0.50632 0.98692 0.0
C804 C 0.45383 0.49358 0.02965 0.0
O805 O 0.5182 0.46497 0.0496 0.0
O806 O 0.55433 0.51467 0.05497 0.0
C807 C 0.48572 0.52353 0.94434 0.0
C808 C 0.51144 0.52846 0.91053 0.0
C809 C 0.47881 0.51682 0.91119 0.0
C810 C 0.46612 0.51445 0.92794 0.0
C811 C 0.51835 0.53551 0.94378 0.0
C812 C 0.53108 0.538 0.92704 0.0
C813 C 0.47162 0.51743 0.96184 0.0
H814 H 0.5009 0.436 0.11299 0.0
H815 H 0.51972 0.43851 0.0828 0.0
H816 H 0.53655 0.53458 0.08211 0.0
H817 H 0.51916 0.53267 0.11258 0.0
H818 H 0.46286 0.5084 0.89878 0.0
H819 H 0.44082 0.50461 0.92809 0.0
H820 H 0.53386 0.54223 0.95629 0.0
H821 H 0.55626 0.54697 0.927 0.0
Tb822 Tb 0.16268 0.32202 0.32687 0.0
Eu823 Eu 0.18899 0.36251 0.36793 0.0
C824 C 0.1909 0.29972 0.35806 0.0
C825 C 0.11929 0.30132 0.35883 0.0
C826 C 0.15609 0.3105 0.27624 0.0
C827 C 0.17069 0.30671 0.24557 0.0
C828 C 0.16246 0.29417 0.2623 0.0
C829 C 0.15848 0.33993 0.27322 0.0
C830 C 0.16646 0.35239 0.25639 0.0
C831 C 0.1724 0.33579 0.24226 0.0
C832 C 0.1488 0.2973 0.29408 0.0
O833 O 0.14214 0.3526 0.33019 0.0
O834 O 0.1806 0.39393 0.35006 0.0
O835 O 0.23127 0.37796 0.35171 0.0
O836 O 0.20342 0.36812 0.32386 0.0
C837 C 0.1563 0.38231 0.33761 0.0
O838 O 0.18305 0.38806 0.39145 0.0
O839 O 0.2222 0.37895 0.39247 0.0
O840 O 0.18226 0.31397 0.37006 0.0
O841 O 0.19181 0.30571 0.34093 0.0
O842 O 0.12756 0.29088 0.34438 0.0
O843 O 0.13622 0.33099 0.36618 0.0
C844 C 0.23032 0.38181 0.33426 0.0
O845 O 0.17296 0.30096 0.30451 0.0
O846 O 0.13 0.30312 0.30337 0.0
C847 C 0.19567 0.37305 0.41921 0.0
C848 C 0.17413 0.34432 0.45171 0.0
C849 C 0.17643 0.37381 0.44886 0.0
C850 C 0.18707 0.38799 0.43278 0.0
C851 C 0.19354 0.34366 0.42205 0.0
C852 C 0.18317 0.32962 0.43816 0.0
C853 C 0.20517 0.38737 0.40183 0.0
H854 H 0.17615 0.29378 0.2353 0.0
H855 H 0.16142 0.27178 0.26444 0.0
H856 H 0.15429 0.35336 0.28386 0.0
H857 H 0.16768 0.37489 0.25438 0.0
H858 H 0.16954 0.38571 0.45896 0.0
H859 H 0.18822 0.41049 0.43085 0.0
H860 H 0.19971 0.33135 0.41177 0.0
H861 H 0.18242 0.3073 0.44004 0.0
Tb862 Tb 0.69263 0.84716 0.32888 0.0
Eu863 Eu 0.64841 0.82714 0.36305 0.0
C864 C 0.71008 0.89554 0.36412 0.0
C865 C 0.71245 0.82332 0.36313 0.0
C866 C 0.71553 0.85732 0.28177 0.0
C867 C 0.72865 0.87533 0.25189 0.0
C868 C 0.73716 0.87814 0.27057 0.0
C869 C 0.68531 0.83343 0.2741 0.0
C870 C 0.67688 0.83045 0.25538 0.0
C871 C 0.69837 0.85163 0.24418 0.0
C872 C 0.72399 0.86223 0.30153 0.0
O873 O 0.66244 0.79525 0.32545 0.0
O874 O 0.6201 0.79139 0.33913 0.0
O875 O 0.63281 0.8547 0.34595 0.0
O876 O 0.6488 0.84519 0.31884 0.0
C877 C 0.63227 0.7795 0.32795 0.0
O878 O 0.61879 0.79008 0.37987 0.0
O879 O 0.62585 0.83784 0.38483 0.0
O880 O 0.69305 0.87211 0.37374 0.0
O881 O 0.70817 0.8913 0.34624 0.0
O882 O 0.72226 0.84335 0.35059 0.0
O883 O 0.68296 0.80942 0.36714 0.0
C884 C 0.63189 0.8542 0.3281 0.0
O885 O 0.71595 0.88064 0.31044 0.0
O886 O 0.71732 0.83687 0.30971 0.0
C887 C 0.62384 0.81013 0.4103 0.0
C888 C 0.64128 0.80857 0.44705 0.0
C889 C 0.61096 0.78598 0.43872 0.0
C890 C 0.60233 0.78676 0.42046 0.0
C891 C 0.65411 0.83272 0.41856 0.0
C892 C 0.66262 0.83216 0.43682 0.0
C893 C 0.6153 0.80991 0.39089 0.0
H894 H 0.7457 0.89168 0.24346 0.0
H895 H 0.76047 0.89684 0.27632 0.0
H896 H 0.66816 0.81742 0.28263 0.0
H897 H 0.65337 0.81207 0.24971 0.0
H898 H 0.59407 0.76753 0.44629 0.0
H899 H 0.57898 0.76895 0.41422 0.0
H900 H 0.6712 0.85079 0.41089 0.0
H901 H 0.68584 0.85041 0.44296 0.0
Tb902 Tb 0.18693 0.83374 0.36439 0.0
Eu903 Eu 0.16034 0.84963 0.3269 0.0
C904 C 0.14581 0.78016 0.33367 0.0
C905 C 0.22661 0.85128 0.3303 0.0
C906 C 0.19405 0.82299 0.41278 0.0
C907 C 0.17328 0.79695 0.43996 0.0
C908 C 0.18499 0.79698 0.42309 0.0
C909 C 0.19152 0.84919 0.41969 0.0
C910 C 0.18012 0.84931 0.43661 0.0
C911 C 0.1704 0.82298 0.44682 0.0
C912 C 0.20355 0.82136 0.3943 0.0
O913 O 0.18773 0.87821 0.37071 0.0
O914 O 0.19748 0.89581 0.34264 0.0
O915 O 0.12724 0.84836 0.34736 0.0
O916 O 0.13762 0.81974 0.36769 0.0
C917 C 0.19844 0.90153 0.36029 0.0
O918 O 0.16148 0.88374 0.3085 0.0
O919 O 0.13157 0.83317 0.30061 0.0
O920 O 0.13276 0.79681 0.32875 0.0
O921 O 0.17263 0.79365 0.34412 0.0
O922 O 0.22771 0.85519 0.34822 0.0
O923 O 0.20036 0.84215 0.3199 0.0
C924 C 0.12024 0.83169 0.36155 0.0
O925 O 0.18117 0.79983 0.38246 0.0
O926 O 0.22002 0.84842 0.38743 0.0
C927 C 0.15839 0.86486 0.27775 0.0
C928 C 0.18356 0.86499 0.24423 0.0
C929 C 0.15165 0.85676 0.24465 0.0
C930 C 0.13923 0.85679 0.26126 0.0
C931 C 0.1903 0.87327 0.27742 0.0
C932 C 0.20278 0.8734 0.26082 0.0
C933 C 0.1444 0.86164 0.29521 0.0
H934 H 0.16598 0.77633 0.44749 0.0
H935 H 0.18642 0.77639 0.41793 0.0
H936 H 0.19805 0.86949 0.41197 0.0
H937 H 0.17909 0.87013 0.44173 0.0
H938 H 0.13597 0.84925 0.23216 0.0
H939 H 0.11443 0.84966 0.26126 0.0
H940 H 0.20544 0.87913 0.29001 0.0
H941 H 0.22738 0.87973 0.26097 0.0
Tb942 Tb 0.83575 0.66001 0.66178 0.0
Eu943 Eu 0.85831 0.70204 0.70246 0.0
C944 C 0.87119 0.64426 0.69226 0.0
C945 C 0.79373 0.6372 0.69481 0.0
C946 C 0.83038 0.6484 0.61149 0.0
C947 C 0.84519 0.64485 0.58082 0.0
C948 C 0.83622 0.63184 0.5974 0.0
C949 C 0.83374 0.67831 0.60869 0.0
C950 C 0.84249 0.69122 0.59208 0.0
C951 C 0.8486 0.6748 0.57795 0.0
C952 C 0.82175 0.63477 0.62914 0.0
O953 O 0.83632 0.70445 0.65905 0.0
O954 O 0.82279 0.7111 0.68728 0.0
O955 O 0.89192 0.73459 0.68354 0.0
O956 O 0.88644 0.69381 0.66326 0.0
C957 C 0.82299 0.71542 0.66995 0.0
O958 O 0.84522 0.72268 0.72512 0.0
O959 O 0.89088 0.72553 0.7272 0.0
O960 O 0.88263 0.67316 0.70052 0.0
O961 O 0.84773 0.63218 0.67915 0.0
O962 O 0.79367 0.63973 0.6771 0.0
O963 O 0.82004 0.65268 0.70561 0.0
C964 C 0.90176 0.72392 0.67006 0.0
O965 O 0.84483 0.63671 0.63989 0.0
O966 O 0.80362 0.64205 0.63814 0.0
C967 C 0.8635 0.71631 0.75386 0.0
C968 C 0.84637 0.69005 0.78745 0.0
C969 C 0.84548 0.71775 0.7838 0.0
C970 C 0.85404 0.73077 0.76721 0.0
C971 C 0.86421 0.6885 0.75737 0.0
C972 C 0.85582 0.67558 0.774 0.0
C973 C 0.8701 0.72902 0.73591 0.0
H974 H 0.84978 0.63158 0.57028 0.0
H975 H 0.834 0.60885 0.59926 0.0
H976 H 0.82953 0.69173 0.61933 0.0
H977 H 0.84404 0.71391 0.59025 0.0
H978 H 0.8375 0.72903 0.79361 0.0
H979 H 0.85271 0.75185 0.76466 0.0
H980 H 0.87084 0.67651 0.74716 0.0
H981 H 0.85672 0.65421 0.77635 0.0
Tb982 Tb 0.365 0.18758 0.66139 0.0
Eu983 Eu 0.32152 0.16671 0.69587 0.0
C984 C 0.38297 0.23477 0.69691 0.0
C985 C 0.38255 0.15915 0.69403 0.0
C986 C 0.3907 0.19977 0.6148 0.0
C987 C 0.40723 0.21708 0.58522 0.0
C988 C 0.41419 0.21926 0.60403 0.0
C989 C 0.3602 0.17777 0.60658 0.0
C990 C 0.35329 0.17538 0.58773 0.0
C991 C 0.37666 0.19533 0.57694 0.0
C992 C 0.39778 0.20408 0.63466 0.0
O993 O 0.33231 0.13617 0.65578 0.0
O994 O 0.29202 0.13117 0.67228 0.0
O995 O 0.30512 0.194 0.67902 0.0
O996 O 0.32149 0.18625 0.65162 0.0
C997 C 0.30275 0.12006 0.65963 0.0
O998 O 0.29002 0.12998 0.71215 0.0
O999 O 0.30252 0.17924 0.719 0.0
O1000 O 0.36737 0.21063 0.70637 0.0
O1001 O 0.37946 0.23119 0.67901 0.0
O1002 O 0.39341 0.18193 0.68312 0.0
O1003 O 0.35295 0.14503 0.69773 0.0
C1004 C 0.30415 0.19418 0.66119 0.0
O1005 O 0.3886 0.22172 0.64335 0.0
O1006 O 0.39103 0.17849 0.64263 0.0
C1007 C 0.29678 0.14828 0.74328 0.0
C1008 C 0.31418 0.14851 0.78027 0.0
C1009 C 0.29145 0.15706 0.77524 0.0
C1010 C 0.28283 0.15694 0.75687 0.0
C1011 C 0.31905 0.13913 0.74823 0.0
C1012 C 0.32746 0.13897 0.76658 0.0
C1013 C 0.28919 0.15046 0.72409 0.0
H1014 H 0.42569 0.23241 0.57712 0.0
H1015 H 0.43778 0.23648 0.61022 0.0
H1016 H 0.34168 0.16288 0.61478 0.0
H1017 H 0.32953 0.15852 0.58163 0.0
H1018 H 0.28098 0.16466 0.78553 0.0
H1019 H 0.26574 0.16423 0.75327 0.0
H1020 H 0.33025 0.13249 0.73794 0.0
H1021 H 0.34455 0.13163 0.77006 0.0
Tb1022 Tb 0.85085 0.16169 0.69696 0.0
Eu1023 Eu 0.82435 0.17938 0.65968 0.0
C1024 C 0.81484 0.11083 0.66305 0.0
C1025 C 0.89243 0.18304 0.66419 0.0
C1026 C 0.85824 0.15206 0.74573 0.0
C1027 C 0.84301 0.13013 0.77465 0.0
C1028 C 0.85317 0.12864 0.75746 0.0
C1029 C 0.85299 0.17708 0.75145 0.0
C1030 C 0.84309 0.17872 0.76869 0.0
C1031 C 0.83774 0.15512 0.78041 0.0
C1032 C 0.8665 0.14876 0.72712 0.0
O1033 O 0.87355 0.21351 0.69786 0.0
O1034 O 0.83443 0.21757 0.68187 0.0
O1035 O 0.78232 0.15503 0.67619 0.0
O1036 O 0.8107 0.16623 0.70416 0.0
C1037 C 0.85923 0.22948 0.69389 0.0
O1038 O 0.83115 0.2144 0.64056 0.0
O1039 O 0.7913 0.16615 0.63531 0.0
O1040 O 0.82366 0.13377 0.65245 0.0
O1041 O 0.81823 0.11665 0.68086 0.0
O1042 O 0.88328 0.16385 0.67722 0.0
O1043 O 0.8763 0.19646 0.65847 0.0
C1044 C 0.7838 0.15619 0.69413 0.0
O1045 O 0.84297 0.12808 0.71564 0.0
O1046 O 0.88413 0.17503 0.71985 0.0
C1047 C 0.81885 0.19075 0.61031 0.0
C1048 C 0.84312 0.18938 0.57661 0.0
C1049 C 0.83393 0.21199 0.58119 0.0
C1050 C 0.82196 0.2127 0.59792 0.0
C1051 C 0.82765 0.16792 0.60568 0.0
C1052 C 0.83935 0.16704 0.58895 0.0
C1053 C 0.80884 0.19313 0.62855 0.0
H1054 H 0.83954 0.1119 0.78352 0.0
H1055 H 0.85676 0.10899 0.75324 0.0
H1056 H 0.85614 0.19511 0.74249 0.0
H1057 H 0.83908 0.19815 0.77276 0.0
H1058 H 0.83656 0.22952 0.57198 0.0
H1059 H 0.81565 0.23073 0.60132 0.0
H1060 H 0.82583 0.15094 0.61509 0.0
H1061 H 0.84538 0.14878 0.58568 0.0
C1062 C 0.37374 0.92779 0.04392 0.0
C1063 C 0.37 0.89937 0.0502 0.0
C1064 C 0.3993 0.94695 0.03424 0.0
C1065 C 0.42174 0.93813 0.03005 0.0
H1066 H 0.35694 0.93553 0.04665 0.0
H1067 H 0.40175 0.96911 0.03019 0.0
S1068 S 0.42379 0.86686 0.04354 0.0
N1069 N 0.39194 0.86404 0.05185 0.0
N1070 N 0.4391 0.89953 0.03291 0.0
C1071 C 0.41803 0.9095 0.03574 0.0
C1072 C 0.39237 0.89024 0.04597 0.0
C1073 C 0.08807 0.45051 0.04911 0.0
C1074 C 0.1182 0.47586 0.0562 0.0
C1075 C 0.06557 0.45612 0.03999 0.0
C1076 C 0.07251 0.48725 0.03723 0.0
H1077 H 0.08184 0.426 0.05041 0.0
H1078 H 0.04275 0.43588 0.03477 0.0
S1079 S 0.14634 0.56222 0.05435 0.0
N1080 N 0.15244 0.53365 0.061 0.0
N1081 N 0.11073 0.54388 0.04307 0.0
C1082 C 0.10229 0.51284 0.04429 0.0
C1083 C 0.12498 0.50724 0.05394 0.0
C1084 C 0.56557 0.65486 0.02788 0.0
C1085 C 0.57684 0.66495 0.04638 0.0
C1086 C 0.55187 0.62268 0.02113 0.0
C1087 C 0.54857 0.59941 0.0327 0.0
H1088 H 0.56721 0.67196 0.01859 0.0
H1089 H 0.5433 0.61598 1.0068 0.0
S1090 S 0.57468 0.61395 0.08232 0.0
N1091 N 0.58405 0.6495 0.07617 0.0
N1092 N 0.55853 0.58908 0.06357 0.0
C1093 C 0.56014 0.60938 0.05122 0.0
C1094 C 0.57425 0.64215 0.05804 0.0
C1095 C 0.93121 0.36387 0.9728 0.0
C1096 C 0.90041 0.35607 0.96596 0.0
C1097 C 0.95315 0.39464 0.98097 0.0
C1098 C 0.94484 0.41842 0.98285 0.0
H1099 H 0.93815 0.34586 0.97234 0.0
H1100 H 0.97629 0.39947 0.9865 0.0
S1101 S 0.86925 0.41201 0.96526 0.0
N1102 N 0.86438 0.37621 0.95984 0.0
N1103 N 0.90513 0.43338 0.97607 0.0
C1104 C 0.9147 0.41141 0.97561 0.0
C1105 C 0.89259 0.38039 0.96695 0.0
C1106 C 0.6141 0.5164 0.96215 0.0
C1107 C 0.64434 0.54081 0.96954 0.0
C1108 C 0.58718 0.50883 0.97128 0.0
C1109 C 0.58951 0.52485 0.98837 0.0
H1110 H 0.61121 0.50333 0.94909 0.0
H1111 H 0.56435 0.49007 0.96492 0.0
S1112 S 0.66349 0.59039 0.01367 0.0
N1113 N 0.67518 0.58096 0.9949 0.0
N1114 N 0.62475 0.56631 0.01228 0.0
C1115 C 0.61972 0.54905 0.99601 0.0
C1116 C 0.64706 0.55717 0.98653 0.0
C1117 C 0.44246 0.06987 0.9681 0.0
C1118 C 0.4446 0.09629 0.97843 0.0
C1119 C 0.45525 0.05223 0.97528 0.0
C1120 C 0.47085 0.06043 0.99304 0.0
H1121 H 0.43134 0.06313 0.95421 0.0
H1122 H 0.4533 0.03228 0.96671 0.0
S1123 S 0.48052 0.12605 0.02618 0.0
N1124 N 0.4617 0.12869 1.00768 0.0
N1125 N 0.48629 0.09582 0.02113 0.0
C1126 C 0.47276 0.08654 1.00363 0.0
C1127 C 0.4595 0.10438 0.99633 0.0
C1128 C 0.64624 0.10648 0.99162 0.0
C1129 C 0.64757 0.09977 0.97295 0.0
C1130 C 0.61846 0.08856 1.00011 0.0
C1131 C 0.59084 0.06371 0.99014 0.0
H1132 H 0.66688 0.12564 0.99973 0.0
H1133 H 0.61849 0.09457 0.01448 0.0
S1134 S 0.58224 0.03682 0.94079 0.0
N1135 N 0.61903 0.0667 0.9448 0.0
N1136 N 0.56706 0.03308 0.96049 0.0
C1137 C 0.59206 0.0568 0.97143 0.0
C1138 C 0.62033 0.07479 0.96291 0.0
C1139 C 0.92324 0.54642 0.96024 0.0
C1140 C 0.89539 0.5404 0.96803 0.0
C1141 C 0.94538 0.53995 0.96904 0.0
C1142 C 0.94068 0.52747 0.98604 0.0
H1143 H 0.92823 0.55667 0.94737 0.0
H1144 H 0.96658 0.54528 0.96258 0.0
S1145 S 0.87005 0.50419 0.01127 0.0
N1146 N 0.86319 0.51872 0.99302 0.0
N1147 N 0.90497 0.50725 1.0097 0.0
C1148 C 0.91264 0.52073 0.99379 0.0
C1149 C 0.88999 0.52703 0.98476 0.0
C1150 C 0.42291 0.35796 0.98308 0.0
C1151 C 0.44267 0.34575 0.97876 0.0
C1152 C 0.43577 0.38957 0.99071 0.0
C1153 C 0.46872 0.40967 0.99454 0.0
H1154 H 0.39746 0.34325 0.9801 0.0
H1155 H 0.41979 0.39834 0.99357 0.0
S1156 S 0.53024 0.38816 0.98625 0.0
N1157 N 0.4964 0.35542 0.97911 0.0
N1158 N 0.52072 0.41475 0.99374 0.0
C1159 C 0.48862 0.39733 0.99069 0.0
C1160 C 0.47553 0.36535 0.98269 0.0
C1161 C 0.088 0.63577 0.06595 0.0
C1162 C 0.11351 0.65785 0.05708 0.0
C1163 C 0.06571 0.60566 0.05713 0.0
C1164 C 0.068 0.59665 0.03906 0.0
H1165 H 0.08512 0.64189 0.0798 0.0
H1166 H 0.04642 0.58946 0.06447 0.0
S1167 S 0.13197 0.64458 1.0104 0.0
N1168 N 0.14094 0.6677 0.02967 0.0
N1169 N 0.09882 0.61153 0.01296 0.0
C1170 C 0.09359 0.61836 0.03011 0.0
C1171 C 0.11638 0.64885 0.03914 0.0
C1172 C 0.37471 0.48457 0.04133 0.0
C1173 C 0.37135 0.47349 0.05875 0.0
C1174 C 0.40147 0.49138 0.03212 0.0
C1175 C 0.426 0.4872 0.03985 0.0
H1176 H 0.35655 0.48823 0.03477 0.0
H1177 H 0.40272 0.49968 0.01873 0.0
S1178 S 0.42895 0.45895 0.08532 0.0
N1179 N 0.39496 0.45853 0.08332 0.0
N1180 N 0.4453 0.47184 0.06638 0.0
C1181 C 0.42305 0.4764 0.05738 0.0
C1182 C 0.39581 0.46947 0.06672 0.0
C1183 C 0.56876 0.93953 0.0571 0.0
C1184 C 0.56923 0.91437 0.04692 0.0
C1185 C 0.55511 0.95603 0.04944 0.0
C1186 C 0.54162 0.94826 0.03122 0.0
H1187 H 0.57907 0.94661 0.07115 0.0
H1188 H 0.5554 0.97525 0.05788 0.0
S1189 S 0.53598 0.88383 0.9988 0.0
N1190 N 0.55428 0.88187 0.01775 0.0
N1191 N 0.52928 0.91363 1.00317 0.0
C1192 C 0.54223 0.92345 0.02075 0.0
C1193 C 0.55589 0.90634 0.02864 0.0
C1194 C 0.03767 0.23352 0.36699 0.0
C1195 C 0.03615 0.2401 0.38565 0.0
C1196 C 0.06479 0.25293 0.3583 0.0
C1197 C 0.09125 0.27957 0.36801 0.0
H1198 H 0.01752 0.21361 0.35897 0.0
H1199 H 0.06476 0.24747 0.34386 0.0
S1200 S 0.10066 0.30423 0.41771 0.0
N1201 N 0.06451 0.27316 0.41386 0.0
N1202 N 0.11519 0.30953 0.39778 0.0
C1203 C 0.09035 0.28555 0.38685 0.0
C1204 C 0.06289 0.26588 0.39561 0.0
C1205 C 0.78587 0.81703 0.37516 0.0
C1206 C 0.78131 0.80564 0.39247 0.0
C1207 C 0.76352 0.82258 0.3658 0.0
C1208 C 0.73551 0.81679 0.37328 0.0
H1209 H 0.80678 0.82141 0.36866 0.0
H1210 H 0.76817 0.83123 0.35249 0.0
S1211 S 0.71315 0.78907 0.41879 0.0
N1212 N 0.74733 0.79044 0.41715 0.0
N1213 N 0.70514 0.80027 0.39948 0.0
C1214 C 0.73071 0.80561 0.39065 0.0
C1215 C 0.7536 0.80017 0.40024 0.0
C1216 C 0.24594 0.99188 0.36799 0.0
C1217 C 0.23582 0.99836 0.38431 0.0
C1218 C 0.23346 0.96042 0.36015 0.0
C1219 C 0.21095 0.9345 0.3686 0.0
H1220 H 0.26327 0.01129 0.36114 0.0
H1221 H 0.24176 0.95638 0.34752 0.0
S1222 S 0.17727 0.93926 0.41174 0.0
N1223 N 0.20231 0.97679 0.40873 0.0
N1224 N 0.17909 0.91757 0.39424 0.0
C1225 C 0.20092 0.9408 0.38506 0.0
C1226 C 0.2133 0.97279 0.39285 0.0
C1227 C 0.55993 0.70814 0.30274 0.0
C1228 C 0.56849 0.68435 0.30178 0.0
C1229 C 0.58089 0.73897 0.31108 0.0
C1230 C 0.61148 0.74744 0.3184 0.0
H1231 H 0.5368 0.70296 0.29699 0.0
H1232 H 0.57314 0.75638 0.31173 0.0
S1233 S 0.64556 0.69435 0.32021 0.0
N1234 N 0.60957 0.67142 0.30976 0.0
N1235 N 0.64944 0.72998 0.32455 0.0
C1236 C 0.62071 0.72431 0.31734 0.0
C1237 C 0.59912 0.69262 0.30923 0.0
C1238 C 0.31348 0.88736 0.32124 0.0
C1239 C 0.31143 0.87431 0.30334 0.0
C1240 C 0.28605 0.87918 0.33012 0.0
C1241 C 0.25558 0.85806 0.32127 0.0
H1242 H 0.33645 0.90387 0.32845 0.0
H1243 H 0.28875 0.89001 0.34385 0.0
S1244 S 0.2379 0.81739 0.27423 0.0
N1245 N 0.27692 0.83911 0.27715 0.0
N1246 N 0.22546 0.82401 0.29346 0.0
C1247 C 0.25345 0.84488 0.30331 0.0
C1248 C 0.28133 0.85292 0.29444 0.0
C1249 C 0.15233 0.45031 0.31795 0.0
C1250 C 0.11953 0.43915 0.31607 0.0
C1251 C 0.16439 0.43242 0.32575 0.0
C1252 C 0.14397 0.40265 0.33166 0.0
H1253 H 0.16874 0.4725 0.3128 0.0
H1254 H 0.18963 0.44127 0.32644 0.0
S1255 S 0.057 0.36446 0.33201 0.0
N1256 N 0.06739 0.39796 0.3227 0.0
N1257 N 0.09008 0.36375 0.33656 0.0
C1258 C 0.1114 0.39168 0.33047 0.0
C1259 C 0.09915 0.41009 0.32287 0.0
C1260 C 0.31533 0.41841 0.32262 0.0
C1261 C 0.31543 0.43424 0.3072 0.0
C1262 C 0.28807 0.40252 0.3318 0.0
C1263 C 0.2598 0.40155 0.32577 0.0
H1264 H 0.33625 0.41763 0.32742 0.0
H1265 H 0.28886 0.38998 0.34329 0.0
S1266 S 0.24826 0.44195 0.28741 0.0
N1267 N 0.28537 0.45032 0.28746 0.0
N1268 N 0.23403 0.41953 0.30425 0.0
C1269 C 0.25976 0.41794 0.31071 0.0
C1270 C 0.28756 0.43447 0.30153 0.0
C1271 C 0.56261 0.8678 0.31768 0.0
C1272 C 0.5656 0.87634 0.2997 0.0
C1273 C 0.58422 0.86097 0.32673 0.0
C1274 C 0.60969 0.86206 0.31816 0.0
H1275 H 0.54311 0.86597 0.32482 0.0
H1276 H 0.58059 0.85432 0.34051 0.0
S1277 S 0.62937 0.8847 0.27148 0.0
N1278 N 0.59716 0.88695 0.27394 0.0
N1279 N 0.6372 0.87323 0.29074 0.0
C1280 C 0.61309 0.87063 0.30019 0.0
C1281 C 0.59122 0.87793 0.29102 0.0
C1282 C 0.09578 0.7031 0.30305 0.0
C1283 C 0.10389 0.68202 0.31071 0.0
C1284 C 0.10889 0.73461 0.31085 0.0
C1285 C 0.13095 0.74625 0.32644 0.0
H1286 H 0.07939 0.69524 0.29083 0.0
H1287 H 0.10226 0.75012 0.30432 0.0
S1288 S 0.15942 0.70006 0.35183 0.0
N1289 N 0.13474 0.67448 0.33481 0.0
N1290 N 0.15952 0.73376 0.34957 0.0
C1291 C 0.13884 0.72516 0.33439 0.0
C1292 C 0.12524 0.693 0.32652 0.0
C1293 C 0.78038 0.97974 0.37305 0.0
C1294 C 0.77879 0.98898 0.3912 0.0
C1295 C 0.75784 0.94968 0.36438 0.0
C1296 C 0.73287 0.92753 0.37355 0.0
H1297 H 0.79955 0.99565 0.36554 0.0
H1298 H 0.76044 0.9436 0.35047 0.0
S1299 S 0.71666 0.94097 0.42082 0.0
N1300 N 0.74913 0.97435 0.41774 0.0
N1301 N 0.70706 0.91759 0.40159 0.0
C1302 C 0.73071 0.93664 0.39164 0.0
C1303 C 0.75358 0.96738 0.40043 0.0
C1304 C 0.0599 0.80411 0.39672 0.0
C1305 C 0.03767 0.81251 0.39029 0.0
C1306 C 0.08633 0.81046 0.38735 0.0
C1307 C 0.09191 0.8257 0.37116 0.0
H1308 H 0.05658 0.79199 0.40895 0.0
H1309 H 0.10248 0.80323 0.39294 0.0
S1310 S 0.04185 0.85462 0.34929 0.0
N1311 N 0.0238 0.83837 0.36724 0.0
N1312 N 0.07319 0.85014 0.34957 0.0
C1313 C 0.07013 0.83481 0.36478 0.0
C1314 C 0.04313 0.82823 0.37432 0.0
C1315 C 0.24298 0.26352 0.36575 0.0
C1316 C 0.23082 0.24612 0.38077 0.0
C1317 C 0.22892 0.27955 0.35775 0.0
C1318 C 0.20248 0.27897 0.36465 0.0
H1319 H 0.26412 0.26567 0.36051 0.0
H1320 H 0.23968 0.29364 0.34666 0.0
S1321 S 0.15896 0.23357 0.40203 0.0
N1322 N 0.18849 0.22639 0.40078 0.0
N1323 N 0.16296 0.25756 0.3862 0.0
C1324 C 0.18931 0.26067 0.37912 0.0
C1325 C 0.20327 0.24399 0.38708 0.0
C1326 C 0.7083 0.57531 0.7012 0.0
C1327 C 0.70661 0.58102 0.71994 0.0
C1328 C 0.73634 0.59368 0.693 0.0
C1329 C 0.76386 0.61799 0.70334 0.0
H1330 H 0.68773 0.55663 0.6928 0.0
H1331 H 0.73655 0.58852 0.67855 0.0
S1332 S 0.7716 0.64204 0.75309 0.0
N1333 N 0.73478 0.61242 0.74859 0.0
N1334 N 0.78716 0.64691 0.73347 0.0
C1335 C 0.76229 0.62383 0.72215 0.0
C1336 C 0.73378 0.60537 0.73036 0.0
C1337 C 0.4568 0.16671 0.71844 0.0
C1338 C 0.44787 0.13493 0.72126 0.0
C1339 C 0.4357 0.17426 0.7094 0.0
C1340 C 0.40456 0.15045 0.70314 0.0
H1341 H 0.48022 0.1861 0.72345 0.0
H1342 H 0.44365 0.19904 0.70764 0.0
S1343 S 0.36956 0.06347 0.70574 0.0
N1344 N 0.40596 0.07923 0.71571 0.0
N1345 N 0.36597 0.09381 0.69967 0.0
C1346 C 0.39518 0.11866 0.70579 0.0
C1347 C 0.41687 0.11081 0.71461 0.0
C1348 C 0.91684 0.31513 0.71193 0.0
C1349 C 0.89685 0.32585 0.71841 0.0
C1350 C 0.90455 0.28358 0.70436 0.0
C1351 C 0.87185 0.26195 0.70269 0.0
H1352 H 0.9421 0.33137 0.71237 0.0
H1353 H 0.92064 0.27633 0.6993 0.0
S1354 S 0.80973 0.2766 0.71932 0.0
N1355 N 0.84294 0.31106 0.72426 0.0
N1356 N 0.81986 0.25224 0.70913 0.0
C1357 C 0.85164 0.27198 0.7094 0.0
C1358 C 0.86414 0.30384 0.71748 0.0
C1359 C 0.23157 0.037 0.64923 0.0
C1360 C 0.23532 0.02704 0.63174 0.0
C1361 C 0.25368 0.06696 0.65809 0.0
C1362 C 0.28064 0.08819 0.6499 0.0
H1363 H 0.21136 0.02144 0.65619 0.0
H1364 H 0.24959 0.07341 0.67156 0.0
S1365 S 0.30116 0.07397 0.60399 0.0
N1366 N 0.2677 0.041 0.60631 0.0
N1367 N 0.30974 0.09727 0.62317 0.0
C1368 C 0.28496 0.07846 0.63248 0.0
C1369 C 0.26221 0.0479 0.62336 0.0
C1370 C 0.95166 0.20689 0.62863 0.0
C1371 C 0.97616 0.20306 0.63672 0.0
C1372 C 0.92486 0.20033 0.63763 0.0
C1373 C 0.92123 0.1895 0.65511 0.0
H1374 H 0.95298 0.21468 0.6151 0.0
H1375 H 0.90665 0.20349 0.63067 0.0
S1376 S 0.97932 0.17714 0.68273 0.0
N1377 N 0.99565 0.18901 0.66364 0.0
N1378 N 0.94504 0.17611 0.68037 0.0
C1379 C 0.94555 0.18559 0.66339 0.0
C1380 C 0.97302 0.1925 0.65426 0.0
C1381 C 0.80641 0.766 0.63921 0.0
C1382 C 0.78046 0.76615 0.64633 0.0
C1383 C 0.82006 0.74958 0.64702 0.0
C1384 C 0.8086 0.73326 0.66245 0.0
H1385 H 0.81599 0.77841 0.62738 0.0
H1386 H 0.83988 0.74987 0.64099 0.0
S1387 S 0.74124 0.72687 0.68631 0.0
N1388 N 0.74374 0.74883 0.66955 0.0
N1389 N 0.76975 0.71825 0.68454 0.0
C1390 C 0.78283 0.73352 0.66982 0.0
C1391 C 0.76861 0.74985 0.66165 0.0
C1392 C 0.9793 0.75497 0.64925 0.0
C1393 C 0.98261 0.78209 0.64148 0.0
C1394 C 0.95347 0.73682 0.65901 0.0
C1395 C 0.93057 0.74569 0.66179 0.0
H1396 H 0.99635 0.74723 0.64734 0.0
H1397 H 0.95118 0.71546 0.66425 0.0
S1398 S 0.92869 0.81494 0.64461 0.0
N1399 N 0.96096 0.81707 0.63733 0.0
N1400 N 0.91279 0.78332 0.65615 0.0
C1401 C 0.93398 0.77316 0.65452 0.0
C1402 C 0.9599 0.79126 0.64421 0.0
C1403 C 0.23278 0.20462 0.65137 0.0
C1404 C 0.23507 0.21301 0.63336 0.0
C1405 C 0.25542 0.19908 0.6603 0.0
C1406 C 0.28125 0.20143 0.65157 0.0
H1407 H 0.21298 0.20176 0.65857 0.0
H1408 H 0.25222 0.19229 0.67406 0.0
S1409 S 0.29959 0.22487 0.60488 0.0
N1410 N 0.26648 0.22527 0.60749 0.0
N1411 N 0.30854 0.21405 0.62408 0.0
C1412 C 0.2841 0.21016 0.63363 0.0
C1413 C 0.26116 0.2161 0.62458 0.0
C1414 C 0.78814 0.02269 0.65674 0.0
C1415 C 0.77299 0.01333 0.63886 0.0
C1416 C 0.80138 0.05424 0.66455 0.0
C1417 C 0.80016 0.07758 0.6547 0.0
H1418 H 0.79036 1.00566 0.66462 0.0
H1419 H 0.81319 0.0605 0.67826 0.0
S1420 S 0.7604 0.06454 0.60807 0.0
N1421 N 0.75538 0.02928 0.61205 0.0
N1422 N 0.78078 0.08871 0.62656 0.0
C1423 C 0.78447 0.06837 0.63695 0.0
C1424 C 0.77076 0.03621 0.62907 0.0
C1425 C 0.4519 0.31973 0.70588 0.0
C1426 C 0.45052 0.32847 0.72417 0.0
C1427 C 0.4298 0.28952 0.69718 0.0
C1428 C 0.40555 0.26671 0.70646 0.0
H1429 H 0.47054 0.33619 0.69826 0.0
H1430 H 0.43213 0.28387 0.68313 0.0
S1431 S 0.39009 0.27845 0.75415 0.0
N1432 N 0.42173 0.31251 0.75098 0.0
N1433 N 0.38064 0.25543 0.73477 0.0
C1434 C 0.40365 0.27521 0.72471 0.0
C1435 C 0.42601 0.30613 0.73353 0.0
C1436 C 0.702 0.14079 0.7045 0.0
C1437 C 0.69952 0.13099 0.72224 0.0
C1438 C 0.72903 0.14852 0.69537 0.0
C1439 C 0.75484 0.14705 0.70365 0.0
H1440 H 0.68308 0.14301 0.6977 0.0
H1441 H 0.72992 0.15628 0.68186 0.0
S1442 S 0.75917 0.11989 0.74921 0.0
N1443 N 0.72448 0.11799 0.74712 0.0
N1444 N 0.77532 0.13313 0.73026 0.0
C1445 C 0.75244 0.13674 0.72125 0.0
C1446 C 0.72485 0.1286 0.73046 0.0
C1447 C 0.91362 0.61451 0.7229 0.0
C1448 C 0.90974 0.58738 0.71249 0.0
C1449 C 0.90127 0.63281 0.71613 0.0
C1450 C 0.88446 0.62464 0.6987 0.0
H1451 H 0.9256 0.62122 0.73658 0.0
H1452 H 0.90443 0.65318 0.72484 0.0
S1453 S 0.87026 0.55731 0.66542 0.0
N1454 N 0.88979 0.5543 0.68346 0.0
N1455 N 0.86618 0.58853 0.67076 0.0
C1456 C 0.88099 0.59792 0.68798 0.0
C1457 C 0.89373 0.57934 0.69487 0.0
C1458 C 0.46697 0.95627 0.15339 0.0
C1459 C 0.47953 0.97558 0.17012 0.0
C1460 C 0.47523 0.96919 0.13667 0.0
C1461 C 0.4966 1.00197 0.13594 0.0
H1462 H 0.45048 0.93093 0.15321 0.0
H1463 H 0.46465 0.95334 0.12419 0.0
S1464 S 0.53793 0.06237 0.17597 0.0
N1465 N 0.51532 0.02892 0.18495 0.0
N1466 N 0.53124 0.05312 0.15366 0.0
C1467 C 0.50948 0.02149 0.15261 0.0
C1468 C 0.50088 0.00834 0.16963 0.0
C1469 C 0.98217 0.47948 0.16564 0.0
C1470 C 0.01385 0.48959 0.17155 0.0
C1471 C 0.97219 0.47579 0.14705 0.0
C1472 C 0.99354 0.48194 0.13378 0.0
H1473 H 0.96531 0.47556 0.17549 0.0
H1474 H 0.94786 0.46918 0.14309 0.0
S1475 S 0.07802 0.50471 0.1423 0.0
N1476 N 0.06584 0.50301 0.16283 0.0
N1477 N 0.047 0.49542 0.12782 0.0
C1478 C 0.02493 0.49054 0.13954 0.0
C1479 C 0.0351 0.49453 0.15845 0.0
C1480 C 0.46905 0.49582 0.15555 0.0
C1481 C 0.48085 0.48586 0.17003 0.0
C1482 C 0.4778 0.4947 0.13787 0.0
C1483 C 0.49862 0.48346 0.13395 0.0
H1484 H 0.45373 0.50556 0.15801 0.0
H1485 H 0.46841 0.50299 0.1272 0.0
S1486 S 0.53469 0.45284 0.16687 0.0
N1487 N 0.51292 0.46259 0.17906 0.0
N1488 N 0.53015 0.46139 0.146 0.0
C1489 C 0.50987 0.47257 0.14821 0.0
C1490 C 0.50086 0.47361 0.16619 0.0
C1491 C 0.9923 0.5112 0.8641 0.0
C1492 C 0.0155 0.52058 0.85175 0.0
C1493 C 1.00026 0.51305 0.88282 0.0
C1494 C 0.03174 0.52442 0.88992 0.0
H1495 H 0.96768 0.50185 0.85922 0.0
H1496 H 0.98163 0.50574 0.89182 0.0
S1497 S 0.1014 0.5523 0.86339 0.0
N1498 N 0.07137 0.54237 0.84798 0.0
N1499 N 0.08622 0.54495 0.88314 0.0
C1500 C 0.0552 0.53399 0.87774 0.0
C1501 C 0.0471 0.53223 0.85867 0.0
C1502 C 0.55485 0.51259 0.87373 0.0
C1503 C 0.54606 0.52281 0.85811 0.0
C1504 C 0.54437 0.51544 0.89068 0.0
C1505 C 0.52452 0.5285 0.89274 0.0
H1506 H 0.56959 0.50182 0.87278 0.0
H1507 H 0.55105 0.50634 0.90213 0.0
S1508 S 0.49606 0.56052 0.85642 0.0
N1509 N 0.51704 0.54744 0.84599 0.0
N1510 N 0.49806 0.55354 0.87792 0.0
C1511 C 0.51639 0.53977 0.87739 0.0
C1512 C 0.52704 0.53684 0.8601 0.0
C1513 C 0.50913 0.00631 0.8567 0.0
C1514 C 0.53112 0.03888 0.8559 0.0
C1515 C 0.50147 0.99336 0.87344 0.0
C1516 C 0.51533 0.01241 0.89017 0.0
H1517 H 0.49778 0.99055 0.84425 0.0
H1518 H 0.48418 0.96824 0.87326 0.0
S1519 S 0.57482 0.09899 0.89578 0.0
N1520 N 0.5667 0.08992 0.87349 0.0
N1521 N 0.55295 0.06544 0.90485 0.0
C1522 C 0.5376 0.04496 0.8896 0.0
C1523 C 0.54539 0.05818 0.87254 0.0
C1524 C 0.16459 0.33394 0.50224 0.0
C1525 C 0.1432 0.30106 0.50225 0.0
C1526 C 0.17421 0.34772 0.48589 0.0
C1527 C 0.16274 0.32921 0.46885 0.0
H1528 H 0.17459 0.34902 0.51502 0.0
H1529 H 0.19132 0.37298 0.48665 0.0
S1530 S 0.10351 0.24259 0.46135 0.0
N1531 N 0.10914 0.25074 0.48374 0.0
N1532 N 0.12681 0.27656 0.45305 0.0
C1533 C 0.14059 0.29643 0.46867 0.0
C1534 C 0.13094 0.2824 0.48533 0.0
C1535 C 0.63893 0.80806 0.49835 0.0
C1536 C 0.66916 0.81359 0.50437 0.0
C1537 C 0.6297 0.80552 0.47972 0.0
C1538 C 0.65038 0.80827 0.46652 0.0
H1539 H 0.62282 0.80701 0.50813 0.0
H1540 H 0.60669 0.80258 0.47568 0.0
S1541 S 0.73048 0.81837 0.47538 0.0
N1542 N 0.71866 0.81894 0.49584 0.0
N1543 N 0.70117 0.81346 0.46079 0.0
C1544 C 0.68007 0.81216 0.47241 0.0
C1545 C 0.6895 0.81498 0.49135 0.0
C1546 C 0.16019 0.81608 0.49732 0.0
C1547 C 0.13903 0.82725 0.50037 0.0
C1548 C 0.16957 0.81406 0.47994 0.0
C1549 C 0.15814 0.82306 0.46483 0.0
H1550 H 0.17005 0.80931 0.50856 0.0
H1551 H 0.18667 0.80628 0.47845 0.0
S1552 S 0.10029 0.85147 0.46503 0.0
N1553 N 0.10597 0.84631 0.48653 0.0
N1554 N 0.12256 0.84117 0.45374 0.0
C1555 C 0.13596 0.83302 0.46749 0.0
C1556 C 0.12658 0.83533 0.48525 0.0
C1557 C 0.67034 0.81742 0.1948 0.0
C1558 C 0.67232 0.84345 0.1863 0.0
C1559 C 0.67842 0.82012 0.21359 0.0
C1560 C 0.68919 0.84907 0.22446 0.0
H1561 H 0.66221 0.79472 0.18687 0.0
H1562 H 0.67664 0.79955 0.21964 0.0
S1563 S 0.69846 0.9242 0.20886 0.0
N1564 N 0.68568 0.899 0.19017 0.0
N1565 N 0.70093 0.90408 0.22553 0.0
C1566 C 0.69124 0.87525 0.21615 0.0
C1567 C 0.68274 0.87242 0.19706 0.0
C1568 C 0.22359 0.84215 0.20833 0.0
C1569 C 0.21707 0.85354 0.19251 0.0
C1570 C 0.21343 0.84674 0.22505 0.0
C1571 C 0.19623 0.86282 0.22665 0.0
H1572 H 0.23627 0.82914 0.20773 0.0
H1573 H 0.21827 0.83672 0.23669 0.0
S1574 S 0.17438 0.89878 0.18959 0.0
N1575 N 0.19298 0.88236 0.17965 0.0
N1576 N 0.17472 0.89178 0.21119 0.0
C1577 C 0.19039 0.87519 0.21108 0.0
C1578 C 0.20068 0.87045 0.19402 0.0
C1579 C 0.21062 0.39409 0.2065 0.0
C1580 C 0.19671 0.37489 0.18981 0.0
C1581 C 0.20263 0.38137 0.22332 0.0
C1582 C 0.1805 0.34885 0.2242 0.0
H1583 H 0.22747 0.41932 0.2066 0.0
H1584 H 0.21408 0.39716 0.23576 0.0
S1585 S 0.13769 0.28814 0.18445 0.0
N1586 N 0.16041 0.32134 0.1753 0.0
N1587 N 0.14461 0.29781 0.20672 0.0
C1588 C 0.16656 0.32937 0.20759 0.0
C1589 C 0.1748 0.34227 0.19049 0.0
C1590 C 0.80729 0.62872 0.8214 0.0
C1591 C 0.81811 0.64727 0.83842 0.0
C1592 C 0.81639 0.64271 0.80505 0.0
C1593 C 0.83684 0.67584 0.80503 0.0
H1594 H 0.79147 0.60316 0.82071 0.0
H1595 H 0.8071 0.62746 0.7923 0.0
S1596 S 0.87368 0.73466 0.84604 0.0
N1597 N 0.85143 0.70032 0.85428 0.0
N1598 N 0.86879 0.72655 0.82366 0.0
C1599 C 0.84803 0.69461 0.82198 0.0
C1600 C 0.83863 0.68037 0.83861 0.0
C1601 C 0.31154 0.14099 0.83109 0.0
C1602 C 0.34375 0.15767 0.83777 0.0
C1603 C 0.30216 0.13761 0.81243 0.0
C1604 C 0.32467 0.15063 0.79978 0.0
H1605 H 0.29342 0.13133 0.84041 0.0
H1606 H 0.27709 0.12497 0.80787 0.0
S1607 S 0.41204 0.19515 0.81027 0.0
N1608 N 0.39821 0.18589 0.83024 0.0
N1609 N 0.38061 0.18038 0.79523 0.0
C1610 C 0.35698 0.16669 0.80625 0.0
C1611 C 0.36651 0.17003 0.82522 0.0
C1612 C 0.83654 0.18766 0.82828 0.0
C1613 C 0.8105 0.1618 0.83482 0.0
C1614 C 0.84479 0.18543 0.8106 0.0
C1615 C 0.82755 0.15713 0.7988 0.0
H1616 H 0.85069 0.20988 0.83693 0.0
H1617 H 0.86523 0.20583 0.80625 0.0
S1618 S 0.75676 0.08287 0.809 0.0
N1619 N 0.76709 0.10722 0.82792 0.0
N1620 N 0.78258 0.10304 0.79462 0.0
C1621 C 0.80121 0.13122 0.80504 0.0
C1622 C 0.79263 0.13358 0.82303 0.0
C1623 C 0.34893 0.16235 0.52735 0.0
C1624 C 0.35381 0.18939 0.51883 0.0
C1625 C 0.35621 0.16441 0.54619 0.0
C1626 C 0.36905 0.19367 0.55709 0.0
H1627 H 0.33888 0.13933 0.51943 0.0
H1628 H 0.35197 0.14303 0.55227 0.0
S1629 S 0.38654 0.27144 0.54138 0.0
N1630 N 0.37238 0.24627 0.52266 0.0
N1631 N 0.38618 0.25017 0.5581 0.0
C1632 C 0.37426 0.22091 0.54873 0.0
C1633 C 0.36656 0.21875 0.52959 0.0
C1634 C 0.85171 0.18776 0.52563 0.0
C1635 C 0.87773 0.18306 0.5244 0.0
C1636 C 0.84107 0.19045 0.54256 0.0
C1637 C 0.85616 0.18869 0.55892 0.0
H1638 H 0.8388 0.18828 0.51335 0.0
H1639 H 0.82028 0.19296 0.54279 0.0
S1640 S 0.92797 0.18086 0.56317 0.0
N1641 N 0.91991 0.17937 0.54098 0.0
N1642 N 0.90048 0.18514 0.57283 0.0
C1643 C 0.88309 0.18539 0.55788 0.0
C1644 C 0.89372 0.1824 0.54064 0.0
C1645 C 0.85014 0.68118 0.52664 0.0
C1646 C 0.87242 0.71353 0.52538 0.0
C1647 C 0.84295 0.66889 0.54358 0.0
C1648 C 0.85765 0.68837 0.5601 0.0
H1649 H 0.8381 0.66508 0.51438 0.0
H1650 H 0.82525 0.64398 0.54371 0.0
S1651 S 0.91854 0.77451 0.56459 0.0
N1652 N 0.90932 0.76479 0.54238 0.0
N1653 N 0.89666 0.74146 0.5741 0.0
C1654 C 0.88039 0.72063 0.55909 0.0
C1655 C 0.88762 0.73321 0.54182 0.0
loop_
_geom_bond_atom_site_label_1
_geom_bond_atom_site_label_2
_geom_bond_distance
_geom_bond_site_symmetry_2
_ccdc_geom_bond_type
C0 C1 1.386 . S
C0 C2 1.397 . S
C0 H24 0.931 . S
C1 C0 1.386 . S
C1 C5 1.397 . S
C2 C0 1.397 . S
C2 C3 1.384 . S
C2 H25 0.930 . S
C3 C2 1.384 . S
C3 C4 1.377 . S
C3 C6 1.481 . S
C4 C3 1.377 . S
C4 C5 1.389 . S
C4 H26 0.929 . S
C5 C1 1.397 . S
C5 C4 1.389 . S
C5 H27 0.931 . S
C6 C3 1.481 . S
C6 C7 1.387 . S
C6 C11 1.390 . S
C7 C6 1.387 . S
C7 C8 1.401 . S
C7 H28 0.930 . S
C8 C7 1.401 . S
C8 C9 1.376 . S
C8 C17 1.511 . S
C9 C8 1.376 . S
C9 C10 1.392 . S
C9 H30 0.931 . S
C10 C9 1.392 . S
C10 C11 1.361 . S
C10 C12 1.500 . S
C11 C6 1.390 . S
C11 C10 1.361 . S
C11 H29 0.931 . S
C12 C10 1.500 . S
C12 C13 1.371 . S
C12 C14 1.365 . S
C13 C12 1.371 . S
C13 C23 1.386 . S
C13 H31 0.931 . S
C14 C12 1.365 . S
C14 C15 1.409 . S
C14 H32 0.929 . S
C15 C14 1.409 . S
C15 C16 1.380 . S
C15 H33 0.930 . S
C16 C15 1.380 . S
C16 C23 1.357 . S
C17 C8 1.511 . S
C17 C18 1.341 . S
C17 C19 1.371 . S
C18 C17 1.341 . S
C18 C22 1.394 . S
C18 H34 0.930 . S
C19 C17 1.371 . S
C19 C20 1.392 . S
C19 H35 0.931 . S
C20 C19 1.392 . S
C20 C21 1.331 . S
C20 H38 0.932 . S
C21 C20 1.331 . S
C21 C22 1.336 . S
C22 C18 1.394 . S
C22 C21 1.336 . S
C22 H37 0.929 . S
C23 C13 1.386 . S
C23 C16 1.357 . S
C23 H36 0.928 . S
H24 C0 0.931 . S
H25 C2 0.930 . S
H26 C4 0.929 . S
H27 C5 0.931 . S
H28 C7 0.930 . S
H29 C11 0.931 . S
H30 C9 0.931 . S
H31 C13 0.931 . S
H32 C14 0.929 . S
H33 C15 0.930 . S
H34 C18 0.930 . S
H35 C19 0.931 . S
H36 C23 0.928 . S
H37 C22 0.929 . S
H38 C20 0.932 . S
C39 C40 1.386 . S
C39 C41 1.397 . S
C39 H63 0.931 . S
C40 C39 1.386 . S
C40 C44 1.397 . S
C41 C39 1.397 . S
C41 C42 1.384 . S
C41 H64 0.930 . S
C42 C41 1.384 . S
C42 C43 1.377 . S
C42 C45 1.481 . S
C43 C42 1.377 . S
C43 C44 1.389 . S
C43 H65 0.929 . S
C44 C40 1.397 . S
C44 C43 1.389 . S
C44 H66 0.931 . S
C45 C42 1.481 . S
C45 C46 1.387 . S
C45 C50 1.390 . S
C46 C45 1.387 . S
C46 C47 1.401 . S
C46 H67 0.930 . S
C47 C46 1.401 . S
C47 C48 1.376 . S
C47 C56 1.511 . S
C48 C47 1.376 . S
C48 C49 1.392 . S
C48 H69 0.931 . S
C49 C48 1.392 . S
C49 C50 1.361 . S
C49 C51 1.500 . S
C50 C45 1.390 . S
C50 C49 1.361 . S
C50 H68 0.931 . S
C51 C49 1.500 . S
C51 C52 1.371 . S
C51 C53 1.365 . S
C52 C51 1.371 . S
C52 C62 1.386 . S
C52 H70 0.931 . S
C53 C51 1.365 . S
C53 C54 1.409 . S
C53 H71 0.929 . S
C54 C53 1.409 . S
C54 C55 1.380 . S
C54 H72 0.930 . S
C55 C54 1.380 . S
C55 C62 1.357 . S
C56 C47 1.511 . S
C56 C57 1.341 . S
C56 C58 1.371 . S
C57 C56 1.341 . S
C57 C61 1.394 . S
C57 H73 0.930 . S
C58 C56 1.371 . S
C58 C59 1.392 . S
C58 H74 0.931 . S
C59 C58 1.392 . S
C59 C60 1.331 . S
C59 H77 0.932 . S
C60 C59 1.331 . S
C60 C61 1.336 . S
C61 C57 1.394 . S
C61 C60 1.336 . S
C61 H76 0.929 . S
C62 C52 1.386 . S
C62 C55 1.357 . S
C62 H75 0.928 . S
H63 C39 0.931 . S
H64 C41 0.930 . S
H65 C43 0.929 . S
H66 C44 0.931 . S
H67 C46 0.930 . S
H68 C50 0.931 . S
H69 C48 0.931 . S
H70 C52 0.931 . S
H71 C53 0.929 . S
H72 C54 0.930 . S
H73 C57 0.930 . S
H74 C58 0.931 . S
H75 C62 0.928 . S
H76 C61 0.929 . S
H77 C59 0.932 . S
C78 C79 1.386 . S
C78 C80 1.397 . S
C78 H102 0.931 . S
C79 C78 1.386 . S
C79 C83 1.397 . S
C80 C78 1.397 . S
C80 C81 1.384 . S
C80 H103 0.930 . S
C81 C80 1.384 . S
C81 C82 1.377 . S
C81 C84 1.481 . S
C82 C81 1.377 . S
C82 C83 1.389 . S
C82 H104 0.929 . S
C83 C79 1.397 . S
C83 C82 1.389 . S
C83 H105 0.931 . S
C84 C81 1.481 . S
C84 C85 1.387 . S
C84 C89 1.390 . S
C85 C84 1.387 . S
C85 C86 1.401 . S
C85 H106 0.930 . S
C86 C85 1.401 . S
C86 C87 1.376 . S
C86 C95 1.511 . S
C87 C86 1.376 . S
C87 C88 1.392 . S
C87 H108 0.931 . S
C88 C87 1.392 . S
C88 C89 1.361 . S
C88 C90 1.500 . S
C89 C84 1.390 . S
C89 C88 1.361 . S
C89 H107 0.931 . S
C90 C88 1.500 . S
C90 C91 1.371 . S
C90 C92 1.365 . S
C91 C90 1.371 . S
C91 C101 1.386 . S
C91 H109 0.931 . S
C92 C90 1.365 . S
C92 C93 1.409 . S
C92 H110 0.929 . S
C93 C92 1.409 . S
C93 C94 1.380 . S
C93 H111 0.930 . S
C94 C93 1.380 . S
C94 C101 1.357 . S
C95 C86 1.511 . S
C95 C96 1.341 . S
C95 C97 1.371 . S
C96 C95 1.341 . S
C96 C100 1.394 . S
C96 H112 0.930 . S
C97 C95 1.371 . S
C97 C98 1.392 . S
C97 H113 0.931 . S
C98 C97 1.392 . S
C98 C99 1.331 . S
C98 H116 0.932 . S
C99 C98 1.331 . S
C99 C100 1.336 . S
C100 C96 1.394 . S
C100 C99 1.336 . S
C100 H115 0.929 1_655 S
C101 C91 1.386 . S
C101 C94 1.357 . S
C101 H114 0.928 . S
H102 C78 0.931 . S
H103 C80 0.930 . S
H104 C82 0.929 . S
H105 C83 0.931 . S
H106 C85 0.930 . S
H107 C89 0.931 . S
H108 C87 0.931 . S
H109 C91 0.931 . S
H110 C92 0.929 . S
H111 C93 0.930 . S
H112 C96 0.930 . S
H113 C97 0.931 . S
H114 C101 0.928 . S
H115 C100 0.929 1_455 S
H116 C98 0.932 . S
C117 C118 1.386 . S
C117 C119 1.397 . S
C117 H141 0.931 . S
C118 C117 1.386 . S
C118 C122 1.397 . S
C119 C117 1.397 . S
C119 C120 1.384 . S
C119 H142 0.930 . S
C120 C119 1.384 . S
C120 C121 1.377 . S
C120 C123 1.481 . S
C121 C120 1.377 . S
C121 C122 1.389 . S
C121 H143 0.929 . S
C122 C118 1.397 . S
C122 C121 1.389 . S
C122 H144 0.931 . S
C123 C120 1.481 . S
C123 C124 1.387 . S
C123 C128 1.390 . S
C124 C123 1.387 . S
C124 C125 1.401 . S
C124 H145 0.930 . S
C125 C124 1.401 . S
C125 C126 1.376 . S
C125 C134 1.511 . S
C126 C125 1.376 . S
C126 C127 1.392 . S
C126 H147 0.931 . S
C127 C126 1.392 . S
C127 C128 1.361 . S
C127 C129 1.500 . S
C128 C123 1.390 . S
C128 C127 1.361 . S
C128 H146 0.931 . S
C129 C127 1.500 . S
C129 C130 1.371 . S
C129 C131 1.365 . S
C130 C129 1.371 . S
C130 C140 1.386 . S
C130 H148 0.931 . S
C131 C129 1.365 . S
C131 C132 1.409 . S
C131 H149 0.929 . S
C132 C131 1.409 . S
C132 C133 1.380 . S
C132 H150 0.930 . S
C133 C132 1.380 . S
C133 C140 1.357 . S
C134 C125 1.511 . S
C134 C135 1.341 . S
C134 C136 1.371 . S
C135 C134 1.341 . S
C135 C139 1.394 . S
C135 H151 0.930 . S
C136 C134 1.371 . S
C136 C137 1.392 . S
C136 H152 0.931 . S
C137 C136 1.392 . S
C137 C138 1.331 . S
C137 H155 0.932 . S
C138 C137 1.331 . S
C138 C139 1.336 . S
C139 C135 1.394 . S
C139 C138 1.336 . S
C139 H154 0.929 . S
C140 C130 1.386 . S
C140 C133 1.357 . S
C140 H153 0.928 . S
H141 C117 0.931 . S
H142 C119 0.930 . S
H143 C121 0.929 . S
H144 C122 0.931 . S
H145 C124 0.930 . S
H146 C128 0.931 . S
H147 C126 0.931 . S
H148 C130 0.931 . S
H149 C131 0.929 . S
H150 C132 0.930 . S
H151 C135 0.930 . S
H152 C136 0.931 . S
H153 C140 0.928 . S
H154 C139 0.929 . S
H155 C137 0.932 . S
C156 C157 1.386 . S
C156 C158 1.397 . S
C156 H180 0.931 . S
C157 C156 1.386 . S
C157 C161 1.397 . S
C158 C156 1.397 . S
C158 C159 1.384 . S
C158 H181 0.930 . S
C159 C158 1.384 . S
C159 C160 1.377 . S
C159 C162 1.481 . S
C160 C159 1.377 . S
C160 C161 1.389 . S
C160 H182 0.929 . S
C161 C157 1.397 . S
C161 C160 1.389 . S
C161 H183 0.931 . S
C162 C159 1.481 . S
C162 C163 1.387 . S
C162 C167 1.390 . S
C163 C162 1.387 . S
C163 C164 1.401 . S
C163 H184 0.930 . S
C164 C163 1.401 . S
C164 C165 1.376 . S
C164 C173 1.511 . S
C165 C164 1.376 . S
C165 C166 1.392 . S
C165 H186 0.931 . S
C166 C165 1.392 . S
C166 C167 1.361 . S
C166 C168 1.500 . S
C167 C162 1.390 . S
C167 C166 1.361 . S
C167 H185 0.931 . S
C168 C166 1.500 . S
C168 C169 1.371 . S
C168 C170 1.365 . S
C169 C168 1.371 . S
C169 C179 1.386 . S
C169 H187 0.931 . S
C170 C168 1.365 . S
C170 C171 1.409 . S
C170 H188 0.929 . S
C171 C170 1.409 . S
C171 C172 1.380 . S
C171 H189 0.930 . S
C172 C171 1.380 . S
C172 C179 1.357 . S
C173 C164 1.511 . S
C173 C174 1.341 . S
C173 C175 1.371 . S
C174 C173 1.341 . S
C174 C178 1.394 . S
C174 H190 0.930 . S
C175 C173 1.371 . S
C175 C176 1.392 . S
C175 H191 0.931 . S
C176 C175 1.392 . S
C176 C177 1.331 . S
C176 H194 0.932 . S
C177 C176 1.331 . S
C177 C178 1.336 . S
C178 C174 1.394 . S
C178 C177 1.336 . S
C178 H193 0.929 . S
C179 C169 1.386 . S
C179 C172 1.357 . S
C179 H192 0.928 . S
H180 C156 0.931 . S
H181 C158 0.930 . S
H182 C160 0.929 . S
H183 C161 0.931 . S
H184 C163 0.930 . S
H185 C167 0.931 . S
H186 C165 0.931 . S
H187 C169 0.931 . S
H188 C170 0.929 . S
H189 C171 0.930 . S
H190 C174 0.930 . S
H191 C175 0.931 . S
H192 C179 0.928 . S
H193 C178 0.929 . S
H194 C176 0.932 . S
C195 C196 1.386 . S
C195 C197 1.397 . S
C195 H219 0.931 . S
C196 C195 1.386 . S
C196 C200 1.397 . S
C197 C195 1.397 . S
C197 C198 1.384 . S
C197 H220 0.930 . S
C198 C197 1.384 . S
C198 C199 1.377 . S
C198 C201 1.481 . S
C199 C198 1.377 . S
C199 C200 1.389 . S
C199 H221 0.929 . S
C200 C196 1.397 . S
C200 C199 1.389 . S
C200 H222 0.931 . S
C201 C198 1.481 . S
C201 C202 1.387 . S
C201 C206 1.390 . S
C202 C201 1.387 . S
C202 C203 1.401 . S
C202 H223 0.930 . S
C203 C202 1.401 . S
C203 C204 1.376 . S
C203 C212 1.511 . S
C204 C203 1.376 . S
C204 C205 1.392 . S
C204 H225 0.931 . S
C205 C204 1.392 . S
C205 C206 1.361 . S
C205 C207 1.500 . S
C206 C201 1.390 . S
C206 C205 1.361 . S
C206 H224 0.931 . S
C207 C205 1.500 . S
C207 C208 1.371 . S
C207 C209 1.365 . S
C208 C207 1.371 . S
C208 C218 1.386 . S
C208 H226 0.931 . S
C209 C207 1.365 . S
C209 C210 1.409 . S
C209 H227 0.929 . S
C210 C209 1.409 . S
C210 C211 1.380 . S
C210 H228 0.930 . S
C211 C210 1.380 . S
C211 C218 1.357 . S
C212 C203 1.511 . S
C212 C213 1.341 . S
C212 C214 1.371 . S
C213 C212 1.341 . S
C213 C217 1.394 . S
C213 H229 0.930 . S
C214 C212 1.371 . S
C214 C215 1.392 . S
C214 H230 0.931 . S
C215 C214 1.392 . S
C215 C216 1.331 . S
C215 H233 0.932 . S
C216 C215 1.331 . S
C216 C217 1.336 . S
C217 C213 1.394 . S
C217 C216 1.336 . S
C217 H232 0.929 . S
C218 C208 1.386 . S
C218 C211 1.357 . S
C218 H231 0.928 . S
H219 C195 0.931 . S
H220 C197 0.930 . S
H221 C199 0.929 . S
H222 C200 0.931 . S
H223 C202 0.930 . S
H224 C206 0.931 . S
H225 C204 0.931 . S
H226 C208 0.931 . S
H227 C209 0.929 . S
H228 C210 0.930 . S
H229 C213 0.930 . S
H230 C214 0.931 . S
H231 C218 0.928 . S
H232 C217 0.929 . S
H233 C215 0.932 . S
C234 C235 1.386 . S
C234 C236 1.397 . S
C234 H258 0.931 . S
C235 C234 1.386 . S
C235 C239 1.397 1_655 S
C236 C234 1.397 . S
C236 C237 1.384 . S
C236 H259 0.930 . S
C237 C236 1.384 . S
C237 C238 1.377 1_655 S
C237 C240 1.481 . S
C238 C237 1.377 1_455 S
C238 C239 1.389 . S
C238 H260 0.929 . S
C239 C235 1.397 1_455 S
C239 C238 1.389 . S
C239 H261 0.931 . S
C240 C237 1.481 . S
C240 C241 1.387 . S
C240 C245 1.390 . S
C241 C240 1.387 . S
C241 C242 1.401 . S
C241 H262 0.930 . S
C242 C241 1.401 . S
C242 C243 1.376 . S
C242 C251 1.511 . S
C243 C242 1.376 . S
C243 C244 1.392 . S
C243 H264 0.931 . S
C244 C243 1.392 . S
C244 C245 1.361 . S
C244 C246 1.500 . S
C245 C240 1.390 . S
C245 C244 1.361 . S
C245 H263 0.931 . S
C246 C244 1.500 . S
C246 C247 1.371 . S
C246 C248 1.365 . S
C247 C246 1.371 . S
C247 C257 1.386 . S
C247 H265 0.931 . S
C248 C246 1.365 . S
C248 C249 1.409 . S
C248 H266 0.929 . S
C249 C248 1.409 . S
C249 C250 1.380 . S
C249 H267 0.930 . S
C250 C249 1.380 . S
C250 C257 1.357 . S
C251 C242 1.511 . S
C251 C252 1.341 . S
C251 C253 1.371 . S
C252 C251 1.341 . S
C252 C256 1.394 . S
C252 H268 0.930 . S
C253 C251 1.371 . S
C253 C254 1.392 . S
C253 H269 0.931 . S
C254 C253 1.392 . S
C254 C255 1.331 . S
C254 H272 0.932 . S
C255 C254 1.331 . S
C255 C256 1.336 . S
C256 C252 1.394 . S
C256 C255 1.336 . S
C256 H271 0.929 . S
C257 C247 1.386 . S
C257 C250 1.357 . S
C257 H270 0.928 . S
H258 C234 0.931 . S
H259 C236 0.930 . S
H260 C238 0.929 . S
H261 C239 0.931 . S
H262 C241 0.930 . S
H263 C245 0.931 . S
H264 C243 0.931 . S
H265 C247 0.931 . S
H266 C248 0.929 . S
H267 C249 0.930 . S
H268 C252 0.930 . S
H269 C253 0.931 . S
H270 C257 0.928 . S
H271 C256 0.929 . S
H272 C254 0.932 . S
C273 C274 1.386 . S
C273 C275 1.397 . S
C273 H297 0.931 . S
C274 C273 1.386 . S
C274 C278 1.397 . S
C275 C273 1.397 . S
C275 C276 1.384 . S
C275 H298 0.930 . S
C276 C275 1.384 . S
C276 C277 1.377 . S
C276 C279 1.481 . S
C277 C276 1.377 . S
C277 C278 1.389 . S
C277 H299 0.929 . S
C278 C274 1.397 . S
C278 C277 1.389 . S
C278 H300 0.931 . S
C279 C276 1.481 . S
C279 C280 1.387 . S
C279 C284 1.390 . S
C280 C279 1.387 . S
C280 C281 1.401 . S
C280 H301 0.930 . S
C281 C280 1.401 . S
C281 C282 1.376 . S
C281 C290 1.511 . S
C282 C281 1.376 . S
C282 C283 1.392 . S
C282 H303 0.931 . S
C283 C282 1.392 . S
C283 C284 1.361 . S
C283 C285 1.500 . S
C284 C279 1.390 . S
C284 C283 1.361 . S
C284 H302 0.931 . S
C285 C283 1.500 . S
C285 C286 1.371 . S
C285 C287 1.365 . S
C286 C285 1.371 . S
C286 C296 1.386 . S
C286 H304 0.931 . S
C287 C285 1.365 . S
C287 C288 1.409 . S
C287 H305 0.929 . S
C288 C287 1.409 . S
C288 C289 1.380 . S
C288 H306 0.930 . S
C289 C288 1.380 . S
C289 C296 1.357 . S
C290 C281 1.511 . S
C290 C291 1.341 . S
C290 C292 1.371 . S
C291 C290 1.341 . S
C291 C295 1.394 . S
C291 H307 0.930 . S
C292 C290 1.371 . S
C292 C293 1.392 . S
C292 H308 0.931 . S
C293 C292 1.392 . S
C293 C294 1.331 . S
C293 H311 0.932 . S
C294 C293 1.331 . S
C294 C295 1.336 . S
C295 C291 1.394 . S
C295 C294 1.336 . S
C295 H310 0.929 . S
C296 C286 1.386 . S
C296 C289 1.357 . S
C296 H309 0.928 . S
H297 C273 0.931 . S
H298 C275 0.930 . S
H299 C277 0.929 . S
H300 C278 0.931 . S
H301 C280 0.930 . S
H302 C284 0.931 . S
H303 C282 0.931 . S
H304 C286 0.931 . S
H305 C287 0.929 . S
H306 C288 0.930 . S
H307 C291 0.930 . S
H308 C292 0.931 . S
H309 C296 0.928 . S
H310 C295 0.929 . S
H311 C293 0.932 . S
C312 C313 1.386 . S
C312 C314 1.397 . S
C312 H336 0.931 . S
C313 C312 1.386 . S
C313 C317 1.397 . S
C314 C312 1.397 . S
C314 C315 1.384 . S
C314 H337 0.930 . S
C315 C314 1.384 . S
C315 C316 1.377 . S
C315 C318 1.481 . S
C316 C315 1.377 . S
C316 C317 1.389 . S
C316 H338 0.929 . S
C317 C313 1.397 . S
C317 C316 1.389 . S
C317 H339 0.931 . S
C318 C315 1.481 . S
C318 C319 1.387 . S
C318 C323 1.390 . S
C319 C318 1.387 . S
C319 C320 1.401 . S
C319 H340 0.930 . S
C320 C319 1.401 . S
C320 C321 1.376 . S
C320 C329 1.511 . S
C321 C320 1.376 . S
C321 C322 1.392 . S
C321 H342 0.931 . S
C322 C321 1.392 . S
C322 C323 1.361 . S
C322 C324 1.500 . S
C323 C318 1.390 . S
C323 C322 1.361 . S
C323 H341 0.931 . S
C324 C322 1.500 . S
C324 C325 1.371 . S
C324 C326 1.365 . S
C325 C324 1.371 . S
C325 C335 1.386 . S
C325 H343 0.931 . S
C326 C324 1.365 . S
C326 C327 1.409 . S
C326 H344 0.929 . S
C327 C326 1.409 . S
C327 C328 1.380 . S
C327 H345 0.930 . S
C328 C327 1.380 . S
C328 C335 1.357 . S
C329 C320 1.511 . S
C329 C330 1.341 . S
C329 C331 1.371 . S
C330 C329 1.341 . S
C330 C334 1.394 . S
C330 H346 0.930 . S
C331 C329 1.371 . S
C331 C332 1.392 . S
C331 H347 0.931 . S
C332 C331 1.392 . S
C332 C333 1.331 . S
C332 H350 0.932 . S
C333 C332 1.331 . S
C333 C334 1.336 . S
C334 C330 1.394 . S
C334 C333 1.336 . S
C334 H349 0.929 . S
C335 C325 1.386 . S
C335 C328 1.357 . S
C335 H348 0.928 . S
H336 C312 0.931 . S
H337 C314 0.930 . S
H338 C316 0.929 . S
H339 C317 0.931 . S
H340 C319 0.930 . S
H341 C323 0.931 . S
H342 C321 0.931 . S
H343 C325 0.931 . S
H344 C326 0.929 . S
H345 C327 0.930 . S
H346 C330 0.930 . S
H347 C331 0.931 . S
H348 C335 0.928 . S
H349 C334 0.929 . S
H350 C332 0.932 . S
C351 C352 1.386 . S
C351 C353 1.397 . S
C351 H375 0.931 . S
C352 C351 1.386 . S
C352 C356 1.397 . S
C353 C351 1.397 . S
C353 C354 1.384 . S
C353 H376 0.930 . S
C354 C353 1.384 . S
C354 C355 1.377 . S
C354 C357 1.481 . S
C355 C354 1.377 . S
C355 C356 1.389 . S
C355 H377 0.929 . S
C356 C352 1.397 . S
C356 C355 1.389 . S
C356 H378 0.931 . S
C357 C354 1.481 . S
C357 C358 1.387 . S
C357 C362 1.390 . S
C358 C357 1.387 . S
C358 C359 1.401 . S
C358 H379 0.930 . S
C359 C358 1.401 . S
C359 C360 1.376 . S
C359 C368 1.511 . S
C360 C359 1.376 . S
C360 C361 1.392 . S
C360 H381 0.931 . S
C361 C360 1.392 . S
C361 C362 1.361 . S
C361 C363 1.500 . S
C362 C357 1.390 . S
C362 C361 1.361 . S
C362 H380 0.931 . S
C363 C361 1.500 . S
C363 C364 1.371 . S
C363 C365 1.365 . S
C364 C363 1.371 . S
C364 C374 1.386 . S
C364 H382 0.931 . S
C365 C363 1.365 . S
C365 C366 1.409 . S
C365 H383 0.929 . S
C366 C365 1.409 . S
C366 C367 1.380 . S
C366 H384 0.930 . S
C367 C366 1.380 . S
C367 C374 1.357 . S
C368 C359 1.511 . S
C368 C369 1.341 . S
C368 C370 1.371 . S
C369 C368 1.341 . S
C369 C373 1.394 . S
C369 H385 0.930 . S
C370 C368 1.371 . S
C370 C371 1.392 . S
C370 H386 0.931 . S
C371 C370 1.392 . S
C371 C372 1.331 . S
C371 H389 0.932 . S
C372 C371 1.331 . S
C372 C373 1.336 . S
C373 C369 1.394 . S
C373 C372 1.336 . S
C373 H388 0.929 . S
C374 C364 1.386 . S
C374 C367 1.357 . S
C374 H387 0.928 . S
H375 C351 0.931 . S
H376 C353 0.930 . S
H377 C355 0.929 . S
H378 C356 0.931 . S
H379 C358 0.930 . S
H380 C362 0.931 . S
H381 C360 0.931 . S
H382 C364 0.931 . S
H383 C365 0.929 . S
H384 C366 0.930 . S
H385 C369 0.930 . S
H386 C370 0.931 . S
H387 C374 0.928 . S
H388 C373 0.929 . S
H389 C371 0.932 . S
C390 C391 1.386 . S
C390 C392 1.397 . S
C390 H414 0.931 . S
C391 C390 1.386 . S
C391 C395 1.397 . S
C392 C390 1.397 . S
C392 C393 1.384 . S
C392 H415 0.930 . S
C393 C392 1.384 . S
C393 C394 1.377 . S
C393 C396 1.481 . S
C394 C393 1.377 . S
C394 C395 1.389 . S
C394 H416 0.929 . S
C395 C391 1.397 . S
C395 C394 1.389 . S
C395 H417 0.931 . S
C396 C393 1.481 . S
C396 C397 1.387 . S
C396 C401 1.390 . S
C397 C396 1.387 . S
C397 C398 1.401 . S
C397 H418 0.930 . S
C398 C397 1.401 . S
C398 C399 1.376 . S
C398 C407 1.511 . S
C399 C398 1.376 . S
C399 C400 1.392 . S
C399 H420 0.931 . S
C400 C399 1.392 . S
C400 C401 1.361 . S
C400 C402 1.500 . S
C401 C396 1.390 . S
C401 C400 1.361 . S
C401 H419 0.931 . S
C402 C400 1.500 . S
C402 C403 1.371 . S
C402 C404 1.365 . S
C403 C402 1.371 . S
C403 C413 1.386 . S
C403 H421 0.931 . S
C404 C402 1.365 . S
C404 C405 1.409 . S
C404 H422 0.929 . S
C405 C404 1.409 . S
C405 C406 1.380 . S
C405 H423 0.930 . S
C406 C405 1.380 . S
C406 C413 1.357 . S
C407 C398 1.511 . S
C407 C408 1.341 . S
C407 C409 1.371 . S
C408 C407 1.341 . S
C408 C412 1.394 . S
C408 H424 0.930 . S
C409 C407 1.371 . S
C409 C410 1.392 . S
C409 H425 0.931 . S
C410 C409 1.392 . S
C410 C411 1.331 . S
C410 H428 0.932 . S
C411 C410 1.331 . S
C411 C412 1.336 . S
C412 C408 1.394 . S
C412 C411 1.336 . S
C412 H427 0.929 . S
C413 C403 1.386 . S
C413 C406 1.357 . S
C413 H426 0.884 1_556 S
H414 C390 0.931 . S
H415 C392 0.930 . S
H416 C394 0.929 . S
H417 C395 0.931 . S
H418 C397 0.930 . S
H419 C401 0.931 . S
H420 C399 0.931 . S
H421 C403 0.931 . S
H422 C404 0.929 . S
H423 C405 0.930 . S
H424 C408 0.930 . S
H425 C409 0.931 . S
H426 C413 0.884 1_554 S
H427 C412 0.929 . S
H428 C410 0.932 . S
C429 C430 1.386 . S
C429 C431 1.397 . S
C429 H453 0.931 . S
C430 C429 1.386 . S
C430 C434 1.397 . S
C431 C429 1.397 . S
C431 C432 1.384 . S
C431 H454 0.930 . S
C432 C431 1.384 . S
C432 C433 1.377 . S
C432 C435 1.481 . S
C433 C432 1.377 . S
C433 C434 1.389 . S
C433 H455 0.929 . S
C434 C430 1.397 . S
C434 C433 1.389 . S
C434 H456 0.931 . S
C435 C432 1.481 . S
C435 C436 1.387 . S
C435 C440 1.390 . S
C436 C435 1.387 . S
C436 C437 1.401 . S
C436 H457 0.930 . S
C437 C436 1.401 . S
C437 C438 1.376 . S
C437 C446 1.511 . S
C438 C437 1.376 . S
C438 C439 1.392 . S
C438 H459 0.931 . S
C439 C438 1.392 . S
C439 C440 1.361 . S
C439 C441 1.500 . S
C440 C435 1.390 . S
C440 C439 1.361 . S
C440 H458 0.931 . S
C441 C439 1.500 . S
C441 C442 1.371 . S
C441 C443 1.365 . S
C442 C441 1.371 . S
C442 C452 1.386 . S
C442 H460 0.931 . S
C443 C441 1.365 . S
C443 C444 1.409 . S
C443 H461 0.929 . S
C444 C443 1.409 . S
C444 C445 1.380 . S
C444 H462 0.930 . S
C445 C444 1.380 . S
C445 C452 1.357 . S
C446 C437 1.511 . S
C446 C447 1.341 . S
C446 C448 1.371 . S
C447 C446 1.341 . S
C447 C451 1.394 . S
C447 H463 0.930 . S
C448 C446 1.371 . S
C448 C449 1.392 . S
C448 H464 0.931 . S
C449 C448 1.392 . S
C449 C450 1.331 . S
C449 H467 0.932 . S
C450 C449 1.331 . S
C450 C451 1.336 . S
C451 C447 1.394 . S
C451 C450 1.336 . S
C451 H466 0.929 . S
C452 C442 1.386 . S
C452 C445 1.357 . S
C452 H465 0.928 . S
H453 C429 0.931 . S
H454 C431 0.930 . S
H455 C433 0.929 . S
H456 C434 0.931 . S
H457 C436 0.930 . S
H458 C440 0.931 . S
H459 C438 0.931 . S
H460 C442 0.931 . S
H461 C443 0.929 . S
H462 C444 0.930 . S
H463 C447 0.930 . S
H464 C448 0.931 . S
H465 C452 0.928 . S
H466 C451 0.929 . S
H467 C449 0.932 . S
C468 C469 1.386 . S
C468 C470 1.397 . S
C468 H492 0.931 . S
C469 C468 1.386 . S
C469 C473 1.397 . S
C470 C468 1.397 . S
C470 C471 1.384 . S
C470 H493 0.930 . S
C471 C470 1.384 . S
C471 C472 1.377 . S
C471 C474 1.481 . S
C472 C471 1.377 . S
C472 C473 1.389 . S
C472 H494 0.929 . S
C473 C469 1.397 . S
C473 C472 1.389 . S
C473 H495 0.931 . S
C474 C471 1.481 . S
C474 C475 1.387 . S
C474 C479 1.390 . S
C475 C474 1.387 . S
C475 C476 1.401 . S
C475 H496 0.930 . S
C476 C475 1.401 . S
C476 C477 1.376 . S
C476 C485 1.511 . S
C477 C476 1.376 . S
C477 C478 1.392 . S
C477 H498 0.931 . S
C478 C477 1.392 . S
C478 C479 1.361 . S
C478 C480 1.500 . S
C479 C474 1.390 . S
C479 C478 1.361 . S
C479 H497 0.931 . S
C480 C478 1.500 . S
C480 C481 1.371 . S
C480 C482 1.365 . S
C481 C480 1.371 . S
C481 C491 1.386 . S
C481 H499 0.931 . S
C482 C480 1.365 . S
C482 C483 1.409 . S
C482 H500 0.929 . S
C483 C482 1.409 . S
C483 C484 1.380 . S
C483 H501 0.930 . S
C484 C483 1.380 . S
C484 C491 1.357 . S
C485 C476 1.511 . S
C485 C486 1.341 . S
C485 C487 1.371 . S
C486 C485 1.341 . S
C486 C490 1.394 . S
C486 H502 0.930 . S
C487 C485 1.371 . S
C487 C488 1.392 . S
C487 H503 0.931 . S
C488 C487 1.392 . S
C488 C489 1.331 . S
C488 H506 0.932 . S
C489 C488 1.331 . S
C489 C490 1.336 . S
C490 C486 1.394 . S
C490 C489 1.336 . S
C490 H505 0.929 . S
C491 C481 1.386 . S
C491 C484 1.357 . S
C491 H504 0.928 . S
H492 C468 0.931 . S
H493 C470 0.930 . S
H494 C472 0.929 . S
H495 C473 0.931 . S
H496 C475 0.930 . S
H497 C479 0.931 . S
H498 C477 0.931 . S
H499 C481 0.931 . S
H500 C482 0.929 . S
H501 C483 0.930 . S
H502 C486 0.930 . S
H503 C487 0.931 . S
H504 C491 0.928 . S
H505 C490 0.929 . S
H506 C488 0.932 . S
C507 C508 1.386 . S
C507 C509 1.397 . S
C507 H531 0.931 . S
C508 C507 1.386 . S
C508 C512 1.397 . S
C509 C507 1.397 . S
C509 C510 1.384 . S
C509 H532 0.930 . S
C510 C509 1.384 . S
C510 C511 1.377 . S
C510 C513 1.481 . S
C511 C510 1.377 . S
C511 C512 1.389 . S
C511 H533 0.929 . S
C512 C508 1.397 . S
C512 C511 1.389 . S
C512 H534 0.931 . S
C513 C510 1.481 . S
C513 C514 1.387 . S
C513 C518 1.390 . S
C514 C513 1.387 . S
C514 C515 1.401 . S
C514 H535 0.930 . S
C515 C514 1.401 . S
C515 C516 1.376 . S
C515 C524 1.511 . S
C516 C515 1.376 . S
C516 C517 1.392 . S
C516 H537 0.931 . S
C517 C516 1.392 . S
C517 C518 1.361 . S
C517 C519 1.500 . S
C518 C513 1.390 . S
C518 C517 1.361 . S
C518 H536 0.931 . S
C519 C517 1.500 . S
C519 C520 1.371 . S
C519 C521 1.365 . S
C520 C519 1.371 . S
C520 C530 1.386 . S
C520 H538 0.931 . S
C521 C519 1.365 . S
C521 C522 1.409 . S
C521 H539 0.929 . S
C522 C521 1.409 . S
C522 C523 1.380 . S
C522 H540 0.930 . S
C523 C522 1.380 . S
C523 C530 1.357 . S
C524 C515 1.511 . S
C524 C525 1.341 . S
C524 C526 1.371 . S
C525 C524 1.341 . S
C525 C529 1.394 . S
C525 H541 0.930 . S
C526 C524 1.371 . S
C526 C527 1.392 . S
C526 H542 0.931 . S
C527 C526 1.392 . S
C527 C528 1.331 . S
C527 H545 0.932 . S
C528 C527 1.331 . S
C528 C529 1.336 . S
C529 C525 1.394 . S
C529 C528 1.336 . S
C529 H544 0.929 . S
C530 C520 1.386 . S
C530 C523 1.357 . S
C530 H543 0.928 . S
H531 C507 0.931 . S
H532 C509 0.930 . S
H533 C511 0.929 . S
H534 C512 0.931 . S
H535 C514 0.930 . S
H536 C518 0.931 . S
H537 C516 0.931 . S
H538 C520 0.931 . S
H539 C521 0.929 . S
H540 C522 0.930 . S
H541 C525 0.930 . S
H542 C526 0.931 . S
H543 C530 0.928 . S
H544 C529 0.929 . S
H545 C527 0.932 . S
C546 C547 1.386 . S
C546 C548 1.397 . S
C546 H570 0.931 . S
C547 C546 1.386 . S
C547 C551 1.397 . S
C548 C546 1.397 . S
C548 C549 1.384 . S
C548 H571 0.930 . S
C549 C548 1.384 . S
C549 C550 1.377 . S
C549 C552 1.481 . S
C550 C549 1.377 . S
C550 C551 1.389 . S
C550 H572 0.929 . S
C551 C547 1.397 . S
C551 C550 1.389 . S
C551 H573 0.931 . S
C552 C549 1.481 . S
C552 C553 1.387 . S
C552 C557 1.390 . S
C553 C552 1.387 . S
C553 C554 1.401 . S
C553 H574 0.930 . S
C554 C553 1.401 . S
C554 C555 1.376 . S
C554 C563 1.511 . S
C555 C554 1.376 . S
C555 C556 1.392 . S
C555 H576 0.931 . S
C556 C555 1.392 . S
C556 C557 1.361 . S
C556 C558 1.500 . S
C557 C552 1.390 . S
C557 C556 1.361 . S
C557 H575 0.931 . S
C558 C556 1.500 . S
C558 C559 1.371 . S
C558 C560 1.365 . S
C559 C558 1.371 . S
C559 C569 1.386 . S
C559 H577 0.931 . S
C560 C558 1.365 . S
C560 C561 1.409 . S
C560 H578 0.929 . S
C561 C560 1.409 . S
C561 C562 1.380 . S
C561 H579 0.930 . S
C562 C561 1.380 . S
C562 C569 1.357 . S
C563 C554 1.511 . S
C563 C564 1.341 . S
C563 C565 1.371 . S
C564 C563 1.341 . S
C564 C568 1.394 . S
C564 H580 0.930 . S
C565 C563 1.371 . S
C565 C566 1.392 . S
C565 H581 0.931 . S
C566 C565 1.392 . S
C566 C567 1.331 . S
C566 H584 0.932 . S
C567 C566 1.331 . S
C567 C568 1.336 . S
C568 C564 1.394 . S
C568 C567 1.336 . S
C568 H583 0.929 . S
C569 C559 1.386 . S
C569 C562 1.357 . S
C569 H582 0.928 . S
H570 C546 0.931 . S
H571 C548 0.930 . S
H572 C550 0.929 . S
H573 C551 0.931 . S
H574 C553 0.930 . S
H575 C557 0.931 . S
H576 C555 0.931 . S
H577 C559 0.931 . S
H578 C560 0.929 . S
H579 C561 0.930 . S
H580 C564 0.930 . S
H581 C565 0.931 . S
H582 C569 0.928 . S
H583 C568 0.929 . S
H584 C566 0.932 . S
C585 C586 1.386 . S
C585 C587 1.397 . S
C585 H609 0.931 . S
C586 C585 1.386 . S
C586 C590 1.397 . S
C587 C585 1.397 . S
C587 C588 1.384 . S
C587 H610 0.930 . S
C588 C587 1.384 . S
C588 C589 1.377 . S
C588 C591 1.481 . S
C589 C588 1.377 . S
C589 C590 1.389 . S
C589 H611 0.929 . S
C590 C586 1.397 . S
C590 C589 1.389 . S
C590 H612 0.931 . S
C591 C588 1.481 . S
C591 C592 1.387 . S
C591 C596 1.390 . S
C592 C591 1.387 . S
C592 C593 1.401 . S
C592 H613 0.930 . S
C593 C592 1.401 . S
C593 C594 1.376 . S
C593 C602 1.511 . S
C594 C593 1.376 . S
C594 C595 1.392 . S
C594 H615 0.931 . S
C595 C594 1.392 . S
C595 C596 1.361 . S
C595 C597 1.500 . S
C596 C591 1.390 . S
C596 C595 1.361 . S
C596 H614 0.931 . S
C597 C595 1.500 . S
C597 C598 1.371 . S
C597 C599 1.365 . S
C598 C597 1.371 . S
C598 C608 1.386 . S
C598 H616 0.931 . S
C599 C597 1.365 . S
C599 C600 1.409 . S
C599 H617 0.929 . S
C600 C599 1.409 . S
C600 C601 1.380 . S
C600 H618 0.930 . S
C601 C600 1.380 . S
C601 C608 1.357 . S
C602 C593 1.511 . S
C602 C603 1.341 . S
C602 C604 1.371 . S
C603 C602 1.341 . S
C603 C607 1.394 . S
C603 H619 0.930 . S
C604 C602 1.371 . S
C604 C605 1.392 . S
C604 H620 0.931 . S
C605 C604 1.392 . S
C605 C606 1.331 . S
C605 H623 0.932 . S
C606 C605 1.331 . S
C606 C607 1.336 . S
C607 C603 1.394 . S
C607 C606 1.336 . S
C607 H622 0.929 . S
C608 C598 1.386 . S
C608 C601 1.357 . S
C608 H621 0.928 . S
H609 C585 0.931 . S
H610 C587 0.930 . S
H611 C589 0.929 . S
H612 C590 0.931 . S
H613 C592 0.930 . S
H614 C596 0.931 . S
H615 C594 0.931 . S
H616 C598 0.931 . S
H617 C599 0.929 . S
H618 C600 0.930 . S
H619 C603 0.930 . S
H620 C604 0.931 . S
H621 C608 0.928 . S
H622 C607 0.929 . S
H623 C605 0.932 . S
C624 C625 1.386 1_655 S
C624 C626 1.397 . S
C624 H648 0.931 . S
C625 C624 1.386 1_455 S
C625 C629 1.397 . S
C626 C624 1.397 . S
C626 C627 1.384 1_655 S
C626 H649 0.930 . S
C627 C626 1.384 1_455 S
C627 C628 1.377 . S
C627 C630 1.481 . S
C628 C627 1.377 . S
C628 C629 1.389 . S
C628 H650 0.929 . S
C629 C625 1.397 . S
C629 C628 1.389 . S
C629 H651 0.931 . S
C630 C627 1.481 . S
C630 C631 1.387 . S
C630 C635 1.390 . S
C631 C630 1.387 . S
C631 C632 1.401 . S
C631 H652 0.930 . S
C632 C631 1.401 . S
C632 C633 1.376 . S
C632 C641 1.511 . S
C633 C632 1.376 . S
C633 C634 1.392 . S
C633 H654 0.931 . S
C634 C633 1.392 . S
C634 C635 1.361 . S
C634 C636 1.500 . S
C635 C630 1.390 . S
C635 C634 1.361 . S
C635 H653 0.931 . S
C636 C634 1.500 . S
C636 C637 1.371 . S
C636 C638 1.365 . S
C637 C636 1.371 . S
C637 C647 1.386 . S
C637 H655 0.931 . S
C638 C636 1.365 . S
C638 C639 1.409 . S
C638 H656 0.929 . S
C639 C638 1.409 . S
C639 C640 1.380 . S
C639 H657 0.930 . S
C640 C639 1.380 . S
C640 C647 1.357 . S
C641 C632 1.511 . S
C641 C642 1.341 . S
C641 C643 1.371 . S
C642 C641 1.341 . S
C642 C646 1.394 . S
C642 H658 0.930 . S
C643 C641 1.371 . S
C643 C644 1.392 . S
C643 H659 0.931 . S
C644 C643 1.392 . S
C644 C645 1.331 . S
C644 H662 0.932 . S
C645 C644 1.331 . S
C645 C646 1.336 . S
C646 C642 1.394 . S
C646 C645 1.336 . S
C646 H661 0.929 . S
C647 C637 1.386 . S
C647 C640 1.357 . S
C647 H660 0.928 . S
H648 C624 0.931 . S
H649 C626 0.930 . S
H650 C628 0.929 . S
H651 C629 0.931 . S
H652 C631 0.930 . S
H653 C635 0.931 . S
H654 C633 0.931 . S
H655 C637 0.931 . S
H656 C638 0.929 . S
H657 C639 0.930 . S
H658 C642 0.930 . S
H659 C643 0.931 . S
H660 C647 0.928 . S
H661 C646 0.929 . S
H662 C644 0.932 . S
C663 C664 1.386 . S
C663 C665 1.397 . S
C663 H687 0.931 . S
C664 C663 1.386 . S
C664 C668 1.397 . S
C665 C663 1.397 . S
C665 C666 1.384 . S
C665 H688 0.930 . S
C666 C665 1.384 . S
C666 C667 1.377 . S
C666 C669 1.481 . S
C667 C666 1.377 . S
C667 C668 1.389 . S
C667 H689 0.929 . S
C668 C664 1.397 . S
C668 C667 1.389 . S
C668 H690 0.931 . S
C669 C666 1.481 . S
C669 C670 1.387 . S
C669 C674 1.390 . S
C670 C669 1.387 . S
C670 C671 1.401 . S
C670 H691 0.930 . S
C671 C670 1.401 . S
C671 C672 1.376 . S
C671 C680 1.511 . S
C672 C671 1.376 . S
C672 C673 1.392 . S
C672 H693 0.931 . S
C673 C672 1.392 . S
C673 C674 1.361 . S
C673 C675 1.500 . S
C674 C669 1.390 . S
C674 C673 1.361 . S
C674 H692 0.931 . S
C675 C673 1.500 . S
C675 C676 1.371 . S
C675 C677 1.365 . S
C676 C675 1.371 . S
C676 C686 1.386 . S
C676 H694 0.931 . S
C677 C675 1.365 . S
C677 C678 1.409 . S
C677 H695 0.929 . S
C678 C677 1.409 . S
C678 C679 1.380 . S
C678 H696 0.930 . S
C679 C678 1.380 . S
C679 C686 1.357 . S
C680 C671 1.511 . S
C680 C681 1.341 . S
C680 C682 1.371 . S
C681 C680 1.341 . S
C681 C685 1.394 . S
C681 H697 0.930 . S
C682 C680 1.371 . S
C682 C683 1.392 . S
C682 H698 0.931 . S
C683 C682 1.392 . S
C683 C684 1.331 . S
C683 H701 0.932 . S
C684 C683 1.331 . S
C684 C685 1.336 . S
C685 C681 1.394 . S
C685 C684 1.336 . S
C685 H700 0.929 . S
C686 C676 1.386 . S
C686 C679 1.357 . S
C686 H699 0.928 . S
H687 C663 0.931 . S
H688 C665 0.930 . S
H689 C667 0.929 . S
H690 C668 0.931 . S
H691 C670 0.930 . S
H692 C674 0.931 . S
H693 C672 0.931 . S
H694 C676 0.931 . S
H695 C677 0.929 . S
H696 C678 0.930 . S
H697 C681 0.930 . S
H698 C682 0.931 . S
H699 C686 0.928 . S
H700 C685 0.929 . S
H701 C683 0.932 . S
Tb702 C712 2.825 . S
Tb702 O713 2.347 1_565 S
Tb702 O716 2.366 1_565 S
Tb702 O721 2.418 . S
Tb702 O722 2.421 . S
Tb702 O725 2.479 . S
Tb702 O726 2.465 1_565 S
Eu703 O714 2.418 . S
Eu703 O715 2.384 . S
Eu703 O718 2.479 . S
Eu703 O719 2.482 . S
Eu703 O720 2.347 1_545 S
Eu703 O723 2.366 1_545 S
Eu703 C733 2.825 . S
C704 O720 1.259 . S
C704 O721 1.265 1_554 S
C705 O722 1.212 1_554 S
C705 O723 1.265 . S
C706 C708 1.380 . S
C706 C709 1.374 1_565 S
C706 C712 1.507 . S
C707 C708 1.384 . S
C707 C711 1.387 1_565 S
C707 H734 0.930 . S
C708 C706 1.380 . S
C708 C707 1.384 . S
C708 H735 0.931 . S
C709 C706 1.374 1_545 S
C709 C710 1.390 . S
C709 H736 0.930 . S
C710 C709 1.390 . S
C710 C711 1.391 . S
C710 H737 0.930 . S
C711 C707 1.387 1_545 S
C711 C710 1.391 . S
C712 Tb702 2.825 . S
C712 C706 1.507 . S
C712 O725 1.238 . S
C712 O726 1.237 1_565 S
O713 Tb702 2.347 1_545 S
O713 C717 1.259 . S
O714 Eu703 2.418 . S
O714 C717 1.265 1_554 S
O715 Eu703 2.384 . S
O715 C724 1.255 1_554 S
O716 Tb702 2.366 1_545 S
O716 C724 1.265 . S
C717 O713 1.259 . S
C717 O714 1.265 1_556 S
O718 Eu703 2.479 . S
O718 C733 1.238 . S
O719 Eu703 2.482 . S
O719 C733 1.263 . S
O720 Eu703 2.347 1_565 S
O720 C704 1.259 . S
O721 Tb702 2.418 . S
O721 C704 1.265 1_556 S
O722 Tb702 2.421 . S
O722 C705 1.212 1_556 S
O723 Eu703 2.366 1_565 S
O723 C705 1.265 . S
C724 O715 1.255 1_556 S
C724 O716 1.265 . S
O725 Tb702 2.479 . S
O725 C712 1.238 . S
O726 Tb702 2.465 1_545 S
O726 C712 1.237 1_545 S
C727 C730 1.380 . S
C727 C731 1.374 1_545 S
C727 C733 1.507 . S
C728 C729 1.387 1_565 S
C728 C732 1.391 . S
C729 C728 1.387 1_545 S
C729 C730 1.384 . S
C729 H738 0.930 . S
C730 C727 1.380 . S
C730 C729 1.384 . S
C730 H739 0.931 . S
C731 C727 1.374 1_565 S
C731 C732 1.390 . S
C731 H740 0.930 . S
C732 C728 1.391 . S
C732 C731 1.390 . S
C732 H741 0.930 . S
C733 Eu703 2.825 . S
C733 O718 1.238 . S
C733 O719 1.263 . S
C733 C727 1.507 . S
H734 C707 0.930 . S
H735 C708 0.931 . S
H736 C709 0.930 . S
H737 C710 0.930 . S
H738 C729 0.930 . S
H739 C730 0.931 . S
H740 C731 0.930 . S
H741 C732 0.930 . S
Tb742 C752 2.825 . S
Tb742 O753 2.347 1_455 S
Tb742 O756 2.366 1_455 S
Tb742 O761 2.418 . S
Tb742 O762 2.384 1_556 S
Tb742 O765 2.479 . S
Tb742 O766 2.471 1_455 S
Eu743 O754 2.418 . S
Eu743 O755 2.364 1_554 S
Eu743 O758 2.479 . S
Eu743 O759 2.471 1_655 S
Eu743 O760 2.347 1_655 S
Eu743 O763 2.366 1_655 S
Eu743 C773 2.825 . S
C744 O760 1.259 . S
C744 O761 1.265 1_554 S
C745 O762 1.255 . S
C745 O763 1.265 . S
C746 C748 1.380 . S
C746 C749 1.374 1_455 S
C746 C752 1.507 . S
C747 C748 1.384 . S
C747 C751 1.387 1_455 S
C747 H774 0.930 . S
C748 C746 1.380 . S
C748 C747 1.384 . S
C748 H775 0.931 . S
C749 C746 1.374 1_655 S
C749 C750 1.390 . S
C749 H776 0.930 . S
C750 C749 1.390 . S
C750 C751 1.391 . S
C750 H777 0.930 . S
C751 C747 1.387 1_655 S
C751 C750 1.391 . S
C752 Tb742 2.825 . S
C752 C746 1.507 . S
C752 O765 1.238 . S
C752 O766 1.247 1_455 S
O753 Tb742 2.347 1_655 S
O753 C757 1.259 . S
O754 Eu743 2.418 . S
O754 C757 1.265 1_554 S
O755 Eu743 2.364 1_556 S
O755 C764 1.280 . S
O756 Tb742 2.366 1_655 S
O756 C764 1.265 . S
C757 O753 1.259 . S
C757 O754 1.265 1_556 S
O758 Eu743 2.479 . S
O758 C773 1.238 . S
O759 Eu743 2.471 1_455 S
O759 C773 1.247 1_455 S
O760 Eu743 2.347 1_455 S
O760 C744 1.259 . S
O761 Tb742 2.418 . S
O761 C744 1.265 1_556 S
O762 Tb742 2.384 1_554 S
O762 C745 1.255 . S
O763 Eu743 2.366 1_455 S
O763 C745 1.265 . S
C764 O755 1.280 . S
C764 O756 1.265 . S
O765 Tb742 2.479 . S
O765 C752 1.238 . S
O766 Tb742 2.471 1_655 S
O766 C752 1.247 1_655 S
C767 C770 1.380 . S
C767 C771 1.374 1_655 S
C767 C773 1.507 . S
C768 C769 1.387 1_455 S
C768 C772 1.391 . S
C769 C768 1.387 1_655 S
C769 C770 1.384 . S
C769 H778 0.930 . S
C770 C767 1.380 . S
C770 C769 1.384 . S
C770 H779 0.931 . S
C771 C767 1.374 1_455 S
C771 C772 1.390 . S
C771 H780 0.930 . S
C772 C768 1.391 . S
C772 C771 1.390 . S
C772 H781 0.930 . S
C773 Eu743 2.825 . S
C773 O758 1.238 . S
C773 O759 1.247 1_655 S
C773 C767 1.507 . S
H774 C747 0.930 . S
H775 C748 0.931 . S
H776 C749 0.930 . S
H777 C750 0.930 . S
H778 C769 0.930 . S
H779 C770 0.931 . S
H780 C771 0.930 . S
H781 C772 0.930 . S
Tb782 C792 2.825 . S
Tb782 O793 2.347 . S
Tb782 O796 2.366 . S
Tb782 O801 2.418 . S
Tb782 O802 2.384 . S
Tb782 O805 2.479 . S
Tb782 O806 2.471 . S
Eu783 O794 2.418 . S
Eu783 O795 2.384 1_556 S
Eu783 O798 2.479 . S
Eu783 O799 2.471 . S
Eu783 O800 2.347 . S
Eu783 O803 2.366 . S
Eu783 C813 2.825 . S
C784 O800 1.259 . S
C784 O801 1.265 1_556 S
C785 O802 1.255 1_556 S
C785 O803 1.265 . S
C786 C788 1.380 . S
C786 C789 1.374 . S
C786 C792 1.507 . S
C787 C788 1.384 . S
C787 C791 1.387 . S
C787 H814 0.930 . S
C788 C786 1.380 . S
C788 C787 1.384 . S
C788 H815 0.931 . S
C789 C786 1.374 . S
C789 C790 1.390 . S
C789 H816 0.930 . S
C790 C789 1.390 . S
C790 C791 1.391 . S
C790 H817 0.930 . S
C791 C787 1.387 . S
C791 C790 1.391 . S
C792 Tb782 2.825 . S
C792 C786 1.507 . S
C792 O805 1.238 . S
C792 O806 1.247 . S
O793 Tb782 2.347 . S
O793 C797 1.259 . S
O794 Eu783 2.418 . S
O794 C797 1.265 1_556 S
O795 Eu783 2.384 1_554 S
O795 C804 1.255 . S
O796 Tb782 2.366 . S
O796 C804 1.265 . S
C797 O793 1.259 . S
C797 O794 1.265 1_554 S
O798 Eu783 2.479 . S
O798 C813 1.238 . S
O799 Eu783 2.471 . S
O799 C813 1.247 . S
O800 Eu783 2.347 . S
O800 C784 1.259 . S
O801 Tb782 2.418 . S
O801 C784 1.265 1_554 S
O802 Tb782 2.384 . S
O802 C785 1.255 1_554 S
O803 Eu783 2.366 . S
O803 C785 1.265 . S
C804 O795 1.255 . S
C804 O796 1.265 . S
O805 Tb782 2.479 . S
O805 C792 1.238 . S
O806 Tb782 2.471 . S
O806 C792 1.247 . S
C807 C810 1.380 . S
C807 C811 1.374 . S
C807 C813 1.507 . S
C808 C809 1.387 . S
C808 C812 1.391 . S
C809 C808 1.387 . S
C809 C810 1.384 . S
C809 H818 0.930 . S
C810 C807 1.380 . S
C810 C809 1.384 . S
C810 H819 0.931 . S
C811 C807 1.374 . S
C811 C812 1.390 . S
C811 H820 0.930 . S
C812 C808 1.391 . S
C812 C811 1.390 . S
C812 H821 0.930 . S
C813 Eu783 2.825 . S
C813 O798 1.238 . S
C813 O799 1.247 . S
C813 C807 1.507 . S
H814 C787 0.930 . S
H815 C788 0.931 . S
H816 C789 0.930 . S
H817 C790 0.930 . S
H818 C809 0.930 . S
H819 C810 0.931 . S
H820 C811 0.930 . S
H821 C812 0.930 . S
Tb822 C832 2.825 . S
Tb822 O833 2.347 . S
Tb822 O836 2.366 . S
Tb822 O841 2.418 . S
Tb822 O842 2.384 . S
Tb822 O845 2.479 . S
Tb822 O846 2.471 . S
Eu823 O834 2.418 . S
Eu823 O835 2.384 . S
Eu823 O838 2.479 . S
Eu823 O839 2.471 . S
Eu823 O840 2.347 . S
Eu823 O843 2.366 . S
Eu823 C853 2.825 . S
C824 O840 1.259 . S
C824 O841 1.265 . S
C825 O842 1.255 . S
C825 O843 1.265 . S
C826 C828 1.380 . S
C826 C829 1.374 . S
C826 C832 1.507 . S
C827 C828 1.384 . S
C827 C831 1.387 . S
C827 H854 0.930 . S
C828 C826 1.380 . S
C828 C827 1.384 . S
C828 H855 0.931 . S
C829 C826 1.374 . S
C829 C830 1.390 . S
C829 H856 0.930 . S
C830 C829 1.390 . S
C830 C831 1.391 . S
C830 H857 0.930 . S
C831 C827 1.387 . S
C831 C830 1.391 . S
C832 Tb822 2.825 . S
C832 C826 1.507 . S
C832 O845 1.238 . S
C832 O846 1.247 . S
O833 Tb822 2.347 . S
O833 C837 1.259 . S
O834 Eu823 2.418 . S
O834 C837 1.265 . S
O835 Eu823 2.384 . S
O835 C844 1.255 . S
O836 Tb822 2.366 . S
O836 C844 1.265 . S
C837 O833 1.259 . S
C837 O834 1.265 . S
O838 Eu823 2.479 . S
O838 C853 1.238 . S
O839 Eu823 2.471 . S
O839 C853 1.247 . S
O840 Eu823 2.347 . S
O840 C824 1.259 . S
O841 Tb822 2.418 . S
O841 C824 1.265 . S
O842 Tb822 2.384 . S
O842 C825 1.255 . S
O843 Eu823 2.366 . S
O843 C825 1.265 . S
C844 O835 1.255 . S
C844 O836 1.265 . S
O845 Tb822 2.479 . S
O845 C832 1.238 . S
O846 Tb822 2.471 . S
O846 C832 1.247 . S
C847 C850 1.380 . S
C847 C851 1.374 . S
C847 C853 1.507 . S
C848 C849 1.387 . S
C848 C852 1.391 . S
C849 C848 1.387 . S
C849 C850 1.384 . S
C849 H858 0.930 . S
C850 C847 1.380 . S
C850 C849 1.384 . S
C850 H859 0.931 . S
C851 C847 1.374 . S
C851 C852 1.390 . S
C851 H860 0.930 . S
C852 C848 1.391 . S
C852 C851 1.390 . S
C852 H861 0.930 . S
C853 Eu823 2.825 . S
C853 O838 1.238 . S
C853 O839 1.247 . S
C853 C847 1.507 . S
H854 C827 0.930 . S
H855 C828 0.931 . S
H856 C829 0.930 . S
H857 C830 0.930 . S
H858 C849 0.930 . S
H859 C850 0.931 . S
H860 C851 0.930 . S
H861 C852 0.930 . S
Tb862 C872 2.825 . S
Tb862 O873 2.347 . S
Tb862 O876 2.366 . S
Tb862 O881 2.418 . S
Tb862 O882 2.384 . S
Tb862 O885 2.479 . S
Tb862 O886 2.471 . S
Eu863 O874 2.418 . S
Eu863 O875 2.384 . S
Eu863 O878 2.479 . S
Eu863 O879 2.471 . S
Eu863 O880 2.347 . S
Eu863 O883 2.366 . S
Eu863 C893 2.825 . S
C864 O880 1.259 . S
C864 O881 1.265 . S
C865 O882 1.255 . S
C865 O883 1.265 . S
C866 C868 1.380 . S
C866 C869 1.374 . S
C866 C872 1.507 . S
C867 C868 1.384 . S
C867 C871 1.387 . S
C867 H894 0.930 . S
C868 C866 1.380 . S
C868 C867 1.384 . S
C868 H895 0.931 . S
C869 C866 1.374 . S
C869 C870 1.390 . S
C869 H896 0.930 . S
C870 C869 1.390 . S
C870 C871 1.391 . S
C870 H897 0.930 . S
C871 C867 1.387 . S
C871 C870 1.391 . S
C872 Tb862 2.825 . S
C872 C866 1.507 . S
C872 O885 1.238 . S
C872 O886 1.247 . S
O873 Tb862 2.347 . S
O873 C877 1.259 . S
O874 Eu863 2.418 . S
O874 C877 1.265 . S
O875 Eu863 2.384 . S
O875 C884 1.255 . S
O876 Tb862 2.366 . S
O876 C884 1.265 . S
C877 O873 1.259 . S
C877 O874 1.265 . S
O878 Eu863 2.479 . S
O878 C893 1.238 . S
O879 Eu863 2.471 . S
O879 C893 1.247 . S
O880 Eu863 2.347 . S
O880 C864 1.259 . S
O881 Tb862 2.418 . S
O881 C864 1.265 . S
O882 Tb862 2.384 . S
O882 C865 1.255 . S
O883 Eu863 2.366 . S
O883 C865 1.265 . S
C884 O875 1.255 . S
C884 O876 1.265 . S
O885 Tb862 2.479 . S
O885 C872 1.238 . S
O886 Tb862 2.471 . S
O886 C872 1.247 . S
C887 C890 1.380 . S
C887 C891 1.374 . S
C887 C893 1.507 . S
C888 C889 1.387 . S
C888 C892 1.391 . S
C889 C888 1.387 . S
C889 C890 1.384 . S
C889 H898 0.930 . S
C890 C887 1.380 . S
C890 C889 1.384 . S
C890 H899 0.931 . S
C891 C887 1.374 . S
C891 C892 1.390 . S
C891 H900 0.930 . S
C892 C888 1.391 . S
C892 C891 1.390 . S
C892 H901 0.930 . S
C893 Eu863 2.825 . S
C893 O878 1.238 . S
C893 O879 1.247 . S
C893 C887 1.507 . S
H894 C867 0.930 . S
H895 C868 0.931 . S
H896 C869 0.930 . S
H897 C870 0.930 . S
H898 C889 0.930 . S
H899 C890 0.931 . S
H900 C891 0.930 . S
H901 C892 0.930 . S
Tb902 C912 2.825 . S
Tb902 O913 2.347 . S
Tb902 O916 2.366 . S
Tb902 O921 2.418 . S
Tb902 O922 2.384 . S
Tb902 O925 2.479 . S
Tb902 O926 2.471 . S
Eu903 O914 2.418 . S
Eu903 O915 2.384 . S
Eu903 O918 2.479 . S
Eu903 O919 2.471 . S
Eu903 O920 2.347 . S
Eu903 O923 2.366 . S
Eu903 C933 2.825 . S
C904 O920 1.259 . S
C904 O921 1.265 . S
C905 O922 1.255 . S
C905 O923 1.265 . S
C906 C908 1.380 . S
C906 C909 1.374 . S
C906 C912 1.507 . S
C907 C908 1.384 . S
C907 C911 1.387 . S
C907 H934 0.930 . S
C908 C906 1.380 . S
C908 C907 1.384 . S
C908 H935 0.931 . S
C909 C906 1.374 . S
C909 C910 1.390 . S
C909 H936 0.930 . S
C910 C909 1.390 . S
C910 C911 1.391 . S
C910 H937 0.930 . S
C911 C907 1.387 . S
C911 C910 1.391 . S
C912 Tb902 2.825 . S
C912 C906 1.507 . S
C912 O925 1.238 . S
C912 O926 1.247 . S
O913 Tb902 2.347 . S
O913 C917 1.259 . S
O914 Eu903 2.418 . S
O914 C917 1.265 . S
O915 Eu903 2.384 . S
O915 C924 1.255 . S
O916 Tb902 2.366 . S
O916 C924 1.265 . S
C917 O913 1.259 . S
C917 O914 1.265 . S
O918 Eu903 2.479 . S
O918 C933 1.238 . S
O919 Eu903 2.471 . S
O919 C933 1.247 . S
O920 Eu903 2.347 . S
O920 C904 1.259 . S
O921 Tb902 2.418 . S
O921 C904 1.265 . S
O922 Tb902 2.384 . S
O922 C905 1.255 . S
O923 Eu903 2.366 . S
O923 C905 1.265 . S
C924 O915 1.255 . S
C924 O916 1.265 . S
O925 Tb902 2.479 . S
O925 C912 1.238 . S
O926 Tb902 2.471 . S
O926 C912 1.247 . S
C927 C930 1.380 . S
C927 C931 1.374 . S
C927 C933 1.507 . S
C928 C929 1.387 . S
C928 C932 1.391 . S
C929 C928 1.387 . S
C929 C930 1.384 . S
C929 H938 0.930 . S
C930 C927 1.380 . S
C930 C929 1.384 . S
C930 H939 0.931 . S
C931 C927 1.374 . S
C931 C932 1.390 . S
C931 H940 0.930 . S
C932 C928 1.391 . S
C932 C931 1.390 . S
C932 H941 0.930 . S
C933 Eu903 2.825 . S
C933 O918 1.238 . S
C933 O919 1.247 . S
C933 C927 1.507 . S
H934 C907 0.930 . S
H935 C908 0.931 . S
H936 C909 0.930 . S
H937 C910 0.930 . S
H938 C929 0.930 . S
H939 C930 0.931 . S
H940 C931 0.930 . S
H941 C932 0.930 . S
Tb942 C952 2.825 . S
Tb942 O953 2.347 . S
Tb942 O956 2.366 . S
Tb942 O961 2.418 . S
Tb942 O962 2.384 . S
Tb942 O965 2.479 . S
Tb942 O966 2.471 . S
Eu943 O954 2.418 . S
Eu943 O955 2.384 . S
Eu943 O958 2.479 . S
Eu943 O959 2.471 . S
Eu943 O960 2.347 . S
Eu943 O963 2.366 . S
Eu943 C973 2.825 . S
C944 O960 1.259 . S
C944 O961 1.265 . S
C945 O962 1.255 . S
C945 O963 1.265 . S
C946 C948 1.380 . S
C946 C949 1.374 . S
C946 C952 1.507 . S
C947 C948 1.384 . S
C947 C951 1.387 . S
C947 H974 0.930 . S
C948 C946 1.380 . S
C948 C947 1.384 . S
C948 H975 0.931 . S
C949 C946 1.374 . S
C949 C950 1.390 . S
C949 H976 0.930 . S
C950 C949 1.390 . S
C950 C951 1.391 . S
C950 H977 0.930 . S
C951 C947 1.387 . S
C951 C950 1.391 . S
C952 Tb942 2.825 . S
C952 C946 1.507 . S
C952 O965 1.238 . S
C952 O966 1.247 . S
O953 Tb942 2.347 . S
O953 C957 1.259 . S
O954 Eu943 2.418 . S
O954 C957 1.265 . S
O955 Eu943 2.384 . S
O955 C964 1.255 . S
O956 Tb942 2.366 . S
O956 C964 1.265 . S
C957 O953 1.259 . S
C957 O954 1.265 . S
O958 Eu943 2.479 . S
O958 C973 1.238 . S
O959 Eu943 2.471 . S
O959 C973 1.247 . S
O960 Eu943 2.347 . S
O960 C944 1.259 . S
O961 Tb942 2.418 . S
O961 C944 1.265 . S
O962 Tb942 2.384 . S
O962 C945 1.255 . S
O963 Eu943 2.366 . S
O963 C945 1.265 . S
C964 O955 1.255 . S
C964 O956 1.265 . S
O965 Tb942 2.479 . S
O965 C952 1.238 . S
O966 Tb942 2.471 . S
O966 C952 1.247 . S
C967 C970 1.380 . S
C967 C971 1.374 . S
C967 C973 1.507 . S
C968 C969 1.387 . S
C968 C972 1.391 . S
C969 C968 1.387 . S
C969 C970 1.384 . S
C969 H978 0.930 . S
C970 C967 1.380 . S
C970 C969 1.384 . S
C970 H979 0.931 . S
C971 C967 1.374 . S
C971 C972 1.390 . S
C971 H980 0.930 . S
C972 C968 1.391 . S
C972 C971 1.390 . S
C972 H981 0.930 . S
C973 Eu943 2.825 . S
C973 O958 1.238 . S
C973 O959 1.247 . S
C973 C967 1.507 . S
H974 C947 0.930 . S
H975 C948 0.931 . S
H976 C949 0.930 . S
H977 C950 0.930 . S
H978 C969 0.930 . S
H979 C970 0.931 . S
H980 C971 0.930 . S
H981 C972 0.930 . S
Tb982 C992 2.825 . S
Tb982 O993 2.347 . S
Tb982 O996 2.366 . S
Tb982 O1001 2.418 . S
Tb982 O1002 2.384 . S
Tb982 O1005 2.479 . S
Tb982 O1006 2.471 . S
Eu983 O994 2.418 . S
Eu983 O995 2.384 . S
Eu983 O998 2.479 . S
Eu983 O999 2.471 . S
Eu983 O1000 2.347 . S
Eu983 O1003 2.366 . S
Eu983 C1013 2.825 . S
C984 O1000 1.259 . S
C984 O1001 1.265 . S
C985 O1002 1.255 . S
C985 O1003 1.265 . S
C986 C988 1.380 . S
C986 C989 1.374 . S
C986 C992 1.507 . S
C987 C988 1.384 . S
C987 C991 1.387 . S
C987 H1014 0.930 . S
C988 C986 1.380 . S
C988 C987 1.384 . S
C988 H1015 0.931 . S
C989 C986 1.374 . S
C989 C990 1.390 . S
C989 H1016 0.930 . S
C990 C989 1.390 . S
C990 C991 1.391 . S
C990 H1017 0.930 . S
C991 C987 1.387 . S
C991 C990 1.391 . S
C992 Tb982 2.825 . S
C992 C986 1.507 . S
C992 O1005 1.238 . S
C992 O1006 1.247 . S
O993 Tb982 2.347 . S
O993 C997 1.259 . S
O994 Eu983 2.418 . S
O994 C997 1.265 . S
O995 Eu983 2.384 . S
O995 C1004 1.255 . S
O996 Tb982 2.366 . S
O996 C1004 1.265 . S
C997 O993 1.259 . S
C997 O994 1.265 . S
O998 Eu983 2.479 . S
O998 C1013 1.238 . S
O999 Eu983 2.471 . S
O999 C1013 1.247 . S
O1000 Eu983 2.347 . S
O1000 C984 1.259 . S
O1001 Tb982 2.418 . S
O1001 C984 1.265 . S
O1002 Tb982 2.384 . S
O1002 C985 1.255 . S
O1003 Eu983 2.366 . S
O1003 C985 1.265 . S
C1004 O995 1.255 . S
C1004 O996 1.265 . S
O1005 Tb982 2.479 . S
O1005 C992 1.238 . S
O1006 Tb982 2.471 . S
O1006 C992 1.247 . S
C1007 C1010 1.380 . S
C1007 C1011 1.374 . S
C1007 C1013 1.507 . S
C1008 C1009 1.387 . S
C1008 C1012 1.391 . S
C1009 C1008 1.387 . S
C1009 C1010 1.384 . S
C1009 H1018 0.930 . S
C1010 C1007 1.380 . S
C1010 C1009 1.384 . S
C1010 H1019 0.931 . S
C1011 C1007 1.374 . S
C1011 C1012 1.390 . S
C1011 H1020 0.930 . S
C1012 C1008 1.391 . S
C1012 C1011 1.390 . S
C1012 H1021 0.930 . S
C1013 Eu983 2.825 . S
C1013 O998 1.238 . S
C1013 O999 1.247 . S
C1013 C1007 1.507 . S
H1014 C987 0.930 . S
H1015 C988 0.931 . S
H1016 C989 0.930 . S
H1017 C990 0.930 . S
H1018 C1009 0.930 . S
H1019 C1010 0.931 . S
H1020 C1011 0.930 . S
H1021 C1012 0.930 . S
Tb1022 C1032 2.825 . S
Tb1022 O1033 2.347 . S
Tb1022 O1036 2.366 . S
Tb1022 O1041 2.418 . S
Tb1022 O1042 2.384 . S
Tb1022 O1045 2.479 . S
Tb1022 O1046 2.471 . S
Eu1023 O1034 2.418 . S
Eu1023 O1035 2.384 . S
Eu1023 O1038 2.479 . S
Eu1023 O1039 2.471 . S
Eu1023 O1040 2.347 . S
Eu1023 O1043 2.366 . S
Eu1023 C1053 2.825 . S
C1024 O1040 1.259 . S
C1024 O1041 1.265 . S
C1025 O1042 1.255 . S
C1025 O1043 1.265 . S
C1026 C1028 1.380 . S
C1026 C1029 1.374 . S
C1026 C1032 1.507 . S
C1027 C1028 1.384 . S
C1027 C1031 1.387 . S
C1027 H1054 0.930 . S
C1028 C1026 1.380 . S
C1028 C1027 1.384 . S
C1028 H1055 0.931 . S
C1029 C1026 1.374 . S
C1029 C1030 1.390 . S
C1029 H1056 0.930 . S
C1030 C1029 1.390 . S
C1030 C1031 1.391 . S
C1030 H1057 0.930 . S
C1031 C1027 1.387 . S
C1031 C1030 1.391 . S
C1032 Tb1022 2.825 . S
C1032 C1026 1.507 . S
C1032 O1045 1.238 . S
C1032 O1046 1.247 . S
O1033 Tb1022 2.347 . S
O1033 C1037 1.259 . S
O1034 Eu1023 2.418 . S
O1034 C1037 1.265 . S
O1035 Eu1023 2.384 . S
O1035 C1044 1.255 . S
O1036 Tb1022 2.366 . S
O1036 C1044 1.265 . S
C1037 O1033 1.259 . S
C1037 O1034 1.265 . S
O1038 Eu1023 2.479 . S
O1038 C1053 1.238 . S
O1039 Eu1023 2.471 . S
O1039 C1053 1.247 . S
O1040 Eu1023 2.347 . S
O1040 C1024 1.259 . S
O1041 Tb1022 2.418 . S
O1041 C1024 1.265 . S
O1042 Tb1022 2.384 . S
O1042 C1025 1.255 . S
O1043 Eu1023 2.366 . S
O1043 C1025 1.265 . S
C1044 O1035 1.255 . S
C1044 O1036 1.265 . S
O1045 Tb1022 2.479 . S
O1045 C1032 1.238 . S
O1046 Tb1022 2.471 . S
O1046 C1032 1.247 . S
C1047 C1050 1.380 . S
C1047 C1051 1.374 . S
C1047 C1053 1.507 . S
C1048 C1049 1.387 . S
C1048 C1052 1.391 . S
C1049 C1048 1.387 . S
C1049 C1050 1.384 . S
C1049 H1058 0.930 . S
C1050 C1047 1.380 . S
C1050 C1049 1.384 . S
C1050 H1059 0.931 . S
C1051 C1047 1.374 . S
C1051 C1052 1.390 . S
C1051 H1060 0.930 . S
C1052 C1048 1.391 . S
C1052 C1051 1.390 . S
C1052 H1061 0.930 . S
C1053 Eu1023 2.825 . S
C1053 O1038 1.238 . S
C1053 O1039 1.247 . S
C1053 C1047 1.507 . S
H1054 C1027 0.930 . S
H1055 C1028 0.931 . S
H1056 C1029 0.930 . S
H1057 C1030 0.930 . S
H1058 C1049 0.930 . S
H1059 C1050 0.931 . S
H1060 C1051 0.930 . S
H1061 C1052 0.930 . S
C1062 C1063 1.369 . S
C1062 C1064 1.419 . S
C1062 H1066 0.930 . S
C1063 C1062 1.369 . S
C1063 C1072 1.429 . S
C1064 C1062 1.419 . S
C1064 C1065 1.363 . S
C1064 H1067 0.929 . S
C1065 C1064 1.363 . S
C1065 C1071 1.428 . S
H1066 C1062 0.930 . S
H1067 C1064 0.929 . S
S1068 N1069 1.613 . S
S1068 N1070 1.610 . S
N1069 S1068 1.613 . S
N1069 C1072 1.350 . S
N1070 S1068 1.610 . S
N1070 C1071 1.351 . S
C1071 C1065 1.428 . S
C1071 N1070 1.351 . S
C1071 C1072 1.434 . S
C1072 C1063 1.429 . S
C1072 N1069 1.350 . S
C1072 C1071 1.434 . S
C1073 C1074 1.369 . S
C1073 C1075 1.419 . S
C1073 H1077 0.930 . S
C1074 C1073 1.369 . S
C1074 C1083 1.429 . S
C1075 C1073 1.419 . S
C1075 C1076 1.363 . S
C1075 H1078 0.929 . S
C1076 C1075 1.363 . S
C1076 C1082 1.428 . S
H1077 C1073 0.930 . S
H1078 C1075 0.929 . S
S1079 N1080 1.613 . S
S1079 N1081 1.610 . S
N1080 S1079 1.613 . S
N1080 C1083 1.350 . S
N1081 S1079 1.610 . S
N1081 C1082 1.351 . S
C1082 C1076 1.428 . S
C1082 N1081 1.351 . S
C1082 C1083 1.434 . S
C1083 C1074 1.429 . S
C1083 N1080 1.350 . S
C1083 C1082 1.434 . S
C1084 C1085 1.369 . S
C1084 C1086 1.417 . S
C1084 H1088 0.930 1_554 S
C1085 C1084 1.369 . S
C1085 C1094 1.429 . S
C1086 C1084 1.417 . S
C1086 C1087 1.395 . S
C1086 H1089 0.898 1_554 S
C1087 C1086 1.395 . S
C1087 C1093 1.428 . S
H1088 C1084 0.930 1_556 S
H1089 C1086 0.898 1_556 S
S1090 N1091 1.613 . S
S1090 N1092 1.610 . S
N1091 S1090 1.613 . S
N1091 C1094 1.350 . S
N1092 S1090 1.610 . S
N1092 C1093 1.351 . S
C1093 C1087 1.428 . S
C1093 N1092 1.351 . S
C1093 C1094 1.434 . S
C1094 C1085 1.429 . S
C1094 N1091 1.350 . S
C1094 C1093 1.434 . S
C1095 C1096 1.369 . S
C1095 C1097 1.419 . S
C1095 H1099 0.930 . S
C1096 C1095 1.369 . S
C1096 C1105 1.429 . S
C1097 C1095 1.419 . S
C1097 C1098 1.363 . S
C1097 H1100 0.929 . S
C1098 C1097 1.363 . S
C1098 C1104 1.428 . S
H1099 C1095 0.930 . S
H1100 C1097 0.929 . S
S1101 N1102 1.613 . S
S1101 N1103 1.610 . S
N1102 S1101 1.613 . S
N1102 C1105 1.350 . S
N1103 S1101 1.610 . S
N1103 C1104 1.351 . S
C1104 C1098 1.428 . S
C1104 N1103 1.351 . S
C1104 C1105 1.434 . S
C1105 C1096 1.429 . S
C1105 N1102 1.350 . S
C1105 C1104 1.434 . S
C1106 C1107 1.369 . S
C1106 C1108 1.419 . S
C1106 H1110 0.930 . S
C1107 C1106 1.369 . S
C1107 C1116 1.429 . S
C1108 C1106 1.419 . S
C1108 C1109 1.363 . S
C1108 H1111 0.929 . S
C1109 C1108 1.363 . S
C1109 C1115 1.428 . S
H1110 C1106 0.930 . S
H1111 C1108 0.929 . S
S1112 N1113 1.613 . S
S1112 N1114 1.610 . S
N1113 S1112 1.613 . S
N1113 C1116 1.350 . S
N1114 S1112 1.610 . S
N1114 C1115 1.351 . S
C1115 C1109 1.428 . S
C1115 N1114 1.351 . S
C1115 C1116 1.434 . S
C1116 C1107 1.429 . S
C1116 N1113 1.350 . S
C1116 C1115 1.434 . S
C1117 C1118 1.369 . S
C1117 C1119 1.419 . S
C1117 H1121 0.930 . S
C1118 C1117 1.369 . S
C1118 C1127 1.402 1_556 S
C1119 C1117 1.419 . S
C1119 C1120 1.363 . S
C1119 H1122 0.929 . S
C1120 C1119 1.363 . S
C1120 C1126 1.428 1_556 S
H1121 C1117 0.930 . S
H1122 C1119 0.929 . S
S1123 N1124 1.613 . S
S1123 N1125 1.610 . S
N1124 S1123 1.613 . S
N1124 C1127 1.375 . S
N1125 S1123 1.610 . S
N1125 C1126 1.351 . S
C1126 C1120 1.428 1_554 S
C1126 N1125 1.351 . S
C1126 C1127 1.438 . S
C1127 C1118 1.402 1_554 S
C1127 N1124 1.375 . S
C1127 C1126 1.438 . S
C1128 C1129 1.369 . S
C1128 C1130 1.419 . S
C1128 H1132 0.975 . S
C1129 C1128 1.369 . S
C1129 C1138 1.429 . S
C1130 C1128 1.419 . S
C1130 C1131 1.363 . S
C1130 H1133 0.929 1_556 S
C1131 C1130 1.363 . S
C1131 C1137 1.428 . S
H1132 C1128 0.975 . S
H1133 C1130 0.929 1_554 S
S1134 N1135 1.613 . S
S1134 N1136 1.610 . S
N1135 S1134 1.613 . S
N1135 C1138 1.350 . S
N1136 S1134 1.610 . S
N1136 C1137 1.351 . S
C1137 C1131 1.428 . S
C1137 N1136 1.351 . S
C1137 C1138 1.434 . S
C1138 C1129 1.429 . S
C1138 N1135 1.350 . S
C1138 C1137 1.434 . S
C1139 C1140 1.369 . S
C1139 C1141 1.419 . S
C1139 H1143 0.930 . S
C1140 C1139 1.369 . S
C1140 C1149 1.429 . S
C1141 C1139 1.419 . S
C1141 C1142 1.363 . S
C1141 H1144 0.929 . S
C1142 C1141 1.363 . S
C1142 C1148 1.428 . S
H1143 C1139 0.930 . S
H1144 C1141 0.929 . S
S1145 N1146 1.613 . S
S1145 N1147 1.610 . S
N1146 S1145 1.613 . S
N1146 C1149 1.350 . S
N1147 S1145 1.610 . S
N1147 C1148 1.351 . S
C1148 C1142 1.428 . S
C1148 N1147 1.351 . S
C1148 C1149 1.434 . S
C1149 C1140 1.429 . S
C1149 N1146 1.350 . S
C1149 C1148 1.434 . S
C1150 C1151 1.369 . S
C1150 C1152 1.419 . S
C1150 H1154 0.930 . S
C1151 C1150 1.369 . S
C1151 C1160 1.429 . S
C1152 C1150 1.419 . S
C1152 C1153 1.363 . S
C1152 H1155 0.929 . S
C1153 C1152 1.363 . S
C1153 C1159 1.428 . S
H1154 C1150 0.930 . S
H1155 C1152 0.929 . S
S1156 N1157 1.613 . S
S1156 N1158 1.610 . S
N1157 S1156 1.613 . S
N1157 C1160 1.350 . S
N1158 S1156 1.610 . S
N1158 C1159 1.351 . S
C1159 C1153 1.428 . S
C1159 N1158 1.351 . S
C1159 C1160 1.434 . S
C1160 C1151 1.429 . S
C1160 N1157 1.350 . S
C1160 C1159 1.434 . S
C1161 C1162 1.369 . S
C1161 C1163 1.419 . S
C1161 H1165 0.930 . S
C1162 C1161 1.369 . S
C1162 C1171 1.429 . S
C1163 C1161 1.419 . S
C1163 C1164 1.363 . S
C1163 H1166 0.929 . S
C1164 C1163 1.363 . S
C1164 C1170 1.428 . S
H1165 C1161 0.930 . S
H1166 C1163 0.929 . S
S1167 N1168 1.613 1_556 S
S1167 N1169 1.610 1_556 S
N1168 S1167 1.613 1_554 S
N1168 C1171 1.350 . S
N1169 S1167 1.610 1_554 S
N1169 C1170 1.351 . S
C1170 C1164 1.428 . S
C1170 N1169 1.351 . S
C1170 C1171 1.434 . S
C1171 C1162 1.429 . S
C1171 N1168 1.350 . S
C1171 C1170 1.434 . S
C1172 C1173 1.369 . S
C1172 C1174 1.419 . S
C1172 H1176 0.930 . S
C1173 C1172 1.369 . S
C1173 C1182 1.429 . S
C1174 C1172 1.419 . S
C1174 C1175 1.363 . S
C1174 H1177 0.929 . S
C1175 C1174 1.363 . S
C1175 C1181 1.428 . S
H1176 C1172 0.930 . S
H1177 C1174 0.929 . S
S1178 N1179 1.613 . S
S1178 N1180 1.610 . S
N1179 S1178 1.613 . S
N1179 C1182 1.350 . S
N1180 S1178 1.610 . S
N1180 C1181 1.351 . S
C1181 C1175 1.428 . S
C1181 N1180 1.351 . S
C1181 C1182 1.434 . S
C1182 C1173 1.429 . S
C1182 N1179 1.350 . S
C1182 C1181 1.434 . S
C1183 C1184 1.369 . S
C1183 C1185 1.419 . S
C1183 H1187 0.930 . S
C1184 C1183 1.369 . S
C1184 C1193 1.429 . S
C1185 C1183 1.419 . S
C1185 C1186 1.363 . S
C1185 H1188 0.929 . S
C1186 C1185 1.363 . S
C1186 C1192 1.428 . S
H1187 C1183 0.930 . S
H1188 C1185 0.929 . S
S1189 N1190 1.613 . S
S1189 N1191 1.610 . S
N1190 S1189 1.613 . S
N1190 C1193 1.350 1_556 S
N1191 S1189 1.610 . S
N1191 C1192 1.351 1_556 S
C1192 C1186 1.428 . S
C1192 N1191 1.351 1_554 S
C1192 C1193 1.434 . S
C1193 C1184 1.429 . S
C1193 N1190 1.350 1_554 S
C1193 C1192 1.434 . S
C1194 C1195 1.369 . S
C1194 C1196 1.419 . S
C1194 H1198 0.930 1_455 S
C1195 C1194 1.369 . S
C1195 C1204 1.429 . S
C1196 C1194 1.419 . S
C1196 C1197 1.363 . S
C1196 H1199 0.929 . S
C1197 C1196 1.363 . S
C1197 C1203 1.428 . S
H1198 C1194 0.930 1_655 S
H1199 C1196 0.929 . S
S1200 N1201 1.613 . S
S1200 N1202 1.610 . S
N1201 S1200 1.613 . S
N1201 C1204 1.350 . S
N1202 S1200 1.610 . S
N1202 C1203 1.351 . S
C1203 C1197 1.428 . S
C1203 N1202 1.351 . S
C1203 C1204 1.434 . S
C1204 C1195 1.429 . S
C1204 N1201 1.350 . S
C1204 C1203 1.434 . S
C1205 C1206 1.369 . S
C1205 C1207 1.419 . S
C1205 H1209 0.930 . S
C1206 C1205 1.369 . S
C1206 C1215 1.429 . S
C1207 C1205 1.419 . S
C1207 C1208 1.363 . S
C1207 H1210 0.929 . S
C1208 C1207 1.363 . S
C1208 C1214 1.428 . S
H1209 C1205 0.930 . S
H1210 C1207 0.929 . S
S1211 N1212 1.613 . S
S1211 N1213 1.610 . S
N1212 S1211 1.613 . S
N1212 C1215 1.350 . S
N1213 S1211 1.610 . S
N1213 C1214 1.351 . S
C1214 C1208 1.428 . S
C1214 N1213 1.351 . S
C1214 C1215 1.434 . S
C1215 C1206 1.429 . S
C1215 N1212 1.350 . S
C1215 C1214 1.434 . S
C1216 C1217 1.369 1_565 S
C1216 C1218 1.419 . S
C1216 H1220 0.930 . S
C1217 C1216 1.369 1_545 S
C1217 C1226 1.429 1_545 S
C1218 C1216 1.419 . S
C1218 C1219 1.363 . S
C1218 H1221 0.929 . S
C1219 C1218 1.363 . S
C1219 C1225 1.428 . S
H1220 C1216 0.930 . S
H1221 C1218 0.929 . S
S1222 N1223 1.613 1_565 S
S1222 N1224 1.610 . S
N1223 S1222 1.613 1_545 S
N1223 C1226 1.350 1_545 S
N1224 S1222 1.610 . S
N1224 C1225 1.351 . S
C1225 C1219 1.428 . S
C1225 N1224 1.351 . S
C1225 C1226 1.434 . S
C1226 C1217 1.429 1_565 S
C1226 N1223 1.350 1_565 S
C1226 C1225 1.434 . S
C1227 C1228 1.369 . S
C1227 C1229 1.419 . S
C1227 H1231 0.930 . S
C1228 C1227 1.369 . S
C1228 C1237 1.429 . S
C1229 C1227 1.419 . S
C1229 C1230 1.363 . S
C1229 H1232 0.929 . S
C1230 C1229 1.363 . S
C1230 C1236 1.428 . S
H1231 C1227 0.930 . S
H1232 C1229 0.929 . S
S1233 N1234 1.613 . S
S1233 N1235 1.610 . S
N1234 S1233 1.613 . S
N1234 C1237 1.350 . S
N1235 S1233 1.610 . S
N1235 C1236 1.351 . S
C1236 C1230 1.428 . S
C1236 N1235 1.351 . S
C1236 C1237 1.434 . S
C1237 C1228 1.429 . S
C1237 N1234 1.350 . S
C1237 C1236 1.434 . S
C1238 C1239 1.369 . S
C1238 C1240 1.419 . S
C1238 H1242 0.930 . S
C1239 C1238 1.369 . S
C1239 C1248 1.429 . S
C1240 C1238 1.419 . S
C1240 C1241 1.363 . S
C1240 H1243 0.929 . S
C1241 C1240 1.363 . S
C1241 C1247 1.428 . S
H1242 C1238 0.930 . S
H1243 C1240 0.929 . S
S1244 N1245 1.613 . S
S1244 N1246 1.610 . S
N1245 S1244 1.613 . S
N1245 C1248 1.350 . S
N1246 S1244 1.610 . S
N1246 C1247 1.351 . S
C1247 C1241 1.428 . S
C1247 N1246 1.351 . S
C1247 C1248 1.434 . S
C1248 C1239 1.429 . S
C1248 N1245 1.350 . S
C1248 C1247 1.434 . S
C1249 C1250 1.369 . S
C1249 C1251 1.419 . S
C1249 H1253 0.930 . S
C1250 C1249 1.369 . S
C1250 C1259 1.429 . S
C1251 C1249 1.419 . S
C1251 C1252 1.363 . S
C1251 H1254 0.929 . S
C1252 C1251 1.363 . S
C1252 C1258 1.428 . S
H1253 C1249 0.930 . S
H1254 C1251 0.929 . S
S1255 N1256 1.613 . S
S1255 N1257 1.610 . S
N1256 S1255 1.613 . S
N1256 C1259 1.350 . S
N1257 S1255 1.610 . S
N1257 C1258 1.351 . S
C1258 C1252 1.428 . S
C1258 N1257 1.351 . S
C1258 C1259 1.434 . S
C1259 C1250 1.429 . S
C1259 N1256 1.350 . S
C1259 C1258 1.434 . S
C1260 C1261 1.369 . S
C1260 C1262 1.419 . S
C1260 H1264 0.930 . S
C1261 C1260 1.369 . S
C1261 C1270 1.429 . S
C1262 C1260 1.419 . S
C1262 C1263 1.363 . S
C1262 H1265 0.929 . S
C1263 C1262 1.363 . S
C1263 C1269 1.428 . S
H1264 C1260 0.930 . S
H1265 C1262 0.929 . S
S1266 N1267 1.613 . S
S1266 N1268 1.610 . S
N1267 S1266 1.613 . S
N1267 C1270 1.350 . S
N1268 S1266 1.610 . S
N1268 C1269 1.351 . S
C1269 C1263 1.428 . S
C1269 N1268 1.351 . S
C1269 C1270 1.434 . S
C1270 C1261 1.429 . S
C1270 N1267 1.350 . S
C1270 C1269 1.434 . S
C1271 C1272 1.369 . S
C1271 C1273 1.419 . S
C1271 H1275 0.930 . S
C1272 C1271 1.369 . S
C1272 C1281 1.429 . S
C1273 C1271 1.419 . S
C1273 C1274 1.363 . S
C1273 H1276 0.929 . S
C1274 C1273 1.363 . S
C1274 C1280 1.428 . S
H1275 C1271 0.930 . S
H1276 C1273 0.929 . S
S1277 N1278 1.613 . S
S1277 N1279 1.610 . S
N1278 S1277 1.613 . S
N1278 C1281 1.350 . S
N1279 S1277 1.610 . S
N1279 C1280 1.351 . S
C1280 C1274 1.428 . S
C1280 N1279 1.351 . S
C1280 C1281 1.434 . S
C1281 C1272 1.429 . S
C1281 N1278 1.350 . S
C1281 C1280 1.434 . S
C1282 C1283 1.369 . S
C1282 C1284 1.419 . S
C1282 H1286 0.930 . S
C1283 C1282 1.369 . S
C1283 C1292 1.429 . S
C1284 C1282 1.419 . S
C1284 C1285 1.363 . S
C1284 H1287 0.929 . S
C1285 C1284 1.363 . S
C1285 C1291 1.428 . S
H1286 C1282 0.930 . S
H1287 C1284 0.929 . S
S1288 N1289 1.613 . S
S1288 N1290 1.610 . S
N1289 S1288 1.613 . S
N1289 C1292 1.350 . S
N1290 S1288 1.610 . S
N1290 C1291 1.351 . S
C1291 C1285 1.428 . S
C1291 N1290 1.351 . S
C1291 C1292 1.434 . S
C1292 C1283 1.429 . S
C1292 N1289 1.350 . S
C1292 C1291 1.434 . S
C1293 C1294 1.370 . S
C1293 C1295 1.419 . S
C1293 H1297 0.930 . S
C1294 C1293 1.370 . S
C1294 C1303 1.429 . S
C1295 C1293 1.419 . S
C1295 C1296 1.363 . S
C1295 H1298 0.929 . S
C1296 C1295 1.363 . S
C1296 C1302 1.428 . S
H1297 C1293 0.930 . S
H1298 C1295 0.929 . S
S1299 N1300 1.613 . S
S1299 N1301 1.610 . S
N1300 S1299 1.613 . S
N1300 C1303 1.350 . S
N1301 S1299 1.610 . S
N1301 C1302 1.351 . S
C1302 C1296 1.428 . S
C1302 N1301 1.351 . S
C1302 C1303 1.434 . S
C1303 C1294 1.429 . S
C1303 N1300 1.350 . S
C1303 C1302 1.434 . S
C1304 C1305 1.369 . S
C1304 C1306 1.419 . S
C1304 H1308 0.930 . S
C1305 C1304 1.369 . S
C1305 C1314 1.429 . S
C1306 C1304 1.419 . S
C1306 C1307 1.363 . S
C1306 H1309 0.929 . S
C1307 C1306 1.363 . S
C1307 C1313 1.428 . S
H1308 C1304 0.930 . S
H1309 C1306 0.929 . S
S1310 N1311 1.617 . S
S1310 N1312 1.610 . S
N1311 S1310 1.617 . S
N1311 C1314 1.373 . S
N1312 S1310 1.610 . S
N1312 C1313 1.351 . S
C1313 C1307 1.428 . S
C1313 N1312 1.351 . S
C1313 C1314 1.434 . S
C1314 C1305 1.429 . S
C1314 N1311 1.373 . S
C1314 C1313 1.434 . S
C1315 C1316 1.369 . S
C1315 C1317 1.419 . S
C1315 H1319 0.930 . S
C1316 C1315 1.369 . S
C1316 C1325 1.429 . S
C1317 C1315 1.419 . S
C1317 C1318 1.363 . S
C1317 H1320 0.929 . S
C1318 C1317 1.363 . S
C1318 C1324 1.428 . S
H1319 C1315 0.930 . S
H1320 C1317 0.929 . S
S1321 N1322 1.613 . S
S1321 N1323 1.610 . S
N1322 S1321 1.613 . S
N1322 C1325 1.350 . S
N1323 S1321 1.610 . S
N1323 C1324 1.351 . S
C1324 C1318 1.428 . S
C1324 N1323 1.351 . S
C1324 C1325 1.434 . S
C1325 C1316 1.429 . S
C1325 N1322 1.350 . S
C1325 C1324 1.434 . S
C1326 C1327 1.369 . S
C1326 C1328 1.419 . S
C1326 H1330 0.930 . S
C1327 C1326 1.369 . S
C1327 C1336 1.429 . S
C1328 C1326 1.419 . S
C1328 C1329 1.363 . S
C1328 H1331 0.929 . S
C1329 C1328 1.363 . S
C1329 C1335 1.428 . S
H1330 C1326 0.930 . S
H1331 C1328 0.929 . S
S1332 N1333 1.613 . S
S1332 N1334 1.610 . S
N1333 S1332 1.613 . S
N1333 C1336 1.350 . S
N1334 S1332 1.610 . S
N1334 C1335 1.351 . S
C1335 C1329 1.428 . S
C1335 N1334 1.351 . S
C1335 C1336 1.434 . S
C1336 C1327 1.429 . S
C1336 N1333 1.350 . S
C1336 C1335 1.434 . S
C1337 C1338 1.369 . S
C1337 C1339 1.419 . S
C1337 H1341 0.930 . S
C1338 C1337 1.369 . S
C1338 C1347 1.429 . S
C1339 C1337 1.419 . S
C1339 C1340 1.363 . S
C1339 H1342 0.929 . S
C1340 C1339 1.363 . S
C1340 C1346 1.428 . S
H1341 C1337 0.930 . S
H1342 C1339 0.929 . S
S1343 N1344 1.613 . S
S1343 N1345 1.610 . S
N1344 S1343 1.613 . S
N1344 C1347 1.350 . S
N1345 S1343 1.610 . S
N1345 C1346 1.351 . S
C1346 C1340 1.428 . S
C1346 N1345 1.351 . S
C1346 C1347 1.434 . S
C1347 C1338 1.429 . S
C1347 N1344 1.350 . S
C1347 C1346 1.434 . S
C1348 C1349 1.369 . S
C1348 C1350 1.419 . S
C1348 H1352 0.930 . S
C1349 C1348 1.369 . S
C1349 C1358 1.429 . S
C1350 C1348 1.419 . S
C1350 C1351 1.363 . S
C1350 H1353 0.929 . S
C1351 C1350 1.363 . S
C1351 C1357 1.428 . S
H1352 C1348 0.930 . S
H1353 C1350 0.929 . S
S1354 N1355 1.613 . S
S1354 N1356 1.610 . S
N1355 S1354 1.613 . S
N1355 C1358 1.350 . S
N1356 S1354 1.610 . S
N1356 C1357 1.351 . S
C1357 C1351 1.428 . S
C1357 N1356 1.351 . S
C1357 C1358 1.434 . S
C1358 C1349 1.429 . S
C1358 N1355 1.350 . S
C1358 C1357 1.434 . S
C1359 C1360 1.373 . S
C1359 C1361 1.419 . S
C1359 H1363 0.930 . S
C1360 C1359 1.373 . S
C1360 C1369 1.436 . S
C1361 C1359 1.419 . S
C1361 C1362 1.363 . S
C1361 H1364 0.929 . S
C1362 C1361 1.363 . S
C1362 C1368 1.428 . S
H1363 C1359 0.930 . S
H1364 C1361 0.929 . S
S1365 N1366 1.613 . S
S1365 N1367 1.610 . S
N1366 S1365 1.613 . S
N1366 C1369 1.350 . S
N1367 S1365 1.610 . S
N1367 C1368 1.351 . S
C1368 C1362 1.428 . S
C1368 N1367 1.351 . S
C1368 C1369 1.434 . S
C1369 C1360 1.436 . S
C1369 N1366 1.350 . S
C1369 C1368 1.434 . S
C1370 C1371 1.369 . S
C1370 C1372 1.419 . S
C1370 H1374 0.930 . S
C1371 C1370 1.369 . S
C1371 C1380 1.429 . S
C1372 C1370 1.419 . S
C1372 C1373 1.363 . S
C1372 H1375 0.929 . S
C1373 C1372 1.363 . S
C1373 C1379 1.428 . S
H1374 C1370 0.930 . S
H1375 C1372 0.929 . S
S1376 N1377 1.619 . S
S1376 N1378 1.610 . S
N1377 S1376 1.619 . S
N1377 C1380 1.384 . S
N1378 S1376 1.610 . S
N1378 C1379 1.351 . S
C1379 C1373 1.428 . S
C1379 N1378 1.351 . S
C1379 C1380 1.434 . S
C1380 C1371 1.429 . S
C1380 N1377 1.384 . S
C1380 C1379 1.434 . S
C1381 C1382 1.369 . S
C1381 C1383 1.419 . S
C1381 H1385 0.930 . S
C1382 C1381 1.369 . S
C1382 C1391 1.429 . S
C1383 C1381 1.419 . S
C1383 C1384 1.363 . S
C1383 H1386 0.929 . S
C1384 C1383 1.363 . S
C1384 C1390 1.428 . S
H1385 C1381 0.930 . S
H1386 C1383 0.929 . S
S1387 N1388 1.613 . S
S1387 N1389 1.610 . S
N1388 S1387 1.613 . S
N1388 C1391 1.350 . S
N1389 S1387 1.610 . S
N1389 C1390 1.351 . S
C1390 C1384 1.428 . S
C1390 N1389 1.351 . S
C1390 C1391 1.434 . S
C1391 C1382 1.429 . S
C1391 N1388 1.350 . S
C1391 C1390 1.434 . S
C1392 C1393 1.369 . S
C1392 C1394 1.419 . S
C1392 H1396 0.930 . S
C1393 C1392 1.369 . S
C1393 C1402 1.429 . S
C1394 C1392 1.419 . S
C1394 C1395 1.363 . S
C1394 H1397 0.929 . S
C1395 C1394 1.363 . S
C1395 C1401 1.428 . S
H1396 C1392 0.930 . S
H1397 C1394 0.929 . S
S1398 N1399 1.613 . S
S1398 N1400 1.610 . S
N1399 S1398 1.613 . S
N1399 C1402 1.350 . S
N1400 S1398 1.610 . S
N1400 C1401 1.351 . S
C1401 C1395 1.428 . S
C1401 N1400 1.351 . S
C1401 C1402 1.434 . S
C1402 C1393 1.429 . S
C1402 N1399 1.350 . S
C1402 C1401 1.434 . S
C1403 C1404 1.369 . S
C1403 C1405 1.419 . S
C1403 H1407 0.930 . S
C1404 C1403 1.369 . S
C1404 C1413 1.429 . S
C1405 C1403 1.419 . S
C1405 C1406 1.363 . S
C1405 H1408 0.929 . S
C1406 C1405 1.363 . S
C1406 C1412 1.428 . S
H1407 C1403 0.930 . S
H1408 C1405 0.929 . S
S1409 N1410 1.613 . S
S1409 N1411 1.610 . S
N1410 S1409 1.613 . S
N1410 C1413 1.350 . S
N1411 S1409 1.610 . S
N1411 C1412 1.351 . S
C1412 C1406 1.428 . S
C1412 N1411 1.351 . S
C1412 C1413 1.434 . S
C1413 C1404 1.429 . S
C1413 N1410 1.350 . S
C1413 C1412 1.434 . S
C1414 C1415 1.369 1_545 S
C1414 C1416 1.419 . S
C1414 H1418 0.948 . S
C1415 C1414 1.369 1_565 S
C1415 C1424 1.429 1_565 S
C1416 C1414 1.419 . S
C1416 C1417 1.363 . S
C1416 H1419 0.929 . S
C1417 C1416 1.363 . S
C1417 C1423 1.428 . S
H1418 C1414 0.948 . S
H1419 C1416 0.929 . S
S1420 N1421 1.613 . S
S1420 N1422 1.610 . S
N1421 S1420 1.613 . S
N1421 C1424 1.350 . S
N1422 S1420 1.610 . S
N1422 C1423 1.351 . S
C1423 C1417 1.428 . S
C1423 N1422 1.351 . S
C1423 C1424 1.434 . S
C1424 C1415 1.429 1_545 S
C1424 N1421 1.350 . S
C1424 C1423 1.434 . S
C1425 C1426 1.369 . S
C1425 C1427 1.419 . S
C1425 H1429 0.930 . S
C1426 C1425 1.369 . S
C1426 C1435 1.429 . S
C1427 C1425 1.419 . S
C1427 C1428 1.363 . S
C1427 H1430 0.929 . S
C1428 C1427 1.363 . S
C1428 C1434 1.428 . S
H1429 C1425 0.930 . S
H1430 C1427 0.929 . S
S1431 N1432 1.613 . S
S1431 N1433 1.610 . S
N1432 S1431 1.613 . S
N1432 C1435 1.350 . S
N1433 S1431 1.610 . S
N1433 C1434 1.351 . S
C1434 C1428 1.428 . S
C1434 N1433 1.351 . S
C1434 C1435 1.434 . S
C1435 C1426 1.429 . S
C1435 N1432 1.350 . S
C1435 C1434 1.434 . S
C1436 C1437 1.369 . S
C1436 C1438 1.419 . S
C1436 H1440 0.930 . S
C1437 C1436 1.369 . S
C1437 C1446 1.429 . S
C1438 C1436 1.419 . S
C1438 C1439 1.363 . S
C1438 H1441 0.929 . S
C1439 C1438 1.363 . S
C1439 C1445 1.428 . S
H1440 C1436 0.930 . S
H1441 C1438 0.929 . S
S1442 N1443 1.613 . S
S1442 N1444 1.610 . S
N1443 S1442 1.613 . S
N1443 C1446 1.350 . S
N1444 S1442 1.610 . S
N1444 C1445 1.351 . S
C1445 C1439 1.428 . S
C1445 N1444 1.351 . S
C1445 C1446 1.434 . S
C1446 C1437 1.429 . S
C1446 N1443 1.350 . S
C1446 C1445 1.434 . S
C1447 C1448 1.369 . S
C1447 C1449 1.419 . S
C1447 H1451 0.930 . S
C1448 C1447 1.369 . S
C1448 C1457 1.429 . S
C1449 C1447 1.419 . S
C1449 C1450 1.363 . S
C1449 H1452 0.929 . S
C1450 C1449 1.363 . S
C1450 C1456 1.428 . S
H1451 C1447 0.930 . S
H1452 C1449 0.929 . S
S1453 N1454 1.613 . S
S1453 N1455 1.610 . S
N1454 S1453 1.613 . S
N1454 C1457 1.350 . S
N1455 S1453 1.610 . S
N1455 C1456 1.351 . S
C1456 C1450 1.428 . S
C1456 N1455 1.351 . S
C1456 C1457 1.434 . S
C1457 C1448 1.429 . S
C1457 N1454 1.350 . S
C1457 C1456 1.434 . S
C1458 C1459 1.369 . S
C1458 C1460 1.419 . S
C1458 H1462 0.930 . S
C1459 C1458 1.369 . S
C1459 C1468 1.429 . S
C1460 C1458 1.419 . S
C1460 C1461 1.363 . S
C1460 H1463 0.929 . S
C1461 C1460 1.363 . S
C1461 C1467 1.428 1_565 S
H1462 C1458 0.930 . S
H1463 C1460 0.929 . S
S1464 N1465 1.613 . S
S1464 N1466 1.610 . S
N1465 S1464 1.613 . S
N1465 C1468 1.350 1_545 S
N1466 S1464 1.610 . S
N1466 C1467 1.351 . S
C1467 C1461 1.428 1_545 S
C1467 N1466 1.351 . S
C1467 C1468 1.434 1_545 S
C1468 C1459 1.429 . S
C1468 N1465 1.350 1_565 S
C1468 C1467 1.434 1_565 S
C1469 C1470 1.369 1_655 S
C1469 C1471 1.419 . S
C1469 H1473 0.930 . S
C1470 C1469 1.369 1_455 S
C1470 C1479 1.429 . S
C1471 C1469 1.419 . S
C1471 C1472 1.363 1_655 S
C1471 H1474 0.929 . S
C1472 C1471 1.363 1_455 S
C1472 C1478 1.428 . S
H1473 C1469 0.930 . S
H1474 C1471 0.929 . S
S1475 N1476 1.613 . S
S1475 N1477 1.610 . S
N1476 S1475 1.613 . S
N1476 C1479 1.350 . S
N1477 S1475 1.610 . S
N1477 C1478 1.351 . S
C1478 C1472 1.428 . S
C1478 N1477 1.351 . S
C1478 C1479 1.434 . S
C1479 C1470 1.429 . S
C1479 N1476 1.350 . S
C1479 C1478 1.434 . S
C1480 C1481 1.369 . S
C1480 C1482 1.419 . S
C1480 H1484 0.930 . S
C1481 C1480 1.369 . S
C1481 C1490 1.429 . S
C1482 C1480 1.419 . S
C1482 C1483 1.363 . S
C1482 H1485 0.929 . S
C1483 C1482 1.363 . S
C1483 C1489 1.428 . S
H1484 C1480 0.930 . S
H1485 C1482 0.929 . S
S1486 N1487 1.613 . S
S1486 N1488 1.610 . S
N1487 S1486 1.613 . S
N1487 C1490 1.350 . S
N1488 S1486 1.610 . S
N1488 C1489 1.351 . S
C1489 C1483 1.428 . S
C1489 N1488 1.351 . S
C1489 C1490 1.434 . S
C1490 C1481 1.429 . S
C1490 N1487 1.350 . S
C1490 C1489 1.434 . S
C1491 C1492 1.369 . S
C1491 C1493 1.419 . S
C1491 H1495 0.930 . S
C1492 C1491 1.369 . S
C1492 C1501 1.429 1_655 S
C1493 C1491 1.419 . S
C1493 C1494 1.363 . S
C1493 H1496 0.929 . S
C1494 C1493 1.363 . S
C1494 C1500 1.428 1_655 S
H1495 C1491 0.930 . S
H1496 C1493 0.929 . S
S1497 N1498 1.613 . S
S1497 N1499 1.610 . S
N1498 S1497 1.613 . S
N1498 C1501 1.350 . S
N1499 S1497 1.610 . S
N1499 C1500 1.351 . S
C1500 C1494 1.428 1_455 S
C1500 N1499 1.351 . S
C1500 C1501 1.434 . S
C1501 C1492 1.429 1_455 S
C1501 N1498 1.350 . S
C1501 C1500 1.434 . S
C1502 C1503 1.369 . S
C1502 C1504 1.419 . S
C1502 H1506 0.930 . S
C1503 C1502 1.369 . S
C1503 C1512 1.429 . S
C1504 C1502 1.419 . S
C1504 C1505 1.363 . S
C1504 H1507 0.929 . S
C1505 C1504 1.363 . S
C1505 C1511 1.428 . S
H1506 C1502 0.930 . S
H1507 C1504 0.929 . S
S1508 N1509 1.613 . S
S1508 N1510 1.610 . S
N1509 S1508 1.613 . S
N1509 C1512 1.350 . S
N1510 S1508 1.610 . S
N1510 C1511 1.351 . S
C1511 C1505 1.428 . S
C1511 N1510 1.351 . S
C1511 C1512 1.434 . S
C1512 C1503 1.429 . S
C1512 N1509 1.350 . S
C1512 C1511 1.434 . S
C1513 C1514 1.369 . S
C1513 C1515 1.419 1_545 S
C1513 H1517 0.930 1_545 S
C1514 C1513 1.369 . S
C1514 C1523 1.429 . S
C1515 C1513 1.419 1_565 S
C1515 C1516 1.363 1_565 S
C1515 H1518 0.929 . S
C1516 C1515 1.363 1_545 S
C1516 C1522 1.428 . S
H1517 C1513 0.930 1_565 S
H1518 C1515 0.929 . S
S1519 N1520 1.613 . S
S1519 N1521 1.610 . S
N1520 S1519 1.613 . S
N1520 C1523 1.350 . S
N1521 S1519 1.610 . S
N1521 C1522 1.351 . S
C1522 C1516 1.428 . S
C1522 N1521 1.351 . S
C1522 C1523 1.434 . S
C1523 C1514 1.429 . S
C1523 N1520 1.350 . S
C1523 C1522 1.434 . S
C1524 C1525 1.369 . S
C1524 C1526 1.419 . S
C1524 H1528 0.930 . S
C1525 C1524 1.369 . S
C1525 C1534 1.429 . S
C1526 C1524 1.419 . S
C1526 C1527 1.363 . S
C1526 H1529 0.929 . S
C1527 C1526 1.363 . S
C1527 C1533 1.428 . S
H1528 C1524 0.930 . S
H1529 C1526 0.929 . S
S1530 N1531 1.613 . S
S1530 N1532 1.610 . S
N1531 S1530 1.613 . S
N1531 C1534 1.350 . S
N1532 S1530 1.610 . S
N1532 C1533 1.351 . S
C1533 C1527 1.428 . S
C1533 N1532 1.351 . S
C1533 C1534 1.434 . S
C1534 C1525 1.429 . S
C1534 N1531 1.350 . S
C1534 C1533 1.434 . S
C1535 C1536 1.369 . S
C1535 C1537 1.419 . S
C1535 H1539 0.930 . S
C1536 C1535 1.369 . S
C1536 C1545 1.429 . S
C1537 C1535 1.419 . S
C1537 C1538 1.363 . S
C1537 H1540 0.929 . S
C1538 C1537 1.363 . S
C1538 C1544 1.428 . S
H1539 C1535 0.930 . S
H1540 C1537 0.929 . S
S1541 N1542 1.613 . S
S1541 N1543 1.610 . S
N1542 S1541 1.613 . S
N1542 C1545 1.350 . S
N1543 S1541 1.610 . S
N1543 C1544 1.351 . S
C1544 C1538 1.428 . S
C1544 N1543 1.351 . S
C1544 C1545 1.434 . S
C1545 C1536 1.429 . S
C1545 N1542 1.350 . S
C1545 C1544 1.434 . S
C1546 C1547 1.369 . S
C1546 C1548 1.419 . S
C1546 H1550 0.930 . S
C1547 C1546 1.369 . S
C1547 C1556 1.429 . S
C1548 C1546 1.419 . S
C1548 C1549 1.363 . S
C1548 H1551 0.929 . S
C1549 C1548 1.363 . S
C1549 C1555 1.428 . S
H1550 C1546 0.930 . S
H1551 C1548 0.929 . S
S1552 N1553 1.613 . S
S1552 N1554 1.610 . S
N1553 S1552 1.613 . S
N1553 C1556 1.350 . S
N1554 S1552 1.610 . S
N1554 C1555 1.351 . S
C1555 C1549 1.428 . S
C1555 N1554 1.351 . S
C1555 C1556 1.434 . S
C1556 C1547 1.429 . S
C1556 N1553 1.350 . S
C1556 C1555 1.434 . S
C1557 C1558 1.369 . S
C1557 C1559 1.419 . S
C1557 H1561 0.930 . S
C1558 C1557 1.369 . S
C1558 C1567 1.429 . S
C1559 C1557 1.419 . S
C1559 C1560 1.363 . S
C1559 H1562 0.929 . S
C1560 C1559 1.363 . S
C1560 C1566 1.428 . S
H1561 C1557 0.930 . S
H1562 C1559 0.929 . S
S1563 N1564 1.613 . S
S1563 N1565 1.610 . S
N1564 S1563 1.613 . S
N1564 C1567 1.350 . S
N1565 S1563 1.610 . S
N1565 C1566 1.351 . S
C1566 C1560 1.428 . S
C1566 N1565 1.351 . S
C1566 C1567 1.434 . S
C1567 C1558 1.429 . S
C1567 N1564 1.350 . S
C1567 C1566 1.434 . S
C1568 C1569 1.369 . S
C1568 C1570 1.419 . S
C1568 H1572 0.930 . S
C1569 C1568 1.369 . S
C1569 C1578 1.429 . S
C1570 C1568 1.419 . S
C1570 C1571 1.363 . S
C1570 H1573 0.929 . S
C1571 C1570 1.363 . S
C1571 C1577 1.428 . S
H1572 C1568 0.930 . S
H1573 C1570 0.929 . S
S1574 N1575 1.613 . S
S1574 N1576 1.610 . S
N1575 S1574 1.613 . S
N1575 C1578 1.350 . S
N1576 S1574 1.610 . S
N1576 C1577 1.351 . S
C1577 C1571 1.428 . S
C1577 N1576 1.351 . S
C1577 C1578 1.434 . S
C1578 C1569 1.429 . S
C1578 N1575 1.350 . S
C1578 C1577 1.434 . S
C1579 C1580 1.369 . S
C1579 C1581 1.419 . S
C1579 H1583 0.930 . S
C1580 C1579 1.369 . S
C1580 C1589 1.429 . S
C1581 C1579 1.419 . S
C1581 C1582 1.363 . S
C1581 H1584 0.929 . S
C1582 C1581 1.363 . S
C1582 C1588 1.428 . S
H1583 C1579 0.930 . S
H1584 C1581 0.929 . S
S1585 N1586 1.613 . S
S1585 N1587 1.610 . S
N1586 S1585 1.613 . S
N1586 C1589 1.350 . S
N1587 S1585 1.610 . S
N1587 C1588 1.351 . S
C1588 C1582 1.428 . S
C1588 N1587 1.351 . S
C1588 C1589 1.434 . S
C1589 C1580 1.429 . S
C1589 N1586 1.350 . S
C1589 C1588 1.434 . S
C1590 C1591 1.369 . S
C1590 C1592 1.419 . S
C1590 H1594 0.930 . S
C1591 C1590 1.369 . S
C1591 C1600 1.429 . S
C1592 C1590 1.419 . S
C1592 C1593 1.363 . S
C1592 H1595 0.929 . S
C1593 C1592 1.363 . S
C1593 C1599 1.428 . S
H1594 C1590 0.930 . S
H1595 C1592 0.929 . S
S1596 N1597 1.613 . S
S1596 N1598 1.610 . S
N1597 S1596 1.613 . S
N1597 C1600 1.350 . S
N1598 S1596 1.610 . S
N1598 C1599 1.351 . S
C1599 C1593 1.428 . S
C1599 N1598 1.351 . S
C1599 C1600 1.434 . S
C1600 C1591 1.429 . S
C1600 N1597 1.350 . S
C1600 C1599 1.434 . S
C1601 C1602 1.369 . S
C1601 C1603 1.419 . S
C1601 H1605 0.930 . S
C1602 C1601 1.369 . S
C1602 C1611 1.429 . S
C1603 C1601 1.419 . S
C1603 C1604 1.363 . S
C1603 H1606 0.929 . S
C1604 C1603 1.363 . S
C1604 C1610 1.428 . S
H1605 C1601 0.930 . S
H1606 C1603 0.929 . S
S1607 N1608 1.613 . S
S1607 N1609 1.610 . S
N1608 S1607 1.613 . S
N1608 C1611 1.350 . S
N1609 S1607 1.610 . S
N1609 C1610 1.351 . S
C1610 C1604 1.428 . S
C1610 N1609 1.351 . S
C1610 C1611 1.434 . S
C1611 C1602 1.429 . S
C1611 N1608 1.350 . S
C1611 C1610 1.434 . S
C1612 C1613 1.369 . S
C1612 C1614 1.419 . S
C1612 H1616 0.930 . S
C1613 C1612 1.369 . S
C1613 C1622 1.429 . S
C1614 C1612 1.419 . S
C1614 C1615 1.363 . S
C1614 H1617 0.929 . S
C1615 C1614 1.363 . S
C1615 C1621 1.428 . S
H1616 C1612 0.930 . S
H1617 C1614 0.929 . S
S1618 N1619 1.613 . S
S1618 N1620 1.610 . S
N1619 S1618 1.613 . S
N1619 C1622 1.350 . S
N1620 S1618 1.610 . S
N1620 C1621 1.351 . S
C1621 C1615 1.428 . S
C1621 N1620 1.351 . S
C1621 C1622 1.434 . S
C1622 C1613 1.429 . S
C1622 N1619 1.350 . S
C1622 C1621 1.434 . S
C1623 C1624 1.369 . S
C1623 C1625 1.419 . S
C1623 H1627 0.930 . S
C1624 C1623 1.369 . S
C1624 C1633 1.429 . S
C1625 C1623 1.419 . S
C1625 C1626 1.363 . S
C1625 H1628 0.929 . S
C1626 C1625 1.363 . S
C1626 C1632 1.428 . S
H1627 C1623 0.930 . S
H1628 C1625 0.929 . S
S1629 N1630 1.613 . S
S1629 N1631 1.610 . S
N1630 S1629 1.613 . S
N1630 C1633 1.350 . S
N1631 S1629 1.610 . S
N1631 C1632 1.351 . S
C1632 C1626 1.428 . S
C1632 N1631 1.351 . S
C1632 C1633 1.434 . S
C1633 C1624 1.429 . S
C1633 N1630 1.350 . S
C1633 C1632 1.434 . S
C1634 C1635 1.369 . S
C1634 C1636 1.419 . S
C1634 H1638 0.930 . S
C1635 C1634 1.369 . S
C1635 C1644 1.429 . S
C1636 C1634 1.419 . S
C1636 C1637 1.363 . S
C1636 H1639 0.929 . S
C1637 C1636 1.363 . S
C1637 C1643 1.428 . S
H1638 C1634 0.930 . S
H1639 C1636 0.929 . S
S1640 N1641 1.613 . S
S1640 N1642 1.610 . S
N1641 S1640 1.613 . S
N1641 C1644 1.350 . S
N1642 S1640 1.610 . S
N1642 C1643 1.351 . S
C1643 C1637 1.428 . S
C1643 N1642 1.351 . S
C1643 C1644 1.434 . S
C1644 C1635 1.429 . S
C1644 N1641 1.350 . S
C1644 C1643 1.434 . S
C1645 C1646 1.369 . S
C1645 C1647 1.419 . S
C1645 H1649 0.930 . S
C1646 C1645 1.369 . S
C1646 C1655 1.429 . S
C1647 C1645 1.419 . S
C1647 C1648 1.363 . S
C1647 H1650 0.929 . S
C1648 C1647 1.363 . S
C1648 C1654 1.428 . S
H1649 C1645 0.930 . S
H1650 C1647 0.929 . S
S1651 N1652 1.613 . S
S1651 N1653 1.610 . S
N1652 S1651 1.613 . S
N1652 C1655 1.350 . S
N1653 S1651 1.610 . S
N1653 C1654 1.351 . S
C1654 C1648 1.428 . S
C1654 N1653 1.351 . S
C1654 C1655 1.434 . S
C1655 C1646 1.429 . S
C1655 N1652 1.350 . S
C1655 C1654 1.434 . S
C1063 C528 1.713 . S
C1065 C705 1.743 . S
C1074 C562 1.795 . S
C1076 C745 1.805 . S
C1085 C484 1.789 . S
C1087 C797 1.828 . S
C1096 C445 1.619 . S
C1098 C757 1.637 . S
C1109 C785 1.551 . S
C1107 C367 1.538 . S
C1118 C411 1.529 . S
C1120 C717 1.567 . S
C1131 C724 1.759 . S
C1129 C450 1.710 . S
C1142 C764 1.788 . S
C1140 C372 1.772 . S
C1151 C406 1.786 . S
C1153 C784 1.826 . S
C1162 C523 1.620 . S
C1164 C744 1.635 . S
C1173 C567 1.511 . S
C1175 C804 1.533 . S
C1186 C704 1.586 . S
C1184 C489 1.523 . S
C1197 C825 1.740 . S
C1195 C60 1.720 1_455 S
C1206 C94 1.796 . S
C1208 C865 1.805 . S
C1217 C16 1.788 . S
C1219 C917 1.828 . S
C1228 C679 1.627 . S
C1230 C877 1.633 . S
C1239 C601 1.532 . S
C1241 C905 1.554 . S
C1250 C645 1.531 . S
C1252 C837 1.567 . S
C1261 C684 1.708 . S
C1263 C844 1.760 . S
C1272 C606 1.772 . S
C1274 C884 1.789 . S
C1285 C904 1.825 . S
C1283 C640 1.787 . S
C1294 C55 1.614 1_565 S
C1296 C864 1.640 . S
C1307 C924 1.534 . S
C1305 C99 1.507 1_455 S
C1316 C21 1.515 . S
C1318 C824 1.591 . S
C1329 C945 1.740 . S
C1327 C294 1.718 . S
C1338 C328 1.800 . S
C1340 C985 1.803 . S
C1351 C1037 1.828 . S
C1349 C250 1.787 . S
C1362 C997 1.639 . S
C1360 C211 1.612 1_545 S
C1373 C1025 1.554 . S
C1371 C133 1.532 1_655 S
C1382 C177 1.531 . S
C1384 C957 1.567 . S
C1393 C216 1.708 1_655 S
C1395 C964 1.760 . S
C1404 C138 1.773 . S
C1406 C1004 1.788 . S
C1417 C1024 1.829 . S
C1415 C172 1.785 . S
C1426 C289 1.616 . S
C1428 C984 1.640 . S
C1437 C333 1.512 . S
C1439 C1044 1.533 . S
C1448 C255 1.526 . S
C1450 C944 1.585 . S
C1459 C586 1.408 . S
C1461 C728 1.390 . S
C1472 C768 1.820 . S
C1470 C625 1.831 . S
C1481 C664 1.574 . S
C1483 C791 1.577 . S
C1492 C235 1.837 . S
C1494 C751 1.825 . S
C1503 C274 1.566 . S
C1505 C808 1.566 . S
C1516 C711 1.388 . S
C1514 C313 1.405 . S
C1525 C118 1.407 . S
C1527 C848 1.391 . S
C1536 C157 1.831 . S
C1538 C888 1.820 . S
C1547 C196 1.571 . S
C1549 C911 1.580 . S
C1558 C469 1.834 . S
C1560 C871 1.829 . S
C1571 C928 1.566 . S
C1569 C508 1.566 . S
C1580 C547 1.406 . S
C1582 C831 1.388 . S
C1591 C352 1.407 . S
C1593 C968 1.392 . S
C1602 C391 1.833 . S
C1604 C1008 1.817 . S
C1615 C1031 1.578 . S
C1613 C430 1.574 . S
C1624 C1 1.837 . S
C1626 C991 1.827 . S
C1635 C40 1.563 . S
C1637 C1048 1.567 . S
C1646 C79 1.404 . S
C1648 C951 1.391 . S
