# Generated by pormake.
# Topology wbl, (4,4)-cn, num edge types: 1
# Building blocks:
#     Node 0, Type 0, BuildingBlock: NAWXER_clean_linker_0, # of connection points: 4
#     Node 1, Type 0, BuildingBlock: NAWXER_clean_linker_0, # of connection points: 4
#     Node 2, Type 0, BuildingBlock: NAWXER_clean_linker_0, # of connection points: 4
#     Node 3, Type 0, BuildingBlock: NAWXER_clean_linker_0, # of connection points: 4
#     Node 4, Type 0, BuildingBlock: NAWXER_clean_linker_0, # of connection points: 4
#     Node 5, Type 0, BuildingBlock: NAWXER_clean_linker_0, # of connection points: 4
#     Node 6, Type 0, BuildingBlock: NAWXER_clean_linker_0, # of connection points: 4
#     Node 7, Type 0, BuildingBlock: NAWXER_clean_linker_0, # of connection points: 4
#     Node 8, Type 1, BuildingBlock: TATPOV_clean_sbu_0, # of connection points: 4
#     Node 9, Type 1, BuildingBlock: TATPOV_clean_sbu_0, # of connection points: 4
#     Node 10, Type 1, BuildingBlock: TATPOV_clean_sbu_0, # of connection points: 4
#     Node 11, Type 1, BuildingBlock: TATPOV_clean_sbu_0, # of connection points: 4
#     Node 12, Type 1, BuildingBlock: TATPOV_clean_sbu_0, # of connection points: 4
#     Node 13, Type 1, BuildingBlock: TATPOV_clean_sbu_0, # of connection points: 4
#     Node 14, Type 1, BuildingBlock: TATPOV_clean_sbu_0, # of connection points: 4
#     Node 15, Type 1, BuildingBlock: TATPOV_clean_sbu_0, # of connection points: 4
#     Edge 16, Type (0, 1), BuildingBlock: CIFDUS_clean_linker_0, # of connection points: 2
#     Edge 17, Type (0, 1), BuildingBlock: CIFDUS_clean_linker_0, # of connection points: 2
#     Edge 18, Type (0, 1), BuildingBlock: CIFDUS_clean_linker_0, # of connection points: 2
#     Edge 19, Type (0, 1), BuildingBlock: CIFDUS_clean_linker_0, # of connection points: 2
#     Edge 20, Type (0, 1), BuildingBlock: CIFDUS_clean_linker_0, # of connection points: 2
#     Edge 21, Type (0, 1), BuildingBlock: CIFDUS_clean_linker_0, # of connection points: 2
#     Edge 22, Type (0, 1), BuildingBlock: CIFDUS_clean_linker_0, # of connection points: 2
#     Edge 23, Type (0, 1), BuildingBlock: CIFDUS_clean_linker_0, # of connection points: 2
#     Edge 24, Type (0, 1), BuildingBlock: CIFDUS_clean_linker_0, # of connection points: 2
#     Edge 25, Type (0, 1), BuildingBlock: CIFDUS_clean_linker_0, # of connection points: 2
#     Edge 26, Type (0, 1), BuildingBlock: CIFDUS_clean_linker_0, # of connection points: 2
#     Edge 27, Type (0, 1), BuildingBlock: CIFDUS_clean_linker_0, # of connection points: 2
#     Edge 28, Type (0, 1), BuildingBlock: CIFDUS_clean_linker_0, # of connection points: 2
#     Edge 29, Type (0, 1), BuildingBlock: CIFDUS_clean_linker_0, # of connection points: 2
#     Edge 30, Type (0, 1), BuildingBlock: CIFDUS_clean_linker_0, # of connection points: 2
#     Edge 31, Type (0, 1), BuildingBlock: CIFDUS_clean_linker_0, # of connection points: 2
#     Edge 32, Type (0, 1), BuildingBlock: CIFDUS_clean_linker_0, # of connection points: 2
#     Edge 33, Type (0, 1), BuildingBlock: CIFDUS_clean_linker_0, # of connection points: 2
#     Edge 34, Type (0, 1), BuildingBlock: CIFDUS_clean_linker_0, # of connection points: 2
#     Edge 35, Type (0, 1), BuildingBlock: CIFDUS_clean_linker_0, # of connection points: 2
#     Edge 36, Type (0, 1), BuildingBlock: CIFDUS_clean_linker_0, # of connection points: 2
#     Edge 37, Type (0, 1), BuildingBlock: CIFDUS_clean_linker_0, # of connection points: 2
#     Edge 38, Type (0, 1), BuildingBlock: CIFDUS_clean_linker_0, # of connection points: 2
#     Edge 39, Type (0, 1), BuildingBlock: CIFDUS_clean_linker_0, # of connection points: 2
#     Edge 40, Type (0, 1), BuildingBlock: CIFDUS_clean_linker_0, # of connection points: 2
#     Edge 41, Type (0, 1), BuildingBlock: CIFDUS_clean_linker_0, # of connection points: 2
#     Edge 42, Type (0, 1), BuildingBlock: CIFDUS_clean_linker_0, # of connection points: 2
#     Edge 43, Type (0, 1), BuildingBlock: CIFDUS_clean_linker_0, # of connection points: 2
#     Edge 44, Type (0, 1), BuildingBlock: CIFDUS_clean_linker_0, # of connection points: 2
#     Edge 45, Type (0, 1), BuildingBlock: CIFDUS_clean_linker_0, # of connection points: 2
#     Edge 46, Type (0, 1), BuildingBlock: CIFDUS_clean_linker_0, # of connection points: 2
#     Edge 47, Type (0, 1), BuildingBlock: CIFDUS_clean_linker_0, # of connection points: 2
# Relax obj value: 0.173
# Max RMSD: 0.171
# Mean RMSD: 0.138
data_MOF--net-wbl--node1-TATPOV_clean_sbu_0--node2-NAWXER_clean_linker_0--edge1-CIFDUS_clean_linker_0
_symmetry_space_group_name_H-M    P1
_symmetry_Int_Tables_number       1
_symmetry_cell_setting            triclinic
loop_
_symmetry_equiv_pos_as_xyz
'x, y, z'
_cell_length_a     40.246661
_cell_length_b     40.252333
_cell_length_c     68.659037
_cell_angle_alpha  91.394709
_cell_angle_beta   91.378587
_cell_angle_gamma 90.058944
loop_
_atom_site_label
_atom_site_type_symbol
_atom_site_fract_x
_atom_site_fract_y
_atom_site_fract_z
_atom_type_partial_charge
C0 C 0.14093 0.95006 0.37534 0.0
C1 C 0.16298 0.96084 0.39036 0.0
C2 C 0.12297 0.97309 0.36443 0.0
C3 C 0.12715 0.00738 0.36809 0.0
C4 C 0.16755 0.99514 0.39379 0.0
C5 C 0.14971 0.01816 0.38282 0.0
C6 C 0.10565 0.0319 0.35814 0.0
C7 C 0.16724 0.98743 0.3109 0.0
C8 C 0.14945 0.96465 0.29882 0.0
C9 C 0.15056 0.00881 0.3236 0.0
C10 C 0.11578 0.00799 0.32432 0.0
C11 C 0.1146 0.96405 0.29939 0.0
C12 C 0.09784 0.98595 0.31187 0.0
C13 C 0.09826 0.03043 0.33792 0.0
C14 C 0.01556 0.15222 0.32451 0.0
C15 C 0.98758 0.13813 0.3149 0.0
C16 C 0.03936 0.13176 0.33329 0.0
C17 C 0.03562 0.09705 0.33226 0.0
C18 C 0.98415 0.10343 0.3137 0.0
C19 C 0.00821 0.08304 0.32212 0.0
C20 C 0.06 0.07504 0.34172 0.0
C21 C 0.00033 0.12174 0.38972 0.0
C22 C 0.01905 0.14066 0.40355 0.0
C23 C 0.01608 0.10145 0.37599 0.0
C24 C 0.05092 0.10001 0.37558 0.0
C25 C 0.05395 0.1392 0.40311 0.0
C26 C 0.0697 0.1189 0.38933 0.0
C27 C 0.06784 0.07707 0.36187 0.0
H28 H 0.13644 0.92381 0.37258 0.0
H29 H 0.10483 0.96398 0.35368 0.0
H30 H 0.1846 0.00419 0.40517 0.0
H31 H 0.15317 0.04444 0.38603 0.0
H32 H 0.19415 0.98811 0.31087 0.0
H33 H 0.16482 0.02595 0.33291 0.0
H34 H 0.10042 0.94665 0.29021 0.0
H35 H 0.07095 0.98516 0.31217 0.0
H36 H 0.0186 0.17895 0.32554 0.0
H37 H 0.06062 0.14296 0.34089 0.0
H38 H 0.96285 0.09212 0.3062 0.0
H39 H 0.00503 0.05631 0.32111 0.0
H40 H 0.97342 0.12245 0.38957 0.0
H41 H 0.00094 0.08633 0.36599 0.0
H42 H 0.06909 0.15308 0.41373 0.0
H43 H 0.0966 0.1178 0.38947 0.0
N44 N 0.09039 0.0554 0.3693 0.0
N45 N 0.07547 0.05181 0.33049 0.0
C46 C 0.89492 0.51428 0.62121 0.0
C47 C 0.90637 0.49351 0.6361 0.0
C48 C 0.91743 0.53235 0.6104 0.0
C49 C 0.95176 0.53006 0.61436 0.0
C50 C 0.94078 0.49081 0.63974 0.0
C51 C 0.9632 0.50909 0.62908 0.0
C52 C 0.97566 0.55161 0.60453 0.0
C53 C 0.94851 0.47485 0.55936 0.0
C54 C 0.9213 0.48524 0.54786 0.0
C55 C 0.96656 0.49772 0.57088 0.0
C56 C 0.95797 0.53143 0.57097 0.0
C57 C 0.91307 0.51917 0.54765 0.0
C58 C 0.93167 0.54227 0.55896 0.0
C59 C 0.97638 0.55465 0.5841 0.0
C60 C 0.10307 0.628 0.57265 0.0
C61 C 0.0933 0.65678 0.5629 0.0
C62 C 0.07925 0.60726 0.58049 0.0
C63 C 0.04531 0.61482 0.57853 0.0
C64 C 0.05924 0.66395 0.56064 0.0
C65 C 0.03539 0.64292 0.56825 0.0
C66 C 0.02037 0.59396 0.58779 0.0
C67 C 0.06186 0.65965 0.63749 0.0
C68 C 0.08504 0.64188 0.64871 0.0
C69 C 0.04125 0.64297 0.6238 0.0
C70 C 0.04323 0.60831 0.62151 0.0
C71 C 0.08749 0.60731 0.64607 0.0
C72 C 0.06638 0.59057 0.63272 0.0
C73 C 0.02017 0.59024 0.60812 0.0
H74 H 0.86855 0.51679 0.61807 0.0
H75 H 0.90794 0.54897 0.59942 0.0
H76 H 0.95034 0.47537 0.6513 0.0
H77 H 0.98954 0.50719 0.63252 0.0
H78 H 0.95503 0.44879 0.56005 0.0
H79 H 0.98693 0.48902 0.58001 0.0
H80 H 0.89209 0.52768 0.53895 0.0
H81 H 0.92486 0.56829 0.55888 0.0
H82 H 0.12914 0.62203 0.57467 0.0
H83 H 0.0873 0.5855 0.58828 0.0
H84 H 0.05111 0.68588 0.55304 0.0
H85 H 0.00929 0.64904 0.56658 0.0
H86 H 0.05966 0.68635 0.63937 0.0
H87 H 0.02329 0.65694 0.61533 0.0
H88 H 0.10511 0.59321 0.65471 0.0
H89 H 0.06807 0.56378 0.63113 0.0
N90 N -0.00216 0.56931 0.61578 0.0
N91 N -0.00141 0.57585 0.57639 0.0
C92 C 0.54888 0.36129 0.87314 0.0
C93 C 0.56624 0.37591 0.88922 0.0
C94 C 0.53003 0.38091 0.86042 0.0
C95 C 0.52848 0.41554 0.86346 0.0
C96 C 0.56478 0.41058 0.89203 0.0
C97 C 0.54621 0.43008 0.87932 0.0
C98 C 0.50626 0.4368 0.85157 0.0
C99 C 0.58078 0.40178 0.80779 0.0
C100 C 0.56794 0.37716 0.79488 0.0
C101 C 0.55969 0.41976 0.81991 0.0
C102 C 0.52539 0.41366 0.81914 0.0
C103 C 0.53364 0.37072 0.79423 0.0
C104 C 0.51237 0.38932 0.80609 0.0
C105 C 0.50324 0.43452 0.83101 0.0
C106 C 0.43675 0.56363 0.81473 0.0
C107 C 0.40614 0.55566 0.80551 0.0
C108 C 0.45716 0.5386 0.82195 0.0
C109 C 0.44721 0.50523 0.82021 0.0
C110 C 0.39729 0.52201 0.80267 0.0
C111 C 0.41781 0.49692 0.8099 0.0
C112 C 0.4654 0.47992 0.83131 0.0
C113 C 0.40296 0.54107 0.87143 0.0
C114 C 0.42207 0.56087 0.8846 0.0
C115 C 0.41763 0.51483 0.86111 0.0
C116 C 0.45178 0.50841 0.86347 0.0
C117 C 0.45606 0.55389 0.88725 0.0
C118 C 0.47075 0.52785 0.87682 0.0
C119 C 0.46828 0.48213 0.8518 0.0
H120 H 0.54956 0.33467 0.87049 0.0
H121 H 0.51588 0.36885 0.84865 0.0
H122 H 0.57717 0.42271 0.90445 0.0
H123 H 0.54524 0.45667 0.88213 0.0
H124 H 0.60722 0.40688 0.80862 0.0
H125 H 0.5701 0.43883 0.82967 0.0
H126 H 0.52336 0.35172 0.78439 0.0
H127 H 0.48587 0.38461 0.8052 0.0
H128 H 0.4442 0.58927 0.81726 0.0
H129 H 0.47991 0.5454 0.82984 0.0
H130 H 0.37408 0.51515 0.79531 0.0
H131 H 0.40984 0.47125 0.80842 0.0
H132 H 0.37657 0.54549 0.86939 0.0
H133 H 0.4023 0.49959 0.85127 0.0
H134 H 0.47142 0.56885 0.89724 0.0
H135 H 0.49712 0.52333 0.87888 0.0
N136 N 0.48866 0.46062 0.86112 0.0
N137 N 0.48284 0.45615 0.8216 0.0
C138 C 0.48159 0.89565 0.07701 0.0
C139 C 0.46565 0.90619 0.05975 0.0
C140 C 0.50686 0.91462 0.086 0.0
C141 C 0.51562 0.94561 0.07868 0.0
C142 C 0.47554 0.93662 0.05197 0.0
C143 C 0.50005 0.95616 0.0614 0.0
C144 C 0.54175 0.9666 0.0884 0.0
C145 C 0.46543 0.94914 0.13443 0.0
C146 C 0.4779 0.92925 0.14949 0.0
C147 C 0.48705 0.96306 0.12117 0.0
C148 C 0.52142 0.95727 0.1228 0.0
C149 C 0.51238 0.92425 0.15131 0.0
C150 C 0.53392 0.93834 0.13819 0.0
C151 C 0.5448 0.97124 0.10886 0.0
C152 C 0.64285 0.08064 0.12152 0.0
C153 C 0.66193 0.06776 0.13702 0.0
C154 C 0.62086 0.06013 0.11067 0.0
C155 C 0.61791 0.02636 0.11503 0.0
C156 C 0.65939 0.03376 0.141 0.0
C157 C 0.63741 0.01336 0.13021 0.0
C158 C 0.59282 0.00491 0.10498 0.0
C159 C 0.66814 0.03623 0.06312 0.0
C160 C 0.65536 0.05164 0.0463 0.0
C161 C 0.64755 0.01768 0.07482 0.0
C162 C 0.61325 0.01557 0.0707 0.0
C163 C 0.62172 0.04593 0.041 0.0
C164 C 0.60087 0.02851 0.05317 0.0
C165 C 0.58999 0.0004 0.08449 0.0
H166 H 0.47465 0.87273 0.08375 0.0
H167 H 0.51952 0.90484 0.09871 0.0
H168 H 0.46473 0.9453 0.03844 0.0
H169 H 0.50682 0.97962 0.05516 0.0
H170 H 0.43897 0.95339 0.13269 0.0
H171 H 0.47695 0.97815 0.10961 0.0
H172 H 0.52274 0.90951 0.16297 0.0
H173 H 0.56039 0.93394 0.13985 0.0
H174 H 0.64391 0.10681 0.11828 0.0
H175 H 0.60553 0.07078 0.09925 0.0
H176 H 0.67406 0.02301 0.15268 0.0
H177 H 0.63538 0.98739 0.13383 0.0
H178 H 0.69373 0.03954 0.06793 0.0
H179 H 0.65844 0.00602 0.08748 0.0
H180 H 0.61099 0.05572 0.02774 0.0
H181 H 0.57475 0.0262 0.04918 0.0
N182 N 0.56435 0.98159 0.07705 0.0
N183 N 0.57034 0.98993 0.11628 0.0
C184 C 0.06569 0.6296 0.88425 0.0
C185 C 0.08122 0.61382 0.8684 0.0
C186 C 0.04592 0.61134 0.89669 0.0
C187 C 0.04175 0.57689 0.89363 0.0
C188 C 0.07756 0.57929 0.86568 0.0
C189 C 0.05799 0.5611 0.8781 0.0
C190 C 0.01833 0.55734 0.90519 0.0
C191 C 0.09818 0.58581 0.94918 0.0
C192 C 0.08861 0.61277 0.9611 0.0
C193 C 0.0747 0.56883 0.93749 0.0
C194 C 0.04121 0.57828 0.93774 0.0
C195 C 0.0551 0.62239 0.96132 0.0
C196 C 0.03138 0.60483 0.9499 0.0
C197 C 0.01667 0.55945 0.9257 0.0
C198 C 0.93772 0.4383 0.9433 0.0
C199 C 0.91202 0.45055 0.95493 0.0
C200 C 0.95856 0.4602 0.93388 0.0
C201 C 0.95415 0.4947 0.93601 0.0
C202 C 0.90839 0.48511 0.95757 0.0
C203 C 0.92954 0.50702 0.94834 0.0
C204 C 0.97451 0.51777 0.92489 0.0
C205 C 0.90195 0.46844 0.88237 0.0
C206 C 0.9169 0.45081 0.86701 0.0
C207 C 0.92093 0.48965 0.89464 0.0
C208 C 0.95531 0.49291 0.89201 0.0
C209 C 0.95118 0.45436 0.8643 0.0
C210 C 0.97016 0.47521 0.87667 0.0
C211 C 0.97593 0.51588 0.90437 0.0
H212 H 0.06778 0.65624 0.88659 0.0
H213 H 0.03295 0.62438 0.90818 0.0
H214 H 0.08962 0.56631 0.85379 0.0
H215 H 0.05521 0.5346 0.87539 0.0
H216 H 0.12398 0.57822 0.94868 0.0
H217 H 0.08262 0.54815 0.92833 0.0
H218 H 0.04733 0.64321 0.9704 0.0
H219 H 0.00553 0.61224 0.95031 0.0
H220 H 0.94097 0.4118 0.94096 0.0
H221 H 0.97774 0.45023 0.92461 0.0
H222 H 0.88897 0.49517 0.96663 0.0
H223 H 0.92595 0.53356 0.95026 0.0
H224 H 0.87546 0.46648 0.88457 0.0
H225 H 0.9086 0.50391 0.90591 0.0
H226 H 0.96335 0.44084 0.85266 0.0
H227 H 0.99658 0.47745 0.87427 0.0
N228 N -0.00214 0.53562 0.89538 0.0
N229 N 0.99481 0.53964 0.93483 0.0
C230 C 0.3993 0.5359 0.13724 0.0
C231 C 0.40983 0.55089 0.12018 0.0
C232 C 0.42163 0.51738 0.1485 0.0
C233 C 0.45508 0.51448 0.14319 0.0
C234 C 0.44289 0.54679 0.1145 0.0
C235 C 0.46525 0.52878 0.12588 0.0
C236 C 0.47991 0.4968 0.15541 0.0
C237 C 0.44396 0.58279 0.19034 0.0
C238 C 0.42875 0.57541 0.20797 0.0
C239 C 0.46213 0.5588 0.18031 0.0
C240 C 0.46413 0.52619 0.18701 0.0
C241 C 0.4319 0.543 0.2151 0.0
C242 C 0.4494 0.51862 0.20469 0.0
C243 C 0.48267 0.50057 0.1759 0.0
C244 C 0.6073 0.42218 0.19538 0.0
C245 C 0.59592 0.40515 0.21163 0.0
C246 C 0.58559 0.44152 0.18424 0.0
C247 C 0.5517 0.44315 0.18858 0.0
C248 C 0.56246 0.40897 0.21675 0.0
C249 C 0.54062 0.42757 0.20529 0.0
C250 C 0.52753 0.46166 0.17636 0.0
C251 C 0.57777 0.39056 0.13282 0.0
C252 C 0.59139 0.40738 0.11715 0.0
C253 C 0.55679 0.40732 0.14579 0.0
C254 C 0.54992 0.44125 0.14347 0.0
C255 C 0.58469 0.4413 0.11506 0.0
C256 C 0.56421 0.45801 0.12805 0.0
C257 C 0.52606 0.45961 0.15574 0.0
H258 H 0.37382 0.5384 0.14178 0.0
H259 H 0.41286 0.50569 0.16146 0.0
H260 H 0.45171 0.5583 0.10149 0.0
H261 H 0.49081 0.52676 0.12138 0.0
H262 H 0.44176 0.60713 0.18407 0.0
H263 H 0.47443 0.56581 0.16717 0.0
H264 H 0.42118 0.5365 0.22881 0.0
H265 H 0.45127 0.4938 0.21037 0.0
H266 H 0.63278 0.41993 0.19083 0.0
H267 H 0.59531 0.45473 0.17206 0.0
H268 H 0.55289 0.39725 0.22949 0.0
H269 H 0.51479 0.42922 0.20932 0.0
H270 H 0.58242 0.36431 0.13462 0.0
H271 H 0.54546 0.39369 0.15731 0.0
H272 H 0.59513 0.45489 0.10322 0.0
H273 H 0.5592 0.48414 0.12593 0.0
N274 N 0.50211 0.47701 0.14622 0.0
N275 N 0.5058 0.48224 0.1856 0.0
C276 C 0.49234 0.90028 0.39694 0.0
C277 C 0.46847 0.91507 0.38468 0.0
C278 C 0.51514 0.91999 0.40768 0.0
C279 C 0.51401 0.95479 0.40659 0.0
C280 C 0.46678 0.94989 0.38407 0.0
C281 C 0.48943 0.96954 0.39487 0.0
C282 C 0.54017 0.97591 0.41594 0.0
C283 C 0.48153 0.93709 0.46468 0.0
C284 C 0.4959 0.90726 0.47091 0.0
C285 C 0.49967 0.95909 0.45371 0.0
C286 C 0.53261 0.95189 0.44904 0.0
C287 C 0.52926 0.90051 0.46672 0.0
C288 C 0.5477 0.92301 0.45609 0.0
C289 C 0.55018 0.97348 0.43568 0.0
C290 C 0.63263 0.09649 0.44783 0.0
C291 C 0.66113 0.08442 0.45749 0.0
C292 C 0.60909 0.07445 0.43971 0.0
C293 C 0.61368 0.04002 0.44112 0.0
C294 C 0.66527 0.04995 0.45928 0.0
C295 C 0.64153 0.0279 0.4513 0.0
C296 C 0.58961 0.01673 0.43175 0.0
C297 C 0.64647 0.06183 0.38341 0.0
C298 C 0.62718 0.08061 0.37035 0.0
C299 C 0.6313 0.042 0.39705 0.0
C300 C 0.59651 0.04088 0.39812 0.0
C301 C 0.59236 0.07946 0.37145 0.0
C302 C 0.57719 0.05963 0.38513 0.0
C303 C 0.58011 0.01867 0.41187 0.0
H304 H 0.49448 0.87349 0.39744 0.0
H305 H 0.53456 0.90794 0.41608 0.0
H306 H 0.44841 0.96192 0.37487 0.0
H307 H 0.48818 0.99632 0.39375 0.0
H308 H 0.45572 0.94263 0.4675 0.0
H309 H 0.4877 0.98131 0.44838 0.0
H310 H 0.54075 0.87758 0.47132 0.0
H311 H 0.57315 0.91713 0.45255 0.0
H312 H 0.6289 0.12294 0.44621 0.0
H313 H 0.58742 0.08428 0.43217 0.0
H314 H 0.68683 0.04007 0.4669 0.0
H315 H 0.6453 0.0014 0.45265 0.0
H316 H 0.67335 0.06231 0.38303 0.0
H317 H 0.6468 0.02706 0.40651 0.0
H318 H 0.57678 0.09322 0.36142 0.0
H319 H 0.5503 0.05884 0.38553 0.0
N320 N 0.55551 -0.00162 0.40478 0.0
N321 N 0.57449 0.99404 0.44295 0.0
C322 C 0.1602 0.97988 0.64409 0.0
C323 C 0.14552 0.96058 0.62886 0.0
C324 C 0.14025 0.99741 0.65725 0.0
C325 C 0.10542 0.99541 0.65548 0.0
C326 C 0.1108 0.95743 0.62774 0.0
C327 C 0.09099 0.9747 0.64088 0.0
C328 C 0.08352 0.01778 0.66675 0.0
C329 C 0.12661 0.95115 0.71247 0.0
C330 C 0.15305 0.96693 0.72273 0.0
C331 C 0.10492 0.96944 0.70081 0.0
C332 C 0.10907 0.00384 0.69943 0.0
C333 C 0.1572 0.00143 0.72138 0.0
C334 C 0.13494 0.0199 0.71001 0.0
C335 C 0.08591 0.02284 0.68715 0.0
C336 C 0.95459 0.08331 0.70371 0.0
C337 C 0.96176 0.11363 0.71337 0.0
C338 C 0.98002 0.06499 0.69515 0.0
C339 C 0.01294 0.07656 0.69643 0.0
C340 C 0.99482 0.12472 0.71514 0.0
C341 C 0.02039 0.10599 0.70695 0.0
C342 C 0.039 0.05877 0.68577 0.0
C343 C 0.98736 0.12303 0.64146 0.0
C344 C 0.97214 0.10558 0.62567 0.0
C345 C 0.00788 0.10647 0.65474 0.0
C346 C 0.01306 0.07205 0.65267 0.0
C347 C 0.97692 0.07109 0.6238 0.0
C348 C 0.99725 0.05453 0.63714 0.0
C349 C 0.03736 0.05468 0.66532 0.0
H350 H 0.18694 0.98283 0.64516 0.0
H351 H 0.15202 0.01385 0.66806 0.0
H352 H 0.09888 0.94231 0.61631 0.0
H353 H 0.06421 0.97272 0.63922 0.0
H354 H 0.12323 0.9245 0.71311 0.0
H355 H 0.0849 0.95675 0.69284 0.0
H356 H 0.17756 0.01398 0.72911 0.0
H357 H 0.1383 0.04652 0.70913 0.0
H358 H 0.9292 0.07451 0.70213 0.0
H359 H 0.97395 0.04217 0.68714 0.0
H360 H 0.00071 0.14813 0.72256 0.0
H361 H 0.04569 0.11518 0.70805 0.0
H362 H 0.98456 0.14971 0.64307 0.0
H363 H 0.02074 0.12085 0.66612 0.0
H364 H 0.96525 0.05697 0.61186 0.0
H365 H 0.00102 0.02802 0.63515 0.0
N366 N 0.05947 0.0341 0.65666 0.0
N367 N 0.06338 0.04297 0.696 0.0
Zn368 Zn 0.3092 0.74524 0.9751 0.0
Zn369 Zn 0.31812 0.69812 0.00344 0.0
O370 O 0.26793 0.69944 0.99953 0.0
O371 O 0.25932 0.73791 0.97769 0.0
O372 O 0.32693 0.66236 0.02266 0.0
O373 O 0.3349 0.77753 0.99349 0.0
O374 O 0.34127 0.73864 0.01533 0.0
C375 C 0.2481 0.71616 0.98888 0.0
C376 C 0.34661 0.6874 0.96277 0.0
O377 O 0.34192 0.67936 0.98026 0.0
O378 O 0.33472 0.71429 0.95634 0.0
C379 C 0.32296 0.66443 0.04094 0.0
O380 O 0.31064 0.69179 0.04867 0.0
C381 C 0.34639 0.7681 0.00981 0.0
Zn382 Zn 0.31552 0.7751 0.28501 0.0
Zn383 Zn 0.33853 0.81566 0.25646 0.0
O384 O 0.28974 0.82856 0.25766 0.0
O385 O 0.26985 0.79541 0.27967 0.0
O386 O 0.35784 0.84104 0.23453 0.0
O387 O 0.33173 0.73388 0.27019 0.0
O388 O 0.35108 0.7684 0.24883 0.0
C389 C 0.26563 0.81871 0.26774 0.0
C390 C 0.36515 0.82471 0.29801 0.0
O391 O 0.36388 0.83297 0.28025 0.0
O392 O 0.34765 0.8007 0.3037 0.0
C393 C 0.35258 0.87127 0.23053 0.0
O394 O 0.33185 0.88885 0.24108 0.0
C395 C 0.34765 0.739 0.25485 0.0
Zn396 Zn 0.2783 0.78951 0.48572 0.0
Zn397 Zn 0.26265 0.83231 0.51576 0.0
O398 O 0.31315 0.8346 0.51592 0.0
O399 O 0.32711 0.79978 0.49229 0.0
O400 O 0.2491 0.8617 0.53818 0.0
O401 O 0.25303 0.75238 0.49889 0.0
O402 O 0.24015 0.78873 0.52192 0.0
C403 C 0.33537 0.82076 0.50563 0.0
C404 C 0.24038 0.848 0.47421 0.0
O405 O 0.24222 0.855 0.49237 0.0
O406 O 0.25324 0.82138 0.46758 0.0
C407 C 0.25931 0.85773 0.55563 0.0
O408 O 0.28109 0.8343 0.55935 0.0
C409 C 0.23796 0.75958 0.51443 0.0
Zn410 Zn 0.27503 0.75576 0.74131 0.0
Zn411 Zn 0.22944 0.7343 0.76703 0.0
O412 O 0.22577 0.7848 0.76958 0.0
O413 O 0.26215 0.80299 0.74889 0.0
O414 O 0.19819 0.71671 0.7869 0.0
O415 O 0.31175 0.73119 0.75535 0.0
O416 O 0.27333 0.71145 0.77421 0.0
C417 C 0.23972 0.80878 0.76117 0.0
C418 C 0.22005 0.71769 0.72379 0.0
O419 O 0.20956 0.71769 0.74113 0.0
O420 O 0.24767 0.73104 0.72009 0.0
C421 C 0.20192 0.72362 0.80499 0.0
O422 O 0.22617 0.74362 0.81086 0.0
C423 C 0.3034 0.71225 0.76885 0.0
Zn424 Zn 0.80886 0.26182 0.53992 0.0
Zn425 Zn 0.85279 0.23547 0.51359 0.0
O426 O 0.86111 0.28545 0.51189 0.0
O427 O 0.82452 0.30727 0.53185 0.0
O428 O 0.88175 0.21336 0.49354 0.0
O429 O 0.77056 0.23866 0.52538 0.0
O430 O 0.80711 0.21821 0.50502 0.0
C431 C 0.84775 0.31082 0.51992 0.0
C432 C 0.85984 0.21906 0.55672 0.0
O433 O 0.86913 0.21631 0.53916 0.0
O434 O 0.83509 0.23711 0.56096 0.0
C435 C 0.90791 0.22498 0.48621 0.0
O436 O 0.91867 0.25458 0.49186 0.0
C437 C 0.77729 0.22069 0.51061 0.0
Zn438 Zn 0.79086 0.28508 0.76913 0.0
Zn439 Zn 0.80555 0.32627 0.73959 0.0
O440 O 0.75476 0.32975 0.74042 0.0
O441 O 0.74229 0.29334 0.76259 0.0
O442 O 0.82043 0.35199 0.71659 0.0
O443 O 0.81629 0.24701 0.75671 0.0
O444 O 0.82673 0.28147 0.73329 0.0
C445 C 0.73321 0.31479 0.75034 0.0
C446 C 0.82926 0.34405 0.78091 0.0
O447 O 0.82785 0.35012 0.7628 0.0
O448 O 0.81537 0.3183 0.78727 0.0
C449 C 0.81237 0.38106 0.71147 0.0
O450 O 0.79042 0.39791 0.72154 0.0
C451 C 0.82999 0.25302 0.74077 0.0
Zn452 Zn 0.77385 0.27035 0.03324 0.0
Zn453 Zn 0.72899 0.2941 0.00626 0.0
O454 O 0.72139 0.244 0.00485 0.0
O455 O 0.75899 0.2234 0.02501 0.0
O456 O 0.70079 0.31293 0.98455 0.0
O457 O 0.81207 0.29403 0.02014 0.0
O458 O 0.77415 0.31306 0.99974 0.0
C459 C 0.73474 0.21915 0.01307 0.0
C460 C 0.71981 0.31167 0.04898 0.0
O461 O 0.71052 0.31369 0.03118 0.0
O462 O 0.74573 0.29534 0.05355 0.0
C463 C 0.67648 0.29912 0.97537 0.0
O464 O 0.66648 0.26953 0.98041 0.0
C465 C 0.80422 0.31186 0.00579 0.0
Zn466 Zn 0.78875 0.23624 0.2342 0.0
Zn467 Zn 0.74663 0.21287 0.26194 0.0
O468 O 0.72864 0.25935 0.25708 0.0
O469 O 0.76409 0.28034 0.23666 0.0
O470 O 0.71894 0.19305 0.28278 0.0
O471 O 0.82839 0.22582 0.25211 0.0
O472 O 0.79315 0.20876 0.27374 0.0
C473 C 0.73832 0.2833 0.24683 0.0
C474 C 0.74782 0.17966 0.22147 0.0
O475 O 0.73773 0.18176 0.23886 0.0
O476 O 0.76925 0.20004 0.2156 0.0
C477 C 0.69464 0.20597 0.29169 0.0
O478 O 0.68476 0.23607 0.28738 0.0
C479 C 0.82285 0.21391 0.26864 0.0
H480 H 0.14312 0.89766 0.29795 0.0
H481 H 0.19737 0.97777 0.27284 0.0
H482 H 0.23474 0.93789 0.25727 0.0
H483 H 0.25698 0.88153 0.25532 0.0
H484 H 0.20594 0.80174 0.28303 0.0
H485 H 0.16172 0.83995 0.29255 0.0
C486 C 0.16261 0.90621 0.28864 0.0
C487 C 0.16778 0.94047 0.28662 0.0
C488 C 0.18465 0.8832 0.28031 0.0
C489 C 0.19325 0.95145 0.2747 0.0
C490 C 0.21457 0.92868 0.26583 0.0
C491 C 0.23574 0.87222 0.26295 0.0
C492 C 0.23498 0.83891 0.26867 0.0
C493 C 0.21128 0.89462 0.26917 0.0
C494 C 0.20726 0.82734 0.2786 0.0
C495 C 0.18208 0.84923 0.28416 0.0
H496 H 0.14652 0.64172 0.54065 0.0
H497 H 0.09668 0.72355 0.56919 0.0
H498 H 0.13833 0.76218 0.55766 0.0
H499 H 0.18794 0.77283 0.53898 0.0
H500 H 0.23657 0.6919 0.50878 0.0
H501 H 0.19657 0.65262 0.52163 0.0
C502 C 0.14496 0.66801 0.54438 0.0
C503 C 0.1186 0.67988 0.55568 0.0
C504 C 0.16877 0.69012 0.53747 0.0
C505 C 0.11658 0.71397 0.56031 0.0
C506 C 0.14045 0.736 0.55382 0.0
C507 C 0.19005 0.74655 0.53534 0.0
C508 C 0.21532 0.73527 0.52304 0.0
C509 C 0.16654 0.72436 0.54234 0.0
C510 C 0.21736 0.7012 0.51824 0.0
C511 C 0.19447 0.67876 0.52556 0.0
H512 H 0.42051 0.61375 0.78804 0.0
H513 H 0.33938 0.558 0.81116 0.0
H514 H 0.30089 0.60275 0.8032 0.0
H515 H 0.29009 0.65704 0.78911 0.0
H516 H 0.37093 0.7126 0.76545 0.0
H517 H 0.40993 0.66896 0.77475 0.0
C518 C 0.39444 0.61151 0.79143 0.0
C519 C 0.38278 0.58249 0.80002 0.0
C520 C 0.37248 0.63741 0.78694 0.0
C521 C 0.34887 0.57979 0.80419 0.0
C522 C 0.3269 0.60551 0.79983 0.0
C523 C 0.31631 0.65987 0.78623 0.0
C524 C 0.32759 0.68806 0.77663 0.0
C525 C 0.33843 0.63437 0.79116 0.0
C526 C 0.36161 0.69114 0.77282 0.0
C527 C 0.3839 0.66613 0.77805 0.0
H528 H 0.46083 0.83837 0.05879 0.0
H529 H 0.41106 0.92626 0.03794 0.0
H530 H 0.37006 0.89152 0.0205 0.0
H531 H 0.3485 0.83587 0.01083 0.0
H532 H 0.39516 0.74909 0.03502 0.0
H533 H 0.43632 0.784 0.05219 0.0
C534 C 0.44067 0.85027 0.05091 0.0
C535 C 0.43952 0.88514 0.04973 0.0
C536 C 0.41631 0.83028 0.04158 0.0
C537 C 0.41338 0.89955 0.03883 0.0
C538 C 0.38958 0.87969 0.02897 0.0
C539 C 0.36755 0.82472 0.02 0.0
C540 C 0.36889 0.78998 0.02157 0.0
C541 C 0.39091 0.845 0.03016 0.0
C542 C 0.39348 0.77579 0.03363 0.0
C543 C 0.41717 0.79571 0.04337 0.0
H544 H 0.10499 0.67758 0.95838 0.0
H545 H 0.13016 0.58844 0.98888 0.0
H546 H 0.17961 0.61553 0.00335 0.0
H547 H 0.21955 0.66114 0.00318 0.0
H548 H 0.19723 0.74869 0.97023 0.0
H549 H 0.14249 0.72608 0.96121 0.0
C550 C 0.12093 0.66455 0.96861 0.0
C551 C 0.11427 0.63119 0.9726 0.0
C552 C 0.14994 0.67988 0.97624 0.0
C553 C 0.1351 0.61416 0.98564 0.0
C554 C 0.16334 0.62959 0.99383 0.0
C555 C 0.20247 0.67568 0.99439 0.0
C556 C 0.21268 0.70635 0.98716 0.0
C557 C 0.17165 0.66198 0.98863 0.0
C558 C 0.19013 0.72485 0.97583 0.0
C559 C 0.15887 0.71187 0.97059 0.0
H560 H 0.44289 0.6415 0.21059 0.0
H561 H 0.37269 0.56882 0.22995 0.0
H562 H 0.34188 0.61271 0.24678 0.0
H563 H 0.33395 0.67238 0.25515 0.0
H564 H 0.4015 0.74437 0.23234 0.0
H565 H 0.4334 0.70009 0.21704 0.0
C566 C 0.42048 0.63507 0.21809 0.0
C567 C 0.41016 0.60173 0.21878 0.0
C568 C 0.4021 0.66045 0.22698 0.0
C569 C 0.38164 0.59413 0.22931 0.0
C570 C 0.36375 0.61929 0.2388 0.0
C571 C 0.35557 0.67827 0.24676 0.0
C572 C 0.36529 0.7116 0.24487 0.0
C573 C 0.37362 0.65261 0.23761 0.0
C574 C 0.39328 0.71895 0.23388 0.0
C575 C 0.4117 0.69364 0.22521 0.0
H576 H 0.45728 0.91569 0.50241 0.0
H577 H 0.48633 0.84309 0.45894 0.0
H578 H 0.44161 0.80609 0.46848 0.0
H579 H 0.38877 0.79924 0.48514 0.0
H580 H 0.35928 0.87266 0.52825 0.0
H581 H 0.41004 0.90397 0.52328 0.0
C582 C 0.45423 0.89138 0.49541 0.0
C583 C 0.47464 0.88218 0.47988 0.0
C584 C 0.42821 0.87054 0.50078 0.0
C585 C 0.47085 0.85059 0.47097 0.0
C586 C 0.44514 0.82958 0.47632 0.0
C587 C 0.39381 0.82163 0.49381 0.0
C588 C 0.36978 0.83397 0.50667 0.0
C589 C 0.42281 0.83996 0.49061 0.0
C590 C 0.37704 0.86276 0.51803 0.0
C591 C 0.40603 0.88086 0.51512 0.0
H592 H 0.14008 0.92517 0.75181 0.0
H593 H 0.21961 0.96269 0.71763 0.0
H594 H 0.25686 0.91956 0.72999 0.0
H595 H 0.263 0.86562 0.74561 0.0
H596 H 0.18267 0.8275 0.77922 0.0
H597 H 0.14993 0.87698 0.77254 0.0
C598 C 0.16584 0.92429 0.74751 0.0
C599 C 0.17714 0.94654 0.73368 0.0
C600 C 0.18684 0.89923 0.75446 0.0
C601 C 0.21053 0.94566 0.72827 0.0
C602 C 0.23169 0.92091 0.73523 0.0
C603 C 0.2387 0.86851 0.75193 0.0
C604 C 0.22498 0.84244 0.76244 0.0
C605 C 0.21962 0.89668 0.74763 0.0
C606 C 0.19371 0.84692 0.77084 0.0
C607 C 0.1748 0.87513 0.7669 0.0
H608 H 0.60846 0.40059 0.76762 0.0
H609 H 0.5793 0.31075 0.79549 0.0
H610 H 0.62585 0.28091 0.78081 0.0
H611 H 0.67963 0.2834 0.76472 0.0
H612 H 0.70904 0.37371 0.73713 0.0
H613 H 0.65705 0.40008 0.74645 0.0
C614 C 0.61197 0.37427 0.77003 0.0
C615 C 0.59101 0.35781 0.78272 0.0
C616 C 0.63884 0.35749 0.76169 0.0
C617 C 0.59531 0.32375 0.78574 0.0
C618 C 0.62198 0.30681 0.77745 0.0
C619 C 0.67428 0.30857 0.76031 0.0
C620 C 0.69849 0.32679 0.75063 0.0
C621 C 0.64464 0.32382 0.76606 0.0
C622 C 0.69097 0.35917 0.7447 0.0
C623 C 0.66135 0.37441 0.75019 0.0
H624 H 0.63409 0.10553 0.02566 0.0
H625 H 0.72384 0.05338 0.04249 0.0
H626 H 0.75707 0.09971 0.03183 0.0
H627 H 0.76007 0.1582 0.02183 0.0
H628 H 0.67034 0.20716 0.00226 0.0
H629 H 0.638 0.15783 0.00894 0.0
C630 C 0.66088 0.10329 0.02645 0.0
C631 C 0.67601 0.07604 0.03568 0.0
C632 C 0.68006 0.12958 0.01973 0.0
C633 C 0.71104 0.0745 0.03642 0.0
C634 C 0.73026 0.10093 0.0301 0.0
C635 C 0.73357 0.15774 0.01856 0.0
C636 C 0.71761 0.18658 0.01194 0.0
C637 C 0.71495 0.12917 0.02244 0.0
C638 C 0.68333 0.18542 0.00746 0.0
C639 C 0.66469 0.15727 0.01145 0.0
H640 H 0.92295 0.13904 0.3238 0.0
H641 H 0.99417 0.18406 0.28672 0.0
H642 H 0.94939 0.21404 0.2698 0.0
H643 H 0.88942 0.22335 0.26392 0.0
H644 H 0.81879 0.17858 0.30181 0.0
H645 H 0.86391 0.15295 0.32021 0.0
C646 C 0.92855 0.15572 0.31213 0.0
C647 C 0.96147 0.15923 0.30628 0.0
C648 C 0.90283 0.17277 0.30261 0.0
C649 C 0.96882 0.18111 0.29137 0.0
C650 C 0.94327 0.19807 0.28169 0.0
C651 C 0.88393 0.20833 0.27634 0.0
C652 C 0.85071 0.20257 0.28127 0.0
C653 C 0.91008 0.19352 0.28692 0.0
C654 C 0.84407 0.18332 0.29757 0.0
C655 C 0.86986 0.16851 0.3081 0.0
H656 H 0.94096 0.43488 0.52393 0.0
H657 H 0.8543 0.47832 0.54997 0.0
H658 H 0.82159 0.42908 0.54049 0.0
H659 H 0.82064 0.37034 0.53005 0.0
H660 H 0.90794 0.32623 0.50489 0.0
H661 H 0.93723 0.37921 0.50844 0.0
C662 C 0.9147 0.43377 0.52709 0.0
C663 C 0.90008 0.45982 0.53784 0.0
C664 C 0.89632 0.40513 0.52198 0.0
C665 C 0.86601 0.45852 0.54168 0.0
C666 C 0.84741 0.43025 0.53643 0.0
C667 C 0.84585 0.37248 0.52497 0.0
C668 C 0.86233 0.3442 0.51765 0.0
C669 C 0.86273 0.40285 0.52737 0.0
C670 C 0.89476 0.34752 0.51076 0.0
C671 C 0.91162 0.37778 0.5129 0.0
H672 H 0.65145 0.14028 0.47954 0.0
H673 H 0.728 0.08073 0.45309 0.0
H674 H 0.77055 0.11895 0.46627 0.0
H675 H 0.78597 0.16821 0.48592 0.0
H676 H 0.70985 0.22692 0.51353 0.0
H677 H 0.66698 0.19033 0.49899 0.0
C678 C 0.67745 0.13588 0.47657 0.0
C679 C 0.68668 0.10776 0.46544 0.0
C680 C 0.70175 0.1578 0.48431 0.0
C681 C 0.72042 0.10204 0.46184 0.0
C682 C 0.74469 0.12395 0.46926 0.0
C683 C 0.75999 0.17326 0.48862 0.0
C684 C 0.75109 0.20029 0.50075 0.0
C685 C 0.73563 0.15178 0.4806 0.0
C686 C 0.71733 0.20625 0.50425 0.0
C687 C 0.69284 0.18531 0.49598 0.0
H688 H 0.94495 0.1736 0.70016 0.0
H689 H 0.91745 0.10027 0.74149 0.0
H690 H 0.87244 0.13627 0.75305 0.0
H691 H 0.84263 0.18965 0.75209 0.0
H692 H 0.86951 0.26188 0.70965 0.0
H693 H 0.91268 0.22501 0.69758 0.0
C694 C 0.92904 0.16569 0.71173 0.0
C695 C 0.93452 0.13485 0.72026 0.0
C696 C 0.90306 0.18614 0.71796 0.0
C697 C 0.9136 0.12421 0.73492 0.0
C698 C 0.88794 0.1447 0.74146 0.0
C699 C 0.85768 0.19718 0.74007 0.0
C700 C 0.85296 0.22862 0.73192 0.0
C701 C 0.88261 0.17586 0.73318 0.0
C702 C 0.87258 0.23787 0.71625 0.0
C703 C 0.89744 0.21688 0.70938 0.0
H704 H 0.92546 0.39483 0.9755 0.0
H705 H 0.84471 0.45433 0.95315 0.0
H706 H 0.80445 0.41585 0.96622 0.0
H707 H 0.79215 0.36578 0.98405 0.0
H708 H 0.87225 0.30703 0.00793 0.0
H709 H 0.9129 0.34457 0.99404 0.0
C710 C 0.89903 0.39923 0.97349 0.0
C711 C 0.88801 0.42738 0.96344 0.0
C712 C 0.87599 0.37712 0.98122 0.0
C713 C 0.85374 0.43304 0.96104 0.0
C714 C 0.83074 0.41096 0.9684 0.0
C715 C 0.81851 0.36096 0.98612 0.0
C716 C 0.82917 0.33348 0.99688 0.0
C717 C 0.84158 0.38297 0.9785 0.0
C718 C 0.86341 0.32797 0.99966 0.0
C719 C 0.88663 0.34944 0.99175 0.0
H720 H 0.6631 0.41079 0.21897 0.0
H721 H 0.57913 0.34657 0.22848 0.0
H722 H 0.61566 0.30617 0.24349 0.0
H723 H 0.67173 0.28568 0.25026 0.0
H724 H 0.75641 0.34594 0.23678 0.0
H725 H 0.71939 0.39102 0.22685 0.0
C726 C 0.65269 0.38793 0.22421 0.0
C727 C 0.61821 0.38197 0.22241 0.0
C728 C 0.67407 0.36386 0.23205 0.0
C729 C 0.60534 0.35241 0.22985 0.0
C730 C 0.62631 0.32896 0.23831 0.0
C731 C 0.68211 0.30896 0.24556 0.0
C732 C 0.71671 0.31255 0.24427 0.0
C733 C 0.66074 0.33405 0.23904 0.0
C734 C 0.72981 0.34264 0.23787 0.0
C735 C 0.70866 0.36832 0.23212 0.0
H736 H 0.16854 0.96396 0.42972 0.0
H737 H 0.19373 0.90262 0.37987 0.0
H738 H 0.21934 0.86177 0.40139 0.0
H739 H 0.23478 0.84378 0.43445 0.0
H740 H 0.20925 0.90588 0.48407 0.0
H741 H 0.18378 0.94617 0.46251 0.0
C742 C 0.18001 0.94185 0.42355 0.0
C743 C 0.17946 0.93644 0.40324 0.0
C744 C 0.19453 0.91854 0.43596 0.0
C745 C 0.19373 0.90728 0.39548 0.0
C746 C 0.20843 0.88398 0.40776 0.0
C747 C 0.22356 0.86606 0.44056 0.0
C748 C 0.224 0.8717 0.46088 0.0
C749 C 0.20892 0.88933 0.42805 0.0
C750 C 0.20935 0.9008 0.46851 0.0
C751 C 0.19477 0.92395 0.45619 0.0
H752 H 0.15208 0.64563 0.65052 0.0
H753 H 0.06395 0.67611 0.68049 0.0
H754 H 0.0981 0.70178 0.70679 0.0
H755 H 0.15305 0.71448 0.72142 0.0
H756 H 0.24134 0.68758 0.69039 0.0
H757 H 0.20723 0.66152 0.66424 0.0
C758 C 0.14055 0.65807 0.66281 0.0
C759 C 0.10578 0.65904 0.66377 0.0
C760 C 0.16031 0.6732 0.67762 0.0
C761 C 0.09077 0.67532 0.67956 0.0
C762 C 0.11024 0.68982 0.69457 0.0
C763 C 0.16476 0.70283 0.70894 0.0
C764 C 0.19956 0.70256 0.70786 0.0
C765 C 0.14502 0.6887 0.6938 0.0
C766 C 0.21453 0.68799 0.69149 0.0
C767 C 0.19508 0.67308 0.67658 0.0
H768 H 0.43016 0.57383 0.92317 0.0
H769 H 0.37868 0.60841 0.87174 0.0
H770 H 0.35215 0.65238 0.89115 0.0
H771 H 0.34238 0.67982 0.92314 0.0
H772 H 0.39301 0.64306 0.97439 0.0
H773 H 0.42157 0.60158 0.95459 0.0
C774 C 0.41346 0.59126 0.91617 0.0
C775 C 0.40644 0.58799 0.89609 0.0
C776 C 0.39821 0.61615 0.92738 0.0
C777 C 0.38424 0.61032 0.88725 0.0
C778 C 0.36921 0.63552 0.89831 0.0
C779 C 0.35997 0.66296 0.92988 0.0
C780 C 0.36557 0.66447 0.95017 0.0
C781 C 0.37585 0.63855 0.91844 0.0
C782 C 0.38814 0.64226 0.95879 0.0
C783 C 0.40449 0.61851 0.9475 0.0
H784 H 0.4262 0.95747 0.16883 0.0
H785 H 0.47899 0.86508 0.16088 0.0
H786 H 0.44407 0.83883 0.18468 0.0
H787 H 0.40007 0.84249 0.20845 0.0
H788 H 0.34747 0.93485 0.21725 0.0
H789 H 0.38056 0.96065 0.19227 0.0
C790 C 0.42976 0.93151 0.17219 0.0
C791 C 0.45525 0.91328 0.16321 0.0
C792 C 0.40972 0.9166 0.18604 0.0
C793 C 0.45982 0.87974 0.1678 0.0
C794 C 0.4398 0.86468 0.18135 0.0
C795 C 0.39564 0.86824 0.20488 0.0
C796 C 0.37135 0.88671 0.21478 0.0
C797 C 0.41494 0.88296 0.1907 0.0
C798 C 0.36605 0.92005 0.2099 0.0
C799 C 0.38499 0.93483 0.19562 0.0
H800 H 0.12668 0.66325 0.87593 0.0
H801 H 0.07783 0.60791 0.82883 0.0
H802 H 0.11001 0.6376 0.80514 0.0
H803 H 0.153 0.67805 0.79774 0.0
H804 H 0.20257 0.73341 0.84461 0.0
H805 H 0.1689 0.70527 0.86836 0.0
C806 C 0.1229 0.65795 0.86047 0.0
C807 C 0.1001 0.63318 0.85418 0.0
C808 C 0.14162 0.6751 0.84686 0.0
C809 C 0.09563 0.62643 0.83409 0.0
C810 C 0.1139 0.64352 0.82051 0.0
C811 C 0.15637 0.68414 0.81314 0.0
C812 C 0.18037 0.70777 0.81935 0.0
C813 C 0.13716 0.66767 0.82673 0.0
C814 C 0.18434 0.71528 0.83939 0.0
C815 C 0.1651 0.69917 0.85301 0.0
H816 H 0.39904 0.54719 0.08121 0.0
H817 H 0.36986 0.60123 0.13298 0.0
H818 H 0.33783 0.6401 0.11305 0.0
H819 H 0.3225 0.66143 0.08067 0.0
H820 H 0.35257 0.60686 0.02908 0.0
H821 H 0.37974 0.56551 0.04918 0.0
C822 C 0.38543 0.56736 0.0881 0.0
C823 C 0.38701 0.57164 0.10845 0.0
C824 C 0.36744 0.58965 0.07658 0.0
C825 C 0.36888 0.59746 0.1173 0.0
C826 C 0.35078 0.61978 0.10591 0.0
C827 C 0.33467 0.64031 0.07383 0.0
C828 C 0.33583 0.63757 0.05338 0.0
C829 C 0.35051 0.61654 0.0855 0.0
C830 C 0.35149 0.60984 0.04477 0.0
C831 C 0.36712 0.58612 0.05625 0.0
H832 H 0.45787 0.92402 0.3463 0.0
H833 H 0.43259 0.8594 0.39288 0.0
H834 H 0.39856 0.82512 0.37009 0.0
H835 H 0.37576 0.8141 0.33686 0.0
H836 H 0.40228 0.87928 0.29058 0.0
H837 H 0.43594 0.91285 0.3134 0.0
C838 C 0.44458 0.90265 0.35151 0.0
C839 C 0.44735 0.89441 0.37123 0.0
C840 C 0.4254 0.88312 0.33838 0.0
C841 C 0.43076 0.86618 0.37772 0.0
C842 C 0.4113 0.84666 0.36472 0.0
C843 C 0.38896 0.8356 0.33177 0.0
C844 C 0.38639 0.84412 0.31202 0.0
C845 C 0.40844 0.85493 0.345 0.0
C846 C 0.40375 0.87205 0.30567 0.0
C847 C 0.42301 0.89137 0.31871 0.0
H848 H 0.2013 0.92238 0.63253 0.0
H849 H 0.13498 0.96594 0.59 0.0
H850 H 0.16563 0.93962 0.56363 0.0
H851 H 0.20928 0.90233 0.55267 0.0
H852 H 0.27516 0.85675 0.59471 0.0
H853 H 0.24697 0.88603 0.62123 0.0
C854 C 0.19386 0.92625 0.61747 0.0
C855 C 0.16576 0.94573 0.61318 0.0
C856 C 0.21143 0.91068 0.60232 0.0
C857 C 0.15622 0.95058 0.59364 0.0
C858 C 0.17379 0.93566 0.57856 0.0
C859 C 0.21772 0.89893 0.56761 0.0
C860 C 0.24422 0.87727 0.57168 0.0
C861 C 0.20112 0.91533 0.58273 0.0
C862 C 0.25475 0.87322 0.59116 0.0
C863 C 0.23861 0.88991 0.60634 0.0
H864 H 0.62548 0.39004 0.90747 0.0
H865 H 0.54824 0.31555 0.90354 0.0
H866 H 0.57616 0.28443 0.92927 0.0
H867 H 0.62092 0.28009 0.95426 0.0
H868 H 0.69617 0.35665 0.95902 0.0
H869 H 0.67011 0.38554 0.93194 0.0
C870 C 0.61457 0.3671 0.91229 0.0
C871 C 0.58464 0.35536 0.90362 0.0
C872 C 0.63021 0.34984 0.92744 0.0
C873 C 0.57141 0.32508 0.90976 0.0
C874 C 0.5872 0.30741 0.92464 0.0
C875 C 0.63164 0.30305 0.94935 0.0
C876 C 0.66037 0.31621 0.95877 0.0
C877 C 0.61636 0.31981 0.93379 0.0
C878 C 0.67396 0.346 0.95217 0.0
C879 C 0.65913 0.36255 0.93662 0.0
H880 H 0.66632 0.06753 0.17637 0.0
H881 H 0.70324 0.11838 0.12669 0.0
H882 H 0.73478 0.1566 0.14843 0.0
H883 H 0.75004 0.17671 0.18172 0.0
H884 H 0.71182 0.12554 0.23104 0.0
H885 H 0.6832 0.08585 0.20921 0.0
C886 C 0.68173 0.08659 0.17025 0.0
C887 C 0.68253 0.09002 0.14995 0.0
C888 C 0.69958 0.10842 0.18278 0.0
C889 C 0.70201 0.11538 0.14229 0.0
C890 C 0.72013 0.13714 0.15471 0.0
C891 C 0.73575 0.15665 0.18767 0.0
C892 C 0.73301 0.1542 0.20799 0.0
C893 C 0.71885 0.13407 0.175 0.0
C894 C 0.71421 0.12817 0.21547 0.0
C895 C 0.6978 0.10543 0.203 0.0
H896 H 0.96543 0.12332 0.42432 0.0
H897 H 0.03503 0.20343 0.41712 0.0
H898 H 0.0073 0.23642 0.4423 0.0
H899 H 0.96271 0.24271 0.46611 0.0
H900 H 0.89281 0.16245 0.47261 0.0
H901 H 0.92102 0.1296 0.4478 0.0
C902 C 0.97433 0.14815 0.42808 0.0
C903 C 0.00217 0.16091 0.41876 0.0
C904 C 0.95819 0.16701 0.44246 0.0
C905 C 0.01381 0.19287 0.42416 0.0
C906 C -0.00213 0.21182 0.4385 0.0
C907 C 0.95367 0.21803 0.46212 0.0
C908 C 0.92563 0.20516 0.47124 0.0
C909 C 0.96999 0.19915 0.44774 0.0
C910 C 0.91429 0.17308 0.46585 0.0
C911 C 0.9304 0.15421 0.45164 0.0
H912 H 0.90912 0.42924 0.64699 0.0
H913 H 0.85076 0.51846 0.6532 0.0
H914 H 0.81503 0.49104 0.67628 0.0
H915 H 0.80291 0.4428 0.69646 0.0
H916 H 0.86198 0.35384 0.69003 0.0
H917 H 0.8948 0.38008 0.66539 0.0
C918 C 0.88851 0.44262 0.65337 0.0
C919 C 0.88275 0.47586 0.64852 0.0
C920 C 0.86829 0.42681 0.6667 0.0
C921 C 0.8556 0.49276 0.65661 0.0
C922 C 0.8353 0.47717 0.66991 0.0
C923 C 0.82278 0.42907 0.68956 0.0
C924 C 0.83009 0.39649 0.69529 0.0
C925 C 0.84177 0.44436 0.67533 0.0
C926 C 0.85583 0.37901 0.68605 0.0
C927 C 0.87472 0.394 0.67193 0.0
H928 H 0.61117 0.143 0.35848 0.0
H929 H 0.67946 0.06225 0.34798 0.0
H930 H 0.7063 0.09401 0.32299 0.0
H931 H 0.71022 0.14422 0.30394 0.0
H932 H 0.64179 0.22509 0.3138 0.0
H933 H 0.61491 0.19355 0.33905 0.0
C934 C 0.63177 0.13228 0.35062 0.0
C935 C 0.64336 0.10033 0.35519 0.0
C936 C 0.64701 0.15062 0.33612 0.0
C937 C 0.67036 0.08697 0.34501 0.0
C938 C 0.6856 0.10503 0.33061 0.0
C939 C 0.6894 0.15504 0.31157 0.0
C940 C 0.67805 0.18701 0.30694 0.0
C941 C 0.67414 0.13684 0.32605 0.0
C942 C 0.65106 0.20054 0.31704 0.0
C943 C 0.63567 0.18251 0.3315 0.0
H944 H 0.92529 0.15352 0.63105 0.0
H945 H 0.9764 0.09806 0.58634 0.0
H946 H 0.94619 0.12826 0.56115 0.0
H947 H 0.90594 0.17072 0.55181 0.0
H948 H 0.85403 0.22611 0.59627 0.0
H949 H 0.88408 0.1958 0.62158 0.0
C950 C 0.92983 0.14817 0.61578 0.0
C951 C 0.95295 0.12355 0.61055 0.0
C952 C 0.91235 0.16565 0.60135 0.0
C953 C 0.95839 0.11659 0.59073 0.0
C954 C 0.94129 0.13398 0.57632 0.0
C955 C 0.9012 0.17626 0.56703 0.0
C956 C 0.87786 0.20075 0.57212 0.0
C957 C 0.9183 0.1586 0.58147 0.0
C958 C 0.87186 0.20737 0.59193 0.0
C959 C 0.88904 0.19007 0.60642 0.0
H960 H 0.91742 0.44978 0.82764 0.0
H961 H 0.87145 0.40373 0.87625 0.0
H962 H 0.83998 0.36657 0.85385 0.0
H963 H 0.82673 0.34645 0.82047 0.0
H964 H 0.87214 0.39356 0.7719 0.0
H965 H 0.90283 0.43096 0.7943 0.0
C966 C 0.90059 0.43149 0.83329 0.0
C967 C 0.89688 0.42923 0.85351 0.0
C968 C 0.88261 0.4104 0.82037 0.0
C969 C 0.87456 0.40594 0.86071 0.0
C970 C 0.85673 0.38464 0.84793 0.0
C971 C 0.84337 0.36487 0.81479 0.0
C972 C 0.8473 0.36704 0.79455 0.0
C973 C 0.86074 0.38651 0.82773 0.0
C974 C 0.86867 0.39131 0.78741 0.0
C975 C 0.88627 0.4127 0.8002 0.0
H976 H 0.6455 0.36785 0.12311 0.0
H977 H 0.582 0.4079 0.07799 0.0
H978 H 0.61622 0.38207 0.05299 0.0
H979 H 0.66447 0.34914 0.04391 0.0
H980 H 0.72917 0.3094 0.08866 0.0
H981 H 0.69434 0.33418 0.11382 0.0
C982 C 0.63911 0.37057 0.10779 0.0
C983 C 0.61139 0.38974 0.10235 0.0
C984 C 0.65921 0.35598 0.09345 0.0
C985 C 0.60342 0.39344 0.08248 0.0
C986 C 0.62294 0.37869 0.0682 0.0
C987 C 0.67108 0.34588 0.05916 0.0
C988 C 0.69947 0.32746 0.06434 0.0
C989 C 0.65102 0.36016 0.07351 0.0
C990 C 0.70753 0.32355 0.08421 0.0
C991 C 0.68756 0.33763 0.09863 0.0
loop_
_geom_bond_atom_site_label_1
_geom_bond_atom_site_label_2
_geom_bond_distance
_geom_bond_site_symmetry_2
_ccdc_geom_bond_type
C0 C1 1.384 . S
C0 C2 1.384 . S
C0 H28 0.931 . S
C1 C0 1.384 . S
C1 C4 1.382 . S
C2 C0 1.384 . S
C2 C3 1.381 . S
C2 H29 0.930 . S
C3 C2 1.381 . S
C3 C5 1.381 1_565 S
C3 C6 1.487 1_565 S
C4 C1 1.382 . S
C4 C5 1.387 1_565 S
C4 H30 0.930 1_565 S
C5 C3 1.381 1_545 S
C5 C4 1.387 1_545 S
C5 H31 0.931 . S
C6 C3 1.487 1_545 S
C6 C13 1.399 . S
C6 N44 1.343 . S
C7 C8 1.384 . S
C7 C9 1.384 . S
C7 H32 0.931 . S
C8 C7 1.384 . S
C8 C11 1.382 . S
C9 C7 1.384 . S
C9 C10 1.381 . S
C9 H33 0.930 . S
C10 C9 1.381 . S
C10 C12 1.381 . S
C10 C13 1.487 1_565 S
C11 C8 1.382 . S
C11 C12 1.387 . S
C11 H34 0.930 . S
C12 C10 1.381 . S
C12 C11 1.387 . S
C12 H35 0.931 . S
C13 C6 1.399 . S
C13 C10 1.487 1_545 S
C13 N45 1.343 . S
C14 C15 1.384 . S
C14 C16 1.384 1_655 S
C14 H36 0.931 . S
C15 C14 1.384 . S
C15 C18 1.382 . S
C16 C14 1.384 1_455 S
C16 C17 1.381 . S
C16 H37 0.930 . S
C17 C16 1.381 . S
C17 C19 1.381 . S
C17 C20 1.487 . S
C18 C15 1.382 . S
C18 C19 1.387 1_655 S
C18 H38 0.930 . S
C19 C17 1.381 . S
C19 C18 1.387 1_455 S
C19 H39 0.931 . S
C20 C17 1.487 . S
C20 C27 1.399 . S
C20 N45 1.343 . S
C21 C22 1.384 . S
C21 C23 1.384 . S
C21 H40 0.931 . S
C22 C21 1.384 . S
C22 C25 1.382 1_655 S
C23 C21 1.384 . S
C23 C24 1.381 1_655 S
C23 H41 0.930 . S
C24 C23 1.381 1_455 S
C24 C26 1.381 . S
C24 C27 1.487 . S
C25 C22 1.382 1_455 S
C25 C26 1.387 . S
C25 H42 0.930 . S
C26 C24 1.381 . S
C26 C25 1.387 . S
C26 H43 0.931 . S
C27 C20 1.399 . S
C27 C24 1.487 . S
C27 N44 1.343 . S
H28 C0 0.931 . S
H29 C2 0.930 . S
H30 C4 0.930 1_545 S
H31 C5 0.931 . S
H32 C7 0.931 . S
H33 C9 0.930 . S
H34 C11 0.930 . S
H35 C12 0.931 . S
H36 C14 0.931 . S
H37 C16 0.930 . S
H38 C18 0.930 . S
H39 C19 0.931 . S
H40 C21 0.931 . S
H41 C23 0.930 . S
H42 C25 0.930 . S
H43 C26 0.931 . S
N44 C6 1.343 . S
N44 C27 1.343 . S
N45 C13 1.343 . S
N45 C20 1.343 . S
C46 C47 1.384 . S
C46 C48 1.384 . S
C46 H74 0.931 . S
C47 C46 1.384 . S
C47 C50 1.382 . S
C48 C46 1.384 . S
C48 C49 1.381 . S
C48 H75 0.930 . S
C49 C48 1.381 . S
C49 C51 1.381 . S
C49 C52 1.487 . S
C50 C47 1.382 . S
C50 C51 1.387 . S
C50 H76 0.930 . S
C51 C49 1.381 . S
C51 C50 1.387 . S
C51 H77 0.931 1_655 S
C52 C49 1.487 . S
C52 C59 1.399 . S
C52 N90 1.343 1_655 S
C53 C54 1.384 . S
C53 C55 1.384 . S
C53 H78 0.931 . S
C54 C53 1.384 . S
C54 C57 1.382 . S
C55 C53 1.384 . S
C55 C56 1.381 . S
C55 H79 0.930 . S
C56 C55 1.381 . S
C56 C58 1.381 . S
C56 C59 1.487 . S
C57 C54 1.382 . S
C57 C58 1.387 . S
C57 H80 0.930 . S
C58 C56 1.381 . S
C58 C57 1.387 . S
C58 H81 0.931 . S
C59 C52 1.399 . S
C59 C56 1.487 . S
C59 N91 1.343 1_655 S
C60 C61 1.384 . S
C60 C62 1.384 . S
C60 H82 0.931 . S
C61 C60 1.384 . S
C61 C64 1.382 . S
C62 C60 1.384 . S
C62 C63 1.381 . S
C62 H83 0.930 . S
C63 C62 1.381 . S
C63 C65 1.381 . S
C63 C66 1.487 . S
C64 C61 1.382 . S
C64 C65 1.387 . S
C64 H84 0.930 . S
C65 C63 1.381 . S
C65 C64 1.387 . S
C65 H85 0.931 . S
C66 C63 1.487 . S
C66 C73 1.399 . S
C66 N91 1.343 . S
C67 C68 1.384 . S
C67 C69 1.384 . S
C67 H86 0.931 . S
C68 C67 1.384 . S
C68 C71 1.382 . S
C69 C67 1.384 . S
C69 C70 1.381 . S
C69 H87 0.930 . S
C70 C69 1.381 . S
C70 C72 1.381 . S
C70 C73 1.487 . S
C71 C68 1.382 . S
C71 C72 1.387 . S
C71 H88 0.930 . S
C72 C70 1.381 . S
C72 C71 1.387 . S
C72 H89 0.931 . S
C73 C66 1.399 . S
C73 C70 1.487 . S
C73 N90 1.343 . S
H74 C46 0.931 . S
H75 C48 0.930 . S
H76 C50 0.930 . S
H77 C51 0.931 1_455 S
H78 C53 0.931 . S
H79 C55 0.930 . S
H80 C57 0.930 . S
H81 C58 0.931 . S
H82 C60 0.931 . S
H83 C62 0.930 . S
H84 C64 0.930 . S
H85 C65 0.931 . S
H86 C67 0.931 . S
H87 C69 0.930 . S
H88 C71 0.930 . S
H89 C72 0.931 . S
N90 C52 1.343 1_455 S
N90 C73 1.343 . S
N91 C59 1.343 1_455 S
N91 C66 1.343 . S
C92 C93 1.384 . S
C92 C94 1.384 . S
C92 H120 0.931 . S
C93 C92 1.384 . S
C93 C96 1.382 . S
C94 C92 1.384 . S
C94 C95 1.381 . S
C94 H121 0.930 . S
C95 C94 1.381 . S
C95 C97 1.381 . S
C95 C98 1.487 . S
C96 C93 1.382 . S
C96 C97 1.387 . S
C96 H122 0.930 . S
C97 C95 1.381 . S
C97 C96 1.387 . S
C97 H123 0.931 . S
C98 C95 1.487 . S
C98 C105 1.399 . S
C98 N136 1.343 . S
C99 C100 1.384 . S
C99 C101 1.384 . S
C99 H124 0.931 . S
C100 C99 1.384 . S
C100 C103 1.382 . S
C101 C99 1.384 . S
C101 C102 1.381 . S
C101 H125 0.930 . S
C102 C101 1.381 . S
C102 C104 1.381 . S
C102 C105 1.487 . S
C103 C100 1.382 . S
C103 C104 1.387 . S
C103 H126 0.930 . S
C104 C102 1.381 . S
C104 C103 1.387 . S
C104 H127 0.931 . S
C105 C98 1.399 . S
C105 C102 1.487 . S
C105 N137 1.343 . S
C106 C107 1.384 . S
C106 C108 1.384 . S
C106 H128 0.931 . S
C107 C106 1.384 . S
C107 C110 1.382 . S
C108 C106 1.384 . S
C108 C109 1.381 . S
C108 H129 0.930 . S
C109 C108 1.381 . S
C109 C111 1.381 . S
C109 C112 1.487 . S
C110 C107 1.382 . S
C110 C111 1.387 . S
C110 H130 0.930 . S
C111 C109 1.381 . S
C111 C110 1.387 . S
C111 H131 0.931 . S
C112 C109 1.487 . S
C112 C119 1.399 . S
C112 N137 1.343 . S
C113 C114 1.384 . S
C113 C115 1.384 . S
C113 H132 0.931 . S
C114 C113 1.384 . S
C114 C117 1.382 . S
C115 C113 1.384 . S
C115 C116 1.381 . S
C115 H133 0.930 . S
C116 C115 1.381 . S
C116 C118 1.381 . S
C116 C119 1.487 . S
C117 C114 1.382 . S
C117 C118 1.387 . S
C117 H134 0.930 . S
C118 C116 1.381 . S
C118 C117 1.387 . S
C118 H135 0.931 . S
C119 C112 1.399 . S
C119 C116 1.487 . S
C119 N136 1.343 . S
H120 C92 0.931 . S
H121 C94 0.930 . S
H122 C96 0.930 . S
H123 C97 0.931 . S
H124 C99 0.931 . S
H125 C101 0.930 . S
H126 C103 0.930 . S
H127 C104 0.931 . S
H128 C106 0.931 . S
H129 C108 0.930 . S
H130 C110 0.930 . S
H131 C111 0.931 . S
H132 C113 0.931 . S
H133 C115 0.930 . S
H134 C117 0.930 . S
H135 C118 0.931 . S
N136 C98 1.343 . S
N136 C119 1.343 . S
N137 C105 1.343 . S
N137 C112 1.343 . S
C138 C139 1.384 . S
C138 C140 1.384 . S
C138 H166 0.931 . S
C139 C138 1.384 . S
C139 C142 1.382 . S
C140 C138 1.384 . S
C140 C141 1.381 . S
C140 H167 0.930 . S
C141 C140 1.381 . S
C141 C143 1.381 . S
C141 C144 1.487 . S
C142 C139 1.382 . S
C142 C143 1.387 . S
C142 H168 0.930 . S
C143 C141 1.381 . S
C143 C142 1.387 . S
C143 H169 0.931 . S
C144 C141 1.487 . S
C144 C151 1.399 . S
C144 N182 1.343 1_565 S
C145 C146 1.384 . S
C145 C147 1.384 . S
C145 H170 0.931 . S
C146 C145 1.384 . S
C146 C149 1.382 . S
C147 C145 1.384 . S
C147 C148 1.381 . S
C147 H171 0.930 . S
C148 C147 1.381 . S
C148 C150 1.381 . S
C148 C151 1.487 . S
C149 C146 1.382 . S
C149 C150 1.387 . S
C149 H172 0.930 . S
C150 C148 1.381 . S
C150 C149 1.387 . S
C150 H173 0.931 . S
C151 C144 1.399 . S
C151 C148 1.487 . S
C151 N183 1.343 . S
C152 C153 1.384 . S
C152 C154 1.384 . S
C152 H174 0.931 . S
C153 C152 1.384 . S
C153 C156 1.382 . S
C154 C152 1.384 . S
C154 C155 1.381 . S
C154 H175 0.930 . S
C155 C154 1.381 . S
C155 C157 1.381 . S
C155 C158 1.487 . S
C156 C153 1.382 . S
C156 C157 1.387 . S
C156 H176 0.930 . S
C157 C155 1.381 . S
C157 C156 1.387 . S
C157 H177 0.931 . S
C158 C155 1.487 . S
C158 C165 1.399 . S
C158 N183 1.343 1_545 S
C159 C160 1.384 . S
C159 C161 1.384 . S
C159 H178 0.931 . S
C160 C159 1.384 . S
C160 C163 1.382 . S
C161 C159 1.384 . S
C161 C162 1.381 . S
C161 H179 0.930 . S
C162 C161 1.381 . S
C162 C164 1.381 . S
C162 C165 1.487 . S
C163 C160 1.382 . S
C163 C164 1.387 . S
C163 H180 0.930 . S
C164 C162 1.381 . S
C164 C163 1.387 . S
C164 H181 0.931 . S
C165 C158 1.399 . S
C165 C162 1.487 . S
C165 N182 1.343 . S
H166 C138 0.931 . S
H167 C140 0.930 . S
H168 C142 0.930 . S
H169 C143 0.931 . S
H170 C145 0.931 . S
H171 C147 0.930 . S
H172 C149 0.930 . S
H173 C150 0.931 . S
H174 C152 0.931 . S
H175 C154 0.930 . S
H176 C156 0.930 . S
H177 C157 0.931 . S
H178 C159 0.931 . S
H179 C161 0.930 . S
H180 C163 0.930 . S
H181 C164 0.931 . S
N182 C144 1.343 1_545 S
N182 C165 1.343 . S
N183 C151 1.343 . S
N183 C158 1.343 1_565 S
C184 C185 1.384 . S
C184 C186 1.384 . S
C184 H212 0.931 . S
C185 C184 1.384 . S
C185 C188 1.382 . S
C186 C184 1.384 . S
C186 C187 1.381 . S
C186 H213 0.930 . S
C187 C186 1.381 . S
C187 C189 1.381 . S
C187 C190 1.487 . S
C188 C185 1.382 . S
C188 C189 1.387 . S
C188 H214 0.930 . S
C189 C187 1.381 . S
C189 C188 1.387 . S
C189 H215 0.931 . S
C190 C187 1.487 . S
C190 C197 1.399 . S
C190 N228 1.360 . S
C191 C192 1.384 . S
C191 C193 1.384 . S
C191 H216 0.931 . S
C192 C191 1.384 . S
C192 C195 1.382 . S
C193 C191 1.384 . S
C193 C194 1.381 . S
C193 H217 0.930 . S
C194 C193 1.381 . S
C194 C196 1.381 . S
C194 C197 1.487 . S
C195 C192 1.382 . S
C195 C196 1.387 . S
C195 H218 0.930 . S
C196 C194 1.381 . S
C196 C195 1.387 . S
C196 H219 0.931 . S
C197 C190 1.399 . S
C197 C194 1.487 . S
C197 N229 1.330 1_455 S
C198 C199 1.384 . S
C198 C200 1.384 . S
C198 H220 0.931 . S
C199 C198 1.384 . S
C199 C202 1.382 . S
C200 C198 1.384 . S
C200 C201 1.381 . S
C200 H221 0.930 . S
C201 C200 1.381 . S
C201 C203 1.381 . S
C201 C204 1.487 . S
C202 C199 1.382 . S
C202 C203 1.387 . S
C202 H222 0.930 . S
C203 C201 1.381 . S
C203 C202 1.387 . S
C203 H223 0.931 . S
C204 C201 1.487 . S
C204 C211 1.399 . S
C204 N229 1.355 . S
C205 C206 1.384 . S
C205 C207 1.384 . S
C205 H224 0.931 . S
C206 C205 1.384 . S
C206 C209 1.382 . S
C207 C205 1.384 . S
C207 C208 1.381 . S
C207 H225 0.930 . S
C208 C207 1.381 . S
C208 C210 1.381 . S
C208 C211 1.487 . S
C209 C206 1.382 . S
C209 C210 1.387 . S
C209 H226 0.930 . S
C210 C208 1.381 . S
C210 C209 1.387 . S
C210 H227 0.931 . S
C211 C204 1.399 . S
C211 C208 1.487 . S
C211 N228 1.324 1_655 S
H212 C184 0.931 . S
H213 C186 0.930 . S
H214 C188 0.930 . S
H215 C189 0.931 . S
H216 C191 0.931 . S
H217 C193 0.930 . S
H218 C195 0.930 . S
H219 C196 0.931 . S
H220 C198 0.931 . S
H221 C200 0.930 . S
H222 C202 0.930 . S
H223 C203 0.931 . S
H224 C205 0.931 . S
H225 C207 0.930 . S
H226 C209 0.930 . S
H227 C210 0.931 . S
N228 C190 1.360 . S
N228 C211 1.324 1_455 S
N229 C197 1.330 1_655 S
N229 C204 1.355 . S
C230 C231 1.384 . S
C230 C232 1.384 . S
C230 H258 0.931 . S
C231 C230 1.384 . S
C231 C234 1.382 . S
C232 C230 1.384 . S
C232 C233 1.381 . S
C232 H259 0.930 . S
C233 C232 1.381 . S
C233 C235 1.381 . S
C233 C236 1.487 . S
C234 C231 1.382 . S
C234 C235 1.387 . S
C234 H260 0.930 . S
C235 C233 1.381 . S
C235 C234 1.387 . S
C235 H261 0.931 . S
C236 C233 1.487 . S
C236 C243 1.399 . S
C236 N274 1.343 . S
C237 C238 1.384 . S
C237 C239 1.384 . S
C237 H262 0.931 . S
C238 C237 1.384 . S
C238 C241 1.382 . S
C239 C237 1.384 . S
C239 C240 1.381 . S
C239 H263 0.930 . S
C240 C239 1.381 . S
C240 C242 1.381 . S
C240 C243 1.487 . S
C241 C238 1.382 . S
C241 C242 1.387 . S
C241 H264 0.930 . S
C242 C240 1.381 . S
C242 C241 1.387 . S
C242 H265 0.931 . S
C243 C236 1.399 . S
C243 C240 1.487 . S
C243 N275 1.343 . S
C244 C245 1.384 . S
C244 C246 1.384 . S
C244 H266 0.931 . S
C245 C244 1.384 . S
C245 C248 1.382 . S
C246 C244 1.384 . S
C246 C247 1.381 . S
C246 H267 0.930 . S
C247 C246 1.381 . S
C247 C249 1.381 . S
C247 C250 1.487 . S
C248 C245 1.382 . S
C248 C249 1.387 . S
C248 H268 0.930 . S
C249 C247 1.381 . S
C249 C248 1.387 . S
C249 H269 0.931 . S
C250 C247 1.487 . S
C250 C257 1.399 . S
C250 N275 1.343 . S
C251 C252 1.384 . S
C251 C253 1.384 . S
C251 H270 0.931 . S
C252 C251 1.384 . S
C252 C255 1.382 . S
C253 C251 1.384 . S
C253 C254 1.381 . S
C253 H271 0.930 . S
C254 C253 1.381 . S
C254 C256 1.381 . S
C254 C257 1.487 . S
C255 C252 1.382 . S
C255 C256 1.387 . S
C255 H272 0.930 . S
C256 C254 1.381 . S
C256 C255 1.387 . S
C256 H273 0.931 . S
C257 C250 1.399 . S
C257 C254 1.487 . S
C257 N274 1.343 . S
H258 C230 0.931 . S
H259 C232 0.930 . S
H260 C234 0.930 . S
H261 C235 0.931 . S
H262 C237 0.931 . S
H263 C239 0.930 . S
H264 C241 0.930 . S
H265 C242 0.931 . S
H266 C244 0.931 . S
H267 C246 0.930 . S
H268 C248 0.930 . S
H269 C249 0.931 . S
H270 C251 0.931 . S
H271 C253 0.930 . S
H272 C255 0.930 . S
H273 C256 0.931 . S
N274 C236 1.343 . S
N274 C257 1.343 . S
N275 C243 1.343 . S
N275 C250 1.343 . S
C276 C277 1.384 . S
C276 C278 1.384 . S
C276 H304 0.931 . S
C277 C276 1.384 . S
C277 C280 1.382 . S
C278 C276 1.384 . S
C278 C279 1.381 . S
C278 H305 0.930 . S
C279 C278 1.381 . S
C279 C281 1.381 . S
C279 C282 1.487 . S
C280 C277 1.382 . S
C280 C281 1.387 . S
C280 H306 0.930 . S
C281 C279 1.381 . S
C281 C280 1.387 . S
C281 H307 0.927 1_565 S
C282 C279 1.487 . S
C282 C289 1.399 . S
C282 N320 1.343 1_565 S
C283 C284 1.384 . S
C283 C285 1.384 . S
C283 H308 0.931 . S
C284 C283 1.384 . S
C284 C287 1.382 . S
C285 C283 1.384 . S
C285 C286 1.381 . S
C285 H309 0.930 . S
C286 C285 1.381 . S
C286 C288 1.381 . S
C286 C289 1.487 . S
C287 C284 1.382 . S
C287 C288 1.387 . S
C287 H310 0.930 . S
C288 C286 1.381 . S
C288 C287 1.387 . S
C288 H311 0.931 . S
C289 C282 1.399 . S
C289 C286 1.487 . S
C289 N321 1.334 1_565 S
C290 C291 1.384 . S
C290 C292 1.384 . S
C290 H312 0.931 . S
C291 C290 1.384 . S
C291 C294 1.382 . S
C292 C290 1.384 . S
C292 C293 1.381 . S
C292 H313 0.930 . S
C293 C292 1.381 . S
C293 C295 1.381 . S
C293 C296 1.487 . S
C294 C291 1.382 . S
C294 C295 1.387 . S
C294 H314 0.930 . S
C295 C293 1.381 . S
C295 C294 1.387 . S
C295 H315 0.931 . S
C296 C293 1.487 . S
C296 C303 1.399 . S
C296 N321 1.354 . S
C297 C298 1.384 . S
C297 C299 1.384 . S
C297 H316 0.931 . S
C298 C297 1.384 . S
C298 C301 1.382 . S
C299 C297 1.384 . S
C299 C300 1.381 . S
C299 H317 0.930 . S
C300 C299 1.381 . S
C300 C302 1.381 . S
C300 C303 1.487 . S
C301 C298 1.382 . S
C301 C302 1.387 . S
C301 H318 0.930 . S
C302 C300 1.381 . S
C302 C301 1.387 . S
C302 H319 0.931 . S
C303 C296 1.399 . S
C303 C300 1.487 . S
C303 N320 1.343 . S
H304 C276 0.931 . S
H305 C278 0.930 . S
H306 C280 0.930 . S
H307 C281 0.927 1_545 S
H308 C283 0.931 . S
H309 C285 0.930 . S
H310 C287 0.930 . S
H311 C288 0.931 . S
H312 C290 0.931 . S
H313 C292 0.930 . S
H314 C294 0.930 . S
H315 C295 0.931 . S
H316 C297 0.931 . S
H317 C299 0.930 . S
H318 C301 0.930 . S
H319 C302 0.931 . S
N320 C282 1.343 1_545 S
N320 C303 1.343 . S
N321 C289 1.334 1_545 S
N321 C296 1.354 . S
C322 C323 1.384 . S
C322 C324 1.384 1_565 S
C322 H350 0.931 . S
C323 C322 1.384 . S
C323 C326 1.382 . S
C324 C322 1.384 1_545 S
C324 C325 1.381 . S
C324 H351 0.930 . S
C325 C324 1.381 . S
C325 C327 1.381 1_545 S
C325 C328 1.487 . S
C326 C323 1.382 . S
C326 C327 1.387 . S
C326 H352 0.930 . S
C327 C325 1.381 1_565 S
C327 C326 1.387 . S
C327 H353 0.931 . S
C328 C325 1.487 . S
C328 C335 1.399 . S
C328 N366 1.343 . S
C329 C330 1.384 . S
C329 C331 1.384 . S
C329 H354 0.931 . S
C330 C329 1.384 . S
C330 C333 1.382 1_565 S
C331 C329 1.384 . S
C331 C332 1.381 1_565 S
C331 H355 0.930 . S
C332 C331 1.381 1_545 S
C332 C334 1.381 . S
C332 C335 1.487 . S
C333 C330 1.382 1_545 S
C333 C334 1.387 . S
C333 H356 0.930 . S
C334 C332 1.381 . S
C334 C333 1.387 . S
C334 H357 0.931 . S
C335 C328 1.399 . S
C335 C332 1.487 . S
C335 N367 1.343 . S
C336 C337 1.384 . S
C336 C338 1.384 . S
C336 H358 0.931 . S
C337 C336 1.384 . S
C337 C340 1.382 1_655 S
C338 C336 1.384 . S
C338 C339 1.381 1_655 S
C338 H359 0.930 . S
C339 C338 1.381 1_455 S
C339 C341 1.381 . S
C339 C342 1.487 . S
C340 C337 1.382 1_455 S
C340 C341 1.387 . S
C340 H360 0.930 . S
C341 C339 1.381 . S
C341 C340 1.387 . S
C341 H361 0.931 . S
C342 C339 1.487 . S
C342 C349 1.399 . S
C342 N367 1.343 . S
C343 C344 1.384 1_455 S
C343 C345 1.384 . S
C343 H362 0.931 . S
C344 C343 1.384 1_655 S
C344 C347 1.382 . S
C345 C343 1.384 . S
C345 C346 1.381 . S
C345 H363 0.930 . S
C346 C345 1.381 . S
C346 C348 1.381 . S
C346 C349 1.487 . S
C347 C344 1.382 . S
C347 C348 1.387 1_655 S
C347 H364 0.930 . S
C348 C346 1.381 . S
C348 C347 1.387 1_455 S
C348 H365 0.931 . S
C349 C342 1.399 . S
C349 C346 1.487 . S
C349 N366 1.343 . S
H350 C322 0.931 . S
H351 C324 0.930 . S
H352 C326 0.930 . S
H353 C327 0.931 . S
H354 C329 0.931 . S
H355 C331 0.930 . S
H356 C333 0.930 . S
H357 C334 0.931 . S
H358 C336 0.931 . S
H359 C338 0.930 . S
H360 C340 0.930 . S
H361 C341 0.931 . S
H362 C343 0.931 . S
H363 C345 0.930 . S
H364 C347 0.930 . S
H365 C348 0.931 . S
N366 C328 1.343 . S
N366 C349 1.343 . S
N367 C335 1.343 . S
N367 C342 1.343 . S
Zn368 O371 2.031 . S
Zn368 O373 2.049 . S
Zn368 O378 2.067 . S
Zn369 O370 1.962 . S
Zn369 O372 1.986 . S
Zn369 O374 1.996 . S
Zn369 O377 1.943 1_554 S
O370 Zn369 1.962 . S
O370 C375 1.254 . S
O371 Zn368 2.031 . S
O371 C375 1.269 1_556 S
O372 Zn369 1.986 . S
O372 C379 1.262 . S
O373 Zn368 2.049 . S
O373 C381 1.260 1_556 S
O374 Zn369 1.996 . S
O374 C381 1.257 . S
C375 O370 1.254 . S
C375 O371 1.269 1_554 S
C376 O377 1.248 . S
C376 O378 1.270 . S
O377 Zn369 1.943 1_556 S
O377 C376 1.248 . S
O378 Zn368 2.067 . S
O378 C376 1.270 . S
C379 O372 1.262 . S
C379 O380 1.232 . S
O380 C379 1.232 . S
C381 O373 1.260 1_554 S
C381 O374 1.257 . S
Zn382 O385 2.031 . S
Zn382 O387 2.049 . S
Zn382 O392 2.067 . S
Zn383 O384 1.962 . S
Zn383 O386 1.986 . S
Zn383 O388 1.996 . S
Zn383 O391 1.943 . S
O384 Zn383 1.962 . S
O384 C389 1.254 . S
O385 Zn382 2.031 . S
O385 C389 1.269 . S
O386 Zn383 1.986 . S
O386 C393 1.262 . S
O387 Zn382 2.049 . S
O387 C395 1.260 . S
O388 Zn383 1.996 . S
O388 C395 1.257 . S
C389 O384 1.254 . S
C389 O385 1.269 . S
C390 O391 1.249 . S
C390 O392 1.270 . S
O391 Zn383 1.943 . S
O391 C390 1.249 . S
O392 Zn382 2.067 . S
O392 C390 1.270 . S
C393 O386 1.262 . S
C393 O394 1.232 . S
O394 C393 1.232 . S
C395 O387 1.260 . S
C395 O388 1.257 . S
Zn396 O399 2.031 . S
Zn396 O401 2.049 . S
Zn396 O406 2.067 . S
Zn397 O398 1.962 . S
Zn397 O400 1.986 . S
Zn397 O402 1.996 . S
Zn397 O405 1.943 . S
O398 Zn397 1.962 . S
O398 C403 1.254 . S
O399 Zn396 2.031 . S
O399 C403 1.269 . S
O400 Zn397 1.986 . S
O400 C407 1.262 . S
O401 Zn396 2.049 . S
O401 C409 1.260 . S
O402 Zn397 1.996 . S
O402 C409 1.257 . S
C403 O398 1.254 . S
C403 O399 1.269 . S
C404 O405 1.249 . S
C404 O406 1.270 . S
O405 Zn397 1.943 . S
O405 C404 1.249 . S
O406 Zn396 2.067 . S
O406 C404 1.270 . S
C407 O400 1.262 . S
C407 O408 1.232 . S
O408 C407 1.232 . S
C409 O401 1.260 . S
C409 O402 1.257 . S
Zn410 O413 2.031 . S
Zn410 O415 2.049 . S
Zn410 O420 2.067 . S
Zn411 O412 1.962 . S
Zn411 O414 1.986 . S
Zn411 O416 1.996 . S
Zn411 O419 1.943 . S
O412 Zn411 1.962 . S
O412 C417 1.254 . S
O413 Zn410 2.031 . S
O413 C417 1.269 . S
O414 Zn411 1.986 . S
O414 C421 1.262 . S
O415 Zn410 2.049 . S
O415 C423 1.260 . S
O416 Zn411 1.996 . S
O416 C423 1.257 . S
C417 O412 1.254 . S
C417 O413 1.269 . S
C418 O419 1.249 . S
C418 O420 1.270 . S
O419 Zn411 1.943 . S
O419 C418 1.249 . S
O420 Zn410 2.067 . S
O420 C418 1.270 . S
C421 O414 1.262 . S
C421 O422 1.232 . S
O422 C421 1.232 . S
C423 O415 1.260 . S
C423 O416 1.257 . S
Zn424 O427 2.031 . S
Zn424 O429 2.049 . S
Zn424 O434 2.067 . S
Zn425 O426 1.962 . S
Zn425 O428 1.986 . S
Zn425 O430 1.996 . S
Zn425 O433 1.943 . S
O426 Zn425 1.962 . S
O426 C431 1.254 . S
O427 Zn424 2.031 . S
O427 C431 1.269 . S
O428 Zn425 1.986 . S
O428 C435 1.262 . S
O429 Zn424 2.049 . S
O429 C437 1.260 . S
O430 Zn425 1.996 . S
O430 C437 1.257 . S
C431 O426 1.254 . S
C431 O427 1.269 . S
C432 O433 1.249 . S
C432 O434 1.270 . S
O433 Zn425 1.943 . S
O433 C432 1.249 . S
O434 Zn424 2.067 . S
O434 C432 1.270 . S
C435 O428 1.262 . S
C435 O436 1.232 . S
O436 C435 1.232 . S
C437 O429 1.260 . S
C437 O430 1.257 . S
Zn438 O441 2.031 . S
Zn438 O443 2.049 . S
Zn438 O448 2.067 . S
Zn439 O440 1.962 . S
Zn439 O442 1.986 . S
Zn439 O444 1.996 . S
Zn439 O447 1.943 . S
O440 Zn439 1.962 . S
O440 C445 1.254 . S
O441 Zn438 2.031 . S
O441 C445 1.269 . S
O442 Zn439 1.986 . S
O442 C449 1.262 . S
O443 Zn438 2.049 . S
O443 C451 1.260 . S
O444 Zn439 1.996 . S
O444 C451 1.257 . S
C445 O440 1.254 . S
C445 O441 1.269 . S
C446 O447 1.249 . S
C446 O448 1.270 . S
O447 Zn439 1.943 . S
O447 C446 1.249 . S
O448 Zn438 2.067 . S
O448 C446 1.270 . S
C449 O442 1.262 . S
C449 O450 1.232 . S
O450 C449 1.232 . S
C451 O443 1.260 . S
C451 O444 1.257 . S
Zn452 O455 2.031 . S
Zn452 O457 2.049 . S
Zn452 O462 2.067 . S
Zn453 O454 1.962 . S
Zn453 O456 1.986 . S
Zn453 O458 1.996 . S
Zn453 O461 1.943 1_556 S
O454 Zn453 1.962 . S
O454 C459 1.254 1_556 S
O455 Zn452 2.031 . S
O455 C459 1.269 . S
O456 Zn453 1.986 . S
O456 C463 1.262 . S
O457 Zn452 2.049 . S
O457 C465 1.275 . S
O458 Zn453 1.996 . S
O458 C465 1.252 1_556 S
C459 O454 1.254 1_554 S
C459 O455 1.269 . S
C460 O461 1.249 . S
C460 O462 1.270 . S
O461 Zn453 1.943 1_554 S
O461 C460 1.249 . S
O462 Zn452 2.067 . S
O462 C460 1.270 . S
C463 O456 1.262 . S
C463 O464 1.232 . S
O464 C463 1.232 . S
C465 O457 1.275 . S
C465 O458 1.252 1_554 S
Zn466 O469 2.031 . S
Zn466 O471 2.049 . S
Zn466 O476 2.067 . S
Zn467 O468 1.962 . S
Zn467 O470 1.986 . S
Zn467 O472 1.996 . S
Zn467 O475 1.943 . S
O468 Zn467 1.962 . S
O468 C473 1.254 . S
O469 Zn466 2.031 . S
O469 C473 1.269 . S
O470 Zn467 1.986 . S
O470 C477 1.262 . S
O471 Zn466 2.049 . S
O471 C479 1.260 . S
O472 Zn467 1.996 . S
O472 C479 1.257 . S
C473 O468 1.254 . S
C473 O469 1.269 . S
C474 O475 1.249 . S
C474 O476 1.270 . S
O475 Zn467 1.943 . S
O475 C474 1.249 . S
O476 Zn466 2.067 . S
O476 C474 1.270 . S
C477 O470 1.262 . S
C477 O478 1.232 . S
O478 C477 1.232 . S
C479 O471 1.260 . S
C479 O472 1.257 . S
H480 C486 0.930 . S
H481 C489 0.930 . S
H482 C490 0.930 . S
H483 C491 0.930 . S
H484 C494 0.930 . S
H485 C495 0.930 . S
C486 H480 0.930 . S
C486 C487 1.355 . S
C486 C488 1.415 . S
C487 C486 1.355 . S
C487 C489 1.419 . S
C488 C486 1.415 . S
C488 C493 1.425 . S
C488 C495 1.409 . S
C489 H481 0.930 . S
C489 C487 1.419 . S
C489 C490 1.362 . S
C490 H482 0.930 . S
C490 C489 1.362 . S
C490 C493 1.409 . S
C491 H483 0.930 . S
C491 C492 1.355 . S
C491 C493 1.415 . S
C492 C491 1.355 . S
C492 C494 1.419 . S
C493 C488 1.425 . S
C493 C490 1.409 . S
C493 C491 1.415 . S
C494 H484 0.930 . S
C494 C492 1.419 . S
C494 C495 1.362 . S
C495 H485 0.930 . S
C495 C488 1.409 . S
C495 C494 1.362 . S
H496 C502 0.930 . S
H497 C505 0.930 . S
H498 C506 0.930 . S
H499 C507 0.930 . S
H500 C510 0.930 . S
H501 C511 0.930 . S
C502 H496 0.930 . S
C502 C503 1.355 . S
C502 C504 1.415 . S
C503 C502 1.355 . S
C503 C505 1.419 . S
C504 C502 1.415 . S
C504 C509 1.425 . S
C504 C511 1.409 . S
C505 H497 0.930 . S
C505 C503 1.419 . S
C505 C506 1.362 . S
C506 H498 0.930 . S
C506 C505 1.362 . S
C506 C509 1.409 . S
C507 H499 0.930 . S
C507 C508 1.355 . S
C507 C509 1.415 . S
C508 C507 1.355 . S
C508 C510 1.419 . S
C509 C504 1.425 . S
C509 C506 1.409 . S
C509 C507 1.415 . S
C510 H500 0.930 . S
C510 C508 1.419 . S
C510 C511 1.362 . S
C511 H501 0.930 . S
C511 C504 1.409 . S
C511 C510 1.362 . S
H512 C518 0.930 . S
H513 C521 0.930 . S
H514 C522 0.930 . S
H515 C523 0.930 . S
H516 C526 0.930 . S
H517 C527 0.930 . S
C518 H512 0.930 . S
C518 C519 1.355 . S
C518 C520 1.415 . S
C519 C518 1.355 . S
C519 C521 1.419 . S
C520 C518 1.415 . S
C520 C525 1.425 . S
C520 C527 1.409 . S
C521 H513 0.930 . S
C521 C519 1.419 . S
C521 C522 1.362 . S
C522 H514 0.930 . S
C522 C521 1.362 . S
C522 C525 1.409 . S
C523 H515 0.930 . S
C523 C524 1.355 . S
C523 C525 1.415 . S
C524 C523 1.355 . S
C524 C526 1.419 . S
C525 C520 1.425 . S
C525 C522 1.409 . S
C525 C523 1.415 . S
C526 H516 0.930 . S
C526 C524 1.419 . S
C526 C527 1.362 . S
C527 H517 0.930 . S
C527 C520 1.409 . S
C527 C526 1.362 . S
H528 C534 0.930 . S
H529 C537 0.930 . S
H530 C538 0.930 . S
H531 C539 0.930 . S
H532 C542 0.930 . S
H533 C543 0.930 . S
C534 H528 0.930 . S
C534 C535 1.355 . S
C534 C536 1.415 . S
C535 C534 1.355 . S
C535 C537 1.419 . S
C536 C534 1.415 . S
C536 C541 1.425 . S
C536 C543 1.409 . S
C537 H529 0.930 . S
C537 C535 1.419 . S
C537 C538 1.362 . S
C538 H530 0.930 . S
C538 C537 1.362 . S
C538 C541 1.409 . S
C539 H531 0.930 . S
C539 C540 1.355 . S
C539 C541 1.415 . S
C540 C539 1.355 . S
C540 C542 1.419 . S
C541 C536 1.425 . S
C541 C538 1.409 . S
C541 C539 1.415 . S
C542 H532 0.930 . S
C542 C540 1.419 . S
C542 C543 1.362 . S
C543 H533 0.930 . S
C543 C536 1.409 . S
C543 C542 1.362 . S
H544 C550 0.930 1_554 S
H545 C553 0.930 . S
H546 C554 0.930 . S
H547 C555 0.930 . S
H548 C558 0.930 . S
H549 C559 0.930 . S
C550 H544 0.930 1_556 S
C550 C551 1.355 . S
C550 C552 1.414 1_556 S
C551 C550 1.355 . S
C551 C553 1.419 . S
C552 C550 1.414 1_554 S
C552 C557 1.424 1_554 S
C552 C559 1.411 . S
C553 H545 0.930 . S
C553 C551 1.419 . S
C553 C554 1.362 . S
C554 H546 0.930 . S
C554 C553 1.362 . S
C554 C557 1.409 . S
C555 H547 0.930 . S
C555 C556 1.355 1_556 S
C555 C557 1.415 . S
C556 C555 1.355 1_554 S
C556 C558 1.419 . S
C557 C552 1.424 1_556 S
C557 C554 1.409 . S
C557 C555 1.415 . S
C558 H548 0.930 . S
C558 C556 1.419 . S
C558 C559 1.362 . S
C559 H549 0.930 . S
C559 C552 1.411 . S
C559 C558 1.362 . S
H560 C566 0.930 . S
H561 C569 0.930 . S
H562 C570 0.930 . S
H563 C571 0.930 . S
H564 C574 0.930 . S
H565 C575 0.930 . S
C566 H560 0.930 . S
C566 C567 1.355 . S
C566 C568 1.415 . S
C567 C566 1.355 . S
C567 C569 1.419 . S
C568 C566 1.415 . S
C568 C573 1.425 . S
C568 C575 1.409 . S
C569 H561 0.930 . S
C569 C567 1.419 . S
C569 C570 1.362 . S
C570 H562 0.930 . S
C570 C569 1.362 . S
C570 C573 1.409 . S
C571 H563 0.930 . S
C571 C572 1.355 . S
C571 C573 1.415 . S
C572 C571 1.355 . S
C572 C574 1.419 . S
C573 C568 1.425 . S
C573 C570 1.409 . S
C573 C571 1.415 . S
C574 H564 0.930 . S
C574 C572 1.419 . S
C574 C575 1.362 . S
C575 H565 0.930 . S
C575 C568 1.409 . S
C575 C574 1.362 . S
H576 C582 0.930 . S
H577 C585 0.930 . S
H578 C586 0.930 . S
H579 C587 0.930 . S
H580 C590 0.930 . S
H581 C591 0.930 . S
C582 H576 0.930 . S
C582 C583 1.355 . S
C582 C584 1.415 . S
C583 C582 1.355 . S
C583 C585 1.419 . S
C584 C582 1.415 . S
C584 C589 1.425 . S
C584 C591 1.409 . S
C585 H577 0.930 . S
C585 C583 1.419 . S
C585 C586 1.362 . S
C586 H578 0.930 . S
C586 C585 1.362 . S
C586 C589 1.409 . S
C587 H579 0.930 . S
C587 C588 1.355 . S
C587 C589 1.415 . S
C588 C587 1.355 . S
C588 C590 1.419 . S
C589 C584 1.425 . S
C589 C586 1.409 . S
C589 C587 1.415 . S
C590 H580 0.930 . S
C590 C588 1.419 . S
C590 C591 1.362 . S
C591 H581 0.930 . S
C591 C584 1.409 . S
C591 C590 1.362 . S
H592 C598 0.930 . S
H593 C601 0.930 . S
H594 C602 0.930 . S
H595 C603 0.930 . S
H596 C606 0.930 . S
H597 C607 0.930 . S
C598 H592 0.930 . S
C598 C599 1.355 . S
C598 C600 1.415 . S
C599 C598 1.355 . S
C599 C601 1.419 . S
C600 C598 1.415 . S
C600 C605 1.425 . S
C600 C607 1.409 . S
C601 H593 0.930 . S
C601 C599 1.419 . S
C601 C602 1.362 . S
C602 H594 0.930 . S
C602 C601 1.362 . S
C602 C605 1.409 . S
C603 H595 0.930 . S
C603 C604 1.355 . S
C603 C605 1.415 . S
C604 C603 1.355 . S
C604 C606 1.419 . S
C605 C600 1.425 . S
C605 C602 1.409 . S
C605 C603 1.415 . S
C606 H596 0.930 . S
C606 C604 1.419 . S
C606 C607 1.362 . S
C607 H597 0.930 . S
C607 C600 1.409 . S
C607 C606 1.362 . S
H608 C614 0.930 . S
H609 C617 0.930 . S
H610 C618 0.930 . S
H611 C619 0.930 . S
H612 C622 0.930 . S
H613 C623 0.930 . S
C614 H608 0.930 . S
C614 C615 1.355 . S
C614 C616 1.415 . S
C615 C614 1.355 . S
C615 C617 1.419 . S
C616 C614 1.415 . S
C616 C621 1.425 . S
C616 C623 1.409 . S
C617 H609 0.930 . S
C617 C615 1.419 . S
C617 C618 1.362 . S
C618 H610 0.930 . S
C618 C617 1.362 . S
C618 C621 1.409 . S
C619 H611 0.930 . S
C619 C620 1.355 . S
C619 C621 1.415 . S
C620 C619 1.355 . S
C620 C622 1.419 . S
C621 C616 1.425 . S
C621 C618 1.409 . S
C621 C619 1.415 . S
C622 H612 0.930 . S
C622 C620 1.419 . S
C622 C623 1.362 . S
C623 H613 0.930 . S
C623 C616 1.409 . S
C623 C622 1.362 . S
H624 C630 0.930 . S
H625 C633 0.930 . S
H626 C634 0.930 . S
H627 C635 0.930 . S
H628 C638 0.930 . S
H629 C639 0.930 . S
C630 H624 0.930 . S
C630 C631 1.355 . S
C630 C632 1.415 . S
C631 C630 1.355 . S
C631 C633 1.419 . S
C632 C630 1.415 . S
C632 C637 1.425 . S
C632 C639 1.409 . S
C633 H625 0.930 . S
C633 C631 1.419 . S
C633 C634 1.362 . S
C634 H626 0.930 . S
C634 C633 1.362 . S
C634 C637 1.409 . S
C635 H627 0.930 . S
C635 C636 1.355 . S
C635 C637 1.415 . S
C636 C635 1.355 . S
C636 C638 1.419 . S
C637 C632 1.425 . S
C637 C634 1.409 . S
C637 C635 1.415 . S
C638 H628 0.930 . S
C638 C636 1.419 . S
C638 C639 1.362 . S
C639 H629 0.930 . S
C639 C632 1.409 . S
C639 C638 1.362 . S
H640 C646 0.930 . S
H641 C649 0.930 . S
H642 C650 0.930 . S
H643 C651 0.930 . S
H644 C654 0.930 . S
H645 C655 0.930 . S
C646 H640 0.930 . S
C646 C647 1.355 . S
C646 C648 1.415 . S
C647 C646 1.355 . S
C647 C649 1.419 . S
C648 C646 1.415 . S
C648 C653 1.425 . S
C648 C655 1.409 . S
C649 H641 0.930 . S
C649 C647 1.419 . S
C649 C650 1.362 . S
C650 H642 0.930 . S
C650 C649 1.362 . S
C650 C653 1.409 . S
C651 H643 0.930 . S
C651 C652 1.355 . S
C651 C653 1.415 . S
C652 C651 1.355 . S
C652 C654 1.419 . S
C653 C648 1.425 . S
C653 C650 1.409 . S
C653 C651 1.415 . S
C654 H644 0.930 . S
C654 C652 1.419 . S
C654 C655 1.362 . S
C655 H645 0.930 . S
C655 C648 1.409 . S
C655 C654 1.362 . S
H656 C662 0.930 . S
H657 C665 0.930 . S
H658 C666 0.930 . S
H659 C667 0.930 . S
H660 C670 0.930 . S
H661 C671 0.930 . S
C662 H656 0.930 . S
C662 C663 1.355 . S
C662 C664 1.415 . S
C663 C662 1.355 . S
C663 C665 1.419 . S
C664 C662 1.415 . S
C664 C669 1.425 . S
C664 C671 1.409 . S
C665 H657 0.930 . S
C665 C663 1.419 . S
C665 C666 1.362 . S
C666 H658 0.930 . S
C666 C665 1.362 . S
C666 C669 1.409 . S
C667 H659 0.930 . S
C667 C668 1.355 . S
C667 C669 1.415 . S
C668 C667 1.355 . S
C668 C670 1.419 . S
C669 C664 1.425 . S
C669 C666 1.409 . S
C669 C667 1.415 . S
C670 H660 0.930 . S
C670 C668 1.419 . S
C670 C671 1.362 . S
C671 H661 0.930 . S
C671 C664 1.409 . S
C671 C670 1.362 . S
H672 C678 0.930 . S
H673 C681 0.930 . S
H674 C682 0.930 . S
H675 C683 0.930 . S
H676 C686 0.930 . S
H677 C687 0.930 . S
C678 H672 0.930 . S
C678 C679 1.355 . S
C678 C680 1.415 . S
C679 C678 1.355 . S
C679 C681 1.419 . S
C680 C678 1.415 . S
C680 C685 1.425 . S
C680 C687 1.409 . S
C681 H673 0.930 . S
C681 C679 1.419 . S
C681 C682 1.362 . S
C682 H674 0.930 . S
C682 C681 1.362 . S
C682 C685 1.409 . S
C683 H675 0.930 . S
C683 C684 1.355 . S
C683 C685 1.415 . S
C684 C683 1.355 . S
C684 C686 1.419 . S
C685 C680 1.425 . S
C685 C682 1.409 . S
C685 C683 1.415 . S
C686 H676 0.930 . S
C686 C684 1.419 . S
C686 C687 1.362 . S
C687 H677 0.930 . S
C687 C680 1.409 . S
C687 C686 1.362 . S
H688 C694 0.930 . S
H689 C697 0.930 . S
H690 C698 0.930 . S
H691 C699 0.930 . S
H692 C702 0.930 . S
H693 C703 0.930 . S
C694 H688 0.930 . S
C694 C695 1.355 . S
C694 C696 1.415 . S
C695 C694 1.355 . S
C695 C697 1.419 . S
C696 C694 1.415 . S
C696 C701 1.425 . S
C696 C703 1.409 . S
C697 H689 0.930 . S
C697 C695 1.419 . S
C697 C698 1.362 . S
C698 H690 0.930 . S
C698 C697 1.362 . S
C698 C701 1.409 . S
C699 H691 0.930 . S
C699 C700 1.355 . S
C699 C701 1.415 . S
C700 C699 1.355 . S
C700 C702 1.419 . S
C701 C696 1.425 . S
C701 C698 1.409 . S
C701 C699 1.415 . S
C702 H692 0.930 . S
C702 C700 1.419 . S
C702 C703 1.362 . S
C703 H693 0.930 . S
C703 C696 1.409 . S
C703 C702 1.362 . S
H704 C710 0.930 . S
H705 C713 0.930 . S
H706 C714 0.930 . S
H707 C715 0.930 . S
H708 C718 0.930 . S
H709 C719 0.935 . S
C710 H704 0.930 . S
C710 C711 1.355 . S
C710 C712 1.415 . S
C711 C710 1.355 . S
C711 C713 1.419 . S
C712 C710 1.415 . S
C712 C717 1.425 . S
C712 C719 1.403 1_556 S
C713 H705 0.930 . S
C713 C711 1.419 . S
C713 C714 1.362 . S
C714 H706 0.930 . S
C714 C713 1.362 . S
C714 C717 1.409 . S
C715 H707 0.930 . S
C715 C716 1.355 . S
C715 C717 1.415 . S
C716 C715 1.355 . S
C716 C718 1.419 1_556 S
C717 C712 1.425 . S
C717 C714 1.409 . S
C717 C715 1.415 . S
C718 H708 0.930 . S
C718 C716 1.419 1_554 S
C718 C719 1.364 . S
C719 H709 0.935 . S
C719 C712 1.403 1_554 S
C719 C718 1.364 . S
H720 C726 0.930 . S
H721 C729 0.930 . S
H722 C730 0.930 . S
H723 C731 0.930 . S
H724 C734 0.930 . S
H725 C735 0.930 . S
C726 H720 0.930 . S
C726 C727 1.355 . S
C726 C728 1.415 . S
C727 C726 1.355 . S
C727 C729 1.419 . S
C728 C726 1.415 . S
C728 C733 1.425 . S
C728 C735 1.409 . S
C729 H721 0.930 . S
C729 C727 1.419 . S
C729 C730 1.362 . S
C730 H722 0.930 . S
C730 C729 1.362 . S
C730 C733 1.409 . S
C731 H723 0.930 . S
C731 C732 1.355 . S
C731 C733 1.415 . S
C732 C731 1.355 . S
C732 C734 1.419 . S
C733 C728 1.425 . S
C733 C730 1.409 . S
C733 C731 1.415 . S
C734 H724 0.930 . S
C734 C732 1.419 . S
C734 C735 1.362 . S
C735 H725 0.930 . S
C735 C728 1.409 . S
C735 C734 1.362 . S
H736 C742 0.930 . S
H737 C745 0.930 . S
H738 C746 0.930 . S
H739 C747 0.930 . S
H740 C750 0.930 . S
H741 C751 0.930 . S
C742 H736 0.930 . S
C742 C743 1.355 . S
C742 C744 1.415 . S
C743 C742 1.355 . S
C743 C745 1.419 . S
C744 C742 1.415 . S
C744 C749 1.425 . S
C744 C751 1.409 . S
C745 H737 0.930 . S
C745 C743 1.419 . S
C745 C746 1.362 . S
C746 H738 0.930 . S
C746 C745 1.362 . S
C746 C749 1.409 . S
C747 H739 0.930 . S
C747 C748 1.355 . S
C747 C749 1.415 . S
C748 C747 1.355 . S
C748 C750 1.419 . S
C749 C744 1.425 . S
C749 C746 1.409 . S
C749 C747 1.415 . S
C750 H740 0.930 . S
C750 C748 1.419 . S
C750 C751 1.362 . S
C751 H741 0.930 . S
C751 C744 1.409 . S
C751 C750 1.362 . S
H752 C758 0.930 . S
H753 C761 0.930 . S
H754 C762 0.930 . S
H755 C763 0.930 . S
H756 C766 0.930 . S
H757 C767 0.930 . S
C758 H752 0.930 . S
C758 C759 1.355 . S
C758 C760 1.415 . S
C759 C758 1.355 . S
C759 C761 1.419 . S
C760 C758 1.415 . S
C760 C765 1.425 . S
C760 C767 1.409 . S
C761 H753 0.930 . S
C761 C759 1.419 . S
C761 C762 1.362 . S
C762 H754 0.930 . S
C762 C761 1.362 . S
C762 C765 1.409 . S
C763 H755 0.930 . S
C763 C764 1.355 . S
C763 C765 1.415 . S
C764 C763 1.355 . S
C764 C766 1.419 . S
C765 C760 1.425 . S
C765 C762 1.409 . S
C765 C763 1.415 . S
C766 H756 0.930 . S
C766 C764 1.419 . S
C766 C767 1.362 . S
C767 H757 0.930 . S
C767 C760 1.409 . S
C767 C766 1.362 . S
H768 C774 0.930 . S
H769 C777 0.930 . S
H770 C778 0.930 . S
H771 C779 0.930 . S
H772 C782 0.930 . S
H773 C783 0.930 . S
C774 H768 0.930 . S
C774 C775 1.355 . S
C774 C776 1.415 . S
C775 C774 1.355 . S
C775 C777 1.419 . S
C776 C774 1.415 . S
C776 C781 1.425 . S
C776 C783 1.409 . S
C777 H769 0.930 . S
C777 C775 1.419 . S
C777 C778 1.362 . S
C778 H770 0.930 . S
C778 C777 1.362 . S
C778 C781 1.409 . S
C779 H771 0.930 . S
C779 C780 1.355 . S
C779 C781 1.415 . S
C780 C779 1.355 . S
C780 C782 1.419 . S
C781 C776 1.425 . S
C781 C778 1.409 . S
C781 C779 1.415 . S
C782 H772 0.930 . S
C782 C780 1.419 . S
C782 C783 1.362 . S
C783 H773 0.930 . S
C783 C776 1.409 . S
C783 C782 1.362 . S
H784 C790 0.930 . S
H785 C793 0.930 . S
H786 C794 0.930 . S
H787 C795 0.930 . S
H788 C798 0.930 . S
H789 C799 0.930 . S
C790 H784 0.930 . S
C790 C791 1.355 . S
C790 C792 1.415 . S
C791 C790 1.355 . S
C791 C793 1.419 . S
C792 C790 1.415 . S
C792 C797 1.425 . S
C792 C799 1.409 . S
C793 H785 0.930 . S
C793 C791 1.419 . S
C793 C794 1.362 . S
C794 H786 0.930 . S
C794 C793 1.362 . S
C794 C797 1.409 . S
C795 H787 0.930 . S
C795 C796 1.355 . S
C795 C797 1.415 . S
C796 C795 1.355 . S
C796 C798 1.419 . S
C797 C792 1.425 . S
C797 C794 1.409 . S
C797 C795 1.415 . S
C798 H788 0.930 . S
C798 C796 1.419 . S
C798 C799 1.362 . S
C799 H789 0.930 . S
C799 C792 1.409 . S
C799 C798 1.362 . S
H800 C806 0.930 . S
H801 C809 0.930 . S
H802 C810 0.930 . S
H803 C811 0.930 . S
H804 C814 0.930 . S
H805 C815 0.930 . S
C806 H800 0.930 . S
C806 C807 1.355 . S
C806 C808 1.415 . S
C807 C806 1.355 . S
C807 C809 1.419 . S
C808 C806 1.415 . S
C808 C813 1.425 . S
C808 C815 1.409 . S
C809 H801 0.930 . S
C809 C807 1.419 . S
C809 C810 1.362 . S
C810 H802 0.930 . S
C810 C809 1.362 . S
C810 C813 1.409 . S
C811 H803 0.930 . S
C811 C812 1.355 . S
C811 C813 1.415 . S
C812 C811 1.355 . S
C812 C814 1.419 . S
C813 C808 1.425 . S
C813 C810 1.409 . S
C813 C811 1.415 . S
C814 H804 0.930 . S
C814 C812 1.419 . S
C814 C815 1.362 . S
C815 H805 0.930 . S
C815 C808 1.409 . S
C815 C814 1.362 . S
H816 C822 0.930 . S
H817 C825 0.930 . S
H818 C826 0.930 . S
H819 C827 0.930 . S
H820 C830 0.930 . S
H821 C831 0.930 . S
C822 H816 0.930 . S
C822 C823 1.355 . S
C822 C824 1.415 . S
C823 C822 1.355 . S
C823 C825 1.419 . S
C824 C822 1.415 . S
C824 C829 1.425 . S
C824 C831 1.409 . S
C825 H817 0.930 . S
C825 C823 1.419 . S
C825 C826 1.362 . S
C826 H818 0.930 . S
C826 C825 1.362 . S
C826 C829 1.409 . S
C827 H819 0.930 . S
C827 C828 1.355 . S
C827 C829 1.415 . S
C828 C827 1.355 . S
C828 C830 1.419 . S
C829 C824 1.425 . S
C829 C826 1.409 . S
C829 C827 1.415 . S
C830 H820 0.930 . S
C830 C828 1.419 . S
C830 C831 1.362 . S
C831 H821 0.930 . S
C831 C824 1.409 . S
C831 C830 1.362 . S
H832 C838 0.930 . S
H833 C841 0.930 . S
H834 C842 0.930 . S
H835 C843 0.930 . S
H836 C846 0.930 . S
H837 C847 0.930 . S
C838 H832 0.930 . S
C838 C839 1.355 . S
C838 C840 1.415 . S
C839 C838 1.355 . S
C839 C841 1.419 . S
C840 C838 1.415 . S
C840 C845 1.425 . S
C840 C847 1.409 . S
C841 H833 0.930 . S
C841 C839 1.419 . S
C841 C842 1.362 . S
C842 H834 0.930 . S
C842 C841 1.362 . S
C842 C845 1.409 . S
C843 H835 0.930 . S
C843 C844 1.355 . S
C843 C845 1.415 . S
C844 C843 1.355 . S
C844 C846 1.419 . S
C845 C840 1.425 . S
C845 C842 1.409 . S
C845 C843 1.415 . S
C846 H836 0.930 . S
C846 C844 1.419 . S
C846 C847 1.362 . S
C847 H837 0.930 . S
C847 C840 1.409 . S
C847 C846 1.362 . S
H848 C854 0.930 . S
H849 C857 0.930 . S
H850 C858 0.930 . S
H851 C859 0.930 . S
H852 C862 0.930 . S
H853 C863 0.930 . S
C854 H848 0.930 . S
C854 C855 1.355 . S
C854 C856 1.415 . S
C855 C854 1.355 . S
C855 C857 1.419 . S
C856 C854 1.415 . S
C856 C861 1.425 . S
C856 C863 1.409 . S
C857 H849 0.930 . S
C857 C855 1.419 . S
C857 C858 1.362 . S
C858 H850 0.930 . S
C858 C857 1.362 . S
C858 C861 1.409 . S
C859 H851 0.930 . S
C859 C860 1.355 . S
C859 C861 1.415 . S
C860 C859 1.355 . S
C860 C862 1.419 . S
C861 C856 1.425 . S
C861 C858 1.409 . S
C861 C859 1.415 . S
C862 H852 0.930 . S
C862 C860 1.419 . S
C862 C863 1.362 . S
C863 H853 0.930 . S
C863 C856 1.409 . S
C863 C862 1.362 . S
H864 C870 0.930 . S
H865 C873 0.930 . S
H866 C874 0.930 . S
H867 C875 0.930 . S
H868 C878 0.930 . S
H869 C879 0.930 . S
C870 H864 0.930 . S
C870 C871 1.355 . S
C870 C872 1.415 . S
C871 C870 1.355 . S
C871 C873 1.419 . S
C872 C870 1.415 . S
C872 C877 1.425 . S
C872 C879 1.409 . S
C873 H865 0.930 . S
C873 C871 1.419 . S
C873 C874 1.362 . S
C874 H866 0.930 . S
C874 C873 1.362 . S
C874 C877 1.409 . S
C875 H867 0.930 . S
C875 C876 1.355 . S
C875 C877 1.415 . S
C876 C875 1.355 . S
C876 C878 1.419 . S
C877 C872 1.425 . S
C877 C874 1.409 . S
C877 C875 1.415 . S
C878 H868 0.930 . S
C878 C876 1.419 . S
C878 C879 1.362 . S
C879 H869 0.930 . S
C879 C872 1.409 . S
C879 C878 1.362 . S
H880 C886 0.930 . S
H881 C889 0.930 . S
H882 C890 0.930 . S
H883 C891 0.930 . S
H884 C894 0.930 . S
H885 C895 0.930 . S
C886 H880 0.930 . S
C886 C887 1.355 . S
C886 C888 1.415 . S
C887 C886 1.355 . S
C887 C889 1.419 . S
C888 C886 1.415 . S
C888 C893 1.425 . S
C888 C895 1.409 . S
C889 H881 0.930 . S
C889 C887 1.419 . S
C889 C890 1.362 . S
C890 H882 0.930 . S
C890 C889 1.362 . S
C890 C893 1.409 . S
C891 H883 0.930 . S
C891 C892 1.355 . S
C891 C893 1.415 . S
C892 C891 1.355 . S
C892 C894 1.419 . S
C893 C888 1.425 . S
C893 C890 1.409 . S
C893 C891 1.415 . S
C894 H884 0.930 . S
C894 C892 1.419 . S
C894 C895 1.362 . S
C895 H885 0.930 . S
C895 C888 1.409 . S
C895 C894 1.362 . S
H896 C902 0.930 . S
H897 C905 0.930 . S
H898 C906 0.930 . S
H899 C907 0.930 . S
H900 C910 0.930 . S
H901 C911 0.930 . S
C902 H896 0.930 . S
C902 C903 1.355 . S
C902 C904 1.415 . S
C903 C902 1.355 . S
C903 C905 1.419 . S
C904 C902 1.415 . S
C904 C909 1.425 . S
C904 C911 1.409 . S
C905 H897 0.930 . S
C905 C903 1.419 . S
C905 C906 1.362 . S
C906 H898 0.930 . S
C906 C905 1.362 . S
C906 C909 1.409 . S
C907 H899 0.930 . S
C907 C908 1.355 . S
C907 C909 1.415 . S
C908 C907 1.355 . S
C908 C910 1.419 . S
C909 C904 1.425 . S
C909 C906 1.409 . S
C909 C907 1.415 . S
C910 H900 0.930 . S
C910 C908 1.419 . S
C910 C911 1.362 . S
C911 H901 0.930 . S
C911 C904 1.409 . S
C911 C910 1.362 . S
H912 C918 0.930 . S
H913 C921 0.930 . S
H914 C922 0.930 . S
H915 C923 0.930 . S
H916 C926 0.930 . S
H917 C927 0.930 . S
C918 H912 0.930 . S
C918 C919 1.355 . S
C918 C920 1.415 . S
C919 C918 1.355 . S
C919 C921 1.419 . S
C920 C918 1.415 . S
C920 C925 1.425 . S
C920 C927 1.409 . S
C921 H913 0.930 . S
C921 C919 1.419 . S
C921 C922 1.362 . S
C922 H914 0.930 . S
C922 C921 1.362 . S
C922 C925 1.409 . S
C923 H915 0.930 . S
C923 C924 1.355 . S
C923 C925 1.415 . S
C924 C923 1.355 . S
C924 C926 1.419 . S
C925 C920 1.425 . S
C925 C922 1.409 . S
C925 C923 1.415 . S
C926 H916 0.930 . S
C926 C924 1.419 . S
C926 C927 1.362 . S
C927 H917 0.930 . S
C927 C920 1.409 . S
C927 C926 1.362 . S
H928 C934 0.930 . S
H929 C937 0.930 . S
H930 C938 0.930 . S
H931 C939 0.930 . S
H932 C942 0.930 . S
H933 C943 0.930 . S
C934 H928 0.930 . S
C934 C935 1.355 . S
C934 C936 1.415 . S
C935 C934 1.355 . S
C935 C937 1.419 . S
C936 C934 1.415 . S
C936 C941 1.425 . S
C936 C943 1.409 . S
C937 H929 0.930 . S
C937 C935 1.419 . S
C937 C938 1.362 . S
C938 H930 0.930 . S
C938 C937 1.362 . S
C938 C941 1.409 . S
C939 H931 0.930 . S
C939 C940 1.355 . S
C939 C941 1.415 . S
C940 C939 1.355 . S
C940 C942 1.419 . S
C941 C936 1.425 . S
C941 C938 1.409 . S
C941 C939 1.415 . S
C942 H932 0.930 . S
C942 C940 1.419 . S
C942 C943 1.362 . S
C943 H933 0.930 . S
C943 C936 1.409 . S
C943 C942 1.362 . S
H944 C950 0.930 . S
H945 C953 0.930 1_455 S
H946 C954 0.930 . S
H947 C955 0.930 . S
H948 C958 0.930 . S
H949 C959 0.930 . S
C950 H944 0.930 . S
C950 C951 1.355 . S
C950 C952 1.415 . S
C951 C950 1.355 . S
C951 C953 1.419 . S
C952 C950 1.415 . S
C952 C957 1.425 . S
C952 C959 1.409 . S
C953 H945 0.930 1_655 S
C953 C951 1.419 . S
C953 C954 1.362 . S
C954 H946 0.930 . S
C954 C953 1.362 . S
C954 C957 1.409 . S
C955 H947 0.930 . S
C955 C956 1.355 . S
C955 C957 1.415 . S
C956 C955 1.355 . S
C956 C958 1.419 . S
C957 C952 1.425 . S
C957 C954 1.409 . S
C957 C955 1.415 . S
C958 H948 0.930 . S
C958 C956 1.419 . S
C958 C959 1.362 . S
C959 H949 0.930 . S
C959 C952 1.409 . S
C959 C958 1.362 . S
H960 C966 0.930 . S
H961 C969 0.930 . S
H962 C970 0.930 . S
H963 C971 0.930 . S
H964 C974 0.930 . S
H965 C975 0.930 . S
C966 H960 0.930 . S
C966 C967 1.355 . S
C966 C968 1.415 . S
C967 C966 1.355 . S
C967 C969 1.419 . S
C968 C966 1.415 . S
C968 C973 1.425 . S
C968 C975 1.409 . S
C969 H961 0.930 . S
C969 C967 1.419 . S
C969 C970 1.362 . S
C970 H962 0.930 . S
C970 C969 1.362 . S
C970 C973 1.409 . S
C971 H963 0.930 . S
C971 C972 1.355 . S
C971 C973 1.415 . S
C972 C971 1.355 . S
C972 C974 1.419 . S
C973 C968 1.425 . S
C973 C970 1.409 . S
C973 C971 1.415 . S
C974 H964 0.930 . S
C974 C972 1.419 . S
C974 C975 1.362 . S
C975 H965 0.930 . S
C975 C968 1.409 . S
C975 C974 1.362 . S
H976 C982 0.930 . S
H977 C985 0.930 . S
H978 C986 0.930 . S
H979 C987 0.930 . S
H980 C990 0.930 . S
H981 C991 0.930 . S
C982 H976 0.930 . S
C982 C983 1.355 . S
C982 C984 1.415 . S
C983 C982 1.355 . S
C983 C985 1.419 . S
C984 C982 1.415 . S
C984 C989 1.425 . S
C984 C991 1.409 . S
C985 H977 0.930 . S
C985 C983 1.419 . S
C985 C986 1.362 . S
C986 H978 0.930 . S
C986 C985 1.362 . S
C986 C989 1.409 . S
C987 H979 0.930 . S
C987 C988 1.355 . S
C987 C989 1.415 . S
C988 C987 1.355 . S
C988 C990 1.419 . S
C989 C984 1.425 . S
C989 C986 1.409 . S
C989 C987 1.415 . S
C990 H980 0.930 . S
C990 C988 1.419 . S
C990 C991 1.362 . S
C991 H981 0.930 . S
C991 C984 1.409 . S
C991 C990 1.362 . S
C492 C389 1.407 . S
C487 C8 1.343 . S
C508 C409 1.423 . S
C503 C61 1.431 . S
C524 C423 1.414 . S
C519 C107 1.426 . S
C535 C139 1.466 . S
C540 C381 1.475 . S
C551 C192 1.412 . S
C556 C375 1.517 . S
C567 C238 1.417 . S
C572 C395 1.430 . S
C588 C403 1.357 . S
C583 C284 1.356 . S
C604 C417 1.457 . S
C599 C330 1.375 . S
C615 C100 1.431 . S
C620 C445 1.448 . S
C636 C459 1.357 . S
C631 C160 1.353 . S
C647 C15 1.454 . S
C652 C479 1.461 . S
C668 C431 1.508 . S
C663 C54 1.462 . S
C679 C291 1.426 . S
C684 C437 1.419 . S
C695 C337 1.452 . S
C700 C451 1.450 . S
C716 C465 1.403 1_556 S
C711 C199 1.420 . S
C727 C245 1.332 . S
C732 C473 1.404 . S
C748 C404 1.734 . S
C743 C1 1.730 . S
C764 C418 1.746 . S
C759 C68 1.716 . S
C775 C114 1.667 . S
C780 C376 1.696 . S
C791 C146 1.513 . S
C796 C393 1.530 . S
C807 C185 1.378 . S
C812 C421 1.402 . S
C828 C379 1.372 . S
C823 C231 1.381 . S
C844 C390 1.589 . S
C839 C277 1.590 . S
C860 C407 1.462 . S
C855 C323 1.434 . S
C876 C463 1.451 . S
C871 C93 1.451 . S
C892 C474 1.583 . S
C887 C153 1.549 . S
C903 C22 1.364 . S
C908 C435 1.371 . S
C924 C449 1.393 . S
C919 C47 1.395 . S
C940 C477 1.529 . S
C935 C298 1.504 . S
C951 C344 1.662 . S
C956 C432 1.677 . S
C972 C446 1.768 . S
C967 C206 1.711 . S
C988 C460 1.731 . S
C983 C252 1.671 . S
