# Generated by pormake.
# Topology zzz, (3,6)-cn, num edge types: 1
# Building blocks:
#     Node 0, Type 0, BuildingBlock: MIDCAF_clean_linker_0, # of connection points: 3
#     Node 1, Type 0, BuildingBlock: MIDCAF_clean_linker_0, # of connection points: 3
#     Node 2, Type 0, BuildingBlock: MIDCAF_clean_linker_0, # of connection points: 3
#     Node 3, Type 0, BuildingBlock: MIDCAF_clean_linker_0, # of connection points: 3
#     Node 4, Type 0, BuildingBlock: MIDCAF_clean_linker_0, # of connection points: 3
#     Node 5, Type 0, BuildingBlock: MIDCAF_clean_linker_0, # of connection points: 3
#     Node 6, Type 0, BuildingBlock: MIDCAF_clean_linker_0, # of connection points: 3
#     Node 7, Type 0, BuildingBlock: MIDCAF_clean_linker_0, # of connection points: 3
#     Node 8, Type 1, BuildingBlock: HISSIN_clean_sbu_0, # of connection points: 6
#     Node 9, Type 1, BuildingBlock: HISSIN_clean_sbu_0, # of connection points: 6
#     Node 10, Type 1, BuildingBlock: HISSIN_clean_sbu_0, # of connection points: 6
#     Node 11, Type 1, BuildingBlock: HISSIN_clean_sbu_0, # of connection points: 6
#     Edge 12, Type (0, 1), BuildingBlock: KIFKEQ_clean_linker_1, # of connection points: 2
#     Edge 13, Type (0, 1), BuildingBlock: KIFKEQ_clean_linker_1, # of connection points: 2
#     Edge 14, Type (0, 1), BuildingBlock: KIFKEQ_clean_linker_1, # of connection points: 2
#     Edge 15, Type (0, 1), BuildingBlock: KIFKEQ_clean_linker_1, # of connection points: 2
#     Edge 16, Type (0, 1), BuildingBlock: KIFKEQ_clean_linker_1, # of connection points: 2
#     Edge 17, Type (0, 1), BuildingBlock: KIFKEQ_clean_linker_1, # of connection points: 2
#     Edge 18, Type (0, 1), BuildingBlock: KIFKEQ_clean_linker_1, # of connection points: 2
#     Edge 19, Type (0, 1), BuildingBlock: KIFKEQ_clean_linker_1, # of connection points: 2
#     Edge 20, Type (0, 1), BuildingBlock: KIFKEQ_clean_linker_1, # of connection points: 2
#     Edge 21, Type (0, 1), BuildingBlock: KIFKEQ_clean_linker_1, # of connection points: 2
#     Edge 22, Type (0, 1), BuildingBlock: KIFKEQ_clean_linker_1, # of connection points: 2
#     Edge 23, Type (0, 1), BuildingBlock: KIFKEQ_clean_linker_1, # of connection points: 2
#     Edge 24, Type (0, 1), BuildingBlock: KIFKEQ_clean_linker_1, # of connection points: 2
#     Edge 25, Type (0, 1), BuildingBlock: KIFKEQ_clean_linker_1, # of connection points: 2
#     Edge 26, Type (0, 1), BuildingBlock: KIFKEQ_clean_linker_1, # of connection points: 2
#     Edge 27, Type (0, 1), BuildingBlock: KIFKEQ_clean_linker_1, # of connection points: 2
#     Edge 28, Type (0, 1), BuildingBlock: KIFKEQ_clean_linker_1, # of connection points: 2
#     Edge 29, Type (0, 1), BuildingBlock: KIFKEQ_clean_linker_1, # of connection points: 2
#     Edge 30, Type (0, 1), BuildingBlock: KIFKEQ_clean_linker_1, # of connection points: 2
#     Edge 31, Type (0, 1), BuildingBlock: KIFKEQ_clean_linker_1, # of connection points: 2
#     Edge 32, Type (0, 1), BuildingBlock: KIFKEQ_clean_linker_1, # of connection points: 2
#     Edge 33, Type (0, 1), BuildingBlock: KIFKEQ_clean_linker_1, # of connection points: 2
#     Edge 34, Type (0, 1), BuildingBlock: KIFKEQ_clean_linker_1, # of connection points: 2
#     Edge 35, Type (0, 1), BuildingBlock: KIFKEQ_clean_linker_1, # of connection points: 2
# Relax obj value: 0.393
# Max RMSD: 0.223
# Mean RMSD: 0.192
data_MOF--net-zzz--node1-HISSIN_clean_sbu_0--node2-MIDCAF_clean_linker_0--edge1-KIFKEQ_clean_linker_1
_symmetry_space_group_name_H-M    P1
_symmetry_Int_Tables_number       1
_symmetry_cell_setting            triclinic
loop_
_symmetry_equiv_pos_as_xyz
'x, y, z'
_cell_length_a     56.629808
_cell_length_b     57.034406
_cell_length_c     21.880586
_cell_angle_alpha  89.990912
_cell_angle_beta   91.874548
_cell_angle_gamma 91.701426
loop_
_atom_site_label
_atom_site_type_symbol
_atom_site_fract_x
_atom_site_fract_y
_atom_site_fract_z
_atom_type_partial_charge
C0 C 0.79377 0.5579 0.4086 0.0
C1 C 0.80373 0.53573 0.40283 0.0
C2 C 0.79317 0.51978 0.36015 0.0
C3 C 0.77464 0.52663 0.32044 0.0
H4 H 0.6967 0.52447 0.20191 0.0
H5 H 0.66053 0.51466 0.14088 0.0
H6 H 0.66579 0.58215 0.05181 0.0
H7 H 0.70099 0.59196 0.11301 0.0
H8 H 0.75749 0.59495 0.05769 0.0
H9 H 0.78881 0.59762 0.98426 0.0
H10 H 0.84104 0.59432 0.13232 0.0
H11 H 0.81003 0.59267 0.20535 0.0
H12 H 0.76984 0.58276 0.37008 0.0
H13 H 0.80148 0.57075 0.44041 0.0
H14 H 0.80018 0.50246 0.35494 0.0
H15 H 0.76844 0.51477 0.28432 0.0
N16 N 0.73345 0.55455 0.24442 0.0
N17 N 0.74101 0.57765 0.15748 0.0
N18 N 0.77047 0.57365 0.23315 0.0
C19 C 0.72579 0.56407 0.19001 0.0
C20 C 0.76337 0.58245 0.17846 0.0
C21 C 0.75584 0.55995 0.26654 0.0
C22 C 0.70185 0.55893 0.16214 0.0
C23 C 0.68971 0.53736 0.17035 0.0
C24 C 0.66913 0.53167 0.13483 0.0
C25 C 0.66018 0.54754 0.09091 0.0
C26 C 0.67178 0.56952 0.08541 0.0
C27 C 0.69222 0.5751 0.12038 0.0
C28 C 0.78124 0.59252 0.13723 0.0
C29 C 0.77566 0.59571 0.07475 0.0
C30 C 0.79364 0.59713 0.03254 0.0
C31 C 0.81741 0.5952 0.05215 0.0
C32 C 0.82297 0.59563 0.11524 0.0
C33 C 0.80505 0.59444 0.15738 0.0
C34 C 0.76635 0.54956 0.32254 0.0
C35 C 0.77544 0.56477 0.3686 0.0
C36 C 0.97953 0.79486 0.37678 0.0
C37 C 0.99583 0.81243 0.35857 0.0
C38 C 1.00745 0.8092 0.30332 0.0
C39 C 1.00165 0.78986 0.26535 0.0
H40 H 0.93788 0.69316 0.11892 0.0
H41 H 0.94753 0.66009 0.05532 0.0
H42 H 0.02154 0.68034 0.07185 0.0
H43 H 0.01166 0.71384 0.13628 0.0
H44 H 0.9317 0.75866 0.03525 0.0
H45 H 0.92021 0.79216 0.97544 0.0
H46 H 0.89857 0.82691 0.1393 0.0
H47 H 0.91161 0.79358 0.19982 0.0
H48 H 0.95936 0.76371 0.35114 0.0
H49 H 0.97006 0.79679 0.4186 0.0
H50 H 0.02027 0.8222 0.28805 0.0
H51 H 1.00948 0.78893 0.22092 0.0
N52 N 0.97918 0.73909 0.20924 0.0
N53 N 0.94769 0.73911 0.13596 0.0
N54 N 0.95204 0.7696 0.20683 0.0
C55 C 0.9668 0.72845 0.16135 0.0
C56 C 0.94022 0.75964 0.15835 0.0
C57 C 0.9713 0.75962 0.23275 0.0
C58 C 0.974 0.70613 0.13291 0.0
C59 C 0.9563 0.69033 0.11012 0.0
C60 C 0.96186 0.67126 0.07365 0.0
C61 C 0.98532 0.66747 0.05799 0.0
C62 C 1.00324 0.68281 0.08255 0.0
C63 C 0.99766 0.70184 0.12008 0.0
C64 C 0.92353 0.77398 0.12241 0.0
C65 C 0.92356 0.77299 0.05836 0.0
C66 C 0.9168 0.79238 0.02381 0.0
C67 C 0.90956 0.8129 0.05286 0.0
C68 C 0.90516 0.81186 0.11576 0.0
C69 C 0.91245 0.79268 0.15048 0.0
C70 C 0.98409 0.7733 0.28159 0.0
C71 C 0.97356 0.7757 0.33844 0.0
C72 C 0.74128 0.9834 0.38395 0.0
C73 C 0.7246 1.00006 0.36553 0.0
C74 C 0.72813 0.01196 0.30981 0.0
C75 C 0.74656 1.00597 0.27159 0.0
H76 H 0.81704 0.01236 0.12303 0.0
H77 H 0.8497 0.02057 0.05361 0.0
H78 H 0.86567 0.94705 0.05353 0.0
H79 H 0.83329 0.93897 0.12155 0.0
H80 H 0.7571 0.93498 0.05451 0.0
H81 H 0.71726 0.92443 0.01969 0.0
H82 H 0.70192 0.89797 0.1997 0.0
H83 H 0.74175 0.90971 0.2351 0.0
H84 H 0.77061 0.96291 0.35877 0.0
H85 H 0.73921 0.9736 0.42591 0.0
H86 H 0.71596 0.02515 0.29425 0.0
H87 H 0.74741 0.01393 0.22671 0.0
N88 N 0.79284 0.98207 0.20897 0.0
N89 N 0.78843 0.94884 0.14459 0.0
N90 N 0.76173 0.95447 0.22181 0.0
C91 C 0.80088 0.96866 0.16216 0.0
C92 C 0.76895 0.94163 0.17448 0.0
C93 C 0.77325 0.97453 0.23952 0.0
C94 C 0.82256 0.97502 0.12801 0.0
C95 C 0.82786 0.9981 0.10902 0.0
C96 C 0.84641 1.00272 0.06875 0.0
C97 C 0.86037 0.98445 0.04771 0.0
C98 C 0.85555 0.96161 0.06896 0.0
C99 C 0.83687 0.95696 0.10796 0.0
C100 C 0.7521 0.92399 0.14798 0.0
C101 C 0.74569 0.92568 0.08575 0.0
C102 C 0.72264 0.91959 0.0658 0.0
C103 C 0.70595 0.91146 0.10788 0.0
C104 C 0.71407 0.90513 0.16685 0.0
C105 C 0.73698 0.91162 0.18703 0.0
C106 C 0.76199 0.98802 0.28811 0.0
C107 C 0.75957 0.9774 0.34566 0.0
C108 C 0.42436 0.70757 0.08511 0.0
C109 C 0.41425 0.7187 0.03354 0.0
C110 C 0.41844 0.74296 0.02627 0.0
C111 C 0.43441 0.75515 0.06559 0.0
H112 H 0.47377 0.82166 0.11834 0.0
H113 H 0.48599 0.85445 0.05495 0.0
H114 H 0.55602 0.82679 0.04734 0.0
H115 H 0.54346 0.79345 0.11154 0.0
H116 H 0.48009 0.74643 0.3288 0.0
H117 H 0.48881 0.71574 0.40302 0.0
H118 H 0.54738 0.69471 0.29612 0.0
H119 H 0.53878 0.72606 0.22235 0.0
H120 H 0.44867 0.7102 0.16148 0.0
H121 H 0.42181 0.68891 0.09234 0.0
H122 H 0.41048 0.75225 0.98804 0.0
H123 H 0.4384 0.77348 0.05635 0.0
N124 N 0.47717 0.77441 0.12368 0.0
N125 N 0.50917 0.7717 0.19468 0.0
N126 N 0.47793 0.74345 0.19319 0.0
C127 C 0.49802 0.78321 0.14756 0.0
C128 C 0.49873 0.75187 0.21813 0.0
C129 C 0.4671 0.75449 0.14575 0.0
C130 C 0.5077 0.80509 0.12026 0.0
C131 C 0.49196 0.82282 0.10438 0.0
C132 C 0.499 0.84168 0.068 0.0
C133 C 0.52199 0.8433 0.04578 0.0
C134 C 0.53812 0.82596 0.06336 0.0
C135 C 0.53108 0.80708 0.10076 0.0
C136 C 0.50897 0.73881 0.27041 0.0
C137 C 0.49542 0.73585 0.32255 0.0
C138 C 0.50021 0.718 0.36453 0.0
C139 C 0.51849 0.70237 0.35496 0.0
C140 C 0.53322 0.70645 0.30508 0.0
C141 C 0.52844 0.72451 0.26302 0.0
C142 C 0.4463 0.74338 0.11339 0.0
C143 C 0.44007 0.7198 0.12474 0.0
C144 C 0.2085 0.45597 0.96066 0.0
C145 C 0.21307 0.46905 0.90772 0.0
C146 C 0.23618 0.47857 0.90103 0.0
C147 C 0.25402 0.47524 0.94661 0.0
H148 H 0.32341 0.50762 0.11398 0.0
H149 H 0.36065 0.51648 0.17022 0.0
H150 H 0.37857 0.44358 0.15946 0.0
H151 H 0.3415 0.435 0.10299 0.0
H152 H 0.29347 0.45767 0.27079 0.0
H153 H 0.27349 0.46289 0.36648 0.0
H154 H 0.20701 0.44219 0.27689 0.0
H155 H 0.22684 0.43674 0.18171 0.0
H156 H 0.22137 0.44248 0.04534 0.0
H157 H 0.19099 0.44878 0.96885 0.0
H158 H 0.24048 0.48863 0.86074 0.0
H159 H 0.27142 0.48313 0.94072 0.0
N160 N 0.29003 0.46599 0.04921 0.0
N161 N 0.29526 0.45662 0.15371 0.0
N162 N 0.25786 0.45297 0.10699 0.0
C163 C 0.30448 0.46374 0.10026 0.0
C164 C 0.27202 0.45121 0.15765 0.0
C165 C 0.26643 0.46012 0.05253 0.0
C166 C 0.32976 0.47071 0.10304 0.0
C167 C 0.33602 0.49383 0.12032 0.0
C168 C 0.35713 0.49877 0.15381 0.0
C169 C 0.37242 0.48065 0.17069 0.0
C170 C 0.36736 0.45801 0.14724 0.0
C171 C 0.34619 0.4531 0.11409 0.0
C172 C 0.26158 0.44754 0.21809 0.0
C173 C 0.27471 0.45345 0.27191 0.0
C174 C 0.2633 0.45647 0.32684 0.0
C175 C 0.23865 0.45344 0.32889 0.0
C176 C 0.22605 0.44467 0.27695 0.0
C177 C 0.2374 0.44176 0.22203 0.0
C178 C 0.24907 0.46241 0.99991 0.0
C179 C 0.22612 0.45258 1.00542 0.0
C180 C 0.07147 0.22508 0.91116 0.0
C181 C 0.04872 0.21442 0.90869 0.0
C182 C 0.03111 0.22446 0.94384 0.0
C183 C 0.0365 0.24371 0.98283 0.0
H184 H 0.02116 0.31494 0.12102 0.0
H185 H 1.00927 0.34868 0.18158 0.0
H186 H 0.08259 0.37156 0.20205 0.0
H187 H 0.09389 0.33889 0.14038 0.0
H188 H 0.10955 0.28767 0.24009 0.0
H189 H 0.11686 0.2635 0.32987 0.0
H190 H 0.11603 0.20179 0.21546 0.0
H191 H 0.10901 0.22576 0.12585 0.0
H192 H 0.09496 0.25071 0.95398 0.0
H193 H 0.08564 0.21786 0.88575 0.0
H194 H 0.01331 0.21694 0.94278 0.0
H195 H 0.02302 0.25002 1.01215 0.0
N196 N 0.05826 0.28906 0.05527 0.0
N197 N 0.08428 0.2918 0.1414 0.0
N198 N 0.08488 0.259 0.07829 0.0
C199 C 0.06714 0.3013 0.10539 0.0
C200 C 0.09313 0.27067 0.12877 0.0
C201 C 0.06774 0.26792 0.04104 0.0
C202 C 0.05844 0.32436 0.12533 0.0
C203 C 0.03449 0.32781 0.13641 0.0
C204 C 0.02779 0.34695 0.17228 0.0
C205 C 0.04492 0.363 0.19783 0.0
C206 C 0.06866 0.36009 0.18303 0.0
C207 C 0.07525 0.34119 0.14742 0.0
C208 C 0.10736 0.25844 0.17622 0.0
C209 C 0.11191 0.26906 0.23363 0.0
C210 C 0.1162 0.25525 0.28523 0.0
C211 C 0.11601 0.2307 0.27994 0.0
C212 C 0.11594 0.22065 0.22127 0.0
C213 C 0.11166 0.23444 0.16967 0.0
C214 C 0.05965 0.25325 0.98775 0.0
C215 C 0.07684 0.24406 0.95029 0.0
C216 C 0.33536 0.02049 0.0287 0.0
C217 C 0.3362 0.02829 0.96762 0.0
C218 C 0.31638 0.03978 0.94284 0.0
C219 C 0.29721 0.04495 0.97939 0.0
H220 H 0.23479 0.01119 0.18034 0.0
H221 H 0.20272 1.00089 0.25014 0.0
H222 H 0.1858 0.07394 0.26247 0.0
H223 H 0.21713 0.08408 0.19355 0.0
H224 H 0.26687 0.11339 0.23911 0.0
H225 H 0.29368 0.13061 0.31689 0.0
H226 H 0.35257 0.11908 0.2011 0.0
H227 H 0.32593 0.10265 0.12308 0.0
H228 H 0.31694 0.02091 0.11305 0.0
H229 H 0.35008 0.01133 0.04935 0.0
H230 H 0.31636 0.04629 0.89635 0.0
H231 H 0.2833 0.05567 0.96044 0.0
N232 N 0.26215 0.04306 0.10864 0.0
N233 N 0.2607 0.07739 0.16806 0.0
N234 N 0.29202 0.07265 0.10333 0.0
C235 C 0.25078 0.05641 0.15025 0.0
C236 C 0.28125 0.08565 0.1453 0.0
C237 C 0.28271 0.05166 0.08413 0.0
C238 C 0.22879 0.04851 0.18157 0.0
C239 C 0.22382 0.02492 0.19682 0.0
C240 C 0.20553 0.01905 0.23716 0.0
C241 C 0.192 0.03667 0.26325 0.0
C242 C 0.19618 0.05996 0.24482 0.0
C243 C 0.21415 0.06574 0.20473 0.0
C244 C 0.2945 0.10522 0.17665 0.0
C245 C 0.2854 0.11552 0.229 0.0
C246 C 0.30078 0.12549 0.27366 0.0
C247 C 0.32536 0.12491 0.26669 0.0
C248 C 0.33379 0.11928 0.20889 0.0
C249 C 0.31842 0.10953 0.16404 0.0
C250 C 0.29709 0.03836 0.0413 0.0
C251 C 0.3161 0.0255 0.065 0.0
C252 C 0.61359 0.29961 0.2496 0.0
C253 C 0.62029 0.28702 0.30245 0.0
C254 C 0.61283 0.26335 0.30704 0.0
C255 C 0.59751 0.25318 0.26244 0.0
H256 H 0.50454 0.22952 0.23501 0.0
H257 H 0.49462 0.19592 0.2996 0.0
H258 H 0.53465 0.1514 0.18444 0.0
H259 H 0.54469 0.18525 0.12053 0.0
H260 H 0.50297 0.26556 0.01641 0.0
H261 H 0.49398 0.29333 0.93348 0.0
H262 H 0.56642 0.31941 0.94322 0.0
H263 H 0.57539 0.2917 0.02321 0.0
H264 H 0.59294 0.30006 0.16636 0.0
H265 H 0.61857 0.31795 0.24443 0.0
H266 H 0.61802 0.25294 0.34635 0.0
H267 H 0.59124 0.23525 0.2688 0.0
N268 N 0.55726 0.23805 0.18573 0.0
N269 N 0.53222 0.24269 0.09857 0.0
N270 N 0.5644 0.26894 0.11845 0.0
C271 C 0.53834 0.23064 0.15057 0.0
C272 C 0.54556 0.26197 0.08213 0.0
C273 C 0.5704 0.25715 0.17008 0.0
C274 C 0.52494 0.20985 0.17207 0.0
C275 C 0.51015 0.2123 0.22181 0.0
C276 C 0.50464 0.19303 0.2591 0.0
C277 C 0.51414 0.17097 0.24788 0.0
C278 C 0.52732 0.16819 0.19496 0.0
C279 C 0.53273 0.18747 0.15761 0.0
C280 C 0.53986 0.27641 0.02697 0.0
C281 C 0.51701 0.27694 0.99985 0.0
C282 C 0.51183 0.29303 0.9527 0.0
C283 C 0.52945 0.30875 0.93133 0.0
C284 C 0.55241 0.30747 0.95727 0.0
C285 C 0.55751 0.29159 1.004 0.0
C286 C 0.58956 0.26638 0.21191 0.0
C287 C 0.59858 0.28937 0.20476 0.0
Eu288 Eu 1.00572 0.0228 0.59708 0.0
Eu289 Eu 0.0401 0.99871 0.6977 0.0
C290 C 0.03326 0.0547 0.69754 0.0
C291 C 0.98661 0.07115 0.49966 0.0
C292 C 0.99443 0.08793 0.54347 0.0
C293 C 1.00218 0.09618 0.41994 0.0
C294 C 1.00711 0.10798 0.52597 0.0
C295 C 0.98958 0.07598 0.43754 0.0
C296 C 0.01224 0.11172 0.46431 0.0
C297 C 0.9808 0.04702 0.5192 0.0
O298 O 1.00282 0.98791 0.72228 0.0
O299 O 0.98527 0.0203 0.68454 0.0
C300 C 0.98543 1.00254 0.72264 0.0
O301 O 0.99729 0.98404 0.58278 0.0
O302 O 0.05093 0.99571 0.79392 0.0
O303 O 0.06654 0.9735 0.7272 0.0
O304 O 0.03145 0.9704 0.62727 0.0
C305 C 0.01235 0.96714 0.5921 0.0
O306 O 0.03991 0.01616 0.54953 0.0
O307 O 0.06599 0.01491 0.63159 0.0
O308 O 0.03511 0.0358 0.73139 0.0
O309 O 0.99578 0.03152 0.50263 0.0
O310 O 0.97524 0.04436 0.57617 0.0
O311 O 0.02774 0.05284 0.63899 0.0
C312 C 0.05041 0.9557 0.81488 0.0
C313 C 0.03882 0.93817 0.77885 0.0
C314 C 0.02828 0.94218 0.90211 0.0
C315 C 0.02144 0.92354 0.80345 0.0
C316 C 0.0457 0.95691 0.87736 0.0
C317 C 0.0153 0.92601 0.86472 0.0
C318 C 0.06152 0.97611 0.78461 0.0
C319 C 0.06173 0.01666 0.57223 0.0
H320 H 0.99247 0.08473 0.59186 0.0
H321 H 1.00511 0.09894 0.37178 0.0
H322 H 0.01439 0.11953 0.56147 0.0
H323 H 0.9837 0.06331 0.40299 0.0
H324 H 0.04171 0.93693 0.7303 0.0
H325 H 0.02431 0.94413 0.94989 0.0
H326 H 0.01175 0.9114 0.77319 0.0
H327 H 0.05417 0.97044 0.9059 0.0
Eu328 Eu 0.54314 0.03126 0.71533 0.0
Eu329 Eu 0.51573 0.99696 0.61532 0.0
C330 C 0.53756 0.97447 0.73644 0.0
C331 C 0.5698 0.04541 0.86729 0.0
C332 C 0.55426 0.02889 0.89356 0.0
C333 C 0.60067 0.0341 0.94001 0.0
C334 C 0.56224 0.01431 0.94058 0.0
C335 C 0.59266 0.04876 0.89299 0.0
C336 C 0.58591 0.01587 0.96163 0.0
C337 C 0.56458 0.05415 0.80525 0.0
O338 O 0.49052 1.00069 0.69267 0.0
O339 O 0.50402 0.03601 0.73057 0.0
C340 C 0.48746 0.01938 0.7261 0.0
O341 O 0.5394 0.05378 0.63135 0.0
O342 O 0.48929 0.96976 0.5887 0.0
O343 O 0.50687 0.98998 0.51905 0.0
O344 O 0.50613 0.03452 0.5948 0.0
C345 C 0.52106 0.05252 0.59323 0.0
O346 O 0.57283 0.01876 0.65756 0.0
O347 O 0.55266 0.99952 0.57858 0.0
O348 O 0.53359 0.97085 0.67758 0.0
O349 O 0.57564 0.04326 0.76306 0.0
O350 O 0.54241 0.05691 0.78975 0.0
O351 O 0.53815 0.99576 0.7597 0.0
C352 C 0.46587 0.98846 0.51323 0.0
C353 C 0.45365 1.00093 0.557 0.0
C354 C 0.44438 0.00916 0.43309 0.0
C355 C 0.438 0.01818 0.53927 0.0
C356 C 0.46051 0.99212 0.45106 0.0
C357 C 0.43374 0.02314 0.47709 0.0
C358 C 0.48809 0.9775 0.53251 0.0
C359 C 0.57242 0.00817 0.60406 0.0
H360 H 0.53658 0.02579 0.87424 0.0
H361 H 0.61904 0.03565 0.95526 0.0
H362 H 0.55045 1.00059 0.95716 0.0
H363 H 0.60499 0.06119 0.87292 0.0
H364 H 0.45762 0.99882 0.60532 0.0
H365 H 0.44102 0.01198 0.38471 0.0
H366 H 0.43053 0.02859 0.57476 0.0
H367 H 0.46995 0.98298 0.41646 0.0
Eu368 Eu 0.49348 0.50971 0.67043 0.0
Eu369 Eu 0.54042 0.49532 0.59648 0.0
C370 C 0.54478 0.5132 0.73566 0.0
C371 C 0.44295 0.5429 0.73791 0.0
C372 C 0.44681 0.56318 0.70291 0.0
C373 C 0.41758 0.56455 0.80335 0.0
C374 C 0.43628 0.58409 0.71838 0.0
C375 C 0.42804 0.54361 0.78761 0.0
C376 C 0.42188 0.58513 0.76947 0.0
C377 C 0.4548 0.52112 0.72396 0.0
O378 O 0.52516 0.46074 0.63142 0.0
O379 O 0.5027 0.47436 0.70859 0.0
C380 C 0.51341 0.45724 0.68176 0.0
O381 O 0.48156 0.4887 0.58674 0.0
O382 O 0.57856 0.49786 0.58494 0.0
O383 O 0.55646 0.47637 0.52304 0.0
O384 O 0.51124 0.50043 0.52545 0.0
C385 C 0.48939 0.49292 0.53191 0.0
O386 O 0.5018 0.54182 0.6138 0.0
O387 O 0.53982 0.53476 0.58602 0.0
O388 O 0.55132 0.49749 0.69632 0.0
O389 O 0.4557 0.51574 0.66626 0.0
O390 O 0.47478 0.51773 0.75343 0.0
O391 O 0.52488 0.52423 0.72687 0.0
C392 C 0.59405 0.46285 0.54844 0.0
C393 C 0.5909 0.44648 0.59554 0.0
C394 C 0.62346 0.43837 0.5051 0.0
C395 C 0.60343 0.42575 0.59623 0.0
C396 C 0.61092 0.45909 0.50449 0.0
C397 C 0.61917 0.42107 0.5496 0.0
C398 C 0.578 0.48238 0.54098 0.0
C399 C 0.52176 0.54867 0.58927 0.0
H400 H 0.45826 0.56294 0.66421 0.0
H401 H 0.40693 0.56481 0.84355 0.0
H402 H 0.43976 0.59956 0.691 0.0
H403 H 0.42491 0.52809 0.8151 0.0
H404 H 0.5779 0.4492 0.62992 0.0
H405 H 0.63519 0.4352 0.46806 0.0
H406 H 0.59989 0.41284 0.63133 0.0
H407 H 0.61347 0.47157 0.46776 0.0
Eu408 Eu 0.02412 0.53332 0.59537 0.0
Eu409 Eu 1.00466 0.49105 0.68014 0.0
C410 C 0.05966 0.50164 0.67562 0.0
C411 C 0.0712 0.56663 0.52104 0.0
C412 C 0.08796 0.5619 0.56807 0.0
C413 C 0.10049 0.55851 0.44617 0.0
C414 C 0.11028 0.55422 0.55413 0.0
C415 C 0.07811 0.5662 0.46014 0.0
C416 C 0.1162 0.55112 0.49299 0.0
C417 C 0.04585 0.566 0.53424 0.0
O418 O 0.01101 0.52301 0.74107 0.0
O419 O 1.00442 0.55115 0.6695 0.0
C420 C 1.00594 0.54471 0.72699 0.0
O421 O 0.9864 0.52793 0.56077 0.0
O422 O 1.00817 0.47101 0.7648 0.0
O423 O 0.97821 0.46411 0.70297 0.0
O424 O 0.97208 0.50993 0.64613 0.0
C425 C 0.96858 0.52016 0.59285 0.0
O426 O 0.03193 0.50022 0.54277 0.0
O427 O 1.00713 0.47332 0.58836 0.0
O428 O 0.04361 0.4846 0.67287 0.0
O429 O 0.03365 0.54883 0.50792 0.0
O430 O 0.04068 0.56833 0.59151 0.0
O431 O 0.05404 0.52308 0.66056 0.0
C432 C 0.97017 0.46922 0.80661 0.0
C433 C 0.9776 0.48579 0.85149 0.0
C434 C 0.92937 0.47684 0.82878 0.0
C435 C 0.96107 0.49873 0.88187 0.0
C436 C 0.94591 0.46388 0.79832 0.0
C437 C 0.93683 0.49524 0.8683 0.0
C438 C 0.9866 0.46237 0.75905 0.0
C439 C 0.02076 0.47961 0.54328 0.0
H440 H 0.08321 0.56203 0.61562 0.0
H441 H 0.10485 0.5567 0.3986 0.0
H442 H 0.12196 0.54863 0.59117 0.0
H443 H 0.06552 0.56975 0.42319 0.0
H444 H 0.99615 0.4903 0.85947 0.0
H445 H 0.91073 0.47337 0.81872 0.0
H446 H 0.96741 0.51271 0.91221 0.0
H447 H 0.93969 0.45112 0.76437 0.0
H448 H 0.18626 0.06023 0.3704 0.0
H449 H 0.15735 1.00149 0.26545 0.0
H450 H 0.15582 0.05428 0.44557 0.0
H451 H 0.12679 0.99534 0.34137 0.0
H452 H 0.0594 0.01252 0.44734 0.0
H453 H 0.09137 0.01546 0.37565 0.0
H454 H 0.14155 0.02756 0.52582 0.0
H455 H 0.10942 0.0246 0.59801 0.0
C456 C 0.17342 0.04595 0.36341 0.0
C457 C 0.17421 0.03148 0.31132 0.0
C458 C 0.15604 0.0424 0.40699 0.0
C459 C 0.13867 0.02438 0.39977 0.0
C460 C 0.13969 0.00957 0.34827 0.0
C461 C 0.15734 0.01295 0.30491 0.0
C462 C 0.07723 0.01579 0.46539 0.0
C463 C 0.08168 0.01841 0.52885 0.0
C464 C 0.09566 0.01728 0.42405 0.0
C465 C 0.11917 0.02169 0.4446 0.0
C466 C 0.12368 0.0243 0.50809 0.0
C467 C 0.10522 0.02254 0.54963 0.0
H468 H 0.47641 0.15654 0.31703 0.0
H469 H 0.5498 0.14302 0.28758 0.0
H470 H 0.47657 0.12833 0.40169 0.0
H471 H 0.54982 0.1148 0.37091 0.0
H472 H 0.55103 0.08942 0.56735 0.0
H473 H 0.5478 0.1173 0.4834 0.0
H474 H 0.48074 0.08518 0.42576 0.0
H475 H 0.4839 0.05715 0.51015 0.0
C476 C 0.49249 0.14742 0.32818 0.0
C477 C 0.51307 0.15206 0.2952 0.0
C478 C 0.49255 0.13118 0.3765 0.0
C479 C 0.51329 0.11948 0.39357 0.0
C480 C 0.53364 0.12374 0.35964 0.0
C481 C 0.53352 0.13972 0.31116 0.0
C482 C 0.53546 0.08838 0.53729 0.0
C483 C 0.51779 0.07094 0.54565 0.0
C484 C 0.5337 0.10428 0.48875 0.0
C485 C 0.51415 0.10332 0.44732 0.0
C486 C 0.49601 0.08645 0.45686 0.0
C487 C 0.49787 0.07036 0.50525 0.0
H488 H 0.41742 0.46326 0.17683 0.0
H489 H 0.36998 0.5059 0.27636 0.0
H490 H 0.44618 0.46586 0.26284 0.0
H491 H 0.39876 0.50883 0.3613 0.0
H492 H 0.50022 0.49593 0.41062 0.0
H493 H 0.47306 0.49383 0.32143 0.0
H494 H 0.41448 0.4821 0.44013 0.0
H495 H 0.44151 0.48427 0.52916 0.0
C496 C 0.41322 0.4734 0.21667 0.0
C497 C 0.39136 0.48443 0.21933 0.0
C498 C 0.42975 0.47498 0.26589 0.0
C499 C 0.42472 0.48738 0.31932 0.0
C500 C 0.40312 0.49886 0.32129 0.0
C501 C 0.38673 0.49746 0.27203 0.0
C502 C 0.48156 0.49277 0.41773 0.0
C503 C 0.4731 0.49029 0.47727 0.0
C504 C 0.466 0.49149 0.36649 0.0
C505 C 0.44154 0.48796 0.3735 0.0
C506 C 0.43315 0.48519 0.43301 0.0
C507 C 0.4487 0.48625 0.48413 0.0
H508 H 1.01033 0.36144 0.28438 0.0
H509 H 0.06566 0.40705 0.21578 0.0
H510 H 1.00309 0.38992 0.36372 0.0
H511 H 0.05995 0.4344 0.29802 0.0
H512 H 0.03548 0.48957 0.42769 0.0
H513 H 0.03879 0.46288 0.34191 0.0
H514 H 0.01675 0.40489 0.45622 0.0
H515 H 0.01214 0.43197 0.54067 0.0
C516 C 0.02091 0.37756 0.28571 0.0
C517 C 0.03877 0.38158 0.24325 0.0
C518 C 0.01706 0.39384 0.33237 0.0
C519 C 0.03112 0.41461 0.33878 0.0
C520 C 0.04849 0.4189 0.29513 0.0
C521 C 0.05207 0.40284 0.24801 0.0
C522 C 0.03134 0.47111 0.43449 0.0
C523 C 0.02358 0.46299 0.49134 0.0
C524 C 0.03337 0.45563 0.38512 0.0
C525 C 0.02814 0.4314 0.39121 0.0
C526 C 0.02051 0.42335 0.44851 0.0
C527 C 0.01806 0.43891 0.49752 0.0
H528 H 0.90508 0.96696 0.0479 0.0
H529 H 0.85835 0.011 0.94283 0.0
H530 H 0.93479 0.97147 0.97048 0.0
H531 H 0.88762 0.01493 0.86393 0.0
H532 H 0.95236 0.03424 0.75388 0.0
H533 H 0.92321 0.0309 0.83289 0.0
H534 H 0.94589 0.96077 0.87396 0.0
H535 H 0.97593 0.96473 0.79712 0.0
C536 C 0.90109 0.97758 1.00803 0.0
C537 C 0.87924 0.98865 1.0019 0.0
C538 C 0.91814 0.98005 0.96307 0.0
C539 C 0.91384 0.99346 0.90989 0.0
C540 C 0.89201 1.00476 0.90426 0.0
C541 C 0.87508 1.0025 0.94968 0.0
C542 C 0.9511 0.01806 0.77964 0.0
C543 C 0.96658 0.99977 0.76875 0.0
C544 C 0.93419 0.01606 0.82507 0.0
C545 C 0.93193 0.99555 0.86073 0.0
C546 C 0.94724 0.97709 0.84895 0.0
C547 C 0.9644 0.97925 0.80412 0.0
H548 H 0.54673 0.84064 0.93972 0.0
H549 H 0.51095 0.8895 0.05257 0.0
H550 H 0.55316 0.8716 0.86381 0.0
H551 H 0.5164 0.9199 0.97641 0.0
H552 H 0.54588 0.97649 0.8594 0.0
H553 H 0.545 0.94491 0.93323 0.0
H554 H 0.53154 0.89482 0.78741 0.0
H555 H 0.53268 0.92681 0.71255 0.0
C556 C 0.54048 0.85803 0.9487 0.0
C557 C 0.52828 0.86254 1.0023 0.0
C558 C 0.54387 0.8757 0.90476 0.0
C559 C 0.53526 0.89833 0.91362 0.0
C560 C 0.52359 0.90286 0.96802 0.0
C561 C 0.52024 0.8853 1.01168 0.0
C562 C 0.54297 0.95878 0.84264 0.0
C563 C 0.53924 0.95435 0.77979 0.0
C564 C 0.54234 0.94058 0.88527 0.0
C565 C 0.538 0.91724 0.86667 0.0
C566 C 0.53512 0.91256 0.80353 0.0
C567 C 0.53568 0.93092 0.76055 0.0
H568 H 0.65021 0.50496 0.03535 0.0
H569 H 0.62448 0.5753 0.04689 0.0
H570 H 0.62059 0.49581 0.95503 0.0
H571 H 0.59583 0.56661 0.96419 0.0
H572 H 0.53551 0.53978 0.83695 0.0
H573 H 0.56086 0.54649 0.92828 0.0
H574 H 0.61445 0.50431 0.85037 0.0
H575 H 0.58898 0.49708 0.7607 0.0
C576 C 0.63807 0.51842 0.02142 0.0
C577 C 0.64003 0.54097 0.04751 0.0
C578 C 0.62126 0.51329 0.97445 0.0
C579 C 0.60596 0.53057 0.95192 0.0
C580 C 0.60716 0.55277 0.9801 0.0
C581 C 0.62387 0.55785 0.02728 0.0
C582 C 0.55269 0.53192 0.83944 0.0
C583 C 0.56012 0.51788 0.79127 0.0
C584 C 0.56731 0.53582 0.89183 0.0
C585 C 0.58979 0.52587 0.8973 0.0
C586 C 0.59713 0.51188 0.84886 0.0
C587 C 0.58252 0.5079 0.79687 0.0
H588 H 0.96658 0.62245 0.05209 0.0
H589 H 0.01538 0.66939 0.96174 0.0
H590 H 0.97166 0.59292 0.97329 0.0
H591 H 0.02089 0.63961 0.88353 0.0
H592 H 1.00226 0.59248 0.71633 0.0
H593 H 0.99854 0.62132 0.79762 0.0
H594 H 0.99962 0.56585 0.93189 0.0
H595 H 1.00323 0.53699 0.85056 0.0
C596 C 0.97855 0.62643 0.01567 0.0
C597 C 0.9905 0.64844 0.01341 0.0
C598 C 0.98161 0.60938 0.97059 0.0
C599 C 0.99659 0.61383 0.92155 0.0
C600 C 1.00896 0.63562 0.92004 0.0
C601 C 1.00604 0.65263 0.96543 0.0
C602 C 1.00165 0.58638 0.76314 0.0
C603 C 1.00303 0.56231 0.77662 0.0
C604 C 0.99971 0.60299 0.80995 0.0
C605 C 0.99889 0.59604 0.87165 0.0
C606 C 1.00002 0.57192 0.88503 0.0
C607 C 1.00217 0.55533 0.83826 0.0
H608 H 0.13248 0.18771 0.31561 0.0
H609 H 0.08162 0.23964 0.35899 0.0
H610 H 0.11063 0.15873 0.37554 0.0
H611 H 0.05947 0.21091 0.41595 0.0
H612 H 0.02024 0.15553 0.5153 0.0
H613 H 0.05143 0.18403 0.49231 0.0
H614 H 0.0751 0.13844 0.35019 0.0
H615 H 0.04549 0.10918 0.37695 0.0
C616 C 0.11708 0.1931 0.33946 0.0
C617 C 0.10863 0.21585 0.33188 0.0
C618 C 0.10437 0.17647 0.37314 0.0
C619 C 0.08281 0.18224 0.39891 0.0
C620 C 0.07595 0.2057 0.39704 0.0
C621 C 0.0888 0.22234 0.36426 0.0
C622 C 0.03234 0.1514 0.47982 0.0
C623 C 0.03008 0.13008 0.44755 0.0
C624 C 0.05017 0.16786 0.46632 0.0
C625 C 0.06591 0.16362 0.4194 0.0
C626 C 0.0637 0.14223 0.38748 0.0
C627 C 0.04619 0.12563 0.40172 0.0
H628 H 0.37161 0.14085 0.28553 0.0
H629 H 0.3156 0.1007 0.37003 0.0
H630 H 0.40055 0.12195 0.35279 0.0
H631 H 0.34394 0.08144 0.43425 0.0
H632 H 0.39561 0.04099 0.53449 0.0
H633 H 0.37291 0.07469 0.50553 0.0
H634 H 0.41545 0.08461 0.34633 0.0
H635 H 0.43992 0.05267 0.37939 0.0
C636 C 0.3654 0.12861 0.31972 0.0
C637 C 0.34134 0.1219 0.32117 0.0
C638 C 0.38199 0.11752 0.35777 0.0
C639 C 0.37478 0.09938 0.39738 0.0
C640 C 0.35043 0.09519 0.40456 0.0
C641 C 0.33394 0.10645 0.36733 0.0
C642 C 0.4006 0.05069 0.49418 0.0
C643 C 0.41946 0.04367 0.45877 0.0
C644 C 0.38732 0.06998 0.47708 0.0
C645 C 0.39195 0.08233 0.42291 0.0
C646 C 0.41134 0.07583 0.3887 0.0
C647 C 0.42505 0.05694 0.40676 0.0
H648 H 0.61298 0.2799 0.4247 0.0
H649 H 0.65359 0.32316 0.30166 0.0
H650 H 0.62212 0.30746 0.50683 0.0
H651 H 0.66076 0.35182 0.38212 0.0
H652 H 0.66319 0.40765 0.5158 0.0
H653 H 0.67293 0.36942 0.47474 0.0
H654 H 0.60327 0.3426 0.51883 0.0
H655 H 0.59404 0.38011 0.56066 0.0
C656 C 0.6244 0.29493 0.41527 0.0
C657 C 0.63174 0.29973 0.3556 0.0
C658 C 0.62937 0.31099 0.46246 0.0
C659 C 0.64123 0.33245 0.45068 0.0
C660 C 0.6513 0.33569 0.3932 0.0
C661 C 0.64681 0.31936 0.34641 0.0
C662 C 0.6503 0.39329 0.51821 0.0
C663 C 0.62771 0.39701 0.5405 0.0
C664 C 0.65583 0.3714 0.49454 0.0
C665 C 0.63876 0.35294 0.49202 0.0
C666 C 0.61709 0.35614 0.52022 0.0
C667 C 0.61168 0.37786 0.54429 0.0
H668 H 0.24719 0.49601 0.3824 0.0
H669 H 0.19977 0.43529 0.3859 0.0
H670 H 0.2189 0.51864 0.43666 0.0
H671 H 0.17135 0.45808 0.44067 0.0
H672 H 0.1165 0.51554 0.4112 0.0
H673 H 0.14837 0.48946 0.39109 0.0
H674 H 0.19332 0.52637 0.52484 0.0
H675 H 0.16123 0.5531 0.5442 0.0
C676 C 0.23119 0.48716 0.39721 0.0
C677 C 0.22547 0.46398 0.37884 0.0
C678 C 0.21492 0.50021 0.42821 0.0
C679 C 0.1927 0.49028 0.44134 0.0
C680 C 0.18817 0.4663 0.42963 0.0
C681 C 0.20443 0.45324 0.39856 0.0
C682 C 0.13327 0.51837 0.43573 0.0
C683 C 0.13652 0.53663 0.47848 0.0
C684 C 0.15137 0.50308 0.42522 0.0
C685 C 0.1732 0.50562 0.4572 0.0
C686 C 0.1766 0.52395 0.49983 0.0
C687 C 0.15833 0.53925 0.5107 0.0
H688 H 0.92613 0.85417 0.10451 0.0
H689 H 0.90215 0.82419 0.93083 0.0
H690 H 0.94571 0.88596 0.05203 0.0
H691 H 0.92284 0.85603 0.87814 0.0
H692 H 1.00178 0.88041 0.84106 0.0
H693 H 0.96764 0.85872 0.87867 0.0
H694 H 0.94738 0.91982 0.9787 0.0
H695 H 0.98143 0.94183 0.93995 0.0
C696 C 0.92403 0.85476 0.05521 0.0
C697 C 0.91309 0.83599 0.022 0.0
C698 C 0.93549 0.87312 0.02501 0.0
C699 C 0.9364 0.87306 0.96107 0.0
C700 C 0.92287 0.85612 0.92765 0.0
C701 C 0.91108 0.83786 0.9579 0.0
C702 C 0.98986 0.88939 0.87018 0.0
C703 C 0.99451 0.91277 0.88803 0.0
C704 C 0.97016 0.87701 0.89132 0.0
C705 C 0.95471 0.88766 0.93113 0.0
C706 C 0.95902 0.91119 0.94809 0.0
C707 C 0.97868 0.92365 0.92656 0.0
H708 H 0.67945 0.90656 1.00033 0.0
H709 H 0.67496 0.92873 0.18854 0.0
H710 H 0.64415 0.92825 0.97415 0.0
H711 H 0.63927 0.94932 0.16276 0.0
H712 H 0.61586 0.01823 0.06247 0.0
H713 H 0.63861 0.98631 0.10632 0.0
H714 H 0.60249 0.93734 0.98202 0.0
H715 H 0.5806 0.9695 0.93685 0.0
C716 C 0.67049 0.91528 0.03653 0.0
C717 C 0.68051 0.91633 0.09614 0.0
C718 C 0.65012 0.9276 0.02163 0.0
C719 C 0.63932 0.94104 0.06622 0.0
C720 C 0.64755 0.93958 0.12719 0.0
C721 C 0.66792 0.92739 0.14204 0.0
C722 C 0.61245 1.00056 0.04561 0.0
C723 C 0.5963 0.99628 0.99668 0.0
C724 C 0.6253 0.9822 0.07098 0.0
C725 C 0.62233 0.95924 0.04759 0.0
C726 C 0.60522 0.9548 1.00091 0.0
C727 C 0.5924 0.97315 0.97566 0.0
H728 H 0.3861 0.67863 0.04109 0.0
H729 H 0.41823 0.72553 0.91031 0.0
H730 H 0.38123 0.64864 0.96253 0.0
H731 H 0.41168 0.69623 0.83104 0.0
H732 H 0.44614 0.62702 0.77312 0.0
H733 H 0.43544 0.66267 0.82336 0.0
H734 H 0.36784 0.63089 0.86723 0.0
H735 H 0.37873 0.59477 0.81638 0.0
C736 C 0.39139 0.68286 0.99517 0.0
C737 C 0.40341 0.70419 0.98286 0.0
C738 C 0.3883 0.66573 0.94976 0.0
C739 C 0.39681 0.66978 0.89092 0.0
C740 C 0.40561 0.69233 0.87647 0.0
C741 C 0.40906 0.7093 0.92202 0.0
C742 C 0.42867 0.62779 0.79161 0.0
C743 C 0.41339 0.60795 0.79118 0.0
C744 C 0.42245 0.64837 0.82043 0.0
C745 C 0.40075 0.64969 0.8496 0.0
C746 C 0.38479 0.63035 0.84586 0.0
C747 C 0.39106 0.60966 0.81692 0.0
H748 H 0.8108 0.56445 0.95747 0.0
H749 H 0.86493 0.60726 0.05116 0.0
H750 H 0.84084 0.54343 0.90622 0.0
H751 H 0.89526 0.58566 0.99993 0.0
H752 H 0.93492 0.51525 0.98185 0.0
H753 H 0.9075 0.54452 0.01518 0.0
H754 H 0.87337 0.54379 0.83565 0.0
H755 H 0.90076 0.51462 0.8023 0.0
C756 C 0.82907 0.57007 0.96547 0.0
C757 C 0.8354 0.58745 1.00913 0.0
C758 C 0.84637 0.55782 0.9362 0.0
C759 C 0.8704 0.56259 0.94995 0.0
C760 C 0.87682 0.58128 0.98954 0.0
C761 C 0.85946 0.59368 0.01865 0.0
C762 C 0.92163 0.52144 0.94948 0.0
C763 C 0.91974 0.51234 0.88981 0.0
C764 C 0.90608 0.53835 0.96834 0.0
C765 C 0.88835 0.54651 0.9279 0.0
C766 C 0.8867 0.53767 0.86798 0.0
C767 C 0.90224 0.52079 0.84913 0.0
H768 H 0.0657 0.20193 0.7968 0.0
H769 H 0.022 0.17547 0.94095 0.0
H770 H 0.06226 0.16394 0.74579 0.0
H771 H 0.01776 0.13776 0.88867 0.0
H772 H 0.03752 0.06543 0.81983 0.0
H773 H 0.04015 0.104 0.86786 0.0
H774 H 0.03709 0.13663 0.68973 0.0
H775 H 0.03526 0.09791 0.6418 0.0
C776 C 0.05517 0.1881 0.81751 0.0
C777 C 0.04425 0.19195 0.87348 0.0
C778 C 0.05301 0.16626 0.78779 0.0
C779 C 0.03988 0.14748 0.81305 0.0
C780 C 0.02838 0.15155 0.8681 0.0
C781 C 0.03051 0.17341 0.89777 0.0
C782 C 0.03755 0.0808 0.79076 0.0
C783 C 0.03603 0.07843 0.72669 0.0
C784 C 0.03881 0.10304 0.81845 0.0
C785 C 0.03861 0.12368 0.78303 0.0
C786 C 0.03744 0.12128 0.71883 0.0
C787 C 0.03618 0.099 0.69116 0.0
H788 H 0.34034 0.01747 0.84537 0.0
H789 H 0.38244 0.03488 1.00792 0.0
H790 H 0.3763 0.01602 0.7867 0.0
H791 H 0.41834 0.03299 0.94964 0.0
H792 H 0.47628 0.0519 0.81316 0.0
H793 H 0.43996 0.05394 0.87032 0.0
H794 H 0.41143 0.99286 0.77407 0.0
H795 H 0.44755 0.99086 0.71699 0.0
C796 C 0.35723 0.02093 0.86875 0.0
C797 C 0.3583 0.02618 0.93172 0.0
C798 C 0.37794 0.01994 0.8351 0.0
C799 C 0.4004 0.02443 0.86313 0.0
C800 C 0.40145 0.02966 0.92609 0.0
C801 C 0.38079 0.03043 0.95983 0.0
C802 C 0.46224 0.03896 0.80394 0.0
C803 C 0.46501 0.02125 0.76014 0.0
C804 C 0.4414 0.04002 0.83712 0.0
C805 C 0.42259 0.02355 0.82714 0.0
C806 C 0.4253 1.00603 0.78277 0.0
C807 C 0.44618 1.00483 0.75008 0.0
H808 H 0.55734 0.3251 0.83894 0.0
H809 H 0.48957 0.3351 0.91848 0.0
H810 H 0.55177 0.35944 0.77519 0.0
H811 H 0.48323 0.36864 0.85159 0.0
H812 H 0.49461 0.44494 0.79119 0.0
H813 H 0.4965 0.40774 0.84429 0.0
H814 H 0.5328 0.37826 0.69287 0.0
H815 H 0.53174 0.41606 0.64056 0.0
C816 C 0.54107 0.33444 0.8424 0.0
C817 C 0.52412 0.32742 0.885 0.0
C818 C 0.53771 0.35408 0.80497 0.0
C819 C 0.51714 0.36722 0.80835 0.0
C820 C 0.49957 0.35939 0.84845 0.0
C821 C 0.50303 0.33983 0.88633 0.0
C822 C 0.50287 0.43053 0.76878 0.0
C823 C 0.51308 0.43366 0.71143 0.0
C824 C 0.50379 0.40898 0.79925 0.0
C825 C 0.51477 0.38972 0.77323 0.0
C826 C 0.52448 0.39268 0.71505 0.0
C827 C 0.52373 0.41437 0.68469 0.0
H828 H 0.2042 0.50861 0.8382 0.0
H829 H 0.17663 0.43862 0.87256 0.0
H830 H 0.16952 0.51619 0.77307 0.0
H831 H 0.14126 0.44679 0.81304 0.0
H832 H 0.08229 0.45988 0.6794 0.0
H833 H 0.12124 0.45195 0.72337 0.0
H834 H 0.13031 0.525 0.77488 0.0
H835 H 0.09208 0.53299 0.72681 0.0
C836 C 0.19087 0.49476 0.83173 0.0
C837 C 0.19325 0.47311 0.86188 0.0
C838 C 0.17063 0.49925 0.79505 0.0
C839 C 0.15202 0.48232 0.78793 0.0
C840 C 0.15499 0.46037 0.8162 0.0
C841 C 0.17531 0.45577 0.85172 0.0
C842 C 0.09273 0.47425 0.69971 0.0
C843 C 0.08393 0.49701 0.70004 0.0
C844 C 0.11512 0.46971 0.72557 0.0
C845 C 0.12919 0.48769 0.75413 0.0
C846 C 0.12047 0.51061 0.75294 0.0
C847 C 0.09831 0.51523 0.72572 0.0
H848 H 1.00007 0.81853 0.48352 0.0
H849 H 0.99816 0.85742 0.31429 0.0
H850 H 1.00294 0.8554 0.54091 0.0
H851 H 1.0013 0.89418 0.37153 0.0
H852 H 0.98176 0.95564 0.49536 0.0
H853 H 0.97778 0.91831 0.44017 0.0
H854 H 0.03078 0.88893 0.56136 0.0
H855 H 0.03478 0.92608 0.61634 0.0
C856 C 1.00034 0.83492 0.4585 0.0
C857 C 0.99902 0.83488 0.39412 0.0
C858 C 1.00211 0.85609 0.49143 0.0
C859 C 1.00227 0.87788 0.46099 0.0
C860 C 1.00097 0.87782 0.39664 0.0
C861 C 0.99949 0.85667 0.36373 0.0
C862 C 0.99243 0.94118 0.51057 0.0
C863 C 1.0086 0.94401 0.56044 0.0
C864 C 0.99029 0.91979 0.47857 0.0
C865 C 1.00402 0.90053 0.49603 0.0
C866 C 0.01977 0.90324 0.54678 0.0
C867 C 0.02213 0.92466 0.57823 0.0
H868 H 0.67911 0.00709 0.32206 0.0
H869 H 0.71979 0.99972 0.49093 0.0
H870 H 0.64312 0.00955 0.37935 0.0
H871 H 0.68364 1.00111 0.54812 0.0
H872 H 0.61669 0.02578 0.63839 0.0
H873 H 0.65298 0.0251 0.58167 0.0
H874 H 0.61608 0.98634 0.43642 0.0
H875 H 0.57963 0.98753 0.49254 0.0
C876 C 0.68051 1.00623 0.37146 0.0
C877 C 0.70263 1.00326 0.40148 0.0
C878 C 0.65968 0.00725 0.40448 0.0
C879 C 0.66018 1.00534 0.46875 0.0
C880 C 0.68236 1.00284 0.49886 0.0
C881 C 0.7032 1.00181 0.46583 0.0
C882 C 0.61626 0.01701 0.59445 0.0
C883 C 0.59502 0.00669 0.57039 0.0
C884 C 0.63723 0.01654 0.56184 0.0
C885 C 0.63772 1.00572 0.50398 0.0
C886 C 0.6165 0.99522 0.4802 0.0
C887 C 0.59552 0.99571 0.5128 0.0
H888 H 0.55861 0.68147 0.40193 0.0
H889 H 0.48253 0.67365 0.39308 0.0
H890 H 0.56087 0.64554 0.46298 0.0
H891 H 0.4847 0.6379 0.45257 0.0
H892 H 0.49185 0.58507 0.60257 0.0
H893 H 0.49259 0.62282 0.55093 0.0
H894 H 0.55552 0.60382 0.45842 0.0
H895 H 0.55521 0.56628 0.51189 0.0
C896 C 0.54239 0.6721 0.41291 0.0
C897 C 0.52038 0.6807 0.3932 0.0
C898 C 0.54366 0.65144 0.4478 0.0
C899 C 0.52295 0.63876 0.46348 0.0
C900 C 0.50103 0.64737 0.44313 0.0
C901 C 0.49977 0.66798 0.40876 0.0
C902 C 0.50598 0.58897 0.57161 0.0
C903 C 0.52338 0.57247 0.56124 0.0
C904 C 0.50632 0.61064 0.54152 0.0
C905 C 0.52393 0.61643 0.49957 0.0
C906 C 0.54177 0.6002 0.49065 0.0
C907 C 0.54154 0.57855 0.52122 0.0
H908 H 0.81795 0.54602 0.52189 0.0
H909 H 0.84206 0.51468 0.35637 0.0
H910 H 0.85736 0.54209 0.5695 0.0
H911 H 0.88113 0.51036 0.40423 0.0
H912 H 0.95437 0.53467 0.47842 0.0
H913 H 0.91423 0.53701 0.43571 0.0
H914 H 0.88653 0.51318 0.60715 0.0
H915 H 0.9268 0.51091 0.65025 0.0
C916 C 0.83155 0.53805 0.49588 0.0
C917 C 0.82672 0.53066 0.43521 0.0
C918 C 0.85412 0.53569 0.5233 0.0
C919 C 0.87254 0.52611 0.49055 0.0
C920 C 0.8675 0.51812 0.43056 0.0
C921 C 0.84494 0.5203 0.40338 0.0
C922 C 0.93977 0.53002 0.50727 0.0
C923 C 0.94394 0.52259 0.56788 0.0
C924 C 0.9167 0.53118 0.48253 0.0
C925 C 0.89708 0.52511 0.51776 0.0
C926 C 0.90119 0.51809 0.57877 0.0
C927 C 0.92432 0.51672 0.60341 0.0
loop_
_geom_bond_atom_site_label_1
_geom_bond_atom_site_label_2
_geom_bond_distance
_geom_bond_site_symmetry_2
_ccdc_geom_bond_type
C0 C1 1.384 . S
C0 H13 0.947 . S
C0 C35 1.382 . S
C1 C0 1.384 . S
C1 C2 1.378 . S
C2 C1 1.378 . S
C2 C3 1.378 . S
C2 H14 0.952 . S
C3 C2 1.378 . S
C3 H15 0.950 . S
C3 C34 1.383 . S
H4 C23 0.947 . S
H5 C24 0.946 . S
H6 C26 0.953 . S
H7 C27 0.945 . S
H8 C29 0.952 . S
H9 C30 0.949 1_556 S
H10 C32 0.950 . S
H11 C33 0.948 . S
H12 C35 0.951 . S
H13 C0 0.947 . S
H14 C2 0.952 . S
H15 C3 0.950 . S
N16 C19 1.382 . S
N16 C21 1.363 . S
N17 C19 1.371 . S
N17 C20 1.372 . S
N18 C20 1.361 . S
N18 C21 1.377 . S
C19 N16 1.382 . S
C19 N17 1.371 . S
C19 C22 1.480 . S
C20 N17 1.372 . S
C20 N18 1.361 . S
C20 C28 1.457 . S
C21 N16 1.363 . S
C21 N18 1.377 . S
C21 C34 1.479 . S
C22 C19 1.480 . S
C22 C23 1.383 . S
C22 C27 1.385 . S
C23 H4 0.947 . S
C23 C22 1.383 . S
C23 C24 1.388 . S
C24 H5 0.946 . S
C24 C23 1.388 . S
C24 C25 1.384 . S
C25 C24 1.384 . S
C25 C26 1.377 . S
C26 H6 0.953 . S
C26 C25 1.377 . S
C26 C27 1.369 . S
C27 H7 0.945 . S
C27 C22 1.385 . S
C27 C26 1.369 . S
C28 C20 1.457 . S
C28 C29 1.372 . S
C28 C33 1.364 . S
C29 H8 0.952 . S
C29 C28 1.372 . S
C29 C30 1.389 . S
C30 H9 0.949 1_554 S
C30 C29 1.389 . S
C30 C31 1.387 . S
C31 C30 1.387 . S
C31 C32 1.372 . S
C32 H10 0.950 . S
C32 C31 1.372 . S
C32 C33 1.379 . S
C33 H11 0.948 . S
C33 C28 1.364 . S
C33 C32 1.379 . S
C34 C3 1.383 . S
C34 C21 1.479 . S
C34 C35 1.398 . S
C35 C0 1.382 . S
C35 H12 0.951 . S
C35 C34 1.398 . S
C36 C37 1.384 . S
C36 H49 0.947 . S
C36 C71 1.382 . S
C37 C36 1.384 . S
C37 C38 1.378 . S
C38 C37 1.378 . S
C38 C39 1.378 . S
C38 H50 0.952 . S
C39 C38 1.378 . S
C39 H51 0.950 . S
C39 C70 1.383 . S
H40 C59 0.947 . S
H41 C60 0.946 . S
H42 C62 0.953 . S
H43 C63 0.945 . S
H44 C65 0.952 . S
H45 C66 0.949 . S
H46 C68 0.950 . S
H47 C69 0.948 . S
H48 C71 0.951 . S
H49 C36 0.947 . S
H50 C38 0.952 . S
H51 C39 0.950 . S
N52 C55 1.382 . S
N52 C57 1.363 . S
N53 C55 1.371 . S
N53 C56 1.372 . S
N54 C56 1.361 . S
N54 C57 1.377 . S
C55 N52 1.382 . S
C55 N53 1.371 . S
C55 C58 1.480 . S
C56 N53 1.372 . S
C56 N54 1.361 . S
C56 C64 1.457 . S
C57 N52 1.363 . S
C57 N54 1.377 . S
C57 C70 1.479 . S
C58 C55 1.480 . S
C58 C59 1.383 . S
C58 C63 1.385 . S
C59 H40 0.947 . S
C59 C58 1.383 . S
C59 C60 1.388 . S
C60 H41 0.946 . S
C60 C59 1.388 . S
C60 C61 1.384 . S
C61 C60 1.384 . S
C61 C62 1.377 . S
C62 H42 0.953 . S
C62 C61 1.377 . S
C62 C63 1.369 . S
C63 H43 0.945 . S
C63 C58 1.385 . S
C63 C62 1.369 . S
C64 C56 1.457 . S
C64 C65 1.372 . S
C64 C69 1.364 . S
C65 H44 0.952 . S
C65 C64 1.372 . S
C65 C66 1.389 . S
C66 H45 0.949 . S
C66 C65 1.389 . S
C66 C67 1.387 . S
C67 C66 1.387 . S
C67 C68 1.372 . S
C68 H46 0.950 . S
C68 C67 1.372 . S
C68 C69 1.379 . S
C69 H47 0.948 . S
C69 C64 1.364 . S
C69 C68 1.379 . S
C70 C39 1.383 . S
C70 C57 1.479 . S
C70 C71 1.398 . S
C71 C36 1.382 . S
C71 H48 0.951 . S
C71 C70 1.398 . S
C72 C73 1.384 . S
C72 H85 0.947 . S
C72 C107 1.382 . S
C73 C72 1.384 . S
C73 C74 1.378 . S
C74 C73 1.378 . S
C74 C75 1.378 . S
C74 H86 0.952 . S
C75 C74 1.378 . S
C75 H87 0.950 . S
C75 C106 1.383 . S
H76 C95 0.947 . S
H77 C96 0.946 . S
H78 C98 0.953 . S
H79 C99 0.945 . S
H80 C101 0.952 . S
H81 C102 0.949 . S
H82 C104 0.950 . S
H83 C105 0.948 . S
H84 C107 0.951 . S
H85 C72 0.947 . S
H86 C74 0.952 . S
H87 C75 0.950 . S
N88 C91 1.382 . S
N88 C93 1.363 . S
N89 C91 1.371 . S
N89 C92 1.372 . S
N90 C92 1.361 . S
N90 C93 1.377 . S
C91 N88 1.382 . S
C91 N89 1.371 . S
C91 C94 1.480 . S
C92 N89 1.372 . S
C92 N90 1.361 . S
C92 C100 1.457 . S
C93 N88 1.363 . S
C93 N90 1.377 . S
C93 C106 1.479 . S
C94 C91 1.480 . S
C94 C95 1.383 . S
C94 C99 1.385 . S
C95 H76 0.947 . S
C95 C94 1.383 . S
C95 C96 1.388 . S
C96 H77 0.946 . S
C96 C95 1.388 . S
C96 C97 1.384 . S
C97 C96 1.384 . S
C97 C98 1.377 . S
C98 H78 0.953 . S
C98 C97 1.377 . S
C98 C99 1.369 . S
C99 H79 0.945 . S
C99 C94 1.385 . S
C99 C98 1.369 . S
C100 C92 1.457 . S
C100 C101 1.372 . S
C100 C105 1.364 . S
C101 H80 0.952 . S
C101 C100 1.372 . S
C101 C102 1.389 . S
C102 H81 0.949 . S
C102 C101 1.389 . S
C102 C103 1.387 . S
C103 C102 1.387 . S
C103 C104 1.372 . S
C104 H82 0.950 . S
C104 C103 1.372 . S
C104 C105 1.379 . S
C105 H83 0.948 . S
C105 C100 1.364 . S
C105 C104 1.379 . S
C106 C75 1.383 . S
C106 C93 1.479 . S
C106 C107 1.398 . S
C107 C72 1.382 . S
C107 H84 0.951 . S
C107 C106 1.398 . S
C108 C109 1.384 . S
C108 H121 0.947 . S
C108 C143 1.382 . S
C109 C108 1.384 . S
C109 C110 1.378 . S
C110 C109 1.378 . S
C110 C111 1.378 . S
C110 H122 0.952 1_554 S
C111 C110 1.378 . S
C111 H123 0.950 . S
C111 C142 1.383 . S
H112 C131 0.947 . S
H113 C132 0.946 . S
H114 C134 0.953 . S
H115 C135 0.945 . S
H116 C137 0.952 . S
H117 C138 0.949 . S
H118 C140 0.950 . S
H119 C141 0.948 . S
H120 C143 0.951 . S
H121 C108 0.947 . S
H122 C110 0.952 1_556 S
H123 C111 0.950 . S
N124 C127 1.382 . S
N124 C129 1.363 . S
N125 C127 1.371 . S
N125 C128 1.372 . S
N126 C128 1.361 . S
N126 C129 1.377 . S
C127 N124 1.382 . S
C127 N125 1.371 . S
C127 C130 1.480 . S
C128 N125 1.372 . S
C128 N126 1.361 . S
C128 C136 1.457 . S
C129 N124 1.363 . S
C129 N126 1.377 . S
C129 C142 1.479 . S
C130 C127 1.480 . S
C130 C131 1.383 . S
C130 C135 1.385 . S
C131 H112 0.947 . S
C131 C130 1.383 . S
C131 C132 1.388 . S
C132 H113 0.946 . S
C132 C131 1.388 . S
C132 C133 1.384 . S
C133 C132 1.384 . S
C133 C134 1.377 . S
C134 H114 0.953 . S
C134 C133 1.377 . S
C134 C135 1.369 . S
C135 H115 0.945 . S
C135 C130 1.385 . S
C135 C134 1.369 . S
C136 C128 1.457 . S
C136 C137 1.372 . S
C136 C141 1.364 . S
C137 H116 0.952 . S
C137 C136 1.372 . S
C137 C138 1.389 . S
C138 H117 0.949 . S
C138 C137 1.389 . S
C138 C139 1.387 . S
C139 C138 1.387 . S
C139 C140 1.372 . S
C140 H118 0.950 . S
C140 C139 1.372 . S
C140 C141 1.379 . S
C141 H119 0.948 . S
C141 C136 1.364 . S
C141 C140 1.379 . S
C142 C111 1.383 . S
C142 C129 1.479 . S
C142 C143 1.398 . S
C143 C108 1.382 . S
C143 H120 0.951 . S
C143 C142 1.398 . S
C144 C145 1.384 . S
C144 H157 0.947 . S
C144 C179 1.382 . S
C145 C144 1.384 . S
C145 C146 1.378 . S
C146 C145 1.378 . S
C146 C147 1.378 . S
C146 H158 0.952 . S
C147 C146 1.378 . S
C147 H159 0.950 . S
C147 C178 1.383 . S
H148 C167 0.947 . S
H149 C168 0.946 . S
H150 C170 0.953 . S
H151 C171 0.945 . S
H152 C173 0.952 . S
H153 C174 0.949 . S
H154 C176 0.950 . S
H155 C177 0.948 . S
H156 C179 0.951 . S
H157 C144 0.947 . S
H158 C146 0.952 . S
H159 C147 0.950 . S
N160 C163 1.382 . S
N160 C165 1.363 . S
N161 C163 1.371 . S
N161 C164 1.372 . S
N162 C164 1.361 . S
N162 C165 1.377 . S
C163 N160 1.382 . S
C163 N161 1.371 . S
C163 C166 1.480 . S
C164 N161 1.372 . S
C164 N162 1.361 . S
C164 C172 1.457 . S
C165 N160 1.363 . S
C165 N162 1.377 . S
C165 C178 1.479 1_554 S
C166 C163 1.480 . S
C166 C167 1.383 . S
C166 C171 1.385 . S
C167 H148 0.947 . S
C167 C166 1.383 . S
C167 C168 1.388 . S
C168 H149 0.946 . S
C168 C167 1.388 . S
C168 C169 1.384 . S
C169 C168 1.384 . S
C169 C170 1.377 . S
C170 H150 0.953 . S
C170 C169 1.377 . S
C170 C171 1.369 . S
C171 H151 0.945 . S
C171 C166 1.385 . S
C171 C170 1.369 . S
C172 C164 1.457 . S
C172 C173 1.372 . S
C172 C177 1.364 . S
C173 H152 0.952 . S
C173 C172 1.372 . S
C173 C174 1.389 . S
C174 H153 0.949 . S
C174 C173 1.389 . S
C174 C175 1.387 . S
C175 C174 1.387 . S
C175 C176 1.372 . S
C176 H154 0.950 . S
C176 C175 1.372 . S
C176 C177 1.379 . S
C177 H155 0.948 . S
C177 C172 1.364 . S
C177 C176 1.379 . S
C178 C147 1.383 . S
C178 C165 1.479 1_556 S
C178 C179 1.398 . S
C179 C144 1.382 . S
C179 H156 0.951 . S
C179 C178 1.398 . S
C180 C181 1.384 . S
C180 H193 0.947 . S
C180 C215 1.382 . S
C181 C180 1.384 . S
C181 C182 1.378 . S
C182 C181 1.378 . S
C182 C183 1.378 . S
C182 H194 0.952 . S
C183 C182 1.378 . S
C183 H195 0.950 . S
C183 C214 1.383 . S
H184 C203 0.947 1_556 S
H185 C204 0.946 . S
H186 C206 0.953 . S
H187 C207 0.945 . S
H188 C209 0.952 . S
H189 C210 0.949 . S
H190 C212 0.950 . S
H191 C213 0.948 . S
H192 C215 0.951 . S
H193 C180 0.947 . S
H194 C182 0.952 . S
H195 C183 0.950 . S
N196 C199 1.382 1_556 S
N196 C201 1.363 . S
N197 C199 1.371 . S
N197 C200 1.372 . S
N198 C200 1.361 . S
N198 C201 1.377 1_554 S
C199 N196 1.382 1_554 S
C199 N197 1.371 . S
C199 C202 1.480 . S
C200 N197 1.372 . S
C200 N198 1.361 . S
C200 C208 1.457 . S
C201 N196 1.363 . S
C201 N198 1.377 1_556 S
C201 C214 1.479 . S
C202 C199 1.480 . S
C202 C203 1.383 . S
C202 C207 1.385 . S
C203 H184 0.947 1_554 S
C203 C202 1.383 . S
C203 C204 1.388 . S
C204 H185 0.946 . S
C204 C203 1.388 . S
C204 C205 1.384 . S
C205 C204 1.384 . S
C205 C206 1.377 . S
C206 H186 0.953 . S
C206 C205 1.377 . S
C206 C207 1.369 . S
C207 H187 0.945 . S
C207 C202 1.385 . S
C207 C206 1.369 . S
C208 C200 1.457 . S
C208 C209 1.372 . S
C208 C213 1.364 . S
C209 H188 0.952 . S
C209 C208 1.372 . S
C209 C210 1.389 . S
C210 H189 0.949 . S
C210 C209 1.389 . S
C210 C211 1.387 . S
C211 C210 1.387 . S
C211 C212 1.372 . S
C212 H190 0.950 . S
C212 C211 1.372 . S
C212 C213 1.379 . S
C213 H191 0.948 . S
C213 C208 1.364 . S
C213 C212 1.379 . S
C214 C183 1.383 . S
C214 C201 1.479 . S
C214 C215 1.398 . S
C215 C180 1.382 . S
C215 H192 0.951 . S
C215 C214 1.398 . S
C216 C217 1.384 . S
C216 H229 0.947 . S
C216 C251 1.382 . S
C217 C216 1.384 . S
C217 C218 1.378 . S
C218 C217 1.378 . S
C218 C219 1.378 . S
C218 H230 0.952 . S
C219 C218 1.378 . S
C219 H231 0.950 . S
C219 C250 1.383 . S
H220 C239 0.947 . S
H221 C240 0.946 1_556 S
H222 C242 0.953 . S
H223 C243 0.945 . S
H224 C245 0.952 . S
H225 C246 0.949 . S
H226 C248 0.950 . S
H227 C249 0.948 . S
H228 C251 0.951 . S
H229 C216 0.947 . S
H230 C218 0.952 . S
H231 C219 0.950 . S
N232 C235 1.382 1_556 S
N232 C237 1.363 . S
N233 C235 1.371 . S
N233 C236 1.372 . S
N234 C236 1.361 . S
N234 C237 1.377 1_554 S
C235 N232 1.382 1_554 S
C235 N233 1.371 . S
C235 C238 1.480 . S
C236 N233 1.372 . S
C236 N234 1.361 . S
C236 C244 1.457 . S
C237 N232 1.363 . S
C237 N234 1.377 1_556 S
C237 C250 1.479 . S
C238 C235 1.480 . S
C238 C239 1.383 1_554 S
C238 C243 1.385 . S
C239 H220 0.947 . S
C239 C238 1.383 1_556 S
C239 C240 1.388 1_556 S
C240 H221 0.946 1_554 S
C240 C239 1.388 1_554 S
C240 C241 1.384 . S
C241 C240 1.384 . S
C241 C242 1.377 . S
C242 H222 0.953 . S
C242 C241 1.377 . S
C242 C243 1.369 . S
C243 H223 0.945 . S
C243 C238 1.385 . S
C243 C242 1.369 . S
C244 C236 1.457 . S
C244 C245 1.372 . S
C244 C249 1.364 . S
C245 H224 0.952 . S
C245 C244 1.372 . S
C245 C246 1.389 . S
C246 H225 0.949 . S
C246 C245 1.389 . S
C246 C247 1.387 . S
C247 C246 1.387 . S
C247 C248 1.372 . S
C248 H226 0.950 . S
C248 C247 1.372 . S
C248 C249 1.379 . S
C249 H227 0.948 . S
C249 C244 1.364 . S
C249 C248 1.379 . S
C250 C219 1.383 . S
C250 C237 1.479 . S
C250 C251 1.398 . S
C251 C216 1.382 . S
C251 H228 0.951 . S
C251 C250 1.398 . S
C252 C253 1.384 . S
C252 H265 0.947 . S
C252 C287 1.382 . S
C253 C252 1.384 . S
C253 C254 1.378 . S
C254 C253 1.378 . S
C254 C255 1.378 . S
C254 H266 0.952 . S
C255 C254 1.378 . S
C255 H267 0.950 . S
C255 C286 1.383 . S
H256 C275 0.947 . S
H257 C276 0.946 . S
H258 C278 0.953 . S
H259 C279 0.945 . S
H260 C281 0.952 . S
H261 C282 0.949 . S
H262 C284 0.950 . S
H263 C285 0.948 . S
H264 C287 0.951 . S
H265 C252 0.947 . S
H266 C254 0.952 . S
H267 C255 0.950 . S
N268 C271 1.382 . S
N268 C273 1.363 . S
N269 C271 1.371 . S
N269 C272 1.372 . S
N270 C272 1.361 . S
N270 C273 1.377 . S
C271 N268 1.382 . S
C271 N269 1.371 . S
C271 C274 1.480 . S
C272 N269 1.372 . S
C272 N270 1.361 . S
C272 C280 1.457 1_554 S
C273 N268 1.363 . S
C273 N270 1.377 . S
C273 C286 1.479 . S
C274 C271 1.480 . S
C274 C275 1.383 . S
C274 C279 1.385 . S
C275 H256 0.947 . S
C275 C274 1.383 . S
C275 C276 1.388 . S
C276 H257 0.946 . S
C276 C275 1.388 . S
C276 C277 1.384 . S
C277 C276 1.384 . S
C277 C278 1.377 . S
C278 H258 0.953 . S
C278 C277 1.377 . S
C278 C279 1.369 . S
C279 H259 0.945 . S
C279 C274 1.385 . S
C279 C278 1.369 . S
C280 C272 1.457 1_556 S
C280 C281 1.372 . S
C280 C285 1.364 . S
C281 H260 0.952 . S
C281 C280 1.372 . S
C281 C282 1.389 . S
C282 H261 0.949 . S
C282 C281 1.389 . S
C282 C283 1.387 . S
C283 C282 1.387 . S
C283 C284 1.372 . S
C284 H262 0.950 . S
C284 C283 1.372 . S
C284 C285 1.379 . S
C285 H263 0.948 . S
C285 C280 1.364 . S
C285 C284 1.379 . S
C286 C255 1.383 . S
C286 C273 1.479 . S
C286 C287 1.398 . S
C287 C252 1.382 . S
C287 H264 0.951 . S
C287 C286 1.398 . S
Eu288 C297 2.828 . S
Eu288 O299 2.392 . S
Eu288 O301 2.418 1_545 S
Eu288 O306 2.373 1_655 S
Eu288 O309 2.488 . S
Eu288 O310 2.471 . S
Eu288 O311 2.349 1_655 S
Eu289 O298 2.373 1_455 S
Eu289 O302 2.488 . S
Eu289 O303 2.471 . S
Eu289 O304 2.349 . S
Eu289 O307 2.392 1_565 S
Eu289 O308 2.418 1_565 S
Eu289 C318 2.828 . S
C290 O308 1.244 . S
C290 O311 1.265 . S
C291 C292 1.379 1_655 S
C291 C295 1.373 . S
C291 C297 1.505 . S
C292 C291 1.379 1_455 S
C292 C294 1.369 . S
C292 H320 0.930 . S
C293 C295 1.383 . S
C293 C296 1.382 1_655 S
C293 H321 0.930 . S
C294 C292 1.369 . S
C294 C296 1.392 . S
C294 H322 0.930 . S
C295 C291 1.373 . S
C295 C293 1.383 . S
C295 H323 0.931 . S
C296 C293 1.382 1_455 S
C296 C294 1.392 . S
C297 Eu288 2.828 . S
C297 C291 1.505 . S
C297 O309 1.249 . S
C297 O310 1.244 . S
O298 Eu289 2.373 1_655 S
O298 C300 1.258 . S
O299 Eu288 2.392 . S
O299 C300 1.242 1_545 S
C300 O298 1.258 . S
C300 O299 1.242 1_565 S
O301 Eu288 2.418 1_565 S
O301 C305 1.244 . S
O302 Eu289 2.488 . S
O302 C318 1.249 . S
O303 Eu289 2.471 . S
O303 C318 1.244 . S
O304 Eu289 2.349 . S
O304 C305 1.265 1_455 S
C305 O301 1.244 . S
C305 O304 1.265 1_655 S
O306 Eu288 2.373 1_455 S
O306 C319 1.258 . S
O307 Eu289 2.392 1_545 S
O307 C319 1.242 . S
O308 Eu289 2.418 1_545 S
O308 C290 1.244 . S
O309 Eu288 2.488 . S
O309 C297 1.249 . S
O310 Eu288 2.471 . S
O310 C297 1.244 . S
O311 Eu288 2.349 1_455 S
O311 C290 1.265 . S
C312 C313 1.379 . S
C312 C316 1.373 . S
C312 C318 1.505 . S
C313 C312 1.379 . S
C313 C315 1.369 . S
C313 H324 0.930 1_455 S
C314 C316 1.383 . S
C314 C317 1.382 . S
C314 H325 0.930 . S
C315 C313 1.369 . S
C315 C317 1.392 . S
C315 H326 0.930 1_455 S
C316 C312 1.373 . S
C316 C314 1.383 . S
C316 H327 0.931 . S
C317 C314 1.382 . S
C317 C315 1.392 . S
C318 Eu289 2.828 . S
C318 O302 1.249 . S
C318 O303 1.244 . S
C318 C312 1.505 . S
C319 O306 1.258 . S
C319 O307 1.242 . S
H320 C292 0.930 . S
H321 C293 0.930 . S
H322 C294 0.930 . S
H323 C295 0.931 . S
H324 C313 0.930 1_655 S
H325 C314 0.930 . S
H326 C315 0.930 1_655 S
H327 C316 0.931 . S
Eu328 C337 2.828 . S
Eu328 O339 2.392 . S
Eu328 O341 2.418 . S
Eu328 O346 2.373 . S
Eu328 O349 2.488 . S
Eu328 O350 2.471 . S
Eu328 O351 2.349 1_545 S
Eu329 O338 2.373 1_565 S
Eu329 O342 2.488 . S
Eu329 O343 2.471 1_565 S
Eu329 O344 2.349 1_565 S
Eu329 O347 2.392 . S
Eu329 O348 2.418 . S
Eu329 C358 2.828 . S
C330 O348 1.244 . S
C330 O351 1.265 . S
C331 C332 1.379 1_545 S
C331 C335 1.373 . S
C331 C337 1.505 . S
C332 C331 1.379 1_565 S
C332 C334 1.369 . S
C332 H360 0.930 . S
C333 C335 1.383 . S
C333 C336 1.382 . S
C333 H361 0.930 . S
C334 C332 1.369 . S
C334 C336 1.392 1_565 S
C334 H362 0.930 . S
C335 C331 1.373 . S
C335 C333 1.383 . S
C335 H363 0.931 . S
C336 C333 1.382 . S
C336 C334 1.392 1_545 S
C337 Eu328 2.828 . S
C337 C331 1.505 . S
C337 O349 1.249 . S
C337 O350 1.244 . S
O338 Eu329 2.373 1_545 S
O338 C340 1.258 . S
O339 Eu328 2.392 . S
O339 C340 1.242 . S
C340 O338 1.258 . S
C340 O339 1.242 . S
O341 Eu328 2.418 . S
O341 C345 1.244 . S
O342 Eu329 2.488 . S
O342 C358 1.249 . S
O343 Eu329 2.471 1_545 S
O343 C358 1.244 1_545 S
O344 Eu329 2.349 1_545 S
O344 C345 1.265 . S
C345 O341 1.244 . S
C345 O344 1.265 . S
O346 Eu328 2.373 . S
O346 C359 1.258 1_545 S
O347 Eu329 2.392 . S
O347 C359 1.242 . S
O348 Eu329 2.418 . S
O348 C330 1.244 . S
O349 Eu328 2.488 . S
O349 C337 1.249 . S
O350 Eu328 2.471 . S
O350 C337 1.244 . S
O351 Eu328 2.349 1_565 S
O351 C330 1.265 . S
C352 C353 1.379 1_565 S
C352 C356 1.373 . S
C352 C358 1.505 . S
C353 C352 1.379 1_545 S
C353 C355 1.369 . S
C353 H364 0.930 . S
C354 C356 1.383 . S
C354 C357 1.382 . S
C354 H365 0.930 . S
C355 C353 1.369 . S
C355 C357 1.392 1_545 S
C355 H366 0.930 . S
C356 C352 1.373 . S
C356 C354 1.383 . S
C356 H367 0.931 . S
C357 C354 1.382 . S
C357 C355 1.392 1_565 S
C358 Eu329 2.828 . S
C358 O342 1.249 . S
C358 O343 1.244 1_565 S
C358 C352 1.505 . S
C359 O346 1.258 1_565 S
C359 O347 1.242 . S
H360 C332 0.930 . S
H361 C333 0.930 . S
H362 C334 0.930 . S
H363 C335 0.931 . S
H364 C353 0.930 . S
H365 C354 0.930 . S
H366 C355 0.930 . S
H367 C356 0.931 . S
Eu368 C377 2.828 . S
Eu368 O379 2.392 . S
Eu368 O381 2.418 . S
Eu368 O386 2.373 . S
Eu368 O389 2.488 . S
Eu368 O390 2.471 . S
Eu368 O391 2.349 . S
Eu369 O378 2.373 . S
Eu369 O382 2.488 . S
Eu369 O383 2.471 . S
Eu369 O384 2.349 . S
Eu369 O387 2.392 . S
Eu369 O388 2.418 . S
Eu369 C398 2.828 . S
C370 O388 1.244 . S
C370 O391 1.265 . S
C371 C372 1.379 . S
C371 C375 1.373 . S
C371 C377 1.505 . S
C372 C371 1.379 . S
C372 C374 1.369 . S
C372 H400 0.930 . S
C373 C375 1.383 . S
C373 C376 1.382 . S
C373 H401 0.930 . S
C374 C372 1.369 . S
C374 C376 1.392 . S
C374 H402 0.930 . S
C375 C371 1.373 . S
C375 C373 1.383 . S
C375 H403 0.931 . S
C376 C373 1.382 . S
C376 C374 1.392 . S
C377 Eu368 2.828 . S
C377 C371 1.505 . S
C377 O389 1.249 . S
C377 O390 1.244 . S
O378 Eu369 2.373 . S
O378 C380 1.258 . S
O379 Eu368 2.392 . S
O379 C380 1.242 . S
C380 O378 1.258 . S
C380 O379 1.242 . S
O381 Eu368 2.418 . S
O381 C385 1.244 . S
O382 Eu369 2.488 . S
O382 C398 1.249 . S
O383 Eu369 2.471 . S
O383 C398 1.244 . S
O384 Eu369 2.349 . S
O384 C385 1.265 . S
C385 O381 1.244 . S
C385 O384 1.265 . S
O386 Eu368 2.373 . S
O386 C399 1.258 . S
O387 Eu369 2.392 . S
O387 C399 1.242 . S
O388 Eu369 2.418 . S
O388 C370 1.244 . S
O389 Eu368 2.488 . S
O389 C377 1.249 . S
O390 Eu368 2.471 . S
O390 C377 1.244 . S
O391 Eu368 2.349 . S
O391 C370 1.265 . S
C392 C393 1.379 . S
C392 C396 1.373 . S
C392 C398 1.505 . S
C393 C392 1.379 . S
C393 C395 1.369 . S
C393 H404 0.930 . S
C394 C396 1.383 . S
C394 C397 1.382 . S
C394 H405 0.930 . S
C395 C393 1.369 . S
C395 C397 1.392 . S
C395 H406 0.930 . S
C396 C392 1.373 . S
C396 C394 1.383 . S
C396 H407 0.931 . S
C397 C394 1.382 . S
C397 C395 1.392 . S
C398 Eu369 2.828 . S
C398 O382 1.249 . S
C398 O383 1.244 . S
C398 C392 1.505 . S
C399 O386 1.258 . S
C399 O387 1.242 . S
H400 C372 0.930 . S
H401 C373 0.930 . S
H402 C374 0.930 . S
H403 C375 0.931 . S
H404 C393 0.930 . S
H405 C394 0.930 . S
H406 C395 0.930 . S
H407 C396 0.931 . S
Eu408 C417 2.828 . S
Eu408 O419 2.392 . S
Eu408 O421 2.418 1_455 S
Eu408 O426 2.373 . S
Eu408 O429 2.488 . S
Eu408 O430 2.471 . S
Eu408 O431 2.349 . S
Eu409 O418 2.373 . S
Eu409 O422 2.488 . S
Eu409 O423 2.471 . S
Eu409 O424 2.349 . S
Eu409 O427 2.392 1_655 S
Eu409 O428 2.418 1_655 S
Eu409 C438 2.828 . S
C410 O428 1.244 . S
C410 O431 1.265 . S
C411 C412 1.379 . S
C411 C415 1.373 . S
C411 C417 1.505 . S
C412 C411 1.379 . S
C412 C414 1.369 . S
C412 H440 0.930 . S
C413 C415 1.383 . S
C413 C416 1.382 . S
C413 H441 0.930 . S
C414 C412 1.369 . S
C414 C416 1.392 . S
C414 H442 0.930 . S
C415 C411 1.373 . S
C415 C413 1.383 . S
C415 H443 0.931 . S
C416 C413 1.382 . S
C416 C414 1.392 . S
C417 Eu408 2.828 . S
C417 C411 1.505 . S
C417 O429 1.249 . S
C417 O430 1.244 . S
O418 Eu409 2.373 . S
O418 C420 1.258 1_655 S
O419 Eu408 2.392 . S
O419 C420 1.242 . S
C420 O418 1.258 1_455 S
C420 O419 1.242 . S
O421 Eu408 2.418 1_655 S
O421 C425 1.244 . S
O422 Eu409 2.488 . S
O422 C438 1.249 . S
O423 Eu409 2.471 . S
O423 C438 1.244 . S
O424 Eu409 2.349 . S
O424 C425 1.265 . S
C425 O421 1.244 . S
C425 O424 1.265 . S
O426 Eu408 2.373 . S
O426 C439 1.258 . S
O427 Eu409 2.392 1_455 S
O427 C439 1.242 . S
O428 Eu409 2.418 1_455 S
O428 C410 1.244 . S
O429 Eu408 2.488 . S
O429 C417 1.249 . S
O430 Eu408 2.471 . S
O430 C417 1.244 . S
O431 Eu408 2.349 . S
O431 C410 1.265 . S
C432 C433 1.379 . S
C432 C436 1.373 . S
C432 C438 1.505 . S
C433 C432 1.379 . S
C433 C435 1.369 . S
C433 H444 0.930 . S
C434 C436 1.383 . S
C434 C437 1.382 . S
C434 H445 0.930 . S
C435 C433 1.369 . S
C435 C437 1.392 . S
C435 H446 0.930 . S
C436 C432 1.373 . S
C436 C434 1.383 . S
C436 H447 0.931 . S
C437 C434 1.382 . S
C437 C435 1.392 . S
C438 Eu409 2.828 . S
C438 O422 1.249 . S
C438 O423 1.244 . S
C438 C432 1.505 . S
C439 O426 1.258 . S
C439 O427 1.242 . S
H440 C412 0.930 . S
H441 C413 0.930 . S
H442 C414 0.930 . S
H443 C415 0.931 . S
H444 C433 0.930 . S
H445 C434 0.930 . S
H446 C435 0.930 . S
H447 C436 0.931 . S
H448 C456 0.950 . S
H449 C461 0.950 . S
H450 C458 0.950 . S
H451 C460 0.950 . S
H452 C462 0.950 . S
H453 C464 0.950 . S
H454 C466 0.950 . S
H455 C467 0.950 . S
C456 H448 0.950 . S
C456 C457 1.386 . S
C456 C458 1.391 . S
C457 C456 1.386 . S
C457 C461 1.393 . S
C458 H450 0.950 . S
C458 C456 1.391 . S
C458 C459 1.400 . S
C459 C458 1.400 . S
C459 C460 1.398 . S
C459 C465 1.491 . S
C460 H451 0.950 . S
C460 C459 1.398 . S
C460 C461 1.391 . S
C461 H449 0.950 . S
C461 C457 1.393 . S
C461 C460 1.391 . S
C462 H452 0.950 . S
C462 C463 1.386 . S
C462 C464 1.391 . S
C463 C462 1.386 . S
C463 C467 1.393 . S
C464 H453 0.950 . S
C464 C462 1.391 . S
C464 C465 1.400 . S
C465 C459 1.491 . S
C465 C464 1.400 . S
C465 C466 1.398 . S
C466 H454 0.950 . S
C466 C465 1.398 . S
C466 C467 1.391 . S
C467 H455 0.950 . S
C467 C463 1.393 . S
C467 C466 1.391 . S
H468 C476 0.950 . S
H469 C481 0.950 . S
H470 C478 0.950 . S
H471 C480 0.950 . S
H472 C482 0.950 . S
H473 C484 0.950 . S
H474 C486 0.950 . S
H475 C487 0.950 . S
C476 H468 0.950 . S
C476 C477 1.386 . S
C476 C478 1.391 . S
C477 C476 1.386 . S
C477 C481 1.393 . S
C478 H470 0.950 . S
C478 C476 1.391 . S
C478 C479 1.400 . S
C479 C478 1.400 . S
C479 C480 1.398 . S
C479 C485 1.491 . S
C480 H471 0.950 . S
C480 C479 1.398 . S
C480 C481 1.391 . S
C481 H469 0.950 . S
C481 C477 1.393 . S
C481 C480 1.391 . S
C482 H472 0.950 . S
C482 C483 1.386 . S
C482 C484 1.391 . S
C483 C482 1.386 . S
C483 C487 1.393 . S
C484 H473 0.950 . S
C484 C482 1.391 . S
C484 C485 1.400 . S
C485 C479 1.491 . S
C485 C484 1.400 . S
C485 C486 1.398 . S
C486 H474 0.950 . S
C486 C485 1.398 . S
C486 C487 1.391 . S
C487 H475 0.950 . S
C487 C483 1.393 . S
C487 C486 1.391 . S
H488 C496 0.950 . S
H489 C501 0.950 . S
H490 C498 0.950 . S
H491 C500 0.950 . S
H492 C502 0.950 . S
H493 C504 0.950 . S
H494 C506 0.950 . S
H495 C507 0.950 . S
C496 H488 0.950 . S
C496 C497 1.386 . S
C496 C498 1.391 . S
C497 C496 1.386 . S
C497 C501 1.393 . S
C498 H490 0.950 . S
C498 C496 1.391 . S
C498 C499 1.400 . S
C499 C498 1.400 . S
C499 C500 1.398 . S
C499 C505 1.491 . S
C500 H491 0.950 . S
C500 C499 1.398 . S
C500 C501 1.391 . S
C501 H489 0.950 . S
C501 C497 1.393 . S
C501 C500 1.391 . S
C502 H492 0.950 . S
C502 C503 1.386 . S
C502 C504 1.391 . S
C503 C502 1.386 . S
C503 C507 1.393 . S
C504 H493 0.950 . S
C504 C502 1.391 . S
C504 C505 1.400 . S
C505 C499 1.491 . S
C505 C504 1.400 . S
C505 C506 1.398 . S
C506 H494 0.950 . S
C506 C505 1.398 . S
C506 C507 1.391 . S
C507 H495 0.950 . S
C507 C503 1.393 . S
C507 C506 1.391 . S
H508 C516 0.950 . S
H509 C521 0.950 . S
H510 C518 0.950 . S
H511 C520 0.950 . S
H512 C522 0.950 . S
H513 C524 0.950 . S
H514 C526 0.950 . S
H515 C527 0.950 1_655 S
C516 H508 0.950 . S
C516 C517 1.386 . S
C516 C518 1.391 . S
C517 C516 1.386 . S
C517 C521 1.393 . S
C518 H510 0.950 . S
C518 C516 1.391 . S
C518 C519 1.400 . S
C519 C518 1.400 . S
C519 C520 1.398 . S
C519 C525 1.491 . S
C520 H511 0.950 . S
C520 C519 1.398 . S
C520 C521 1.391 . S
C521 H509 0.950 . S
C521 C517 1.393 . S
C521 C520 1.391 . S
C522 H512 0.950 . S
C522 C523 1.386 . S
C522 C524 1.391 . S
C523 C522 1.386 . S
C523 C527 1.393 . S
C524 H513 0.950 . S
C524 C522 1.391 . S
C524 C525 1.400 . S
C525 C519 1.491 . S
C525 C524 1.400 . S
C525 C526 1.398 . S
C526 H514 0.950 . S
C526 C525 1.398 . S
C526 C527 1.391 . S
C527 H515 0.950 1_455 S
C527 C523 1.393 . S
C527 C526 1.391 . S
H528 C536 0.950 . S
H529 C541 0.950 . S
H530 C538 0.950 . S
H531 C540 0.950 1_556 S
H532 C542 0.950 . S
H533 C544 0.950 . S
H534 C546 0.950 . S
H535 C547 0.950 . S
C536 H528 0.950 . S
C536 C537 1.386 . S
C536 C538 1.391 . S
C537 C536 1.386 . S
C537 C541 1.393 . S
C538 H530 0.950 . S
C538 C536 1.391 . S
C538 C539 1.400 . S
C539 C538 1.400 . S
C539 C540 1.398 . S
C539 C545 1.491 1_554 S
C540 H531 0.950 1_554 S
C540 C539 1.398 . S
C540 C541 1.391 . S
C541 H529 0.950 . S
C541 C537 1.393 . S
C541 C540 1.391 . S
C542 H532 0.950 . S
C542 C543 1.386 . S
C542 C544 1.391 . S
C543 C542 1.386 . S
C543 C547 1.393 . S
C544 H533 0.950 . S
C544 C542 1.391 . S
C544 C545 1.400 . S
C545 C539 1.491 1_556 S
C545 C544 1.400 . S
C545 C546 1.398 . S
C546 H534 0.950 . S
C546 C545 1.398 . S
C546 C547 1.391 . S
C547 H535 0.950 . S
C547 C543 1.393 . S
C547 C546 1.391 . S
H548 C556 0.950 . S
H549 C561 0.950 . S
H550 C558 0.950 . S
H551 C560 0.950 . S
H552 C562 0.950 . S
H553 C564 0.950 . S
H554 C566 0.950 . S
H555 C567 0.950 . S
C556 H548 0.950 . S
C556 C557 1.386 . S
C556 C558 1.391 1_554 S
C557 C556 1.386 . S
C557 C561 1.393 . S
C558 H550 0.950 . S
C558 C556 1.391 1_556 S
C558 C559 1.400 . S
C559 C558 1.400 . S
C559 C560 1.398 1_556 S
C559 C565 1.491 . S
C560 H551 0.950 . S
C560 C559 1.398 1_554 S
C560 C561 1.391 . S
C561 H549 0.950 . S
C561 C557 1.393 . S
C561 C560 1.391 . S
C562 H552 0.950 . S
C562 C563 1.386 . S
C562 C564 1.391 . S
C563 C562 1.386 . S
C563 C567 1.393 . S
C564 H553 0.950 . S
C564 C562 1.391 . S
C564 C565 1.400 . S
C565 C559 1.491 . S
C565 C564 1.400 . S
C565 C566 1.398 . S
C566 H554 0.950 . S
C566 C565 1.398 . S
C566 C567 1.391 . S
C567 H555 0.950 . S
C567 C563 1.393 . S
C567 C566 1.391 . S
H568 C576 0.950 . S
H569 C581 0.950 . S
H570 C578 0.950 . S
H571 C580 0.950 . S
H572 C582 0.950 . S
H573 C584 0.950 . S
H574 C586 0.950 . S
H575 C587 0.950 . S
C576 H568 0.950 . S
C576 C577 1.386 . S
C576 C578 1.391 1_554 S
C577 C576 1.386 . S
C577 C581 1.393 . S
C578 H570 0.950 . S
C578 C576 1.391 1_556 S
C578 C579 1.400 . S
C579 C578 1.400 . S
C579 C580 1.398 . S
C579 C585 1.491 . S
C580 H571 0.950 . S
C580 C579 1.398 . S
C580 C581 1.391 1_556 S
C581 H569 0.950 . S
C581 C577 1.393 . S
C581 C580 1.391 1_554 S
C582 H572 0.950 . S
C582 C583 1.386 . S
C582 C584 1.391 . S
C583 C582 1.386 . S
C583 C587 1.393 . S
C584 H573 0.950 . S
C584 C582 1.391 . S
C584 C585 1.400 . S
C585 C579 1.491 . S
C585 C584 1.400 . S
C585 C586 1.398 . S
C586 H574 0.950 . S
C586 C585 1.398 . S
C586 C587 1.391 . S
C587 H575 0.950 . S
C587 C583 1.393 . S
C587 C586 1.391 . S
H588 C596 0.950 1_455 S
H589 C601 0.950 . S
H590 C598 0.950 1_455 S
H591 C600 0.950 1_556 S
H592 C602 0.950 . S
H593 C604 0.950 . S
H594 C606 0.950 . S
H595 C607 0.950 . S
C596 H588 0.950 1_655 S
C596 C597 1.386 . S
C596 C598 1.391 . S
C597 C596 1.386 . S
C597 C601 1.393 . S
C598 H590 0.950 1_655 S
C598 C596 1.391 . S
C598 C599 1.400 1_554 S
C599 C598 1.400 1_556 S
C599 C600 1.398 1_556 S
C599 C605 1.491 . S
C600 H591 0.950 1_554 S
C600 C599 1.398 1_554 S
C600 C601 1.391 . S
C601 H589 0.950 . S
C601 C597 1.393 . S
C601 C600 1.391 . S
C602 H592 0.950 . S
C602 C603 1.386 . S
C602 C604 1.391 . S
C603 C602 1.386 . S
C603 C607 1.393 1_655 S
C604 H593 0.950 . S
C604 C602 1.391 . S
C604 C605 1.400 . S
C605 C599 1.491 . S
C605 C604 1.400 . S
C605 C606 1.398 1_655 S
C606 H594 0.950 . S
C606 C605 1.398 1_455 S
C606 C607 1.391 . S
C607 H595 0.950 . S
C607 C603 1.393 1_455 S
C607 C606 1.391 . S
H608 C616 0.950 . S
H609 C621 0.950 . S
H610 C618 0.950 . S
H611 C620 0.950 . S
H612 C622 0.950 . S
H613 C624 0.950 . S
H614 C626 0.950 . S
H615 C627 0.950 . S
C616 H608 0.950 . S
C616 C617 1.386 . S
C616 C618 1.391 . S
C617 C616 1.386 . S
C617 C621 1.393 . S
C618 H610 0.950 . S
C618 C616 1.391 . S
C618 C619 1.400 . S
C619 C618 1.400 . S
C619 C620 1.398 . S
C619 C625 1.491 . S
C620 H611 0.950 . S
C620 C619 1.398 . S
C620 C621 1.391 . S
C621 H609 0.950 . S
C621 C617 1.393 . S
C621 C620 1.391 . S
C622 H612 0.950 . S
C622 C623 1.386 . S
C622 C624 1.391 . S
C623 C622 1.386 . S
C623 C627 1.393 1_655 S
C624 H613 0.950 . S
C624 C622 1.391 . S
C624 C625 1.400 1_655 S
C625 C619 1.491 . S
C625 C624 1.400 1_455 S
C625 C626 1.398 . S
C626 H614 0.950 . S
C626 C625 1.398 . S
C626 C627 1.391 . S
C627 H615 0.950 . S
C627 C623 1.393 1_455 S
C627 C626 1.391 . S
H628 C636 0.950 . S
H629 C641 0.950 . S
H630 C638 0.950 . S
H631 C640 0.950 . S
H632 C642 0.950 . S
H633 C644 0.935 1_565 S
H634 C646 0.950 . S
H635 C647 0.950 . S
C636 H628 0.950 . S
C636 C637 1.386 . S
C636 C638 1.391 . S
C637 C636 1.386 . S
C637 C641 1.393 . S
C638 H630 0.950 . S
C638 C636 1.391 . S
C638 C639 1.400 . S
C639 C638 1.400 . S
C639 C640 1.398 . S
C639 C645 1.491 . S
C640 H631 0.950 . S
C640 C639 1.398 . S
C640 C641 1.391 . S
C641 H629 0.950 . S
C641 C637 1.393 . S
C641 C640 1.391 . S
C642 H632 0.950 . S
C642 C643 1.386 . S
C642 C644 1.370 1_565 S
C643 C642 1.386 . S
C643 C647 1.393 1_565 S
C644 H633 0.935 1_545 S
C644 C642 1.370 1_545 S
C644 C645 1.437 . S
C645 C639 1.491 . S
C645 C644 1.437 . S
C645 C646 1.398 . S
C646 H634 0.950 . S
C646 C645 1.398 . S
C646 C647 1.391 . S
C647 H635 0.950 . S
C647 C643 1.393 1_545 S
C647 C646 1.391 . S
H648 C656 0.950 . S
H649 C661 0.950 . S
H650 C658 0.950 . S
H651 C660 0.950 . S
H652 C662 0.950 . S
H653 C664 0.950 . S
H654 C666 0.950 . S
H655 C667 0.950 . S
C656 H648 0.950 . S
C656 C657 1.386 . S
C656 C658 1.391 . S
C657 C656 1.386 . S
C657 C661 1.393 . S
C658 H650 0.950 . S
C658 C656 1.391 . S
C658 C659 1.400 . S
C659 C658 1.400 . S
C659 C660 1.398 . S
C659 C665 1.491 . S
C660 H651 0.950 . S
C660 C659 1.398 . S
C660 C661 1.391 . S
C661 H649 0.950 . S
C661 C657 1.393 . S
C661 C660 1.391 . S
C662 H652 0.950 . S
C662 C663 1.386 . S
C662 C664 1.391 . S
C663 C662 1.386 . S
C663 C667 1.393 . S
C664 H653 0.950 . S
C664 C662 1.391 . S
C664 C665 1.400 . S
C665 C659 1.491 . S
C665 C664 1.400 . S
C665 C666 1.398 . S
C666 H654 0.950 . S
C666 C665 1.398 . S
C666 C667 1.391 . S
C667 H655 0.950 . S
C667 C663 1.393 . S
C667 C666 1.391 . S
H668 C676 0.950 . S
H669 C681 0.950 . S
H670 C678 0.950 . S
H671 C680 0.950 . S
H672 C682 0.950 . S
H673 C684 0.950 . S
H674 C686 0.950 . S
H675 C687 0.950 . S
C676 H668 0.950 . S
C676 C677 1.386 . S
C676 C678 1.391 . S
C677 C676 1.386 . S
C677 C681 1.393 . S
C678 H670 0.950 . S
C678 C676 1.391 . S
C678 C679 1.400 . S
C679 C678 1.400 . S
C679 C680 1.398 . S
C679 C685 1.491 . S
C680 H671 0.950 . S
C680 C679 1.398 . S
C680 C681 1.391 . S
C681 H669 0.950 . S
C681 C677 1.393 . S
C681 C680 1.391 . S
C682 H672 0.950 . S
C682 C683 1.386 . S
C682 C684 1.391 . S
C683 C682 1.386 . S
C683 C687 1.393 . S
C684 H673 0.950 . S
C684 C682 1.391 . S
C684 C685 1.400 . S
C685 C679 1.491 . S
C685 C684 1.400 . S
C685 C686 1.398 . S
C686 H674 0.950 . S
C686 C685 1.398 . S
C686 C687 1.391 . S
C687 H675 0.950 . S
C687 C683 1.393 . S
C687 C686 1.391 . S
H688 C696 0.950 . S
H689 C701 0.950 . S
H690 C698 0.950 . S
H691 C700 0.950 . S
H692 C702 0.950 . S
H693 C704 0.950 . S
H694 C706 0.950 . S
H695 C707 0.950 . S
C696 H688 0.950 . S
C696 C697 1.386 . S
C696 C698 1.391 . S
C697 C696 1.386 . S
C697 C701 1.393 1_554 S
C698 H690 0.950 . S
C698 C696 1.391 . S
C698 C699 1.400 . S
C699 C698 1.400 . S
C699 C700 1.398 1_554 S
C699 C705 1.491 1_554 S
C700 H691 0.950 . S
C700 C699 1.398 1_556 S
C700 C701 1.391 . S
C701 H689 0.950 . S
C701 C697 1.393 1_556 S
C701 C700 1.391 . S
C702 H692 0.950 . S
C702 C703 1.386 . S
C702 C704 1.391 1_455 S
C703 C702 1.386 . S
C703 C707 1.393 1_556 S
C704 H693 0.950 . S
C704 C702 1.391 1_655 S
C704 C705 1.400 . S
C705 C699 1.491 1_556 S
C705 C704 1.400 . S
C705 C706 1.398 1_656 S
C706 H694 0.950 . S
C706 C705 1.398 1_454 S
C706 C707 1.391 . S
C707 H695 0.950 . S
C707 C703 1.393 1_554 S
C707 C706 1.391 . S
H708 C716 0.950 1_556 S
H709 C721 0.950 . S
H710 C718 0.950 . S
H711 C720 0.950 . S
H712 C722 0.950 . S
H713 C724 0.950 1_554 S
H714 C726 0.950 . S
H715 C727 0.948 . S
C716 H708 0.950 1_554 S
C716 C717 1.386 . S
C716 C718 1.391 1_554 S
C717 C716 1.386 . S
C717 C721 1.393 . S
C718 H710 0.950 . S
C718 C716 1.391 1_556 S
C718 C719 1.400 . S
C719 C718 1.400 . S
C719 C720 1.398 1_556 S
C719 C725 1.491 . S
C720 H711 0.950 . S
C720 C719 1.398 1_554 S
C720 C721 1.391 . S
C721 H709 0.950 . S
C721 C717 1.393 . S
C721 C720 1.391 . S
C722 H712 0.950 . S
C722 C723 1.386 . S
C722 C724 1.391 . S
C723 C722 1.386 . S
C723 C727 1.419 . S
C724 H713 0.950 1_556 S
C724 C722 1.391 . S
C724 C725 1.400 1_545 S
C725 C719 1.491 . S
C725 C724 1.400 1_565 S
C725 C726 1.398 . S
C726 H714 0.950 . S
C726 C725 1.398 . S
C726 C727 1.368 1_565 S
C727 H715 0.948 . S
C727 C723 1.419 . S
C727 C726 1.368 1_545 S
H728 C736 0.950 . S
H729 C741 0.950 . S
H730 C738 0.950 . S
H731 C740 0.950 . S
H732 C742 0.950 . S
H733 C744 0.950 . S
H734 C746 0.950 . S
H735 C747 0.950 . S
C736 H728 0.950 . S
C736 C737 1.386 1_556 S
C736 C738 1.391 . S
C737 C736 1.386 1_554 S
C737 C741 1.393 . S
C738 H730 0.950 . S
C738 C736 1.391 . S
C738 C739 1.400 . S
C739 C738 1.400 . S
C739 C740 1.398 1_556 S
C739 C745 1.491 . S
C740 H731 0.950 . S
C740 C739 1.398 1_554 S
C740 C741 1.391 . S
C741 H729 0.950 . S
C741 C737 1.393 . S
C741 C740 1.391 . S
C742 H732 0.950 . S
C742 C743 1.386 . S
C742 C744 1.391 . S
C743 C742 1.386 . S
C743 C747 1.393 . S
C744 H733 0.950 . S
C744 C742 1.391 . S
C744 C745 1.400 . S
C745 C739 1.491 . S
C745 C744 1.400 . S
C745 C746 1.398 . S
C746 H734 0.950 . S
C746 C745 1.398 . S
C746 C747 1.391 . S
C747 H735 0.950 . S
C747 C743 1.393 . S
C747 C746 1.391 . S
H748 C756 0.950 . S
H749 C761 0.950 . S
H750 C758 0.950 . S
H751 C760 0.950 . S
H752 C762 0.950 1_554 S
H753 C764 0.950 . S
H754 C766 0.950 . S
H755 C767 0.950 . S
C756 H748 0.950 . S
C756 C757 1.386 1_556 S
C756 C758 1.391 . S
C757 C756 1.386 1_554 S
C757 C761 1.393 . S
C758 H750 0.950 . S
C758 C756 1.391 . S
C758 C759 1.400 . S
C759 C758 1.400 . S
C759 C760 1.398 1_556 S
C759 C765 1.491 . S
C760 H751 0.950 . S
C760 C759 1.398 1_554 S
C760 C761 1.391 . S
C761 H749 0.950 . S
C761 C757 1.393 . S
C761 C760 1.391 . S
C762 H752 0.950 1_556 S
C762 C763 1.386 . S
C762 C764 1.391 1_556 S
C763 C762 1.386 . S
C763 C767 1.393 . S
C764 H753 0.950 . S
C764 C762 1.391 1_554 S
C764 C765 1.400 1_554 S
C765 C759 1.491 . S
C765 C764 1.400 1_556 S
C765 C766 1.398 . S
C766 H754 0.950 . S
C766 C765 1.398 . S
C766 C767 1.391 . S
C767 H755 0.950 . S
C767 C763 1.393 . S
C767 C766 1.391 . S
H768 C776 0.950 . S
H769 C781 0.950 . S
H770 C778 0.950 . S
H771 C780 0.950 . S
H772 C782 0.950 . S
H773 C784 0.950 . S
H774 C786 0.950 . S
H775 C787 0.950 . S
C776 H768 0.950 . S
C776 C777 1.386 . S
C776 C778 1.391 . S
C777 C776 1.386 . S
C777 C781 1.393 . S
C778 H770 0.950 . S
C778 C776 1.391 . S
C778 C779 1.400 . S
C779 C778 1.400 . S
C779 C780 1.398 . S
C779 C785 1.491 . S
C780 H771 0.950 . S
C780 C779 1.398 . S
C780 C781 1.391 . S
C781 H769 0.950 . S
C781 C777 1.393 . S
C781 C780 1.391 . S
C782 H772 0.950 . S
C782 C783 1.386 . S
C782 C784 1.391 . S
C783 C782 1.386 . S
C783 C787 1.393 . S
C784 H773 0.950 . S
C784 C782 1.391 . S
C784 C785 1.400 . S
C785 C779 1.491 . S
C785 C784 1.400 . S
C785 C786 1.398 . S
C786 H774 0.950 . S
C786 C785 1.398 . S
C786 C787 1.391 . S
C787 H775 0.950 . S
C787 C783 1.393 . S
C787 C786 1.391 . S
H788 C796 0.950 . S
H789 C801 0.950 . S
H790 C798 0.950 . S
H791 C800 0.950 . S
H792 C802 0.950 . S
H793 C804 0.950 . S
H794 C806 0.950 . S
H795 C807 0.950 . S
C796 H788 0.950 . S
C796 C797 1.386 . S
C796 C798 1.391 . S
C797 C796 1.386 . S
C797 C801 1.393 . S
C798 H790 0.950 . S
C798 C796 1.391 . S
C798 C799 1.400 . S
C799 C798 1.400 . S
C799 C800 1.398 . S
C799 C805 1.491 . S
C800 H791 0.950 . S
C800 C799 1.398 . S
C800 C801 1.391 . S
C801 H789 0.950 . S
C801 C797 1.393 . S
C801 C800 1.391 . S
C802 H792 0.950 . S
C802 C803 1.386 . S
C802 C804 1.391 . S
C803 C802 1.386 . S
C803 C807 1.393 . S
C804 H793 0.950 . S
C804 C802 1.391 . S
C804 C805 1.400 . S
C805 C799 1.491 . S
C805 C804 1.400 . S
C805 C806 1.398 . S
C806 H794 0.950 . S
C806 C805 1.398 . S
C806 C807 1.391 . S
C807 H795 0.950 . S
C807 C803 1.393 . S
C807 C806 1.391 . S
H808 C816 0.950 . S
H809 C821 0.950 . S
H810 C818 0.950 . S
H811 C820 0.950 . S
H812 C822 0.950 . S
H813 C824 0.950 . S
H814 C826 0.950 . S
H815 C827 0.950 . S
C816 H808 0.950 . S
C816 C817 1.386 . S
C816 C818 1.391 . S
C817 C816 1.386 . S
C817 C821 1.393 . S
C818 H810 0.950 . S
C818 C816 1.391 . S
C818 C819 1.400 . S
C819 C818 1.400 . S
C819 C820 1.398 . S
C819 C825 1.491 . S
C820 H811 0.950 . S
C820 C819 1.398 . S
C820 C821 1.391 . S
C821 H809 0.950 . S
C821 C817 1.393 . S
C821 C820 1.391 . S
C822 H812 0.950 . S
C822 C823 1.386 . S
C822 C824 1.391 . S
C823 C822 1.386 . S
C823 C827 1.393 . S
C824 H813 0.950 . S
C824 C822 1.391 . S
C824 C825 1.400 . S
C825 C819 1.491 . S
C825 C824 1.400 . S
C825 C826 1.398 . S
C826 H814 0.950 . S
C826 C825 1.398 . S
C826 C827 1.391 . S
C827 H815 0.950 . S
C827 C823 1.393 . S
C827 C826 1.391 . S
H828 C836 0.950 . S
H829 C841 0.950 . S
H830 C838 0.950 . S
H831 C840 0.950 . S
H832 C842 0.950 . S
H833 C844 0.950 . S
H834 C846 0.950 . S
H835 C847 0.950 . S
C836 H828 0.950 . S
C836 C837 1.386 . S
C836 C838 1.391 . S
C837 C836 1.386 . S
C837 C841 1.393 . S
C838 H830 0.950 . S
C838 C836 1.391 . S
C838 C839 1.400 . S
C839 C838 1.400 . S
C839 C840 1.398 . S
C839 C845 1.491 . S
C840 H831 0.950 . S
C840 C839 1.398 . S
C840 C841 1.391 . S
C841 H829 0.950 . S
C841 C837 1.393 . S
C841 C840 1.391 . S
C842 H832 0.950 . S
C842 C843 1.386 . S
C842 C844 1.391 . S
C843 C842 1.386 . S
C843 C847 1.393 . S
C844 H833 0.950 . S
C844 C842 1.391 . S
C844 C845 1.400 . S
C845 C839 1.491 . S
C845 C844 1.400 . S
C845 C846 1.398 . S
C846 H834 0.950 . S
C846 C845 1.398 . S
C846 C847 1.391 . S
C847 H835 0.950 . S
C847 C843 1.393 . S
C847 C846 1.391 . S
H848 C856 0.950 . S
H849 C861 0.950 . S
H850 C858 0.950 . S
H851 C860 0.950 . S
H852 C862 0.950 . S
H853 C864 0.950 . S
H854 C866 0.950 . S
H855 C867 0.950 . S
C856 H848 0.950 . S
C856 C857 1.386 . S
C856 C858 1.391 . S
C857 C856 1.386 . S
C857 C861 1.393 . S
C858 H850 0.950 . S
C858 C856 1.391 . S
C858 C859 1.400 . S
C859 C858 1.400 . S
C859 C860 1.398 . S
C859 C865 1.491 . S
C860 H851 0.950 . S
C860 C859 1.398 . S
C860 C861 1.391 . S
C861 H849 0.950 . S
C861 C857 1.393 . S
C861 C860 1.391 . S
C862 H852 0.950 . S
C862 C863 1.386 . S
C862 C864 1.391 . S
C863 C862 1.386 . S
C863 C867 1.393 . S
C864 H853 0.950 . S
C864 C862 1.391 . S
C864 C865 1.400 . S
C865 C859 1.491 . S
C865 C864 1.400 . S
C865 C866 1.398 . S
C866 H854 0.950 . S
C866 C865 1.398 . S
C866 C867 1.391 . S
C867 H855 0.950 . S
C867 C863 1.393 . S
C867 C866 1.391 . S
H868 C876 0.950 . S
H869 C881 0.950 . S
H870 C878 0.950 . S
H871 C880 0.950 . S
H872 C882 0.950 . S
H873 C884 0.950 . S
H874 C886 0.950 . S
H875 C887 0.950 . S
C876 H868 0.950 . S
C876 C877 1.386 . S
C876 C878 1.391 . S
C877 C876 1.386 . S
C877 C881 1.393 . S
C878 H870 0.950 . S
C878 C876 1.391 . S
C878 C879 1.400 . S
C879 C878 1.400 . S
C879 C880 1.398 . S
C879 C885 1.491 . S
C880 H871 0.950 . S
C880 C879 1.398 . S
C880 C881 1.391 . S
C881 H869 0.950 . S
C881 C877 1.393 . S
C881 C880 1.391 . S
C882 H872 0.950 . S
C882 C883 1.386 . S
C882 C884 1.391 . S
C883 C882 1.386 . S
C883 C887 1.393 . S
C884 H873 0.950 . S
C884 C882 1.391 . S
C884 C885 1.400 . S
C885 C879 1.491 . S
C885 C884 1.400 . S
C885 C886 1.398 . S
C886 H874 0.950 . S
C886 C885 1.398 . S
C886 C887 1.391 . S
C887 H875 0.950 . S
C887 C883 1.393 . S
C887 C886 1.391 . S
H888 C896 0.950 . S
H889 C901 0.950 . S
H890 C898 0.950 . S
H891 C900 0.950 . S
H892 C902 0.950 . S
H893 C904 0.950 . S
H894 C906 0.950 . S
H895 C907 0.950 . S
C896 H888 0.950 . S
C896 C897 1.386 . S
C896 C898 1.391 . S
C897 C896 1.386 . S
C897 C901 1.393 . S
C898 H890 0.950 . S
C898 C896 1.391 . S
C898 C899 1.400 . S
C899 C898 1.400 . S
C899 C900 1.398 . S
C899 C905 1.491 . S
C900 H891 0.950 . S
C900 C899 1.398 . S
C900 C901 1.391 . S
C901 H889 0.950 . S
C901 C897 1.393 . S
C901 C900 1.391 . S
C902 H892 0.950 . S
C902 C903 1.386 . S
C902 C904 1.391 . S
C903 C902 1.386 . S
C903 C907 1.393 . S
C904 H893 0.950 . S
C904 C902 1.391 . S
C904 C905 1.400 . S
C905 C899 1.491 . S
C905 C904 1.400 . S
C905 C906 1.398 . S
C906 H894 0.950 . S
C906 C905 1.398 . S
C906 C907 1.391 . S
C907 H895 0.950 . S
C907 C903 1.393 . S
C907 C906 1.391 . S
H908 C916 0.950 . S
H909 C921 0.950 . S
H910 C918 0.950 . S
H911 C920 0.950 . S
H912 C922 0.950 . S
H913 C924 0.950 . S
H914 C926 0.950 . S
H915 C927 0.950 . S
C916 H908 0.950 . S
C916 C917 1.386 . S
C916 C918 1.391 . S
C917 C916 1.386 . S
C917 C921 1.393 . S
C918 H910 0.950 . S
C918 C916 1.391 . S
C918 C919 1.400 . S
C919 C918 1.400 . S
C919 C920 1.398 . S
C919 C925 1.491 . S
C920 H911 0.950 . S
C920 C919 1.398 . S
C920 C921 1.391 . S
C921 H909 0.950 . S
C921 C917 1.393 . S
C921 C920 1.391 . S
C922 H912 0.950 . S
C922 C923 1.386 . S
C922 C924 1.391 . S
C923 C922 1.386 . S
C923 C927 1.393 . S
C924 H913 0.950 . S
C924 C922 1.391 . S
C924 C925 1.400 . S
C925 C919 1.491 . S
C925 C924 1.400 . S
C925 C926 1.398 . S
C926 H914 0.950 . S
C926 C925 1.398 . S
C926 C927 1.391 . S
C927 H915 0.950 . S
C927 C923 1.393 . S
C927 C926 1.391 . S
C457 C241 2.681 . S
C463 C319 2.906 . S
C483 C345 2.348 . S
C477 C277 2.176 . S
C503 C385 2.326 . S
C497 C169 2.125 . S
C523 C439 2.838 . S
C517 C205 2.638 . S
C543 C300 2.900 . S
C537 C97 2.637 . S
C557 C133 2.143 . S
C563 C330 2.346 . S
C577 C25 2.089 . S
C583 C370 2.328 . S
C597 C61 2.627 . S
C603 C420 2.848 1_655 S
C623 C296 0.423 1_655 S
C617 C211 0.440 . S
C643 C357 0.631 . S
C637 C247 0.642 . S
C663 C397 0.361 . S
C657 C253 0.339 . S
C677 C175 0.362 . S
C683 C416 0.300 . S
C697 C67 0.497 . S
C703 C317 0.384 . S
C723 C336 0.668 . S
C717 C103 0.679 . S
C743 C376 0.378 . S
C737 C109 0.312 . S
C757 C31 0.571 . S
C763 C437 0.368 . S
C777 C181 2.532 . S
C783 C290 2.854 . S
C797 C217 3.174 . S
C803 C340 3.471 . S
C823 C380 3.199 . S
C817 C283 2.875 . S
C843 C410 2.556 . S
C837 C145 2.292 . S
C857 C37 2.511 . S
C863 C305 2.851 . S
C883 C359 3.469 . S
C877 C73 3.149 . S
C903 C399 3.200 . S
C897 C139 2.838 . S
C917 C1 2.257 . S
C923 C425 2.554 . S
