# Generated by pormake.
# Topology tsx, (6,3)-cn, num edge types: 1
# Building blocks:
#     Node 0, Type 0, BuildingBlock: JUFBIX_clean_sbu_0, # of connection points: 6
#     Node 1, Type 0, BuildingBlock: JUFBIX_clean_sbu_0, # of connection points: 6
#     Node 2, Type 1, BuildingBlock: QEWDON_clean_linker_0, # of connection points: 3
#     Node 3, Type 1, BuildingBlock: QEWDON_clean_linker_0, # of connection points: 3
#     Node 4, Type 1, BuildingBlock: QEWDON_clean_linker_0, # of connection points: 3
#     Node 5, Type 1, BuildingBlock: QEWDON_clean_linker_0, # of connection points: 3
#     Edge 6, Type (0, 1), BuildingBlock: TEMPAE_clean_linker_10, # of connection points: 2
#     Edge 7, Type (0, 1), BuildingBlock: TEMPAE_clean_linker_10, # of connection points: 2
#     Edge 8, Type (0, 1), BuildingBlock: TEMPAE_clean_linker_10, # of connection points: 2
#     Edge 9, Type (0, 1), BuildingBlock: TEMPAE_clean_linker_10, # of connection points: 2
#     Edge 10, Type (0, 1), BuildingBlock: TEMPAE_clean_linker_10, # of connection points: 2
#     Edge 11, Type (0, 1), BuildingBlock: TEMPAE_clean_linker_10, # of connection points: 2
#     Edge 12, Type (0, 1), BuildingBlock: TEMPAE_clean_linker_10, # of connection points: 2
#     Edge 13, Type (0, 1), BuildingBlock: TEMPAE_clean_linker_10, # of connection points: 2
#     Edge 14, Type (0, 1), BuildingBlock: TEMPAE_clean_linker_10, # of connection points: 2
#     Edge 15, Type (0, 1), BuildingBlock: TEMPAE_clean_linker_10, # of connection points: 2
#     Edge 16, Type (0, 1), BuildingBlock: TEMPAE_clean_linker_10, # of connection points: 2
#     Edge 17, Type (0, 1), BuildingBlock: TEMPAE_clean_linker_10, # of connection points: 2
# Relax obj value: 0.110
# Max RMSD: 0.169
# Mean RMSD: 0.146
data_MOF--net-tsx--node1-JUFBIX_clean_sbu_0--node2-QEWDON_clean_linker_0--edge1-TEMPAE_clean_linker_10
_symmetry_space_group_name_H-M    P1
_symmetry_Int_Tables_number       1
_symmetry_cell_setting            triclinic
loop_
_symmetry_equiv_pos_as_xyz
'x, y, z'
_cell_length_a     21.904212
_cell_length_b     26.208261
_cell_length_c     32.280803
_cell_angle_alpha  91.956068
_cell_angle_beta   104.76905
_cell_angle_gamma 99.456002
loop_
_atom_site_label
_atom_site_type_symbol
_atom_site_fract_x
_atom_site_fract_y
_atom_site_fract_z
_atom_type_partial_charge
Co0 Co 0.08157 0.97449 0.00923 0.0
C1 C 0.99943 0.00702 0.93607 0.0
Co2 Co 0.01418 0.02394 0.02148 0.0
C3 C 0.16924 0.90008 0.00994 0.0
C4 C 0.16409 0.95095 0.95914 0.0
N5 N 0.14012 0.9392 0.993 0.0
N6 N 0.2092 0.8868 0.98728 0.0
C7 C 0.20585 0.91866 0.95536 0.0
H8 H 0.16115 0.88158 0.03802 0.0
H9 H 0.1527 0.98174 0.93865 0.0
C10 C 0.0954 -0.00869 0.09479 0.0
N11 N 0.9568 0.06002 0.03763 0.0
C12 C 0.93284 0.10164 0.02154 0.0
C13 C 0.92999 0.04857 0.07025 0.0
N14 N 0.89271 0.11672 0.04323 0.0
C15 C 0.89093 0.08344 0.0739 0.0
C16 C 0.9674 0.9166 0.00993 0.0
O17 O 0.11657 0.96598 0.06881 0.0
O18 O 0.05289 0.01836 0.08019 0.0
O19 O 0.95599 0.96097 0.01919 0.0
O20 O 0.02156 0.9124 0.00394 0.0
O21 O 0.97592 0.0297 0.96214 0.0
H22 H 0.93817 0.01667 0.09013 0.0
H23 H 0.94514 0.12084 0.99484 0.0
O24 O 0.045 0.98287 0.95078 0.0
O25 O 0.14083 0.0371 0.01362 0.0
O26 O 0.07281 0.08621 0.02335 0.0
C27 C 0.1278 0.08194 0.01885 0.0
H28 H 0.23293 0.91924 0.93156 0.0
H29 H 0.86247 0.08376 0.09682 0.0
Co30 Co 0.55918 0.46852 0.49833 0.0
C31 C 0.48993 0.5101 0.42414 0.0
Co32 Co 0.49289 0.52015 0.50764 0.0
C33 C 0.64484 0.39249 0.50324 0.0
C34 C 0.64366 0.44067 0.45091 0.0
N35 N 0.61739 0.43127 0.48412 0.0
N36 N 0.68605 0.37714 0.48262 0.0
C37 C 0.6852 0.40724 0.44969 0.0
H38 H 0.63498 0.37588 0.53161 0.0
H39 H 0.63444 0.47078 0.42929 0.0
C40 C 0.56005 0.47809 0.58196 0.0
N41 N 0.43456 0.55642 0.52195 0.0
C42 C 0.42083 0.60374 0.51263 0.0
C43 C 0.39546 0.53807 0.54638 0.0
N44 N 0.37484 0.61551 0.53056 0.0
C45 C 0.35884 0.57409 0.55166 0.0
C46 C 0.43851 0.4144 0.48847 0.0
O47 O 0.58829 0.45729 0.55778 0.0
O48 O 0.51861 0.5054 0.56572 0.0
O49 O 0.42931 0.46004 0.49551 0.0
O50 O 0.49497 0.40717 0.4896 0.0
O51 O 0.46693 0.5348 0.4493 0.0
H52 H 0.39347 0.50055 0.55943 0.0
H53 H 0.44445 0.62907 0.49342 0.0
O54 O 0.52865 0.48018 0.4396 0.0
O55 O 0.6223 0.52984 0.50644 0.0
O56 O 0.55724 0.58024 0.51905 0.0
C57 C 0.61228 0.57486 0.51529 0.0
H58 H 0.71413 0.40612 0.42713 0.0
H59 H 0.32212 0.56952 0.56889 0.0
H60 H 0.06415 0.02061 0.41276 0.0
C61 C 0.08009 0.98696 0.42734 0.0
C62 C 0.1088 0.95587 0.40436 0.0
C63 C 0.07599 0.97635 0.46936 0.0
H64 H 0.15745 0.89063 0.40635 0.0
C65 C 0.13422 0.91434 0.42356 0.0
C66 C 0.13087 0.90342 0.465 0.0
C67 C 0.10093 0.93356 0.48759 0.0
C68 C 0.05136 0.01243 0.49523 0.0
H69 H 0.09808 0.92355 0.51933 0.0
C70 C 0.00491 0.05395 0.46927 0.0
C71 C 0.98616 0.12197 0.52473 0.0
C72 C 0.07861 0.01783 0.54989 0.0
H73 H 0.10968 -0.00833 0.56434 0.0
C74 C 0.06713 0.06197 0.58587 0.0
H75 H 0.98694 0.04742 0.4343 0.0
C76 C 0.0248 0.11081 0.57582 0.0
H77 H 0.02141 0.13507 0.60265 0.0
H78 H 0.08973 0.05839 0.61932 0.0
H79 H 0.94064 0.0543 0.60214 0.0
C80 C 0.93752 0.01377 0.59305 0.0
C81 C 0.91864 0.97742 0.6201 0.0
C82 C 0.95199 -0.0019 0.55498 0.0
H83 H 0.89062 0.89634 0.62674 0.0
C84 C 0.90708 0.92467 0.60649 0.0
C85 C 0.91427 0.90815 0.56641 0.0
C86 C 0.93772 0.94507 0.54094 0.0
C87 C 0.97176 0.03829 0.52601 0.0
H88 H 0.94347 0.93276 0.50998 0.0
C89 C 0.07635 0.10085 0.52126 0.0
C90 C 0.05906 0.14127 0.48163 0.0
C91 C 0.90713 0.05092 0.48748 0.0
H92 H 0.85987 0.02901 0.48526 0.0
C93 C 0.91491 0.09767 0.45313 0.0
H94 H 0.12653 0.10563 0.54003 0.0
C95 C 0.98312 0.13818 0.45063 0.0
H96 H 0.97678 0.16587 0.42648 0.0
H97 H 0.87114 0.10274 0.43027 0.0
H98 H 0.57308 0.51254 0.90475 0.0
C99 C 0.59014 0.4805 0.92131 0.0
C100 C 0.61385 0.44517 0.89853 0.0
C101 C 0.58962 0.47469 0.96466 0.0
H102 H 0.66183 0.37939 0.90307 0.0
C103 C 0.64074 0.40544 0.91983 0.0
C104 C 0.64262 0.39981 0.96293 0.0
C105 C 0.61514 0.43298 0.98486 0.0
C106 C 0.56698 0.514 0.98916 0.0
H107 H 0.61541 0.4263 0.01771 0.0
C108 C 0.52302 0.55637 0.96162 0.0
C109 C 0.50471 0.62694 0.01524 0.0
C110 C 0.59227 0.52055 0.04394 0.0
H111 H 0.62158 0.49392 0.05965 0.0
C112 C 0.58091 0.56627 0.07864 0.0
H113 H 0.50534 0.54907 0.92673 0.0
C114 C 0.54088 0.61617 0.06694 0.0
H115 H 0.53701 0.64125 0.09314 0.0
H116 H 0.60189 0.56302 0.1124 0.0
H117 H 0.45193 0.56248 0.09149 0.0
C118 C 0.44839 0.52163 0.08334 0.0
C119 C 0.42743 0.48637 0.11044 0.0
C120 C 0.46469 0.50448 0.04643 0.0
H121 H 0.39815 0.40569 0.11819 0.0
C122 C 0.41594 0.43329 0.0979 0.0
C123 C 0.42507 0.41547 0.05878 0.0
C124 C 0.45034 0.45125 0.0333 0.0
C125 C 0.48704 0.5434 0.01758 0.0
H126 H 0.45755 0.43789 0.00305 0.0
C127 C 0.59422 0.60294 0.01392 0.0
C128 C 0.58016 0.64277 0.97337 0.0
C129 C 0.42436 0.5567 0.97785 0.0
H130 H 0.37636 0.53589 0.97503 0.0
C131 C 0.43518 0.6024 0.9432 0.0
H132 H 0.6435 0.60727 0.03411 0.0
C133 C 0.50499 0.64107 0.94141 0.0
H134 H 0.50038 0.66741 0.9162 0.0
H135 H 0.39248 0.6079 0.91946 0.0
C136 C 0.22946 0.12378 0.00318 0.0
C137 C 0.17645 0.12823 0.01915 0.0
C138 C 0.27676 0.16712 0.00376 0.0
C139 C 0.27135 0.21574 0.02139 0.0
C140 C 0.21759 0.22056 0.03714 0.0
C141 C 0.17048 0.17676 0.0355 0.0
C142 C 0.33278 0.16078 0.98601 0.0
C143 C 0.21048 0.27181 0.05659 0.0
C144 C 0.41169 0.32183 0.0722 0.0
C145 C 0.40075 0.36026 0.04342 0.0
C146 C 0.37288 0.27261 0.06382 0.0
C147 C 0.32285 0.26154 0.02539 0.0
C148 C 0.31689 0.29803 0.9939 0.0
C149 C 0.35593 0.34728 0.0034 0.0
C150 C 0.38114 0.23469 0.09815 0.0
C151 C 0.26525 0.28705 0.95202 0.0
H152 H 0.23393 0.08636 0.99004 0.0
H153 H 0.12962 0.18033 0.04785 0.0
H154 H 0.33802 0.18948 0.9621 0.0
H155 H 0.37785 0.16839 0.01227 0.0
H156 H 0.32735 0.12121 0.9705 0.0
H157 H 0.16559 0.26902 0.06707 0.0
H158 H 0.25187 0.28564 0.08482 0.0
H159 H 0.21049 0.30151 0.03293 0.0
H160 H 0.44722 0.33169 0.10287 0.0
H161 H 0.3474 0.37692 0.98105 0.0
H162 H 0.3786 0.19504 0.08394 0.0
H163 H 0.34158 0.23314 0.11405 0.0
H164 H 0.42748 0.24605 0.12309 0.0
H165 H 0.26091 0.24683 0.93826 0.0
H166 H 0.27484 0.31452 0.92801 0.0
H167 H 0.21839 0.29089 0.95789 0.0
C168 C 0.25347 0.81657 0.96022 0.0
C169 C 0.24923 0.84804 0.99495 0.0
C170 C 0.29659 0.78182 0.96586 0.0
C171 C 0.33749 0.77923 0.00717 0.0
C172 C 0.33309 0.81069 0.04255 0.0
C173 C 0.28834 0.84444 0.03606 0.0
C174 C 0.29854 0.748 0.92752 0.0
C175 C 0.37661 0.80956 0.08693 0.0
C176 C 0.4045 0.6551 0.02453 0.0
C177 C 0.46306 0.66792 0.01388 0.0
C178 C 0.36366 0.69119 0.02321 0.0
C179 C 0.38326 0.7423 0.01309 0.0
C180 C 0.44479 0.7568 0.0059 0.0
C181 C 0.48436 0.71944 0.0069 0.0
C182 C 0.29861 0.67402 0.03117 0.0
C183 C 0.46823 0.8114 0.99633 0.0
H184 H 0.22288 0.81941 0.92851 0.0
H185 H 0.28552 0.86945 0.06268 0.0
H186 H 0.34695 0.7563 0.92187 0.0
H187 H 0.28928 0.70649 0.93394 0.0
H188 H 0.26262 0.7541 0.89775 0.0
H189 H 0.36673 0.83608 0.11104 0.0
H190 H 0.37094 0.76964 0.09749 0.0
H191 H 0.42741 0.82098 0.08627 0.0
H192 H 0.38991 0.61631 0.03321 0.0
H193 H 0.53167 0.73042 0.00205 0.0
H194 H 0.26043 0.677 0.0017 0.0
H195 H 0.29208 0.69976 0.05708 0.0
H196 H 0.29177 0.63338 0.04028 0.0
H197 H 0.43747 0.82029 0.96538 0.0
H198 H 0.51873 0.81721 0.99425 0.0
H199 H 0.46452 0.83959 0.02162 0.0
C200 C 0.89716 0.84211 0.9623 0.0
C201 C 0.91516 0.87171 0.00181 0.0
C202 C 0.84151 0.80385 0.95141 0.0
C203 C 0.80475 0.79405 0.98149 0.0
C204 C 0.82422 0.82293 0.02204 0.0
C205 C 0.87856 0.86226 0.03132 0.0
C206 C 0.82086 0.77528 0.90731 0.0
C207 C 0.78749 0.81248 0.05552 0.0
C208 C 0.63001 0.72881 0.95414 0.0
C209 C 0.63581 0.67896 0.96705 0.0
C210 C 0.68483 0.76603 0.95584 0.0
C211 C 0.74648 0.75303 0.97134 0.0
C212 C 0.75222 0.70164 0.98123 0.0
C213 C 0.69671 0.665 0.97807 0.0
C214 C 0.6768 0.82003 0.94345 0.0
C215 C 0.81697 0.68617 0.99815 0.0
H216 H 0.92494 0.85062 0.93916 0.0
H217 H 0.89256 0.88574 0.06168 0.0
H218 H 0.81549 0.7328 0.90993 0.0
H219 H 0.77325 0.78329 0.88976 0.0
H220 H 0.85549 0.78685 0.88799 0.0
H221 H 0.81092 0.83664 0.08616 0.0
H222 H 0.73816 0.82048 0.04331 0.0
H223 H 0.78318 0.77097 0.06224 0.0
H224 H 0.58316 0.73978 0.9448 0.0
H225 H 0.70148 0.62572 0.9858 0.0
H226 H 0.70906 0.83417 0.92317 0.0
H227 H 0.69016 0.84702 0.97283 0.0
H228 H 0.62657 0.82159 0.92576 0.0
H229 H 0.84837 0.69766 0.97676 0.0
H230 H 0.81312 0.64376 0.00131 0.0
H231 H 0.84092 0.70681 0.03024 0.0
C232 C 0.84726 0.18723 0.0696 0.0
C233 C 0.85758 0.15871 0.03523 0.0
C234 C 0.81162 0.22742 0.0624 0.0
C235 C 0.78497 0.2388 0.01975 0.0
C236 C 0.79495 0.2099 0.9849 0.0
C237 C 0.83164 0.17045 0.99311 0.0
C238 C 0.80308 0.25803 0.10037 0.0
C239 C 0.76675 0.2206 0.93892 0.0
C240 C 0.64673 0.31304 0.99169 0.0
C241 C 0.67868 0.36153 0.98507 0.0
C242 C 0.68109 0.273 0.00484 0.0
C243 C 0.74863 0.28216 0.01137 0.0
C244 C 0.78114 0.33213 0.00687 0.0
C245 C 0.7456 0.37118 0.99351 0.0
C246 C 0.64484 0.22023 0.00938 0.0
C247 C 0.85306 0.34364 0.01391 0.0
H248 H 0.86793 0.17847 0.10221 0.0
H249 H 0.83894 0.14794 0.96657 0.0
H250 H 0.82423 0.29951 0.10036 0.0
H251 H 0.75127 0.25602 0.09788 0.0
H252 H 0.82601 0.24367 0.1315 0.0
H253 H 0.77722 0.19349 0.9155 0.0
H254 H 0.71394 0.21724 0.93243 0.0
H255 H 0.78628 0.26087 0.93347 0.0
H256 H 0.59479 0.30577 0.98454 0.0
H257 H 0.76984 0.40882 0.98789 0.0
H258 H 0.66686 0.20577 0.0406 0.0
H259 H 0.64761 0.19221 0.98365 0.0
H260 H 0.59348 0.22079 0.00711 0.0
H261 H 0.87741 0.33083 0.0453 0.0
H262 H 0.87143 0.3856 0.01306 0.0
H263 H 0.86646 0.32172 0.98857 0.0
C264 C 0.71751 0.61662 0.50432 0.0
C265 C 0.66375 0.62043 0.51963 0.0
C266 C 0.766 0.6599 0.50715 0.0
C267 C 0.76097 0.70779 0.52634 0.0
C268 C 0.70702 0.71174 0.54211 0.0
C269 C 0.65881 0.6681 0.53824 0.0
C270 C 0.8223 0.65448 0.48943 0.0
C271 C 0.70034 0.76207 0.56334 0.0
C272 C 0.90122 0.81385 0.57821 0.0
C273 C 0.88971 0.85307 0.55026 0.0
C274 C 0.86262 0.7645 0.56922 0.0
C275 C 0.81224 0.75402 0.53095 0.0
C276 C 0.80562 0.79144 0.50022 0.0
C277 C 0.84439 0.8408 0.51035 0.0
C278 C 0.87156 0.72569 0.6028 0.0
C279 C 0.75357 0.7812 0.45851 0.0
H280 H 0.72131 0.57992 0.48952 0.0
H281 H 0.61746 0.67122 0.55017 0.0
H282 H 0.82558 0.68232 0.46462 0.0
H283 H 0.86767 0.66414 0.51534 0.0
H284 H 0.81854 0.61466 0.47492 0.0
H285 H 0.65587 0.75842 0.57439 0.0
H286 H 0.74219 0.77506 0.59144 0.0
H287 H 0.69971 0.79281 0.54052 0.0
H288 H 0.93715 0.82305 0.60877 0.0
H289 H 0.83533 0.87097 0.4886 0.0
H290 H 0.8684 0.68631 0.58782 0.0
H291 H 0.83269 0.72377 0.61934 0.0
H292 H 0.91838 0.7365 0.62733 0.0
H293 H 0.74983 0.74156 0.44379 0.0
H294 H 0.76228 0.80976 0.43506 0.0
H295 H 0.70672 0.78386 0.4649 0.0
C296 C 0.73261 0.30511 0.46105 0.0
C297 C 0.72592 0.33869 0.4936 0.0
C298 C 0.77607 0.27075 0.46995 0.0
C299 C 0.8148 0.27079 0.51239 0.0
C300 C 0.80758 0.30415 0.54564 0.0
C301 C 0.76254 0.33746 0.53587 0.0
C302 C 0.78113 0.23488 0.4338 0.0
C303 C 0.84878 0.30585 0.59111 0.0
C304 C 0.88606 0.14935 0.53499 0.0
C305 C 0.94454 0.16274 0.52438 0.0
C306 C 0.84407 0.1847 0.53263 0.0
C307 C 0.86244 0.23553 0.5214 0.0
C308 C 0.92426 0.25084 0.5149 0.0
C309 C 0.96497 0.21427 0.51689 0.0
C310 C 0.77878 0.16677 0.53997 0.0
C311 C 0.94637 0.30523 0.50421 0.0
H312 H 0.70387 0.30613 0.42844 0.0
H313 H 0.75778 0.36409 0.56081 0.0
H314 H 0.83006 0.2437 0.42904 0.0
H315 H 0.77324 0.19401 0.44212 0.0
H316 H 0.74581 0.23839 0.40297 0.0
H317 H 0.83496 0.332 0.6136 0.0
H318 H 0.84533 0.26642 0.60275 0.0
H319 H 0.8998 0.31961 0.59195 0.0
H320 H 0.87213 0.1105 0.54384 0.0
H321 H 0.01202 0.22569 0.51162 0.0
H322 H 0.74121 0.16613 0.50939 0.0
H323 H 0.76938 0.19414 0.56358 0.0
H324 H 0.77392 0.12733 0.55171 0.0
H325 H 0.91784 0.31165 0.47173 0.0
H326 H 0.99797 0.31247 0.50467 0.0
H327 H 0.93835 0.33408 0.52731 0.0
C328 C 0.32071 0.38326 0.47043 0.0
C329 C 0.38276 0.37142 0.47889 0.0
C330 C 0.26674 0.34433 0.46487 0.0
C331 C 0.27479 0.29208 0.46789 0.0
C332 C 0.33682 0.27942 0.47406 0.0
C333 C 0.39032 0.31938 0.47947 0.0
C334 C 0.20151 0.35957 0.45836 0.0
C335 C 0.34703 0.22398 0.47722 0.0
C336 C 0.15432 0.20831 0.51372 0.0
C337 C 0.11193 0.18098 0.4768 0.0
C338 C 0.20792 0.24394 0.51113 0.0
C339 C 0.2196 0.2522 0.47052 0.0
C340 C 0.17661 0.22479 0.43294 0.0
C341 C 0.12267 0.18958 0.43651 0.0
C342 C 0.25171 0.27314 0.55191 0.0
C343 C 0.18783 0.23251 0.38918 0.0
H344 H 0.3142 0.42336 0.46919 0.0
H345 H 0.43805 0.30999 0.48563 0.0
H346 H 0.1661 0.33548 0.43105 0.0
H347 H 0.18425 0.35261 0.4875 0.0
H348 H 0.20258 0.4011 0.45215 0.0
H349 H 0.39637 0.21987 0.47633 0.0
H350 H 0.3389 0.21015 0.50781 0.0
H351 H 0.31203 0.1984 0.45062 0.0
H352 H 0.14524 0.20206 0.54481 0.0
H353 H 0.08996 0.16786 0.40807 0.0
H354 H 0.25242 0.31543 0.55007 0.0
H355 H 0.30154 0.2666 0.55572 0.0
H356 H 0.2365 0.26123 0.58098 0.0
H357 H 0.18752 0.27354 0.3819 0.0
H358 H 0.15088 0.20717 0.36331 0.0
H359 H 0.23578 0.22419 0.38888 0.0
C360 C 0.31825 0.6767 0.55877 0.0
C361 C 0.34565 0.66108 0.52666 0.0
C362 C 0.28391 0.71768 0.55371 0.0
C363 C 0.27732 0.74396 0.51577 0.0
C364 C 0.30709 0.7299 0.484 0.0
C365 C 0.34087 0.68851 0.48981 0.0
C366 C 0.25303 0.73178 0.58832 0.0
C367 C 0.30148 0.75748 0.44323 0.0
C368 C 0.13549 0.81054 0.47397 0.0
C369 C 0.16379 0.86259 0.48514 0.0
C370 C 0.17128 0.77117 0.48566 0.0
C371 C 0.23698 0.78468 0.50827 0.0
C372 C 0.26484 0.83732 0.52117 0.0
C373 C 0.22765 0.87581 0.50944 0.0
C374 C 0.13973 0.71538 0.47191 0.0
C375 C 0.33476 0.85319 0.54504 0.0
H376 H 0.323 0.65641 0.58776 0.0
H377 H 0.36152 0.67644 0.4648 0.0
H378 H 0.26801 0.77374 0.59873 0.0
H379 H 0.20008 0.7243 0.57534 0.0
H380 H 0.26554 0.70928 0.61689 0.0
H381 H 0.33055 0.74385 0.42292 0.0
H382 H 0.25056 0.75094 0.4242 0.0
H383 H 0.31724 0.79993 0.45106 0.0
H384 H 0.08619 0.80087 0.4546 0.0
H385 H 0.24934 0.91642 0.51724 0.0
H386 H 0.14856 0.69128 0.49969 0.0
H387 H 0.16094 0.69973 0.44752 0.0
H388 H 0.08711 0.7112 0.45792 0.0
H389 H 0.34695 0.83013 0.57321 0.0
H390 H 0.34731 0.89507 0.55628 0.0
H391 H 0.36504 0.84527 0.5236 0.0
C392 C 0.12314 0.03287 0.16881 0.0
C393 C 0.11559 0.98813 0.14163 0.0
C394 C 0.12931 0.02997 0.21293 0.0
C395 C 0.12585 0.9809 0.23 0.0
C396 C 0.12117 0.93577 0.20298 0.0
C397 C 0.11685 0.94004 0.15903 0.0
C398 C 0.13615 0.07917 0.24075 0.0
C399 C 0.1164 0.88267 0.21986 0.0
C400 C 0.17343 0.97198 0.351 0.0
C401 C 0.11377 0.96659 0.36047 0.0
C402 C 0.17835 0.97751 0.3088 0.0
C403 C 0.12206 0.97652 0.27521 0.0
C404 C 0.06175 0.97173 0.28477 0.0
C405 C 0.05844 0.96736 0.32743 0.0
C406 C 0.24362 0.98402 0.30013 0.0
C407 C 1.00052 0.97001 0.24979 0.0
H408 H 0.12208 0.0701 0.15521 0.0
H409 H 0.10999 0.9054 0.13781 0.0
H410 H 0.09119 0.07978 0.25046 0.0
H411 H 0.1754 0.08075 0.27057 0.0
H412 H 0.1462 0.11449 0.22379 0.0
H413 H 0.11785 0.85206 0.19564 0.0
H414 H 0.15604 0.88229 0.24908 0.0
H415 H 0.0707 0.87292 0.22917 0.0
H416 H 0.21626 0.9716 0.37671 0.0
H417 H 0.01231 0.96268 0.33478 0.0
H418 H 0.25225 0.01991 0.28364 0.0
H419 H 0.24566 0.95103 0.27837 0.0
H420 H 0.2829 0.98609 0.33007 0.0
H421 H 0.00288 0.00628 0.23308 0.0
H422 H 0.95747 0.96519 0.26248 0.0
H423 H 0.99466 0.93737 0.22546 0.0
C424 C 0.93592 0.04227 0.8703 0.0
C425 C 0.97509 0.00738 0.88898 0.0
C426 C 0.9166 0.04377 0.82533 0.0
C427 C 0.93688 0.00946 0.79884 0.0
C428 C 0.97468 0.97318 0.81767 0.0
C429 C 0.9933 0.97268 0.86234 0.0
C430 C 0.87622 0.08289 0.80629 0.0
C431 C 0.99695 0.93549 0.79069 0.0
C432 C 0.86599 0.96912 0.6808 0.0
C433 C 0.91462 -0.00581 0.66363 0.0
C434 C 0.86903 0.97768 0.72448 0.0
C435 C 0.92194 0.01207 0.75149 0.0
C436 C 0.96772 0.04119 0.73344 0.0
C437 C 0.9636 0.0318 0.68972 0.0
C438 C 0.81878 0.94636 0.74236 0.0
C439 C 0.02467 0.0785 0.76105 0.0
H440 H 0.92166 0.06912 0.89078 0.0
H441 H 0.02288 0.94509 0.87645 0.0
H442 H 0.90538 0.11306 0.7926 0.0
H443 H 0.83489 0.06403 0.77964 0.0
H444 H 0.8579 0.1022 0.83062 0.0
H445 H 0.02435 0.90865 0.8104 0.0
H446 H 0.95514 0.91201 0.76692 0.0
H447 H 0.02806 0.95715 0.7725 0.0
H448 H 0.82704 0.94102 0.66051 0.0
H449 H 0.0014 0.05137 0.67675 0.0
H450 H 0.80496 0.97059 0.7661 0.0
H451 H 0.83874 0.91416 0.75924 0.0
H452 H 0.77506 0.92939 0.71662 0.0
H453 H 0.0097 0.10287 0.7841 0.0
H454 H 0.04945 0.10426 0.74145 0.0
H455 H 0.05955 0.05623 0.78002 0.0
C456 C 0.5267 0.47979 0.64984 0.0
C457 C 0.57254 0.4706 0.62836 0.0
C458 C 0.53683 0.47487 0.69395 0.0
C459 C 0.59474 0.46107 0.71756 0.0
C460 C 0.64133 0.45147 0.69619 0.0
C461 C 0.62941 0.45591 0.65159 0.0
C462 C 0.48531 0.48444 0.71525 0.0
C463 C 0.7039 0.43716 0.72052 0.0
C464 C 0.63322 0.49673 0.83759 0.0
C465 C 0.6113 0.44939 0.85245 0.0
C466 C 0.63097 0.50058 0.79394 0.0
C467 C 0.60533 0.45619 0.76452 0.0
C468 C 0.58396 0.40816 0.77955 0.0
C469 C 0.58748 0.40532 0.82336 0.0
C470 C 0.65468 0.55236 0.77915 0.0
C471 C 0.55518 0.36019 0.74914 0.0
H472 H 0.48227 0.49065 0.63203 0.0
H473 H 0.66501 0.44896 0.63513 0.0
H474 H 0.46986 0.44956 0.73112 0.0
H475 H 0.50462 0.51694 0.74057 0.0
H476 H 0.4425 0.49398 0.69206 0.0
H477 H 0.73518 0.4311 0.69926 0.0
H478 H 0.73017 0.4683 0.74599 0.0
H479 H 0.69452 0.40115 0.73671 0.0
H480 H 0.65249 0.53065 0.86017 0.0
H481 H 0.57016 0.36873 0.83479 0.0
H482 H 0.6138 0.5669 0.75801 0.0
H483 H 0.68924 0.54807 0.75997 0.0
H484 H 0.67831 0.5819 0.80648 0.0
H485 H 0.50978 0.36616 0.72665 0.0
H486 H 0.54477 0.32515 0.76634 0.0
H487 H 0.58813 0.3529 0.72949 0.0
C488 C 0.43438 0.55028 0.35851 0.0
C489 C 0.47204 0.5144 0.37722 0.0
C490 C 0.41849 0.55394 0.31376 0.0
C491 C 0.44067 0.52082 0.2875 0.0
C492 C 0.47819 0.48435 0.30634 0.0
C493 C 0.49342 0.4817 0.35081 0.0
C494 C 0.37867 0.59339 0.29463 0.0
C495 C 0.50268 0.44806 0.27953 0.0
C496 C 0.37206 0.47989 0.1697 0.0
C497 C 0.42148 0.50453 0.15308 0.0
C498 C 0.37394 0.48898 0.2131 0.0
C499 C 0.4263 0.52373 0.24027 0.0
C500 C 0.47243 0.5529 0.22256 0.0
C501 C 0.46966 0.54275 0.17916 0.0
C502 C 0.32348 0.4574 0.23064 0.0
C503 C 0.52863 0.59077 0.25031 0.0
H504 H 0.41777 0.57566 0.37879 0.0
H505 H 0.52224 0.45363 0.36488 0.0
H506 H 0.40678 0.6217 0.27872 0.0
H507 H 0.33549 0.57401 0.26958 0.0
H508 H 0.36313 0.61489 0.31924 0.0
H509 H 0.53048 0.42146 0.29926 0.0
H510 H 0.46187 0.42429 0.25516 0.0
H511 H 0.534 0.47079 0.26204 0.0
H512 H 0.33363 0.45142 0.14935 0.0
H513 H 0.50803 0.56209 0.1666 0.0
H514 H 0.30907 0.48143 0.25421 0.0
H515 H 0.34353 0.42529 0.24762 0.0
H516 H 0.2801 0.44026 0.2047 0.0
H517 H 0.51327 0.61417 0.27379 0.0
H518 H 0.55239 0.61743 0.23077 0.0
H519 H 0.56453 0.56897 0.26876 0.0
loop_
_geom_bond_atom_site_label_1
_geom_bond_atom_site_label_2
_geom_bond_distance
_geom_bond_site_symmetry_2
_ccdc_geom_bond_type
Co0 N5 2.057 . S
Co0 O17 2.021 . S
Co0 O20 2.062 . S
Co0 O24 2.117 1_554 S
Co0 O25 2.020 1_565 S
C1 O21 1.259 1_455 S
C1 O24 1.258 1_545 S
Co2 N11 2.057 . S
Co2 O18 2.117 1_655 S
Co2 O19 2.018 1_545 S
Co2 O21 2.021 1_554 S
Co2 O26 2.062 1_655 S
C3 N5 1.316 . S
C3 N6 1.347 . S
C3 H8 0.931 . S
C4 N5 1.375 1_556 S
C4 C7 1.350 . S
C4 H9 0.930 . S
N5 Co0 2.057 . S
N5 C3 1.316 . S
N5 C4 1.375 1_554 S
N6 C3 1.347 . S
N6 C7 1.373 1_554 S
C7 C4 1.350 . S
C7 N6 1.373 1_556 S
C7 H28 0.931 . S
H8 C3 0.931 . S
H9 C4 0.930 . S
C10 O17 1.262 . S
C10 O18 1.255 1_565 S
N11 Co2 2.057 . S
N11 C12 1.316 1_554 S
N11 C13 1.375 . S
C12 N11 1.316 1_556 S
C12 N14 1.347 1_556 S
C12 H23 0.931 . S
C13 N11 1.375 . S
C13 C15 1.350 . S
C13 H22 0.930 . S
N14 C12 1.347 1_554 S
N14 C15 1.373 . S
C15 C13 1.350 . S
C15 N14 1.373 . S
C15 H29 0.931 . S
C16 O19 1.257 . S
C16 O20 1.255 1_655 S
O17 Co0 2.021 . S
O17 C10 1.262 . S
O18 Co2 2.117 1_455 S
O18 C10 1.255 1_545 S
O19 Co2 2.018 1_565 S
O19 C16 1.257 . S
O20 Co0 2.062 . S
O20 C16 1.255 1_455 S
O21 C1 1.259 1_655 S
O21 Co2 2.021 1_556 S
H22 C13 0.930 . S
H23 C12 0.931 . S
O24 Co0 2.117 1_556 S
O24 C1 1.258 1_565 S
O25 Co0 2.020 1_545 S
O25 C27 1.256 . S
O26 Co2 2.062 1_455 S
O26 C27 1.255 . S
C27 O25 1.256 . S
C27 O26 1.255 . S
H28 C7 0.931 . S
H29 C15 0.931 . S
Co30 N35 2.057 . S
Co30 O47 2.021 . S
Co30 O50 2.062 . S
Co30 O54 2.117 . S
Co30 O55 2.020 . S
C31 O51 1.259 . S
C31 O54 1.258 . S
Co32 N41 2.057 . S
Co32 O48 2.117 . S
Co32 O49 2.020 . S
Co32 O51 2.021 . S
Co32 O56 2.062 . S
C33 N35 1.316 . S
C33 N36 1.347 . S
C33 H38 0.931 . S
C34 N35 1.375 . S
C34 C37 1.350 . S
C34 H39 0.930 . S
N35 Co30 2.057 . S
N35 C33 1.316 . S
N35 C34 1.375 . S
N36 C33 1.347 . S
N36 C37 1.373 . S
C37 C34 1.350 . S
C37 N36 1.373 . S
C37 H58 0.931 . S
H38 C33 0.931 . S
H39 C34 0.930 . S
C40 O47 1.259 . S
C40 O48 1.258 . S
N41 Co32 2.057 . S
N41 C42 1.316 . S
N41 C43 1.375 . S
C42 N41 1.316 . S
C42 N44 1.347 . S
C42 H53 0.931 . S
C43 N41 1.375 . S
C43 C45 1.350 . S
C43 H52 0.930 . S
N44 C42 1.347 . S
N44 C45 1.373 . S
C45 C43 1.350 . S
C45 N44 1.373 . S
C45 H59 0.931 . S
C46 O49 1.256 . S
C46 O50 1.255 . S
O47 Co30 2.021 . S
O47 C40 1.259 . S
O48 Co32 2.117 . S
O48 C40 1.258 . S
O49 Co32 2.020 . S
O49 C46 1.256 . S
O50 Co30 2.062 . S
O50 C46 1.255 . S
O51 C31 1.259 . S
O51 Co32 2.021 . S
H52 C43 0.930 . S
H53 C42 0.931 . S
O54 Co30 2.117 . S
O54 C31 1.258 . S
O55 Co30 2.020 . S
O55 C57 1.256 . S
O56 Co32 2.062 . S
O56 C57 1.255 . S
C57 O55 1.256 . S
C57 O56 1.255 . S
H58 C37 0.931 . S
H59 C45 0.931 . S
H60 C61 0.949 . S
C61 H60 0.949 . S
C61 C62 1.395 1_545 S
C61 C63 1.391 . S
C62 C61 1.395 1_565 S
C62 C65 1.390 . S
C63 C61 1.391 . S
C63 C67 1.387 1_545 S
C63 C68 1.491 . S
H64 C65 0.950 . S
C65 C62 1.390 . S
C65 H64 0.950 . S
C65 C66 1.378 . S
C66 C65 1.378 . S
C66 C67 1.409 . S
C67 C63 1.387 1_565 S
C67 C66 1.409 . S
C67 H69 0.951 . S
C68 C63 1.491 . S
C68 C70 1.382 1_455 S
C68 C72 1.404 . S
H69 C67 0.951 . S
C70 C68 1.382 1_655 S
C70 C71 1.390 . S
C70 H75 0.949 . S
C71 C70 1.390 . S
C71 C76 1.399 1_655 S
C72 C68 1.404 . S
C72 H73 0.950 . S
C72 C74 1.375 . S
H73 C72 0.950 . S
C74 C72 1.375 . S
C74 C76 1.382 . S
C74 H78 0.950 . S
H75 C70 0.949 . S
C76 C71 1.399 1_455 S
C76 C74 1.382 . S
C76 H77 0.952 . S
H77 C76 0.952 . S
H78 C74 0.950 . S
H79 C80 0.956 . S
C80 H79 0.956 . S
C80 C81 1.388 1_445 S
C80 C82 1.392 1_455 S
C81 C80 1.388 1_665 S
C81 C84 1.390 . S
C82 C80 1.392 1_655 S
C82 C86 1.387 1_545 S
C82 C87 1.491 1_655 S
H83 C84 0.950 . S
C84 C81 1.390 . S
C84 H83 0.950 . S
C84 C85 1.378 . S
C85 C84 1.378 . S
C85 C86 1.409 . S
C86 C82 1.387 1_565 S
C86 C85 1.409 . S
C86 H88 0.951 . S
C87 C82 1.491 1_455 S
C87 C89 1.382 . S
C87 C91 1.404 1_455 S
H88 C86 0.951 . S
C89 C87 1.382 . S
C89 C90 1.390 . S
C89 H94 0.949 . S
C90 C89 1.390 . S
C90 C95 1.399 . S
C91 C87 1.404 1_655 S
C91 H92 0.950 . S
C91 C93 1.375 . S
H92 C91 0.950 . S
C93 C91 1.375 . S
C93 C95 1.382 1_655 S
C93 H97 0.950 . S
H94 C89 0.949 . S
C95 C90 1.399 . S
C95 C93 1.382 1_455 S
C95 H96 0.952 . S
H96 C95 0.952 . S
H97 C93 0.950 . S
H98 C99 0.949 . S
C99 H98 0.949 . S
C99 C100 1.395 . S
C99 C101 1.391 . S
C100 C99 1.395 . S
C100 C103 1.390 . S
C101 C99 1.391 . S
C101 C105 1.387 . S
C101 C106 1.491 1_556 S
H102 C103 0.950 . S
C103 C100 1.390 . S
C103 H102 0.950 . S
C103 C104 1.378 . S
C104 C103 1.378 . S
C104 C105 1.409 . S
C105 C101 1.387 . S
C105 C104 1.409 . S
C105 H107 0.951 1_556 S
C106 C101 1.491 1_554 S
C106 C108 1.382 1_554 S
C106 C110 1.404 . S
H107 C105 0.951 1_554 S
C108 C106 1.382 1_556 S
C108 C109 1.390 1_556 S
C108 H113 0.949 . S
C109 C108 1.390 1_554 S
C109 C114 1.399 . S
C110 C106 1.404 . S
C110 H111 0.950 . S
C110 C112 1.375 . S
H111 C110 0.950 . S
C112 C110 1.375 . S
C112 C114 1.382 . S
C112 H116 0.950 . S
H113 C108 0.949 . S
C114 C109 1.399 . S
C114 C112 1.382 . S
C114 H115 0.952 . S
H115 C114 0.952 . S
H116 C112 0.950 . S
H117 C118 0.949 . S
C118 H117 0.949 . S
C118 C119 1.395 . S
C118 C120 1.391 . S
C119 C118 1.395 . S
C119 C122 1.390 . S
C120 C118 1.391 . S
C120 C124 1.387 . S
C120 C125 1.491 . S
H121 C122 0.950 . S
C122 C119 1.390 . S
C122 H121 0.950 . S
C122 C123 1.378 . S
C123 C122 1.378 . S
C123 C124 1.409 . S
C124 C120 1.387 . S
C124 C123 1.409 . S
C124 H126 0.951 1_554 S
C125 C120 1.491 . S
C125 C127 1.382 . S
C125 C129 1.404 1_554 S
H126 C124 0.951 1_556 S
C127 C125 1.382 . S
C127 C128 1.390 1_554 S
C127 H132 0.949 . S
C128 C127 1.390 1_556 S
C128 C133 1.399 . S
C129 C125 1.404 1_556 S
C129 H130 0.950 . S
C129 C131 1.375 . S
H130 C129 0.950 . S
C131 C129 1.375 . S
C131 C133 1.382 . S
C131 H135 0.950 . S
H132 C127 0.949 . S
C133 C128 1.399 . S
C133 C131 1.382 . S
C133 H134 0.952 . S
H134 C133 0.952 . S
H135 C131 0.950 . S
C136 C137 1.391 . S
C136 C138 1.394 . S
C136 H152 0.931 1_554 S
C137 C136 1.391 . S
C137 C141 1.376 . S
C138 C136 1.394 . S
C138 C139 1.369 . S
C138 C142 1.531 1_554 S
C139 C138 1.369 . S
C139 C140 1.410 . S
C139 C147 1.503 . S
C140 C139 1.410 . S
C140 C141 1.392 . S
C140 C143 1.511 . S
C141 C137 1.376 . S
C141 C140 1.392 . S
C141 H153 0.929 . S
C142 C138 1.531 1_556 S
C142 H154 0.960 . S
C142 H155 0.962 1_556 S
C142 H156 0.960 . S
C143 C140 1.511 . S
C143 H157 0.961 . S
C143 H158 0.961 . S
C143 H159 0.961 . S
C144 C145 1.370 . S
C144 C146 1.363 . S
C144 H160 0.931 . S
C145 C144 1.370 . S
C145 C149 1.408 1_554 S
C146 C144 1.363 . S
C146 C147 1.370 . S
C146 C150 1.524 . S
C147 C139 1.503 . S
C147 C146 1.370 . S
C147 C148 1.403 1_554 S
C148 C147 1.403 1_556 S
C148 C149 1.404 . S
C148 C151 1.539 . S
C149 C145 1.408 1_556 S
C149 C148 1.404 . S
C149 H161 0.930 . S
C150 C146 1.524 . S
C150 H162 0.956 . S
C150 H163 0.961 . S
C150 H164 0.961 . S
C151 C148 1.539 . S
C151 H165 0.958 . S
C151 H166 0.961 . S
C151 H167 0.960 . S
H152 C136 0.931 1_556 S
H153 C141 0.929 . S
H154 C142 0.960 . S
H155 C142 0.962 1_554 S
H156 C142 0.960 . S
H157 C143 0.961 . S
H158 C143 0.961 . S
H159 C143 0.961 . S
H160 C144 0.931 . S
H161 C149 0.930 . S
H162 C150 0.956 . S
H163 C150 0.961 . S
H164 C150 0.961 . S
H165 C151 0.958 . S
H166 C151 0.961 . S
H167 C151 0.960 . S
C168 C169 1.391 1_556 S
C168 C170 1.394 . S
C168 H184 0.931 . S
C169 C168 1.391 1_554 S
C169 C173 1.376 . S
C170 C168 1.394 . S
C170 C171 1.369 1_556 S
C170 C174 1.531 . S
C171 C170 1.369 1_554 S
C171 C172 1.410 . S
C171 C179 1.503 . S
C172 C171 1.410 . S
C172 C173 1.392 . S
C172 C175 1.511 . S
C173 C169 1.376 . S
C173 C172 1.392 . S
C173 H185 0.929 . S
C174 C170 1.531 . S
C174 H186 0.960 . S
C174 H187 0.962 . S
C174 H188 0.960 . S
C175 C172 1.511 . S
C175 H189 0.961 . S
C175 H190 0.961 . S
C175 H191 0.961 . S
C176 C177 1.370 . S
C176 C178 1.363 . S
C176 H192 0.931 . S
C177 C176 1.370 . S
C177 C181 1.408 . S
C178 C176 1.363 . S
C178 C179 1.370 . S
C178 C182 1.524 . S
C179 C171 1.503 . S
C179 C178 1.370 . S
C179 C180 1.403 . S
C180 C179 1.403 . S
C180 C181 1.404 . S
C180 C183 1.539 . S
C181 C177 1.408 . S
C181 C180 1.404 . S
C181 H193 0.930 . S
C182 C178 1.524 . S
C182 H194 0.956 . S
C182 H195 0.961 . S
C182 H196 0.961 . S
C183 C180 1.539 . S
C183 H197 0.958 1_554 S
C183 H198 0.961 . S
C183 H199 0.960 . S
H184 C168 0.931 . S
H185 C173 0.929 . S
H186 C174 0.960 . S
H187 C174 0.962 . S
H188 C174 0.960 . S
H189 C175 0.961 . S
H190 C175 0.961 . S
H191 C175 0.961 . S
H192 C176 0.931 . S
H193 C181 0.930 . S
H194 C182 0.956 . S
H195 C182 0.961 . S
H196 C182 0.961 . S
H197 C183 0.958 1_556 S
H198 C183 0.961 . S
H199 C183 0.960 . S
C200 C201 1.391 1_556 S
C200 C202 1.394 . S
C200 H216 0.931 . S
C201 C200 1.391 1_554 S
C201 C205 1.376 . S
C202 C200 1.394 . S
C202 C203 1.369 1_556 S
C202 C206 1.531 . S
C203 C202 1.369 1_554 S
C203 C204 1.410 . S
C203 C211 1.503 . S
C204 C203 1.410 . S
C204 C205 1.392 . S
C204 C207 1.511 . S
C205 C201 1.376 . S
C205 C204 1.392 . S
C205 H217 0.929 . S
C206 C202 1.531 . S
C206 H218 0.960 . S
C206 H219 0.962 . S
C206 H220 0.960 . S
C207 C204 1.511 . S
C207 H221 0.961 . S
C207 H222 0.961 . S
C207 H223 0.961 . S
C208 C209 1.370 1_556 S
C208 C210 1.363 . S
C208 H224 0.931 . S
C209 C208 1.370 1_554 S
C209 C213 1.408 . S
C210 C208 1.363 . S
C210 C211 1.370 1_556 S
C210 C214 1.524 . S
C211 C203 1.503 . S
C211 C210 1.370 1_554 S
C211 C212 1.403 . S
C212 C211 1.403 . S
C212 C213 1.404 . S
C212 C215 1.539 . S
C213 C209 1.408 . S
C213 C212 1.404 . S
C213 H225 0.930 . S
C214 C210 1.524 . S
C214 H226 0.956 . S
C214 H227 0.961 . S
C214 H228 0.961 . S
C215 C212 1.539 . S
C215 H229 0.958 . S
C215 H230 0.961 . S
C215 H231 0.960 . S
H216 C200 0.931 . S
H217 C205 0.929 . S
H218 C206 0.960 . S
H219 C206 0.962 . S
H220 C206 0.960 . S
H221 C207 0.961 . S
H222 C207 0.961 . S
H223 C207 0.961 . S
H224 C208 0.931 . S
H225 C213 0.930 . S
H226 C214 0.956 . S
H227 C214 0.961 . S
H228 C214 0.961 . S
H229 C215 0.958 . S
H230 C215 0.961 . S
H231 C215 0.960 . S
C232 C233 1.391 1_554 S
C232 C234 1.394 . S
C232 H248 0.931 . S
C233 C232 1.391 1_556 S
C233 C237 1.376 . S
C234 C232 1.394 . S
C234 C235 1.369 1_554 S
C234 C238 1.531 . S
C235 C234 1.369 1_556 S
C235 C236 1.410 . S
C235 C243 1.503 . S
C236 C235 1.410 . S
C236 C237 1.392 . S
C236 C239 1.511 . S
C237 C233 1.376 . S
C237 C236 1.392 . S
C237 H249 0.929 . S
C238 C234 1.531 . S
C238 H250 0.960 . S
C238 H251 0.962 . S
C238 H252 0.960 . S
C239 C236 1.511 . S
C239 H253 0.961 . S
C239 H254 0.961 . S
C239 H255 0.961 . S
C240 C241 1.370 1_554 S
C240 C242 1.363 . S
C240 H256 0.931 . S
C241 C240 1.370 1_556 S
C241 C245 1.408 . S
C242 C240 1.363 . S
C242 C243 1.370 1_554 S
C242 C246 1.524 . S
C243 C235 1.503 . S
C243 C242 1.370 1_556 S
C243 C244 1.403 . S
C244 C243 1.403 . S
C244 C245 1.404 . S
C244 C247 1.539 . S
C245 C241 1.408 . S
C245 C244 1.404 . S
C245 H257 0.930 . S
C246 C242 1.524 . S
C246 H258 0.956 . S
C246 H259 0.961 . S
C246 H260 0.961 . S
C247 C244 1.539 . S
C247 H261 0.958 . S
C247 H262 0.961 . S
C247 H263 0.960 . S
H248 C232 0.931 . S
H249 C237 0.929 . S
H250 C238 0.960 . S
H251 C238 0.962 . S
H252 C238 0.960 . S
H253 C239 0.961 . S
H254 C239 0.961 . S
H255 C239 0.961 . S
H256 C240 0.931 . S
H257 C245 0.930 . S
H258 C246 0.956 . S
H259 C246 0.961 . S
H260 C246 0.961 . S
H261 C247 0.958 . S
H262 C247 0.961 . S
H263 C247 0.960 . S
C264 C265 1.391 . S
C264 C266 1.394 . S
C264 H280 0.931 . S
C265 C264 1.391 . S
C265 C269 1.376 . S
C266 C264 1.394 . S
C266 C267 1.369 . S
C266 C270 1.531 . S
C267 C266 1.369 . S
C267 C268 1.410 . S
C267 C275 1.503 . S
C268 C267 1.410 . S
C268 C269 1.392 . S
C268 C271 1.511 . S
C269 C265 1.376 . S
C269 C268 1.392 . S
C269 H281 0.929 . S
C270 C266 1.531 . S
C270 H282 0.960 . S
C270 H283 0.962 . S
C270 H284 0.960 . S
C271 C268 1.511 . S
C271 H285 0.961 . S
C271 H286 0.961 . S
C271 H287 0.961 . S
C272 C273 1.370 . S
C272 C274 1.363 . S
C272 H288 0.931 . S
C273 C272 1.370 . S
C273 C277 1.408 . S
C274 C272 1.363 . S
C274 C275 1.370 . S
C274 C278 1.524 . S
C275 C267 1.503 . S
C275 C274 1.370 . S
C275 C276 1.403 . S
C276 C275 1.403 . S
C276 C277 1.404 . S
C276 C279 1.539 . S
C277 C273 1.408 . S
C277 C276 1.404 . S
C277 H289 0.930 . S
C278 C274 1.524 . S
C278 H290 0.956 . S
C278 H291 0.961 . S
C278 H292 0.961 . S
C279 C276 1.539 . S
C279 H293 0.958 . S
C279 H294 0.961 . S
C279 H295 0.960 . S
H280 C264 0.931 . S
H281 C269 0.929 . S
H282 C270 0.960 . S
H283 C270 0.962 . S
H284 C270 0.960 . S
H285 C271 0.961 . S
H286 C271 0.961 . S
H287 C271 0.961 . S
H288 C272 0.931 . S
H289 C277 0.930 . S
H290 C278 0.956 . S
H291 C278 0.961 . S
H292 C278 0.961 . S
H293 C279 0.958 . S
H294 C279 0.961 . S
H295 C279 0.960 . S
C296 C297 1.391 . S
C296 C298 1.394 . S
C296 H312 0.931 . S
C297 C296 1.391 . S
C297 C301 1.376 . S
C298 C296 1.394 . S
C298 C299 1.369 . S
C298 C302 1.531 . S
C299 C298 1.369 . S
C299 C300 1.410 . S
C299 C307 1.503 . S
C300 C299 1.410 . S
C300 C301 1.392 . S
C300 C303 1.511 . S
C301 C297 1.376 . S
C301 C300 1.392 . S
C301 H313 0.929 . S
C302 C298 1.531 . S
C302 H314 0.960 . S
C302 H315 0.962 . S
C302 H316 0.960 . S
C303 C300 1.511 . S
C303 H317 0.961 . S
C303 H318 0.961 . S
C303 H319 0.961 . S
C304 C305 1.370 . S
C304 C306 1.363 . S
C304 H320 0.931 . S
C305 C304 1.370 . S
C305 C309 1.408 . S
C306 C304 1.363 . S
C306 C307 1.370 . S
C306 C310 1.524 . S
C307 C299 1.503 . S
C307 C306 1.370 . S
C307 C308 1.403 . S
C308 C307 1.403 . S
C308 C309 1.404 . S
C308 C311 1.539 . S
C309 C305 1.408 . S
C309 C308 1.404 . S
C309 H321 0.930 1_655 S
C310 C306 1.524 . S
C310 H322 0.956 . S
C310 H323 0.961 . S
C310 H324 0.961 . S
C311 C308 1.539 . S
C311 H325 0.958 . S
C311 H326 0.961 . S
C311 H327 0.960 . S
H312 C296 0.931 . S
H313 C301 0.929 . S
H314 C302 0.960 . S
H315 C302 0.962 . S
H316 C302 0.960 . S
H317 C303 0.961 . S
H318 C303 0.961 . S
H319 C303 0.961 . S
H320 C304 0.931 . S
H321 C309 0.930 1_455 S
H322 C310 0.956 . S
H323 C310 0.961 . S
H324 C310 0.961 . S
H325 C311 0.958 . S
H326 C311 0.961 . S
H327 C311 0.960 . S
C328 C329 1.391 . S
C328 C330 1.394 . S
C328 H344 0.931 . S
C329 C328 1.391 . S
C329 C333 1.376 . S
C330 C328 1.394 . S
C330 C331 1.369 . S
C330 C334 1.531 . S
C331 C330 1.369 . S
C331 C332 1.410 . S
C331 C339 1.503 . S
C332 C331 1.410 . S
C332 C333 1.392 . S
C332 C335 1.511 . S
C333 C329 1.376 . S
C333 C332 1.392 . S
C333 H345 0.929 . S
C334 C330 1.531 . S
C334 H346 0.960 . S
C334 H347 0.962 . S
C334 H348 0.960 . S
C335 C332 1.511 . S
C335 H349 0.961 . S
C335 H350 0.961 . S
C335 H351 0.961 . S
C336 C337 1.370 . S
C336 C338 1.363 . S
C336 H352 0.931 . S
C337 C336 1.370 . S
C337 C341 1.408 . S
C338 C336 1.363 . S
C338 C339 1.370 . S
C338 C342 1.524 . S
C339 C331 1.503 . S
C339 C338 1.370 . S
C339 C340 1.403 . S
C340 C339 1.403 . S
C340 C341 1.404 . S
C340 C343 1.539 . S
C341 C337 1.408 . S
C341 C340 1.404 . S
C341 H353 0.930 . S
C342 C338 1.524 . S
C342 H354 0.956 . S
C342 H355 0.961 . S
C342 H356 0.961 . S
C343 C340 1.539 . S
C343 H357 0.958 . S
C343 H358 0.961 . S
C343 H359 0.960 . S
H344 C328 0.931 . S
H345 C333 0.929 . S
H346 C334 0.960 . S
H347 C334 0.962 . S
H348 C334 0.960 . S
H349 C335 0.961 . S
H350 C335 0.961 . S
H351 C335 0.961 . S
H352 C336 0.931 . S
H353 C341 0.930 . S
H354 C342 0.956 . S
H355 C342 0.961 . S
H356 C342 0.961 . S
H357 C343 0.958 . S
H358 C343 0.961 . S
H359 C343 0.960 . S
C360 C361 1.391 . S
C360 C362 1.394 . S
C360 H376 0.931 . S
C361 C360 1.391 . S
C361 C365 1.376 . S
C362 C360 1.394 . S
C362 C363 1.369 . S
C362 C366 1.531 . S
C363 C362 1.369 . S
C363 C364 1.410 . S
C363 C371 1.503 . S
C364 C363 1.410 . S
C364 C365 1.392 . S
C364 C367 1.511 . S
C365 C361 1.376 . S
C365 C364 1.392 . S
C365 H377 0.929 . S
C366 C362 1.531 . S
C366 H378 0.960 . S
C366 H379 0.962 . S
C366 H380 0.960 . S
C367 C364 1.511 . S
C367 H381 0.961 . S
C367 H382 0.961 . S
C367 H383 0.961 . S
C368 C369 1.370 . S
C368 C370 1.363 . S
C368 H384 0.931 . S
C369 C368 1.370 . S
C369 C373 1.408 . S
C370 C368 1.363 . S
C370 C371 1.370 . S
C370 C374 1.524 . S
C371 C363 1.503 . S
C371 C370 1.370 . S
C371 C372 1.403 . S
C372 C371 1.403 . S
C372 C373 1.404 . S
C372 C375 1.539 . S
C373 C369 1.408 . S
C373 C372 1.404 . S
C373 H385 0.930 . S
C374 C370 1.524 . S
C374 H386 0.956 . S
C374 H387 0.961 . S
C374 H388 0.961 . S
C375 C372 1.539 . S
C375 H389 0.958 . S
C375 H390 0.961 . S
C375 H391 0.960 . S
H376 C360 0.931 . S
H377 C365 0.929 . S
H378 C366 0.960 . S
H379 C366 0.962 . S
H380 C366 0.960 . S
H381 C367 0.961 . S
H382 C367 0.961 . S
H383 C367 0.961 . S
H384 C368 0.931 . S
H385 C373 0.930 . S
H386 C374 0.956 . S
H387 C374 0.961 . S
H388 C374 0.961 . S
H389 C375 0.958 . S
H390 C375 0.961 . S
H391 C375 0.960 . S
C392 C393 1.391 . S
C392 C394 1.394 . S
C392 H408 0.931 . S
C393 C392 1.391 . S
C393 C397 1.376 1_545 S
C394 C392 1.394 . S
C394 C395 1.369 . S
C394 C398 1.531 . S
C395 C394 1.369 . S
C395 C396 1.410 1_545 S
C395 C403 1.503 . S
C396 C395 1.410 1_565 S
C396 C397 1.392 . S
C396 C399 1.511 1_455 S
C397 C393 1.376 1_565 S
C397 C396 1.392 . S
C397 H409 0.929 1_455 S
C398 C394 1.531 . S
C398 H410 0.960 . S
C398 H411 0.962 . S
C398 H412 0.960 . S
C399 C396 1.511 1_655 S
C399 H413 0.961 . S
C399 H414 0.961 . S
C399 H415 0.961 . S
C400 C401 1.370 . S
C400 C402 1.363 . S
C400 H416 0.931 . S
C401 C400 1.370 . S
C401 C405 1.408 1_565 S
C402 C400 1.363 . S
C402 C403 1.370 1_565 S
C402 C406 1.524 . S
C403 C395 1.503 . S
C403 C402 1.370 1_545 S
C403 C404 1.403 . S
C404 C403 1.403 . S
C404 C405 1.404 . S
C404 C407 1.539 1_455 S
C405 C401 1.408 1_545 S
C405 C404 1.404 . S
C405 H417 0.930 . S
C406 C402 1.524 . S
C406 H418 0.956 . S
C406 H419 0.961 . S
C406 H420 0.961 . S
C407 C404 1.539 1_655 S
C407 H421 0.958 1_655 S
C407 H422 0.961 . S
C407 H423 0.960 . S
H408 C392 0.931 . S
H409 C397 0.929 1_655 S
H410 C398 0.960 . S
H411 C398 0.962 . S
H412 C398 0.960 . S
H413 C399 0.961 . S
H414 C399 0.961 . S
H415 C399 0.961 . S
H416 C400 0.931 . S
H417 C405 0.930 . S
H418 C406 0.956 . S
H419 C406 0.961 . S
H420 C406 0.961 . S
H421 C407 0.958 1_455 S
H422 C407 0.961 . S
H423 C407 0.960 . S
C424 C425 1.391 1_655 S
C424 C426 1.394 . S
C424 H440 0.931 . S
C425 C424 1.391 1_455 S
C425 C429 1.376 1_545 S
C426 C424 1.394 . S
C426 C427 1.369 1_655 S
C426 C430 1.531 . S
C427 C426 1.369 1_455 S
C427 C428 1.410 1_545 S
C427 C435 1.503 . S
C428 C427 1.410 1_565 S
C428 C429 1.392 . S
C428 C431 1.511 . S
C429 C425 1.376 1_565 S
C429 C428 1.392 . S
C429 H441 0.929 . S
C430 C426 1.531 . S
C430 H442 0.960 . S
C430 H443 0.962 . S
C430 H444 0.960 . S
C431 C428 1.511 . S
C431 H445 0.961 . S
C431 H446 0.961 . S
C431 H447 0.961 . S
C432 C433 1.370 . S
C432 C434 1.363 . S
C432 H448 0.931 . S
C433 C432 1.370 . S
C433 C437 1.408 1_665 S
C434 C432 1.363 . S
C434 C435 1.370 1_665 S
C434 C438 1.524 . S
C435 C427 1.503 . S
C435 C434 1.370 1_445 S
C435 C436 1.403 . S
C436 C435 1.403 . S
C436 C437 1.404 . S
C436 C439 1.539 . S
C437 C433 1.408 1_445 S
C437 C436 1.404 . S
C437 H449 0.930 . S
C438 C434 1.524 . S
C438 H450 0.956 . S
C438 H451 0.961 . S
C438 H452 0.961 . S
C439 C436 1.539 . S
C439 H453 0.958 . S
C439 H454 0.961 . S
C439 H455 0.960 . S
H440 C424 0.931 . S
H441 C429 0.929 . S
H442 C430 0.960 . S
H443 C430 0.962 . S
H444 C430 0.960 . S
H445 C431 0.961 . S
H446 C431 0.961 . S
H447 C431 0.961 . S
H448 C432 0.931 . S
H449 C437 0.930 . S
H450 C438 0.956 . S
H451 C438 0.961 . S
H452 C438 0.961 . S
H453 C439 0.958 . S
H454 C439 0.961 . S
H455 C439 0.960 . S
C456 C457 1.391 . S
C456 C458 1.394 . S
C456 H472 0.931 . S
C457 C456 1.391 . S
C457 C461 1.376 . S
C458 C456 1.394 . S
C458 C459 1.369 . S
C458 C462 1.531 . S
C459 C458 1.369 . S
C459 C460 1.410 . S
C459 C467 1.503 . S
C460 C459 1.410 . S
C460 C461 1.392 . S
C460 C463 1.511 . S
C461 C457 1.376 . S
C461 C460 1.392 . S
C461 H473 0.929 . S
C462 C458 1.531 . S
C462 H474 0.960 . S
C462 H475 0.962 . S
C462 H476 0.960 . S
C463 C460 1.511 . S
C463 H477 0.961 . S
C463 H478 0.961 . S
C463 H479 0.961 . S
C464 C465 1.370 . S
C464 C466 1.363 . S
C464 H480 0.931 . S
C465 C464 1.370 . S
C465 C469 1.408 . S
C466 C464 1.363 . S
C466 C467 1.370 . S
C466 C470 1.524 . S
C467 C459 1.503 . S
C467 C466 1.370 . S
C467 C468 1.403 . S
C468 C467 1.403 . S
C468 C469 1.404 . S
C468 C471 1.539 . S
C469 C465 1.408 . S
C469 C468 1.404 . S
C469 H481 0.930 . S
C470 C466 1.524 . S
C470 H482 0.956 . S
C470 H483 0.961 . S
C470 H484 0.961 . S
C471 C468 1.539 . S
C471 H485 0.958 . S
C471 H486 0.961 . S
C471 H487 0.960 . S
H472 C456 0.931 . S
H473 C461 0.929 . S
H474 C462 0.960 . S
H475 C462 0.962 . S
H476 C462 0.960 . S
H477 C463 0.961 . S
H478 C463 0.961 . S
H479 C463 0.961 . S
H480 C464 0.931 . S
H481 C469 0.930 . S
H482 C470 0.956 . S
H483 C470 0.961 . S
H484 C470 0.961 . S
H485 C471 0.958 . S
H486 C471 0.961 . S
H487 C471 0.960 . S
C488 C489 1.391 . S
C488 C490 1.394 . S
C488 H504 0.931 . S
C489 C488 1.391 . S
C489 C493 1.376 . S
C490 C488 1.394 . S
C490 C491 1.369 . S
C490 C494 1.531 . S
C491 C490 1.369 . S
C491 C492 1.410 . S
C491 C499 1.503 . S
C492 C491 1.410 . S
C492 C493 1.392 . S
C492 C495 1.511 . S
C493 C489 1.376 . S
C493 C492 1.392 . S
C493 H505 0.929 . S
C494 C490 1.531 . S
C494 H506 0.960 . S
C494 H507 0.962 . S
C494 H508 0.960 . S
C495 C492 1.511 . S
C495 H509 0.961 . S
C495 H510 0.961 . S
C495 H511 0.961 . S
C496 C497 1.370 . S
C496 C498 1.363 . S
C496 H512 0.931 . S
C497 C496 1.370 . S
C497 C501 1.408 . S
C498 C496 1.363 . S
C498 C499 1.370 . S
C498 C502 1.524 . S
C499 C491 1.503 . S
C499 C498 1.370 . S
C499 C500 1.403 . S
C500 C499 1.403 . S
C500 C501 1.404 . S
C500 C503 1.539 . S
C501 C497 1.408 . S
C501 C500 1.404 . S
C501 H513 0.930 . S
C502 C498 1.524 . S
C502 H514 0.956 . S
C502 H515 0.961 . S
C502 H516 0.961 . S
C503 C500 1.539 . S
C503 H517 0.958 . S
C503 H518 0.961 . S
C503 H519 0.960 . S
H504 C488 0.931 . S
H505 C493 0.929 . S
H506 C494 0.960 . S
H507 C494 0.962 . S
H508 C494 0.960 . S
H509 C495 0.961 . S
H510 C495 0.961 . S
H511 C495 0.961 . S
H512 C496 0.931 . S
H513 C501 0.930 . S
H514 C502 0.956 . S
H515 C502 0.961 . S
H516 C502 0.961 . S
H517 C503 0.958 . S
H518 C503 0.961 . S
H519 C503 0.960 . S
C145 C123 1.525 . S
C137 C27 1.534 . S
C169 N6 1.348 . S
C177 C109 1.384 . S
C201 C16 1.445 . S
C209 C128 1.423 1_554 S
C233 N14 1.518 1_556 S
C241 C104 1.500 . S
C265 C57 1.536 . S
C273 C85 1.526 . S
C297 N36 1.353 . S
C305 C71 1.382 . S
C337 C90 1.408 . S
C329 C46 1.451 . S
C369 C66 1.505 . S
C361 N44 1.506 . S
C393 C10 1.524 1_545 S
C401 C62 1.523 . S
C425 C1 1.561 . S
C433 C81 1.558 . S
C465 C100 1.514 . S
C457 C40 1.518 . S
C489 C31 1.560 . S
C497 C119 1.558 . S
