# Generated by pormake.
# Topology zzz, (3,6)-cn, num edge types: 1
# Building blocks:
#     Node 0, Type 0, BuildingBlock: CUQRIR_clean_linker_1, # of connection points: 3
#     Node 1, Type 0, BuildingBlock: CUQRIR_clean_linker_1, # of connection points: 3
#     Node 2, Type 0, BuildingBlock: CUQRIR_clean_linker_1, # of connection points: 3
#     Node 3, Type 0, BuildingBlock: CUQRIR_clean_linker_1, # of connection points: 3
#     Node 4, Type 0, BuildingBlock: CUQRIR_clean_linker_1, # of connection points: 3
#     Node 5, Type 0, BuildingBlock: CUQRIR_clean_linker_1, # of connection points: 3
#     Node 6, Type 0, BuildingBlock: CUQRIR_clean_linker_1, # of connection points: 3
#     Node 7, Type 0, BuildingBlock: CUQRIR_clean_linker_1, # of connection points: 3
#     Node 8, Type 1, BuildingBlock: PAMTUU_clean_sbu_0, # of connection points: 6
#     Node 9, Type 1, BuildingBlock: PAMTUU_clean_sbu_0, # of connection points: 6
#     Node 10, Type 1, BuildingBlock: PAMTUU_clean_sbu_0, # of connection points: 6
#     Node 11, Type 1, BuildingBlock: PAMTUU_clean_sbu_0, # of connection points: 6
#     Edge 12, Type (0, 1), BuildingBlock: MIFKUJ_clean_linker_0, # of connection points: 2
#     Edge 13, Type (0, 1), BuildingBlock: MIFKUJ_clean_linker_0, # of connection points: 2
#     Edge 14, Type (0, 1), BuildingBlock: MIFKUJ_clean_linker_0, # of connection points: 2
#     Edge 15, Type (0, 1), BuildingBlock: MIFKUJ_clean_linker_0, # of connection points: 2
#     Edge 16, Type (0, 1), BuildingBlock: MIFKUJ_clean_linker_0, # of connection points: 2
#     Edge 17, Type (0, 1), BuildingBlock: MIFKUJ_clean_linker_0, # of connection points: 2
#     Edge 18, Type (0, 1), BuildingBlock: MIFKUJ_clean_linker_0, # of connection points: 2
#     Edge 19, Type (0, 1), BuildingBlock: MIFKUJ_clean_linker_0, # of connection points: 2
#     Edge 20, Type (0, 1), BuildingBlock: MIFKUJ_clean_linker_0, # of connection points: 2
#     Edge 21, Type (0, 1), BuildingBlock: MIFKUJ_clean_linker_0, # of connection points: 2
#     Edge 22, Type (0, 1), BuildingBlock: MIFKUJ_clean_linker_0, # of connection points: 2
#     Edge 23, Type (0, 1), BuildingBlock: MIFKUJ_clean_linker_0, # of connection points: 2
#     Edge 24, Type (0, 1), BuildingBlock: MIFKUJ_clean_linker_0, # of connection points: 2
#     Edge 25, Type (0, 1), BuildingBlock: MIFKUJ_clean_linker_0, # of connection points: 2
#     Edge 26, Type (0, 1), BuildingBlock: MIFKUJ_clean_linker_0, # of connection points: 2
#     Edge 27, Type (0, 1), BuildingBlock: MIFKUJ_clean_linker_0, # of connection points: 2
#     Edge 28, Type (0, 1), BuildingBlock: MIFKUJ_clean_linker_0, # of connection points: 2
#     Edge 29, Type (0, 1), BuildingBlock: MIFKUJ_clean_linker_0, # of connection points: 2
#     Edge 30, Type (0, 1), BuildingBlock: MIFKUJ_clean_linker_0, # of connection points: 2
#     Edge 31, Type (0, 1), BuildingBlock: MIFKUJ_clean_linker_0, # of connection points: 2
#     Edge 32, Type (0, 1), BuildingBlock: MIFKUJ_clean_linker_0, # of connection points: 2
#     Edge 33, Type (0, 1), BuildingBlock: MIFKUJ_clean_linker_0, # of connection points: 2
#     Edge 34, Type (0, 1), BuildingBlock: MIFKUJ_clean_linker_0, # of connection points: 2
#     Edge 35, Type (0, 1), BuildingBlock: MIFKUJ_clean_linker_0, # of connection points: 2
# Relax obj value: 0.198
# Max RMSD: 0.207
# Mean RMSD: 0.122
data_MOF--net-zzz--node1-PAMTUU_clean_sbu_0--node2-CUQRIR_clean_linker_1--edge1-MIFKUJ_clean_linker_0
_symmetry_space_group_name_H-M    P1
_symmetry_Int_Tables_number       1
_symmetry_cell_setting            triclinic
loop_
_symmetry_equiv_pos_as_xyz
'x, y, z'
_cell_length_a     62.981402
_cell_length_b     67.075385
_cell_length_c     18.056308
_cell_angle_alpha  99.819096
_cell_angle_beta   90.155159
_cell_angle_gamma 91.679448
loop_
_atom_site_label
_atom_site_type_symbol
_atom_site_fract_x
_atom_site_fract_y
_atom_site_fract_z
_atom_type_partial_charge
C0 C 0.74983 0.50309 0.42212 0.0
N1 N 0.7712 0.50693 0.42635 0.0
N2 N 0.74149 0.50845 0.35875 0.0
C3 C 0.73745 0.49236 0.47507 0.0
C4 C 0.7586 0.51568 0.32523 0.0
N5 N 0.77648 0.51475 0.36586 0.0
C6 C 0.75797 0.52331 0.2516 0.0
H7 H 0.73079 0.47783 0.44382 0.0
H8 H 0.72388 0.50167 0.49751 0.0
H9 H 0.7475 0.48939 0.52234 0.0
H10 H 0.74264 0.53055 0.24464 0.0
H11 H 0.75955 0.5104 0.20478 0.0
H12 H 0.77129 0.53433 0.24825 0.0
C13 C 0.01913 0.73113 0.42786 0.0
N14 N 0.02389 0.75067 0.42225 0.0
N15 N 0.02429 0.71852 0.36353 0.0
C16 C 1.01063 0.72433 0.49737 0.0
C17 C 0.03212 0.73124 0.3186 0.0
N18 N 0.0321 0.75065 0.35451 0.0
C19 C 0.03763 0.72498 0.23697 0.0
H20 H 1.01581 0.73502 0.54848 0.0
H21 H 1.01597 0.70891 0.50121 0.0
H22 H 0.99302 0.72397 0.49492 0.0
H23 H 0.02826 0.71126 0.21128 0.0
H24 H 0.05476 0.72158 0.23245 0.0
H25 H 0.03459 0.7373 0.20475 0.0
C26 C 0.78856 0.99929 0.39785 0.0
N27 N 0.77029 0.00933 0.41518 0.0
N28 N 0.80175 0.00978 0.35749 0.0
C29 C 0.79342 0.97934 0.41973 0.0
C30 C 0.79068 0.02639 0.35055 0.0
N31 N 0.77182 0.0262 0.38604 0.0
C32 C 0.79741 0.04182 0.30281 0.0
H33 H 0.78586 0.97789 0.47408 0.0
H34 H 0.81083 0.97758 0.42365 0.0
H35 H 0.78685 0.96703 0.37605 0.0
H36 H 0.78347 0.0484 0.27925 0.0
H37 H 0.80763 0.03501 0.25582 0.0
H38 H 0.80661 0.05427 0.33828 0.0
C39 C 0.52172 0.76376 0.19039 0.0
N40 N 0.51771 0.74349 0.17437 0.0
N41 N 0.51412 0.77304 0.13489 0.0
C42 C 0.53221 0.77454 0.2614 0.0
C43 C 0.50557 0.75761 0.08427 0.0
N44 N 0.50758 0.73975 0.10853 0.0
C45 C 0.49734 0.75971 0.00765 0.0
H46 H 0.52891 0.76633 0.30873 0.0
H47 H 0.52668 0.79027 0.27589 0.0
H48 H 0.54964 0.77511 0.25293 0.0
H49 H 0.50529 0.77271 0.98726 0.0
H50 H 0.48004 0.76231 0.01118 0.0
H51 H 0.4999 0.74577 0.96622 0.0
C52 C 0.28436 0.50305 0.20362 0.0
N53 N 0.26491 0.51121 0.19943 0.0
N54 N 0.295 0.51195 0.26747 0.0
C55 C 0.29321 0.48712 0.14437 0.0
C56 C 0.28107 0.52553 0.30191 0.0
N57 N 0.26315 0.52523 0.2604 0.0
C58 C 0.28394 0.53761 0.37987 0.0
H59 H 0.2892 0.47201 0.15862 0.0
H60 H 0.31076 0.48887 0.14199 0.0
H61 H 0.28616 0.48784 0.08854 0.0
H62 H 0.2913 0.55261 0.37579 0.0
H63 H 0.29434 0.5298 0.41475 0.0
H64 H 0.26843 0.54015 0.40841 0.0
C65 C 0.03255 0.26677 0.15398 0.0
N66 N 0.03024 0.24691 0.15928 0.0
N67 N 0.03146 0.27848 0.22304 0.0
C68 C 0.0346 0.27478 0.08154 0.0
C69 C 0.02853 0.26496 0.27028 0.0
N70 N 0.02774 0.24583 0.2316 0.0
C71 C 0.02764 0.27046 0.35452 0.0
H72 H 0.02719 0.28974 0.08612 0.0
H73 H 0.02721 0.26406 0.03427 0.0
H74 H 0.05171 0.27672 0.06925 0.0
H75 H 1.01087 0.27283 0.37167 0.0
H76 H 0.03694 0.28468 0.37463 0.0
H77 H 0.03385 0.25815 0.38167 0.0
C78 C 0.26048 0.99352 0.23006 0.0
N79 N 0.27996 0.985 0.22554 0.0
N80 N 0.24774 0.98549 0.2794 0.0
C81 C 0.25413 0.01011 0.18913 0.0
C82 C 0.26029 0.97201 0.30491 0.0
N83 N 0.27953 0.97168 0.27219 0.0
C84 C 0.25395 0.95949 0.36358 0.0
H85 H 0.23678 0.00912 0.17751 0.0
H86 H 0.26293 0.00952 0.1358 0.0
H87 H 0.2579 0.02491 0.22518 0.0
H88 H 0.24553 0.94545 0.33565 0.0
H89 H 0.24311 0.96792 0.40524 0.0
H90 H 0.26796 0.95506 0.39357 0.0
C91 C 0.51732 0.22417 0.40065 0.0
N92 N 0.52026 0.24456 0.4109 0.0
N93 N 0.52536 0.21667 0.45972 0.0
C94 C 0.50653 0.2117 0.33325 0.0
C95 C 0.53323 0.23326 0.50635 0.0
N96 N 0.53005 0.25024 0.47693 0.0
C97 C 0.5437 0.23285 0.58113 0.0
H98 H 0.49259 0.21968 0.31635 0.0
H99 H 0.50144 0.19651 0.34403 0.0
H100 H 0.51781 0.20974 0.28566 0.0
H101 H 0.5524 0.21873 0.58061 0.0
H102 H 0.53126 0.23351 0.6248 0.0
H103 H 0.55494 0.24595 0.59669 0.0
Tb104 Tb 1.00585 0.00202 0.73246 0.0
Tb105 Tb 0.03733 0.99501 0.86857 0.0
C106 C 0.98836 0.99631 0.89077 0.0
C107 C 0.98176 0.02764 0.58974 0.0
C108 C 0.98563 0.06223 0.52036 0.0
C109 C 0.97686 0.0636 0.59242 0.0
C110 C 0.97494 0.04652 0.62673 0.0
C111 C 0.98958 0.02605 0.51622 0.0
C112 C 0.99155 0.0432 0.48193 0.0
C113 C 0.98206 0.01004 0.62926 0.0
O114 O 0.02158 0.0313 0.77114 0.0
O115 O 0.02952 0.02694 0.89149 0.0
O116 O 0.05819 0.00604 0.78697 0.0
O117 O 0.03719 0.99656 0.68223 0.0
O118 O 0.043 0.99669 0.98432 0.0
O119 O 0.06649 0.98517 0.90309 0.0
O120 O 0.03396 0.96612 0.79277 0.0
O121 O 1.00161 0.96996 0.73933 0.0
O122 O 0.98768 0.00712 0.8367 0.0
O123 O 1.00535 0.98606 0.90008 0.0
C124 C 0.0265 0.03866 0.84132 0.0
O125 O 0.9984 0.99849 0.617 0.0
O126 O 0.97729 0.0135 0.70029 0.0
C127 C 0.05588 0.00183 0.71348 0.0
C128 C 0.06151 0.96832 1.00455 0.0
C129 C 0.0634 0.93167 0.06009 0.0
C130 C 0.07691 0.94825 0.08959 0.0
C131 C 0.07599 0.96647 0.06184 0.0
C132 C 0.04802 0.95188 0.97522 0.0
C133 C 0.04899 0.93374 1.00248 0.0
C134 C 0.06064 0.98699 0.97293 0.0
C135 C 1.01684 0.9584 0.7557 0.0
H136 H 0.97171 0.07796 0.62284 0.0
H137 H 0.96859 0.0483 0.68308 0.0
H138 H 0.9948 0.01167 0.48614 0.0
H139 H 0.99847 0.04168 0.42648 0.0
H140 H 0.08799 0.94722 0.13461 0.0
H141 H 0.08655 0.97905 0.08492 0.0
H142 H 0.0368 0.95304 0.93063 0.0
H143 H 0.03856 0.92128 0.97763 0.0
Tb144 Tb 0.51647 0.9835 0.73197 0.0
Tb145 Tb 0.53137 0.01124 0.89109 0.0
C146 C 0.5249 0.96394 0.87634 0.0
C147 C 0.49267 0.94404 0.57902 0.0
C148 C 0.46431 0.91386 0.50473 0.0
C149 C 0.48535 0.91536 0.4797 0.0
C150 C 0.49935 0.93045 0.51627 0.0
C151 C 0.47248 0.94131 0.60879 0.0
C152 C 0.45841 0.92643 0.57188 0.0
C153 C 0.50609 0.96199 0.60773 0.0
O154 O 0.48892 0.98226 0.80475 0.0
O155 O 0.49656 0.01157 0.88734 0.0
O156 O 0.53579 0.03019 0.80565 0.0
O157 O 0.51013 0.0149 0.72409 0.0
O158 O 0.54794 0.01548 0.9937 0.0
O159 O 0.52834 0.03888 0.96421 0.0
O160 O 0.56121 0.00094 0.83634 0.0
O161 O 0.54903 0.99359 0.71452 0.0
O162 O 0.52619 0.96216 0.80291 0.0
O163 O 0.52342 0.98166 0.9197 0.0
C164 C 0.48312 0.99681 0.85875 0.0
O165 O 0.49632 0.97823 0.63787 0.0
O166 O 0.52294 0.9591 0.64595 0.0
C167 C 0.52271 0.03054 0.74938 0.0
C168 C 0.55903 0.04911 0.03642 0.0
C169 C 0.59472 0.07381 0.08762 0.0
C170 C 0.59184 0.06635 0.01043 0.0
C171 C 0.57414 0.05402 0.98501 0.0
C172 C 0.5611 0.05754 0.11259 0.0
C173 C 0.57879 0.06983 0.13811 0.0
C174 C 0.54197 0.03412 0.01223 0.0
C175 C 0.56479 0.99694 0.7634 0.0
H176 H 0.49062 0.90571 0.42924 0.0
H177 H 0.51502 0.93217 0.49317 0.0
H178 H 0.46708 0.95149 0.65781 0.0
H179 H 0.44235 0.92606 0.59284 0.0
H180 H 0.60375 0.06929 0.97018 0.0
H181 H 0.57266 0.04766 0.92581 0.0
H182 H 0.54951 0.05388 0.15285 0.0
H183 H 0.58066 0.07506 0.19801 0.0
Tb184 Tb 0.50395 0.48876 0.86627 0.0
Tb185 Tb 0.53433 0.50811 0.74299 0.0
C186 C 0.48536 0.4979 0.70751 0.0
C187 C 0.48649 0.45144 0.98653 0.0
C188 C 0.49187 0.41548 0.04581 0.0
C189 C 0.4726 0.42574 0.05492 0.0
C190 C 0.46996 0.4435 0.02546 0.0
C191 C 0.50583 0.44143 0.97773 0.0
C192 C 0.50849 0.4236 0.00699 0.0
C193 C 0.48277 0.46917 0.95049 0.0
O194 O 0.52655 0.46645 0.81926 0.0
O195 O 0.53347 0.47549 0.70486 0.0
O196 O 0.55498 0.49961 0.82987 0.0
O197 O 0.53212 0.50211 0.92911 0.0
O198 O 0.54583 0.5105 0.63525 0.0
O199 O 0.56006 0.5282 0.73491 0.0
O200 O 0.51751 0.53344 0.8061 0.0
O201 O 0.49294 0.51935 0.87975 0.0
O202 O 0.4834 0.48939 0.76807 0.0
O203 O 0.50311 0.50683 0.69015 0.0
C204 C 0.53276 0.46194 0.74944 0.0
O205 O 0.48201 0.46539 0.87736 0.0
O206 O 0.49391 0.48569 0.97518 0.0
C207 C 0.55156 0.50166 0.90262 0.0
C208 C 0.56046 0.54335 0.62517 0.0
C209 C 0.56358 0.57816 0.5555 0.0
C210 C 0.57363 0.57795 0.62492 0.0
C211 C 0.57221 0.56071 0.65904 0.0
C212 C 0.55068 0.54344 0.55517 0.0
C213 C 0.55222 0.56063 0.52079 0.0
C214 C 0.55943 0.52507 0.66164 0.0
C215 C 0.50119 0.53467 0.852 0.0
H216 H 0.45935 0.41979 0.08337 0.0
H217 H 0.45483 0.45086 0.03194 0.0
H218 H 0.51876 0.4473 0.94751 0.0
H219 H 0.5236 0.41624 0.99954 0.0
H220 H 0.5826 0.59113 0.65293 0.0
H221 H 0.58027 0.56102 0.71232 0.0
H222 H 0.54172 0.53028 0.52695 0.0
H223 H 0.54402 0.56036 0.46782 0.0
Tb224 Tb 0.02297 0.51622 0.7401 0.0
Tb225 Tb 1.01508 0.48071 0.84045 0.0
C226 C 1.01012 0.52675 0.90877 0.0
C227 C 0.04148 0.55323 0.61402 0.0
C228 C 0.06889 0.57103 0.51973 0.0
C229 C 0.05649 0.58321 0.57274 0.0
C230 C 0.0428 0.57433 0.6193 0.0
C231 C 0.05355 0.54099 0.56025 0.0
C232 C 0.06709 0.54984 0.51325 0.0
C233 C 0.02706 0.54448 0.66428 0.0
O234 O 0.05255 0.51525 0.80452 0.0
O235 O 0.04914 0.48216 0.81879 0.0
O236 O 1.01321 0.46691 0.72287 0.0
O237 O 0.03487 0.48877 0.67168 0.0
O238 O 0.02377 0.46811 0.93455 0.0
O239 O 1.00218 0.45216 0.85087 0.0
O240 O 0.98279 0.49084 0.82426 0.0
O241 O 0.9899 0.50569 0.72082 0.0
O242 O 1.00669 0.53012 0.84046 0.0
O243 O 1.01642 0.50907 0.92082 0.0
C244 C 0.06074 0.49894 0.82334 0.0
O245 O 1.01835 0.52677 0.63871 0.0
O246 O 0.03307 0.54607 0.73418 0.0
C247 C 0.02523 0.47097 0.66792 0.0
C248 C 0.9964 0.44844 0.97726 0.0
C249 C 0.9685 0.44688 0.09731 0.0
C250 C 0.9905 0.44897 0.11044 0.0
C251 C 1.00437 0.44966 0.05069 0.0
C252 C 0.97458 0.44466 0.96353 0.0
C253 C 0.96077 0.44387 0.02303 0.0
C254 C 1.01067 0.45263 0.917 0.0
C255 C 0.9763 0.4985 0.76573 0.0
H256 H 0.05768 0.59956 0.579 0.0
H257 H 0.03343 0.58398 0.66024 0.0
H258 H 0.05277 0.52466 0.55533 0.0
H259 H 0.07685 0.5401 0.47401 0.0
H260 H 0.99684 0.45115 0.16718 0.0
H261 H 0.02121 0.45222 0.06236 0.0
H262 H 0.96795 0.44339 0.90745 0.0
H263 H 0.94387 0.44246 0.01115 0.0
H264 H 0.21476 0.95886 0.27677 0.0
H265 H 0.18106 0.96444 0.34197 0.0
H266 H 0.19735 0.02819 0.3996 0.0
H267 H 0.23204 0.02206 0.3391 0.0
H268 H 0.18211 0.01894 0.51437 0.0
H269 H 0.15478 0.00534 0.26639 0.0
H270 H 0.14847 0.98796 0.13612 0.0
H271 H 0.12306 0.93568 0.21715 0.0
H272 H 0.12949 0.95262 0.34793 0.0
H273 H 0.05702 0.00769 0.56676 0.0
H274 H 0.088 0.00861 0.48583 0.0
H275 H 0.12852 0.99702 0.666 0.0
H276 H 0.09772 0.99739 0.74818 0.0
H277 H 0.11378 0.9845 0.4252 0.0
H278 H 0.17866 0.01271 0.65321 0.0
H279 H 0.18189 0.0358 0.77492 0.0
H280 H 0.12838 0.06855 0.71772 0.0
H281 H 0.12501 0.04584 0.5953 0.0
C282 C 0.21102 0.9741 0.30265 0.0
C283 C 0.22612 0.98998 0.30304 0.0
C284 C 0.19154 0.97738 0.33948 0.0
C285 C 0.18618 0.99684 0.37581 0.0
C286 C 0.20089 0.01298 0.37266 0.0
C287 C 0.22065 0.00957 0.337 0.0
C288 C 0.1661 0.99992 0.4214 0.0
C289 C 0.16718 0.01147 0.49426 0.0
C290 C 0.14619 0.9907 0.39574 0.0
C291 C 0.1428 0.98021 0.31707 0.0
C292 C 0.14805 0.99006 0.25646 0.0
C293 C 0.14441 0.9803 0.18251 0.0
C294 C 0.13542 0.96071 0.16838 0.0
C295 C 0.13006 0.95084 0.22818 0.0
C296 C 0.13368 0.96052 0.30224 0.0
C297 C 0.07258 0.00555 0.58936 0.0
C298 C 0.07485 0.00265 0.66434 0.0
C299 C 0.09037 0.00599 0.54278 0.0
C300 C 0.11096 0.0032 0.56931 0.0
C301 C 0.11311 0.9999 0.64401 0.0
C302 C 0.09538 0.99997 0.69115 0.0
C303 C 0.12996 0.00315 0.51848 0.0
C304 C 0.12868 0.99211 0.44488 0.0
C305 C 0.14941 0.01358 0.54214 0.0
C306 C 0.15148 0.02744 0.61536 0.0
C307 C 0.16765 0.02489 0.66647 0.0
C308 C 0.16949 0.0379 0.73561 0.0
C309 C 0.15531 0.05359 0.75413 0.0
C310 C 0.13931 0.05635 0.70342 0.0
C311 C 0.13741 0.0434 0.63418 0.0
H312 H 0.15675 0.06363 0.80771 0.0
H313 H 0.13254 0.95321 0.1111 0.0
H314 H 0.558 0.19199 0.46634 0.0
H315 H 0.55657 0.15872 0.50565 0.0
H316 H 0.48834 0.16186 0.52356 0.0
H317 H 0.49013 0.19559 0.48745 0.0
H318 H 0.50191 0.14979 0.63992 0.0
H319 H 0.51384 0.12811 0.38153 0.0
H320 H 0.53022 0.12652 0.257 0.0
H321 H 0.58915 0.10932 0.34416 0.0
H322 H 0.57317 0.11097 0.46977 0.0
H323 H 0.49039 0.04346 0.66931 0.0
H324 H 0.49014 0.07401 0.61118 0.0
H325 H 0.5546 0.08878 0.68607 0.0
H326 H 0.55478 0.05867 0.74632 0.0
H327 H 0.54128 0.09017 0.5176 0.0
H328 H 0.52562 0.11454 0.78283 0.0
H329 H 0.50501 0.11339 0.89806 0.0
H330 H 0.44758 0.12276 0.78161 0.0
H331 H 0.46785 0.12366 0.66533 0.0
C332 C 0.54275 0.18537 0.47808 0.0
C333 C 0.52418 0.19618 0.47406 0.0
C334 C 0.54187 0.16632 0.50001 0.0
C335 C 0.52231 0.15754 0.51707 0.0
C336 C 0.50365 0.16822 0.51093 0.0
C337 C 0.5046 0.18738 0.4898 0.0
C338 C 0.52148 0.13788 0.54565 0.0
C339 C 0.51029 0.13673 0.61218 0.0
C340 C 0.53245 0.12067 0.51026 0.0
C341 C 0.54235 0.11987 0.4353 0.0
C342 C 0.53035 0.12416 0.3744 0.0
C343 C 0.53954 0.12319 0.30359 0.0
C344 C 0.56071 0.11784 0.29276 0.0
C345 C 0.57275 0.11343 0.35274 0.0
C346 C 0.56362 0.11436 0.42376 0.0
C347 C 0.50452 0.0532 0.67326 0.0
C348 C 0.52257 0.04871 0.7127 0.0
C349 C 0.50435 0.07061 0.64 0.0
C350 C 0.52238 0.08358 0.64421 0.0
C351 C 0.54057 0.07891 0.68203 0.0
C352 C 0.54059 0.06178 0.71678 0.0
C353 C 0.52199 0.10243 0.61154 0.0
C354 C 0.53292 0.10334 0.54456 0.0
C355 C 0.51032 0.11922 0.64518 0.0
C356 C 0.49821 0.11893 0.71525 0.0
C357 C 0.50857 0.11616 0.78164 0.0
C358 C 0.49696 0.1156 0.84716 0.0
C359 C 0.47499 0.11794 0.8471 0.0
C360 C 0.46459 0.12092 0.78155 0.0
C361 C 0.47614 0.12147 0.71585 0.0
H362 H 0.46602 0.11749 0.89787 0.0
H363 H 0.56773 0.1171 0.23781 0.0
H364 H 0.31274 0.47608 0.28184 0.0
H365 H 0.34648 0.47163 0.34488 0.0
H366 H 0.35775 0.53639 0.38519 0.0
H367 H 0.32533 0.54045 0.31612 0.0
H368 H 0.39281 0.5232 0.37017 0.0
H369 H 0.33588 0.50517 0.52228 0.0
H370 H 0.30369 0.48661 0.55383 0.0
H371 H 0.33662 0.43071 0.51009 0.0
H372 H 0.36894 0.44892 0.47736 0.0
H373 H 0.44324 0.49842 0.74583 0.0
H374 H 0.41233 0.49984 0.66473 0.0
H375 H 0.45355 0.49689 0.4728 0.0
H376 H 0.4845 0.49698 0.55494 0.0
H377 H 0.39253 0.47858 0.56244 0.0
H378 H 0.43348 0.51735 0.33311 0.0
H379 H 0.46293 0.54181 0.323 0.0
H380 H 0.45704 0.56672 0.55716 0.0
H381 H 0.42737 0.54261 0.56839 0.0
C382 C 0.32277 0.48925 0.30234 0.0
C383 C 0.31617 0.50866 0.29472 0.0
C384 C 0.34194 0.48678 0.33992 0.0
C385 C 0.35469 0.50371 0.37283 0.0
C386 C 0.34848 0.52296 0.36147 0.0
C387 C 0.32973 0.52534 0.3223 0.0
C388 C 0.37407 0.50173 0.42059 0.0
C389 C 0.39262 0.51337 0.41202 0.0
C390 C 0.37414 0.48938 0.47723 0.0
C391 C 0.35474 0.47836 0.49651 0.0
C392 C 0.3362 0.4889 0.51888 0.0
C393 C 0.31794 0.47845 0.53703 0.0
C394 C 0.31809 0.45749 0.53373 0.0
C395 C 0.33652 0.44694 0.51244 0.0
C396 C 0.35481 0.45731 0.4941 0.0
C397 C 0.44571 0.49815 0.68632 0.0
C398 C 0.46642 0.49777 0.65716 0.0
C399 C 0.42794 0.49889 0.63961 0.0
C400 C 0.43028 0.49886 0.56194 0.0
C401 C 0.45102 0.49766 0.53248 0.0
C402 C 0.46882 0.49754 0.57957 0.0
C403 C 0.41113 0.50019 0.51243 0.0
C404 C 0.39269 0.48837 0.52047 0.0
C405 C 0.41073 0.51326 0.45824 0.0
C406 C 0.42837 0.528 0.4517 0.0
C407 C 0.43842 0.5281 0.38234 0.0
C408 C 0.45515 0.54189 0.37644 0.0
C409 C 0.4619 0.55576 0.43946 0.0
C410 C 0.45185 0.55592 0.50845 0.0
C411 C 0.43508 0.54219 0.51461 0.0
H412 H 0.47488 0.5664 0.4348 0.0
H413 H 0.30394 0.44942 0.54786 0.0
H414 H 0.06264 0.30516 0.19841 0.0
H415 H 0.06423 0.34182 0.24739 0.0
H416 H 1.00199 0.337 0.34342 0.0
H417 H 1.00042 0.30067 0.29349 0.0
H418 H 1.00612 0.37132 0.28678 0.0
H419 H 0.04753 0.33576 0.44673 0.0
H420 H 0.07634 0.31382 0.47325 0.0
H421 H 0.12256 0.35486 0.40234 0.0
H422 H 0.09395 0.37691 0.37434 0.0
H423 H 0.9974 0.4397 0.62233 0.0
H424 H 1.00108 0.41123 0.52066 0.0
H425 H 0.06094 0.43654 0.45963 0.0
H426 H 0.05729 0.46551 0.56264 0.0
H427 H 0.06294 0.3959 0.4737 0.0
H428 H 0.01887 0.43583 0.3471 0.0
H429 H 0.98844 0.45696 0.33012 0.0
H430 H 0.94541 0.40687 0.34298 0.0
H431 H 0.97539 0.38571 0.36323 0.0
C432 C 0.04921 0.31214 0.2287 0.0
C433 C 0.03147 0.30023 0.24282 0.0
C434 C 0.05014 0.33299 0.25706 0.0
C435 C 0.03332 0.34219 0.29999 0.0
C436 C 1.01517 0.33035 0.3106 0.0
C437 C 1.01429 0.3096 0.28248 0.0
C438 C 0.03488 0.36371 0.33854 0.0
C439 C 1.01853 0.37673 0.32764 0.0
C440 C 0.05142 0.371 0.39034 0.0
C441 C 0.06861 0.35783 0.40751 0.0
C442 C 0.06383 0.34002 0.43624 0.0
C443 C 0.08012 0.32758 0.45162 0.0
C444 C 0.10127 0.33291 0.43926 0.0
C445 C 0.10617 0.35073 0.4117 0.0
C446 C 0.08992 0.3632 0.39605 0.0
C447 C 1.01131 0.4394 0.58703 0.0
C448 C 0.02712 0.45487 0.60091 0.0
C449 C 1.0133 0.42312 0.52839 0.0
C450 C 0.03118 0.42177 0.48189 0.0
C451 C 0.04694 0.43732 0.49457 0.0
C452 C 0.04481 0.45389 0.55317 0.0
C453 C 0.0337 0.4033 0.42403 0.0
C454 C 0.05081 0.39079 0.43136 0.0
C455 C 1.01764 0.39639 0.36971 0.0
C456 C 0.99948 0.40918 0.35733 0.0
C457 C 1.00291 0.42938 0.34728 0.0
C458 C 0.98571 0.44139 0.33724 0.0
C459 C 0.96499 0.43332 0.33622 0.0
C460 C 0.96143 0.41319 0.34462 0.0
C461 C 0.97854 0.40118 0.35545 0.0
H462 H 0.95169 0.44263 0.3288 0.0
H463 H 0.11386 0.32326 0.45123 0.0
H464 H 0.83829 0.03171 0.38276 0.0
H465 H 0.87099 0.02714 0.30913 0.0
H466 H 0.84401 0.97207 0.18055 0.0
H467 H 0.81111 0.97697 0.25407 0.0
H468 H 0.9014 0.00107 0.27878 0.0
H469 H 0.85894 0.96926 0.99546 0.0
H470 H 0.82385 0.97057 0.93551 0.0
H471 H 0.81244 0.02724 0.07836 0.0
H472 H 0.84756 0.02643 0.13814 0.0
H473 H 0.98177 0.97348 1.00289 0.0
H474 H 0.95126 0.97368 0.08704 0.0
H475 H 0.92269 0.01959 0.98219 0.0
H476 H 0.95273 0.01905 0.897 0.0
H477 H 0.89316 0.99477 1.0025 0.0
H478 H 0.94747 0.02944 0.16381 0.0
H479 H 0.9821 0.03518 0.22938 0.0
H480 H 0.96987 0.98347 0.33574 0.0
H481 H 0.93525 0.9773 0.27021 0.0
C482 C 0.8396 0.0184 0.33987 0.0
C483 C 0.82223 0.00465 0.32432 0.0
C484 C 0.85829 0.01578 0.29765 0.0
C485 C 0.86005 0.99939 0.2382 0.0
C486 C 0.84307 0.985 0.2253 0.0
C487 C 0.82435 0.98763 0.26783 0.0
C488 C 0.87898 0.99824 0.18717 0.0
C489 C 0.89958 0.99948 0.21829 0.0
C490 C 0.87683 0.99689 0.10823 0.0
C491 C 0.85577 0.99762 0.07192 0.0
C492 C 0.84896 0.98201 0.01388 0.0
C493 C 0.82907 0.98268 0.97991 0.0
C494 C 0.81589 0.99894 1.00331 0.0
C495 C 0.82262 0.01462 0.06047 0.0
C496 C 0.84251 0.01405 0.09442 0.0
C497 C 0.96899 0.98362 0.99768 0.0
C498 C 0.96983 0.99623 0.94274 0.0
C499 C 0.95153 0.98382 0.04634 0.0
C500 C 0.93453 0.99681 0.04211 0.0
C501 C 0.93539 0.00934 0.98703 0.0
C502 C 0.95272 0.00904 0.93817 0.0
C503 C 0.91573 0.99727 0.09383 0.0
C504 C 0.89509 0.99601 0.06284 0.0
C505 C 0.91788 0.99937 0.17315 0.0
C506 C 0.93889 0.00275 0.21129 0.0
C507 C 0.95227 0.01916 0.20054 0.0
C508 C 0.97187 0.02253 0.23786 0.0
C509 C 0.97822 0.00963 0.28638 0.0
C510 C 0.96496 0.9934 0.29792 0.0
C511 C 0.94534 0.98997 0.26075 0.0
H512 H 0.9934 0.01224 0.31514 0.0
H513 H 0.80049 0.9994 0.97701 0.0
H514 H 0.48168 0.79588 0.10564 0.0
H515 H 0.48413 0.82992 0.0737 0.0
H516 H 0.55153 0.83245 0.11982 0.0
H517 H 0.54912 0.79789 0.1478 0.0
H518 H 0.49446 0.86653 0.13439 0.0
H519 H 0.57748 0.8575 0.99778 0.0
H520 H 0.60039 0.83031 0.937 0.0
H521 H 0.54538 0.79181 0.87308 0.0
H522 H 0.52216 0.81886 0.93247 0.0
H523 H 0.52591 0.96078 0.02629 0.0
H524 H 0.52446 0.92988 0.08148 0.0
H525 H 0.5204 0.8939 0.85951 0.0
H526 H 0.52237 0.92458 0.8041 0.0
H527 H 0.54629 0.87719 0.9375 0.0
H528 H 0.47655 0.90243 0.97863 0.0
H529 H 0.44907 0.927 0.02311 0.0
H530 H 0.47019 0.92951 0.25083 0.0
H531 H 0.49794 0.90503 0.20769 0.0
C532 C 0.49696 0.80382 0.10929 0.0
C533 C 0.51524 0.79422 0.12823 0.0
C534 C 0.49836 0.82332 0.09159 0.0
C535 C 0.51808 0.83373 0.0929 0.0
C536 C 0.53618 0.82464 0.11683 0.0
C537 C 0.5348 0.80499 0.13367 0.0
C538 C 0.51979 0.85336 0.06424 0.0
C539 C 0.50592 0.86892 0.0918 0.0
C540 C 0.53431 0.8564 0.00708 0.0
C541 C 0.54813 0.84012 0.97039 0.0
C542 C 0.57029 0.84325 0.97055 0.0
C543 C 0.58332 0.82787 0.93634 0.0
C544 C 0.57435 0.80932 0.90145 0.0
C545 C 0.55232 0.80615 0.90036 0.0
C546 C 0.53921 0.8215 0.93431 0.0
C547 C 0.52474 0.94629 0.98918 0.0
C548 C 0.52429 0.94524 0.91062 0.0
C549 C 0.5238 0.9286 0.02091 0.0
C550 C 0.52211 0.90945 0.97486 0.0
C551 C 0.52176 0.90842 0.89646 0.0
C552 C 0.52286 0.92605 0.86476 0.0
C553 C 0.521 0.89044 0.00767 0.0
C554 C 0.53501 0.87497 0.98087 0.0
C555 C 0.50606 0.88723 0.06344 0.0
C556 C 0.48952 0.90209 0.08976 0.0
C557 C 0.47547 0.90835 0.03814 0.0
C558 C 0.4598 0.9222 0.06313 0.0
C559 C 0.45791 0.92982 0.13973 0.0
C560 C 0.47167 0.92357 0.19154 0.0
C561 C 0.48737 0.90969 0.16684 0.0
H562 H 0.44577 0.94055 0.15885 0.0
H563 H 0.58447 0.79742 0.87509 0.0
H564 H 0.73146 0.48457 0.22705 0.0
H565 H 0.69772 0.48289 0.15793 0.0
H566 H 0.66996 0.52185 0.34492 0.0
H567 H 0.70413 0.52384 0.41368 0.0
H568 H 0.64158 0.48871 0.27022 0.0
H569 H 0.68655 0.54297 0.2085 0.0
H570 H 0.72018 0.55745 0.16839 0.0
H571 H 0.7167 0.516 0.95909 0.0
H572 H 0.6832 0.50105 0.99845 0.0
H573 H 0.55297 0.51333 0.0568 0.0
H574 H 0.58361 0.51422 0.14126 0.0
H575 H 0.62281 0.4911 0.95226 0.0
H576 H 0.59254 0.4911 0.86764 0.0
H577 H 0.64508 0.5175 0.0349 0.0
H578 H 0.60235 0.46191 0.09149 0.0
H579 H 0.56997 0.44459 0.12835 0.0
H580 H 0.57009 0.48467 0.34093 0.0
H581 H 0.60231 0.50243 0.30488 0.0
C582 C 0.71805 0.49252 0.25381 0.0
C583 C 0.72045 0.50441 0.32561 0.0
C584 C 0.69876 0.49158 0.21426 0.0
C585 C 0.68125 0.50244 0.24557 0.0
C586 C 0.68318 0.51334 0.31936 0.0
C587 C 0.70265 0.5144 0.35886 0.0
C588 C 0.66169 0.50349 0.19877 0.0
C589 C 0.64224 0.49528 0.21935 0.0
C590 C 0.66255 0.51152 0.13112 0.0
C591 C 0.68245 0.52079 0.10669 0.0
C592 C 0.69302 0.53686 0.15411 0.0
C593 C 0.71205 0.54517 0.13148 0.0
C594 C 0.72059 0.53762 0.06132 0.0
C595 C 0.71007 0.52181 0.01347 0.0
C596 C 0.69105 0.51344 0.03587 0.0
C597 C 0.56812 0.50844 0.03319 0.0
C598 C 0.57015 0.50215 0.95508 0.0
C599 C 0.5857 0.5088 0.08183 0.0
C600 C 0.60574 0.50241 0.05405 0.0
C601 C 0.60772 0.49618 0.97592 0.0
C602 C 0.59027 0.49613 0.92726 0.0
C603 C 0.62473 0.50247 0.10541 0.0
C604 C 0.6442 0.51095 0.08577 0.0
C605 C 0.62392 0.49433 0.17317 0.0
C606 C 0.60461 0.48364 0.19515 0.0
C607 C 0.59538 0.46713 0.14588 0.0
C608 C 0.57707 0.45722 0.16665 0.0
C609 C 0.56795 0.46356 0.23685 0.0
C610 C 0.57715 0.4798 0.28651 0.0
C611 C 0.59544 0.48978 0.26596 0.0
H612 H 0.55377 0.45587 0.25283 0.0
H613 H 0.73535 0.54405 0.04396 0.0
H614 H 0.9894 0.69506 0.38073 0.0
H615 H 0.98454 0.65864 0.3348 0.0
H616 H 0.04873 0.65692 0.25072 0.0
H617 H 0.05404 0.69265 0.30314 0.0
H618 H 0.98181 0.64008 0.20735 0.0
H619 H 0.06915 0.61162 0.21287 0.0
H620 H 0.10012 0.61645 0.29855 0.0
H621 H 0.05932 0.63512 0.48608 0.0
H622 H 0.02804 0.63017 0.40179 0.0
H623 H 1.00065 0.56576 0.9012 0.0
H624 H 0.99997 0.59456 1.0026 0.0
H625 H 1.01359 0.55578 0.1633 0.0
H626 H 1.01498 0.52667 0.06072 0.0
H627 H 0.03673 0.58821 0.19671 0.0
H628 H 0.96357 0.57731 0.15631 0.0
H629 H 0.92962 0.57022 0.08725 0.0
H630 H 0.93725 0.62572 1.00042 0.0
H631 H 0.97137 0.63306 0.06834 0.0
C632 C 1.00265 0.68666 0.35492 0.0
C633 C 0.02206 0.6967 0.34512 0.0
C634 C 0.99983 0.66587 0.32775 0.0
C635 C 1.01627 0.65471 0.28917 0.0
C636 C 0.03587 0.66475 0.28168 0.0
C637 C 0.03883 0.68535 0.31055 0.0
C638 C 1.01236 0.63334 0.24984 0.0
C639 C 0.99379 0.62875 0.20602 0.0
C640 C 0.02749 0.61801 0.24942 0.0
C641 C 0.04623 0.62075 0.30072 0.0
C642 C 0.06674 0.61667 0.27241 0.0
C643 C 0.08437 0.61948 0.32072 0.0
C644 C 0.08169 0.6263 0.39753 0.0
C645 C 0.06137 0.63004 0.42643 0.0
C646 C 0.04369 0.62726 0.37838 0.0
C647 C 1.00327 0.56318 0.95807 0.0
C648 C 1.00781 0.54379 0.97256 0.0
C649 C 1.00274 0.57975 0.01639 0.0
C650 C 1.00637 0.57742 0.09118 0.0
C651 C 1.01065 0.55802 0.10621 0.0
C652 C 1.01135 0.54136 0.04749 0.0
C653 C 1.00678 0.59557 0.15207 0.0
C654 C 0.02465 0.59951 0.19963 0.0
C655 C 0.9906 0.60998 0.15858 0.0
C656 C 0.97011 0.60568 0.1172 0.0
C657 C 0.95808 0.58794 0.1221 0.0
C658 C 0.93879 0.5839 0.08323 0.0
C659 C 0.9313 0.5975 0.03937 0.0
C660 C 0.94307 0.6152 0.03443 0.0
C661 C 0.96237 0.61934 0.07326 0.0
H662 H 0.91636 0.59434 0.0093 0.0
H663 H 0.09537 0.62867 0.43469 0.0
H664 H 0.05211 0.21301 0.20982 0.0
H665 H 0.04444 0.18044 0.24979 0.0
H666 H 0.98838 0.20496 0.364 0.0
H667 H 0.9954 0.23706 0.31944 0.0
H668 H 0.04262 0.16958 0.37973 0.0
H669 H 0.95048 0.16774 0.36748 0.0
H670 H 0.92153 0.17986 0.2961 0.0
H671 H 0.96317 0.18125 0.10934 0.0
H672 H 0.99246 0.16914 0.17948 0.0
H673 H 1.00077 0.09921 0.59108 0.0
H674 H 1.00761 0.12959 0.53658 0.0
H675 H 0.98664 0.09751 0.31991 0.0
H676 H 0.97913 0.06723 0.37453 0.0
H677 H 0.97196 0.13453 0.34302 0.0
H678 H 0.04066 0.1065 0.36176 0.0
H679 H 0.06979 0.09251 0.42667 0.0
H680 H 0.07589 0.14807 0.58451 0.0
H681 H 0.04667 0.16233 0.52086 0.0
C682 C 0.0381 0.2113 0.24302 0.0
C683 C 0.02428 0.2274 0.26143 0.0
C684 C 0.03377 0.19278 0.26618 0.0
C685 C 1.01566 0.19011 0.30907 0.0
C686 C 1.0022 0.20647 0.32961 0.0
C687 C 1.00637 0.22489 0.3053 0.0
C688 C 1.01113 0.17036 0.33351 0.0
C689 C 0.02718 0.16191 0.37132 0.0
C690 C 0.99107 0.16013 0.32182 0.0
C691 C 0.9737 0.1676 0.27898 0.0
C692 C 0.95348 0.17058 0.3111 0.0
C693 C 0.93703 0.17751 0.27092 0.0
C694 C 0.94057 0.18139 0.19832 0.0
C695 C 0.96056 0.17835 0.16574 0.0
C696 C 0.9771 0.17149 0.20574 0.0
C697 C 0.99739 0.09867 0.53191 0.0
C698 C 0.98944 0.08077 0.48706 0.0
C699 C 1.00156 0.116 0.50062 0.0
C700 C 0.99813 0.11576 0.42364 0.0
C701 C 0.98974 0.09805 0.37908 0.0
C702 C 0.98554 0.08069 0.41034 0.0
C703 C 1.00333 0.13403 0.39006 0.0
C704 C 0.98741 0.1422 0.35085 0.0
C705 C 0.02361 0.14383 0.39913 0.0
C706 C 0.04142 0.13543 0.43675 0.0
C707 C 0.04817 0.1157 0.41044 0.0
C708 C 0.06471 0.10773 0.44699 0.0
C709 C 0.07467 0.11939 0.50971 0.0
C710 C 0.06817 0.13907 0.53588 0.0
C711 C 0.05166 0.14711 0.49949 0.0
H712 H 0.08744 0.11318 0.538 0.0
H713 H 0.92781 0.18672 0.16724 0.0
H714 H 0.29234 0.93854 0.18046 0.0
H715 H 0.32291 0.91806 0.2005 0.0
H716 H 0.33616 0.95738 0.41197 0.0
H717 H 0.30513 0.97721 0.39255 0.0
H718 H 0.37045 0.95368 0.32924 0.0
H719 H 0.31609 0.90814 0.39969 0.0
H720 H 0.28352 0.88655 0.37875 0.0
H721 H 0.31211 0.85009 0.18857 0.0
H722 H 0.34478 0.87164 0.20787 0.0
H723 H 0.42805 0.89406 0.54343 0.0
H724 H 0.39496 0.89183 0.47193 0.0
H725 H 0.42918 0.90511 0.27898 0.0
H726 H 0.46201 0.90865 0.35078 0.0
H727 H 0.37196 0.87981 0.33195 0.0
H728 H 0.41415 0.94743 0.25102 0.0
H729 H 0.44629 0.96915 0.28415 0.0
H730 H 0.43973 0.96248 0.51539 0.0
H731 H 0.40756 0.94073 0.48334 0.0
C732 C 0.30181 0.9425 0.23126 0.0
C733 C 0.29675 0.95923 0.28516 0.0
C734 C 0.31925 0.93096 0.24257 0.0
C735 C 0.33205 0.93641 0.30705 0.0
C736 C 0.32661 0.953 0.3615 0.0
C737 C 0.30899 0.96426 0.35077 0.0
C738 C 0.35185 0.92577 0.31668 0.0
C739 C 0.3707 0.9375 0.32926 0.0
C740 C 0.3523 0.90464 0.31597 0.0
C741 C 0.33278 0.89159 0.30479 0.0
C742 C 0.31537 0.89559 0.35311 0.0
C743 C 0.29691 0.88335 0.34159 0.0
C744 C 0.29573 0.86698 0.28226 0.0
C745 C 0.31304 0.86279 0.23445 0.0
C746 C 0.33154 0.87499 0.24569 0.0
C747 C 0.42869 0.89584 0.48498 0.0
C748 C 0.4475 0.90276 0.45444 0.0
C749 C 0.40975 0.89422 0.44373 0.0
C750 C 0.40961 0.89911 0.37129 0.0
C751 C 0.42898 0.90167 0.33549 0.0
C752 C 0.44785 0.9037 0.37707 0.0
C753 C 0.39026 0.90782 0.34515 0.0
C754 C 0.37161 0.89587 0.32991 0.0
C755 C 0.38974 0.92888 0.34456 0.0
C756 C 0.40856 0.94249 0.36472 0.0
C757 C 0.41951 0.95074 0.3089 0.0
C758 C 0.43776 0.96297 0.32746 0.0
C759 C 0.44509 0.96713 0.40181 0.0
C760 C 0.43409 0.95918 0.45781 0.0
C761 C 0.41586 0.94691 0.43949 0.0
H762 H 0.45926 0.97654 0.41604 0.0
H763 H 0.28142 0.85753 0.27342 0.0
H764 H 0.55108 0.27832 0.412 0.0
H765 H 0.55504 0.31436 0.46135 0.0
H766 H 0.52779 0.30443 0.67155 0.0
H767 H 0.52077 0.26893 0.61748 0.0
H768 H 0.51275 0.33499 0.65018 0.0
H769 H 0.58581 0.31783 0.63259 0.0
H770 H 0.61813 0.30274 0.57305 0.0
H771 H 0.61491 0.34087 0.40525 0.0
H772 H 0.58244 0.35604 0.46326 0.0
H773 H 0.54065 0.43299 0.83381 0.0
H774 H 0.54553 0.39707 0.79018 0.0
H775 H 0.54354 0.40671 0.56026 0.0
H776 H 0.53855 0.44302 0.60357 0.0
H777 H 0.57499 0.37729 0.59744 0.0
H778 H 0.49953 0.39311 0.62772 0.0
H779 H 0.47044 0.40923 0.70497 0.0
H780 H 0.48289 0.37297 0.87367 0.0
H781 H 0.51231 0.35688 0.79795 0.0
C782 C 0.54581 0.28392 0.46852 0.0
C783 C 0.53548 0.27087 0.51069 0.0
C784 C 0.54849 0.30451 0.49739 0.0
C785 C 0.54219 0.31236 0.57097 0.0
C786 C 0.53279 0.299 0.61452 0.0
C787 C 0.52911 0.27858 0.58418 0.0
C788 C 0.54396 0.33459 0.60026 0.0
C789 C 0.52665 0.34398 0.63965 0.0
C790 C 0.56187 0.3468 0.58632 0.0
C791 C 0.58164 0.338 0.55213 0.0
C792 C 0.59197 0.32296 0.58289 0.0
C793 C 0.61031 0.31439 0.54939 0.0
C794 C 0.61856 0.32083 0.48539 0.0
C795 C 0.60853 0.33593 0.45492 0.0
C796 C 0.59018 0.34454 0.48816 0.0
C797 C 0.54148 0.42761 0.77387 0.0
C798 C 0.53884 0.44084 0.72202 0.0
C799 C 0.54438 0.40706 0.74916 0.0
C800 C 0.54462 0.39926 0.67214 0.0
C801 C 0.54337 0.41252 0.62002 0.0
C802 C 0.54047 0.43322 0.64481 0.0
C803 C 0.544 0.37709 0.64667 0.0
C804 C 0.56138 0.36793 0.60808 0.0
C805 C 0.52658 0.36496 0.6638 0.0
C806 C 0.50817 0.37387 0.70732 0.0
C807 C 0.49608 0.3886 0.68133 0.0
C808 C 0.47956 0.39776 0.72491 0.0
C809 C 0.47487 0.39217 0.79431 0.0
C810 C 0.48658 0.37731 0.82 0.0
C811 C 0.50315 0.36814 0.77671 0.0
H812 H 0.46214 0.39934 0.82813 0.0
H813 H 0.63273 0.31414 0.45943 0.0
H814 H 0.22469 0.50932 0.28154 0.0
H815 H 0.19229 0.5277 0.31718 0.0
H816 H 0.22705 0.58449 0.32531 0.0
H817 H 0.25955 0.5658 0.28731 0.0
H818 H 0.18734 0.55362 0.44894 0.0
H819 H 0.18426 0.61896 0.28102 0.0
H820 H 0.19803 0.62885 0.16431 0.0
H821 H 0.2027 0.56632 0.06502 0.0
H822 H 0.18899 0.55606 0.18127 0.0
H823 H 0.09793 0.60038 0.57703 0.0
H824 H 0.13246 0.60612 0.5224 0.0
H825 H 0.11317 0.56722 0.31651 0.0
H826 H 0.0784 0.56164 0.37047 0.0
H827 H 0.14815 0.59693 0.30134 0.0
H828 H 0.1266 0.54236 0.44306 0.0
H829 H 0.11057 0.53133 0.55456 0.0
H830 H 0.15456 0.57027 0.69808 0.0
H831 H 0.17071 0.58164 0.58725 0.0
C832 C 0.22525 0.5257 0.29015 0.0
C833 C 0.24433 0.53627 0.28181 0.0
C834 C 0.20688 0.53619 0.31066 0.0
C835 C 0.20733 0.55744 0.32371 0.0
C836 C 0.2264 0.5681 0.3149 0.0
C837 C 0.24486 0.55751 0.29397 0.0
C838 C 0.18786 0.56797 0.35081 0.0
C839 C 0.17902 0.56339 0.4172 0.0
C840 C 0.1771 0.58088 0.30979 0.0
C841 C 0.18584 0.58673 0.24015 0.0
C842 C 0.1883 0.60731 0.23435 0.0
C843 C 0.19611 0.61298 0.16834 0.0
C844 C 0.20138 0.59819 0.10748 0.0
C845 C 0.19884 0.57771 0.11254 0.0
C846 C 0.19109 0.57197 0.17851 0.0
C847 C 0.10061 0.59393 0.51875 0.0
C848 C 0.08581 0.58009 0.47853 0.0
C849 C 0.12034 0.5973 0.48753 0.0
C850 C 0.12542 0.58673 0.41623 0.0
C851 C 0.10951 0.57544 0.37177 0.0
C852 C 0.08976 0.57206 0.40295 0.0
C853 C 0.14775 0.58221 0.3983 0.0
C854 C 0.15701 0.58781 0.33413 0.0
C855 C 0.15904 0.57011 0.44087 0.0
C856 C 0.1497 0.56296 0.50721 0.0
C857 C 0.13278 0.5486 0.49847 0.0
C858 C 0.12368 0.5423 0.56147 0.0
C859 C 0.13149 0.55015 0.63337 0.0
C860 C 0.14849 0.56424 0.64237 0.0
C861 C 0.15764 0.5706 0.57952 0.0
H862 H 0.1244 0.54527 0.68209 0.0
H863 H 0.20735 0.6026 0.0563 0.0
H864 H 0.07028 0.75742 0.29476 0.0
H865 H 0.08186 0.78759 0.2428 0.0
H866 H 0.02114 0.8139 0.29645 0.0
H867 H 1.00919 0.7835 0.34601 0.0
H868 H 0.05757 0.8046 0.12183 0.0
H869 H 0.0355 0.86459 0.37445 0.0
H870 H 0.03585 0.87076 0.51303 0.0
H871 H 0.08589 0.82866 0.51319 0.0
H872 H 0.08601 0.82238 0.37456 0.0
H873 H 0.02994 0.90693 0.08536 0.0
H874 H 0.03104 0.87416 0.12643 0.0
H875 H 0.09924 0.87988 0.14518 0.0
H876 H 0.0985 0.91238 0.10007 0.0
H877 H 0.0665 0.87221 0.28219 0.0
H878 H 0.09575 0.8444 0.03381 0.0
H879 H 0.09644 0.8381 0.89506 0.0
H880 H 0.03135 0.8169 0.88785 0.0
H881 H 0.03044 0.82272 0.02663 0.0
C882 C 0.05943 0.76965 0.2949 0.0
C883 C 0.03892 0.76832 0.32446 0.0
C884 C 0.06605 0.78681 0.26576 0.0
C885 C 0.05234 0.80296 0.26713 0.0
C886 C 0.0319 0.80163 0.29653 0.0
C887 C 0.02517 0.7844 0.32465 0.0
C888 C 0.05881 0.82102 0.23528 0.0
C889 C 0.05986 0.81934 0.15692 0.0
C890 C 0.0615 0.84023 0.28112 0.0
C891 C 0.06068 0.84294 0.36419 0.0
C892 C 0.04654 0.8566 0.40409 0.0
C893 C 0.04665 0.86013 0.4826 0.0
C894 C 0.06089 0.85012 0.52178 0.0
C895 C 0.07488 0.8364 0.48262 0.0
C896 C 0.07478 0.83276 0.40409 0.0
C897 C 0.04525 0.90111 0.0968 0.0
C898 C 0.06415 0.91222 0.08878 0.0
C899 C 0.04581 0.88239 0.12024 0.0
C900 C 0.06523 0.87458 0.13746 0.0
C901 C 0.08415 0.88566 0.13102 0.0
C902 C 0.08365 0.90431 0.1063 0.0
C903 C 0.06522 0.85575 0.16905 0.0
C904 C 0.06482 0.85737 0.24732 0.0
C905 C 0.06289 0.83655 0.12322 0.0
C906 C 0.06302 0.83407 0.04027 0.0
C907 C 0.08157 0.83851 1.00253 0.0
C908 C 0.08206 0.83484 0.92398 0.0
C909 C 0.06398 0.82699 0.8827 0.0
C910 C 0.04536 0.82287 0.9199 0.0
C911 C 0.04489 0.82625 0.99845 0.0
H912 H 0.06437 0.82422 0.82188 0.0
H913 H 0.06109 0.85299 0.58245 0.0
H914 H 0.73566 0.01599 0.30998 0.0
H915 H 0.70778 0.0387 0.28555 0.0
H916 H 0.74229 0.08915 0.41696 0.0
H917 H 0.77021 0.06604 0.44262 0.0
H918 H 0.68472 0.07285 0.40797 0.0
H919 H 0.74707 0.10729 0.30606 0.0
H920 H 0.78229 0.104 0.24623 0.0
H921 H 0.75608 0.06018 0.06533 0.0
H922 H 0.72078 0.06305 0.12478 0.0
H923 H 0.60283 0.10605 0.20149 0.0
H924 H 0.6364 0.1137 0.27077 0.0
H925 H 0.66693 0.06851 0.11067 0.0
H926 H 0.63379 0.06092 0.04194 0.0
H927 H 0.69512 0.09715 0.16569 0.0
H928 H 0.63916 0.05618 0.26409 0.0
H929 H 0.60358 0.05131 0.31636 0.0
H930 H 0.61669 0.10061 0.49743 0.0
H931 H 0.65227 0.10593 0.44546 0.0
C932 C 0.73685 0.03178 0.33572 0.0
C933 C 0.75463 0.03934 0.3793 0.0
C934 C 0.72111 0.04474 0.32133 0.0
C935 C 0.72307 0.06551 0.34956 0.0
C936 C 0.7406 0.07313 0.39478 0.0
C937 C 0.75638 0.06004 0.40954 0.0
C938 C 0.70735 0.07889 0.32497 0.0
C939 C 0.68714 0.07918 0.35713 0.0
C940 C 0.71046 0.08643 0.25733 0.0
C941 C 0.73138 0.08535 0.21989 0.0
C942 C 0.74887 0.09694 0.25361 0.0
C943 C 0.76883 0.09514 0.21981 0.0
C944 C 0.77143 0.08187 0.15205 0.0
C945 C 0.75405 0.07046 0.11778 0.0
C946 C 0.73406 0.07219 0.15142 0.0
C947 C 0.61687 0.09819 0.1801 0.0
C948 C 0.61555 0.08261 0.11715 0.0
C949 C 0.63605 0.10264 0.21948 0.0
C950 C 0.65405 0.09138 0.19676 0.0
C951 C 0.65327 0.07743 0.12932 0.0
C952 C 0.63422 0.07308 0.08988 0.0
C953 C 0.6723 0.09094 0.24826 0.0
C954 C 0.69292 0.09258 0.22004 0.0
C955 C 0.66949 0.08485 0.31915 0.0
C956 C 0.6482 0.08162 0.35045 0.0
C957 C 0.63439 0.06604 0.31484 0.0
C958 C 0.61425 0.06319 0.34441 0.0
C959 C 0.60789 0.07564 0.41019 0.0
C960 C 0.62165 0.09098 0.44649 0.0
C961 C 0.64178 0.09394 0.41694 0.0
H962 H 0.59229 0.07342 0.43301 0.0
H963 H 0.7869 0.08045 0.12608 0.0
H964 H 0.46878 0.7272 0.05275 0.0
H965 H 0.4583 0.69305 0.9874 0.0
H966 H 0.52243 0.67384 0.01098 0.0
H967 H 0.53298 0.70809 0.07242 0.0
H968 H 0.50539 0.65853 0.87266 0.0
H969 H 0.48176 0.67208 0.13351 0.0
H970 H 0.45973 0.68718 0.23892 0.0
H971 H 0.40354 0.66115 0.12114 0.0
H972 H 0.42524 0.64599 0.01394 0.0
H973 H 0.50107 0.55862 0.98904 0.0
H974 H 0.491 0.59408 0.01675 0.0
H975 H 0.46868 0.59038 0.78849 0.0
H976 H 0.48009 0.55522 0.75964 0.0
H977 H 0.45506 0.61858 1.00455 0.0
H978 H 0.48477 0.63275 0.73306 0.0
H979 H 0.50058 0.61291 0.61996 0.0
H980 H 0.54054 0.58359 0.75901 0.0
H981 H 0.52522 0.60354 0.87284 0.0
C982 C 0.48059 0.71566 0.04262 0.0
C983 C 0.50157 0.72 0.06816 0.0
C984 C 0.47463 0.69625 0.00557 0.0
C985 C 0.48956 0.6809 0.9949 0.0
C986 C 0.51068 0.68548 0.01848 0.0
C987 C 0.51664 0.70489 0.05447 0.0
C988 C 0.4833 0.65966 0.96423 0.0
C989 C 0.49428 0.64989 0.90151 0.0
C990 C 0.46816 0.64849 0.99997 0.0
C991 C 0.4552 0.65799 0.06473 0.0
C992 C 0.46471 0.66969 0.12921 0.0
C993 C 0.45227 0.67825 0.18963 0.0
C994 C 0.43024 0.67519 0.18668 0.0
C995 C 0.42062 0.66353 0.12331 0.0
C996 C 0.433 0.65493 0.06269 0.0
C997 C 0.49361 0.56533 0.94546 0.0
C998 C 0.49158 0.55451 0.87219 0.0
C999 C 0.48762 0.58551 0.96142 0.0
C1000 C 0.47919 0.59499 0.90463 0.0
C1001 C 0.47533 0.58347 0.833 0.0
C1002 C 0.4819 0.56347 0.81649 0.0
C1003 C 0.47835 0.61744 0.91728 0.0
C1004 C 0.46585 0.62744 0.97545 0.0
C1005 C 0.49194 0.629 0.87764 0.0
C1006 C 0.5038 0.6195 0.81104 0.0
C1007 C 0.49727 0.62238 0.73932 0.0
C1008 C 0.50603 0.61105 0.67522 0.0
C1009 C 0.52134 0.59686 0.68245 0.0
C1010 C 0.5286 0.59454 0.75359 0.0
C1011 C 0.51998 0.60593 0.81791 0.0
H1012 H 0.52739 0.58758 0.63281 0.0
H1013 H 0.42062 0.68181 0.23357 0.0
H1014 H 0.80951 0.53811 0.42952 0.0
H1015 H 0.84716 0.53019 0.40728 0.0
H1016 H 0.82869 0.48359 0.22112 0.0
H1017 H 0.79137 0.49123 0.24428 0.0
H1018 H 0.85135 0.47156 0.35029 0.0
H1019 H 0.85336 0.52085 0.17834 0.0
H1020 H 0.85101 0.55522 0.14811 0.0
H1021 H 0.89948 0.57688 0.31233 0.0
H1022 H 0.90187 0.54267 0.34434 0.0
H1023 H 0.93095 0.42717 0.11805 0.0
H1024 H 0.90164 0.44159 0.19448 0.0
H1025 H 0.94246 0.49217 0.29222 0.0
H1026 H 0.97147 0.47815 0.21418 0.0
H1027 H 0.91152 0.50654 0.24504 0.0
H1028 H 0.91655 0.45558 0.3913 0.0
H1029 H 0.91878 0.42281 0.43403 0.0
H1030 H 0.85856 0.40386 0.32952 0.0
H1031 H 0.85575 0.43678 0.28791 0.0
C1032 C 0.81373 0.52679 0.38209 0.0
C1033 C 0.7978 0.51525 0.33833 0.0
C1034 C 0.83508 0.52222 0.36975 0.0
C1035 C 0.84047 0.5062 0.31314 0.0
C1036 C 0.82468 0.49597 0.26519 0.0
C1037 C 0.80347 0.50052 0.27756 0.0
C1038 C 0.86199 0.49823 0.30861 0.0
C1039 C 0.86465 0.479 0.32701 0.0
C1040 C 0.87937 0.5087 0.28278 0.0
C1041 C 0.87757 0.52929 0.2645 0.0
C1042 C 0.86331 0.533 0.20872 0.0
C1043 C 0.86202 0.55244 0.19107 0.0
C1044 C 0.87503 0.56824 0.22847 0.0
C1045 C 0.88937 0.56464 0.28356 0.0
C1046 C 0.89069 0.54524 0.30147 0.0
C1047 C 0.93381 0.441 0.15796 0.0
C1048 C 0.95339 0.45163 0.15969 0.0
C1049 C 0.91709 0.44918 0.20238 0.0
C1050 C 0.91979 0.46794 0.25035 0.0
C1051 C 0.93997 0.47757 0.25689 0.0
C1052 C 0.95664 0.46947 0.21221 0.0
C1053 C 0.90096 0.47895 0.28263 0.0
C1054 C 0.89867 0.49894 0.27007 0.0
C1055 C 0.88398 0.46917 0.31505 0.0
C1056 C 0.8859 0.44891 0.33728 0.0
C1057 C 0.90374 0.44453 0.37785 0.0
C1058 C 0.90511 0.42587 0.40178 0.0
C1059 C 0.88885 0.41122 0.38435 0.0
C1060 C 0.87114 0.41525 0.3432 0.0
C1061 C 0.86959 0.434 0.31992 0.0
H1062 H 0.88996 0.39674 0.40269 0.0
H1063 H 0.87405 0.58326 0.2146 0.0
H1064 H 0.06106 0.23181 0.06381 0.0
H1065 H 0.06078 0.19741 0.98883 0.0
H1066 H 0.99555 0.18848 0.04983 0.0
H1067 H 0.99586 0.22267 0.12414 0.0
H1068 H 0.02515 0.16169 0.09758 0.0
H1069 H 1.00515 0.18866 0.87807 0.0
H1070 H 1.00888 0.20958 0.77889 0.0
H1071 H 0.06694 0.18058 0.70668 0.0
H1072 H 0.06383 0.15978 0.8066 0.0
H1073 H 0.99998 0.06096 0.93714 0.0
H1074 H 1.00053 0.09771 0.97561 0.0
H1075 H 0.05651 0.1028 0.84154 0.0
H1076 H 0.05472 0.06601 0.79817 0.0
H1077 H 0.03435 0.13239 0.82886 0.0
H1078 H 0.05639 0.10768 0.05444 0.0
H1079 H 0.05328 0.08724 0.15574 0.0
H1080 H 0.9924 0.11227 0.21529 0.0
H1081 H 0.99528 0.13281 0.11544 0.0
C1082 C 0.04646 0.22273 0.05823 0.0
C1083 C 0.02847 0.22972 0.09938 0.0
C1084 C 0.04632 0.2031 0.01589 0.0
C1085 C 0.02815 0.19036 0.01434 0.0
C1086 C 1.0097 0.19805 0.05056 0.0
C1087 C 1.00983 0.21757 0.09242 0.0
C1088 C 0.02909 0.16827 0.98589 0.0
C1089 C 0.02696 0.15526 0.03863 0.0
C1090 C 0.03226 0.15996 0.90949 0.0
C1091 C 0.03443 0.17288 0.85074 0.0
C1092 C 0.01891 0.18697 0.84194 0.0
C1093 C 0.02087 0.19876 0.78535 0.0
C1094 C 0.03818 0.19648 0.73673 0.0
C1095 C 0.05358 0.18239 0.74457 0.0
C1096 C 0.05173 0.17061 0.80123 0.0
C1097 C 1.01239 0.07 0.91615 0.0
C1098 C 0.02744 0.06079 0.86554 0.0
C1099 C 1.01287 0.09102 0.93871 0.0
C1100 C 0.02902 0.10322 0.91379 0.0
C1101 C 0.04397 0.09388 0.86227 0.0
C1102 C 0.04303 0.07287 0.83773 0.0
C1103 C 0.03006 0.12563 0.94058 0.0
C1104 C 0.03271 0.13875 0.88787 0.0
C1105 C 0.02762 0.1342 0.01738 0.0
C1106 C 0.02603 0.12174 0.07751 0.0
C1107 C 0.04237 0.10877 0.08934 0.0
C1108 C 0.04068 0.09721 0.14673 0.0
C1109 C 0.02271 0.09849 0.19242 0.0
C1110 C 1.00644 0.11136 0.18083 0.0
C1111 C 1.00812 0.12303 0.12403 0.0
H1112 H 0.02137 0.08946 0.23656 0.0
H1113 H 0.03962 0.20557 0.6928 0.0
H1114 H 0.28393 0.98035 0.07346 0.0
H1115 H 0.31709 0.98283 1.00254 0.0
H1116 H 0.35186 0.99963 0.21061 0.0
H1117 H 0.31864 0.99843 0.2809 0.0
H1118 H 0.35362 0.02195 0.04075 0.0
H1119 H 0.39408 0.9559 0.14273 0.0
H1120 H 0.38702 0.92185 0.17333 0.0
H1121 H 0.32996 0.91582 0.03992 0.0
H1122 H 0.33709 0.94946 0.00627 0.0
H1123 H 0.46557 0.0239 0.97222 0.0
H1124 H 0.43015 0.02271 0.02649 0.0
H1125 H 0.41482 0.96789 0.87112 0.0
H1126 H 0.45041 0.9688 0.81721 0.0
H1127 H 0.40158 0.96381 0.00531 0.0
H1128 H 0.39425 0.01548 0.85383 0.0
H1129 H 0.40399 0.04726 0.80916 0.0
H1130 H 0.39499 0.08079 0.03099 0.0
H1131 H 0.38546 0.04917 0.07722 0.0
C1132 C 0.29855 0.98518 0.10377 0.0
C1133 C 0.2986 0.98937 0.18283 0.0
C1134 C 0.31756 0.98631 0.06334 0.0
C1135 C 0.33713 0.99105 0.10117 0.0
C1136 C 0.33709 0.99569 0.17999 0.0
C1137 C 0.31808 0.99504 0.22015 0.0
C1138 C 0.35761 0.99143 0.05905 0.0
C1139 C 0.36409 0.00922 0.03297 0.0
C1140 C 0.37139 0.97486 0.04845 0.0
C1141 C 0.36586 0.95544 0.07349 0.0
C1142 C 0.37991 0.94738 0.12058 0.0
C1143 C 0.37601 0.92808 0.13791 0.0
C1144 C 0.35804 0.91672 0.10876 0.0
C1145 C 0.34386 0.92468 0.06258 0.0
C1146 C 0.34778 0.94391 0.04461 0.0
C1147 C 0.45467 0.01162 0.94903 0.0
C1148 C 0.46103 0.99648 0.88982 0.0
C1149 C 0.43426 0.01102 0.98009 0.0
C1150 C 0.41946 0.99535 0.95265 0.0
C1151 C 0.42577 0.9802 0.89355 0.0
C1152 C 0.44621 0.98078 0.86245 0.0
C1153 C 0.39775 0.99436 0.98707 0.0
C1154 C 0.39111 0.97654 0.01265 0.0
C1155 C 0.38384 0.01088 0.99696 0.0
C1156 C 0.3893 0.02993 0.96909 0.0
C1157 C 0.39447 0.02961 0.89317 0.0
C1158 C 0.39994 0.0476 0.86756 0.0
C1159 C 0.40016 0.06602 0.91724 0.0
C1160 C 0.39483 0.0665 0.99258 0.0
C1161 C 0.38937 0.04856 0.0185 0.0
H1162 H 0.40442 0.07993 0.89732 0.0
H1163 H 0.35506 0.90177 0.12217 0.0
H1164 H 0.53227 0.24424 0.26725 0.0
H1165 H 0.52561 0.2704 0.19066 0.0
H1166 H 0.48821 0.3025 0.37008 0.0
H1167 H 0.49403 0.27578 0.44442 0.0
H1168 H 0.47073 0.30582 0.24288 0.0
H1169 H 0.54292 0.31496 0.3387 0.0
H1170 H 0.57971 0.3046 0.35718 0.0
H1171 H 0.58878 0.29334 0.11839 0.0
H1172 H 0.55205 0.30336 0.09878 0.0
H1173 H 0.47806 0.4067 0.18076 0.0
H1174 H 0.4813 0.37513 0.22942 0.0
H1175 H 0.51478 0.34925 0.02956 0.0
H1176 H 0.51162 0.38089 0.98039 0.0
H1177 H 0.5337 0.34036 0.1516 0.0
H1178 H 0.46274 0.33548 0.05649 0.0
H1179 H 0.42646 0.34687 0.03939 0.0
H1180 H 0.4149 0.35065 0.27556 0.0
H1181 H 0.45123 0.33956 0.2943 0.0
C1182 C 0.52212 0.25661 0.28901 0.0
C1183 C 0.51367 0.2581 0.36153 0.0
C1184 C 0.5186 0.27173 0.24591 0.0
C1185 C 0.50682 0.28878 0.27513 0.0
C1186 C 0.49743 0.28963 0.34615 0.0
C1187 C 0.50074 0.2744 0.38869 0.0
C1188 C 0.50482 0.3061 0.23364 0.0
C1189 C 0.48453 0.31345 0.22351 0.0
C1190 C 0.52272 0.31579 0.20594 0.0
C1191 C 0.54472 0.30963 0.21747 0.0
C1192 C 0.55277 0.31009 0.29038 0.0
C1193 C 0.57358 0.30434 0.301 0.0
C1194 C 0.58652 0.29827 0.23905 0.0
C1195 C 0.57872 0.29799 0.16634 0.0
C1196 C 0.55792 0.30371 0.15546 0.0
C1197 C 0.48594 0.39425 0.14669 0.0
C1198 C 0.49441 0.39633 0.07627 0.0
C1199 C 0.48778 0.37617 0.17464 0.0
C1200 C 0.49795 0.35962 0.13266 0.0
C1201 C 0.50678 0.36175 0.06294 0.0
C1202 C 0.50502 0.37989 0.035 0.0
C1203 C 0.49967 0.34032 0.16252 0.0
C1204 C 0.51988 0.33259 0.17025 0.0
C1205 C 0.4817 0.33029 0.18795 0.0
C1206 C 0.45978 0.33683 0.17686 0.0
C1207 C 0.45251 0.33887 0.10488 0.0
C1208 C 0.43193 0.34525 0.09487 0.0
C1209 C 0.4184 0.34952 0.15637 0.0
C1210 C 0.42541 0.34735 0.22798 0.0
C1211 C 0.44599 0.341 0.23831 0.0
H1212 H 0.40247 0.35446 0.14851 0.0
H1213 H 0.60263 0.29384 0.24739 0.0
H1214 H 0.24182 0.47618 0.15704 0.0
H1215 H 0.2084 0.47231 0.08373 0.0
H1216 H 0.21682 0.53337 0.04178 0.0
H1217 H 0.24985 0.53721 0.11559 0.0
H1218 H 0.17792 0.52765 0.09701 0.0
H1219 H 0.22086 0.49176 0.9007 0.0
H1220 H 0.24526 0.46527 0.84543 0.0
H1221 H 0.19989 0.41924 0.88465 0.0
H1222 H 0.17532 0.44547 0.94113 0.0
H1223 H 0.08987 0.53114 0.84944 0.0
H1224 H 0.12547 0.53206 0.90551 0.0
H1225 H 0.11787 0.46904 0.92417 0.0
H1226 H 0.08255 0.46795 0.86732 0.0
H1227 H 0.15633 0.47478 0.88193 0.0
H1228 H 0.11365 0.50939 0.07822 0.0
H1229 H 0.09004 0.53475 0.14699 0.0
H1230 H 0.13498 0.58229 0.11969 0.0
H1231 H 0.15855 0.55727 0.04881 0.0
C1232 C 0.23686 0.48846 0.12975 0.0
C1233 C 0.24861 0.5069 0.14116 0.0
C1234 C 0.21763 0.48635 0.08836 0.0
C1235 C 0.20978 0.50264 0.05725 0.0
C1236 C 0.22221 0.52065 0.06561 0.0
C1237 C 0.24129 0.52275 0.10686 0.0
C1238 C 0.18811 0.50165 0.02069 0.0
C1239 C 0.17339 0.51635 0.04897 0.0
C1240 C 0.18162 0.48636 0.96 0.0
C1241 C 0.19634 0.47059 0.92581 0.0
C1242 C 0.21615 0.47599 0.8981 0.0
C1243 C 0.23 0.46102 0.86644 0.0
C1244 C 0.22416 0.44058 0.86171 0.0
C1245 C 0.20441 0.43508 0.88844 0.0
C1246 C 0.19051 0.44999 0.92021 0.0
C1247 C 0.09579 0.51742 0.865 0.0
C1248 C 0.08312 0.49947 0.85345 0.0
C1249 C 0.1162 0.518 0.89783 0.0
C1250 C 0.12455 0.50069 0.92056 0.0
C1251 C 0.11205 0.48267 0.90757 0.0
C1252 C 0.09169 0.48208 0.87485 0.0
C1253 C 0.1462 0.5012 0.95732 0.0
C1254 C 0.16089 0.48631 0.92944 0.0
C1255 C 0.15262 0.51627 0.01914 0.0
C1256 C 0.13778 0.53145 0.05742 0.0
C1257 C 0.11833 0.52527 0.0857 0.0
C1258 C 0.10497 0.53959 0.12523 0.0
C1259 C 0.11096 0.56012 0.13748 0.0
C1260 C 0.13029 0.56639 0.10991 0.0
C1261 C 0.14364 0.55216 0.06993 0.0
H1262 H 0.10066 0.57116 0.16856 0.0
H1263 H 0.2349 0.42902 0.83718 0.0
H1264 H 0.98716 0.76472 0.4854 0.0
H1265 H 0.98204 0.79828 0.56172 0.0
H1266 H 0.04959 0.81072 0.55776 0.0
H1267 H 0.05453 0.77727 0.48253 0.0
H1268 H 0.03551 0.82733 0.6868 0.0
H1269 H 1.00909 0.82595 0.4268 0.0
H1270 H 0.98446 0.81399 0.31998 0.0
H1271 H 0.93112 0.83027 0.46224 0.0
H1272 H 0.95527 0.84215 0.56953 0.0
H1273 H 0.04918 0.93227 0.72622 0.0
H1274 H 0.04695 0.89577 0.68491 0.0
H1275 H 0.97851 0.89716 0.69245 0.0
H1276 H 0.98074 0.93413 0.72912 0.0
H1277 H 0.9879 0.8725 0.5775 0.0
H1278 H 1.00898 0.87215 0.8333 0.0
H1279 H 0.02941 0.88421 0.94959 0.0
H1280 H 0.08777 0.87228 0.82993 0.0
H1281 H 0.06759 0.85916 0.71376 0.0
C1282 C 1.00087 0.77457 0.50251 0.0
C1283 C 0.02121 0.76859 0.478 0.0
C1284 C 0.99795 0.79384 0.5451 0.0
C1285 C 1.01535 0.80751 0.56322 0.0
C1286 C 0.03582 0.80082 0.54312 0.0
C1287 C 0.0387 0.78164 0.50061 0.0
C1288 C 1.01251 0.82905 0.59955 0.0
C1289 C 0.02514 0.83716 0.66246 0.0
C1290 C 0.99831 0.84195 0.57072 0.0
C1291 C 0.98396 0.83469 0.50609 0.0
C1292 C 0.9921 0.82683 0.43511 0.0
C1293 C 0.97826 0.82011 0.37464 0.0
C1294 C 0.95632 0.82131 0.38448 0.0
C1295 C 0.94812 0.8293 0.45472 0.0
C1296 C 0.96186 0.83603 0.51531 0.0
C1297 C 0.03363 0.92481 0.71937 0.0
C1298 C 1.01513 0.93611 0.73123 0.0
C1299 C 0.03236 0.90381 0.69664 0.0
C1300 C 1.01257 0.89338 0.68781 0.0
C1301 C 0.99402 0.9047 0.69931 0.0
C1302 C 0.99528 0.92585 0.72025 0.0
C1303 C 1.01142 0.87089 0.66292 0.0
C1304 C 0.99803 0.86261 0.60251 0.0
C1305 C 0.02447 0.85772 0.69508 0.0
C1306 C 0.03679 0.86489 0.76487 0.0
C1307 C 0.02617 0.87206 0.83197 0.0
C1308 C 0.03772 0.879 0.89794 0.0
C1309 C 0.05991 0.87923 0.89707 0.0
C1310 C 0.07058 0.8722 0.83042 0.0
C1311 C 0.05909 0.86473 0.76472 0.0
H1312 H 0.06886 0.88464 0.94805 0.0
H1313 H 0.94566 0.81609 0.33759 0.0
H1314 H 0.73686 0.98428 0.36604 0.0
H1315 H 0.70301 0.98144 0.43131 0.0
H1316 H 0.72959 0.01926 0.62935 0.0
H1317 H 0.76263 0.02334 0.56103 0.0
H1318 H 0.68748 0.96781 0.5391 0.0
H1319 H 0.69315 0.04426 0.74031 0.0
H1320 H 0.70961 0.0784 0.74867 0.0
H1321 H 0.71022 0.0715 0.50824 0.0
H1322 H 0.69366 0.03732 0.49799 0.0
H1323 H 0.60218 0.01035 0.83943 0.0
H1324 H 0.63829 0.01073 0.78814 0.0
H1325 H 0.61397 0.98411 0.56913 0.0
H1326 H 0.5781 0.98364 0.61956 0.0
H1327 H 0.65533 0.0297 0.67787 0.0
H1328 H 0.65077 0.95318 0.47485 0.0
H1329 H 0.63287 0.91961 0.46523 0.0
H1330 H 0.62832 0.92761 0.70566 0.0
H1331 H 0.64645 0.96109 0.71678 0.0
C1332 C 0.73542 0.99175 0.42381 0.0
C1333 C 0.75231 0.00399 0.45865 0.0
C1334 C 0.71604 0.9902 0.46133 0.0
C1335 C 0.71316 0.00061 0.53527 0.0
C1336 C 0.73074 0.01168 0.57165 0.0
C1337 C 0.74987 0.01371 0.53324 0.0
C1338 C 0.69179 1.00008 0.57316 0.0
C1339 C 0.68045 0.98147 0.56845 0.0
C1340 C 0.6824 0.01767 0.61375 0.0
C1341 C 0.69237 0.03815 0.61851 0.0
C1342 C 0.69678 0.05003 0.68915 0.0
C1343 C 0.70615 0.06937 0.69415 0.0
C1344 C 0.71105 0.07705 0.62885 0.0
C1345 C 0.70653 0.06543 0.55848 0.0
C1346 C 0.69717 0.04607 0.55304 0.0
C1347 C 0.60452 0.00445 0.78045 0.0
C1348 C 0.58707 0.9969 0.73396 0.0
C1349 C 0.62523 0.00476 0.75102 0.0
C1350 C 0.62908 0.99725 0.67465 0.0
C1351 C 0.61165 0.98972 0.62835 0.0
C1352 C 0.59102 0.98956 0.65745 0.0
C1353 C 0.65111 0.99757 0.64266 0.0
C1354 C 0.66249 0.0161 0.64849 0.0
C1355 C 0.66042 0.97998 0.60248 0.0
C1356 C 0.64979 0.95973 0.59654 0.0
C1357 C 0.64603 0.94774 0.52567 0.0
C1358 C 0.63583 0.92873 0.51996 0.0
C1359 C 0.62941 0.92151 0.58478 0.0
C1360 C 0.63324 0.93325 0.65548 0.0
C1361 C 0.64345 0.95225 0.66151 0.0
H1362 H 0.6215 0.9068 0.58023 0.0
H1363 H 0.7183 0.09203 0.63277 0.0
H1364 H 0.55696 0.73441 0.21522 0.0
H1365 H 0.5666 0.70682 0.28088 0.0
H1366 H 0.50007 0.69113 0.30083 0.0
H1367 H 0.49078 0.71805 0.2313 0.0
H1368 H 0.56313 0.69874 0.40747 0.0
H1369 H 0.4901 0.64861 0.338 0.0
H1370 H 0.46686 0.62853 0.24138 0.0
H1371 H 0.51343 0.63437 0.07254 0.0
H1372 H 0.53701 0.65459 0.16867 0.0
H1373 H 0.5582 0.6174 0.62543 0.0
H1374 H 0.55381 0.64724 0.56616 0.0
H1375 H 0.56544 0.61122 0.34919 0.0
H1376 H 0.56932 0.58131 0.40787 0.0
H1377 H 0.53038 0.62986 0.34627 0.0
H1378 H 0.6007 0.64981 0.43678 0.0
H1379 H 0.62903 0.65804 0.53254 0.0
H1380 H 0.59253 0.7065 0.6496 0.0
H1381 H 0.56383 0.69838 0.55504 0.0
C1382 C 0.5445 0.72507 0.2342 0.0
C1383 C 0.52318 0.72836 0.21886 0.0
C1384 C 0.54994 0.70923 0.27156 0.0
C1385 C 0.53415 0.69643 0.29535 0.0
C1386 C 0.51273 0.70014 0.28136 0.0
C1387 C 0.50734 0.71576 0.2427 0.0
C1388 C 0.54025 0.67974 0.33639 0.0
C1389 C 0.55594 0.68367 0.39349 0.0
C1390 C 0.53099 0.65995 0.32009 0.0
C1391 C 0.51513 0.65328 0.26011 0.0
C1392 C 0.49509 0.64611 0.27985 0.0
C1393 C 0.48204 0.63446 0.2256 0.0
C1394 C 0.4889 0.62986 0.15148 0.0
C1395 C 0.50833 0.63778 0.13042 0.0
C1396 C 0.52146 0.64952 0.18464 0.0
C1397 C 0.56018 0.61591 0.56522 0.0
C1398 C 0.56378 0.59687 0.52119 0.0
C1399 C 0.55778 0.63305 0.53142 0.0
C1400 C 0.5593 0.63157 0.45307 0.0
C1401 C 0.56405 0.61278 0.40969 0.0
C1402 C 0.56618 0.59564 0.44324 0.0
C1403 C 0.5535 0.64871 0.41483 0.0
C1404 C 0.53765 0.64494 0.35952 0.0
C1405 C 0.56278 0.66842 0.43241 0.0
C1406 C 0.58003 0.67336 0.4892 0.0
C1407 C 0.59863 0.66212 0.48327 0.0
C1408 C 0.61478 0.66678 0.53727 0.0
C1409 C 0.61256 0.68275 0.59722 0.0
C1410 C 0.59421 0.69412 0.60318 0.0
C1411 C 0.57801 0.68951 0.54935 0.0
H1412 H 0.62508 0.68634 0.63897 0.0
H1413 H 0.47901 0.62022 0.11069 0.0
H1414 H 0.79622 0.47447 0.40328 0.0
H1415 H 0.82924 0.47044 0.47144 0.0
H1416 H 0.8161 0.52429 0.63004 0.0
H1417 H 0.7831 0.52812 0.56147 0.0
H1418 H 0.86356 0.49447 0.48833 0.0
H1419 H 0.84098 0.52344 0.79804 0.0
H1420 H 0.80997 0.5231 0.88104 0.0
H1421 H 0.78527 0.46901 0.74184 0.0
H1422 H 0.81626 0.46886 0.65863 0.0
H1423 H 0.95695 0.5251 0.69101 0.0
H1424 H 0.92011 0.52485 0.64888 0.0
H1425 H 0.90591 0.4728 0.75291 0.0
H1426 H 0.94293 0.47352 0.79827 0.0
H1427 H 0.87183 0.49755 0.76346 0.0
H1428 H 0.91839 0.46867 0.56889 0.0
H1429 H 0.95183 0.47067 0.49967 0.0
H1430 H 0.92881 0.52085 0.40693 0.0
H1431 H 0.8955 0.51964 0.47763 0.0
C1432 C 0.8 0.48492 0.45454 0.0
C1433 C 0.78676 0.50131 0.4782 0.0
C1434 C 0.81909 0.48284 0.49285 0.0
C1435 C 0.82542 0.49701 0.55644 0.0
C1436 C 0.81164 0.51289 0.58211 0.0
C1437 C 0.79259 0.515 0.54346 0.0
C1438 C 0.84686 0.49588 0.593 0.0
C1439 C 0.86525 0.49501 0.54838 0.0
C1440 C 0.84944 0.49645 0.67155 0.0
C1441 C 0.83086 0.49626 0.72174 0.0
C1442 C 0.82898 0.51142 0.78533 0.0
C1443 C 0.81139 0.51133 0.83239 0.0
C1444 C 0.79563 0.49608 0.8166 0.0
C1445 C 0.79745 0.48086 0.75386 0.0
C1446 C 0.81501 0.48087 0.70668 0.0
C1447 C 0.946 0.51369 0.70584 0.0
C1448 C 0.95311 0.49915 0.74734 0.0
C1449 C 0.92482 0.51356 0.68155 0.0
C1450 C 0.9101 0.49851 0.69581 0.0
C1451 C 0.91684 0.48454 0.74053 0.0
C1452 C 0.93808 0.48491 0.76633 0.0
C1453 C 0.8884 0.4966 0.65898 0.0
C1454 C 0.87006 0.49685 0.70331 0.0
C1455 C 0.88583 0.49519 0.57996 0.0
C1456 C 0.90456 0.49429 0.52973 0.0
C1457 C 0.92047 0.48019 0.53394 0.0
C1458 C 0.93949 0.4813 0.49498 0.0
C1459 C 0.94255 0.49605 0.4498 0.0
C1460 C 0.92647 0.50953 0.44252 0.0
C1461 C 0.9075 0.50866 0.4821 0.0
H1462 H 0.95734 0.49695 0.42007 0.0
H1463 H 0.78202 0.49605 0.85306 0.0
loop_
_geom_bond_atom_site_label_1
_geom_bond_atom_site_label_2
_geom_bond_distance
_geom_bond_site_symmetry_2
_ccdc_geom_bond_type
C0 N1 1.317 . S
C0 N2 1.348 . S
C0 C3 1.485 . S
N1 C0 1.317 . S
N1 N5 1.370 . S
N2 C0 1.348 . S
N2 C4 1.346 . S
C3 C0 1.485 . S
C3 H7 0.960 . S
C3 H8 0.961 . S
C3 H9 0.960 . S
C4 N2 1.346 . S
C4 N5 1.307 . S
C4 C6 1.486 . S
N5 N1 1.370 . S
N5 C4 1.307 . S
C6 C4 1.486 . S
C6 H10 0.960 . S
C6 H11 0.960 . S
C6 H12 0.959 . S
H7 C3 0.960 . S
H8 C3 0.961 . S
H9 C3 0.960 . S
H10 C6 0.960 . S
H11 C6 0.960 . S
H12 C6 0.959 . S
C13 N14 1.317 . S
C13 N15 1.348 . S
C13 C16 1.485 . S
N14 C13 1.317 . S
N14 N18 1.370 . S
N15 C13 1.348 . S
N15 C17 1.346 . S
C16 C13 1.485 . S
C16 H20 0.955 . S
C16 H21 0.961 . S
C16 H22 0.960 . S
C17 N15 1.346 . S
C17 N18 1.307 . S
C17 C19 1.486 . S
N18 N14 1.370 . S
N18 C17 1.307 . S
C19 C17 1.486 . S
C19 H23 0.960 . S
C19 H24 0.945 1_655 S
C19 H25 0.959 . S
H20 C16 0.955 . S
H21 C16 0.961 . S
H22 C16 0.960 . S
H23 C19 0.960 . S
H24 C19 0.945 1_455 S
H25 C19 0.959 . S
C26 N27 1.317 . S
C26 N28 1.356 . S
C26 C29 1.485 . S
N27 C26 1.317 . S
N27 N31 1.373 . S
N28 C26 1.356 . S
N28 C30 1.340 1_565 S
C29 C26 1.485 . S
C29 H33 0.960 1_565 S
C29 H34 0.961 . S
C29 H35 0.960 . S
C30 N28 1.340 1_545 S
C30 N31 1.306 1_545 S
C30 C32 1.478 . S
N31 N27 1.373 . S
N31 C30 1.306 1_565 S
C32 C30 1.478 . S
C32 H36 0.927 1_545 S
C32 H37 0.990 . S
C32 H38 0.971 . S
H33 C29 0.960 1_545 S
H34 C29 0.961 . S
H35 C29 0.960 . S
H36 C32 0.927 1_565 S
H37 C32 0.990 . S
H38 C32 0.971 . S
C39 N40 1.317 . S
C39 N41 1.348 1_554 S
C39 C42 1.485 . S
N40 C39 1.317 . S
N40 N44 1.370 1_554 S
N41 C39 1.348 1_556 S
N41 C43 1.346 . S
C42 C39 1.485 . S
C42 H46 0.960 . S
C42 H47 0.961 . S
C42 H48 0.960 . S
C43 N41 1.346 . S
C43 N44 1.307 . S
C43 C45 1.486 . S
N44 N40 1.370 1_556 S
N44 C43 1.307 . S
C45 C43 1.486 . S
C45 H49 0.960 . S
C45 H50 0.960 . S
C45 H51 0.959 . S
H46 C42 0.960 . S
H47 C42 0.961 . S
H48 C42 0.960 . S
H49 C45 0.960 . S
H50 C45 0.960 . S
H51 C45 0.959 . S
C52 N53 1.317 . S
C52 N54 1.348 . S
C52 C55 1.485 . S
N53 C52 1.317 . S
N53 N57 1.370 . S
N54 C52 1.348 . S
N54 C56 1.346 . S
C55 C52 1.485 . S
C55 H59 0.960 . S
C55 H60 0.961 . S
C55 H61 0.960 . S
C56 N54 1.346 . S
C56 N57 1.307 . S
C56 C58 1.486 . S
N57 N53 1.370 . S
N57 C56 1.307 . S
C58 C56 1.486 . S
C58 H62 0.960 . S
C58 H63 0.960 . S
C58 H64 0.959 . S
H59 C55 0.960 . S
H60 C55 0.961 . S
H61 C55 0.960 . S
H62 C58 0.960 . S
H63 C58 0.960 . S
H64 C58 0.959 . S
C65 N66 1.317 . S
C65 N67 1.348 . S
C65 C68 1.485 . S
N66 C65 1.317 . S
N66 N70 1.370 . S
N67 C65 1.348 . S
N67 C69 1.346 . S
C68 C65 1.485 . S
C68 H72 0.960 . S
C68 H73 0.961 . S
C68 H74 0.960 . S
C69 N67 1.346 . S
C69 N70 1.307 . S
C69 C71 1.486 . S
N70 N66 1.370 . S
N70 C69 1.307 . S
C71 C69 1.486 . S
C71 H75 0.960 . S
C71 H76 0.960 . S
C71 H77 0.959 . S
H72 C68 0.960 . S
H73 C68 0.961 . S
H74 C68 0.960 . S
H75 C71 0.960 . S
H76 C71 0.960 . S
H77 C71 0.959 . S
C78 N79 1.317 . S
C78 N80 1.346 . S
C78 C81 1.485 . S
N79 C78 1.317 . S
N79 N83 1.370 . S
N80 C78 1.346 . S
N80 C82 1.351 1_565 S
C81 C78 1.485 . S
C81 H85 0.960 1_565 S
C81 H86 0.961 . S
C81 H87 0.960 . S
C82 N80 1.351 1_545 S
C82 N83 1.307 1_545 S
C82 C84 1.493 . S
N83 N79 1.370 . S
N83 C82 1.307 1_565 S
C84 C82 1.493 . S
C84 H88 0.911 1_545 S
C84 H89 0.998 . S
C84 H90 0.965 . S
H85 C81 0.960 1_545 S
H86 C81 0.961 . S
H87 C81 0.960 . S
H88 C84 0.911 1_565 S
H89 C84 0.998 . S
H90 C84 0.965 . S
C91 N92 1.317 . S
C91 N93 1.348 . S
C91 C94 1.485 . S
N92 C91 1.317 . S
N92 N96 1.370 . S
N93 C91 1.348 . S
N93 C95 1.346 . S
C94 C91 1.485 . S
C94 H98 0.960 . S
C94 H99 0.961 . S
C94 H100 0.960 . S
C95 N93 1.346 . S
C95 N96 1.307 . S
C95 C97 1.486 . S
N96 N92 1.370 . S
N96 C95 1.307 . S
C97 C95 1.486 . S
C97 H101 0.960 . S
C97 H102 0.960 . S
C97 H103 0.959 . S
H98 C94 0.960 . S
H99 C94 0.961 . S
H100 C94 0.960 . S
H101 C97 0.960 . S
H102 C97 0.960 . S
H103 C97 0.959 . S
Tb104 C113 2.764 . S
Tb104 O114 2.334 . S
Tb104 O117 2.303 1_655 S
Tb104 O121 2.322 1_545 S
Tb104 O122 2.349 . S
Tb104 O125 2.415 1_655 S
Tb104 O126 2.399 . S
Tb105 O115 2.322 1_565 S
Tb105 O116 2.349 . S
Tb105 O118 2.415 . S
Tb105 O119 2.399 . S
Tb105 O120 2.325 . S
Tb105 O123 2.303 1_455 S
Tb105 C134 2.764 . S
C106 O122 1.295 . S
C106 O123 1.245 1_545 S
C107 C110 1.358 . S
C107 C111 1.332 1_655 S
C107 C113 1.504 . S
C108 C109 1.373 . S
C108 C112 1.263 1_655 S
C109 C108 1.373 . S
C109 C110 1.429 . S
C109 H136 0.932 . S
C110 C107 1.358 . S
C110 C109 1.429 . S
C110 H137 0.930 . S
C111 C107 1.332 1_455 S
C111 C112 1.400 . S
C111 H138 0.932 . S
C112 C108 1.263 1_455 S
C112 C111 1.400 . S
C112 H139 0.970 . S
C113 Tb104 2.764 . S
C113 C107 1.504 . S
C113 O125 1.239 1_655 S
C113 O126 1.263 . S
O114 Tb104 2.334 . S
O114 C124 1.214 1_655 S
O115 Tb105 2.322 1_545 S
O115 C124 1.257 . S
O116 Tb105 2.349 . S
O116 C127 1.287 . S
O117 Tb104 2.303 1_455 S
O117 C127 1.247 1_545 S
O118 Tb105 2.415 . S
O118 C134 1.239 . S
O119 Tb105 2.399 . S
O119 C134 1.263 . S
O120 Tb105 2.325 . S
O120 C135 1.236 1_455 S
O121 Tb104 2.322 1_565 S
O121 C135 1.257 . S
O122 Tb104 2.349 . S
O122 C106 1.295 . S
O123 Tb105 2.303 1_655 S
O123 C106 1.245 1_565 S
C124 O114 1.214 1_455 S
C124 O115 1.257 . S
O125 Tb104 2.415 1_455 S
O125 C113 1.239 1_455 S
O126 Tb104 2.399 . S
O126 C113 1.263 . S
C127 O116 1.287 . S
C127 O117 1.247 1_565 S
C128 C131 1.358 . S
C128 C132 1.332 . S
C128 C134 1.504 . S
C129 C130 1.373 . S
C129 C133 1.308 . S
C130 C129 1.373 . S
C130 C131 1.429 1_554 S
C130 H140 0.932 . S
C131 C128 1.358 . S
C131 C130 1.429 1_556 S
C131 H141 0.930 . S
C132 C128 1.332 . S
C132 C133 1.394 1_556 S
C132 H142 0.932 1_455 S
C133 C129 1.308 . S
C133 C132 1.394 1_554 S
C133 H143 0.929 1_455 S
C134 Tb105 2.764 . S
C134 O118 1.239 . S
C134 O119 1.263 . S
C134 C128 1.504 . S
C135 O120 1.236 1_655 S
C135 O121 1.257 . S
H136 C109 0.932 . S
H137 C110 0.930 . S
H138 C111 0.932 . S
H139 C112 0.970 . S
H140 C130 0.932 . S
H141 C131 0.930 . S
H142 C132 0.932 1_655 S
H143 C133 0.929 1_655 S
Tb144 C153 2.764 . S
Tb144 O154 2.325 . S
Tb144 O157 2.303 1_565 S
Tb144 O161 2.322 . S
Tb144 O162 2.349 . S
Tb144 O165 2.415 1_565 S
Tb144 O166 2.399 . S
Tb145 O155 2.322 . S
Tb145 O156 2.349 . S
Tb145 O158 2.415 1_545 S
Tb145 O159 2.399 . S
Tb145 O160 2.325 . S
Tb145 O163 2.303 1_545 S
Tb145 C174 2.764 . S
C146 O162 1.261 . S
C146 O163 1.257 . S
C147 C150 1.358 . S
C147 C151 1.332 1_565 S
C147 C153 1.504 . S
C148 C149 1.373 . S
C148 C152 1.308 1_565 S
C149 C148 1.373 . S
C149 C150 1.429 . S
C149 H176 0.932 . S
C150 C147 1.358 . S
C150 C149 1.429 . S
C150 H177 0.930 . S
C151 C147 1.332 1_545 S
C151 C152 1.394 . S
C151 H178 0.932 . S
C152 C148 1.308 1_545 S
C152 C151 1.394 . S
C152 H179 0.929 . S
C153 Tb144 2.764 . S
C153 C147 1.504 . S
C153 O165 1.239 1_565 S
C153 O166 1.263 . S
O154 Tb144 2.325 . S
O154 C164 1.236 1_565 S
O155 Tb145 2.322 . S
O155 C164 1.257 . S
O156 Tb145 2.349 . S
O156 C167 1.261 . S
O157 Tb144 2.303 1_545 S
O157 C167 1.257 . S
O158 Tb145 2.415 1_565 S
O158 C174 1.239 1_565 S
O159 Tb145 2.399 . S
O159 C174 1.263 . S
O160 Tb145 2.325 . S
O160 C175 1.236 1_545 S
O161 Tb144 2.322 . S
O161 C175 1.257 . S
O162 Tb144 2.349 . S
O162 C146 1.261 . S
O163 Tb145 2.303 1_565 S
O163 C146 1.257 . S
C164 O154 1.236 1_545 S
C164 O155 1.257 . S
O165 Tb144 2.415 1_545 S
O165 C153 1.239 1_545 S
O166 Tb144 2.399 . S
O166 C153 1.263 . S
C167 O156 1.261 . S
C167 O157 1.257 . S
C168 C171 1.358 . S
C168 C172 1.332 1_545 S
C168 C174 1.504 1_554 S
C169 C170 1.373 . S
C169 C173 1.308 1_545 S
C170 C169 1.373 . S
C170 C171 1.429 . S
C170 H180 0.932 . S
C171 C168 1.358 . S
C171 C170 1.429 . S
C171 H181 0.930 . S
C172 C168 1.332 1_565 S
C172 C173 1.394 . S
C172 H182 0.932 1_554 S
C173 C169 1.308 1_565 S
C173 C172 1.394 . S
C173 H183 0.929 . S
C174 Tb145 2.764 . S
C174 O158 1.239 1_545 S
C174 O159 1.263 . S
C174 C168 1.504 1_556 S
C175 O160 1.236 1_565 S
C175 O161 1.257 . S
H176 C149 0.932 . S
H177 C150 0.930 . S
H178 C151 0.932 . S
H179 C152 0.929 . S
H180 C170 0.932 . S
H181 C171 0.930 . S
H182 C172 0.932 1_556 S
H183 C173 0.929 . S
Tb184 C193 2.764 . S
Tb184 O194 2.325 . S
Tb184 O197 2.303 . S
Tb184 O201 2.322 . S
Tb184 O202 2.349 . S
Tb184 O205 2.415 . S
Tb184 O206 2.399 . S
Tb185 O195 2.322 . S
Tb185 O196 2.349 . S
Tb185 O198 2.415 . S
Tb185 O199 2.399 . S
Tb185 O200 2.325 . S
Tb185 O203 2.303 . S
Tb185 C214 2.764 . S
C186 O202 1.261 . S
C186 O203 1.257 . S
C187 C190 1.358 . S
C187 C191 1.332 . S
C187 C193 1.504 1_554 S
C188 C189 1.373 . S
C188 C192 1.308 . S
C189 C188 1.373 . S
C189 C190 1.429 . S
C189 H216 0.932 . S
C190 C187 1.358 . S
C190 C189 1.429 . S
C190 H217 0.930 . S
C191 C187 1.332 . S
C191 C192 1.394 . S
C191 H218 0.932 . S
C192 C188 1.308 . S
C192 C191 1.394 . S
C192 H219 0.929 . S
C193 Tb184 2.764 . S
C193 C187 1.504 1_556 S
C193 O205 1.239 . S
C193 O206 1.263 . S
O194 Tb184 2.325 . S
O194 C204 1.236 . S
O195 Tb185 2.322 . S
O195 C204 1.257 . S
O196 Tb185 2.349 . S
O196 C207 1.261 . S
O197 Tb184 2.303 . S
O197 C207 1.257 . S
O198 Tb185 2.415 . S
O198 C214 1.239 . S
O199 Tb185 2.399 . S
O199 C214 1.263 . S
O200 Tb185 2.325 . S
O200 C215 1.236 . S
O201 Tb184 2.322 . S
O201 C215 1.257 . S
O202 Tb184 2.349 . S
O202 C186 1.261 . S
O203 Tb185 2.303 . S
O203 C186 1.257 . S
C204 O194 1.236 . S
C204 O195 1.257 . S
O205 Tb184 2.415 . S
O205 C193 1.239 . S
O206 Tb184 2.399 . S
O206 C193 1.263 . S
C207 O196 1.261 . S
C207 O197 1.257 . S
C208 C211 1.358 . S
C208 C212 1.332 . S
C208 C214 1.504 . S
C209 C210 1.373 . S
C209 C213 1.308 . S
C210 C209 1.373 . S
C210 C211 1.429 . S
C210 H220 0.932 . S
C211 C208 1.358 . S
C211 C210 1.429 . S
C211 H221 0.930 . S
C212 C208 1.332 . S
C212 C213 1.394 . S
C212 H222 0.932 . S
C213 C209 1.308 . S
C213 C212 1.394 . S
C213 H223 0.929 . S
C214 Tb185 2.764 . S
C214 O198 1.239 . S
C214 O199 1.263 . S
C214 C208 1.504 . S
C215 O200 1.236 . S
C215 O201 1.257 . S
H216 C189 0.932 . S
H217 C190 0.930 . S
H218 C191 0.932 . S
H219 C192 0.929 . S
H220 C210 0.932 . S
H221 C211 0.930 . S
H222 C212 0.932 . S
H223 C213 0.929 . S
Tb224 C233 2.764 . S
Tb224 O234 2.325 . S
Tb224 O237 2.303 . S
Tb224 O241 2.322 1_455 S
Tb224 O242 2.349 . S
Tb224 O245 2.415 . S
Tb224 O246 2.399 . S
Tb225 O235 2.322 1_655 S
Tb225 O236 2.349 . S
Tb225 O238 2.415 . S
Tb225 O239 2.399 . S
Tb225 O240 2.325 . S
Tb225 O243 2.304 1_655 S
Tb225 C254 2.764 . S
C226 O242 1.261 . S
C226 O243 1.257 . S
C227 C230 1.358 . S
C227 C231 1.332 . S
C227 C233 1.504 . S
C228 C229 1.373 . S
C228 C232 1.308 . S
C229 C228 1.373 . S
C229 C230 1.429 . S
C229 H256 0.932 . S
C230 C227 1.358 . S
C230 C229 1.429 . S
C230 H257 0.930 . S
C231 C227 1.332 . S
C231 C232 1.394 . S
C231 H258 0.932 . S
C232 C228 1.308 . S
C232 C231 1.394 . S
C232 H259 0.929 . S
C233 Tb224 2.764 . S
C233 C227 1.504 . S
C233 O245 1.239 . S
C233 O246 1.263 . S
O234 Tb224 2.325 . S
O234 C244 1.236 . S
O235 Tb225 2.322 1_455 S
O235 C244 1.257 . S
O236 Tb225 2.349 . S
O236 C247 1.261 1_655 S
O237 Tb224 2.303 . S
O237 C247 1.257 . S
O238 Tb225 2.415 . S
O238 C254 1.239 . S
O239 Tb225 2.399 . S
O239 C254 1.263 . S
O240 Tb225 2.325 . S
O240 C255 1.236 . S
O241 Tb224 2.322 1_655 S
O241 C255 1.257 . S
O242 Tb224 2.349 . S
O242 C226 1.261 . S
O243 Tb225 2.304 1_455 S
O243 C226 1.257 . S
C244 O234 1.236 . S
C244 O235 1.257 . S
O245 Tb224 2.415 . S
O245 C233 1.239 . S
O246 Tb224 2.399 . S
O246 C233 1.263 . S
C247 O236 1.261 1_455 S
C247 O237 1.257 . S
C248 C251 1.358 . S
C248 C252 1.332 1_556 S
C248 C254 1.504 . S
C249 C250 1.373 . S
C249 C253 1.308 . S
C250 C249 1.373 . S
C250 C251 1.429 1_554 S
C250 H260 0.932 . S
C251 C248 1.358 . S
C251 C250 1.429 1_556 S
C251 H261 0.930 . S
C252 C248 1.332 1_554 S
C252 C253 1.394 . S
C252 H262 0.932 1_554 S
C253 C249 1.308 . S
C253 C252 1.394 . S
C253 H263 0.929 . S
C254 Tb225 2.764 . S
C254 O238 1.239 . S
C254 O239 1.263 . S
C254 C248 1.504 . S
C255 O240 1.236 . S
C255 O241 1.257 . S
H256 C229 0.932 . S
H257 C230 0.930 . S
H258 C231 0.932 . S
H259 C232 0.929 . S
H260 C250 0.932 . S
H261 C251 0.930 . S
H262 C252 0.932 1_556 S
H263 C253 0.929 . S
H264 C282 0.951 . S
H265 C284 0.951 . S
H266 C286 0.950 . S
H267 C287 0.950 . S
H268 C289 0.950 . S
H269 C292 0.950 . S
H270 C293 0.950 . S
H271 C295 0.950 . S
H272 C296 0.950 . S
H273 C297 0.951 . S
H274 C299 0.951 . S
H275 C301 0.950 . S
H276 C302 0.950 . S
H277 C304 0.950 . S
H278 C307 0.950 . S
H279 C308 0.950 . S
H280 C310 0.950 . S
H281 C311 0.950 . S
C282 H264 0.951 . S
C282 C283 1.360 1_565 S
C282 C284 1.388 . S
C283 C282 1.360 1_545 S
C283 C287 1.389 . S
C284 H265 0.951 . S
C284 C282 1.388 . S
C284 C285 1.369 . S
C285 C284 1.369 . S
C285 C286 1.408 1_565 S
C285 C288 1.499 1_565 S
C286 H266 0.950 . S
C286 C285 1.408 1_545 S
C286 C287 1.374 . S
C287 H267 0.950 . S
C287 C283 1.389 . S
C287 C286 1.374 . S
C288 C285 1.499 1_545 S
C288 C289 1.368 . S
C288 C290 1.395 1_545 S
C289 H268 0.950 . S
C289 C288 1.368 . S
C289 C305 1.377 . S
C290 C288 1.395 1_565 S
C290 C291 1.524 . S
C290 C304 1.377 . S
C291 C290 1.524 . S
C291 C292 1.397 . S
C291 C296 1.363 . S
C292 H269 0.950 . S
C292 C291 1.397 . S
C292 C293 1.334 . S
C293 H270 0.950 . S
C293 C292 1.334 . S
C293 C294 1.287 . S
C294 C293 1.287 . S
C294 C295 1.524 . S
C294 H313 0.913 . S
C295 H271 0.950 . S
C295 C294 1.524 . S
C295 C296 1.415 . S
C296 H272 0.950 . S
C296 C291 1.363 . S
C296 C295 1.415 . S
C297 H273 0.951 . S
C297 C298 1.366 . S
C297 C299 1.388 . S
C298 C297 1.366 . S
C298 C302 1.385 1_545 S
C299 H274 0.951 . S
C299 C297 1.388 . S
C299 C300 1.366 . S
C300 C299 1.366 . S
C300 C301 1.414 1_545 S
C300 C303 1.499 . S
C301 H275 0.950 . S
C301 C300 1.414 1_565 S
C301 C302 1.374 . S
C302 H276 0.950 . S
C302 C298 1.385 1_565 S
C302 C301 1.374 . S
C303 C300 1.499 . S
C303 C304 1.373 1_545 S
C303 C305 1.389 . S
C304 H277 0.950 . S
C304 C290 1.377 . S
C304 C303 1.373 1_565 S
C305 C289 1.377 . S
C305 C303 1.389 . S
C305 C306 1.524 . S
C306 C305 1.524 . S
C306 C307 1.397 . S
C306 C311 1.363 . S
C307 H278 0.950 . S
C307 C306 1.397 . S
C307 C308 1.334 . S
C308 H279 0.950 . S
C308 C307 1.334 . S
C308 C309 1.287 . S
C309 C308 1.287 . S
C309 C310 1.524 . S
C309 H312 0.999 . S
C310 H280 0.950 . S
C310 C309 1.524 . S
C310 C311 1.415 . S
C311 H281 0.950 . S
C311 C306 1.363 . S
C311 C310 1.415 . S
H312 C309 0.999 . S
H313 C294 0.913 . S
H314 C332 0.951 . S
H315 C334 0.951 . S
H316 C336 0.950 . S
H317 C337 0.950 . S
H318 C339 0.950 . S
H319 C342 0.950 . S
H320 C343 0.950 . S
H321 C345 0.950 . S
H322 C346 0.950 . S
H323 C347 0.951 . S
H324 C349 0.951 . S
H325 C351 0.950 . S
H326 C352 0.950 . S
H327 C354 0.950 . S
H328 C357 0.950 . S
H329 C358 0.950 . S
H330 C360 0.950 . S
H331 C361 0.950 . S
C332 H314 0.951 . S
C332 C333 1.366 . S
C332 C334 1.388 . S
C333 C332 1.366 . S
C333 C337 1.385 . S
C334 H315 0.951 . S
C334 C332 1.388 . S
C334 C335 1.366 . S
C335 C334 1.366 . S
C335 C336 1.414 . S
C335 C338 1.499 . S
C336 H316 0.950 . S
C336 C335 1.414 . S
C336 C337 1.374 . S
C337 H317 0.950 . S
C337 C333 1.385 . S
C337 C336 1.374 . S
C338 C335 1.499 . S
C338 C339 1.373 . S
C338 C340 1.389 . S
C339 H318 0.950 . S
C339 C338 1.373 . S
C339 C355 1.377 . S
C340 C338 1.389 . S
C340 C341 1.524 . S
C340 C354 1.377 . S
C341 C340 1.524 . S
C341 C342 1.397 . S
C341 C346 1.363 . S
C342 H319 0.950 . S
C342 C341 1.397 . S
C342 C343 1.334 . S
C343 H320 0.950 . S
C343 C342 1.334 . S
C343 C344 1.287 . S
C344 C343 1.287 . S
C344 C345 1.524 . S
C344 H363 0.913 . S
C345 H321 0.950 . S
C345 C344 1.524 . S
C345 C346 1.415 . S
C346 H322 0.950 . S
C346 C341 1.363 . S
C346 C345 1.415 . S
C347 H323 0.951 . S
C347 C348 1.366 . S
C347 C349 1.388 . S
C348 C347 1.366 . S
C348 C352 1.385 . S
C349 H324 0.951 . S
C349 C347 1.388 . S
C349 C350 1.366 . S
C350 C349 1.366 . S
C350 C351 1.414 . S
C350 C353 1.499 . S
C351 H325 0.950 . S
C351 C350 1.414 . S
C351 C352 1.374 . S
C352 H326 0.950 . S
C352 C348 1.385 . S
C352 C351 1.374 . S
C353 C350 1.499 . S
C353 C354 1.373 . S
C353 C355 1.389 . S
C354 H327 0.950 . S
C354 C340 1.377 . S
C354 C353 1.373 . S
C355 C339 1.377 . S
C355 C353 1.389 . S
C355 C356 1.524 . S
C356 C355 1.524 . S
C356 C357 1.397 . S
C356 C361 1.363 . S
C357 H328 0.950 . S
C357 C356 1.397 . S
C357 C358 1.334 . S
C358 H329 0.950 . S
C358 C357 1.334 . S
C358 C359 1.287 . S
C359 C358 1.287 . S
C359 C360 1.524 . S
C359 H362 0.999 . S
C360 H330 0.950 . S
C360 C359 1.524 . S
C360 C361 1.415 . S
C361 H331 0.950 . S
C361 C356 1.363 . S
C361 C360 1.415 . S
H362 C359 0.999 . S
H363 C344 0.913 . S
H364 C382 0.951 . S
H365 C384 0.951 . S
H366 C386 0.950 . S
H367 C387 0.950 . S
H368 C389 0.950 . S
H369 C392 0.950 . S
H370 C393 0.950 . S
H371 C395 0.950 . S
H372 C396 0.950 . S
H373 C397 0.951 . S
H374 C399 0.951 . S
H375 C401 0.950 . S
H376 C402 0.950 . S
H377 C404 0.950 . S
H378 C407 0.950 . S
H379 C408 0.950 . S
H380 C410 0.950 . S
H381 C411 0.950 . S
C382 H364 0.951 . S
C382 C383 1.366 . S
C382 C384 1.388 . S
C383 C382 1.366 . S
C383 C387 1.385 . S
C384 H365 0.951 . S
C384 C382 1.388 . S
C384 C385 1.366 . S
C385 C384 1.366 . S
C385 C386 1.414 . S
C385 C388 1.499 . S
C386 H366 0.950 . S
C386 C385 1.414 . S
C386 C387 1.374 . S
C387 H367 0.950 . S
C387 C383 1.385 . S
C387 C386 1.374 . S
C388 C385 1.499 . S
C388 C389 1.373 . S
C388 C390 1.389 . S
C389 H368 0.950 . S
C389 C388 1.373 . S
C389 C405 1.377 . S
C390 C388 1.389 . S
C390 C391 1.524 . S
C390 C404 1.377 . S
C391 C390 1.524 . S
C391 C392 1.397 . S
C391 C396 1.363 . S
C392 H369 0.950 . S
C392 C391 1.397 . S
C392 C393 1.334 . S
C393 H370 0.950 . S
C393 C392 1.334 . S
C393 C394 1.287 . S
C394 C393 1.287 . S
C394 C395 1.524 . S
C394 H413 0.913 . S
C395 H371 0.950 . S
C395 C394 1.524 . S
C395 C396 1.415 . S
C396 H372 0.950 . S
C396 C391 1.363 . S
C396 C395 1.415 . S
C397 H373 0.951 . S
C397 C398 1.366 . S
C397 C399 1.388 . S
C398 C397 1.366 . S
C398 C402 1.385 . S
C399 H374 0.951 . S
C399 C397 1.388 . S
C399 C400 1.366 . S
C400 C399 1.366 . S
C400 C401 1.414 . S
C400 C403 1.499 . S
C401 H375 0.950 . S
C401 C400 1.414 . S
C401 C402 1.374 . S
C402 H376 0.950 . S
C402 C398 1.385 . S
C402 C401 1.374 . S
C403 C400 1.499 . S
C403 C404 1.373 . S
C403 C405 1.389 . S
C404 H377 0.950 . S
C404 C390 1.377 . S
C404 C403 1.373 . S
C405 C389 1.377 . S
C405 C403 1.389 . S
C405 C406 1.524 . S
C406 C405 1.524 . S
C406 C407 1.397 . S
C406 C411 1.363 . S
C407 H378 0.950 . S
C407 C406 1.397 . S
C407 C408 1.334 . S
C408 H379 0.950 . S
C408 C407 1.334 . S
C408 C409 1.287 . S
C409 C408 1.287 . S
C409 C410 1.524 . S
C409 H412 0.999 . S
C410 H380 0.950 . S
C410 C409 1.524 . S
C410 C411 1.415 . S
C411 H381 0.950 . S
C411 C406 1.363 . S
C411 C410 1.415 . S
H412 C409 0.999 . S
H413 C394 0.913 . S
H414 C432 0.951 . S
H415 C434 0.951 . S
H416 C436 0.959 . S
H417 C437 0.950 1_655 S
H418 C439 0.950 . S
H419 C442 0.950 . S
H420 C443 0.950 . S
H421 C445 0.950 . S
H422 C446 0.950 . S
H423 C447 0.951 . S
H424 C449 0.951 . S
H425 C451 0.950 . S
H426 C452 0.950 . S
H427 C454 0.950 . S
H428 C457 0.950 . S
H429 C458 0.950 . S
H430 C460 0.950 . S
H431 C461 0.950 . S
C432 H414 0.951 . S
C432 C433 1.366 . S
C432 C434 1.388 . S
C433 C432 1.366 . S
C433 C437 1.385 . S
C434 H415 0.951 . S
C434 C432 1.388 . S
C434 C435 1.366 . S
C435 C434 1.366 . S
C435 C436 1.407 1_455 S
C435 C438 1.499 . S
C436 H416 0.959 . S
C436 C435 1.407 1_655 S
C436 C437 1.373 1_655 S
C437 H417 0.950 1_455 S
C437 C433 1.385 . S
C437 C436 1.373 1_455 S
C438 C435 1.499 . S
C438 C439 1.373 1_455 S
C438 C440 1.389 . S
C439 H418 0.950 . S
C439 C438 1.373 1_655 S
C439 C455 1.377 . S
C440 C438 1.389 . S
C440 C441 1.524 . S
C440 C454 1.377 . S
C441 C440 1.524 . S
C441 C442 1.397 . S
C441 C446 1.363 . S
C442 H419 0.950 . S
C442 C441 1.397 . S
C442 C443 1.334 . S
C443 H420 0.950 . S
C443 C442 1.334 . S
C443 C444 1.287 . S
C444 C443 1.287 . S
C444 C445 1.524 . S
C444 H463 0.913 . S
C445 H421 0.950 . S
C445 C444 1.524 . S
C445 C446 1.415 . S
C446 H422 0.950 . S
C446 C441 1.363 . S
C446 C445 1.415 . S
C447 H423 0.951 . S
C447 C448 1.366 1_655 S
C447 C449 1.388 . S
C448 C447 1.366 1_455 S
C448 C452 1.385 . S
C449 H424 0.951 . S
C449 C447 1.388 . S
C449 C450 1.366 1_655 S
C450 C449 1.366 1_455 S
C450 C451 1.414 . S
C450 C453 1.499 . S
C451 H425 0.950 . S
C451 C450 1.414 . S
C451 C452 1.374 . S
C452 H426 0.950 . S
C452 C448 1.385 . S
C452 C451 1.374 . S
C453 C450 1.499 . S
C453 C454 1.373 . S
C453 C455 1.389 1_455 S
C454 H427 0.950 . S
C454 C440 1.377 . S
C454 C453 1.373 . S
C455 C439 1.377 . S
C455 C453 1.389 1_655 S
C455 C456 1.524 . S
C456 C455 1.524 . S
C456 C457 1.397 . S
C456 C461 1.363 . S
C457 H428 0.950 . S
C457 C456 1.397 . S
C457 C458 1.334 . S
C458 H429 0.950 . S
C458 C457 1.334 . S
C458 C459 1.287 . S
C459 C458 1.287 . S
C459 C460 1.524 . S
C459 H462 0.999 . S
C460 H430 0.950 . S
C460 C459 1.524 . S
C460 C461 1.415 . S
C461 H431 0.950 . S
C461 C456 1.363 . S
C461 C460 1.415 . S
H462 C459 0.999 . S
H463 C444 0.913 . S
H464 C482 0.951 . S
H465 C484 0.951 . S
H466 C486 0.950 . S
H467 C487 0.950 . S
H468 C489 0.950 . S
H469 C492 0.950 . S
H470 C493 0.950 . S
H471 C495 0.950 . S
H472 C496 0.950 . S
H473 C497 0.951 . S
H474 C499 0.951 . S
H475 C501 0.950 . S
H476 C502 0.950 . S
H477 C504 0.950 . S
H478 C507 0.950 . S
H479 C508 0.950 . S
H480 C510 0.950 . S
H481 C511 0.950 . S
C482 H464 0.951 . S
C482 C483 1.366 1_545 S
C482 C484 1.388 . S
C483 C482 1.366 1_565 S
C483 C487 1.384 . S
C484 H465 0.951 . S
C484 C482 1.388 . S
C484 C485 1.344 1_545 S
C485 C484 1.344 1_565 S
C485 C486 1.438 . S
C485 C488 1.497 . S
C486 H466 0.950 . S
C486 C485 1.438 . S
C486 C487 1.374 . S
C487 H467 0.950 . S
C487 C483 1.384 . S
C487 C486 1.374 . S
C488 C485 1.497 . S
C488 C489 1.373 . S
C488 C490 1.389 1_565 S
C489 H468 0.950 . S
C489 C488 1.373 . S
C489 C505 1.377 . S
C490 C488 1.389 1_545 S
C490 C491 1.524 . S
C490 C504 1.377 . S
C491 C490 1.524 . S
C491 C492 1.397 . S
C491 C496 1.363 . S
C492 H469 0.950 . S
C492 C491 1.397 . S
C492 C493 1.334 . S
C493 H470 0.950 . S
C493 C492 1.334 . S
C493 C494 1.287 . S
C494 C493 1.287 . S
C494 C495 1.524 . S
C494 H513 0.913 . S
C495 H471 0.950 . S
C495 C494 1.524 . S
C495 C496 1.415 . S
C496 H472 0.950 . S
C496 C491 1.363 . S
C496 C495 1.415 . S
C497 H473 0.951 . S
C497 C498 1.366 . S
C497 C499 1.388 . S
C498 C497 1.366 . S
C498 C502 1.385 1_565 S
C499 H474 0.951 . S
C499 C497 1.388 . S
C499 C500 1.366 1_556 S
C500 C499 1.366 1_554 S
C500 C501 1.414 1_565 S
C500 C503 1.497 . S
C501 H475 0.950 . S
C501 C500 1.414 1_545 S
C501 C502 1.374 1_554 S
C502 H476 0.950 . S
C502 C498 1.385 1_545 S
C502 C501 1.374 1_556 S
C503 C500 1.497 . S
C503 C504 1.350 1_565 S
C503 C505 1.416 . S
C504 H477 0.950 . S
C504 C490 1.377 . S
C504 C503 1.350 1_545 S
C505 C489 1.377 . S
C505 C503 1.416 . S
C505 C506 1.524 . S
C506 C505 1.524 . S
C506 C507 1.397 . S
C506 C511 1.363 . S
C507 H478 0.950 . S
C507 C506 1.397 . S
C507 C508 1.334 . S
C508 H479 0.950 . S
C508 C507 1.334 . S
C508 C509 1.287 . S
C509 C508 1.287 . S
C509 C510 1.524 . S
C509 H512 0.999 . S
C510 H480 0.950 . S
C510 C509 1.524 . S
C510 C511 1.415 . S
C511 H481 0.950 . S
C511 C506 1.363 . S
C511 C510 1.415 . S
H512 C509 0.999 . S
H513 C494 0.913 . S
H514 C532 0.951 . S
H515 C534 0.951 . S
H516 C536 0.950 1_554 S
H517 C537 0.950 . S
H518 C539 0.950 1_554 S
H519 C542 0.950 . S
H520 C543 0.950 . S
H521 C545 0.950 . S
H522 C546 0.950 . S
H523 C547 0.951 . S
H524 C549 0.951 . S
H525 C551 0.950 . S
H526 C552 0.950 . S
H527 C554 0.950 . S
H528 C557 0.950 1_556 S
H529 C558 0.950 . S
H530 C560 0.950 . S
H531 C561 0.950 . S
C532 H514 0.951 . S
C532 C533 1.366 . S
C532 C534 1.388 . S
C533 C532 1.366 . S
C533 C537 1.385 1_556 S
C534 H515 0.951 . S
C534 C532 1.388 . S
C534 C535 1.366 . S
C535 C534 1.366 . S
C535 C536 1.414 . S
C535 C538 1.499 . S
C536 H516 0.950 1_556 S
C536 C535 1.414 . S
C536 C537 1.374 1_556 S
C537 H517 0.950 . S
C537 C533 1.385 1_554 S
C537 C536 1.374 1_554 S
C538 C535 1.499 . S
C538 C539 1.373 . S
C538 C540 1.389 . S
C539 H518 0.950 1_556 S
C539 C538 1.373 . S
C539 C555 1.377 . S
C540 C538 1.389 . S
C540 C541 1.524 . S
C540 C554 1.377 . S
C541 C540 1.524 . S
C541 C542 1.397 . S
C541 C546 1.363 . S
C542 H519 0.950 . S
C542 C541 1.397 . S
C542 C543 1.334 . S
C543 H520 0.950 . S
C543 C542 1.334 . S
C543 C544 1.287 . S
C544 C543 1.287 . S
C544 C545 1.524 . S
C544 H563 0.913 . S
C545 H521 0.950 . S
C545 C544 1.524 . S
C545 C546 1.415 . S
C546 H522 0.950 . S
C546 C541 1.363 . S
C546 C545 1.415 . S
C547 H523 0.951 . S
C547 C548 1.366 . S
C547 C549 1.388 . S
C548 C547 1.366 . S
C548 C552 1.385 . S
C549 H524 0.951 . S
C549 C547 1.388 . S
C549 C550 1.366 . S
C550 C549 1.366 . S
C550 C551 1.414 . S
C550 C553 1.499 . S
C551 H525 0.950 . S
C551 C550 1.414 . S
C551 C552 1.374 . S
C552 H526 0.950 . S
C552 C548 1.385 . S
C552 C551 1.374 . S
C553 C550 1.499 . S
C553 C554 1.373 . S
C553 C555 1.389 . S
C554 H527 0.950 . S
C554 C540 1.377 . S
C554 C553 1.373 . S
C555 C539 1.377 . S
C555 C553 1.389 . S
C555 C556 1.524 1_556 S
C556 C555 1.524 1_554 S
C556 C557 1.397 . S
C556 C561 1.363 . S
C557 H528 0.950 1_554 S
C557 C556 1.397 . S
C557 C558 1.334 . S
C558 H529 0.950 . S
C558 C557 1.334 . S
C558 C559 1.287 . S
C559 C558 1.287 . S
C559 C560 1.524 . S
C559 H562 0.999 . S
C560 H530 0.950 . S
C560 C559 1.524 . S
C560 C561 1.415 . S
C561 H531 0.950 . S
C561 C556 1.363 . S
C561 C560 1.415 . S
H562 C559 0.999 . S
H563 C544 0.913 . S
H564 C582 0.951 . S
H565 C584 0.951 . S
H566 C586 0.950 . S
H567 C587 0.950 . S
H568 C589 0.950 . S
H569 C592 0.950 . S
H570 C593 0.950 . S
H571 C595 0.950 . S
H572 C596 0.950 . S
H573 C597 0.951 1_554 S
H574 C599 0.951 . S
H575 C601 0.950 . S
H576 C602 0.950 . S
H577 C604 0.950 . S
H578 C607 0.950 . S
H579 C608 0.950 . S
H580 C610 0.950 . S
H581 C611 0.950 . S
C582 H564 0.951 . S
C582 C583 1.366 . S
C582 C584 1.388 . S
C583 C582 1.366 . S
C583 C587 1.385 . S
C584 H565 0.951 . S
C584 C582 1.388 . S
C584 C585 1.366 . S
C585 C584 1.366 . S
C585 C586 1.414 . S
C585 C588 1.499 . S
C586 H566 0.950 . S
C586 C585 1.414 . S
C586 C587 1.374 . S
C587 H567 0.950 . S
C587 C583 1.385 . S
C587 C586 1.374 . S
C588 C585 1.499 . S
C588 C589 1.373 . S
C588 C590 1.389 . S
C589 H568 0.950 . S
C589 C588 1.373 . S
C589 C605 1.377 . S
C590 C588 1.389 . S
C590 C591 1.524 . S
C590 C604 1.377 . S
C591 C590 1.524 . S
C591 C592 1.397 . S
C591 C596 1.363 . S
C592 H569 0.950 . S
C592 C591 1.397 . S
C592 C593 1.334 . S
C593 H570 0.950 . S
C593 C592 1.334 . S
C593 C594 1.287 . S
C594 C593 1.287 . S
C594 C595 1.524 . S
C594 H613 0.913 . S
C595 H571 0.950 . S
C595 C594 1.524 . S
C595 C596 1.415 . S
C596 H572 0.950 . S
C596 C591 1.363 . S
C596 C595 1.415 . S
C597 H573 0.951 1_556 S
C597 C598 1.366 . S
C597 C599 1.388 1_556 S
C598 C597 1.366 . S
C598 C602 1.385 . S
C599 H574 0.951 . S
C599 C597 1.388 1_554 S
C599 C600 1.366 . S
C600 C599 1.366 . S
C600 C601 1.414 1_554 S
C600 C603 1.499 . S
C601 H575 0.950 . S
C601 C600 1.414 1_556 S
C601 C602 1.374 . S
C602 H576 0.950 . S
C602 C598 1.385 . S
C602 C601 1.374 . S
C603 C600 1.499 . S
C603 C604 1.373 . S
C603 C605 1.389 . S
C604 H577 0.950 . S
C604 C590 1.377 . S
C604 C603 1.373 . S
C605 C589 1.377 . S
C605 C603 1.389 . S
C605 C606 1.524 . S
C606 C605 1.524 . S
C606 C607 1.397 . S
C606 C611 1.363 . S
C607 H578 0.950 . S
C607 C606 1.397 . S
C607 C608 1.334 . S
C608 H579 0.950 . S
C608 C607 1.334 . S
C608 C609 1.287 . S
C609 C608 1.287 . S
C609 C610 1.524 . S
C609 H612 0.999 . S
C610 H580 0.950 . S
C610 C609 1.524 . S
C610 C611 1.415 . S
C611 H581 0.950 . S
C611 C606 1.363 . S
C611 C610 1.415 . S
H612 C609 0.999 . S
H613 C594 0.913 . S
H614 C632 0.951 . S
H615 C634 0.951 . S
H616 C636 0.950 1_455 S
H617 C637 0.950 . S
H618 C639 0.950 . S
H619 C642 0.950 . S
H620 C643 0.950 . S
H621 C645 0.950 . S
H622 C646 0.950 . S
H623 C647 0.951 . S
H624 C649 0.951 . S
H625 C651 0.950 . S
H626 C652 0.950 . S
H627 C654 0.950 . S
H628 C657 0.950 . S
H629 C658 0.950 . S
H630 C660 0.950 . S
H631 C661 0.950 . S
C632 H614 0.951 . S
C632 C633 1.366 . S
C632 C634 1.388 . S
C633 C632 1.366 . S
C633 C637 1.385 . S
C634 H615 0.951 . S
C634 C632 1.388 . S
C634 C635 1.366 . S
C635 C634 1.366 . S
C635 C636 1.414 . S
C635 C638 1.499 . S
C636 H616 0.950 1_655 S
C636 C635 1.414 . S
C636 C637 1.374 . S
C637 H617 0.950 . S
C637 C633 1.385 . S
C637 C636 1.374 . S
C638 C635 1.499 . S
C638 C639 1.373 . S
C638 C640 1.389 1_655 S
C639 H618 0.950 . S
C639 C638 1.373 . S
C639 C655 1.377 . S
C640 C638 1.389 1_455 S
C640 C641 1.524 . S
C640 C654 1.377 . S
C641 C640 1.524 . S
C641 C642 1.397 . S
C641 C646 1.363 . S
C642 H619 0.950 . S
C642 C641 1.397 . S
C642 C643 1.334 . S
C643 H620 0.950 . S
C643 C642 1.334 . S
C643 C644 1.287 . S
C644 C643 1.287 . S
C644 C645 1.524 . S
C644 H663 0.913 . S
C645 H621 0.950 . S
C645 C644 1.524 . S
C645 C646 1.415 . S
C646 H622 0.950 . S
C646 C641 1.363 . S
C646 C645 1.415 . S
C647 H623 0.951 . S
C647 C648 1.367 1_455 S
C647 C649 1.388 . S
C648 C647 1.367 1_655 S
C648 C652 1.383 . S
C649 H624 0.951 . S
C649 C647 1.388 . S
C649 C650 1.366 1_456 S
C650 C649 1.366 1_654 S
C650 C651 1.414 . S
C650 C653 1.499 . S
C651 H625 0.950 . S
C651 C650 1.414 . S
C651 C652 1.374 1_554 S
C652 H626 0.950 . S
C652 C648 1.383 . S
C652 C651 1.374 1_556 S
C653 C650 1.499 . S
C653 C654 1.373 1_655 S
C653 C655 1.389 . S
C654 H627 0.950 . S
C654 C640 1.377 . S
C654 C653 1.373 1_455 S
C655 C639 1.377 . S
C655 C653 1.389 . S
C655 C656 1.524 1_554 S
C656 C655 1.524 1_556 S
C656 C657 1.397 . S
C656 C661 1.363 . S
C657 H628 0.950 . S
C657 C656 1.397 . S
C657 C658 1.334 . S
C658 H629 0.950 . S
C658 C657 1.334 . S
C658 C659 1.287 . S
C659 C658 1.287 . S
C659 C660 1.524 . S
C659 H662 0.999 . S
C660 H630 0.950 . S
C660 C659 1.524 . S
C660 C661 1.415 . S
C661 H631 0.950 . S
C661 C656 1.363 . S
C661 C660 1.415 . S
H662 C659 0.999 . S
H663 C644 0.913 . S
H664 C682 0.951 . S
H665 C684 0.951 . S
H666 C686 0.950 . S
H667 C687 0.950 . S
H668 C689 0.950 . S
H669 C692 0.950 . S
H670 C693 0.950 . S
H671 C695 0.950 . S
H672 C696 0.950 . S
H673 C697 0.951 . S
H674 C699 0.951 . S
H675 C701 0.950 . S
H676 C702 0.950 . S
H677 C704 0.950 . S
H678 C707 0.950 . S
H679 C708 0.950 . S
H680 C710 0.950 . S
H681 C711 0.950 . S
C682 H664 0.951 . S
C682 C683 1.366 . S
C682 C684 1.388 . S
C683 C682 1.366 . S
C683 C687 1.385 . S
C684 H665 0.951 . S
C684 C682 1.388 . S
C684 C685 1.366 . S
C685 C684 1.366 . S
C685 C686 1.414 . S
C685 C688 1.499 . S
C686 H666 0.950 . S
C686 C685 1.414 . S
C686 C687 1.374 . S
C687 H667 0.950 . S
C687 C683 1.385 . S
C687 C686 1.374 . S
C688 C685 1.499 . S
C688 C689 1.373 . S
C688 C690 1.389 1_455 S
C689 H668 0.950 . S
C689 C688 1.373 . S
C689 C705 1.377 . S
C690 C688 1.389 1_655 S
C690 C691 1.524 . S
C690 C704 1.377 . S
C691 C690 1.524 . S
C691 C692 1.397 . S
C691 C696 1.363 . S
C692 H669 0.950 . S
C692 C691 1.397 . S
C692 C693 1.334 . S
C693 H670 0.950 . S
C693 C692 1.334 . S
C693 C694 1.287 . S
C694 C693 1.287 . S
C694 C695 1.524 . S
C694 H713 0.913 . S
C695 H671 0.950 . S
C695 C694 1.524 . S
C695 C696 1.415 . S
C696 H672 0.950 . S
C696 C691 1.363 . S
C696 C695 1.415 . S
C697 H673 0.951 . S
C697 C698 1.366 . S
C697 C699 1.388 . S
C698 C697 1.366 . S
C698 C702 1.385 . S
C699 H674 0.951 . S
C699 C697 1.388 . S
C699 C700 1.366 . S
C700 C699 1.366 . S
C700 C701 1.414 . S
C700 C703 1.499 . S
C701 H675 0.950 . S
C701 C700 1.414 . S
C701 C702 1.374 . S
C702 H676 0.950 . S
C702 C698 1.385 . S
C702 C701 1.374 . S
C703 C700 1.499 . S
C703 C704 1.373 . S
C703 C705 1.389 1_655 S
C704 H677 0.950 . S
C704 C690 1.377 . S
C704 C703 1.373 . S
C705 C689 1.377 . S
C705 C703 1.389 1_455 S
C705 C706 1.524 . S
C706 C705 1.524 . S
C706 C707 1.397 . S
C706 C711 1.363 . S
C707 H678 0.950 . S
C707 C706 1.397 . S
C707 C708 1.334 . S
C708 H679 0.950 . S
C708 C707 1.334 . S
C708 C709 1.287 . S
C709 C708 1.287 . S
C709 C710 1.524 . S
C709 H712 0.999 . S
C710 H680 0.950 . S
C710 C709 1.524 . S
C710 C711 1.415 . S
C711 H681 0.950 . S
C711 C706 1.363 . S
C711 C710 1.415 . S
H712 C709 0.999 . S
H713 C694 0.913 . S
H714 C732 0.951 . S
H715 C734 0.951 . S
H716 C736 0.950 . S
H717 C737 0.950 . S
H718 C739 0.950 . S
H719 C742 0.950 . S
H720 C743 0.950 . S
H721 C745 0.950 . S
H722 C746 0.950 . S
H723 C747 0.951 . S
H724 C749 0.944 1_545 S
H725 C751 0.950 . S
H726 C752 0.950 . S
H727 C754 0.950 . S
H728 C757 0.950 . S
H729 C758 0.950 . S
H730 C760 0.950 . S
H731 C761 0.950 . S
C732 H714 0.951 . S
C732 C733 1.366 1_565 S
C732 C734 1.388 . S
C733 C732 1.366 1_545 S
C733 C737 1.385 . S
C734 H715 0.951 . S
C734 C732 1.388 . S
C734 C735 1.366 . S
C735 C734 1.366 . S
C735 C736 1.414 1_565 S
C735 C738 1.499 . S
C736 H716 0.950 . S
C736 C735 1.414 1_545 S
C736 C737 1.374 . S
C737 H717 0.950 . S
C737 C733 1.385 . S
C737 C736 1.374 . S
C738 C735 1.499 . S
C738 C739 1.373 1_565 S
C738 C740 1.389 . S
C739 H718 0.950 . S
C739 C738 1.373 1_545 S
C739 C755 1.377 . S
C740 C738 1.389 . S
C740 C741 1.524 . S
C740 C754 1.377 . S
C741 C740 1.524 . S
C741 C742 1.397 . S
C741 C746 1.363 . S
C742 H719 0.950 . S
C742 C741 1.397 . S
C742 C743 1.334 . S
C743 H720 0.950 . S
C743 C742 1.334 . S
C743 C744 1.287 . S
C744 C743 1.287 . S
C744 C745 1.524 . S
C744 H763 0.913 . S
C745 H721 0.950 . S
C745 C744 1.524 . S
C745 C746 1.415 . S
C746 H722 0.950 . S
C746 C741 1.363 . S
C746 C745 1.415 . S
C747 H723 0.951 . S
C747 C748 1.366 . S
C747 C749 1.388 . S
C748 C747 1.366 . S
C748 C752 1.385 . S
C749 H724 0.944 1_565 S
C749 C747 1.388 . S
C749 C750 1.366 . S
C750 C749 1.366 . S
C750 C751 1.414 . S
C750 C753 1.499 . S
C751 H725 0.950 . S
C751 C750 1.414 . S
C751 C752 1.374 . S
C752 H726 0.950 . S
C752 C748 1.385 . S
C752 C751 1.374 . S
C753 C750 1.499 . S
C753 C754 1.373 . S
C753 C755 1.389 1_565 S
C754 H727 0.950 . S
C754 C740 1.377 . S
C754 C753 1.373 . S
C755 C739 1.377 . S
C755 C753 1.389 1_545 S
C755 C756 1.524 . S
C756 C755 1.524 . S
C756 C757 1.397 . S
C756 C761 1.363 . S
C757 H728 0.950 . S
C757 C756 1.397 . S
C757 C758 1.334 . S
C758 H729 0.950 . S
C758 C757 1.334 . S
C758 C759 1.287 . S
C759 C758 1.287 . S
C759 C760 1.524 . S
C759 H762 0.999 . S
C760 H730 0.950 . S
C760 C759 1.524 . S
C760 C761 1.415 . S
C761 H731 0.950 . S
C761 C756 1.363 . S
C761 C760 1.415 . S
H762 C759 0.999 . S
H763 C744 0.913 . S
H764 C782 0.951 . S
H765 C784 0.951 . S
H766 C786 0.950 . S
H767 C787 0.950 . S
H768 C789 0.950 . S
H769 C792 0.950 . S
H770 C793 0.950 . S
H771 C795 0.950 . S
H772 C796 0.950 . S
H773 C797 0.951 . S
H774 C799 0.951 . S
H775 C801 0.950 . S
H776 C802 0.950 . S
H777 C804 0.950 . S
H778 C807 0.950 . S
H779 C808 0.950 . S
H780 C810 0.950 . S
H781 C811 0.950 . S
C782 H764 0.951 . S
C782 C783 1.366 . S
C782 C784 1.388 . S
C783 C782 1.366 . S
C783 C787 1.385 . S
C784 H765 0.951 . S
C784 C782 1.388 . S
C784 C785 1.366 . S
C785 C784 1.366 . S
C785 C786 1.414 . S
C785 C788 1.499 . S
C786 H766 0.950 . S
C786 C785 1.414 . S
C786 C787 1.374 . S
C787 H767 0.950 . S
C787 C783 1.385 . S
C787 C786 1.374 . S
C788 C785 1.499 . S
C788 C789 1.373 . S
C788 C790 1.389 . S
C789 H768 0.950 . S
C789 C788 1.373 . S
C789 C805 1.377 . S
C790 C788 1.389 . S
C790 C791 1.524 . S
C790 C804 1.377 . S
C791 C790 1.524 . S
C791 C792 1.397 . S
C791 C796 1.363 . S
C792 H769 0.950 . S
C792 C791 1.397 . S
C792 C793 1.334 . S
C793 H770 0.950 . S
C793 C792 1.334 . S
C793 C794 1.287 . S
C794 C793 1.287 . S
C794 C795 1.524 . S
C794 H813 0.913 . S
C795 H771 0.950 . S
C795 C794 1.524 . S
C795 C796 1.415 . S
C796 H772 0.950 . S
C796 C791 1.363 . S
C796 C795 1.415 . S
C797 H773 0.951 . S
C797 C798 1.366 . S
C797 C799 1.388 . S
C798 C797 1.366 . S
C798 C802 1.385 . S
C799 H774 0.951 . S
C799 C797 1.388 . S
C799 C800 1.366 . S
C800 C799 1.366 . S
C800 C801 1.414 . S
C800 C803 1.499 . S
C801 H775 0.950 . S
C801 C800 1.414 . S
C801 C802 1.374 . S
C802 H776 0.950 . S
C802 C798 1.385 . S
C802 C801 1.374 . S
C803 C800 1.499 . S
C803 C804 1.373 . S
C803 C805 1.389 . S
C804 H777 0.950 . S
C804 C790 1.377 . S
C804 C803 1.373 . S
C805 C789 1.377 . S
C805 C803 1.389 . S
C805 C806 1.524 . S
C806 C805 1.524 . S
C806 C807 1.397 . S
C806 C811 1.363 . S
C807 H778 0.950 . S
C807 C806 1.397 . S
C807 C808 1.334 . S
C808 H779 0.950 . S
C808 C807 1.334 . S
C808 C809 1.287 . S
C809 C808 1.287 . S
C809 C810 1.524 . S
C809 H812 0.999 . S
C810 H780 0.950 . S
C810 C809 1.524 . S
C810 C811 1.415 . S
C811 H781 0.950 . S
C811 C806 1.363 . S
C811 C810 1.415 . S
H812 C809 0.999 . S
H813 C794 0.913 . S
H814 C832 0.951 . S
H815 C834 0.951 . S
H816 C836 0.950 . S
H817 C837 0.950 . S
H818 C839 0.950 . S
H819 C842 0.950 . S
H820 C843 0.950 . S
H821 C845 0.950 . S
H822 C846 0.950 . S
H823 C847 0.951 . S
H824 C849 0.951 . S
H825 C851 0.950 . S
H826 C852 0.950 . S
H827 C854 0.950 . S
H828 C857 0.950 . S
H829 C858 0.950 . S
H830 C860 0.950 . S
H831 C861 0.950 . S
C832 H814 0.951 . S
C832 C833 1.366 . S
C832 C834 1.388 . S
C833 C832 1.366 . S
C833 C837 1.385 . S
C834 H815 0.951 . S
C834 C832 1.388 . S
C834 C835 1.366 . S
C835 C834 1.366 . S
C835 C836 1.414 . S
C835 C838 1.499 . S
C836 H816 0.950 . S
C836 C835 1.414 . S
C836 C837 1.374 . S
C837 H817 0.950 . S
C837 C833 1.385 . S
C837 C836 1.374 . S
C838 C835 1.499 . S
C838 C839 1.373 . S
C838 C840 1.389 . S
C839 H818 0.950 . S
C839 C838 1.373 . S
C839 C855 1.377 . S
C840 C838 1.389 . S
C840 C841 1.524 . S
C840 C854 1.377 . S
C841 C840 1.524 . S
C841 C842 1.397 . S
C841 C846 1.363 . S
C842 H819 0.950 . S
C842 C841 1.397 . S
C842 C843 1.334 . S
C843 H820 0.950 . S
C843 C842 1.334 . S
C843 C844 1.287 . S
C844 C843 1.287 . S
C844 C845 1.524 . S
C844 H863 0.913 . S
C845 H821 0.950 . S
C845 C844 1.524 . S
C845 C846 1.415 . S
C846 H822 0.950 . S
C846 C841 1.363 . S
C846 C845 1.415 . S
C847 H823 0.951 . S
C847 C848 1.366 . S
C847 C849 1.388 . S
C848 C847 1.366 . S
C848 C852 1.385 . S
C849 H824 0.951 . S
C849 C847 1.388 . S
C849 C850 1.366 . S
C850 C849 1.366 . S
C850 C851 1.414 . S
C850 C853 1.499 . S
C851 H825 0.950 . S
C851 C850 1.414 . S
C851 C852 1.374 . S
C852 H826 0.950 . S
C852 C848 1.385 . S
C852 C851 1.374 . S
C853 C850 1.499 . S
C853 C854 1.373 . S
C853 C855 1.389 . S
C854 H827 0.950 . S
C854 C840 1.377 . S
C854 C853 1.373 . S
C855 C839 1.377 . S
C855 C853 1.389 . S
C855 C856 1.524 . S
C856 C855 1.524 . S
C856 C857 1.397 . S
C856 C861 1.363 . S
C857 H828 0.950 . S
C857 C856 1.397 . S
C857 C858 1.334 . S
C858 H829 0.950 . S
C858 C857 1.334 . S
C858 C859 1.287 . S
C859 C858 1.287 . S
C859 C860 1.524 . S
C859 H862 0.999 . S
C860 H830 0.950 . S
C860 C859 1.524 . S
C860 C861 1.415 . S
C861 H831 0.950 . S
C861 C856 1.363 . S
C861 C860 1.415 . S
H862 C859 0.999 . S
H863 C844 0.913 . S
H864 C882 0.951 . S
H865 C884 0.951 . S
H866 C886 0.950 . S
H867 C887 0.950 . S
H868 C889 0.950 . S
H869 C892 0.950 . S
H870 C893 0.950 . S
H871 C895 0.950 . S
H872 C896 0.950 . S
H873 C897 0.951 . S
H874 C899 0.984 . S
H875 C901 0.950 . S
H876 C902 0.950 1_556 S
H877 C904 0.950 . S
H878 C907 0.950 . S
H879 C908 0.950 1_556 S
H880 C910 0.950 . S
H881 C911 0.950 . S
C882 H864 0.951 . S
C882 C883 1.366 1_455 S
C882 C884 1.388 . S
C883 C882 1.366 1_655 S
C883 C887 1.385 . S
C884 H865 0.951 . S
C884 C882 1.388 . S
C884 C885 1.366 1_455 S
C885 C884 1.366 1_655 S
C885 C886 1.414 . S
C885 C888 1.499 1_655 S
C886 H866 0.950 . S
C886 C885 1.414 . S
C886 C887 1.374 . S
C887 H867 0.950 . S
C887 C883 1.385 . S
C887 C886 1.374 . S
C888 C885 1.499 1_455 S
C888 C889 1.373 1_455 S
C888 C890 1.389 . S
C889 H868 0.950 . S
C889 C888 1.373 1_655 S
C889 C905 1.377 . S
C890 C888 1.389 . S
C890 C891 1.524 . S
C890 C904 1.377 . S
C891 C890 1.524 . S
C891 C892 1.397 . S
C891 C896 1.363 . S
C892 H869 0.950 . S
C892 C891 1.397 . S
C892 C893 1.334 . S
C893 H870 0.950 . S
C893 C892 1.334 . S
C893 C894 1.287 . S
C894 C893 1.287 . S
C894 C895 1.524 . S
C894 H913 0.913 . S
C895 H871 0.950 . S
C895 C894 1.524 . S
C895 C896 1.415 . S
C896 H872 0.950 . S
C896 C891 1.363 . S
C896 C895 1.415 . S
C897 H873 0.951 . S
C897 C898 1.366 . S
C897 C899 1.388 . S
C898 C897 1.366 . S
C898 C902 1.385 . S
C899 H874 0.984 . S
C899 C897 1.388 . S
C899 C900 1.366 . S
C900 C899 1.366 . S
C900 C901 1.414 . S
C900 C903 1.499 . S
C901 H875 0.950 . S
C901 C900 1.414 . S
C901 C902 1.374 . S
C902 H876 0.950 1_554 S
C902 C898 1.385 . S
C902 C901 1.374 . S
C903 C900 1.499 . S
C903 C904 1.373 . S
C903 C905 1.389 1_455 S
C904 H877 0.950 . S
C904 C890 1.377 . S
C904 C903 1.373 . S
C905 C889 1.377 . S
C905 C903 1.389 1_655 S
C905 C906 1.524 . S
C906 C905 1.524 . S
C906 C907 1.397 . S
C906 C911 1.363 . S
C907 H878 0.950 . S
C907 C906 1.397 . S
C907 C908 1.334 . S
C908 H879 0.950 1_554 S
C908 C907 1.334 . S
C908 C909 1.287 . S
C909 C908 1.287 . S
C909 C910 1.524 . S
C909 H912 0.999 . S
C910 H880 0.950 . S
C910 C909 1.524 . S
C910 C911 1.415 . S
C911 H881 0.950 . S
C911 C906 1.363 . S
C911 C910 1.415 . S
H912 C909 0.999 . S
H913 C894 0.913 . S
H914 C932 0.951 . S
H915 C934 0.951 . S
H916 C936 0.950 . S
H917 C937 0.950 . S
H918 C939 0.950 . S
H919 C942 0.950 . S
H920 C943 0.950 . S
H921 C945 0.950 1_556 S
H922 C946 0.950 . S
H923 C947 0.951 . S
H924 C949 0.951 . S
H925 C951 0.950 . S
H926 C952 0.944 1_565 S
H927 C954 0.953 . S
H928 C957 0.950 1_565 S
H929 C958 0.950 1_565 S
H930 C960 0.950 . S
H931 C961 0.950 . S
C932 H914 0.951 . S
C932 C933 1.366 . S
C932 C934 1.388 . S
C933 C932 1.366 . S
C933 C937 1.385 1_565 S
C934 H915 0.951 . S
C934 C932 1.388 . S
C934 C935 1.366 1_565 S
C935 C934 1.366 1_545 S
C935 C936 1.414 . S
C935 C938 1.499 . S
C936 H916 0.950 . S
C936 C935 1.414 . S
C936 C937 1.374 . S
C937 H917 0.950 . S
C937 C933 1.385 1_545 S
C937 C936 1.374 . S
C938 C935 1.499 . S
C938 C939 1.373 . S
C938 C940 1.389 . S
C939 H918 0.950 . S
C939 C938 1.373 . S
C939 C955 1.377 . S
C940 C938 1.389 . S
C940 C941 1.524 1_545 S
C940 C954 1.377 . S
C941 C940 1.524 1_565 S
C941 C942 1.397 1_565 S
C941 C946 1.363 . S
C942 H919 0.950 . S
C942 C941 1.397 1_545 S
C942 C943 1.334 . S
C943 H920 0.950 . S
C943 C942 1.334 . S
C943 C944 1.287 1_545 S
C944 C943 1.287 1_565 S
C944 C945 1.524 . S
C944 H963 0.913 . S
C945 H921 0.950 1_554 S
C945 C944 1.524 . S
C945 C946 1.415 . S
C946 H922 0.950 . S
C946 C941 1.363 . S
C946 C945 1.415 . S
C947 H923 0.951 . S
C947 C948 1.366 . S
C947 C949 1.388 . S
C948 C947 1.366 . S
C948 C952 1.393 . S
C949 H924 0.951 . S
C949 C947 1.388 . S
C949 C950 1.366 . S
C950 C949 1.366 . S
C950 C951 1.414 1_545 S
C950 C953 1.499 . S
C951 H925 0.950 . S
C951 C950 1.414 1_565 S
C951 C952 1.371 1_565 S
C952 H926 0.944 1_545 S
C952 C948 1.393 . S
C952 C951 1.371 1_545 S
C953 C950 1.499 . S
C953 C954 1.373 . S
C953 C955 1.389 . S
C954 H927 0.953 . S
C954 C940 1.377 . S
C954 C953 1.373 . S
C955 C939 1.377 . S
C955 C953 1.389 . S
C955 C956 1.524 . S
C956 C955 1.524 . S
C956 C957 1.397 . S
C956 C961 1.363 . S
C957 H928 0.950 1_545 S
C957 C956 1.397 . S
C957 C958 1.334 . S
C958 H929 0.950 1_545 S
C958 C957 1.334 . S
C958 C959 1.287 . S
C959 C958 1.287 . S
C959 C960 1.524 . S
C959 H962 0.999 . S
C960 H930 0.950 . S
C960 C959 1.524 . S
C960 C961 1.415 . S
C961 H931 0.950 . S
C961 C956 1.363 . S
C961 C960 1.415 . S
H962 C959 0.999 . S
H963 C944 0.913 . S
H964 C982 0.951 1_554 S
H965 C984 0.951 . S
H966 C986 0.950 . S
H967 C987 0.950 . S
H968 C989 0.950 . S
H969 C992 0.950 . S
H970 C993 0.950 . S
H971 C995 0.950 . S
H972 C996 0.950 . S
H973 C997 0.951 . S
H974 C999 0.951 . S
H975 C1001 0.950 . S
H976 C1002 0.950 . S
H977 C1004 0.950 . S
H978 C1007 0.950 . S
H979 C1008 0.950 . S
H980 C1010 0.950 . S
H981 C1011 0.950 . S
C982 H964 0.951 1_556 S
C982 C983 1.366 . S
C982 C984 1.388 . S
C983 C982 1.366 . S
C983 C987 1.385 . S
C984 H965 0.951 . S
C984 C982 1.388 . S
C984 C985 1.366 . S
C985 C984 1.366 . S
C985 C986 1.414 . S
C985 C988 1.499 . S
C986 H966 0.950 . S
C986 C985 1.414 . S
C986 C987 1.374 . S
C987 H967 0.950 . S
C987 C983 1.385 . S
C987 C986 1.374 . S
C988 C985 1.499 . S
C988 C989 1.373 . S
C988 C990 1.389 . S
C989 H968 0.950 . S
C989 C988 1.373 . S
C989 C1005 1.377 . S
C990 C988 1.389 . S
C990 C991 1.524 1_556 S
C990 C1004 1.377 . S
C991 C990 1.524 1_554 S
C991 C992 1.397 . S
C991 C996 1.363 . S
C992 H969 0.950 . S
C992 C991 1.397 . S
C992 C993 1.334 . S
C993 H970 0.950 . S
C993 C992 1.334 . S
C993 C994 1.287 . S
C994 C993 1.287 . S
C994 C995 1.524 . S
C994 H1013 0.913 . S
C995 H971 0.950 . S
C995 C994 1.524 . S
C995 C996 1.415 . S
C996 H972 0.950 . S
C996 C991 1.363 . S
C996 C995 1.415 . S
C997 H973 0.951 . S
C997 C998 1.366 . S
C997 C999 1.388 . S
C998 C997 1.366 . S
C998 C1002 1.385 . S
C999 H974 0.951 . S
C999 C997 1.388 . S
C999 C1000 1.366 . S
C1000 C999 1.366 . S
C1000 C1001 1.414 . S
C1000 C1003 1.499 . S
C1001 H975 0.950 . S
C1001 C1000 1.414 . S
C1001 C1002 1.374 . S
C1002 H976 0.950 . S
C1002 C998 1.385 . S
C1002 C1001 1.374 . S
C1003 C1000 1.499 . S
C1003 C1004 1.373 . S
C1003 C1005 1.389 . S
C1004 H977 0.950 . S
C1004 C990 1.377 . S
C1004 C1003 1.373 . S
C1005 C989 1.377 . S
C1005 C1003 1.389 . S
C1005 C1006 1.524 . S
C1006 C1005 1.524 . S
C1006 C1007 1.397 . S
C1006 C1011 1.363 . S
C1007 H978 0.950 . S
C1007 C1006 1.397 . S
C1007 C1008 1.334 . S
C1008 H979 0.950 . S
C1008 C1007 1.334 . S
C1008 C1009 1.287 . S
C1009 C1008 1.287 . S
C1009 C1010 1.524 . S
C1009 H1012 0.999 . S
C1010 H980 0.950 . S
C1010 C1009 1.524 . S
C1010 C1011 1.415 . S
C1011 H981 0.950 . S
C1011 C1006 1.363 . S
C1011 C1010 1.415 . S
H1012 C1009 0.999 . S
H1013 C994 0.913 . S
H1014 C1032 0.951 . S
H1015 C1034 0.951 . S
H1016 C1036 0.950 . S
H1017 C1037 0.950 . S
H1018 C1039 0.950 . S
H1019 C1042 0.950 . S
H1020 C1043 0.950 . S
H1021 C1045 0.950 . S
H1022 C1046 0.950 . S
H1023 C1047 0.951 1_556 S
H1024 C1049 0.951 . S
H1025 C1051 0.950 . S
H1026 C1052 0.950 . S
H1027 C1054 0.950 . S
H1028 C1057 0.950 . S
H1029 C1058 0.950 . S
H1030 C1060 0.950 . S
H1031 C1061 0.950 . S
C1032 H1014 0.951 . S
C1032 C1033 1.366 . S
C1032 C1034 1.388 . S
C1033 C1032 1.366 . S
C1033 C1037 1.385 . S
C1034 H1015 0.951 . S
C1034 C1032 1.388 . S
C1034 C1035 1.366 . S
C1035 C1034 1.366 . S
C1035 C1036 1.414 . S
C1035 C1038 1.499 . S
C1036 H1016 0.950 . S
C1036 C1035 1.414 . S
C1036 C1037 1.374 . S
C1037 H1017 0.950 . S
C1037 C1033 1.385 . S
C1037 C1036 1.374 . S
C1038 C1035 1.499 . S
C1038 C1039 1.373 . S
C1038 C1040 1.389 . S
C1039 H1018 0.950 . S
C1039 C1038 1.373 . S
C1039 C1055 1.377 . S
C1040 C1038 1.389 . S
C1040 C1041 1.524 . S
C1040 C1054 1.377 . S
C1041 C1040 1.524 . S
C1041 C1042 1.397 . S
C1041 C1046 1.363 . S
C1042 H1019 0.950 . S
C1042 C1041 1.397 . S
C1042 C1043 1.334 . S
C1043 H1020 0.950 . S
C1043 C1042 1.334 . S
C1043 C1044 1.287 . S
C1044 C1043 1.287 . S
C1044 C1045 1.524 . S
C1044 H1063 0.913 . S
C1045 H1021 0.950 . S
C1045 C1044 1.524 . S
C1045 C1046 1.415 . S
C1046 H1022 0.950 . S
C1046 C1041 1.363 . S
C1046 C1045 1.415 . S
C1047 H1023 0.951 1_554 S
C1047 C1048 1.366 . S
C1047 C1049 1.388 . S
C1048 C1047 1.366 . S
C1048 C1052 1.385 . S
C1049 H1024 0.951 . S
C1049 C1047 1.388 . S
C1049 C1050 1.366 . S
C1050 C1049 1.366 . S
C1050 C1051 1.414 . S
C1050 C1053 1.499 . S
C1051 H1025 0.950 . S
C1051 C1050 1.414 . S
C1051 C1052 1.374 . S
C1052 H1026 0.950 . S
C1052 C1048 1.385 . S
C1052 C1051 1.374 . S
C1053 C1050 1.499 . S
C1053 C1054 1.373 . S
C1053 C1055 1.389 . S
C1054 H1027 0.950 . S
C1054 C1040 1.377 . S
C1054 C1053 1.373 . S
C1055 C1039 1.377 . S
C1055 C1053 1.389 . S
C1055 C1056 1.524 . S
C1056 C1055 1.524 . S
C1056 C1057 1.397 . S
C1056 C1061 1.363 . S
C1057 H1028 0.950 . S
C1057 C1056 1.397 . S
C1057 C1058 1.334 . S
C1058 H1029 0.950 . S
C1058 C1057 1.334 . S
C1058 C1059 1.287 . S
C1059 C1058 1.287 . S
C1059 C1060 1.524 . S
C1059 H1062 0.999 . S
C1060 H1030 0.950 . S
C1060 C1059 1.524 . S
C1060 C1061 1.415 . S
C1061 H1031 0.950 . S
C1061 C1056 1.363 . S
C1061 C1060 1.415 . S
H1062 C1059 0.999 . S
H1063 C1044 0.913 . S
H1064 C1082 0.951 . S
H1065 C1084 0.951 . S
H1066 C1086 0.950 1_655 S
H1067 C1087 0.950 1_655 S
H1068 C1089 0.950 . S
H1069 C1092 0.950 1_655 S
H1070 C1093 0.950 1_655 S
H1071 C1095 0.950 . S
H1072 C1096 0.950 . S
H1073 C1097 0.951 1_655 S
H1074 C1099 0.951 1_655 S
H1075 C1101 0.950 . S
H1076 C1102 0.950 . S
H1077 C1104 0.950 . S
H1078 C1107 0.950 . S
H1079 C1108 0.950 . S
H1080 C1110 0.950 . S
H1081 C1111 0.950 . S
C1082 H1064 0.951 . S
C1082 C1083 1.366 . S
C1082 C1084 1.388 . S
C1083 C1082 1.366 . S
C1083 C1087 1.385 . S
C1084 H1065 0.951 . S
C1084 C1082 1.388 . S
C1084 C1085 1.366 . S
C1085 C1084 1.366 . S
C1085 C1086 1.414 . S
C1085 C1088 1.499 . S
C1086 H1066 0.950 1_455 S
C1086 C1085 1.414 . S
C1086 C1087 1.374 . S
C1087 H1067 0.950 1_455 S
C1087 C1083 1.385 . S
C1087 C1086 1.374 . S
C1088 C1085 1.499 . S
C1088 C1089 1.373 . S
C1088 C1090 1.389 1_554 S
C1089 H1068 0.950 . S
C1089 C1088 1.373 . S
C1089 C1105 1.377 . S
C1090 C1088 1.389 1_556 S
C1090 C1091 1.524 . S
C1090 C1104 1.377 . S
C1091 C1090 1.524 . S
C1091 C1092 1.397 . S
C1091 C1096 1.363 . S
C1092 H1069 0.950 1_455 S
C1092 C1091 1.397 . S
C1092 C1093 1.334 . S
C1093 H1070 0.950 1_455 S
C1093 C1092 1.334 . S
C1093 C1094 1.287 . S
C1094 C1093 1.287 . S
C1094 C1095 1.524 . S
C1094 H1113 0.913 . S
C1095 H1071 0.950 . S
C1095 C1094 1.524 . S
C1095 C1096 1.415 . S
C1096 H1072 0.950 . S
C1096 C1091 1.363 . S
C1096 C1095 1.415 . S
C1097 H1073 0.951 1_455 S
C1097 C1098 1.366 . S
C1097 C1099 1.388 . S
C1098 C1097 1.366 . S
C1098 C1102 1.385 . S
C1099 H1074 0.951 1_455 S
C1099 C1097 1.388 . S
C1099 C1100 1.366 . S
C1100 C1099 1.366 . S
C1100 C1101 1.414 . S
C1100 C1103 1.499 . S
C1101 H1075 0.950 . S
C1101 C1100 1.414 . S
C1101 C1102 1.374 . S
C1102 H1076 0.950 . S
C1102 C1098 1.385 . S
C1102 C1101 1.374 . S
C1103 C1100 1.499 . S
C1103 C1104 1.373 . S
C1103 C1105 1.389 1_556 S
C1104 H1077 0.950 . S
C1104 C1090 1.377 . S
C1104 C1103 1.373 . S
C1105 C1089 1.377 . S
C1105 C1103 1.389 1_554 S
C1105 C1106 1.524 . S
C1106 C1105 1.524 . S
C1106 C1107 1.397 . S
C1106 C1111 1.363 1_455 S
C1107 H1078 0.950 . S
C1107 C1106 1.397 . S
C1107 C1108 1.334 . S
C1108 H1079 0.950 . S
C1108 C1107 1.334 . S
C1108 C1109 1.287 . S
C1109 C1108 1.287 . S
C1109 C1110 1.524 1_455 S
C1109 H1112 0.999 . S
C1110 H1080 0.950 . S
C1110 C1109 1.524 1_655 S
C1110 C1111 1.415 . S
C1111 H1081 0.950 . S
C1111 C1106 1.363 1_655 S
C1111 C1110 1.415 . S
H1112 C1109 0.999 . S
H1113 C1094 0.913 . S
H1114 C1132 0.951 1_556 S
H1115 C1134 0.951 . S
H1116 C1136 0.950 . S
H1117 C1137 0.950 . S
H1118 C1139 0.950 . S
H1119 C1142 0.950 . S
H1120 C1143 0.950 . S
H1121 C1145 0.950 . S
H1122 C1146 0.950 . S
H1123 C1147 0.951 1_554 S
H1124 C1149 0.951 1_554 S
H1125 C1151 0.950 . S
H1126 C1152 0.950 . S
H1127 C1154 0.950 . S
H1128 C1157 0.950 . S
H1129 C1158 0.950 . S
H1130 C1160 0.950 . S
H1131 C1161 0.950 . S
C1132 H1114 0.951 1_554 S
C1132 C1133 1.359 1_565 S
C1132 C1134 1.388 1_554 S
C1133 C1132 1.359 1_545 S
C1133 C1137 1.394 . S
C1134 H1115 0.951 . S
C1134 C1132 1.388 1_556 S
C1134 C1135 1.356 1_566 S
C1135 C1134 1.356 1_544 S
C1135 C1136 1.425 . S
C1135 C1138 1.502 . S
C1136 H1116 0.950 . S
C1136 C1135 1.425 . S
C1136 C1137 1.374 . S
C1137 H1117 0.950 . S
C1137 C1133 1.394 . S
C1137 C1136 1.374 . S
C1138 C1135 1.502 . S
C1138 C1139 1.373 . S
C1138 C1140 1.389 1_544 S
C1139 H1118 0.950 . S
C1139 C1138 1.373 . S
C1139 C1155 1.377 . S
C1140 C1138 1.389 1_566 S
C1140 C1141 1.524 . S
C1140 C1154 1.377 . S
C1141 C1140 1.524 . S
C1141 C1142 1.397 1_556 S
C1141 C1146 1.363 . S
C1142 H1119 0.950 . S
C1142 C1141 1.397 1_554 S
C1142 C1143 1.334 . S
C1143 H1120 0.950 . S
C1143 C1142 1.334 . S
C1143 C1144 1.287 1_554 S
C1144 C1143 1.287 1_556 S
C1144 C1145 1.524 . S
C1144 H1163 0.913 . S
C1145 H1121 0.950 . S
C1145 C1144 1.524 . S
C1145 C1146 1.415 . S
C1146 H1122 0.950 . S
C1146 C1141 1.363 . S
C1146 C1145 1.415 . S
C1147 H1123 0.951 1_556 S
C1147 C1148 1.366 . S
C1147 C1149 1.388 . S
C1148 C1147 1.366 . S
C1148 C1152 1.385 1_545 S
C1149 H1124 0.951 1_556 S
C1149 C1147 1.388 . S
C1149 C1150 1.366 . S
C1150 C1149 1.366 . S
C1150 C1151 1.414 1_545 S
C1150 C1153 1.499 . S
C1151 H1125 0.950 . S
C1151 C1150 1.414 1_565 S
C1151 C1152 1.374 . S
C1152 H1126 0.950 . S
C1152 C1148 1.385 1_565 S
C1152 C1151 1.374 . S
C1153 C1150 1.499 . S
C1153 C1154 1.373 1_545 S
C1153 C1155 1.389 1_556 S
C1154 H1127 0.950 . S
C1154 C1140 1.377 . S
C1154 C1153 1.373 1_565 S
C1155 C1139 1.377 . S
C1155 C1153 1.389 1_554 S
C1155 C1156 1.524 . S
C1156 C1155 1.524 . S
C1156 C1157 1.397 1_554 S
C1156 C1161 1.363 . S
C1157 H1128 0.950 . S
C1157 C1156 1.397 1_556 S
C1157 C1158 1.334 . S
C1158 H1129 0.950 . S
C1158 C1157 1.334 . S
C1158 C1159 1.287 1_556 S
C1159 C1158 1.287 1_554 S
C1159 C1160 1.524 . S
C1159 H1162 0.999 . S
C1160 H1130 0.950 . S
C1160 C1159 1.524 . S
C1160 C1161 1.415 . S
C1161 H1131 0.950 . S
C1161 C1156 1.363 . S
C1161 C1160 1.415 . S
H1162 C1159 0.999 . S
H1163 C1144 0.913 . S
H1164 C1182 0.951 . S
H1165 C1184 0.951 . S
H1166 C1186 0.950 . S
H1167 C1187 0.950 . S
H1168 C1189 0.950 . S
H1169 C1192 0.950 . S
H1170 C1193 0.950 . S
H1171 C1195 0.950 . S
H1172 C1196 0.950 . S
H1173 C1197 0.951 . S
H1174 C1199 0.951 . S
H1175 C1201 0.950 . S
H1176 C1202 0.950 . S
H1177 C1204 0.950 . S
H1178 C1207 0.950 . S
H1179 C1208 0.950 . S
H1180 C1210 0.950 . S
H1181 C1211 0.950 . S
C1182 H1164 0.951 . S
C1182 C1183 1.366 . S
C1182 C1184 1.388 . S
C1183 C1182 1.366 . S
C1183 C1187 1.385 . S
C1184 H1165 0.951 . S
C1184 C1182 1.388 . S
C1184 C1185 1.366 . S
C1185 C1184 1.366 . S
C1185 C1186 1.414 . S
C1185 C1188 1.499 . S
C1186 H1166 0.950 . S
C1186 C1185 1.414 . S
C1186 C1187 1.374 . S
C1187 H1167 0.950 . S
C1187 C1183 1.385 . S
C1187 C1186 1.374 . S
C1188 C1185 1.499 . S
C1188 C1189 1.373 . S
C1188 C1190 1.389 . S
C1189 H1168 0.950 . S
C1189 C1188 1.373 . S
C1189 C1205 1.377 . S
C1190 C1188 1.389 . S
C1190 C1191 1.524 . S
C1190 C1204 1.377 . S
C1191 C1190 1.524 . S
C1191 C1192 1.397 . S
C1191 C1196 1.363 . S
C1192 H1169 0.950 . S
C1192 C1191 1.397 . S
C1192 C1193 1.334 . S
C1193 H1170 0.950 . S
C1193 C1192 1.334 . S
C1193 C1194 1.287 . S
C1194 C1193 1.287 . S
C1194 C1195 1.524 . S
C1194 H1213 0.913 . S
C1195 H1171 0.950 . S
C1195 C1194 1.524 . S
C1195 C1196 1.415 . S
C1196 H1172 0.950 . S
C1196 C1191 1.363 . S
C1196 C1195 1.415 . S
C1197 H1173 0.951 . S
C1197 C1198 1.366 . S
C1197 C1199 1.388 . S
C1198 C1197 1.366 . S
C1198 C1202 1.385 . S
C1199 H1174 0.951 . S
C1199 C1197 1.388 . S
C1199 C1200 1.366 . S
C1200 C1199 1.366 . S
C1200 C1201 1.414 . S
C1200 C1203 1.499 . S
C1201 H1175 0.950 . S
C1201 C1200 1.414 . S
C1201 C1202 1.374 . S
C1202 H1176 0.950 . S
C1202 C1198 1.385 . S
C1202 C1201 1.374 . S
C1203 C1200 1.499 . S
C1203 C1204 1.373 . S
C1203 C1205 1.389 . S
C1204 H1177 0.950 . S
C1204 C1190 1.377 . S
C1204 C1203 1.373 . S
C1205 C1189 1.377 . S
C1205 C1203 1.389 . S
C1205 C1206 1.524 . S
C1206 C1205 1.524 . S
C1206 C1207 1.397 . S
C1206 C1211 1.363 . S
C1207 H1178 0.950 . S
C1207 C1206 1.397 . S
C1207 C1208 1.334 . S
C1208 H1179 0.950 . S
C1208 C1207 1.334 . S
C1208 C1209 1.287 . S
C1209 C1208 1.287 . S
C1209 C1210 1.524 . S
C1209 H1212 0.999 . S
C1210 H1180 0.950 . S
C1210 C1209 1.524 . S
C1210 C1211 1.415 . S
C1211 H1181 0.950 . S
C1211 C1206 1.363 . S
C1211 C1210 1.415 . S
H1212 C1209 0.999 . S
H1213 C1194 0.913 . S
H1214 C1232 0.951 . S
H1215 C1234 0.951 . S
H1216 C1236 0.950 . S
H1217 C1237 0.950 1_556 S
H1218 C1239 0.950 . S
H1219 C1242 0.950 1_556 S
H1220 C1243 0.950 . S
H1221 C1245 0.950 . S
H1222 C1246 0.950 . S
H1223 C1247 0.951 . S
H1224 C1249 0.951 . S
H1225 C1251 0.950 1_554 S
H1226 C1252 0.950 . S
H1227 C1254 0.950 1_554 S
H1228 C1257 0.950 . S
H1229 C1258 0.950 . S
H1230 C1260 0.950 . S
H1231 C1261 0.950 . S
C1232 H1214 0.951 . S
C1232 C1233 1.366 . S
C1232 C1234 1.388 . S
C1233 C1232 1.366 . S
C1233 C1237 1.385 . S
C1234 H1215 0.951 . S
C1234 C1232 1.388 . S
C1234 C1235 1.366 . S
C1235 C1234 1.366 . S
C1235 C1236 1.414 1_554 S
C1235 C1238 1.500 . S
C1236 H1216 0.950 . S
C1236 C1235 1.414 1_556 S
C1236 C1237 1.374 1_556 S
C1237 H1217 0.950 1_554 S
C1237 C1233 1.385 . S
C1237 C1236 1.374 1_554 S
C1238 C1235 1.500 . S
C1238 C1239 1.370 1_554 S
C1238 C1240 1.391 . S
C1239 H1218 0.950 . S
C1239 C1238 1.370 1_556 S
C1239 C1255 1.377 . S
C1240 C1238 1.391 . S
C1240 C1241 1.524 . S
C1240 C1254 1.377 1_554 S
C1241 C1240 1.524 . S
C1241 C1242 1.397 . S
C1241 C1246 1.363 . S
C1242 H1219 0.950 1_554 S
C1242 C1241 1.397 . S
C1242 C1243 1.334 . S
C1243 H1220 0.950 . S
C1243 C1242 1.334 . S
C1243 C1244 1.287 . S
C1244 C1243 1.287 . S
C1244 C1245 1.524 . S
C1244 H1263 0.913 . S
C1245 H1221 0.950 . S
C1245 C1244 1.524 . S
C1245 C1246 1.415 . S
C1246 H1222 0.950 . S
C1246 C1241 1.363 . S
C1246 C1245 1.415 . S
C1247 H1223 0.951 . S
C1247 C1248 1.366 . S
C1247 C1249 1.388 . S
C1248 C1247 1.366 . S
C1248 C1252 1.385 . S
C1249 H1224 0.951 . S
C1249 C1247 1.388 . S
C1249 C1250 1.366 . S
C1250 C1249 1.366 . S
C1250 C1251 1.414 . S
C1250 C1253 1.499 . S
C1251 H1225 0.950 1_556 S
C1251 C1250 1.414 . S
C1251 C1252 1.374 . S
C1252 H1226 0.950 . S
C1252 C1248 1.385 . S
C1252 C1251 1.374 . S
C1253 C1250 1.499 . S
C1253 C1254 1.373 . S
C1253 C1255 1.389 . S
C1254 H1227 0.950 1_556 S
C1254 C1240 1.377 1_556 S
C1254 C1253 1.373 . S
C1255 C1239 1.377 . S
C1255 C1253 1.389 . S
C1255 C1256 1.524 . S
C1256 C1255 1.524 . S
C1256 C1257 1.397 . S
C1256 C1261 1.363 . S
C1257 H1228 0.950 . S
C1257 C1256 1.397 . S
C1257 C1258 1.334 . S
C1258 H1229 0.950 . S
C1258 C1257 1.334 . S
C1258 C1259 1.287 . S
C1259 C1258 1.287 . S
C1259 C1260 1.524 . S
C1259 H1262 0.999 . S
C1260 H1230 0.950 . S
C1260 C1259 1.524 . S
C1260 C1261 1.415 . S
C1261 H1231 0.950 . S
C1261 C1256 1.363 . S
C1261 C1260 1.415 . S
H1262 C1259 0.999 . S
H1263 C1244 0.913 . S
H1264 C1282 0.951 . S
H1265 C1284 0.951 . S
H1266 C1286 0.950 . S
H1267 C1287 0.950 . S
H1268 C1289 0.950 . S
H1269 C1292 0.950 . S
H1270 C1293 0.950 . S
H1271 C1295 0.950 . S
H1272 C1296 0.950 . S
H1273 C1297 0.951 . S
H1274 C1299 0.951 . S
H1275 C1301 0.950 . S
H1276 C1302 0.950 . S
H1277 C1304 0.950 . S
H1278 C1307 0.950 . S
H1279 C1308 0.950 . S
H1280 C1310 0.950 . S
H1281 C1311 0.950 . S
C1282 H1264 0.951 . S
C1282 C1283 1.366 . S
C1282 C1284 1.388 . S
C1283 C1282 1.366 . S
C1283 C1287 1.385 1_655 S
C1284 H1265 0.951 . S
C1284 C1282 1.388 . S
C1284 C1285 1.366 . S
C1285 C1284 1.366 . S
C1285 C1286 1.414 1_655 S
C1285 C1288 1.499 . S
C1286 H1266 0.950 . S
C1286 C1285 1.414 1_455 S
C1286 C1287 1.374 . S
C1287 H1267 0.950 . S
C1287 C1283 1.385 1_455 S
C1287 C1286 1.374 . S
C1288 C1285 1.499 . S
C1288 C1289 1.373 1_655 S
C1288 C1290 1.389 . S
C1289 H1268 0.950 . S
C1289 C1288 1.373 1_455 S
C1289 C1305 1.377 . S
C1290 C1288 1.389 . S
C1290 C1291 1.524 . S
C1290 C1304 1.377 . S
C1291 C1290 1.524 . S
C1291 C1292 1.397 . S
C1291 C1296 1.363 . S
C1292 H1269 0.950 . S
C1292 C1291 1.397 . S
C1292 C1293 1.334 . S
C1293 H1270 0.950 . S
C1293 C1292 1.334 . S
C1293 C1294 1.287 . S
C1294 C1293 1.287 . S
C1294 C1295 1.524 . S
C1294 H1313 0.913 . S
C1295 H1271 0.950 . S
C1295 C1294 1.524 . S
C1295 C1296 1.415 . S
C1296 H1272 0.950 . S
C1296 C1291 1.363 . S
C1296 C1295 1.415 . S
C1297 H1273 0.951 . S
C1297 C1298 1.366 1_455 S
C1297 C1299 1.388 . S
C1298 C1297 1.366 1_655 S
C1298 C1302 1.385 . S
C1299 H1274 0.951 . S
C1299 C1297 1.388 . S
C1299 C1300 1.366 1_455 S
C1300 C1299 1.366 1_655 S
C1300 C1301 1.414 . S
C1300 C1303 1.499 . S
C1301 H1275 0.950 . S
C1301 C1300 1.414 . S
C1301 C1302 1.374 . S
C1302 H1276 0.950 . S
C1302 C1298 1.385 . S
C1302 C1301 1.374 . S
C1303 C1300 1.499 . S
C1303 C1304 1.373 . S
C1303 C1305 1.389 1_655 S
C1304 H1277 0.950 . S
C1304 C1290 1.377 . S
C1304 C1303 1.373 . S
C1305 C1289 1.377 . S
C1305 C1303 1.389 1_455 S
C1305 C1306 1.524 . S
C1306 C1305 1.524 . S
C1306 C1307 1.397 . S
C1306 C1311 1.363 . S
C1307 H1278 0.950 . S
C1307 C1306 1.397 . S
C1307 C1308 1.334 . S
C1308 H1279 0.950 . S
C1308 C1307 1.334 . S
C1308 C1309 1.287 . S
C1309 C1308 1.287 . S
C1309 C1310 1.524 . S
C1309 H1312 0.999 . S
C1310 H1280 0.950 . S
C1310 C1309 1.524 . S
C1310 C1311 1.415 . S
C1311 H1281 0.950 . S
C1311 C1306 1.363 . S
C1311 C1310 1.415 . S
H1312 C1309 0.999 . S
H1313 C1294 0.913 . S
H1314 C1332 0.951 . S
H1315 C1334 0.951 . S
H1316 C1336 0.946 . S
H1317 C1337 0.950 . S
H1318 C1339 0.950 . S
H1319 C1342 0.950 . S
H1320 C1343 0.950 . S
H1321 C1345 0.950 . S
H1322 C1346 0.950 . S
H1323 C1347 0.951 . S
H1324 C1349 0.951 . S
H1325 C1351 0.950 . S
H1326 C1352 0.950 . S
H1327 C1354 0.950 . S
H1328 C1357 0.950 . S
H1329 C1358 0.950 . S
H1330 C1360 0.950 . S
H1331 C1361 0.950 . S
C1332 H1314 0.951 . S
C1332 C1333 1.364 . S
C1332 C1334 1.388 . S
C1333 C1332 1.364 . S
C1333 C1337 1.387 1_565 S
C1334 H1315 0.951 . S
C1334 C1332 1.388 . S
C1334 C1335 1.364 . S
C1335 C1334 1.364 . S
C1335 C1336 1.423 1_565 S
C1335 C1338 1.497 . S
C1336 H1316 0.946 . S
C1336 C1335 1.423 1_545 S
C1336 C1337 1.377 . S
C1337 H1317 0.950 . S
C1337 C1333 1.387 1_545 S
C1337 C1336 1.377 . S
C1338 C1335 1.497 . S
C1338 C1339 1.419 . S
C1338 C1340 1.352 1_565 S
C1339 H1318 0.950 . S
C1339 C1338 1.419 . S
C1339 C1355 1.377 . S
C1340 C1338 1.352 1_545 S
C1340 C1341 1.524 . S
C1340 C1354 1.377 . S
C1341 C1340 1.524 . S
C1341 C1342 1.397 . S
C1341 C1346 1.363 . S
C1342 H1319 0.950 . S
C1342 C1341 1.397 . S
C1342 C1343 1.334 . S
C1343 H1320 0.950 . S
C1343 C1342 1.334 . S
C1343 C1344 1.287 . S
C1344 C1343 1.287 . S
C1344 C1345 1.524 . S
C1344 H1363 0.913 . S
C1345 H1321 0.950 . S
C1345 C1344 1.524 . S
C1345 C1346 1.415 . S
C1346 H1322 0.950 . S
C1346 C1341 1.363 . S
C1346 C1345 1.415 . S
C1347 H1323 0.951 . S
C1347 C1348 1.366 . S
C1347 C1349 1.388 . S
C1348 C1347 1.366 . S
C1348 C1352 1.385 . S
C1349 H1324 0.951 . S
C1349 C1347 1.388 . S
C1349 C1350 1.366 . S
C1350 C1349 1.366 . S
C1350 C1351 1.414 . S
C1350 C1353 1.499 . S
C1351 H1325 0.950 . S
C1351 C1350 1.414 . S
C1351 C1352 1.374 . S
C1352 H1326 0.950 . S
C1352 C1348 1.385 . S
C1352 C1351 1.374 . S
C1353 C1350 1.499 . S
C1353 C1354 1.373 1_565 S
C1353 C1355 1.389 . S
C1354 H1327 0.950 . S
C1354 C1340 1.377 . S
C1354 C1353 1.373 1_545 S
C1355 C1339 1.377 . S
C1355 C1353 1.389 . S
C1355 C1356 1.524 . S
C1356 C1355 1.524 . S
C1356 C1357 1.397 . S
C1356 C1361 1.363 . S
C1357 H1328 0.950 . S
C1357 C1356 1.397 . S
C1357 C1358 1.334 . S
C1358 H1329 0.950 . S
C1358 C1357 1.334 . S
C1358 C1359 1.287 . S
C1359 C1358 1.287 . S
C1359 C1360 1.524 . S
C1359 H1362 0.999 . S
C1360 H1330 0.950 . S
C1360 C1359 1.524 . S
C1360 C1361 1.415 . S
C1361 H1331 0.950 . S
C1361 C1356 1.363 . S
C1361 C1360 1.415 . S
H1362 C1359 0.999 . S
H1363 C1344 0.913 . S
H1364 C1382 0.951 . S
H1365 C1384 0.951 . S
H1366 C1386 0.950 . S
H1367 C1387 0.950 . S
H1368 C1389 0.950 . S
H1369 C1392 0.950 . S
H1370 C1393 0.950 . S
H1371 C1395 0.950 1_556 S
H1372 C1396 0.950 . S
H1373 C1397 0.951 . S
H1374 C1399 0.951 . S
H1375 C1401 0.950 . S
H1376 C1402 0.950 . S
H1377 C1404 0.950 . S
H1378 C1407 0.950 . S
H1379 C1408 0.950 . S
H1380 C1410 0.950 . S
H1381 C1411 0.950 . S
C1382 H1364 0.951 . S
C1382 C1383 1.366 . S
C1382 C1384 1.388 . S
C1383 C1382 1.366 . S
C1383 C1387 1.385 . S
C1384 H1365 0.951 . S
C1384 C1382 1.388 . S
C1384 C1385 1.366 . S
C1385 C1384 1.366 . S
C1385 C1386 1.414 . S
C1385 C1388 1.499 . S
C1386 H1366 0.950 . S
C1386 C1385 1.414 . S
C1386 C1387 1.374 . S
C1387 H1367 0.950 . S
C1387 C1383 1.385 . S
C1387 C1386 1.374 . S
C1388 C1385 1.499 . S
C1388 C1389 1.373 . S
C1388 C1390 1.389 . S
C1389 H1368 0.950 . S
C1389 C1388 1.373 . S
C1389 C1405 1.377 . S
C1390 C1388 1.389 . S
C1390 C1391 1.524 . S
C1390 C1404 1.377 . S
C1391 C1390 1.524 . S
C1391 C1392 1.397 . S
C1391 C1396 1.363 . S
C1392 H1369 0.950 . S
C1392 C1391 1.397 . S
C1392 C1393 1.334 . S
C1393 H1370 0.950 . S
C1393 C1392 1.334 . S
C1393 C1394 1.287 . S
C1394 C1393 1.287 . S
C1394 C1395 1.524 . S
C1394 H1413 0.913 . S
C1395 H1371 0.950 1_554 S
C1395 C1394 1.524 . S
C1395 C1396 1.415 . S
C1396 H1372 0.950 . S
C1396 C1391 1.363 . S
C1396 C1395 1.415 . S
C1397 H1373 0.951 . S
C1397 C1398 1.366 . S
C1397 C1399 1.388 . S
C1398 C1397 1.366 . S
C1398 C1402 1.385 . S
C1399 H1374 0.951 . S
C1399 C1397 1.388 . S
C1399 C1400 1.366 . S
C1400 C1399 1.366 . S
C1400 C1401 1.414 . S
C1400 C1403 1.499 . S
C1401 H1375 0.950 . S
C1401 C1400 1.414 . S
C1401 C1402 1.374 . S
C1402 H1376 0.950 . S
C1402 C1398 1.385 . S
C1402 C1401 1.374 . S
C1403 C1400 1.499 . S
C1403 C1404 1.373 . S
C1403 C1405 1.389 . S
C1404 H1377 0.950 . S
C1404 C1390 1.377 . S
C1404 C1403 1.373 . S
C1405 C1389 1.377 . S
C1405 C1403 1.389 . S
C1405 C1406 1.524 . S
C1406 C1405 1.524 . S
C1406 C1407 1.397 . S
C1406 C1411 1.363 . S
C1407 H1378 0.950 . S
C1407 C1406 1.397 . S
C1407 C1408 1.334 . S
C1408 H1379 0.950 . S
C1408 C1407 1.334 . S
C1408 C1409 1.287 . S
C1409 C1408 1.287 . S
C1409 C1410 1.524 . S
C1409 H1412 0.999 . S
C1410 H1380 0.950 . S
C1410 C1409 1.524 . S
C1410 C1411 1.415 . S
C1411 H1381 0.950 . S
C1411 C1406 1.363 . S
C1411 C1410 1.415 . S
H1412 C1409 0.999 . S
H1413 C1394 0.913 . S
H1414 C1432 0.951 . S
H1415 C1434 0.951 . S
H1416 C1436 0.950 . S
H1417 C1437 0.950 . S
H1418 C1439 0.950 . S
H1419 C1442 0.950 . S
H1420 C1443 0.950 . S
H1421 C1445 0.950 . S
H1422 C1446 0.950 . S
H1423 C1447 0.951 . S
H1424 C1449 0.951 . S
H1425 C1451 0.950 . S
H1426 C1452 0.950 . S
H1427 C1454 0.950 . S
H1428 C1457 0.950 . S
H1429 C1458 0.950 . S
H1430 C1460 0.950 . S
H1431 C1461 0.950 . S
C1432 H1414 0.951 . S
C1432 C1433 1.366 . S
C1432 C1434 1.388 . S
C1433 C1432 1.366 . S
C1433 C1437 1.385 . S
C1434 H1415 0.951 . S
C1434 C1432 1.388 . S
C1434 C1435 1.366 . S
C1435 C1434 1.366 . S
C1435 C1436 1.414 . S
C1435 C1438 1.499 . S
C1436 H1416 0.950 . S
C1436 C1435 1.414 . S
C1436 C1437 1.374 . S
C1437 H1417 0.950 . S
C1437 C1433 1.385 . S
C1437 C1436 1.374 . S
C1438 C1435 1.499 . S
C1438 C1439 1.373 . S
C1438 C1440 1.389 . S
C1439 H1418 0.950 . S
C1439 C1438 1.373 . S
C1439 C1455 1.377 . S
C1440 C1438 1.389 . S
C1440 C1441 1.524 . S
C1440 C1454 1.377 . S
C1441 C1440 1.524 . S
C1441 C1442 1.397 . S
C1441 C1446 1.363 . S
C1442 H1419 0.950 . S
C1442 C1441 1.397 . S
C1442 C1443 1.334 . S
C1443 H1420 0.950 . S
C1443 C1442 1.334 . S
C1443 C1444 1.287 . S
C1444 C1443 1.287 . S
C1444 C1445 1.524 . S
C1444 H1463 0.913 . S
C1445 H1421 0.950 . S
C1445 C1444 1.524 . S
C1445 C1446 1.415 . S
C1446 H1422 0.950 . S
C1446 C1441 1.363 . S
C1446 C1445 1.415 . S
C1447 H1423 0.951 . S
C1447 C1448 1.366 . S
C1447 C1449 1.388 . S
C1448 C1447 1.366 . S
C1448 C1452 1.385 . S
C1449 H1424 0.951 . S
C1449 C1447 1.388 . S
C1449 C1450 1.366 . S
C1450 C1449 1.366 . S
C1450 C1451 1.414 . S
C1450 C1453 1.499 . S
C1451 H1425 0.950 . S
C1451 C1450 1.414 . S
C1451 C1452 1.374 . S
C1452 H1426 0.950 . S
C1452 C1448 1.385 . S
C1452 C1451 1.374 . S
C1453 C1450 1.499 . S
C1453 C1454 1.373 . S
C1453 C1455 1.389 . S
C1454 H1427 0.950 . S
C1454 C1440 1.377 . S
C1454 C1453 1.373 . S
C1455 C1439 1.377 . S
C1455 C1453 1.389 . S
C1455 C1456 1.524 . S
C1456 C1455 1.524 . S
C1456 C1457 1.397 . S
C1456 C1461 1.363 . S
C1457 H1428 0.950 . S
C1457 C1456 1.397 . S
C1457 C1458 1.334 . S
C1458 H1429 0.950 . S
C1458 C1457 1.334 . S
C1458 C1459 1.287 . S
C1459 C1458 1.287 . S
C1459 C1460 1.524 . S
C1459 H1462 0.999 . S
C1460 H1430 0.950 . S
C1460 C1459 1.524 . S
C1460 C1461 1.415 . S
C1461 H1431 0.950 . S
C1461 C1456 1.363 . S
C1461 C1460 1.415 . S
H1462 C1459 0.999 . S
H1463 C1444 0.913 . S
C283 N80 1.835 1_545 S
C298 C127 1.868 1_545 S
C348 C167 1.701 . S
C333 N93 1.710 . S
C398 C186 1.877 . S
C383 N54 1.834 . S
C448 C247 1.342 . S
C433 N67 1.322 . S
C498 C106 1.866 1_565 S
C483 N28 1.831 . S
C533 N41 1.721 . S
C548 C146 1.706 . S
C583 N2 1.838 . S
C598 C207 1.878 . S
C633 N15 1.323 . S
C648 C226 1.342 1_655 S
C698 C108 0.621 . S
C683 N70 0.603 . S
C748 C148 0.228 . S
C733 N83 0.137 1_545 S
C798 C204 0.599 . S
C783 N96 0.597 . S
C833 N57 0.189 . S
C848 C228 0.262 . S
C883 N18 0.607 . S
C898 C129 0.626 . S
C948 C169 0.226 . S
C933 N31 0.122 . S
C998 C215 0.598 . S
C983 N44 0.596 . S
C1033 N5 0.171 . S
C1048 C249 0.258 . S
C1083 N66 1.433 . S
C1098 C124 1.455 . S
C1133 N79 2.132 1_545 S
C1148 C164 2.191 . S
C1198 C188 1.457 . S
C1183 N92 1.482 . S
C1248 C244 2.181 . S
C1233 N53 2.127 . S
C1283 N14 1.435 . S
C1298 C135 1.468 . S
C1348 C175 2.191 . S
C1333 N27 2.132 . S
C1398 C209 1.457 . S
C1383 N40 1.478 . S
C1433 N1 2.128 . S
C1448 C255 2.182 . S
