# Generated by pormake.
# Topology pyr, (3,6)-cn, num edge types: 1
# Building blocks:
#     Node 0, Type 0, BuildingBlock: MIDCAF_clean_linker_0, # of connection points: 3
#     Node 1, Type 0, BuildingBlock: MIDCAF_clean_linker_0, # of connection points: 3
#     Node 2, Type 0, BuildingBlock: MIDCAF_clean_linker_0, # of connection points: 3
#     Node 3, Type 0, BuildingBlock: MIDCAF_clean_linker_0, # of connection points: 3
#     Node 4, Type 0, BuildingBlock: MIDCAF_clean_linker_0, # of connection points: 3
#     Node 5, Type 0, BuildingBlock: MIDCAF_clean_linker_0, # of connection points: 3
#     Node 6, Type 0, BuildingBlock: MIDCAF_clean_linker_0, # of connection points: 3
#     Node 7, Type 0, BuildingBlock: MIDCAF_clean_linker_0, # of connection points: 3
#     Node 8, Type 1, BuildingBlock: BETGAK_clean_sbu_0, # of connection points: 6
#     Node 9, Type 1, BuildingBlock: BETGAK_clean_sbu_0, # of connection points: 6
#     Node 10, Type 1, BuildingBlock: BETGAK_clean_sbu_0, # of connection points: 6
#     Node 11, Type 1, BuildingBlock: BETGAK_clean_sbu_0, # of connection points: 6
#     Edge 12, Type (0, 1), BuildingBlock: OJICUG_clean_linker_0, # of connection points: 2
#     Edge 13, Type (0, 1), BuildingBlock: OJICUG_clean_linker_0, # of connection points: 2
#     Edge 14, Type (0, 1), BuildingBlock: OJICUG_clean_linker_0, # of connection points: 2
#     Edge 15, Type (0, 1), BuildingBlock: OJICUG_clean_linker_0, # of connection points: 2
#     Edge 16, Type (0, 1), BuildingBlock: OJICUG_clean_linker_0, # of connection points: 2
#     Edge 17, Type (0, 1), BuildingBlock: OJICUG_clean_linker_0, # of connection points: 2
#     Edge 18, Type (0, 1), BuildingBlock: OJICUG_clean_linker_0, # of connection points: 2
#     Edge 19, Type (0, 1), BuildingBlock: OJICUG_clean_linker_0, # of connection points: 2
#     Edge 20, Type (0, 1), BuildingBlock: OJICUG_clean_linker_0, # of connection points: 2
#     Edge 21, Type (0, 1), BuildingBlock: OJICUG_clean_linker_0, # of connection points: 2
#     Edge 22, Type (0, 1), BuildingBlock: OJICUG_clean_linker_0, # of connection points: 2
#     Edge 23, Type (0, 1), BuildingBlock: OJICUG_clean_linker_0, # of connection points: 2
#     Edge 24, Type (0, 1), BuildingBlock: OJICUG_clean_linker_0, # of connection points: 2
#     Edge 25, Type (0, 1), BuildingBlock: OJICUG_clean_linker_0, # of connection points: 2
#     Edge 26, Type (0, 1), BuildingBlock: OJICUG_clean_linker_0, # of connection points: 2
#     Edge 27, Type (0, 1), BuildingBlock: OJICUG_clean_linker_0, # of connection points: 2
#     Edge 28, Type (0, 1), BuildingBlock: OJICUG_clean_linker_0, # of connection points: 2
#     Edge 29, Type (0, 1), BuildingBlock: OJICUG_clean_linker_0, # of connection points: 2
#     Edge 30, Type (0, 1), BuildingBlock: OJICUG_clean_linker_0, # of connection points: 2
#     Edge 31, Type (0, 1), BuildingBlock: OJICUG_clean_linker_0, # of connection points: 2
#     Edge 32, Type (0, 1), BuildingBlock: OJICUG_clean_linker_0, # of connection points: 2
#     Edge 33, Type (0, 1), BuildingBlock: OJICUG_clean_linker_0, # of connection points: 2
#     Edge 34, Type (0, 1), BuildingBlock: OJICUG_clean_linker_0, # of connection points: 2
#     Edge 35, Type (0, 1), BuildingBlock: OJICUG_clean_linker_0, # of connection points: 2
# Relax obj value: 0.138
# Max RMSD: 0.131
# Mean RMSD: 0.064
data_MOF--net-pyr--node1-BETGAK_clean_sbu_0--node2-MIDCAF_clean_linker_0--edge1-OJICUG_clean_linker_0
_symmetry_space_group_name_H-M    P1
_symmetry_Int_Tables_number       1
_symmetry_cell_setting            triclinic
loop_
_symmetry_equiv_pos_as_xyz
'x, y, z'
_cell_length_a     35.921923
_cell_length_b     38.570374
_cell_length_c     35.086819
_cell_angle_alpha  90.334587
_cell_angle_beta   88.58061
_cell_angle_gamma 101.8104
loop_
_atom_site_label
_atom_site_type_symbol
_atom_site_fract_x
_atom_site_fract_y
_atom_site_fract_z
_atom_type_partial_charge
C0 C 0.29769 0.28607 0.36171 0.0
C1 C 0.31505 0.26435 0.38452 0.0
C2 C 0.35366 0.26386 0.37773 0.0
C3 C 0.37277 0.28042 0.34553 0.0
H4 H 0.40729 0.22123 0.26321 0.0
H5 H 0.43547 0.17363 0.23726 0.0
H6 H 0.46214 0.23112 0.13168 0.0
H7 H 0.43313 0.27896 0.15729 0.0
H8 H 0.33827 0.30705 0.1451 0.0
H9 H 0.29347 0.33273 0.10844 0.0
H10 H 0.29093 0.4103 0.19717 0.0
H11 H 0.33527 0.38462 0.23385 0.0
H12 H 0.30152 0.31663 0.31064 0.0
H13 H 0.26801 0.28714 0.36619 0.0
H14 H 0.36811 0.24813 0.39546 0.0
H15 H 0.4014 0.27683 0.33911 0.0
N16 N 0.39033 0.28226 0.26542 0.0
N17 N 0.38268 0.3021 0.20365 0.0
N18 N 0.35324 0.32455 0.25619 0.0
C19 C 0.39791 0.28125 0.22744 0.0
C20 C 0.36071 0.32422 0.21803 0.0
C21 C 0.36818 0.3038 0.28011 0.0
C22 C 0.41793 0.25398 0.21225 0.0
C23 C 0.41945 0.22408 0.23457 0.0
C24 C 0.43539 0.19666 0.21975 0.0
C25 C 0.45082 0.1988 0.18259 0.0
C26 C 0.45051 0.22906 0.16056 0.0
C27 C 0.43383 0.2563 0.17513 0.0
C28 C 0.34003 0.34367 0.19249 0.0
C29 C 0.32889 0.33014 0.1563 0.0
C30 C 0.30308 0.34465 0.13544 0.0
C31 C 0.28858 0.37334 0.15009 0.0
C32 C 0.30182 0.38835 0.18503 0.0
C33 C 0.32706 0.37352 0.20613 0.0
C34 C 0.35368 0.29804 0.31982 0.0
C35 C 0.31695 0.30297 0.32968 0.0
C36 C 0.12226 0.87891 0.66557 0.0
C37 C 0.10769 0.8876 0.63105 0.0
C38 C 0.12222 0.87631 0.59657 0.0
C39 C 0.15472 0.86162 0.59643 0.0
H40 H 0.23918 0.7844 0.56247 0.0
H41 H 0.27552 0.74435 0.53196 0.0
H42 H 0.37961 0.82086 0.55077 0.0
H43 H 0.3435 0.86083 0.57964 0.0
H44 H 0.33971 0.87027 0.68707 0.0
H45 H 0.37046 0.89851 0.74381 0.0
H46 H 0.28785 0.96574 0.7514 0.0
H47 H 0.25633 0.93647 0.69593 0.0
H48 H 0.16751 0.86099 0.69241 0.0
H49 H 0.11122 0.88703 0.69246 0.0
H50 H 0.11144 0.88278 0.56952 0.0
H51 H 0.16809 0.85706 0.56936 0.0
N52 N 0.23074 0.84157 0.6027 0.0
N53 N 0.29016 0.86398 0.62981 0.0
N54 N 0.23502 0.87702 0.65763 0.0
C55 C 0.26925 0.84471 0.60228 0.0
C56 C 0.27317 0.88038 0.65734 0.0
C57 C 0.21357 0.85764 0.63076 0.0
C58 C 0.28868 0.82517 0.57455 0.0
C59 C 0.26968 0.79309 0.55871 0.0
C60 C 0.29053 0.7701 0.54143 0.0
C61 C 0.33058 0.77891 0.53989 0.0
C62 C 0.34889 0.81297 0.55141 0.0
C63 C 0.32814 0.83584 0.56852 0.0
C64 C 0.29531 0.9008 0.68766 0.0
C65 C 0.32855 0.89144 0.70064 0.0
C66 C 0.34622 0.90772 0.73303 0.0
C67 C 0.33116 0.93393 0.75252 0.0
C68 C 0.29948 0.94492 0.73771 0.0
C69 C 0.28153 0.92829 0.70585 0.0
C70 C 0.17274 0.85818 0.63078 0.0
C71 C 0.15453 0.86415 0.66544 0.0
C72 C 0.64456 0.25078 0.93776 0.0
C73 C 0.60686 0.2336 0.93018 0.0
C74 C 0.5868 0.25118 0.90474 0.0
C75 C 0.6036 0.28439 0.88796 0.0
H76 H 0.60791 0.35858 0.78361 0.0
H77 H 0.58435 0.38803 0.73002 0.0
H78 H 0.65694 0.48683 0.76148 0.0
H79 H 0.68056 0.45754 0.8145 0.0
H80 H 0.75865 0.45352 0.86596 0.0
H81 H 0.817 0.48262 0.89716 0.0
H82 H 0.80064 0.39832 0.98014 0.0
H83 H 0.74344 0.36898 0.94838 0.0
H84 H 0.68998 0.29593 0.92894 0.0
H85 H 0.66126 0.23897 0.95727 0.0
H86 H 0.55791 0.23918 0.89748 0.0
H87 H 0.58687 0.29667 0.86892 0.0
N88 N 0.64479 0.35406 0.85063 0.0
N89 N 0.69463 0.40452 0.85502 0.0
N90 N 0.69184 0.35665 0.89682 0.0
C91 C 0.66222 0.38728 0.83749 0.0
C92 C 0.70979 0.38953 0.88469 0.0
C93 C 0.65948 0.33843 0.88049 0.0
C94 C 0.64646 0.40522 0.80422 0.0
C95 C 0.61892 0.38661 0.77929 0.0
C96 C 0.60545 0.40366 0.74807 0.0
C97 C 0.61832 0.44032 0.74062 0.0
C98 C 0.6456 0.45886 0.76581 0.0
C99 C 0.65948 0.44176 0.79652 0.0
C100 C 0.74574 0.40849 0.90415 0.0
C101 C 0.76745 0.4411 0.89083 0.0
C102 C 0.80114 0.45804 0.90911 0.0
C103 C 0.81456 0.44317 0.94158 0.0
C104 C 0.79247 0.41073 0.95496 0.0
C105 C 0.75903 0.3938 0.93667 0.0
C106 C 0.64108 0.3018 0.89626 0.0
C107 C 0.66111 0.28403 0.92145 0.0
C108 C 0.75676 0.66741 0.45536 0.0
C109 C 0.73455 0.63488 0.44322 0.0
C110 C 0.74698 0.61995 0.40948 0.0
C111 C 0.78051 0.63664 0.38921 0.0
H112 H 0.85665 0.62531 0.29827 0.0
H113 H 0.88021 0.59512 0.24494 0.0
H114 H 0.97754 0.68104 0.23252 0.0
H115 H 0.95314 0.712 0.2861 0.0
H116 H 0.96345 0.78028 0.36477 0.0
H117 H 0.99046 0.83765 0.39439 0.0
H118 H 0.88171 0.83819 0.44929 0.0
H119 H 0.85581 0.78137 0.42135 0.0
H120 H 0.8056 0.70904 0.44596 0.0
H121 H 0.74831 0.68047 0.48056 0.0
H122 H 0.73115 0.59493 0.39899 0.0
H123 H 0.78898 0.624 0.36372 0.0
N124 N 0.85406 0.67275 0.35015 0.0
N125 N 0.90468 0.72275 0.34469 0.0
N126 N 0.85691 0.72046 0.39241 0.0
C127 C 0.88696 0.6897 0.3317 0.0
C128 C 0.88958 0.7385 0.37516 0.0
C129 C 0.83879 0.68777 0.38063 0.0
C130 C 0.90271 0.67151 0.29758 0.0
C131 C 0.88315 0.63813 0.28449 0.0
C132 C 0.89706 0.62039 0.2535 0.0
C133 C 0.9315 0.63482 0.23367 0.0
C134 C 0.9509 0.66857 0.24627 0.0
C135 C 0.93688 0.68646 0.27751 0.0
C136 C 0.90724 0.77522 0.39059 0.0
C137 C 0.94531 0.79268 0.38315 0.0
C138 C 0.96086 0.82598 0.40027 0.0
C139 C 0.93891 0.84333 0.42536 0.0
C140 C 0.90059 0.82609 0.43157 0.0
C141 C 0.88535 0.79301 0.41493 0.0
C142 C 0.80271 0.66912 0.40165 0.0
C143 C 0.7899 0.68411 0.43508 0.0
C144 C 0.62165 0.89331 0.88002 0.0
C145 C 0.60603 0.89086 0.9171 0.0
C146 C 0.60622 0.86041 0.93886 0.0
C147 C 0.62289 0.83325 0.92406 0.0
H148 H 0.71864 0.78218 0.95326 0.0
H149 H 0.76329 0.75602 0.9896 0.0
H150 H 0.76517 0.67882 0.90036 0.0
H151 H 0.72098 0.70497 0.86399 0.0
H152 H 0.75402 0.77311 0.78702 0.0
H153 H 0.78646 0.80207 0.73066 0.0
H154 H 0.68561 0.84045 0.70275 0.0
H155 H 0.65342 0.81229 0.75988 0.0
H156 H 0.64985 0.86903 0.83637 0.0
H157 H 0.62168 0.9165 0.86272 0.0
H158 H 0.59445 0.8581 0.96768 0.0
H159 H 0.62346 0.8104 0.94167 0.0
N160 N 0.67408 0.78761 0.89505 0.0
N161 N 0.70284 0.76505 0.84213 0.0
N162 N 0.66584 0.80752 0.83344 0.0
C163 C 0.6958 0.76541 0.88037 0.0
C164 C 0.68771 0.78587 0.81845 0.0
C165 C 0.65871 0.80855 0.8715 0.0
C166 C 0.71655 0.74577 0.90563 0.0
C167 C 0.72785 0.75907 0.94187 0.0
C168 C 0.75358 0.74429 0.96256 0.0
C169 C 0.76782 0.71555 0.94768 0.0
C170 C 0.75447 0.7008 0.91267 0.0
C171 C 0.72931 0.7159 0.89175 0.0
C172 C 0.70159 0.79142 0.77852 0.0
C173 C 0.7382 0.78653 0.76812 0.0
C174 C 0.75684 0.80311 0.73563 0.0
C175 C 0.73896 0.82449 0.71292 0.0
C176 C 0.70045 0.82498 0.72037 0.0
C177 C 0.68198 0.80874 0.75302 0.0
C178 C 0.6389 0.83585 0.88698 0.0
C179 C 0.63757 0.86597 0.86496 0.0
C180 C 0.73438 0.13334 0.36881 0.0
C181 C 0.70034 0.14318 0.35906 0.0
C182 C 0.68626 0.16794 0.3818 0.0
C183 C 0.707 0.184 0.41262 0.0
H184 H 0.70386 0.22236 0.52983 0.0
H185 H 0.67122 0.26549 0.55761 0.0
H186 H 0.7783 0.34028 0.56596 0.0
H187 H 0.81104 0.29702 0.53644 0.0
H188 H 0.881 0.22579 0.52591 0.0
H189 H 0.93955 0.20325 0.52163 0.0
H190 H 0.92835 0.19238 0.39964 0.0
H191 H 0.86965 0.21464 0.40398 0.0
H192 H 0.78231 0.14266 0.40502 0.0
H193 H 0.74601 0.11453 0.35155 0.0
H194 H 0.65993 0.17577 0.37489 0.0
H195 H 0.69631 0.20407 0.42876 0.0
N196 N 0.75306 0.2146 0.477 0.0
N197 N 0.81483 0.23818 0.4979 0.0
N198 N 0.8055 0.20006 0.44506 0.0
C199 C 0.77646 0.23516 0.50181 0.0
C200 C 0.82938 0.22064 0.46925 0.0
C201 C 0.76741 0.1968 0.44878 0.0
C202 C 0.75977 0.25682 0.52962 0.0
C203 C 0.72066 0.24768 0.53847 0.0
C204 C 0.70193 0.27242 0.55496 0.0
C205 C 0.72197 0.30683 0.56306 0.0
C206 C 0.76192 0.31429 0.55905 0.0
C207 C 0.78073 0.28944 0.54235 0.0
C208 C 0.87029 0.22074 0.46548 0.0
C209 C 0.89203 0.22024 0.49802 0.0
C210 C 0.92571 0.20746 0.49546 0.0
C211 C 0.93787 0.19521 0.46034 0.0
C212 C 0.91919 0.20106 0.4271 0.0
C213 C 0.88553 0.21365 0.42967 0.0
C214 C 0.7424 0.17592 0.42066 0.0
C215 C 0.75532 0.14969 0.3992 0.0
C216 C 0.25379 0.62886 0.18807 0.0
C217 C 0.24044 0.6438 0.1556 0.0
C218 C 0.26251 0.67633 0.14242 0.0
C219 C 0.29585 0.69327 0.1609 0.0
H220 H 0.36507 0.79126 0.16907 0.0
H221 H 0.39398 0.84854 0.1415 0.0
H222 H 0.49649 0.84819 0.2027 0.0
H223 H 0.46735 0.79042 0.23048 0.0
H224 H 0.44681 0.72799 0.31412 0.0
H225 H 0.47049 0.69843 0.36752 0.0
H226 H 0.39752 0.59977 0.33622 0.0
H227 H 0.37379 0.62919 0.28334 0.0
H228 H 0.29611 0.63329 0.23138 0.0
H229 H 0.23794 0.60421 0.19987 0.0
H230 H 0.25441 0.68882 0.11727 0.0
H231 H 0.31143 0.71816 0.14934 0.0
N232 N 0.36283 0.73041 0.2012 0.0
N233 N 0.40971 0.73279 0.24754 0.0
N234 N 0.36001 0.68229 0.24269 0.0
C235 C 0.3951 0.74858 0.21776 0.0
C236 C 0.39233 0.69948 0.26041 0.0
C237 C 0.34491 0.69742 0.21308 0.0
C238 C 0.41354 0.78533 0.20236 0.0
C239 C 0.39379 0.8032 0.17702 0.0
C240 C 0.41045 0.83662 0.16115 0.0
C241 C 0.44798 0.85386 0.16937 0.0
C242 C 0.46775 0.83615 0.19496 0.0
C243 C 0.45084 0.80278 0.21128 0.0
C244 C 0.40807 0.68143 0.29359 0.0
C245 C 0.43573 0.69997 0.31844 0.0
C246 C 0.44927 0.68285 0.34955 0.0
C247 C 0.43633 0.64621 0.35699 0.0
C248 C 0.40892 0.62773 0.33189 0.0
C249 C 0.39498 0.6449 0.30126 0.0
C250 C 0.30906 0.67848 0.19341 0.0
C251 C 0.28737 0.64579 0.20652 0.0
C252 C 0.15229 0.26098 0.6626 0.0
C253 C 0.11387 0.24394 0.66859 0.0
C254 C 0.09204 0.26131 0.6938 0.0
C255 C 0.10779 0.29441 0.71125 0.0
H256 H 0.10031 0.37488 0.80902 0.0
H257 H 0.07624 0.40587 0.86279 0.0
H258 H 0.17464 0.4908 0.85128 0.0
H259 H 0.19787 0.46062 0.79778 0.0
H260 H 0.2651 0.46212 0.73238 0.0
H261 H 0.32321 0.49116 0.69753 0.0
H262 H 0.30619 0.40599 0.61552 0.0
H263 H 0.24862 0.37746 0.64969 0.0
H264 H 0.19736 0.30535 0.67329 0.0
H265 H 0.1711 0.24885 0.64481 0.0
H266 H 0.06237 0.2498 0.69954 0.0
H267 H 0.08973 0.30682 0.72971 0.0
N268 N 0.14887 0.36388 0.75042 0.0
N269 N 0.19991 0.41356 0.74548 0.0
N270 N 0.19677 0.36612 0.70281 0.0
C271 C 0.16685 0.39674 0.76372 0.0
C272 C 0.21513 0.39862 0.71491 0.0
C273 C 0.1639 0.3482 0.71983 0.0
C274 C 0.15125 0.41489 0.79798 0.0
C275 C 0.11687 0.40021 0.81785 0.0
C276 C 0.10304 0.41811 0.84921 0.0
C277 C 0.12285 0.45161 0.86212 0.0
C278 C 0.15748 0.46576 0.84248 0.0
C279 C 0.17119 0.44801 0.81139 0.0
C280 C 0.25141 0.4172 0.69418 0.0
C281 C 0.27367 0.44956 0.70688 0.0
C282 C 0.30736 0.46623 0.68686 0.0
C283 C 0.31991 0.45139 0.65312 0.0
C284 C 0.29766 0.41898 0.64073 0.0
C285 C 0.26435 0.40229 0.66075 0.0
C286 C 0.14598 0.31167 0.70403 0.0
C287 C 0.16775 0.29386 0.67956 0.0
La288 La 0.0625 0.04873 0.52713 0.0
La289 La 0.98939 1.03926 0.56561 0.0
C290 C 0.11843 0.06078 0.48126 0.0
C291 C 0.1483 0.09224 0.47251 0.0
C292 C 0.1865 0.0907 0.47767 0.0
C293 C 0.21533 0.12015 0.46976 0.0
C294 C 0.20657 0.15167 0.45604 0.0
C295 C 0.16816 0.15336 0.45163 0.0
C296 C 0.13929 0.124 0.45995 0.0
C297 C 0.05661 1.00996 0.58991 0.0
C298 C 0.05472 0.10725 0.58832 0.0
C299 C 0.93344 1.02721 0.61145 0.0
C300 C 0.90375 0.9957 0.62049 0.0
C301 C 0.86545 0.99711 0.61582 0.0
C302 C 0.83678 0.96768 0.62431 0.0
C303 C 0.84582 0.93633 0.63815 0.0
C304 C 0.88433 0.93473 0.64198 0.0
C305 C 0.91303 0.96406 0.63307 0.0
C306 C 0.99513 0.07726 0.50232 0.0
C307 C 0.99725 0.98068 0.5045 0.0
O308 O 0.11963 0.04722 0.51515 0.0
O309 O 0.08365 0.06189 0.47169 0.0
O310 O 0.08616 1.03366 0.57985 0.0
O311 O 0.03218 1.00898 0.56487 0.0
O312 O 0.07356 0.09994 0.55731 0.0
O313 O 0.02244 0.08517 0.59873 0.0
O314 O 0.93215 1.04051 0.57744 0.0
O315 O 0.96827 1.02635 0.62109 0.0
O316 O 0.96576 0.05345 0.5126 0.0
O317 O 1.01948 0.07893 0.52761 0.0
O318 O 0.97857 0.98791 0.53566 0.0
O319 O 0.02941 1.00288 0.49393 0.0
H320 H 0.19408 0.06662 0.48775 0.0
H321 H 0.24455 0.11808 0.47407 0.0
H322 H 0.16036 0.17698 0.44059 0.0
H323 H 0.11002 0.12613 0.45609 0.0
H324 H 0.85767 1.02111 0.60573 0.0
H325 H 0.80748 0.96966 0.62042 0.0
H326 H 0.89237 0.91124 0.65307 0.0
H327 H 0.94238 0.96202 0.63656 0.0
La328 La 0.56431 0.04939 0.06346 0.0
La329 La 0.49147 1.03862 1.03779 0.0
C330 C 0.62805 0.07369 0.09201 0.0
C331 C 0.63827 0.08129 0.13176 0.0
C332 C 0.61743 0.06116 0.16135 0.0
C333 C 0.62511 0.07026 0.19928 0.0
C334 C 0.65325 0.09997 0.2081 0.0
C335 C 0.67413 0.12 0.17843 0.0
C336 C 0.66672 0.11064 0.14047 0.0
C337 C 0.52177 0.98839 0.09142 0.0
C338 C 0.50422 0.08452 0.10775 0.0
C339 C 0.42661 1.01363 1.01179 0.0
C340 C 0.41309 1.0033 0.97365 0.0
C341 C 0.43405 1.01782 0.94121 0.0
C342 C 0.42131 1.00721 0.90491 0.0
C343 C 0.38763 0.98168 0.90059 0.0
C344 C 0.36711 0.96688 0.93332 0.0
C345 C 0.37972 0.97772 0.96957 0.0
C346 C 0.53386 0.0997 1.0099 0.0
C347 C 0.55198 1.00428 0.99293 0.0
O348 O 0.61611 1.0404 0.08346 0.0
O349 O 0.60644 0.09351 0.0779 0.0
O350 O 0.55671 0.99342 0.07965 0.0
O351 O 0.51135 1.01788 0.08859 0.0
O352 O 0.54009 0.0878 0.09709 0.0
O353 O 0.47855 0.05946 0.09269 0.0
O354 O 0.43994 0.04733 1.01694 0.0
O355 O 0.44853 0.99429 1.0262 0.0
O356 O 0.49886 0.09456 1.02159 0.0
O357 O 0.54441 0.07024 1.01268 0.0
O358 O 0.516 1.00085 1.00339 0.0
O359 O 0.57757 1.02923 1.00834 0.0
H360 H 0.59475 1.03878 0.15515 0.0
H361 H 0.60848 0.05462 0.22169 0.0
H362 H 0.69624 0.14283 0.18461 0.0
H363 H 0.6827 0.12666 0.11794 0.0
H364 H 0.46022 1.03735 0.94398 0.0
H365 H 0.43756 1.01932 0.8803 0.0
H366 H 0.34149 0.94662 0.93096 0.0
H367 H 0.3636 0.96595 0.99443 0.0
La368 La 0.52554 0.51282 0.5263 0.0
La369 La 0.52955 0.57375 0.57099 0.0
C370 C 0.54491 0.46049 0.49488 0.0
C371 C 0.57255 0.44035 0.5086 0.0
C372 C 0.56289 0.40332 0.51056 0.0
C373 C 0.58786 0.38437 0.52659 0.0
C374 C 0.6229 0.40223 0.54082 0.0
C375 C 0.63235 0.43931 0.53911 0.0
C376 C 0.60738 0.45821 0.5233 0.0
C377 C 0.45962 0.51232 0.56324 0.0
C378 C 0.56041 0.51398 0.61149 0.0
C379 C 0.51051 0.62623 0.60252 0.0
C380 C 0.48306 0.64665 0.58902 0.0
C381 C 0.49209 0.68374 0.58936 0.0
C382 C 0.4671 0.70307 0.57401 0.0
C383 C 0.43273 0.68553 0.55811 0.0
C384 C 0.42405 0.64839 0.55737 0.0
C385 C 0.44897 0.62914 0.57261 0.0
C386 C 0.59534 0.57411 0.53389 0.0
C387 C 0.49457 0.57252 0.48582 0.0
O388 O 0.51401 0.4579 0.51596 0.0
O389 O 0.55892 0.49323 0.48483 0.0
O390 O 0.46326 0.50222 0.52823 0.0
O391 O 0.49278 0.52235 0.57634 0.0
O392 O 0.55693 0.49947 0.57695 0.0
O393 O 0.54924 0.54424 0.61734 0.0
O394 O 0.54133 0.62867 0.58136 0.0
O395 O 0.49623 0.5935 0.61238 0.0
O396 O 0.59184 0.58414 0.56894 0.0
O397 O 0.56213 0.56424 0.52086 0.0
O398 O 0.49818 0.58709 0.52033 0.0
O399 O 0.5057 0.54224 0.47997 0.0
H400 H 0.53594 0.38911 0.49995 0.0
H401 H 0.58016 0.35571 0.52707 0.0
H402 H 0.65905 0.45369 0.55007 0.0
H403 H 0.61526 0.48687 0.52301 0.0
H404 H 0.51847 0.6977 0.60137 0.0
H405 H 0.47422 0.73172 0.57545 0.0
H406 H 0.39793 0.63423 0.54504 0.0
H407 H 0.44162 0.60049 0.57122 0.0
La408 La 0.02864 0.50751 0.06928 0.0
La409 La 0.02685 0.57927 1.02701 0.0
C410 C 0.04752 0.44984 0.08413 0.0
C411 C 0.08461 0.43983 0.08934 0.0
C412 C 0.11122 0.45873 0.11453 0.0
C413 C 0.14595 0.44874 0.11973 0.0
C414 C 0.15514 0.41983 0.09963 0.0
C415 C 0.12874 0.40142 0.07379 0.0
C416 C 0.09379 0.41131 0.06879 0.0
C417 C 0.99278 0.54945 0.11336 0.0
C418 C 0.09798 0.57565 0.07883 0.0
C419 C 1.00807 0.63695 1.01204 0.0
C420 C 0.97101 0.64715 1.00725 0.0
C421 C 0.94415 0.6285 0.98214 0.0
C422 C 0.90952 0.63875 0.97722 0.0
C423 C 0.90067 0.6677 0.99754 0.0
C424 C 0.92729 0.68582 1.02334 0.0
C425 C 0.96215 0.67568 1.02805 0.0
C426 C 0.06255 0.53723 0.98286 0.0
C427 C 0.95742 0.51118 1.01767 0.0
O428 O 0.03713 0.47068 0.11011 0.0
O429 O 0.04062 0.45922 0.04965 0.0
O430 O 0.99605 0.51742 0.12151 0.0
O431 O 1.00779 0.55479 0.08009 0.0
O432 O 0.08488 0.54084 0.08287 0.0
O433 O 0.07934 0.59599 0.0593 0.0
O434 O 1.01793 0.61581 0.98607 0.0
O435 O 1.01545 0.62783 0.04648 0.0
O436 O 0.05937 0.56929 0.97473 0.0
O437 O 0.0476 0.53195 1.01616 0.0
O438 O 0.97049 0.546 1.01372 0.0
O439 O 0.97614 0.49079 1.03702 0.0
H440 H 0.10511 0.48103 0.13063 0.0
H441 H 0.16514 0.46321 0.14035 0.0
H442 H 0.13504 0.37935 0.05743 0.0
H443 H 0.07386 0.39659 0.04893 0.0
H444 H 0.95 0.6062 0.96586 0.0
H445 H 0.89015 0.62449 0.95663 0.0
H446 H 0.92126 0.70791 1.03986 0.0
H447 H 0.98228 0.69022 0.04784 0.0
C448 C 0.296 0.20187 0.40674 0.0
C449 C 0.2912 0.23709 0.40931 0.0
H450 H 0.27293 0.14755 0.41866 0.0
C451 C 0.26029 0.24448 0.43095 0.0
H452 H 0.31894 0.19503 0.3896 0.0
C453 C 0.23367 0.21695 0.44789 0.0
C454 C 0.23735 0.18151 0.44327 0.0
H455 H 0.256 0.27138 0.43365 0.0
H456 H 0.20966 0.22334 0.46366 0.0
C457 C 0.26941 0.17447 0.4234 0.0
C458 C 0.32105 0.95309 0.81943 0.0
C459 C 0.34629 0.94774 0.78974 0.0
H460 H 0.31435 0.96873 0.87717 0.0
C461 C 0.38549 0.95431 0.79655 0.0
H462 H 0.29061 0.94767 0.81543 0.0
C463 C 0.39906 0.96558 0.83246 0.0
C464 C 0.37368 0.9706 0.86216 0.0
H465 H 0.40567 0.95067 0.77419 0.0
H466 H 0.42934 0.9697 0.83712 0.0
C467 C 0.3346 0.96459 0.85509 0.0
C468 C 0.59796 0.49439 0.71053 0.0
C469 C 0.60359 0.45918 0.70723 0.0
H470 H 0.58017 0.53866 0.68443 0.0
C471 C 0.59517 0.44256 0.67146 0.0
H472 H 0.6035 0.50847 0.73723 0.0
C473 C 0.58201 0.46028 0.64065 0.0
C474 C 0.57604 0.49534 0.64419 0.0
H475 H 0.59926 0.41579 0.66693 0.0
H476 H 0.57614 0.44619 0.61397 0.0
C477 C 0.58429 0.5119 0.67993 0.0
C478 C 0.93969 0.5766 0.20171 0.0
C479 C 0.94694 0.61402 0.20124 0.0
H480 H 0.94752 0.52819 0.17534 0.0
C481 C 0.96907 0.6305 0.16965 0.0
H482 H 0.92381 0.56215 0.22526 0.0
C483 C 0.98308 0.6104 0.14023 0.0
C484 C 0.97566 0.57296 0.14121 0.0
H485 H 0.97561 0.65909 0.16749 0.0
H486 H 1.00061 0.62432 0.11746 0.0
C487 C 0.95367 0.55678 0.17268 0.0
C488 C 0.44281 0.13464 0.16612 0.0
C489 C 0.46578 0.16882 0.16637 0.0
H490 H 0.43701 0.08089 0.14723 0.0
C491 C 0.50257 0.17431 0.15014 0.0
H492 H 0.41426 0.12986 0.17845 0.0
C493 C 0.51589 0.14622 0.13311 0.0
C494 C 0.4923 0.11233 0.13127 0.0
H495 H 0.52084 0.20041 0.15029 0.0
H496 H 0.54406 0.15146 0.11989 0.0
C497 C 0.45581 0.10668 0.14836 0.0
C498 C 0.05477 0.91381 0.60651 0.0
C499 C 0.08609 0.91623 0.63014 0.0
H500 H 1.01949 0.94213 0.57638 0.0
C501 C 0.1021 0.94903 0.64672 0.0
H502 H 0.04206 0.8888 0.59345 0.0
C503 C 0.08994 0.97964 0.63629 0.0
C504 C 0.06118 0.97772 0.60972 0.0
H505 H 0.12656 0.95167 0.66477 0.0
H506 H 0.105 1.00505 0.64666 0.0
C507 C 0.04197 0.94435 0.59681 0.0
C508 C 0.87393 0.44079 0.98013 0.0
C509 C 0.85118 0.46094 0.96126 0.0
H510 H 0.92398 0.4401 1.01225 0.0
C511 C 0.86401 0.49817 0.96169 0.0
H512 H 0.86618 0.41217 0.98023 0.0
C513 C 0.89788 0.51435 0.98003 0.0
C514 C 0.92043 0.49408 0.99888 0.0
H515 H 0.84763 0.51511 0.94825 0.0
H516 H 0.90633 0.54295 0.97943 0.0
C517 C 0.90764 0.45696 0.99856 0.0
C518 C 0.6979 0.61919 0.50624 0.0
C519 C 0.69909 0.61707 0.46603 0.0
H520 H 0.66542 0.60729 0.55847 0.0
C521 C 0.66578 0.59865 0.44838 0.0
H522 H 0.72276 0.63229 0.52141 0.0
C523 C 0.63242 0.58401 0.47003 0.0
C524 C 0.63124 0.58705 0.51013 0.0
H525 H 0.66505 0.59636 0.41763 0.0
H526 H 0.60729 0.57087 0.45526 0.0
C527 C 0.6648 0.60448 0.52774 0.0
C528 C 0.22433 0.36049 0.12103 0.0
C529 C 0.25683 0.38533 0.13145 0.0
H530 H 0.16659 0.35179 0.10359 0.0
C531 C 0.25695 0.42157 0.12778 0.0
H532 H 0.22327 0.33237 0.12405 0.0
C533 C 0.2246 0.43279 0.11559 0.0
C534 C 0.1912 0.40799 0.10733 0.0
H535 H 0.2818 0.44127 0.13525 0.0
H536 H 0.2255 0.46095 0.11352 0.0
C537 C 0.19182 0.37168 0.10926 0.0
C538 C 0.54969 0.19113 0.96099 0.0
C539 C 0.58846 0.19839 0.94955 0.0
H540 H 0.503 0.15569 0.9886 0.0
C541 C 0.60931 0.17189 0.95787 0.0
H542 H 0.53234 0.21046 0.95602 0.0
C543 C 0.59209 0.13975 0.97667 0.0
C544 C 0.55342 0.13297 0.98837 0.0
H545 H 0.63909 0.17579 0.94957 0.0
H546 H 0.60924 0.12041 0.98243 0.0
C547 C 0.53274 0.15941 0.9801 0.0
C548 C 0.98538 0.90444 0.4297 0.0
C549 C 0.95514 0.87862 0.44546 0.0
H550 H 0.02221 0.95608 0.43503 0.0
C551 C 0.93994 0.88721 0.4811 0.0
H552 H 0.99815 0.89969 0.40242 0.0
C553 C 0.95345 0.91989 0.4995 0.0
C554 C 0.98326 0.94576 0.48365 0.0
H555 H 0.91761 0.86843 0.49549 0.0
H556 H 0.94047 0.92468 0.5267 0.0
C557 C 0.99919 0.93723 0.44843 0.0
C558 C 0.34118 0.71818 0.55265 0.0
C559 C 0.35342 0.75115 0.53459 0.0
H560 H 0.35689 0.67181 0.57447 0.0
C561 C 0.39051 0.75952 0.51866 0.0
H562 H 0.31305 0.71091 0.56572 0.0
C563 C 0.41598 0.73719 0.52436 0.0
C564 C 0.40456 0.70587 0.54552 0.0
H565 H 0.40059 0.78438 0.50389 0.0
H566 H 0.44502 0.74515 0.5137 0.0
C567 C 0.36647 0.69577 0.55798 0.0
C568 C 0.75741 0.88666 0.68957 0.0
C569 C 0.76226 0.85144 0.68737 0.0
H570 H 0.78011 0.94083 0.67655 0.0
C571 C 0.79276 0.8438 0.66527 0.0
H572 H 0.73478 0.89369 0.70703 0.0
C573 C 0.81897 0.87113 0.6475 0.0
C574 C 0.81531 0.90661 0.65173 0.0
H575 H 0.79707 0.81689 0.66283 0.0
H576 H 0.8427 0.86457 0.63139 0.0
C577 C 0.7836 0.91386 0.67208 0.0
C578 C 0.6747 0.15581 0.29656 0.0
C579 C 0.68258 0.13092 0.32261 0.0
H580 H 0.65929 0.16537 0.23962 0.0
C581 C 0.6778 0.09522 0.3117 0.0
H582 H 0.67858 0.18356 0.30415 0.0
C583 C 0.66684 0.08485 0.27478 0.0
C584 C 0.66099 0.11013 0.24816 0.0
H585 H 0.68365 0.07557 0.33138 0.0
H586 H 0.66453 0.05739 0.26657 0.0
C587 C 0.66417 0.14552 0.25957 0.0
C588 C 0.45661 0.59206 0.38698 0.0
C589 C 0.45113 0.62731 0.39029 0.0
H590 H 0.47437 0.54773 0.41302 0.0
C591 C 0.4598 0.64397 0.426 0.0
H592 H 0.45088 0.57794 0.36031 0.0
C593 C 0.47305 0.62625 0.45673 0.0
C594 C 0.47887 0.59114 0.45318 0.0
H595 H 0.45583 0.67077 0.43053 0.0
H596 H 0.47913 0.64038 0.48335 0.0
C597 C 0.47037 0.57454 0.41751 0.0
C598 C 0.11551 0.5099 0.89452 0.0
C599 C 0.10766 0.47245 0.89468 0.0
H600 H 0.10837 0.55837 0.92124 0.0
C601 C 0.08519 0.45602 0.92608 0.0
H602 H 0.13167 0.52433 0.87112 0.0
C603 C 0.07143 0.47617 0.95561 0.0
C604 C 0.07946 0.51362 0.95495 0.0
H605 H 0.07817 0.42742 0.928 0.0
H606 H 0.05359 0.46229 0.97821 0.0
C607 C 0.10178 0.52977 0.92366 0.0
C608 C 0.61384 0.95485 0.93424 0.0
C609 C 0.59092 0.92067 0.93353 0.0
H610 H 0.61944 1.00841 0.95374 0.0
C611 C 0.55401 0.91498 0.9495 0.0
H612 H 0.64247 0.95978 0.92211 0.0
C613 C 0.54053 0.94288 0.96676 0.0
C614 C 0.56407 0.97676 0.96909 0.0
H615 H 0.53579 0.88887 0.94899 0.0
H616 H 0.51229 0.93747 0.97979 0.0
C617 C 0.60067 0.98261 0.95224 0.0
C618 C 0.94754 0.13502 0.44387 0.0
C619 C 0.96186 0.16829 0.46035 0.0
H620 H 0.94737 0.07951 0.44452 0.0
C621 C 0.99367 0.17229 0.48364 0.0
H622 H 0.92287 0.131 0.42599 0.0
C623 C 1.00801 0.14268 0.49381 0.0
C624 C 0.99007 0.10875 0.48142 0.0
H625 H 1.00533 0.19769 0.49646 0.0
H626 H 0.03047 0.14597 0.51437 0.0
C627 C 0.96139 0.10541 0.45458 0.0
C628 C 0.18123 0.64613 0.11673 0.0
C629 C 0.20394 0.626 0.13571 0.0
H630 H 0.1313 0.64677 0.08439 0.0
C631 C 0.19118 0.58877 0.1352 0.0
H632 H 0.18893 0.67475 0.11668 0.0
C633 C 0.1574 0.57255 0.11672 0.0
C634 C 0.13488 0.5928 0.09777 0.0
H635 H 0.20753 0.57183 0.14871 0.0
H636 H 0.149 0.54395 0.11728 0.0
C637 C 0.14762 0.62992 0.09815 0.0
C638 C 0.35692 0.46726 0.59033 0.0
C639 C 0.35552 0.46922 0.63054 0.0
H640 H 0.38966 0.47932 0.53829 0.0
C641 C 0.38876 0.48755 0.64841 0.0
H642 H 0.33213 0.45427 0.575 0.0
C643 C 0.42225 0.50222 0.62696 0.0
C644 C 0.42362 0.49934 0.58684 0.0
H645 H 0.38934 0.48972 0.67917 0.0
H646 H 0.44731 0.51529 0.64188 0.0
C647 C 0.39014 0.48201 0.56903 0.0
C648 C 0.79897 0.66689 0.96969 0.0
C649 C 0.79942 0.70321 0.9662 0.0
H650 H 0.83001 0.62713 0.98368 0.0
C651 C 0.8321 0.72778 0.97668 0.0
H652 H 0.77398 0.6474 0.96217 0.0
C653 C 0.86447 0.71626 0.98832 0.0
C654 C 0.86476 0.67988 0.99006 0.0
H655 H 0.83341 0.75596 0.97381 0.0
H656 H 0.88985 0.73596 0.99403 0.0
C657 C 0.83117 0.65534 0.98176 0.0
C658 C 0.50546 0.89666 0.13961 0.0
C659 C 0.46655 0.88925 0.15049 0.0
H660 H 0.55247 0.93239 0.11286 0.0
C661 C 0.44575 0.91577 0.1421 0.0
H662 H 0.52278 0.87732 0.14466 0.0
C663 C 0.46317 0.94808 0.12376 0.0
C664 C 0.50199 0.95501 0.1126 0.0
H665 H 0.41586 0.91174 0.14999 0.0
H666 H 0.44607 0.96744 0.1179 0.0
C667 C 0.52261 0.92855 0.12096 0.0
C668 C 0.11272 0.20031 0.61255 0.0
C669 C 0.09743 0.20884 0.64817 0.0
H670 H 0.1121 0.16303 0.56673 0.0
C671 C 0.06687 0.18315 0.66361 0.0
H672 H 0.13531 0.219 0.59839 0.0
C673 C 0.05286 0.15053 0.6446 0.0
C674 C 0.06889 0.14204 0.60941 0.0
H675 H 0.054 0.18784 0.69085 0.0
H676 H 0.02961 0.13177 0.65778 0.0
C677 C 0.09902 0.16779 0.59388 0.0
C678 C 0.66423 0.32972 0.58477 0.0
C679 C 0.70059 0.33585 0.56709 0.0
H680 H 0.61076 0.34609 0.59014 0.0
C681 C 0.71302 0.36731 0.54625 0.0
H682 H 0.65406 0.30615 0.6017 0.0
C683 C 0.68841 0.39019 0.54 0.0
C684 C 0.65081 0.38202 0.55426 0.0
H685 H 0.74058 0.37285 0.5318 0.0
H686 H 0.69794 0.41281 0.52147 0.0
C687 C 0.63941 0.35247 0.5781 0.0
loop_
_geom_bond_atom_site_label_1
_geom_bond_atom_site_label_2
_geom_bond_distance
_geom_bond_site_symmetry_2
_ccdc_geom_bond_type
C0 C1 1.384 . S
C0 H13 0.947 . S
C0 C35 1.382 . S
C1 C0 1.384 . S
C1 C2 1.378 . S
C2 C1 1.378 . S
C2 C3 1.378 . S
C2 H14 0.952 . S
C3 C2 1.378 . S
C3 H15 0.950 . S
C3 C34 1.383 . S
H4 C23 0.947 . S
H5 C24 0.946 . S
H6 C26 0.953 . S
H7 C27 0.945 . S
H8 C29 0.952 . S
H9 C30 0.949 . S
H10 C32 0.950 . S
H11 C33 0.948 . S
H12 C35 0.951 . S
H13 C0 0.947 . S
H14 C2 0.952 . S
H15 C3 0.950 . S
N16 C19 1.382 . S
N16 C21 1.363 . S
N17 C19 1.371 . S
N17 C20 1.372 . S
N18 C20 1.361 . S
N18 C21 1.377 . S
C19 N16 1.382 . S
C19 N17 1.371 . S
C19 C22 1.480 . S
C20 N17 1.372 . S
C20 N18 1.361 . S
C20 C28 1.457 . S
C21 N16 1.363 . S
C21 N18 1.377 . S
C21 C34 1.479 . S
C22 C19 1.480 . S
C22 C23 1.383 . S
C22 C27 1.385 . S
C23 H4 0.947 . S
C23 C22 1.383 . S
C23 C24 1.388 . S
C24 H5 0.946 . S
C24 C23 1.388 . S
C24 C25 1.384 . S
C25 C24 1.384 . S
C25 C26 1.377 . S
C26 H6 0.953 . S
C26 C25 1.377 . S
C26 C27 1.369 . S
C27 H7 0.945 . S
C27 C22 1.385 . S
C27 C26 1.369 . S
C28 C20 1.457 . S
C28 C29 1.372 . S
C28 C33 1.364 . S
C29 H8 0.952 . S
C29 C28 1.372 . S
C29 C30 1.389 . S
C30 H9 0.949 . S
C30 C29 1.389 . S
C30 C31 1.387 . S
C31 C30 1.387 . S
C31 C32 1.372 . S
C32 H10 0.950 . S
C32 C31 1.372 . S
C32 C33 1.379 . S
C33 H11 0.948 . S
C33 C28 1.364 . S
C33 C32 1.379 . S
C34 C3 1.383 . S
C34 C21 1.479 . S
C34 C35 1.398 . S
C35 C0 1.382 . S
C35 H12 0.951 . S
C35 C34 1.398 . S
C36 C37 1.384 . S
C36 H49 0.947 . S
C36 C71 1.382 . S
C37 C36 1.384 . S
C37 C38 1.378 . S
C38 C37 1.378 . S
C38 C39 1.378 . S
C38 H50 0.952 . S
C39 C38 1.378 . S
C39 H51 0.950 . S
C39 C70 1.383 . S
H40 C59 0.947 . S
H41 C60 0.946 . S
H42 C62 0.953 . S
H43 C63 0.945 . S
H44 C65 0.952 . S
H45 C66 0.949 . S
H46 C68 0.950 . S
H47 C69 0.948 . S
H48 C71 0.951 . S
H49 C36 0.947 . S
H50 C38 0.952 . S
H51 C39 0.950 . S
N52 C55 1.382 . S
N52 C57 1.363 . S
N53 C55 1.371 . S
N53 C56 1.372 . S
N54 C56 1.361 . S
N54 C57 1.377 . S
C55 N52 1.382 . S
C55 N53 1.371 . S
C55 C58 1.480 . S
C56 N53 1.372 . S
C56 N54 1.361 . S
C56 C64 1.457 . S
C57 N52 1.363 . S
C57 N54 1.377 . S
C57 C70 1.479 . S
C58 C55 1.480 . S
C58 C59 1.383 . S
C58 C63 1.385 . S
C59 H40 0.947 . S
C59 C58 1.383 . S
C59 C60 1.388 . S
C60 H41 0.946 . S
C60 C59 1.388 . S
C60 C61 1.384 . S
C61 C60 1.384 . S
C61 C62 1.377 . S
C62 H42 0.953 . S
C62 C61 1.377 . S
C62 C63 1.369 . S
C63 H43 0.945 . S
C63 C58 1.385 . S
C63 C62 1.369 . S
C64 C56 1.457 . S
C64 C65 1.372 . S
C64 C69 1.364 . S
C65 H44 0.952 . S
C65 C64 1.372 . S
C65 C66 1.389 . S
C66 H45 0.949 . S
C66 C65 1.389 . S
C66 C67 1.387 . S
C67 C66 1.387 . S
C67 C68 1.372 . S
C68 H46 0.950 . S
C68 C67 1.372 . S
C68 C69 1.379 . S
C69 H47 0.948 . S
C69 C64 1.364 . S
C69 C68 1.379 . S
C70 C39 1.383 . S
C70 C57 1.479 . S
C70 C71 1.398 . S
C71 C36 1.382 . S
C71 H48 0.951 . S
C71 C70 1.398 . S
C72 C73 1.384 . S
C72 H85 0.947 . S
C72 C107 1.382 . S
C73 C72 1.384 . S
C73 C74 1.378 . S
C74 C73 1.378 . S
C74 C75 1.378 . S
C74 H86 0.952 . S
C75 C74 1.378 . S
C75 H87 0.950 . S
C75 C106 1.383 . S
H76 C95 0.947 . S
H77 C96 0.946 . S
H78 C98 0.953 . S
H79 C99 0.945 . S
H80 C101 0.952 . S
H81 C102 0.949 . S
H82 C104 0.950 . S
H83 C105 0.948 . S
H84 C107 0.951 . S
H85 C72 0.947 . S
H86 C74 0.952 . S
H87 C75 0.950 . S
N88 C91 1.382 . S
N88 C93 1.363 . S
N89 C91 1.371 . S
N89 C92 1.372 . S
N90 C92 1.361 . S
N90 C93 1.377 . S
C91 N88 1.382 . S
C91 N89 1.371 . S
C91 C94 1.480 . S
C92 N89 1.372 . S
C92 N90 1.361 . S
C92 C100 1.457 . S
C93 N88 1.363 . S
C93 N90 1.377 . S
C93 C106 1.479 . S
C94 C91 1.480 . S
C94 C95 1.383 . S
C94 C99 1.385 . S
C95 H76 0.947 . S
C95 C94 1.383 . S
C95 C96 1.388 . S
C96 H77 0.946 . S
C96 C95 1.388 . S
C96 C97 1.384 . S
C97 C96 1.384 . S
C97 C98 1.377 . S
C98 H78 0.953 . S
C98 C97 1.377 . S
C98 C99 1.369 . S
C99 H79 0.945 . S
C99 C94 1.385 . S
C99 C98 1.369 . S
C100 C92 1.457 . S
C100 C101 1.372 . S
C100 C105 1.364 . S
C101 H80 0.952 . S
C101 C100 1.372 . S
C101 C102 1.389 . S
C102 H81 0.949 . S
C102 C101 1.389 . S
C102 C103 1.387 . S
C103 C102 1.387 . S
C103 C104 1.372 . S
C104 H82 0.950 . S
C104 C103 1.372 . S
C104 C105 1.379 . S
C105 H83 0.948 . S
C105 C100 1.364 . S
C105 C104 1.379 . S
C106 C75 1.383 . S
C106 C93 1.479 . S
C106 C107 1.398 . S
C107 C72 1.382 . S
C107 H84 0.951 . S
C107 C106 1.398 . S
C108 C109 1.384 . S
C108 H121 0.947 . S
C108 C143 1.382 . S
C109 C108 1.384 . S
C109 C110 1.378 . S
C110 C109 1.378 . S
C110 C111 1.378 . S
C110 H122 0.952 . S
C111 C110 1.378 . S
C111 H123 0.950 . S
C111 C142 1.383 . S
H112 C131 0.947 . S
H113 C132 0.946 . S
H114 C134 0.953 . S
H115 C135 0.945 . S
H116 C137 0.952 . S
H117 C138 0.949 . S
H118 C140 0.950 . S
H119 C141 0.948 . S
H120 C143 0.951 . S
H121 C108 0.947 . S
H122 C110 0.952 . S
H123 C111 0.950 . S
N124 C127 1.382 . S
N124 C129 1.363 . S
N125 C127 1.371 . S
N125 C128 1.372 . S
N126 C128 1.361 . S
N126 C129 1.377 . S
C127 N124 1.382 . S
C127 N125 1.371 . S
C127 C130 1.480 . S
C128 N125 1.372 . S
C128 N126 1.361 . S
C128 C136 1.457 . S
C129 N124 1.363 . S
C129 N126 1.377 . S
C129 C142 1.479 . S
C130 C127 1.480 . S
C130 C131 1.383 . S
C130 C135 1.385 . S
C131 H112 0.947 . S
C131 C130 1.383 . S
C131 C132 1.388 . S
C132 H113 0.946 . S
C132 C131 1.388 . S
C132 C133 1.384 . S
C133 C132 1.384 . S
C133 C134 1.377 . S
C134 H114 0.953 . S
C134 C133 1.377 . S
C134 C135 1.369 . S
C135 H115 0.945 . S
C135 C130 1.385 . S
C135 C134 1.369 . S
C136 C128 1.457 . S
C136 C137 1.372 . S
C136 C141 1.364 . S
C137 H116 0.952 . S
C137 C136 1.372 . S
C137 C138 1.389 . S
C138 H117 0.949 . S
C138 C137 1.389 . S
C138 C139 1.387 . S
C139 C138 1.387 . S
C139 C140 1.372 . S
C140 H118 0.950 . S
C140 C139 1.372 . S
C140 C141 1.379 . S
C141 H119 0.948 . S
C141 C136 1.364 . S
C141 C140 1.379 . S
C142 C111 1.383 . S
C142 C129 1.479 . S
C142 C143 1.398 . S
C143 C108 1.382 . S
C143 H120 0.951 . S
C143 C142 1.398 . S
C144 C145 1.384 . S
C144 H157 0.947 . S
C144 C179 1.382 . S
C145 C144 1.384 . S
C145 C146 1.378 . S
C146 C145 1.378 . S
C146 C147 1.378 . S
C146 H158 0.952 . S
C147 C146 1.378 . S
C147 H159 0.950 . S
C147 C178 1.383 . S
H148 C167 0.947 . S
H149 C168 0.946 . S
H150 C170 0.953 . S
H151 C171 0.945 . S
H152 C173 0.952 . S
H153 C174 0.949 . S
H154 C176 0.950 . S
H155 C177 0.948 . S
H156 C179 0.951 . S
H157 C144 0.947 . S
H158 C146 0.952 . S
H159 C147 0.950 . S
N160 C163 1.382 . S
N160 C165 1.363 . S
N161 C163 1.371 . S
N161 C164 1.372 . S
N162 C164 1.361 . S
N162 C165 1.377 . S
C163 N160 1.382 . S
C163 N161 1.371 . S
C163 C166 1.480 . S
C164 N161 1.372 . S
C164 N162 1.361 . S
C164 C172 1.457 . S
C165 N160 1.363 . S
C165 N162 1.377 . S
C165 C178 1.479 . S
C166 C163 1.480 . S
C166 C167 1.383 . S
C166 C171 1.385 . S
C167 H148 0.947 . S
C167 C166 1.383 . S
C167 C168 1.388 . S
C168 H149 0.946 . S
C168 C167 1.388 . S
C168 C169 1.384 . S
C169 C168 1.384 . S
C169 C170 1.377 . S
C170 H150 0.953 . S
C170 C169 1.377 . S
C170 C171 1.369 . S
C171 H151 0.945 . S
C171 C166 1.385 . S
C171 C170 1.369 . S
C172 C164 1.457 . S
C172 C173 1.372 . S
C172 C177 1.364 . S
C173 H152 0.952 . S
C173 C172 1.372 . S
C173 C174 1.389 . S
C174 H153 0.949 . S
C174 C173 1.389 . S
C174 C175 1.387 . S
C175 C174 1.387 . S
C175 C176 1.372 . S
C176 H154 0.950 . S
C176 C175 1.372 . S
C176 C177 1.379 . S
C177 H155 0.948 . S
C177 C172 1.364 . S
C177 C176 1.379 . S
C178 C147 1.383 . S
C178 C165 1.479 . S
C178 C179 1.398 . S
C179 C144 1.382 . S
C179 H156 0.951 . S
C179 C178 1.398 . S
C180 C181 1.384 . S
C180 H193 0.947 . S
C180 C215 1.382 . S
C181 C180 1.384 . S
C181 C182 1.378 . S
C182 C181 1.378 . S
C182 C183 1.378 . S
C182 H194 0.952 . S
C183 C182 1.378 . S
C183 H195 0.950 . S
C183 C214 1.383 . S
H184 C203 0.947 . S
H185 C204 0.946 . S
H186 C206 0.953 . S
H187 C207 0.945 . S
H188 C209 0.952 . S
H189 C210 0.949 . S
H190 C212 0.950 . S
H191 C213 0.948 . S
H192 C215 0.951 . S
H193 C180 0.947 . S
H194 C182 0.952 . S
H195 C183 0.950 . S
N196 C199 1.382 . S
N196 C201 1.363 . S
N197 C199 1.371 . S
N197 C200 1.372 . S
N198 C200 1.361 . S
N198 C201 1.377 . S
C199 N196 1.382 . S
C199 N197 1.371 . S
C199 C202 1.480 . S
C200 N197 1.372 . S
C200 N198 1.361 . S
C200 C208 1.457 . S
C201 N196 1.363 . S
C201 N198 1.377 . S
C201 C214 1.479 . S
C202 C199 1.480 . S
C202 C203 1.383 . S
C202 C207 1.385 . S
C203 H184 0.947 . S
C203 C202 1.383 . S
C203 C204 1.388 . S
C204 H185 0.946 . S
C204 C203 1.388 . S
C204 C205 1.384 . S
C205 C204 1.384 . S
C205 C206 1.377 . S
C206 H186 0.953 . S
C206 C205 1.377 . S
C206 C207 1.369 . S
C207 H187 0.945 . S
C207 C202 1.385 . S
C207 C206 1.369 . S
C208 C200 1.457 . S
C208 C209 1.372 . S
C208 C213 1.364 . S
C209 H188 0.952 . S
C209 C208 1.372 . S
C209 C210 1.389 . S
C210 H189 0.949 . S
C210 C209 1.389 . S
C210 C211 1.387 . S
C211 C210 1.387 . S
C211 C212 1.372 . S
C212 H190 0.950 . S
C212 C211 1.372 . S
C212 C213 1.379 . S
C213 H191 0.948 . S
C213 C208 1.364 . S
C213 C212 1.379 . S
C214 C183 1.383 . S
C214 C201 1.479 . S
C214 C215 1.398 . S
C215 C180 1.382 . S
C215 H192 0.951 . S
C215 C214 1.398 . S
C216 C217 1.384 . S
C216 H229 0.947 . S
C216 C251 1.382 . S
C217 C216 1.384 . S
C217 C218 1.378 . S
C218 C217 1.378 . S
C218 C219 1.378 . S
C218 H230 0.952 . S
C219 C218 1.378 . S
C219 H231 0.950 . S
C219 C250 1.383 . S
H220 C239 0.947 . S
H221 C240 0.946 . S
H222 C242 0.953 . S
H223 C243 0.945 . S
H224 C245 0.952 . S
H225 C246 0.949 . S
H226 C248 0.950 . S
H227 C249 0.948 . S
H228 C251 0.951 . S
H229 C216 0.947 . S
H230 C218 0.952 . S
H231 C219 0.950 . S
N232 C235 1.382 . S
N232 C237 1.363 . S
N233 C235 1.371 . S
N233 C236 1.372 . S
N234 C236 1.361 . S
N234 C237 1.377 . S
C235 N232 1.382 . S
C235 N233 1.371 . S
C235 C238 1.480 . S
C236 N233 1.372 . S
C236 N234 1.361 . S
C236 C244 1.457 . S
C237 N232 1.363 . S
C237 N234 1.377 . S
C237 C250 1.479 . S
C238 C235 1.480 . S
C238 C239 1.383 . S
C238 C243 1.385 . S
C239 H220 0.947 . S
C239 C238 1.383 . S
C239 C240 1.388 . S
C240 H221 0.946 . S
C240 C239 1.388 . S
C240 C241 1.384 . S
C241 C240 1.384 . S
C241 C242 1.377 . S
C242 H222 0.953 . S
C242 C241 1.377 . S
C242 C243 1.369 . S
C243 H223 0.945 . S
C243 C238 1.385 . S
C243 C242 1.369 . S
C244 C236 1.457 . S
C244 C245 1.372 . S
C244 C249 1.364 . S
C245 H224 0.952 . S
C245 C244 1.372 . S
C245 C246 1.389 . S
C246 H225 0.949 . S
C246 C245 1.389 . S
C246 C247 1.387 . S
C247 C246 1.387 . S
C247 C248 1.372 . S
C248 H226 0.950 . S
C248 C247 1.372 . S
C248 C249 1.379 . S
C249 H227 0.948 . S
C249 C244 1.364 . S
C249 C248 1.379 . S
C250 C219 1.383 . S
C250 C237 1.479 . S
C250 C251 1.398 . S
C251 C216 1.382 . S
C251 H228 0.951 . S
C251 C250 1.398 . S
C252 C253 1.384 . S
C252 H265 0.947 . S
C252 C287 1.382 . S
C253 C252 1.384 . S
C253 C254 1.378 . S
C254 C253 1.378 . S
C254 C255 1.378 . S
C254 H266 0.952 . S
C255 C254 1.378 . S
C255 H267 0.950 . S
C255 C286 1.383 . S
H256 C275 0.947 . S
H257 C276 0.946 . S
H258 C278 0.953 . S
H259 C279 0.945 . S
H260 C281 0.952 . S
H261 C282 0.949 . S
H262 C284 0.950 . S
H263 C285 0.948 . S
H264 C287 0.951 . S
H265 C252 0.947 . S
H266 C254 0.952 . S
H267 C255 0.950 . S
N268 C271 1.382 . S
N268 C273 1.363 . S
N269 C271 1.371 . S
N269 C272 1.372 . S
N270 C272 1.361 . S
N270 C273 1.377 . S
C271 N268 1.382 . S
C271 N269 1.371 . S
C271 C274 1.480 . S
C272 N269 1.372 . S
C272 N270 1.361 . S
C272 C280 1.457 . S
C273 N268 1.363 . S
C273 N270 1.377 . S
C273 C286 1.479 . S
C274 C271 1.480 . S
C274 C275 1.383 . S
C274 C279 1.385 . S
C275 H256 0.947 . S
C275 C274 1.383 . S
C275 C276 1.388 . S
C276 H257 0.946 . S
C276 C275 1.388 . S
C276 C277 1.384 . S
C277 C276 1.384 . S
C277 C278 1.377 . S
C278 H258 0.953 . S
C278 C277 1.377 . S
C278 C279 1.369 . S
C279 H259 0.945 . S
C279 C274 1.385 . S
C279 C278 1.369 . S
C280 C272 1.457 . S
C280 C281 1.372 . S
C280 C285 1.364 . S
C281 H260 0.952 . S
C281 C280 1.372 . S
C281 C282 1.389 . S
C282 H261 0.949 . S
C282 C281 1.389 . S
C282 C283 1.387 . S
C283 C282 1.387 . S
C283 C284 1.372 . S
C284 H262 0.950 . S
C284 C283 1.372 . S
C284 C285 1.379 . S
C285 H263 0.948 . S
C285 C280 1.364 . S
C285 C284 1.379 . S
C286 C255 1.383 . S
C286 C273 1.479 . S
C286 C287 1.398 . S
C287 C252 1.382 . S
C287 H264 0.951 . S
C287 C286 1.398 . S
La288 C290 2.928 . S
La288 O308 2.521 . S
La288 O309 2.628 . S
La288 O310 2.554 1_545 S
La288 O311 2.757 1_545 S
La288 O312 2.470 . S
La288 O317 2.482 1_455 S
La288 O319 2.503 1_445 S
La289 C299 2.928 . S
La289 O311 2.482 1_655 S
La289 O313 2.503 1_665 S
La289 O314 2.521 . S
La289 O315 2.628 . S
La289 O316 2.554 1_565 S
La289 O317 2.757 1_565 S
La289 O318 2.470 . S
C290 La288 2.928 . S
C290 C291 1.503 . S
C290 O308 1.261 . S
C290 O309 1.243 . S
C291 C290 1.503 . S
C291 C292 1.394 . S
C291 C296 1.373 . S
C292 C291 1.394 . S
C292 C293 1.380 . S
C292 H320 0.930 . S
C293 C292 1.380 . S
C293 C294 1.376 . S
C293 H321 0.930 . S
C294 C293 1.376 . S
C294 C295 1.370 . S
C295 C294 1.370 . S
C295 C296 1.396 . S
C295 H322 0.929 . S
C296 C291 1.373 . S
C296 C295 1.396 . S
C296 H323 0.929 . S
C297 O310 1.240 . S
C297 O311 1.289 . S
C298 O312 1.258 . S
C298 O313 1.256 . S
C299 La289 2.928 . S
C299 C300 1.503 . S
C299 O314 1.261 . S
C299 O315 1.243 . S
C300 C299 1.503 . S
C300 C301 1.394 . S
C300 C305 1.373 . S
C301 C300 1.394 . S
C301 C302 1.380 . S
C301 H324 0.930 . S
C302 C301 1.380 . S
C302 C303 1.376 . S
C302 H325 0.930 . S
C303 C302 1.376 . S
C303 C304 1.370 . S
C304 C303 1.370 . S
C304 C305 1.396 . S
C304 H326 0.929 . S
C305 C300 1.373 . S
C305 C304 1.396 . S
C305 H327 0.929 . S
C306 O316 1.240 . S
C306 O317 1.289 . S
C307 O318 1.258 . S
C307 O319 1.256 . S
O308 La288 2.521 . S
O308 C290 1.261 . S
O309 La288 2.628 . S
O309 C290 1.243 . S
O310 La288 2.554 1_565 S
O310 C297 1.240 . S
O311 La288 2.757 1_565 S
O311 La289 2.482 1_455 S
O311 C297 1.289 . S
O312 La288 2.470 . S
O312 C298 1.258 . S
O313 La289 2.503 1_445 S
O313 C298 1.256 . S
O314 La289 2.521 . S
O314 C299 1.261 . S
O315 La289 2.628 . S
O315 C299 1.243 . S
O316 La289 2.554 1_545 S
O316 C306 1.240 . S
O317 La288 2.482 1_655 S
O317 La289 2.757 1_545 S
O317 C306 1.289 . S
O318 La289 2.470 . S
O318 C307 1.258 . S
O319 La288 2.503 1_665 S
O319 C307 1.256 . S
H320 C292 0.930 . S
H321 C293 0.930 . S
H322 C295 0.929 . S
H323 C296 0.929 . S
H324 C301 0.930 . S
H325 C302 0.930 . S
H326 C304 0.929 . S
H327 C305 0.929 . S
La328 C330 2.924 1_565 S
La328 O348 2.520 1_565 S
La328 O349 2.621 1_565 S
La328 O350 2.560 . S
La328 O351 2.760 . S
La328 O352 2.465 1_565 S
La328 O357 2.476 1_564 S
La328 O359 2.508 1_554 S
La329 C339 2.928 1_545 S
La329 O351 2.482 1_546 S
La329 O353 2.503 1_556 S
La329 O354 2.521 1_545 S
La329 O355 2.628 1_545 S
La329 O356 2.554 . S
La329 O357 2.757 . S
La329 O358 2.470 1_545 S
C330 La328 2.924 1_545 S
C330 C331 1.503 . S
C330 O348 1.261 . S
C330 O349 1.243 . S
C331 C330 1.503 . S
C331 C332 1.394 . S
C331 C336 1.373 . S
C332 C331 1.394 . S
C332 C333 1.380 . S
C332 H360 0.930 . S
C333 C332 1.380 . S
C333 C334 1.376 . S
C333 H361 0.930 . S
C334 C333 1.376 . S
C334 C335 1.370 . S
C335 C334 1.370 . S
C335 C336 1.396 . S
C335 H362 0.929 . S
C336 C331 1.373 . S
C336 C335 1.396 . S
C336 H363 0.929 . S
C337 O350 1.240 . S
C337 O351 1.289 . S
C338 O352 1.258 . S
C338 O353 1.256 . S
C339 La329 2.928 1_565 S
C339 C340 1.503 . S
C339 O354 1.261 . S
C339 O355 1.243 . S
C340 C339 1.503 . S
C340 C341 1.394 . S
C340 C345 1.373 . S
C341 C340 1.394 . S
C341 C342 1.380 . S
C341 H364 0.930 . S
C342 C341 1.380 . S
C342 C343 1.376 . S
C342 H365 0.930 . S
C343 C342 1.376 . S
C343 C344 1.370 . S
C344 C343 1.370 . S
C344 C345 1.396 . S
C344 H366 0.929 . S
C345 C340 1.373 . S
C345 C344 1.396 . S
C345 H367 0.929 . S
C346 O356 1.240 . S
C346 O357 1.289 . S
C347 O358 1.258 . S
C347 O359 1.256 . S
O348 La328 2.520 1_545 S
O348 C330 1.261 . S
O349 La328 2.621 1_545 S
O349 C330 1.243 . S
O350 La328 2.560 . S
O350 C337 1.240 . S
O351 La328 2.760 . S
O351 La329 2.482 1_564 S
O351 C337 1.289 . S
O352 La328 2.465 1_545 S
O352 C338 1.258 . S
O353 La329 2.503 1_554 S
O353 C338 1.256 . S
O354 La329 2.521 1_565 S
O354 C339 1.261 . S
O355 La329 2.628 1_565 S
O355 C339 1.243 . S
O356 La329 2.554 . S
O356 C346 1.240 . S
O357 La328 2.476 1_546 S
O357 La329 2.757 . S
O357 C346 1.289 . S
O358 La329 2.470 1_565 S
O358 C347 1.258 . S
O359 La328 2.508 1_556 S
O359 C347 1.256 . S
H360 C332 0.930 . S
H361 C333 0.930 . S
H362 C335 0.929 . S
H363 C336 0.929 . S
H364 C341 0.930 . S
H365 C342 0.930 . S
H366 C344 0.929 . S
H367 C345 0.929 . S
La368 C370 2.928 . S
La368 O388 2.521 . S
La368 O389 2.628 . S
La368 O390 2.554 . S
La368 O391 2.757 . S
La368 O392 2.470 . S
La368 O397 2.482 . S
La368 O399 2.503 . S
La369 C379 2.928 . S
La369 O391 2.482 . S
La369 O393 2.503 . S
La369 O394 2.521 . S
La369 O395 2.628 . S
La369 O396 2.554 . S
La369 O397 2.757 . S
La369 O398 2.470 . S
C370 La368 2.928 . S
C370 C371 1.503 . S
C370 O388 1.261 . S
C370 O389 1.243 . S
C371 C370 1.503 . S
C371 C372 1.394 . S
C371 C376 1.373 . S
C372 C371 1.394 . S
C372 C373 1.380 . S
C372 H400 0.930 . S
C373 C372 1.380 . S
C373 C374 1.376 . S
C373 H401 0.930 . S
C374 C373 1.376 . S
C374 C375 1.370 . S
C375 C374 1.370 . S
C375 C376 1.396 . S
C375 H402 0.929 . S
C376 C371 1.373 . S
C376 C375 1.396 . S
C376 H403 0.929 . S
C377 O390 1.240 . S
C377 O391 1.289 . S
C378 O392 1.258 . S
C378 O393 1.256 . S
C379 La369 2.928 . S
C379 C380 1.503 . S
C379 O394 1.261 . S
C379 O395 1.243 . S
C380 C379 1.503 . S
C380 C381 1.394 . S
C380 C385 1.373 . S
C381 C380 1.394 . S
C381 C382 1.380 . S
C381 H404 0.930 . S
C382 C381 1.380 . S
C382 C383 1.376 . S
C382 H405 0.930 . S
C383 C382 1.376 . S
C383 C384 1.370 . S
C384 C383 1.370 . S
C384 C385 1.396 . S
C384 H406 0.929 . S
C385 C380 1.373 . S
C385 C384 1.396 . S
C385 H407 0.929 . S
C386 O396 1.240 . S
C386 O397 1.289 . S
C387 O398 1.258 . S
C387 O399 1.256 . S
O388 La368 2.521 . S
O388 C370 1.261 . S
O389 La368 2.628 . S
O389 C370 1.243 . S
O390 La368 2.554 . S
O390 C377 1.240 . S
O391 La368 2.757 . S
O391 La369 2.482 . S
O391 C377 1.289 . S
O392 La368 2.470 . S
O392 C378 1.258 . S
O393 La369 2.503 . S
O393 C378 1.256 . S
O394 La369 2.521 . S
O394 C379 1.261 . S
O395 La369 2.628 . S
O395 C379 1.243 . S
O396 La369 2.554 . S
O396 C386 1.240 . S
O397 La368 2.482 . S
O397 La369 2.757 . S
O397 C386 1.289 . S
O398 La369 2.470 . S
O398 C387 1.258 . S
O399 La368 2.503 . S
O399 C387 1.256 . S
H400 C372 0.930 . S
H401 C373 0.930 . S
H402 C375 0.929 . S
H403 C376 0.929 . S
H404 C381 0.930 . S
H405 C382 0.930 . S
H406 C384 0.929 . S
H407 C385 0.929 . S
La408 C410 2.928 . S
La408 O428 2.521 . S
La408 O429 2.628 . S
La408 O430 2.554 1_455 S
La408 O431 2.757 1_455 S
La408 O432 2.470 . S
La408 O437 2.482 1_554 S
La408 O439 2.503 1_454 S
La409 C419 2.926 . S
La409 O431 2.481 1_556 S
La409 O433 2.505 1_656 S
La409 O434 2.520 . S
La409 O435 2.626 . S
La409 O436 2.555 1_655 S
La409 O437 2.758 1_655 S
La409 O438 2.469 . S
C410 La408 2.928 . S
C410 C411 1.503 . S
C410 O428 1.261 . S
C410 O429 1.243 . S
C411 C410 1.503 . S
C411 C412 1.394 . S
C411 C416 1.373 . S
C412 C411 1.394 . S
C412 C413 1.380 . S
C412 H440 0.930 . S
C413 C412 1.380 . S
C413 C414 1.376 . S
C413 H441 0.930 . S
C414 C413 1.376 . S
C414 C415 1.370 . S
C415 C414 1.370 . S
C415 C416 1.396 . S
C415 H442 0.929 . S
C416 C411 1.373 . S
C416 C415 1.396 . S
C416 H443 0.929 . S
C417 O430 1.240 . S
C417 O431 1.289 . S
C418 O432 1.258 . S
C418 O433 1.256 . S
C419 La409 2.926 . S
C419 C420 1.503 . S
C419 O434 1.261 . S
C419 O435 1.243 . S
C420 C419 1.503 . S
C420 C421 1.394 . S
C420 C425 1.373 . S
C421 C420 1.394 . S
C421 C422 1.380 . S
C421 H444 0.930 . S
C422 C421 1.380 . S
C422 C423 1.376 . S
C422 H445 0.930 . S
C423 C422 1.376 . S
C423 C424 1.370 . S
C424 C423 1.370 . S
C424 C425 1.396 . S
C424 H446 0.929 . S
C425 C420 1.373 . S
C425 C424 1.396 . S
C425 H447 0.929 . S
C426 O436 1.240 . S
C426 O437 1.289 . S
C427 O438 1.258 . S
C427 O439 1.256 . S
O428 La408 2.521 . S
O428 C410 1.261 . S
O429 La408 2.628 . S
O429 C410 1.243 . S
O430 La408 2.554 1_655 S
O430 C417 1.240 . S
O431 La408 2.757 1_655 S
O431 La409 2.481 1_554 S
O431 C417 1.289 . S
O432 La408 2.470 . S
O432 C418 1.258 . S
O433 La409 2.505 1_454 S
O433 C418 1.256 . S
O434 La409 2.520 . S
O434 C419 1.261 . S
O435 La409 2.626 . S
O435 C419 1.243 . S
O436 La409 2.555 1_455 S
O436 C426 1.240 . S
O437 La408 2.482 1_556 S
O437 La409 2.758 1_455 S
O437 C426 1.289 . S
O438 La409 2.469 . S
O438 C427 1.258 . S
O439 La408 2.503 1_656 S
O439 C427 1.256 . S
H440 C412 0.930 . S
H441 C413 0.930 . S
H442 C415 0.929 . S
H443 C416 0.929 . S
H444 C421 0.930 . S
H445 C422 0.930 . S
H446 C424 0.929 . S
H447 C425 0.929 . S
C448 C449 1.387 . S
C448 H452 0.950 . S
C448 C457 1.390 . S
C449 C448 1.387 . S
C449 C451 1.387 . S
H450 C457 0.950 . S
C451 C449 1.387 . S
C451 C453 1.390 . S
C451 H455 0.950 . S
H452 C448 0.950 . S
C453 C451 1.390 . S
C453 C454 1.387 . S
C453 H456 0.950 . S
C454 C453 1.387 . S
C454 C457 1.387 . S
H455 C451 0.950 . S
H456 C453 0.950 . S
C457 C448 1.390 . S
C457 H450 0.950 . S
C457 C454 1.387 . S
C458 C459 1.387 . S
C458 H462 0.950 . S
C458 C467 1.390 . S
C459 C458 1.387 . S
C459 C461 1.387 . S
H460 C467 0.950 . S
C461 C459 1.387 . S
C461 C463 1.390 . S
C461 H465 0.950 . S
H462 C458 0.950 . S
C463 C461 1.390 . S
C463 C464 1.387 . S
C463 H466 0.950 . S
C464 C463 1.387 . S
C464 C467 1.387 . S
H465 C461 0.950 . S
H466 C463 0.950 . S
C467 C458 1.390 . S
C467 H460 0.950 . S
C467 C464 1.387 . S
C468 C469 1.387 . S
C468 H472 0.950 . S
C468 C477 1.390 . S
C469 C468 1.387 . S
C469 C471 1.387 . S
H470 C477 0.950 . S
C471 C469 1.387 . S
C471 C473 1.390 . S
C471 H475 0.950 . S
H472 C468 0.950 . S
C473 C471 1.390 . S
C473 C474 1.387 . S
C473 H476 0.950 . S
C474 C473 1.387 . S
C474 C477 1.387 . S
H475 C471 0.950 . S
H476 C473 0.950 . S
C477 C468 1.390 . S
C477 H470 0.950 . S
C477 C474 1.387 . S
C478 C479 1.387 . S
C478 H482 0.950 . S
C478 C487 1.390 . S
C479 C478 1.387 . S
C479 C481 1.387 . S
H480 C487 0.950 . S
C481 C479 1.387 . S
C481 C483 1.390 . S
C481 H485 0.950 . S
H482 C478 0.950 . S
C483 C481 1.390 . S
C483 C484 1.387 . S
C483 H486 0.950 . S
C484 C483 1.387 . S
C484 C487 1.387 . S
H485 C481 0.950 . S
H486 C483 0.950 . S
C487 C478 1.390 . S
C487 H480 0.950 . S
C487 C484 1.387 . S
C488 C489 1.387 . S
C488 H492 0.950 . S
C488 C497 1.390 . S
C489 C488 1.387 . S
C489 C491 1.387 . S
H490 C497 0.950 . S
C491 C489 1.387 . S
C491 C493 1.390 . S
C491 H495 0.950 . S
H492 C488 0.950 . S
C493 C491 1.390 . S
C493 C494 1.387 . S
C493 H496 0.950 . S
C494 C493 1.387 . S
C494 C497 1.387 . S
H495 C491 0.950 . S
H496 C493 0.950 . S
C497 C488 1.390 . S
C497 H490 0.950 . S
C497 C494 1.387 . S
C498 C499 1.387 . S
C498 H502 0.950 . S
C498 C507 1.390 . S
C499 C498 1.387 . S
C499 C501 1.387 . S
H500 C507 0.950 . S
C501 C499 1.387 . S
C501 C503 1.390 . S
C501 H505 0.950 . S
H502 C498 0.950 . S
C503 C501 1.390 . S
C503 C504 1.387 . S
C503 H506 0.950 . S
C504 C503 1.387 . S
C504 C507 1.387 . S
H505 C501 0.950 . S
H506 C503 0.950 . S
C507 C498 1.390 . S
C507 H500 0.950 . S
C507 C504 1.387 . S
C508 C509 1.387 . S
C508 H512 0.950 . S
C508 C517 1.390 . S
C509 C508 1.387 . S
C509 C511 1.387 . S
H510 C517 0.950 . S
C511 C509 1.387 . S
C511 C513 1.390 . S
C511 H515 0.950 . S
H512 C508 0.950 . S
C513 C511 1.390 . S
C513 C514 1.387 . S
C513 H516 0.950 . S
C514 C513 1.387 . S
C514 C517 1.387 . S
H515 C511 0.950 . S
H516 C513 0.950 . S
C517 C508 1.390 . S
C517 H510 0.950 . S
C517 C514 1.387 . S
C518 C519 1.387 . S
C518 H522 0.950 . S
C518 C527 1.390 . S
C519 C518 1.387 . S
C519 C521 1.387 . S
H520 C527 0.950 . S
C521 C519 1.387 . S
C521 C523 1.390 . S
C521 H525 0.950 . S
H522 C518 0.950 . S
C523 C521 1.390 . S
C523 C524 1.387 . S
C523 H526 0.950 . S
C524 C523 1.387 . S
C524 C527 1.387 . S
H525 C521 0.950 . S
H526 C523 0.950 . S
C527 C518 1.390 . S
C527 H520 0.950 . S
C527 C524 1.387 . S
C528 C529 1.387 . S
C528 H532 0.950 . S
C528 C537 1.390 . S
C529 C528 1.387 . S
C529 C531 1.387 . S
H530 C537 0.950 . S
C531 C529 1.387 . S
C531 C533 1.390 . S
C531 H535 0.950 . S
H532 C528 0.950 . S
C533 C531 1.390 . S
C533 C534 1.387 . S
C533 H536 0.950 . S
C534 C533 1.387 . S
C534 C537 1.387 . S
H535 C531 0.950 . S
H536 C533 0.950 . S
C537 C528 1.390 . S
C537 H530 0.950 . S
C537 C534 1.387 . S
C538 C539 1.387 . S
C538 H542 0.950 . S
C538 C547 1.390 . S
C539 C538 1.387 . S
C539 C541 1.387 . S
H540 C547 0.950 . S
C541 C539 1.387 . S
C541 C543 1.390 . S
C541 H545 0.950 . S
H542 C538 0.950 . S
C543 C541 1.390 . S
C543 C544 1.387 . S
C543 H546 0.950 . S
C544 C543 1.387 . S
C544 C547 1.387 . S
H545 C541 0.950 . S
H546 C543 0.950 . S
C547 C538 1.390 . S
C547 H540 0.950 . S
C547 C544 1.387 . S
C548 C549 1.387 . S
C548 H552 0.950 . S
C548 C557 1.390 . S
C549 C548 1.387 . S
C549 C551 1.387 . S
H550 C557 0.977 . S
C551 C549 1.387 . S
C551 C553 1.390 . S
C551 H555 0.950 . S
H552 C548 0.950 . S
C553 C551 1.390 . S
C553 C554 1.387 . S
C553 H556 0.950 . S
C554 C553 1.387 . S
C554 C557 1.387 . S
H555 C551 0.950 . S
H556 C553 0.950 . S
C557 C548 1.390 . S
C557 H550 0.977 . S
C557 C554 1.387 . S
C558 C559 1.387 . S
C558 H562 0.950 . S
C558 C567 1.390 . S
C559 C558 1.387 . S
C559 C561 1.387 . S
H560 C567 0.950 . S
C561 C559 1.387 . S
C561 C563 1.390 . S
C561 H565 0.950 . S
H562 C558 0.950 . S
C563 C561 1.390 . S
C563 C564 1.387 . S
C563 H566 0.950 . S
C564 C563 1.387 . S
C564 C567 1.387 . S
H565 C561 0.950 . S
H566 C563 0.950 . S
C567 C558 1.390 . S
C567 H560 0.950 . S
C567 C564 1.387 . S
C568 C569 1.387 . S
C568 H572 0.950 . S
C568 C577 1.390 . S
C569 C568 1.387 . S
C569 C571 1.387 . S
H570 C577 0.950 . S
C571 C569 1.387 . S
C571 C573 1.390 . S
C571 H575 0.950 . S
H572 C568 0.950 . S
C573 C571 1.390 . S
C573 C574 1.387 . S
C573 H576 0.950 . S
C574 C573 1.387 . S
C574 C577 1.387 . S
H575 C571 0.950 . S
H576 C573 0.950 . S
C577 C568 1.390 . S
C577 H570 0.950 . S
C577 C574 1.387 . S
C578 C579 1.387 . S
C578 H582 0.950 . S
C578 C587 1.390 . S
C579 C578 1.387 . S
C579 C581 1.387 . S
H580 C587 0.950 . S
C581 C579 1.387 . S
C581 C583 1.390 . S
C581 H585 0.950 . S
H582 C578 0.950 . S
C583 C581 1.390 . S
C583 C584 1.387 . S
C583 H586 0.950 . S
C584 C583 1.387 . S
C584 C587 1.387 . S
H585 C581 0.950 . S
H586 C583 0.950 . S
C587 C578 1.390 . S
C587 H580 0.950 . S
C587 C584 1.387 . S
C588 C589 1.387 . S
C588 H592 0.950 . S
C588 C597 1.390 . S
C589 C588 1.387 . S
C589 C591 1.387 . S
H590 C597 0.950 . S
C591 C589 1.387 . S
C591 C593 1.390 . S
C591 H595 0.950 . S
H592 C588 0.950 . S
C593 C591 1.390 . S
C593 C594 1.387 . S
C593 H596 0.950 . S
C594 C593 1.387 . S
C594 C597 1.387 . S
H595 C591 0.950 . S
H596 C593 0.950 . S
C597 C588 1.390 . S
C597 H590 0.950 . S
C597 C594 1.387 . S
C598 C599 1.387 . S
C598 H602 0.950 . S
C598 C607 1.390 . S
C599 C598 1.387 . S
C599 C601 1.387 . S
H600 C607 0.950 . S
C601 C599 1.387 . S
C601 C603 1.390 . S
C601 H605 0.950 . S
H602 C598 0.950 . S
C603 C601 1.390 . S
C603 C604 1.387 . S
C603 H606 0.950 . S
C604 C603 1.387 . S
C604 C607 1.387 . S
H605 C601 0.950 . S
H606 C603 0.950 . S
C607 C598 1.390 . S
C607 H600 0.950 . S
C607 C604 1.387 . S
C608 C609 1.387 . S
C608 H612 0.950 . S
C608 C617 1.390 . S
C609 C608 1.387 . S
C609 C611 1.387 . S
H610 C617 0.950 . S
C611 C609 1.387 . S
C611 C613 1.390 . S
C611 H615 0.950 . S
H612 C608 0.950 . S
C613 C611 1.390 . S
C613 C614 1.387 . S
C613 H616 0.950 . S
C614 C613 1.387 . S
C614 C617 1.387 . S
H615 C611 0.950 . S
H616 C613 0.950 . S
C617 C608 1.390 . S
C617 H610 0.950 . S
C617 C614 1.387 . S
C618 C619 1.387 . S
C618 H622 0.950 . S
C618 C627 1.390 . S
C619 C618 1.387 . S
C619 C621 1.387 . S
H620 C627 0.950 . S
C621 C619 1.387 . S
C621 C623 1.390 . S
C621 H625 0.950 . S
H622 C618 0.950 . S
C623 C621 1.390 . S
C623 C624 1.387 . S
C623 H626 0.950 . S
C624 C623 1.387 . S
C624 C627 1.387 . S
H625 C621 0.950 . S
H626 C623 0.950 . S
C627 C618 1.390 . S
C627 H620 0.950 . S
C627 C624 1.387 . S
C628 C629 1.387 . S
C628 H632 0.950 . S
C628 C637 1.390 . S
C629 C628 1.387 . S
C629 C631 1.387 . S
H630 C637 0.950 . S
C631 C629 1.387 . S
C631 C633 1.390 . S
C631 H635 0.950 . S
H632 C628 0.950 . S
C633 C631 1.390 . S
C633 C634 1.387 . S
C633 H636 0.950 . S
C634 C633 1.387 . S
C634 C637 1.387 . S
H635 C631 0.950 . S
H636 C633 0.950 . S
C637 C628 1.390 . S
C637 H630 0.950 . S
C637 C634 1.387 . S
C638 C639 1.387 . S
C638 H642 0.950 . S
C638 C647 1.390 . S
C639 C638 1.387 . S
C639 C641 1.387 . S
H640 C647 0.950 . S
C641 C639 1.387 . S
C641 C643 1.390 . S
C641 H645 0.950 . S
H642 C638 0.950 . S
C643 C641 1.390 . S
C643 C644 1.387 . S
C643 H646 0.950 . S
C644 C643 1.387 . S
C644 C647 1.387 . S
H645 C641 0.950 . S
H646 C643 0.950 . S
C647 C638 1.390 . S
C647 H640 0.950 . S
C647 C644 1.387 . S
C648 C649 1.387 . S
C648 H652 0.950 . S
C648 C657 1.390 . S
C649 C648 1.387 . S
C649 C651 1.387 . S
H650 C657 0.950 . S
C651 C649 1.387 . S
C651 C653 1.390 . S
C651 H655 0.950 . S
H652 C648 0.950 . S
C653 C651 1.390 . S
C653 C654 1.387 . S
C653 H656 0.950 . S
C654 C653 1.387 . S
C654 C657 1.387 . S
H655 C651 0.950 . S
H656 C653 0.950 . S
C657 C648 1.390 . S
C657 H650 0.950 . S
C657 C654 1.387 . S
C658 C659 1.387 . S
C658 H662 0.950 . S
C658 C667 1.390 . S
C659 C658 1.387 . S
C659 C661 1.387 . S
H660 C667 0.950 . S
C661 C659 1.387 . S
C661 C663 1.390 . S
C661 H665 0.950 . S
H662 C658 0.950 . S
C663 C661 1.390 . S
C663 C664 1.387 . S
C663 H666 0.950 . S
C664 C663 1.387 . S
C664 C667 1.387 . S
H665 C661 0.950 . S
H666 C663 0.950 . S
C667 C658 1.390 . S
C667 H660 0.950 . S
C667 C664 1.387 . S
C668 C669 1.387 . S
C668 H672 0.950 . S
C668 C677 1.390 . S
C669 C668 1.387 . S
C669 C671 1.387 . S
H670 C677 0.950 . S
C671 C669 1.387 . S
C671 C673 1.390 . S
C671 H675 0.950 . S
H672 C668 0.950 . S
C673 C671 1.390 . S
C673 C674 1.387 . S
C673 H676 0.950 . S
C674 C673 1.387 . S
C674 C677 1.387 . S
H675 C671 0.950 . S
H676 C673 0.950 . S
C677 C668 1.390 . S
C677 H670 0.950 . S
C677 C674 1.387 . S
C678 C679 1.387 . S
C678 H682 0.950 . S
C678 C687 1.390 . S
C679 C678 1.387 . S
C679 C681 1.387 . S
H680 C687 0.950 . S
C681 C679 1.387 . S
C681 C683 1.390 . S
C681 H685 0.950 . S
H682 C678 0.950 . S
C683 C681 1.390 . S
C683 C684 1.387 . S
C683 H686 0.950 . S
C684 C683 1.387 . S
C684 C687 1.387 . S
H685 C681 0.950 . S
H686 C683 0.950 . S
C687 C678 1.390 . S
C687 H680 0.950 . S
C687 C684 1.387 . S
C449 C1 1.340 . S
C454 C294 1.393 . S
C459 C67 1.083 . S
C464 C343 1.081 . S
C474 C378 2.492 . S
C469 C97 2.549 . S
C479 C133 2.497 . S
C484 C417 2.433 . S
C494 C338 2.615 . S
C489 C25 2.450 . S
C504 C297 0.823 . S
C499 C37 0.846 . S
C514 C427 1.919 . S
C509 C103 1.998 . S
C524 C386 1.721 . S
C519 C109 1.744 . S
C529 C31 1.721 . S
C534 C414 1.815 . S
C544 C346 2.329 . S
C539 C73 2.438 . S
C549 C139 2.387 . S
C554 C307 2.373 . S
C559 C61 1.082 . S
C564 C383 1.125 . S
C574 C303 1.393 . S
C569 C175 1.264 . S
C579 C181 1.048 . S
C584 C334 1.065 . S
C589 C247 2.576 . S
C594 C387 2.511 . S
C599 C277 2.481 . S
C604 C426 2.418 . S
C609 C145 2.325 . S
C614 C347 2.604 . S
C624 C306 0.828 . S
C619 C211 0.845 . S
C634 C418 1.911 . S
C629 C217 1.968 . S
C644 C377 1.738 . S
C639 C283 1.754 . S
C649 C169 1.621 . S
C654 C423 1.808 . S
C664 C337 2.335 . S
C659 C241 2.446 . S
C674 C298 2.357 . S
C669 C253 2.378 . S
C679 C205 1.117 . S
C684 C374 1.133 . S
