# Generated by pormake.
# Topology ssa, (4,4)-cn, num edge types: 1
# Building blocks:
#     Node 0, Type 0, BuildingBlock: ESEHIV_clean_sbu_0, # of connection points: 4
#     Node 1, Type 0, BuildingBlock: ESEHIV_clean_sbu_0, # of connection points: 4
#     Node 2, Type 0, BuildingBlock: ESEHIV_clean_sbu_0, # of connection points: 4
#     Node 3, Type 0, BuildingBlock: ESEHIV_clean_sbu_0, # of connection points: 4
#     Node 4, Type 0, BuildingBlock: ESEHIV_clean_sbu_0, # of connection points: 4
#     Node 5, Type 0, BuildingBlock: ESEHIV_clean_sbu_0, # of connection points: 4
#     Node 6, Type 1, BuildingBlock: KUFVIS_clean_linker_0, # of connection points: 4
#     Node 7, Type 1, BuildingBlock: KUFVIS_clean_linker_0, # of connection points: 4
#     Node 8, Type 1, BuildingBlock: KUFVIS_clean_linker_0, # of connection points: 4
#     Node 9, Type 1, BuildingBlock: KUFVIS_clean_linker_0, # of connection points: 4
#     Node 10, Type 1, BuildingBlock: KUFVIS_clean_linker_0, # of connection points: 4
#     Node 11, Type 1, BuildingBlock: KUFVIS_clean_linker_0, # of connection points: 4
#     Edge 12, Type (0, 1), BuildingBlock: KIFKEQ_clean_linker_1, # of connection points: 2
#     Edge 13, Type (0, 1), BuildingBlock: KIFKEQ_clean_linker_1, # of connection points: 2
#     Edge 14, Type (0, 1), BuildingBlock: KIFKEQ_clean_linker_1, # of connection points: 2
#     Edge 15, Type (0, 1), BuildingBlock: KIFKEQ_clean_linker_1, # of connection points: 2
#     Edge 16, Type (0, 1), BuildingBlock: KIFKEQ_clean_linker_1, # of connection points: 2
#     Edge 17, Type (0, 1), BuildingBlock: KIFKEQ_clean_linker_1, # of connection points: 2
#     Edge 18, Type (0, 1), BuildingBlock: KIFKEQ_clean_linker_1, # of connection points: 2
#     Edge 19, Type (0, 1), BuildingBlock: KIFKEQ_clean_linker_1, # of connection points: 2
#     Edge 20, Type (0, 1), BuildingBlock: KIFKEQ_clean_linker_1, # of connection points: 2
#     Edge 21, Type (0, 1), BuildingBlock: KIFKEQ_clean_linker_1, # of connection points: 2
#     Edge 22, Type (0, 1), BuildingBlock: KIFKEQ_clean_linker_1, # of connection points: 2
#     Edge 23, Type (0, 1), BuildingBlock: KIFKEQ_clean_linker_1, # of connection points: 2
#     Edge 24, Type (0, 1), BuildingBlock: KIFKEQ_clean_linker_1, # of connection points: 2
#     Edge 25, Type (0, 1), BuildingBlock: KIFKEQ_clean_linker_1, # of connection points: 2
#     Edge 26, Type (0, 1), BuildingBlock: KIFKEQ_clean_linker_1, # of connection points: 2
#     Edge 27, Type (0, 1), BuildingBlock: KIFKEQ_clean_linker_1, # of connection points: 2
#     Edge 28, Type (0, 1), BuildingBlock: KIFKEQ_clean_linker_1, # of connection points: 2
#     Edge 29, Type (0, 1), BuildingBlock: KIFKEQ_clean_linker_1, # of connection points: 2
#     Edge 30, Type (0, 1), BuildingBlock: KIFKEQ_clean_linker_1, # of connection points: 2
#     Edge 31, Type (0, 1), BuildingBlock: KIFKEQ_clean_linker_1, # of connection points: 2
#     Edge 32, Type (0, 1), BuildingBlock: KIFKEQ_clean_linker_1, # of connection points: 2
#     Edge 33, Type (0, 1), BuildingBlock: KIFKEQ_clean_linker_1, # of connection points: 2
#     Edge 34, Type (0, 1), BuildingBlock: KIFKEQ_clean_linker_1, # of connection points: 2
#     Edge 35, Type (0, 1), BuildingBlock: KIFKEQ_clean_linker_1, # of connection points: 2
# Relax obj value: 0.006
# Max RMSD: 0.108
# Mean RMSD: 0.074
data_MOF--net-ssa--node1-ESEHIV_clean_sbu_0--node2-KUFVIS_clean_linker_0--edge1-KIFKEQ_clean_linker_1
_symmetry_space_group_name_H-M    P1
_symmetry_Int_Tables_number       1
_symmetry_cell_setting            triclinic
loop_
_symmetry_equiv_pos_as_xyz
'x, y, z'
_cell_length_a     52.483771
_cell_length_b     56.539107
_cell_length_c     32.079104
_cell_angle_alpha  88.177697
_cell_angle_beta   90.711731
_cell_angle_gamma 122.54974
loop_
_atom_site_label
_atom_site_type_symbol
_atom_site_fract_x
_atom_site_fract_y
_atom_site_fract_z
_atom_type_partial_charge
Cu0 Cu 0.05755 0.55282 -0.00449 0.0
N1 N 0.0481 0.53038 0.94943 0.0
N2 N 1.02264 0.49031 0.91514 0.0
C3 C 1.02718 0.50273 0.95201 0.0
C4 C 0.04178 0.51116 0.88816 0.0
C5 C 0.05746 0.53598 0.90946 0.0
O6 O 1.01954 0.54972 0.00911 0.0
C7 C 0.09701 0.53876 0.02255 0.0
O8 O 0.10453 0.54593 0.98313 0.0
H9 H 1.01554 0.49203 0.98076 0.0
H10 H 0.07407 0.55656 0.89668 0.0
N11 N 0.08826 0.59071 -0.01248 0.0
N12 N 0.1262 0.63257 0.00806 0.0
C13 C 0.10796 0.60508 0.01804 0.0
C14 C 0.09447 0.60987 0.95668 0.0
C15 C 0.11775 0.6359 0.96956 0.0
C16 C 1.0101 0.55873 0.97962 0.0
O17 O 1.0266 0.56968 0.94573 0.0
H18 H 0.10798 0.59573 0.04802 0.0
H19 H 0.08252 0.60552 0.92743 0.0
O20 O 0.07444 0.5389 0.03675 0.0
H21 H 0.04382 0.50885 0.85523 0.0
H22 H 0.12744 0.65569 0.95232 0.0
Cu23 Cu 0.5567 0.0308 0.49775 0.0
N24 N 0.57024 1.02137 0.45118 0.0
N25 N 0.57598 0.99442 0.40754 0.0
C26 C 0.5659 0.99594 0.44527 0.0
C27 C 0.5872 1.01998 0.38907 0.0
C28 C 0.58369 0.03657 0.41608 0.0
O29 O 0.51999 0.99576 0.51578 0.0
C30 C 0.61387 0.06764 0.52951 0.0
O31 O 0.61903 0.07568 0.49001 0.0
H32 H 0.55449 0.97856 0.46764 0.0
H33 H 0.59005 0.05802 0.41022 0.0
N34 N 0.54839 0.0586 0.48541 0.0
N35 N 0.53855 0.09165 0.4979 0.0
C36 C 0.54547 0.07358 0.5146 0.0
C37 C 0.54331 0.06756 0.44873 0.0
C38 C 0.53735 0.08809 0.45635 0.0
C39 C 0.49365 0.99151 0.51174 0.0
O40 O 0.49098 1.0128 0.50194 0.0
H41 H 0.54824 0.07106 0.54761 0.0
H42 H 0.5433 0.0594 0.4187 0.0
O43 O 0.58795 0.04662 0.54017 0.0
H44 H 0.59707 0.02621 0.35813 0.0
H45 H 0.53168 0.09889 0.43326 0.0
Cu46 Cu 0.52018 0.50406 0.0135 0.0
N47 N 0.51394 0.46811 0.01505 0.0
N48 N 0.51425 0.4317 -0.0102 0.0
C49 C 0.51927 0.45748 0.98171 0.0
C50 C 0.50517 0.42583 0.03013 0.0
C51 C 0.50508 0.44837 0.04567 0.0
O52 O 0.55795 0.52744 0.98315 0.0
C53 C 0.45895 0.48186 -0.0043 0.0
O54 O 0.45607 0.45743 0.00135 0.0
H55 H 0.52657 0.46864 0.95191 0.0
H56 H 0.49914 0.45024 0.07701 0.0
N57 N 0.52499 0.52069 0.06469 0.0
N58 N 0.52856 0.55359 0.10589 0.0
C59 C 0.52537 0.54459 0.06663 0.0
C60 C 0.52794 0.51396 0.10427 0.0
C61 C 0.53014 0.53428 0.12985 0.0
C62 C 0.58094 0.53043 0.00223 0.0
O63 O 0.57716 0.5193 0.04 0.0
H64 H 0.52276 0.55485 0.03937 0.0
H65 H 0.52856 0.49577 0.11386 0.0
O66 O 0.48538 0.5037 -0.00913 0.0
H67 H 0.49952 0.40688 0.0475 0.0
H68 H 0.53305 0.5349 0.16333 0.0
Cu69 Cu 1.02892 0.52291 0.49468 0.0
N70 N 1.03645 0.5101 0.44631 0.0
N71 N 0.06023 0.49494 0.40874 0.0
C72 C 0.04974 0.49533 0.44671 0.0
C73 C 0.05242 0.50943 0.38314 0.0
C74 C 1.03795 0.51896 0.40649 0.0
O75 O 0.06652 0.55831 0.50712 0.0
C76 C 0.98706 0.47061 0.52438 0.0
O77 O 0.97666 0.47178 0.48741 0.0
H78 H 0.05394 0.48711 0.4751 0.0
H79 H 1.03158 0.53342 0.3959 0.0
N80 N 0.99934 0.53157 0.48851 0.0
N81 N 0.96605 0.54176 0.5103 0.0
C82 C 0.98916 0.53877 0.52091 0.0
C83 C 0.98209 0.52983 0.45591 0.0
C84 C 0.96149 0.53613 0.46929 0.0
C85 C 0.09273 0.56255 0.50186 0.0
O86 O 0.09532 0.5409 0.49791 0.0
H87 H 0.99782 0.5405 0.5522 0.0
H88 H 0.98366 0.52359 0.42503 0.0
O89 O 1.01224 0.49188 0.53587 0.0
H90 H 0.05921 0.51503 0.35077 0.0
H91 H 0.94431 0.53618 0.45036 0.0
Cu92 Cu 0.54491 1.0211 0.00378 0.0
N93 N 0.52542 0.03062 0.96412 0.0
N94 N 0.5141 0.05803 0.92742 0.0
C95 C 0.52833 0.05576 0.96119 0.0
C96 C 0.50166 0.03319 0.90845 0.0
C97 C 0.50884 1.01638 0.93105 0.0
O98 O 0.58223 0.05692 0.0148 0.0
C99 C 0.49269 0.9799 0.04426 0.0
O100 O 0.48545 0.97301 0.00521 0.0
H101 H 0.54118 0.07223 0.98311 0.0
H102 H 0.50324 0.99564 0.92321 0.0
N103 N 0.55337 0.99565 0.98248 0.0
N104 N 0.55896 0.95919 0.98242 0.0
C105 C 0.54891 0.97281 0.00366 0.0
C106 C 0.56665 0.99654 0.9463 0.0
C107 C 0.57039 0.9741 0.94634 0.0
C108 C 0.60866 0.06151 0.01062 0.0
O109 O 0.61182 0.0401 0.0079 0.0
H110 H 0.53968 0.96699 0.03498 0.0
H111 H 0.57395 1.01282 0.92228 0.0
O112 O 0.51826 1.00201 0.05191 0.0
H113 H 0.48937 0.02795 0.87937 0.0
H114 H 0.581 0.96934 0.92213 0.0
Cu115 Cu 0.5564 0.52719 0.47769 0.0
N116 N 0.58146 0.56121 0.44873 0.0
N117 N 0.59995 0.60526 0.4255 0.0
C118 C 0.57685 0.58241 0.44524 0.0
C119 C 0.61987 0.59807 0.41602 0.0
C120 C 0.60836 0.57083 0.43038 0.0
O121 O 0.51467 0.51428 0.4638 0.0
C122 C 0.5912 0.55179 0.55012 0.0
O123 O 0.60494 0.57516 0.52745 0.0
H124 H 0.55737 0.5814 0.45816 0.0
H125 H 0.61908 0.55906 0.42834 0.0
N126 N 0.56373 0.49993 0.46158 0.0
N127 N 0.57111 0.46477 0.47329 0.0
C128 C 0.57331 0.48774 0.48861 0.0
C129 C 0.55536 0.48438 0.4273 0.0
C130 C 0.55991 0.46261 0.43444 0.0
C131 C 0.50001 0.52487 0.47603 0.0
O132 O 0.51186 0.54419 0.50439 0.0
H133 H 0.57931 0.49424 0.52033 0.0
H134 H 0.54486 0.4875 0.40026 0.0
O135 O 0.56647 0.53087 0.53701 0.0
H136 H 0.64112 0.61143 0.39971 0.0
H137 H 0.55398 0.44582 0.41343 0.0
H138 H 0.36675 0.49482 0.23857 0.0
H139 H 0.30873 0.50998 0.30997 0.0
H140 H 0.29496 0.49686 0.17709 0.0
H141 H 0.27506 0.52354 0.18382 0.0
H142 H 0.1975 0.50744 0.2523 0.0
H143 H 0.25703 0.48611 0.30894 0.0
C144 C 0.34757 0.49717 0.24001 0.0
C145 C 0.33222 0.49599 0.20335 0.0
C146 C 0.33913 0.50208 0.27838 0.0
C147 C 0.31472 0.50575 0.28018 0.0
C148 C 0.29797 0.50356 0.24389 0.0
C149 C 0.30739 0.49903 0.2054 0.0
C150 C 0.27032 0.50514 0.24634 0.0
C151 C 0.26155 0.51571 0.21205 0.0
C152 C 0.23537 0.51666 0.21436 0.0
C153 C 0.21798 0.50712 0.25069 0.0
C154 C 0.22572 0.49627 0.28457 0.0
C155 C 0.25181 0.49525 0.28265 0.0
H156 H 0.71287 0.17784 0.78744 0.0
H157 H 0.78772 0.24966 0.8428 0.0
H158 H 0.78889 0.23486 0.71085 0.0
H159 H 0.82186 0.27968 0.70422 0.0
H160 H 0.90535 0.34059 0.76003 0.0
H161 H 0.8359 0.27607 0.83776 0.0
C162 C 0.73482 0.19723 0.78408 0.0
C163 C 0.74875 0.20546 0.74489 0.0
C164 C 0.74906 0.21278 0.81937 0.0
C165 C 0.77786 0.23755 0.81522 0.0
C166 C 0.79306 0.24653 0.77598 0.0
C167 C 0.77809 0.2296 0.74112 0.0
C168 C 0.82431 0.27303 0.77144 0.0
C169 C 0.8357 0.28685 0.73184 0.0
C170 C 0.86535 0.31056 0.72758 0.0
C171 C 0.88314 0.32139 0.76295 0.0
C172 C 0.87217 0.3095 0.80243 0.0
C173 C 0.84316 0.28516 0.80675 0.0
H174 H 0.57235 0.70688 0.26266 0.0
H175 H 0.54638 0.75274 0.18366 0.0
H176 H 0.59451 0.78814 0.29896 0.0
H177 H 0.56439 0.80731 0.29561 0.0
H178 H 0.56923 0.86753 0.20578 0.0
H179 H 0.57531 0.79964 0.16389 0.0
C180 C 0.57171 0.72556 0.25644 0.0
C181 C 0.58477 0.7472 0.28474 0.0
C182 C 0.55812 0.72751 0.22012 0.0
C183 C 0.55734 0.75165 0.21182 0.0
C184 C 0.57026 0.77397 0.24021 0.0
C185 C 0.58393 0.77135 0.27698 0.0
C186 C 0.57 0.80002 0.23104 0.0
C187 C 0.56709 0.8149 0.26354 0.0
C188 C 0.56645 0.83911 0.25444 0.0
C189 C 0.56946 0.84876 0.213 0.0
C190 C 0.57244 0.83454 0.18056 0.0
C191 C 0.57259 0.81019 0.18943 0.0
H192 H 0.88553 0.55797 0.77502 0.0
H193 H 0.81094 0.54392 0.84888 0.0
H194 H 0.81025 0.55349 0.7141 0.0
H195 H 0.76117 0.53121 0.72164 0.0
H196 H 0.70211 0.5466 0.78937 0.0
H197 H 0.78336 0.56266 0.84746 0.0
C198 C 0.86355 0.55542 0.77699 0.0
C199 C 0.84874 0.55518 0.74034 0.0
C200 C 0.85017 0.5517 0.81611 0.0
C201 C 0.82122 0.54748 0.81843 0.0
C202 C 0.8062 0.54847 0.78187 0.0
C203 C 0.82042 0.5521 0.74283 0.0
C204 C 0.77658 0.5469 0.78433 0.0
C205 C 0.75648 0.53822 0.74983 0.0
C206 C 0.72965 0.53813 0.75164 0.0
C207 C 0.72266 0.54642 0.78794 0.0
C208 C 0.74174 0.55494 0.82234 0.0
C209 C 0.76858 0.55517 0.82073 0.0
H210 H 0.20338 0.70546 0.28352 0.0
H211 H 0.27975 0.77988 0.23161 0.0
H212 H 0.2774 0.7582 0.36329 0.0
H213 H 0.31265 0.80126 0.37132 0.0
H214 H 0.39428 0.86859 0.31601 0.0
H215 H 0.32682 0.80695 0.23711 0.0
C216 C 0.22528 0.72454 0.28795 0.0
C217 C 0.23813 0.73069 0.3278 0.0
C218 C 0.24085 0.74185 0.25334 0.0
C219 C 0.26934 0.76638 0.25881 0.0
C220 C 0.28355 0.77331 0.29836 0.0
C221 C 0.26752 0.75458 0.33262 0.0
C222 C 0.31472 0.79974 0.30346 0.0
C223 C 0.32605 0.81085 0.3434 0.0
C224 C 0.35521 0.83487 0.34792 0.0
C225 C 0.37259 0.84912 0.31244 0.0
C226 C 0.36194 0.83956 0.27252 0.0
C227 C 0.33353 0.81455 0.26825 0.0
H228 H 0.55306 0.36071 0.73037 0.0
H229 H 0.52118 0.28215 0.79524 0.0
H230 H 0.54754 0.29366 0.66479 0.0
H231 H 0.52036 0.24865 0.66263 0.0
H232 H 0.51302 0.17869 0.72957 0.0
H233 H 0.53347 0.25074 0.79694 0.0
C234 C 0.54796 0.33939 0.73059 0.0
C235 C 0.55034 0.32836 0.69354 0.0
C236 C 0.53782 0.32289 0.76744 0.0
C237 C 0.52996 0.29482 0.76685 0.0
C238 C 0.5337 0.28352 0.73015 0.0
C239 C 0.54392 0.30089 0.69356 0.0
C240 C 0.52735 0.25406 0.72996 0.0
C241 C 0.52153 0.23953 0.69213 0.0
C242 C 0.51666 0.21253 0.69187 0.0
C243 C 0.51651 0.19944 0.72955 0.0
C244 C 0.52206 0.21304 0.76716 0.0
C245 C 0.52792 0.24035 0.76747 0.0
H246 H 0.14001 0.52942 -0.00247 0.0
H247 H 0.10014 0.53815 0.10832 0.0
H248 H 0.1774 0.52715 0.03984 0.0
H249 H 0.13747 0.53531 0.15103 0.0
H250 H 0.22525 0.5589 0.21248 0.0
H251 H 0.19188 0.56409 0.16466 0.0
H252 H 0.18307 0.4975 0.09079 0.0
H253 H 0.21687 0.49271 0.13862 0.0
C254 C 0.13901 0.53055 0.03106 0.0
C255 C 0.11709 0.53405 0.04957 0.0
C256 C 0.16047 0.52916 0.05531 0.0
C257 C 0.1607 0.53134 0.09877 0.0
C258 C 0.13827 0.53409 0.1175 0.0
C259 C 0.11663 0.53536 0.09315 0.0
C260 C 0.21698 0.54609 0.18515 0.0
C261 C 0.22378 0.52557 0.17895 0.0
C262 C 0.19743 0.54867 0.15822 0.0
C263 C 0.18421 0.53075 0.12447 0.0
C264 C 0.19285 0.51164 0.1165 0.0
C265 C 0.21246 0.50906 0.14355 0.0
H266 H 0.67264 0.11022 0.51651 0.0
H267 H 0.60572 0.06628 0.61395 0.0
H268 H 0.70731 0.14432 0.56665 0.0
H269 H 0.64049 0.10033 0.66404 0.0
H270 H 0.69046 0.18561 0.72397 0.0
H271 H 0.65976 0.15105 0.67226 0.0
H272 H 0.73771 0.1506 0.63207 0.0
H273 H 0.76863 0.18528 0.68464 0.0
C274 C 0.66548 0.10758 0.54876 0.0
C275 C 0.6363 0.08563 0.56117 0.0
C276 C 0.68542 0.12709 0.57748 0.0
C277 C 0.6765 0.12524 0.61914 0.0
C278 C 0.64783 0.10257 0.63195 0.0
C279 C 0.62799 0.08291 0.60333 0.0
C280 C 0.70113 0.17824 0.70401 0.0
C281 C 0.73189 0.18792 0.70872 0.0
C282 C 0.68348 0.1583 0.67457 0.0
C283 C 0.69614 0.14762 0.64873 0.0
C284 C 0.7273 0.15837 0.65172 0.0
C285 C 0.74504 0.17833 0.68157 0.0
H286 H 0.51626 0.56433 0.18269 0.0
H287 H 0.54411 0.60011 0.05804 0.0
H288 H 0.51906 0.60667 0.20383 0.0
H289 H 0.54542 0.64168 0.07858 0.0
H290 H 0.58525 0.72496 0.15068 0.0
H291 H 0.57558 0.68201 0.11963 0.0
H292 H 0.49578 0.63329 0.19693 0.0
H293 H 0.50627 0.6764 0.22862 0.0
C294 C 0.52285 0.58109 0.15972 0.0
C295 C 0.52991 0.57858 0.11863 0.0
C296 C 0.52401 0.60528 0.17167 0.0
C297 C 0.53224 0.62762 0.14283 0.0
C298 C 0.53915 0.62504 0.10172 0.0
C299 C 0.53807 0.60093 0.08982 0.0
C300 C 0.56494 0.70515 0.15954 0.0
C301 C 0.54619 0.70395 0.19141 0.0
C302 C 0.55947 0.68044 0.14208 0.0
C303 C 0.53515 0.65403 0.15627 0.0
C304 C 0.51507 0.65316 0.18588 0.0
C305 C 0.52066 0.67786 0.20343 0.0
H306 H 0.90812 0.52861 0.50094 0.0
H307 H 0.98481 0.5685 0.58353 0.0
H308 H 0.87839 0.53581 0.55098 0.0
H309 H 0.95491 0.57414 0.63419 0.0
H310 H 0.90411 0.59741 0.71281 0.0
H311 H 0.93164 0.59794 0.65173 0.0
H312 H 0.8542 0.51773 0.61694 0.0
H313 H 0.82635 0.51813 0.67718 0.0
C314 C 0.91875 0.53907 0.52955 0.0
C315 C 0.94886 0.54768 0.53825 0.0
C316 C 0.90157 0.54293 0.55852 0.0
C317 C 0.91409 0.55549 0.59688 0.0
C318 C 0.94446 0.56477 0.60488 0.0
C319 C 0.96158 0.56109 0.57595 0.0
C320 C 0.89285 0.58025 0.69147 0.0
C321 C 0.86323 0.55768 0.69967 0.0
C322 C 0.90867 0.58036 0.65668 0.0
C323 C 0.89546 0.55758 0.62968 0.0
C324 C 0.86512 0.53574 0.63672 0.0
C325 C 0.84912 0.53588 0.67127 0.0
H326 H 0.43672 0.93271 0.03575 0.0
H327 H 0.50323 0.98187 0.12886 0.0
H328 H 0.40516 0.89771 0.08889 0.0
H329 H 0.4711 0.94691 0.18259 0.0
H330 H 0.42283 0.86491 0.25963 0.0
H331 H 0.45386 0.89917 0.2049 0.0
H332 H 0.3736 0.88915 0.14828 0.0
H333 H 0.34258 0.85468 0.20298 0.0
C334 C 0.44451 0.93625 0.06771 0.0
C335 C 0.47261 0.96017 0.07797 0.0
C336 C 0.42626 0.91614 0.09829 0.0
C337 C 0.43555 0.91931 0.1401 0.0
C338 C 0.46341 0.94353 0.15058 0.0
C339 C 0.48173 0.96374 0.11987 0.0
C340 C 0.41179 0.86988 0.23529 0.0
C341 C 0.38021 0.8571 0.23574 0.0
C342 C 0.42962 0.88971 0.20409 0.0
C343 C 0.41636 0.89731 0.17242 0.0
C344 C 0.38463 0.88372 0.17199 0.0
C345 C 0.36678 0.86383 0.20323 0.0
H346 H 0.6053 0.47442 0.54235 0.0
H347 H 0.54446 0.40886 0.45961 0.0
H348 H 0.60298 0.43979 0.59078 0.0
H349 H 0.54407 0.37404 0.50671 0.0
H350 H 0.51304 0.31963 0.6287 0.0
H351 H 0.52204 0.35167 0.56997 0.0
H352 H 0.61413 0.40715 0.61123 0.0
H353 H 0.604 0.3757 0.67147 0.0
C354 C 0.59175 0.45259 0.53408 0.0
C355 C 0.57439 0.44451 0.49744 0.0
C356 C 0.59082 0.43258 0.56174 0.0
C357 C 0.57301 0.40381 0.55323 0.0
C358 C 0.55745 0.39588 0.515 0.0
C359 C 0.55801 0.41595 0.48755 0.0
C360 C 0.5353 0.3385 0.62459 0.0
C361 C 0.55783 0.34536 0.6544 0.0
C362 C 0.54062 0.35687 0.59078 0.0
C363 C 0.5688 0.38236 0.58571 0.0
C364 C 0.5919 0.38819 0.61447 0.0
C365 C 0.58631 0.37008 0.64876 0.0
H366 H 0.5679 0.98103 0.32625 0.0
H367 H 0.57777 0.95243 0.44813 0.0
H368 H 0.56273 0.93979 0.29563 0.0
H369 H 0.57245 0.91078 0.41732 0.0
H370 H 0.60108 0.86327 0.32385 0.0
H371 H 0.60178 0.89929 0.36577 0.0
H372 H 0.52438 0.88776 0.29826 0.0
H373 H 0.52373 0.85203 0.25681 0.0
C374 C 0.56913 0.966 0.34649 0.0
C375 C 0.57329 0.97006 0.38961 0.0
C376 C 0.56584 0.94218 0.32902 0.0
C377 C 0.56693 0.92188 0.35412 0.0
C378 C 0.57151 0.92605 0.39721 0.0
C379 C 0.57438 0.94978 0.41484 0.0
C380 C 0.58368 0.86784 0.31907 0.0
C381 C 0.56251 0.85506 0.28692 0.0
C382 C 0.58414 0.88853 0.34285 0.0
C383 C 0.56352 0.89677 0.33464 0.0
C384 C 0.54096 0.88231 0.30471 0.0
C385 C 0.54044 0.86171 0.28122 0.0
H386 H 0.59623 0.54977 0.92107 0.0
H387 H 0.63287 0.53855 0.03599 0.0
H388 H 0.64317 0.56357 0.88504 0.0
H389 H 0.67972 0.55246 2e-05 0.0
H390 H 0.72593 0.52765 0.89787 0.0
H391 H 0.69148 0.52845 0.94751 0.0
H392 H 0.69823 0.59852 0.87856 0.0
H393 H 0.73251 0.59745 0.82892 0.0
C394 C 0.61447 0.55079 0.93881 0.0
C395 C 0.61064 0.54275 0.98125 0.0
C396 C 0.64147 0.55885 0.91825 0.0
C397 C 0.66514 0.55899 0.93971 0.0
C398 C 0.66181 0.55228 0.98258 0.0
C399 C 0.63493 0.54436 0.00314 0.0
C400 C 0.72121 0.54407 0.89464 0.0
C401 C 0.73175 0.56245 0.85972 0.0
C402 C 0.70129 0.54444 0.92284 0.0
C403 C 0.69163 0.56318 0.91637 0.0
C404 C 0.70481 0.5835 0.88387 0.0
C405 C 0.72474 0.58316 0.85584 0.0
H406 H 0.09508 0.61232 0.50098 0.0
H407 H 0.14876 0.57764 0.47381 0.0
H408 H 0.13348 0.65691 0.46807 0.0
H409 H 0.1866 0.62181 0.43984 0.0
H410 H 0.25677 0.70783 0.38875 0.0
H411 H 0.22513 0.67093 0.44075 0.0
H412 H 0.14744 0.67203 0.39755 0.0
H413 H 0.1791 0.70923 0.34713 0.0
C414 C 0.11528 0.61431 0.48864 0.0
C415 C 0.11857 0.59119 0.48972 0.0
C416 C 0.13725 0.63986 0.46939 0.0
C417 C 0.16301 0.64296 0.45048 0.0
C418 C 0.16725 0.62042 0.45417 0.0
C419 C 0.14537 0.59493 0.4736 0.0
C420 C 0.23308 0.70061 0.39119 0.0
C421 C 0.22041 0.71129 0.36354 0.0
C422 C 0.21484 0.67924 0.42068 0.0
C423 C 0.18355 0.6682 0.42334 0.0
C424 C 0.17138 0.68004 0.39701 0.0
C425 C 0.18953 0.70125 0.36766 0.0
H426 H 0.55662 0.11261 0.9426 0.0
H427 H 0.47235 0.05943 0.87874 0.0
H428 H 0.55836 0.15406 0.91477 0.0
H429 H 0.47464 0.10084 0.84971 0.0
H430 H 0.47455 0.1771 0.81683 0.0
H431 H 0.47186 0.14117 0.8646 0.0
H432 H 0.56748 0.17706 0.84643 0.0
H433 H 0.56995 0.21313 0.79952 0.0
C434 C 0.53825 0.1097 0.92307 0.0
C435 C 0.51436 0.08259 0.9128 0.0
C436 C 0.5394 0.13352 0.90682 0.0
C437 C 0.51665 0.13085 0.88001 0.0
C438 C 0.49234 0.10374 0.87074 0.0
C439 C 0.49123 0.07994 0.88689 0.0
C440 C 0.49514 0.17792 0.82468 0.0
C441 C 0.52253 0.19799 0.80523 0.0
C442 C 0.49358 0.15714 0.85143 0.0
C443 C 0.51936 0.15595 0.85885 0.0
C444 C 0.54724 0.17744 0.84177 0.0
C445 C 0.54876 0.19821 0.81506 0.0
H446 H 0.47234 0.48927 0.4117 0.0
H447 H 0.46429 0.54594 0.48945 0.0
H448 H 0.43027 0.4825 0.36989 0.0
H449 H 0.4212 0.53841 0.44818 0.0
H450 H 0.37448 0.54669 0.32797 0.0
H451 H 0.41035 0.55032 0.38095 0.0
H452 H 0.37797 0.46275 0.3662 0.0
H453 H 0.34333 0.4598 0.31218 0.0
C454 C 0.46123 0.49991 0.42042 0.0
C455 C 0.47187 0.51823 0.45397 0.0
C456 C 0.43682 0.49587 0.39649 0.0
C457 C 0.4221 0.50986 0.40549 0.0
C458 C 0.43215 0.52754 0.43989 0.0
C459 C 0.45674 0.53169 0.46382 0.0
C460 C 0.37471 0.52817 0.33688 0.0
C461 C 0.35628 0.503 0.31607 0.0
C462 C 0.39523 0.53016 0.36725 0.0
C463 C 0.39751 0.50693 0.37759 0.0
C464 C 0.37752 0.4813 0.35842 0.0
C465 C 0.35739 0.47945 0.32779 0.0
H466 H 1.02486 0.46007 0.85284 0.0
H467 H 0.97109 0.45398 0.95838 0.0
H468 H 0.98763 0.41129 0.83758 0.0
H469 H 0.9346 0.40493 0.94425 0.0
H470 H 0.85901 0.33694 0.85704 0.0
H471 H 0.89668 0.37925 0.89234 0.0
H472 H 0.96557 0.36296 0.86083 0.0
H473 H 0.92778 0.32102 0.8246 0.0
C474 C 1.00526 0.44833 0.87296 0.0
C475 C 1.00109 0.46111 0.90676 0.0
C476 C 0.98409 0.42016 0.86467 0.0
C477 C 0.95819 0.40402 0.88996 0.0
C478 C 0.95422 0.4167 0.9241 0.0
C479 C 0.97536 0.44486 0.93237 0.0
C480 C 0.88189 0.34164 0.85965 0.0
C481 C 0.89055 0.32579 0.83823 0.0
C482 C 0.90362 0.36607 0.87952 0.0
C483 C 0.93435 0.37494 0.87839 0.0
C484 C 0.94225 0.35713 0.86129 0.0
C485 C 0.92055 0.33281 0.84128 0.0
H486 H 0.95713 0.51084 0.96212 0.0
H487 H 0.99608 0.59765 -0.00949 0.0
H488 H 0.91274 0.5087 0.93283 0.0
H489 H 0.95136 0.59551 0.96276 0.0
H490 H 0.90571 0.59465 0.83744 0.0
H491 H 0.93896 0.59476 0.89083 0.0
H492 H 0.86793 0.5117 0.93326 0.0
H493 H 0.83456 0.51168 0.8787 0.0
C494 C 0.95533 0.52898 0.9643 0.0
C495 C 0.97975 0.55429 0.97912 0.0
C496 C 0.92995 0.52785 0.94727 0.0
C497 C 0.92864 0.5521 0.94461 0.0
C498 C 0.95183 0.57658 0.96347 0.0
C499 C 0.97726 0.57774 0.98006 0.0
C500 C 0.89698 0.57667 0.8588 0.0
C501 C 0.86762 0.55315 0.85389 0.0
C502 C 0.91598 0.57676 0.88972 0.0
C503 C 0.90625 0.55323 0.91662 0.0
C504 C 0.87626 0.53012 0.91299 0.0
C505 C 0.85705 0.53016 0.88203 0.0
H506 H 0.49053 0.94171 0.52466 0.0
H507 H 0.43653 0.97552 0.48824 0.0
H508 H 0.45064 0.89569 0.50118 0.0
H509 H 0.39759 0.93027 0.46292 0.0
H510 H 0.33133 0.85074 0.40844 0.0
H511 H 0.35945 0.88241 0.46523 0.0
H512 H 0.43747 0.87924 0.43372 0.0
H513 H 0.40895 0.84695 0.37896 0.0
C514 C 0.46992 0.93923 0.51243 0.0
C515 C 0.46706 0.96249 0.50747 0.0
C516 C 0.44708 0.91285 0.49863 0.0
C517 C 0.42108 0.90924 0.47901 0.0
C518 C 0.41708 0.93195 0.4779 0.0
C519 C 0.43969 0.95817 0.49218 0.0
C520 C 0.35406 0.85597 0.41503 0.0
C521 C 0.36816 0.84677 0.38908 0.0
C522 C 0.37037 0.87441 0.44717 0.0
C523 C 0.40108 0.88405 0.45365 0.0
C524 C 0.41394 0.87237 0.4302 0.0
C525 C 0.39764 0.85392 0.39845 0.0
H526 H 0.48894 0.37496 -0.00583 0.0
H527 H 0.54928 0.44955 0.91992 0.0
H528 H 0.49571 0.34662 0.94492 0.0
H529 H 0.55466 0.42137 0.87008 0.0
H530 H 0.58175 0.371 0.80254 0.0
H531 H 0.57703 0.39557 0.85995 0.0
H532 H 0.4832 0.32881 0.87552 0.0
H533 H 0.48853 0.30374 0.81871 0.0
C534 C 0.50366 0.38538 0.96751 0.0
C535 C 0.5184 0.41467 0.96118 0.0
C536 C 0.5073 0.36905 0.93895 0.0
C537 C 0.52583 0.38159 0.90338 0.0
C538 C 0.54062 0.41086 0.89733 0.0
C539 C 0.5371 0.42711 0.9258 0.0
C540 C 0.56024 0.36142 0.81866 0.0
C541 C 0.53546 0.33557 0.806 0.0
C542 C 0.5574 0.3756 0.85138 0.0
C543 C 0.52954 0.36456 0.87203 0.0
C544 C 0.50506 0.33797 0.8606 0.0
C545 C 0.50804 0.32357 0.82802 0.0
H546 H 0.06645 0.47547 0.33631 0.0
H547 H 0.10321 0.49782 0.46021 0.0
H548 H 0.10666 0.46814 0.31781 0.0
H549 H 0.14326 0.49026 0.44192 0.0
H550 H 0.23078 0.5245 0.35395 0.0
H551 H 0.1876 0.51761 0.39322 0.0
H552 H 0.12926 0.43936 0.33189 0.0
H553 H 0.17261 0.44648 0.29268 0.0
C554 C 0.08281 0.47831 0.35976 0.0
C555 C 0.08162 0.48722 0.3996 0.0
C556 C 0.10568 0.47385 0.34939 0.0
C557 C 0.12809 0.4785 0.37853 0.0
C558 C 0.12631 0.48648 0.41886 0.0
C559 C 0.10322 0.49062 0.42937 0.0
C560 C 0.20907 0.50504 0.35089 0.0
C561 C 0.20498 0.48589 0.3207 0.0
C562 C 0.18422 0.50117 0.37302 0.0
C563 C 0.15491 0.47822 0.36493 0.0
C564 C 0.1515 0.45745 0.33828 0.0
C565 C 0.17636 0.46125 0.3164 0.0
H566 H 0.66623 0.07779 -0.01121 0.0
H567 H 0.60883 0.11017 0.00319 0.0
H568 H 0.70376 0.12121 0.9531 0.0
H569 H 0.64695 0.15414 0.96857 0.0
H570 H 0.77076 0.20125 0.88999 0.0
H571 H 0.74058 0.17044 0.94885 0.0
H572 H 0.66149 0.16579 0.89756 0.0
H573 H 0.69182 0.19704 0.84007 0.0
C574 C 0.66197 0.09449 -0.01451 0.0
C575 C 0.63421 0.0902 -0.00168 0.0
C576 C 0.68369 0.1196 0.96514 0.0
C577 C 0.67834 0.1412 0.95725 0.0
C578 C 0.65164 0.13779 0.97326 0.0
C579 C 0.62983 0.11259 -0.00655 0.0
C580 C 0.74719 0.19448 0.89237 0.0
C581 C 0.73357 0.20135 0.86034 0.0
C582 C 0.72975 0.17651 0.92575 0.0
C583 C 0.69837 0.1651 0.92775 0.0
C584 C 0.68551 0.17416 0.89753 0.0
C585 C 0.70289 0.19205 0.86433 0.0
H586 H 0.55389 0.61318 0.41403 0.0
H587 H 0.65127 0.65703 0.41595 0.0
H588 H 0.55724 0.65642 0.39429 0.0
H589 H 0.65479 0.70087 0.39653 0.0
H590 H 0.63744 0.74952 0.28839 0.0
H591 H 0.64573 0.7194 0.33445 0.0
H592 H 0.56982 0.70226 0.41041 0.0
H593 H 0.56103 0.73175 0.36283 0.0
C594 C 0.57608 0.63221 0.41117 0.0
C595 C 0.6023 0.63152 0.41627 0.0
C596 C 0.57805 0.65722 0.40012 0.0
C597 C 0.60633 0.68236 0.39402 0.0
C598 C 0.63263 0.6819 0.40061 0.0
C599 C 0.63063 0.65675 0.4115 0.0
C600 C 0.62367 0.7406 0.31632 0.0
C601 C 0.59855 0.74279 0.32207 0.0
C602 C 0.62824 0.72308 0.34269 0.0
C603 C 0.6078 0.70759 0.37543 0.0
C604 C 0.58543 0.71323 0.38471 0.0
C605 C 0.58072 0.73059 0.35804 0.0
H606 H 0.51486 0.08233 0.57545 0.0
H607 H 0.54776 0.14189 0.47144 0.0
H608 H 0.50606 0.11318 0.61501 0.0
H609 H 0.53825 0.17286 0.51103 0.0
H610 H 0.5566 0.23144 0.62675 0.0
H611 H 0.55914 0.20252 0.5737 0.0
H612 H 0.47345 0.1315 0.61711 0.0
H613 H 0.47134 0.16029 0.67037 0.0
C614 C 0.5202 0.10204 0.56097 0.0
C615 C 0.53225 0.10971 0.52037 0.0
C616 C 0.51473 0.11961 0.58346 0.0
C617 C 0.52119 0.14544 0.56609 0.0
C618 C 0.53306 0.15313 0.52532 0.0
C619 C 0.53833 0.13533 0.50257 0.0
C620 C 0.53784 0.20993 0.62384 0.0
C621 C 0.51387 0.19801 0.65274 0.0
C622 C 0.53933 0.19331 0.59359 0.0
C623 C 0.51681 0.16452 0.59178 0.0
C624 C 0.49151 0.15341 0.61831 0.0
C625 C 0.49012 0.16994 0.64852 0.0
H626 H 0.39972 0.44029 0.00782 0.0
H627 H 0.46181 0.5298 0.01788 0.0
H628 H 0.36275 0.44265 0.04967 0.0
H629 H 0.42495 0.53203 0.06022 0.0
H630 H 0.34897 0.52878 0.1318 0.0
H631 H 0.37438 0.52544 0.07048 0.0
H632 H 0.36542 0.45041 0.12487 0.0
H633 H 0.34021 0.45381 0.18546 0.0
C634 C 0.40521 0.4606 0.01797 0.0
C635 C 0.43396 0.48476 0.01001 0.0
C636 C 0.38406 0.46191 0.04221 0.0
C637 C 0.39113 0.48741 0.05906 0.0
C638 C 0.41872 0.51205 0.0477 0.0
C639 C 0.43991 0.51075 0.02336 0.0
C640 C 0.35183 0.51124 0.12994 0.0
C641 C 0.34272 0.49157 0.16329 0.0
C642 C 0.36655 0.50943 0.09507 0.0
C643 C 0.37195 0.48766 0.09272 0.0
C644 C 0.36129 0.46722 0.12525 0.0
C645 C 0.347 0.46923 0.16014 0.0
H646 H 0.92924 0.42755 0.51133 0.0
H647 H 1.00272 0.4559 0.59874 0.0
H648 H 0.89797 0.38554 0.55456 0.0
H649 H 0.97111 0.41351 0.64228 0.0
H650 H 0.91789 0.32368 0.69105 0.0
H651 H 0.94722 0.3614 0.63947 0.0
H652 H 0.87267 0.37292 0.62439 0.0
H653 H 0.84338 0.33514 0.6764 0.0
C654 C 0.93882 0.42483 0.53978 0.0
C655 C 0.96861 0.44516 0.55153 0.0
C656 C 0.92074 0.40072 0.56464 0.0
C657 C 0.93202 0.39609 0.60175 0.0
C658 C 0.96187 0.41631 0.61353 0.0
C659 C 0.97994 0.44068 0.58878 0.0
C660 C 0.90744 0.33371 0.67568 0.0
C661 C 0.87833 0.32646 0.68761 0.0
C662 C 0.9244 0.35558 0.64666 0.0
C663 C 0.91255 0.37057 0.62854 0.0
C664 C 0.88247 0.36179 0.63787 0.0
C665 C 0.86552 0.33996 0.66727 0.0
H666 H 0.60372 0.94951 0.97195 0.0
H667 H 0.51621 0.91549 0.02876 0.0
H668 H 0.60839 0.91322 0.00846 0.0
H669 H 0.52076 0.87949 0.06525 0.0
H670 H 0.52877 0.8123 0.12148 0.0
H671 H 0.52514 0.83789 0.06093 0.0
H672 H 0.61542 0.90808 0.08494 0.0
H673 H 0.6188 0.88243 0.14516 0.0
C674 C 0.58519 0.93383 -0.00863 0.0
C675 C 0.55974 0.93542 -0.00206 0.0
C676 C 0.5879 0.91317 0.01239 0.0
C677 C 0.56498 0.89352 0.0398 0.0
C678 C 0.53868 0.89407 0.04402 0.0
C679 C 0.53617 0.91486 0.0235 0.0
C680 C 0.54824 0.83268 0.11251 0.0
C681 C 0.57411 0.84543 0.13759 0.0
C682 C 0.5461 0.84744 0.07821 0.0
C683 C 0.56987 0.87513 0.06844 0.0
C684 C 0.59682 0.88673 0.09133 0.0
C685 C 0.59882 0.87208 0.12579 0.0
H686 H 0.57641 0.50277 0.59252 0.0
H687 H 0.64632 0.59091 0.58119 0.0
H688 H 0.61001 0.49452 0.63471 0.0
H689 H 0.67923 0.58294 0.6249 0.0
H690 H 0.74421 0.56231 0.67344 0.0
H691 H 0.70918 0.56288 0.62304 0.0
H692 H 0.63379 0.5023 0.70053 0.0
H693 H 0.66878 0.501 0.74959 0.0
C694 C 0.59874 0.52049 0.59953 0.0
C695 C 0.60875 0.54746 0.58284 0.0
C696 C 0.61807 0.51574 0.62378 0.0
C697 C 0.6477 0.53794 0.63251 0.0
C698 C 0.65701 0.56513 0.61767 0.0
C699 C 0.63786 0.5698 0.59314 0.0
C700 C 0.72012 0.54828 0.67866 0.0
C701 C 0.70921 0.53176 0.71549 0.0
C702 C 0.7 0.54899 0.65029 0.0
C703 C 0.66861 0.53328 0.6583 0.0
C704 C 0.6577 0.51475 0.69322 0.0
C705 C 0.67777 0.51395 0.72138 0.0
H706 H 0.16668 0.62938 0.0558 0.0
H707 H 0.13357 0.68267 0.02333 0.0
H708 H 0.19837 0.66162 0.11006 0.0
H709 H 0.1649 0.71487 0.07846 0.0
H710 H 0.18471 0.72714 0.22636 0.0
H711 H 0.16072 0.70558 0.16033 0.0
H712 H 0.24324 0.7136 0.11998 0.0
H713 H 0.26737 0.7356 0.18577 0.0
C714 C 0.16666 0.64831 0.05994 0.0
C715 C 0.14782 0.65365 0.03549 0.0
C716 C 0.18482 0.66679 0.0908 0.0
C717 C 0.18406 0.69072 0.09845 0.0
C718 C 0.16588 0.69655 0.07315 0.0
C719 C 0.14817 0.67832 0.04154 0.0
C720 C 0.19787 0.72485 0.20294 0.0
C721 C 0.22785 0.73299 0.2111 0.0
C722 C 0.18422 0.71265 0.16514 0.0
C723 C 0.20012 0.70788 0.13513 0.0
C724 C 0.23048 0.71702 0.14263 0.0
C725 C 0.24431 0.72971 0.18011 0.0
loop_
_geom_bond_atom_site_label_1
_geom_bond_atom_site_label_2
_geom_bond_distance
_geom_bond_site_symmetry_2
_ccdc_geom_bond_type
Cu0 N1 1.999 1_454 S
Cu0 O6 1.974 1_454 S
Cu0 N11 1.985 . S
Cu0 O20 1.959 . S
N1 Cu0 1.999 1_656 S
N1 C3 1.263 . S
N1 C5 1.389 1_556 S
N2 C3 1.358 . S
N2 C4 1.400 . S
C3 N1 1.263 . S
C3 N2 1.358 . S
C3 H9 0.930 . S
C4 N2 1.400 . S
C4 C5 1.351 1_556 S
C4 H21 0.930 . S
C5 N1 1.389 1_554 S
C5 C4 1.351 1_554 S
C5 H10 0.930 . S
O6 Cu0 1.974 1_656 S
O6 C16 1.282 . S
C7 O8 1.261 1_554 S
C7 O20 1.251 . S
O8 C7 1.261 1_556 S
H9 C3 0.930 . S
H10 C5 0.930 . S
N11 Cu0 1.985 . S
N11 C13 1.335 . S
N11 C14 1.390 . S
N12 C13 1.345 . S
N12 C15 1.336 . S
C13 N11 1.335 . S
C13 N12 1.345 . S
C13 H18 0.930 . S
C14 N11 1.390 . S
C14 C15 1.346 . S
C14 H19 0.930 1_554 S
C15 N12 1.336 . S
C15 C14 1.346 . S
C15 H22 0.929 . S
C16 O6 1.282 . S
C16 O17 1.216 1_655 S
O17 C16 1.216 1_455 S
H18 C13 0.930 . S
H19 C14 0.930 1_556 S
O20 Cu0 1.959 . S
O20 C7 1.251 . S
H21 C4 0.930 . S
H22 C15 0.929 . S
Cu23 N24 1.999 . S
Cu23 O29 1.974 . S
Cu23 N34 1.985 1_565 S
Cu23 O43 1.959 1_565 S
N24 Cu23 1.999 . S
N24 C26 1.263 . S
N24 C28 1.389 . S
N25 C26 1.358 . S
N25 C27 1.400 . S
C26 N24 1.263 . S
C26 N25 1.358 . S
C26 H32 0.930 . S
C27 N25 1.400 . S
C27 C28 1.351 . S
C27 H44 0.930 . S
C28 N24 1.389 . S
C28 C27 1.351 . S
C28 H33 0.930 . S
O29 Cu23 1.974 . S
O29 C39 1.282 . S
C30 O31 1.261 . S
C30 O43 1.251 . S
O31 C30 1.261 . S
H32 C26 0.930 . S
H33 C28 0.930 . S
N34 Cu23 1.985 1_545 S
N34 C36 1.335 . S
N34 C37 1.390 . S
N35 C36 1.345 . S
N35 C38 1.336 . S
C36 N34 1.335 . S
C36 N35 1.345 . S
C36 H41 0.930 . S
C37 N34 1.390 . S
C37 C38 1.346 . S
C37 H42 0.930 . S
C38 N35 1.336 . S
C38 C37 1.346 . S
C38 H45 0.929 . S
C39 O29 1.282 . S
C39 O40 1.216 . S
O40 C39 1.216 . S
H41 C36 0.930 . S
H42 C37 0.930 . S
O43 Cu23 1.959 1_545 S
O43 C30 1.251 . S
H44 C27 0.930 . S
H45 C38 0.929 . S
Cu46 N47 1.999 1_554 S
Cu46 O52 1.974 1_554 S
Cu46 N57 1.985 . S
Cu46 O66 1.959 . S
N47 Cu46 1.999 1_556 S
N47 C49 1.263 . S
N47 C51 1.389 . S
N48 C49 1.358 . S
N48 C50 1.400 . S
C49 N47 1.263 . S
C49 N48 1.358 . S
C49 H55 0.930 . S
C50 N48 1.400 . S
C50 C51 1.351 . S
C50 H67 0.930 . S
C51 N47 1.389 . S
C51 C50 1.351 . S
C51 H56 0.930 . S
O52 Cu46 1.974 1_556 S
O52 C62 1.282 . S
C53 O54 1.261 . S
C53 O66 1.251 . S
O54 C53 1.261 . S
H55 C49 0.930 . S
H56 C51 0.930 . S
N57 Cu46 1.985 . S
N57 C59 1.335 . S
N57 C60 1.390 . S
N58 C59 1.345 . S
N58 C61 1.336 . S
C59 N57 1.335 . S
C59 N58 1.345 . S
C59 H64 0.930 . S
C60 N57 1.390 . S
C60 C61 1.346 . S
C60 H65 0.930 . S
C61 N58 1.336 . S
C61 C60 1.346 . S
C61 H68 0.929 . S
C62 O52 1.282 . S
C62 O63 1.216 1_556 S
O63 C62 1.216 1_554 S
H64 C59 0.930 . S
H65 C60 0.930 . S
O66 Cu46 1.959 . S
O66 C53 1.251 . S
H67 C50 0.930 . S
H68 C61 0.929 . S
Cu69 N70 1.999 1_655 S
Cu69 O75 1.974 1_655 S
Cu69 N80 1.985 . S
Cu69 O89 1.959 . S
N70 Cu69 1.999 1_455 S
N70 C72 1.263 . S
N70 C74 1.389 1_455 S
N71 C72 1.358 . S
N71 C73 1.400 . S
C72 N70 1.263 . S
C72 N71 1.358 . S
C72 H78 0.930 . S
C73 N71 1.400 . S
C73 C74 1.351 1_455 S
C73 H90 0.930 . S
C74 N70 1.389 1_655 S
C74 C73 1.351 1_655 S
C74 H79 0.930 . S
O75 Cu69 1.974 1_455 S
O75 C85 1.282 . S
C76 O77 1.261 . S
C76 O89 1.251 . S
O77 C76 1.261 . S
H78 C72 0.930 . S
H79 C74 0.930 . S
N80 Cu69 1.985 . S
N80 C82 1.335 . S
N80 C83 1.390 . S
N81 C82 1.345 . S
N81 C84 1.336 . S
C82 N80 1.335 . S
C82 N81 1.345 . S
C82 H87 0.930 . S
C83 N80 1.390 . S
C83 C84 1.346 . S
C83 H88 0.930 1_655 S
C84 N81 1.336 . S
C84 C83 1.346 . S
C84 H91 0.929 . S
C85 O75 1.282 . S
C85 O86 1.216 . S
O86 C85 1.216 . S
H87 C82 0.930 . S
H88 C83 0.930 1_455 S
O89 Cu69 1.959 . S
O89 C76 1.251 . S
H90 C73 0.930 . S
H91 C84 0.929 . S
Cu92 N93 1.999 . S
Cu92 O98 1.974 . S
Cu92 N103 1.985 1_545 S
Cu92 O112 1.959 1_545 S
N93 Cu92 1.999 . S
N93 C95 1.263 1_554 S
N93 C97 1.389 . S
N94 C95 1.358 . S
N94 C96 1.400 1_556 S
C95 N93 1.263 1_556 S
C95 N94 1.358 . S
C95 H101 0.930 . S
C96 N94 1.400 1_554 S
C96 C97 1.351 . S
C96 H113 0.930 . S
C97 N93 1.389 . S
C97 C96 1.351 . S
C97 H102 0.930 . S
O98 Cu92 1.974 . S
O98 C108 1.282 1_554 S
C99 O100 1.261 . S
C99 O112 1.251 . S
O100 C99 1.261 . S
H101 C95 0.930 . S
H102 C97 0.930 . S
N103 Cu92 1.985 1_565 S
N103 C105 1.335 . S
N103 C106 1.390 . S
N104 C105 1.345 . S
N104 C107 1.336 . S
C105 N103 1.335 . S
C105 N104 1.345 . S
C105 H110 0.930 . S
C106 N103 1.390 . S
C106 C107 1.346 . S
C106 H111 0.930 1_565 S
C107 N104 1.336 . S
C107 C106 1.346 . S
C107 H114 0.929 . S
C108 O98 1.282 1_556 S
C108 O109 1.216 . S
O109 C108 1.216 . S
H110 C105 0.930 . S
H111 C106 0.930 1_545 S
O112 Cu92 1.959 1_565 S
O112 C99 1.251 . S
H113 C96 0.930 . S
H114 C107 0.929 . S
Cu115 N116 1.999 . S
Cu115 O121 1.974 . S
Cu115 N126 1.985 . S
Cu115 O135 1.959 . S
N116 Cu115 1.999 . S
N116 C118 1.263 . S
N116 C120 1.389 . S
N117 C118 1.358 . S
N117 C119 1.400 . S
C118 N116 1.263 . S
C118 N117 1.358 . S
C118 H124 0.930 . S
C119 N117 1.400 . S
C119 C120 1.351 . S
C119 H136 0.930 . S
C120 N116 1.389 . S
C120 C119 1.351 . S
C120 H125 0.930 . S
O121 Cu115 1.974 . S
O121 C131 1.282 . S
C122 O123 1.261 . S
C122 O135 1.251 . S
O123 C122 1.261 . S
H124 C118 0.930 . S
H125 C120 0.930 . S
N126 Cu115 1.985 . S
N126 C128 1.335 . S
N126 C129 1.390 . S
N127 C128 1.345 . S
N127 C130 1.336 . S
C128 N126 1.335 . S
C128 N127 1.345 . S
C128 H133 0.930 . S
C129 N126 1.390 . S
C129 C130 1.346 . S
C129 H134 0.930 . S
C130 N127 1.336 . S
C130 C129 1.346 . S
C130 H137 0.929 . S
C131 O121 1.282 . S
C131 O132 1.216 . S
O132 C131 1.216 . S
H133 C128 0.930 . S
H134 C129 0.930 . S
O135 Cu115 1.959 . S
O135 C122 1.251 . S
H136 C119 0.930 . S
H137 C130 0.929 . S
H138 C144 0.930 . S
H139 C147 0.931 . S
H140 C149 0.931 . S
H141 C151 0.930 . S
H142 C153 0.930 . S
H143 C155 0.931 . S
C144 H138 0.930 . S
C144 C145 1.380 . S
C144 C146 1.394 . S
C145 C144 1.380 . S
C145 C149 1.382 . S
C146 C144 1.394 . S
C146 C147 1.400 . S
C147 H139 0.931 . S
C147 C146 1.400 . S
C147 C148 1.375 . S
C148 C147 1.375 . S
C148 C149 1.415 . S
C148 C150 1.501 . S
C149 H140 0.931 . S
C149 C145 1.382 . S
C149 C148 1.415 . S
C150 C148 1.501 . S
C150 C151 1.384 . S
C150 C155 1.408 . S
C151 H141 0.930 . S
C151 C150 1.384 . S
C151 C152 1.389 . S
C152 C151 1.389 . S
C152 C153 1.405 . S
C153 H142 0.930 . S
C153 C152 1.405 . S
C153 C154 1.364 . S
C154 C153 1.364 . S
C154 C155 1.400 . S
C155 H143 0.931 . S
C155 C150 1.408 . S
C155 C154 1.400 . S
H156 C162 0.930 . S
H157 C165 0.931 . S
H158 C167 0.931 . S
H159 C169 0.930 . S
H160 C171 0.930 . S
H161 C173 0.931 . S
C162 H156 0.930 . S
C162 C163 1.380 . S
C162 C164 1.394 . S
C163 C162 1.380 . S
C163 C167 1.382 . S
C164 C162 1.394 . S
C164 C165 1.400 . S
C165 H157 0.931 . S
C165 C164 1.400 . S
C165 C166 1.375 . S
C166 C165 1.375 . S
C166 C167 1.415 . S
C166 C168 1.501 . S
C167 H158 0.931 . S
C167 C163 1.382 . S
C167 C166 1.415 . S
C168 C166 1.501 . S
C168 C169 1.384 . S
C168 C173 1.408 . S
C169 H159 0.930 . S
C169 C168 1.384 . S
C169 C170 1.389 . S
C170 C169 1.389 . S
C170 C171 1.405 . S
C171 H160 0.930 . S
C171 C170 1.405 . S
C171 C172 1.364 . S
C172 C171 1.364 . S
C172 C173 1.400 . S
C173 H161 0.931 . S
C173 C168 1.408 . S
C173 C172 1.400 . S
H174 C180 0.930 . S
H175 C183 0.931 . S
H176 C185 0.931 . S
H177 C187 0.930 . S
H178 C189 0.930 . S
H179 C191 0.931 . S
C180 H174 0.930 . S
C180 C181 1.380 . S
C180 C182 1.394 . S
C181 C180 1.380 . S
C181 C185 1.382 . S
C182 C180 1.394 . S
C182 C183 1.400 . S
C183 H175 0.931 . S
C183 C182 1.400 . S
C183 C184 1.375 . S
C184 C183 1.375 . S
C184 C185 1.415 . S
C184 C186 1.501 . S
C185 H176 0.931 . S
C185 C181 1.382 . S
C185 C184 1.415 . S
C186 C184 1.501 . S
C186 C187 1.384 . S
C186 C191 1.408 . S
C187 H177 0.930 . S
C187 C186 1.384 . S
C187 C188 1.389 . S
C188 C187 1.389 . S
C188 C189 1.405 . S
C189 H178 0.930 . S
C189 C188 1.405 . S
C189 C190 1.364 . S
C190 C189 1.364 . S
C190 C191 1.400 . S
C191 H179 0.931 . S
C191 C186 1.408 . S
C191 C190 1.400 . S
H192 C198 0.930 . S
H193 C201 0.931 . S
H194 C203 0.931 . S
H195 C205 0.930 . S
H196 C207 0.930 . S
H197 C209 0.931 . S
C198 H192 0.930 . S
C198 C199 1.380 . S
C198 C200 1.394 . S
C199 C198 1.380 . S
C199 C203 1.382 . S
C200 C198 1.394 . S
C200 C201 1.400 . S
C201 H193 0.931 . S
C201 C200 1.400 . S
C201 C202 1.375 . S
C202 C201 1.375 . S
C202 C203 1.415 . S
C202 C204 1.501 . S
C203 H194 0.931 . S
C203 C199 1.382 . S
C203 C202 1.415 . S
C204 C202 1.501 . S
C204 C205 1.384 . S
C204 C209 1.408 . S
C205 H195 0.930 . S
C205 C204 1.384 . S
C205 C206 1.389 . S
C206 C205 1.389 . S
C206 C207 1.405 . S
C207 H196 0.930 . S
C207 C206 1.405 . S
C207 C208 1.364 . S
C208 C207 1.364 . S
C208 C209 1.400 . S
C209 H197 0.931 . S
C209 C204 1.408 . S
C209 C208 1.400 . S
H210 C216 0.930 . S
H211 C219 0.931 . S
H212 C221 0.931 . S
H213 C223 0.930 . S
H214 C225 0.930 . S
H215 C227 0.931 . S
C216 H210 0.930 . S
C216 C217 1.380 . S
C216 C218 1.394 . S
C217 C216 1.380 . S
C217 C221 1.382 . S
C218 C216 1.394 . S
C218 C219 1.400 . S
C219 H211 0.931 . S
C219 C218 1.400 . S
C219 C220 1.375 . S
C220 C219 1.375 . S
C220 C221 1.415 . S
C220 C222 1.501 . S
C221 H212 0.931 . S
C221 C217 1.382 . S
C221 C220 1.415 . S
C222 C220 1.501 . S
C222 C223 1.384 . S
C222 C227 1.408 . S
C223 H213 0.930 . S
C223 C222 1.384 . S
C223 C224 1.389 . S
C224 C223 1.389 . S
C224 C225 1.405 . S
C225 H214 0.930 . S
C225 C224 1.405 . S
C225 C226 1.364 . S
C226 C225 1.364 . S
C226 C227 1.400 . S
C227 H215 0.931 . S
C227 C222 1.408 . S
C227 C226 1.400 . S
H228 C234 0.930 . S
H229 C237 0.931 . S
H230 C239 0.931 . S
H231 C241 0.930 . S
H232 C243 0.930 . S
H233 C245 0.931 . S
C234 H228 0.930 . S
C234 C235 1.380 . S
C234 C236 1.394 . S
C235 C234 1.380 . S
C235 C239 1.382 . S
C236 C234 1.394 . S
C236 C237 1.400 . S
C237 H229 0.931 . S
C237 C236 1.400 . S
C237 C238 1.375 . S
C238 C237 1.375 . S
C238 C239 1.415 . S
C238 C240 1.501 . S
C239 H230 0.931 . S
C239 C235 1.382 . S
C239 C238 1.415 . S
C240 C238 1.501 . S
C240 C241 1.384 . S
C240 C245 1.408 . S
C241 H231 0.930 . S
C241 C240 1.384 . S
C241 C242 1.389 . S
C242 C241 1.389 . S
C242 C243 1.405 . S
C243 H232 0.930 . S
C243 C242 1.405 . S
C243 C244 1.364 . S
C244 C243 1.364 . S
C244 C245 1.400 . S
C245 H233 0.931 . S
C245 C240 1.408 . S
C245 C244 1.400 . S
H246 C254 0.950 . S
H247 C259 0.950 . S
H248 C256 0.950 . S
H249 C258 0.950 . S
H250 C260 0.950 . S
H251 C262 0.950 . S
H252 C264 0.950 . S
H253 C265 0.950 . S
C254 H246 0.950 . S
C254 C255 1.386 . S
C254 C256 1.391 . S
C255 C254 1.386 . S
C255 C259 1.393 . S
C256 H248 0.950 . S
C256 C254 1.391 . S
C256 C257 1.400 . S
C257 C256 1.400 . S
C257 C258 1.398 . S
C257 C263 1.491 . S
C258 H249 0.950 . S
C258 C257 1.398 . S
C258 C259 1.391 . S
C259 H247 0.950 . S
C259 C255 1.393 . S
C259 C258 1.391 . S
C260 H250 0.950 . S
C260 C261 1.386 . S
C260 C262 1.391 . S
C261 C260 1.386 . S
C261 C265 1.393 . S
C262 H251 0.950 . S
C262 C260 1.391 . S
C262 C263 1.400 . S
C263 C257 1.491 . S
C263 C262 1.400 . S
C263 C264 1.398 . S
C264 H252 0.950 . S
C264 C263 1.398 . S
C264 C265 1.391 . S
C265 H253 0.950 . S
C265 C261 1.393 . S
C265 C264 1.391 . S
H266 C274 0.950 . S
H267 C279 0.950 . S
H268 C276 0.950 . S
H269 C278 0.950 . S
H270 C280 0.950 . S
H271 C282 0.950 . S
H272 C284 0.950 . S
H273 C285 0.950 . S
C274 H266 0.950 . S
C274 C275 1.386 . S
C274 C276 1.391 . S
C275 C274 1.386 . S
C275 C279 1.393 . S
C276 H268 0.950 . S
C276 C274 1.391 . S
C276 C277 1.400 . S
C277 C276 1.400 . S
C277 C278 1.398 . S
C277 C283 1.491 . S
C278 H269 0.950 . S
C278 C277 1.398 . S
C278 C279 1.391 . S
C279 H267 0.950 . S
C279 C275 1.393 . S
C279 C278 1.391 . S
C280 H270 0.950 . S
C280 C281 1.386 . S
C280 C282 1.391 . S
C281 C280 1.386 . S
C281 C285 1.393 . S
C282 H271 0.950 . S
C282 C280 1.391 . S
C282 C283 1.400 . S
C283 C277 1.491 . S
C283 C282 1.400 . S
C283 C284 1.398 . S
C284 H272 0.950 . S
C284 C283 1.398 . S
C284 C285 1.391 . S
C285 H273 0.950 . S
C285 C281 1.393 . S
C285 C284 1.391 . S
H286 C294 0.950 . S
H287 C299 0.950 . S
H288 C296 0.950 . S
H289 C298 0.950 . S
H290 C300 0.950 . S
H291 C302 0.950 . S
H292 C304 0.950 . S
H293 C305 0.950 . S
C294 H286 0.950 . S
C294 C295 1.386 . S
C294 C296 1.391 . S
C295 C294 1.386 . S
C295 C299 1.393 . S
C296 H288 0.950 . S
C296 C294 1.391 . S
C296 C297 1.400 . S
C297 C296 1.400 . S
C297 C298 1.398 . S
C297 C303 1.491 . S
C298 H289 0.950 . S
C298 C297 1.398 . S
C298 C299 1.391 . S
C299 H287 0.950 . S
C299 C295 1.393 . S
C299 C298 1.391 . S
C300 H290 0.950 . S
C300 C301 1.386 . S
C300 C302 1.391 . S
C301 C300 1.386 . S
C301 C305 1.393 . S
C302 H291 0.950 . S
C302 C300 1.391 . S
C302 C303 1.400 . S
C303 C297 1.491 . S
C303 C302 1.400 . S
C303 C304 1.398 . S
C304 H292 0.950 . S
C304 C303 1.398 . S
C304 C305 1.391 . S
C305 H293 0.950 . S
C305 C301 1.393 . S
C305 C304 1.391 . S
H306 C314 0.950 . S
H307 C319 0.950 . S
H308 C316 0.950 . S
H309 C318 0.950 . S
H310 C320 0.950 . S
H311 C322 0.950 . S
H312 C324 0.950 . S
H313 C325 0.950 . S
C314 H306 0.950 . S
C314 C315 1.386 . S
C314 C316 1.391 . S
C315 C314 1.386 . S
C315 C319 1.393 . S
C316 H308 0.950 . S
C316 C314 1.391 . S
C316 C317 1.400 . S
C317 C316 1.400 . S
C317 C318 1.398 . S
C317 C323 1.491 . S
C318 H309 0.950 . S
C318 C317 1.398 . S
C318 C319 1.391 . S
C319 H307 0.950 . S
C319 C315 1.393 . S
C319 C318 1.391 . S
C320 H310 0.950 . S
C320 C321 1.386 . S
C320 C322 1.391 . S
C321 C320 1.386 . S
C321 C325 1.393 . S
C322 H311 0.950 . S
C322 C320 1.391 . S
C322 C323 1.400 . S
C323 C317 1.491 . S
C323 C322 1.400 . S
C323 C324 1.398 . S
C324 H312 0.950 . S
C324 C323 1.398 . S
C324 C325 1.391 . S
C325 H313 0.950 . S
C325 C321 1.393 . S
C325 C324 1.391 . S
H326 C334 0.950 . S
H327 C339 0.950 . S
H328 C336 0.950 . S
H329 C338 0.950 . S
H330 C340 0.950 . S
H331 C342 0.950 . S
H332 C344 0.950 . S
H333 C345 0.950 . S
C334 H326 0.950 . S
C334 C335 1.386 . S
C334 C336 1.391 . S
C335 C334 1.386 . S
C335 C339 1.393 . S
C336 H328 0.950 . S
C336 C334 1.391 . S
C336 C337 1.400 . S
C337 C336 1.400 . S
C337 C338 1.398 . S
C337 C343 1.491 . S
C338 H329 0.950 . S
C338 C337 1.398 . S
C338 C339 1.391 . S
C339 H327 0.950 . S
C339 C335 1.393 . S
C339 C338 1.391 . S
C340 H330 0.950 . S
C340 C341 1.386 . S
C340 C342 1.391 . S
C341 C340 1.386 . S
C341 C345 1.393 . S
C342 H331 0.950 . S
C342 C340 1.391 . S
C342 C343 1.400 . S
C343 C337 1.491 . S
C343 C342 1.400 . S
C343 C344 1.398 . S
C344 H332 0.950 . S
C344 C343 1.398 . S
C344 C345 1.391 . S
C345 H333 0.950 . S
C345 C341 1.393 . S
C345 C344 1.391 . S
H346 C354 0.950 . S
H347 C359 0.950 . S
H348 C356 0.950 . S
H349 C358 0.950 . S
H350 C360 0.950 . S
H351 C362 0.950 . S
H352 C364 0.950 . S
H353 C365 0.950 . S
C354 H346 0.950 . S
C354 C355 1.386 . S
C354 C356 1.391 . S
C355 C354 1.386 . S
C355 C359 1.393 . S
C356 H348 0.950 . S
C356 C354 1.391 . S
C356 C357 1.400 . S
C357 C356 1.400 . S
C357 C358 1.398 . S
C357 C363 1.491 . S
C358 H349 0.950 . S
C358 C357 1.398 . S
C358 C359 1.391 . S
C359 H347 0.950 . S
C359 C355 1.393 . S
C359 C358 1.391 . S
C360 H350 0.950 . S
C360 C361 1.386 . S
C360 C362 1.391 . S
C361 C360 1.386 . S
C361 C365 1.393 . S
C362 H351 0.950 . S
C362 C360 1.391 . S
C362 C363 1.400 . S
C363 C357 1.491 . S
C363 C362 1.400 . S
C363 C364 1.398 . S
C364 H352 0.950 . S
C364 C363 1.398 . S
C364 C365 1.391 . S
C365 H353 0.950 . S
C365 C361 1.393 . S
C365 C364 1.391 . S
H366 C374 0.950 . S
H367 C379 0.950 . S
H368 C376 0.950 . S
H369 C378 0.950 . S
H370 C380 0.950 . S
H371 C382 0.950 . S
H372 C384 0.950 . S
H373 C385 0.950 . S
C374 H366 0.950 . S
C374 C375 1.386 . S
C374 C376 1.391 . S
C375 C374 1.386 . S
C375 C379 1.393 . S
C376 H368 0.950 . S
C376 C374 1.391 . S
C376 C377 1.400 . S
C377 C376 1.400 . S
C377 C378 1.398 . S
C377 C383 1.491 . S
C378 H369 0.950 . S
C378 C377 1.398 . S
C378 C379 1.391 . S
C379 H367 0.950 . S
C379 C375 1.393 . S
C379 C378 1.391 . S
C380 H370 0.950 . S
C380 C381 1.386 . S
C380 C382 1.391 . S
C381 C380 1.386 . S
C381 C385 1.393 . S
C382 H371 0.950 . S
C382 C380 1.391 . S
C382 C383 1.400 . S
C383 C377 1.491 . S
C383 C382 1.400 . S
C383 C384 1.398 . S
C384 H372 0.950 . S
C384 C383 1.398 . S
C384 C385 1.391 . S
C385 H373 0.950 . S
C385 C381 1.393 . S
C385 C384 1.391 . S
H386 C394 0.950 . S
H387 C399 0.950 . S
H388 C396 0.950 . S
H389 C398 0.950 . S
H390 C400 0.950 . S
H391 C402 0.950 . S
H392 C404 0.950 . S
H393 C405 0.950 . S
C394 H386 0.950 . S
C394 C395 1.386 . S
C394 C396 1.391 . S
C395 C394 1.386 . S
C395 C399 1.393 . S
C396 H388 0.950 . S
C396 C394 1.391 . S
C396 C397 1.400 . S
C397 C396 1.400 . S
C397 C398 1.398 . S
C397 C403 1.491 . S
C398 H389 0.950 . S
C398 C397 1.398 . S
C398 C399 1.391 . S
C399 H387 0.950 . S
C399 C395 1.393 . S
C399 C398 1.391 . S
C400 H390 0.950 . S
C400 C401 1.386 . S
C400 C402 1.391 . S
C401 C400 1.386 . S
C401 C405 1.393 . S
C402 H391 0.950 . S
C402 C400 1.391 . S
C402 C403 1.400 . S
C403 C397 1.491 . S
C403 C402 1.400 . S
C403 C404 1.398 . S
C404 H392 0.950 . S
C404 C403 1.398 . S
C404 C405 1.391 . S
C405 H393 0.950 . S
C405 C401 1.393 . S
C405 C404 1.391 . S
H406 C414 0.950 . S
H407 C419 0.950 . S
H408 C416 0.950 . S
H409 C418 0.950 . S
H410 C420 0.950 . S
H411 C422 0.950 . S
H412 C424 0.950 . S
H413 C425 0.950 . S
C414 H406 0.950 . S
C414 C415 1.386 . S
C414 C416 1.391 . S
C415 C414 1.386 . S
C415 C419 1.393 . S
C416 H408 0.950 . S
C416 C414 1.391 . S
C416 C417 1.400 . S
C417 C416 1.400 . S
C417 C418 1.398 . S
C417 C423 1.491 . S
C418 H409 0.950 . S
C418 C417 1.398 . S
C418 C419 1.391 . S
C419 H407 0.950 . S
C419 C415 1.393 . S
C419 C418 1.391 . S
C420 H410 0.950 . S
C420 C421 1.386 . S
C420 C422 1.391 . S
C421 C420 1.386 . S
C421 C425 1.393 . S
C422 H411 0.950 . S
C422 C420 1.391 . S
C422 C423 1.400 . S
C423 C417 1.491 . S
C423 C422 1.400 . S
C423 C424 1.398 . S
C424 H412 0.950 . S
C424 C423 1.398 . S
C424 C425 1.391 . S
C425 H413 0.950 . S
C425 C421 1.393 . S
C425 C424 1.391 . S
H426 C434 0.950 . S
H427 C439 0.950 . S
H428 C436 0.950 . S
H429 C438 0.950 . S
H430 C440 0.950 . S
H431 C442 0.950 . S
H432 C444 0.950 . S
H433 C445 0.950 . S
C434 H426 0.950 . S
C434 C435 1.386 . S
C434 C436 1.391 . S
C435 C434 1.386 . S
C435 C439 1.393 . S
C436 H428 0.950 . S
C436 C434 1.391 . S
C436 C437 1.400 . S
C437 C436 1.400 . S
C437 C438 1.398 . S
C437 C443 1.491 . S
C438 H429 0.950 . S
C438 C437 1.398 . S
C438 C439 1.391 . S
C439 H427 0.950 . S
C439 C435 1.393 . S
C439 C438 1.391 . S
C440 H430 0.950 . S
C440 C441 1.386 . S
C440 C442 1.391 . S
C441 C440 1.386 . S
C441 C445 1.393 . S
C442 H431 0.950 . S
C442 C440 1.391 . S
C442 C443 1.400 . S
C443 C437 1.491 . S
C443 C442 1.400 . S
C443 C444 1.398 . S
C444 H432 0.950 . S
C444 C443 1.398 . S
C444 C445 1.391 . S
C445 H433 0.950 . S
C445 C441 1.393 . S
C445 C444 1.391 . S
H446 C454 0.950 . S
H447 C459 0.950 . S
H448 C456 0.950 . S
H449 C458 0.950 . S
H450 C460 0.950 . S
H451 C462 0.950 . S
H452 C464 0.950 . S
H453 C465 0.950 . S
C454 H446 0.950 . S
C454 C455 1.386 . S
C454 C456 1.391 . S
C455 C454 1.386 . S
C455 C459 1.393 . S
C456 H448 0.950 . S
C456 C454 1.391 . S
C456 C457 1.400 . S
C457 C456 1.400 . S
C457 C458 1.398 . S
C457 C463 1.491 . S
C458 H449 0.950 . S
C458 C457 1.398 . S
C458 C459 1.391 . S
C459 H447 0.950 . S
C459 C455 1.393 . S
C459 C458 1.391 . S
C460 H450 0.950 . S
C460 C461 1.386 . S
C460 C462 1.391 . S
C461 C460 1.386 . S
C461 C465 1.393 . S
C462 H451 0.950 . S
C462 C460 1.391 . S
C462 C463 1.400 . S
C463 C457 1.491 . S
C463 C462 1.400 . S
C463 C464 1.398 . S
C464 H452 0.950 . S
C464 C463 1.398 . S
C464 C465 1.391 . S
C465 H453 0.950 . S
C465 C461 1.393 . S
C465 C464 1.391 . S
H466 C474 0.950 . S
H467 C479 0.950 . S
H468 C476 0.950 . S
H469 C478 0.950 . S
H470 C480 0.950 . S
H471 C482 0.950 . S
H472 C484 0.950 . S
H473 C485 0.950 . S
C474 H466 0.950 . S
C474 C475 1.386 . S
C474 C476 1.391 . S
C475 C474 1.386 . S
C475 C479 1.393 . S
C476 H468 0.950 . S
C476 C474 1.391 . S
C476 C477 1.400 . S
C477 C476 1.400 . S
C477 C478 1.398 . S
C477 C483 1.491 . S
C478 H469 0.950 . S
C478 C477 1.398 . S
C478 C479 1.391 . S
C479 H467 0.950 . S
C479 C475 1.393 . S
C479 C478 1.391 . S
C480 H470 0.950 . S
C480 C481 1.386 . S
C480 C482 1.391 . S
C481 C480 1.386 . S
C481 C485 1.393 . S
C482 H471 0.950 . S
C482 C480 1.391 . S
C482 C483 1.400 . S
C483 C477 1.491 . S
C483 C482 1.400 . S
C483 C484 1.398 . S
C484 H472 0.950 . S
C484 C483 1.398 . S
C484 C485 1.391 . S
C485 H473 0.950 . S
C485 C481 1.393 . S
C485 C484 1.391 . S
H486 C494 0.950 . S
H487 C499 0.950 . S
H488 C496 0.950 . S
H489 C498 0.950 . S
H490 C500 0.950 . S
H491 C502 0.950 . S
H492 C504 0.950 . S
H493 C505 0.950 . S
C494 H486 0.950 . S
C494 C495 1.386 . S
C494 C496 1.391 . S
C495 C494 1.386 . S
C495 C499 1.393 . S
C496 H488 0.950 . S
C496 C494 1.391 . S
C496 C497 1.400 . S
C497 C496 1.400 . S
C497 C498 1.398 . S
C497 C503 1.491 . S
C498 H489 0.950 . S
C498 C497 1.398 . S
C498 C499 1.391 . S
C499 H487 0.950 . S
C499 C495 1.393 . S
C499 C498 1.391 . S
C500 H490 0.950 . S
C500 C501 1.386 . S
C500 C502 1.391 . S
C501 C500 1.386 . S
C501 C505 1.393 . S
C502 H491 0.950 . S
C502 C500 1.391 . S
C502 C503 1.400 . S
C503 C497 1.491 . S
C503 C502 1.400 . S
C503 C504 1.398 . S
C504 H492 0.950 . S
C504 C503 1.398 . S
C504 C505 1.391 . S
C505 H493 0.950 . S
C505 C501 1.393 . S
C505 C504 1.391 . S
H506 C514 0.950 . S
H507 C519 0.950 . S
H508 C516 0.950 . S
H509 C518 0.950 . S
H510 C520 0.950 . S
H511 C522 0.950 . S
H512 C524 0.950 . S
H513 C525 0.950 . S
C514 H506 0.950 . S
C514 C515 1.386 . S
C514 C516 1.391 . S
C515 C514 1.386 . S
C515 C519 1.393 . S
C516 H508 0.950 . S
C516 C514 1.391 . S
C516 C517 1.400 . S
C517 C516 1.400 . S
C517 C518 1.398 . S
C517 C523 1.491 . S
C518 H509 0.950 . S
C518 C517 1.398 . S
C518 C519 1.391 . S
C519 H507 0.950 . S
C519 C515 1.393 . S
C519 C518 1.391 . S
C520 H510 0.950 . S
C520 C521 1.386 . S
C520 C522 1.391 . S
C521 C520 1.386 . S
C521 C525 1.393 . S
C522 H511 0.950 . S
C522 C520 1.391 . S
C522 C523 1.400 . S
C523 C517 1.491 . S
C523 C522 1.400 . S
C523 C524 1.398 . S
C524 H512 0.950 . S
C524 C523 1.398 . S
C524 C525 1.391 . S
C525 H513 0.950 . S
C525 C521 1.393 . S
C525 C524 1.391 . S
H526 C534 0.950 . S
H527 C539 0.950 . S
H528 C536 0.950 . S
H529 C538 0.950 . S
H530 C540 0.950 . S
H531 C542 0.950 . S
H532 C544 0.950 . S
H533 C545 0.950 . S
C534 H526 0.950 . S
C534 C535 1.386 . S
C534 C536 1.391 . S
C535 C534 1.386 . S
C535 C539 1.393 . S
C536 H528 0.950 . S
C536 C534 1.391 . S
C536 C537 1.400 . S
C537 C536 1.400 . S
C537 C538 1.398 . S
C537 C543 1.491 . S
C538 H529 0.950 . S
C538 C537 1.398 . S
C538 C539 1.391 . S
C539 H527 0.950 . S
C539 C535 1.393 . S
C539 C538 1.391 . S
C540 H530 0.950 . S
C540 C541 1.386 . S
C540 C542 1.391 . S
C541 C540 1.386 . S
C541 C545 1.393 . S
C542 H531 0.950 . S
C542 C540 1.391 . S
C542 C543 1.400 . S
C543 C537 1.491 . S
C543 C542 1.400 . S
C543 C544 1.398 . S
C544 H532 0.950 . S
C544 C543 1.398 . S
C544 C545 1.391 . S
C545 H533 0.950 . S
C545 C541 1.393 . S
C545 C544 1.391 . S
H546 C554 0.950 . S
H547 C559 0.950 . S
H548 C556 0.950 . S
H549 C558 0.950 . S
H550 C560 0.950 . S
H551 C562 0.950 . S
H552 C564 0.950 . S
H553 C565 0.950 . S
C554 H546 0.950 . S
C554 C555 1.386 . S
C554 C556 1.391 . S
C555 C554 1.386 . S
C555 C559 1.393 . S
C556 H548 0.950 . S
C556 C554 1.391 . S
C556 C557 1.400 . S
C557 C556 1.400 . S
C557 C558 1.398 . S
C557 C563 1.491 . S
C558 H549 0.950 . S
C558 C557 1.398 . S
C558 C559 1.391 . S
C559 H547 0.950 . S
C559 C555 1.393 . S
C559 C558 1.391 . S
C560 H550 0.950 . S
C560 C561 1.386 . S
C560 C562 1.391 . S
C561 C560 1.386 . S
C561 C565 1.393 . S
C562 H551 0.950 . S
C562 C560 1.391 . S
C562 C563 1.400 . S
C563 C557 1.491 . S
C563 C562 1.400 . S
C563 C564 1.398 . S
C564 H552 0.950 . S
C564 C563 1.398 . S
C564 C565 1.391 . S
C565 H553 0.950 . S
C565 C561 1.393 . S
C565 C564 1.391 . S
H566 C574 0.950 . S
H567 C579 0.950 . S
H568 C576 0.950 . S
H569 C578 0.950 . S
H570 C580 0.950 . S
H571 C582 0.950 . S
H572 C584 0.950 . S
H573 C585 0.950 . S
C574 H566 0.950 . S
C574 C575 1.386 . S
C574 C576 1.391 . S
C575 C574 1.386 . S
C575 C579 1.393 . S
C576 H568 0.950 . S
C576 C574 1.391 . S
C576 C577 1.400 . S
C577 C576 1.400 . S
C577 C578 1.398 . S
C577 C583 1.491 . S
C578 H569 0.950 . S
C578 C577 1.398 . S
C578 C579 1.391 . S
C579 H567 0.950 . S
C579 C575 1.393 . S
C579 C578 1.391 . S
C580 H570 0.950 . S
C580 C581 1.386 . S
C580 C582 1.391 . S
C581 C580 1.386 . S
C581 C585 1.393 . S
C582 H571 0.950 . S
C582 C580 1.391 . S
C582 C583 1.400 . S
C583 C577 1.491 . S
C583 C582 1.400 . S
C583 C584 1.398 . S
C584 H572 0.950 . S
C584 C583 1.398 . S
C584 C585 1.391 . S
C585 H573 0.950 . S
C585 C581 1.393 . S
C585 C584 1.391 . S
H586 C594 0.950 . S
H587 C599 0.950 . S
H588 C596 0.950 . S
H589 C598 0.950 . S
H590 C600 0.950 . S
H591 C602 0.950 . S
H592 C604 0.950 . S
H593 C605 0.950 . S
C594 H586 0.950 . S
C594 C595 1.386 . S
C594 C596 1.391 . S
C595 C594 1.386 . S
C595 C599 1.393 . S
C596 H588 0.950 . S
C596 C594 1.391 . S
C596 C597 1.400 . S
C597 C596 1.400 . S
C597 C598 1.398 . S
C597 C603 1.491 . S
C598 H589 0.950 . S
C598 C597 1.398 . S
C598 C599 1.391 . S
C599 H587 0.950 . S
C599 C595 1.393 . S
C599 C598 1.391 . S
C600 H590 0.950 . S
C600 C601 1.386 . S
C600 C602 1.391 . S
C601 C600 1.386 . S
C601 C605 1.393 . S
C602 H591 0.950 . S
C602 C600 1.391 . S
C602 C603 1.400 . S
C603 C597 1.491 . S
C603 C602 1.400 . S
C603 C604 1.398 . S
C604 H592 0.950 . S
C604 C603 1.398 . S
C604 C605 1.391 . S
C605 H593 0.950 . S
C605 C601 1.393 . S
C605 C604 1.391 . S
H606 C614 0.950 . S
H607 C619 0.950 . S
H608 C616 0.950 . S
H609 C618 0.950 . S
H610 C620 0.950 . S
H611 C622 0.950 . S
H612 C624 0.950 . S
H613 C625 0.950 . S
C614 H606 0.950 . S
C614 C615 1.386 . S
C614 C616 1.391 . S
C615 C614 1.386 . S
C615 C619 1.393 . S
C616 H608 0.950 . S
C616 C614 1.391 . S
C616 C617 1.400 . S
C617 C616 1.400 . S
C617 C618 1.398 . S
C617 C623 1.491 . S
C618 H609 0.950 . S
C618 C617 1.398 . S
C618 C619 1.391 . S
C619 H607 0.950 . S
C619 C615 1.393 . S
C619 C618 1.391 . S
C620 H610 0.950 . S
C620 C621 1.386 . S
C620 C622 1.391 . S
C621 C620 1.386 . S
C621 C625 1.393 . S
C622 H611 0.950 . S
C622 C620 1.391 . S
C622 C623 1.400 . S
C623 C617 1.491 . S
C623 C622 1.400 . S
C623 C624 1.398 . S
C624 H612 0.950 . S
C624 C623 1.398 . S
C624 C625 1.391 . S
C625 H613 0.950 . S
C625 C621 1.393 . S
C625 C624 1.391 . S
H626 C634 0.950 . S
H627 C639 0.950 . S
H628 C636 0.950 . S
H629 C638 0.950 . S
H630 C640 0.950 . S
H631 C642 0.950 . S
H632 C644 0.950 . S
H633 C645 0.950 . S
C634 H626 0.950 . S
C634 C635 1.386 . S
C634 C636 1.391 . S
C635 C634 1.386 . S
C635 C639 1.393 . S
C636 H628 0.950 . S
C636 C634 1.391 . S
C636 C637 1.400 . S
C637 C636 1.400 . S
C637 C638 1.398 . S
C637 C643 1.491 . S
C638 H629 0.950 . S
C638 C637 1.398 . S
C638 C639 1.391 . S
C639 H627 0.950 . S
C639 C635 1.393 . S
C639 C638 1.391 . S
C640 H630 0.950 . S
C640 C641 1.386 . S
C640 C642 1.391 . S
C641 C640 1.386 . S
C641 C645 1.393 . S
C642 H631 0.950 . S
C642 C640 1.391 . S
C642 C643 1.400 . S
C643 C637 1.491 . S
C643 C642 1.400 . S
C643 C644 1.398 . S
C644 H632 0.950 . S
C644 C643 1.398 . S
C644 C645 1.391 . S
C645 H633 0.950 . S
C645 C641 1.393 . S
C645 C644 1.391 . S
H646 C654 0.950 . S
H647 C659 0.950 . S
H648 C656 0.950 . S
H649 C658 0.950 . S
H650 C660 0.950 . S
H651 C662 0.950 . S
H652 C664 0.950 . S
H653 C665 0.950 . S
C654 H646 0.950 . S
C654 C655 1.386 . S
C654 C656 1.391 . S
C655 C654 1.386 . S
C655 C659 1.393 . S
C656 H648 0.950 . S
C656 C654 1.391 . S
C656 C657 1.400 . S
C657 C656 1.400 . S
C657 C658 1.398 . S
C657 C663 1.491 . S
C658 H649 0.950 . S
C658 C657 1.398 . S
C658 C659 1.391 . S
C659 H647 0.950 . S
C659 C655 1.393 . S
C659 C658 1.391 . S
C660 H650 0.950 . S
C660 C661 1.386 . S
C660 C662 1.391 . S
C661 C660 1.386 . S
C661 C665 1.393 . S
C662 H651 0.950 . S
C662 C660 1.391 . S
C662 C663 1.400 . S
C663 C657 1.491 . S
C663 C662 1.400 . S
C663 C664 1.398 . S
C664 H652 0.950 . S
C664 C663 1.398 . S
C664 C665 1.391 . S
C665 H653 0.950 . S
C665 C661 1.393 . S
C665 C664 1.391 . S
H666 C674 0.950 . S
H667 C679 0.950 . S
H668 C676 0.950 . S
H669 C678 0.950 . S
H670 C680 0.950 . S
H671 C682 0.950 . S
H672 C684 0.950 . S
H673 C685 0.950 . S
C674 H666 0.950 . S
C674 C675 1.386 . S
C674 C676 1.391 . S
C675 C674 1.386 . S
C675 C679 1.393 . S
C676 H668 0.950 . S
C676 C674 1.391 . S
C676 C677 1.400 . S
C677 C676 1.400 . S
C677 C678 1.398 . S
C677 C683 1.491 . S
C678 H669 0.950 . S
C678 C677 1.398 . S
C678 C679 1.391 . S
C679 H667 0.950 . S
C679 C675 1.393 . S
C679 C678 1.391 . S
C680 H670 0.950 . S
C680 C681 1.386 . S
C680 C682 1.391 . S
C681 C680 1.386 . S
C681 C685 1.393 . S
C682 H671 0.950 . S
C682 C680 1.391 . S
C682 C683 1.400 . S
C683 C677 1.491 . S
C683 C682 1.400 . S
C683 C684 1.398 . S
C684 H672 0.950 . S
C684 C683 1.398 . S
C684 C685 1.391 . S
C685 H673 0.950 . S
C685 C681 1.393 . S
C685 C684 1.391 . S
H686 C694 0.950 . S
H687 C699 0.950 . S
H688 C696 0.950 . S
H689 C698 0.950 . S
H690 C700 0.950 . S
H691 C702 0.950 . S
H692 C704 0.950 . S
H693 C705 0.950 . S
C694 H686 0.950 . S
C694 C695 1.386 . S
C694 C696 1.391 . S
C695 C694 1.386 . S
C695 C699 1.393 . S
C696 H688 0.950 . S
C696 C694 1.391 . S
C696 C697 1.400 . S
C697 C696 1.400 . S
C697 C698 1.398 . S
C697 C703 1.491 . S
C698 H689 0.950 . S
C698 C697 1.398 . S
C698 C699 1.391 . S
C699 H687 0.950 . S
C699 C695 1.393 . S
C699 C698 1.391 . S
C700 H690 0.950 . S
C700 C701 1.386 . S
C700 C702 1.391 . S
C701 C700 1.386 . S
C701 C705 1.393 . S
C702 H691 0.950 . S
C702 C700 1.391 . S
C702 C703 1.400 . S
C703 C697 1.491 . S
C703 C702 1.400 . S
C703 C704 1.398 . S
C704 H692 0.950 . S
C704 C703 1.398 . S
C704 C705 1.391 . S
C705 H693 0.950 . S
C705 C701 1.393 . S
C705 C704 1.391 . S
H706 C714 0.950 . S
H707 C719 0.950 . S
H708 C716 0.950 . S
H709 C718 0.950 . S
H710 C720 0.950 . S
H711 C722 0.950 . S
H712 C724 0.950 . S
H713 C725 0.950 . S
C714 H706 0.950 . S
C714 C715 1.386 . S
C714 C716 1.391 . S
C715 C714 1.386 . S
C715 C719 1.393 . S
C716 H708 0.950 . S
C716 C714 1.391 . S
C716 C717 1.400 . S
C717 C716 1.400 . S
C717 C718 1.398 . S
C717 C723 1.491 . S
C718 H709 0.950 . S
C718 C717 1.398 . S
C718 C719 1.391 . S
C719 H707 0.950 . S
C719 C715 1.393 . S
C719 C718 1.391 . S
C720 H710 0.950 . S
C720 C721 1.386 . S
C720 C722 1.391 . S
C721 C720 1.386 . S
C721 C725 1.393 . S
C722 H711 0.950 . S
C722 C720 1.391 . S
C722 C723 1.400 . S
C723 C717 1.491 . S
C723 C722 1.400 . S
C723 C724 1.398 . S
C724 H712 0.950 . S
C724 C723 1.398 . S
C724 C725 1.391 . S
C725 H713 0.950 . S
C725 C721 1.393 . S
C725 C724 1.391 . S
C255 C7 1.757 . S
C261 C152 1.671 . S
C275 C30 1.518 . S
C281 C163 1.454 . S
C301 C182 1.585 . S
C295 N58 1.592 . S
C321 C199 1.374 . S
C315 N81 1.363 . S
C341 C226 1.597 . S
C335 C99 1.644 . S
C361 C235 1.379 . S
C355 N127 1.385 . S
C375 N25 1.600 . S
C381 C188 1.565 . S
C395 C62 1.504 . S
C401 C208 1.450 . S
C421 C217 1.631 . S
C415 C85 1.702 . S
C441 C244 1.397 . S
C435 N94 1.407 . S
C455 C131 1.673 . S
C461 C146 1.625 . S
C481 C172 1.346 . S
C475 N2 1.352 . S
C501 C200 1.653 . S
C495 C16 1.763 . S
C515 C39 1.528 . S
C521 C224 1.456 . S
C541 C236 1.599 . S
C535 N48 1.634 . S
C555 N71 1.418 . S
C561 C154 1.376 . S
C575 C108 1.695 . S
C581 C164 1.637 . S
C595 N117 1.447 . S
C601 C181 1.372 . S
C615 N35 1.658 . S
C621 C242 1.611 . S
C641 C145 1.470 . S
C635 C53 1.564 . S
C655 C76 1.786 . S
C661 C170 1.686 . S
C675 N104 1.439 . S
C681 C190 1.381 . S
C695 C122 1.684 . S
C701 C206 1.611 . S
C715 N12 1.376 . S
C721 C218 1.345 . S
